# Generated by pormake.
# Topology anh, (6,3)-cn, num edge types: 1
# Building blocks:
#     Node 0, Type 0, BuildingBlock: BETDEL_clean_sbu_0, # of connection points: 6
#     Node 1, Type 0, BuildingBlock: BETDEL_clean_sbu_0, # of connection points: 6
#     Node 2, Type 0, BuildingBlock: BETDEL_clean_sbu_0, # of connection points: 6
#     Node 3, Type 1, BuildingBlock: OLANEW_clean_sbu_2, # of connection points: 3
#     Node 4, Type 1, BuildingBlock: OLANEW_clean_sbu_2, # of connection points: 3
#     Node 5, Type 1, BuildingBlock: OLANEW_clean_sbu_2, # of connection points: 3
#     Node 6, Type 1, BuildingBlock: OLANEW_clean_sbu_2, # of connection points: 3
#     Node 7, Type 1, BuildingBlock: OLANEW_clean_sbu_2, # of connection points: 3
#     Node 8, Type 1, BuildingBlock: OLANEW_clean_sbu_2, # of connection points: 3
#     Edge 9, Type (0, 1), BuildingBlock: TEMPAE_clean_linker_10, # of connection points: 2
#     Edge 10, Type (0, 1), BuildingBlock: TEMPAE_clean_linker_10, # of connection points: 2
#     Edge 11, Type (0, 1), BuildingBlock: TEMPAE_clean_linker_10, # of connection points: 2
#     Edge 12, Type (0, 1), BuildingBlock: TEMPAE_clean_linker_10, # of connection points: 2
#     Edge 13, Type (0, 1), BuildingBlock: TEMPAE_clean_linker_10, # of connection points: 2
#     Edge 14, Type (0, 1), BuildingBlock: TEMPAE_clean_linker_10, # of connection points: 2
#     Edge 15, Type (0, 1), BuildingBlock: TEMPAE_clean_linker_10, # of connection points: 2
#     Edge 16, Type (0, 1), BuildingBlock: TEMPAE_clean_linker_10, # of connection points: 2
#     Edge 17, Type (0, 1), BuildingBlock: TEMPAE_clean_linker_10, # of connection points: 2
#     Edge 18, Type (0, 1), BuildingBlock: TEMPAE_clean_linker_10, # of connection points: 2
#     Edge 19, Type (0, 1), BuildingBlock: TEMPAE_clean_linker_10, # of connection points: 2
#     Edge 20, Type (0, 1), BuildingBlock: TEMPAE_clean_linker_10, # of connection points: 2
#     Edge 21, Type (0, 1), BuildingBlock: TEMPAE_clean_linker_10, # of connection points: 2
#     Edge 22, Type (0, 1), BuildingBlock: TEMPAE_clean_linker_10, # of connection points: 2
#     Edge 23, Type (0, 1), BuildingBlock: TEMPAE_clean_linker_10, # of connection points: 2
#     Edge 24, Type (0, 1), BuildingBlock: TEMPAE_clean_linker_10, # of connection points: 2
#     Edge 25, Type (0, 1), BuildingBlock: TEMPAE_clean_linker_10, # of connection points: 2
#     Edge 26, Type (0, 1), BuildingBlock: TEMPAE_clean_linker_10, # of connection points: 2
# Relax obj value: 0.082
# Max RMSD: 0.105
# Mean RMSD: 0.101
data_MOF--net-anh--node1-BETDEL_clean_sbu_0--node2-OLANEW_clean_sbu_2--edge1-TEMPAE_clean_linker_10
_symmetry_space_group_name_H-M    P1
_symmetry_Int_Tables_number       1
_symmetry_cell_setting            triclinic
loop_
_symmetry_equiv_pos_as_xyz
'x, y, z'
_cell_length_a     33.582163
_cell_length_b     33.551312
_cell_length_c     50.182949
_cell_angle_alpha  89.577709
_cell_angle_beta   89.837105
_cell_angle_gamma 119.8537
loop_
_atom_site_label
_atom_site_type_symbol
_atom_site_fract_x
_atom_site_fract_y
_atom_site_fract_z
_atom_type_partial_charge
Dy0 Dy 0.03423 0.46339 0.1578 0.0
C1 C 0.89652 0.51624 0.16678 0.0
C2 C 0.09277 0.43166 0.14641 0.0
Dy3 Dy 0.96719 0.49952 0.15897 0.0
O4 O 0.06693 0.42072 0.16761 0.0
O5 O 0.0856 0.45892 0.13117 0.0
O6 O 0.06181 0.49603 0.19732 0.0
O7 O 0.99201 0.46996 0.18885 0.0
C8 C 0.02321 0.49166 0.20558 0.0
C9 C 0.00518 0.50407 0.11128 0.0
O10 O 0.0329 0.56323 0.16882 0.0
O11 O 0.07876 0.53842 0.14865 0.0
O12 O 0.90742 0.50513 0.14436 0.0
O13 O 0.92474 0.51882 0.1853 0.0
O14 O 0.99572 0.53487 0.11986 0.0
O15 O 0.9919 0.47148 0.12792 0.0
O16 O 0.96893 0.39559 0.15661 0.0
O17 O 0.91805 0.42389 0.15802 0.0
C18 C 0.0728 0.57151 0.15868 0.0
C19 C 0.92678 0.38954 0.15696 0.0
Dy20 Dy 0.45925 0.01109 0.4936 0.0
C21 C 0.64827 0.14944 0.50791 0.0
C22 C 0.3707 0.95225 0.47943 0.0
Dy23 Dy 0.56234 0.07792 0.4985 0.0
O24 O 0.38316 0.97679 0.50094 0.0
O25 O 0.4067 0.9611 0.46524 0.0
O26 O 0.45918 0.98244 0.53407 0.0
O27 O 0.50426 0.05238 0.52587 0.0
C28 C 0.49248 0.02072 0.54295 0.0
C29 C 0.53494 0.04034 0.45054 0.0
O30 O 0.55864 0.0117 0.51053 0.0
O31 O 0.49081 0.96653 0.48781 0.0
O32 O 0.6295 0.13644 0.48474 0.0
O33 O 0.62021 0.12271 0.5264 0.0
O34 O 0.57375 0.04925 0.46108 0.0
O35 O 0.51373 0.05379 0.46545 0.0
O36 O 0.45725 0.07685 0.4909 0.0
O37 O 0.53612 0.12721 0.49422 0.0
C38 C 0.52823 0.97203 0.4999 0.0
C39 C 0.49341 0.11887 0.4916 0.0
Dy40 Dy 0.56822 0.56902 0.82708 0.0
C41 C 0.50546 0.37886 0.85953 0.0
C42 C 0.58353 0.65574 0.8179 0.0
Dy43 Dy 0.52374 0.46042 0.83699 0.0
O44 O 0.57167 0.63392 0.84055 0.0
O45 O 0.58779 0.63029 0.79985 0.0
O46 O 0.60421 0.57829 0.86613 0.0
O47 O 0.53908 0.52052 0.86054 0.0
C48 C 0.57222 0.53986 0.87636 0.0
C49 C 0.52913 0.48131 0.7847 0.0
O50 O 0.46245 0.46863 0.84386 0.0
O51 O 0.49222 0.53997 0.82229 0.0
O52 O 0.48047 0.38382 0.84147 0.0
O53 O 0.5394 0.41889 0.86602 0.0
O54 O 0.51086 0.4393 0.79359 0.0
O55 O 0.54277 0.50745 0.80435 0.0
O56 O 0.62793 0.56136 0.815 0.0
O57 O 0.60016 0.48861 0.83454 0.0
C58 C 0.45751 0.50206 0.83285 0.0
C59 C 0.63354 0.52669 0.82315 0.0
O60 O 0.53186 0.01882 0.23896 0.0
Cd61 Cd 0.53928 0.02383 0.19051 0.0
O62 O 0.46569 0.95441 0.24286 0.0
Cd63 Cd 0.45195 0.93721 0.20094 0.0
O64 O 0.39643 0.87722 0.18197 0.0
C65 C 0.36091 0.87738 0.17346 0.0
O66 O 0.3599 0.91603 0.17343 0.0
C67 C 0.49977 0.98856 0.25344 0.0
C68 C 0.62561 0.09851 0.17839 0.0
O69 O 0.59142 0.10402 0.18395 0.0
O70 O 0.61891 0.05744 0.17773 0.0
O71 O 0.53928 0.52221 0.57318 0.0
Cd72 Cd 0.53547 0.51513 0.52471 0.0
O73 O 0.50493 0.56294 0.57948 0.0
Cd74 Cd 0.50212 0.58229 0.53833 0.0
O75 O 0.50173 0.64193 0.521 0.0
C76 C 0.53937 0.67907 0.51708 0.0
O77 O 0.57823 0.67945 0.52099 0.0
C78 C 0.52351 0.54084 0.58875 0.0
C79 C 0.51872 0.42684 0.51251 0.0
O80 O 0.55921 0.45946 0.51775 0.0
O81 O 0.48594 0.43598 0.51229 0.0
O82 O 0.07415 0.51013 0.90112 0.0
Cd83 Cd 0.08688 0.5213 0.8532 0.0
O84 O 0.00103 0.49023 0.90129 0.0
Cd85 Cd 0.99448 0.50322 0.85929 0.0
O86 O 0.9482 0.51902 0.83691 0.0
C87 C 0.93636 0.54422 0.84954 0.0
O88 O 0.95518 0.56028 0.87281 0.0
C89 C 0.03674 0.49692 0.91372 0.0
C90 C 0.16508 0.51516 0.84258 0.0
O91 O 0.16803 0.55331 0.8493 0.0
O92 O 0.12496 0.48012 0.83986 0.0
O93 O 0.00998 0.5317 0.41557 0.0
Cd94 Cd 0.01525 0.55302 0.46233 0.0
O95 O 0.96047 0.55516 0.40796 0.0
Cd96 Cd 0.93972 0.54418 0.45 0.0
O97 O 0.8944 0.49151 0.47881 0.0
C98 C 0.9066 0.46547 0.49039 0.0
O99 O 0.94871 0.47342 0.48683 0.0
C100 C 0.98745 0.54184 0.39921 0.0
C101 C 0.08724 0.64308 0.46748 0.0
O102 O 0.09338 0.60875 0.47149 0.0
O103 O 0.04675 0.63481 0.46156 0.0
O104 O 0.5257 0.02478 0.75358 0.0
Cd105 Cd 0.5338 0.01037 0.80035 0.0
O106 O 0.60052 0.06663 0.74868 0.0
Cd107 Cd 0.60605 0.08467 0.79083 0.0
O108 O 0.59809 0.13402 0.81531 0.0
C109 C 0.56745 0.12361 0.83319 0.0
O110 O 0.54016 0.08018 0.83951 0.0
C111 C 0.56078 0.04501 0.73845 0.0
C112 C 0.55008 0.9364 0.80218 0.0
O113 O 0.50919 0.93007 0.80321 0.0
O114 O 0.58347 0.97788 0.80097 0.0
O115 O 0.51643 0.45156 0.08468 0.0
Cd116 Cd 0.49874 0.43892 0.13245 0.0
O117 O 0.53186 0.52331 0.08666 0.0
Cd118 Cd 0.4998 0.51259 0.12571 0.0
O119 O 0.43215 0.49026 0.1426 0.0
C120 C 0.39919 0.4538 0.13303 0.0
O121 O 0.40851 0.43046 0.11562 0.0
C122 C 0.53079 0.49055 0.07351 0.0
C123 C 0.57987 0.4603 0.15861 0.0
O124 O 0.5517 0.41911 0.15141 0.0
O125 O 0.56882 0.49123 0.15428 0.0
C126 C 0.14066 0.39878 0.16256 0.0
C127 C 0.13125 0.4228 0.14293 0.0
C128 C 0.18159 0.39708 0.1618 0.0
C129 C 0.21373 0.42021 0.141 0.0
C130 C 0.20305 0.44223 0.12032 0.0
C131 C 0.1618 0.44312 0.12151 0.0
C132 C 0.19152 0.37274 0.18399 0.0
C133 C 0.23638 0.46722 0.09777 0.0
C134 C 0.34125 0.47127 0.15281 0.0
C135 C 0.35101 0.44164 0.13821 0.0
C136 C 0.29629 0.46357 0.15475 0.0
C137 C 0.26019 0.42513 0.14195 0.0
C138 C 0.26939 0.39371 0.12844 0.0
C139 C 0.31476 0.40241 0.12666 0.0
C140 C 0.28783 0.49788 0.1694 0.0
C141 C 0.23169 0.35206 0.11483 0.0
H142 H 0.11697 0.38296 0.17913 0.0
H143 H 0.15452 0.46165 0.10628 0.0
H144 H 0.20395 0.35026 0.17577 0.0
H145 H 0.21912 0.39849 0.19677 0.0
H146 H 0.16079 0.35159 0.19667 0.0
H147 H 0.2214 0.47949 0.08223 0.0
H148 H 0.26758 0.49734 0.10571 0.0
H149 H 0.2474 0.44448 0.0883 0.0
H150 H 0.36899 0.50156 0.16188 0.0
H151 H 0.32195 0.37915 0.11549 0.0
H152 H 0.25995 0.48004 0.18436 0.0
H153 H 0.27652 0.51557 0.15509 0.0
H154 H 0.31901 0.52425 0.1797 0.0
H155 H 0.20201 0.33298 0.12854 0.0
H156 H 0.24352 0.32831 0.10784 0.0
H157 H 0.2193 0.36319 0.09738 0.0
C158 C 0.71986 0.21439 0.48975 0.0
C159 C 0.69192 0.19242 0.51195 0.0
C160 C 0.75748 0.25884 0.49151 0.0
C161 C 0.76746 0.28204 0.51616 0.0
C162 C 0.74103 0.25897 0.53911 0.0
C163 C 0.70334 0.21418 0.53672 0.0
C164 C 0.78494 0.28187 0.46656 0.0
C165 C 0.7509 0.28235 0.56577 0.0
C166 C 0.88367 0.3899 0.51265 0.0
C167 C 0.87158 0.42188 0.50315 0.0
C168 C 0.84985 0.34488 0.51957 0.0
C169 C 0.80296 0.3316 0.51675 0.0
C170 C 0.79064 0.36494 0.50963 0.0
C171 C 0.82511 0.40972 0.50297 0.0
C172 C 0.8644 0.31062 0.52764 0.0
C173 C 0.741 0.35234 0.50663 0.0
H174 H 0.71124 0.19742 0.4706 0.0
H175 H 0.68163 0.1972 0.5539 0.0
H176 H 0.78032 0.3114 0.46103 0.0
H177 H 0.82206 0.2955 0.47013 0.0
H178 H 0.77442 0.25807 0.44941 0.0
H179 H 0.7333 0.25739 0.58232 0.0
H180 H 0.78835 0.30144 0.56966 0.0
H181 H 0.73875 0.30763 0.56573 0.0
H182 H 0.91952 0.39913 0.51329 0.0
H183 H 0.81539 0.43435 0.49604 0.0
H184 H 0.86037 0.2883 0.51046 0.0
H185 H 0.84245 0.28811 0.54412 0.0
H186 H 0.90085 0.32787 0.53399 0.0
H187 H 0.72664 0.33103 0.48859 0.0
H188 H 0.73701 0.38316 0.50462 0.0
H189 H 0.72035 0.33164 0.52398 0.0
C190 C 0.58757 0.71774 0.7878 0.0
C191 C 0.58657 0.70073 0.81352 0.0
C192 C 0.58489 0.75796 0.78397 0.0
C193 C 0.58137 0.78152 0.8064 0.0
C194 C 0.5823 0.76535 0.83238 0.0
C195 C 0.58477 0.72514 0.83559 0.0
C196 C 0.584 0.77419 0.75597 0.0
C197 C 0.5789 0.78951 0.85684 0.0
C198 C 0.60326 0.90405 0.80203 0.0
C199 C 0.55836 0.8969 0.80214 0.0
C200 C 0.61138 0.8668 0.80249 0.0
C201 C 0.57373 0.82135 0.80302 0.0
C202 C 0.52837 0.81394 0.80247 0.0
C203 C 0.52125 0.85176 0.80208 0.0
C204 C 0.66021 0.87608 0.80314 0.0
C205 C 0.48727 0.766 0.80301 0.0
H206 H 0.58882 0.69879 0.77072 0.0
H207 H 0.58419 0.71217 0.85553 0.0
H208 H 0.54983 0.77048 0.75201 0.0
H209 H 0.60982 0.81116 0.75363 0.0
H210 H 0.5909 0.75441 0.74078 0.0
H211 H 0.58308 0.77421 0.87559 0.0
H212 H 0.60546 0.82643 0.8561 0.0
H213 H 0.54493 0.78756 0.85741 0.0
H214 H 0.63215 0.9388 0.80193 0.0
H215 H 0.48646 0.84587 0.80197 0.0
H216 H 0.66592 0.85676 0.78716 0.0
H217 H 0.6666 0.86394 0.82243 0.0
H218 H 0.68566 0.9132 0.80068 0.0
H219 H 0.49009 0.74519 0.78682 0.0
H220 H 0.45439 0.76603 0.80076 0.0
H221 H 0.48622 0.74874 0.82217 0.0
C222 C 0.83665 0.51745 0.19613 0.0
C223 C 0.85445 0.51893 0.17063 0.0
C224 C 0.79282 0.51267 0.19934 0.0
C225 C 0.76665 0.50925 0.17648 0.0
C226 C 0.7859 0.51356 0.15076 0.0
C227 C 0.82954 0.51834 0.14819 0.0
C228 C 0.77366 0.50878 0.22706 0.0
C229 C 0.75939 0.51045 0.12582 0.0
C230 C 0.63769 0.43826 0.17245 0.0
C231 C 0.6257 0.47246 0.16906 0.0
C232 C 0.68325 0.44978 0.17729 0.0
C233 C 0.71762 0.49664 0.17879 0.0
C234 C 0.70506 0.5311 0.17781 0.0
C235 C 0.65916 0.51861 0.17289 0.0
C236 C 0.69513 0.41189 0.17844 0.0
C237 C 0.74058 0.58138 0.17976 0.0
H238 H 0.85598 0.51793 0.21351 0.0
H239 H 0.84347 0.51988 0.12844 0.0
H240 H 0.75634 0.52948 0.22879 0.0
H241 H 0.74757 0.47244 0.23129 0.0
H242 H 0.8008 0.52015 0.24244 0.0
H243 H 0.7805 0.51755 0.10745 0.0
H244 H 0.72905 0.47547 0.12436 0.0
H245 H 0.7466 0.53518 0.12665 0.0
H246 H 0.61194 0.40247 0.16989 0.0
H247 H 0.6501 0.54525 0.1706 0.0
H248 H 0.71833 0.41708 0.19536 0.0
H249 H 0.71352 0.4126 0.15987 0.0
H250 H 0.6641 0.37737 0.18051 0.0
H251 H 0.76568 0.58702 0.19567 0.0
H252 H 0.72465 0.60288 0.18384 0.0
H253 H 0.75989 0.5932 0.16066 0.0
C254 C 0.29084 0.89871 0.49507 0.0
C255 C 0.32428 0.91302 0.47492 0.0
C256 C 0.24956 0.85676 0.49327 0.0
C257 C 0.24147 0.82881 0.47065 0.0
C258 C 0.2739 0.84461 0.44948 0.0
C259 C 0.3151 0.88649 0.45193 0.0
C260 C 0.21596 0.84109 0.51632 0.0
C261 C 0.26626 0.81613 0.42486 0.0
C262 C 0.16829 0.69948 0.47945 0.0
C263 C 0.12607 0.69082 0.469 0.0
C264 C 0.20587 0.7443 0.48033 0.0
C265 C 0.20133 0.78137 0.47025 0.0
C266 C 0.15877 0.77292 0.45976 0.0
C267 C 0.12154 0.72775 0.4594 0.0
C268 C 0.25055 0.75193 0.49197 0.0
C269 C 0.15279 0.81151 0.4486 0.0
H270 H 0.29789 0.91914 0.5129 0.0
H271 H 0.3409 0.89756 0.4363 0.0
H272 H 0.18074 0.82961 0.50909 0.0
H273 H 0.2153 0.81123 0.52642 0.0
H274 H 0.22514 0.86862 0.53121 0.0
H275 H 0.2921 0.83547 0.40902 0.0
H276 H 0.26834 0.78504 0.43013 0.0
H277 H 0.23149 0.80435 0.41676 0.0
H278 H 0.17202 0.67116 0.48698 0.0
H279 H 0.08907 0.72128 0.45117 0.0
H280 H 0.26104 0.77669 0.5086 0.0
H281 H 0.27811 0.76709 0.47661 0.0
H282 H 0.24809 0.71958 0.49955 0.0
H283 H 0.16088 0.83791 0.46403 0.0
H284 H 0.11734 0.79928 0.44139 0.0
H285 H 0.17715 0.82856 0.43179 0.0
C286 C 0.53656 0.33403 0.88246 0.0
C287 C 0.50432 0.33508 0.86523 0.0
C288 C 0.54405 0.29639 0.88276 0.0
C289 C 0.51923 0.25952 0.86508 0.0
C290 C 0.48378 0.25871 0.84944 0.0
C291 C 0.4765 0.2964 0.84988 0.0
C292 C 0.5812 0.298 0.90034 0.0
C293 C 0.45658 0.22022 0.83023 0.0
C294 C 0.58066 0.20373 0.83222 0.0
C295 C 0.55876 0.15972 0.84389 0.0
C296 C 0.569 0.23684 0.83961 0.0
C297 C 0.53509 0.22609 0.85954 0.0
C298 C 0.51462 0.18265 0.87248 0.0
C299 C 0.52638 0.14976 0.86432 0.0
C300 C 0.5916 0.28269 0.82517 0.0
C301 C 0.47924 0.17039 0.89428 0.0
H302 H 0.55791 0.36378 0.89452 0.0
H303 H 0.45141 0.29703 0.83659 0.0
H304 H 0.57039 0.26371 0.90924 0.0
H305 H 0.6125 0.30811 0.88817 0.0
H306 H 0.59028 0.32331 0.91661 0.0
H307 H 0.42671 0.22182 0.82201 0.0
H308 H 0.47914 0.22245 0.8134 0.0
H309 H 0.44399 0.18632 0.84009 0.0
H310 H 0.60578 0.21187 0.81646 0.0
H311 H 0.50954 0.11597 0.8736 0.0
H312 H 0.60795 0.3111 0.83966 0.0
H313 H 0.56527 0.28708 0.8143 0.0
H314 H 0.61815 0.28605 0.81065 0.0
H315 H 0.49126 0.19849 0.90901 0.0
H316 H 0.47143 0.13805 0.90484 0.0
H317 H 0.44697 0.166 0.8856 0.0
C318 C 0.52428 0.90343 0.47892 0.0
C319 C 0.53589 0.93253 0.50091 0.0
C320 C 0.52789 0.86359 0.47997 0.0
C321 C 0.54209 0.85193 0.50389 0.0
C322 C 0.55461 0.88171 0.52604 0.0
C323 C 0.55198 0.92215 0.52413 0.0
C324 C 0.51539 0.83343 0.45571 0.0
C325 C 0.56891 0.86992 0.55207 0.0
C326 C 0.49968 0.72533 0.51657 0.0
C327 C 0.53939 0.72255 0.51175 0.0
C328 C 0.50021 0.76726 0.51414 0.0
C329 C 0.5412 0.80726 0.5062 0.0
C330 C 0.58105 0.80445 0.50053 0.0
C331 C 0.57979 0.76218 0.50362 0.0
C332 C 0.45712 0.76895 0.52066 0.0
C333 C 0.62506 0.84614 0.49141 0.0
H334 H 0.5122 0.91182 0.46087 0.0
H335 H 0.56052 0.94457 0.54118 0.0
H336 H 0.54316 0.8258 0.45088 0.0
H337 H 0.48384 0.80015 0.45987 0.0
H338 H 0.50923 0.84958 0.43797 0.0
H339 H 0.57892 0.8974 0.56709 0.0
H340 H 0.54014 0.83755 0.56033 0.0
H341 H 0.59823 0.86401 0.54877 0.0
H342 H 0.46842 0.69495 0.52306 0.0
H343 H 0.61055 0.76023 0.49978 0.0
H344 H 0.44623 0.78123 0.50306 0.0
H345 H 0.46406 0.79372 0.53695 0.0
H346 H 0.42826 0.73488 0.52689 0.0
H347 H 0.61868 0.8615 0.47341 0.0
H348 H 0.65242 0.83779 0.48672 0.0
H349 H 0.63773 0.87265 0.50714 0.0
C350 C 0.68677 0.49637 0.83193 0.0
C351 C 0.6797 0.53114 0.82126 0.0
C352 C 0.73069 0.50138 0.83291 0.0
C353 C 0.76869 0.54202 0.82273 0.0
C354 C 0.76166 0.57631 0.81069 0.0
C355 C 0.71722 0.57059 0.81022 0.0
C356 C 0.73661 0.46398 0.84603 0.0
C357 C 0.80126 0.61975 0.79923 0.0
C358 C 0.87946 0.57022 0.85733 0.0
C359 C 0.89755 0.54997 0.8404 0.0
C360 C 0.83877 0.57009 0.85105 0.0
C361 C 0.81584 0.54979 0.82705 0.0
C362 C 0.83557 0.53218 0.80897 0.0
C363 C 0.8761 0.53217 0.81595 0.0
C364 C 0.81876 0.58898 0.87099 0.0
C365 C 0.8126 0.51111 0.78294 0.0
H366 H 0.65814 0.46555 0.84037 0.0
H367 H 0.71213 0.59751 0.80173 0.0
H368 H 0.7553 0.45283 0.8325 0.0
H369 H 0.75749 0.47749 0.86431 0.0
H370 H 0.70326 0.43343 0.85162 0.0
H371 H 0.78944 0.64008 0.78751 0.0
H372 H 0.82328 0.64144 0.81563 0.0
H373 H 0.82292 0.6115 0.78623 0.0
H374 H 0.89591 0.58434 0.8762 0.0
H375 H 0.89009 0.51688 0.80262 0.0
H376 H 0.78652 0.5604 0.87951 0.0
H377 H 0.80997 0.61322 0.86109 0.0
H378 H 0.84268 0.60704 0.8876 0.0
H379 H 0.78141 0.47743 0.7869 0.0
H380 H 0.8356 0.50558 0.7694 0.0
H381 H 0.80152 0.5333 0.77264 0.0
C382 C 0.14496 0.63264 0.13783 0.0
C383 C 0.11212 0.6187 0.1583 0.0
C384 C 0.18433 0.67628 0.13796 0.0
C385 C 0.19152 0.70611 0.15946 0.0
C386 C 0.1579 0.69253 0.17992 0.0
C387 C 0.11821 0.64907 0.17891 0.0
C388 C 0.21883 0.68988 0.11549 0.0
C389 C 0.1648 0.72305 0.20345 0.0
C390 C 0.31472 0.7919 0.17687 0.0
C391 C 0.31888 0.8334 0.16767 0.0
C392 C 0.27347 0.75029 0.17424 0.0
C393 C 0.23571 0.74999 0.16159 0.0
C394 C 0.24015 0.79147 0.15138 0.0
C395 C 0.2816 0.83283 0.15479 0.0
C396 C 0.26993 0.70684 0.18568 0.0
C397 C 0.20093 0.79223 0.13721 0.0
H398 H 0.13995 0.60927 0.12171 0.0
H399 H 0.09291 0.63809 0.19482 0.0
H400 H 0.2276 0.72418 0.10739 0.0
H401 H 0.25101 0.69247 0.12308 0.0
H402 H 0.20592 0.6647 0.09899 0.0
H403 H 0.13451 0.7083 0.21703 0.0
H404 H 0.19517 0.72814 0.21492 0.0
H405 H 0.17177 0.75741 0.19652 0.0
H406 H 0.34325 0.79206 0.18702 0.0
H407 H 0.28468 0.86479 0.14757 0.0
H408 H 0.26079 0.68095 0.1698 0.0
H409 H 0.24217 0.69179 0.20094 0.0
H410 H 0.30245 0.71301 0.19502 0.0
H411 H 0.18884 0.7674 0.12057 0.0
H412 H 0.21077 0.82686 0.12912 0.0
H413 H 0.17157 0.78141 0.15116 0.0
C414 C 0.51515 0.19607 0.47348 0.0
C415 C 0.4869 0.1591 0.49029 0.0
C416 C 0.51522 0.23783 0.47489 0.0
C417 C 0.48767 0.24324 0.49434 0.0
C418 C 0.45768 0.20527 0.51068 0.0
C419 C 0.45716 0.16329 0.50817 0.0
C420 C 0.54662 0.27687 0.45651 0.0
C421 C 0.42869 0.20992 0.53212 0.0
C422 C 0.53798 0.36493 0.52003 0.0
C423 C 0.51007 0.37972 0.50782 0.0
C424 C 0.53004 0.32014 0.51641 0.0
C425 C 0.49421 0.28981 0.49945 0.0
C426 C 0.46611 0.3047 0.48685 0.0
C427 C 0.4739 0.34931 0.49156 0.0
C428 C 0.56012 0.30534 0.53075 0.0
C429 C 0.4286 0.27391 0.46797 0.0
H430 H 0.5381 0.19263 0.45964 0.0
H431 H 0.43581 0.13476 0.5214 0.0
H432 H 0.52817 0.29353 0.44777 0.0
H433 H 0.57597 0.30334 0.46798 0.0
H434 H 0.56042 0.26514 0.44008 0.0
H435 H 0.40396 0.17624 0.54129 0.0
H436 H 0.45137 0.23275 0.54799 0.0
H437 H 0.40936 0.22603 0.52396 0.0
H438 H 0.56564 0.3882 0.53286 0.0
H439 H 0.4524 0.36079 0.48201 0.0
H440 H 0.58047 0.29819 0.51607 0.0
H441 H 0.53856 0.27308 0.54216 0.0
H442 H 0.58423 0.33189 0.54471 0.0
H443 H 0.4437 0.26479 0.451 0.0
H444 H 0.40945 0.29044 0.46 0.0
H445 H 0.40397 0.24136 0.47818 0.0
C446 C 0.40117 0.52054 0.81237 0.0
C447 C 0.41171 0.49807 0.83245 0.0
C448 C 0.35937 0.52039 0.81256 0.0
C449 C 0.32777 0.49807 0.83368 0.0
C450 C 0.33772 0.47432 0.85369 0.0
C451 C 0.37947 0.47417 0.85266 0.0
C452 C 0.34965 0.54527 0.79056 0.0
C453 C 0.30517 0.45077 0.87676 0.0
C454 C 0.24851 0.54479 0.85019 0.0
C455 C 0.20681 0.51127 0.83939 0.0
C456 C 0.28792 0.54052 0.84874 0.0
C457 C 0.28582 0.50224 0.83572 0.0
C458 C 0.24402 0.46864 0.82436 0.0
C459 C 0.20483 0.47332 0.82657 0.0
C460 C 0.33173 0.5768 0.86139 0.0
C461 C 0.24078 0.42793 0.8098 0.0
H462 H 0.42584 0.53861 0.79651 0.0
H463 H 0.38768 0.45698 0.86828 0.0
H464 H 0.31535 0.52251 0.7819 0.0
H465 H 0.34913 0.57559 0.7988 0.0
H466 H 0.3758 0.55719 0.77435 0.0
H467 H 0.31685 0.43186 0.88991 0.0
H468 H 0.30212 0.47671 0.88883 0.0
H469 H 0.27039 0.42626 0.86934 0.0
H470 H 0.25016 0.574 0.86032 0.0
H471 H 0.17269 0.44738 0.81812 0.0
H472 H 0.35905 0.59363 0.84601 0.0
H473 H 0.3439 0.56065 0.87624 0.0
H474 H 0.32723 0.60368 0.87149 0.0
H475 H 0.26588 0.43998 0.79306 0.0
H476 H 0.20591 0.40522 0.80174 0.0
H477 H 0.24968 0.40738 0.8234 0.0
C478 C 0.88454 0.30877 0.17401 0.0
C479 C 0.88705 0.34268 0.15656 0.0
C480 C 0.84366 0.26639 0.1767 0.0
C481 C 0.80519 0.25754 0.16093 0.0
C482 C 0.80887 0.29074 0.142 0.0
C483 C 0.8495 0.33327 0.14042 0.0
C484 C 0.84073 0.23244 0.19761 0.0
C485 C 0.76921 0.28217 0.12423 0.0
C486 C 0.70365 0.13577 0.15712 0.0
C487 C 0.67176 0.13863 0.17391 0.0
C488 C 0.74736 0.1742 0.15261 0.0
C489 C 0.75979 0.21582 0.16595 0.0
C490 C 0.72802 0.21836 0.18348 0.0
C491 C 0.68414 0.17997 0.18689 0.0
C492 C 0.77976 0.17065 0.13314 0.0
C493 C 0.74029 0.26171 0.19862 0.0
H494 H 0.91356 0.3164 0.18666 0.0
H495 H 0.85171 0.35958 0.12681 0.0
H496 H 0.81682 0.2299 0.21371 0.0
H497 H 0.82673 0.19772 0.18898 0.0
H498 H 0.87467 0.24268 0.20656 0.0
H499 H 0.77964 0.30868 0.10825 0.0
H500 H 0.75451 0.24789 0.11488 0.0
H501 H 0.74161 0.2824 0.13631 0.0
H502 H 0.694 0.10381 0.14701 0.0
H503 H 0.6597 0.18206 0.20015 0.0
H504 H 0.81264 0.17964 0.14302 0.0
H505 H 0.78783 0.19562 0.11653 0.0
H506 H 0.76513 0.13566 0.12468 0.0
H507 H 0.77267 0.27316 0.20974 0.0
H508 H 0.71294 0.25692 0.21295 0.0
H509 H 0.74616 0.2897 0.18447 0.0
C510 C 0.01617 0.46249 0.07338 0.0
C511 C 0.01842 0.50237 0.08349 0.0
C512 C 0.02313 0.45888 0.04608 0.0
C513 C 0.0326 0.4961 0.02872 0.0
C514 C 0.0375 0.53736 0.0392 0.0
C515 C 0.03031 0.53996 0.06648 0.0
C516 C 0.01801 0.4145 0.03567 0.0
C517 C 0.048 0.57799 0.0214 0.0
C518 C 0.07548 0.50501 0.95763 0.0
C519 C 0.03517 0.4919 0.94313 0.0
C520 C 0.07494 0.50465 0.98563 0.0
C521 C 0.03316 0.49084 -0.00063 0.0
C522 C 0.99207 0.47558 0.98487 0.0
C523 C 0.99359 0.47633 0.95695 0.0
C524 C 0.1194 0.52098 0.00044 0.0
C525 C 0.94674 0.46036 -0.00119 0.0
H526 H 0.00727 0.43349 0.08659 0.0
H527 H 0.03259 0.57103 0.07435 0.0
H528 H 0.98601 0.39646 0.0239 0.0
H529 H 0.04702 0.42143 0.02216 0.0
H530 H 0.01641 0.39122 0.05202 0.0
H531 H 0.05448 0.60875 0.03295 0.0
H532 H 0.07851 0.58704 0.00872 0.0
H533 H 0.01863 0.56891 0.0079 0.0
H534 H 0.10774 0.51691 0.94716 0.0
H535 H 0.96218 0.46577 0.94595 0.0
H536 H 0.11506 0.49625 0.01653 0.0
H537 H 0.12941 0.55435 0.01001 0.0
H538 H 0.14782 0.5256 0.98706 0.0
H539 H 0.94024 0.43369 0.01409 0.0
H540 H 0.91747 0.44632 0.98475 0.0
H541 H 0.94793 0.48996 0.00927 0.0
C542 C 0.54619 0.0069 0.40928 0.0
C543 C 0.52273 0.02541 0.42285 0.0
C544 C 0.53909 0.99715 0.38206 0.0
C545 C 0.50822 0.00674 0.3681 0.0
C546 C 0.48292 0.02357 0.38199 0.0
C547 C 0.49026 0.03242 0.40936 0.0
C548 C 0.56605 0.97837 0.36805 0.0
C549 C 0.4498 0.03431 0.36773 0.0
C550 C 0.53402 0.03451 0.29456 0.0
C551 C 0.50167 0.99324 0.28278 0.0
C552 C 0.5359 0.03955 0.32231 0.0
C553 C 0.50502 0.00223 0.33868 0.0
C554 C 0.47227 0.96048 0.32696 0.0
C555 C 0.47083 0.95655 0.29912 0.0
C556 C 0.57112 0.08475 0.33412 0.0
C557 C 0.43921 0.91981 0.34384 0.0
H558 H 0.57091 0.00096 0.41985 0.0
H559 H 0.47204 0.04664 0.41993 0.0
H560 H 0.54276 0.94767 0.35629 0.0
H561 H 0.59092 0.00457 0.35391 0.0
H562 H 0.5853 0.96877 0.38223 0.0
H563 H 0.43022 0.04373 0.38174 0.0
H564 H 0.46903 0.06335 0.35358 0.0
H565 H 0.42515 0.00438 0.3559 0.0
H566 H 0.55777 0.06311 0.28208 0.0
H567 H 0.44579 0.92448 0.29018 0.0
H568 H 0.59499 0.07945 0.34693 0.0
H569 H 0.55388 0.09852 0.34695 0.0
H570 H 0.59153 0.11089 0.3186 0.0
H571 H 0.45858 0.90888 0.35701 0.0
H572 H 0.41522 0.89005 0.3316 0.0
H573 H 0.41883 0.92959 0.35691 0.0
C574 C 0.50241 0.46006 0.7384 0.0
C575 C 0.52929 0.49427 0.75664 0.0
C576 C 0.5022 0.4706 0.7114 0.0
C577 C 0.53022 0.51642 0.70236 0.0
C578 C 0.55732 0.55128 0.72076 0.0
C579 C 0.5563 0.53978 0.74784 0.0
C580 C 0.47222 0.43256 0.69252 0.0
C581 C 0.588 0.6004 0.71175 0.0
C582 C 0.55856 0.52568 0.62865 0.0
C583 C 0.52685 0.53692 0.61793 0.0
C584 C 0.56157 0.52115 0.65627 0.0
C585 C 0.53151 0.52709 0.6735 0.0
C586 C 0.49998 0.53922 0.66284 0.0
C587 C 0.4983 0.54439 0.63517 0.0
C588 C 0.59611 0.50884 0.66696 0.0
C589 C 0.4668 0.54499 0.68056 0.0
H590 H 0.48131 0.42484 0.74527 0.0
H591 H 0.57728 0.5661 0.762 0.0
H592 H 0.44904 0.44165 0.68167 0.0
H593 H 0.49389 0.42818 0.67742 0.0
H594 H 0.45098 0.39916 0.70299 0.0
H595 H 0.60561 0.62366 0.72869 0.0
H596 H 0.61437 0.60221 0.69765 0.0
H597 H 0.56769 0.61312 0.70093 0.0
H598 H 0.58111 0.52044 0.61544 0.0
H599 H 0.4737 0.55306 0.627 0.0
H600 H 0.57791 0.47386 0.67594 0.0
H601 H 0.61678 0.53298 0.6829 0.0
H602 H 0.61973 0.50957 0.65118 0.0
H603 H 0.44271 0.5116 0.69021 0.0
H604 H 0.44649 0.55734 0.66933 0.0
H605 H 0.48554 0.56965 0.69669 0.0
C606 C 0.53238 0.07056 0.58178 0.0
C607 C 0.50999 0.02691 0.57032 0.0
C608 C 0.5448 0.07588 0.60876 0.0
C609 C 0.53538 0.03667 0.6243 0.0
C610 C 0.51514 0.99288 0.61229 0.0
C611 C 0.50222 0.98848 0.58548 0.0
C612 C 0.56581 0.12303 0.62093 0.0
C613 C 0.50555 0.95041 0.628 0.0
C614 C 0.59131 0.05175 0.69205 0.0
C615 C 0.55506 0.04394 0.70923 0.0
C616 C 0.58559 0.04969 0.66427 0.0
C617 C 0.54296 0.04061 0.65354 0.0
C618 C 0.50664 0.03372 0.67083 0.0
C619 C 0.51298 0.03497 0.69845 0.0
C620 C 0.62473 0.05625 0.64645 0.0
C621 C 0.4609 0.02472 0.66014 0.0
H622 H 0.53845 0.10029 0.56997 0.0
H623 H 0.48545 0.95479 0.57643 0.0
H624 H 0.54136 0.12385 0.63554 0.0
H625 H 0.59747 0.13092 0.63191 0.0
H626 H 0.57437 0.15039 0.60571 0.0
H627 H 0.49447 0.92002 0.61504 0.0
H628 H 0.53661 0.95641 0.63904 0.0
H629 H 0.47807 0.94236 0.64292 0.0
H630 H 0.62385 0.05851 0.70032 0.0
H631 H 0.485 0.02935 0.71165 0.0
H632 H 0.6335 0.08468 0.63201 0.0
H633 H 0.61419 0.02467 0.63472 0.0
H634 H 0.65599 0.06401 0.6579 0.0
H635 H 0.46601 0.05248 0.64599 0.0
H636 H 0.43706 0.02252 0.67622 0.0
H637 H 0.4444 0.992 0.64899 0.0
C638 C 0.60976 0.54774 0.92028 0.0
C639 C 0.57033 0.5264 0.90453 0.0
C640 C 0.60725 0.53917 0.94782 0.0
C641 C 0.56411 0.50942 0.95984 0.0
C642 C 0.52457 0.48622 0.94376 0.0
C643 C 0.52829 0.49462 0.9162 0.0
C644 C 0.65036 0.56358 0.96421 0.0
C645 C 0.47782 0.45473 0.95582 0.0
C646 C 0.55204 0.46596 0.03124 0.0
C647 C 0.54308 0.49708 0.04484 0.0
C648 C 0.56069 0.47045 0.00364 0.0
C649 C 0.55928 0.50624 0.98934 0.0
C650 C 0.55106 0.53818 0.00307 0.0
C651 C 0.54355 0.53349 0.03067 0.0
C652 C 0.57048 0.43647 0.98973 0.0
C653 C 0.5486 0.57646 0.98848 0.0
H654 H 0.64239 0.57196 0.91116 0.0
H655 H 0.49778 0.47799 0.90399 0.0
H656 H 0.64915 0.59043 0.97638 0.0
H657 H 0.65291 0.53914 0.97815 0.0
H658 H 0.68179 0.58025 0.95154 0.0
H659 H 0.45119 0.43684 0.94041 0.0
H660 H 0.479 0.42855 0.96889 0.0
H661 H 0.46731 0.47502 0.96841 0.0
H662 H 0.55203 0.43793 0.04213 0.0
H663 H 0.53643 0.55753 0.04102 0.0
H664 H 0.6024 0.4549 0.97763 0.0
H665 H 0.54216 0.41538 0.97587 0.0
H666 H 0.57421 0.41308 0.004 0.0
H667 H 0.58103 0.59818 0.97734 0.0
H668 H 0.54245 0.59874 0.00217 0.0
H669 H 0.52047 0.5617 0.9737 0.0
C670 C 0.97214 0.4809 0.2444 0.0
C671 C 0.01582 0.50365 0.23258 0.0
C672 C 0.96589 0.48873 0.27114 0.0
C673 C 0.00407 0.52094 0.28604 0.0
C674 C 0.04776 0.54581 0.27363 0.0
C675 C 0.05321 0.53639 0.24711 0.0
C676 C 0.91894 0.46097 0.28378 0.0
C677 C 0.08905 0.58133 0.28858 0.0
C678 C 0.98219 0.56259 0.35183 0.0
C679 C 0.99169 0.53685 0.37026 0.0
C680 C 0.98639 0.5581 0.3243 0.0
C681 C 0.99916 0.52623 0.31506 0.0
C682 C 0.00807 0.49967 0.33361 0.0
C683 C 0.00482 0.50575 0.36099 0.0
C684 C 0.9778 0.58785 0.30513 0.0
C685 C 0.02086 0.46463 0.32455 0.0
H686 H 0.94323 0.45555 0.2331 0.0
H687 H 0.08691 0.55438 0.23779 0.0
H688 H 0.92008 0.43822 0.29956 0.0
H689 H 0.90847 0.48397 0.29346 0.0
H690 H 0.89235 0.43937 0.26908 0.0
H691 H 0.11927 0.60108 0.27528 0.0
H692 H 0.08087 0.60575 0.29864 0.0
H693 H 0.09855 0.56419 0.30429 0.0
H694 H 0.97228 0.58686 0.35896 0.0
H695 H 0.01176 0.48547 0.37517 0.0
H696 H 0.94973 0.56603 0.2913 0.0
H697 H 0.00899 0.60892 0.29281 0.0
H698 H 0.96844 0.61118 0.31553 0.0
H699 H 0.99423 0.43974 0.31095 0.0
H700 H 0.02468 0.44534 0.3415 0.0
H701 H 0.0537 0.48196 0.31323 0.0
loop_
_geom_bond_atom_site_label_1
_geom_bond_atom_site_label_2
_geom_bond_distance
_geom_bond_site_symmetry_2
_ccdc_geom_bond_type
Dy0 O4 2.398 . S
Dy0 O5 2.491 . S
Dy0 O6 2.403 . S
Dy0 O7 2.664 . S
Dy0 O11 2.326 . S
Dy0 O15 2.310 . S
Dy0 O16 2.351 1_455 S
C1 O12 1.185 . S
C1 O13 1.355 . S
C2 O4 1.185 . S
C2 O5 1.355 . S
Dy3 O7 2.310 1_655 S
Dy3 O10 2.351 1_655 S
Dy3 O12 2.398 . S
Dy3 O13 2.491 . S
Dy3 O14 2.403 . S
Dy3 O15 2.664 1_655 S
Dy3 O17 2.326 . S
O4 Dy0 2.398 . S
O4 C2 1.185 . S
O5 Dy0 2.491 . S
O5 C2 1.355 . S
O6 Dy0 2.403 . S
O6 C8 1.254 . S
O7 Dy0 2.664 . S
O7 Dy3 2.310 1_455 S
O7 C8 1.268 . S
C8 O6 1.254 . S
C8 O7 1.268 . S
C9 O14 1.254 1_455 S
C9 O15 1.268 . S
O10 Dy3 2.351 1_455 S
O10 C18 1.249 . S
O11 Dy0 2.326 . S
O11 C18 1.267 . S
O12 C1 1.185 . S
O12 Dy3 2.398 . S
O13 C1 1.355 . S
O13 Dy3 2.491 . S
O14 Dy3 2.403 . S
O14 C9 1.254 1_655 S
O15 Dy0 2.310 . S
O15 Dy3 2.664 1_455 S
O15 C9 1.268 . S
O16 Dy0 2.351 1_655 S
O16 C19 1.249 . S
O17 Dy3 2.326 . S
O17 C19 1.267 . S
C18 O10 1.249 . S
C18 O11 1.267 . S
C19 O16 1.249 . S
C19 O17 1.267 . S
Dy20 O24 2.398 . S
Dy20 O25 2.491 . S
Dy20 O26 2.403 . S
Dy20 O27 2.664 1_565 S
Dy20 O31 2.326 . S
Dy20 O35 2.310 1_565 S
Dy20 O36 2.351 1_565 S
C21 O32 1.185 . S
C21 O33 1.355 . S
C22 O24 1.185 . S
C22 O25 1.355 . S
Dy23 O27 2.310 . S
Dy23 O30 2.351 1_545 S
Dy23 O32 2.398 . S
Dy23 O33 2.491 . S
Dy23 O34 2.403 . S
Dy23 O35 2.664 . S
Dy23 O37 2.326 . S
O24 Dy20 2.398 . S
O24 C22 1.185 . S
O25 Dy20 2.491 . S
O25 C22 1.355 . S
O26 Dy20 2.403 . S
O26 C28 1.254 1_565 S
O27 Dy20 2.664 1_545 S
O27 Dy23 2.310 . S
O27 C28 1.268 . S
C28 O26 1.254 1_545 S
C28 O27 1.268 . S
C29 O34 1.254 . S
C29 O35 1.268 . S
O30 Dy23 2.351 1_565 S
O30 C38 1.249 . S
O31 Dy20 2.326 . S
O31 C38 1.267 . S
O32 C21 1.185 . S
O32 Dy23 2.398 . S
O33 C21 1.355 . S
O33 Dy23 2.491 . S
O34 Dy23 2.403 . S
O34 C29 1.254 . S
O35 Dy20 2.310 1_545 S
O35 Dy23 2.664 . S
O35 C29 1.268 . S
O36 Dy20 2.351 1_545 S
O36 C39 1.249 . S
O37 Dy23 2.326 . S
O37 C39 1.267 . S
C38 O30 1.249 . S
C38 O31 1.267 . S
C39 O36 1.249 . S
C39 O37 1.267 . S
Dy40 O44 2.398 . S
Dy40 O45 2.491 . S
Dy40 O46 2.403 . S
Dy40 O47 2.664 . S
Dy40 O51 2.326 . S
Dy40 O55 2.310 . S
Dy40 O56 2.351 . S
C41 O52 1.185 . S
C41 O53 1.355 . S
C42 O44 1.185 . S
C42 O45 1.355 . S
Dy43 O47 2.310 . S
Dy43 O50 2.351 . S
Dy43 O52 2.398 . S
Dy43 O53 2.491 . S
Dy43 O54 2.403 . S
Dy43 O55 2.664 . S
Dy43 O57 2.326 . S
O44 Dy40 2.398 . S
O44 C42 1.185 . S
O45 Dy40 2.491 . S
O45 C42 1.355 . S
O46 Dy40 2.403 . S
O46 C48 1.254 . S
O47 Dy40 2.664 . S
O47 Dy43 2.310 . S
O47 C48 1.268 . S
C48 O46 1.254 . S
C48 O47 1.268 . S
C49 O54 1.254 . S
C49 O55 1.268 . S
O50 Dy43 2.351 . S
O50 C58 1.249 . S
O51 Dy40 2.326 . S
O51 C58 1.267 . S
O52 C41 1.185 . S
O52 Dy43 2.398 . S
O53 C41 1.355 . S
O53 Dy43 2.491 . S
O54 Dy43 2.403 . S
O54 C49 1.254 . S
O55 Dy40 2.310 . S
O55 Dy43 2.664 . S
O55 C49 1.268 . S
O56 Dy40 2.351 . S
O56 C59 1.249 . S
O57 Dy43 2.326 . S
O57 C59 1.267 . S
C58 O50 1.249 . S
C58 O51 1.267 . S
C59 O56 1.249 . S
C59 O57 1.267 . S
O60 Cd61 2.300 . S
O60 C67 1.275 1_545 S
Cd61 O60 2.300 . S
Cd61 O69 2.381 . S
Cd61 O70 2.378 . S
O62 Cd63 2.385 . S
O62 C67 1.255 . S
Cd63 O62 2.385 . S
Cd63 O64 2.317 . S
O64 Cd63 2.317 . S
O64 C65 1.232 . S
C65 O64 1.232 . S
C65 O66 1.218 . S
O66 C65 1.218 . S
C67 O60 1.275 1_565 S
C67 O62 1.255 . S
C68 O69 1.258 . S
C68 O70 1.256 . S
O69 Cd61 2.381 . S
O69 C68 1.258 . S
O70 Cd61 2.378 . S
O70 C68 1.256 . S
O71 Cd72 2.300 . S
O71 C78 1.275 . S
Cd72 O71 2.300 . S
Cd72 O80 2.381 . S
Cd72 O81 2.378 . S
O73 Cd74 2.385 . S
O73 C78 1.255 . S
Cd74 O73 2.385 . S
Cd74 O75 2.317 . S
O75 Cd74 2.317 . S
O75 C76 1.232 . S
C76 O75 1.232 . S
C76 O77 1.218 . S
O77 C76 1.218 . S
C78 O71 1.275 . S
C78 O73 1.255 . S
C79 O80 1.258 . S
C79 O81 1.256 . S
O80 Cd72 2.381 . S
O80 C79 1.258 . S
O81 Cd72 2.378 . S
O81 C79 1.256 . S
O82 Cd83 2.300 . S
O82 C89 1.275 . S
Cd83 O82 2.300 . S
Cd83 O91 2.381 . S
Cd83 O92 2.378 . S
O84 Cd85 2.385 1_455 S
O84 C89 1.255 . S
Cd85 O84 2.385 1_655 S
Cd85 O86 2.317 . S
O86 Cd85 2.317 . S
O86 C87 1.232 . S
C87 O86 1.232 . S
C87 O88 1.218 . S
O88 C87 1.218 . S
C89 O82 1.275 . S
C89 O84 1.255 . S
C90 O91 1.258 . S
C90 O92 1.256 . S
O91 Cd83 2.381 . S
O91 C90 1.258 . S
O92 Cd83 2.378 . S
O92 C90 1.256 . S
O93 Cd94 2.300 . S
O93 C100 1.292 . S
Cd94 O93 2.300 . S
Cd94 O102 2.381 . S
Cd94 O103 2.378 . S
O95 Cd96 2.385 . S
O95 C100 1.236 1_655 S
Cd96 O95 2.385 . S
Cd96 O97 2.317 . S
O97 Cd96 2.317 . S
O97 C98 1.232 . S
C98 O97 1.232 . S
C98 O99 1.218 . S
O99 C98 1.218 . S
C100 O93 1.292 . S
C100 O95 1.236 1_455 S
C101 O102 1.258 . S
C101 O103 1.256 . S
O102 Cd94 2.381 . S
O102 C101 1.258 . S
O103 Cd94 2.378 . S
O103 C101 1.256 . S
O104 Cd105 2.300 1_565 S
O104 C111 1.275 1_565 S
Cd105 O104 2.300 1_545 S
Cd105 O113 2.381 1_545 S
Cd105 O114 2.378 1_545 S
O106 Cd107 2.385 . S
O106 C111 1.255 . S
Cd107 O106 2.385 . S
Cd107 O108 2.317 . S
O108 Cd107 2.317 . S
O108 C109 1.232 . S
C109 O108 1.232 . S
C109 O110 1.218 . S
O110 C109 1.218 . S
C111 O104 1.275 1_545 S
C111 O106 1.255 . S
C112 O113 1.258 . S
C112 O114 1.256 . S
O113 Cd105 2.381 1_565 S
O113 C112 1.258 . S
O114 Cd105 2.378 1_565 S
O114 C112 1.256 . S
O115 Cd116 2.300 . S
O115 C122 1.275 . S
Cd116 O115 2.300 . S
Cd116 O124 2.381 . S
Cd116 O125 2.378 . S
O117 Cd118 2.385 . S
O117 C122 1.255 . S
Cd118 O117 2.385 . S
Cd118 O119 2.317 . S
O119 Cd118 2.317 . S
O119 C120 1.232 . S
C120 O119 1.232 . S
C120 O121 1.218 . S
O121 C120 1.218 . S
C122 O115 1.275 . S
C122 O117 1.255 . S
C123 O124 1.258 . S
C123 O125 1.256 . S
O124 Cd116 2.381 . S
O124 C123 1.258 . S
O125 Cd116 2.378 . S
O125 C123 1.256 . S
C126 C127 1.391 . S
C126 C128 1.394 . S
C126 H142 0.931 . S
C127 C126 1.391 . S
C127 C131 1.376 . S
C128 C126 1.394 . S
C128 C129 1.369 . S
C128 C132 1.531 . S
C129 C128 1.369 . S
C129 C130 1.410 . S
C129 C137 1.503 . S
C130 C129 1.410 . S
C130 C131 1.392 . S
C130 C133 1.511 . S
C131 C127 1.376 . S
C131 C130 1.392 . S
C131 H143 0.929 . S
C132 C128 1.531 . S
C132 H144 0.960 . S
C132 H145 0.962 . S
C132 H146 0.960 . S
C133 C130 1.511 . S
C133 H147 0.961 . S
C133 H148 0.961 . S
C133 H149 0.961 . S
C134 C135 1.370 . S
C134 C136 1.363 . S
C134 H150 0.931 . S
C135 C134 1.370 . S
C135 C139 1.408 . S
C136 C134 1.363 . S
C136 C137 1.370 . S
C136 C140 1.524 . S
C137 C129 1.503 . S
C137 C136 1.370 . S
C137 C138 1.403 . S
C138 C137 1.403 . S
C138 C139 1.404 . S
C138 C141 1.539 . S
C139 C135 1.408 . S
C139 C138 1.404 . S
C139 H151 0.930 . S
C140 C136 1.524 . S
C140 H152 0.956 . S
C140 H153 0.961 . S
C140 H154 0.961 . S
C141 C138 1.539 . S
C141 H155 0.958 . S
C141 H156 0.961 . S
C141 H157 0.960 . S
H142 C126 0.931 . S
H143 C131 0.929 . S
H144 C132 0.960 . S
H145 C132 0.962 . S
H146 C132 0.960 . S
H147 C133 0.961 . S
H148 C133 0.961 . S
H149 C133 0.961 . S
H150 C134 0.931 . S
H151 C139 0.930 . S
H152 C140 0.956 . S
H153 C140 0.961 . S
H154 C140 0.961 . S
H155 C141 0.958 . S
H156 C141 0.961 . S
H157 C141 0.960 . S
C158 C159 1.391 . S
C158 C160 1.394 . S
C158 H174 0.931 . S
C159 C158 1.391 . S
C159 C163 1.376 . S
C160 C158 1.394 . S
C160 C161 1.369 . S
C160 C164 1.531 . S
C161 C160 1.369 . S
C161 C162 1.410 . S
C161 C169 1.503 . S
C162 C161 1.410 . S
C162 C163 1.392 . S
C162 C165 1.511 . S
C163 C159 1.376 . S
C163 C162 1.392 . S
C163 H175 0.929 . S
C164 C160 1.531 . S
C164 H176 0.960 . S
C164 H177 0.962 . S
C164 H178 0.960 . S
C165 C162 1.511 . S
C165 H179 0.961 . S
C165 H180 0.961 . S
C165 H181 0.961 . S
C166 C167 1.370 . S
C166 C168 1.363 . S
C166 H182 0.931 . S
C167 C166 1.370 . S
C167 C171 1.408 . S
C168 C166 1.363 . S
C168 C169 1.370 . S
C168 C172 1.524 . S
C169 C161 1.503 . S
C169 C168 1.370 . S
C169 C170 1.403 . S
C170 C169 1.403 . S
C170 C171 1.404 . S
C170 C173 1.539 . S
C171 C167 1.408 . S
C171 C170 1.404 . S
C171 H183 0.930 . S
C172 C168 1.524 . S
C172 H184 0.956 . S
C172 H185 0.961 . S
C172 H186 0.961 . S
C173 C170 1.539 . S
C173 H187 0.958 . S
C173 H188 0.961 . S
C173 H189 0.960 . S
H174 C158 0.931 . S
H175 C163 0.929 . S
H176 C164 0.960 . S
H177 C164 0.962 . S
H178 C164 0.960 . S
H179 C165 0.961 . S
H180 C165 0.961 . S
H181 C165 0.961 . S
H182 C166 0.931 . S
H183 C171 0.930 . S
H184 C172 0.956 . S
H185 C172 0.961 . S
H186 C172 0.961 . S
H187 C173 0.958 . S
H188 C173 0.961 . S
H189 C173 0.960 . S
C190 C191 1.391 . S
C190 C192 1.394 . S
C190 H206 0.931 . S
C191 C190 1.391 . S
C191 C195 1.376 . S
C192 C190 1.394 . S
C192 C193 1.369 . S
C192 C196 1.531 . S
C193 C192 1.369 . S
C193 C194 1.410 . S
C193 C201 1.503 . S
C194 C193 1.410 . S
C194 C195 1.392 . S
C194 C197 1.511 . S
C195 C191 1.376 . S
C195 C194 1.392 . S
C195 H207 0.929 . S
C196 C192 1.531 . S
C196 H208 0.960 . S
C196 H209 0.962 . S
C196 H210 0.960 . S
C197 C194 1.511 . S
C197 H211 0.961 . S
C197 H212 0.961 . S
C197 H213 0.961 . S
C198 C199 1.370 . S
C198 C200 1.363 . S
C198 H214 0.931 . S
C199 C198 1.370 . S
C199 C203 1.408 . S
C200 C198 1.363 . S
C200 C201 1.370 . S
C200 C204 1.524 . S
C201 C193 1.503 . S
C201 C200 1.370 . S
C201 C202 1.403 . S
C202 C201 1.403 . S
C202 C203 1.404 . S
C202 C205 1.539 . S
C203 C199 1.408 . S
C203 C202 1.404 . S
C203 H215 0.930 . S
C204 C200 1.524 . S
C204 H216 0.956 . S
C204 H217 0.961 . S
C204 H218 0.961 . S
C205 C202 1.539 . S
C205 H219 0.958 . S
C205 H220 0.961 . S
C205 H221 0.960 . S
H206 C190 0.931 . S
H207 C195 0.929 . S
H208 C196 0.960 . S
H209 C196 0.962 . S
H210 C196 0.960 . S
H211 C197 0.961 . S
H212 C197 0.961 . S
H213 C197 0.961 . S
H214 C198 0.931 . S
H215 C203 0.930 . S
H216 C204 0.956 . S
H217 C204 0.961 . S
H218 C204 0.961 . S
H219 C205 0.958 . S
H220 C205 0.961 . S
H221 C205 0.960 . S
C222 C223 1.391 . S
C222 C224 1.394 . S
C222 H238 0.931 . S
C223 C222 1.391 . S
C223 C227 1.376 . S
C224 C222 1.394 . S
C224 C225 1.369 . S
C224 C228 1.531 . S
C225 C224 1.369 . S
C225 C226 1.410 . S
C225 C233 1.503 . S
C226 C225 1.410 . S
C226 C227 1.392 . S
C226 C229 1.511 . S
C227 C223 1.376 . S
C227 C226 1.392 . S
C227 H239 0.929 . S
C228 C224 1.531 . S
C228 H240 0.960 . S
C228 H241 0.962 . S
C228 H242 0.960 . S
C229 C226 1.511 . S
C229 H243 0.961 . S
C229 H244 0.961 . S
C229 H245 0.961 . S
C230 C231 1.370 . S
C230 C232 1.363 . S
C230 H246 0.931 . S
C231 C230 1.370 . S
C231 C235 1.408 . S
C232 C230 1.363 . S
C232 C233 1.370 . S
C232 C236 1.524 . S
C233 C225 1.503 . S
C233 C232 1.370 . S
C233 C234 1.403 . S
C234 C233 1.403 . S
C234 C235 1.404 . S
C234 C237 1.539 . S
C235 C231 1.408 . S
C235 C234 1.404 . S
C235 H247 0.930 . S
C236 C232 1.524 . S
C236 H248 0.956 . S
C236 H249 0.961 . S
C236 H250 0.961 . S
C237 C234 1.539 . S
C237 H251 0.958 . S
C237 H252 0.961 . S
C237 H253 0.960 . S
H238 C222 0.931 . S
H239 C227 0.929 . S
H240 C228 0.960 . S
H241 C228 0.962 . S
H242 C228 0.960 . S
H243 C229 0.961 . S
H244 C229 0.961 . S
H245 C229 0.961 . S
H246 C230 0.931 . S
H247 C235 0.930 . S
H248 C236 0.956 . S
H249 C236 0.961 . S
H250 C236 0.961 . S
H251 C237 0.958 . S
H252 C237 0.961 . S
H253 C237 0.960 . S
C254 C255 1.391 . S
C254 C256 1.394 . S
C254 H270 0.931 . S
C255 C254 1.391 . S
C255 C259 1.376 . S
C256 C254 1.394 . S
C256 C257 1.369 . S
C256 C260 1.531 . S
C257 C256 1.369 . S
C257 C258 1.410 . S
C257 C265 1.503 . S
C258 C257 1.410 . S
C258 C259 1.392 . S
C258 C261 1.511 . S
C259 C255 1.376 . S
C259 C258 1.392 . S
C259 H271 0.929 . S
C260 C256 1.531 . S
C260 H272 0.960 . S
C260 H273 0.962 . S
C260 H274 0.960 . S
C261 C258 1.511 . S
C261 H275 0.961 . S
C261 H276 0.961 . S
C261 H277 0.961 . S
C262 C263 1.370 . S
C262 C264 1.363 . S
C262 H278 0.931 . S
C263 C262 1.370 . S
C263 C267 1.408 . S
C264 C262 1.363 . S
C264 C265 1.370 . S
C264 C268 1.524 . S
C265 C257 1.503 . S
C265 C264 1.370 . S
C265 C266 1.403 . S
C266 C265 1.403 . S
C266 C267 1.404 . S
C266 C269 1.539 . S
C267 C263 1.408 . S
C267 C266 1.404 . S
C267 H279 0.930 . S
C268 C264 1.524 . S
C268 H280 0.956 . S
C268 H281 0.961 . S
C268 H282 0.961 . S
C269 C266 1.539 . S
C269 H283 0.958 . S
C269 H284 0.961 . S
C269 H285 0.960 . S
H270 C254 0.931 . S
H271 C259 0.929 . S
H272 C260 0.960 . S
H273 C260 0.962 . S
H274 C260 0.960 . S
H275 C261 0.961 . S
H276 C261 0.961 . S
H277 C261 0.961 . S
H278 C262 0.931 . S
H279 C267 0.930 . S
H280 C268 0.956 . S
H281 C268 0.961 . S
H282 C268 0.961 . S
H283 C269 0.958 . S
H284 C269 0.961 . S
H285 C269 0.960 . S
C286 C287 1.391 . S
C286 C288 1.394 . S
C286 H302 0.931 . S
C287 C286 1.391 . S
C287 C291 1.376 . S
C288 C286 1.394 . S
C288 C289 1.369 . S
C288 C292 1.531 . S
C289 C288 1.369 . S
C289 C290 1.410 . S
C289 C297 1.503 . S
C290 C289 1.410 . S
C290 C291 1.392 . S
C290 C293 1.511 . S
C291 C287 1.376 . S
C291 C290 1.392 . S
C291 H303 0.929 . S
C292 C288 1.531 . S
C292 H304 0.960 . S
C292 H305 0.962 . S
C292 H306 0.960 . S
C293 C290 1.511 . S
C293 H307 0.961 . S
C293 H308 0.961 . S
C293 H309 0.961 . S
C294 C295 1.370 . S
C294 C296 1.363 . S
C294 H310 0.931 . S
C295 C294 1.370 . S
C295 C299 1.408 . S
C296 C294 1.363 . S
C296 C297 1.370 . S
C296 C300 1.524 . S
C297 C289 1.503 . S
C297 C296 1.370 . S
C297 C298 1.403 . S
C298 C297 1.403 . S
C298 C299 1.404 . S
C298 C301 1.539 . S
C299 C295 1.408 . S
C299 C298 1.404 . S
C299 H311 0.930 . S
C300 C296 1.524 . S
C300 H312 0.956 . S
C300 H313 0.961 . S
C300 H314 0.961 . S
C301 C298 1.539 . S
C301 H315 0.958 . S
C301 H316 0.961 . S
C301 H317 0.960 . S
H302 C286 0.931 . S
H303 C291 0.929 . S
H304 C292 0.960 . S
H305 C292 0.962 . S
H306 C292 0.960 . S
H307 C293 0.961 . S
H308 C293 0.961 . S
H309 C293 0.961 . S
H310 C294 0.931 . S
H311 C299 0.930 . S
H312 C300 0.956 . S
H313 C300 0.961 . S
H314 C300 0.961 . S
H315 C301 0.958 . S
H316 C301 0.961 . S
H317 C301 0.960 . S
C318 C319 1.391 . S
C318 C320 1.394 . S
C318 H334 0.931 . S
C319 C318 1.391 . S
C319 C323 1.376 . S
C320 C318 1.394 . S
C320 C321 1.369 . S
C320 C324 1.531 . S
C321 C320 1.369 . S
C321 C322 1.410 . S
C321 C329 1.503 . S
C322 C321 1.410 . S
C322 C323 1.392 . S
C322 C325 1.511 . S
C323 C319 1.376 . S
C323 C322 1.392 . S
C323 H335 0.929 . S
C324 C320 1.531 . S
C324 H336 0.960 . S
C324 H337 0.962 . S
C324 H338 0.960 . S
C325 C322 1.511 . S
C325 H339 0.961 . S
C325 H340 0.961 . S
C325 H341 0.961 . S
C326 C327 1.370 . S
C326 C328 1.363 . S
C326 H342 0.931 . S
C327 C326 1.370 . S
C327 C331 1.408 . S
C328 C326 1.363 . S
C328 C329 1.370 . S
C328 C332 1.524 . S
C329 C321 1.503 . S
C329 C328 1.370 . S
C329 C330 1.403 . S
C330 C329 1.403 . S
C330 C331 1.404 . S
C330 C333 1.539 . S
C331 C327 1.408 . S
C331 C330 1.404 . S
C331 H343 0.930 . S
C332 C328 1.524 . S
C332 H344 0.956 . S
C332 H345 0.961 . S
C332 H346 0.961 . S
C333 C330 1.539 . S
C333 H347 0.958 . S
C333 H348 0.961 . S
C333 H349 0.960 . S
H334 C318 0.931 . S
H335 C323 0.929 . S
H336 C324 0.960 . S
H337 C324 0.962 . S
H338 C324 0.960 . S
H339 C325 0.961 . S
H340 C325 0.961 . S
H341 C325 0.961 . S
H342 C326 0.931 . S
H343 C331 0.930 . S
H344 C332 0.956 . S
H345 C332 0.961 . S
H346 C332 0.961 . S
H347 C333 0.958 . S
H348 C333 0.961 . S
H349 C333 0.960 . S
C350 C351 1.391 . S
C350 C352 1.394 . S
C350 H366 0.931 . S
C351 C350 1.391 . S
C351 C355 1.376 . S
C352 C350 1.394 . S
C352 C353 1.369 . S
C352 C356 1.531 . S
C353 C352 1.369 . S
C353 C354 1.410 . S
C353 C361 1.503 . S
C354 C353 1.410 . S
C354 C355 1.392 . S
C354 C357 1.511 . S
C355 C351 1.376 . S
C355 C354 1.392 . S
C355 H367 0.929 . S
C356 C352 1.531 . S
C356 H368 0.960 . S
C356 H369 0.962 . S
C356 H370 0.960 . S
C357 C354 1.511 . S
C357 H371 0.961 . S
C357 H372 0.961 . S
C357 H373 0.961 . S
C358 C359 1.370 . S
C358 C360 1.363 . S
C358 H374 0.931 . S
C359 C358 1.370 . S
C359 C363 1.408 . S
C360 C358 1.363 . S
C360 C361 1.370 . S
C360 C364 1.524 . S
C361 C353 1.503 . S
C361 C360 1.370 . S
C361 C362 1.403 . S
C362 C361 1.403 . S
C362 C363 1.404 . S
C362 C365 1.539 . S
C363 C359 1.408 . S
C363 C362 1.404 . S
C363 H375 0.930 . S
C364 C360 1.524 . S
C364 H376 0.956 . S
C364 H377 0.961 . S
C364 H378 0.961 . S
C365 C362 1.539 . S
C365 H379 0.958 . S
C365 H380 0.961 . S
C365 H381 0.960 . S
H366 C350 0.931 . S
H367 C355 0.929 . S
H368 C356 0.960 . S
H369 C356 0.962 . S
H370 C356 0.960 . S
H371 C357 0.961 . S
H372 C357 0.961 . S
H373 C357 0.961 . S
H374 C358 0.931 . S
H375 C363 0.930 . S
H376 C364 0.956 . S
H377 C364 0.961 . S
H378 C364 0.961 . S
H379 C365 0.958 . S
H380 C365 0.961 . S
H381 C365 0.960 . S
C382 C383 1.391 . S
C382 C384 1.394 . S
C382 H398 0.931 . S
C383 C382 1.391 . S
C383 C387 1.376 . S
C384 C382 1.394 . S
C384 C385 1.369 . S
C384 C388 1.531 . S
C385 C384 1.369 . S
C385 C386 1.410 . S
C385 C393 1.503 . S
C386 C385 1.410 . S
C386 C387 1.392 . S
C386 C389 1.511 . S
C387 C383 1.376 . S
C387 C386 1.392 . S
C387 H399 0.929 . S
C388 C384 1.531 . S
C388 H400 0.960 . S
C388 H401 0.962 . S
C388 H402 0.960 . S
C389 C386 1.511 . S
C389 H403 0.961 . S
C389 H404 0.961 . S
C389 H405 0.961 . S
C390 C391 1.370 . S
C390 C392 1.363 . S
C390 H406 0.931 . S
C391 C390 1.370 . S
C391 C395 1.408 . S
C392 C390 1.363 . S
C392 C393 1.370 . S
C392 C396 1.524 . S
C393 C385 1.503 . S
C393 C392 1.370 . S
C393 C394 1.403 . S
C394 C393 1.403 . S
C394 C395 1.404 . S
C394 C397 1.539 . S
C395 C391 1.408 . S
C395 C394 1.404 . S
C395 H407 0.930 . S
C396 C392 1.524 . S
C396 H408 0.956 . S
C396 H409 0.961 . S
C396 H410 0.961 . S
C397 C394 1.539 . S
C397 H411 0.958 . S
C397 H412 0.961 . S
C397 H413 0.960 . S
H398 C382 0.931 . S
H399 C387 0.929 . S
H400 C388 0.960 . S
H401 C388 0.962 . S
H402 C388 0.960 . S
H403 C389 0.961 . S
H404 C389 0.961 . S
H405 C389 0.961 . S
H406 C390 0.931 . S
H407 C395 0.930 . S
H408 C396 0.956 . S
H409 C396 0.961 . S
H410 C396 0.961 . S
H411 C397 0.958 . S
H412 C397 0.961 . S
H413 C397 0.960 . S
C414 C415 1.391 . S
C414 C416 1.394 . S
C414 H430 0.931 . S
C415 C414 1.391 . S
C415 C419 1.376 . S
C416 C414 1.394 . S
C416 C417 1.369 . S
C416 C420 1.531 . S
C417 C416 1.369 . S
C417 C418 1.410 . S
C417 C425 1.503 . S
C418 C417 1.410 . S
C418 C419 1.392 . S
C418 C421 1.511 . S
C419 C415 1.376 . S
C419 C418 1.392 . S
C419 H431 0.929 . S
C420 C416 1.531 . S
C420 H432 0.960 . S
C420 H433 0.962 . S
C420 H434 0.960 . S
C421 C418 1.511 . S
C421 H435 0.961 . S
C421 H436 0.961 . S
C421 H437 0.961 . S
C422 C423 1.370 . S
C422 C424 1.363 . S
C422 H438 0.931 . S
C423 C422 1.370 . S
C423 C427 1.408 . S
C424 C422 1.363 . S
C424 C425 1.370 . S
C424 C428 1.524 . S
C425 C417 1.503 . S
C425 C424 1.370 . S
C425 C426 1.403 . S
C426 C425 1.403 . S
C426 C427 1.404 . S
C426 C429 1.539 . S
C427 C423 1.408 . S
C427 C426 1.404 . S
C427 H439 0.930 . S
C428 C424 1.524 . S
C428 H440 0.956 . S
C428 H441 0.961 . S
C428 H442 0.961 . S
C429 C426 1.539 . S
C429 H443 0.958 . S
C429 H444 0.961 . S
C429 H445 0.960 . S
H430 C414 0.931 . S
H431 C419 0.929 . S
H432 C420 0.960 . S
H433 C420 0.962 . S
H434 C420 0.960 . S
H435 C421 0.961 . S
H436 C421 0.961 . S
H437 C421 0.961 . S
H438 C422 0.931 . S
H439 C427 0.930 . S
H440 C428 0.956 . S
H441 C428 0.961 . S
H442 C428 0.961 . S
H443 C429 0.958 . S
H444 C429 0.961 . S
H445 C429 0.960 . S
C446 C447 1.391 . S
C446 C448 1.394 . S
C446 H462 0.931 . S
C447 C446 1.391 . S
C447 C451 1.376 . S
C448 C446 1.394 . S
C448 C449 1.369 . S
C448 C452 1.531 . S
C449 C448 1.369 . S
C449 C450 1.410 . S
C449 C457 1.503 . S
C450 C449 1.410 . S
C450 C451 1.392 . S
C450 C453 1.511 . S
C451 C447 1.376 . S
C451 C450 1.392 . S
C451 H463 0.929 . S
C452 C448 1.531 . S
C452 H464 0.960 . S
C452 H465 0.962 . S
C452 H466 0.960 . S
C453 C450 1.511 . S
C453 H467 0.961 . S
C453 H468 0.961 . S
C453 H469 0.961 . S
C454 C455 1.370 . S
C454 C456 1.363 . S
C454 H470 0.931 . S
C455 C454 1.370 . S
C455 C459 1.408 . S
C456 C454 1.363 . S
C456 C457 1.370 . S
C456 C460 1.524 . S
C457 C449 1.503 . S
C457 C456 1.370 . S
C457 C458 1.403 . S
C458 C457 1.403 . S
C458 C459 1.404 . S
C458 C461 1.539 . S
C459 C455 1.408 . S
C459 C458 1.404 . S
C459 H471 0.930 . S
C460 C456 1.524 . S
C460 H472 0.956 . S
C460 H473 0.961 . S
C460 H474 0.961 . S
C461 C458 1.539 . S
C461 H475 0.958 . S
C461 H476 0.961 . S
C461 H477 0.960 . S
H462 C446 0.931 . S
H463 C451 0.929 . S
H464 C452 0.960 . S
H465 C452 0.962 . S
H466 C452 0.960 . S
H467 C453 0.961 . S
H468 C453 0.961 . S
H469 C453 0.961 . S
H470 C454 0.931 . S
H471 C459 0.930 . S
H472 C460 0.956 . S
H473 C460 0.961 . S
H474 C460 0.961 . S
H475 C461 0.958 . S
H476 C461 0.961 . S
H477 C461 0.960 . S
C478 C479 1.391 . S
C478 C480 1.394 . S
C478 H494 0.931 . S
C479 C478 1.391 . S
C479 C483 1.376 . S
C480 C478 1.394 . S
C480 C481 1.369 . S
C480 C484 1.531 . S
C481 C480 1.369 . S
C481 C482 1.410 . S
C481 C489 1.503 . S
C482 C481 1.410 . S
C482 C483 1.392 . S
C482 C485 1.511 . S
C483 C479 1.376 . S
C483 C482 1.392 . S
C483 H495 0.929 . S
C484 C480 1.531 . S
C484 H496 0.960 . S
C484 H497 0.962 . S
C484 H498 0.960 . S
C485 C482 1.511 . S
C485 H499 0.961 . S
C485 H500 0.961 . S
C485 H501 0.961 . S
C486 C487 1.370 . S
C486 C488 1.363 . S
C486 H502 0.931 . S
C487 C486 1.370 . S
C487 C491 1.408 . S
C488 C486 1.363 . S
C488 C489 1.370 . S
C488 C492 1.524 . S
C489 C481 1.503 . S
C489 C488 1.370 . S
C489 C490 1.403 . S
C490 C489 1.403 . S
C490 C491 1.404 . S
C490 C493 1.539 . S
C491 C487 1.408 . S
C491 C490 1.404 . S
C491 H503 0.930 . S
C492 C488 1.524 . S
C492 H504 0.956 . S
C492 H505 0.961 . S
C492 H506 0.961 . S
C493 C490 1.539 . S
C493 H507 0.958 . S
C493 H508 0.961 . S
C493 H509 0.960 . S
H494 C478 0.931 . S
H495 C483 0.929 . S
H496 C484 0.960 . S
H497 C484 0.962 . S
H498 C484 0.960 . S
H499 C485 0.961 . S
H500 C485 0.961 . S
H501 C485 0.961 . S
H502 C486 0.931 . S
H503 C491 0.930 . S
H504 C492 0.956 . S
H505 C492 0.961 . S
H506 C492 0.961 . S
H507 C493 0.958 . S
H508 C493 0.961 . S
H509 C493 0.960 . S
C510 C511 1.391 . S
C510 C512 1.394 . S
C510 H526 0.931 . S
C511 C510 1.391 . S
C511 C515 1.376 . S
C512 C510 1.394 . S
C512 C513 1.369 . S
C512 C516 1.531 . S
C513 C512 1.369 . S
C513 C514 1.410 . S
C513 C521 1.503 . S
C514 C513 1.410 . S
C514 C515 1.392 . S
C514 C517 1.511 1_455 S
C515 C511 1.376 . S
C515 C514 1.392 . S
C515 H527 0.929 . S
C516 C512 1.531 . S
C516 H528 0.960 . S
C516 H529 0.962 . S
C516 H530 0.960 . S
C517 C514 1.511 1_655 S
C517 H531 0.961 . S
C517 H532 0.961 1_655 S
C517 H533 0.961 . S
C518 C519 1.370 . S
C518 C520 1.363 . S
C518 H534 0.931 . S
C519 C518 1.370 . S
C519 C523 1.408 1_455 S
C520 C518 1.363 . S
C520 C521 1.370 1_556 S
C520 C524 1.524 1_556 S
C521 C513 1.503 . S
C521 C520 1.370 1_554 S
C521 C522 1.403 1_454 S
C522 C521 1.403 1_656 S
C522 C523 1.404 . S
C522 C525 1.539 . S
C523 C519 1.408 1_655 S
C523 C522 1.404 . S
C523 H535 0.930 . S
C524 C520 1.524 1_554 S
C524 H536 0.956 . S
C524 H537 0.961 . S
C524 H538 0.961 1_554 S
C525 C522 1.539 . S
C525 H539 0.959 . S
C525 H540 0.961 . S
C525 H541 0.960 1_556 S
H526 C510 0.931 . S
H527 C515 0.929 . S
H528 C516 0.960 . S
H529 C516 0.962 . S
H530 C516 0.960 . S
H531 C517 0.961 . S
H532 C517 0.961 1_455 S
H533 C517 0.961 . S
H534 C518 0.931 . S
H535 C523 0.930 . S
H536 C524 0.956 . S
H537 C524 0.961 . S
H538 C524 0.961 1_556 S
H539 C525 0.959 . S
H540 C525 0.961 . S
H541 C525 0.960 1_554 S
C542 C543 1.391 1_565 S
C542 C544 1.394 . S
C542 H558 0.931 . S
C543 C542 1.391 1_545 S
C543 C547 1.376 . S
C544 C542 1.394 . S
C544 C545 1.369 . S
C544 C548 1.531 . S
C545 C544 1.369 . S
C545 C546 1.410 1_565 S
C545 C553 1.503 . S
C546 C545 1.410 1_545 S
C546 C547 1.392 . S
C546 C549 1.511 . S
C547 C543 1.376 . S
C547 C546 1.392 . S
C547 H559 0.929 . S
C548 C544 1.531 . S
C548 H560 0.960 . S
C548 H561 0.962 . S
C548 H562 0.960 . S
C549 C546 1.511 . S
C549 H563 0.961 . S
C549 H564 0.961 . S
C549 H565 0.961 1_545 S
C550 C551 1.370 1_545 S
C550 C552 1.363 . S
C550 H566 0.931 . S
C551 C550 1.370 1_565 S
C551 C555 1.408 . S
C552 C550 1.363 . S
C552 C553 1.370 1_545 S
C552 C556 1.524 . S
C553 C545 1.503 . S
C553 C552 1.370 1_565 S
C553 C554 1.403 . S
C554 C553 1.403 . S
C554 C555 1.404 . S
C554 C557 1.539 . S
C555 C551 1.408 . S
C555 C554 1.404 . S
C555 H567 0.930 . S
C556 C552 1.524 . S
C556 H568 0.956 . S
C556 H569 0.961 . S
C556 H570 0.961 . S
C557 C554 1.539 . S
C557 H571 0.958 . S
C557 H572 0.961 . S
C557 H573 0.960 . S
H558 C542 0.931 . S
H559 C547 0.929 . S
H560 C548 0.960 . S
H561 C548 0.962 . S
H562 C548 0.960 . S
H563 C549 0.961 . S
H564 C549 0.961 . S
H565 C549 0.961 1_565 S
H566 C550 0.931 . S
H567 C555 0.930 . S
H568 C556 0.956 . S
H569 C556 0.961 . S
H570 C556 0.961 . S
H571 C557 0.958 . S
H572 C557 0.961 . S
H573 C557 0.960 . S
C574 C575 1.391 . S
C574 C576 1.394 . S
C574 H590 0.931 . S
C575 C574 1.391 . S
C575 C579 1.376 . S
C576 C574 1.394 . S
C576 C577 1.369 . S
C576 C580 1.531 . S
C577 C576 1.369 . S
C577 C578 1.410 . S
C577 C585 1.503 . S
C578 C577 1.410 . S
C578 C579 1.392 . S
C578 C581 1.511 . S
C579 C575 1.376 . S
C579 C578 1.392 . S
C579 H591 0.929 . S
C580 C576 1.531 . S
C580 H592 0.960 . S
C580 H593 0.962 . S
C580 H594 0.960 . S
C581 C578 1.511 . S
C581 H595 0.961 . S
C581 H596 0.961 . S
C581 H597 0.961 . S
C582 C583 1.370 . S
C582 C584 1.363 . S
C582 H598 0.931 . S
C583 C582 1.370 . S
C583 C587 1.408 . S
C584 C582 1.363 . S
C584 C585 1.370 . S
C584 C588 1.524 . S
C585 C577 1.503 . S
C585 C584 1.370 . S
C585 C586 1.403 . S
C586 C585 1.403 . S
C586 C587 1.404 . S
C586 C589 1.539 . S
C587 C583 1.408 . S
C587 C586 1.404 . S
C587 H599 0.930 . S
C588 C584 1.524 . S
C588 H600 0.956 . S
C588 H601 0.961 . S
C588 H602 0.961 . S
C589 C586 1.539 . S
C589 H603 0.958 . S
C589 H604 0.961 . S
C589 H605 0.960 . S
H590 C574 0.931 . S
H591 C579 0.929 . S
H592 C580 0.960 . S
H593 C580 0.962 . S
H594 C580 0.960 . S
H595 C581 0.961 . S
H596 C581 0.961 . S
H597 C581 0.961 . S
H598 C582 0.931 . S
H599 C587 0.930 . S
H600 C588 0.956 . S
H601 C588 0.961 . S
H602 C588 0.961 . S
H603 C589 0.958 . S
H604 C589 0.961 . S
H605 C589 0.960 . S
C606 C607 1.391 . S
C606 C608 1.394 . S
C606 H622 0.931 . S
C607 C606 1.391 . S
C607 C611 1.376 1_545 S
C608 C606 1.394 . S
C608 C609 1.369 . S
C608 C612 1.531 . S
C609 C608 1.369 . S
C609 C610 1.410 1_545 S
C609 C617 1.503 . S
C610 C609 1.410 1_565 S
C610 C611 1.392 . S
C610 C613 1.511 . S
C611 C607 1.376 1_565 S
C611 C610 1.392 . S
C611 H623 0.929 . S
C612 C608 1.531 . S
C612 H624 0.960 . S
C612 H625 0.962 . S
C612 H626 0.960 . S
C613 C610 1.511 . S
C613 H627 0.961 . S
C613 H628 0.961 . S
C613 H629 0.961 . S
C614 C615 1.370 . S
C614 C616 1.363 . S
C614 H630 0.931 . S
C615 C614 1.370 . S
C615 C619 1.408 . S
C616 C614 1.363 . S
C616 C617 1.370 . S
C616 C620 1.524 1_545 S
C617 C609 1.503 . S
C617 C616 1.370 . S
C617 C618 1.403 . S
C618 C617 1.403 . S
C618 C619 1.404 . S
C618 C621 1.539 . S
C619 C615 1.408 . S
C619 C618 1.404 . S
C619 H631 0.930 . S
C620 C616 1.524 1_565 S
C620 H632 0.956 1_565 S
C620 H633 0.961 . S
C620 H634 0.961 . S
C621 C618 1.539 . S
C621 H635 0.958 . S
C621 H636 0.961 . S
C621 H637 0.960 . S
H622 C606 0.931 . S
H623 C611 0.929 . S
H624 C612 0.960 . S
H625 C612 0.962 . S
H626 C612 0.960 . S
H627 C613 0.961 . S
H628 C613 0.961 . S
H629 C613 0.961 . S
H630 C614 0.931 . S
H631 C619 0.930 . S
H632 C620 0.956 1_545 S
H633 C620 0.961 . S
H634 C620 0.961 . S
H635 C621 0.958 . S
H636 C621 0.961 . S
H637 C621 0.960 . S
C638 C639 1.391 . S
C638 C640 1.394 . S
C638 H654 0.931 . S
C639 C638 1.391 . S
C639 C643 1.376 . S
C640 C638 1.394 . S
C640 C641 1.369 . S
C640 C644 1.531 . S
C641 C640 1.369 . S
C641 C642 1.410 . S
C641 C649 1.503 . S
C642 C641 1.410 . S
C642 C643 1.392 . S
C642 C645 1.511 . S
C643 C639 1.376 . S
C643 C642 1.392 . S
C643 H655 0.929 . S
C644 C640 1.531 . S
C644 H656 0.960 . S
C644 H657 0.962 . S
C644 H658 0.960 . S
C645 C642 1.511 . S
C645 H659 0.961 . S
C645 H660 0.961 . S
C645 H661 0.961 . S
C646 C647 1.370 . S
C646 C648 1.363 . S
C646 H662 0.931 . S
C647 C646 1.370 . S
C647 C651 1.408 . S
C648 C646 1.363 . S
C648 C649 1.370 1_554 S
C648 C652 1.524 1_554 S
C649 C641 1.503 . S
C649 C648 1.370 1_556 S
C649 C650 1.403 1_556 S
C650 C649 1.403 1_554 S
C650 C651 1.404 . S
C650 C653 1.539 . S
C651 C647 1.408 . S
C651 C650 1.404 . S
C651 H663 0.930 . S
C652 C648 1.524 1_556 S
C652 H664 0.956 . S
C652 H665 0.961 . S
C652 H666 0.961 1_556 S
C653 C650 1.539 . S
C653 H667 0.958 . S
C653 H668 0.961 . S
C653 H669 0.960 1_554 S
H654 C638 0.931 . S
H655 C643 0.929 . S
H656 C644 0.960 . S
H657 C644 0.962 . S
H658 C644 0.960 . S
H659 C645 0.961 . S
H660 C645 0.961 . S
H661 C645 0.961 . S
H662 C646 0.931 . S
H663 C651 0.930 . S
H664 C652 0.956 . S
H665 C652 0.961 . S
H666 C652 0.961 1_554 S
H667 C653 0.958 . S
H668 C653 0.961 . S
H669 C653 0.960 1_556 S
C670 C671 1.391 1_655 S
C670 C672 1.394 . S
C670 H686 0.931 . S
C671 C670 1.391 1_455 S
C671 C675 1.376 . S
C672 C670 1.394 . S
C672 C673 1.369 1_655 S
C672 C676 1.531 . S
C673 C672 1.369 1_455 S
C673 C674 1.410 . S
C673 C681 1.503 . S
C674 C673 1.410 . S
C674 C675 1.392 . S
C674 C677 1.511 . S
C675 C671 1.376 . S
C675 C674 1.392 . S
C675 H687 0.929 . S
C676 C672 1.531 . S
C676 H688 0.960 . S
C676 H689 0.962 . S
C676 H690 0.960 . S
C677 C674 1.511 . S
C677 H691 0.961 . S
C677 H692 0.961 . S
C677 H693 0.961 . S
C678 C679 1.370 1_455 S
C678 C680 1.363 . S
C678 H694 0.931 . S
C679 C678 1.370 1_655 S
C679 C683 1.408 . S
C680 C678 1.363 . S
C680 C681 1.370 . S
C680 C684 1.524 . S
C681 C673 1.503 . S
C681 C680 1.370 . S
C681 C682 1.403 1_455 S
C682 C681 1.403 1_655 S
C682 C683 1.404 . S
C682 C685 1.539 . S
C683 C679 1.408 . S
C683 C682 1.404 . S
C683 H695 0.930 . S
C684 C680 1.524 . S
C684 H696 0.956 . S
C684 H697 0.961 . S
C684 H698 0.961 . S
C685 C682 1.539 . S
C685 H699 0.958 . S
C685 H700 0.961 . S
C685 H701 0.960 . S
H686 C670 0.931 . S
H687 C675 0.929 . S
H688 C676 0.960 . S
H689 C676 0.962 . S
H690 C676 0.960 . S
H691 C677 0.961 . S
H692 C677 0.961 . S
H693 C677 0.961 . S
H694 C678 0.931 . S
H695 C683 0.930 . S
H696 C684 0.956 . S
H697 C684 0.961 . S
H698 C684 0.961 . S
H699 C685 0.958 . S
H700 C685 0.961 . S
H701 C685 0.960 . S
C127 C2 1.192 . S
C135 C120 1.028 . S
C159 C21 1.129 . S
C167 C98 0.966 . S
C191 C42 0.967 . S
C199 C112 0.930 . S
C223 C1 0.850 . S
C231 C123 0.849 . S
C263 C101 0.917 . S
C255 C22 0.938 . S
C295 C109 1.030 . S
C287 C41 1.119 . S
C319 C38 2.001 . S
C327 C76 1.754 . S
C351 C59 2.086 . S
C359 C87 1.802 . S
C383 C18 2.012 . S
C391 C65 1.762 . S
C423 C79 1.770 . S
C415 C39 1.803 . S
C455 C90 1.710 . S
C447 C58 1.758 . S
C479 C19 1.824 . S
C487 C68 1.762 . S
C519 C89 1.508 . S
C511 C9 1.503 . S
C543 C29 1.541 . S
C551 C67 1.522 . S
C575 C49 1.498 . S
C583 C78 1.498 . S
C615 C111 1.407 . S
C607 C28 1.404 . S
C647 C122 1.389 . S
C639 C48 1.403 . S
C671 C8 1.400 . S
C679 C100 1.407 1_655 S
