# Generated by pormake.
# Topology pyr, (3,6)-cn, num edge types: 1
# Building blocks:
#     Node 0, Type 0, BuildingBlock: OLANEW_clean_sbu_2, # of connection points: 3
#     Node 1, Type 0, BuildingBlock: OLANEW_clean_sbu_2, # of connection points: 3
#     Node 2, Type 0, BuildingBlock: OLANEW_clean_sbu_2, # of connection points: 3
#     Node 3, Type 0, BuildingBlock: OLANEW_clean_sbu_2, # of connection points: 3
#     Node 4, Type 0, BuildingBlock: OLANEW_clean_sbu_2, # of connection points: 3
#     Node 5, Type 0, BuildingBlock: OLANEW_clean_sbu_2, # of connection points: 3
#     Node 6, Type 0, BuildingBlock: OLANEW_clean_sbu_2, # of connection points: 3
#     Node 7, Type 0, BuildingBlock: OLANEW_clean_sbu_2, # of connection points: 3
#     Node 8, Type 1, BuildingBlock: JUFBIX_clean_sbu_0, # of connection points: 6
#     Node 9, Type 1, BuildingBlock: JUFBIX_clean_sbu_0, # of connection points: 6
#     Node 10, Type 1, BuildingBlock: JUFBIX_clean_sbu_0, # of connection points: 6
#     Node 11, Type 1, BuildingBlock: JUFBIX_clean_sbu_0, # of connection points: 6
#     Edge 12, Type (0, 1), BuildingBlock: XIVTED_clean_linker_0, # of connection points: 2
#     Edge 13, Type (0, 1), BuildingBlock: XIVTED_clean_linker_0, # of connection points: 2
#     Edge 14, Type (0, 1), BuildingBlock: XIVTED_clean_linker_0, # of connection points: 2
#     Edge 15, Type (0, 1), BuildingBlock: XIVTED_clean_linker_0, # of connection points: 2
#     Edge 16, Type (0, 1), BuildingBlock: XIVTED_clean_linker_0, # of connection points: 2
#     Edge 17, Type (0, 1), BuildingBlock: XIVTED_clean_linker_0, # of connection points: 2
#     Edge 18, Type (0, 1), BuildingBlock: XIVTED_clean_linker_0, # of connection points: 2
#     Edge 19, Type (0, 1), BuildingBlock: XIVTED_clean_linker_0, # of connection points: 2
#     Edge 20, Type (0, 1), BuildingBlock: XIVTED_clean_linker_0, # of connection points: 2
#     Edge 21, Type (0, 1), BuildingBlock: XIVTED_clean_linker_0, # of connection points: 2
#     Edge 22, Type (0, 1), BuildingBlock: XIVTED_clean_linker_0, # of connection points: 2
#     Edge 23, Type (0, 1), BuildingBlock: XIVTED_clean_linker_0, # of connection points: 2
#     Edge 24, Type (0, 1), BuildingBlock: XIVTED_clean_linker_0, # of connection points: 2
#     Edge 25, Type (0, 1), BuildingBlock: XIVTED_clean_linker_0, # of connection points: 2
#     Edge 26, Type (0, 1), BuildingBlock: XIVTED_clean_linker_0, # of connection points: 2
#     Edge 27, Type (0, 1), BuildingBlock: XIVTED_clean_linker_0, # of connection points: 2
#     Edge 28, Type (0, 1), BuildingBlock: XIVTED_clean_linker_0, # of connection points: 2
#     Edge 29, Type (0, 1), BuildingBlock: XIVTED_clean_linker_0, # of connection points: 2
#     Edge 30, Type (0, 1), BuildingBlock: XIVTED_clean_linker_0, # of connection points: 2
#     Edge 31, Type (0, 1), BuildingBlock: XIVTED_clean_linker_0, # of connection points: 2
#     Edge 32, Type (0, 1), BuildingBlock: XIVTED_clean_linker_0, # of connection points: 2
#     Edge 33, Type (0, 1), BuildingBlock: XIVTED_clean_linker_0, # of connection points: 2
#     Edge 34, Type (0, 1), BuildingBlock: XIVTED_clean_linker_0, # of connection points: 2
#     Edge 35, Type (0, 1), BuildingBlock: XIVTED_clean_linker_0, # of connection points: 2
# Relax obj value: 0.121
# Max RMSD: 0.172
# Mean RMSD: 0.119
data_MOF--net-pry--node1-OLANEW_clean_sbu_2--node2-JUFBIX_clean_sbu_0--edge1-XIVTED_clean_linker_0
_symmetry_space_group_name_H-M    P1
_symmetry_Int_Tables_number       1
_symmetry_cell_setting            triclinic
loop_
_symmetry_equiv_pos_as_xyz
'x, y, z'
_cell_length_a     40.481254
_cell_length_b     38.029011
_cell_length_c     39.446533
_cell_angle_alpha  89.915445
_cell_angle_beta   90.248788
_cell_angle_gamma 96.778117
loop_
_atom_site_label
_atom_site_type_symbol
_atom_site_fract_x
_atom_site_fract_y
_atom_site_fract_z
_atom_type_partial_charge
O0 O 0.2265 0.17236 0.16356 0.0
Cd1 Cd 0.17187 0.19226 0.17739 0.0
O2 O 0.23421 0.14107 0.20991 0.0
Cd3 Cd 0.1896 0.14403 0.24149 0.0
O4 O 0.15731 0.12857 0.28571 0.0
C5 C 0.17136 0.12034 0.3131 0.0
O6 O 0.20398 0.12236 0.3139 0.0
C7 C 0.24409 0.15309 0.18098 0.0
C8 C 0.15118 0.25032 0.14107 0.0
O9 O 0.16753 0.25473 0.16896 0.0
O10 O 0.14549 0.21867 0.12953 0.0
O11 O 0.52263 0.95213 0.69922 0.0
Cd12 Cd 0.54883 0.93488 0.64721 0.0
O13 O 0.47153 0.93205 0.68451 0.0
Cd14 Cd 0.41716 0.92469 0.68871 0.0
O15 O 0.3631 0.92327 0.68467 0.0
C16 C 0.34698 0.93782 0.70722 0.0
O17 O 0.36315 0.95272 0.73343 0.0
C18 C 0.49178 0.94739 0.7061 0.0
C19 C 0.53853 0.8627 0.63318 0.0
O20 O 0.52144 0.88433 0.61801 0.0
O21 O 0.56003 0.87506 0.65535 0.0
O22 O 0.72726 0.49394 0.93225 0.0
Cd23 Cd 0.67556 0.50903 0.90601 0.0
O24 O 0.70848 0.43761 0.93419 0.0
Cd25 Cd 0.70371 0.3815 0.94825 0.0
O26 O 0.6765 0.3292 0.95841 0.0
C27 C 0.66068 0.32492 0.98616 0.0
O28 O 0.66263 0.35127 0.00786 0.0
C29 C 0.73117 0.46259 0.94136 0.0
C30 C 0.66789 0.50659 0.83547 0.0
O31 O 0.68288 0.53409 0.85011 0.0
O32 O 0.65792 0.47971 0.854 0.0
O33 O 0.03955 0.6747 0.46678 0.0
Cd34 Cd 0.02199 0.61195 0.45548 0.0
O35 O 0.01302 0.66114 0.51388 0.0
Cd36 Cd 0.98258 0.67182 0.55726 0.0
O37 O 0.92872 0.6621 0.5621 0.0
C38 C 0.91448 0.66153 0.5333 0.0
O39 O 0.93294 0.66825 0.5062 0.0
C40 C 0.02884 0.68443 0.49506 0.0
C41 C 0.0117 0.59411 0.38735 0.0
O42 O 0.98913 0.60729 0.40421 0.0
O43 O 0.03912 0.59017 0.40247 0.0
O44 O 0.86406 0.85551 0.84784 0.0
Cd45 Cd 0.83922 0.82211 0.89696 0.0
O46 O 0.84447 0.90745 0.85293 0.0
Cd47 Cd 0.80861 0.89954 0.89542 0.0
O48 O 0.76676 0.91202 0.92802 0.0
C49 C 0.73921 0.91671 0.91394 0.0
O50 O 0.73642 0.91276 0.88093 0.0
C51 C 0.86257 0.88716 0.83772 0.0
C52 C 0.87414 0.76562 0.91782 0.0
O53 O 0.85236 0.76168 0.89402 0.0
O54 O 0.87979 0.79626 0.9316 0.0
O55 O 0.57942 0.05543 0.44397 0.0
Cd56 Cd 0.59502 0.052 0.50373 0.0
O57 O 0.58962 0.11318 0.44558 0.0
Cd58 Cd 0.59189 0.16874 0.42977 0.0
O59 O 0.59152 0.22602 0.43539 0.0
C60 C 0.56536 0.23639 0.44768 0.0
O61 O 0.54003 0.21264 0.45468 0.0
C62 C 0.58055 0.08508 0.42885 0.0
C63 C 0.66091 0.03835 0.51098 0.0
O64 O 0.63724 0.01307 0.5075 0.0
O65 O 0.65342 0.07018 0.5112 0.0
O66 O 0.40899 0.7182 0.19258 0.0
Cd67 Cd 0.39236 0.6576 0.21291 0.0
O68 O 0.37435 0.70466 0.1508 0.0
Cd69 Cd 0.3442 0.70536 0.1044 0.0
O70 O 0.30061 0.68918 0.07239 0.0
C71 C 0.29862 0.6614 0.05419 0.0
O72 O 0.32421 0.64317 0.05292 0.0
C73 C 0.39534 0.7274 0.16537 0.0
C74 C 0.42009 0.63939 0.27467 0.0
O75 O 0.43535 0.63644 0.24659 0.0
O76 O 0.39196 0.65173 0.2737 0.0
O77 O 0.11176 0.50062 0.64379 0.0
Cd78 Cd 0.13822 0.54987 0.6779 0.0
O79 O 0.0841 0.44916 0.63216 0.0
Cd80 Cd 0.05863 0.39636 0.64314 0.0
O81 O 0.04296 0.33948 0.64614 0.0
C82 C 0.02082 0.32451 0.62628 0.0
O83 O 1.00629 0.34395 0.60451 0.0
C84 C 0.0951 0.47219 0.65406 0.0
C85 C 0.20661 0.5531 0.66792 0.0
O86 O 0.18865 0.57038 0.64869 0.0
O87 O 0.19238 0.53531 0.69252 0.0
Co88 Co 0.9921 0.99901 0.55997 0.0
C89 C 0.02561 0.93871 0.55744 0.0
Co90 Co 0.0394 1.00319 0.58885 0.0
C91 C 0.92276 1.00313 0.5447 0.0
C92 C 0.94716 0.97708 0.50561 0.0
N93 N 0.95247 0.99311 0.53595 0.0
N94 N 0.89908 0.99377 0.52111 0.0
C95 C 0.91436 0.97732 0.4965 0.0
H96 H 0.91848 0.01653 0.56819 0.0
H97 H 0.96596 0.96591 0.49105 0.0
C98 C 1.00565 0.06354 0.59107 0.0
N99 N 0.07969 0.00984 0.61247 0.0
C100 C 0.09797 0.98592 0.62646 0.0
C101 C 0.09775 0.0415 0.61808 0.0
N102 N 0.12631 1.00162 0.64083 0.0
C103 C 0.12613 0.03656 0.63564 0.0
C104 C 0.04632 0.02571 0.52117 0.0
O105 O 0.98414 0.04562 0.57257 0.0
O106 O 0.03114 0.0497 0.60066 0.0
O107 O 0.06192 0.02101 0.5486 0.0
O108 O 0.0149 0.01787 0.5204 0.0
O109 O 0.04675 0.9562 0.57676 0.0
H110 H 0.09128 0.06673 0.60924 0.0
H111 H 0.09082 0.95758 0.62595 0.0
O112 O 1.00037 0.95274 0.54732 0.0
O113 O 0.96969 0.97998 0.60001 0.0
O114 O 0.01666 0.98569 0.62878 0.0
C115 C 0.98536 0.97672 0.62773 0.0
H116 H 0.90276 0.96665 0.47334 0.0
H117 H 0.14582 0.05699 0.64284 0.0
Co118 Co 0.48463 0.03093 0.03811 0.0
C119 C 0.47345 0.97358 0.0837 0.0
Co120 Co 0.51215 0.03751 0.08659 0.0
C121 C 0.47105 0.0236 0.96639 0.0
C122 C 0.42701 0.01264 0.99619 0.0
N123 N 0.45994 0.02312 0.99861 0.0
N124 N 0.44645 0.01344 0.94396 0.0
C125 C 0.41865 0.00662 0.96267 0.0
H126 H 0.497 0.02973 0.95971 0.0
H127 H 0.41031 0.00858 0.01755 0.0
C128 C 0.52394 0.09469 0.04146 0.0
N129 N 0.53731 0.04597 0.12587 0.0
C130 C 0.52776 0.04737 0.15861 0.0
C131 C 0.57033 0.05651 0.12637 0.0
N132 N 0.55354 0.0588 0.1793 0.0
C133 C 0.58033 0.06434 0.15904 0.0
C134 C 0.54631 1.00593 0.0351 0.0
O135 O 0.50425 0.07602 0.02154 0.0
O136 O 0.52983 0.08265 0.0706 0.0
O137 O 0.54841 0.01668 0.06567 0.0
O138 O 0.5199 0.00914 0.01849 0.0
O139 O 0.49429 0.99228 0.10244 0.0
H140 H 0.58601 0.05956 0.10418 0.0
H141 H 0.50223 0.04166 0.16687 0.0
O142 O 0.46556 0.98577 0.05507 0.0
O143 O 0.44945 0.05296 0.05792 0.0
O144 O 0.47555 0.0581 0.10675 0.0
C145 C 0.45019 0.06267 0.08875 0.0
H146 H 0.39412 0.99741 0.95295 0.0
H147 H 0.60537 0.07381 0.16718 0.0
Co148 Co 0.57609 0.55849 0.53446 0.0
C149 C 0.52156 0.56169 0.49112 0.0
Co150 Co 0.52753 0.53955 0.55708 0.0
C151 C 0.64746 0.57373 0.52384 0.0
C152 C 0.61892 0.60116 0.48902 0.0
N153 N 0.61585 0.57731 0.51454 0.0
N154 N 0.66995 0.59441 0.50514 0.0
C155 C 0.65199 0.61152 0.4831 0.0
H156 H 0.65389 0.55692 0.54441 0.0
H157 H 0.59846 0.6117 0.47639 0.0
C158 C 0.58185 0.53647 0.60061 0.0
N159 N 0.48791 0.52133 0.57704 0.0
C160 C 0.46 0.53697 0.58157 0.0
C161 C 0.48182 0.48958 0.59247 0.0
N162 N 0.43684 0.51633 0.59951 0.0
C163 C 0.45051 0.48642 0.60626 0.0
C164 C 0.55874 0.48737 0.52399 0.0
O165 O 0.59849 0.5512 0.57613 0.0
O166 O 0.55067 0.52842 0.59708 0.0
O167 O 0.53251 0.49427 0.53895 0.0
O168 O 0.58255 0.512 0.51985 0.0
O169 O 0.50436 0.55092 0.51682 0.0
H170 H 0.49932 0.47024 0.59418 0.0
H171 H 0.45721 0.56345 0.57282 0.0
O172 O 0.55306 0.56542 0.49349 0.0
O173 O 0.5693 0.6048 0.54877 0.0
O174 O 0.5231 0.58508 0.57496 0.0
C175 C 0.54466 0.61066 0.56686 0.0
H176 H 0.66198 0.63152 0.46515 0.0
H177 H 0.4388 0.46385 0.62026 0.0
Co178 Co 0.01796 0.49592 0.99163 0.0
C179 C 0.95866 0.47296 0.02791 0.0
Co180 Co 0.01497 0.51523 0.04437 0.0
C181 C 0.03645 0.47439 0.92334 0.0
C182 C 0.98424 0.47637 0.93 0.0
N183 N 0.01361 0.48112 0.9467 0.0
N184 N 0.02217 0.46517 0.89304 0.0
C185 C 0.98938 0.4664 0.89731 0.0
H186 H 0.06293 0.47655 0.92831 0.0
H187 H 0.9605 0.48085 0.94057 0.0
C188 C 0.07326 0.53997 0.00734 0.0
N189 N 0.01998 0.52961 0.08954 0.0
C190 C 0.99811 0.534 0.1147 0.0
C191 C 0.05005 0.53321 0.10503 0.0
N192 N 0.01378 0.54008 0.14485 0.0
C193 C 0.04631 0.53967 0.13873 0.0
C194 C 0.0439 0.45089 0.03561 0.0
O195 O 0.06098 0.52093 0.9829 0.0
O196 O 0.05717 0.54035 0.0348 0.0
O197 O 0.03532 0.47386 0.05617 0.0
O198 O 0.03831 0.4546 1.00407 0.0
O199 O 0.97186 0.49082 0.05276 0.0
H200 H 0.07333 0.52935 0.09308 0.0
H201 H 0.97136 0.53077 0.11143 0.0
O202 O 0.9752 0.47124 1.00083 0.0
O203 O 0.99741 0.53767 0.97978 0.0
O204 O 0.99498 0.55614 0.03237 0.0
C205 C 0.98926 0.56043 1.00096 0.0
H206 H 0.97053 0.46189 0.87773 0.0
H207 H 0.06584 0.54226 0.15773 0.0
H208 H 0.10311 0.10781 0.3203 0.0
H209 H 0.1135 0.04384 0.51392 0.0
H210 H 0.19488 0.10369 0.37546 0.0
H211 H 0.02099 0.04078 0.45859 0.0
H212 H 0.14325 0.06757 0.46363 0.0
H213 H 0.07216 0.08529 0.37077 0.0
C214 C 0.11677 0.1023 0.34299 0.0
C215 C 0.15172 0.10766 0.34351 0.0
C216 C 0.11644 0.06174 0.46241 0.0
C217 C 0.11641 0.08182 0.40142 0.0
C218 C 0.09939 0.04815 0.4912 0.0
C219 C 0.06462 0.04021 0.49059 0.0
C220 C 0.09873 0.0676 0.43259 0.0
C221 C 0.04779 0.04645 0.46029 0.0
C222 C 0.09907 0.08937 0.37179 0.0
C223 C 0.168 0.09997 0.37371 0.0
N224 N 0.06497 0.05976 0.43256 0.0
N225 N 0.15027 0.08749 0.40129 0.0
H226 H 0.43832 0.92004 0.74491 0.0
H227 H 0.493 0.04675 0.90198 0.0
H228 H 0.5207 1.00306 0.74287 0.0
H229 H 0.40803 0.96679 0.90391 0.0
H230 H 0.50105 0.0336 0.84226 0.0
H231 H 0.42378 0.93963 0.80139 0.0
C232 C 0.45282 0.94294 0.75591 0.0
C233 C 0.48047 0.96026 0.73892 0.0
C234 C 0.48049 0.01905 0.85566 0.0
C235 C 0.46472 0.98206 0.80403 0.0
C236 C 0.476 0.02645 0.88984 0.0
C237 C 0.44996 0.00768 0.90811 0.0
C238 C 0.45892 0.99249 0.83956 0.0
C239 C 0.42831 0.98209 0.89083 0.0
C240 C 0.44477 0.95385 0.78838 0.0
C241 C 0.49919 0.98889 0.75509 0.0
N242 N 0.43343 0.97505 0.85761 0.0
N243 N 0.49107 0.99878 0.78673 0.0
H244 H 0.62608 0.45825 0.79972 0.0
H245 H 0.64332 0.56462 0.62413 0.0
H246 H 0.69092 0.55598 0.78767 0.0
H247 H 0.5574 0.49201 0.65131 0.0
H248 H 0.66791 0.5546 0.67984 0.0
H249 H 0.608 0.46285 0.74083 0.0
C250 C 0.63687 0.48045 0.78458 0.0
C251 C 0.65989 0.50692 0.79876 0.0
C252 C 0.64376 0.54077 0.67345 0.0
C253 C 0.63921 0.51232 0.73128 0.0
C254 C 0.62976 0.54638 0.64167 0.0
C255 C 0.59815 0.52932 0.63318 0.0
C256 C 0.62624 0.51752 0.69661 0.0
C257 C 0.58169 0.50596 0.65689 0.0
C258 C 0.62638 0.48314 0.75101 0.0
C259 C 0.67296 0.53509 0.77786 0.0
N260 N 0.59593 0.50074 0.68746 0.0
N261 N 0.66237 0.53712 0.74518 0.0
H262 H 0.04369 0.54672 0.35261 0.0
H263 H 0.97887 0.59017 0.17084 0.0
H264 H 0.96703 0.61567 0.34118 0.0
H265 H 0.02036 0.49411 0.19492 0.0
H266 H 0.97182 0.60071 0.23199 0.0
H267 H 0.03543 0.52859 0.29371 0.0
C268 C 0.0251 0.55807 0.33764 0.0
C269 C 1.00617 0.58288 0.35172 0.0
C270 C 0.98157 0.57681 0.22381 0.0
C271 C 0.99658 0.56231 0.28402 0.0
C272 C 0.98524 0.5707 0.18904 0.0
C273 C 1.00013 0.54126 0.17822 0.0
C274 C 0.99343 0.5535 0.24746 0.0
C275 C 0.00876 0.51706 0.20254 0.0
C276 C 0.02016 0.54749 0.30406 0.0
C277 C 0.98216 0.59647 0.33121 0.0
N278 N 1.00582 0.52399 0.23601 0.0
N279 N 0.97832 0.58637 0.29815 0.0
H280 H 0.26802 0.16008 0.11569 0.0
H281 H 0.43685 0.07576 0.15572 0.0
H282 H 0.29314 0.12325 0.21499 0.0
H283 H 0.39781 0.08594 0.05468 0.0
H284 H 0.38799 0.10013 0.17847 0.0
H285 H 0.31921 0.14029 0.09352 0.0
C286 C 0.28436 0.1481 0.13291 0.0
C287 C 0.27604 0.14324 0.16728 0.0
C288 C 0.3902 0.0971 0.15132 0.0
C289 C 0.33489 0.12054 0.14201 0.0
C290 C 0.41814 0.08328 0.1383 0.0
C291 C 0.42147 0.07863 0.10321 0.0
C292 C 0.36551 0.10677 0.1291 0.0
C293 C 0.39631 0.08885 0.0819 0.0
C294 C 0.31355 0.13665 0.12019 0.0
C295 C 0.29831 0.12741 0.18829 0.0
N296 N 0.36952 0.10244 0.09514 0.0
N297 N 0.32661 0.11669 0.17536 0.0
H298 H 0.30691 0.97437 0.74624 0.0
H299 H 0.15003 0.94109 0.62097 0.0
H300 H 0.30523 0.90829 0.65719 0.0
H301 H 0.16431 0.02559 0.69413 0.0
H302 H 0.20143 0.91942 0.64139 0.0
H303 H 0.24937 0.98406 0.73465 0.0
C304 C 0.29437 0.9616 0.72442 0.0
C305 C 0.31111 0.94086 0.7024 0.0
C306 C 0.19305 0.94244 0.65323 0.0
C307 C 0.24514 0.95188 0.689 0.0
C308 C 0.16365 0.95459 0.64178 0.0
C309 C 0.15323 0.98533 0.65571 0.0
C310 C 0.21182 0.96101 0.679 0.0
C311 C 0.17185 1.0021 0.68243 0.0
C312 C 0.26151 0.9672 0.7178 0.0
C313 C 0.29343 0.9248 0.67465 0.0
N314 N 0.20031 0.98986 0.69307 0.0
N315 N 0.26147 0.93085 0.6686 0.0
H316 H 0.76602 0.40449 0.94115 0.0
H317 H 0.90859 0.49811 0.06367 0.0
H318 H 0.7646 0.50737 0.98659 0.0
H319 H 0.92669 0.42073 0.98823 0.0
H320 H 0.84929 0.48921 0.04898 0.0
H321 H 0.81891 0.399 0.97066 0.0
C322 C 0.77649 0.42557 0.9578 0.0
C323 C 0.7611 0.45655 0.96125 0.0
C324 C 0.86617 0.47359 0.03622 0.0
C325 C 0.82108 0.45031 0.9952 0.0
C326 C 0.89995 0.47835 0.04488 0.0
C327 C 0.92264 0.46035 0.02694 0.0
C328 C 0.85501 0.45044 0.00971 0.0
C329 C 0.91005 0.43535 1.0025 0.0
C330 C 0.80666 0.42249 0.9745 0.0
C331 C 0.77587 0.48322 0.98291 0.0
N332 N 0.87715 0.43142 0.99431 0.0
N333 N 0.80501 0.47954 0.99897 0.0
H334 H 0.87772 0.65996 0.47524 0.0
H335 H 0.70492 0.58935 0.5637 0.0
H336 H 0.86871 0.63993 0.58277 0.0
H337 H 0.7161 0.6137 0.45722 0.0
H338 H 0.76498 0.60477 0.57136 0.0
H339 H 0.81854 0.64132 0.46851 0.0
C340 C 0.86327 0.65171 0.49751 0.0
C341 C 0.87823 0.65154 0.52964 0.0
C342 C 0.75426 0.60659 0.54631 0.0
C343 C 0.81015 0.62989 0.52205 0.0
C344 C 0.72004 0.5975 0.54187 0.0
C345 C 0.70546 0.60042 0.50977 0.0
C346 C 0.77398 0.61854 0.51843 0.0
C347 C 0.7262 0.61158 0.48247 0.0
C348 C 0.82939 0.64098 0.49363 0.0
C349 C 0.85816 0.64055 0.55754 0.0
N350 N 0.75932 0.6203 0.48744 0.0
N351 N 0.8251 0.63011 0.5531 0.0
H352 H 0.15241 0.31857 0.16357 0.0
H353 H 0.05735 0.3898 1.00286 0.0
H354 H 0.11938 0.25128 0.07911 0.0
H355 H 0.0693 0.44373 0.09909 0.0
H356 H 0.085 0.34106 0.02697 0.0
H357 H 0.12766 0.36716 0.13671 0.0
C358 C 0.14015 0.31402 0.13924 0.0
C359 C 0.13795 0.28063 0.1237 0.0
C360 C 0.08153 0.36362 0.04272 0.0
C361 C 0.10934 0.33651 0.09262 0.0
C362 C 0.06581 0.39147 0.02896 0.0
C363 C 0.0608 0.42092 0.04896 0.0
C364 C 0.09272 0.36546 0.07658 0.0
C365 C 0.07234 0.42157 0.08266 0.0
C366 C 0.12587 0.34182 0.12394 0.0
C367 C 0.12163 0.2765 0.09212 0.0
N368 N 0.08775 0.39444 0.09528 0.0
N369 N 0.10796 0.30405 0.07763 0.0
H370 H 0.63109 0.30447 0.04616 0.0
H371 H 0.53494 0.1223 0.9772 0.0
H372 H 0.64157 0.26907 0.94326 0.0
H373 H 0.55194 0.14674 0.08311 0.0
H374 H 0.56736 0.17915 0.96247 0.0
H375 H 0.59556 0.24967 0.05839 0.0
C376 C 0.62594 0.28516 0.0261 0.0
C377 C 0.63951 0.29134 0.99368 0.0
C378 C 0.5638 0.17199 0.9889 0.0
C379 C 0.59848 0.22843 0.00749 0.0
C380 C 0.54517 0.13974 0.99729 0.0
C381 C 0.54085 0.12975 0.03141 0.0
C382 C 0.5777 0.19446 0.01485 0.0
C383 C 0.5548 0.15323 0.05646 0.0
C384 C 0.60563 0.25382 0.03312 0.0
C385 C 0.63182 0.26529 0.96869 0.0
N386 N 0.5725 0.18439 0.04769 0.0
N387 N 0.61174 0.23497 0.97609 0.0
H388 H 0.03654 0.71368 0.55829 0.0
H389 H 1.0008 0.90444 0.5007 0.0
H390 H 0.02831 0.74112 0.45272 0.0
H391 H 0.05915 0.88998 0.59036 0.0
H392 H 1.00471 0.84295 0.48478 0.0
H393 H 0.03903 0.77664 0.57306 0.0
C394 C 0.03514 0.73297 0.53827 0.0
C395 C 0.03185 0.72228 0.50429 0.0
C396 C 0.01686 0.85332 0.5078 0.0
C397 C 0.03457 0.79395 0.52095 0.0
C398 C 0.01454 0.88831 0.51698 0.0
C399 C 0.02966 0.90224 0.54691 0.0
C400 C 0.03374 0.83181 0.5291 0.0
C401 C 0.04726 0.88024 0.56701 0.0
C402 C 0.03686 0.76882 0.54668 0.0
C403 C 0.03082 0.74833 0.47923 0.0
N404 N 0.04846 0.84588 0.55797 0.0
N405 N 0.03172 0.78296 0.48809 0.0
H406 H 0.52032 0.83305 0.57206 0.0
H407 H 0.51788 0.63236 0.62572 0.0
H408 H 0.54897 0.80655 0.67356 0.0
H409 H 0.56268 0.67142 0.53186 0.0
H410 H 0.51337 0.69387 0.64297 0.0
H411 H 0.51934 0.77057 0.556 0.0
C412 C 0.52591 0.81399 0.59105 0.0
C413 C 0.53491 0.82484 0.62411 0.0
C414 C 0.52403 0.68874 0.61859 0.0
C415 C 0.53325 0.75377 0.6061 0.0
C416 C 0.52652 0.65387 0.60872 0.0
C417 C 0.54087 0.64705 0.57747 0.0
C418 C 0.53497 0.71661 0.59651 0.0
C419 C 0.55176 0.67571 0.5563 0.0
C420 C 0.52552 0.77854 0.58183 0.0
C421 C 0.54214 0.79917 0.64774 0.0
N422 N 0.54831 0.7093 0.56607 0.0
N423 N 0.541 0.76466 0.63833 0.0
H424 H 0.89171 0.95458 0.82504 0.0
H425 H 0.92986 0.92819 0.63156 0.0
H426 H 0.87647 0.85016 0.78102 0.0
H427 H 0.99973 0.99396 0.69391 0.0
H428 H 0.9006 0.90551 0.68312 0.0
H429 H 0.92249 0.97616 0.77402 0.0
C430 C 0.89478 0.93624 0.80462 0.0
C431 C 0.88165 0.90049 0.80731 0.0
C432 C 0.92236 0.92489 0.68539 0.0
C433 C 0.91598 0.9252 0.74874 0.0
C434 C 0.93894 0.93794 0.65607 0.0
C435 C 0.96732 0.96289 0.65852 0.0
C436 C 0.9336 0.93774 0.71726 0.0
C437 C 0.97809 0.97457 0.69094 0.0
C438 C 0.91241 0.94854 0.77566 0.0
C439 C 0.88642 0.87785 0.78009 0.0
N440 N 0.96098 0.96224 0.71904 0.0
N441 N 0.90282 0.89066 0.75174 0.0
H442 H 0.60382 0.1341 0.38075 0.0
H443 H 0.51297 0.02425 0.22637 0.0
H444 H 0.53852 0.03692 0.39376 0.0
H445 H 0.59251 0.10922 0.21416 0.0
H446 H 0.51524 0.03402 0.28787 0.0
H447 H 0.59296 0.13106 0.31973 0.0
C448 C 0.58658 0.1126 0.37092 0.0
C449 C 0.57183 0.08591 0.39242 0.0
C450 C 0.53208 0.05062 0.27167 0.0
C451 C 0.55989 0.08174 0.3225 0.0
C452 C 0.53066 0.04514 0.23661 0.0
C453 C 0.55288 0.06561 0.2152 0.0
C454 C 0.55567 0.07699 0.28532 0.0
C455 C 0.57541 0.09231 0.22979 0.0
C456 C 0.58069 0.11062 0.336 0.0
C457 C 0.5505 0.05802 0.37804 0.0
N458 N 0.5763 0.09715 0.26389 0.0
N459 N 0.54525 0.0566 0.344 0.0
H460 H 0.3908 0.63434 0.33745 0.0
H461 H 0.5515 0.57516 0.42999 0.0
H462 H 0.48153 0.61831 0.28569 0.0
H463 H 0.45586 0.5701 0.47888 0.0
H464 H 0.5265 0.59369 0.37769 0.0
H465 H 0.41448 0.61403 0.39026 0.0
C466 C 0.41572 0.62667 0.33719 0.0
C467 C 0.43423 0.62808 0.30707 0.0
C468 C 0.51087 0.5884 0.39975 0.0
C469 C 0.46142 0.60481 0.36739 0.0
C470 C 0.52515 0.57782 0.42971 0.0
C471 C 0.50575 0.57105 0.45894 0.0
C472 C 0.4769 0.59262 0.39887 0.0
C473 C 0.47172 0.57491 0.45693 0.0
C474 C 0.42916 0.61494 0.36732 0.0
C475 C 0.46634 0.61767 0.30825 0.0
N476 N 0.45839 0.58565 0.42743 0.0
N477 N 0.4789 0.60659 0.33788 0.0
H478 H 0.13533 0.49345 0.70818 0.0
H479 H 0.99769 0.42027 0.84384 0.0
H480 H 0.03951 0.43756 0.68306 0.0
H481 H 0.08189 0.49585 0.86957 0.0
H482 H 0.01894 0.41712 0.78634 0.0
H483 H 0.12157 0.48694 0.76855 0.0
C484 C 0.11144 0.47982 0.71536 0.0
C485 C 0.08849 0.46616 0.69056 0.0
C486 C 0.03301 0.4342 0.80456 0.0
C487 C 0.07287 0.45789 0.75938 0.0
C488 C 0.02088 0.43597 0.83738 0.0
C489 C 0.03778 0.45879 0.86128 0.0
C490 C 0.06226 0.45554 0.79535 0.0
C491 C 0.0681 0.47798 0.85185 0.0
C492 C 0.10373 0.47583 0.74978 0.0
C493 C 0.05824 0.44786 0.70125 0.0
N494 N 0.07921 0.47629 0.8194 0.0
N495 N 0.05127 0.4444 0.7348 0.0
H496 H 0.73679 0.93366 0.98202 0.0
H497 H 0.54888 0.98119 0.97023 0.0
H498 H 0.67687 0.92532 0.891 0.0
H499 H 0.60793 0.99617 0.06155 0.0
H500 H 0.59523 0.95814 0.9421 0.0
H501 H 0.68986 0.95399 0.01272 0.0
C502 C 0.71379 0.93593 0.9685 0.0
C503 C 0.71091 0.92778 0.93377 0.0
C504 C 0.59816 0.96635 0.96832 0.0
C505 C 0.65708 0.95109 0.9688 0.0
C506 C 0.57157 0.97954 0.98449 0.0
C507 C 0.57438 0.99073 0.01841 0.0
C508 C 0.62807 0.96421 0.98602 0.0
C509 C 0.60458 0.98787 0.0354 0.0
C510 C 0.68702 0.94761 0.98605 0.0
C511 C 0.68044 0.93132 0.91767 0.0
N512 N 0.63024 0.97496 0.01903 0.0
N513 N 0.65489 0.94268 0.93524 0.0
H514 H 0.68577 0.97535 0.50121 0.0
H515 H 0.87323 0.04949 0.54933 0.0
H516 H 0.71566 0.08451 0.52805 0.0
H517 H 0.84647 0.95226 0.49442 0.0
H518 H 0.81467 0.06022 0.54861 0.0
H519 H 0.74381 0.96392 0.50533 0.0
C520 C 0.70452 0.9969 0.50809 0.0
C521 C 0.69586 0.03097 0.51419 0.0
C522 C 0.82166 0.03654 0.53675 0.0
C523 C 0.76233 0.01801 0.51908 0.0
C524 C 0.85499 0.0303 0.53735 0.0
C525 C 0.8647 1.00001 0.52179 0.0
C526 C 0.79784 0.01206 0.52086 0.0
C527 C 0.84011 0.97616 0.50632 0.0
C528 C 0.73766 0.99037 0.51034 0.0
C529 C 0.72124 0.05788 0.52299 0.0
N530 N 0.80782 0.98263 0.50632 0.0
N531 N 0.75334 0.05081 0.52524 0.0
H532 H 0.28413 0.6008 0.01636 0.0
H533 H 0.08997 0.60374 0.03641 0.0
H534 H 0.23955 0.68967 0.05625 0.0
H535 H 0.1302 0.52619 0.97407 0.0
H536 H 0.14496 0.63697 0.04055 0.0
H537 H 0.22906 0.57437 0.99726 0.0
C538 C 0.26288 0.615 0.02073 0.0
C539 C 0.26645 0.64731 0.03839 0.0
C540 C 0.1419 0.61297 0.02555 0.0
C541 C 0.20341 0.61708 0.01676 0.0
C542 C 0.11046 0.59395 0.02322 0.0
C543 C 0.10566 0.5621 1.00505 0.0
C544 C 0.16911 0.59974 0.01023 0.0
C545 C 0.13296 0.5507 0.98827 0.0
C546 C 0.23146 0.59989 0.00975 0.0
C547 C 0.23804 0.66457 0.0431 0.0
N548 N 0.16376 0.56924 0.99175 0.0
N549 N 0.20775 0.64905 0.03274 0.0
H550 H 0.25089 0.51823 0.70352 0.0
H551 H 0.39816 0.56134 0.56947 0.0
H552 H 0.24352 0.58485 0.61574 0.0
H553 H 0.40237 0.49104 0.65495 0.0
H554 H 0.34327 0.57418 0.58817 0.0
H555 H 0.30829 0.51208 0.68843 0.0
C556 C 0.26143 0.53182 0.68121 0.0
C557 C 0.24229 0.55192 0.66075 0.0
C558 C 0.35628 0.55601 0.60286 0.0
C559 C 0.30803 0.54476 0.64315 0.0
C560 C 0.38767 0.54879 0.59227 0.0
C561 C 0.40483 0.52485 0.6105 0.0
C562 C 0.34198 0.53926 0.63196 0.0
C563 C 0.38986 0.50912 0.63971 0.0
C564 C 0.29421 0.52822 0.67255 0.0
C565 C 0.25732 0.56899 0.63218 0.0
N566 N 0.35933 0.51655 0.64947 0.0
N567 N 0.28925 0.56485 0.62411 0.0
H568 H 0.87499 0.70074 0.88771 0.0
H569 H 0.97803 0.61989 0.03662 0.0
H570 H 0.9134 0.76174 0.97439 0.0
H571 H 0.96316 0.57136 0.93806 0.0
H572 H 0.95071 0.67015 0.01629 0.0
H573 H 0.90341 0.65119 0.90768 0.0
C574 C 0.88941 0.70376 0.91094 0.0
C575 C 0.89179 0.73555 0.92936 0.0
C576 C 0.95351 0.64854 0.9991 0.0
C577 C 0.92425 0.67866 0.95255 0.0
C578 C 0.96903 0.61976 0.01072 0.0
C579 C 0.97298 0.5913 0.98903 0.0
C580 C 0.94142 0.64875 0.96565 0.0
C581 C 0.96082 0.59271 0.95568 0.0
C582 C 0.9057 0.67545 0.92229 0.0
C583 C 0.91091 0.73783 0.95928 0.0
N584 N 0.94548 0.62081 0.9451 0.0
N585 N 0.92623 0.70976 0.97002 0.0
H586 H 0.36089 0.76447 0.11946 0.0
H587 H 0.42747 0.92696 0.05052 0.0
H588 H 0.44983 0.77384 0.18099 0.0
H589 H 0.48732 0.93796 0.14155 0.0
H590 H 0.40612 0.86705 0.06786 0.0
H591 H 0.3768 0.82404 0.09793 0.0
C592 C 0.38416 0.77864 0.12785 0.0
C593 C 0.40439 0.76358 0.15148 0.0
C594 C 0.42338 0.88266 0.08446 0.0
C595 C 0.42296 0.83239 0.12695 0.0
C596 C 0.43585 0.91691 0.07437 0.0
C597 C 0.45917 0.93766 0.09464 0.0
C598 C 0.43426 0.86897 0.11516 0.0
C599 C 0.4693 0.92304 0.12514 0.0
C600 C 0.3933 0.81291 0.11553 0.0
C601 C 0.43353 0.78416 0.1626 0.0
N602 N 0.45693 0.88961 0.13434 0.0
N603 N 0.44188 0.8174 0.15028 0.0
H604 H 0.04821 0.27654 0.66618 0.0
H605 H 0.96173 0.10698 0.56567 0.0
H606 H 0.97756 0.28328 0.58478 0.0
H607 H 0.04257 0.10482 0.63711 0.0
H608 H 0.96113 0.17018 0.57772 0.0
H609 H 0.0402 0.2122 0.6613 0.0
C610 C 0.0308 0.2645 0.64743 0.0
C611 C 0.0138 0.28541 0.62561 0.0
C612 C 0.97881 0.15574 0.59091 0.0
C613 C 1.0046 0.21156 0.61979 0.0
C614 C 0.97909 0.11968 0.58413 0.0
C615 C 1.00244 0.10069 0.60016 0.0
C616 C 1.00191 0.17277 0.61402 0.0
C617 C 0.02434 0.11846 0.62388 0.0
C618 C 0.02628 0.2277 0.64462 0.0
C619 C 0.99139 0.26823 0.60196 0.0
N620 N 0.02363 0.15346 0.62994 0.0
N621 N 0.98761 0.2323 0.59951 0.0
H622 H 0.51288 0.26635 0.47354 0.0
H623 H 0.6109 0.46137 0.49144 0.0
H624 H 0.61469 0.29246 0.44158 0.0
H625 H 0.51112 0.43047 0.52752 0.0
H626 H 0.61272 0.40077 0.47076 0.0
H627 H 0.51151 0.32761 0.49066 0.0
C628 C 0.53496 0.285 0.46998 0.0
C629 C 0.56399 0.27413 0.45621 0.0
C630 C 0.59046 0.40735 0.48319 0.0
C631 C 0.56265 0.34467 0.47601 0.0
C632 C 0.58941 0.44191 0.49502 0.0
C633 C 0.56084 0.45105 0.51131 0.0
C634 C 0.56271 0.38185 0.48763 0.0
C635 C 0.53372 0.42474 0.51519 0.0
C636 C 0.53418 0.32007 0.47984 0.0
C637 C 0.59178 0.29965 0.45214 0.0
N638 N 0.53535 0.39147 0.50347 0.0
N639 N 0.59047 0.33373 0.46211 0.0
loop_
_geom_bond_atom_site_label_1
_geom_bond_atom_site_label_2
_geom_bond_distance
_geom_bond_site_symmetry_2
_ccdc_geom_bond_type
O0 Cd1 2.300 . S
O0 C7 1.275 . S
Cd1 O0 2.300 . S
Cd1 O9 2.381 . S
Cd1 O10 2.378 . S
O2 Cd3 2.385 . S
O2 C7 1.255 . S
Cd3 O2 2.385 . S
Cd3 O4 2.317 . S
O4 Cd3 2.317 . S
O4 C5 1.232 . S
C5 O4 1.232 . S
C5 O6 1.218 . S
O6 C5 1.218 . S
C7 O0 1.275 . S
C7 O2 1.255 . S
C8 O9 1.258 . S
C8 O10 1.256 . S
O9 Cd1 2.381 . S
O9 C8 1.258 . S
O10 Cd1 2.378 . S
O10 C8 1.256 . S
O11 Cd12 2.300 . S
O11 C18 1.275 . S
Cd12 O11 2.300 . S
Cd12 O20 2.381 . S
Cd12 O21 2.378 . S
O13 Cd14 2.385 . S
O13 C18 1.255 . S
Cd14 O13 2.385 . S
Cd14 O15 2.317 . S
O15 Cd14 2.317 . S
O15 C16 1.232 . S
C16 O15 1.232 . S
C16 O17 1.218 . S
O17 C16 1.218 . S
C18 O11 1.275 . S
C18 O13 1.255 . S
C19 O20 1.258 . S
C19 O21 1.256 . S
O20 Cd12 2.381 . S
O20 C19 1.258 . S
O21 Cd12 2.378 . S
O21 C19 1.256 . S
O22 Cd23 2.300 . S
O22 C29 1.275 . S
Cd23 O22 2.300 . S
Cd23 O31 2.381 . S
Cd23 O32 2.378 . S
O24 Cd25 2.385 . S
O24 C29 1.255 . S
Cd25 O24 2.385 . S
Cd25 O26 2.317 . S
O26 Cd25 2.317 . S
O26 C27 1.232 . S
C27 O26 1.232 . S
C27 O28 1.218 . S
O28 C27 1.218 . S
C29 O22 1.275 . S
C29 O24 1.255 . S
C30 O31 1.258 . S
C30 O32 1.256 . S
O31 Cd23 2.381 . S
O31 C30 1.258 . S
O32 Cd23 2.378 . S
O32 C30 1.256 . S
O33 Cd34 2.300 . S
O33 C40 1.275 . S
Cd34 O33 2.300 . S
Cd34 O42 2.381 . S
Cd34 O43 2.378 . S
O35 Cd36 2.385 . S
O35 C40 1.255 . S
Cd36 O35 2.385 . S
Cd36 O37 2.317 . S
O37 Cd36 2.317 . S
O37 C38 1.232 . S
C38 O37 1.232 . S
C38 O39 1.218 . S
O39 C38 1.218 . S
C40 O33 1.275 . S
C40 O35 1.255 . S
C41 O42 1.258 . S
C41 O43 1.256 . S
O42 Cd34 2.381 . S
O42 C41 1.258 . S
O43 Cd34 2.378 . S
O43 C41 1.256 . S
O44 Cd45 2.300 . S
O44 C51 1.275 . S
Cd45 O44 2.300 . S
Cd45 O53 2.381 . S
Cd45 O54 2.378 . S
O46 Cd47 2.385 . S
O46 C51 1.255 . S
Cd47 O46 2.385 . S
Cd47 O48 2.317 . S
O48 Cd47 2.317 . S
O48 C49 1.232 . S
C49 O48 1.232 . S
C49 O50 1.218 . S
O50 C49 1.218 . S
C51 O44 1.275 . S
C51 O46 1.255 . S
C52 O53 1.258 . S
C52 O54 1.256 . S
O53 Cd45 2.381 . S
O53 C52 1.258 . S
O54 Cd45 2.378 . S
O54 C52 1.256 . S
O55 Cd56 2.300 . S
O55 C62 1.275 . S
Cd56 O55 2.300 . S
Cd56 O64 2.381 . S
Cd56 O65 2.378 . S
O57 Cd58 2.385 . S
O57 C62 1.255 . S
Cd58 O57 2.385 . S
Cd58 O59 2.317 . S
O59 Cd58 2.317 . S
O59 C60 1.232 . S
C60 O59 1.232 . S
C60 O61 1.218 . S
O61 C60 1.218 . S
C62 O55 1.275 . S
C62 O57 1.255 . S
C63 O64 1.258 . S
C63 O65 1.256 . S
O64 Cd56 2.381 . S
O64 C63 1.258 . S
O65 Cd56 2.378 . S
O65 C63 1.256 . S
O66 Cd67 2.300 . S
O66 C73 1.275 . S
Cd67 O66 2.300 . S
Cd67 O75 2.381 . S
Cd67 O76 2.378 . S
O68 Cd69 2.385 . S
O68 C73 1.255 . S
Cd69 O68 2.385 . S
Cd69 O70 2.317 . S
O70 Cd69 2.317 . S
O70 C71 1.232 . S
C71 O70 1.232 . S
C71 O72 1.218 . S
O72 C71 1.218 . S
C73 O66 1.275 . S
C73 O68 1.255 . S
C74 O75 1.258 . S
C74 O76 1.256 . S
O75 Cd67 2.381 . S
O75 C74 1.258 . S
O76 Cd67 2.378 . S
O76 C74 1.256 . S
O77 Cd78 2.300 . S
O77 C84 1.275 . S
Cd78 O77 2.300 . S
Cd78 O86 2.381 . S
Cd78 O87 2.378 . S
O79 Cd80 2.385 . S
O79 C84 1.255 . S
Cd80 O79 2.385 . S
Cd80 O81 2.317 . S
O81 Cd80 2.317 . S
O81 C82 1.232 . S
C82 O81 1.232 . S
C82 O83 1.218 . S
O83 C82 1.218 . S
C84 O77 1.275 . S
C84 O79 1.255 . S
C85 O86 1.258 . S
C85 O87 1.256 . S
O86 Cd78 2.381 . S
O86 C85 1.258 . S
O87 Cd78 2.378 . S
O87 C85 1.256 . S
Co88 N93 2.057 . S
Co88 O105 2.021 . S
Co88 O108 2.062 . S
Co88 O112 2.117 1_545 S
Co88 O113 2.014 1_545 S
C89 O109 1.259 1_655 S
C89 O112 1.258 . S
Co90 N99 2.057 . S
Co90 O106 2.117 1_565 S
Co90 O107 2.020 1_565 S
Co90 O109 2.021 . S
Co90 O114 2.062 . S
C91 N93 1.316 . S
C91 N94 1.347 . S
C91 H96 0.931 . S
C92 N93 1.375 1_565 S
C92 C95 1.350 1_565 S
C92 H97 0.930 . S
N93 Co88 2.057 . S
N93 C91 1.316 . S
N93 C92 1.375 1_545 S
N94 C91 1.347 . S
N94 C95 1.373 . S
C95 C92 1.350 1_545 S
C95 N94 1.373 . S
C95 H116 0.931 1_545 S
H96 C91 0.931 . S
H97 C92 0.930 . S
C98 O105 1.259 1_455 S
C98 O106 1.258 . S
N99 Co90 2.057 . S
N99 C100 1.316 . S
N99 C101 1.375 1_565 S
C100 N99 1.316 . S
C100 N102 1.347 . S
C100 H111 0.931 . S
C101 N99 1.375 1_545 S
C101 C103 1.350 . S
C101 H110 0.930 . S
N102 C100 1.347 . S
N102 C103 1.373 1_565 S
C103 C101 1.350 . S
C103 N102 1.373 1_545 S
C103 H117 0.931 . S
C104 O107 1.256 . S
C104 O108 1.255 1_455 S
O105 Co88 2.021 . S
O105 C98 1.259 1_655 S
O106 Co90 2.117 1_545 S
O106 C98 1.258 . S
O107 Co90 2.020 1_545 S
O107 C104 1.256 . S
O108 Co88 2.062 . S
O108 C104 1.255 1_655 S
O109 C89 1.259 1_455 S
O109 Co90 2.021 . S
H110 C101 0.930 . S
H111 C100 0.931 . S
O112 Co88 2.117 1_565 S
O112 C89 1.258 . S
O113 Co88 2.014 1_565 S
O113 C115 1.264 . S
O114 Co90 2.062 . S
O114 C115 1.255 1_455 S
C115 O113 1.264 . S
C115 O114 1.255 1_655 S
H116 C95 0.931 1_565 S
H117 C103 0.931 . S
Co118 N123 2.057 1_544 S
Co118 O135 2.021 . S
Co118 O138 2.062 . S
Co118 O142 2.117 1_545 S
Co118 O143 2.020 . S
C119 O139 1.259 . S
C119 O142 1.258 . S
Co120 N129 2.057 . S
Co120 O136 2.117 . S
Co120 O137 2.020 . S
Co120 O139 2.021 1_545 S
Co120 O144 2.062 . S
C121 N123 1.316 1_545 S
C121 N124 1.347 1_545 S
C121 H126 0.931 . S
C122 N123 1.375 . S
C122 C125 1.350 . S
C122 H127 0.930 . S
N123 Co118 2.057 1_566 S
N123 C121 1.316 1_565 S
N123 C122 1.375 . S
N124 C121 1.347 1_565 S
N124 C125 1.373 . S
C125 C122 1.350 . S
C125 N124 1.373 . S
C125 H146 0.931 . S
H126 C121 0.931 . S
H127 C122 0.930 . S
C128 O135 1.259 . S
C128 O136 1.258 . S
N129 Co120 2.057 . S
N129 C130 1.316 . S
N129 C131 1.375 . S
C130 N129 1.316 . S
C130 N132 1.347 . S
C130 H141 0.931 . S
C131 N129 1.375 . S
C131 C133 1.350 . S
C131 H140 0.930 . S
N132 C130 1.347 . S
N132 C133 1.373 . S
C133 C131 1.350 . S
C133 N132 1.373 . S
C133 H147 0.931 . S
C134 O137 1.256 . S
C134 O138 1.255 . S
O135 Co118 2.021 . S
O135 C128 1.259 . S
O136 Co120 2.117 . S
O136 C128 1.258 . S
O137 Co120 2.020 . S
O137 C134 1.256 . S
O138 Co118 2.062 . S
O138 C134 1.255 . S
O139 C119 1.259 . S
O139 Co120 2.021 1_565 S
H140 C131 0.930 . S
H141 C130 0.931 . S
O142 Co118 2.117 1_565 S
O142 C119 1.258 . S
O143 Co118 2.020 . S
O143 C145 1.256 . S
O144 Co120 2.062 . S
O144 C145 1.255 . S
C145 O143 1.256 . S
C145 O144 1.255 . S
H146 C125 0.931 . S
H147 C133 0.931 . S
Co148 N153 2.057 . S
Co148 O165 2.021 . S
Co148 O168 2.062 . S
Co148 O172 2.117 . S
Co148 O173 2.020 . S
C149 O169 1.259 . S
C149 O172 1.258 . S
Co150 N159 2.057 . S
Co150 O166 2.117 . S
Co150 O167 2.020 . S
Co150 O169 2.021 . S
Co150 O174 2.062 . S
C151 N153 1.316 . S
C151 N154 1.347 . S
C151 H156 0.931 . S
C152 N153 1.375 . S
C152 C155 1.350 . S
C152 H157 0.930 . S
N153 Co148 2.057 . S
N153 C151 1.316 . S
N153 C152 1.375 . S
N154 C151 1.347 . S
N154 C155 1.373 . S
C155 C152 1.350 . S
C155 N154 1.373 . S
C155 H176 0.931 . S
H156 C151 0.931 . S
H157 C152 0.930 . S
C158 O165 1.259 . S
C158 O166 1.258 . S
N159 Co150 2.057 . S
N159 C160 1.316 . S
N159 C161 1.375 . S
C160 N159 1.316 . S
C160 N162 1.347 . S
C160 H171 0.931 . S
C161 N159 1.375 . S
C161 C163 1.350 . S
C161 H170 0.930 . S
N162 C160 1.347 . S
N162 C163 1.373 . S
C163 C161 1.350 . S
C163 N162 1.373 . S
C163 H177 0.931 . S
C164 O167 1.256 . S
C164 O168 1.255 . S
O165 Co148 2.021 . S
O165 C158 1.259 . S
O166 Co150 2.117 . S
O166 C158 1.258 . S
O167 Co150 2.020 . S
O167 C164 1.256 . S
O168 Co148 2.062 . S
O168 C164 1.255 . S
O169 C149 1.259 . S
O169 Co150 2.021 . S
H170 C161 0.930 . S
H171 C160 0.931 . S
O172 Co148 2.117 . S
O172 C149 1.258 . S
O173 Co148 2.020 . S
O173 C175 1.256 . S
O174 Co150 2.062 . S
O174 C175 1.255 . S
C175 O173 1.256 . S
C175 O174 1.255 . S
H176 C155 0.931 . S
H177 C163 0.931 . S
Co178 N183 2.057 . S
Co178 O195 2.021 1_556 S
Co178 O198 2.062 1_556 S
Co178 O202 2.117 1_455 S
Co178 O203 2.020 . S
C179 O199 1.259 . S
C179 O202 1.258 1_554 S
Co180 N189 2.057 . S
Co180 O196 2.117 . S
Co180 O197 2.020 . S
Co180 O199 2.021 1_455 S
Co180 O204 2.062 . S
C181 N183 1.316 . S
C181 N184 1.347 . S
C181 H186 0.931 . S
C182 N183 1.375 . S
C182 C185 1.350 . S
C182 H187 0.930 1_455 S
N183 Co178 2.057 . S
N183 C181 1.316 . S
N183 C182 1.375 . S
N184 C181 1.347 . S
N184 C185 1.373 . S
C185 C182 1.350 . S
C185 N184 1.373 . S
C185 H206 0.931 . S
H186 C181 0.931 . S
H187 C182 0.930 1_655 S
C188 O195 1.259 . S
C188 O196 1.258 . S
N189 Co180 2.057 . S
N189 C190 1.316 1_455 S
N189 C191 1.375 . S
C190 N189 1.316 1_655 S
C190 N192 1.347 . S
C190 H201 0.931 . S
C191 N189 1.375 . S
C191 C193 1.350 . S
C191 H200 0.930 . S
N192 C190 1.347 . S
N192 C193 1.373 1_655 S
C193 C191 1.350 . S
C193 N192 1.373 1_455 S
C193 H207 0.931 . S
C194 O197 1.256 . S
C194 O198 1.255 . S
O195 Co178 2.021 1_554 S
O195 C188 1.259 . S
O196 Co180 2.117 . S
O196 C188 1.258 . S
O197 Co180 2.020 . S
O197 C194 1.256 . S
O198 Co178 2.062 1_554 S
O198 C194 1.255 . S
O199 C179 1.259 . S
O199 Co180 2.021 1_655 S
H200 C191 0.930 . S
H201 C190 0.931 . S
O202 Co178 2.117 1_655 S
O202 C179 1.258 1_556 S
O203 Co178 2.020 . S
O203 C205 1.256 1_556 S
O204 Co180 2.062 . S
O204 C205 1.255 . S
C205 O203 1.256 1_554 S
C205 O204 1.255 . S
H206 C185 0.931 . S
H207 C193 0.931 . S
H208 C214 0.930 . S
H209 C218 0.930 . S
H210 C223 0.929 . S
H211 C221 0.929 1_655 S
H212 C216 0.929 . S
H213 C222 0.929 . S
C214 H208 0.930 . S
C214 C215 1.367 . S
C214 C222 1.378 . S
C215 C214 1.367 . S
C215 C223 1.433 . S
C216 H212 0.929 . S
C216 C218 1.378 . S
C216 C220 1.350 . S
C217 C220 1.463 . S
C217 C222 1.350 . S
C217 N225 1.427 . S
C218 H209 0.930 . S
C218 C216 1.378 . S
C218 C219 1.367 . S
C219 C218 1.367 . S
C219 C221 1.433 . S
C220 C216 1.350 . S
C220 C217 1.463 . S
C220 N224 1.427 . S
C221 H211 0.929 1_455 S
C221 C219 1.433 . S
C221 N224 1.384 . S
C222 H213 0.929 . S
C222 C214 1.378 . S
C222 C217 1.350 . S
C223 H210 0.929 . S
C223 C215 1.433 . S
C223 N225 1.384 . S
N224 C220 1.427 . S
N224 C221 1.384 . S
N225 C217 1.427 . S
N225 C223 1.384 . S
H226 C232 0.930 . S
H227 C236 0.930 . S
H228 C241 0.929 . S
H229 C239 0.929 . S
H230 C234 0.929 1_545 S
H231 C240 0.929 . S
C232 H226 0.930 . S
C232 C233 1.367 . S
C232 C240 1.378 . S
C233 C232 1.367 . S
C233 C241 1.433 . S
C234 H230 0.929 1_565 S
C234 C236 1.378 1_565 S
C234 C238 1.350 . S
C235 C238 1.463 . S
C235 C240 1.350 . S
C235 N243 1.427 . S
C236 H227 0.930 . S
C236 C234 1.378 1_545 S
C236 C237 1.367 1_545 S
C237 C236 1.367 1_565 S
C237 C239 1.433 . S
C238 C234 1.350 . S
C238 C235 1.463 . S
C238 N242 1.427 . S
C239 H229 0.929 . S
C239 C237 1.433 . S
C239 N242 1.384 . S
C240 H231 0.929 . S
C240 C232 1.378 . S
C240 C235 1.350 . S
C241 H228 0.929 . S
C241 C233 1.433 . S
C241 N243 1.384 . S
N242 C238 1.427 . S
N242 C239 1.384 . S
N243 C235 1.427 . S
N243 C241 1.384 . S
H244 C250 0.930 . S
H245 C254 0.930 . S
H246 C259 0.929 . S
H247 C257 0.929 . S
H248 C252 0.929 . S
H249 C258 0.929 . S
C250 H244 0.930 . S
C250 C251 1.367 . S
C250 C258 1.378 . S
C251 C250 1.367 . S
C251 C259 1.433 . S
C252 H248 0.929 . S
C252 C254 1.378 . S
C252 C256 1.350 . S
C253 C256 1.463 . S
C253 C258 1.350 . S
C253 N261 1.427 . S
C254 H245 0.930 . S
C254 C252 1.378 . S
C254 C255 1.367 . S
C255 C254 1.367 . S
C255 C257 1.433 . S
C256 C252 1.350 . S
C256 C253 1.463 . S
C256 N260 1.427 . S
C257 H247 0.929 . S
C257 C255 1.433 . S
C257 N260 1.384 . S
C258 H249 0.929 . S
C258 C250 1.378 . S
C258 C253 1.350 . S
C259 H246 0.929 . S
C259 C251 1.433 . S
C259 N261 1.384 . S
N260 C256 1.427 . S
N260 C257 1.384 . S
N261 C253 1.427 . S
N261 C259 1.384 . S
H262 C268 0.930 . S
H263 C272 0.930 . S
H264 C277 0.929 . S
H265 C275 0.929 . S
H266 C270 0.929 . S
H267 C276 0.929 . S
C268 H262 0.930 . S
C268 C269 1.367 . S
C268 C276 1.378 . S
C269 C268 1.367 . S
C269 C277 1.433 . S
C270 H266 0.929 . S
C270 C272 1.378 . S
C270 C274 1.350 . S
C271 C274 1.463 . S
C271 C276 1.350 . S
C271 N279 1.427 . S
C272 H263 0.930 . S
C272 C270 1.378 . S
C272 C273 1.367 . S
C273 C272 1.367 . S
C273 C275 1.433 . S
C274 C270 1.350 . S
C274 C271 1.463 . S
C274 N278 1.427 . S
C275 H265 0.929 . S
C275 C273 1.433 . S
C275 N278 1.384 . S
C276 H267 0.929 . S
C276 C268 1.378 . S
C276 C271 1.350 . S
C277 H264 0.929 . S
C277 C269 1.433 . S
C277 N279 1.384 . S
N278 C274 1.427 . S
N278 C275 1.384 . S
N279 C271 1.427 . S
N279 C277 1.384 . S
H280 C286 0.930 . S
H281 C290 0.930 . S
H282 C295 0.929 . S
H283 C293 0.929 . S
H284 C288 0.929 . S
H285 C294 0.929 . S
C286 H280 0.930 . S
C286 C287 1.367 . S
C286 C294 1.378 . S
C287 C286 1.367 . S
C287 C295 1.433 . S
C288 H284 0.929 . S
C288 C290 1.378 . S
C288 C292 1.350 . S
C289 C292 1.463 . S
C289 C294 1.350 . S
C289 N297 1.427 . S
C290 H281 0.930 . S
C290 C288 1.378 . S
C290 C291 1.367 . S
C291 C290 1.367 . S
C291 C293 1.433 . S
C292 C288 1.350 . S
C292 C289 1.463 . S
C292 N296 1.427 . S
C293 H283 0.929 . S
C293 C291 1.433 . S
C293 N296 1.384 . S
C294 H285 0.929 . S
C294 C286 1.378 . S
C294 C289 1.350 . S
C295 H282 0.929 . S
C295 C287 1.433 . S
C295 N297 1.384 . S
N296 C292 1.427 . S
N296 C293 1.384 . S
N297 C289 1.427 . S
N297 C295 1.384 . S
H298 C304 0.930 . S
H299 C308 0.930 . S
H300 C313 0.929 . S
H301 C311 0.929 . S
H302 C306 0.929 . S
H303 C312 0.929 . S
C304 H298 0.930 . S
C304 C305 1.367 . S
C304 C312 1.378 . S
C305 C304 1.367 . S
C305 C313 1.433 . S
C306 H302 0.929 . S
C306 C308 1.378 . S
C306 C310 1.350 . S
C307 C310 1.463 . S
C307 C312 1.350 . S
C307 N315 1.427 . S
C308 H299 0.930 . S
C308 C306 1.378 . S
C308 C309 1.367 . S
C309 C308 1.367 . S
C309 C311 1.433 . S
C310 C306 1.350 . S
C310 C307 1.463 . S
C310 N314 1.427 . S
C311 H301 0.929 . S
C311 C309 1.433 . S
C311 N314 1.384 . S
C312 H303 0.929 . S
C312 C304 1.378 . S
C312 C307 1.350 . S
C313 H300 0.929 . S
C313 C305 1.433 . S
C313 N315 1.384 . S
N314 C310 1.427 . S
N314 C311 1.384 . S
N315 C307 1.427 . S
N315 C313 1.384 . S
H316 C322 0.930 . S
H317 C326 0.930 . S
H318 C331 0.929 . S
H319 C329 0.929 1_554 S
H320 C324 0.929 . S
H321 C330 0.929 . S
C322 H316 0.930 . S
C322 C323 1.367 . S
C322 C330 1.378 . S
C323 C322 1.367 . S
C323 C331 1.433 . S
C324 H320 0.929 . S
C324 C326 1.378 . S
C324 C328 1.350 . S
C325 C328 1.463 . S
C325 C330 1.350 . S
C325 N333 1.427 . S
C326 H317 0.930 . S
C326 C324 1.378 . S
C326 C327 1.367 . S
C327 C326 1.367 . S
C327 C329 1.433 . S
C328 C324 1.350 . S
C328 C325 1.463 . S
C328 N332 1.427 . S
C329 H319 0.929 1_556 S
C329 C327 1.433 . S
C329 N332 1.384 . S
C330 H321 0.929 . S
C330 C322 1.378 . S
C330 C325 1.350 . S
C331 H318 0.929 . S
C331 C323 1.433 . S
C331 N333 1.384 . S
N332 C328 1.427 . S
N332 C329 1.384 . S
N333 C325 1.427 . S
N333 C331 1.384 . S
H334 C340 0.930 . S
H335 C344 0.930 . S
H336 C349 0.929 . S
H337 C347 0.929 . S
H338 C342 0.929 . S
H339 C348 0.929 . S
C340 H334 0.930 . S
C340 C341 1.367 . S
C340 C348 1.378 . S
C341 C340 1.367 . S
C341 C349 1.433 . S
C342 H338 0.929 . S
C342 C344 1.378 . S
C342 C346 1.350 . S
C343 C346 1.463 . S
C343 C348 1.350 . S
C343 N351 1.427 . S
C344 H335 0.930 . S
C344 C342 1.378 . S
C344 C345 1.367 . S
C345 C344 1.367 . S
C345 C347 1.433 . S
C346 C342 1.350 . S
C346 C343 1.463 . S
C346 N350 1.427 . S
C347 H337 0.929 . S
C347 C345 1.433 . S
C347 N350 1.384 . S
C348 H339 0.929 . S
C348 C340 1.378 . S
C348 C343 1.350 . S
C349 H336 0.929 . S
C349 C341 1.433 . S
C349 N351 1.384 . S
N350 C346 1.427 . S
N350 C347 1.384 . S
N351 C343 1.427 . S
N351 C349 1.384 . S
H352 C358 0.930 . S
H353 C362 0.930 . S
H354 C367 0.929 . S
H355 C365 0.929 . S
H356 C360 0.929 . S
H357 C366 0.929 . S
C358 H352 0.930 . S
C358 C359 1.367 . S
C358 C366 1.378 . S
C359 C358 1.367 . S
C359 C367 1.433 . S
C360 H356 0.929 . S
C360 C362 1.378 . S
C360 C364 1.350 . S
C361 C364 1.463 . S
C361 C366 1.350 . S
C361 N369 1.427 . S
C362 H353 0.930 . S
C362 C360 1.378 . S
C362 C363 1.367 . S
C363 C362 1.367 . S
C363 C365 1.433 . S
C364 C360 1.350 . S
C364 C361 1.463 . S
C364 N368 1.427 . S
C365 H355 0.929 . S
C365 C363 1.433 . S
C365 N368 1.384 . S
C366 H357 0.929 . S
C366 C358 1.378 . S
C366 C361 1.350 . S
C367 H354 0.929 . S
C367 C359 1.433 . S
C367 N369 1.384 . S
N368 C364 1.427 . S
N368 C365 1.384 . S
N369 C361 1.427 . S
N369 C367 1.384 . S
H370 C376 0.930 . S
H371 C380 0.930 . S
H372 C385 0.929 . S
H373 C383 0.929 . S
H374 C378 0.929 . S
H375 C384 0.929 . S
C376 H370 0.930 . S
C376 C377 1.367 1_554 S
C376 C384 1.378 . S
C377 C376 1.367 1_556 S
C377 C385 1.433 . S
C378 H374 0.929 . S
C378 C380 1.378 . S
C378 C382 1.350 1_556 S
C379 C382 1.463 1_556 S
C379 C384 1.350 1_556 S
C379 N387 1.427 . S
C380 H371 0.930 . S
C380 C378 1.378 . S
C380 C381 1.367 1_556 S
C381 C380 1.367 1_554 S
C381 C383 1.433 . S
C382 C378 1.350 1_554 S
C382 C379 1.463 1_554 S
C382 N386 1.427 . S
C383 H373 0.929 . S
C383 C381 1.433 . S
C383 N386 1.384 . S
C384 H375 0.929 . S
C384 C376 1.378 . S
C384 C379 1.350 1_554 S
C385 H372 0.929 . S
C385 C377 1.433 . S
C385 N387 1.384 . S
N386 C382 1.427 . S
N386 C383 1.384 . S
N387 C379 1.427 . S
N387 C385 1.384 . S
H388 C394 0.930 . S
H389 C398 0.930 . S
H390 C403 0.929 . S
H391 C401 0.929 1_455 S
H392 C396 0.929 . S
H393 C402 0.929 . S
C394 H388 0.930 . S
C394 C395 1.367 . S
C394 C402 1.378 . S
C395 C394 1.367 . S
C395 C403 1.433 . S
C396 H392 0.929 . S
C396 C398 1.378 . S
C396 C400 1.350 . S
C397 C400 1.463 . S
C397 C402 1.350 . S
C397 N405 1.427 . S
C398 H389 0.930 . S
C398 C396 1.378 . S
C398 C399 1.367 . S
C399 C398 1.367 . S
C399 C401 1.433 . S
C400 C396 1.350 . S
C400 C397 1.463 . S
C400 N404 1.427 . S
C401 H391 0.929 1_655 S
C401 C399 1.433 . S
C401 N404 1.384 . S
C402 H393 0.929 . S
C402 C394 1.378 . S
C402 C397 1.350 . S
C403 H390 0.929 . S
C403 C395 1.433 . S
C403 N405 1.384 . S
N404 C400 1.427 . S
N404 C401 1.384 . S
N405 C397 1.427 . S
N405 C403 1.384 . S
H406 C412 0.930 . S
H407 C416 0.930 . S
H408 C421 0.929 . S
H409 C419 0.929 . S
H410 C414 0.929 . S
H411 C420 0.929 . S
C412 H406 0.930 . S
C412 C413 1.367 . S
C412 C420 1.378 . S
C413 C412 1.367 . S
C413 C421 1.433 . S
C414 H410 0.929 . S
C414 C416 1.378 . S
C414 C418 1.350 . S
C415 C418 1.463 . S
C415 C420 1.350 . S
C415 N423 1.427 . S
C416 H407 0.930 . S
C416 C414 1.378 . S
C416 C417 1.367 . S
C417 C416 1.367 . S
C417 C419 1.433 . S
C418 C414 1.350 . S
C418 C415 1.463 . S
C418 N422 1.427 . S
C419 H409 0.929 . S
C419 C417 1.433 . S
C419 N422 1.384 . S
C420 H411 0.929 . S
C420 C412 1.378 . S
C420 C415 1.350 . S
C421 H408 0.929 . S
C421 C413 1.433 . S
C421 N423 1.384 . S
N422 C418 1.427 . S
N422 C419 1.384 . S
N423 C415 1.427 . S
N423 C421 1.384 . S
H424 C430 0.930 . S
H425 C434 0.930 . S
H426 C439 0.929 . S
H427 C437 0.929 1_445 S
H428 C432 0.929 . S
H429 C438 0.929 . S
C430 H424 0.930 . S
C430 C431 1.367 . S
C430 C438 1.378 . S
C431 C430 1.367 . S
C431 C439 1.433 . S
C432 H428 0.929 . S
C432 C434 1.378 . S
C432 C436 1.350 . S
C433 C436 1.463 . S
C433 C438 1.350 . S
C433 N441 1.427 . S
C434 H425 0.930 . S
C434 C432 1.378 . S
C434 C435 1.367 . S
C435 C434 1.367 . S
C435 C437 1.433 . S
C436 C432 1.350 . S
C436 C433 1.463 . S
C436 N440 1.427 . S
C437 H427 0.929 1_665 S
C437 C435 1.433 . S
C437 N440 1.384 . S
C438 H429 0.929 . S
C438 C430 1.378 . S
C438 C433 1.350 . S
C439 H426 0.929 . S
C439 C431 1.433 . S
C439 N441 1.384 . S
N440 C436 1.427 . S
N440 C437 1.384 . S
N441 C433 1.427 . S
N441 C439 1.384 . S
H442 C448 0.930 . S
H443 C452 0.930 . S
H444 C457 0.929 . S
H445 C455 0.929 . S
H446 C450 0.929 . S
H447 C456 0.929 . S
C448 H442 0.930 . S
C448 C449 1.367 . S
C448 C456 1.378 . S
C449 C448 1.367 . S
C449 C457 1.433 . S
C450 H446 0.929 . S
C450 C452 1.378 . S
C450 C454 1.350 . S
C451 C454 1.463 . S
C451 C456 1.350 . S
C451 N459 1.427 . S
C452 H443 0.930 . S
C452 C450 1.378 . S
C452 C453 1.367 . S
C453 C452 1.367 . S
C453 C455 1.433 . S
C454 C450 1.350 . S
C454 C451 1.463 . S
C454 N458 1.427 . S
C455 H445 0.929 . S
C455 C453 1.433 . S
C455 N458 1.384 . S
C456 H447 0.929 . S
C456 C448 1.378 . S
C456 C451 1.350 . S
C457 H444 0.929 . S
C457 C449 1.433 . S
C457 N459 1.384 . S
N458 C454 1.427 . S
N458 C455 1.384 . S
N459 C451 1.427 . S
N459 C457 1.384 . S
H460 C466 0.930 . S
H461 C470 0.930 . S
H462 C475 0.929 . S
H463 C473 0.929 . S
H464 C468 0.929 . S
H465 C474 0.929 . S
C466 H460 0.930 . S
C466 C467 1.367 . S
C466 C474 1.378 . S
C467 C466 1.367 . S
C467 C475 1.433 . S
C468 H464 0.929 . S
C468 C470 1.378 . S
C468 C472 1.350 . S
C469 C472 1.463 . S
C469 C474 1.350 . S
C469 N477 1.427 . S
C470 H461 0.930 . S
C470 C468 1.378 . S
C470 C471 1.367 . S
C471 C470 1.367 . S
C471 C473 1.433 . S
C472 C468 1.350 . S
C472 C469 1.463 . S
C472 N476 1.427 . S
C473 H463 0.929 . S
C473 C471 1.433 . S
C473 N476 1.384 . S
C474 H465 0.929 . S
C474 C466 1.378 . S
C474 C469 1.350 . S
C475 H462 0.929 . S
C475 C467 1.433 . S
C475 N477 1.384 . S
N476 C472 1.427 . S
N476 C473 1.384 . S
N477 C469 1.427 . S
N477 C475 1.384 . S
H478 C484 0.930 . S
H479 C488 0.930 . S
H480 C493 0.929 . S
H481 C491 0.929 . S
H482 C486 0.929 . S
H483 C492 0.929 . S
C484 H478 0.930 . S
C484 C485 1.367 . S
C484 C492 1.378 . S
C485 C484 1.367 . S
C485 C493 1.433 . S
C486 H482 0.929 . S
C486 C488 1.378 . S
C486 C490 1.350 . S
C487 C490 1.463 . S
C487 C492 1.350 . S
C487 N495 1.427 . S
C488 H479 0.930 . S
C488 C486 1.378 . S
C488 C489 1.367 . S
C489 C488 1.367 . S
C489 C491 1.433 . S
C490 C486 1.350 . S
C490 C487 1.463 . S
C490 N494 1.427 . S
C491 H481 0.929 . S
C491 C489 1.433 . S
C491 N494 1.384 . S
C492 H483 0.929 . S
C492 C484 1.378 . S
C492 C487 1.350 . S
C493 H480 0.929 . S
C493 C485 1.433 . S
C493 N495 1.384 . S
N494 C490 1.427 . S
N494 C491 1.384 . S
N495 C487 1.427 . S
N495 C493 1.384 . S
H496 C502 0.930 . S
H497 C506 0.930 . S
H498 C511 0.929 . S
H499 C509 0.929 . S
H500 C504 0.929 . S
H501 C510 0.929 . S
C502 H496 0.930 . S
C502 C503 1.367 1_554 S
C502 C510 1.378 . S
C503 C502 1.367 1_556 S
C503 C511 1.433 . S
C504 H500 0.929 . S
C504 C506 1.378 . S
C504 C508 1.348 1_556 S
C505 C508 1.462 1_556 S
C505 C510 1.350 1_556 S
C505 N513 1.427 . S
C506 H497 0.930 . S
C506 C504 1.378 . S
C506 C507 1.367 1_556 S
C507 C506 1.367 1_554 S
C507 C509 1.433 1_565 S
C508 C504 1.348 1_554 S
C508 C505 1.462 1_554 S
C508 N512 1.431 . S
C509 H499 0.929 . S
C509 C507 1.433 1_545 S
C509 N512 1.384 1_545 S
C510 H501 0.929 . S
C510 C502 1.378 . S
C510 C505 1.350 1_554 S
C511 H498 0.929 . S
C511 C503 1.433 . S
C511 N513 1.384 . S
N512 C508 1.431 . S
N512 C509 1.384 1_565 S
N513 C505 1.427 . S
N513 C511 1.384 . S
H514 C520 0.930 . S
H515 C524 0.930 . S
H516 C529 0.929 . S
H517 C527 0.929 . S
H518 C522 0.929 . S
H519 C528 0.929 . S
C520 H514 0.930 . S
C520 C521 1.367 . S
C520 C528 1.378 . S
C521 C520 1.367 . S
C521 C529 1.433 . S
C522 H518 0.929 . S
C522 C524 1.378 . S
C522 C526 1.350 . S
C523 C526 1.463 . S
C523 C528 1.350 . S
C523 N531 1.427 . S
C524 H515 0.930 . S
C524 C522 1.378 . S
C524 C525 1.367 . S
C525 C524 1.367 . S
C525 C527 1.433 . S
C526 C522 1.350 . S
C526 C523 1.463 . S
C526 N530 1.427 . S
C527 H517 0.929 . S
C527 C525 1.433 . S
C527 N530 1.384 . S
C528 H519 0.929 . S
C528 C520 1.378 . S
C528 C523 1.350 . S
C529 H516 0.929 . S
C529 C521 1.433 . S
C529 N531 1.384 . S
N530 C526 1.427 . S
N530 C527 1.384 . S
N531 C523 1.427 . S
N531 C529 1.384 . S
H532 C538 0.930 . S
H533 C542 0.930 . S
H534 C547 0.929 . S
H535 C545 0.929 . S
H536 C540 0.929 . S
H537 C546 0.929 . S
C538 H532 0.930 . S
C538 C539 1.367 . S
C538 C546 1.378 . S
C539 C538 1.367 . S
C539 C547 1.433 . S
C540 H536 0.929 . S
C540 C542 1.378 . S
C540 C544 1.350 . S
C541 C544 1.463 . S
C541 C546 1.350 . S
C541 N549 1.427 . S
C542 H533 0.930 . S
C542 C540 1.378 . S
C542 C543 1.367 . S
C543 C542 1.367 . S
C543 C545 1.433 . S
C544 C540 1.350 . S
C544 C541 1.463 . S
C544 N548 1.427 . S
C545 H535 0.929 . S
C545 C543 1.433 . S
C545 N548 1.384 . S
C546 H537 0.929 . S
C546 C538 1.378 . S
C546 C541 1.350 . S
C547 H534 0.929 . S
C547 C539 1.433 . S
C547 N549 1.384 . S
N548 C544 1.427 . S
N548 C545 1.384 . S
N549 C541 1.427 . S
N549 C547 1.384 . S
H550 C556 0.930 . S
H551 C560 0.930 . S
H552 C565 0.929 . S
H553 C563 0.929 . S
H554 C558 0.929 . S
H555 C564 0.929 . S
C556 H550 0.930 . S
C556 C557 1.367 . S
C556 C564 1.378 . S
C557 C556 1.367 . S
C557 C565 1.433 . S
C558 H554 0.929 . S
C558 C560 1.378 . S
C558 C562 1.350 . S
C559 C562 1.463 . S
C559 C564 1.350 . S
C559 N567 1.427 . S
C560 H551 0.930 . S
C560 C558 1.378 . S
C560 C561 1.367 . S
C561 C560 1.367 . S
C561 C563 1.433 . S
C562 C558 1.350 . S
C562 C559 1.463 . S
C562 N566 1.427 . S
C563 H553 0.929 . S
C563 C561 1.433 . S
C563 N566 1.384 . S
C564 H555 0.929 . S
C564 C556 1.378 . S
C564 C559 1.350 . S
C565 H552 0.929 . S
C565 C557 1.433 . S
C565 N567 1.384 . S
N566 C562 1.427 . S
N566 C563 1.384 . S
N567 C559 1.427 . S
N567 C565 1.384 . S
H568 C574 0.930 . S
H569 C578 0.930 . S
H570 C583 0.929 . S
H571 C581 0.929 . S
H572 C576 0.929 . S
H573 C582 0.929 . S
C574 H568 0.930 . S
C574 C575 1.367 . S
C574 C582 1.378 . S
C575 C574 1.367 . S
C575 C583 1.433 1_556 S
C576 H572 0.929 . S
C576 C578 1.378 . S
C576 C580 1.350 1_554 S
C577 C580 1.463 . S
C577 C582 1.350 . S
C577 N585 1.427 1_556 S
C578 H569 0.930 . S
C578 C576 1.378 . S
C578 C579 1.367 1_554 S
C579 C578 1.367 1_556 S
C579 C581 1.433 1_655 S
C580 C576 1.350 1_556 S
C580 C577 1.463 . S
C580 N584 1.427 . S
C581 H571 0.929 . S
C581 C579 1.433 1_455 S
C581 N584 1.384 1_455 S
C582 H573 0.929 . S
C582 C574 1.378 . S
C582 C577 1.350 . S
C583 H570 0.929 . S
C583 C575 1.433 1_554 S
C583 N585 1.384 . S
N584 C580 1.427 . S
N584 C581 1.384 1_655 S
N585 C577 1.427 1_554 S
N585 C583 1.384 . S
H586 C592 0.930 . S
H587 C596 0.930 . S
H588 C601 0.929 . S
H589 C599 0.929 . S
H590 C594 0.929 . S
H591 C600 0.929 . S
C592 H586 0.930 . S
C592 C593 1.367 . S
C592 C600 1.378 . S
C593 C592 1.367 . S
C593 C601 1.433 . S
C594 H590 0.929 . S
C594 C596 1.378 . S
C594 C598 1.350 . S
C595 C598 1.463 . S
C595 C600 1.350 . S
C595 N603 1.427 . S
C596 H587 0.930 . S
C596 C594 1.378 . S
C596 C597 1.367 . S
C597 C596 1.367 . S
C597 C599 1.433 . S
C598 C594 1.350 . S
C598 C595 1.463 . S
C598 N602 1.427 . S
C599 H589 0.929 . S
C599 C597 1.433 . S
C599 N602 1.384 . S
C600 H591 0.929 . S
C600 C592 1.378 . S
C600 C595 1.350 . S
C601 H588 0.929 . S
C601 C593 1.433 . S
C601 N603 1.384 . S
N602 C598 1.427 . S
N602 C599 1.384 . S
N603 C595 1.427 . S
N603 C601 1.384 . S
H604 C610 0.930 . S
H605 C614 0.930 . S
H606 C619 0.929 . S
H607 C617 0.929 . S
H608 C612 0.929 . S
H609 C618 0.929 . S
C610 H604 0.930 . S
C610 C611 1.367 . S
C610 C618 1.378 . S
C611 C610 1.367 . S
C611 C619 1.433 . S
C612 H608 0.929 . S
C612 C614 1.378 . S
C612 C616 1.350 . S
C613 C616 1.463 . S
C613 C618 1.350 . S
C613 N621 1.427 . S
C614 H605 0.930 . S
C614 C612 1.378 . S
C614 C615 1.367 . S
C615 C614 1.367 . S
C615 C617 1.433 . S
C616 C612 1.350 . S
C616 C613 1.463 . S
C616 N620 1.427 . S
C617 H607 0.929 . S
C617 C615 1.433 . S
C617 N620 1.384 . S
C618 H609 0.929 . S
C618 C610 1.378 . S
C618 C613 1.350 . S
C619 H606 0.929 . S
C619 C611 1.433 . S
C619 N621 1.384 . S
N620 C616 1.427 . S
N620 C617 1.384 . S
N621 C613 1.427 . S
N621 C619 1.384 . S
H622 C628 0.930 . S
H623 C632 0.930 . S
H624 C637 0.929 . S
H625 C635 0.929 . S
H626 C630 0.929 . S
H627 C636 0.929 . S
C628 H622 0.930 . S
C628 C629 1.367 . S
C628 C636 1.378 . S
C629 C628 1.367 . S
C629 C637 1.433 . S
C630 H626 0.929 . S
C630 C632 1.378 . S
C630 C634 1.350 . S
C631 C634 1.463 . S
C631 C636 1.350 . S
C631 N639 1.427 . S
C632 H623 0.930 . S
C632 C630 1.378 . S
C632 C633 1.367 . S
C633 C632 1.367 . S
C633 C635 1.433 . S
C634 C630 1.350 . S
C634 C631 1.463 . S
C634 N638 1.427 . S
C635 H625 0.929 . S
C635 C633 1.433 . S
C635 N638 1.384 . S
C636 H627 0.929 . S
C636 C628 1.378 . S
C636 C631 1.350 . S
C637 H624 0.929 . S
C637 C629 1.433 . S
C637 N639 1.384 . S
N638 C634 1.427 . S
N638 C635 1.384 . S
N639 C631 1.427 . S
N639 C637 1.384 . S
C215 C5 2.360 . S
C219 C104 2.495 . S
C233 C18 1.107 . S
C237 N124 1.159 . S
C255 C158 1.766 . S
C251 C30 1.724 . S
C269 C41 1.118 . S
C273 N192 1.056 . S
C291 C145 2.623 . S
C287 C7 2.559 . S
C309 N102 1.336 . S
C305 C16 1.114 . S
C327 C179 2.059 1_556 S
C323 C29 1.944 . S
C345 N154 0.738 . S
C341 C38 0.749 . S
C359 C8 1.929 . S
C363 C194 1.929 . S
C381 C128 1.845 . S
C377 C27 1.550 . S
C395 C40 1.395 . S
C399 C89 1.390 . S
C413 C19 1.036 . S
C417 C175 1.057 . S
C435 C115 2.232 . S
C431 C51 2.151 . S
C449 C62 1.182 . S
C453 N132 1.252 . S
C467 C74 1.815 . S
C471 C149 1.863 . S
C485 C84 1.096 . S
C489 N184 1.150 . S
C503 C49 2.496 . S
C507 C134 2.652 1_565 S
C525 N94 1.098 . S
C521 C63 1.098 . S
C543 C188 1.887 . S
C539 C71 1.570 . S
C561 N162 0.798 . S
C557 C85 0.779 . S
C575 C52 1.861 . S
C579 C205 1.860 1_656 S
C597 C119 1.939 . S
C593 C73 1.804 . S
C615 C98 1.237 . S
C611 C82 0.984 . S
C629 C60 1.280 . S
C633 C164 1.603 . S
