# Generated by pormake.
# Topology ssb, (4,4)-cn, num edge types: 1
# Building blocks:
#     Node 0, Type 0, BuildingBlock: ESEHIV_clean_sbu_0, # of connection points: 4
#     Node 1, Type 0, BuildingBlock: ESEHIV_clean_sbu_0, # of connection points: 4
#     Node 2, Type 0, BuildingBlock: ESEHIV_clean_sbu_0, # of connection points: 4
#     Node 3, Type 0, BuildingBlock: ESEHIV_clean_sbu_0, # of connection points: 4
#     Node 4, Type 0, BuildingBlock: ESEHIV_clean_sbu_0, # of connection points: 4
#     Node 5, Type 0, BuildingBlock: ESEHIV_clean_sbu_0, # of connection points: 4
#     Node 6, Type 0, BuildingBlock: ESEHIV_clean_sbu_0, # of connection points: 4
#     Node 7, Type 0, BuildingBlock: ESEHIV_clean_sbu_0, # of connection points: 4
#     Node 8, Type 1, BuildingBlock: KOZSID_clean_sbu_0, # of connection points: 4
#     Node 9, Type 1, BuildingBlock: KOZSID_clean_sbu_0, # of connection points: 4
#     Node 10, Type 1, BuildingBlock: KOZSID_clean_sbu_0, # of connection points: 4
#     Node 11, Type 1, BuildingBlock: KOZSID_clean_sbu_0, # of connection points: 4
#     Node 12, Type 1, BuildingBlock: KOZSID_clean_sbu_0, # of connection points: 4
#     Node 13, Type 1, BuildingBlock: KOZSID_clean_sbu_0, # of connection points: 4
#     Node 14, Type 1, BuildingBlock: KOZSID_clean_sbu_0, # of connection points: 4
#     Node 15, Type 1, BuildingBlock: KOZSID_clean_sbu_0, # of connection points: 4
#     Edge 16, Type (0, 1), BuildingBlock: OJICUG_clean_linker_0, # of connection points: 2
#     Edge 17, Type (0, 1), BuildingBlock: OJICUG_clean_linker_0, # of connection points: 2
#     Edge 18, Type (0, 1), BuildingBlock: OJICUG_clean_linker_0, # of connection points: 2
#     Edge 19, Type (0, 1), BuildingBlock: OJICUG_clean_linker_0, # of connection points: 2
#     Edge 20, Type (0, 1), BuildingBlock: OJICUG_clean_linker_0, # of connection points: 2
#     Edge 21, Type (0, 1), BuildingBlock: OJICUG_clean_linker_0, # of connection points: 2
#     Edge 22, Type (0, 1), BuildingBlock: OJICUG_clean_linker_0, # of connection points: 2
#     Edge 23, Type (0, 1), BuildingBlock: OJICUG_clean_linker_0, # of connection points: 2
#     Edge 24, Type (0, 1), BuildingBlock: OJICUG_clean_linker_0, # of connection points: 2
#     Edge 25, Type (0, 1), BuildingBlock: OJICUG_clean_linker_0, # of connection points: 2
#     Edge 26, Type (0, 1), BuildingBlock: OJICUG_clean_linker_0, # of connection points: 2
#     Edge 27, Type (0, 1), BuildingBlock: OJICUG_clean_linker_0, # of connection points: 2
#     Edge 28, Type (0, 1), BuildingBlock: OJICUG_clean_linker_0, # of connection points: 2
#     Edge 29, Type (0, 1), BuildingBlock: OJICUG_clean_linker_0, # of connection points: 2
#     Edge 30, Type (0, 1), BuildingBlock: OJICUG_clean_linker_0, # of connection points: 2
#     Edge 31, Type (0, 1), BuildingBlock: OJICUG_clean_linker_0, # of connection points: 2
#     Edge 32, Type (0, 1), BuildingBlock: OJICUG_clean_linker_0, # of connection points: 2
#     Edge 33, Type (0, 1), BuildingBlock: OJICUG_clean_linker_0, # of connection points: 2
#     Edge 34, Type (0, 1), BuildingBlock: OJICUG_clean_linker_0, # of connection points: 2
#     Edge 35, Type (0, 1), BuildingBlock: OJICUG_clean_linker_0, # of connection points: 2
#     Edge 36, Type (0, 1), BuildingBlock: OJICUG_clean_linker_0, # of connection points: 2
#     Edge 37, Type (0, 1), BuildingBlock: OJICUG_clean_linker_0, # of connection points: 2
#     Edge 38, Type (0, 1), BuildingBlock: OJICUG_clean_linker_0, # of connection points: 2
#     Edge 39, Type (0, 1), BuildingBlock: OJICUG_clean_linker_0, # of connection points: 2
#     Edge 40, Type (0, 1), BuildingBlock: OJICUG_clean_linker_0, # of connection points: 2
#     Edge 41, Type (0, 1), BuildingBlock: OJICUG_clean_linker_0, # of connection points: 2
#     Edge 42, Type (0, 1), BuildingBlock: OJICUG_clean_linker_0, # of connection points: 2
#     Edge 43, Type (0, 1), BuildingBlock: OJICUG_clean_linker_0, # of connection points: 2
#     Edge 44, Type (0, 1), BuildingBlock: OJICUG_clean_linker_0, # of connection points: 2
#     Edge 45, Type (0, 1), BuildingBlock: OJICUG_clean_linker_0, # of connection points: 2
#     Edge 46, Type (0, 1), BuildingBlock: OJICUG_clean_linker_0, # of connection points: 2
#     Edge 47, Type (0, 1), BuildingBlock: OJICUG_clean_linker_0, # of connection points: 2
# Relax obj value: 0.007
# Max RMSD: 0.118
# Mean RMSD: 0.060
data_MOF--net-ssb--node1-ESEHIV_clean_sbu_0--node2-KOZSID_clean_sbu_0--edge1-OJICUG_clean_linker_0
_symmetry_space_group_name_H-M    P1
_symmetry_Int_Tables_number       1
_symmetry_cell_setting            triclinic
loop_
_symmetry_equiv_pos_as_xyz
'x, y, z'
_cell_length_a     42.252781
_cell_length_b     42.100607
_cell_length_c     30.841353
_cell_angle_alpha  92.905402
_cell_angle_beta   95.947637
_cell_angle_gamma 90.057655
loop_
_atom_site_label
_atom_site_type_symbol
_atom_site_fract_x
_atom_site_fract_y
_atom_site_fract_z
_atom_type_partial_charge
Cu0 Cu 0.29862 0.2626 0.29553 0.0
N1 N 0.29254 0.21736 0.30017 0.0
N2 N 0.29251 0.16938 0.33123 0.0
C3 C 0.29873 0.20117 0.33733 0.0
C4 C 0.28175 0.16566 0.28839 0.0
C5 C 0.28166 0.19491 0.26961 0.0
O6 O 0.27623 0.28034 0.34454 0.0
C7 C 0.35329 0.2534 0.2582 0.0
O8 O 0.33205 0.23506 0.23495 0.0
H9 H 0.308 0.21258 0.36828 0.0
H10 H 0.2742 0.19938 0.23588 0.0
N11 N 0.28107 0.28383 0.24464 0.0
N12 N 0.27392 0.32294 0.19612 0.0
C13 C 0.28884 0.31392 0.23488 0.0
C14 C 0.26056 0.27335 0.21068 0.0
C15 C 0.25611 0.29711 0.18114 0.0
C16 C 0.24681 0.27203 0.33892 0.0
O17 O 0.23665 0.25649 0.30207 0.0
H18 H 0.30529 0.32888 0.25607 0.0
H19 H 0.24975 0.24995 0.20729 0.0
O20 O 0.34463 0.26894 0.29179 0.0
H21 H 0.27396 0.14339 0.27161 0.0
H22 H 0.24116 0.295 0.15048 0.0
Cu23 Cu 0.80471 0.29738 0.29005 0.0
N24 N 0.78069 0.28282 0.23792 0.0
N25 N 0.73722 0.2763 0.18941 0.0
C26 C 0.74939 0.28903 0.22884 0.0
C27 C 0.76214 0.26146 0.1731 0.0
C28 C 0.78883 0.26549 0.20301 0.0
O29 O 0.79344 0.34214 0.29507 0.0
C30 C 0.80337 0.24227 0.33052 0.0
O31 O 0.81742 0.2346 0.29542 0.0
H32 H 0.73597 0.30309 0.25081 0.0
H33 H 0.81239 0.25633 0.19958 0.0
N34 N 0.84939 0.29399 0.2917 0.0
N35 N 0.89998 0.29312 0.32264 0.0
C36 C 0.86884 0.29341 0.32929 0.0
C37 C 0.86886 0.29379 0.25984 0.0
C38 C 0.90005 0.29312 0.2788 0.0
C39 C 0.81394 0.36459 0.3004 0.0
O40 O 0.84303 0.35851 0.31702 0.0
H41 H 0.8601 0.2937 0.36107 0.0
H42 H 0.86102 0.29486 0.22543 0.0
O43 O 0.79339 0.27065 0.33573 0.0
H44 H 0.76121 0.24818 0.14202 0.0
H45 H 0.92111 0.29368 0.26163 0.0
Cu46 Cu 0.78083 0.79389 0.29147 0.0
N47 N 0.7967 0.76934 0.24386 0.0
N48 N 0.80304 0.72708 0.19648 0.0
C49 C 0.78906 0.7384 0.23204 0.0
C50 C 0.82022 0.7522 0.18588 0.0
C51 C 0.81627 0.77788 0.21469 0.0
O52 O 0.73418 0.78949 0.27713 0.0
C53 C 0.83408 0.78122 0.34479 0.0
O54 O 0.8446 0.79245 0.30996 0.0
H55 H 0.77309 0.72464 0.24905 0.0
H56 H 0.82704 0.80115 0.21433 0.0
N57 N 0.7888 0.83896 0.29917 0.0
N58 N 0.79091 0.88869 0.3323 0.0
C59 C 0.78371 0.85734 0.33545 0.0
C60 C 0.79965 0.85942 0.27201 0.0
C61 C 0.80094 0.88968 0.29203 0.0
C62 C 0.72571 0.80084 0.23988 0.0
O63 O 0.74783 0.81431 0.21995 0.0
H64 H 0.77491 0.84762 0.36373 0.0
H65 H 0.80597 0.85295 0.23966 0.0
O66 O 0.80391 0.77811 0.34519 0.0
H67 H 0.83507 0.75222 0.15935 0.0
H68 H 0.80853 0.91079 0.27733 0.0
Cu69 Cu 0.25053 0.76844 0.25135 0.0
N70 N 0.27084 0.78729 0.20703 0.0
N71 N 0.31276 0.79955 0.17123 0.0
C72 C 0.3027 0.78577 0.20613 0.0
C73 C 0.2858 0.81033 0.14929 0.0
C74 C 0.26004 0.8027 0.17134 0.0
O75 O 0.2581 0.72316 0.24084 0.0
C76 C 0.26073 0.8198 0.30253 0.0
O77 O 0.24472 0.82872 0.26639 0.0
H78 H 0.31814 0.77465 0.23105 0.0
H79 H 0.23528 0.80767 0.16169 0.0
N80 N 0.2063 0.77426 0.25501 0.0
N81 N 0.16179 0.77901 0.28955 0.0
C82 C 0.19317 0.77173 0.29289 0.0
C83 C 0.18238 0.78348 0.22627 0.0
C84 C 0.15499 0.78635 0.24737 0.0
C85 C 0.24557 0.71395 0.20282 0.0
O86 O 0.22782 0.73418 0.18024 0.0
H87 H 0.20696 0.76566 0.32282 0.0
H88 H 0.18471 0.78833 0.19265 0.0
O89 O 0.269 0.7907 0.30467 0.0
H90 H 0.28453 0.82228 0.11893 0.0
H91 H 0.13194 0.79347 0.23255 0.0
Cu92 Cu 0.28298 0.80024 0.78888 0.0
N93 N 0.3051 0.81722 0.84109 0.0
N94 N 0.34774 0.82303 0.89113 0.0
C95 C 0.33713 0.81982 0.84811 0.0
C96 C 0.32101 0.82335 0.91177 0.0
C97 C 0.29491 0.81955 0.88099 0.0
O98 O 0.28411 0.75304 0.7985 0.0
C99 C 0.28625 0.83171 0.70551 0.0
O100 O 0.25872 0.81791 0.69307 0.0
H101 H 0.35235 0.81671 0.82213 0.0
H102 H 0.27054 0.81588 0.8875 0.0
N103 N 0.23918 0.81063 0.78363 0.0
N104 N 0.18804 0.81204 0.75453 0.0
C105 C 0.21636 0.79691 0.75459 0.0
C106 C 0.22466 0.83506 0.80312 0.0
C107 C 0.19322 0.8359 0.78546 0.0
C108 C 0.30723 0.73841 0.81934 0.0
O109 O 0.33538 0.75208 0.82475 0.0
H110 H 0.22084 0.77685 0.73278 0.0
H111 H 0.23643 0.85191 0.82717 0.0
O112 O 0.30168 0.8237 0.74149 0.0
H113 H 0.32031 0.82361 0.94676 0.0
H114 H 0.176 0.85374 0.7933 0.0
Cu115 Cu 0.31175 0.30422 0.76951 0.0
N116 N 0.31948 0.34771 0.77067 0.0
N117 N 0.32253 0.39678 0.80157 0.0
C118 C 0.31676 0.36589 0.80699 0.0
C119 C 0.32897 0.39824 0.75972 0.0
C120 C 0.32725 0.36768 0.74066 0.0
O121 O 0.33458 0.29076 0.825 0.0
C122 C 0.25514 0.30784 0.71808 0.0
O123 O 0.27621 0.3192 0.69437 0.0
H124 H 0.30987 0.3565 0.83669 0.0
H125 H 0.33107 0.36063 0.7074 0.0
N126 N 0.32947 0.28114 0.72491 0.0
N127 N 0.33818 0.23786 0.68341 0.0
C128 C 0.31933 0.25172 0.71128 0.0
C129 C 0.3555 0.28634 0.70438 0.0
C130 C 0.36116 0.25934 0.67897 0.0
C131 C 0.36449 0.29694 0.8278 0.0
O132 O 0.37554 0.31082 0.79526 0.0
H133 H 0.29942 0.24004 0.72343 0.0
H134 H 0.37004 0.30764 0.70886 0.0
O135 O 0.26512 0.29882 0.75617 0.0
H136 H 0.33462 0.4197 0.74415 0.0
H137 H 0.38084 0.25551 0.6595 0.0
Cu138 Cu 0.7853 0.29704 0.78488 0.0
N139 N 0.80727 0.31623 0.74234 0.0
N140 N 0.84759 0.32462 0.70193 0.0
C141 C 0.83603 0.30631 0.7315 0.0
C142 C 0.82519 0.34698 0.69368 0.0
C143 C 0.80025 0.34159 0.71828 0.0
O144 O 0.79141 0.25013 0.77071 0.0
C145 C 0.79254 0.35122 0.84201 0.0
O146 O 0.77858 0.36208 0.80576 0.0
H147 H 0.84854 0.28632 0.74577 0.0
H148 H 0.7787 0.35538 0.7188 0.0
N149 N 0.7408 0.30236 0.78149 0.0
N150 N 0.69293 0.30223 0.80733 0.0
C151 C 0.72483 0.3026 0.81727 0.0
C152 C 0.71812 0.30195 0.74742 0.0
C153 C 0.68857 0.30179 0.76327 0.0
C154 C 0.78437 0.24153 0.73003 0.0
O155 O 0.77368 0.26336 0.70339 0.0
H156 H 0.73653 0.30146 0.85008 0.0
H157 H 0.72262 0.30077 0.7135 0.0
O158 O 0.79944 0.32133 0.84198 0.0
H159 H 0.82662 0.36574 0.67121 0.0
H160 H 0.6657 0.30098 0.74384 0.0
Cu161 Cu 0.7703 0.78082 0.78661 0.0
N162 N 0.76421 0.73675 0.78087 0.0
N163 N 0.7687 0.68684 0.80214 0.0
C164 C 0.7743 0.71788 0.81324 0.0
C165 C 0.7542 0.68617 0.76095 0.0
C166 C 0.75157 0.71706 0.7478 0.0
O167 O 0.74899 0.79431 0.8391 0.0
C168 C 0.82383 0.77526 0.7447 0.0
O169 O 0.8013 0.76106 0.71808 0.0
H170 H 0.7853 0.72703 0.84463 0.0
H171 H 0.7417 0.72443 0.7162 0.0
N172 N 0.7509 0.80321 0.74059 0.0
N173 N 0.74597 0.84404 0.69686 0.0
C174 C 0.76085 0.83261 0.73356 0.0
C175 C 0.72851 0.79556 0.70745 0.0
C176 C 0.72538 0.82081 0.68036 0.0
C177 C 0.71938 0.78663 0.83418 0.0
O178 O 0.70814 0.77286 0.79653 0.0
H179 H 0.77904 0.84509 0.75516 0.0
H180 H 0.71577 0.77319 0.70278 0.0
O181 O 0.81634 0.7873 0.78134 0.0
H182 H 0.74654 0.66493 0.74143 0.0
H183 H 0.70977 0.82152 0.65032 0.0
C184 C 0.10933 0.33268 0.62156 0.0
C185 C 0.11948 0.36254 0.63844 0.0
C186 C 0.10282 0.38416 0.61365 0.0
C187 C 0.08336 0.36635 0.58329 0.0
N188 N 0.08622 0.3347 0.58773 0.0
Co189 Co 0.06295 0.30034 0.54988 0.0
N190 N 0.04418 0.33145 0.50724 0.0
C191 C 0.04981 0.36315 0.50912 0.0
C192 C 0.03378 0.37853 0.47544 0.0
C193 C 0.01674 0.35531 0.45069 0.0
C194 C 0.02316 0.327 0.47096 0.0
N195 N 0.03865 0.26595 0.51299 0.0
C196 C 0.01728 0.26769 0.47703 0.0
C197 C 1.00409 0.23811 0.46381 0.0
C198 C 0.01733 0.21703 0.4925 0.0
C199 C 0.03765 0.23484 0.52165 0.0
N200 N 0.08323 0.26906 0.59132 0.0
C201 C 0.07835 0.23726 0.58909 0.0
C202 C 0.09761 0.22143 0.61923 0.0
C203 C 0.11658 0.24439 0.64144 0.0
C204 C 0.10757 0.27306 0.62369 0.0
N205 N 0.02532 0.30573 0.58466 0.0
C206 C 0.96814 0.31196 0.62661 0.0
C207 C 0.98645 0.28412 0.62852 0.0
C208 C 0.01439 0.28146 0.6074 0.0
C209 C 0.9799 0.33683 0.60415 0.0
C210 C 1.00827 0.33348 0.58448 0.0
N211 N 0.10011 0.29519 0.51502 0.0
C212 C 0.13447 0.26161 0.47441 0.0
C213 C 0.15212 0.28789 0.46395 0.0
C214 C 0.14367 0.31783 0.48073 0.0
C215 C 0.11777 0.32094 0.50578 0.0
C216 C 0.10893 0.26572 0.49978 0.0
H217 H 0.11225 0.34451 0.51698 0.0
H218 H 0.09645 0.24472 0.50651 0.0
H219 H 0.02655 0.25935 0.6098 0.0
H220 H 0.01552 0.35377 0.56874 0.0
C221 C 0.067 0.37809 0.54576 0.0
C222 C 0.12392 0.3032 0.63681 0.0
C223 C 1.00759 0.29686 0.45554 0.0
C224 C 0.0566 0.22294 0.55685 0.0
H225 H 0.13799 0.36801 0.66474 0.0
H226 H 0.10603 0.40972 0.61574 0.0
H227 H 0.03355 0.40379 0.47041 0.0
H228 H 1.00071 0.35891 0.42166 0.0
H229 H 0.98633 0.2324 0.43667 0.0
H230 H 0.01249 0.19177 0.49237 0.0
H231 H 0.09853 0.19608 0.62351 0.0
H232 H 0.13543 0.24027 0.66697 0.0
H233 H 0.97949 0.2642 0.6463 0.0
H234 H 0.96709 0.35893 0.60063 0.0
H235 H 0.14024 0.23779 0.4629 0.0
H236 H 0.15629 0.33899 0.47343 0.0
C237 C 0.7554 0.10735 0.60668 0.0
C238 C 0.72623 0.1206 0.61383 0.0
C239 C 0.70383 0.105 0.58533 0.0
C240 C 0.72043 0.08324 0.56218 0.0
N241 N 0.75209 0.08358 0.57458 0.0
Co242 Co 0.78486 0.05719 0.54619 0.0
N243 N 0.75209 0.03504 0.50285 0.0
C244 C 0.72029 0.03943 0.50082 0.0
C245 C 0.70328 0.01991 0.46987 0.0
C246 C 0.72545 1.00152 0.45141 0.0
C247 C 0.75493 0.01077 0.47224 0.0
N248 N 0.81785 0.03176 0.51688 0.0
C249 C 0.81492 1.00863 0.48396 0.0
C250 C 0.84444 0.99681 0.47542 0.0
C251 C 0.86665 0.01278 0.50365 0.0
C252 C 0.84966 0.03337 0.52797 0.0
N253 N 0.81759 0.07838 0.59047 0.0
C254 C 0.84908 0.07209 0.59485 0.0
C255 C 0.866 0.0901 0.62763 0.0
C256 C 0.84408 0.10929 0.64515 0.0
C257 C 0.81491 0.10204 0.62182 0.0
N258 N 0.77993 0.02223 0.58598 0.0
C259 C 0.76987 0.96543 0.62739 0.0
C260 C 0.80039 0.97441 0.61869 0.0
C261 C 0.80491 1.00292 0.59871 0.0
C262 C 0.74503 0.98665 0.61806 0.0
C263 C 0.75054 0.01464 0.59768 0.0
N264 N 0.78934 0.09199 0.5061 0.0
C265 C 0.82184 0.13045 0.47505 0.0
C266 C 0.7949 0.14387 0.45307 0.0
C267 C 0.76524 0.13069 0.45767 0.0
C268 C 0.76305 0.10479 0.48373 0.0
C269 C 0.81854 0.10479 0.50134 0.0
H270 H 0.73979 0.09556 0.4852 0.0
H271 H 0.83989 0.09578 0.51763 0.0
H272 H 0.82867 1.00831 0.59274 0.0
H273 H 0.73034 0.02924 0.59078 0.0
C274 C 0.70717 0.06205 0.52861 0.0
C275 C 0.78562 0.11898 0.63027 0.0
C276 C 0.78484 0.9957 0.46154 0.0
C277 C 0.86245 0.05168 0.5647 0.0
H278 H 0.72166 0.13986 0.63689 0.0
H279 H 0.67846 0.10932 0.58153 0.0
H280 H 0.67772 0.01894 0.46192 0.0
H281 H 0.72046 0.9832 0.42571 0.0
H282 H 0.84947 0.97782 0.45224 0.0
H283 H 0.89208 1.00884 0.5073 0.0
H284 H 0.89144 0.09004 0.63676 0.0
H285 H 0.84908 0.12708 0.67156 0.0
H286 H 0.82064 0.95908 0.62575 0.0
H287 H 0.72119 0.98156 0.62585 0.0
H288 H 0.84537 0.13989 0.47229 0.0
H289 H 0.7438 0.13985 0.44043 0.0
C290 C 0.06047 0.82187 0.612 0.0
C291 C 0.07256 0.85242 0.62144 0.0
C292 C 0.05654 0.87168 0.59231 0.0
C293 C 0.03564 0.85197 0.56668 0.0
N294 N 0.03714 0.82149 0.57803 0.0
Co295 Co 0.01185 0.7855 0.5472 0.0
N296 N 0.98155 0.8147 0.51539 0.0
C297 C 0.98653 0.8459 0.51094 0.0
C298 C 0.9619 0.86019 0.48692 0.0
C299 C 0.94003 0.83649 0.47513 0.0
C300 C 0.95257 0.8089 0.49274 0.0
N301 N 0.9865 0.74956 0.51639 0.0
C302 C 0.95708 0.74913 0.49375 0.0
C303 C 0.94851 0.7185 0.47807 0.0
C304 C 0.97355 0.69926 0.4906 0.0
C305 C 0.9959 0.71905 0.51338 0.0
N306 N 0.04232 0.7562 0.57875 0.0
C307 C 0.04529 0.7249 0.56868 0.0
C308 C 0.06804 0.71044 0.59578 0.0
C309 C 0.08064 0.73414 0.62442 0.0
C310 C 0.06502 0.76197 0.61288 0.0
N311 N 0.98427 0.78521 0.59519 0.0
C312 C 0.93905 0.78289 0.65669 0.0
C313 C 0.95539 0.75555 0.64353 0.0
C314 C 0.97748 0.75715 0.6128 0.0
C315 C 0.94748 0.81183 0.63999 0.0
C316 C 0.97018 0.81249 0.60966 0.0
N317 N 0.03933 0.78564 0.4988 0.0
C318 C 0.04549 0.78201 0.42144 0.0
C319 C 0.0788 0.78393 0.4297 0.0
C320 C 0.09169 0.78711 0.47357 0.0
C321 C 0.07174 0.78799 0.50731 0.0
C322 C 0.02633 0.78282 0.45617 0.0
H323 H 0.08276 0.79046 0.54038 0.0
H324 H 1.00093 0.78089 0.44834 0.0
H325 H 0.98838 0.73535 0.60244 0.0
H326 H 0.97553 0.83502 0.59688 0.0
C327 C 0.01235 0.86165 0.53467 0.0
C328 C 0.0744 0.7936 0.63266 0.0
C329 C 0.93769 0.77732 0.4833 0.0
C330 C 0.02367 0.70925 0.53743 0.0
H331 H 0.0916 0.85992 0.64602 0.0
H332 H 0.05958 0.89708 0.59034 0.0
H333 H 0.9597 0.88505 0.47976 0.0
H334 H 0.91764 0.83914 0.45525 0.0
H335 H 0.92655 0.71088 0.4592 0.0
H336 H 0.97486 0.67373 0.48492 0.0
H337 H 0.07421 0.68548 0.59548 0.0
H338 H 0.09948 0.73127 0.65044 0.0
H339 H 0.95072 0.73266 0.65612 0.0
H340 H 0.93572 0.83371 0.64874 0.0
H341 H 0.03417 0.77923 0.38833 0.0
H342 H 0.11715 0.78923 0.482 0.0
C343 C 0.3373 0.95954 0.59724 0.0
C344 C 0.36685 0.94645 0.60907 0.0
C345 C 0.38834 0.96216 0.58757 0.0
C346 C 0.37091 0.98391 0.56367 0.0
N347 N 0.33958 0.98342 0.56914 0.0
Co348 Co 0.30569 0.00956 0.53701 0.0
N349 N 0.33618 0.02798 0.49859 0.0
C350 C 0.36749 0.02112 0.49949 0.0
C351 C 0.38292 0.03777 0.4708 0.0
C352 C 0.36021 0.05664 0.45056 0.0
C353 C 0.33201 0.0505 0.46804 0.0
N354 N 0.27179 0.03618 0.50567 0.0
C355 C 0.2736 0.05859 0.4754 0.0
C356 C 0.24423 0.07242 0.46463 0.0
C357 C 0.22337 0.05901 0.48941 0.0
C358 C 0.24097 0.03769 0.5138 0.0
N359 N 0.27493 0.99042 0.57429 0.0
C360 C 0.24365 0.99737 0.57375 0.0
C361 C 0.22789 0.97964 0.60086 0.0
C362 C 0.2502 0.95949 0.61905 0.0
C363 C 0.27843 0.96591 0.60173 0.0
N364 N 0.31499 0.04593 0.58022 0.0
C365 C 0.32477 0.10669 0.62249 0.0
C366 C 0.29556 0.09078 0.62157 0.0
C367 C 0.29122 0.06071 0.60042 0.0
C368 C 0.34987 0.08997 0.60603 0.0
C369 C 0.34466 0.05962 0.58623 0.0
N370 N 0.29659 0.97354 0.49381 0.0
C371 C 0.25907 0.93748 0.45256 0.0
C372 C 0.28383 0.91938 0.43755 0.0
C373 C 0.31505 0.92894 0.451 0.0
C374 C 0.32084 0.95597 0.47873 0.0
C375 C 0.26593 0.96437 0.48025 0.0
H376 H 0.34515 0.96212 0.48753 0.0
H377 H 0.2461 0.97729 0.4905 0.0
H378 H 0.26813 0.05048 0.59966 0.0
H379 H 0.36479 0.04837 0.57441 0.0
C380 C 0.38219 1.00126 0.5307 0.0
C381 C 0.30752 0.94724 0.61142 0.0
C382 C 0.30244 0.06805 0.45622 0.0
C383 C 0.22946 0.01935 0.54538 0.0
H384 H 0.37223 0.92673 0.62968 0.0
H385 H 0.41342 0.95699 0.58736 0.0
H386 H 0.40798 0.03714 0.46628 0.0
H387 H 0.36419 0.07371 0.42658 0.0
H388 H 0.23854 0.09067 0.44164 0.0
H389 H 0.1984 0.06454 0.4901 0.0
H390 H 0.2029 0.98056 0.60579 0.0
H391 H 0.24597 0.94157 0.64176 0.0
H392 H 0.2757 0.1017 0.63604 0.0
H393 H 0.37324 0.10058 0.60639 0.0
H394 H 0.23443 0.93097 0.44297 0.0
H395 H 0.33498 0.9161 0.43937 0.0
C396 C 0.58557 0.82907 0.13254 0.0
C397 C 0.5963 0.85746 0.1539 0.0
C398 C 0.58155 0.88132 0.13134 0.0
C399 C 0.56252 0.86623 0.09781 0.0
N400 N 0.56384 0.83416 0.09795 0.0
Co401 Co 0.53986 0.80329 0.05494 0.0
N402 N 0.52037 0.83837 0.01975 0.0
C403 C 0.52732 0.86971 0.02562 0.0
C404 C 0.50901 0.88824 0.99764 0.0
C405 C 0.48861 0.86754 0.97323 0.0
C406 C 0.49558 0.83752 0.988 0.0
N407 N 0.51464 0.7725 0.01287 0.0
C408 C 0.48951 0.77796 0.98291 0.0
C409 C 0.4759 0.74973 0.9646 0.0
C410 C 0.49252 0.72564 0.98425 0.0
C411 C 0.51512 0.74041 0.01356 0.0
N412 N 0.56021 0.76811 0.0896 0.0
C413 C 0.55605 0.73654 0.0804 0.0
C414 C 0.57483 0.71799 0.10772 0.0
C415 C 0.59256 0.73892 0.13558 0.0
C416 C 0.58344 0.76919 0.12377 0.0
N417 N 0.50281 0.80468 0.09047 0.0
C418 C 0.44229 0.80483 0.12305 0.0
C419 C 0.45933 0.77662 0.11768 0.0
C420 C 0.48926 0.7771 0.10187 0.0
C421 C 0.45729 0.83324 0.11447 0.0
C422 C 0.48742 0.83267 0.09888 0.0
N423 N 0.57665 0.80176 0.0183 0.0
C424 C 0.60942 0.77186 0.9706 0.0
C425 C 0.62741 0.7988 0.96401 0.0
C426 C 0.62015 0.82717 0.98649 0.0
C427 C 0.59486 0.82815 0.01309 0.0
C428 C 0.58464 0.77381 0.99746 0.0
H429 H 0.59033 0.85063 0.02873 0.0
H430 H 0.57219 0.75224 1.00052 0.0
H431 H 0.50046 0.75465 0.09757 0.0
H432 H 0.49743 0.85508 0.09248 0.0
C433 C 0.54615 0.88133 0.06297 0.0
C434 C 0.59877 0.79816 0.14436 0.0
C435 C 0.47637 0.80937 0.97359 0.0
C436 C 0.5348 0.72512 0.04524 0.0
H437 H 0.6139 0.86055 0.18191 0.0
H438 H 0.58533 0.90665 0.13752 0.0
H439 H 0.50887 0.91393 0.99725 0.0
H440 H 0.46965 0.87393 0.94894 0.0
H441 H 0.45524 0.74674 0.94092 0.0
H442 H 0.48753 0.70041 0.97951 0.0
H443 H 0.57603 0.69229 0.10683 0.0
H444 H 0.61064 0.73259 0.16106 0.0
H445 H 0.44916 0.7539 0.12392 0.0
H446 H 0.44575 0.85591 0.11936 0.0
H447 H 0.61429 0.74909 0.95477 0.0
H448 H 0.63322 0.8488 0.98255 0.0
C449 C 0.24575 0.579 0.08436 0.0
C450 C 0.2141 0.58527 0.08964 0.0
C451 C 0.19632 0.56818 0.05707 0.0
C452 C 0.21804 0.55243 0.03398 0.0
N453 N 0.24862 0.55796 0.0502 0.0
Co454 Co 0.28767 0.54039 0.02612 0.0
N455 N 0.26165 0.51718 0.97631 0.0
C456 C 0.22954 0.5155 0.96953 0.0
C457 C 0.21838 0.49746 0.93293 0.0
C458 C 0.24495 0.48694 0.91518 0.0
C459 C 0.27091 0.49941 0.942 0.0
N460 N 0.32683 0.52368 1.00156 0.0
C461 C 0.33001 0.50611 0.96425 0.0
C462 C 0.36178 0.50109 0.95822 0.0
C463 C 0.3793 0.51574 0.99318 0.0
C464 C 0.35735 0.52901 0.01824 0.0
N465 N 0.3136 0.56323 0.07655 0.0
C466 C 0.34554 0.56222 0.08589 0.0
C467 C 0.35678 0.58076 0.12199 0.0
C468 C 0.33049 0.5947 0.13652 0.0
C469 C 0.30457 0.58369 0.10839 0.0
N470 N 0.28573 0.50124 0.0619 0.0
C471 C 0.28268 0.44359 0.10827 0.0
C472 C 0.31171 0.459 0.10416 0.0
C473 C 0.31269 0.48731 0.08129 0.0
C474 C 0.25526 0.45844 0.08922 0.0
C475 C 0.25727 0.48662 0.06667 0.0
N476 N 0.28953 0.57889 0.98972 0.0
C477 C 0.31947 0.62172 0.96195 0.0
C478 C 0.2936 0.63032 0.93229 0.0
C479 C 0.26534 0.61283 0.9335 0.0
C480 C 0.26377 0.58783 0.96216 0.0
C481 C 0.31701 0.59634 0.98977 0.0
H482 H 0.24145 0.57569 0.96105 0.0
H483 H 0.33779 0.59103 1.01098 0.0
H484 H 0.3357 0.4973 0.07939 0.0
H485 H 0.23525 0.49598 0.05316 0.0
C486 C 0.21053 0.5325 0.99681 0.0
C487 C 0.27212 0.59471 0.11163 0.0
C488 C 0.30383 0.49326 0.9339 0.0
C489 C 0.3646 0.54651 0.05756 0.0
H490 H 0.20488 0.60099 0.11415 0.0
H491 H 0.17064 0.56761 0.05065 0.0
H492 H 0.19385 0.49279 0.92038 0.0
H493 H 0.24512 0.47185 0.88576 0.0
H494 H 0.37131 0.48814 0.93132 0.0
H495 H 0.40498 0.51672 0.9995 0.0
H496 H 0.38132 0.58468 0.13514 0.0
H497 H 0.33066 0.61168 0.16402 0.0
H498 H 0.33393 0.44897 0.11771 0.0
H499 H 0.23191 0.44857 0.09183 0.0
H500 H 0.3418 0.63457 0.96419 0.0
H501 H 0.24437 0.61778 0.91173 0.0
C502 C 0.47603 0.31408 0.99382 0.0
C503 C 0.46337 0.3438 0.9854 0.0
C504 C 0.48235 0.36555 1.01017 0.0
C505 C 0.50557 0.34799 0.03206 0.0
N506 N 0.50253 0.31632 0.02296 0.0
Co507 Co 0.53193 0.28252 0.04708 0.0
N508 N 0.5598 0.31446 0.08361 0.0
C509 C 0.55411 0.34593 0.08894 0.0
C510 C 0.57768 0.36214 0.11498 0.0
C511 C 0.59989 0.33975 0.1267 0.0
C512 C 0.58858 0.31098 0.10712 0.0
N513 N 0.56225 0.24884 0.06929 0.0
C514 C 0.59131 0.25154 0.09271 0.0
C515 C 0.60524 0.22203 0.09872 0.0
C516 C 0.58469 0.19998 0.07755 0.0
C517 C 0.55946 0.21718 0.05992 0.0
N518 N 0.50344 0.25034 0.01196 0.0
C519 C 0.50648 0.21838 0.01194 0.0
C520 C 0.48277 0.20213 0.98624 0.0
C521 C 0.46322 0.22506 0.96894 0.0
C522 C 0.47625 0.25411 0.98503 0.0
N523 N 0.55808 0.28698 0.99735 0.0
C524 C 0.59983 0.29268 0.93174 0.0
C525 C 0.58556 0.2635 0.93831 0.0
C526 C 0.56507 0.26115 0.97114 0.0
C527 C 0.59189 0.31909 0.95774 0.0
C528 C 0.57095 0.31583 0.98966 0.0
N529 N 0.5056 0.27815 0.09727 0.0
C530 C 0.48153 0.24524 0.14763 0.0
C531 C 0.46325 0.2706 0.1624 0.0
C532 C 0.46809 0.30024 0.14546 0.0
C533 C 0.48928 0.3035 0.11369 0.0
C534 C 0.50211 0.24942 0.11542 0.0
H535 H 0.49142 0.32678 0.1024 0.0
H536 H 0.51453 0.2288 0.10538 0.0
H537 H 0.55554 0.2381 0.97533 0.0
H538 H 0.56583 0.33695 1.00821 0.0
C539 C 0.52923 0.36017 0.06361 0.0
C540 C 0.46184 0.2845 0.97353 0.0
C541 C 0.6068 0.28139 0.10963 0.0
C542 C 0.53296 0.20445 0.03408 0.0
H543 H 0.44236 0.34917 0.96392 0.0
H544 H 0.47929 0.39108 0.01247 0.0
H545 H 0.57935 0.38751 0.1226 0.0
H546 H 0.62238 0.34436 0.14616 0.0
H547 H 0.62807 0.21698 0.11624 0.0
H548 H 0.58797 0.17449 0.07477 0.0
H549 H 0.48022 0.17665 0.98036 0.0
H550 H 0.44181 0.22092 0.94688 0.0
H551 H 0.59094 0.2423 0.91912 0.0
H552 H 0.60178 0.34234 0.95345 0.0
H553 H 0.47976 0.22188 0.16036 0.0
H554 H 0.45475 0.32083 0.15535 0.0
C555 C 0.7675 0.5825 0.09343 0.0
C556 C 0.73778 0.59476 0.09985 0.0
C557 C 0.71577 0.57298 0.08131 0.0
C558 C 0.73309 0.54874 0.06428 0.0
N559 N 0.76491 0.55352 0.0711 0.0
Co560 Co 0.79821 0.52447 0.04866 0.0
N561 N 0.76573 0.49273 0.02027 0.0
C562 C 0.73398 0.49429 0.02254 0.0
C563 C 0.71737 0.46937 1.00052 0.0
C564 C 0.73981 0.4507 0.98313 0.0
C565 C 0.76904 0.46526 0.99549 0.0
N566 N 0.8315 0.49616 0.02482 0.0
C567 C 0.82882 0.46901 0.99844 0.0
C568 C 0.85843 0.45788 0.98929 0.0
C569 C 0.8805 0.47866 1.01006 0.0
C570 C 0.86328 0.50128 0.03072 0.0
N571 N 0.83081 0.55566 0.07801 0.0
C572 C 0.86273 0.55229 0.07979 0.0
C573 C 0.87949 0.57667 0.10277 0.0
C574 C 0.85699 0.59699 0.11648 0.0
C575 C 0.82756 0.584 0.10075 0.0
N576 N 0.80056 0.50051 0.10306 0.0
C577 C 0.80275 0.46349 0.17738 0.0
C578 C 0.83036 0.4701 0.15794 0.0
C579 C 0.82877 0.48862 0.12135 0.0
C580 C 0.77427 0.4767 0.15975 0.0
C581 C 0.77371 0.49483 0.12301 0.0
N582 N 0.79558 0.54836 0.99465 0.0
C583 C 0.82028 0.58081 0.94497 0.0
C584 C 0.79062 0.58766 0.92294 0.0
C585 C 0.76373 0.57315 0.9362 0.0
C586 C 0.76675 0.55364 0.97158 0.0
C587 C 0.82221 0.5612 0.98041 0.0
H588 H 0.74527 0.54373 0.9803 0.0
H589 H 0.8454 0.55722 0.99634 0.0
H590 H 0.85064 0.49249 0.10812 0.0
H591 H 0.75108 0.50364 0.11124 0.0
C592 C 0.72033 0.52081 0.04253 0.0
C593 C 0.79737 0.59966 0.10849 0.0
C594 C 0.79905 0.45249 0.98162 0.0
C595 C 0.87621 0.52714 0.05689 0.0
H596 H 0.73248 0.61724 0.116 0.0
H597 H 0.69014 0.57468 0.08022 0.0
H598 H 0.69187 0.46562 0.99666 0.0
H599 H 0.73512 0.42906 0.96303 0.0
H600 H 0.86355 0.43677 0.96979 0.0
H601 H 0.9061 0.47735 1.01024 0.0
H602 H 0.90507 0.57961 0.10827 0.0
H603 H 0.86176 0.619 0.13571 0.0
H604 H 0.85307 0.46025 0.16994 0.0
H605 H 0.75228 0.47291 0.17398 0.0
H606 H 0.84194 0.59087 0.93536 0.0
H607 H 0.74016 0.57776 0.92055 0.0
C608 C 0.22962 0.29743 0.40994 0.0
C609 C 0.22393 0.27671 0.37266 0.0
H610 H 0.21145 0.31749 0.46811 0.0
C611 C 0.19489 0.25973 0.36657 0.0
H612 H 0.25164 0.31088 0.41574 0.0
C613 C 0.17222 0.26328 0.3963 0.0
C614 C 0.17748 0.28409 0.43336 0.0
H615 H 0.18941 0.24342 0.3385 0.0
H616 H 0.15012 0.25003 0.38962 0.0
C617 C 0.2065 0.30128 0.4398 0.0
C618 C 0.77964 0.22084 0.39492 0.0
C619 C 0.80154 0.21833 0.36366 0.0
H620 H 0.76018 0.19893 0.44782 0.0
C621 C 0.82189 0.19191 0.36331 0.0
H622 H 0.7637 0.24094 0.39595 0.0
C623 C 0.82017 0.16828 0.39304 0.0
C624 C 0.79779 0.17024 0.42357 0.0
H625 H 0.83922 0.18936 0.33985 0.0
H626 H 0.83584 0.148 0.39135 0.0
C627 C 0.77757 0.1968 0.4244 0.0
C628 C 0.88902 0.76604 0.37307 0.0
C629 C 0.85813 0.77476 0.38219 0.0
H630 H 0.93789 0.76004 0.39762 0.0
C631 C 0.85285 0.78188 0.42594 0.0
H632 H 0.89403 0.76057 0.33976 0.0
C633 C 0.87839 0.78175 0.45935 0.0
C634 C 0.90942 0.77411 0.44956 0.0
H635 H 0.82952 0.78925 0.43397 0.0
H636 H 0.87414 0.7886 0.49257 0.0
C637 C 0.91423 0.76572 0.40617 0.0
C638 C 0.24825 0.87163 0.33788 0.0
C639 C 0.26619 0.84352 0.33941 0.0
H640 H 0.23995 0.91735 0.36712 0.0
C641 C 0.28918 0.83957 0.37491 0.0
H642 H 0.2301 0.8754 0.31118 0.0
C643 C 0.29476 0.86399 0.40754 0.0
C644 C 0.27711 0.89237 0.40522 0.0
H645 H 0.30327 0.81812 0.3769 0.0
H646 H 0.31291 0.86078 0.4344 0.0
C647 C 0.25362 0.89568 0.37027 0.0
C648 C 0.16113 0.79261 0.68235 0.0
C649 C 0.1594 0.80632 0.72467 0.0
H650 H 0.13592 0.77844 0.62022 0.0
C651 C 0.12923 0.8154 0.7366 0.0
H652 H 0.18384 0.78588 0.67153 0.0
C653 C 0.10169 0.8109 0.70712 0.0
C654 C 0.10358 0.79731 0.66492 0.0
H655 H 0.12687 0.82591 0.76884 0.0
H656 H 0.07888 0.8182 0.71719 0.0
C657 C 0.13365 0.78841 0.65282 0.0
C658 C 0.30595 0.19359 0.64776 0.0
C659 C 0.33551 0.20559 0.6662 0.0
H660 H 0.27958 0.15365 0.61805 0.0
C661 C 0.36169 0.18518 0.67052 0.0
H662 H 0.28551 0.2091 0.64416 0.0
C663 C 0.35818 0.15297 0.65731 0.0
C664 C 0.32854 0.14071 0.63848 0.0
H665 H 0.38455 0.19397 0.68548 0.0
H666 H 0.37866 0.13772 0.66258 0.0
C667 C 0.30257 0.16167 0.63348 0.0
C668 C 0.89615 0.34824 0.67761 0.0
C669 C 0.87778 0.32134 0.68375 0.0
H670 H 0.93911 0.36663 0.65763 0.0
C671 C 0.88944 0.29123 0.67186 0.0
H672 H 0.88804 0.37172 0.68707 0.0
C673 C 0.91844 0.28814 0.6534 0.0
C674 C 0.93716 0.31507 0.64721 0.0
H675 H 0.87568 0.27006 0.67586 0.0
H676 H 0.92571 0.26452 0.64326 0.0
C677 C 0.92552 0.34517 0.66026 0.0
C678 C 0.72966 0.88755 0.64818 0.0
C679 C 0.75202 0.87426 0.67891 0.0
H680 H 0.71792 0.92625 0.60731 0.0
C681 C 0.78048 0.89116 0.69218 0.0
H682 H 0.70747 0.87542 0.63725 0.0
C683 C 0.78617 0.9207 0.67579 0.0
C684 C 0.76375 0.93406 0.64525 0.0
H685 H 0.79868 0.88163 0.71508 0.0
H686 H 0.80806 0.93317 0.68749 0.0
C687 C 0.7355 0.91701 0.63145 0.0
C688 C 0.87656 0.80299 0.7368 0.0
C689 C 0.85626 0.77632 0.72958 0.0
H690 H 0.91871 0.82622 0.71974 0.0
C691 C 0.8648 0.75138 0.70105 0.0
H692 H 0.87048 0.82282 0.75806 0.0
C693 C 0.89184 0.75338 0.67885 0.0
C694 C 0.91172 0.78042 0.68428 0.0
H695 H 0.84971 0.7305 0.69445 0.0
H696 H 0.8962 0.73407 0.65574 0.0
C697 C 0.90395 0.80508 0.71424 0.0
C698 C 0.28138 0.86338 0.63739 0.0
C699 C 0.29614 0.8593 0.67998 0.0
H700 H 0.27375 0.89337 0.58283 0.0
C701 C 0.31686 0.88377 0.69875 0.0
H702 H 0.26518 0.8454 0.62154 0.0
C703 C 0.32151 0.91176 0.67632 0.0
C704 C 0.3059 0.91603 0.63424 0.0
H705 H 0.32836 0.88198 0.73157 0.0
H706 H 0.33649 0.93058 0.69257 0.0
C707 C 0.28624 0.89106 0.615 0.0
C708 C 0.21349 0.31414 0.65521 0.0
C709 C 0.22113 0.30587 0.69883 0.0
H710 H 0.17727 0.31958 0.60206 0.0
C711 C 0.19616 0.29647 0.72237 0.0
H712 H 0.23184 0.32149 0.63574 0.0
C713 C 0.16448 0.29555 0.70261 0.0
C714 C 0.15726 0.30377 0.65894 0.0
H715 H 0.20105 0.29007 0.75595 0.0
H716 H 0.1456 0.28855 0.72143 0.0
C717 C 0.18213 0.31311 0.63567 0.0
C718 C 0.7772 0.18084 0.72583 0.0
C719 C 0.78907 0.20875 0.70973 0.0
H720 H 0.76625 0.13076 0.71327 0.0
C721 C 0.80083 0.2062 0.66848 0.0
H722 H 0.7673 0.18188 0.75687 0.0
C723 C 0.80019 0.17719 0.64368 0.0
C724 C 0.78726 0.14959 0.65875 0.0
H725 H 0.80988 0.22712 0.65467 0.0
H726 H 0.80909 0.17652 0.61194 0.0
C727 C 0.7762 0.15164 0.70053 0.0
C728 C 0.92438 0.30747 0.39805 0.0
C729 C 0.92716 0.2943 0.35566 0.0
H730 H 0.94761 0.31873 0.46239 0.0
C731 C 0.95701 0.28239 0.3463 0.0
H732 H 0.90206 0.31735 0.40646 0.0
C733 C 0.98313 0.28332 0.37853 0.0
C734 C 0.98007 0.29632 0.42074 0.0
H735 H 0.96009 0.2719 0.31427 0.0
H736 H 1.00573 0.27374 0.37059 0.0
C737 C 0.95051 0.30852 0.43009 0.0
C738 C 0.77458 0.91206 0.40372 0.0
C739 C 0.7886 0.91549 0.36445 0.0
H740 H 0.76225 0.93415 0.46445 0.0
C741 C 0.80044 0.9461 0.35747 0.0
H742 H 0.7649 0.88938 0.41094 0.0
C743 C 0.79861 0.97183 0.38824 0.0
C744 C 0.78503 0.96819 0.42747 0.0
H745 H 0.81157 0.95046 0.32834 0.0
H746 H 0.80825 0.99472 0.38154 0.0
C747 C 0.77283 0.93793 0.43459 0.0
C748 C 0.14914 0.76493 0.36367 0.0
C749 C 0.14067 0.77984 0.32421 0.0
H750 H 0.13662 0.75413 0.42694 0.0
C751 C 0.11127 0.79584 0.31976 0.0
H752 H 0.17111 0.75185 0.36859 0.0
C753 C 0.09125 0.79703 0.35357 0.0
C754 C 0.09994 0.78239 0.39313 0.0
H755 H 0.10377 0.80797 0.2904 0.0
H756 H 0.06916 0.81003 0.34894 0.0
C757 C 0.1292 0.76625 0.39748 0.0
C758 C 0.30007 0.11215 0.34928 0.0
C759 C 0.2962 0.14438 0.36296 0.0
H760 H 0.30537 0.06344 0.36731 0.0
C761 C 0.29532 0.15119 0.40816 0.0
H762 H 0.30127 0.1056 0.31513 0.0
C763 C 0.2976 0.12671 0.43819 0.0
C764 C 0.30126 0.09459 0.42425 0.0
H765 H 0.29215 0.17541 0.42034 0.0
H766 H 0.29629 0.13286 0.47248 0.0
C767 C 0.30265 0.0878 0.37933 0.0
C768 C 0.66649 0.77705 0.86092 0.0
C769 C 0.69703 0.79101 0.86884 0.0
H770 H 0.62127 0.7689 0.88353 0.0
C771 C 0.70461 0.80847 0.9088 0.0
H772 H 0.65935 0.76346 0.83072 0.0
C773 C 0.68209 0.81168 0.93974 0.0
C774 C 0.65174 0.79711 0.9316 0.0
H775 H 0.72777 0.81965 0.91609 0.0
H776 H 0.68861 0.82505 0.97029 0.0
C777 C 0.64442 0.77999 0.89156 0.0
C778 C 0.27254 0.70002 0.85628 0.0
C779 C 0.30236 0.7086 0.84353 0.0
H780 H 0.24628 0.6701 0.89441 0.0
C781 C 0.3288 0.69036 0.85889 0.0
H782 H 0.25161 0.71363 0.84596 0.0
C783 C 0.32581 0.66503 0.88645 0.0
C784 C 0.29624 0.65693 0.9007 0.0
H785 H 0.35225 0.69596 0.85004 0.0
H786 H 0.34702 0.65183 0.89655 0.0
C787 C 0.26955 0.6748 0.88443 0.0
C788 C 0.41988 0.28549 0.85887 0.0
C789 C 0.38769 0.28987 0.86588 0.0
H790 H 0.46806 0.28031 0.88718 0.0
C791 C 0.37963 0.29096 0.90907 0.0
H792 H 0.42701 0.28444 0.82608 0.0
C793 C 0.40356 0.28893 0.94433 0.0
C794 C 0.43575 0.28547 0.93684 0.0
H795 H 0.35518 0.29467 0.91564 0.0
H796 H 0.39705 0.2906 0.97742 0.0
C797 C 0.44351 0.2832 0.89378 0.0
C798 C 0.79296 0.36843 0.92337 0.0
C799 C 0.79868 0.37494 0.88044 0.0
H800 H 0.78802 0.38766 0.98879 0.0
C801 C 0.80552 0.4068 0.87216 0.0
H802 H 0.78695 0.34448 0.93098 0.0
C803 C 0.80603 0.43134 0.90493 0.0
C804 C 0.79928 0.42521 0.94734 0.0
H805 H 0.80981 0.41301 0.8396 0.0
H806 H 0.81105 0.45543 0.89679 0.0
C807 C 0.79315 0.39329 0.95635 0.0
C808 C 0.69716 0.2728 0.12387 0.0
C809 C 0.70456 0.27809 0.16932 0.0
H810 H 0.66067 0.26997 0.06963 0.0
C811 C 0.67929 0.28505 0.19476 0.0
H812 H 0.71574 0.26771 0.10296 0.0
C813 C 0.64776 0.28651 0.17544 0.0
C814 C 0.64059 0.28121 0.13017 0.0
H815 H 0.68368 0.28882 0.22981 0.0
H816 H 0.62885 0.29145 0.19595 0.0
C817 C 0.6656 0.2743 0.10461 0.0
C818 C 0.78815 0.66886 0.19366 0.0
C819 C 0.80051 0.69528 0.1742 0.0
H820 H 0.77751 0.61852 0.18873 0.0
C821 C 0.81084 0.68966 0.13228 0.0
H822 H 0.78007 0.67162 0.22577 0.0
C823 C 0.80935 0.65909 0.11115 0.0
C824 C 0.7974 0.63279 0.13083 0.0
H825 H 0.82009 0.70891 0.11532 0.0
H826 H 0.81776 0.65593 0.07921 0.0
C827 C 0.78667 0.6382 0.17237 0.0
C828 C 0.35401 0.82337 0.1299 0.0
C829 C 0.34527 0.80139 0.15962 0.0
H830 H 0.39089 0.84166 0.09499 0.0
C831 C 0.36907 0.78108 0.17775 0.0
H832 H 0.33667 0.83962 0.11535 0.0
C833 C 0.40036 0.78257 0.16648 0.0
C834 C 0.40906 0.80435 0.13656 0.0
H835 H 0.36361 0.76355 0.20034 0.0
H836 H 0.4178 0.76658 0.18149 0.0
C837 C 0.38538 0.82484 0.11858 0.0
C838 C 0.30068 0.37575 0.1881 0.0
C839 C 0.27631 0.35323 0.17469 0.0
H840 H 0.32184 0.42114 0.17884 0.0
C841 C 0.25428 0.36105 0.1392 0.0
H842 H 0.31836 0.37108 0.21491 0.0
C843 C 0.25649 0.38983 0.11808 0.0
C844 C 0.28076 0.41242 0.13137 0.0
H845 H 0.23493 0.34502 0.12749 0.0
H846 H 0.23913 0.39404 0.09067 0.0
C847 C 0.30288 0.40466 0.16686 0.0
C848 C 0.39486 0.23248 0.21297 0.0
C849 C 0.38484 0.25694 0.24113 0.0
H850 H 0.42613 0.21761 0.1661 0.0
C851 C 0.40265 0.28536 0.24645 0.0
H852 H 0.38176 0.21023 0.20792 0.0
C853 C 0.42882 0.28962 0.22225 0.0
C854 C 0.43781 0.26553 0.19231 0.0
H855 H 0.39544 0.3048 0.26753 0.0
H856 H 0.44156 0.31207 0.22639 0.0
C857 C 0.4207 0.23668 0.18898 0.0
C858 C 0.83196 0.41703 0.27624 0.0
C859 C 0.80802 0.39373 0.27571 0.0
H860 H 0.84892 0.45764 0.24626 0.0
C861 C 0.78065 0.39597 0.24595 0.0
H862 H 0.85329 0.41616 0.29888 0.0
C863 C 0.7784 0.41942 0.21529 0.0
C864 C 0.80333 0.44143 0.21382 0.0
H865 H 0.76175 0.37842 0.24444 0.0
H866 H 0.75785 0.41907 0.19118 0.0
C867 C 0.82963 0.44061 0.24569 0.0
C868 C 0.68755 0.80918 0.17391 0.0
C869 C 0.6927 0.79872 0.21683 0.0
H870 H 0.65441 0.81679 0.11801 0.0
C871 C 0.6664 0.7869 0.23573 0.0
H872 H 0.70699 0.81831 0.15778 0.0
C873 C 0.63579 0.78614 0.21231 0.0
C874 C 0.63106 0.79696 0.16959 0.0
H875 H 0.66939 0.77863 0.26857 0.0
H876 H 0.61578 0.77746 0.22768 0.0
C877 C 0.65734 0.80829 0.15077 0.0
C878 C 0.26493 0.65705 0.20448 0.0
C879 C 0.25307 0.68305 0.18109 0.0
H880 H 0.2796 0.60807 0.20074 0.0
C881 C 0.2481 0.67967 0.13523 0.0
H882 H 0.26891 0.65893 0.23977 0.0
C883 C 0.25476 0.65116 0.11319 0.0
C884 C 0.26621 0.62509 0.13635 0.0
H885 H 0.23928 0.69925 0.11603 0.0
H886 H 0.25084 0.6494 0.07786 0.0
C887 C 0.27111 0.6281 0.18222 0.0
C888 C 0.40448 0.80744 0.88764 0.0
C889 C 0.38036 0.82078 0.91116 0.0
H890 H 0.45353 0.7935 0.88877 0.0
C891 C 0.38854 0.83067 0.95528 0.0
H892 H 0.39942 0.79917 0.85388 0.0
C893 C 0.41959 0.82689 0.97532 0.0
C894 C 0.44329 0.81309 0.95188 0.0
H895 H 0.37099 0.8414 0.97448 0.0
H896 H 0.42509 0.83461 1.00934 0.0
C897 C 0.43554 0.80379 0.90772 0.0
C898 C 0.31044 0.4527 0.82253 0.0
C899 C 0.32065 0.42223 0.83416 0.0
H900 H 0.29687 0.49933 0.84552 0.0
C901 C 0.32694 0.41612 0.87865 0.0
H902 H 0.30524 0.458 0.78857 0.0
C903 C 0.32187 0.43942 0.9108 0.0
C904 C 0.31066 0.4694 0.89917 0.0
H905 H 0.33544 0.3931 0.88866 0.0
H906 H 0.32622 0.43392 0.94484 0.0
C907 C 0.30543 0.47617 0.85491 0.0
C908 C 0.67446 0.31514 0.87995 0.0
C909 C 0.66904 0.30058 0.83773 0.0
H910 H 0.65707 0.32422 0.94228 0.0
C911 C 0.64036 0.28365 0.82641 0.0
H912 H 0.69615 0.32851 0.88971 0.0
C913 C 0.61799 0.28092 0.85679 0.0
C914 C 0.62344 0.29554 0.89901 0.0
H915 H 0.63552 0.27192 0.79436 0.0
H916 H 0.59627 0.26756 0.8471 0.0
C917 C 0.65191 0.31286 0.91001 0.0
C918 C 0.75855 0.63203 0.82337 0.0
C919 C 0.77619 0.66051 0.82955 0.0
H920 H 0.74966 0.58636 0.84736 0.0
C921 C 0.80042 0.66351 0.86442 0.0
H922 H 0.73975 0.62887 0.79689 0.0
C923 C 0.80582 0.6394 0.89368 0.0
C924 C 0.78728 0.61148 0.88871 0.0
H925 H 0.815 0.68477 0.86968 0.0
H926 H 0.82374 0.64329 0.92119 0.0
C927 C 0.76404 0.60778 0.85261 0.0
loop_
_geom_bond_atom_site_label_1
_geom_bond_atom_site_label_2
_geom_bond_distance
_geom_bond_site_symmetry_2
_ccdc_geom_bond_type
Cu0 N1 1.999 . S
Cu0 O6 1.974 . S
Cu0 N11 1.985 . S
Cu0 O20 1.959 . S
N1 Cu0 1.999 . S
N1 C3 1.263 . S
N1 C5 1.389 . S
N2 C3 1.358 . S
N2 C4 1.400 . S
C3 N1 1.263 . S
C3 N2 1.358 . S
C3 H9 0.930 . S
C4 N2 1.400 . S
C4 C5 1.351 . S
C4 H21 0.930 . S
C5 N1 1.389 . S
C5 C4 1.351 . S
C5 H10 0.930 . S
O6 Cu0 1.974 . S
O6 C16 1.282 . S
C7 O8 1.261 . S
C7 O20 1.251 . S
O8 C7 1.261 . S
H9 C3 0.930 . S
H10 C5 0.930 . S
N11 Cu0 1.985 . S
N11 C13 1.335 . S
N11 C14 1.390 . S
N12 C13 1.345 . S
N12 C15 1.336 . S
C13 N11 1.335 . S
C13 N12 1.345 . S
C13 H18 0.930 . S
C14 N11 1.390 . S
C14 C15 1.346 . S
C14 H19 0.930 . S
C15 N12 1.336 . S
C15 C14 1.346 . S
C15 H22 0.929 . S
C16 O6 1.282 . S
C16 O17 1.216 . S
O17 C16 1.216 . S
H18 C13 0.930 . S
H19 C14 0.930 . S
O20 Cu0 1.959 . S
O20 C7 1.251 . S
H21 C4 0.930 . S
H22 C15 0.929 . S
Cu23 N24 1.999 . S
Cu23 O29 1.974 . S
Cu23 N34 1.985 . S
Cu23 O43 1.959 . S
N24 Cu23 1.999 . S
N24 C26 1.263 . S
N24 C28 1.389 . S
N25 C26 1.358 . S
N25 C27 1.400 . S
C26 N24 1.263 . S
C26 N25 1.358 . S
C26 H32 0.930 . S
C27 N25 1.400 . S
C27 C28 1.351 . S
C27 H44 0.930 . S
C28 N24 1.389 . S
C28 C27 1.351 . S
C28 H33 0.930 . S
O29 Cu23 1.974 . S
O29 C39 1.282 . S
C30 O31 1.261 . S
C30 O43 1.251 . S
O31 C30 1.261 . S
H32 C26 0.930 . S
H33 C28 0.930 . S
N34 Cu23 1.985 . S
N34 C36 1.335 . S
N34 C37 1.390 . S
N35 C36 1.345 . S
N35 C38 1.336 . S
C36 N34 1.335 . S
C36 N35 1.345 . S
C36 H41 0.930 . S
C37 N34 1.390 . S
C37 C38 1.346 . S
C37 H42 0.930 . S
C38 N35 1.336 . S
C38 C37 1.346 . S
C38 H45 0.929 . S
C39 O29 1.282 . S
C39 O40 1.216 . S
O40 C39 1.216 . S
H41 C36 0.930 . S
H42 C37 0.930 . S
O43 Cu23 1.959 . S
O43 C30 1.251 . S
H44 C27 0.930 . S
H45 C38 0.929 . S
Cu46 N47 1.999 . S
Cu46 O52 1.974 . S
Cu46 N57 1.985 . S
Cu46 O66 1.959 . S
N47 Cu46 1.999 . S
N47 C49 1.263 . S
N47 C51 1.389 . S
N48 C49 1.358 . S
N48 C50 1.400 . S
C49 N47 1.263 . S
C49 N48 1.358 . S
C49 H55 0.930 . S
C50 N48 1.400 . S
C50 C51 1.351 . S
C50 H67 0.930 . S
C51 N47 1.389 . S
C51 C50 1.351 . S
C51 H56 0.930 . S
O52 Cu46 1.974 . S
O52 C62 1.282 . S
C53 O54 1.261 . S
C53 O66 1.251 . S
O54 C53 1.261 . S
H55 C49 0.930 . S
H56 C51 0.930 . S
N57 Cu46 1.985 . S
N57 C59 1.335 . S
N57 C60 1.390 . S
N58 C59 1.345 . S
N58 C61 1.336 . S
C59 N57 1.335 . S
C59 N58 1.345 . S
C59 H64 0.930 . S
C60 N57 1.390 . S
C60 C61 1.346 . S
C60 H65 0.930 . S
C61 N58 1.336 . S
C61 C60 1.346 . S
C61 H68 0.929 . S
C62 O52 1.282 . S
C62 O63 1.216 . S
O63 C62 1.216 . S
H64 C59 0.930 . S
H65 C60 0.930 . S
O66 Cu46 1.959 . S
O66 C53 1.251 . S
H67 C50 0.930 . S
H68 C61 0.929 . S
Cu69 N70 1.999 . S
Cu69 O75 1.974 . S
Cu69 N80 1.985 . S
Cu69 O89 1.959 . S
N70 Cu69 1.999 . S
N70 C72 1.263 . S
N70 C74 1.389 . S
N71 C72 1.358 . S
N71 C73 1.400 . S
C72 N70 1.263 . S
C72 N71 1.358 . S
C72 H78 0.930 . S
C73 N71 1.400 . S
C73 C74 1.351 . S
C73 H90 0.930 . S
C74 N70 1.389 . S
C74 C73 1.351 . S
C74 H79 0.930 . S
O75 Cu69 1.974 . S
O75 C85 1.282 . S
C76 O77 1.261 . S
C76 O89 1.251 . S
O77 C76 1.261 . S
H78 C72 0.930 . S
H79 C74 0.930 . S
N80 Cu69 1.985 . S
N80 C82 1.335 . S
N80 C83 1.390 . S
N81 C82 1.345 . S
N81 C84 1.336 . S
C82 N80 1.335 . S
C82 N81 1.345 . S
C82 H87 0.930 . S
C83 N80 1.390 . S
C83 C84 1.346 . S
C83 H88 0.930 . S
C84 N81 1.336 . S
C84 C83 1.346 . S
C84 H91 0.929 . S
C85 O75 1.282 . S
C85 O86 1.216 . S
O86 C85 1.216 . S
H87 C82 0.930 . S
H88 C83 0.930 . S
O89 Cu69 1.959 . S
O89 C76 1.251 . S
H90 C73 0.930 . S
H91 C84 0.929 . S
Cu92 N93 1.999 . S
Cu92 O98 1.974 . S
Cu92 N103 1.985 . S
Cu92 O112 1.959 . S
N93 Cu92 1.999 . S
N93 C95 1.263 . S
N93 C97 1.389 . S
N94 C95 1.358 . S
N94 C96 1.400 . S
C95 N93 1.263 . S
C95 N94 1.358 . S
C95 H101 0.930 . S
C96 N94 1.400 . S
C96 C97 1.351 . S
C96 H113 0.930 . S
C97 N93 1.389 . S
C97 C96 1.351 . S
C97 H102 0.930 . S
O98 Cu92 1.974 . S
O98 C108 1.282 . S
C99 O100 1.261 . S
C99 O112 1.251 . S
O100 C99 1.261 . S
H101 C95 0.930 . S
H102 C97 0.930 . S
N103 Cu92 1.985 . S
N103 C105 1.335 . S
N103 C106 1.390 . S
N104 C105 1.345 . S
N104 C107 1.336 . S
C105 N103 1.335 . S
C105 N104 1.345 . S
C105 H110 0.930 . S
C106 N103 1.390 . S
C106 C107 1.346 . S
C106 H111 0.930 . S
C107 N104 1.336 . S
C107 C106 1.346 . S
C107 H114 0.929 . S
C108 O98 1.282 . S
C108 O109 1.216 . S
O109 C108 1.216 . S
H110 C105 0.930 . S
H111 C106 0.930 . S
O112 Cu92 1.959 . S
O112 C99 1.251 . S
H113 C96 0.930 . S
H114 C107 0.929 . S
Cu115 N116 1.999 . S
Cu115 O121 1.974 . S
Cu115 N126 1.985 . S
Cu115 O135 1.959 . S
N116 Cu115 1.999 . S
N116 C118 1.263 . S
N116 C120 1.389 . S
N117 C118 1.358 . S
N117 C119 1.400 . S
C118 N116 1.263 . S
C118 N117 1.358 . S
C118 H124 0.930 . S
C119 N117 1.400 . S
C119 C120 1.351 . S
C119 H136 0.930 . S
C120 N116 1.389 . S
C120 C119 1.351 . S
C120 H125 0.930 . S
O121 Cu115 1.974 . S
O121 C131 1.282 . S
C122 O123 1.261 . S
C122 O135 1.251 . S
O123 C122 1.261 . S
H124 C118 0.930 . S
H125 C120 0.930 . S
N126 Cu115 1.985 . S
N126 C128 1.335 . S
N126 C129 1.390 . S
N127 C128 1.345 . S
N127 C130 1.336 . S
C128 N126 1.335 . S
C128 N127 1.345 . S
C128 H133 0.930 . S
C129 N126 1.390 . S
C129 C130 1.346 . S
C129 H134 0.930 . S
C130 N127 1.336 . S
C130 C129 1.346 . S
C130 H137 0.929 . S
C131 O121 1.282 . S
C131 O132 1.216 . S
O132 C131 1.216 . S
H133 C128 0.930 . S
H134 C129 0.930 . S
O135 Cu115 1.959 . S
O135 C122 1.251 . S
H136 C119 0.930 . S
H137 C130 0.929 . S
Cu138 N139 1.999 . S
Cu138 O144 1.974 . S
Cu138 N149 1.985 . S
Cu138 O158 1.959 . S
N139 Cu138 1.999 . S
N139 C141 1.263 . S
N139 C143 1.389 . S
N140 C141 1.358 . S
N140 C142 1.400 . S
C141 N139 1.263 . S
C141 N140 1.358 . S
C141 H147 0.930 . S
C142 N140 1.400 . S
C142 C143 1.351 . S
C142 H159 0.930 . S
C143 N139 1.389 . S
C143 C142 1.351 . S
C143 H148 0.930 . S
O144 Cu138 1.974 . S
O144 C154 1.282 . S
C145 O146 1.261 . S
C145 O158 1.251 . S
O146 C145 1.261 . S
H147 C141 0.930 . S
H148 C143 0.930 . S
N149 Cu138 1.985 . S
N149 C151 1.335 . S
N149 C152 1.390 . S
N150 C151 1.345 . S
N150 C153 1.336 . S
C151 N149 1.335 . S
C151 N150 1.345 . S
C151 H156 0.930 . S
C152 N149 1.390 . S
C152 C153 1.346 . S
C152 H157 0.930 . S
C153 N150 1.336 . S
C153 C152 1.346 . S
C153 H160 0.929 . S
C154 O144 1.282 . S
C154 O155 1.216 . S
O155 C154 1.216 . S
H156 C151 0.930 . S
H157 C152 0.930 . S
O158 Cu138 1.959 . S
O158 C145 1.251 . S
H159 C142 0.930 . S
H160 C153 0.929 . S
Cu161 N162 1.999 . S
Cu161 O167 1.974 . S
Cu161 N172 1.985 . S
Cu161 O181 1.959 . S
N162 Cu161 1.999 . S
N162 C164 1.263 . S
N162 C166 1.389 . S
N163 C164 1.358 . S
N163 C165 1.400 . S
C164 N162 1.263 . S
C164 N163 1.358 . S
C164 H170 0.930 . S
C165 N163 1.400 . S
C165 C166 1.351 . S
C165 H182 0.930 . S
C166 N162 1.389 . S
C166 C165 1.351 . S
C166 H171 0.930 . S
O167 Cu161 1.974 . S
O167 C177 1.282 . S
C168 O169 1.261 . S
C168 O181 1.251 . S
O169 C168 1.261 . S
H170 C164 0.930 . S
H171 C166 0.930 . S
N172 Cu161 1.985 . S
N172 C174 1.335 . S
N172 C175 1.390 . S
N173 C174 1.345 . S
N173 C176 1.336 . S
C174 N172 1.335 . S
C174 N173 1.345 . S
C174 H179 0.930 . S
C175 N172 1.390 . S
C175 C176 1.346 . S
C175 H180 0.930 . S
C176 N173 1.336 . S
C176 C175 1.346 . S
C176 H183 0.929 . S
C177 O167 1.282 . S
C177 O178 1.216 . S
O178 C177 1.216 . S
H179 C174 0.930 . S
H180 C175 0.930 . S
O181 Cu161 1.959 . S
O181 C168 1.251 . S
H182 C165 0.930 . S
H183 C176 0.929 . S
C184 C185 1.443 . S
C184 N188 1.376 . S
C184 C222 1.389 . S
C185 C184 1.443 . S
C185 C186 1.340 . S
C185 H225 0.951 . S
C186 C185 1.340 . S
C186 C187 1.439 . S
C186 H226 0.950 . S
C187 C186 1.439 . S
C187 N188 1.374 . S
C187 C221 1.395 . S
N188 C184 1.376 . S
N188 C187 1.374 . S
N188 Co189 2.008 . S
Co189 N188 2.008 . S
Co189 N190 1.995 . S
Co189 N195 2.008 . S
Co189 N200 1.995 . S
Co189 N205 2.282 . S
Co189 N211 2.282 . S
N190 Co189 1.995 . S
N190 C191 1.376 . S
N190 C194 1.383 1_455 S
C191 N190 1.376 . S
C191 C192 1.446 . S
C191 C221 1.391 . S
C192 C191 1.446 . S
C192 C193 1.339 1_455 S
C192 H227 0.949 . S
C193 C192 1.339 1_655 S
C193 C194 1.439 . S
C193 H228 0.950 . S
C194 N190 1.383 1_655 S
C194 C193 1.439 . S
C194 C223 1.392 . S
N195 Co189 2.008 . S
N195 C196 1.376 1_455 S
N195 C199 1.374 . S
C196 N195 1.376 1_655 S
C196 C197 1.443 . S
C196 C223 1.389 . S
C197 C196 1.443 . S
C197 C198 1.340 . S
C197 H229 0.951 . S
C198 C197 1.340 . S
C198 C199 1.439 1_655 S
C198 H230 0.950 . S
C199 N195 1.374 . S
C199 C198 1.439 1_455 S
C199 C224 1.395 . S
N200 Co189 1.995 . S
N200 C201 1.376 . S
N200 C204 1.383 . S
C201 N200 1.376 . S
C201 C202 1.446 . S
C201 C224 1.391 . S
C202 C201 1.446 . S
C202 C203 1.339 . S
C202 H231 0.949 . S
C203 C202 1.339 . S
C203 C204 1.439 . S
C203 H232 0.950 . S
C204 N200 1.383 . S
C204 C203 1.439 . S
C204 C222 1.392 . S
N205 Co189 2.282 . S
N205 C208 1.332 . S
N205 C210 1.332 1_455 S
C206 C207 1.386 . S
C206 C209 1.388 . S
C207 C206 1.386 . S
C207 C208 1.382 1_655 S
C207 H233 0.950 . S
C208 N205 1.332 . S
C208 C207 1.382 1_455 S
C208 H219 0.952 . S
C209 C206 1.388 . S
C209 C210 1.382 . S
C209 H234 0.950 . S
C210 N205 1.332 1_655 S
C210 C209 1.382 . S
C210 H220 0.948 1_655 S
N211 Co189 2.282 . S
N211 C215 1.332 . S
N211 C216 1.332 . S
C212 C213 1.388 . S
C212 C216 1.382 . S
C212 H235 0.950 . S
C213 C212 1.388 . S
C213 C214 1.386 . S
C214 C213 1.386 . S
C214 C215 1.382 . S
C214 H236 0.950 . S
C215 N211 1.332 . S
C215 C214 1.382 . S
C215 H217 0.952 . S
C216 N211 1.332 . S
C216 C212 1.382 . S
C216 H218 0.948 . S
H217 C215 0.952 . S
H218 C216 0.948 . S
H219 C208 0.952 . S
H220 C210 0.948 1_455 S
C221 C187 1.395 . S
C221 C191 1.391 . S
C222 C184 1.389 . S
C222 C204 1.392 . S
C223 C194 1.392 . S
C223 C196 1.389 . S
C224 C199 1.395 . S
C224 C201 1.391 . S
H225 C185 0.951 . S
H226 C186 0.950 . S
H227 C192 0.949 . S
H228 C193 0.950 . S
H229 C197 0.951 . S
H230 C198 0.950 . S
H231 C202 0.949 . S
H232 C203 0.950 . S
H233 C207 0.950 . S
H234 C209 0.950 . S
H235 C212 0.950 . S
H236 C214 0.950 . S
C237 C238 1.443 . S
C237 N241 1.376 . S
C237 C275 1.389 . S
C238 C237 1.443 . S
C238 C239 1.340 . S
C238 H278 0.951 . S
C239 C238 1.340 . S
C239 C240 1.439 . S
C239 H279 0.950 . S
C240 C239 1.439 . S
C240 N241 1.374 . S
C240 C274 1.395 . S
N241 C237 1.376 . S
N241 C240 1.374 . S
N241 Co242 2.008 . S
Co242 N241 2.008 . S
Co242 N243 1.995 . S
Co242 N248 2.008 . S
Co242 N253 1.995 . S
Co242 N258 2.282 . S
Co242 N264 2.282 . S
N243 Co242 1.995 . S
N243 C244 1.376 . S
N243 C247 1.383 . S
C244 N243 1.376 . S
C244 C245 1.446 . S
C244 C274 1.391 . S
C245 C244 1.446 . S
C245 C246 1.339 1_545 S
C245 H280 0.949 . S
C246 C245 1.339 1_565 S
C246 C247 1.439 1_565 S
C246 H281 0.950 . S
C247 N243 1.383 . S
C247 C246 1.439 1_545 S
C247 C276 1.392 1_545 S
N248 Co242 2.008 . S
N248 C249 1.376 1_545 S
N248 C252 1.374 . S
C249 N248 1.376 1_565 S
C249 C250 1.443 . S
C249 C276 1.389 . S
C250 C249 1.443 . S
C250 C251 1.340 . S
C250 H282 0.951 . S
C251 C250 1.340 . S
C251 C252 1.439 1_565 S
C251 H283 0.950 . S
C252 N248 1.374 . S
C252 C251 1.439 1_545 S
C252 C277 1.395 . S
N253 Co242 1.995 . S
N253 C254 1.376 . S
N253 C257 1.383 . S
C254 N253 1.376 . S
C254 C255 1.446 . S
C254 C277 1.391 . S
C255 C254 1.446 . S
C255 C256 1.339 . S
C255 H284 0.949 . S
C256 C255 1.339 . S
C256 C257 1.439 . S
C256 H285 0.950 . S
C257 N253 1.383 . S
C257 C256 1.439 . S
C257 C275 1.392 . S
N258 Co242 2.282 . S
N258 C261 1.330 1_545 S
N258 C263 1.332 1_545 S
C259 C260 1.386 . S
C259 C262 1.388 . S
C260 C259 1.386 . S
C260 C261 1.387 . S
C260 H286 0.950 . S
C261 N258 1.330 1_565 S
C261 C260 1.387 . S
C261 H272 0.948 1_565 S
C262 C259 1.388 . S
C262 C263 1.382 . S
C262 H287 0.950 . S
C263 N258 1.332 1_565 S
C263 C262 1.382 . S
C263 H273 0.948 . S
N264 Co242 2.282 . S
N264 C268 1.332 . S
N264 C269 1.332 . S
C265 C266 1.388 . S
C265 C269 1.382 . S
C265 H288 0.950 . S
C266 C265 1.388 . S
C266 C267 1.386 . S
C267 C266 1.386 . S
C267 C268 1.382 . S
C267 H289 0.950 . S
C268 N264 1.332 . S
C268 C267 1.382 . S
C268 H270 0.952 . S
C269 N264 1.332 . S
C269 C265 1.382 . S
C269 H271 0.948 . S
H270 C268 0.952 . S
H271 C269 0.948 . S
H272 C261 0.948 1_545 S
H273 C263 0.948 . S
C274 C240 1.395 . S
C274 C244 1.391 . S
C275 C237 1.389 . S
C275 C257 1.392 . S
C276 C247 1.392 1_565 S
C276 C249 1.389 . S
C277 C252 1.395 . S
C277 C254 1.391 . S
H278 C238 0.951 . S
H279 C239 0.950 . S
H280 C245 0.949 . S
H281 C246 0.950 . S
H282 C250 0.951 . S
H283 C251 0.950 . S
H284 C255 0.949 . S
H285 C256 0.950 . S
H286 C260 0.950 . S
H287 C262 0.950 . S
H288 C265 0.950 . S
H289 C267 0.950 . S
C290 C291 1.443 . S
C290 N294 1.376 . S
C290 C328 1.389 . S
C291 C290 1.443 . S
C291 C292 1.340 . S
C291 H331 0.951 . S
C292 C291 1.340 . S
C292 C293 1.439 . S
C292 H332 0.950 . S
C293 C292 1.439 . S
C293 N294 1.374 . S
C293 C327 1.395 . S
N294 C290 1.376 . S
N294 C293 1.374 . S
N294 Co295 2.008 . S
Co295 N294 2.008 . S
Co295 N296 1.995 1_455 S
Co295 N301 2.008 1_455 S
Co295 N306 1.995 . S
Co295 N311 2.282 1_455 S
Co295 N317 2.282 . S
N296 Co295 1.995 1_655 S
N296 C297 1.376 . S
N296 C300 1.383 . S
C297 N296 1.376 . S
C297 C298 1.446 . S
C297 C327 1.391 1_655 S
C298 C297 1.446 . S
C298 C299 1.339 . S
C298 H333 0.949 . S
C299 C298 1.339 . S
C299 C300 1.439 . S
C299 H334 0.950 . S
C300 N296 1.383 . S
C300 C299 1.439 . S
C300 C329 1.392 . S
N301 Co295 2.008 1_655 S
N301 C302 1.376 . S
N301 C305 1.374 . S
C302 N301 1.376 . S
C302 C303 1.443 . S
C302 C329 1.389 . S
C303 C302 1.443 . S
C303 C304 1.340 . S
C303 H335 0.951 . S
C304 C303 1.340 . S
C304 C305 1.439 . S
C304 H336 0.950 . S
C305 N301 1.374 . S
C305 C304 1.439 . S
C305 C330 1.374 1_655 S
N306 Co295 1.995 . S
N306 C307 1.376 . S
N306 C310 1.383 . S
C307 N306 1.376 . S
C307 C308 1.446 . S
C307 C330 1.414 . S
C308 C307 1.446 . S
C308 C309 1.339 . S
C308 H337 0.949 . S
C309 C308 1.339 . S
C309 C310 1.439 . S
C309 H338 0.950 . S
C310 N306 1.383 . S
C310 C309 1.439 . S
C310 C328 1.392 . S
N311 Co295 2.282 1_655 S
N311 C314 1.332 . S
N311 C316 1.332 . S
C312 C313 1.386 . S
C312 C315 1.388 . S
C313 C312 1.386 . S
C313 C314 1.382 . S
C313 H339 0.950 . S
C314 N311 1.332 . S
C314 C313 1.382 . S
C314 H325 0.952 . S
C315 C312 1.388 . S
C315 C316 1.382 . S
C315 H340 0.950 . S
C316 N311 1.332 . S
C316 C315 1.382 . S
C316 H326 0.948 . S
N317 Co295 2.282 . S
N317 C321 1.332 . S
N317 C322 1.332 . S
C318 C319 1.388 . S
C318 C322 1.382 . S
C318 H341 0.950 . S
C319 C318 1.388 . S
C319 C320 1.386 . S
C320 C319 1.386 . S
C320 C321 1.382 . S
C320 H342 0.950 . S
C321 N317 1.332 . S
C321 C320 1.382 . S
C321 H323 0.952 . S
C322 N317 1.332 . S
C322 C318 1.382 . S
C322 H324 0.948 . S
H323 C321 0.952 . S
H324 C322 0.948 . S
H325 C314 0.952 . S
H326 C316 0.948 . S
C327 C293 1.395 . S
C327 C297 1.391 1_455 S
C328 C290 1.389 . S
C328 C310 1.392 . S
C329 C300 1.392 . S
C329 C302 1.389 . S
C330 C305 1.374 1_455 S
C330 C307 1.414 . S
H331 C291 0.951 . S
H332 C292 0.950 . S
H333 C298 0.949 . S
H334 C299 0.950 . S
H335 C303 0.951 . S
H336 C304 0.950 . S
H337 C308 0.949 . S
H338 C309 0.950 . S
H339 C313 0.950 . S
H340 C315 0.950 . S
H341 C318 0.950 . S
H342 C320 0.950 . S
C343 C344 1.443 . S
C343 N347 1.376 . S
C343 C381 1.389 . S
C344 C343 1.443 . S
C344 C345 1.340 . S
C344 H384 0.951 . S
C345 C344 1.340 . S
C345 C346 1.439 . S
C345 H385 0.950 . S
C346 C345 1.439 . S
C346 N347 1.374 . S
C346 C380 1.395 1_565 S
N347 C343 1.376 . S
N347 C346 1.374 . S
N347 Co348 2.008 1_565 S
Co348 N347 2.008 1_545 S
Co348 N349 1.995 . S
Co348 N354 2.008 . S
Co348 N359 1.995 1_545 S
Co348 N364 2.282 . S
Co348 N370 2.282 1_545 S
N349 Co348 1.995 . S
N349 C350 1.376 . S
N349 C353 1.383 . S
C350 N349 1.376 . S
C350 C351 1.446 . S
C350 C380 1.391 . S
C351 C350 1.446 . S
C351 C352 1.339 . S
C351 H386 0.949 . S
C352 C351 1.339 . S
C352 C353 1.439 . S
C352 H387 0.950 . S
C353 N349 1.383 . S
C353 C352 1.439 . S
C353 C382 1.392 . S
N354 Co348 2.008 . S
N354 C355 1.376 . S
N354 C358 1.374 . S
C355 N354 1.376 . S
C355 C356 1.443 . S
C355 C382 1.389 . S
C356 C355 1.443 . S
C356 C357 1.340 . S
C356 H388 0.951 . S
C357 C356 1.340 . S
C357 C358 1.439 . S
C357 H389 0.950 . S
C358 N354 1.374 . S
C358 C357 1.439 . S
C358 C383 1.395 . S
N359 Co348 1.995 1_565 S
N359 C360 1.376 . S
N359 C363 1.383 . S
C360 N359 1.376 . S
C360 C361 1.446 . S
C360 C383 1.391 1_565 S
C361 C360 1.446 . S
C361 C362 1.339 . S
C361 H390 0.949 . S
C362 C361 1.339 . S
C362 C363 1.439 . S
C362 H391 0.950 . S
C363 N359 1.383 . S
C363 C362 1.439 . S
C363 C381 1.392 . S
N364 Co348 2.282 . S
N364 C367 1.332 . S
N364 C369 1.332 . S
C365 C366 1.386 . S
C365 C368 1.388 . S
C366 C365 1.386 . S
C366 C367 1.382 . S
C366 H392 0.950 . S
C367 N364 1.332 . S
C367 C366 1.382 . S
C367 H378 0.952 . S
C368 C365 1.388 . S
C368 C369 1.382 . S
C368 H393 0.950 . S
C369 N364 1.332 . S
C369 C368 1.382 . S
C369 H379 0.948 . S
N370 Co348 2.282 1_565 S
N370 C374 1.332 . S
N370 C375 1.332 . S
C371 C372 1.388 . S
C371 C375 1.382 . S
C371 H394 0.950 . S
C372 C371 1.388 . S
C372 C373 1.386 . S
C373 C372 1.386 . S
C373 C374 1.382 . S
C373 H395 0.950 . S
C374 N370 1.332 . S
C374 C373 1.382 . S
C374 H376 0.952 . S
C375 N370 1.332 . S
C375 C371 1.382 . S
C375 H377 0.948 . S
H376 C374 0.952 . S
H377 C375 0.948 . S
H378 C367 0.952 . S
H379 C369 0.948 . S
C380 C346 1.395 1_545 S
C380 C350 1.391 . S
C381 C343 1.389 . S
C381 C363 1.392 . S
C382 C353 1.392 . S
C382 C355 1.389 . S
C383 C358 1.395 . S
C383 C360 1.391 1_545 S
H384 C344 0.951 . S
H385 C345 0.950 . S
H386 C351 0.949 . S
H387 C352 0.950 . S
H388 C356 0.951 . S
H389 C357 0.950 . S
H390 C361 0.949 . S
H391 C362 0.950 . S
H392 C366 0.950 . S
H393 C368 0.950 . S
H394 C371 0.950 . S
H395 C373 0.950 . S
C396 C397 1.443 . S
C396 N400 1.376 . S
C396 C434 1.389 . S
C397 C396 1.443 . S
C397 C398 1.340 . S
C397 H437 0.951 . S
C398 C397 1.340 . S
C398 C399 1.439 . S
C398 H438 0.950 . S
C399 C398 1.439 . S
C399 N400 1.374 . S
C399 C433 1.395 . S
N400 C396 1.376 . S
N400 C399 1.374 . S
N400 Co401 2.008 . S
Co401 N400 2.008 . S
Co401 N402 1.995 1_554 S
Co401 N407 2.008 1_554 S
Co401 N412 1.995 . S
Co401 N417 2.282 . S
Co401 N423 2.282 1_554 S
N402 Co401 1.995 1_556 S
N402 C403 1.376 . S
N402 C406 1.383 . S
C403 N402 1.376 . S
C403 C404 1.446 . S
C403 C433 1.391 1_556 S
C404 C403 1.446 . S
C404 C405 1.339 . S
C404 H439 0.949 . S
C405 C404 1.339 . S
C405 C406 1.439 . S
C405 H440 0.950 . S
C406 N402 1.383 . S
C406 C405 1.439 . S
C406 C435 1.392 . S
N407 Co401 2.008 1_556 S
N407 C408 1.376 . S
N407 C411 1.374 . S
C408 N407 1.376 . S
C408 C409 1.443 . S
C408 C435 1.389 . S
C409 C408 1.443 . S
C409 C410 1.340 . S
C409 H441 0.951 . S
C410 C409 1.340 . S
C410 C411 1.439 . S
C410 H442 0.950 . S
C411 N407 1.374 . S
C411 C410 1.439 . S
C411 C436 1.395 1_556 S
N412 Co401 1.995 . S
N412 C413 1.376 . S
N412 C416 1.383 . S
C413 N412 1.376 . S
C413 C414 1.446 . S
C413 C436 1.391 . S
C414 C413 1.446 . S
C414 C415 1.339 . S
C414 H443 0.949 . S
C415 C414 1.339 . S
C415 C416 1.439 . S
C415 H444 0.950 . S
C416 N412 1.383 . S
C416 C415 1.439 . S
C416 C434 1.392 . S
N417 Co401 2.282 . S
N417 C420 1.332 . S
N417 C422 1.332 . S
C418 C419 1.386 . S
C418 C421 1.388 . S
C419 C418 1.386 . S
C419 C420 1.382 . S
C419 H445 0.950 . S
C420 N417 1.332 . S
C420 C419 1.382 . S
C420 H431 0.952 . S
C421 C418 1.388 . S
C421 C422 1.382 . S
C421 H446 0.950 . S
C422 N417 1.332 . S
C422 C421 1.382 . S
C422 H432 0.948 . S
N423 Co401 2.282 1_556 S
N423 C427 1.332 . S
N423 C428 1.332 . S
C424 C425 1.388 . S
C424 C428 1.382 . S
C424 H447 0.950 . S
C425 C424 1.388 . S
C425 C426 1.386 . S
C426 C425 1.386 . S
C426 C427 1.382 . S
C426 H448 0.950 . S
C427 N423 1.332 . S
C427 C426 1.382 . S
C427 H429 0.952 . S
C428 N423 1.332 . S
C428 C424 1.382 . S
C428 H430 0.948 . S
H429 C427 0.952 . S
H430 C428 0.948 . S
H431 C420 0.952 . S
H432 C422 0.948 . S
C433 C399 1.395 . S
C433 C403 1.391 1_554 S
C434 C396 1.389 . S
C434 C416 1.392 . S
C435 C406 1.392 . S
C435 C408 1.389 . S
C436 C411 1.395 1_554 S
C436 C413 1.391 . S
H437 C397 0.951 . S
H438 C398 0.950 . S
H439 C404 0.949 . S
H440 C405 0.950 . S
H441 C409 0.951 . S
H442 C410 0.950 . S
H443 C414 0.949 . S
H444 C415 0.950 . S
H445 C419 0.950 . S
H446 C421 0.950 . S
H447 C424 0.950 . S
H448 C426 0.950 . S
C449 C450 1.443 . S
C449 N453 1.376 . S
C449 C487 1.389 . S
C450 C449 1.443 . S
C450 C451 1.340 . S
C450 H490 0.951 . S
C451 C450 1.340 . S
C451 C452 1.439 . S
C451 H491 0.950 . S
C452 C451 1.439 . S
C452 N453 1.374 . S
C452 C486 1.400 . S
N453 C449 1.376 . S
N453 C452 1.374 . S
N453 Co454 2.008 . S
Co454 N453 2.008 . S
Co454 N455 1.995 1_554 S
Co454 N460 2.008 . S
Co454 N465 1.995 . S
Co454 N470 2.282 . S
Co454 N476 2.282 1_554 S
N455 Co454 1.995 1_556 S
N455 C456 1.376 . S
N455 C459 1.383 . S
C456 N455 1.376 . S
C456 C457 1.446 . S
C456 C486 1.387 1_556 S
C457 C456 1.446 . S
C457 C458 1.339 . S
C457 H492 0.949 . S
C458 C457 1.339 . S
C458 C459 1.439 . S
C458 H493 0.950 . S
C459 N455 1.383 . S
C459 C458 1.439 . S
C459 C488 1.392 . S
N460 Co454 2.008 . S
N460 C461 1.376 1_554 S
N460 C464 1.374 . S
C461 N460 1.376 1_556 S
C461 C462 1.443 . S
C461 C488 1.389 . S
C462 C461 1.443 . S
C462 C463 1.340 . S
C462 H494 0.951 . S
C463 C462 1.340 . S
C463 C464 1.439 1_556 S
C463 H495 0.949 1_556 S
C464 N460 1.374 . S
C464 C463 1.439 1_554 S
C464 C489 1.395 . S
N465 Co454 1.995 . S
N465 C466 1.376 . S
N465 C469 1.383 . S
C466 N465 1.376 . S
C466 C467 1.446 . S
C466 C489 1.391 . S
C467 C466 1.446 . S
C467 C468 1.339 . S
C467 H496 0.949 . S
C468 C467 1.339 . S
C468 C469 1.439 . S
C468 H497 0.950 . S
C469 N465 1.383 . S
C469 C468 1.439 . S
C469 C487 1.392 . S
N470 Co454 2.282 . S
N470 C473 1.332 . S
N470 C475 1.332 . S
C471 C472 1.386 . S
C471 C474 1.388 . S
C472 C471 1.386 . S
C472 C473 1.382 . S
C472 H498 0.950 . S
C473 N470 1.332 . S
C473 C472 1.382 . S
C473 H484 0.952 . S
C474 C471 1.388 . S
C474 C475 1.382 . S
C474 H499 0.950 . S
C475 N470 1.332 . S
C475 C474 1.382 . S
C475 H485 0.948 . S
N476 Co454 2.282 1_556 S
N476 C480 1.332 . S
N476 C481 1.332 . S
C477 C478 1.388 . S
C477 C481 1.382 . S
C477 H500 0.950 . S
C478 C477 1.388 . S
C478 C479 1.386 . S
C479 C478 1.386 . S
C479 C480 1.382 . S
C479 H501 0.950 . S
C480 N476 1.332 . S
C480 C479 1.382 . S
C480 H482 0.952 . S
C481 N476 1.332 . S
C481 C477 1.382 . S
C481 H483 0.948 . S
H482 C480 0.952 . S
H483 C481 0.948 . S
H484 C473 0.952 . S
H485 C475 0.948 . S
C486 C452 1.400 . S
C486 C456 1.387 1_554 S
C487 C449 1.389 . S
C487 C469 1.392 . S
C488 C459 1.392 . S
C488 C461 1.389 . S
C489 C464 1.395 . S
C489 C466 1.391 . S
H490 C450 0.951 . S
H491 C451 0.950 . S
H492 C457 0.949 . S
H493 C458 0.950 . S
H494 C462 0.951 . S
H495 C463 0.949 1_554 S
H496 C467 0.949 . S
H497 C468 0.950 . S
H498 C472 0.950 . S
H499 C474 0.950 . S
H500 C477 0.950 . S
H501 C479 0.950 . S
C502 C503 1.443 . S
C502 N506 1.376 1_556 S
C502 C540 1.389 . S
C503 C502 1.443 . S
C503 C504 1.340 1_556 S
C503 H543 0.951 . S
C504 C503 1.340 1_554 S
C504 C505 1.439 . S
C504 H544 0.950 . S
C505 C504 1.439 . S
C505 N506 1.374 . S
C505 C539 1.395 . S
N506 C502 1.376 1_554 S
N506 C505 1.374 . S
N506 Co507 2.008 . S
Co507 N506 2.008 . S
Co507 N508 1.995 . S
Co507 N513 2.008 . S
Co507 N518 1.995 . S
Co507 N523 2.282 1_554 S
Co507 N529 2.282 . S
N508 Co507 1.995 . S
N508 C509 1.376 . S
N508 C512 1.383 . S
C509 N508 1.376 . S
C509 C510 1.446 . S
C509 C539 1.391 . S
C510 C509 1.446 . S
C510 C511 1.339 . S
C510 H545 0.949 . S
C511 C510 1.339 . S
C511 C512 1.439 . S
C511 H546 0.950 . S
C512 N508 1.383 . S
C512 C511 1.439 . S
C512 C541 1.392 . S
N513 Co507 2.008 . S
N513 C514 1.376 . S
N513 C517 1.374 . S
C514 N513 1.376 . S
C514 C515 1.443 . S
C514 C541 1.389 . S
C515 C514 1.443 . S
C515 C516 1.340 . S
C515 H547 0.951 . S
C516 C515 1.340 . S
C516 C517 1.439 . S
C516 H548 0.950 . S
C517 N513 1.374 . S
C517 C516 1.439 . S
C517 C542 1.395 . S
N518 Co507 1.995 . S
N518 C519 1.376 . S
N518 C522 1.383 1_554 S
C519 N518 1.376 . S
C519 C520 1.446 1_554 S
C519 C542 1.391 . S
C520 C519 1.446 1_556 S
C520 C521 1.339 . S
C520 H549 0.949 . S
C521 C520 1.339 . S
C521 C522 1.439 . S
C521 H550 0.950 . S
C522 N518 1.383 1_556 S
C522 C521 1.439 . S
C522 C540 1.392 . S
N523 Co507 2.282 1_556 S
N523 C526 1.332 . S
N523 C528 1.332 . S
C524 C525 1.386 . S
C524 C527 1.388 . S
C525 C524 1.386 . S
C525 C526 1.382 . S
C525 H551 0.950 . S
C526 N523 1.332 . S
C526 C525 1.382 . S
C526 H537 0.952 . S
C527 C524 1.388 . S
C527 C528 1.382 . S
C527 H552 0.950 . S
C528 N523 1.332 . S
C528 C527 1.382 . S
C528 H538 0.948 1_556 S
N529 Co507 2.282 . S
N529 C533 1.332 . S
N529 C534 1.332 . S
C530 C531 1.388 . S
C530 C534 1.382 . S
C530 H553 0.950 . S
C531 C530 1.388 . S
C531 C532 1.386 . S
C532 C531 1.386 . S
C532 C533 1.382 . S
C532 H554 0.950 . S
C533 N529 1.332 . S
C533 C532 1.382 . S
C533 H535 0.952 . S
C534 N529 1.332 . S
C534 C530 1.382 . S
C534 H536 0.948 . S
H535 C533 0.952 . S
H536 C534 0.948 . S
H537 C526 0.952 . S
H538 C528 0.948 1_554 S
C539 C505 1.395 . S
C539 C509 1.391 . S
C540 C502 1.389 . S
C540 C522 1.392 . S
C541 C512 1.392 . S
C541 C514 1.389 . S
C542 C517 1.395 . S
C542 C519 1.391 . S
H543 C503 0.951 . S
H544 C504 0.950 . S
H545 C510 0.949 . S
H546 C511 0.950 . S
H547 C515 0.951 . S
H548 C516 0.950 . S
H549 C520 0.949 . S
H550 C521 0.950 . S
H551 C525 0.950 . S
H552 C527 0.950 . S
H553 C530 0.950 . S
H554 C532 0.950 . S
C555 C556 1.443 . S
C555 N559 1.376 . S
C555 C593 1.389 . S
C556 C555 1.443 . S
C556 C557 1.340 . S
C556 H596 0.951 . S
C557 C556 1.340 . S
C557 C558 1.439 . S
C557 H597 0.950 . S
C558 C557 1.439 . S
C558 N559 1.374 . S
C558 C592 1.395 1_554 S
N559 C555 1.376 . S
N559 C558 1.374 . S
N559 Co560 2.008 . S
Co560 N559 2.008 . S
Co560 N561 1.995 1_554 S
Co560 N566 2.015 . S
Co560 N571 1.995 . S
Co560 N576 2.282 . S
Co560 N582 2.282 1_554 S
N561 Co560 1.995 1_556 S
N561 C562 1.376 . S
N561 C565 1.383 . S
C562 N561 1.376 . S
C562 C563 1.446 . S
C562 C592 1.391 . S
C563 C562 1.446 . S
C563 C564 1.339 . S
C563 H598 0.949 . S
C564 C563 1.339 . S
C564 C565 1.439 . S
C564 H599 0.950 . S
C565 N561 1.383 . S
C565 C564 1.439 . S
C565 C594 1.392 . S
N566 Co560 2.015 . S
N566 C567 1.367 1_554 S
N566 C570 1.377 . S
C567 N566 1.367 1_556 S
C567 C568 1.443 . S
C567 C594 1.389 . S
C568 C567 1.443 . S
C568 C569 1.340 . S
C568 H600 0.951 . S
C569 C568 1.340 . S
C569 C570 1.439 1_556 S
C569 H601 0.950 1_556 S
C570 N566 1.377 . S
C570 C569 1.439 1_554 S
C570 C595 1.395 . S
N571 Co560 1.995 . S
N571 C572 1.376 . S
N571 C575 1.383 . S
C572 N571 1.376 . S
C572 C573 1.446 . S
C572 C595 1.391 . S
C573 C572 1.446 . S
C573 C574 1.339 . S
C573 H602 0.949 . S
C574 C573 1.339 . S
C574 C575 1.439 . S
C574 H603 0.950 . S
C575 N571 1.383 . S
C575 C574 1.439 . S
C575 C593 1.392 . S
N576 Co560 2.282 . S
N576 C579 1.332 . S
N576 C581 1.332 . S
C577 C578 1.386 . S
C577 C580 1.388 . S
C578 C577 1.386 . S
C578 C579 1.382 . S
C578 H604 0.950 . S
C579 N576 1.332 . S
C579 C578 1.382 . S
C579 H590 0.952 . S
C580 C577 1.388 . S
C580 C581 1.382 . S
C580 H605 0.950 . S
C581 N576 1.332 . S
C581 C580 1.382 . S
C581 H591 0.948 . S
N582 Co560 2.282 1_556 S
N582 C586 1.332 . S
N582 C587 1.332 . S
C583 C584 1.388 . S
C583 C587 1.382 . S
C583 H606 0.950 . S
C584 C583 1.388 . S
C584 C585 1.386 . S
C585 C584 1.386 . S
C585 C586 1.382 . S
C585 H607 0.950 . S
C586 N582 1.332 . S
C586 C585 1.382 . S
C586 H588 0.952 . S
C587 N582 1.332 . S
C587 C583 1.382 . S
C587 H589 0.948 . S
H588 C586 0.952 . S
H589 C587 0.948 . S
H590 C579 0.952 . S
H591 C581 0.948 . S
C592 C558 1.395 1_556 S
C592 C562 1.391 . S
C593 C555 1.389 . S
C593 C575 1.392 . S
C594 C565 1.392 . S
C594 C567 1.389 . S
C595 C570 1.395 . S
C595 C572 1.391 . S
H596 C556 0.951 . S
H597 C557 0.950 . S
H598 C563 0.949 . S
H599 C564 0.950 . S
H600 C568 0.951 . S
H601 C569 0.950 1_554 S
H602 C573 0.949 . S
H603 C574 0.950 . S
H604 C578 0.950 . S
H605 C580 0.950 . S
H606 C583 0.950 . S
H607 C585 0.950 . S
C608 C609 1.387 . S
C608 H612 0.950 . S
C608 C617 1.390 . S
C609 C608 1.387 . S
C609 C611 1.387 . S
H610 C617 0.950 . S
C611 C609 1.387 . S
C611 C613 1.390 . S
C611 H615 0.950 . S
H612 C608 0.950 . S
C613 C611 1.390 . S
C613 C614 1.387 . S
C613 H616 0.950 . S
C614 C613 1.387 . S
C614 C617 1.387 . S
H615 C611 0.950 . S
H616 C613 0.950 . S
C617 C608 1.390 . S
C617 H610 0.950 . S
C617 C614 1.387 . S
C618 C619 1.387 . S
C618 H622 0.950 . S
C618 C627 1.390 . S
C619 C618 1.387 . S
C619 C621 1.387 . S
H620 C627 0.950 . S
C621 C619 1.387 . S
C621 C623 1.390 . S
C621 H625 0.950 . S
H622 C618 0.950 . S
C623 C621 1.390 . S
C623 C624 1.387 . S
C623 H626 0.950 . S
C624 C623 1.387 . S
C624 C627 1.387 . S
H625 C621 0.950 . S
H626 C623 0.950 . S
C627 C618 1.390 . S
C627 H620 0.950 . S
C627 C624 1.387 . S
C628 C629 1.387 . S
C628 H632 0.950 . S
C628 C637 1.390 . S
C629 C628 1.387 . S
C629 C631 1.387 . S
H630 C637 0.950 . S
C631 C629 1.387 . S
C631 C633 1.390 . S
C631 H635 0.950 . S
H632 C628 0.950 . S
C633 C631 1.390 . S
C633 C634 1.387 . S
C633 H636 0.950 . S
C634 C633 1.387 . S
C634 C637 1.387 . S
H635 C631 0.950 . S
H636 C633 0.950 . S
C637 C628 1.390 . S
C637 H630 0.950 . S
C637 C634 1.387 . S
C638 C639 1.387 . S
C638 H642 0.950 . S
C638 C647 1.390 . S
C639 C638 1.387 . S
C639 C641 1.387 . S
H640 C647 0.950 . S
C641 C639 1.387 . S
C641 C643 1.390 . S
C641 H645 0.950 . S
H642 C638 0.950 . S
C643 C641 1.390 . S
C643 C644 1.387 . S
C643 H646 0.950 . S
C644 C643 1.387 . S
C644 C647 1.387 . S
H645 C641 0.950 . S
H646 C643 0.950 . S
C647 C638 1.390 . S
C647 H640 0.950 . S
C647 C644 1.387 . S
C648 C649 1.387 . S
C648 H652 0.950 . S
C648 C657 1.390 . S
C649 C648 1.387 . S
C649 C651 1.387 . S
H650 C657 0.950 . S
C651 C649 1.387 . S
C651 C653 1.390 . S
C651 H655 0.950 . S
H652 C648 0.950 . S
C653 C651 1.390 . S
C653 C654 1.387 . S
C653 H656 0.950 . S
C654 C653 1.387 . S
C654 C657 1.387 . S
H655 C651 0.950 . S
H656 C653 0.950 . S
C657 C648 1.390 . S
C657 H650 0.950 . S
C657 C654 1.387 . S
C658 C659 1.387 . S
C658 H662 0.950 . S
C658 C667 1.390 . S
C659 C658 1.387 . S
C659 C661 1.387 . S
H660 C667 0.950 . S
C661 C659 1.387 . S
C661 C663 1.390 . S
C661 H665 0.950 . S
H662 C658 0.950 . S
C663 C661 1.390 . S
C663 C664 1.387 . S
C663 H666 0.950 . S
C664 C663 1.387 . S
C664 C667 1.387 . S
H665 C661 0.950 . S
H666 C663 0.950 . S
C667 C658 1.390 . S
C667 H660 0.950 . S
C667 C664 1.387 . S
C668 C669 1.387 . S
C668 H672 0.950 . S
C668 C677 1.390 . S
C669 C668 1.387 . S
C669 C671 1.387 . S
H670 C677 0.950 . S
C671 C669 1.387 . S
C671 C673 1.390 . S
C671 H675 0.950 . S
H672 C668 0.950 . S
C673 C671 1.390 . S
C673 C674 1.387 . S
C673 H676 0.950 . S
C674 C673 1.387 . S
C674 C677 1.387 . S
H675 C671 0.950 . S
H676 C673 0.950 . S
C677 C668 1.390 . S
C677 H670 0.950 . S
C677 C674 1.387 . S
C678 C679 1.387 . S
C678 H682 0.950 . S
C678 C687 1.390 . S
C679 C678 1.387 . S
C679 C681 1.387 . S
H680 C687 0.950 . S
C681 C679 1.387 . S
C681 C683 1.390 . S
C681 H685 0.950 . S
H682 C678 0.950 . S
C683 C681 1.390 . S
C683 C684 1.387 . S
C683 H686 0.950 . S
C684 C683 1.387 . S
C684 C687 1.387 . S
H685 C681 0.950 . S
H686 C683 0.950 . S
C687 C678 1.390 . S
C687 H680 0.950 . S
C687 C684 1.387 . S
C688 C689 1.387 . S
C688 H692 0.950 . S
C688 C697 1.390 . S
C689 C688 1.387 . S
C689 C691 1.387 . S
H690 C697 0.950 . S
C691 C689 1.387 . S
C691 C693 1.390 . S
C691 H695 0.950 . S
H692 C688 0.950 . S
C693 C691 1.390 . S
C693 C694 1.387 . S
C693 H696 0.950 . S
C694 C693 1.387 . S
C694 C697 1.387 . S
H695 C691 0.950 . S
H696 C693 0.950 . S
C697 C688 1.390 . S
C697 H690 0.950 . S
C697 C694 1.387 . S
C698 C699 1.387 . S
C698 H702 0.950 . S
C698 C707 1.390 . S
C699 C698 1.387 . S
C699 C701 1.387 . S
H700 C707 0.950 . S
C701 C699 1.387 . S
C701 C703 1.390 . S
C701 H705 0.950 . S
H702 C698 0.950 . S
C703 C701 1.390 . S
C703 C704 1.387 . S
C703 H706 0.950 . S
C704 C703 1.387 . S
C704 C707 1.387 . S
H705 C701 0.950 . S
H706 C703 0.950 . S
C707 C698 1.390 . S
C707 H700 0.950 . S
C707 C704 1.387 . S
C708 C709 1.387 . S
C708 H712 0.950 . S
C708 C717 1.390 . S
C709 C708 1.387 . S
C709 C711 1.387 . S
H710 C717 0.950 . S
C711 C709 1.387 . S
C711 C713 1.390 . S
C711 H715 0.950 . S
H712 C708 0.950 . S
C713 C711 1.390 . S
C713 C714 1.387 . S
C713 H716 0.950 . S
C714 C713 1.387 . S
C714 C717 1.387 . S
H715 C711 0.950 . S
H716 C713 0.950 . S
C717 C708 1.390 . S
C717 H710 0.950 . S
C717 C714 1.387 . S
C718 C719 1.387 . S
C718 H722 0.950 . S
C718 C727 1.390 . S
C719 C718 1.387 . S
C719 C721 1.387 . S
H720 C727 0.950 . S
C721 C719 1.387 . S
C721 C723 1.390 . S
C721 H725 0.950 . S
H722 C718 0.950 . S
C723 C721 1.390 . S
C723 C724 1.387 . S
C723 H726 0.950 . S
C724 C723 1.387 . S
C724 C727 1.387 . S
H725 C721 0.950 . S
H726 C723 0.950 . S
C727 C718 1.390 . S
C727 H720 0.950 . S
C727 C724 1.387 . S
C728 C729 1.387 . S
C728 H732 0.950 . S
C728 C737 1.390 . S
C729 C728 1.387 . S
C729 C731 1.387 . S
H730 C737 0.950 . S
C731 C729 1.387 . S
C731 C733 1.390 . S
C731 H735 0.950 . S
H732 C728 0.950 . S
C733 C731 1.390 . S
C733 C734 1.387 . S
C733 H736 0.950 . S
C734 C733 1.387 . S
C734 C737 1.387 . S
H735 C731 0.950 . S
H736 C733 0.950 . S
C737 C728 1.390 . S
C737 H730 0.950 . S
C737 C734 1.387 . S
C738 C739 1.387 . S
C738 H742 0.950 . S
C738 C747 1.390 . S
C739 C738 1.387 . S
C739 C741 1.387 . S
H740 C747 0.950 . S
C741 C739 1.387 . S
C741 C743 1.390 . S
C741 H745 0.950 . S
H742 C738 0.950 . S
C743 C741 1.390 . S
C743 C744 1.387 . S
C743 H746 0.950 . S
C744 C743 1.387 . S
C744 C747 1.387 . S
H745 C741 0.950 . S
H746 C743 0.950 . S
C747 C738 1.390 . S
C747 H740 0.950 . S
C747 C744 1.387 . S
C748 C749 1.387 . S
C748 H752 0.950 . S
C748 C757 1.390 . S
C749 C748 1.387 . S
C749 C751 1.387 . S
H750 C757 0.950 . S
C751 C749 1.387 . S
C751 C753 1.390 . S
C751 H755 0.950 . S
H752 C748 0.950 . S
C753 C751 1.390 . S
C753 C754 1.387 . S
C753 H756 0.950 . S
C754 C753 1.387 . S
C754 C757 1.387 . S
H755 C751 0.950 . S
H756 C753 0.950 . S
C757 C748 1.390 . S
C757 H750 0.950 . S
C757 C754 1.387 . S
C758 C759 1.387 . S
C758 H762 0.950 . S
C758 C767 1.390 . S
C759 C758 1.387 . S
C759 C761 1.387 . S
H760 C767 0.950 . S
C761 C759 1.387 . S
C761 C763 1.390 . S
C761 H765 0.950 . S
H762 C758 0.950 . S
C763 C761 1.390 . S
C763 C764 1.387 . S
C763 H766 0.950 . S
C764 C763 1.387 . S
C764 C767 1.387 . S
H765 C761 0.950 . S
H766 C763 0.950 . S
C767 C758 1.390 . S
C767 H760 0.950 . S
C767 C764 1.387 . S
C768 C769 1.387 . S
C768 H772 0.950 . S
C768 C777 1.390 . S
C769 C768 1.387 . S
C769 C771 1.387 . S
H770 C777 0.950 . S
C771 C769 1.387 . S
C771 C773 1.390 . S
C771 H775 0.950 . S
H772 C768 0.950 . S
C773 C771 1.390 . S
C773 C774 1.387 . S
C773 H776 0.950 . S
C774 C773 1.387 . S
C774 C777 1.387 . S
H775 C771 0.950 . S
H776 C773 0.950 . S
C777 C768 1.390 . S
C777 H770 0.950 . S
C777 C774 1.387 . S
C778 C779 1.387 . S
C778 H782 0.950 . S
C778 C787 1.390 . S
C779 C778 1.387 . S
C779 C781 1.387 . S
H780 C787 0.950 . S
C781 C779 1.387 . S
C781 C783 1.390 . S
C781 H785 0.950 . S
H782 C778 0.950 . S
C783 C781 1.390 . S
C783 C784 1.387 . S
C783 H786 0.950 . S
C784 C783 1.387 . S
C784 C787 1.387 . S
H785 C781 0.950 . S
H786 C783 0.950 . S
C787 C778 1.390 . S
C787 H780 0.950 . S
C787 C784 1.387 . S
C788 C789 1.387 . S
C788 H792 0.950 . S
C788 C797 1.390 . S
C789 C788 1.387 . S
C789 C791 1.387 . S
H790 C797 0.950 . S
C791 C789 1.387 . S
C791 C793 1.390 . S
C791 H795 0.950 . S
H792 C788 0.950 . S
C793 C791 1.390 . S
C793 C794 1.387 . S
C793 H796 0.950 . S
C794 C793 1.387 . S
C794 C797 1.387 . S
H795 C791 0.950 . S
H796 C793 0.950 . S
C797 C788 1.390 . S
C797 H790 0.950 . S
C797 C794 1.387 . S
C798 C799 1.387 . S
C798 H802 0.950 . S
C798 C807 1.390 . S
C799 C798 1.387 . S
C799 C801 1.387 . S
H800 C807 0.950 . S
C801 C799 1.387 . S
C801 C803 1.390 . S
C801 H805 0.950 . S
H802 C798 0.950 . S
C803 C801 1.390 . S
C803 C804 1.387 . S
C803 H806 0.950 . S
C804 C803 1.387 . S
C804 C807 1.387 . S
H805 C801 0.950 . S
H806 C803 0.950 . S
C807 C798 1.390 . S
C807 H800 0.950 . S
C807 C804 1.387 . S
C808 C809 1.387 . S
C808 H812 0.950 . S
C808 C817 1.390 . S
C809 C808 1.387 . S
C809 C811 1.387 . S
H810 C817 0.950 . S
C811 C809 1.387 . S
C811 C813 1.390 . S
C811 H815 0.950 . S
H812 C808 0.950 . S
C813 C811 1.390 . S
C813 C814 1.387 . S
C813 H816 0.950 . S
C814 C813 1.387 . S
C814 C817 1.387 . S
H815 C811 0.950 . S
H816 C813 0.950 . S
C817 C808 1.390 . S
C817 H810 0.950 . S
C817 C814 1.387 . S
C818 C819 1.387 . S
C818 H822 0.950 . S
C818 C827 1.390 . S
C819 C818 1.387 . S
C819 C821 1.387 . S
H820 C827 0.950 . S
C821 C819 1.387 . S
C821 C823 1.390 . S
C821 H825 0.950 . S
H822 C818 0.950 . S
C823 C821 1.390 . S
C823 C824 1.387 . S
C823 H826 0.950 . S
C824 C823 1.387 . S
C824 C827 1.387 . S
H825 C821 0.950 . S
H826 C823 0.950 . S
C827 C818 1.390 . S
C827 H820 0.950 . S
C827 C824 1.387 . S
C828 C829 1.387 . S
C828 H832 0.950 . S
C828 C837 1.390 . S
C829 C828 1.387 . S
C829 C831 1.387 . S
H830 C837 0.950 . S
C831 C829 1.387 . S
C831 C833 1.390 . S
C831 H835 0.950 . S
H832 C828 0.950 . S
C833 C831 1.390 . S
C833 C834 1.387 . S
C833 H836 0.950 . S
C834 C833 1.387 . S
C834 C837 1.387 . S
H835 C831 0.950 . S
H836 C833 0.950 . S
C837 C828 1.390 . S
C837 H830 0.950 . S
C837 C834 1.387 . S
C838 C839 1.387 . S
C838 H842 0.950 . S
C838 C847 1.390 . S
C839 C838 1.387 . S
C839 C841 1.387 . S
H840 C847 0.950 . S
C841 C839 1.387 . S
C841 C843 1.390 . S
C841 H845 0.950 . S
H842 C838 0.950 . S
C843 C841 1.390 . S
C843 C844 1.387 . S
C843 H846 0.950 . S
C844 C843 1.387 . S
C844 C847 1.387 . S
H845 C841 0.950 . S
H846 C843 0.950 . S
C847 C838 1.390 . S
C847 H840 0.950 . S
C847 C844 1.387 . S
C848 C849 1.387 . S
C848 H852 0.950 . S
C848 C857 1.390 . S
C849 C848 1.387 . S
C849 C851 1.387 . S
H850 C857 0.950 . S
C851 C849 1.387 . S
C851 C853 1.390 . S
C851 H855 0.950 . S
H852 C848 0.950 . S
C853 C851 1.390 . S
C853 C854 1.387 . S
C853 H856 0.950 . S
C854 C853 1.387 . S
C854 C857 1.387 . S
H855 C851 0.950 . S
H856 C853 0.950 . S
C857 C848 1.390 . S
C857 H850 0.950 . S
C857 C854 1.387 . S
C858 C859 1.387 . S
C858 H862 0.950 . S
C858 C867 1.390 . S
C859 C858 1.387 . S
C859 C861 1.387 . S
H860 C867 0.950 . S
C861 C859 1.387 . S
C861 C863 1.390 . S
C861 H865 0.950 . S
H862 C858 0.950 . S
C863 C861 1.390 . S
C863 C864 1.387 . S
C863 H866 0.950 . S
C864 C863 1.387 . S
C864 C867 1.387 . S
H865 C861 0.950 . S
H866 C863 0.950 . S
C867 C858 1.390 . S
C867 H860 0.950 . S
C867 C864 1.387 . S
C868 C869 1.387 . S
C868 H872 0.950 . S
C868 C877 1.390 . S
C869 C868 1.387 . S
C869 C871 1.387 . S
H870 C877 0.950 . S
C871 C869 1.387 . S
C871 C873 1.390 . S
C871 H875 0.950 . S
H872 C868 0.950 . S
C873 C871 1.390 . S
C873 C874 1.387 . S
C873 H876 0.950 . S
C874 C873 1.387 . S
C874 C877 1.387 . S
H875 C871 0.950 . S
H876 C873 0.950 . S
C877 C868 1.390 . S
C877 H870 0.950 . S
C877 C874 1.387 . S
C878 C879 1.387 . S
C878 H882 0.950 . S
C878 C887 1.390 . S
C879 C878 1.387 . S
C879 C881 1.387 . S
H880 C887 0.950 . S
C881 C879 1.387 . S
C881 C883 1.390 . S
C881 H885 0.950 . S
H882 C878 0.950 . S
C883 C881 1.390 . S
C883 C884 1.387 . S
C883 H886 0.950 . S
C884 C883 1.387 . S
C884 C887 1.387 . S
H885 C881 0.950 . S
H886 C883 0.950 . S
C887 C878 1.390 . S
C887 H880 0.950 . S
C887 C884 1.387 . S
C888 C889 1.387 . S
C888 H892 0.950 . S
C888 C897 1.390 . S
C889 C888 1.387 . S
C889 C891 1.387 . S
H890 C897 0.950 . S
C891 C889 1.387 . S
C891 C893 1.390 . S
C891 H895 0.950 . S
H892 C888 0.950 . S
C893 C891 1.390 . S
C893 C894 1.387 . S
C893 H896 0.950 . S
C894 C893 1.387 . S
C894 C897 1.387 . S
H895 C891 0.950 . S
H896 C893 0.950 . S
C897 C888 1.390 . S
C897 H890 0.950 . S
C897 C894 1.387 . S
C898 C899 1.387 . S
C898 H902 0.950 . S
C898 C907 1.390 . S
C899 C898 1.387 . S
C899 C901 1.387 . S
H900 C907 0.950 . S
C901 C899 1.387 . S
C901 C903 1.390 . S
C901 H905 0.950 . S
H902 C898 0.950 . S
C903 C901 1.390 . S
C903 C904 1.387 . S
C903 H906 0.950 . S
C904 C903 1.387 . S
C904 C907 1.387 . S
H905 C901 0.950 . S
H906 C903 0.950 . S
C907 C898 1.390 . S
C907 H900 0.950 . S
C907 C904 1.387 . S
C908 C909 1.387 . S
C908 H912 0.950 . S
C908 C917 1.390 . S
C909 C908 1.387 . S
C909 C911 1.387 . S
H910 C917 0.950 . S
C911 C909 1.387 . S
C911 C913 1.390 . S
C911 H915 0.950 . S
H912 C908 0.950 . S
C913 C911 1.390 . S
C913 C914 1.387 . S
C913 H916 0.950 . S
C914 C913 1.387 . S
C914 C917 1.387 . S
H915 C911 0.950 . S
H916 C913 0.950 . S
C917 C908 1.390 . S
C917 H910 0.950 . S
C917 C914 1.387 . S
C918 C919 1.387 . S
C918 H922 0.950 . S
C918 C927 1.390 . S
C919 C918 1.387 . S
C919 C921 1.387 . S
H920 C927 0.950 . S
C921 C919 1.387 . S
C921 C923 1.390 . S
C921 H925 0.950 . S
H922 C918 0.950 . S
C923 C921 1.390 . S
C923 C924 1.387 . S
C923 H926 0.950 . S
C924 C923 1.387 . S
C924 C927 1.387 . S
H925 C921 0.950 . S
H926 C923 0.950 . S
C927 C918 1.390 . S
C927 H920 0.950 . S
C927 C924 1.387 . S
C614 C213 1.566 . S
C609 C16 1.584 . S
C624 C266 1.341 . S
C619 C30 1.345 . S
C634 C329 1.637 . S
C629 C53 1.639 . S
C644 C372 1.325 . S
C639 C76 1.330 . S
C649 N104 1.476 . S
C654 C328 1.543 . S
C664 C365 1.320 . S
C659 N127 1.270 . S
C674 C206 1.453 . S
C669 N140 1.424 . S
C684 C259 1.198 . S
C679 N173 1.168 . S
C694 C312 1.525 . S
C689 C168 1.524 . S
C704 C381 1.882 . S
C699 C99 1.881 . S
C714 C222 1.608 . S
C709 C122 1.606 . S
C724 C275 1.768 . S
C719 C154 1.755 . S
C734 C223 1.537 . S
C729 N35 1.486 . S
C744 C276 1.747 . S
C739 N58 1.697 . S
C754 C319 1.462 . S
C749 N81 1.425 . S
C764 C382 1.695 . S
C759 N2 1.662 . S
C774 C425 1.520 . S
C769 C177 1.538 . S
C779 C108 1.730 . S
C784 C478 1.721 . S
C789 C131 1.687 . S
C794 C540 1.674 . S
C799 C145 1.740 . S
C804 C594 1.737 . S
C809 N25 1.491 . S
C814 C541 1.523 . S
C819 N48 1.664 . S
C824 C593 1.725 . S
C829 N71 1.472 . S
C834 C418 1.504 . S
C844 C471 1.559 . S
C839 N12 1.517 . S
C854 C531 1.506 . S
C849 C7 1.504 . S
C859 C39 1.403 . S
C864 C577 1.416 . S
C869 C62 1.648 . S
C874 C434 1.652 . S
C879 C85 1.324 . S
C884 C487 1.329 . S
C894 C435 1.504 . S
C889 N94 1.484 . S
C904 C488 1.370 . S
C899 N117 1.328 . S
C909 N150 1.441 . S
C914 C524 1.480 . S
C924 C584 1.272 . S
C919 N163 1.231 . S
