# Generated by pormake.
# Topology ssa, (4,4)-cn, num edge types: 1
# Building blocks:
#     Node 0, Type 0, BuildingBlock: KOZSID_clean_sbu_0, # of connection points: 4
#     Node 1, Type 0, BuildingBlock: KOZSID_clean_sbu_0, # of connection points: 4
#     Node 2, Type 0, BuildingBlock: KOZSID_clean_sbu_0, # of connection points: 4
#     Node 3, Type 0, BuildingBlock: KOZSID_clean_sbu_0, # of connection points: 4
#     Node 4, Type 0, BuildingBlock: KOZSID_clean_sbu_0, # of connection points: 4
#     Node 5, Type 0, BuildingBlock: KOZSID_clean_sbu_0, # of connection points: 4
#     Node 6, Type 1, BuildingBlock: KOZSID_clean_sbu_0, # of connection points: 4
#     Node 7, Type 1, BuildingBlock: KOZSID_clean_sbu_0, # of connection points: 4
#     Node 8, Type 1, BuildingBlock: KOZSID_clean_sbu_0, # of connection points: 4
#     Node 9, Type 1, BuildingBlock: KOZSID_clean_sbu_0, # of connection points: 4
#     Node 10, Type 1, BuildingBlock: KOZSID_clean_sbu_0, # of connection points: 4
#     Node 11, Type 1, BuildingBlock: KOZSID_clean_sbu_0, # of connection points: 4
#     Edge 12, Type (0, 1), None
#     Edge 13, Type (0, 1), None
#     Edge 14, Type (0, 1), None
#     Edge 15, Type (0, 1), None
#     Edge 16, Type (0, 1), None
#     Edge 17, Type (0, 1), None
#     Edge 18, Type (0, 1), None
#     Edge 19, Type (0, 1), None
#     Edge 20, Type (0, 1), None
#     Edge 21, Type (0, 1), None
#     Edge 22, Type (0, 1), None
#     Edge 23, Type (0, 1), None
#     Edge 24, Type (0, 1), None
#     Edge 25, Type (0, 1), None
#     Edge 26, Type (0, 1), None
#     Edge 27, Type (0, 1), None
#     Edge 28, Type (0, 1), None
#     Edge 29, Type (0, 1), None
#     Edge 30, Type (0, 1), None
#     Edge 31, Type (0, 1), None
#     Edge 32, Type (0, 1), None
#     Edge 33, Type (0, 1), None
#     Edge 34, Type (0, 1), None
#     Edge 35, Type (0, 1), None
# Relax obj value: 0.022
# Max RMSD: 0.054
# Mean RMSD: 0.028
data_MOF--net-ssa--node1-KOZSID_clean_sbu_0--node2-KOZSID_clean_sbu_0--edge1-none
_symmetry_space_group_name_H-M    P1
_symmetry_Int_Tables_number       1
_symmetry_cell_setting            triclinic
loop_
_symmetry_equiv_pos_as_xyz
'x, y, z'
_cell_length_a     31.347485
_cell_length_b     32.506212
_cell_length_c     22.431181
_cell_angle_alpha  90.622827
_cell_angle_beta   95.840592
_cell_angle_gamma 123.84103
loop_
_atom_site_label
_atom_site_type_symbol
_atom_site_fract_x
_atom_site_fract_y
_atom_site_fract_z
_atom_type_partial_charge
C0 C 0.91675 0.51304 1.00345 0.0
C1 C 0.87894 0.50459 0.03857 0.0
C2 C 0.88527 0.48418 0.08874 0.0
C3 C 0.92723 0.48235 0.08264 0.0
N4 N 0.94888 0.50121 0.03211 0.0
Co5 Co 0.01277 0.50743 0.00921 0.0
N6 N 0.01997 0.47382 0.08135 0.0
C7 C 0.98823 0.45688 0.12457 0.0
C8 C 1.00328 0.43853 0.1707 0.0
C9 C 0.04754 0.44427 0.15664 0.0
C10 C 0.05711 0.4654 0.10187 0.0
N11 N 0.07667 0.51364 0.98632 0.0
C12 C 0.10881 0.50183 0.015 0.0
C13 C 0.14662 0.51029 0.97988 0.0
C14 C 0.14028 0.53067 0.92969 0.0
C15 C 0.0983 0.53248 0.93578 0.0
N16 N 1.00557 0.54103 0.93708 0.0
C17 C 0.0373 0.55796 0.89385 0.0
C18 C 0.02226 0.57632 0.84773 0.0
C19 C 0.97802 0.57061 0.8618 0.0
C20 C 0.96846 0.54948 0.91658 0.0
N21 N 0.05765 0.5727 0.05618 0.0
C22 C 0.13018 0.65988 0.1285 0.0
C23 C 0.13646 0.65511 0.06896 0.0
C24 C 0.09948 0.61155 0.03345 0.0
C25 C 0.0859 0.62227 0.15059 0.0
C26 C 0.05016 0.57922 0.11374 0.0
N27 N 0.96789 0.44215 0.96225 0.0
C28 C 0.9396 0.39261 0.86781 0.0
C29 C 0.89531 0.35501 0.88989 0.0
C30 C 0.88904 0.35977 0.94945 0.0
C31 C 0.92605 0.4033 0.98497 0.0
C32 C 0.97536 0.43563 0.90468 0.0
H33 H 0.91903 0.40533 0.02995 0.0
H34 H 1.00764 0.46353 0.88478 0.0
H35 H 0.10651 0.60951 0.98848 0.0
H36 H 0.01789 0.55131 0.13365 0.0
C37 C 0.94671 0.46215 0.12281 0.0
C38 C 0.92065 0.53328 0.94371 0.0
C39 C 0.10493 0.48163 0.07476 0.0
C40 C 0.07883 0.55269 0.89561 0.0
H41 H 0.84913 0.51158 0.0283 0.0
H42 H 0.86174 0.47173 0.12514 0.0
H43 H 0.98536 0.4245 0.21109 0.0
H44 H 0.07115 0.43566 0.18502 0.0
H45 H 0.17644 0.50332 0.99017 0.0
H46 H 0.16381 0.54312 0.8933 0.0
H47 H 0.04019 0.59036 0.80734 0.0
H48 H 0.95442 0.57924 0.83344 0.0
H49 H 0.17057 0.68404 0.05064 0.0
H50 H 0.08008 0.6252 0.19687 0.0
H51 H 0.9454 0.38967 0.82153 0.0
H52 H 0.85493 0.33084 0.96776 0.0
C53 C 0.60343 0.04735 0.60946 0.0
C54 C 0.61626 0.03643 0.66561 0.0
C55 C 0.57414 0.9919 0.6771 0.0
C56 C 0.53772 0.97854 0.62839 0.0
N57 N 0.55437 0.01117 0.58553 0.0
Co58 Co 0.51268 0.00757 0.50911 0.0
N59 N 0.44913 0.94556 0.53019 0.0
C60 C 0.44369 0.92256 0.58142 0.0
C61 C 0.39482 0.8812 0.5834 0.0
C62 C 0.36767 0.87685 0.52951 0.0
C63 C 0.40211 0.9156 0.49744 0.0
N64 N 0.47099 1.00396 0.43269 0.0
C65 C 0.42193 0.96779 0.40877 0.0
C66 C 0.40909 0.97871 0.35262 0.0
C67 C 0.45121 0.02323 0.34112 0.0
C68 C 0.48764 0.0366 0.38984 0.0
N69 N 0.57623 0.06959 0.48804 0.0
C70 C 0.58167 0.09259 0.43681 0.0
C71 C 0.63053 0.13396 0.43484 0.0
C72 C 0.65768 0.13831 0.48874 0.0
C73 C 0.62325 0.09956 0.5208 0.0
N74 N 0.53239 0.96573 0.46648 0.0
C75 C 0.5581 0.9051 0.40531 0.0
C76 C 0.56127 0.94575 0.37959 0.0
C77 C 0.54845 0.97507 0.41034 0.0
C78 C 0.54175 0.89567 0.46252 0.0
C79 C 0.52961 0.92609 0.49203 0.0
N80 N 0.49297 0.04942 0.55175 0.0
C81 C 0.48366 0.1195 0.55573 0.0
C82 C 0.46733 0.11009 0.61295 0.0
C83 C 0.46414 0.06942 0.63867 0.0
C84 C 0.47693 0.04008 0.6079 0.0
C85 C 0.49577 0.08907 0.52621 0.0
H86 H 0.47449 0.01048 0.63113 0.0
H87 H 0.50858 0.0991 0.4831 0.0
H88 H 0.55088 1.00466 0.3871 0.0
H89 H 0.51678 0.91604 0.53513 0.0
C90 C 0.48608 0.93869 0.62482 0.0
C91 C 0.63584 0.09496 0.58379 0.0
C92 C 0.38952 0.92018 0.43445 0.0
C93 C 0.53928 0.07645 0.3934 0.0
H94 H 0.65128 0.05908 0.69672 0.0
H95 H 0.56962 0.9729 0.71769 0.0
H96 H 0.38111 0.85621 0.61886 0.0
H97 H 0.32779 0.84726 0.51417 0.0
H98 H 0.37407 0.95606 0.32151 0.0
H99 H 0.45574 0.04223 0.30053 0.0
H100 H 0.64424 0.15894 0.39938 0.0
H101 H 0.69756 0.16791 0.50407 0.0
H102 H 0.57214 0.95406 0.33476 0.0
H103 H 0.53703 0.86396 0.48404 0.0
H104 H 0.48838 0.15122 0.53422 0.0
H105 H 0.45329 0.06111 0.6835 0.0
C106 C 0.60725 0.56307 0.94085 0.0
C107 C 0.62459 0.59162 0.89214 0.0
C108 C 0.58622 0.59702 0.86903 0.0
C109 C 0.54771 0.57148 0.90454 0.0
N110 N 0.55922 0.55037 0.94937 0.0
Co111 Co 0.51288 0.50764 0.00924 0.0
N112 N 0.45533 0.51313 0.97269 0.0
C113 C 0.45548 0.53753 0.92422 0.0
C114 C 0.41049 0.53502 0.90983 0.0
C115 C 0.37988 0.50783 0.95211 0.0
C116 C 0.40824 0.4955 0.99003 0.0
N117 N 0.46654 0.46491 0.0691 0.0
C118 C 0.41849 0.45218 0.07759 0.0
C119 C 0.40114 0.4236 0.12628 0.0
C120 C 0.43953 0.41821 0.14939 0.0
C121 C 0.47805 0.44378 0.11391 0.0
N122 N 0.57043 0.50216 0.04578 0.0
C123 C 0.5703 0.47778 0.09427 0.0
C124 C 0.61529 0.4803 0.10867 0.0
C125 C 0.6459 0.50748 0.06639 0.0
C126 C 0.61753 0.5198 0.02846 0.0
N127 N 0.54045 0.56905 0.06546 0.0
C128 C 0.57219 0.65346 0.14576 0.0
C129 C 0.56812 0.61112 0.16674 0.0
C130 C 0.55287 0.57007 0.12638 0.0
C131 C 0.56174 0.65318 0.08339 0.0
C132 C 0.54619 0.61127 0.04461 0.0
N133 N 0.48531 0.44624 0.95301 0.0
C134 C 0.46404 0.36212 0.93506 0.0
C135 C 0.45353 0.36182 0.8727 0.0
C136 C 0.45757 0.40415 0.85173 0.0
C137 C 0.47283 0.4452 0.8921 0.0
C138 C 0.47961 0.40403 0.97385 0.0
H139 H 0.47583 0.47637 0.87262 0.0
H140 H 0.48853 0.40203 0.0205 0.0
H141 H 0.54984 0.53889 0.14587 0.0
H142 H 0.53732 0.61328 0.99795 0.0
C143 C 0.49921 0.56417 0.89472 0.0
C144 C 0.63623 0.54623 0.97502 0.0
C145 C 0.38952 0.46902 0.04344 0.0
C146 C 0.52656 0.45112 0.12375 0.0
H147 H 0.66062 0.60608 0.87398 0.0
H148 H 0.58582 0.61606 0.82989 0.0
H149 H 0.40144 0.55179 0.87365 0.0
H150 H 0.3414 0.49883 0.9555 0.0
H151 H 0.36511 0.40912 0.14443 0.0
H152 H 0.43992 0.39916 0.18852 0.0
H153 H 0.62435 0.46353 0.14486 0.0
H154 H 0.68437 0.51649 0.063 0.0
H155 H 0.57424 0.60862 0.21462 0.0
H156 H 0.56267 0.68424 0.06479 0.0
H157 H 0.46314 0.33106 0.95364 0.0
H158 H 0.4514 0.40663 0.80386 0.0
C159 C 0.9205 0.39906 0.51575 0.0
C160 C 0.87524 0.3614 0.48132 0.0
C161 C 0.86995 0.38083 0.42966 0.0
C162 C 0.91249 0.42887 0.43474 0.0
N163 N 0.94539 0.44111 0.48588 0.0
Co164 Co 0.01276 0.50749 0.50917 0.0
N165 N 1.00376 0.53731 0.4344 0.0
C166 C 0.96294 0.51363 0.3905 0.0
C167 C 0.96879 0.54069 0.34192 0.0
C168 C 0.01637 0.58415 0.35503 0.0
C169 C 0.03708 0.58163 0.41153 0.0
N170 N 0.08014 0.57386 0.53246 0.0
C171 C 0.10503 0.61591 0.50259 0.0
C172 C 0.15029 0.65357 0.53702 0.0
C173 C 0.15559 0.63414 0.58867 0.0
C174 C 0.11306 0.5861 0.58359 0.0
N175 N 0.02176 0.47767 0.58395 0.0
C176 C 0.06257 0.50135 0.62787 0.0
C177 C 0.0567 0.47431 0.67646 0.0
C178 C 1.00912 0.43085 0.66334 0.0
C179 C 0.98843 0.43336 0.60683 0.0
N180 N 0.04988 0.486 0.46582 0.0
C181 C 0.11017 0.47352 0.39397 0.0
C182 C 0.13009 0.49516 0.45256 0.0
C183 C 0.09885 0.49988 0.48818 0.0
C184 C 0.05879 0.45474 0.37325 0.0
C185 C 0.02951 0.46143 0.40969 0.0
N186 N 0.97565 0.52897 0.55253 0.0
C187 C 0.96682 0.56034 0.64507 0.0
C188 C 0.9154 0.54147 0.62444 0.0
C189 C 0.89542 0.51973 0.56589 0.0
C190 C 0.92663 0.51501 0.53024 0.0
C191 C 0.99607 0.55363 0.60861 0.0
H192 H 0.90974 0.49846 0.48567 0.0
H193 H 0.0343 0.56703 0.62795 0.0
H194 H 0.1157 0.51636 0.53279 0.0
H195 H 0.99131 0.44811 0.39029 0.0
C196 C 0.92236 0.46395 0.39304 0.0
C197 C 0.93613 0.39366 0.57793 0.0
C198 C 0.08939 0.62132 0.44042 0.0
C199 C 0.10316 0.55103 0.62532 0.0
H200 H 0.84807 0.324 0.49297 0.0
H201 H 0.83839 0.36236 0.39319 0.0
H202 H 0.94259 0.5292 0.30052 0.0
H203 H 0.03413 0.61339 0.32507 0.0
H204 H 0.17745 0.69098 0.52538 0.0
H205 H 0.18714 0.65261 0.62515 0.0
H206 H 0.08289 0.4858 0.71787 0.0
H207 H 0.99135 0.4016 0.6933 0.0
H208 H 0.16971 0.50913 0.47028 0.0
H209 H 0.04209 0.43725 0.32799 0.0
H210 H 0.98356 0.57791 0.69029 0.0
H211 H 0.85577 0.5057 0.54823 0.0
C212 C 0.46596 0.98063 0.12973 0.0
C213 C 0.47689 1.00006 0.18883 0.0
C214 C 0.52178 0.04637 0.19271 0.0
C215 C 0.53612 0.05277 0.13601 0.0
N216 N 0.50302 0.01344 0.09585 0.0
Co217 Co 0.51265 0.00751 0.0091 0.0
N218 N 0.58001 0.07526 0.0153 0.0
C219 C 0.6033 0.10695 0.06543 0.0
C220 C 0.6481 0.15109 0.05713 0.0
C221 C 0.65377 0.14774 0.99802 0.0
C222 C 0.61188 0.10162 0.97313 0.0
N223 N 0.52228 1.00158 0.92236 0.0
C224 C 0.55936 0.03438 0.88849 0.0
C225 C 0.54844 0.01494 0.82939 0.0
C226 C 0.50355 0.96863 0.82551 0.0
C227 C 0.48919 0.96224 0.88221 0.0
N228 N 0.44528 0.93977 1.0029 0.0
C229 C 0.42198 0.90809 0.95277 0.0
C230 C 0.37717 0.86395 0.96107 0.0
C231 C 0.37151 0.86729 0.02018 0.0
C232 C 0.41341 0.9134 0.04507 0.0
N233 N 0.47482 0.03825 0.9845 0.0
C234 C 0.44467 0.0969 0.93048 0.0
C235 C 0.42495 0.04919 0.90519 0.0
C236 C 0.43987 0.02032 0.93339 0.0
C237 C 0.47341 0.11158 0.98751 0.0
C238 C 0.48764 0.08159 0.01381 0.0
N239 N 0.55048 0.97678 0.0337 0.0
C240 C 0.55186 0.90343 0.03077 0.0
C241 C 0.58067 0.91817 0.08776 0.0
C242 C 0.60043 0.96591 0.11298 0.0
C243 C 0.58548 0.99475 0.08477 0.0
C244 C 0.53762 0.9334 1.00445 0.0
H245 H 0.60027 0.0301 0.10698 0.0
H246 H 0.51384 0.91938 0.96216 0.0
H247 H 0.42511 0.985 0.91113 0.0
H248 H 0.51136 0.09557 0.05613 0.0
C249 C 0.58133 0.09452 0.11929 0.0
C250 C 0.42066 0.93012 0.10902 0.0
C251 C 0.60466 0.08489 0.90919 0.0
C252 C 0.44396 0.92051 0.89891 0.0
H253 H 0.45512 0.9821 0.22563 0.0
H254 H 0.54207 0.07194 0.23251 0.0
H255 H 0.67344 0.18227 0.09006 0.0
H256 H 0.68514 0.17619 0.97566 0.0
H257 H 0.57022 0.03289 0.7926 0.0
H258 H 0.48326 0.94305 0.78572 0.0
H259 H 0.35183 0.83278 0.92813 0.0
H260 H 0.34015 0.83884 0.04255 0.0
H261 H 0.40155 0.03559 0.8616 0.0
H262 H 0.48761 0.14739 0.01009 0.0
H263 H 0.53764 0.8676 1.00824 0.0
H264 H 0.62387 0.97955 0.15655 0.0
C265 C 0.52745 0.60913 0.51344 0.0
C266 C 0.517 0.63814 0.54646 0.0
C267 C 0.49255 0.61154 0.59285 0.0
C268 C 0.48977 0.56813 0.5857 0.0
N269 N 0.5122 0.56586 0.53857 0.0
Co270 Co 0.51295 0.5077 0.50924 0.0
N271 N 0.46901 0.46514 0.57089 0.0
C272 C 0.44937 0.47849 0.61218 0.0
C273 C 0.42595 0.44414 0.65309 0.0
C274 C 0.43192 0.40706 0.63804 0.0
C275 C 0.45846 0.42068 0.58809 0.0
N276 N 0.5137 0.44954 0.47991 0.0
C277 C 0.49839 0.40625 0.505 0.0
C278 C 0.50878 0.37721 0.47194 0.0
C279 C 0.53323 0.40382 0.42555 0.0
C280 C 0.53608 0.44726 0.43274 0.0
N281 N 0.5569 0.55026 0.44761 0.0
C282 C 0.57656 0.53693 0.40635 0.0
C283 C 0.60002 0.5713 0.36546 0.0
C284 C 0.59404 0.60837 0.3805 0.0
C285 C 0.56746 0.59473 0.43041 0.0
N286 N 0.57716 0.52984 0.56863 0.0
C287 C 0.66038 0.54612 0.65593 0.0
C288 C 0.65831 0.5356 0.59442 0.0
C289 C 0.61728 0.52811 0.55212 0.0
C290 C 0.62096 0.55051 0.6722 0.0
C291 C 0.58049 0.54262 0.62852 0.0
N292 N 0.44873 0.48556 0.44986 0.0
C293 C 0.40494 0.46492 0.34629 0.0
C294 C 0.36545 0.4692 0.36259 0.0
C295 C 0.36751 0.47967 0.42412 0.0
C296 C 0.40856 0.48719 0.4664 0.0
C297 C 0.44543 0.47285 0.38995 0.0
H298 H 0.40782 0.49581 0.51224 0.0
H299 H 0.47458 0.46993 0.37374 0.0
H300 H 0.618 0.51944 0.50629 0.0
H301 H 0.55139 0.54563 0.6447 0.0
C302 C 0.4607 0.52651 0.61734 0.0
C303 C 0.54938 0.62306 0.45685 0.0
C304 C 0.47649 0.39233 0.5616 0.0
C305 C 0.56519 0.48889 0.40114 0.0
H306 H 0.5245 0.67398 0.53664 0.0
H307 H 0.47627 0.62151 0.62591 0.0
H308 H 0.40971 0.44728 0.69186 0.0
H309 H 0.42036 0.37509 0.66332 0.0
H310 H 0.50124 0.34136 0.48172 0.0
H311 H 0.54949 0.39383 0.39246 0.0
H312 H 0.61628 0.56816 0.3267 0.0
H313 H 0.60561 0.64035 0.35523 0.0
H314 H 0.68753 0.53154 0.57908 0.0
H315 H 0.62027 0.55833 0.71903 0.0
H316 H 0.40565 0.45716 0.29944 0.0
H317 H 0.33823 0.48364 0.43948 0.0
C318 C 0.19803 0.52323 0.12036 0.0
C319 C 0.21428 0.57025 0.1028 0.0
C320 C 0.26277 0.60286 0.13224 0.0
C321 C 0.27303 0.57486 0.16812 0.0
N322 N 0.23548 0.52574 0.16069 0.0
Co323 Co 0.23918 0.47263 0.20162 0.0
N324 N 0.30558 0.52221 0.25436 0.0
C325 C 0.33002 0.57206 0.25645 0.0
C326 C 0.37109 0.59711 0.30099 0.0
C327 C 0.37417 0.56133 0.32793 0.0
C328 C 0.3342 0.51614 0.29907 0.0
N329 N 0.24401 0.41964 0.2412 0.0
C330 C 0.28062 0.42279 0.28377 0.0
C331 C 0.26917 0.37607 0.29508 0.0
C332 C 0.22436 0.34242 0.25857 0.0
C333 C 0.21078 0.37023 0.22688 0.0
N334 N 0.17124 0.42351 0.15105 0.0
C335 C 0.14614 0.37355 0.14919 0.0
C336 C 0.09852 0.34865 0.11493 0.0
C337 C 0.0923 0.38478 0.09465 0.0
C338 C 0.13638 0.43017 0.11818 0.0
N339 N 0.27915 0.47147 0.13877 0.0
C340 C 0.34855 0.46956 0.07063 0.0
C341 C 0.30079 0.42602 0.07633 0.0
C342 C 0.26649 0.4279 0.10988 0.0
C343 C 0.35874 0.51432 0.0941 0.0
C344 C 0.32385 0.51441 0.12774 0.0
N345 N 0.20002 0.47332 0.26447 0.0
C346 C 0.13243 0.42883 0.32736 0.0
C347 C 0.14331 0.47343 0.35263 0.0
C348 C 0.18293 0.51804 0.33378 0.0
C349 C 0.21036 0.51711 0.28931 0.0
C350 C 0.16154 0.42963 0.284 0.0
H351 H 0.23911 0.55205 0.27505 0.0
H352 H 0.15178 0.39448 0.26633 0.0
H353 H 0.2309 0.39351 0.11315 0.0
H354 H 0.33483 0.54945 0.1462 0.0
C355 C 0.31407 0.5941 0.21477 0.0
C356 C 0.14453 0.47859 0.10431 0.0
C357 C 0.32633 0.46891 0.3154 0.0
C358 C 0.16642 0.35136 0.18466 0.0
H359 H 0.19255 0.58104 0.07478 0.0
H360 H 0.28596 0.64289 0.13136 0.0
H361 H 0.39549 0.63659 0.3129 0.0
H362 H 0.40232 0.56738 0.36492 0.0
H363 H 0.29096 0.36731 0.32664 0.0
H364 H 0.20396 0.30235 0.25568 0.0
H365 H 0.07085 0.30884 0.10705 0.0
H366 H 0.05888 0.37847 0.06608 0.0
H367 H 0.29081 0.39063 0.0568 0.0
H368 H 0.39448 0.54899 0.08834 0.0
H369 H 0.10138 0.39357 0.34069 0.0
H370 H 0.19144 0.55331 0.35175 0.0
C371 C 0.67519 0.17939 0.62974 0.0
C372 C 0.63825 0.18627 0.6012 0.0
C373 C 0.64842 0.22961 0.6262 0.0
C374 C 0.6889 0.24543 0.67047 0.0
N375 N 0.70754 0.21665 0.67287 0.0
Co376 Co 0.76668 0.22696 0.7304 0.0
N377 N 0.77657 0.28659 0.77254 0.0
C378 C 0.7533 0.30976 0.75443 0.0
C379 C 0.77684 0.35647 0.7814 0.0
C380 C 0.81663 0.36323 0.82084 0.0
C381 C 0.81536 0.32007 0.81478 0.0
N382 N 0.82424 0.23553 0.78907 0.0
C383 C 0.85372 0.27013 0.83558 0.0
C384 C 0.88901 0.2622 0.86611 0.0
C385 C 0.88221 0.22152 0.83696 0.0
C386 C 0.84316 0.20698 0.79083 0.0
N387 N 0.7585 0.16871 0.68629 0.0
C388 C 0.78974 0.15234 0.69495 0.0
C389 C 0.77521 0.11231 0.65656 0.0
C390 C 0.73154 0.102 0.62188 0.0
C391 C 0.72148 0.13602 0.64203 0.0
N392 N 0.8186 0.27393 0.67585 0.0
C393 C 0.89646 0.35179 0.61248 0.0
C394 C 0.90434 0.31803 0.64189 0.0
C395 C 0.86564 0.28022 0.67363 0.0
C396 C 0.84811 0.34404 0.61371 0.0
C397 C 0.81015 0.30492 0.64323 0.0
N398 N 0.71518 0.1815 0.78586 0.0
C399 C 0.67635 0.10793 0.84326 0.0
C400 C 0.64295 0.11838 0.86615 0.0
C401 C 0.64654 0.16118 0.84729 0.0
C402 C 0.68217 0.19164 0.8075 0.0
C403 C 0.71188 0.13962 0.80404 0.0
H404 H 0.68271 0.22359 0.79473 0.0
H405 H 0.7366 0.12966 0.78891 0.0
H406 H 0.87467 0.25661 0.69622 0.0
H407 H 0.77437 0.30137 0.63869 0.0
C408 C 0.71228 0.28865 0.70828 0.0
C409 C 0.67568 0.13511 0.61871 0.0
C410 C 0.85305 0.31353 0.84857 0.0
C411 C 0.82726 0.17028 0.74498 0.0
H412 H 0.60631 0.16231 0.56685 0.0
H413 H 0.62767 0.24674 0.61468 0.0
H414 H 0.76769 0.3832 0.77089 0.0
H415 H 0.84485 0.39689 0.84888 0.0
H416 H 0.91801 0.28471 0.90398 0.0
H417 H 0.90447 0.20568 0.84672 0.0
H418 H 0.79278 0.09159 0.65585 0.0
H419 H 0.70849 0.07173 0.58721 0.0
H420 H 0.94025 0.32075 0.64066 0.0
H421 H 0.83909 0.36813 0.59115 0.0
H422 H 0.6754 0.07542 0.85602 0.0
H423 H 0.62163 0.17112 0.86303 0.0
C424 C 0.5244 0.68378 0.19733 0.0
C425 C 0.47745 0.64417 0.16846 0.0
C426 C 0.44053 0.65056 0.18335 0.0
C427 C 0.46632 0.69236 0.22211 0.0
N428 N 0.51814 0.71473 0.23099 0.0
Co429 Co 0.56958 0.77852 0.28199 0.0
N430 N 0.51417 0.78715 0.30398 0.0
C431 C 0.46424 0.7595 0.27864 0.0
C432 C 0.43822 0.78132 0.28525 0.0
C433 C 0.47236 0.82457 0.31962 0.0
C434 C 0.51796 0.82703 0.33145 0.0
N435 N 0.6201 0.8413 0.33566 0.0
C436 C 0.61285 0.87232 0.36864 0.0
C437 C 0.65927 0.91113 0.39944 0.0
C438 C 0.697 0.905 0.38506 0.0
C439 C 0.67173 0.86268 0.34655 0.0
N440 N 0.62489 0.77105 0.2568 0.0
C441 C 0.6763 0.8034 0.27337 0.0
C442 C 0.70544 0.78972 0.2487 0.0
C443 C 0.67051 0.7462 0.21405 0.0
C444 C 0.62176 0.73545 0.21955 0.0
N445 N 0.57715 0.81832 0.21233 0.0
C446 C 0.58266 0.88172 0.12474 0.0
C447 C 0.626 0.89559 0.16566 0.0
C448 C 0.62259 0.86327 0.20832 0.0
C449 C 0.53816 0.83395 0.12494 0.0
C450 C 0.53643 0.80303 0.16832 0.0
N451 N 0.56294 0.73852 0.35126 0.0
C452 C 0.60234 0.70768 0.41891 0.0
C453 C 0.55393 0.66595 0.42649 0.0
C454 C 0.51014 0.66466 0.40255 0.0
C455 C 0.51543 0.70121 0.36498 0.0
C456 C 0.60595 0.74342 0.38179 0.0
H457 H 0.48101 0.69814 0.34556 0.0
H458 H 0.64408 0.77343 0.37646 0.0
H459 H 0.65687 0.87619 0.23844 0.0
H460 H 0.50097 0.76764 0.166 0.0
C461 C 0.44421 0.71566 0.24343 0.0
C462 C 0.57363 0.69107 0.18836 0.0
C463 C 0.5635 0.86834 0.36905 0.0
C464 C 0.69538 0.84437 0.31521 0.0
H465 H 0.47086 0.61484 0.13769 0.0
H466 H 0.40036 0.62933 0.16476 0.0
H467 H 0.40004 0.76859 0.26402 0.0
H468 H 0.46508 0.85202 0.33281 0.0
H469 H 0.66534 0.94154 0.42785 0.0
H470 H 0.73822 0.92944 0.39948 0.0
H471 H 0.74714 0.80877 0.2557 0.0
H472 H 0.67973 0.7246 0.18791 0.0
H473 H 0.66188 0.9318 0.16606 0.0
H474 H 0.50346 0.82125 0.09405 0.0
H475 H 0.63739 0.71153 0.43925 0.0
H476 H 0.47219 0.6349 0.41141 0.0
C477 C 0.74519 0.59243 0.73479 0.0
C478 C 0.75669 0.63918 0.72352 0.0
C479 C 0.80151 0.67279 0.76004 0.0
C480 C 0.81505 0.64493 0.79168 0.0
N481 N 0.78179 0.59553 0.77733 0.0
Co482 Co 0.78653 0.54249 0.81689 0.0
N483 N 0.85447 0.59154 0.86748 0.0
C484 C 0.87962 0.64151 0.86937 0.0
C485 C 0.92724 0.66636 0.90364 0.0
C486 C 0.93339 0.63019 0.9239 0.0
C487 C 0.88929 0.58483 0.90034 0.0
N488 N 0.79013 0.48932 0.8578 0.0
C489 C 0.82755 0.49177 0.89811 0.0
C490 C 0.81126 0.44473 0.91563 0.0
C491 C 0.76276 0.41217 0.88619 0.0
C492 C 0.75255 0.44021 0.85034 0.0
N493 N 0.72012 0.49297 0.76412 0.0
C494 C 0.69562 0.44311 0.76201 0.0
C495 C 0.65452 0.4181 0.7175 0.0
C496 C 0.65149 0.45392 0.6906 0.0
C497 C 0.69151 0.49909 0.71944 0.0
N498 N 0.82567 0.54176 0.75404 0.0
C499 C 0.88231 0.54159 0.66582 0.0
C500 C 0.84265 0.497 0.68466 0.0
C501 C 0.81526 0.49795 0.72916 0.0
C502 C 0.89326 0.58621 0.69115 0.0
C503 C 0.86418 0.58544 0.73454 0.0
N504 N 0.74656 0.54368 0.87973 0.0
C505 C 0.66695 0.50088 0.92435 0.0
C506 C 0.67717 0.54566 0.94782 0.0
C507 C 0.72495 0.58918 0.94214 0.0
C508 C 0.75925 0.58726 0.90862 0.0
C509 C 0.70183 0.50076 0.89073 0.0
H510 H 0.79487 0.62164 0.90537 0.0
H511 H 0.69082 0.4657 0.87227 0.0
H512 H 0.78649 0.46302 0.74341 0.0
H513 H 0.874 0.6206 0.75225 0.0
C514 C 0.85939 0.66375 0.83392 0.0
C515 C 0.69945 0.54634 0.70314 0.0
C516 C 0.88108 0.53638 0.91418 0.0
C517 C 0.71152 0.42102 0.80367 0.0
H518 H 0.73492 0.64798 0.69199 0.0
H519 H 0.82195 0.71286 0.76296 0.0
H520 H 0.95493 0.70616 0.91154 0.0
H521 H 0.96679 0.63646 0.95247 0.0
H522 H 0.83296 0.43389 0.94364 0.0
H523 H 0.73953 0.37213 0.88703 0.0
H524 H 0.63007 0.37863 0.70559 0.0
H525 H 0.62333 0.4479 0.65365 0.0
H526 H 0.83409 0.46172 0.66666 0.0
H527 H 0.92433 0.62146 0.67783 0.0
H528 H 0.63119 0.46623 0.9301 0.0
H529 H 0.73497 0.62458 0.96167 0.0
C530 C 0.30389 0.87905 0.37617 0.0
C531 C 0.29379 0.91306 0.39627 0.0
C532 C 0.25009 0.90268 0.36158 0.0
C533 C 0.23559 0.86263 0.32324 0.0
N534 N 0.26687 0.84631 0.33194 0.0
Co535 Co 0.25874 0.78806 0.2879 0.0
N536 N 0.20114 0.7794 0.22923 0.0
C537 C 0.18215 0.8079 0.22743 0.0
C538 C 0.14309 0.79329 0.18131 0.0
C539 C 0.13633 0.75262 0.1522 0.0
C540 C 0.17166 0.74476 0.18274 0.0
N541 N 0.24892 0.72843 0.24583 0.0
C542 C 0.21013 0.69492 0.20361 0.0
C543 C 0.20892 0.65178 0.1976 0.0
C544 C 0.24874 0.6586 0.23704 0.0
C545 C 0.27224 0.70532 0.26397 0.0
N546 N 0.31793 0.79847 0.34543 0.0
C547 C 0.33661 0.76972 0.34789 0.0
C548 C 0.37709 0.78559 0.39216 0.0
C549 C 0.38722 0.82892 0.41712 0.0
C550 C 0.35025 0.83575 0.38854 0.0
N551 N 0.20686 0.7411 0.3425 0.0
C552 C 0.12904 0.66321 0.40587 0.0
C553 C 0.1774 0.67099 0.40463 0.0
C554 C 0.21535 0.71013 0.37511 0.0
C555 C 0.12113 0.69695 0.37647 0.0
C556 C 0.15981 0.73478 0.34472 0.0
N557 N 0.3102 0.83351 0.2324 0.0
C558 C 0.37887 0.85386 0.17099 0.0
C559 C 0.38239 0.89663 0.15207 0.0
C560 C 0.34894 0.90703 0.17492 0.0
C561 C 0.31344 0.87535 0.21416 0.0
C562 C 0.34325 0.82341 0.2108 0.0
H563 H 0.28868 0.88527 0.22926 0.0
H564 H 0.34277 0.79149 0.22362 0.0
H565 H 0.25114 0.71372 0.37966 0.0
H566 H 0.15075 0.75837 0.32214 0.0
C567 C 0.19804 0.84463 0.27323 0.0
C568 C 0.34971 0.88001 0.39952 0.0
C569 C 0.1724 0.70139 0.16981 0.0
C570 C 0.31326 0.72648 0.31012 0.0
H571 H 0.31682 0.94336 0.4309 0.0
H572 H 0.23249 0.92337 0.36226 0.0
H573 H 0.12078 0.80908 0.17153 0.0
H574 H 0.10733 0.73006 0.11435 0.0
H575 H 0.18072 0.61811 0.16958 0.0
H576 H 0.25793 0.6319 0.24757 0.0
H577 H 0.39787 0.76849 0.40372 0.0
H578 H 0.41915 0.85292 0.45146 0.0
H579 H 0.18644 0.64693 0.42719 0.0
H580 H 0.0852 0.69422 0.37772 0.0
H581 H 0.40381 0.84397 0.15528 0.0
H582 H 0.34984 0.93951 0.16212 0.0
C583 C 0.40391 0.27986 0.79884 0.0
C584 C 0.35517 0.26916 0.80433 0.0
C585 C 0.32022 0.22567 0.76965 0.0
C586 C 0.34932 0.21196 0.74496 0.0
N587 N 0.40074 0.24427 0.76155 0.0
Co588 Co 0.45601 0.23672 0.73637 0.0
N589 N 0.40545 0.17398 0.68265 0.0
C590 C 0.35383 0.15266 0.67174 0.0
C591 C 0.32853 0.11036 0.6332 0.0
C592 C 0.36622 0.10418 0.61881 0.0
C593 C 0.41266 0.14295 0.64964 0.0
N594 N 0.51137 0.22801 0.71441 0.0
C595 C 0.50754 0.18812 0.68688 0.0
C596 C 0.5531 0.19053 0.69869 0.0
C597 C 0.58728 0.23375 0.7331 0.0
C598 C 0.5613 0.25562 0.73975 0.0
N599 N 0.50748 0.30047 0.78742 0.0
C600 C 0.5593 0.32279 0.7963 0.0
C601 C 0.58511 0.36457 0.83511 0.0
C602 C 0.54823 0.371 0.85001 0.0
C603 C 0.50126 0.33143 0.82112 0.0
N604 N 0.44834 0.19687 0.806 0.0
C605 C 0.44272 0.13339 0.89354 0.0
C606 C 0.48725 0.18115 0.89339 0.0
C607 C 0.48904 0.21211 0.85003 0.0
C608 C 0.39942 0.11956 0.85259 0.0
C609 C 0.40288 0.15193 0.80996 0.0
N610 N 0.46273 0.27676 0.66712 0.0
C611 C 0.51561 0.3506 0.61585 0.0
C612 C 0.47187 0.34939 0.59191 0.0
C613 C 0.42343 0.30769 0.59948 0.0
C614 C 0.41976 0.27193 0.63659 0.0
C615 C 0.51027 0.31402 0.6534 0.0
H616 H 0.38161 0.24196 0.64192 0.0
H617 H 0.54465 0.31704 0.67283 0.0
H618 H 0.52452 0.24749 0.85239 0.0
H619 H 0.36862 0.13904 0.77982 0.0
C620 C 0.33021 0.17099 0.7031 0.0
C621 C 0.45205 0.32419 0.83009 0.0
C622 C 0.46198 0.14686 0.64924 0.0
C623 C 0.58137 0.29945 0.77498 0.0
H624 H 0.34599 0.29077 0.8305 0.0
H625 H 0.27853 0.20665 0.76264 0.0
H626 H 0.28731 0.08596 0.61875 0.0
H627 H 0.36013 0.07377 0.59037 0.0
H628 H 0.56035 0.16307 0.68545 0.0
H629 H 0.62544 0.24644 0.75431 0.0
H630 H 0.62528 0.38576 0.85372 0.0
H631 H 0.55484 0.40033 0.88081 0.0
H632 H 0.52193 0.19381 0.9243 0.0
H633 H 0.36353 0.08336 0.85215 0.0
H634 H 0.55358 0.38033 0.60699 0.0
H635 H 0.38841 0.30391 0.57915 0.0
loop_
_geom_bond_atom_site_label_1
_geom_bond_atom_site_label_2
_geom_bond_distance
_geom_bond_site_symmetry_2
_ccdc_geom_bond_type
C0 C1 1.443 . S
C0 N4 1.376 1_556 S
C0 C38 1.389 . S
C1 C0 1.443 . S
C1 C2 1.340 1_556 S
C1 H41 0.951 . S
C2 C1 1.340 1_554 S
C2 C3 1.439 . S
C2 H42 0.950 . S
C3 C2 1.439 . S
C3 N4 1.374 . S
C3 C37 1.395 . S
N4 C0 1.376 1_554 S
N4 C3 1.374 . S
N4 Co5 2.010 1_655 S
Co5 N4 2.010 1_455 S
Co5 N6 2.000 1_455 S
Co5 N11 2.007 1_554 S
Co5 N16 1.990 1_554 S
Co5 N21 2.286 . S
Co5 N27 2.279 1_454 S
N6 Co5 2.000 1_655 S
N6 C7 1.376 . S
N6 C10 1.383 1_655 S
C7 N6 1.376 . S
C7 C8 1.446 . S
C7 C37 1.391 . S
C8 C7 1.446 . S
C8 C9 1.339 1_655 S
C8 H43 0.949 . S
C9 C8 1.339 1_455 S
C9 C10 1.439 . S
C9 H44 0.950 . S
C10 N6 1.383 1_455 S
C10 C9 1.439 . S
C10 C39 1.392 . S
N11 Co5 2.007 1_556 S
N11 C12 1.376 1_556 S
N11 C15 1.374 . S
C12 N11 1.376 1_554 S
C12 C13 1.443 . S
C12 C39 1.389 . S
C13 C12 1.443 . S
C13 C14 1.340 1_554 S
C13 H45 0.951 . S
C14 C13 1.340 1_556 S
C14 C15 1.439 . S
C14 H46 0.950 . S
C15 N11 1.374 . S
C15 C14 1.439 . S
C15 C40 1.395 . S
N16 Co5 1.990 1_556 S
N16 C17 1.376 . S
N16 C20 1.383 1_455 S
C17 N16 1.376 . S
C17 C18 1.446 . S
C17 C40 1.391 . S
C18 C17 1.446 . S
C18 C19 1.339 1_455 S
C18 H47 0.949 . S
C19 C18 1.339 1_655 S
C19 C20 1.439 . S
C19 H48 0.950 . S
C20 N16 1.383 1_655 S
C20 C19 1.439 . S
C20 C38 1.392 . S
N21 Co5 2.286 . S
N21 C24 1.332 . S
N21 C26 1.332 . S
C22 C23 1.386 . S
C22 C25 1.388 . S
C23 C22 1.386 . S
C23 C24 1.382 . S
C23 H49 0.950 . S
C24 N21 1.332 . S
C24 C23 1.382 . S
C24 H35 0.952 . S
C25 C22 1.388 . S
C25 C26 1.382 . S
C25 H50 0.950 . S
C26 N21 1.332 . S
C26 C25 1.382 . S
C26 H36 0.948 . S
N27 Co5 2.279 1_656 S
N27 C31 1.332 . S
N27 C32 1.332 . S
C28 C29 1.388 . S
C28 C32 1.382 . S
C28 H51 0.950 . S
C29 C28 1.388 . S
C29 C30 1.386 . S
C30 C29 1.386 . S
C30 C31 1.382 . S
C30 H52 0.950 . S
C31 N27 1.332 . S
C31 C30 1.382 . S
C31 H33 0.952 . S
C32 N27 1.332 . S
C32 C28 1.382 . S
C32 H34 0.948 . S
H33 C31 0.952 . S
H34 C32 0.948 . S
H35 C24 0.952 . S
H36 C26 0.948 . S
C37 C3 1.395 . S
C37 C7 1.391 . S
C38 C0 1.389 . S
C38 C20 1.392 . S
C39 C10 1.392 . S
C39 C12 1.389 . S
C40 C15 1.395 . S
C40 C17 1.391 . S
H41 C1 0.951 . S
H42 C2 0.950 . S
H43 C8 0.949 . S
H44 C9 0.950 . S
H45 C13 0.951 . S
H46 C14 0.950 . S
H47 C18 0.949 . S
H48 C19 0.950 . S
H49 C23 0.950 . S
H50 C25 0.950 . S
H51 C28 0.950 . S
H52 C30 0.950 . S
C53 C54 1.443 . S
C53 N57 1.376 . S
C53 C91 1.389 . S
C54 C53 1.443 . S
C54 C55 1.340 1_545 S
C54 H94 0.951 . S
C55 C54 1.340 1_565 S
C55 C56 1.439 . S
C55 H95 0.950 . S
C56 C55 1.439 . S
C56 N57 1.374 1_565 S
C56 C90 1.395 . S
N57 C53 1.376 . S
N57 C56 1.374 1_545 S
N57 Co58 2.008 . S
Co58 N57 2.008 . S
Co58 N59 1.995 1_545 S
Co58 N64 2.008 . S
Co58 N69 1.995 . S
Co58 N74 2.282 1_545 S
Co58 N80 2.282 . S
N59 Co58 1.995 1_565 S
N59 C60 1.376 . S
N59 C63 1.383 . S
C60 N59 1.376 . S
C60 C61 1.446 . S
C60 C90 1.391 . S
C61 C60 1.446 . S
C61 C62 1.339 . S
C61 H96 0.949 . S
C62 C61 1.339 . S
C62 C63 1.439 . S
C62 H97 0.950 . S
C63 N59 1.383 . S
C63 C62 1.439 . S
C63 C92 1.392 . S
N64 Co58 2.008 . S
N64 C65 1.376 1_545 S
N64 C68 1.373 . S
C65 N64 1.376 1_565 S
C65 C66 1.443 . S
C65 C92 1.389 . S
C66 C65 1.443 . S
C66 C67 1.340 1_565 S
C66 H98 0.951 . S
C67 C66 1.340 1_545 S
C67 C68 1.439 . S
C67 H99 0.950 . S
C68 N64 1.373 . S
C68 C67 1.439 . S
C68 C93 1.395 . S
N69 Co58 1.995 . S
N69 C70 1.376 . S
N69 C73 1.383 . S
C70 N69 1.376 . S
C70 C71 1.446 . S
C70 C93 1.391 . S
C71 C70 1.446 . S
C71 C72 1.339 . S
C71 H100 0.949 . S
C72 C71 1.339 . S
C72 C73 1.439 . S
C72 H101 0.950 . S
C73 N69 1.383 . S
C73 C72 1.439 . S
C73 C91 1.392 . S
N74 Co58 2.282 1_565 S
N74 C77 1.332 . S
N74 C79 1.332 . S
C75 C76 1.386 . S
C75 C78 1.388 . S
C76 C75 1.386 . S
C76 C77 1.382 . S
C76 H102 0.950 . S
C77 N74 1.332 . S
C77 C76 1.382 . S
C77 H88 0.952 1_565 S
C78 C75 1.388 . S
C78 C79 1.382 . S
C78 H103 0.950 . S
C79 N74 1.332 . S
C79 C78 1.382 . S
C79 H89 0.948 . S
N80 Co58 2.282 . S
N80 C84 1.332 . S
N80 C85 1.332 . S
C81 C82 1.388 . S
C81 C85 1.382 . S
C81 H104 0.950 . S
C82 C81 1.388 . S
C82 C83 1.386 . S
C83 C82 1.386 . S
C83 C84 1.382 . S
C83 H105 0.950 . S
C84 N80 1.332 . S
C84 C83 1.382 . S
C84 H86 0.952 1_545 S
C85 N80 1.332 . S
C85 C81 1.382 . S
C85 H87 0.948 . S
H86 C84 0.952 1_565 S
H87 C85 0.948 . S
H88 C77 0.952 1_545 S
H89 C79 0.948 . S
C90 C56 1.395 . S
C90 C60 1.391 . S
C91 C53 1.389 . S
C91 C73 1.392 . S
C92 C63 1.392 . S
C92 C65 1.389 . S
C93 C68 1.395 . S
C93 C70 1.391 . S
H94 C54 0.951 . S
H95 C55 0.950 . S
H96 C61 0.949 . S
H97 C62 0.950 . S
H98 C66 0.951 . S
H99 C67 0.950 . S
H100 C71 0.949 . S
H101 C72 0.950 . S
H102 C76 0.950 . S
H103 C78 0.950 . S
H104 C81 0.950 . S
H105 C83 0.950 . S
C106 C107 1.443 . S
C106 N110 1.376 . S
C106 C144 1.389 . S
C107 C106 1.443 . S
C107 C108 1.340 . S
C107 H147 0.951 . S
C108 C107 1.340 . S
C108 C109 1.439 . S
C108 H148 0.950 . S
C109 C108 1.439 . S
C109 N110 1.374 . S
C109 C143 1.395 . S
N110 C106 1.376 . S
N110 C109 1.374 . S
N110 Co111 2.003 1_556 S
Co111 N110 2.003 1_554 S
Co111 N112 1.994 1_554 S
Co111 N117 2.014 . S
Co111 N122 1.996 . S
Co111 N127 2.286 . S
Co111 N133 2.279 1_554 S
N112 Co111 1.994 1_556 S
N112 C113 1.376 . S
N112 C116 1.383 1_556 S
C113 N112 1.376 . S
C113 C114 1.446 . S
C113 C143 1.391 . S
C114 C113 1.446 . S
C114 C115 1.339 . S
C114 H149 0.949 . S
C115 C114 1.339 . S
C115 C116 1.439 1_556 S
C115 H150 0.950 . S
C116 N112 1.383 1_554 S
C116 C115 1.439 1_554 S
C116 C145 1.392 . S
N117 Co111 2.014 . S
N117 C118 1.376 . S
N117 C121 1.374 . S
C118 N117 1.376 . S
C118 C119 1.443 . S
C118 C145 1.389 . S
C119 C118 1.443 . S
C119 C120 1.340 . S
C119 H151 0.951 . S
C120 C119 1.340 . S
C120 C121 1.439 . S
C120 H152 0.950 . S
C121 N117 1.374 . S
C121 C120 1.439 . S
C121 C146 1.395 . S
N122 Co111 1.996 . S
N122 C123 1.376 . S
N122 C126 1.383 1_554 S
C123 N122 1.376 . S
C123 C124 1.446 . S
C123 C146 1.391 . S
C124 C123 1.446 . S
C124 C125 1.339 . S
C124 H153 0.949 . S
C125 C124 1.339 . S
C125 C126 1.439 1_554 S
C125 H154 0.950 . S
C126 N122 1.383 1_556 S
C126 C125 1.439 1_556 S
C126 C144 1.392 . S
N127 Co111 2.286 . S
N127 C130 1.332 . S
N127 C132 1.332 . S
C128 C129 1.386 . S
C128 C131 1.388 . S
C129 C128 1.386 . S
C129 C130 1.382 . S
C129 H155 0.950 . S
C130 N127 1.332 . S
C130 C129 1.382 . S
C130 H141 0.952 . S
C131 C128 1.388 . S
C131 C132 1.382 . S
C131 H156 0.950 . S
C132 N127 1.332 . S
C132 C131 1.382 . S
C132 H142 0.948 . S
N133 Co111 2.279 1_556 S
N133 C137 1.332 . S
N133 C138 1.332 . S
C134 C135 1.388 . S
C134 C138 1.382 . S
C134 H157 0.950 . S
C135 C134 1.388 . S
C135 C136 1.386 . S
C136 C135 1.386 . S
C136 C137 1.382 . S
C136 H158 0.950 . S
C137 N133 1.332 . S
C137 C136 1.382 . S
C137 H139 0.952 . S
C138 N133 1.332 . S
C138 C134 1.382 . S
C138 H140 0.948 . S
H139 C137 0.952 . S
H140 C138 0.948 . S
H141 C130 0.952 . S
H142 C132 0.948 . S
C143 C109 1.395 . S
C143 C113 1.391 . S
C144 C106 1.389 . S
C144 C126 1.392 . S
C145 C116 1.392 . S
C145 C118 1.389 . S
C146 C121 1.395 . S
C146 C123 1.391 . S
H147 C107 0.951 . S
H148 C108 0.950 . S
H149 C114 0.949 . S
H150 C115 0.950 . S
H151 C119 0.951 . S
H152 C120 0.950 . S
H153 C124 0.949 . S
H154 C125 0.950 . S
H155 C129 0.950 . S
H156 C131 0.950 . S
H157 C134 0.950 . S
H158 C136 0.950 . S
C159 C160 1.443 . S
C159 N163 1.376 . S
C159 C197 1.389 . S
C160 C159 1.443 . S
C160 C161 1.340 . S
C160 H200 0.951 . S
C161 C160 1.340 . S
C161 C162 1.439 . S
C161 H201 0.950 . S
C162 C161 1.439 . S
C162 N163 1.374 . S
C162 C196 1.395 . S
N163 C159 1.376 . S
N163 C162 1.374 . S
N163 Co164 2.008 1_655 S
Co164 N163 2.008 1_455 S
Co164 N165 1.995 1_455 S
Co164 N170 2.008 . S
Co164 N175 1.995 . S
Co164 N180 2.282 . S
Co164 N186 2.282 1_455 S
N165 Co164 1.995 1_655 S
N165 C166 1.376 . S
N165 C169 1.383 1_655 S
C166 N165 1.376 . S
C166 C167 1.446 . S
C166 C196 1.391 . S
C167 C166 1.446 . S
C167 C168 1.339 1_655 S
C167 H202 0.949 . S
C168 C167 1.339 1_455 S
C168 C169 1.439 . S
C168 H203 0.950 . S
C169 N165 1.383 1_455 S
C169 C168 1.439 . S
C169 C198 1.392 . S
N170 Co164 2.008 . S
N170 C171 1.376 . S
N170 C174 1.374 . S
C171 N170 1.376 . S
C171 C172 1.443 . S
C171 C198 1.389 . S
C172 C171 1.443 . S
C172 C173 1.340 . S
C172 H204 0.951 . S
C173 C172 1.340 . S
C173 C174 1.439 . S
C173 H205 0.950 . S
C174 N170 1.374 . S
C174 C173 1.439 . S
C174 C199 1.395 . S
N175 Co164 1.995 . S
N175 C176 1.376 . S
N175 C179 1.383 1_455 S
C176 N175 1.376 . S
C176 C177 1.446 . S
C176 C199 1.391 . S
C177 C176 1.446 . S
C177 C178 1.346 . S
C177 H206 0.949 . S
C178 C177 1.346 . S
C178 C179 1.433 1_455 S
C178 H207 0.948 1_455 S
C179 N175 1.383 1_655 S
C179 C178 1.433 1_655 S
C179 C197 1.392 . S
N180 Co164 2.282 . S
N180 C183 1.332 . S
N180 C185 1.332 . S
C181 C182 1.386 . S
C181 C184 1.388 . S
C182 C181 1.386 . S
C182 C183 1.382 . S
C182 H208 0.950 . S
C183 N180 1.332 . S
C183 C182 1.382 . S
C183 H194 0.952 . S
C184 C181 1.388 . S
C184 C185 1.382 . S
C184 H209 0.950 . S
C185 N180 1.332 . S
C185 C184 1.382 . S
C185 H195 0.948 1_455 S
N186 Co164 2.282 1_655 S
N186 C190 1.332 . S
N186 C191 1.332 . S
C187 C188 1.388 . S
C187 C191 1.382 . S
C187 H210 0.950 . S
C188 C187 1.388 . S
C188 C189 1.386 . S
C189 C188 1.386 . S
C189 C190 1.382 . S
C189 H211 0.950 . S
C190 N186 1.332 . S
C190 C189 1.382 . S
C190 H192 0.952 . S
C191 N186 1.332 . S
C191 C187 1.382 . S
C191 H193 0.948 1_655 S
H192 C190 0.952 . S
H193 C191 0.948 1_455 S
H194 C183 0.952 . S
H195 C185 0.948 1_655 S
C196 C162 1.395 . S
C196 C166 1.391 . S
C197 C159 1.389 . S
C197 C179 1.392 . S
C198 C169 1.392 . S
C198 C171 1.389 . S
C199 C174 1.395 . S
C199 C176 1.391 . S
H200 C160 0.951 . S
H201 C161 0.950 . S
H202 C167 0.949 . S
H203 C168 0.950 . S
H204 C172 0.951 . S
H205 C173 0.950 . S
H206 C177 0.949 . S
H207 C178 0.948 1_655 S
H208 C182 0.950 . S
H209 C184 0.950 . S
H210 C187 0.950 . S
H211 C189 0.950 . S
C212 C213 1.443 1_565 S
C212 N216 1.376 1_565 S
C212 C250 1.389 . S
C213 C212 1.443 1_545 S
C213 C214 1.340 . S
C213 H253 0.951 1_545 S
C214 C213 1.340 . S
C214 C215 1.439 . S
C214 H254 0.950 . S
C215 C214 1.439 . S
C215 N216 1.374 . S
C215 C249 1.395 . S
N216 C212 1.376 1_545 S
N216 C215 1.374 . S
N216 Co217 2.014 . S
Co217 N216 2.014 . S
Co217 N218 1.995 . S
Co217 N223 2.002 1_544 S
Co217 N228 1.995 1_544 S
Co217 N233 2.280 1_554 S
Co217 N239 2.285 1_545 S
N218 Co217 1.995 . S
N218 C219 1.376 . S
N218 C222 1.383 1_554 S
C219 N218 1.376 . S
C219 C220 1.446 . S
C219 C249 1.391 . S
C220 C219 1.446 . S
C220 C221 1.339 1_554 S
C220 H255 0.949 . S
C221 C220 1.339 1_556 S
C221 C222 1.439 . S
C221 H256 0.950 . S
C222 N218 1.383 1_556 S
C222 C221 1.439 . S
C222 C251 1.392 . S
N223 Co217 2.002 1_566 S
N223 C224 1.376 1_565 S
N223 C227 1.374 . S
C224 N223 1.376 1_545 S
C224 C225 1.451 . S
C224 C251 1.389 . S
C225 C224 1.451 . S
C225 C226 1.329 1_545 S
C225 H257 0.955 . S
C226 C225 1.329 1_565 S
C226 C227 1.439 . S
C226 H258 0.950 . S
C227 N223 1.374 . S
C227 C226 1.439 . S
C227 C252 1.395 . S
N228 Co217 1.995 1_566 S
N228 C229 1.376 . S
N228 C232 1.383 1_556 S
C229 N228 1.376 . S
C229 C230 1.446 . S
C229 C252 1.391 . S
C230 C229 1.446 . S
C230 C231 1.339 1_556 S
C230 H259 0.949 . S
C231 C230 1.339 1_554 S
C231 C232 1.439 . S
C231 H260 0.950 . S
C232 N228 1.383 1_554 S
C232 C231 1.439 . S
C232 C250 1.392 . S
N233 Co217 2.280 1_556 S
N233 C236 1.332 . S
N233 C238 1.332 . S
C234 C235 1.386 . S
C234 C237 1.388 . S
C235 C234 1.386 . S
C235 C236 1.382 . S
C235 H261 0.950 . S
C236 N233 1.332 . S
C236 C235 1.382 . S
C236 H247 0.952 1_545 S
C237 C234 1.388 . S
C237 C238 1.382 . S
C237 H262 0.950 . S
C238 N233 1.332 . S
C238 C237 1.382 . S
C238 H248 0.948 . S
N239 Co217 2.285 1_565 S
N239 C243 1.332 . S
N239 C244 1.332 . S
C240 C241 1.388 . S
C240 C244 1.382 . S
C240 H263 0.950 . S
C241 C240 1.388 . S
C241 C242 1.386 . S
C242 C241 1.386 . S
C242 C243 1.382 . S
C242 H264 0.950 . S
C243 N239 1.332 . S
C243 C242 1.382 . S
C243 H245 0.952 1_565 S
C244 N239 1.332 . S
C244 C240 1.382 . S
C244 H246 0.948 . S
H245 C243 0.952 1_545 S
H246 C244 0.948 . S
H247 C236 0.952 1_565 S
H248 C238 0.948 . S
C249 C215 1.395 . S
C249 C219 1.391 . S
C250 C212 1.389 . S
C250 C232 1.392 . S
C251 C222 1.392 . S
C251 C224 1.389 . S
C252 C227 1.395 . S
C252 C229 1.391 . S
H253 C213 0.951 1_565 S
H254 C214 0.950 . S
H255 C220 0.949 . S
H256 C221 0.950 . S
H257 C225 0.955 . S
H258 C226 0.950 . S
H259 C230 0.949 . S
H260 C231 0.950 . S
H261 C235 0.950 . S
H262 C237 0.950 . S
H263 C240 0.950 . S
H264 C242 0.950 . S
C265 C266 1.443 . S
C265 N269 1.376 . S
C265 C303 1.389 . S
C266 C265 1.443 . S
C266 C267 1.340 . S
C266 H306 0.951 . S
C267 C266 1.340 . S
C267 C268 1.439 . S
C267 H307 0.950 . S
C268 C267 1.439 . S
C268 N269 1.374 . S
C268 C302 1.395 . S
N269 C265 1.376 . S
N269 C268 1.374 . S
N269 Co270 2.008 . S
Co270 N269 2.008 . S
Co270 N271 1.995 . S
Co270 N276 2.008 . S
Co270 N281 1.995 . S
Co270 N286 2.282 . S
Co270 N292 2.282 . S
N271 Co270 1.995 . S
N271 C272 1.376 . S
N271 C275 1.383 . S
C272 N271 1.376 . S
C272 C273 1.446 . S
C272 C302 1.391 . S
C273 C272 1.446 . S
C273 C274 1.339 . S
C273 H308 0.949 . S
C274 C273 1.339 . S
C274 C275 1.439 . S
C274 H309 0.950 . S
C275 N271 1.383 . S
C275 C274 1.439 . S
C275 C304 1.392 . S
N276 Co270 2.008 . S
N276 C277 1.376 . S
N276 C280 1.374 . S
C277 N276 1.376 . S
C277 C278 1.443 . S
C277 C304 1.389 . S
C278 C277 1.443 . S
C278 C279 1.340 . S
C278 H310 0.951 . S
C279 C278 1.340 . S
C279 C280 1.439 . S
C279 H311 0.950 . S
C280 N276 1.374 . S
C280 C279 1.439 . S
C280 C305 1.395 . S
N281 Co270 1.995 . S
N281 C282 1.376 . S
N281 C285 1.383 . S
C282 N281 1.376 . S
C282 C283 1.446 . S
C282 C305 1.391 . S
C283 C282 1.446 . S
C283 C284 1.339 . S
C283 H312 0.949 . S
C284 C283 1.339 . S
C284 C285 1.439 . S
C284 H313 0.950 . S
C285 N281 1.383 . S
C285 C284 1.439 . S
C285 C303 1.392 . S
N286 Co270 2.282 . S
N286 C289 1.332 . S
N286 C291 1.332 . S
C287 C288 1.386 . S
C287 C290 1.388 . S
C288 C287 1.386 . S
C288 C289 1.382 . S
C288 H314 0.950 . S
C289 N286 1.332 . S
C289 C288 1.382 . S
C289 H300 0.952 . S
C290 C287 1.388 . S
C290 C291 1.382 . S
C290 H315 0.950 . S
C291 N286 1.332 . S
C291 C290 1.382 . S
C291 H301 0.948 . S
N292 Co270 2.282 . S
N292 C296 1.332 . S
N292 C297 1.332 . S
C293 C294 1.388 . S
C293 C297 1.382 . S
C293 H316 0.950 . S
C294 C293 1.388 . S
C294 C295 1.386 . S
C295 C294 1.386 . S
C295 C296 1.382 . S
C295 H317 0.950 . S
C296 N292 1.332 . S
C296 C295 1.382 . S
C296 H298 0.952 . S
C297 N292 1.332 . S
C297 C293 1.382 . S
C297 H299 0.948 . S
H298 C296 0.952 . S
H299 C297 0.948 . S
H300 C289 0.952 . S
H301 C291 0.948 . S
C302 C268 1.395 . S
C302 C272 1.391 . S
C303 C265 1.389 . S
C303 C285 1.392 . S
C304 C275 1.392 . S
C304 C277 1.389 . S
C305 C280 1.395 . S
C305 C282 1.391 . S
H306 C266 0.951 . S
H307 C267 0.950 . S
H308 C273 0.949 . S
H309 C274 0.950 . S
H310 C278 0.951 . S
H311 C279 0.950 . S
H312 C283 0.949 . S
H313 C284 0.950 . S
H314 C288 0.950 . S
H315 C290 0.950 . S
H316 C293 0.950 . S
H317 C295 0.950 . S
C318 C319 1.443 . S
C318 N322 1.376 . S
C318 C356 1.389 . S
C319 C318 1.443 . S
C319 C320 1.340 . S
C319 H359 0.951 . S
C320 C319 1.340 . S
C320 C321 1.439 . S
C320 H360 0.950 . S
C321 C320 1.439 . S
C321 N322 1.374 . S
C321 C355 1.395 . S
N322 C318 1.376 . S
N322 C321 1.374 . S
N322 Co323 2.008 . S
Co323 N322 2.008 . S
Co323 N324 1.995 . S
Co323 N329 2.008 . S
Co323 N334 1.995 . S
Co323 N339 2.282 . S
Co323 N345 2.282 . S
N324 Co323 1.995 . S
N324 C325 1.376 . S
N324 C328 1.383 . S
C325 N324 1.376 . S
C325 C326 1.446 . S
C325 C355 1.391 . S
C326 C325 1.446 . S
C326 C327 1.339 . S
C326 H361 0.949 . S
C327 C326 1.339 . S
C327 C328 1.439 . S
C327 H362 0.950 . S
C328 N324 1.383 . S
C328 C327 1.439 . S
C328 C357 1.392 . S
N329 Co323 2.008 . S
N329 C330 1.376 . S
N329 C333 1.374 . S
C330 N329 1.376 . S
C330 C331 1.443 . S
C330 C357 1.389 . S
C331 C330 1.443 . S
C331 C332 1.340 . S
C331 H363 0.951 . S
C332 C331 1.340 . S
C332 C333 1.439 . S
C332 H364 0.950 . S
C333 N329 1.374 . S
C333 C332 1.439 . S
C333 C358 1.395 . S
N334 Co323 1.995 . S
N334 C335 1.376 . S
N334 C338 1.383 . S
C335 N334 1.376 . S
C335 C336 1.446 . S
C335 C358 1.391 . S
C336 C335 1.446 . S
C336 C337 1.339 . S
C336 H365 0.949 . S
C337 C336 1.339 . S
C337 C338 1.439 . S
C337 H366 0.950 . S
C338 N334 1.383 . S
C338 C337 1.439 . S
C338 C356 1.392 . S
N339 Co323 2.282 . S
N339 C342 1.332 . S
N339 C344 1.332 . S
C340 C341 1.386 . S
C340 C343 1.388 . S
C341 C340 1.386 . S
C341 C342 1.382 . S
C341 H367 0.950 . S
C342 N339 1.332 . S
C342 C341 1.382 . S
C342 H353 0.952 . S
C343 C340 1.388 . S
C343 C344 1.382 . S
C343 H368 0.950 . S
C344 N339 1.332 . S
C344 C343 1.382 . S
C344 H354 0.948 . S
N345 Co323 2.282 . S
N345 C349 1.332 . S
N345 C350 1.332 . S
C346 C347 1.388 . S
C346 C350 1.382 . S
C346 H369 0.950 . S
C347 C346 1.388 . S
C347 C348 1.386 . S
C348 C347 1.386 . S
C348 C349 1.382 . S
C348 H370 0.950 . S
C349 N345 1.332 . S
C349 C348 1.382 . S
C349 H351 0.952 . S
C350 N345 1.332 . S
C350 C346 1.382 . S
C350 H352 0.948 . S
H351 C349 0.952 . S
H352 C350 0.948 . S
H353 C342 0.952 . S
H354 C344 0.948 . S
C355 C321 1.395 . S
C355 C325 1.391 . S
C356 C318 1.389 . S
C356 C338 1.392 . S
C357 C328 1.392 . S
C357 C330 1.389 . S
C358 C333 1.395 . S
C358 C335 1.391 . S
H359 C319 0.951 . S
H360 C320 0.950 . S
H361 C326 0.949 . S
H362 C327 0.950 . S
H363 C331 0.951 . S
H364 C332 0.950 . S
H365 C336 0.949 . S
H366 C337 0.950 . S
H367 C341 0.950 . S
H368 C343 0.950 . S
H369 C346 0.950 . S
H370 C348 0.950 . S
C371 C372 1.443 . S
C371 N375 1.376 . S
C371 C409 1.389 . S
C372 C371 1.443 . S
C372 C373 1.340 . S
C372 H412 0.951 . S
C373 C372 1.340 . S
C373 C374 1.439 . S
C373 H413 0.950 . S
C374 C373 1.439 . S
C374 N375 1.374 . S
C374 C408 1.395 . S
N375 C371 1.376 . S
N375 C374 1.374 . S
N375 Co376 2.008 . S
Co376 N375 2.008 . S
Co376 N377 1.995 . S
Co376 N382 2.008 . S
Co376 N387 1.995 . S
Co376 N392 2.282 . S
Co376 N398 2.282 . S
N377 Co376 1.995 . S
N377 C378 1.376 . S
N377 C381 1.383 . S
C378 N377 1.376 . S
C378 C379 1.446 . S
C378 C408 1.391 . S
C379 C378 1.446 . S
C379 C380 1.339 . S
C379 H414 0.949 . S
C380 C379 1.339 . S
C380 C381 1.439 . S
C380 H415 0.950 . S
C381 N377 1.383 . S
C381 C380 1.439 . S
C381 C410 1.392 . S
N382 Co376 2.008 . S
N382 C383 1.376 . S
N382 C386 1.374 . S
C383 N382 1.376 . S
C383 C384 1.443 . S
C383 C410 1.389 . S
C384 C383 1.443 . S
C384 C385 1.340 . S
C384 H416 0.951 . S
C385 C384 1.340 . S
C385 C386 1.439 . S
C385 H417 0.950 . S
C386 N382 1.374 . S
C386 C385 1.439 . S
C386 C411 1.395 . S
N387 Co376 1.995 . S
N387 C388 1.376 . S
N387 C391 1.383 . S
C388 N387 1.376 . S
C388 C389 1.446 . S
C388 C411 1.391 . S
C389 C388 1.446 . S
C389 C390 1.339 . S
C389 H418 0.949 . S
C390 C389 1.339 . S
C390 C391 1.439 . S
C390 H419 0.950 . S
C391 N387 1.383 . S
C391 C390 1.439 . S
C391 C409 1.392 . S
N392 Co376 2.282 . S
N392 C395 1.332 . S
N392 C397 1.332 . S
C393 C394 1.386 . S
C393 C396 1.388 . S
C394 C393 1.386 . S
C394 C395 1.382 . S
C394 H420 0.950 . S
C395 N392 1.332 . S
C395 C394 1.382 . S
C395 H406 0.952 . S
C396 C393 1.388 . S
C396 C397 1.382 . S
C396 H421 0.950 . S
C397 N392 1.332 . S
C397 C396 1.382 . S
C397 H407 0.948 . S
N398 Co376 2.282 . S
N398 C402 1.332 . S
N398 C403 1.332 . S
C399 C400 1.388 . S
C399 C403 1.382 . S
C399 H422 0.950 . S
C400 C399 1.388 . S
C400 C401 1.386 . S
C401 C400 1.386 . S
C401 C402 1.382 . S
C401 H423 0.950 . S
C402 N398 1.332 . S
C402 C401 1.382 . S
C402 H404 0.952 . S
C403 N398 1.332 . S
C403 C399 1.382 . S
C403 H405 0.948 . S
H404 C402 0.952 . S
H405 C403 0.948 . S
H406 C395 0.952 . S
H407 C397 0.948 . S
C408 C374 1.395 . S
C408 C378 1.391 . S
C409 C371 1.389 . S
C409 C391 1.392 . S
C410 C381 1.392 . S
C410 C383 1.389 . S
C411 C386 1.395 . S
C411 C388 1.391 . S
H412 C372 0.951 . S
H413 C373 0.950 . S
H414 C379 0.949 . S
H415 C380 0.950 . S
H416 C384 0.951 . S
H417 C385 0.950 . S
H418 C389 0.949 . S
H419 C390 0.950 . S
H420 C394 0.950 . S
H421 C396 0.950 . S
H422 C399 0.950 . S
H423 C401 0.950 . S
C424 C425 1.443 . S
C424 N428 1.376 . S
C424 C462 1.389 . S
C425 C424 1.443 . S
C425 C426 1.340 . S
C425 H465 0.951 . S
C426 C425 1.340 . S
C426 C427 1.439 . S
C426 H466 0.950 . S
C427 C426 1.439 . S
C427 N428 1.374 . S
C427 C461 1.395 . S
N428 C424 1.376 . S
N428 C427 1.374 . S
N428 Co429 2.008 . S
Co429 N428 2.008 . S
Co429 N430 1.995 . S
Co429 N435 2.008 . S
Co429 N440 1.995 . S
Co429 N445 2.282 . S
Co429 N451 2.282 . S
N430 Co429 1.995 . S
N430 C431 1.376 . S
N430 C434 1.383 . S
C431 N430 1.376 . S
C431 C432 1.446 . S
C431 C461 1.391 . S
C432 C431 1.446 . S
C432 C433 1.339 . S
C432 H467 0.949 . S
C433 C432 1.339 . S
C433 C434 1.439 . S
C433 H468 0.950 . S
C434 N430 1.383 . S
C434 C433 1.439 . S
C434 C463 1.392 . S
N435 Co429 2.008 . S
N435 C436 1.376 . S
N435 C439 1.374 . S
C436 N435 1.376 . S
C436 C437 1.443 . S
C436 C463 1.389 . S
C437 C436 1.443 . S
C437 C438 1.340 . S
C437 H469 0.951 . S
C438 C437 1.340 . S
C438 C439 1.439 . S
C438 H470 0.950 . S
C439 N435 1.374 . S
C439 C438 1.439 . S
C439 C464 1.395 . S
N440 Co429 1.995 . S
N440 C441 1.376 . S
N440 C444 1.383 . S
C441 N440 1.376 . S
C441 C442 1.446 . S
C441 C464 1.391 . S
C442 C441 1.446 . S
C442 C443 1.339 . S
C442 H471 0.949 . S
C443 C442 1.339 . S
C443 C444 1.439 . S
C443 H472 0.950 . S
C444 N440 1.383 . S
C444 C443 1.439 . S
C444 C462 1.392 . S
N445 Co429 2.282 . S
N445 C448 1.332 . S
N445 C450 1.332 . S
C446 C447 1.386 . S
C446 C449 1.388 . S
C447 C446 1.386 . S
C447 C448 1.382 . S
C447 H473 0.950 . S
C448 N445 1.332 . S
C448 C447 1.382 . S
C448 H459 0.952 . S
C449 C446 1.388 . S
C449 C450 1.382 . S
C449 H474 0.950 . S
C450 N445 1.332 . S
C450 C449 1.382 . S
C450 H460 0.948 . S
N451 Co429 2.282 . S
N451 C455 1.332 . S
N451 C456 1.332 . S
C452 C453 1.388 . S
C452 C456 1.382 . S
C452 H475 0.950 . S
C453 C452 1.388 . S
C453 C454 1.386 . S
C454 C453 1.386 . S
C454 C455 1.382 . S
C454 H476 0.950 . S
C455 N451 1.332 . S
C455 C454 1.382 . S
C455 H457 0.952 . S
C456 N451 1.332 . S
C456 C452 1.382 . S
C456 H458 0.948 . S
H457 C455 0.952 . S
H458 C456 0.948 . S
H459 C448 0.952 . S
H460 C450 0.948 . S
C461 C427 1.395 . S
C461 C431 1.391 . S
C462 C424 1.389 . S
C462 C444 1.392 . S
C463 C434 1.392 . S
C463 C436 1.389 . S
C464 C439 1.395 . S
C464 C441 1.391 . S
H465 C425 0.951 . S
H466 C426 0.950 . S
H467 C432 0.949 . S
H468 C433 0.950 . S
H469 C437 0.951 . S
H470 C438 0.950 . S
H471 C442 0.949 . S
H472 C443 0.950 . S
H473 C447 0.950 . S
H474 C449 0.950 . S
H475 C452 0.950 . S
H476 C454 0.950 . S
C477 C478 1.443 . S
C477 N481 1.376 . S
C477 C515 1.389 . S
C478 C477 1.443 . S
C478 C479 1.340 . S
C478 H518 0.951 . S
C479 C478 1.340 . S
C479 C480 1.439 . S
C479 H519 0.950 . S
C480 C479 1.439 . S
C480 N481 1.374 . S
C480 C514 1.395 . S
N481 C477 1.376 . S
N481 C480 1.374 . S
N481 Co482 2.008 . S
Co482 N481 2.008 . S
Co482 N483 1.995 . S
Co482 N488 2.008 . S
Co482 N493 1.995 . S
Co482 N498 2.282 . S
Co482 N504 2.282 . S
N483 Co482 1.995 . S
N483 C484 1.376 . S
N483 C487 1.383 . S
C484 N483 1.376 . S
C484 C485 1.446 . S
C484 C514 1.391 . S
C485 C484 1.446 . S
C485 C486 1.339 . S
C485 H520 0.949 . S
C486 C485 1.339 . S
C486 C487 1.439 . S
C486 H521 0.950 . S
C487 N483 1.383 . S
C487 C486 1.439 . S
C487 C516 1.392 . S
N488 Co482 2.008 . S
N488 C489 1.376 . S
N488 C492 1.374 . S
C489 N488 1.376 . S
C489 C490 1.443 . S
C489 C516 1.389 . S
C490 C489 1.443 . S
C490 C491 1.340 . S
C490 H522 0.951 . S
C491 C490 1.340 . S
C491 C492 1.439 . S
C491 H523 0.950 . S
C492 N488 1.374 . S
C492 C491 1.439 . S
C492 C517 1.395 . S
N493 Co482 1.995 . S
N493 C494 1.376 . S
N493 C497 1.383 . S
C494 N493 1.376 . S
C494 C495 1.446 . S
C494 C517 1.391 . S
C495 C494 1.446 . S
C495 C496 1.339 . S
C495 H524 0.949 . S
C496 C495 1.339 . S
C496 C497 1.439 . S
C496 H525 0.950 . S
C497 N493 1.383 . S
C497 C496 1.439 . S
C497 C515 1.392 . S
N498 Co482 2.282 . S
N498 C501 1.332 . S
N498 C503 1.332 . S
C499 C500 1.386 . S
C499 C502 1.388 . S
C500 C499 1.386 . S
C500 C501 1.382 . S
C500 H526 0.950 . S
C501 N498 1.332 . S
C501 C500 1.382 . S
C501 H512 0.952 . S
C502 C499 1.388 . S
C502 C503 1.382 . S
C502 H527 0.950 . S
C503 N498 1.332 . S
C503 C502 1.382 . S
C503 H513 0.948 . S
N504 Co482 2.282 . S
N504 C508 1.332 . S
N504 C509 1.332 . S
C505 C506 1.388 . S
C505 C509 1.382 . S
C505 H528 0.950 . S
C506 C505 1.388 . S
C506 C507 1.386 . S
C507 C506 1.386 . S
C507 C508 1.382 . S
C507 H529 0.950 . S
C508 N504 1.332 . S
C508 C507 1.382 . S
C508 H510 0.952 . S
C509 N504 1.332 . S
C509 C505 1.382 . S
C509 H511 0.948 . S
H510 C508 0.952 . S
H511 C509 0.948 . S
H512 C501 0.952 . S
H513 C503 0.948 . S
C514 C480 1.395 . S
C514 C484 1.391 . S
C515 C477 1.389 . S
C515 C497 1.392 . S
C516 C487 1.392 . S
C516 C489 1.389 . S
C517 C492 1.395 . S
C517 C494 1.391 . S
H518 C478 0.951 . S
H519 C479 0.950 . S
H520 C485 0.949 . S
H521 C486 0.950 . S
H522 C490 0.951 . S
H523 C491 0.950 . S
H524 C495 0.949 . S
H525 C496 0.950 . S
H526 C500 0.950 . S
H527 C502 0.950 . S
H528 C505 0.950 . S
H529 C507 0.950 . S
C530 C531 1.443 . S
C530 N534 1.376 . S
C530 C568 1.389 . S
C531 C530 1.443 . S
C531 C532 1.340 . S
C531 H571 0.951 . S
C532 C531 1.340 . S
C532 C533 1.439 . S
C532 H572 0.950 . S
C533 C532 1.439 . S
C533 N534 1.374 . S
C533 C567 1.395 . S
N534 C530 1.376 . S
N534 C533 1.374 . S
N534 Co535 2.008 . S
Co535 N534 2.008 . S
Co535 N536 1.995 . S
Co535 N541 2.008 . S
Co535 N546 1.995 . S
Co535 N551 2.282 . S
Co535 N557 2.282 . S
N536 Co535 1.995 . S
N536 C537 1.376 . S
N536 C540 1.383 . S
C537 N536 1.376 . S
C537 C538 1.446 . S
C537 C567 1.391 . S
C538 C537 1.446 . S
C538 C539 1.339 . S
C538 H573 0.949 . S
C539 C538 1.339 . S
C539 C540 1.439 . S
C539 H574 0.950 . S
C540 N536 1.383 . S
C540 C539 1.439 . S
C540 C569 1.392 . S
N541 Co535 2.008 . S
N541 C542 1.376 . S
N541 C545 1.374 . S
C542 N541 1.376 . S
C542 C543 1.443 . S
C542 C569 1.389 . S
C543 C542 1.443 . S
C543 C544 1.340 . S
C543 H575 0.951 . S
C544 C543 1.340 . S
C544 C545 1.439 . S
C544 H576 0.950 . S
C545 N541 1.374 . S
C545 C544 1.439 . S
C545 C570 1.395 . S
N546 Co535 1.995 . S
N546 C547 1.376 . S
N546 C550 1.383 . S
C547 N546 1.376 . S
C547 C548 1.446 . S
C547 C570 1.391 . S
C548 C547 1.446 . S
C548 C549 1.339 . S
C548 H577 0.949 . S
C549 C548 1.339 . S
C549 C550 1.439 . S
C549 H578 0.950 . S
C550 N546 1.383 . S
C550 C549 1.439 . S
C550 C568 1.392 . S
N551 Co535 2.282 . S
N551 C554 1.332 . S
N551 C556 1.332 . S
C552 C553 1.386 . S
C552 C555 1.388 . S
C553 C552 1.386 . S
C553 C554 1.382 . S
C553 H579 0.950 . S
C554 N551 1.332 . S
C554 C553 1.382 . S
C554 H565 0.952 . S
C555 C552 1.388 . S
C555 C556 1.382 . S
C555 H580 0.950 . S
C556 N551 1.332 . S
C556 C555 1.382 . S
C556 H566 0.948 . S
N557 Co535 2.282 . S
N557 C561 1.332 . S
N557 C562 1.332 . S
C558 C559 1.388 . S
C558 C562 1.382 . S
C558 H581 0.950 . S
C559 C558 1.388 . S
C559 C560 1.386 . S
C560 C559 1.386 . S
C560 C561 1.382 . S
C560 H582 0.950 . S
C561 N557 1.332 . S
C561 C560 1.382 . S
C561 H563 0.952 . S
C562 N557 1.332 . S
C562 C558 1.382 . S
C562 H564 0.948 . S
H563 C561 0.952 . S
H564 C562 0.948 . S
H565 C554 0.952 . S
H566 C556 0.948 . S
C567 C533 1.395 . S
C567 C537 1.391 . S
C568 C530 1.389 . S
C568 C550 1.392 . S
C569 C540 1.392 . S
C569 C542 1.389 . S
C570 C545 1.395 . S
C570 C547 1.391 . S
H571 C531 0.951 . S
H572 C532 0.950 . S
H573 C538 0.949 . S
H574 C539 0.950 . S
H575 C543 0.951 . S
H576 C544 0.950 . S
H577 C548 0.949 . S
H578 C549 0.950 . S
H579 C553 0.950 . S
H580 C555 0.950 . S
H581 C558 0.950 . S
H582 C560 0.950 . S
C583 C584 1.443 . S
C583 N587 1.376 . S
C583 C621 1.389 . S
C584 C583 1.443 . S
C584 C585 1.340 . S
C584 H624 0.951 . S
C585 C584 1.340 . S
C585 C586 1.439 . S
C585 H625 0.950 . S
C586 C585 1.439 . S
C586 N587 1.374 . S
C586 C620 1.395 . S
N587 C583 1.376 . S
N587 C586 1.374 . S
N587 Co588 2.008 . S
Co588 N587 2.008 . S
Co588 N589 1.995 . S
Co588 N594 2.008 . S
Co588 N599 1.995 . S
Co588 N604 2.282 . S
Co588 N610 2.282 . S
N589 Co588 1.995 . S
N589 C590 1.376 . S
N589 C593 1.383 . S
C590 N589 1.376 . S
C590 C591 1.446 . S
C590 C620 1.391 . S
C591 C590 1.446 . S
C591 C592 1.339 . S
C591 H626 0.949 . S
C592 C591 1.339 . S
C592 C593 1.439 . S
C592 H627 0.950 . S
C593 N589 1.383 . S
C593 C592 1.439 . S
C593 C622 1.392 . S
N594 Co588 2.008 . S
N594 C595 1.376 . S
N594 C598 1.374 . S
C595 N594 1.376 . S
C595 C596 1.443 . S
C595 C622 1.389 . S
C596 C595 1.443 . S
C596 C597 1.340 . S
C596 H628 0.951 . S
C597 C596 1.340 . S
C597 C598 1.439 . S
C597 H629 0.950 . S
C598 N594 1.374 . S
C598 C597 1.439 . S
C598 C623 1.395 . S
N599 Co588 1.995 . S
N599 C600 1.376 . S
N599 C603 1.383 . S
C600 N599 1.376 . S
C600 C601 1.446 . S
C600 C623 1.391 . S
C601 C600 1.446 . S
C601 C602 1.339 . S
C601 H630 0.949 . S
C602 C601 1.339 . S
C602 C603 1.439 . S
C602 H631 0.950 . S
C603 N599 1.383 . S
C603 C602 1.439 . S
C603 C621 1.392 . S
N604 Co588 2.282 . S
N604 C607 1.332 . S
N604 C609 1.332 . S
C605 C606 1.386 . S
C605 C608 1.388 . S
C606 C605 1.386 . S
C606 C607 1.382 . S
C606 H632 0.950 . S
C607 N604 1.332 . S
C607 C606 1.382 . S
C607 H618 0.952 . S
C608 C605 1.388 . S
C608 C609 1.382 . S
C608 H633 0.950 . S
C609 N604 1.332 . S
C609 C608 1.382 . S
C609 H619 0.948 . S
N610 Co588 2.282 . S
N610 C614 1.332 . S
N610 C615 1.332 . S
C611 C612 1.388 . S
C611 C615 1.382 . S
C611 H634 0.950 . S
C612 C611 1.388 . S
C612 C613 1.386 . S
C613 C612 1.386 . S
C613 C614 1.382 . S
C613 H635 0.950 . S
C614 N610 1.332 . S
C614 C613 1.382 . S
C614 H616 0.952 . S
C615 N610 1.332 . S
C615 C611 1.382 . S
C615 H617 0.948 . S
H616 C614 0.952 . S
H617 C615 0.948 . S
H618 C607 0.952 . S
H619 C609 0.948 . S
C620 C586 1.395 . S
C620 C590 1.391 . S
C621 C583 1.389 . S
C621 C603 1.392 . S
C622 C593 1.392 . S
C622 C595 1.389 . S
C623 C598 1.395 . S
C623 C600 1.391 . S
H624 C584 0.951 . S
H625 C585 0.950 . S
H626 C591 0.949 . S
H627 C592 0.950 . S
H628 C596 0.951 . S
H629 C597 0.950 . S
H630 C601 0.949 . S
H631 C602 0.950 . S
H632 C606 0.950 . S
H633 C608 0.950 . S
H634 C611 0.950 . S
H635 C613 0.950 . S
C39 C356 2.597 . S
C91 C409 1.847 . S
C462 C128 1.949 . S
C499 C188 1.344 . S
C559 C250 1.988 . S
C612 C304 1.954 . S
C75 C463 2.327 . S
C144 C506 1.897 . S
C552 C198 2.064 . S
C605 C234 1.437 . S
C294 C357 1.840 . S
C410 C29 1.604 . S
C516 C38 2.597 . S
C92 C568 1.866 . S
C621 C135 1.968 . S
C181 C347 1.344 . S
C251 C400 2.002 . S
C303 C453 1.975 . S
C82 C622 2.307 . S
C340 C145 1.897 . S
C197 C393 2.050 . S
C241 C446 1.415 . S
C287 C515 1.840 . S
C22 C569 1.582 . S
