# Generated by pormake.
# Topology csq, (4,8)-cn, num edge types: 1
# Building blocks:
#     Node 0, Type 0, BuildingBlock: MUDLON_clean_sbu_0, # of connection points: 4
#     Node 1, Type 0, BuildingBlock: MUDLON_clean_sbu_0, # of connection points: 4
#     Node 2, Type 0, BuildingBlock: MUDLON_clean_sbu_0, # of connection points: 4
#     Node 3, Type 0, BuildingBlock: MUDLON_clean_sbu_0, # of connection points: 4
#     Node 4, Type 0, BuildingBlock: MUDLON_clean_sbu_0, # of connection points: 4
#     Node 5, Type 0, BuildingBlock: MUDLON_clean_sbu_0, # of connection points: 4
#     Node 6, Type 1, BuildingBlock: TAGTUT_clean_sbu_1, # of connection points: 8
#     Node 7, Type 1, BuildingBlock: TAGTUT_clean_sbu_1, # of connection points: 8
#     Node 8, Type 1, BuildingBlock: TAGTUT_clean_sbu_1, # of connection points: 8
#     Edge 9, Type (0, 1), BuildingBlock: XUDNAN_clean_linker_2, # of connection points: 2
#     Edge 10, Type (0, 1), BuildingBlock: XUDNAN_clean_linker_2, # of connection points: 2
#     Edge 11, Type (0, 1), BuildingBlock: XUDNAN_clean_linker_2, # of connection points: 2
#     Edge 12, Type (0, 1), BuildingBlock: XUDNAN_clean_linker_2, # of connection points: 2
#     Edge 13, Type (0, 1), BuildingBlock: XUDNAN_clean_linker_2, # of connection points: 2
#     Edge 14, Type (0, 1), BuildingBlock: XUDNAN_clean_linker_2, # of connection points: 2
#     Edge 15, Type (0, 1), BuildingBlock: XUDNAN_clean_linker_2, # of connection points: 2
#     Edge 16, Type (0, 1), BuildingBlock: XUDNAN_clean_linker_2, # of connection points: 2
#     Edge 17, Type (0, 1), BuildingBlock: XUDNAN_clean_linker_2, # of connection points: 2
#     Edge 18, Type (0, 1), BuildingBlock: XUDNAN_clean_linker_2, # of connection points: 2
#     Edge 19, Type (0, 1), BuildingBlock: XUDNAN_clean_linker_2, # of connection points: 2
#     Edge 20, Type (0, 1), BuildingBlock: XUDNAN_clean_linker_2, # of connection points: 2
#     Edge 21, Type (0, 1), BuildingBlock: XUDNAN_clean_linker_2, # of connection points: 2
#     Edge 22, Type (0, 1), BuildingBlock: XUDNAN_clean_linker_2, # of connection points: 2
#     Edge 23, Type (0, 1), BuildingBlock: XUDNAN_clean_linker_2, # of connection points: 2
#     Edge 24, Type (0, 1), BuildingBlock: XUDNAN_clean_linker_2, # of connection points: 2
#     Edge 25, Type (0, 1), BuildingBlock: XUDNAN_clean_linker_2, # of connection points: 2
#     Edge 26, Type (0, 1), BuildingBlock: XUDNAN_clean_linker_2, # of connection points: 2
#     Edge 27, Type (0, 1), BuildingBlock: XUDNAN_clean_linker_2, # of connection points: 2
#     Edge 28, Type (0, 1), BuildingBlock: XUDNAN_clean_linker_2, # of connection points: 2
#     Edge 29, Type (0, 1), BuildingBlock: XUDNAN_clean_linker_2, # of connection points: 2
#     Edge 30, Type (0, 1), BuildingBlock: XUDNAN_clean_linker_2, # of connection points: 2
#     Edge 31, Type (0, 1), BuildingBlock: XUDNAN_clean_linker_2, # of connection points: 2
#     Edge 32, Type (0, 1), BuildingBlock: XUDNAN_clean_linker_2, # of connection points: 2
# Relax obj value: 0.063
# Max RMSD: 0.136
# Mean RMSD: 0.099
data_MOF--net-csq--node1-MUDLON_clean_sbu_0--node2-TAGTUT_clean_sbu_1--edge1-XUDNAN_clean_linker_2
_symmetry_space_group_name_H-M    P1
_symmetry_Int_Tables_number       1
_symmetry_cell_setting            triclinic
loop_
_symmetry_equiv_pos_as_xyz
'x, y, z'
_cell_length_a     49.761466
_cell_length_b     49.503034
_cell_length_c     20.576467
_cell_angle_alpha  92.436952
_cell_angle_beta   92.711393
_cell_angle_gamma 119.98411
loop_
_atom_site_label
_atom_site_type_symbol
_atom_site_fract_x
_atom_site_fract_y
_atom_site_fract_z
_atom_type_partial_charge
Mg0 Mg 0.2388 0.47097 0.17326 0.0
C1 C 0.19449 0.43271 0.04852 0.0
O2 O 0.21266 0.42103 0.03869 0.0
C3 C 0.25191 0.44584 0.29751 0.0
O4 O 0.23213 0.4531 0.32116 0.0
C5 C 0.1972 0.47876 0.2599 0.0
O6 O 0.18129 0.44976 0.23416 0.0
O7 O 0.22457 0.49629 0.24197 0.0
O8 O 0.19872 0.44938 0.10095 0.0
O9 O 0.2777 0.49421 0.10995 0.0
C10 C 0.28592 0.47569 0.08437 0.0
O11 O 0.27257 0.44686 0.10183 0.0
O12 O 0.25496 0.44634 0.23629 0.0
Mg13 Mg 0.7877 0.23357 0.14993 0.0
C14 C 0.83274 0.27083 0.06934 0.0
O15 O 0.81313 0.28096 0.07687 0.0
C16 C 0.75034 0.19424 0.24233 0.0
O17 O 0.73483 0.20539 0.21091 0.0
C18 C 0.79603 0.28556 0.25717 0.0
O19 O 0.77375 0.26322 0.28689 0.0
O20 O 0.80254 0.2794 0.20142 0.0
O21 O 0.82786 0.24617 0.09577 0.0
O22 O 0.74763 0.20755 0.07798 0.0
C23 C 0.7428 0.21202 0.01908 0.0
O24 O 0.76191 0.2384 0.99469 0.0
O25 O 0.77729 0.20154 0.22567 0.0
Mg26 Mg 0.50952 0.75559 0.07083 0.0
C27 C 0.55148 0.81528 0.1496 0.0
O28 O 0.56834 0.81528 0.1024 0.0
C29 C 0.52583 0.72953 0.96454 0.0
O30 O 0.55112 0.75374 0.99278 0.0
C31 C 0.5208 0.80695 0.97434 0.0
O32 O 0.54676 0.80637 0.9705 0.0
O33 O 0.50005 0.78774 0.00877 0.0
O34 O 0.52476 0.79155 0.15374 0.0
O35 O 0.51945 0.72431 0.13322 0.0
C36 C 0.54748 0.73289 0.15148 0.0
O37 O 0.56982 0.75995 0.13538 0.0
O38 O 0.49963 0.72203 0.98537 0.0
Mg39 Mg 0.78953 0.57275 0.09096 0.0
C40 C 0.74896 0.56821 0.99138 0.0
O41 O 0.74366 0.54087 0.00909 0.0
C42 C 0.82752 0.57653 0.19832 0.0
O43 O 0.80464 0.54765 0.18492 0.0
C44 C 0.73085 0.52417 0.16528 0.0
O45 O 0.73024 0.50113 0.12986 0.0
O46 O 0.75124 0.55219 0.15664 0.0
O47 O 0.77095 0.59274 0.02273 0.0
O48 O 0.80405 0.54939 0.01673 0.0
C49 C 0.82281 0.53901 0.02338 0.0
O50 O 0.83256 0.53684 0.08223 0.0
O51 O 0.82895 0.59771 0.16313 0.0
Mg52 Mg 0.23434 0.79272 0.10933 0.0
C53 C 0.22467 0.72814 0.0444 0.0
O54 O 0.23978 0.72558 0.09568 0.0
C55 C 0.27236 0.80828 0.24101 0.0
O56 O 0.2455 0.78677 0.25946 0.0
C57 C 0.17941 0.74909 0.17174 0.0
O58 O 0.18823 0.73175 0.14014 0.0
O59 O 0.19418 0.77845 0.16653 0.0
O60 O 0.22277 0.75272 0.04048 0.0
O61 O 0.24429 0.82769 0.04015 0.0
C62 C 0.27165 0.83645 0.02414 0.0
O63 O 0.2876 0.82526 0.05354 0.0
O64 O 0.27495 0.8134 0.18087 0.0
Mg65 Mg 0.45524 0.24189 0.20056 0.0
C66 C 0.42268 0.2517 0.30464 0.0
O67 O 0.43789 0.2404 0.33661 0.0
C68 C 0.45526 0.19621 0.11188 0.0
O69 O 0.48214 0.20868 0.14641 0.0
C70 C 0.50668 0.31144 0.13896 0.0
O71 O 0.5365 0.3238 0.15589 0.0
O72 O 0.48766 0.28577 0.16165 0.0
O73 O 0.42047 0.24883 0.24291 0.0
O74 O 0.47336 0.22041 0.2664 0.0
C75 C 0.49167 0.224 0.31535 0.0
O76 O 0.50863 0.25155 0.34731 0.0
O77 O 0.43721 0.20703 0.12078 0.0
C78 C 0.97928 0.42088 0.79314 0.0
C79 C 0.06737 0.47124 0.73031 0.0
C80 C 0.05153 0.57283 0.74427 0.0
Mg81 Mg 0.00288 0.4431 0.65771 0.0
O82 O 0.99761 0.47612 0.69052 0.0
Mg83 Mg 0.01994 0.49849 0.77659 0.0
Mg84 Mg 0.01185 0.51256 0.63723 0.0
O85 O 0.02629 0.54861 0.58299 0.0
Mg86 Mg 0.02128 0.58199 0.61198 0.0
Mg87 Mg 0.00632 0.52686 0.49534 0.0
C88 C 0.97046 0.45237 0.52845 0.0
C89 C 0.05932 0.50907 0.53518 0.0
O90 O 0.99185 0.44948 0.81675 0.0
O91 O 0.97999 0.41314 0.73327 0.0
O92 O 0.05931 0.48729 0.76628 0.0
O93 O 0.05068 0.45494 0.67883 0.0
O94 O 0.97805 0.43498 0.56029 0.0
O95 O 0.97921 0.48064 0.54962 0.0
C96 C 0.96554 0.51561 0.74312 0.0
O97 O 0.97272 0.51946 0.68346 0.0
O98 O 0.98019 0.50797 0.78433 0.0
O99 O 0.03683 0.57642 0.45579 0.0
O100 O 0.04802 0.61174 0.54063 0.0
O101 O 0.96751 0.53866 0.50049 0.0
C102 C 0.0503 0.60487 0.48124 0.0
O103 O 0.97449 0.57188 0.58485 0.0
O104 O 0.04332 0.58921 0.71049 0.0
C105 C 0.95872 0.55497 0.53324 0.0
O106 O 0.04448 0.54489 0.72383 0.0
O107 O 0.05125 0.50607 0.59401 0.0
O108 O 0.04578 0.51646 0.49103 0.0
C109 C 0.45922 0.04633 0.7983 0.0
C110 C 0.41841 0.95587 0.71251 0.0
C111 C 0.5297 0.96884 0.70481 0.0
Mg112 Mg 0.45167 0.01786 0.65645 0.0
O113 O 0.49216 0.02806 0.68785 0.0
Mg114 Mg 0.49433 0.00534 0.76396 0.0
Mg115 Mg 0.51088 0.01376 0.62292 0.0
O116 O 0.52825 -0.00124 0.55599 0.0
Mg117 Mg 0.56439 0.99786 0.57789 0.0
Mg118 Mg 0.5276 0.02422 0.48319 0.0
C119 C 0.48841 0.05358 0.53812 0.0
C120 C 0.45636 0.97147 0.50719 0.0
O121 O 0.47659 0.03545 0.8192 0.0
O122 O 0.44782 0.04153 0.73914 0.0
O123 O 0.44409 0.9673 0.74714 0.0
O124 O 0.41584 0.96957 0.66355 0.0
O125 O 0.46332 0.04249 0.5678 0.0
O126 O 0.51079 0.04875 0.5545 0.0
C127 C 0.56528 0.05625 0.73827 0.0
O128 O 0.55895 0.04986 0.67638 0.0
O129 O 0.54475 0.04301 0.77894 0.0
O130 O 0.54278 0.99568 0.41916 0.0
O131 O 0.56289 0.97454 0.48763 0.0
O132 O 0.58009 0.06088 0.50461 0.0
C133 C 0.55465 0.97838 0.43047 0.0
O134 O 0.60267 0.04418 0.57653 0.0
O135 O 0.55132 0.97369 0.66712 0.0
C136 C 0.6041 0.06448 0.53855 0.0
O137 O 0.51107 0.97935 0.69365 0.0
O138 O 0.46357 0.97719 0.56903 0.0
O139 O 0.47616 0.98645 0.46591 0.0
C140 C 0.55473 0.57857 0.42092 0.0
C141 C 0.5893 0.52163 0.48606 0.0
C142 C 0.46982 0.44254 0.54139 0.0
Mg143 Mg 0.57108 0.56457 0.55773 0.0
O144 O 0.52769 0.53735 0.5463 0.0
Mg145 Mg 0.5141 0.50557 0.47064 0.0
Mg146 Mg 0.51068 0.50985 0.6192 0.0
O147 O 0.4949 0.48229 0.69283 0.0
Mg148 Mg 0.4533 0.44991 0.6893 0.0
Mg149 Mg 0.51034 0.51382 0.76951 0.0
C150 C 0.55029 0.57832 0.6952 0.0
C151 C 0.57175 0.52075 0.70755 0.0
O152 O 0.53334 0.54965 0.40815 0.0
O153 O 0.57123 0.58881 0.47545 0.0
O154 O 0.56086 0.507 0.46352 0.0
O155 O 0.59927 0.54424 0.5299 0.0
O156 O 0.57071 0.58521 0.65312 0.0
O157 O 0.52454 0.55196 0.6918 0.0
C158 C 0.4516 0.50059 0.52462 0.0
O159 O 0.46181 0.50276 0.58447 0.0
O160 O 0.46817 0.50273 0.4774 0.0
O161 O 0.49595 0.47034 0.83298 0.0
O162 O 0.45987 0.42755 0.77061 0.0
O163 O 0.46225 0.50948 0.78292 0.0
C164 C 0.47747 0.44047 0.82334 0.0
O165 O 0.42408 0.46761 0.72484 0.0
O166 O 0.45111 0.43285 0.5873 0.0
C167 C 0.43339 0.49155 0.76501 0.0
O168 O 0.49642 0.46789 0.54778 0.0
O169 O 0.5594 0.51748 0.64967 0.0
O170 O 0.55731 0.51913 0.75808 0.0
H171 H 0.14247 0.44292 0.31509 0.0
H172 H 0.2211 0.53754 0.32339 0.0
H173 H 0.19701 0.55368 0.40814 0.0
H174 H 0.08421 0.46125 0.3268 0.0
H175 H 0.06102 0.43027 0.3775 0.0
H176 H 0.08623 0.42585 0.32377 0.0
H177 H 0.11327 0.4151 0.42173 0.0
H178 H 0.08818 0.41971 0.47597 0.0
H179 H 0.12984 0.4431 0.49166 0.0
H180 H 0.16212 0.56019 0.48565 0.0
H181 H 0.11813 0.55758 0.54205 0.0
H182 H 0.06204 0.45891 0.48164 0.0
C183 C 0.15489 0.46704 0.335 0.0
C184 C 0.18376 0.48902 0.3122 0.0
C185 C 0.19905 0.52028 0.33988 0.0
C186 C 0.18558 0.52958 0.38835 0.0
C187 C 0.157 0.50729 0.40927 0.0
C188 C 0.14189 0.47662 0.38342 0.0
C189 C 0.11054 0.45753 0.4111 0.0
C190 C 0.08394 0.4429 0.35654 0.0
C191 C 0.11046 0.43237 0.45257 0.0
C192 C 0.10941 0.48267 0.45364 0.0
C193 C 0.13687 0.51101 0.45353 0.0
C194 C 0.1408 0.53803 0.48686 0.0
C195 C 0.1158 0.53631 0.51918 0.0
C196 C 0.08715 0.5079 0.51759 0.0
C197 C 0.0841 0.48065 0.48534 0.0
H198 H 0.70781 0.19628 0.3157 0.0
H199 H 0.76202 0.15034 0.29425 0.0
H200 H 0.73514 0.1169 0.38338 0.0
H201 H 0.70439 0.1929 0.49603 0.0
H202 H 0.66539 0.18661 0.49115 0.0
H203 H 0.69217 0.20955 0.43298 0.0
H204 H 0.65264 0.17319 0.33794 0.0
H205 H 0.62585 0.15031 0.39561 0.0
H206 H 0.63799 0.13166 0.33603 0.0
H207 H 0.69899 0.08591 0.46767 0.0
H208 H 0.65394 0.05645 0.53152 0.0
H209 H 0.62239 0.12204 0.49364 0.0
C210 C 0.7144 0.1795 0.33036 0.0
C211 C 0.73695 0.1758 0.29845 0.0
C212 C 0.74501 0.15367 0.31882 0.0
C213 C 0.72993 0.13472 0.36938 0.0
C214 C 0.70748 0.13882 0.39945 0.0
C215 C 0.69988 0.16077 0.38066 0.0
C216 C 0.6733 0.15905 0.4165 0.0
C217 C 0.68448 0.1888 0.46185 0.0
C218 C 0.64583 0.15317 0.36866 0.0
C219 C 0.66556 0.13123 0.45543 0.0
C220 C 0.68626 0.12062 0.4468 0.0
C221 C 0.68303 0.09436 0.47566 0.0
C222 C 0.65745 0.07794 0.5124 0.0
C223 C 0.63493 0.08731 0.51835 0.0
C224 C 0.63957 0.11478 0.49092 0.0
H225 H 0.50866 0.67141 0.17469 0.0
H226 H 0.60324 0.74887 0.21543 0.0
H227 H 0.61605 0.7157 0.2809 0.0
H228 H 0.49992 0.64249 0.3312 0.0
H229 H 0.4777 0.60178 0.30204 0.0
H230 H 0.4763 0.63092 0.25489 0.0
H231 H 0.49345 0.61134 0.15488 0.0
H232 H 0.49498 0.58216 0.2019 0.0
H233 H 0.52874 0.60955 0.16288 0.0
H234 H 0.61813 0.67592 0.34565 0.0
H235 H 0.60917 0.63192 0.41012 0.0
H236 H 0.51328 0.57921 0.32779 0.0
C237 C 0.53211 0.68132 0.1971 0.0
C238 C 0.555 0.71271 0.18992 0.0
C239 C 0.5854 0.72484 0.21997 0.0
C240 C 0.59293 0.70618 0.25712 0.0
C241 C 0.56988 0.67536 0.2631 0.0
C242 C 0.54011 0.66292 0.23401 0.0
C243 C 0.51946 0.6294 0.2505 0.0
C244 C 0.49172 0.62596 0.28683 0.0
C245 C 0.50851 0.60678 0.18885 0.0
C246 C 0.54214 0.62523 0.29471 0.0
C247 C 0.57114 0.65202 0.30061 0.0
C248 C 0.59566 0.65468 0.34093 0.0
C249 C 0.59028 0.62953 0.37734 0.0
C250 C 0.56057 0.60206 0.37352 0.0
C251 C 0.53636 0.59964 0.33057 0.0
H252 H 0.85145 0.53975 0.22283 0.0
H253 H 0.85524 0.62528 0.2941 0.0
H254 H 0.88685 0.6276 0.39397 0.0
H255 H 0.84239 0.50506 0.36936 0.0
H256 H 0.86705 0.48888 0.3536 0.0
H257 H 0.84698 0.49549 0.28663 0.0
H258 H 0.8991 0.53007 0.23588 0.0
H259 H 0.91923 0.52271 0.30154 0.0
H260 H 0.93072 0.56235 0.28495 0.0
H261 H 0.91537 0.61753 0.48956 0.0
H262 H 0.94472 0.60124 0.5628 0.0
H263 H 0.91996 0.52166 0.42589 0.0
C264 C 0.85939 0.55929 0.259 0.0
C265 C 0.85107 0.58236 0.25128 0.0
C266 C 0.86181 0.60762 0.29918 0.0
C267 C 0.87942 0.60887 0.35614 0.0
C268 C 0.88616 0.58485 0.36342 0.0
C269 C 0.877 0.56097 0.31518 0.0
C270 C 0.88724 0.53809 0.3334 0.0
C271 C 0.85923 0.50493 0.33591 0.0
C272 C 0.91046 0.53834 0.28618 0.0
C273 C 0.90289 0.55218 0.40058 0.0
C274 C 0.90218 0.57915 0.41733 0.0
C275 C 0.91606 0.59647 0.47677 0.0
C276 C 0.93234 0.58678 0.51854 0.0
C277 C 0.93458 0.56004 0.50047 0.0
C278 C 0.91857 0.54205 0.44173 0.0
H279 H 0.3201 0.86829 0.2306 0.0
H280 H 0.2818 0.79515 0.36482 0.0
H281 H 0.3227 0.83019 0.45031 0.0
H282 H 0.3998 0.89956 0.27736 0.0
H283 H 0.41022 0.93984 0.2715 0.0
H284 H 0.37732 0.90937 0.222 0.0
H285 H 0.34204 0.92894 0.26847 0.0
H286 H 0.37488 0.9594 0.31849 0.0
H287 H 0.34025 0.93236 0.35551 0.0
H288 H 0.36832 0.87329 0.52114 0.0
H289 H 0.41707 0.91958 0.56869 0.0
H290 H 0.42557 0.96441 0.38808 0.0
C291 C 0.32049 0.85956 0.27781 0.0
C292 C 0.29797 0.82881 0.29085 0.0
C293 C 0.29889 0.81853 0.35368 0.0
C294 C 0.32194 0.83833 0.40264 0.0
C295 C 0.34362 0.86858 0.38842 0.0
C296 C 0.34303 0.87919 0.32758 0.0
C297 C 0.36903 0.91272 0.3249 0.0
C298 C 0.39036 0.91551 0.27075 0.0
C299 C 0.35575 0.93464 0.31632 0.0
C300 C 0.38548 0.91861 0.3923 0.0
C301 C 0.36995 0.89321 0.4289 0.0
C302 C 0.38064 0.89332 0.49291 0.0
C303 C 0.40827 0.91977 0.51964 0.0
C304 C 0.4252 0.94552 0.48202 0.0
C305 C 0.41326 0.94499 0.4179 0.0
H306 H 0.4697 0.29849 0.38055 0.0
H307 H 0.37769 0.26785 0.28949 0.0
H308 H 0.3829 0.31883 0.32649 0.0
H309 H 0.4675 0.34074 0.5197 0.0
H310 H 0.50758 0.37121 0.51907 0.0
H311 H 0.49541 0.33248 0.4847 0.0
H312 H 0.51767 0.35578 0.37596 0.0
H313 H 0.52886 0.39453 0.40951 0.0
H314 H 0.50384 0.37854 0.33514 0.0
H315 H 0.39663 0.37069 0.38424 0.0
H316 H 0.41702 0.41817 0.46003 0.0
H317 H 0.50272 0.41711 0.49837 0.0
C318 C 0.45039 0.30229 0.36949 0.0
C319 C 0.42289 0.27918 0.33415 0.0
C320 C 0.39859 0.28526 0.31807 0.0
C321 C 0.40157 0.31417 0.33801 0.0
C322 C 0.42942 0.33683 0.37171 0.0
C323 C 0.45343 0.33119 0.38689 0.0
C324 C 0.48088 0.35902 0.42389 0.0
C325 C 0.48824 0.35034 0.49079 0.0
C326 C 0.5095 0.37278 0.3837 0.0
C327 C 0.46799 0.3808 0.4305 0.0
C328 C 0.43836 0.36775 0.39958 0.0
C329 C 0.4201 0.38157 0.40701 0.0
C330 C 0.43182 0.40849 0.44977 0.0
C331 C 0.4616 0.42133 0.4831 0.0
C332 C 0.48041 0.40825 0.47105 0.0
H333 H 0.55982 0.8491 0.89339 0.0
H334 H 0.47323 0.81975 0.98353 0.0
H335 H 0.4679 0.86115 0.93135 0.0
H336 H 0.58771 0.93243 0.90655 0.0
H337 H 0.60409 0.93823 0.8286 0.0
H338 H 0.60164 0.90737 0.87588 0.0
H339 H 0.57079 0.86683 0.778 0.0
H340 H 0.57323 0.89753 0.73044 0.0
H341 H 0.53579 0.8642 0.74177 0.0
H342 H 0.47136 0.90493 0.86512 0.0
H343 H 0.48202 0.94504 0.7868 0.0
H344 H 0.56651 0.94507 0.74261 0.0
C345 C 0.53976 0.85138 0.9025 0.0
C346 C 0.5169 0.83114 0.94244 0.0
C347 C 0.49097 0.83491 0.95283 0.0
C348 C 0.48784 0.85846 0.92372 0.0
C349 C 0.51087 0.87805 0.88462 0.0
C350 C 0.53628 0.87464 0.87395 0.0
C351 C 0.55714 0.89767 0.82779 0.0
C352 C 0.58956 0.92026 0.86177 0.0
C353 C 0.55934 0.88053 0.76584 0.0
C354 C 0.53931 0.91434 0.81335 0.0
C355 C 0.51282 0.90298 0.84687 0.0
C356 C 0.49218 0.91417 0.83902 0.0
C357 C 0.49848 0.93706 0.79463 0.0
C358 C 0.52512 0.94835 0.7586 0.0
C359 C 0.546 0.93717 0.76948 0.0
H360 H 0.70169 0.51785 0.92255 0.0
H361 H 0.75079 0.61935 0.93614 0.0
H362 H 0.71486 0.61752 0.84558 0.0
H363 H 0.68191 0.50438 0.74487 0.0
H364 H 0.64439 0.47082 0.75455 0.0
H365 H 0.67691 0.4806 0.81228 0.0
H366 H 0.64513 0.4823 0.90739 0.0
H367 H 0.61261 0.4722 0.8501 0.0
H368 H 0.62826 0.50712 0.90437 0.0
H369 H 0.67023 0.60363 0.76009 0.0
H370 H 0.61827 0.58005 0.70064 0.0
H371 H 0.59846 0.48813 0.74952 0.0
C372 C 0.70546 0.53988 0.90607 0.0
C373 C 0.72921 0.5688 0.93614 0.0
C374 C 0.73286 0.59694 0.91344 0.0
C375 C 0.71271 0.59606 0.86181 0.0
C376 C 0.68939 0.5669 0.83355 0.0
C377 C 0.68569 0.53938 0.8555 0.0
C378 C 0.65692 0.51101 0.82334 0.0
C379 C 0.66557 0.4905 0.78126 0.0
C380 C 0.63441 0.49208 0.87431 0.0
C381 C 0.64403 0.52675 0.78135 0.0
C382 C 0.6635 0.55894 0.78614 0.0
C383 C 0.65522 0.57847 0.75502 0.0
C384 C 0.62581 0.56487 0.72076 0.0
C385 C 0.60502 0.53224 0.71909 0.0
C386 C 0.61457 0.51294 0.74806 0.0
H387 H 0.18767 0.72562 0.93902 0.0
H388 H 0.20959 0.66679 0.05455 0.0
H389 H 0.16608 0.61973 0.99367 0.0
H390 H 0.10642 0.67939 0.93606 0.0
H391 H 0.09916 0.68632 0.85349 0.0
H392 H 0.13348 0.7152 0.90215 0.0
H393 H 0.16851 0.7139 0.81427 0.0
H394 H 0.13425 0.68561 0.76457 0.0
H395 H 0.16456 0.677 0.78613 0.0
H396 H 0.11858 0.57867 0.91967 0.0
H397 H 0.07412 0.54851 0.8368 0.0
H398 H 0.08272 0.63554 0.77794 0.0
C399 C 0.18378 0.70291 0.95107 0.0
C400 C 0.20227 0.7 0.00153 0.0
C401 C 0.19603 0.66971 0.01569 0.0
C402 C 0.17118 0.64282 0.98169 0.0
C403 C 0.15277 0.64661 0.93379 0.0
C404 C 0.15905 0.676 0.91824 0.0
C405 C 0.13566 0.67409 0.86593 0.0
C406 C 0.11761 0.68966 0.89095 0.0
C407 C 0.1517 0.68849 0.80407 0.0
C408 C 0.11496 0.63899 0.8548 0.0
C409 C 0.12518 0.62338 0.89378 0.0
C410 C 0.11031 0.59072 0.8892 0.0
C411 C 0.08496 0.57374 0.84223 0.0
C412 C 0.07458 0.58947 0.80109 0.0
C413 C 0.08952 0.62252 0.80904 0.0
H414 H 0.47183 0.15165 0.11566 0.0
H415 H 0.4215 0.18472 0.99634 0.0
H416 H 0.41398 0.14644 0.90634 0.0
H417 H 0.51297 0.14151 0.99802 0.0
H418 H 0.50956 0.10552 0.02296 0.0
H419 H 0.50759 0.13223 0.08195 0.0
H420 H 0.45401 0.08853 0.11272 0.0
H421 H 0.45604 0.06141 0.05462 0.0
H422 H 0.42298 0.06711 0.04965 0.0
H423 H 0.41786 0.11118 0.82733 0.0
H424 H 0.42842 0.07614 0.76134 0.0
H425 H 0.47538 0.06326 0.93107 0.0
C426 C 0.45871 0.15028 0.07087 0.0
C427 C 0.44724 0.17095 0.06212 0.0
C428 C 0.43014 0.16877 0.00357 0.0
C429 C 0.42582 0.14719 0.95244 0.0
C430 C 0.43809 0.12766 0.96184 0.0
C431 C 0.45362 0.12841 0.01984 0.0
C432 C 0.4655 0.10554 0.01561 0.0
C433 C 0.50101 0.12222 0.03048 0.0
C434 C 0.44862 0.07908 0.06084 0.0
C435 C 0.456 0.09344 0.94465 0.0
C436 C 0.43981 0.10628 0.91541 0.0
C437 C 0.42981 0.10032 0.8498 0.0
C438 C 0.43611 0.08032 0.81276 0.0
C439 C 0.45249 0.06649 0.84115 0.0
C440 C 0.46254 0.07314 0.90819 0.0
H441 H 0.30033 0.43777 0.01125 0.0
H442 H 0.32335 0.53449 0.04188 0.0
H443 H 0.36161 0.54898 0.95818 0.0
H444 H 0.37737 0.45323 0.98926 0.0
H445 H 0.36509 0.42142 0.92781 0.0
H446 H 0.33939 0.41888 0.98896 0.0
H447 H 0.29678 0.40875 0.89836 0.0
H448 H 0.32243 0.41137 0.83693 0.0
H449 H 0.30554 0.4362 0.83672 0.0
H450 H 0.40066 0.55316 0.87634 0.0
H451 H 0.43446 0.54615 0.8007 0.0
H452 H 0.38265 0.44617 0.81833 0.0
C453 C 0.31331 0.46206 1.00047 0.0
C454 C 0.30886 0.48507 0.03369 0.0
C455 C 0.32634 0.51647 0.01744 0.0
C456 C 0.34811 0.52488 0.96985 0.0
C457 C 0.35195 0.50158 0.93831 0.0
C458 C 0.33481 0.47075 0.95279 0.0
C459 C 0.34343 0.4501 0.91278 0.0
C460 C 0.35714 0.43503 0.95736 0.0
C461 C 0.31537 0.42514 0.86858 0.0
C462 C 0.36802 0.47407 0.87307 0.0
C463 C 0.37296 0.50372 0.88901 0.0
C464 C 0.39643 0.52994 0.86249 0.0
C465 C 0.41543 0.52576 0.81931 0.0
C466 C 0.41043 0.49553 0.80169 0.0
C467 C 0.38615 0.46941 0.8286 0.0
H468 H 0.85799 0.33184 0.04943 0.0
H469 H 0.8681 0.251 0.00562 0.0
H470 H 0.91032 0.28226 0.9346 0.0
H471 H 0.86703 0.35771 0.89267 0.0
H472 H 0.88779 0.39869 0.91982 0.0
H473 H 0.86061 0.37062 0.97065 0.0
H474 H 0.9038 0.39049 0.06557 0.0
H475 H 0.93112 0.41871 0.01493 0.0
H476 H 0.93979 0.39138 0.05239 0.0
H477 H 0.9466 0.32088 0.85878 0.0
H478 H 0.97691 0.36464 0.79056 0.0
H479 H 0.94388 0.4201 0.89028 0.0
C480 C 0.8693 0.32071 0.02557 0.0
C481 C 0.85988 0.28906 0.0325 0.0
C482 C 0.87525 0.27535 1.00092 0.0
C483 C 0.8991 0.29287 0.96057 0.0
C484 C 0.90731 0.32397 0.95368 0.0
C485 C 0.89305 0.33779 0.98603 0.0
C486 C 0.90488 0.37101 0.96876 0.0
C487 C 0.87851 0.3747 0.93603 0.0
C488 C 0.92086 0.39427 0.02901 0.0
C489 C 0.92798 0.37382 0.92089 0.0
C490 C 0.92893 0.34642 0.91233 0.0
C491 C 0.94653 0.34263 0.86603 0.0
C492 C 0.96348 0.36746 0.82743 0.0
C493 C 0.9629 0.39569 0.83615 0.0
C494 C 0.94527 0.399 0.88396 0.0
H495 H 0.8546 0.50726 0.01625 0.0
H496 H 0.82561 0.56089 0.9011 0.0
H497 H 0.8565 0.55879 0.81193 0.0
H498 H 0.93119 0.54332 0.97578 0.0
H499 H 0.93393 0.50833 0.97295 0.0
H500 H 0.90713 0.51154 0.02391 0.0
H501 H 0.86143 0.46033 0.96602 0.0
H502 H 0.88827 0.45684 0.91541 0.0
H503 H 0.85478 0.45697 0.87841 0.0
H504 H 0.89532 0.55372 0.73749 0.0
H505 H 0.93556 0.54523 0.68845 0.0
H506 H 0.93713 0.49485 0.85467 0.0
C507 C 0.8542 0.51807 0.97183 0.0
C508 C 0.83751 0.53411 0.96583 0.0
C509 C 0.83789 0.54812 0.90679 0.0
C510 C 0.85551 0.54715 0.85585 0.0
C511 C 0.87232 0.53168 0.86411 0.0
C512 C 0.87134 0.51705 0.92056 0.0
C513 C 0.89219 0.50298 0.9194 0.0
C514 C 0.91761 0.51742 0.97637 0.0
C515 C 0.87302 0.46716 0.91983 0.0
C516 C 0.90581 0.51262 0.85451 0.0
C517 C 0.89408 0.52893 0.82252 0.0
C518 C 0.90435 0.5407 0.76219 0.0
C519 C 0.92721 0.53575 0.73452 0.0
C520 C 0.93975 0.51946 0.76754 0.0
C521 C 0.92836 0.50757 0.82788 0.0
H522 H 0.33124 0.88073 0.0218 0.0
H523 H 0.24329 0.835 0.9045 0.0
H524 H 0.27079 0.86002 0.80709 0.0
H525 H 0.36756 0.95396 0.93684 0.0
H526 H 0.40518 0.95708 0.94787 0.0
H527 H 0.37715 0.93904 0.00721 0.0
H528 H 0.3824 0.88959 0.99233 0.0
H529 H 0.4095 0.90695 0.93128 0.0
H530 H 0.37456 0.86966 0.91232 0.0
H531 H 0.31069 0.88864 0.72047 0.0
H532 H 0.3571 0.91985 0.6587 0.0
H533 H 0.41642 0.94052 0.83705 0.0
C534 C 0.31765 0.87671 0.97598 0.0
C535 C 0.28531 0.85635 0.97032 0.0
C536 C 0.26815 0.85118 0.90971 0.0
C537 C 0.28362 0.86501 0.85419 0.0
C538 C 0.31601 0.88395 0.8609 0.0
C539 C 0.33259 0.89011 0.92088 0.0
C540 C 0.3671 0.90981 0.91618 0.0
C541 C 0.38 0.94187 0.95424 0.0
C542 C 0.38437 0.89297 0.93937 0.0
C543 C 0.3677 0.91277 0.8437 0.0
C544 C 0.33825 0.89846 0.81213 0.0
C545 C 0.33384 0.89986 0.74493 0.0
C546 C 0.36026 0.91732 0.71007 0.0
C547 C 0.39049 0.93233 0.7425 0.0
C548 C 0.39387 0.929 0.80977 0.0
H549 H 0.54225 0.36433 0.07606 0.0
H550 H 0.44631 0.29407 0.09834 0.0
H551 H 0.42849 0.32035 0.02234 0.0
H552 H 0.53138 0.43037 0.06831 0.0
H553 H 0.55857 0.44788 0.00707 0.0
H554 H 0.56351 0.42341 0.06303 0.0
H555 H 0.56315 0.38818 0.96553 0.0
H556 H 0.55833 0.41269 0.90947 0.0
H557 H 0.53086 0.37128 0.90423 0.0
H558 H 0.42131 0.35355 0.941 0.0
H559 H 0.42523 0.39154 0.86239 0.0
H560 H 0.52577 0.44138 0.89638 0.0
C561 C 0.51747 0.35447 0.06526 0.0
C562 C 0.49569 0.32711 0.09345 0.0
C563 C 0.46347 0.31496 0.07747 0.0
C564 C 0.45312 0.32975 0.03435 0.0
C565 C 0.47526 0.35669 0.00757 0.0
C566 C 0.50675 0.36891 0.02238 0.0
C567 C 0.5258 0.39781 0.98621 0.0
C568 C 0.546 0.42657 0.03403 0.0
C569 C 0.54571 0.39215 0.93854 0.0
C570 C 0.50013 0.4005 0.94991 0.0
C571 C 0.47113 0.37626 0.96219 0.0
C572 C 0.44387 0.37277 0.93164 0.0
C573 C 0.44632 0.39445 0.88717 0.0
C574 C 0.47573 0.41963 0.87436 0.0
C575 C 0.50296 0.42281 0.90661 0.0
H576 H 0.17631 0.47575 0.02947 0.0
H577 H 0.1673 0.38997 0.94238 0.0
H578 H 0.13725 0.39285 0.84598 0.0
H579 H 0.10118 0.4628 0.97437 0.0
H580 H 0.11549 0.50316 0.95906 0.0
H581 H 0.1354 0.49342 0.02076 0.0
H582 H 0.18656 0.52407 0.96404 0.0
H583 H 0.16654 0.53329 0.90139 0.0
H584 H 0.18759 0.51382 0.87944 0.0
H585 H 0.10829 0.4056 0.75874 0.0
H586 H 0.07882 0.42419 0.69305 0.0
H587 H 0.10893 0.50278 0.83634 0.0
C588 C 0.16765 0.45728 0.99059 0.0
C589 C 0.17386 0.4324 0.99369 0.0
C590 C 0.16268 0.40913 0.94109 0.0
C591 C 0.14576 0.41069 0.88606 0.0
C592 C 0.14074 0.43599 0.88391 0.0
C593 C 0.15128 0.4588 0.93497 0.0
C594 C 0.14316 0.48376 0.92055 0.0
C595 C 0.12256 0.48588 0.9717 0.0
C596 C 0.17273 0.51561 0.9161 0.0
C597 C 0.12543 0.47089 0.85428 0.0
C598 C 0.12467 0.44358 0.83347 0.0
C599 C 0.10892 0.42707 0.7744 0.0
C600 C 0.09249 0.43805 0.73697 0.0
C601 C 0.09165 0.46514 0.759 0.0
C602 C 0.10929 0.48221 0.81751 0.0
H603 H 0.70795 0.21234 0.91067 0.0
H604 H 0.72446 0.15087 0.0293 0.0
H605 H 0.68649 0.1054 0.95684 0.0
H606 H 0.6267 0.16253 0.88786 0.0
H607 H 0.62272 0.17156 0.80523 0.0
H608 H 0.65443 0.19989 0.86056 0.0
H609 H 0.69359 0.2026 0.77867 0.0
H610 H 0.66187 0.17393 0.72341 0.0
H611 H 0.69284 0.16721 0.75067 0.0
H612 H 0.64537 0.0665 0.87757 0.0
H613 H 0.59745 0.03526 0.80525 0.0
H614 H 0.60395 0.12015 0.73937 0.0
C615 C 0.70374 0.1893 0.92073 0.0
C616 C 0.7192 0.18512 0.9755 0.0
C617 C 0.71276 0.15461 0.98789 0.0
C618 C 0.6915 0.12866 0.94654 0.0
C619 C 0.67657 0.13346 0.89315 0.0
C620 C 0.68195 0.16288 0.88049 0.0
C621 C 0.66001 0.16086 0.82405 0.0
C622 C 0.63976 0.1745 0.84574 0.0
C623 C 0.67817 0.17713 0.76575 0.0
C624 C 0.64082 0.12567 0.80871 0.0
C625 C 0.65156 0.11052 0.84803 0.0
C626 C 0.63695 0.07806 0.84596 0.0
C627 C 0.60988 0.06052 0.8046 0.0
C628 C 0.59757 0.07541 0.76618 0.0
C629 C 0.61357 0.10836 0.7669 0.0
H630 H 0.5188 0.67232 0.97753 0.0
H631 H 0.54168 0.74421 0.84242 0.0
H632 H 0.55275 0.71357 0.76081 0.0
H633 H 0.57998 0.65674 0.93406 0.0
H634 H 0.55747 0.61546 0.9443 0.0
H635 H 0.5507 0.64259 0.99196 0.0
H636 H 0.4924 0.61206 0.95 0.0
H637 H 0.49884 0.58468 0.90267 0.0
H638 H 0.48179 0.60504 0.86334 0.0
H639 H 0.56236 0.67694 0.69699 0.0
H640 H 0.56602 0.63326 0.64678 0.0
H641 H 0.53622 0.58347 0.82196 0.0
C642 C 0.52554 0.68108 0.9301 0.0
C643 C 0.52883 0.70994 0.91459 0.0
C644 C 0.53869 0.72173 0.85372 0.0
C645 C 0.54519 0.70468 0.80769 0.0
C646 C 0.54221 0.67639 0.82452 0.0
C647 C 0.53255 0.66453 0.88399 0.0
C648 C 0.53197 0.63383 0.88979 0.0
C649 C 0.55648 0.63737 0.9432 0.0
C650 C 0.49929 0.60734 0.90213 0.0
C651 C 0.54108 0.62944 0.82272 0.0
C652 C 0.54776 0.65485 0.787 0.0
C653 C 0.5573 0.65694 0.72431 0.0
C654 C 0.55951 0.63208 0.69654 0.0
C655 C 0.55166 0.60522 0.731 0.0
C656 C 0.54245 0.60386 0.79503 0.0
H657 H 0.52162 0.21758 0.42591 0.0
H658 H 0.46411 0.16681 0.24831 0.0
H659 H 0.46241 0.119 0.28072 0.0
H660 H 0.56556 0.17482 0.43396 0.0
H661 H 0.56591 0.17474 0.52157 0.0
H662 H 0.56576 0.20637 0.48156 0.0
H663 H 0.51641 0.19617 0.53804 0.0
H664 H 0.51645 0.16459 0.57805 0.0
H665 H 0.48238 0.15765 0.52869 0.0
H666 H 0.46088 0.07518 0.33689 0.0
H667 H 0.4615 0.03845 0.41436 0.0
H668 H 0.52149 0.11656 0.55326 0.0
C669 C 0.50916 0.19655 0.39339 0.0
C670 C 0.49301 0.19613 0.3346 0.0
C671 C 0.47667 0.16793 0.29373 0.0
C672 C 0.47562 0.14053 0.31148 0.0
C673 C 0.49124 0.14153 0.37006 0.0
C674 C 0.50791 0.16877 0.41034 0.0
C675 C 0.52089 0.16271 0.47266 0.0
C676 C 0.55666 0.18073 0.4777 0.0
C677 C 0.50826 0.17074 0.53289 0.0
C678 C 0.50806 0.12776 0.46163 0.0
C679 C 0.49119 0.11606 0.40187 0.0
C680 C 0.47473 0.08408 0.38307 0.0
C681 C 0.47524 0.06343 0.42696 0.0
C682 C 0.49238 0.07503 0.48809 0.0
C683 C 0.50927 0.10749 0.5054 0.0
H684 H 0.30792 0.45227 0.26861 0.0
H685 H 0.25133 0.44196 0.43007 0.0
H686 H 0.29572 0.45333 0.50798 0.0
H687 H 0.3541 0.42019 0.34456 0.0
H688 H 0.38881 0.44818 0.30914 0.0
H689 H 0.35118 0.43475 0.26724 0.0
H690 H 0.36418 0.49235 0.26347 0.0
H691 H 0.40149 0.50585 0.30655 0.0
H692 H 0.37487 0.51676 0.33856 0.0
H693 H 0.34886 0.47082 0.569 0.0
H694 H 0.40425 0.48976 0.60486 0.0
H695 H 0.42444 0.49047 0.4016 0.0
C696 C 0.30445 0.45135 0.32021 0.0
C697 C 0.276 0.44594 0.34308 0.0
C698 C 0.27283 0.4458 0.41127 0.0
C699 C 0.29796 0.45234 0.456 0.0
C700 C 0.32613 0.45896 0.43183 0.0
C701 C 0.32931 0.45813 0.36539 0.0
C702 C 0.36241 0.46818 0.35154 0.0
C703 C 0.36422 0.44122 0.31605 0.0
C704 C 0.37655 0.49752 0.31276 0.0
C705 C 0.37747 0.47539 0.42035 0.0
C706 C 0.35636 0.46973 0.46637 0.0
C707 C 0.36556 0.47517 0.53322 0.0
C708 C 0.39706 0.48615 0.55323 0.0
C709 C 0.41889 0.49186 0.50636 0.0
C710 C 0.40866 0.48659 0.43923 0.0
H711 H 0.85878 0.3222 0.24858 0.0
H712 H 0.78224 0.31631 0.35158 0.0
H713 H 0.81925 0.3638 0.42161 0.0
H714 H 0.909 0.33993 0.38565 0.0
H715 H 0.94412 0.36628 0.34906 0.0
H716 H 0.91146 0.33591 0.29894 0.0
H717 H 0.91118 0.37713 0.226 0.0
H718 H 0.94402 0.40775 0.27584 0.0
H719 H 0.90891 0.40956 0.26273 0.0
H720 H 0.86457 0.4101 0.4837 0.0
H721 H 0.91481 0.44677 0.54456 0.0
H722 H 0.96269 0.41861 0.41109 0.0
C723 C 0.84973 0.33152 0.28452 0.0
C724 C 0.81751 0.31604 0.29368 0.0
C725 C 0.80671 0.32813 0.34305 0.0
C726 C 0.82758 0.35513 0.38286 0.0
C727 C 0.85926 0.36955 0.37331 0.0
C728 C 0.87036 0.35797 0.32583 0.0
C729 C 0.90573 0.37543 0.33105 0.0
C730 C 0.9183 0.35305 0.34187 0.0
C731 C 0.9182 0.39354 0.27029 0.0
C732 C 0.91282 0.39768 0.39086 0.0
C733 C 0.88564 0.39474 0.41259 0.0
C734 C 0.88597 0.41273 0.46686 0.0
C735 C 0.91464 0.43366 0.50084 0.0
C736 C 0.94259 0.43583 0.48187 0.0
C737 C 0.9417 0.41776 0.42582 0.0
H738 H 0.52583 0.82089 0.25855 0.0
H739 H 0.59626 0.87488 0.12747 0.0
H740 H 0.60385 0.92383 0.18289 0.0
H741 H 0.4911 0.86724 0.25919 0.0
H742 H 0.48281 0.8633 0.3437 0.0
H743 H 0.48482 0.83271 0.29761 0.0
H744 H 0.52727 0.83638 0.38191 0.0
H745 H 0.52449 0.8661 0.42956 0.0
H746 H 0.56165 0.87381 0.40378 0.0
H747 H 0.60041 0.96655 0.24829 0.0
H748 H 0.59139 -0.00049 0.32897 0.0
H749 H 0.52334 0.91616 0.4139 0.0
C750 C 0.54326 0.843 0.24217 0.0
C751 C 0.56037 0.84425 0.18886 0.0
C752 C 0.58301 0.87355 0.1687 0.0
C753 C 0.58729 0.9014 0.1994 0.0
C754 C 0.56885 0.89922 0.25001 0.0
C755 C 0.54772 0.87075 0.2719 0.0
C756 C 0.5302 0.87436 0.32602 0.0
C757 C 0.49517 0.85846 0.30537 0.0
C758 C 0.53629 0.86194 0.38904 0.0
C759 C 0.54503 0.90939 0.33199 0.0
C760 C 0.56694 0.92345 0.28723 0.0
C761 C 0.58344 0.95582 0.28376 0.0
C762 C 0.57807 0.97426 0.32904 0.0
C763 C 0.55675 0.95993 0.3766 0.0
C764 C 0.53971 0.92731 0.37742 0.0
H765 H 0.72717 0.56641 0.25246 0.0
H766 H 0.68287 0.46731 0.19264 0.0
H767 H 0.64502 0.45593 0.27522 0.0
H768 H 0.71742 0.55798 0.42682 0.0
H769 H 0.70918 0.58936 0.43789 0.0
H770 H 0.73383 0.59027 0.37561 0.0
H771 H 0.69805 0.59571 0.2882 0.0
H772 H 0.67351 0.59512 0.35031 0.0
H773 H 0.65702 0.56734 0.28001 0.0
H774 H 0.61005 0.45506 0.35937 0.0
H775 H 0.57954 0.46509 0.43822 0.0
H776 H 0.64681 0.56433 0.44823 0.0
C777 C 0.70962 0.54228 0.25693 0.0
C778 C 0.70817 0.5177 0.21579 0.0
C779 C 0.68466 0.48654 0.22335 0.0
C780 C 0.66303 0.47982 0.27035 0.0
C781 C 0.66517 0.50444 0.3101 0.0
C782 C 0.68782 0.5351 0.30401 0.0
C783 C 0.68418 0.5572 0.35183 0.0
C784 C 0.71287 0.57473 0.40094 0.0
C785 C 0.6778 0.58019 0.3154 0.0
C786 C 0.65581 0.53414 0.38519 0.0
C787 C 0.64531 0.50384 0.36029 0.0
C788 C 0.61836 0.47862 0.38006 0.0
C789 C 0.60127 0.4845 0.42523 0.0
C790 C 0.61126 0.51533 0.45101 0.0
C791 C 0.63926 0.54039 0.43146 0.0
H792 H 0.13722 0.68766 0.17175 0.0
H793 H 0.17143 0.77692 0.28205 0.0
H794 H 0.13981 0.74928 0.37243 0.0
H795 H 0.05836 0.64794 0.22702 0.0
H796 H 0.05756 0.6112 0.22967 0.0
H797 H 0.07997 0.63844 0.17169 0.0
H798 H 0.1291 0.63759 0.21631 0.0
H799 H 0.107 0.61073 0.27502 0.0
H800 H 0.14153 0.64725 0.30201 0.0
H801 H 0.10913 0.7116 0.45382 0.0
H802 H 0.07837 0.66727 0.51872 0.0
H803 H 0.06478 0.60244 0.35422 0.0
C804 C 0.13748 0.70151 0.21424 0.0
C805 C 0.15647 0.7344 0.21996 0.0
C806 C 0.15654 0.75173 0.27645 0.0
C807 C 0.1389 0.73621 0.32805 0.0
C808 C 0.12134 0.70358 0.32164 0.0
C809 C 0.12023 0.68648 0.26582 0.0
C810 C 0.10101 0.65164 0.27219 0.0
C811 C 0.07253 0.63642 0.22219 0.0
C812 C 0.12086 0.6359 0.26603 0.0
C813 C 0.09162 0.65168 0.34087 0.0
C814 C 0.10363 0.68186 0.36848 0.0
C815 C 0.09924 0.68789 0.43243 0.0
C816 C 0.08178 0.66243 0.46891 0.0
C817 C 0.0689 0.63123 0.44143 0.0
C818 C 0.07401 0.62592 0.37648 0.0
loop_
_geom_bond_atom_site_label_1
_geom_bond_atom_site_label_2
_geom_bond_distance
_geom_bond_site_symmetry_2
_ccdc_geom_bond_type
Mg0 O7 2.141 . S
Mg0 O8 2.048 . S
Mg0 O9 2.048 . S
Mg0 O12 2.141 . S
C1 O2 1.313 . S
C1 O8 1.195 . S
O2 C1 1.313 . S
C3 O4 1.245 . S
C3 O12 1.289 . S
O4 C3 1.245 . S
C5 O6 1.245 . S
C5 O7 1.289 . S
O6 C5 1.245 . S
O7 Mg0 2.141 . S
O7 C5 1.289 . S
O8 Mg0 2.048 . S
O8 C1 1.195 . S
O9 Mg0 2.048 . S
O9 C10 1.195 . S
C10 O9 1.195 . S
C10 O11 1.313 . S
O11 C10 1.313 . S
O12 Mg0 2.141 . S
O12 C3 1.289 . S
Mg13 O20 2.141 . S
Mg13 O21 2.048 . S
Mg13 O22 2.048 . S
Mg13 O25 2.141 . S
C14 O15 1.313 . S
C14 O21 1.195 . S
O15 C14 1.313 . S
C16 O17 1.245 . S
C16 O25 1.289 . S
O17 C16 1.245 . S
C18 O19 1.245 . S
C18 O20 1.289 . S
O19 C18 1.245 . S
O20 Mg13 2.141 . S
O20 C18 1.289 . S
O21 Mg13 2.048 . S
O21 C14 1.195 . S
O22 Mg13 2.048 . S
O22 C23 1.195 . S
C23 O22 1.195 . S
C23 O24 1.313 . S
O24 C23 1.313 . S
O25 Mg13 2.141 . S
O25 C16 1.289 . S
Mg26 O33 2.141 1_554 S
Mg26 O34 2.048 . S
Mg26 O35 2.048 . S
Mg26 O38 2.141 1_554 S
C27 O28 1.313 . S
C27 O34 1.195 . S
O28 C27 1.313 . S
C29 O30 1.245 . S
C29 O38 1.289 . S
O30 C29 1.245 . S
C31 O32 1.245 . S
C31 O33 1.289 . S
O32 C31 1.245 . S
O33 Mg26 2.141 1_556 S
O33 C31 1.289 . S
O34 Mg26 2.048 . S
O34 C27 1.195 . S
O35 Mg26 2.048 . S
O35 C36 1.195 . S
C36 O35 1.195 . S
C36 O37 1.313 . S
O37 C36 1.313 . S
O38 Mg26 2.141 1_556 S
O38 C29 1.289 . S
Mg39 O46 2.141 . S
Mg39 O47 2.048 . S
Mg39 O48 2.048 . S
Mg39 O51 2.141 . S
C40 O41 1.313 . S
C40 O47 1.195 1_556 S
O41 C40 1.313 . S
C42 O43 1.245 . S
C42 O51 1.289 . S
O43 C42 1.245 . S
C44 O45 1.245 . S
C44 O46 1.289 . S
O45 C44 1.245 . S
O46 Mg39 2.141 . S
O46 C44 1.289 . S
O47 Mg39 2.048 . S
O47 C40 1.195 1_554 S
O48 Mg39 2.048 . S
O48 C49 1.195 1_554 S
C49 O48 1.195 1_556 S
C49 O50 1.313 . S
O50 C49 1.313 . S
O51 Mg39 2.141 . S
O51 C42 1.289 . S
Mg52 O59 2.141 . S
Mg52 O60 2.048 . S
Mg52 O61 2.048 . S
Mg52 O64 2.141 . S
C53 O54 1.313 1_554 S
C53 O60 1.195 . S
O54 C53 1.313 1_556 S
C55 O56 1.245 . S
C55 O64 1.289 . S
O56 C55 1.245 . S
C57 O58 1.245 . S
C57 O59 1.289 . S
O58 C57 1.245 . S
O59 Mg52 2.141 . S
O59 C57 1.289 . S
O60 Mg52 2.048 . S
O60 C53 1.195 . S
O61 Mg52 2.048 . S
O61 C62 1.195 . S
C62 O61 1.195 . S
C62 O63 1.313 . S
O63 C62 1.313 . S
O64 Mg52 2.141 . S
O64 C55 1.289 . S
Mg65 O72 2.141 . S
Mg65 O73 2.048 . S
Mg65 O74 2.048 . S
Mg65 O77 2.141 . S
C66 O67 1.313 . S
C66 O73 1.195 . S
O67 C66 1.313 . S
C68 O69 1.245 . S
C68 O77 1.289 . S
O69 C68 1.245 . S
C70 O71 1.245 . S
C70 O72 1.289 . S
O71 C70 1.245 . S
O72 Mg65 2.141 . S
O72 C70 1.289 . S
O73 Mg65 2.048 . S
O73 C66 1.195 . S
O74 Mg65 2.048 . S
O74 C75 1.195 . S
C75 O74 1.195 . S
C75 O76 1.313 . S
O76 C75 1.313 . S
O77 Mg65 2.141 . S
O77 C68 1.289 . S
C78 O90 1.241 . S
C78 O91 1.280 . S
C79 O92 1.277 . S
C79 O93 1.245 . S
C80 O104 1.247 . S
C80 O106 1.289 . S
Mg81 O82 1.926 . S
Mg81 O91 1.984 . S
Mg81 O93 1.988 1_655 S
Mg81 O94 2.061 . S
O82 Mg81 1.926 . S
O82 Mg83 1.986 1_655 S
O82 Mg84 1.917 1_655 S
Mg83 O82 1.986 1_455 S
Mg83 O90 2.042 1_455 S
Mg83 O92 2.041 . S
Mg83 O98 2.038 1_455 S
Mg83 O106 2.238 . S
Mg84 O82 1.917 1_455 S
Mg84 O85 1.917 . S
Mg84 O95 2.106 1_455 S
Mg84 O97 2.079 1_455 S
Mg84 O106 2.106 . S
Mg84 O107 2.079 . S
O85 Mg84 1.917 . S
O85 Mg86 1.926 . S
O85 Mg87 1.986 . S
Mg86 O85 1.926 . S
Mg86 O100 1.984 . S
Mg86 O103 1.988 1_455 S
Mg86 O104 2.061 . S
Mg87 O85 1.986 . S
Mg87 O95 2.238 1_455 S
Mg87 O99 2.042 . S
Mg87 O101 2.041 1_455 S
Mg87 O108 2.038 . S
C88 O94 1.247 . S
C88 O95 1.289 . S
C89 O107 1.245 . S
C89 O108 1.274 . S
O90 C78 1.241 . S
O90 Mg83 2.042 1_655 S
O91 C78 1.280 . S
O91 Mg81 1.984 . S
O92 C79 1.277 . S
O92 Mg83 2.041 . S
O93 C79 1.245 . S
O93 Mg81 1.988 1_455 S
O94 Mg81 2.061 . S
O94 C88 1.247 . S
O95 Mg84 2.106 1_655 S
O95 Mg87 2.238 1_655 S
O95 C88 1.289 . S
C96 O97 1.245 . S
C96 O98 1.274 . S
O97 Mg84 2.079 1_655 S
O97 C96 1.245 . S
O98 Mg83 2.038 1_655 S
O98 C96 1.274 . S
O99 Mg87 2.042 . S
O99 C102 1.241 . S
O100 Mg86 1.984 . S
O100 C102 1.280 . S
O101 Mg87 2.041 1_655 S
O101 C105 1.277 . S
C102 O99 1.241 . S
C102 O100 1.280 . S
O103 Mg86 1.988 1_655 S
O103 C105 1.245 . S
O104 C80 1.247 . S
O104 Mg86 2.061 . S
C105 O101 1.277 . S
C105 O103 1.245 . S
O106 C80 1.289 . S
O106 Mg83 2.238 . S
O106 Mg84 2.106 . S
O107 Mg84 2.079 . S
O107 C89 1.245 . S
O108 Mg87 2.038 . S
O108 C89 1.274 . S
C109 O121 1.241 . S
C109 O122 1.280 . S
C110 O123 1.277 . S
C110 O124 1.245 . S
C111 O135 1.247 . S
C111 O137 1.289 . S
Mg112 O113 1.926 . S
Mg112 O122 1.984 . S
Mg112 O124 1.988 1_545 S
Mg112 O125 2.061 . S
O113 Mg112 1.926 . S
O113 Mg114 1.986 . S
O113 Mg115 1.917 . S
Mg114 O113 1.986 . S
Mg114 O121 2.042 . S
Mg114 O123 2.041 1_545 S
Mg114 O129 2.038 . S
Mg114 O137 2.238 1_545 S
Mg115 O113 1.917 . S
Mg115 O116 1.915 1_545 S
Mg115 O126 2.106 . S
Mg115 O128 2.079 . S
Mg115 O137 2.106 1_545 S
Mg115 O138 2.079 1_545 S
O116 Mg115 1.915 1_565 S
O116 Mg117 1.928 . S
O116 Mg118 1.985 1_565 S
Mg117 O116 1.928 . S
Mg117 O131 1.984 . S
Mg117 O134 1.988 1_565 S
Mg117 O135 2.061 . S
Mg118 O116 1.985 1_545 S
Mg118 O126 2.238 . S
Mg118 O130 2.042 1_545 S
Mg118 O132 2.041 . S
Mg118 O139 2.038 1_545 S
C119 O125 1.247 . S
C119 O126 1.289 . S
C120 O138 1.245 . S
C120 O139 1.274 . S
O121 C109 1.241 . S
O121 Mg114 2.042 . S
O122 C109 1.280 . S
O122 Mg112 1.984 . S
O123 C110 1.277 . S
O123 Mg114 2.041 1_565 S
O124 C110 1.245 . S
O124 Mg112 1.988 1_565 S
O125 Mg112 2.061 . S
O125 C119 1.247 . S
O126 Mg115 2.106 . S
O126 Mg118 2.238 . S
O126 C119 1.289 . S
C127 O128 1.245 . S
C127 O129 1.274 . S
O128 Mg115 2.079 . S
O128 C127 1.245 . S
O129 Mg114 2.038 . S
O129 C127 1.274 . S
O130 Mg118 2.042 1_565 S
O130 C133 1.241 . S
O131 Mg117 1.984 . S
O131 C133 1.280 . S
O132 Mg118 2.041 . S
O132 C136 1.277 . S
C133 O130 1.241 . S
C133 O131 1.280 . S
O134 Mg117 1.988 1_545 S
O134 C136 1.245 . S
O135 C111 1.247 . S
O135 Mg117 2.061 . S
C136 O132 1.277 . S
C136 O134 1.245 . S
O137 C111 1.289 . S
O137 Mg114 2.238 1_565 S
O137 Mg115 2.106 1_565 S
O138 Mg115 2.079 1_565 S
O138 C120 1.245 . S
O139 Mg118 2.038 1_565 S
O139 C120 1.274 . S
C140 O152 1.241 . S
C140 O153 1.280 . S
C141 O154 1.277 . S
C141 O155 1.245 . S
C142 O166 1.247 . S
C142 O168 1.289 . S
Mg143 O144 1.926 . S
Mg143 O153 1.984 . S
Mg143 O155 1.988 . S
Mg143 O156 2.061 . S
O144 Mg143 1.926 . S
O144 Mg145 1.986 . S
O144 Mg146 1.917 . S
Mg145 O144 1.986 . S
Mg145 O152 2.042 . S
Mg145 O154 2.041 . S
Mg145 O160 2.038 . S
Mg145 O168 2.238 . S
Mg146 O144 1.917 . S
Mg146 O147 1.917 . S
Mg146 O157 2.106 . S
Mg146 O159 2.079 . S
Mg146 O168 2.106 . S
Mg146 O169 2.079 . S
O147 Mg146 1.917 . S
O147 Mg148 1.926 . S
O147 Mg149 1.986 . S
Mg148 O147 1.926 . S
Mg148 O162 1.984 . S
Mg148 O165 1.988 . S
Mg148 O166 2.061 . S
Mg149 O147 1.986 . S
Mg149 O157 2.238 . S
Mg149 O161 2.042 . S
Mg149 O163 2.041 . S
Mg149 O170 2.038 . S
C150 O156 1.247 . S
C150 O157 1.289 . S
C151 O169 1.245 . S
C151 O170 1.274 . S
O152 C140 1.241 . S
O152 Mg145 2.042 . S
O153 C140 1.280 . S
O153 Mg143 1.984 . S
O154 C141 1.277 . S
O154 Mg145 2.041 . S
O155 C141 1.245 . S
O155 Mg143 1.988 . S
O156 Mg143 2.061 . S
O156 C150 1.247 . S
O157 Mg146 2.106 . S
O157 Mg149 2.238 . S
O157 C150 1.289 . S
C158 O159 1.245 . S
C158 O160 1.274 . S
O159 Mg146 2.079 . S
O159 C158 1.245 . S
O160 Mg145 2.038 . S
O160 C158 1.274 . S
O161 Mg149 2.042 . S
O161 C164 1.241 . S
O162 Mg148 1.984 . S
O162 C164 1.280 . S
O163 Mg149 2.041 . S
O163 C167 1.277 . S
C164 O161 1.241 . S
C164 O162 1.280 . S
O165 Mg148 1.988 . S
O165 C167 1.245 . S
O166 C142 1.247 . S
O166 Mg148 2.061 . S
C167 O163 1.277 . S
C167 O165 1.245 . S
O168 C142 1.289 . S
O168 Mg145 2.238 . S
O168 Mg146 2.106 . S
O169 Mg146 2.079 . S
O169 C151 1.245 . S
O170 Mg149 2.038 . S
O170 C151 1.274 . S
H171 C183 0.930 . S
H172 C185 0.930 . S
H173 C186 0.930 . S
H174 C190 0.959 . S
H175 C190 0.959 . S
H176 C190 0.961 . S
H177 C191 0.960 . S
H178 C191 0.961 . S
H179 C191 0.959 . S
H180 C194 0.929 . S
H181 C195 0.931 . S
H182 C197 0.930 . S
C183 H171 0.930 . S
C183 C184 1.399 . S
C183 C188 1.399 . S
C184 C183 1.399 . S
C184 C185 1.376 . S
C185 H172 0.930 . S
C185 C184 1.376 . S
C185 C186 1.388 . S
C186 H173 0.930 . S
C186 C185 1.388 . S
C186 C187 1.390 . S
C187 C186 1.390 . S
C187 C188 1.394 . S
C187 C193 1.465 . S
C188 C183 1.399 . S
C188 C187 1.394 . S
C188 C189 1.516 . S
C189 C188 1.516 . S
C189 C190 1.502 . S
C189 C191 1.561 . S
C189 C192 1.526 . S
C190 H174 0.959 . S
C190 H175 0.959 . S
C190 H176 0.961 . S
C190 C189 1.502 . S
C191 H177 0.960 . S
C191 H178 0.961 . S
C191 H179 0.959 . S
C191 C189 1.561 . S
C192 C189 1.526 . S
C192 C193 1.396 . S
C192 C197 1.390 . S
C193 C187 1.465 . S
C193 C192 1.396 . S
C193 C194 1.399 . S
C194 H180 0.929 . S
C194 C193 1.399 . S
C194 C195 1.385 . S
C195 H181 0.931 . S
C195 C194 1.385 . S
C195 C196 1.389 . S
C196 C195 1.389 . S
C196 C197 1.387 . S
C197 H182 0.930 . S
C197 C192 1.390 . S
C197 C196 1.387 . S
H198 C210 0.930 . S
H199 C212 0.930 . S
H200 C213 0.930 . S
H201 C217 0.959 . S
H202 C217 0.959 . S
H203 C217 0.961 . S
H204 C218 0.960 . S
H205 C218 0.961 . S
H206 C218 0.959 . S
H207 C221 0.929 . S
H208 C222 0.931 . S
H209 C224 0.930 . S
C210 H198 0.930 . S
C210 C211 1.399 . S
C210 C215 1.399 . S
C211 C210 1.399 . S
C211 C212 1.376 . S
C212 H199 0.930 . S
C212 C211 1.376 . S
C212 C213 1.388 . S
C213 H200 0.930 . S
C213 C212 1.388 . S
C213 C214 1.390 . S
C214 C213 1.390 . S
C214 C215 1.394 . S
C214 C220 1.465 . S
C215 C210 1.399 . S
C215 C214 1.394 . S
C215 C216 1.516 . S
C216 C215 1.516 . S
C216 C217 1.502 . S
C216 C218 1.561 . S
C216 C219 1.526 . S
C217 H201 0.959 . S
C217 H202 0.959 . S
C217 H203 0.961 . S
C217 C216 1.502 . S
C218 H204 0.960 . S
C218 H205 0.961 . S
C218 H206 0.959 . S
C218 C216 1.561 . S
C219 C216 1.526 . S
C219 C220 1.396 . S
C219 C224 1.390 . S
C220 C214 1.465 . S
C220 C219 1.396 . S
C220 C221 1.399 . S
C221 H207 0.929 . S
C221 C220 1.399 . S
C221 C222 1.385 . S
C222 H208 0.931 . S
C222 C221 1.385 . S
C222 C223 1.389 . S
C223 C222 1.389 . S
C223 C224 1.387 . S
C224 H209 0.930 . S
C224 C219 1.390 . S
C224 C223 1.387 . S
H225 C237 0.930 . S
H226 C239 0.930 . S
H227 C240 0.930 . S
H228 C244 0.959 . S
H229 C244 0.959 . S
H230 C244 0.961 . S
H231 C245 0.960 . S
H232 C245 0.961 . S
H233 C245 0.959 . S
H234 C248 0.929 . S
H235 C249 0.931 . S
H236 C251 0.930 . S
C237 H225 0.930 . S
C237 C238 1.399 . S
C237 C242 1.399 . S
C238 C237 1.399 . S
C238 C239 1.376 . S
C239 H226 0.930 . S
C239 C238 1.376 . S
C239 C240 1.388 . S
C240 H227 0.930 . S
C240 C239 1.388 . S
C240 C241 1.390 . S
C241 C240 1.390 . S
C241 C242 1.394 . S
C241 C247 1.465 . S
C242 C237 1.399 . S
C242 C241 1.394 . S
C242 C243 1.516 . S
C243 C242 1.516 . S
C243 C244 1.502 . S
C243 C245 1.561 . S
C243 C246 1.526 . S
C244 H228 0.959 . S
C244 H229 0.959 . S
C244 H230 0.961 . S
C244 C243 1.502 . S
C245 H231 0.960 . S
C245 H232 0.961 . S
C245 H233 0.959 . S
C245 C243 1.561 . S
C246 C243 1.526 . S
C246 C247 1.396 . S
C246 C251 1.390 . S
C247 C241 1.465 . S
C247 C246 1.396 . S
C247 C248 1.399 . S
C248 H234 0.929 . S
C248 C247 1.399 . S
C248 C249 1.385 . S
C249 H235 0.931 . S
C249 C248 1.385 . S
C249 C250 1.389 . S
C250 C249 1.389 . S
C250 C251 1.387 . S
C251 H236 0.930 . S
C251 C246 1.390 . S
C251 C250 1.387 . S
H252 C264 0.930 . S
H253 C266 0.930 . S
H254 C267 0.930 . S
H255 C271 0.959 . S
H256 C271 0.959 . S
H257 C271 0.961 . S
H258 C272 0.960 . S
H259 C272 0.961 . S
H260 C272 0.959 . S
H261 C275 0.929 . S
H262 C276 0.931 . S
H263 C278 0.930 . S
C264 H252 0.930 . S
C264 C265 1.399 . S
C264 C269 1.399 . S
C265 C264 1.399 . S
C265 C266 1.376 . S
C266 H253 0.930 . S
C266 C265 1.376 . S
C266 C267 1.388 . S
C267 H254 0.930 . S
C267 C266 1.388 . S
C267 C268 1.390 . S
C268 C267 1.390 . S
C268 C269 1.394 . S
C268 C274 1.465 . S
C269 C264 1.399 . S
C269 C268 1.394 . S
C269 C270 1.516 . S
C270 C269 1.516 . S
C270 C271 1.502 . S
C270 C272 1.561 . S
C270 C273 1.526 . S
C271 H255 0.959 . S
C271 H256 0.959 . S
C271 H257 0.961 . S
C271 C270 1.502 . S
C272 H258 0.960 . S
C272 H259 0.961 . S
C272 H260 0.959 . S
C272 C270 1.561 . S
C273 C270 1.526 . S
C273 C274 1.396 . S
C273 C278 1.390 . S
C274 C268 1.465 . S
C274 C273 1.396 . S
C274 C275 1.399 . S
C275 H261 0.929 . S
C275 C274 1.399 . S
C275 C276 1.385 . S
C276 H262 0.931 . S
C276 C275 1.385 . S
C276 C277 1.389 . S
C277 C276 1.389 . S
C277 C278 1.387 . S
C278 H263 0.930 . S
C278 C273 1.390 . S
C278 C277 1.387 . S
H279 C291 0.930 . S
H280 C293 0.930 . S
H281 C294 0.930 . S
H282 C298 0.959 . S
H283 C298 0.959 . S
H284 C298 0.961 . S
H285 C299 0.960 . S
H286 C299 0.961 . S
H287 C299 0.959 . S
H288 C302 0.929 . S
H289 C303 0.931 . S
H290 C305 0.930 . S
C291 H279 0.930 . S
C291 C292 1.399 . S
C291 C296 1.399 . S
C292 C291 1.399 . S
C292 C293 1.376 . S
C293 H280 0.930 . S
C293 C292 1.376 . S
C293 C294 1.388 . S
C294 H281 0.930 . S
C294 C293 1.388 . S
C294 C295 1.390 . S
C295 C294 1.390 . S
C295 C296 1.394 . S
C295 C301 1.465 . S
C296 C291 1.399 . S
C296 C295 1.394 . S
C296 C297 1.516 . S
C297 C296 1.516 . S
C297 C298 1.502 . S
C297 C299 1.561 . S
C297 C300 1.526 . S
C298 H282 0.959 . S
C298 H283 0.959 . S
C298 H284 0.961 . S
C298 C297 1.502 . S
C299 H285 0.960 . S
C299 H286 0.961 . S
C299 H287 0.959 . S
C299 C297 1.561 . S
C300 C297 1.526 . S
C300 C301 1.396 . S
C300 C305 1.390 . S
C301 C295 1.465 . S
C301 C300 1.396 . S
C301 C302 1.399 . S
C302 H288 0.929 . S
C302 C301 1.399 . S
C302 C303 1.385 . S
C303 H289 0.931 . S
C303 C302 1.385 . S
C303 C304 1.389 . S
C304 C303 1.389 . S
C304 C305 1.387 . S
C305 H290 0.930 . S
C305 C300 1.390 . S
C305 C304 1.387 . S
H306 C318 0.930 . S
H307 C320 0.930 . S
H308 C321 0.930 . S
H309 C325 0.959 . S
H310 C325 0.959 . S
H311 C325 0.961 . S
H312 C326 0.960 . S
H313 C326 0.961 . S
H314 C326 0.959 . S
H315 C329 0.929 . S
H316 C330 0.931 . S
H317 C332 0.930 . S
C318 H306 0.930 . S
C318 C319 1.399 . S
C318 C323 1.399 . S
C319 C318 1.399 . S
C319 C320 1.376 . S
C320 H307 0.930 . S
C320 C319 1.376 . S
C320 C321 1.388 . S
C321 H308 0.930 . S
C321 C320 1.388 . S
C321 C322 1.390 . S
C322 C321 1.390 . S
C322 C323 1.394 . S
C322 C328 1.465 . S
C323 C318 1.399 . S
C323 C322 1.394 . S
C323 C324 1.516 . S
C324 C323 1.516 . S
C324 C325 1.502 . S
C324 C326 1.561 . S
C324 C327 1.526 . S
C325 H309 0.959 . S
C325 H310 0.959 . S
C325 H311 0.961 . S
C325 C324 1.502 . S
C326 H312 0.960 . S
C326 H313 0.961 . S
C326 H314 0.959 . S
C326 C324 1.561 . S
C327 C324 1.526 . S
C327 C328 1.396 . S
C327 C332 1.390 . S
C328 C322 1.465 . S
C328 C327 1.396 . S
C328 C329 1.399 . S
C329 H315 0.929 . S
C329 C328 1.399 . S
C329 C330 1.385 . S
C330 H316 0.931 . S
C330 C329 1.385 . S
C330 C331 1.389 . S
C331 C330 1.389 . S
C331 C332 1.387 . S
C332 H317 0.930 . S
C332 C327 1.390 . S
C332 C331 1.387 . S
H333 C345 0.930 . S
H334 C347 0.930 . S
H335 C348 0.930 . S
H336 C352 0.959 . S
H337 C352 0.959 . S
H338 C352 0.961 . S
H339 C353 0.960 . S
H340 C353 0.961 . S
H341 C353 0.959 . S
H342 C356 0.929 . S
H343 C357 0.931 . S
H344 C359 0.930 . S
C345 H333 0.930 . S
C345 C346 1.399 . S
C345 C350 1.399 . S
C346 C345 1.399 . S
C346 C347 1.376 . S
C347 H334 0.930 . S
C347 C346 1.376 . S
C347 C348 1.388 . S
C348 H335 0.930 . S
C348 C347 1.388 . S
C348 C349 1.390 . S
C349 C348 1.390 . S
C349 C350 1.394 . S
C349 C355 1.465 . S
C350 C345 1.399 . S
C350 C349 1.394 . S
C350 C351 1.516 . S
C351 C350 1.516 . S
C351 C352 1.502 . S
C351 C353 1.561 . S
C351 C354 1.526 . S
C352 H336 0.959 . S
C352 H337 0.959 . S
C352 H338 0.961 . S
C352 C351 1.502 . S
C353 H339 0.960 . S
C353 H340 0.961 . S
C353 H341 0.959 . S
C353 C351 1.561 . S
C354 C351 1.526 . S
C354 C355 1.396 . S
C354 C359 1.390 . S
C355 C349 1.465 . S
C355 C354 1.396 . S
C355 C356 1.399 . S
C356 H342 0.929 . S
C356 C355 1.399 . S
C356 C357 1.385 . S
C357 H343 0.931 . S
C357 C356 1.385 . S
C357 C358 1.389 . S
C358 C357 1.389 . S
C358 C359 1.387 . S
C359 H344 0.930 . S
C359 C354 1.390 . S
C359 C358 1.387 . S
H360 C372 0.930 . S
H361 C374 0.930 . S
H362 C375 0.930 . S
H363 C379 0.959 . S
H364 C379 0.959 . S
H365 C379 0.961 . S
H366 C380 0.960 . S
H367 C380 0.961 . S
H368 C380 0.959 . S
H369 C383 0.929 . S
H370 C384 0.931 . S
H371 C386 0.930 . S
C372 H360 0.930 . S
C372 C373 1.399 . S
C372 C377 1.399 . S
C373 C372 1.399 . S
C373 C374 1.376 . S
C374 H361 0.930 . S
C374 C373 1.376 . S
C374 C375 1.388 . S
C375 H362 0.930 . S
C375 C374 1.388 . S
C375 C376 1.390 . S
C376 C375 1.390 . S
C376 C377 1.394 . S
C376 C382 1.465 . S
C377 C372 1.399 . S
C377 C376 1.394 . S
C377 C378 1.516 . S
C378 C377 1.516 . S
C378 C379 1.502 . S
C378 C380 1.561 . S
C378 C381 1.526 . S
C379 H363 0.959 . S
C379 H364 0.959 . S
C379 H365 0.961 . S
C379 C378 1.502 . S
C380 H366 0.960 . S
C380 H367 0.961 . S
C380 H368 0.959 . S
C380 C378 1.561 . S
C381 C378 1.526 . S
C381 C382 1.396 . S
C381 C386 1.390 . S
C382 C376 1.465 . S
C382 C381 1.396 . S
C382 C383 1.399 . S
C383 H369 0.929 . S
C383 C382 1.399 . S
C383 C384 1.385 . S
C384 H370 0.931 . S
C384 C383 1.385 . S
C384 C385 1.389 . S
C385 C384 1.389 . S
C385 C386 1.387 . S
C386 H371 0.930 . S
C386 C381 1.390 . S
C386 C385 1.387 . S
H387 C399 0.930 . S
H388 C401 0.930 1_554 S
H389 C402 0.930 . S
H390 C406 0.959 . S
H391 C406 0.959 . S
H392 C406 0.961 . S
H393 C407 0.960 . S
H394 C407 0.961 . S
H395 C407 0.959 . S
H396 C410 0.929 . S
H397 C411 0.931 . S
H398 C413 0.930 . S
C399 H387 0.930 . S
C399 C400 1.399 . S
C399 C404 1.399 . S
C400 C399 1.399 . S
C400 C401 1.376 . S
C401 H388 0.930 1_556 S
C401 C400 1.376 . S
C401 C402 1.388 . S
C402 H389 0.930 . S
C402 C401 1.388 . S
C402 C403 1.390 . S
C403 C402 1.390 . S
C403 C404 1.394 . S
C403 C409 1.465 . S
C404 C399 1.399 . S
C404 C403 1.394 . S
C404 C405 1.516 . S
C405 C404 1.516 . S
C405 C406 1.502 . S
C405 C407 1.561 . S
C405 C408 1.526 . S
C406 H390 0.959 . S
C406 H391 0.959 . S
C406 H392 0.961 . S
C406 C405 1.502 . S
C407 H393 0.960 . S
C407 H394 0.961 . S
C407 H395 0.959 . S
C407 C405 1.561 . S
C408 C405 1.526 . S
C408 C409 1.396 . S
C408 C413 1.390 . S
C409 C403 1.465 . S
C409 C408 1.396 . S
C409 C410 1.399 . S
C410 H396 0.929 . S
C410 C409 1.399 . S
C410 C411 1.385 . S
C411 H397 0.931 . S
C411 C410 1.385 . S
C411 C412 1.389 . S
C412 C411 1.389 . S
C412 C413 1.387 . S
C413 H398 0.930 . S
C413 C408 1.390 . S
C413 C412 1.387 . S
H414 C426 0.930 . S
H415 C428 0.930 . S
H416 C429 0.930 . S
H417 C433 0.959 . S
H418 C433 0.959 . S
H419 C433 0.961 . S
H420 C434 0.960 . S
H421 C434 0.961 . S
H422 C434 0.959 . S
H423 C437 0.929 . S
H424 C438 0.931 . S
H425 C440 0.930 . S
C426 H414 0.930 . S
C426 C427 1.399 . S
C426 C431 1.399 . S
C427 C426 1.399 . S
C427 C428 1.376 . S
C428 H415 0.930 . S
C428 C427 1.376 . S
C428 C429 1.388 1_554 S
C429 H416 0.930 . S
C429 C428 1.388 1_556 S
C429 C430 1.390 . S
C430 C429 1.390 . S
C430 C431 1.394 1_556 S
C430 C436 1.465 . S
C431 C426 1.399 . S
C431 C430 1.394 1_554 S
C431 C432 1.516 . S
C432 C431 1.516 . S
C432 C433 1.502 . S
C432 C434 1.561 . S
C432 C435 1.526 1_554 S
C433 H417 0.959 . S
C433 H418 0.959 . S
C433 H419 0.961 . S
C433 C432 1.502 . S
C434 H420 0.960 . S
C434 H421 0.961 . S
C434 H422 0.959 . S
C434 C432 1.561 . S
C435 C432 1.526 1_556 S
C435 C436 1.396 . S
C435 C440 1.390 . S
C436 C430 1.465 . S
C436 C435 1.396 . S
C436 C437 1.399 . S
C437 H423 0.929 . S
C437 C436 1.399 . S
C437 C438 1.385 . S
C438 H424 0.931 . S
C438 C437 1.385 . S
C438 C439 1.389 . S
C439 C438 1.389 . S
C439 C440 1.387 . S
C440 H425 0.930 . S
C440 C435 1.390 . S
C440 C439 1.387 . S
H441 C453 0.930 1_554 S
H442 C455 0.930 1_554 S
H443 C456 0.930 . S
H444 C460 0.959 . S
H445 C460 0.959 . S
H446 C460 0.961 . S
H447 C461 0.960 . S
H448 C461 0.961 . S
H449 C461 0.959 . S
H450 C464 0.929 . S
H451 C465 0.931 . S
H452 C467 0.930 . S
C453 H441 0.930 1_556 S
C453 C454 1.399 1_556 S
C453 C458 1.399 . S
C454 C453 1.399 1_554 S
C454 C455 1.376 1_554 S
C455 H442 0.930 1_556 S
C455 C454 1.376 1_556 S
C455 C456 1.388 . S
C456 H443 0.930 . S
C456 C455 1.388 . S
C456 C457 1.390 . S
C457 C456 1.390 . S
C457 C458 1.394 . S
C457 C463 1.465 . S
C458 C453 1.399 . S
C458 C457 1.394 . S
C458 C459 1.516 . S
C459 C458 1.516 . S
C459 C460 1.502 . S
C459 C461 1.561 . S
C459 C462 1.526 . S
C460 H444 0.959 . S
C460 H445 0.959 . S
C460 H446 0.961 . S
C460 C459 1.502 . S
C461 H447 0.960 . S
C461 H448 0.961 . S
C461 H449 0.959 . S
C461 C459 1.561 . S
C462 C459 1.526 . S
C462 C463 1.396 . S
C462 C467 1.390 . S
C463 C457 1.465 . S
C463 C462 1.396 . S
C463 C464 1.399 . S
C464 H450 0.929 . S
C464 C463 1.399 . S
C464 C465 1.385 . S
C465 H451 0.931 . S
C465 C464 1.385 . S
C465 C466 1.389 . S
C466 C465 1.389 . S
C466 C467 1.387 . S
C467 H452 0.930 . S
C467 C462 1.390 . S
C467 C466 1.387 . S
H468 C480 0.930 . S
H469 C482 0.930 . S
H470 C483 0.930 . S
H471 C487 0.959 . S
H472 C487 0.959 . S
H473 C487 0.961 . S
H474 C488 0.960 . S
H475 C488 0.961 . S
H476 C488 0.959 . S
H477 C491 0.929 . S
H478 C492 0.931 . S
H479 C494 0.930 . S
C480 H468 0.930 . S
C480 C481 1.399 . S
C480 C485 1.399 1_554 S
C481 C480 1.399 . S
C481 C482 1.376 1_554 S
C482 H469 0.930 . S
C482 C481 1.376 1_556 S
C482 C483 1.388 . S
C483 H470 0.930 . S
C483 C482 1.388 . S
C483 C484 1.390 . S
C484 C483 1.390 . S
C484 C485 1.394 . S
C484 C490 1.465 . S
C485 C480 1.399 1_556 S
C485 C484 1.394 . S
C485 C486 1.516 . S
C486 C485 1.516 . S
C486 C487 1.502 . S
C486 C488 1.561 1_556 S
C486 C489 1.526 . S
C487 H471 0.959 . S
C487 H472 0.959 . S
C487 H473 0.961 . S
C487 C486 1.502 . S
C488 H474 0.960 . S
C488 H475 0.961 . S
C488 H476 0.959 . S
C488 C486 1.561 1_554 S
C489 C486 1.526 . S
C489 C490 1.396 . S
C489 C494 1.390 . S
C490 C484 1.465 . S
C490 C489 1.396 . S
C490 C491 1.399 . S
C491 H477 0.929 . S
C491 C490 1.399 . S
C491 C492 1.385 . S
C492 H478 0.931 . S
C492 C491 1.385 . S
C492 C493 1.389 . S
C493 C492 1.389 . S
C493 C494 1.387 . S
C494 H479 0.930 . S
C494 C489 1.390 . S
C494 C493 1.387 . S
H495 C507 0.930 . S
H496 C509 0.930 . S
H497 C510 0.930 . S
H498 C514 0.959 . S
H499 C514 0.959 . S
H500 C514 0.961 . S
H501 C515 0.960 . S
H502 C515 0.961 . S
H503 C515 0.959 . S
H504 C518 0.929 . S
H505 C519 0.931 . S
H506 C521 0.930 . S
C507 H495 0.930 . S
C507 C508 1.399 . S
C507 C512 1.399 . S
C508 C507 1.399 . S
C508 C509 1.376 . S
C509 H496 0.930 . S
C509 C508 1.376 . S
C509 C510 1.388 . S
C510 H497 0.930 . S
C510 C509 1.388 . S
C510 C511 1.390 . S
C511 C510 1.390 . S
C511 C512 1.394 . S
C511 C517 1.465 . S
C512 C507 1.399 . S
C512 C511 1.394 . S
C512 C513 1.516 . S
C513 C512 1.516 . S
C513 C514 1.502 . S
C513 C515 1.561 . S
C513 C516 1.526 . S
C514 H498 0.959 . S
C514 H499 0.959 . S
C514 H500 0.961 . S
C514 C513 1.502 . S
C515 H501 0.960 . S
C515 H502 0.961 . S
C515 H503 0.959 . S
C515 C513 1.561 . S
C516 C513 1.526 . S
C516 C517 1.396 . S
C516 C521 1.390 . S
C517 C511 1.465 . S
C517 C516 1.396 . S
C517 C518 1.399 . S
C518 H504 0.929 . S
C518 C517 1.399 . S
C518 C519 1.385 . S
C519 H505 0.931 . S
C519 C518 1.385 . S
C519 C520 1.389 . S
C520 C519 1.389 . S
C520 C521 1.387 . S
C521 H506 0.930 . S
C521 C516 1.390 . S
C521 C520 1.387 . S
H522 C534 0.930 1_554 S
H523 C536 0.930 . S
H524 C537 0.930 . S
H525 C541 0.959 . S
H526 C541 0.959 . S
H527 C541 0.961 1_554 S
H528 C542 0.960 1_554 S
H529 C542 0.961 . S
H530 C542 0.959 . S
H531 C545 0.929 . S
H532 C546 0.931 . S
H533 C548 0.930 . S
C534 H522 0.930 1_556 S
C534 C535 1.399 . S
C534 C539 1.399 . S
C535 C534 1.399 . S
C535 C536 1.376 . S
C536 H523 0.930 . S
C536 C535 1.376 . S
C536 C537 1.388 . S
C537 H524 0.930 . S
C537 C536 1.388 . S
C537 C538 1.390 . S
C538 C537 1.390 . S
C538 C539 1.394 . S
C538 C544 1.465 . S
C539 C534 1.399 . S
C539 C538 1.394 . S
C539 C540 1.516 . S
C540 C539 1.516 . S
C540 C541 1.502 . S
C540 C542 1.561 . S
C540 C543 1.526 . S
C541 H525 0.959 . S
C541 H526 0.959 . S
C541 H527 0.961 1_556 S
C541 C540 1.502 . S
C542 H528 0.960 1_556 S
C542 H529 0.961 . S
C542 H530 0.959 . S
C542 C540 1.561 . S
C543 C540 1.526 . S
C543 C544 1.396 . S
C543 C548 1.390 . S
C544 C538 1.465 . S
C544 C543 1.396 . S
C544 C545 1.399 . S
C545 H531 0.929 . S
C545 C544 1.399 . S
C545 C546 1.385 . S
C546 H532 0.931 . S
C546 C545 1.385 . S
C546 C547 1.389 . S
C547 C546 1.389 . S
C547 C548 1.387 . S
C548 H533 0.930 . S
C548 C543 1.390 . S
C548 C547 1.387 . S
H549 C561 0.930 . S
H550 C563 0.930 . S
H551 C564 0.930 . S
H552 C568 0.959 . S
H553 C568 0.965 . S
H554 C568 0.961 . S
H555 C569 0.960 . S
H556 C569 0.961 . S
H557 C569 0.959 . S
H558 C572 0.929 . S
H559 C573 0.931 . S
H560 C575 0.930 . S
C561 H549 0.930 . S
C561 C562 1.399 . S
C561 C566 1.399 . S
C562 C561 1.399 . S
C562 C563 1.376 . S
C563 H550 0.930 . S
C563 C562 1.376 . S
C563 C564 1.388 1_554 S
C564 H551 0.930 . S
C564 C563 1.388 1_556 S
C564 C565 1.390 . S
C565 C564 1.390 . S
C565 C566 1.394 1_556 S
C565 C571 1.465 . S
C566 C561 1.399 . S
C566 C565 1.394 1_554 S
C566 C567 1.516 1_554 S
C567 C566 1.516 1_556 S
C567 C568 1.502 1_556 S
C567 C569 1.561 . S
C567 C570 1.526 . S
C568 H552 0.959 . S
C568 H553 0.965 . S
C568 H554 0.961 . S
C568 C567 1.502 1_554 S
C569 H555 0.960 . S
C569 H556 0.961 . S
C569 H557 0.959 . S
C569 C567 1.561 . S
C570 C567 1.526 . S
C570 C571 1.396 . S
C570 C575 1.390 . S
C571 C565 1.465 . S
C571 C570 1.396 . S
C571 C572 1.399 . S
C572 H558 0.929 . S
C572 C571 1.399 . S
C572 C573 1.385 . S
C573 H559 0.931 . S
C573 C572 1.385 . S
C573 C574 1.389 . S
C574 C573 1.389 . S
C574 C575 1.387 . S
C575 H560 0.930 . S
C575 C570 1.390 . S
C575 C574 1.387 . S
H576 C588 0.930 . S
H577 C590 0.930 . S
H578 C591 0.930 . S
H579 C595 0.959 . S
H580 C595 0.959 . S
H581 C595 0.961 1_554 S
H582 C596 0.960 . S
H583 C596 0.961 . S
H584 C596 0.959 . S
H585 C599 0.929 . S
H586 C600 0.931 . S
H587 C602 0.930 . S
C588 H576 0.930 . S
C588 C589 1.399 . S
C588 C593 1.399 1_554 S
C589 C588 1.399 . S
C589 C590 1.376 1_554 S
C590 H577 0.930 . S
C590 C589 1.376 1_556 S
C590 C591 1.388 . S
C591 H578 0.930 . S
C591 C590 1.388 . S
C591 C592 1.390 . S
C592 C591 1.390 . S
C592 C593 1.394 . S
C592 C598 1.465 . S
C593 C588 1.399 1_556 S
C593 C592 1.394 . S
C593 C594 1.516 . S
C594 C593 1.516 . S
C594 C595 1.502 . S
C594 C596 1.561 . S
C594 C597 1.526 . S
C595 H579 0.959 . S
C595 H580 0.959 . S
C595 H581 0.961 1_556 S
C595 C594 1.502 . S
C596 H582 0.960 . S
C596 H583 0.961 . S
C596 H584 0.959 . S
C596 C594 1.561 . S
C597 C594 1.526 . S
C597 C598 1.396 . S
C597 C602 1.390 . S
C598 C592 1.465 . S
C598 C597 1.396 . S
C598 C599 1.399 . S
C599 H585 0.929 . S
C599 C598 1.399 . S
C599 C600 1.385 . S
C600 H586 0.931 . S
C600 C599 1.385 . S
C600 C601 1.389 . S
C601 C600 1.389 . S
C601 C602 1.387 . S
C602 H587 0.930 . S
C602 C597 1.390 . S
C602 C601 1.387 . S
H603 C615 0.930 . S
H604 C617 0.930 1_554 S
H605 C618 0.930 . S
H606 C622 0.959 . S
H607 C622 0.959 . S
H608 C622 0.961 . S
H609 C623 0.960 . S
H610 C623 0.961 . S
H611 C623 0.959 . S
H612 C626 0.929 . S
H613 C627 0.931 . S
H614 C629 0.930 . S
C615 H603 0.930 . S
C615 C616 1.399 . S
C615 C620 1.399 . S
C616 C615 1.399 . S
C616 C617 1.376 . S
C617 H604 0.930 1_556 S
C617 C616 1.376 . S
C617 C618 1.388 . S
C618 H605 0.930 . S
C618 C617 1.388 . S
C618 C619 1.390 . S
C619 C618 1.390 . S
C619 C620 1.394 . S
C619 C625 1.465 . S
C620 C615 1.399 . S
C620 C619 1.394 . S
C620 C621 1.516 . S
C621 C620 1.516 . S
C621 C622 1.502 . S
C621 C623 1.561 . S
C621 C624 1.526 . S
C622 H606 0.959 . S
C622 H607 0.959 . S
C622 H608 0.961 . S
C622 C621 1.502 . S
C623 H609 0.960 . S
C623 H610 0.961 . S
C623 H611 0.959 . S
C623 C621 1.561 . S
C624 C621 1.526 . S
C624 C625 1.396 . S
C624 C629 1.390 . S
C625 C619 1.465 . S
C625 C624 1.396 . S
C625 C626 1.399 . S
C626 H612 0.929 . S
C626 C625 1.399 . S
C626 C627 1.385 . S
C627 H613 0.931 . S
C627 C626 1.385 . S
C627 C628 1.389 . S
C628 C627 1.389 . S
C628 C629 1.387 . S
C629 H614 0.930 . S
C629 C624 1.390 . S
C629 C628 1.387 . S
H630 C642 0.930 . S
H631 C644 0.930 . S
H632 C645 0.930 . S
H633 C649 0.959 . S
H634 C649 0.959 . S
H635 C649 0.961 . S
H636 C650 0.960 . S
H637 C650 0.961 . S
H638 C650 0.959 . S
H639 C653 0.929 . S
H640 C654 0.931 . S
H641 C656 0.930 . S
C642 H630 0.930 . S
C642 C643 1.399 . S
C642 C647 1.399 . S
C643 C642 1.399 . S
C643 C644 1.376 . S
C644 H631 0.930 . S
C644 C643 1.376 . S
C644 C645 1.388 . S
C645 H632 0.930 . S
C645 C644 1.388 . S
C645 C646 1.390 . S
C646 C645 1.390 . S
C646 C647 1.394 . S
C646 C652 1.465 . S
C647 C642 1.399 . S
C647 C646 1.394 . S
C647 C648 1.516 . S
C648 C647 1.516 . S
C648 C649 1.502 . S
C648 C650 1.561 . S
C648 C651 1.526 . S
C649 H633 0.959 . S
C649 H634 0.959 . S
C649 H635 0.961 . S
C649 C648 1.502 . S
C650 H636 0.960 . S
C650 H637 0.961 . S
C650 H638 0.959 . S
C650 C648 1.561 . S
C651 C648 1.526 . S
C651 C652 1.396 . S
C651 C656 1.390 . S
C652 C646 1.465 . S
C652 C651 1.396 . S
C652 C653 1.399 . S
C653 H639 0.929 . S
C653 C652 1.399 . S
C653 C654 1.385 . S
C654 H640 0.931 . S
C654 C653 1.385 . S
C654 C655 1.389 . S
C655 C654 1.389 . S
C655 C656 1.387 . S
C656 H641 0.930 . S
C656 C651 1.390 . S
C656 C655 1.387 . S
H657 C669 0.930 . S
H658 C671 0.930 . S
H659 C672 0.930 . S
H660 C676 0.959 . S
H661 C676 0.959 . S
H662 C676 0.961 . S
H663 C677 0.960 . S
H664 C677 0.961 . S
H665 C677 0.959 . S
H666 C680 0.929 . S
H667 C681 0.931 . S
H668 C683 0.930 . S
C669 H657 0.930 . S
C669 C670 1.399 . S
C669 C674 1.399 . S
C670 C669 1.399 . S
C670 C671 1.376 . S
C671 H658 0.930 . S
C671 C670 1.376 . S
C671 C672 1.388 . S
C672 H659 0.930 . S
C672 C671 1.388 . S
C672 C673 1.390 . S
C673 C672 1.390 . S
C673 C674 1.394 . S
C673 C679 1.465 . S
C674 C669 1.399 . S
C674 C673 1.394 . S
C674 C675 1.516 . S
C675 C674 1.516 . S
C675 C676 1.502 . S
C675 C677 1.561 . S
C675 C678 1.526 . S
C676 H660 0.959 . S
C676 H661 0.959 . S
C676 H662 0.961 . S
C676 C675 1.502 . S
C677 H663 0.960 . S
C677 H664 0.961 . S
C677 H665 0.959 . S
C677 C675 1.561 . S
C678 C675 1.526 . S
C678 C679 1.396 . S
C678 C683 1.390 . S
C679 C673 1.465 . S
C679 C678 1.396 . S
C679 C680 1.399 . S
C680 H666 0.929 . S
C680 C679 1.399 . S
C680 C681 1.385 . S
C681 H667 0.931 . S
C681 C680 1.385 . S
C681 C682 1.389 . S
C682 C681 1.389 . S
C682 C683 1.387 . S
C683 H668 0.930 . S
C683 C678 1.390 . S
C683 C682 1.387 . S
H684 C696 0.930 . S
H685 C698 0.930 . S
H686 C699 0.930 . S
H687 C703 0.959 . S
H688 C703 0.959 . S
H689 C703 0.961 . S
H690 C704 0.960 . S
H691 C704 0.961 . S
H692 C704 0.959 . S
H693 C707 0.929 . S
H694 C708 0.931 . S
H695 C710 0.930 . S
C696 H684 0.930 . S
C696 C697 1.399 . S
C696 C701 1.399 . S
C697 C696 1.399 . S
C697 C698 1.376 . S
C698 H685 0.930 . S
C698 C697 1.376 . S
C698 C699 1.388 . S
C699 H686 0.930 . S
C699 C698 1.388 . S
C699 C700 1.390 . S
C700 C699 1.390 . S
C700 C701 1.394 . S
C700 C706 1.465 . S
C701 C696 1.399 . S
C701 C700 1.394 . S
C701 C702 1.516 . S
C702 C701 1.516 . S
C702 C703 1.502 . S
C702 C704 1.561 . S
C702 C705 1.526 . S
C703 H687 0.959 . S
C703 H688 0.959 . S
C703 H689 0.961 . S
C703 C702 1.502 . S
C704 H690 0.960 . S
C704 H691 0.961 . S
C704 H692 0.959 . S
C704 C702 1.561 . S
C705 C702 1.526 . S
C705 C706 1.396 . S
C705 C710 1.390 . S
C706 C700 1.465 . S
C706 C705 1.396 . S
C706 C707 1.399 . S
C707 H693 0.929 . S
C707 C706 1.399 . S
C707 C708 1.385 . S
C708 H694 0.931 . S
C708 C707 1.385 . S
C708 C709 1.389 . S
C709 C708 1.389 . S
C709 C710 1.387 . S
C710 H695 0.930 . S
C710 C705 1.390 . S
C710 C709 1.387 . S
H711 C723 0.930 . S
H712 C725 0.930 . S
H713 C726 0.930 . S
H714 C730 0.959 . S
H715 C730 0.959 . S
H716 C730 0.961 . S
H717 C731 0.960 . S
H718 C731 0.961 . S
H719 C731 0.959 . S
H720 C734 0.929 . S
H721 C735 0.931 . S
H722 C737 0.930 . S
C723 H711 0.930 . S
C723 C724 1.399 . S
C723 C728 1.399 . S
C724 C723 1.399 . S
C724 C725 1.376 . S
C725 H712 0.930 . S
C725 C724 1.376 . S
C725 C726 1.388 . S
C726 H713 0.930 . S
C726 C725 1.388 . S
C726 C727 1.390 . S
C727 C726 1.390 . S
C727 C728 1.394 . S
C727 C733 1.465 . S
C728 C723 1.399 . S
C728 C727 1.394 . S
C728 C729 1.516 . S
C729 C728 1.516 . S
C729 C730 1.502 . S
C729 C731 1.561 . S
C729 C732 1.526 . S
C730 H714 0.959 . S
C730 H715 0.959 . S
C730 H716 0.961 . S
C730 C729 1.502 . S
C731 H717 0.960 . S
C731 H718 0.961 . S
C731 H719 0.959 . S
C731 C729 1.561 . S
C732 C729 1.526 . S
C732 C733 1.396 . S
C732 C737 1.390 . S
C733 C727 1.465 . S
C733 C732 1.396 . S
C733 C734 1.399 . S
C734 H720 0.929 . S
C734 C733 1.399 . S
C734 C735 1.385 . S
C735 H721 0.931 . S
C735 C734 1.385 . S
C735 C736 1.389 . S
C736 C735 1.389 . S
C736 C737 1.387 . S
C737 H722 0.930 . S
C737 C732 1.390 . S
C737 C736 1.387 . S
H738 C750 0.930 . S
H739 C752 0.930 . S
H740 C753 0.930 . S
H741 C757 0.959 . S
H742 C757 0.959 . S
H743 C757 0.961 . S
H744 C758 0.960 . S
H745 C758 0.961 . S
H746 C758 0.959 . S
H747 C761 0.929 . S
H748 C762 0.931 . S
H749 C764 0.930 . S
C750 H738 0.930 . S
C750 C751 1.399 . S
C750 C755 1.399 . S
C751 C750 1.399 . S
C751 C752 1.376 . S
C752 H739 0.930 . S
C752 C751 1.376 . S
C752 C753 1.388 . S
C753 H740 0.930 . S
C753 C752 1.388 . S
C753 C754 1.390 . S
C754 C753 1.390 . S
C754 C755 1.394 . S
C754 C760 1.465 . S
C755 C750 1.399 . S
C755 C754 1.394 . S
C755 C756 1.516 . S
C756 C755 1.516 . S
C756 C757 1.502 . S
C756 C758 1.561 . S
C756 C759 1.526 . S
C757 H741 0.959 . S
C757 H742 0.959 . S
C757 H743 0.961 . S
C757 C756 1.502 . S
C758 H744 0.960 . S
C758 H745 0.961 . S
C758 H746 0.959 . S
C758 C756 1.561 . S
C759 C756 1.526 . S
C759 C760 1.396 . S
C759 C764 1.390 . S
C760 C754 1.465 . S
C760 C759 1.396 . S
C760 C761 1.399 . S
C761 H747 0.929 . S
C761 C760 1.399 . S
C761 C762 1.385 . S
C762 H748 0.931 . S
C762 C761 1.385 . S
C762 C763 1.389 . S
C763 C762 1.389 . S
C763 C764 1.387 . S
C764 H749 0.930 . S
C764 C759 1.390 . S
C764 C763 1.387 . S
H765 C777 0.930 . S
H766 C779 0.930 . S
H767 C780 0.930 . S
H768 C784 0.959 . S
H769 C784 0.959 . S
H770 C784 0.961 . S
H771 C785 0.960 . S
H772 C785 0.961 . S
H773 C785 0.959 . S
H774 C788 0.929 . S
H775 C789 0.931 . S
H776 C791 0.930 . S
C777 H765 0.930 . S
C777 C778 1.399 . S
C777 C782 1.399 . S
C778 C777 1.399 . S
C778 C779 1.376 . S
C779 H766 0.930 . S
C779 C778 1.376 . S
C779 C780 1.388 . S
C780 H767 0.930 . S
C780 C779 1.388 . S
C780 C781 1.390 . S
C781 C780 1.390 . S
C781 C782 1.394 . S
C781 C787 1.465 . S
C782 C777 1.399 . S
C782 C781 1.394 . S
C782 C783 1.516 . S
C783 C782 1.516 . S
C783 C784 1.502 . S
C783 C785 1.561 . S
C783 C786 1.526 . S
C784 H768 0.959 . S
C784 H769 0.959 . S
C784 H770 0.961 . S
C784 C783 1.502 . S
C785 H771 0.960 . S
C785 H772 0.961 . S
C785 H773 0.959 . S
C785 C783 1.561 . S
C786 C783 1.526 . S
C786 C787 1.396 . S
C786 C791 1.390 . S
C787 C781 1.465 . S
C787 C786 1.396 . S
C787 C788 1.399 . S
C788 H774 0.929 . S
C788 C787 1.399 . S
C788 C789 1.385 . S
C789 H775 0.931 . S
C789 C788 1.385 . S
C789 C790 1.389 . S
C790 C789 1.389 . S
C790 C791 1.387 . S
C791 H776 0.930 . S
C791 C786 1.390 . S
C791 C790 1.387 . S
H792 C804 0.930 . S
H793 C806 0.930 . S
H794 C807 0.930 . S
H795 C811 0.959 . S
H796 C811 0.959 . S
H797 C811 0.961 . S
H798 C812 0.960 . S
H799 C812 0.961 . S
H800 C812 0.959 . S
H801 C815 0.929 . S
H802 C816 0.931 . S
H803 C818 0.930 . S
C804 H792 0.930 . S
C804 C805 1.399 . S
C804 C809 1.399 . S
C805 C804 1.399 . S
C805 C806 1.376 . S
C806 H793 0.930 . S
C806 C805 1.376 . S
C806 C807 1.388 . S
C807 H794 0.930 . S
C807 C806 1.388 . S
C807 C808 1.390 . S
C808 C807 1.390 . S
C808 C809 1.394 . S
C808 C814 1.465 . S
C809 C804 1.399 . S
C809 C808 1.394 . S
C809 C810 1.516 . S
C810 C809 1.516 . S
C810 C811 1.502 . S
C810 C812 1.561 . S
C810 C813 1.526 . S
C811 H795 0.959 . S
C811 H796 0.959 . S
C811 H797 0.961 . S
C811 C810 1.502 . S
C812 H798 0.960 . S
C812 H799 0.961 . S
C812 H800 0.959 . S
C812 C810 1.561 . S
C813 C810 1.526 . S
C813 C814 1.396 . S
C813 C818 1.390 . S
C814 C808 1.465 . S
C814 C813 1.396 . S
C814 C815 1.399 . S
C815 H801 0.929 . S
C815 C814 1.399 . S
C815 C816 1.385 . S
C816 H802 0.931 . S
C816 C815 1.385 . S
C816 C817 1.389 . S
C817 C816 1.389 . S
C817 C818 1.387 . S
C818 H803 0.930 . S
C818 C813 1.390 . S
C818 C817 1.387 . S
C184 C5 1.748 . S
C196 C89 1.675 . S
C211 C16 1.484 . S
C223 C136 1.429 . S
C250 C140 1.683 . S
C238 C36 1.770 . S
C277 C105 1.398 . S
C265 C42 1.456 . S
C292 C55 1.643 . S
C304 C120 1.646 . S
C331 C142 0.952 . S
C319 C66 1.002 . S
C358 C111 1.342 . S
C346 C31 1.352 . S
C373 C40 1.387 . S
C385 C151 1.306 . S
C412 C80 1.351 . S
C400 C53 1.309 1_556 S
C427 C68 1.351 . S
C439 C109 1.309 . S
C454 C10 1.874 . S
C466 C167 1.838 . S
C493 C78 1.407 . S
C481 C14 1.488 . S
C520 C96 1.763 . S
C508 C49 1.786 . S
C547 C110 1.562 . S
C535 C62 1.546 1_556 S
C574 C164 1.617 . S
C562 C70 1.698 . S
C601 C79 1.458 . S
C589 C1 1.511 . S
C628 C127 1.636 . S
C616 C23 1.752 1_556 S
C643 C29 0.954 . S
C655 C150 0.910 . S
C682 C119 1.344 . S
C670 C75 1.425 . S
C709 C158 1.314 . S
C697 C3 1.331 . S
C736 C88 1.274 . S
C724 C18 1.241 . S
C763 C133 1.337 . S
C751 C27 1.417 . S
C778 C44 1.767 . S
C790 C141 1.751 . S
C805 C57 1.384 . S
C817 C102 1.374 . S
