# Generated by pormake.
# Topology ocu, (6,8)-cn, num edge types: 1
# Building blocks:
#     Node 0, Type 0, BuildingBlock: PAMTUU_clean_sbu_0, # of connection points: 6
#     Node 1, Type 0, BuildingBlock: PAMTUU_clean_sbu_0, # of connection points: 6
#     Node 2, Type 0, BuildingBlock: PAMTUU_clean_sbu_0, # of connection points: 6
#     Node 3, Type 0, BuildingBlock: PAMTUU_clean_sbu_0, # of connection points: 6
#     Node 4, Type 0, BuildingBlock: PAMTUU_clean_sbu_0, # of connection points: 6
#     Node 5, Type 0, BuildingBlock: PAMTUU_clean_sbu_0, # of connection points: 6
#     Node 6, Type 0, BuildingBlock: PAMTUU_clean_sbu_0, # of connection points: 6
#     Node 7, Type 0, BuildingBlock: PAMTUU_clean_sbu_0, # of connection points: 6
#     Node 8, Type 1, BuildingBlock: GIZVER_clean_sbu_0, # of connection points: 8
#     Node 9, Type 1, BuildingBlock: GIZVER_clean_sbu_0, # of connection points: 8
#     Node 10, Type 1, BuildingBlock: GIZVER_clean_sbu_0, # of connection points: 8
#     Node 11, Type 1, BuildingBlock: GIZVER_clean_sbu_0, # of connection points: 8
#     Node 12, Type 1, BuildingBlock: GIZVER_clean_sbu_0, # of connection points: 8
#     Node 13, Type 1, BuildingBlock: GIZVER_clean_sbu_0, # of connection points: 8
#     Edge 14, Type (0, 1), BuildingBlock: OJICUG_clean_linker_0, # of connection points: 2
#     Edge 15, Type (0, 1), BuildingBlock: OJICUG_clean_linker_0, # of connection points: 2
#     Edge 16, Type (0, 1), BuildingBlock: OJICUG_clean_linker_0, # of connection points: 2
#     Edge 17, Type (0, 1), BuildingBlock: OJICUG_clean_linker_0, # of connection points: 2
#     Edge 18, Type (0, 1), BuildingBlock: OJICUG_clean_linker_0, # of connection points: 2
#     Edge 19, Type (0, 1), BuildingBlock: OJICUG_clean_linker_0, # of connection points: 2
#     Edge 20, Type (0, 1), BuildingBlock: OJICUG_clean_linker_0, # of connection points: 2
#     Edge 21, Type (0, 1), BuildingBlock: OJICUG_clean_linker_0, # of connection points: 2
#     Edge 22, Type (0, 1), BuildingBlock: OJICUG_clean_linker_0, # of connection points: 2
#     Edge 23, Type (0, 1), BuildingBlock: OJICUG_clean_linker_0, # of connection points: 2
#     Edge 24, Type (0, 1), BuildingBlock: OJICUG_clean_linker_0, # of connection points: 2
#     Edge 25, Type (0, 1), BuildingBlock: OJICUG_clean_linker_0, # of connection points: 2
#     Edge 26, Type (0, 1), BuildingBlock: OJICUG_clean_linker_0, # of connection points: 2
#     Edge 27, Type (0, 1), BuildingBlock: OJICUG_clean_linker_0, # of connection points: 2
#     Edge 28, Type (0, 1), BuildingBlock: OJICUG_clean_linker_0, # of connection points: 2
#     Edge 29, Type (0, 1), BuildingBlock: OJICUG_clean_linker_0, # of connection points: 2
#     Edge 30, Type (0, 1), BuildingBlock: OJICUG_clean_linker_0, # of connection points: 2
#     Edge 31, Type (0, 1), BuildingBlock: OJICUG_clean_linker_0, # of connection points: 2
#     Edge 32, Type (0, 1), BuildingBlock: OJICUG_clean_linker_0, # of connection points: 2
#     Edge 33, Type (0, 1), BuildingBlock: OJICUG_clean_linker_0, # of connection points: 2
#     Edge 34, Type (0, 1), BuildingBlock: OJICUG_clean_linker_0, # of connection points: 2
#     Edge 35, Type (0, 1), BuildingBlock: OJICUG_clean_linker_0, # of connection points: 2
#     Edge 36, Type (0, 1), BuildingBlock: OJICUG_clean_linker_0, # of connection points: 2
#     Edge 37, Type (0, 1), BuildingBlock: OJICUG_clean_linker_0, # of connection points: 2
#     Edge 38, Type (0, 1), BuildingBlock: OJICUG_clean_linker_0, # of connection points: 2
#     Edge 39, Type (0, 1), BuildingBlock: OJICUG_clean_linker_0, # of connection points: 2
#     Edge 40, Type (0, 1), BuildingBlock: OJICUG_clean_linker_0, # of connection points: 2
#     Edge 41, Type (0, 1), BuildingBlock: OJICUG_clean_linker_0, # of connection points: 2
#     Edge 42, Type (0, 1), BuildingBlock: OJICUG_clean_linker_0, # of connection points: 2
#     Edge 43, Type (0, 1), BuildingBlock: OJICUG_clean_linker_0, # of connection points: 2
#     Edge 44, Type (0, 1), BuildingBlock: OJICUG_clean_linker_0, # of connection points: 2
#     Edge 45, Type (0, 1), BuildingBlock: OJICUG_clean_linker_0, # of connection points: 2
#     Edge 46, Type (0, 1), BuildingBlock: OJICUG_clean_linker_0, # of connection points: 2
#     Edge 47, Type (0, 1), BuildingBlock: OJICUG_clean_linker_0, # of connection points: 2
#     Edge 48, Type (0, 1), BuildingBlock: OJICUG_clean_linker_0, # of connection points: 2
#     Edge 49, Type (0, 1), BuildingBlock: OJICUG_clean_linker_0, # of connection points: 2
#     Edge 50, Type (0, 1), BuildingBlock: OJICUG_clean_linker_0, # of connection points: 2
#     Edge 51, Type (0, 1), BuildingBlock: OJICUG_clean_linker_0, # of connection points: 2
#     Edge 52, Type (0, 1), BuildingBlock: OJICUG_clean_linker_0, # of connection points: 2
#     Edge 53, Type (0, 1), BuildingBlock: OJICUG_clean_linker_0, # of connection points: 2
#     Edge 54, Type (0, 1), BuildingBlock: OJICUG_clean_linker_0, # of connection points: 2
#     Edge 55, Type (0, 1), BuildingBlock: OJICUG_clean_linker_0, # of connection points: 2
#     Edge 56, Type (0, 1), BuildingBlock: OJICUG_clean_linker_0, # of connection points: 2
#     Edge 57, Type (0, 1), BuildingBlock: OJICUG_clean_linker_0, # of connection points: 2
#     Edge 58, Type (0, 1), BuildingBlock: OJICUG_clean_linker_0, # of connection points: 2
#     Edge 59, Type (0, 1), BuildingBlock: OJICUG_clean_linker_0, # of connection points: 2
#     Edge 60, Type (0, 1), BuildingBlock: OJICUG_clean_linker_0, # of connection points: 2
#     Edge 61, Type (0, 1), BuildingBlock: OJICUG_clean_linker_0, # of connection points: 2
# Relax obj value: 0.227
# Max RMSD: 0.249
# Mean RMSD: 0.187
data_MOF--net-ocu--node1-PAMTUU_clean_sbu_0--node2-GIZVER_clean_sbu_0--edge1-OJICUG_clean_linker_0
_symmetry_space_group_name_H-M    P1
_symmetry_Int_Tables_number       1
_symmetry_cell_setting            triclinic
loop_
_symmetry_equiv_pos_as_xyz
'x, y, z'
_cell_length_a     32.555595
_cell_length_b     35.340001
_cell_length_c     25.081028
_cell_angle_alpha  82.420906
_cell_angle_beta   99.559322
_cell_angle_gamma 116.29868
loop_
_atom_site_label
_atom_site_type_symbol
_atom_site_fract_x
_atom_site_fract_y
_atom_site_fract_z
_atom_type_partial_charge
Tb0 Tb 0.31063 0.30398 0.26242 0.0
Tb1 Tb 0.37754 0.31522 0.36805 0.0
C2 C 0.27743 0.24005 0.36431 0.0
C3 C 0.24853 0.33137 0.14614 0.0
C4 C 0.21423 0.39133 0.14398 0.0
C5 C 0.18509 0.3507 0.12589 0.0
C6 C 0.20214 0.32069 0.12746 0.0
C7 C 0.27883 0.37354 0.15594 0.0
C8 C 0.26178 0.40314 0.15577 0.0
C9 C 0.26172 0.29848 0.17249 0.0
O10 O 0.28907 0.34521 0.30494 0.0
O11 O 0.33981 0.35401 0.3815 0.0
O12 O 0.42178 0.36485 0.31518 0.0
O13 O 0.36682 0.36669 0.24734 0.0
O14 O 0.38903 0.33421 0.44708 0.0
O15 O 0.43777 0.31912 0.41749 0.0
O16 O 0.40036 0.27627 0.32265 0.0
O17 O 0.34397 0.26097 0.25082 0.0
O18 O 0.2661 0.25729 0.31829 0.0
O19 O 0.32087 0.25327 0.38522 0.0
C20 C 0.30474 0.36099 0.35402 0.0
O21 O 0.30557 0.30812 0.17738 0.0
O22 O 0.24477 0.28262 0.21806 0.0
C23 C 0.41003 0.38162 0.2692 0.0
C24 C 0.4242 0.29823 0.50655 0.0
C25 C 0.43859 0.22923 0.55313 0.0
C26 C 0.47196 0.27034 0.56481 0.0
C27 C 0.46517 0.30504 0.54017 0.0
C28 C 0.38681 0.25812 0.50699 0.0
C29 C 0.39414 0.22331 0.52957 0.0
C30 C 0.42549 0.32738 0.45972 0.0
C31 C 0.38155 0.25694 0.27599 0.0
H32 H 0.14855 0.34107 0.11392 0.0
H33 H 0.17834 0.28831 0.11941 0.0
H34 H 0.31503 0.38279 0.16958 0.0
H35 H 0.28565 0.43395 0.16957 0.0
H36 H 0.50558 0.27566 0.58638 0.0
H37 H 0.49385 0.33621 0.54155 0.0
H38 H 0.35413 0.25285 0.48316 0.0
H39 H 0.36692 0.19217 0.52159 0.0
Tb40 Tb 0.79919 0.32738 0.30783 0.0
Tb41 Tb 0.86963 0.2874 0.30495 0.0
C42 C 0.87703 0.34111 0.39904 0.0
C43 C 0.77179 0.40632 0.25 0.0
C44 C 0.80975 0.47263 0.17193 0.0
C45 C 0.79289 0.47892 0.217 0.0
C46 C 0.77427 0.44597 0.25592 0.0
C47 C 0.7917 0.40114 0.20741 0.0
C48 C 0.81137 0.43409 0.16951 0.0
C49 C 0.75763 0.37242 0.29279 0.0
O50 O 0.86389 0.37609 0.28286 0.0
O51 O 0.8837 0.33623 0.23798 0.0
O52 O 0.80931 0.24953 0.25459 0.0
O53 O 0.78662 0.30188 0.22919 0.0
O54 O 0.93851 0.29543 0.31944 0.0
O55 O 0.88321 0.23657 0.29286 0.0
O56 O 0.82648 0.25142 0.36949 0.0
O57 O 0.76238 0.26451 0.34474 0.0
O58 O 0.83272 0.33025 0.38986 0.0
O59 O 0.89833 0.33422 0.36422 0.0
C60 C 0.88522 0.37301 0.24505 0.0
O61 O 0.73843 0.33402 0.27646 0.0
O62 O 0.79017 0.37734 0.33289 0.0
C63 C 0.7838 0.2647 0.22248 0.0
C64 C 0.92854 0.23299 0.37259 0.0
C65 C 0.90766 0.18277 0.46983 0.0
C66 C 0.91103 0.16597 0.42344 0.0
C67 C 0.92118 0.19082 0.3753 0.0
C68 C 0.92653 0.25019 0.41919 0.0
C69 C 0.91604 0.22532 0.46723 0.0
C70 C 0.9241 0.25461 0.31968 0.0
C71 C 0.78263 0.24176 0.37219 0.0
H72 H 0.79069 0.5082 0.22026 0.0
H73 H 0.76115 0.45121 0.28987 0.0
H74 H 0.79183 0.37138 0.20278 0.0
H75 H 0.82397 0.42827 0.13551 0.0
H76 H 0.90673 0.13372 0.42433 0.0
H77 H 0.9213 0.17664 0.33959 0.0
H78 H 0.93093 0.28243 0.41802 0.0
H79 H 0.91462 0.23934 0.50237 0.0
Tb80 Tb 0.86633 0.82271 0.26624 0.0
Tb81 Tb 0.81558 0.78576 0.36765 0.0
C82 C 0.90886 0.86456 0.37091 0.0
C83 C 0.90192 0.831 0.1336 0.0
C84 C 0.90435 0.78828 0.04892 0.0
C85 C 0.92575 0.83287 0.0469 0.0
C86 C 0.92525 0.85409 0.08969 0.0
C87 C 0.87604 0.78718 0.1327 0.0
C88 C 0.87707 0.76593 0.09065 0.0
C89 C 0.90361 0.85207 0.18034 0.0
O90 O 0.90497 0.78493 0.31355 0.0
O91 O 0.84961 0.74211 0.36676 0.0
O92 O 0.76417 0.7597 0.2997 0.0
O93 O 0.81474 0.75985 0.24779 0.0
O94 O 0.81281 0.79431 0.44725 0.0
O95 O 0.76846 0.73462 0.41192 0.0
O96 O 0.78858 0.83572 0.33239 0.0
O97 O 0.8101 0.8455 0.24788 0.0
O98 O 0.89579 0.87302 0.32085 0.0
O99 O 0.88758 0.82656 0.39285 0.0
C100 C 0.88967 0.75124 0.34929 0.0
O101 O 0.86386 0.84954 0.18714 0.0
O102 O 0.92486 0.84317 0.22549 0.0
C103 C 0.77239 0.7469 0.25792 0.0
C104 C 0.74173 0.75746 0.47756 0.0
C105 C 0.69919 0.79969 0.51576 0.0
C106 C 0.68569 0.78605 0.46277 0.0
C107 C 0.70727 0.76525 0.44353 0.0
C108 C 0.74897 0.76405 0.53285 0.0
C109 C 0.7278 0.78534 0.55204 0.0
C110 C 0.77925 0.75674 0.45409 0.0
C111 C 0.786 0.85196 0.28075 0.0
H112 H 0.94594 0.85113 1.01449 0.0
H113 H 0.94408 0.88822 0.08922 0.0
H114 H 0.85707 0.76907 0.16602 0.0
H115 H 0.86021 0.7317 0.09422 0.0
H116 H 0.66359 0.7966 0.43392 0.0
H117 H 0.70144 0.76044 0.40063 0.0
H118 H 0.77561 0.75806 0.55935 0.0
H119 H 0.73811 0.79502 0.59324 0.0
Tb120 Tb 0.32965 0.77355 0.33177 0.0
Tb121 Tb 0.27521 0.83441 0.30538 0.0
C122 C 0.24737 0.75614 0.38121 0.0
C123 C 0.36295 0.68353 0.34344 0.0
C124 C 0.38103 0.62263 0.30382 0.0
C125 C 0.38963 0.6286 0.35956 0.0
C126 C 0.38069 0.65897 0.3792 0.0
C127 C 0.35029 0.67506 0.2886 0.0
C128 C 0.3592 0.64463 0.26886 0.0
C129 C 0.36054 0.7193 0.36366 0.0
O130 O 0.27184 0.74242 0.26983 0.0
O131 O 0.25358 0.79755 0.23487 0.0
O132 O 0.34133 0.86853 0.27549 0.0
O133 O 0.35736 0.8136 0.26128 0.0
O134 O 0.23608 0.86 0.33286 0.0
O135 O 0.25381 0.87418 0.25064 0.0
O136 O 0.32738 0.86056 0.37526 0.0
O137 O 0.37675 0.82989 0.37319 0.0
O138 O 0.29173 0.77565 0.39263 0.0
O139 O 0.22989 0.77217 0.33889 0.0
C140 C 0.24998 0.75927 0.23251 0.0
O141 O 0.38478 0.75667 0.34143 0.0
O142 O 0.31943 0.71414 0.36974 0.0
C143 C 0.36485 0.85362 0.25409 0.0
C144 C 0.25776 0.92953 0.29597 0.0
C145 C 0.29211 1.01281 0.32674 0.0
C146 C 0.24643 0.99182 0.30143 0.0
C147 C 0.22944 0.9505 0.2864 0.0
C148 C 0.30443 0.9513 0.31654 0.0
C149 C 0.32153 0.99272 0.33179 0.0
C150 C 0.23795 0.88425 0.2883 0.0
C151 C 0.3675 0.85875 0.38986 0.0
H152 H 0.40631 0.61194 0.38726 0.0
H153 H 0.38992 0.66483 0.42187 0.0
H154 H 0.33597 0.69353 0.26069 0.0
H155 H 0.35269 0.641 0.22563 0.0
H156 H 0.22223 1.00565 0.29748 0.0
H157 H 0.19348 0.93416 0.27017 0.0
H158 H 0.32696 0.93553 0.32339 0.0
H159 H 0.35682 1.00792 0.35074 0.0
Tb160 Tb 0.34185 0.80335 0.77329 0.0
Tb161 Tb 0.3809 0.74492 0.84514 0.0
C162 C 0.40925 0.83645 0.88558 0.0
C163 C 0.35299 0.89824 0.6864 0.0
C164 C 0.37657 0.97485 0.62508 0.0
C165 C 0.37509 0.9733 0.68136 0.0
C166 C 0.36131 0.93457 0.71132 0.0
C167 C 0.36826 0.90291 0.63568 0.0
C168 C 0.38212 0.94189 0.60604 0.0
C169 C 0.32389 0.85609 0.70978 0.0
O170 O 0.39836 0.8046 0.73678 0.0
O171 O 0.44176 0.79431 0.81212 0.0
O172 O 0.35405 0.71739 0.76431 0.0
O173 O 0.29837 0.74039 0.74152 0.0
O174 O 0.41594 0.72652 0.91414 0.0
O175 O 0.37956 0.68448 0.8499 0.0
O176 O 0.3132 0.72412 0.87074 0.0
O177 O 0.28395 0.76723 0.81927 0.0
O178 O 0.39242 0.8458 0.83641 0.0
O179 O 0.40241 0.79686 0.89951 0.0
C180 C 0.43884 0.81184 0.76321 0.0
O181 O 0.32769 0.82437 0.69364 0.0
O182 O 0.32103 0.85241 0.76169 0.0
C183 C 0.31448 0.71312 0.73563 0.0
C184 C 0.36074 0.65779 0.93737 0.0
C185 C 0.3086 0.60222 1.01603 0.0
C186 C 0.31068 0.58654 0.96782 0.0
C187 C 0.33965 0.61426 0.93057 0.0
C188 C 0.345 0.67307 0.97497 0.0
C189 C 0.31636 0.64494 1.01216 0.0
C190 C 0.39432 0.6873 0.9013 0.0
C191 C 0.27993 0.73591 0.85564 0.0
H192 H 0.37535 0.9992 0.70025 0.0
H193 H 0.35272 0.93253 0.75185 0.0
H194 H 0.36509 0.87584 0.61655 0.0
H195 H 0.38783 0.94318 0.56458 0.0
H196 H 0.2986 0.55295 0.96444 0.0
H197 H 0.34725 0.60165 0.89832 0.0
H198 H 0.35656 0.70668 0.97763 0.0
H199 H 0.30941 0.65793 0.04455 0.0
Tb200 Tb 0.37639 0.304 0.77144 0.0
Tb201 Tb 0.32322 0.29863 0.8714 0.0
C202 C 0.41927 0.36716 0.85661 0.0
C203 C 0.43475 0.2699 0.69169 0.0
C204 C 0.46547 0.20658 0.69156 0.0
C205 C 0.49625 0.24719 0.70831 0.0
C206 C 0.48122 0.27854 0.70762 0.0
C207 C 0.4036 0.22919 0.67589 0.0
C208 C 0.41875 0.19788 0.67599 0.0
C209 C 0.41843 0.30181 0.69782 0.0
O210 O 0.40594 0.27367 0.83991 0.0
O211 O 0.35158 0.25222 0.89931 0.0
O212 O 0.27367 0.25474 0.81432 0.0
O213 O 0.32623 0.2395 0.78405 0.0
O214 O 0.33018 0.3287 0.94054 0.0
O215 O 0.26848 0.27215 0.91954 0.0
O216 O 0.31088 0.34565 0.81083 0.0
O217 O 0.32258 0.3244 0.73435 0.0
O218 O 0.40861 0.36594 0.80425 0.0
O219 O 0.39634 0.33489 0.88801 0.0
C220 C 0.38856 0.25193 0.88444 0.0
O221 O 0.37377 0.28908 0.69231 0.0
O222 O 0.43895 0.32477 0.73945 0.0
C223 C 0.28354 0.23026 0.78908 0.0
C224 C 0.26238 0.32508 0.96351 0.0
C225 C 0.21827 0.37352 0.98322 0.0
C226 C 0.19771 0.34337 0.94395 0.0
C227 C 0.21979 0.31948 0.93383 0.0
C228 C 0.28247 0.3547 1.00321 0.0
C229 C 0.26094 0.37911 1.01245 0.0
C230 C 0.28872 0.30328 0.95164 0.0
C231 C 0.30554 0.34497 0.75728 0.0
H232 H 0.53214 0.25499 0.72253 0.0
H233 H 0.5059 0.30937 0.72088 0.0
H234 H 0.36737 0.22129 0.66375 0.0
H235 H 0.39391 0.16731 0.66235 0.0
H236 H 0.16493 0.33876 0.92053 0.0
H237 H 0.20389 0.29717 0.90251 0.0
H238 H 0.31543 0.35956 0.02643 0.0
H239 H 0.27744 0.40198 0.043 0.0
Tb240 Tb 0.86748 0.26727 0.83641 0.0
Tb241 Tb 0.80178 0.30885 0.77538 0.0
C242 C 0.76813 0.23837 0.87232 0.0
C243 C 0.92511 0.19679 0.87442 0.0
C244 C 0.94039 0.13362 0.83545 0.0
C245 C 0.89537 0.13046 0.8316 0.0
C246 C 0.88784 0.16207 0.85046 0.0
C247 C 0.96928 0.19829 0.88236 0.0
C248 C 0.97696 0.16713 0.86293 0.0
C249 C 0.92005 0.23453 0.88326 0.0
O250 O 0.8375 0.23209 0.76404 0.0
O251 O 0.77623 0.24909 0.73732 0.0
O252 O 0.85471 0.3252 0.72106 0.0
O253 O 0.91123 0.32472 0.78751 0.0
O254 O 0.7362 0.30863 0.75668 0.0
O255 O 0.79614 0.36087 0.72925 0.0
O256 O 0.8551 0.35643 0.82679 0.0
O257 O 0.87347 0.31272 0.89073 0.0
O258 O 0.79834 0.2255 0.86229 0.0
O259 O 0.7714 0.27574 0.85088 0.0
C260 C 0.79785 0.22553 0.73477 0.0
O261 O 0.93076 0.2637 0.84384 0.0
O262 O 0.88194 0.22848 0.9005 0.0
C263 C 0.89906 0.33824 0.73833 0.0
C264 C 0.74631 0.37703 0.76812 0.0
C265 C 0.73264 0.43051 0.82971 0.0
C266 C 0.71815 0.42943 0.77364 0.0
C267 C 0.72501 0.40273 0.74287 0.0
C268 C 0.76237 0.37957 0.82359 0.0
C269 C 0.75575 0.40609 0.85401 0.0
C270 C 0.75364 0.34807 0.73802 0.0
C271 C 0.87489 0.34995 0.87463 0.0
H272 H 0.86632 0.10482 0.81148 0.0
H273 H 0.85341 0.16056 0.84367 0.0
H274 H 0.99844 0.22511 0.90029 0.0
H275 H 1.01227 0.17136 0.86593 0.0
H276 H 0.69975 0.44768 0.75427 0.0
H277 H 0.71291 0.40148 0.69993 0.0
H278 H 0.77921 0.36025 0.84379 0.0
H279 H 0.76721 0.40638 0.89714 0.0
Tb280 Tb 0.85883 0.82819 0.84927 0.0
Tb281 Tb 0.81481 0.76353 0.74984 0.0
C282 C 0.90922 0.84407 0.74671 0.0
C283 C 0.86293 0.90206 0.94259 0.0
C284 C 0.8128 0.94076 0.97649 0.0
C285 C 0.82689 0.91367 1.01273 0.0
C286 C 0.85131 0.89421 0.99573 0.0
C287 C 0.85023 0.93047 0.90701 0.0
C288 C 0.82516 0.94933 0.92367 0.0
C289 C 0.88544 0.87867 0.9236 0.0
O290 O 0.80235 0.84048 0.8065 0.0
O291 O 0.79286 0.81346 0.72408 0.0
O292 O 0.75661 0.74781 0.79485 0.0
O293 O 0.80047 0.77112 0.8759 0.0
O294 O 0.80217 0.75451 0.66666 0.0
O295 O 0.78642 0.70121 0.72536 0.0
O296 O 0.84401 0.73575 0.81871 0.0
O297 O 0.9019 0.7947 0.85585 0.0
O298 O 0.89589 0.86113 0.77984 0.0
O299 O 0.8872 0.80347 0.73931 0.0
C300 C 0.78609 0.83689 0.75506 0.0
O301 O 0.866 0.83765 0.93225 0.0
O302 O 0.89779 0.88968 0.87505 0.0
C303 C 0.76038 0.74959 0.84769 0.0
C304 C 0.82133 0.70021 0.65072 0.0
C305 C 0.88018 0.67113 0.61621 0.0
C306 C 0.83376 0.6434 0.62171 0.0
C307 C 0.80465 0.65782 0.639 0.0
C308 C 0.86717 0.72822 0.6433 0.0
C309 C 0.89621 0.71388 0.62623 0.0
C310 C 0.79252 0.7144 0.67496 0.0
C311 C 0.88507 0.75478 0.84556 0.0
H312 H 0.81721 0.90604 0.05345 0.0
H313 H 0.85972 0.87194 0.02361 0.0
H314 H 0.85858 0.93739 0.86576 0.0
H315 H 0.81478 0.97015 0.89496 0.0
H316 H 0.82043 0.61021 0.61475 0.0
H317 H 0.76954 0.6356 0.64476 0.0
H318 H 0.88101 0.76111 0.6519 0.0
H319 H 0.93152 0.73621 0.62165 0.0
Co320 Co 0.17342 0.02825 0.5031 0.0
Co321 Co 0.14929 0.97686 0.5834 0.0
Co322 Co 0.10625 0.04225 0.5761 0.0
O323 O 0.15869 0.03106 0.57211 0.0
H324 H 0.18584 0.04868 0.59492 0.0
O325 O 1.05238 0.05176 0.58099 0.0
Co326 Co 1.05631 0.08556 0.63437 0.0
Co327 Co 1.04282 0.09023 0.53212 0.0
H328 H 1.02458 0.02556 0.58079 0.0
O329 O 0.20012 0.97466 0.62285 0.0
O330 O 0.18395 0.97787 0.53108 0.0
O331 O 0.08764 0.93841 0.60623 0.0
O332 O 0.07872 0.99294 0.63014 0.0
O333 O 0.14457 0.07837 0.63687 0.0
O334 O 1.05595 0.11365 0.68703 0.0
O335 O 1.00026 0.05217 0.65588 0.0
O336 O 0.11466 0.12392 0.61848 0.0
O337 O 0.13621 0.09175 0.52193 0.0
O338 O 0.09265 0.12531 0.4875 0.0
O339 O 1.03109 0.11773 0.58073 0.0
O340 O 0.982 0.07872 0.51289 0.0
C341 C 0.23114 0.05763 0.46536 0.0
C342 C 0.07278 0.98551 0.48493 0.0
C343 C 1.06665 0.95306 0.63055 0.0
C344 C 0.21241 0.97895 0.57472 0.0
C345 C 1.01608 0.08146 0.69031 0.0
C346 C 0.14681 0.11458 0.6414 0.0
C347 C 0.12974 0.1208 0.49041 0.0
C348 C 0.98999 0.10086 0.55419 0.0
O349 O 0.19272 0.03034 0.44132 0.0
O350 O 0.23416 0.06445 0.51599 0.0
O351 O 1.06616 1.00648 0.51681 0.0
O352 O 0.11262 0.98981 0.47994 0.0
Co353 Co 0.6309 0.99337 0.07552 0.0
Co354 Co 0.62915 0.99526 0.17195 0.0
Co355 Co 0.57075 0.05592 0.09735 0.0
O356 O 0.62571 0.03622 0.11402 0.0
H357 H 0.65489 0.06108 0.11647 0.0
O358 O 0.51636 0.07883 0.09078 0.0
Co359 Co 0.51395 0.13078 0.1314 0.0
Co360 Co 0.52597 0.12368 0.03701 0.0
H361 H 0.48596 0.05604 0.0835 0.0
O362 O 0.68102 0.98882 0.21846 0.0
O363 O 0.64424 0.95415 0.14442 0.0
O364 O 0.56876 0.96967 0.19278 0.0
O365 O 0.53503 1.01271 0.15456 0.0
O366 O 0.60466 0.10098 0.15001 0.0
O367 O 0.51371 0.17686 0.17037 0.0
O368 O 0.44959 0.12455 0.14507 0.0
O369 O 0.57894 0.15185 0.1315 0.0
O370 O 0.61013 0.09884 0.03742 0.0
O371 O 0.58474 0.14794 1.00666 0.0
O372 O 0.50804 0.16312 0.05888 0.0
O373 O 0.47642 0.12066 0.98841 0.0
C374 C 0.68239 0.98825 0.04463 0.0
C375 C 0.53355 0.97101 0.03961 0.0
C376 C 0.53483 0.97955 0.18354 0.0
C377 C 0.67515 0.95897 0.1887 0.0
C378 C 0.46934 0.16031 0.16989 0.0
C379 C 0.61157 0.13991 0.14023 0.0
C380 C 0.61451 0.13351 1.00825 0.0
C381 C 0.48016 0.15237 1.0131 0.0
O382 O 0.6397 0.96058 0.03533 0.0
O383 O 0.69268 1.01998 0.07381 0.0
O384 O 0.53445 1.00838 0.04133 0.0
O385 O 0.56415 0.96103 0.06904 0.0
Co386 Co 0.08872 0.49623 0.05125 0.0
Co387 Co 0.10147 0.54118 0.13521 0.0
Co388 Co 1.05543 0.57297 0.03372 0.0
O389 O 0.10208 0.55239 0.06072 0.0
H390 H 0.13277 0.57221 0.05307 0.0
O391 O 1.01045 0.59576 1.00579 0.0
Co392 Co 1.02472 0.65314 1.01685 0.0
Co393 Co 1.0158 0.61193 0.93185 0.0
H394 H 0.97922 0.57597 1.01141 0.0
O395 O 0.15183 0.53774 0.17778 0.0
O396 O 0.09231 0.48639 0.13121 0.0
O397 O 1.05009 0.53816 0.16674 0.0
O398 O 1.00926 0.53329 0.08568 0.0
O399 O 0.08574 0.61562 0.08848 0.0
O400 O 1.03232 0.70372 0.02568 0.0
O401 O 0.96556 0.64552 1.00917 0.0
O402 O 0.09037 0.66955 0.03084 0.0
O403 O 0.10283 0.61213 0.98333 0.0
O404 O 1.06759 0.61632 0.90089 0.0
O405 O 1.02512 0.6668 0.93682 0.0
O406 O 0.96773 0.61601 0.88715 0.0
C407 C 0.12549 0.46531 0.04068 0.0
C408 C 1.00802 0.48933 0.99883 0.0
C409 C 1.01159 0.52474 0.13714 0.0
C410 C 0.13104 0.49915 0.16309 0.0
C411 C 0.98761 0.68588 1.01679 0.0
C412 C 0.1056 0.6548 0.07485 0.0
C413 C 0.10422 0.62361 0.93283 0.0
C414 C 0.98757 0.65452 0.90219 0.0
O415 O 0.08128 0.4452 0.04247 0.0
O416 O 0.14736 0.50514 0.05123 0.0
O417 O 1.02388 0.52797 0.98023 0.0
O418 O 1.02547 0.47995 0.04493 0.0
Co419 Co 0.62576 0.51699 1.01011 0.0
Co420 Co 0.6441 0.53795 0.10856 0.0
Co421 Co 0.57711 0.57257 0.04724 0.0
O422 O 0.6319 0.56404 0.04345 0.0
H423 H 0.65866 0.5898 0.0353 0.0
O424 O 0.52335 0.58227 0.04943 0.0
Co425 Co 0.52642 0.60944 0.1111 0.0
Co426 Co 0.51661 0.62665 1.01001 0.0
H427 H 0.49513 0.55671 0.04418 0.0
O428 O 0.70406 0.5571 0.13089 0.0
O429 O 0.65789 0.50209 0.07823 0.0
O430 O 0.59765 0.5085 0.15832 0.0
O431 O 0.54648 0.52485 0.10328 0.0
O432 O 0.61519 0.60984 0.10619 0.0
O433 O 0.5246 0.63036 0.16975 0.0
O434 O 0.47233 0.57016 0.13244 0.0
O435 O 0.58359 0.65381 0.09771 0.0
O436 O 0.60519 0.62075 0.99195 0.0
O437 O 0.56942 0.66334 0.96922 0.0
O438 O 0.49725 0.64219 0.0651 0.0
O439 O 0.45574 0.61301 0.98702 0.0
C440 C 0.6616 0.50181 0.96408 0.0
C441 C 0.53939 0.49568 0.99645 0.0
C442 C 0.55673 0.50479 0.14558 0.0
C443 C 0.69895 0.52851 0.09922 0.0
C444 C 0.48645 0.59591 0.17126 0.0
C445 C 0.61838 0.64613 0.11134 0.0
C446 C 0.60241 0.65356 0.96638 0.0
C447 C 0.45766 0.62312 0.03589 0.0
O448 O 0.62242 0.47433 0.97907 0.0
O449 O 0.67983 0.54039 0.9798 0.0
O450 O 0.5417 0.53293 0.98964 0.0
O451 O 0.56761 0.48789 0.03264 0.0
Co452 Co 0.19464 0.48693 0.56687 0.0
Co453 Co 0.17422 0.4953 0.4676 0.0
Co454 Co 0.10596 0.53031 0.52652 0.0
O455 O 0.13466 0.4858 0.52347 0.0
H456 H 0.11052 0.45723 0.52324 0.0
O457 O 0.08017 0.57807 0.52298 0.0
Co458 Co 1.02286 0.58682 0.47427 0.0
Co459 Co 1.04096 0.56605 0.57612 0.0
H460 H 0.10585 0.60543 0.5285 0.0
O461 O 0.1727 0.4523 0.42599 0.0
O462 O 0.22541 0.48045 0.49662 0.0
O463 O 0.19245 0.55348 0.43528 0.0
O464 O 0.14375 0.57035 0.47066 0.0
O465 O 1.05348 0.502 0.47021 0.0
O466 O 0.97149 0.59695 0.43194 0.0
O467 O 1.03334 0.64829 0.46804 0.0
O468 O 0.99975 0.52681 0.47021 0.0
O469 O 1.06481 0.48656 0.58465 0.0
O470 O 1.017 0.50954 0.60916 0.0
O471 O 0.99238 0.57651 0.53907 0.0
O472 O 1.04094 0.6094 0.61081 0.0
C473 C 0.21853 0.4434 0.61337 0.0
C474 C 0.20313 0.57158 0.58896 0.0
C475 C 0.1746 0.57848 0.43992 0.0
C476 C 0.2114 0.45567 0.45403 0.0
C477 C 0.99222 0.63728 0.43948 0.0
C478 C 1.01153 0.49673 0.4686 0.0
C479 C 1.03049 0.48084 0.61028 0.0
C480 C 1.00415 0.60289 0.5766 0.0
O481 O 0.24343 0.48404 0.61143 0.0
O482 O 0.17821 0.4289 0.58328 0.0
O483 O 0.15916 0.5608 0.58399 0.0
O484 O 0.22003 0.55084 0.56697 0.0
Co485 Co 0.68568 0.98864 0.60757 0.0
Co486 Co 0.67111 1.00302 0.50834 0.0
Co487 Co 0.60803 0.02562 0.57279 0.0
O488 O 0.63273 0.98711 0.55967 0.0
H489 H 0.60882 0.95873 0.55473 0.0
O490 O 0.58511 0.06416 0.58853 0.0
Co491 Co 0.52628 0.05978 0.56519 0.0
Co492 Co 0.57178 0.05291 0.65944 0.0
H493 H 0.60768 0.09305 0.58355 0.0
O494 O 0.66291 0.9623 0.46765 0.0
O495 O 0.71319 0.98591 0.54421 0.0
O496 O 0.69483 0.05946 0.48409 0.0
O497 O 0.6465 0.07529 0.52078 0.0
O498 O 0.5556 1.00107 0.51404 0.0
O499 O 0.47235 0.06169 0.54346 0.0
O500 O 0.54352 0.11413 0.56343 0.0
O501 O 0.50217 1.00051 0.55994 0.0
O502 O 0.5703 0.97639 0.62276 0.0
O503 O 0.56718 1.00089 0.69822 0.0
O504 O 0.51547 0.05435 0.64348 0.0
O505 O 0.57941 0.09624 0.69657 0.0
C506 C 0.70348 0.94461 0.65101 0.0
C507 C 0.6992 0.06827 0.62729 0.0
C508 C 0.67989 0.08545 0.49213 0.0
C509 C 0.69158 0.95763 0.50799 0.0
C510 C 0.49969 0.10166 0.54789 0.0
C511 C 0.51328 0.98689 0.52236 0.0
C512 C 0.56171 0.97049 0.67192 0.0
C513 C 0.53688 0.08579 0.67533 0.0
O514 O 0.7312 0.98463 0.6523 0.0
O515 O 0.66393 0.93214 0.6203 0.0
O516 O 0.6569 0.04947 0.6338 0.0
O517 O 0.71617 0.05009 0.60293 0.0
C518 C 0.24861 0.18275 0.44007 0.0
C519 C 0.23954 0.20731 0.39486 0.0
H520 H 0.2216 0.13662 0.50534 0.0
C521 C 0.19368 0.20237 0.38088 0.0
H522 H 0.28328 0.18552 0.45228 0.0
C523 C 0.15831 0.17457 0.41164 0.0
C524 C 0.16735 0.15024 0.45705 0.0
H525 H 0.18512 0.22082 0.34668 0.0
H526 H 0.12375 0.17218 0.39973 0.0
C527 C 0.21303 0.1545 0.47047 0.0
C528 C 0.94348 0.17636 0.56182 0.0
C529 C 0.90533 0.1583 0.52261 0.0
H530 H 1.0034 0.17057 0.60316 0.0
C531 C 0.88303 0.11401 0.52218 0.0
H532 H 0.9595 0.21006 0.5668 0.0
C533 C 0.90911 0.09153 0.54088 0.0
C534 C 0.95493 0.11351 0.56394 0.0
H535 H 0.85125 0.09883 0.49565 0.0
H536 H 0.89627 0.05932 0.52962 0.0
C537 C 0.96917 0.15381 0.58209 0.0
C538 C 0.982 0.88236 0.43308 0.0
C539 C 0.95105 0.89563 0.3996 0.0
H540 H 1.04624 0.90124 0.48515 0.0
C541 C 0.96124 0.93878 0.39287 0.0
H542 H 0.97491 0.84919 0.43841 0.0
C543 C 1.00127 0.9682 0.42052 0.0
C544 C 1.03237 0.95495 0.45349 0.0
H545 H 0.93778 0.94959 0.36721 0.0
H546 H 1.00807 1.0013 0.41609 0.0
C547 C 1.02282 0.91197 0.45925 0.0
C548 C 0.28167 0.0761 0.34229 0.0
C549 C 0.30378 0.04944 0.35894 0.0
H550 H 0.23958 0.10128 0.36714 0.0
C551 C 0.32155 0.04764 0.41397 0.0
H552 H 0.26996 0.08031 0.29986 0.0
C553 C 0.30594 0.06176 0.45242 0.0
C554 C 0.27154 0.07578 0.43565 0.0
H555 H 0.34066 0.02909 0.42849 0.0
H556 H 0.31406 0.05426 0.49481 0.0
C557 C 0.26466 0.08861 0.38086 0.0
C558 C 0.34033 0.02512 0.60929 0.0
C559 C 0.34947 0.99492 0.58844 0.0
H560 H 0.28716 0.04063 0.62513 0.0
C561 C 0.31733 0.97134 0.54609 0.0
H562 H 0.36553 0.04684 0.63799 0.0
C563 C 0.27258 0.96837 0.53793 0.0
C564 C 0.26065 0.99024 0.57038 0.0
H565 H 0.32359 0.94987 0.5252 0.0
H566 H 0.24652 0.94593 0.51055 0.0
C567 C 0.29538 1.02131 0.60249 0.0
C568 C 0.20527 0.20042 0.73891 0.0
C569 C 0.24688 0.19738 0.75661 0.0
H570 H 0.14178 0.17751 0.68718 0.0
C571 C 0.25513 0.16605 0.73748 0.0
H572 H 0.19837 0.22469 0.75241 0.0
C573 C 0.22233 0.13851 0.70031 0.0
C574 C 0.18144 0.14267 0.68113 0.0
H575 H 0.28726 0.16339 0.75044 0.0
H576 H 0.2294 0.11476 0.68563 0.0
C577 C 0.17309 0.17364 0.70104 0.0
C578 C 0.98937 0.0983 0.82149 0.0
C579 C 0.95091 0.10697 0.80373 0.0
H580 H 1.04084 0.08374 0.79813 0.0
C581 C 0.92813 0.09703 0.75099 0.0
H582 H 1.00686 0.10417 0.8623 0.0
C583 C 0.94663 0.08352 0.71506 0.0
C584 C 0.98848 0.08068 0.73113 0.0
H585 H 0.89855 0.10337 0.73557 0.0
H586 H 0.93075 0.07945 0.67343 0.0
C587 C 1.00859 0.08616 0.78508 0.0
C588 C 0.96938 0.85379 0.68702 0.0
C589 C 0.95013 0.87126 0.71763 0.0
H590 H 1.02123 0.86547 0.63581 0.0
C591 C 0.97042 0.9154 0.72024 0.0
H592 H 0.95496 0.8199 0.68439 0.0
C593 C 1.00832 0.94138 0.69263 0.0
C594 C 1.02749 0.92417 0.66157 0.0
H595 H 0.95678 0.93015 0.74329 0.0
H596 H 1.02239 0.97524 0.69553 0.0
C597 C 1.00763 0.87991 0.65937 0.0
C598 C 0.37822 0.20038 0.20928 0.0
C599 C 0.40298 0.23046 0.25007 0.0
H600 H 0.37581 0.15557 0.15465 0.0
C601 C 0.44957 0.23537 0.26339 0.0
H602 H 0.34261 0.19414 0.19567 0.0
C603 C 0.46945 0.21334 0.23812 0.0
C604 C 0.44477 0.18298 0.19779 0.0
H605 H 0.47182 0.25746 0.29335 0.0
H606 H 0.50537 0.22036 0.25097 0.0
C607 C 0.39784 0.17741 0.18496 0.0
C608 C 0.93861 0.45007 0.2425 0.0
C609 C 0.91463 0.41253 0.21527 0.0
H610 H 0.98801 0.51516 0.23903 0.0
C611 C 0.91795 0.41395 0.1599 0.0
H612 H 0.9363 0.45008 0.28511 0.0
C613 C 0.94594 0.45195 0.13279 0.0
C614 C 0.97245 0.48883 0.16102 0.0
H615 H 0.89903 0.38574 0.13764 0.0
H616 H 0.94875 0.45172 0.09051 0.0
C617 C 0.96779 0.48752 0.21599 0.0
C618 C 0.74074 0.89855 0.28978 0.0
C619 C 0.75571 0.87786 0.2573 0.0
H620 H 0.70675 0.9385 0.29598 0.0
C621 C 0.74175 0.88371 0.20045 0.0
H622 H 0.74953 0.89642 0.33328 0.0
C623 C 0.71516 0.90761 0.1783 0.0
C624 C 0.70104 0.92902 0.21088 0.0
H625 H 0.75142 0.86941 0.17206 0.0
H626 H 0.70669 0.91012 0.13477 0.0
C627 C 0.7154 0.92339 0.26758 0.0
C628 C 0.19693 0.75168 0.14498 0.0
C629 C 0.21688 0.73324 0.18851 0.0
H630 H 0.14659 0.74165 0.0746 0.0
C631 C 0.20222 0.68926 0.19159 0.0
H632 H 0.2075 0.78551 0.14111 0.0
C633 C 0.16713 0.6642 0.15364 0.0
C634 C 0.14596 0.68242 0.1113 0.0
H635 H 0.21665 0.6739 0.22444 0.0
H636 H 0.15591 0.63027 0.15827 0.0
C637 C 0.16204 0.72659 0.10667 0.0
C638 C 0.4614 0.8624 0.97524 0.0
C639 C 0.4384 0.87137 0.92573 0.0
H640 H 0.50736 0.88484 0.0481 0.0
C641 C 0.44512 0.91418 0.91545 0.0
H642 H 0.45795 0.8305 0.98582 0.0
C643 C 0.47374 0.94616 0.95247 0.0
C644 C 0.49761 0.93708 1.00142 0.0
H645 H 0.42857 0.92327 0.87824 0.0
H646 H 0.47827 0.97834 0.94176 0.0
C647 C 0.49019 0.89417 1.0116 0.0
C648 C 0.21914 0.44125 1.00422 0.0
C649 C 0.19455 0.39791 0.99552 0.0
H650 H 0.21653 0.49687 0.02534 0.0
C651 C 0.14744 0.37728 1.00144 0.0
H652 H 0.25546 0.45795 0.99931 0.0
C653 C 0.12544 0.39925 1.01692 0.0
C654 C 0.14995 0.44247 0.02614 0.0
H655 H 0.12788 0.34377 0.99587 0.0
H656 H 0.08914 0.38213 0.02184 0.0
C657 C 0.19692 0.46346 1.01911 0.0
C658 C 0.72539 0.17129 0.93471 0.0
C659 C 0.72967 0.21074 0.90806 0.0
H660 H 0.68751 0.1164 0.98658 0.0
C661 C 0.69589 0.22364 0.91574 0.0
H662 H 0.75025 0.15965 0.93044 0.0
C663 C 0.65977 0.19871 0.94773 0.0
C664 C 0.65504 0.15922 0.97442 0.0
H665 H 0.69706 0.25337 0.89662 0.0
H666 H 0.6352 0.21085 0.95145 0.0
C667 C 0.68904 0.14619 0.96728 0.0
C668 C 0.89018 0.68611 0.85922 0.0
C669 C 0.91235 0.73022 0.86197 0.0
H670 H 0.89652 0.62815 0.86919 0.0
C671 C 0.9604 0.74997 0.87657 0.0
H672 H 0.85323 0.66979 0.84804 0.0
C673 C 0.98564 0.72575 0.88847 0.0
C674 C 0.96303 0.68155 0.88603 0.0
H675 H 0.97847 0.78399 0.87844 0.0
H676 H 1.02254 0.74143 0.90023 0.0
C677 C 0.91515 0.66216 0.87091 0.0
C678 C 0.22063 0.46392 0.15161 0.0
C679 C 0.19481 0.41968 0.15545 0.0
H680 H 0.22077 0.52415 0.15391 0.0
C681 C 0.15038 0.40254 0.17174 0.0
H682 H 0.2547 0.47853 0.13864 0.0
C683 C 0.1306 0.42889 0.17876 0.0
C684 C 0.15556 0.47273 0.17168 0.0
H685 H 0.13022 0.36876 0.17787 0.0
H686 H 0.09511 0.41503 0.18736 0.0
C687 C 0.20138 0.49024 0.16066 0.0
C688 C 0.19332 0.70404 0.84501 0.0
C689 C 0.23508 0.70963 0.87696 0.0
H690 H 0.11954 0.67181 0.83673 0.0
C691 C 0.23349 0.68638 0.92727 0.0
H692 H 0.19333 0.721 0.80574 0.0
C693 C 0.19121 0.65804 0.94517 0.0
C694 C 0.14936 0.65179 0.91279 0.0
H695 H 0.26504 0.69019 0.95293 0.0
H696 H 0.19136 0.64099 0.98435 0.0
C697 C 0.15101 0.67528 0.86252 0.0
C698 C 0.437 0.21115 0.8948 0.0
C699 C 0.41212 0.22696 0.91875 0.0
H700 H 0.47691 0.17544 0.90526 0.0
C701 C 0.41118 0.21931 0.97547 0.0
H702 H 0.4388 0.21626 0.85153 0.0
C703 C 0.43455 0.1967 1.00702 0.0
C704 C 0.45836 0.18001 0.98246 0.0
H705 H 0.39276 0.23123 0.99562 0.0
H706 H 0.43289 0.19128 0.05029 0.0
C707 C 0.45901 0.18764 0.92585 0.0
C708 C 0.92282 0.37901 0.96105 0.0
C709 C 0.90432 0.38621 0.90819 0.0
H710 H 0.96945 0.40561 0.03079 0.0
C711 C 0.91764 0.42824 0.88638 0.0
H712 H 0.91315 0.34716 0.97928 0.0
C713 C 0.95053 0.46218 0.91601 0.0
C714 C 0.97042 0.45466 0.96806 0.0
H715 H 0.904 0.43487 0.84567 0.0
H716 H 0.96117 0.49408 0.89767 0.0
C717 C 0.9553 0.41272 0.99058 0.0
C718 C 0.74021 0.95046 0.95935 0.0
C719 C 0.78187 0.95701 0.99214 0.0
H720 H 0.67607 0.95517 0.9506 0.0
C721 C 0.79222 0.97694 0.0408 0.0
H722 H 0.73117 0.93481 0.92192 0.0
C723 C 0.76102 0.98952 0.05666 0.0
C724 C 0.71855 0.9813 0.02476 0.0
H725 H 0.82413 0.98231 0.06678 0.0
H726 H 0.76911 1.00377 0.09499 0.0
C727 C 0.70867 0.96202 0.97579 0.0
C728 C 0.96871 0.78273 1.01625 0.0
C729 C 0.92113 0.76531 0.01956 0.0
H730 H 1.0268 0.77101 1.01415 0.0
C731 C 0.89395 0.72225 1.01009 0.0
H732 H 0.9911 0.81568 0.02262 0.0
C733 C 0.91509 0.69591 1.00695 0.0
C734 C 0.96336 0.71278 1.01197 0.0
H735 H 0.85689 0.70822 1.01029 0.0
H736 H 0.89399 0.66231 1.00371 0.0
C737 C 0.98958 0.7567 1.01289 0.0
C738 C 0.44332 0.87472 0.23001 0.0
C739 C 0.40632 0.88466 0.23071 0.0
H740 H 0.51319 0.89715 0.21609 0.0
C741 C 0.41162 0.92623 0.21573 0.0
H742 H 0.44044 0.84313 0.24199 0.0
C743 C 0.45358 0.95753 0.20109 0.0
C744 C 0.49106 0.94783 0.20193 0.0
H745 H 0.38355 0.93476 0.21616 0.0
H746 H 0.45675 0.98926 0.1896 0.0
C747 C 0.48532 0.90601 0.21612 0.0
C748 C 0.70965 0.24719 0.16304 0.0
C749 C 0.74503 0.23589 0.18704 0.0
H750 H 0.63928 0.22538 0.12896 0.0
C751 C 0.73883 0.19402 0.18582 0.0
H752 H 0.71375 0.27938 0.16253 0.0
C753 C 0.69593 0.16286 0.16743 0.0
C754 C 0.65883 0.17329 0.14971 0.0
H755 H 0.76596 0.18458 0.203 0.0
H756 H 0.69125 0.13038 0.17031 0.0
C757 C 0.66682 0.21608 0.14437 0.0
C758 C 0.72503 0.71384 0.93266 0.0
C759 C 0.71914 0.72611 0.87735 0.0
H760 H 0.69276 0.68147 1.00348 0.0
C761 C 0.67398 0.7166 0.85186 0.0
H762 H 0.75917 0.72064 0.95373 0.0
C763 C 0.63565 0.69499 0.88111 0.0
C764 C 0.64182 0.6817 0.936 0.0
H765 H 0.6683 0.726 0.80942 0.0
H766 H 0.60125 0.68735 0.86042 0.0
C767 C 0.68694 0.69152 0.9613 0.0
C768 C 0.3366 0.5517 0.06479 0.0
C769 C 0.32475 0.58477 0.06958 0.0
H770 H 0.3895 0.54217 0.03488 0.0
C771 C 0.35913 0.61655 0.10208 0.0
H772 H 0.31005 0.52124 0.05278 0.0
C773 C 0.40501 0.63043 0.09225 0.0
C774 C 0.41485 0.60587 0.06113 0.0
H775 H 0.35058 0.63772 0.1206 0.0
H776 H 0.43109 0.66098 0.10473 0.0
C777 C 0.38164 0.56395 0.05314 0.0
C778 C 0.45934 0.44364 0.87295 0.0
C779 C 0.45721 0.40292 0.88269 0.0
H780 H 0.48688 0.50544 0.90255 0.0
C781 C 0.48469 0.39398 0.92697 0.0
H782 H 0.43752 0.45067 0.8395 0.0
C783 C 0.51185 0.42448 0.96325 0.0
C784 C 0.51223 0.46466 0.9558 0.0
H785 H 0.48305 0.36248 0.93529 0.0
H786 H 0.53126 0.41594 0.99818 0.0
C787 C 0.48679 0.4745 0.90952 0.0
C788 C 0.69282 0.42658 0.90717 0.0
C789 C 0.71771 0.45126 0.86485 0.0
H790 H 0.6562 0.42352 0.97144 0.0
C791 C 0.72703 0.49434 0.85685 0.0
H792 H 0.68488 0.39325 0.91394 0.0
C793 C 0.71113 0.51224 0.89095 0.0
C794 C 0.68492 0.48679 0.93219 0.0
H795 H 0.74633 0.51391 0.82437 0.0
H796 H 0.71766 0.54521 0.88377 0.0
C797 C 0.6764 0.444 0.94008 0.0
C798 C 0.77296 0.47696 0.08154 0.0
C799 C 0.80926 0.49879 0.12107 0.0
H800 H 0.70363 0.46561 0.05128 0.0
C801 C 0.81981 0.54127 0.12594 0.0
H802 H 0.76646 0.44563 0.07194 0.0
C803 C 0.78418 0.55383 0.11246 0.0
C804 C 0.7403 0.52447 0.09104 0.0
H805 H 0.85008 0.56046 0.15217 0.0
H806 H 0.78923 0.58372 0.12569 0.0
C807 C 0.73635 0.48811 0.06992 0.0
C808 C 0.73905 0.69771 0.18318 0.0
C809 C 0.73367 0.72214 0.21885 0.0
H810 H 0.7061 0.65417 0.1207 0.0
C811 C 0.69112 0.72401 0.2159 0.0
H812 H 0.7717 0.69618 0.18433 0.0
C813 C 0.65415 0.70104 0.17867 0.0
C814 C 0.65891 0.67518 0.14461 0.0
H815 H 0.68635 0.74328 0.24232 0.0
H816 H 0.62141 0.70227 0.17808 0.0
C817 C 0.70172 0.67396 0.14673 0.0
C818 C 0.45246 0.61694 0.29487 0.0
C819 C 0.40467 0.60255 0.28054 0.0
H820 H 0.51607 0.62567 0.2709 0.0
C821 C 0.38289 0.57666 0.23679 0.0
H822 H 0.47026 0.63694 0.32838 0.0
C823 C 0.4094 0.56936 0.20434 0.0
C824 C 0.45776 0.58952 0.21411 0.0
H825 H 0.34596 0.56477 0.2254 0.0
H826 H 0.39236 0.55158 0.16888 0.0
C827 C 0.47882 0.61075 0.26167 0.0
C828 C 0.4942 0.42655 0.25828 0.0
C829 C 0.44733 0.4161 0.23971 0.0
H830 H 0.56491 0.46194 0.24367 0.0
C831 C 0.43703 0.43654 0.19081 0.0
H832 H 0.50379 0.41151 0.29555 0.0
C833 C 0.47242 0.46582 0.16099 0.0
C834 C 0.51921 0.47524 0.17882 0.0
H835 H 0.40155 0.42944 0.175 0.0
H836 H 0.46293 0.48042 0.12324 0.0
C837 C 0.52949 0.45547 0.22827 0.0
C838 C 0.89921 0.62591 0.5638 0.0
C839 C 0.9126 0.65522 0.60341 0.0
H840 H 0.91766 0.5867 0.5238 0.0
C841 C 0.95704 0.66845 0.6323 0.0
H842 H 0.86541 0.61544 0.54044 0.0
C843 C 0.987 0.65216 0.62269 0.0
C844 C 0.97337 0.62225 0.58385 0.0
H845 H 0.9683 0.6906 0.66354 0.0
H846 H 1.02064 0.66257 0.64642 0.0
C847 C 0.92931 0.60969 0.55403 0.0
C848 C 0.51061 0.87894 0.77514 0.0
C849 C 0.47912 0.84713 0.74141 0.0
H850 H 0.56129 0.94344 0.77943 0.0
C851 C 0.47993 0.85437 0.68504 0.0
H852 H 0.51009 0.87451 0.81865 0.0
C853 C 0.50957 0.89358 0.66258 0.0
C854 C 0.5381 0.92673 0.69603 0.0
H855 H 0.45558 0.83054 0.65812 0.0
H856 H 0.50754 0.89884 0.61886 0.0
C857 C 0.53949 0.91856 0.75262 0.0
C858 C 0.28118 0.40547 0.7375 0.0
C859 C 0.28067 0.36854 0.72137 0.0
H860 H 0.26311 0.45772 0.71636 0.0
C861 C 0.25704 0.35509 0.66963 0.0
H862 H 0.29891 0.41719 0.77659 0.0
C863 C 0.23494 0.37777 0.63543 0.0
C864 C 0.23691 0.41551 0.65102 0.0
H865 H 0.25556 0.32681 0.65546 0.0
H866 H 0.21775 0.36657 0.59596 0.0
C867 C 0.2605 0.42882 0.70269 0.0
C868 C 0.79861 0.16552 0.68993 0.0
C869 C 0.77476 0.18795 0.70154 0.0
H870 H 0.79389 0.11047 0.65608 0.0
C871 C 0.72719 0.17205 0.68486 0.0
H872 H 0.83536 0.17684 0.7023 0.0
C873 C 0.70365 0.13395 0.65979 0.0
C874 C 0.72686 0.11078 0.64919 0.0
H875 H 0.7075 0.18805 0.69329 0.0
H876 H 0.6667 0.12217 0.65 0.0
C877 C 0.77495 0.12752 0.66338 0.0
C878 C 0.8938 0.40699 0.43954 0.0
C879 C 0.90595 0.37407 0.43597 0.0
H880 H 0.9183 0.47253 0.45123 0.0
C881 C 0.95142 0.37965 0.45286 0.0
H882 H 0.85887 0.40338 0.42677 0.0
C883 C 0.98559 0.41934 0.46575 0.0
C884 C 0.97459 0.45384 0.46213 0.0
H885 H 0.96136 0.35443 0.45092 0.0
H886 H 1.02091 0.42334 0.47553 0.0
C887 C 0.92805 0.44682 0.45236 0.0
C888 C 0.7343 0.87342 0.54377 0.0
C889 C 0.69446 0.83736 0.52655 0.0
H890 H 0.76473 0.9405 0.55115 0.0
C891 C 0.65317 0.84081 0.50827 0.0
H892 H 0.76684 0.87172 0.55738 0.0
C893 C 0.65256 0.88017 0.5031 0.0
C894 C 0.69304 0.91655 0.51686 0.0
H895 H 0.6221 0.81349 0.49497 0.0
H896 H 0.6205 0.88224 0.48727 0.0
C897 C 0.73346 0.91283 0.53935 0.0
C898 C 0.18882 0.68165 0.36332 0.0
C899 C 0.22576 0.71034 0.39658 0.0
H900 H 0.14401 0.6162 0.35039 0.0
C901 C 0.24686 0.69454 0.44165 0.0
H902 H 0.17215 0.69286 0.32805 0.0
C903 C 0.23245 0.65119 0.45244 0.0
C904 C 0.196 0.62262 0.41914 0.0
H905 H 0.27533 0.71584 0.46809 0.0
H906 H 0.24866 0.6399 0.48817 0.0
C907 C 0.17362 0.63796 0.37506 0.0
C908 C 0.49706 0.20636 0.53731 0.0
C909 C 0.45324 0.19545 0.55227 0.0
H910 H 0.54558 0.18487 0.52308 0.0
C911 C 0.42263 0.15248 0.55959 0.0
H912 H 0.52077 0.2389 0.52831 0.0
C913 C 0.43654 0.12131 0.55417 0.0
C914 C 0.48126 0.1328 0.54241 0.0
H915 H 0.3884 0.14287 0.57038 0.0
H916 H 0.41328 0.08847 0.56164 0.0
C917 C 0.51102 0.17538 0.5329 0.0
C918 C 0.72492 0.84744 0.68883 0.0
C919 C 0.76107 0.86198 0.7312 0.0
H920 H 0.67608 0.86179 0.63168 0.0
C921 C 0.77443 0.90175 0.7504 0.0
H922 H 0.71363 0.81651 0.67403 0.0
C923 C 0.75407 0.92778 0.72551 0.0
C924 C 0.71922 0.91415 0.6817 0.0
H925 H 0.80209 0.91356 0.78319 0.0
H926 H 0.7665 0.95907 0.73975 0.0
C927 C 0.70339 0.87314 0.66491 0.0
C928 C 0.77842 0.18205 0.44024 0.0
C929 C 0.75609 0.20475 0.40826 0.0
H930 H 0.77178 0.12753 0.49275 0.0
C931 C 0.70826 0.19049 0.40966 0.0
H932 H 0.81509 0.1921 0.4409 0.0
C933 C 0.68308 0.15302 0.44007 0.0
C934 C 0.70539 0.12925 0.46924 0.0
H935 H 0.68997 0.20737 0.38574 0.0
H936 H 0.64606 0.14151 0.4383 0.0
C937 C 0.75348 0.14496 0.47022 0.0
C938 C 0.89453 0.67925 0.38979 0.0
C939 C 0.9172 0.7228 0.37134 0.0
H940 H 0.89758 0.6202 0.42239 0.0
C941 C 0.96643 0.73789 0.37709 0.0
H942 H 0.85726 0.66469 0.38759 0.0
C943 C 0.99053 0.71186 0.39973 0.0
C944 C 0.96749 0.66798 0.41704 0.0
H945 H 0.98702 0.77066 0.36483 0.0
H946 H 1.02783 0.72638 0.40268 0.0
C947 C 0.91838 0.65301 0.4105 0.0
C948 C 0.39707 0.92311 0.44373 0.0
C949 C 0.40448 0.89117 0.4248 0.0
H950 H 0.4261 0.97891 0.48818 0.0
C951 C 0.44851 0.89154 0.4377 0.0
H952 H 0.36396 0.92431 0.43411 0.0
C953 C 0.48404 0.92283 0.4688 0.0
C954 C 0.4763 0.95427 0.48824 0.0
H955 H 0.45578 0.86775 0.4235 0.0
H956 H 0.5174 0.9221 0.47826 0.0
C957 C 0.43261 0.9543 0.47499 0.0
C958 C 0.24306 0.39289 0.35483 0.0
C959 C 0.28258 0.38674 0.38008 0.0
H960 H 0.19214 0.41681 0.35546 0.0
C961 C 0.29918 0.40516 0.43199 0.0
H962 H 0.22731 0.38036 0.31563 0.0
C963 C 0.27836 0.42736 0.45594 0.0
C964 C 0.23844 0.43311 0.4305 0.0
H965 H 0.32898 0.40232 0.45511 0.0
H966 H 0.29371 0.43965 0.49533 0.0
C967 C 0.22221 0.41461 0.37876 0.0
C968 C 0.45462 0.13065 0.69492 0.0
C969 C 0.4828 0.1745 0.68795 0.0
H970 H 0.44937 0.0677 0.69509 0.0
C971 C 0.52804 0.18785 0.67588 0.0
H972 H 0.4197 0.11895 0.70459 0.0
C973 C 0.54516 0.15865 0.67278 0.0
C974 C 0.5171 0.1152 0.67953 0.0
H975 H 0.55033 0.22093 0.66764 0.0
H976 H 0.58022 0.17013 0.66349 0.0
C977 C 0.47148 0.10119 0.68984 0.0
C978 C 0.92126 0.38535 0.6511 0.0
C979 C 0.93506 0.37103 0.70319 0.0
H980 H 0.94003 0.42943 0.58154 0.0
C981 C 0.98302 0.39042 0.72154 0.0
H982 H 0.88515 0.37192 0.63473 0.0
C983 C 1.01517 0.42371 0.69004 0.0
C984 C 1.00073 0.43876 0.63872 0.0
H985 H 0.99564 0.38094 0.76127 0.0
H986 H 1.05098 0.43909 0.70715 0.0
C987 C 0.95315 0.41842 0.61997 0.0
C988 C 0.24302 0.67052 0.67088 0.0
C989 C 0.28775 0.67774 0.69624 0.0
H990 H 0.18267 0.63324 0.61862 0.0
C991 C 0.3055 0.65023 0.68372 0.0
H992 H 0.22745 0.69038 0.67868 0.0
C993 C 0.27948 0.61696 0.64799 0.0
C994 C 0.23425 0.60932 0.62364 0.0
H995 H 0.33962 0.65419 0.70188 0.0
H996 H 0.2945 0.59655 0.64056 0.0
C997 C 0.21701 0.63723 0.63592 0.0
loop_
_geom_bond_atom_site_label_1
_geom_bond_atom_site_label_2
_geom_bond_distance
_geom_bond_site_symmetry_2
_ccdc_geom_bond_type
Tb0 C9 2.764 . S
Tb0 O10 2.325 . S
Tb0 O13 2.303 . S
Tb0 O17 2.322 . S
Tb0 O18 2.349 . S
Tb0 O21 2.415 . S
Tb0 O22 2.399 . S
Tb1 O11 2.322 . S
Tb1 O12 2.349 . S
Tb1 O14 2.415 . S
Tb1 O15 2.399 . S
Tb1 O16 2.325 . S
Tb1 O19 2.303 . S
Tb1 C30 2.764 . S
C2 O18 1.261 . S
C2 O19 1.257 . S
C3 C6 1.358 . S
C3 C7 1.332 . S
C3 C9 1.504 . S
C4 C5 1.373 . S
C4 C8 1.308 . S
C5 C4 1.373 . S
C5 C6 1.429 . S
C5 H32 0.932 . S
C6 C3 1.358 . S
C6 C5 1.429 . S
C6 H33 0.930 . S
C7 C3 1.332 . S
C7 C8 1.394 . S
C7 H34 0.932 . S
C8 C4 1.308 . S
C8 C7 1.394 . S
C8 H35 0.929 . S
C9 Tb0 2.764 . S
C9 C3 1.504 . S
C9 O21 1.239 . S
C9 O22 1.263 . S
O10 Tb0 2.325 . S
O10 C20 1.236 . S
O11 Tb1 2.322 . S
O11 C20 1.257 . S
O12 Tb1 2.349 . S
O12 C23 1.261 . S
O13 Tb0 2.303 . S
O13 C23 1.257 . S
O14 Tb1 2.415 . S
O14 C30 1.239 . S
O15 Tb1 2.399 . S
O15 C30 1.263 . S
O16 Tb1 2.325 . S
O16 C31 1.236 . S
O17 Tb0 2.322 . S
O17 C31 1.257 . S
O18 Tb0 2.349 . S
O18 C2 1.261 . S
O19 Tb1 2.303 . S
O19 C2 1.257 . S
C20 O10 1.236 . S
C20 O11 1.257 . S
O21 Tb0 2.415 . S
O21 C9 1.239 . S
O22 Tb0 2.399 . S
O22 C9 1.263 . S
C23 O12 1.261 . S
C23 O13 1.257 . S
C24 C27 1.358 . S
C24 C28 1.332 . S
C24 C30 1.504 . S
C25 C26 1.373 . S
C25 C29 1.308 . S
C26 C25 1.373 . S
C26 C27 1.429 . S
C26 H36 0.932 . S
C27 C24 1.358 . S
C27 C26 1.429 . S
C27 H37 0.930 . S
C28 C24 1.332 . S
C28 C29 1.394 . S
C28 H38 0.932 . S
C29 C25 1.308 . S
C29 C28 1.394 . S
C29 H39 0.929 . S
C30 Tb1 2.764 . S
C30 O14 1.239 . S
C30 O15 1.263 . S
C30 C24 1.504 . S
C31 O16 1.236 . S
C31 O17 1.257 . S
H32 C5 0.932 . S
H33 C6 0.930 . S
H34 C7 0.932 . S
H35 C8 0.929 . S
H36 C26 0.932 . S
H37 C27 0.930 . S
H38 C28 0.932 . S
H39 C29 0.929 . S
Tb40 C49 2.764 . S
Tb40 O50 2.325 . S
Tb40 O53 2.303 . S
Tb40 O57 2.322 . S
Tb40 O58 2.349 . S
Tb40 O61 2.415 . S
Tb40 O62 2.399 . S
Tb41 O51 2.322 . S
Tb41 O52 2.349 . S
Tb41 O54 2.415 . S
Tb41 O55 2.399 . S
Tb41 O56 2.325 . S
Tb41 O59 2.303 . S
Tb41 C70 2.764 . S
C42 O58 1.261 . S
C42 O59 1.257 . S
C43 C46 1.358 . S
C43 C47 1.332 . S
C43 C49 1.504 . S
C44 C45 1.373 . S
C44 C48 1.308 . S
C45 C44 1.373 . S
C45 C46 1.429 . S
C45 H72 0.932 . S
C46 C43 1.358 . S
C46 C45 1.429 . S
C46 H73 0.930 . S
C47 C43 1.332 . S
C47 C48 1.394 . S
C47 H74 0.932 . S
C48 C44 1.308 . S
C48 C47 1.394 . S
C48 H75 0.929 . S
C49 Tb40 2.764 . S
C49 C43 1.504 . S
C49 O61 1.239 . S
C49 O62 1.263 . S
O50 Tb40 2.325 . S
O50 C60 1.236 . S
O51 Tb41 2.322 . S
O51 C60 1.257 . S
O52 Tb41 2.349 . S
O52 C63 1.261 . S
O53 Tb40 2.303 . S
O53 C63 1.257 . S
O54 Tb41 2.415 . S
O54 C70 1.239 . S
O55 Tb41 2.399 . S
O55 C70 1.263 . S
O56 Tb41 2.325 . S
O56 C71 1.236 . S
O57 Tb40 2.322 . S
O57 C71 1.257 . S
O58 Tb40 2.349 . S
O58 C42 1.261 . S
O59 Tb41 2.303 . S
O59 C42 1.257 . S
C60 O50 1.236 . S
C60 O51 1.257 . S
O61 Tb40 2.415 . S
O61 C49 1.239 . S
O62 Tb40 2.399 . S
O62 C49 1.263 . S
C63 O52 1.261 . S
C63 O53 1.257 . S
C64 C67 1.358 . S
C64 C68 1.332 . S
C64 C70 1.504 . S
C65 C66 1.373 . S
C65 C69 1.308 . S
C66 C65 1.373 . S
C66 C67 1.429 . S
C66 H76 0.932 . S
C67 C64 1.358 . S
C67 C66 1.429 . S
C67 H77 0.930 . S
C68 C64 1.332 . S
C68 C69 1.394 . S
C68 H78 0.932 . S
C69 C65 1.308 . S
C69 C68 1.394 . S
C69 H79 0.929 . S
C70 Tb41 2.764 . S
C70 O54 1.239 . S
C70 O55 1.263 . S
C70 C64 1.504 . S
C71 O56 1.236 . S
C71 O57 1.257 . S
H72 C45 0.932 . S
H73 C46 0.930 . S
H74 C47 0.932 . S
H75 C48 0.929 . S
H76 C66 0.932 . S
H77 C67 0.930 . S
H78 C68 0.932 . S
H79 C69 0.929 . S
Tb80 C89 2.764 . S
Tb80 O90 2.325 . S
Tb80 O93 2.303 . S
Tb80 O97 2.322 . S
Tb80 O98 2.349 . S
Tb80 O101 2.415 . S
Tb80 O102 2.399 . S
Tb81 O91 2.322 . S
Tb81 O92 2.349 . S
Tb81 O94 2.415 . S
Tb81 O95 2.399 . S
Tb81 O96 2.325 . S
Tb81 O99 2.303 . S
Tb81 C110 2.764 . S
C82 O98 1.261 . S
C82 O99 1.257 . S
C83 C86 1.358 . S
C83 C87 1.332 . S
C83 C89 1.504 . S
C84 C85 1.373 . S
C84 C88 1.308 . S
C85 C84 1.373 . S
C85 C86 1.429 . S
C85 H112 0.932 . S
C86 C83 1.358 . S
C86 C85 1.429 . S
C86 H113 0.930 . S
C87 C83 1.332 . S
C87 C88 1.394 . S
C87 H114 0.932 . S
C88 C84 1.308 . S
C88 C87 1.394 . S
C88 H115 0.929 . S
C89 Tb80 2.764 . S
C89 C83 1.504 . S
C89 O101 1.239 . S
C89 O102 1.263 . S
O90 Tb80 2.325 . S
O90 C100 1.236 . S
O91 Tb81 2.322 . S
O91 C100 1.257 . S
O92 Tb81 2.349 . S
O92 C103 1.261 . S
O93 Tb80 2.303 . S
O93 C103 1.257 . S
O94 Tb81 2.415 . S
O94 C110 1.239 . S
O95 Tb81 2.399 . S
O95 C110 1.263 . S
O96 Tb81 2.325 . S
O96 C111 1.236 . S
O97 Tb80 2.322 . S
O97 C111 1.257 . S
O98 Tb80 2.349 . S
O98 C82 1.261 . S
O99 Tb81 2.303 . S
O99 C82 1.257 . S
C100 O90 1.236 . S
C100 O91 1.257 . S
O101 Tb80 2.415 . S
O101 C89 1.239 . S
O102 Tb80 2.399 . S
O102 C89 1.263 . S
C103 O92 1.261 . S
C103 O93 1.257 . S
C104 C107 1.358 . S
C104 C108 1.332 . S
C104 C110 1.504 . S
C105 C106 1.373 . S
C105 C109 1.308 . S
C106 C105 1.373 . S
C106 C107 1.429 . S
C106 H116 0.932 . S
C107 C104 1.358 . S
C107 C106 1.429 . S
C107 H117 0.930 . S
C108 C104 1.332 . S
C108 C109 1.394 . S
C108 H118 0.932 . S
C109 C105 1.308 . S
C109 C108 1.394 . S
C109 H119 0.929 . S
C110 Tb81 2.764 . S
C110 O94 1.239 . S
C110 O95 1.263 . S
C110 C104 1.504 . S
C111 O96 1.236 . S
C111 O97 1.257 . S
H112 C85 0.932 . S
H113 C86 0.930 . S
H114 C87 0.932 . S
H115 C88 0.929 . S
H116 C106 0.932 . S
H117 C107 0.930 . S
H118 C108 0.932 . S
H119 C109 0.929 . S
Tb120 C129 2.764 . S
Tb120 O130 2.325 . S
Tb120 O133 2.303 . S
Tb120 O137 2.322 . S
Tb120 O138 2.349 . S
Tb120 O141 2.415 . S
Tb120 O142 2.399 . S
Tb121 O131 2.322 . S
Tb121 O132 2.349 . S
Tb121 O134 2.415 . S
Tb121 O135 2.399 . S
Tb121 O136 2.325 . S
Tb121 O139 2.303 . S
Tb121 C150 2.764 . S
C122 O138 1.261 . S
C122 O139 1.257 . S
C123 C126 1.358 . S
C123 C127 1.332 . S
C123 C129 1.504 . S
C124 C125 1.373 . S
C124 C128 1.308 . S
C125 C124 1.373 . S
C125 C126 1.429 . S
C125 H152 0.932 . S
C126 C123 1.358 . S
C126 C125 1.429 . S
C126 H153 0.930 . S
C127 C123 1.332 . S
C127 C128 1.394 . S
C127 H154 0.932 . S
C128 C124 1.308 . S
C128 C127 1.394 . S
C128 H155 0.929 . S
C129 Tb120 2.764 . S
C129 C123 1.504 . S
C129 O141 1.239 . S
C129 O142 1.263 . S
O130 Tb120 2.325 . S
O130 C140 1.236 . S
O131 Tb121 2.322 . S
O131 C140 1.257 . S
O132 Tb121 2.349 . S
O132 C143 1.261 . S
O133 Tb120 2.303 . S
O133 C143 1.257 . S
O134 Tb121 2.415 . S
O134 C150 1.239 . S
O135 Tb121 2.399 . S
O135 C150 1.263 . S
O136 Tb121 2.325 . S
O136 C151 1.236 . S
O137 Tb120 2.322 . S
O137 C151 1.257 . S
O138 Tb120 2.349 . S
O138 C122 1.261 . S
O139 Tb121 2.303 . S
O139 C122 1.257 . S
C140 O130 1.236 . S
C140 O131 1.257 . S
O141 Tb120 2.415 . S
O141 C129 1.239 . S
O142 Tb120 2.399 . S
O142 C129 1.263 . S
C143 O132 1.261 . S
C143 O133 1.257 . S
C144 C147 1.358 . S
C144 C148 1.332 . S
C144 C150 1.504 . S
C145 C146 1.373 . S
C145 C149 1.308 . S
C146 C145 1.373 . S
C146 C147 1.429 . S
C146 H156 0.932 . S
C147 C144 1.358 . S
C147 C146 1.429 . S
C147 H157 0.930 . S
C148 C144 1.332 . S
C148 C149 1.394 . S
C148 H158 0.932 . S
C149 C145 1.308 . S
C149 C148 1.394 . S
C149 H159 0.929 . S
C150 Tb121 2.764 . S
C150 O134 1.239 . S
C150 O135 1.263 . S
C150 C144 1.504 . S
C151 O136 1.236 . S
C151 O137 1.257 . S
H152 C125 0.932 . S
H153 C126 0.930 . S
H154 C127 0.932 . S
H155 C128 0.929 . S
H156 C146 0.932 . S
H157 C147 0.930 . S
H158 C148 0.932 . S
H159 C149 0.929 . S
Tb160 C169 2.764 . S
Tb160 O170 2.325 . S
Tb160 O173 2.303 . S
Tb160 O177 2.322 . S
Tb160 O178 2.349 . S
Tb160 O181 2.415 . S
Tb160 O182 2.399 . S
Tb161 O171 2.322 . S
Tb161 O172 2.349 . S
Tb161 O174 2.415 . S
Tb161 O175 2.399 . S
Tb161 O176 2.325 . S
Tb161 O179 2.303 . S
Tb161 C190 2.764 . S
C162 O178 1.261 . S
C162 O179 1.257 . S
C163 C166 1.358 . S
C163 C167 1.332 . S
C163 C169 1.504 . S
C164 C165 1.373 . S
C164 C168 1.308 . S
C165 C164 1.373 . S
C165 C166 1.429 . S
C165 H192 0.932 . S
C166 C163 1.358 . S
C166 C165 1.429 . S
C166 H193 0.930 . S
C167 C163 1.332 . S
C167 C168 1.394 . S
C167 H194 0.932 . S
C168 C164 1.308 . S
C168 C167 1.394 . S
C168 H195 0.929 . S
C169 Tb160 2.764 . S
C169 C163 1.504 . S
C169 O181 1.239 . S
C169 O182 1.263 . S
O170 Tb160 2.325 . S
O170 C180 1.236 . S
O171 Tb161 2.322 . S
O171 C180 1.257 . S
O172 Tb161 2.349 . S
O172 C183 1.261 . S
O173 Tb160 2.303 . S
O173 C183 1.257 . S
O174 Tb161 2.415 . S
O174 C190 1.239 . S
O175 Tb161 2.399 . S
O175 C190 1.263 . S
O176 Tb161 2.325 . S
O176 C191 1.236 . S
O177 Tb160 2.322 . S
O177 C191 1.257 . S
O178 Tb160 2.349 . S
O178 C162 1.261 . S
O179 Tb161 2.303 . S
O179 C162 1.257 . S
C180 O170 1.236 . S
C180 O171 1.257 . S
O181 Tb160 2.415 . S
O181 C169 1.239 . S
O182 Tb160 2.399 . S
O182 C169 1.263 . S
C183 O172 1.261 . S
C183 O173 1.257 . S
C184 C187 1.358 . S
C184 C188 1.332 . S
C184 C190 1.504 . S
C185 C186 1.373 . S
C185 C189 1.308 . S
C186 C185 1.373 . S
C186 C187 1.429 . S
C186 H196 0.932 . S
C187 C184 1.358 . S
C187 C186 1.429 . S
C187 H197 0.930 . S
C188 C184 1.332 . S
C188 C189 1.394 . S
C188 H198 0.932 . S
C189 C185 1.308 . S
C189 C188 1.394 . S
C189 H199 0.929 1_556 S
C190 Tb161 2.764 . S
C190 O174 1.239 . S
C190 O175 1.263 . S
C190 C184 1.504 . S
C191 O176 1.236 . S
C191 O177 1.257 . S
H192 C165 0.932 . S
H193 C166 0.930 . S
H194 C167 0.932 . S
H195 C168 0.929 . S
H196 C186 0.932 . S
H197 C187 0.930 . S
H198 C188 0.932 . S
H199 C189 0.929 1_554 S
Tb200 C209 2.764 . S
Tb200 O210 2.325 . S
Tb200 O213 2.303 . S
Tb200 O217 2.322 . S
Tb200 O218 2.349 . S
Tb200 O221 2.415 . S
Tb200 O222 2.399 . S
Tb201 O211 2.322 . S
Tb201 O212 2.349 . S
Tb201 O214 2.415 . S
Tb201 O215 2.399 . S
Tb201 O216 2.325 . S
Tb201 O219 2.303 . S
Tb201 C230 2.764 . S
C202 O218 1.261 . S
C202 O219 1.257 . S
C203 C206 1.358 . S
C203 C207 1.332 . S
C203 C209 1.504 . S
C204 C205 1.373 . S
C204 C208 1.308 . S
C205 C204 1.373 . S
C205 C206 1.429 . S
C205 H232 0.932 . S
C206 C203 1.358 . S
C206 C205 1.429 . S
C206 H233 0.930 . S
C207 C203 1.332 . S
C207 C208 1.394 . S
C207 H234 0.932 . S
C208 C204 1.308 . S
C208 C207 1.394 . S
C208 H235 0.929 . S
C209 Tb200 2.764 . S
C209 C203 1.504 . S
C209 O221 1.239 . S
C209 O222 1.263 . S
O210 Tb200 2.325 . S
O210 C220 1.236 . S
O211 Tb201 2.322 . S
O211 C220 1.257 . S
O212 Tb201 2.349 . S
O212 C223 1.261 . S
O213 Tb200 2.303 . S
O213 C223 1.257 . S
O214 Tb201 2.415 . S
O214 C230 1.239 . S
O215 Tb201 2.399 . S
O215 C230 1.263 . S
O216 Tb201 2.325 . S
O216 C231 1.236 . S
O217 Tb200 2.322 . S
O217 C231 1.257 . S
O218 Tb200 2.349 . S
O218 C202 1.261 . S
O219 Tb201 2.303 . S
O219 C202 1.257 . S
C220 O210 1.236 . S
C220 O211 1.257 . S
O221 Tb200 2.415 . S
O221 C209 1.239 . S
O222 Tb200 2.399 . S
O222 C209 1.263 . S
C223 O212 1.261 . S
C223 O213 1.257 . S
C224 C227 1.358 . S
C224 C228 1.332 . S
C224 C230 1.504 . S
C225 C226 1.373 . S
C225 C229 1.308 . S
C226 C225 1.373 . S
C226 C227 1.429 . S
C226 H236 0.932 . S
C227 C224 1.358 . S
C227 C226 1.429 . S
C227 H237 0.930 . S
C228 C224 1.332 . S
C228 C229 1.394 . S
C228 H238 0.932 . S
C229 C225 1.308 . S
C229 C228 1.394 . S
C229 H239 0.929 . S
C230 Tb201 2.764 . S
C230 O214 1.239 . S
C230 O215 1.263 . S
C230 C224 1.504 . S
C231 O216 1.236 . S
C231 O217 1.257 . S
H232 C205 0.932 . S
H233 C206 0.930 . S
H234 C207 0.932 . S
H235 C208 0.929 . S
H236 C226 0.932 . S
H237 C227 0.930 . S
H238 C228 0.932 . S
H239 C229 0.929 . S
Tb240 C249 2.764 . S
Tb240 O250 2.325 . S
Tb240 O253 2.303 . S
Tb240 O257 2.322 . S
Tb240 O258 2.349 . S
Tb240 O261 2.415 . S
Tb240 O262 2.399 . S
Tb241 O251 2.322 . S
Tb241 O252 2.349 . S
Tb241 O254 2.415 . S
Tb241 O255 2.399 . S
Tb241 O256 2.325 . S
Tb241 O259 2.303 . S
Tb241 C270 2.764 . S
C242 O258 1.261 . S
C242 O259 1.257 . S
C243 C246 1.358 . S
C243 C247 1.332 . S
C243 C249 1.504 . S
C244 C245 1.373 . S
C244 C248 1.308 . S
C245 C244 1.373 . S
C245 C246 1.429 . S
C245 H272 0.932 . S
C246 C243 1.358 . S
C246 C245 1.429 . S
C246 H273 0.930 . S
C247 C243 1.332 . S
C247 C248 1.394 . S
C247 H274 0.932 . S
C248 C244 1.308 . S
C248 C247 1.394 . S
C248 H275 0.929 . S
C249 Tb240 2.764 . S
C249 C243 1.504 . S
C249 O261 1.239 . S
C249 O262 1.263 . S
O250 Tb240 2.325 . S
O250 C260 1.236 . S
O251 Tb241 2.322 . S
O251 C260 1.257 . S
O252 Tb241 2.349 . S
O252 C263 1.261 . S
O253 Tb240 2.303 . S
O253 C263 1.257 . S
O254 Tb241 2.415 . S
O254 C270 1.239 . S
O255 Tb241 2.399 . S
O255 C270 1.263 . S
O256 Tb241 2.325 . S
O256 C271 1.236 . S
O257 Tb240 2.322 . S
O257 C271 1.257 . S
O258 Tb240 2.349 . S
O258 C242 1.261 . S
O259 Tb241 2.303 . S
O259 C242 1.257 . S
C260 O250 1.236 . S
C260 O251 1.257 . S
O261 Tb240 2.415 . S
O261 C249 1.239 . S
O262 Tb240 2.399 . S
O262 C249 1.263 . S
C263 O252 1.261 . S
C263 O253 1.257 . S
C264 C267 1.358 . S
C264 C268 1.332 . S
C264 C270 1.504 . S
C265 C266 1.373 . S
C265 C269 1.308 . S
C266 C265 1.373 . S
C266 C267 1.429 . S
C266 H276 0.932 . S
C267 C264 1.358 . S
C267 C266 1.429 . S
C267 H277 0.930 . S
C268 C264 1.332 . S
C268 C269 1.394 . S
C268 H278 0.932 . S
C269 C265 1.308 . S
C269 C268 1.394 . S
C269 H279 0.929 . S
C270 Tb241 2.764 . S
C270 O254 1.239 . S
C270 O255 1.263 . S
C270 C264 1.504 . S
C271 O256 1.236 . S
C271 O257 1.257 . S
H272 C245 0.932 . S
H273 C246 0.930 . S
H274 C247 0.932 . S
H275 C248 0.929 . S
H276 C266 0.932 . S
H277 C267 0.930 . S
H278 C268 0.932 . S
H279 C269 0.929 . S
Tb280 C289 2.764 . S
Tb280 O290 2.325 . S
Tb280 O293 2.303 . S
Tb280 O297 2.322 . S
Tb280 O298 2.349 . S
Tb280 O301 2.415 . S
Tb280 O302 2.399 . S
Tb281 O291 2.322 . S
Tb281 O292 2.349 . S
Tb281 O294 2.415 . S
Tb281 O295 2.399 . S
Tb281 O296 2.325 . S
Tb281 O299 2.303 . S
Tb281 C310 2.764 . S
C282 O298 1.261 . S
C282 O299 1.257 . S
C283 C286 1.358 . S
C283 C287 1.332 . S
C283 C289 1.504 . S
C284 C285 1.373 . S
C284 C288 1.308 . S
C285 C284 1.373 . S
C285 C286 1.429 . S
C285 H312 0.932 . S
C286 C283 1.358 . S
C286 C285 1.429 . S
C286 H313 0.930 . S
C287 C283 1.332 . S
C287 C288 1.394 . S
C287 H314 0.932 . S
C288 C284 1.308 . S
C288 C287 1.394 . S
C288 H315 0.929 . S
C289 Tb280 2.764 . S
C289 C283 1.504 . S
C289 O301 1.239 . S
C289 O302 1.263 . S
O290 Tb280 2.325 . S
O290 C300 1.236 . S
O291 Tb281 2.322 . S
O291 C300 1.257 . S
O292 Tb281 2.349 . S
O292 C303 1.261 . S
O293 Tb280 2.303 . S
O293 C303 1.257 . S
O294 Tb281 2.415 . S
O294 C310 1.239 . S
O295 Tb281 2.399 . S
O295 C310 1.263 . S
O296 Tb281 2.325 . S
O296 C311 1.236 . S
O297 Tb280 2.322 . S
O297 C311 1.257 . S
O298 Tb280 2.349 . S
O298 C282 1.261 . S
O299 Tb281 2.303 . S
O299 C282 1.257 . S
C300 O290 1.236 . S
C300 O291 1.257 . S
O301 Tb280 2.415 . S
O301 C289 1.239 . S
O302 Tb280 2.399 . S
O302 C289 1.263 . S
C303 O292 1.261 . S
C303 O293 1.257 . S
C304 C307 1.358 . S
C304 C308 1.332 . S
C304 C310 1.504 . S
C305 C306 1.373 . S
C305 C309 1.308 . S
C306 C305 1.373 . S
C306 C307 1.429 . S
C306 H316 0.932 . S
C307 C304 1.358 . S
C307 C306 1.429 . S
C307 H317 0.930 . S
C308 C304 1.332 . S
C308 C309 1.394 . S
C308 H318 0.932 . S
C309 C305 1.308 . S
C309 C308 1.394 . S
C309 H319 0.929 . S
C310 Tb281 2.764 . S
C310 O294 1.239 . S
C310 O295 1.263 . S
C310 C304 1.504 . S
C311 O296 1.236 . S
C311 O297 1.257 . S
H312 C285 0.932 . S
H313 C286 0.930 . S
H314 C287 0.932 . S
H315 C288 0.929 . S
H316 C306 0.932 . S
H317 C307 0.930 . S
H318 C308 0.932 . S
H319 C309 0.929 . S
Co320 O323 2.042 . S
Co320 O330 2.264 . S
Co320 O349 2.286 . S
Co320 O350 2.069 . S
Co320 O352 2.015 1_455 S
Co321 O323 2.122 . S
Co321 O329 2.073 . S
Co321 O330 2.327 . S
Co321 O331 1.976 1_455 S
Co322 O323 2.087 1_545 S
Co322 O325 2.087 1_455 S
Co322 O332 2.111 1_445 S
Co322 O333 2.143 . S
Co322 O337 2.111 . S
Co322 O351 2.143 1_445 S
O323 Co320 2.042 . S
O323 Co321 2.122 . S
O323 Co322 2.087 1_565 S
O323 H324 0.980 1_565 S
H324 O323 0.980 1_545 S
O325 Co322 2.087 1_655 S
O325 Co326 2.038 . S
O325 Co327 2.122 . S
O325 H328 0.980 . S
Co326 O325 2.038 . S
Co326 O334 2.294 . S
Co326 O335 2.083 . S
Co326 O336 2.002 1_655 S
Co326 O339 2.269 . S
Co327 O325 2.122 . S
Co327 O338 1.976 1_655 S
Co327 O339 2.327 . S
Co327 O340 2.073 . S
H328 O325 0.980 . S
O329 Co321 2.073 . S
O329 C344 1.245 . S
O330 Co320 2.264 . S
O330 Co321 2.327 . S
O330 C344 1.257 . S
O331 Co321 1.976 1_655 S
O331 C343 1.251 . S
O332 Co322 2.111 1_665 S
O332 C343 1.274 . S
O333 Co322 2.143 . S
O333 C346 1.246 . S
O334 Co326 2.294 . S
O334 C345 1.259 . S
O335 Co326 2.083 . S
O335 C345 1.289 . S
O336 Co326 2.002 1_455 S
O336 C346 1.257 . S
O337 Co322 2.111 . S
O337 C347 1.274 . S
O338 Co327 1.976 1_455 S
O338 C347 1.251 . S
O339 Co326 2.269 . S
O339 Co327 2.327 . S
O339 C348 1.257 . S
O340 Co327 2.073 . S
O340 C348 1.245 . S
C341 O349 1.259 . S
C341 O350 1.289 . S
C342 O351 1.246 . S
C342 O352 1.257 . S
C343 O331 1.251 . S
C343 O332 1.274 . S
C344 O329 1.245 . S
C344 O330 1.257 . S
C345 O334 1.259 . S
C345 O335 1.289 . S
C346 O333 1.246 . S
C346 O336 1.257 . S
C347 O337 1.274 . S
C347 O338 1.251 . S
C348 O339 1.257 . S
C348 O340 1.245 . S
O349 Co320 2.286 . S
O349 C341 1.259 . S
O350 Co320 2.069 . S
O350 C341 1.289 . S
O351 Co322 2.143 1_665 S
O351 C342 1.246 . S
O352 Co320 2.015 1_655 S
O352 C342 1.257 . S
Co353 O356 2.042 1_565 S
Co353 O363 2.264 . S
Co353 O382 2.286 1_554 S
Co353 O383 2.069 . S
Co353 O385 2.015 . S
Co354 O356 2.122 1_565 S
Co354 O362 2.073 . S
Co354 O363 2.327 . S
Co354 O364 1.976 . S
Co355 O356 2.087 . S
Co355 O358 2.087 . S
Co355 O365 2.111 1_545 S
Co355 O366 2.143 . S
Co355 O370 2.111 . S
Co355 O384 2.143 1_545 S
O356 Co353 2.042 1_545 S
O356 Co354 2.122 1_545 S
O356 Co355 2.087 . S
O356 H357 0.980 . S
H357 O356 0.980 . S
O358 Co355 2.087 . S
O358 Co359 2.042 . S
O358 Co360 2.122 1_554 S
O358 H361 0.980 . S
Co359 O358 2.042 . S
Co359 O367 2.286 . S
Co359 O368 2.069 . S
Co359 O369 2.015 . S
Co359 O372 2.264 . S
Co360 O358 2.122 1_556 S
Co360 O371 1.976 . S
Co360 O372 2.327 1_556 S
Co360 O373 2.073 . S
H361 O358 0.980 . S
O362 Co354 2.073 . S
O362 C377 1.245 . S
O363 Co353 2.264 . S
O363 Co354 2.327 . S
O363 C377 1.257 . S
O364 Co354 1.976 . S
O364 C376 1.251 . S
O365 Co355 2.111 1_565 S
O365 C376 1.274 . S
O366 Co355 2.143 . S
O366 C379 1.246 . S
O367 Co359 2.286 . S
O367 C378 1.259 . S
O368 Co359 2.069 . S
O368 C378 1.289 . S
O369 Co359 2.015 . S
O369 C379 1.257 . S
O370 Co355 2.111 . S
O370 C380 1.274 . S
O371 Co360 1.976 . S
O371 C380 1.251 1_556 S
O372 Co359 2.264 . S
O372 Co360 2.327 1_554 S
O372 C381 1.257 1_554 S
O373 Co360 2.073 . S
O373 C381 1.245 . S
C374 O382 1.259 1_554 S
C374 O383 1.289 . S
C375 O384 1.246 . S
C375 O385 1.257 . S
C376 O364 1.251 . S
C376 O365 1.274 . S
C377 O362 1.245 . S
C377 O363 1.257 . S
C378 O367 1.259 . S
C378 O368 1.289 . S
C379 O366 1.246 . S
C379 O369 1.257 . S
C380 O370 1.274 . S
C380 O371 1.251 1_554 S
C381 O372 1.257 1_556 S
C381 O373 1.245 . S
O382 Co353 2.286 1_556 S
O382 C374 1.259 1_556 S
O383 Co353 2.069 . S
O383 C374 1.289 . S
O384 Co355 2.143 1_565 S
O384 C375 1.246 . S
O385 Co353 2.015 . S
O385 C375 1.257 . S
Co386 O389 2.042 1_556 S
Co386 O396 2.264 1_556 S
Co386 O415 2.286 . S
Co386 O416 2.069 . S
Co386 O418 2.015 1_455 S
Co387 O389 2.122 . S
Co387 O395 2.073 . S
Co387 O396 2.327 . S
Co387 O397 1.976 1_455 S
Co388 O389 2.087 . S
Co388 O391 2.087 1_454 S
Co388 O398 2.111 1_455 S
Co388 O399 2.143 . S
Co388 O403 2.111 1_554 S
Co388 O417 2.143 1_454 S
O389 Co386 2.042 1_554 S
O389 Co387 2.122 . S
O389 Co388 2.087 . S
O389 H390 0.980 . S
H390 O389 0.980 . S
O391 Co388 2.087 1_656 S
O391 Co392 2.042 1_556 S
O391 Co393 2.122 . S
O391 H394 0.980 . S
Co392 O391 2.042 1_554 S
Co392 O400 2.286 . S
Co392 O401 2.069 . S
Co392 O402 2.015 1_655 S
Co392 O405 2.264 1_554 S
Co393 O391 2.122 . S
Co393 O404 1.976 1_655 S
Co393 O405 2.327 . S
Co393 O406 2.073 . S
H394 O391 0.980 . S
O395 Co387 2.073 . S
O395 C410 1.245 . S
O396 Co386 2.264 1_554 S
O396 Co387 2.327 . S
O396 C410 1.257 . S
O397 Co387 1.976 1_655 S
O397 C409 1.251 . S
O398 Co388 2.111 1_655 S
O398 C409 1.274 . S
O399 Co388 2.143 . S
O399 C412 1.246 . S
O400 Co392 2.286 . S
O400 C411 1.259 . S
O401 Co392 2.069 . S
O401 C411 1.289 . S
O402 Co392 2.015 1_455 S
O402 C412 1.257 . S
O403 Co388 2.111 1_556 S
O403 C413 1.274 . S
O404 Co393 1.976 1_455 S
O404 C413 1.251 . S
O405 Co392 2.264 1_556 S
O405 Co393 2.327 . S
O405 C414 1.257 . S
O406 Co393 2.073 . S
O406 C414 1.245 . S
C407 O415 1.259 . S
C407 O416 1.289 . S
C408 O417 1.246 . S
C408 O418 1.257 . S
C409 O397 1.251 . S
C409 O398 1.274 . S
C410 O395 1.245 . S
C410 O396 1.257 . S
C411 O400 1.259 . S
C411 O401 1.289 . S
C412 O399 1.246 . S
C412 O402 1.257 . S
C413 O403 1.274 . S
C413 O404 1.251 . S
C414 O405 1.257 . S
C414 O406 1.245 . S
O415 Co386 2.286 . S
O415 C407 1.259 . S
O416 Co386 2.069 . S
O416 C407 1.289 . S
O417 Co388 2.143 1_656 S
O417 C408 1.246 . S
O418 Co386 2.015 1_655 S
O418 C408 1.257 . S
Co419 O422 2.042 . S
Co419 O429 2.264 . S
Co419 O448 2.286 1_554 S
Co419 O449 2.069 . S
Co419 O451 2.015 . S
Co420 O422 2.122 . S
Co420 O428 2.073 . S
Co420 O429 2.327 . S
Co420 O430 1.976 . S
Co421 O422 2.087 . S
Co421 O424 2.087 . S
Co421 O431 2.111 . S
Co421 O432 2.143 . S
Co421 O436 2.111 1_554 S
Co421 O450 2.143 1_554 S
O422 Co419 2.042 . S
O422 Co420 2.122 . S
O422 Co421 2.087 . S
O422 H423 0.980 . S
H423 O422 0.980 . S
O424 Co421 2.087 . S
O424 Co425 2.042 . S
O424 Co426 2.122 1_554 S
O424 H427 0.980 . S
Co425 O424 2.042 . S
Co425 O433 2.286 . S
Co425 O434 2.069 . S
Co425 O435 2.015 . S
Co425 O438 2.264 1_554 S
Co426 O424 2.122 1_556 S
Co426 O437 1.976 . S
Co426 O438 2.327 . S
Co426 O439 2.073 . S
H427 O424 0.980 . S
O428 Co420 2.073 . S
O428 C443 1.245 . S
O429 Co419 2.264 . S
O429 Co420 2.327 . S
O429 C443 1.257 . S
O430 Co420 1.976 . S
O430 C442 1.251 . S
O431 Co421 2.111 . S
O431 C442 1.274 . S
O432 Co421 2.143 . S
O432 C445 1.246 . S
O433 Co425 2.286 . S
O433 C444 1.259 . S
O434 Co425 2.069 . S
O434 C444 1.289 . S
O435 Co425 2.015 . S
O435 C445 1.257 . S
O436 Co421 2.111 1_556 S
O436 C446 1.274 . S
O437 Co426 1.976 . S
O437 C446 1.251 . S
O438 Co425 2.264 1_556 S
O438 Co426 2.327 . S
O438 C447 1.257 . S
O439 Co426 2.073 . S
O439 C447 1.245 . S
C440 O448 1.259 . S
C440 O449 1.289 1_556 S
C441 O450 1.246 . S
C441 O451 1.257 1_556 S
C442 O430 1.251 . S
C442 O431 1.274 . S
C443 O428 1.245 . S
C443 O429 1.257 . S
C444 O433 1.259 . S
C444 O434 1.289 . S
C445 O432 1.246 . S
C445 O435 1.257 . S
C446 O436 1.274 . S
C446 O437 1.251 . S
C447 O438 1.257 . S
C447 O439 1.245 . S
O448 Co419 2.286 1_556 S
O448 C440 1.259 . S
O449 Co419 2.069 . S
O449 C440 1.289 1_554 S
O450 Co421 2.143 1_556 S
O450 C441 1.246 . S
O451 Co419 2.015 . S
O451 C441 1.257 1_554 S
Co452 O455 2.042 . S
Co452 O462 2.264 . S
Co452 O481 2.286 . S
Co452 O482 2.069 . S
Co452 O484 2.015 . S
Co453 O455 2.122 . S
Co453 O461 2.073 . S
Co453 O462 2.327 . S
Co453 O463 1.976 . S
Co454 O455 2.087 . S
Co454 O457 2.087 . S
Co454 O464 2.111 . S
Co454 O465 2.143 1_455 S
Co454 O469 2.111 . S
Co454 O483 2.143 . S
O455 Co452 2.042 . S
O455 Co453 2.122 . S
O455 Co454 2.087 . S
O455 H456 0.980 . S
H456 O455 0.980 . S
O457 Co454 2.087 . S
O457 Co458 2.042 1_455 S
O457 Co459 2.122 1_455 S
O457 H460 0.980 . S
Co458 O457 2.042 1_655 S
Co458 O466 2.286 . S
Co458 O467 2.069 . S
Co458 O468 2.015 . S
Co458 O471 2.264 . S
Co459 O457 2.122 1_655 S
Co459 O470 1.976 . S
Co459 O471 2.327 . S
Co459 O472 2.073 . S
H460 O457 0.980 . S
O461 Co453 2.073 . S
O461 C476 1.245 . S
O462 Co452 2.264 . S
O462 Co453 2.327 . S
O462 C476 1.257 . S
O463 Co453 1.976 . S
O463 C475 1.251 . S
O464 Co454 2.111 . S
O464 C475 1.274 . S
O465 Co454 2.143 1_655 S
O465 C478 1.246 . S
O466 Co458 2.286 . S
O466 C477 1.259 . S
O467 Co458 2.069 . S
O467 C477 1.289 . S
O468 Co458 2.015 . S
O468 C478 1.257 . S
O469 Co454 2.111 . S
O469 C479 1.274 1_455 S
O470 Co459 1.976 . S
O470 C479 1.251 . S
O471 Co458 2.264 . S
O471 Co459 2.327 . S
O471 C480 1.257 . S
O472 Co459 2.073 . S
O472 C480 1.245 . S
C473 O481 1.259 . S
C473 O482 1.289 . S
C474 O483 1.246 . S
C474 O484 1.257 . S
C475 O463 1.251 . S
C475 O464 1.274 . S
C476 O461 1.245 . S
C476 O462 1.257 . S
C477 O466 1.259 . S
C477 O467 1.289 . S
C478 O465 1.246 . S
C478 O468 1.257 . S
C479 O469 1.274 1_655 S
C479 O470 1.251 . S
C480 O471 1.257 . S
C480 O472 1.245 . S
O481 Co452 2.286 . S
O481 C473 1.259 . S
O482 Co452 2.069 . S
O482 C473 1.289 . S
O483 Co454 2.143 . S
O483 C474 1.246 . S
O484 Co452 2.015 . S
O484 C474 1.257 . S
Co485 O488 2.042 . S
Co485 O495 2.264 . S
Co485 O514 2.286 . S
Co485 O515 2.069 . S
Co485 O517 2.015 1_565 S
Co486 O488 2.122 1_545 S
Co486 O494 2.073 1_545 S
Co486 O495 2.327 1_545 S
Co486 O496 1.976 . S
Co487 O488 2.087 1_545 S
Co487 O490 2.087 . S
Co487 O497 2.111 . S
Co487 O498 2.143 1_545 S
Co487 O502 2.111 1_545 S
Co487 O516 2.143 . S
O488 Co485 2.042 . S
O488 Co486 2.122 1_565 S
O488 Co487 2.087 1_565 S
O488 H489 0.980 . S
H489 O488 0.980 . S
O490 Co487 2.087 . S
O490 Co491 2.042 . S
O490 Co492 2.122 . S
O490 H493 0.980 . S
Co491 O490 2.042 . S
Co491 O499 2.286 . S
Co491 O500 2.069 . S
Co491 O501 2.015 1_545 S
Co491 O504 2.264 . S
Co492 O490 2.122 . S
Co492 O503 1.976 1_545 S
Co492 O504 2.327 . S
Co492 O505 2.073 . S
H493 O490 0.980 . S
O494 Co486 2.073 1_565 S
O494 C509 1.245 . S
O495 Co485 2.264 . S
O495 Co486 2.327 1_565 S
O495 C509 1.257 . S
O496 Co486 1.976 . S
O496 C508 1.251 . S
O497 Co487 2.111 . S
O497 C508 1.274 . S
O498 Co487 2.143 1_565 S
O498 C511 1.246 . S
O499 Co491 2.286 . S
O499 C510 1.259 . S
O500 Co491 2.069 . S
O500 C510 1.289 . S
O501 Co491 2.015 1_565 S
O501 C511 1.257 . S
O502 Co487 2.111 1_565 S
O502 C512 1.274 . S
O503 Co492 1.976 1_565 S
O503 C512 1.251 . S
O504 Co491 2.264 . S
O504 Co492 2.327 . S
O504 C513 1.257 . S
O505 Co492 2.073 . S
O505 C513 1.245 . S
C506 O514 1.259 . S
C506 O515 1.289 . S
C507 O516 1.246 . S
C507 O517 1.257 . S
C508 O496 1.251 . S
C508 O497 1.274 . S
C509 O494 1.245 . S
C509 O495 1.257 . S
C510 O499 1.259 . S
C510 O500 1.289 . S
C511 O498 1.246 . S
C511 O501 1.257 . S
C512 O502 1.274 . S
C512 O503 1.251 . S
C513 O504 1.257 . S
C513 O505 1.245 . S
O514 Co485 2.286 . S
O514 C506 1.259 . S
O515 Co485 2.069 . S
O515 C506 1.289 . S
O516 Co487 2.143 . S
O516 C507 1.246 . S
O517 Co485 2.015 1_545 S
O517 C507 1.257 . S
C518 C519 1.387 . S
C518 H522 0.950 . S
C518 C527 1.390 . S
C519 C518 1.387 . S
C519 C521 1.387 . S
H520 C527 0.950 . S
C521 C519 1.387 . S
C521 C523 1.390 . S
C521 H525 0.950 . S
H522 C518 0.950 . S
C523 C521 1.390 . S
C523 C524 1.387 . S
C523 H526 0.950 . S
C524 C523 1.387 . S
C524 C527 1.387 . S
H525 C521 0.950 . S
H526 C523 0.950 . S
C527 C518 1.390 . S
C527 H520 0.950 . S
C527 C524 1.387 . S
C528 C529 1.387 . S
C528 H532 0.950 . S
C528 C537 1.390 . S
C529 C528 1.387 . S
C529 C531 1.387 . S
H530 C537 0.950 . S
C531 C529 1.387 . S
C531 C533 1.390 . S
C531 H535 0.950 . S
H532 C528 0.950 . S
C533 C531 1.390 . S
C533 C534 1.387 . S
C533 H536 0.950 . S
C534 C533 1.387 . S
C534 C537 1.387 . S
H535 C531 0.950 . S
H536 C533 0.950 . S
C537 C528 1.390 . S
C537 H530 0.950 . S
C537 C534 1.387 . S
C538 C539 1.387 . S
C538 H542 0.950 . S
C538 C547 1.390 . S
C539 C538 1.387 . S
C539 C541 1.387 . S
H540 C547 0.950 . S
C541 C539 1.387 . S
C541 C543 1.390 . S
C541 H545 0.950 . S
H542 C538 0.950 . S
C543 C541 1.390 . S
C543 C544 1.387 . S
C543 H546 0.950 . S
C544 C543 1.387 . S
C544 C547 1.387 . S
H545 C541 0.950 . S
H546 C543 0.950 . S
C547 C538 1.390 . S
C547 H540 0.950 . S
C547 C544 1.387 . S
C548 C549 1.387 . S
C548 H552 0.950 . S
C548 C557 1.390 . S
C549 C548 1.387 . S
C549 C551 1.387 . S
H550 C557 0.950 . S
C551 C549 1.387 . S
C551 C553 1.390 . S
C551 H555 0.950 . S
H552 C548 0.950 . S
C553 C551 1.390 . S
C553 C554 1.387 . S
C553 H556 0.950 . S
C554 C553 1.387 . S
C554 C557 1.387 . S
H555 C551 0.950 . S
H556 C553 0.950 . S
C557 C548 1.390 . S
C557 H550 0.950 . S
C557 C554 1.387 . S
C558 C559 1.387 . S
C558 H562 0.950 . S
C558 C567 1.390 . S
C559 C558 1.387 . S
C559 C561 1.387 . S
H560 C567 0.950 . S
C561 C559 1.387 . S
C561 C563 1.390 . S
C561 H565 0.950 . S
H562 C558 0.950 . S
C563 C561 1.390 . S
C563 C564 1.387 . S
C563 H566 0.950 . S
C564 C563 1.387 . S
C564 C567 1.387 . S
H565 C561 0.950 . S
H566 C563 0.950 . S
C567 C558 1.390 . S
C567 H560 0.950 . S
C567 C564 1.387 . S
C568 C569 1.387 . S
C568 H572 0.950 . S
C568 C577 1.390 . S
C569 C568 1.387 . S
C569 C571 1.387 . S
H570 C577 0.950 . S
C571 C569 1.387 . S
C571 C573 1.390 . S
C571 H575 0.950 . S
H572 C568 0.950 . S
C573 C571 1.390 . S
C573 C574 1.387 . S
C573 H576 0.950 . S
C574 C573 1.387 . S
C574 C577 1.387 . S
H575 C571 0.950 . S
H576 C573 0.950 . S
C577 C568 1.390 . S
C577 H570 0.950 . S
C577 C574 1.387 . S
C578 C579 1.387 . S
C578 H582 0.950 . S
C578 C587 1.390 . S
C579 C578 1.387 . S
C579 C581 1.387 . S
H580 C587 0.950 . S
C581 C579 1.387 . S
C581 C583 1.390 . S
C581 H585 0.950 . S
H582 C578 0.950 . S
C583 C581 1.390 . S
C583 C584 1.387 . S
C583 H586 0.950 . S
C584 C583 1.387 . S
C584 C587 1.387 . S
H585 C581 0.950 . S
H586 C583 0.950 . S
C587 C578 1.390 . S
C587 H580 0.950 . S
C587 C584 1.387 . S
C588 C589 1.387 . S
C588 H592 0.950 . S
C588 C597 1.390 . S
C589 C588 1.387 . S
C589 C591 1.387 . S
H590 C597 0.950 . S
C591 C589 1.387 . S
C591 C593 1.390 . S
C591 H595 0.950 . S
H592 C588 0.950 . S
C593 C591 1.390 . S
C593 C594 1.387 . S
C593 H596 0.950 . S
C594 C593 1.387 . S
C594 C597 1.387 . S
H595 C591 0.950 . S
H596 C593 0.950 . S
C597 C588 1.390 . S
C597 H590 0.950 . S
C597 C594 1.387 . S
C598 C599 1.387 . S
C598 H602 0.950 . S
C598 C607 1.390 . S
C599 C598 1.387 . S
C599 C601 1.387 . S
H600 C607 0.950 . S
C601 C599 1.387 . S
C601 C603 1.390 . S
C601 H605 0.950 . S
H602 C598 0.950 . S
C603 C601 1.390 . S
C603 C604 1.387 . S
C603 H606 0.950 . S
C604 C603 1.387 . S
C604 C607 1.387 . S
H605 C601 0.950 . S
H606 C603 0.950 . S
C607 C598 1.390 . S
C607 H600 0.950 . S
C607 C604 1.387 . S
C608 C609 1.387 . S
C608 H612 0.950 . S
C608 C617 1.390 . S
C609 C608 1.387 . S
C609 C611 1.387 . S
H610 C617 0.950 . S
C611 C609 1.387 . S
C611 C613 1.390 . S
C611 H615 0.950 . S
H612 C608 0.950 . S
C613 C611 1.390 . S
C613 C614 1.387 . S
C613 H616 0.950 . S
C614 C613 1.387 . S
C614 C617 1.387 . S
H615 C611 0.950 . S
H616 C613 0.950 . S
C617 C608 1.390 . S
C617 H610 0.950 . S
C617 C614 1.387 . S
C618 C619 1.387 . S
C618 H622 0.950 . S
C618 C627 1.390 . S
C619 C618 1.387 . S
C619 C621 1.387 . S
H620 C627 0.950 . S
C621 C619 1.387 . S
C621 C623 1.390 . S
C621 H625 0.950 . S
H622 C618 0.950 . S
C623 C621 1.390 . S
C623 C624 1.387 . S
C623 H626 0.950 . S
C624 C623 1.387 . S
C624 C627 1.387 . S
H625 C621 0.950 . S
H626 C623 0.950 . S
C627 C618 1.390 . S
C627 H620 0.950 . S
C627 C624 1.387 . S
C628 C629 1.387 . S
C628 H632 0.950 . S
C628 C637 1.390 . S
C629 C628 1.387 . S
C629 C631 1.387 . S
H630 C637 0.950 . S
C631 C629 1.387 . S
C631 C633 1.390 . S
C631 H635 0.950 . S
H632 C628 0.950 . S
C633 C631 1.390 . S
C633 C634 1.387 . S
C633 H636 0.950 . S
C634 C633 1.387 . S
C634 C637 1.387 . S
H635 C631 0.950 . S
H636 C633 0.950 . S
C637 C628 1.390 . S
C637 H630 0.950 . S
C637 C634 1.387 . S
C638 C639 1.387 . S
C638 H642 0.950 . S
C638 C647 1.390 . S
C639 C638 1.387 . S
C639 C641 1.387 . S
H640 C647 0.950 . S
C641 C639 1.387 . S
C641 C643 1.390 . S
C641 H645 0.950 . S
H642 C638 0.950 . S
C643 C641 1.390 . S
C643 C644 1.387 . S
C643 H646 0.950 . S
C644 C643 1.387 . S
C644 C647 1.387 . S
H645 C641 0.950 . S
H646 C643 0.950 . S
C647 C638 1.390 . S
C647 H640 0.950 . S
C647 C644 1.387 . S
C648 C649 1.387 . S
C648 H652 0.950 . S
C648 C657 1.390 . S
C649 C648 1.387 . S
C649 C651 1.387 . S
H650 C657 0.950 . S
C651 C649 1.387 . S
C651 C653 1.390 . S
C651 H655 0.950 1_556 S
H652 C648 0.950 . S
C653 C651 1.390 . S
C653 C654 1.387 . S
C653 H656 0.950 1_556 S
C654 C653 1.387 . S
C654 C657 1.387 . S
H655 C651 0.950 1_554 S
H656 C653 0.950 1_554 S
C657 C648 1.390 . S
C657 H650 0.950 . S
C657 C654 1.387 . S
C658 C659 1.387 . S
C658 H662 0.950 . S
C658 C667 1.390 . S
C659 C658 1.387 . S
C659 C661 1.387 . S
H660 C667 0.950 . S
C661 C659 1.387 . S
C661 C663 1.390 1_556 S
C661 H665 0.950 1_556 S
H662 C658 0.950 . S
C663 C661 1.390 1_554 S
C663 C664 1.387 1_554 S
C663 H666 0.950 . S
C664 C663 1.387 1_556 S
C664 C667 1.387 . S
H665 C661 0.950 1_554 S
H666 C663 0.950 . S
C667 C658 1.390 . S
C667 H660 0.950 . S
C667 C664 1.387 . S
C668 C669 1.387 . S
C668 H672 0.950 . S
C668 C677 1.390 . S
C669 C668 1.387 . S
C669 C671 1.387 . S
H670 C677 0.950 . S
C671 C669 1.387 . S
C671 C673 1.390 . S
C671 H675 0.950 . S
H672 C668 0.950 . S
C673 C671 1.390 . S
C673 C674 1.387 . S
C673 H676 0.950 . S
C674 C673 1.387 . S
C674 C677 1.387 . S
H675 C671 0.950 . S
H676 C673 0.950 . S
C677 C668 1.390 . S
C677 H670 0.950 . S
C677 C674 1.387 . S
C678 C679 1.387 . S
C678 H682 0.950 . S
C678 C687 1.390 . S
C679 C678 1.387 . S
C679 C681 1.387 . S
H680 C687 0.950 . S
C681 C679 1.387 . S
C681 C683 1.390 . S
C681 H685 0.950 . S
H682 C678 0.950 . S
C683 C681 1.390 . S
C683 C684 1.387 . S
C683 H686 0.950 . S
C684 C683 1.387 . S
C684 C687 1.387 . S
H685 C681 0.950 . S
H686 C683 0.950 . S
C687 C678 1.390 . S
C687 H680 0.950 . S
C687 C684 1.387 . S
C688 C689 1.387 . S
C688 H692 0.950 . S
C688 C697 1.390 . S
C689 C688 1.387 . S
C689 C691 1.387 . S
H690 C697 0.950 . S
C691 C689 1.387 . S
C691 C693 1.390 . S
C691 H695 0.950 . S
H692 C688 0.950 . S
C693 C691 1.390 . S
C693 C694 1.387 . S
C693 H696 0.950 . S
C694 C693 1.387 . S
C694 C697 1.387 . S
H695 C691 0.950 . S
H696 C693 0.950 . S
C697 C688 1.390 . S
C697 H690 0.950 . S
C697 C694 1.387 . S
C698 C699 1.387 . S
C698 H702 0.950 . S
C698 C707 1.390 . S
C699 C698 1.387 . S
C699 C701 1.387 . S
H700 C707 0.950 . S
C701 C699 1.387 . S
C701 C703 1.390 . S
C701 H705 0.950 . S
H702 C698 0.950 . S
C703 C701 1.390 . S
C703 C704 1.387 . S
C703 H706 0.950 1_556 S
C704 C703 1.387 . S
C704 C707 1.387 . S
H705 C701 0.950 . S
H706 C703 0.950 1_554 S
C707 C698 1.390 . S
C707 H700 0.950 . S
C707 C704 1.387 . S
C708 C709 1.387 . S
C708 H712 0.950 . S
C708 C717 1.390 . S
C709 C708 1.387 . S
C709 C711 1.387 . S
H710 C717 0.950 1_554 S
C711 C709 1.387 . S
C711 C713 1.390 . S
C711 H715 0.950 . S
H712 C708 0.950 . S
C713 C711 1.390 . S
C713 C714 1.387 . S
C713 H716 0.950 . S
C714 C713 1.387 . S
C714 C717 1.387 . S
H715 C711 0.950 . S
H716 C713 0.950 . S
C717 C708 1.390 . S
C717 H710 0.950 1_556 S
C717 C714 1.387 . S
C718 C719 1.387 1_554 S
C718 H722 0.950 . S
C718 C727 1.390 . S
C719 C718 1.387 1_556 S
C719 C721 1.387 . S
H720 C727 0.950 . S
C721 C719 1.387 . S
C721 C723 1.390 . S
C721 H725 0.950 . S
H722 C718 0.950 . S
C723 C721 1.390 . S
C723 C724 1.387 . S
C723 H726 0.950 . S
C724 C723 1.387 . S
C724 C727 1.387 1_556 S
H725 C721 0.950 . S
H726 C723 0.950 . S
C727 C718 1.390 . S
C727 H720 0.950 . S
C727 C724 1.387 1_554 S
C728 C729 1.387 . S
C728 H732 0.950 1_655 S
C728 C737 1.390 . S
C729 C728 1.387 . S
C729 C731 1.387 . S
H730 C737 0.950 . S
C731 C729 1.387 . S
C731 C733 1.390 . S
C731 H735 0.950 . S
H732 C728 0.950 1_455 S
C733 C731 1.390 . S
C733 C734 1.387 . S
C733 H736 0.950 . S
C734 C733 1.387 . S
C734 C737 1.387 . S
H735 C731 0.950 . S
H736 C733 0.950 . S
C737 C728 1.390 . S
C737 H730 0.950 . S
C737 C734 1.387 . S
C738 C739 1.387 . S
C738 H742 0.950 . S
C738 C747 1.390 . S
C739 C738 1.387 . S
C739 C741 1.387 . S
H740 C747 0.950 . S
C741 C739 1.387 . S
C741 C743 1.390 . S
C741 H745 0.950 . S
H742 C738 0.950 . S
C743 C741 1.390 . S
C743 C744 1.387 . S
C743 H746 0.950 . S
C744 C743 1.387 . S
C744 C747 1.387 . S
H745 C741 0.950 . S
H746 C743 0.950 . S
C747 C738 1.390 . S
C747 H740 0.950 . S
C747 C744 1.387 . S
C748 C749 1.387 . S
C748 H752 0.950 . S
C748 C757 1.390 . S
C749 C748 1.387 . S
C749 C751 1.387 . S
H750 C757 0.950 . S
C751 C749 1.387 . S
C751 C753 1.390 . S
C751 H755 0.950 . S
H752 C748 0.950 . S
C753 C751 1.390 . S
C753 C754 1.387 . S
C753 H756 0.950 . S
C754 C753 1.387 . S
C754 C757 1.387 . S
H755 C751 0.950 . S
H756 C753 0.950 . S
C757 C748 1.390 . S
C757 H750 0.950 . S
C757 C754 1.387 . S
C758 C759 1.387 . S
C758 H762 0.950 . S
C758 C767 1.390 . S
C759 C758 1.387 . S
C759 C761 1.387 . S
H760 C767 0.950 . S
C761 C759 1.387 . S
C761 C763 1.390 . S
C761 H765 0.950 . S
H762 C758 0.950 . S
C763 C761 1.390 . S
C763 C764 1.387 . S
C763 H766 0.950 . S
C764 C763 1.387 . S
C764 C767 1.387 . S
H765 C761 0.950 . S
H766 C763 0.950 . S
C767 C758 1.390 . S
C767 H760 0.950 . S
C767 C764 1.387 . S
C768 C769 1.387 . S
C768 H772 0.950 . S
C768 C777 1.390 . S
C769 C768 1.387 . S
C769 C771 1.387 1_556 S
H770 C777 0.950 . S
C771 C769 1.387 1_554 S
C771 C773 1.390 . S
C771 H775 0.950 . S
H772 C768 0.950 . S
C773 C771 1.390 . S
C773 C774 1.387 1_554 S
C773 H776 0.950 . S
C774 C773 1.387 1_556 S
C774 C777 1.387 . S
H775 C771 0.950 . S
H776 C773 0.950 . S
C777 C768 1.390 . S
C777 H770 0.950 . S
C777 C774 1.387 . S
C778 C779 1.387 . S
C778 H782 0.950 . S
C778 C787 1.390 . S
C779 C778 1.387 . S
C779 C781 1.387 . S
H780 C787 0.950 . S
C781 C779 1.387 . S
C781 C783 1.390 . S
C781 H785 0.950 . S
H782 C778 0.950 . S
C783 C781 1.390 . S
C783 C784 1.387 . S
C783 H786 0.960 . S
C784 C783 1.387 . S
C784 C787 1.387 . S
H785 C781 0.950 . S
H786 C783 0.960 . S
C787 C778 1.390 . S
C787 H780 0.950 . S
C787 C784 1.387 . S
C788 C789 1.387 . S
C788 H792 0.950 . S
C788 C797 1.390 . S
C789 C788 1.387 . S
C789 C791 1.387 . S
H790 C797 0.950 . S
C791 C789 1.387 . S
C791 C793 1.390 . S
C791 H795 0.950 . S
H792 C788 0.950 . S
C793 C791 1.390 . S
C793 C794 1.387 . S
C793 H796 0.950 . S
C794 C793 1.387 . S
C794 C797 1.387 . S
H795 C791 0.950 . S
H796 C793 0.950 . S
C797 C788 1.390 . S
C797 H790 0.950 . S
C797 C794 1.387 . S
C798 C799 1.387 . S
C798 H802 0.950 . S
C798 C807 1.390 . S
C799 C798 1.387 . S
C799 C801 1.387 . S
H800 C807 0.950 . S
C801 C799 1.387 . S
C801 C803 1.390 . S
C801 H805 0.950 . S
H802 C798 0.950 . S
C803 C801 1.390 . S
C803 C804 1.387 . S
C803 H806 0.950 . S
C804 C803 1.387 . S
C804 C807 1.387 . S
H805 C801 0.950 . S
H806 C803 0.950 . S
C807 C798 1.390 . S
C807 H800 0.950 . S
C807 C804 1.387 . S
C808 C809 1.387 . S
C808 H812 0.950 . S
C808 C817 1.390 . S
C809 C808 1.387 . S
C809 C811 1.387 . S
H810 C817 0.950 . S
C811 C809 1.387 . S
C811 C813 1.390 . S
C811 H815 0.950 . S
H812 C808 0.950 . S
C813 C811 1.390 . S
C813 C814 1.387 . S
C813 H816 0.950 . S
C814 C813 1.387 . S
C814 C817 1.387 . S
H815 C811 0.950 . S
H816 C813 0.950 . S
C817 C808 1.390 . S
C817 H810 0.950 . S
C817 C814 1.387 . S
C818 C819 1.387 . S
C818 H822 0.950 . S
C818 C827 1.390 . S
C819 C818 1.387 . S
C819 C821 1.387 . S
H820 C827 0.950 . S
C821 C819 1.387 . S
C821 C823 1.390 . S
C821 H825 0.950 . S
H822 C818 0.950 . S
C823 C821 1.390 . S
C823 C824 1.387 . S
C823 H826 0.950 . S
C824 C823 1.387 . S
C824 C827 1.387 . S
H825 C821 0.950 . S
H826 C823 0.950 . S
C827 C818 1.390 . S
C827 H820 0.950 . S
C827 C824 1.387 . S
C828 C829 1.387 . S
C828 H832 0.950 . S
C828 C837 1.390 . S
C829 C828 1.387 . S
C829 C831 1.387 . S
H830 C837 0.950 . S
C831 C829 1.387 . S
C831 C833 1.390 . S
C831 H835 0.950 . S
H832 C828 0.950 . S
C833 C831 1.390 . S
C833 C834 1.387 . S
C833 H836 0.950 . S
C834 C833 1.387 . S
C834 C837 1.387 . S
H835 C831 0.950 . S
H836 C833 0.950 . S
C837 C828 1.390 . S
C837 H830 0.950 . S
C837 C834 1.387 . S
C838 C839 1.387 . S
C838 H842 0.950 . S
C838 C847 1.390 . S
C839 C838 1.387 . S
C839 C841 1.387 . S
H840 C847 0.950 . S
C841 C839 1.387 . S
C841 C843 1.390 . S
C841 H845 0.950 . S
H842 C838 0.950 . S
C843 C841 1.390 . S
C843 C844 1.387 . S
C843 H846 0.950 . S
C844 C843 1.387 . S
C844 C847 1.387 . S
H845 C841 0.950 . S
H846 C843 0.950 . S
C847 C838 1.390 . S
C847 H840 0.950 . S
C847 C844 1.387 . S
C848 C849 1.387 . S
C848 H852 0.950 . S
C848 C857 1.390 . S
C849 C848 1.387 . S
C849 C851 1.387 . S
H850 C857 0.950 . S
C851 C849 1.387 . S
C851 C853 1.390 . S
C851 H855 0.950 . S
H852 C848 0.950 . S
C853 C851 1.390 . S
C853 C854 1.387 . S
C853 H856 0.950 . S
C854 C853 1.387 . S
C854 C857 1.387 . S
H855 C851 0.950 . S
H856 C853 0.950 . S
C857 C848 1.390 . S
C857 H850 0.950 . S
C857 C854 1.387 . S
C858 C859 1.387 . S
C858 H862 0.950 . S
C858 C867 1.390 . S
C859 C858 1.387 . S
C859 C861 1.387 . S
H860 C867 0.950 . S
C861 C859 1.387 . S
C861 C863 1.390 . S
C861 H865 0.950 . S
H862 C858 0.950 . S
C863 C861 1.390 . S
C863 C864 1.387 . S
C863 H866 0.950 . S
C864 C863 1.387 . S
C864 C867 1.387 . S
H865 C861 0.950 . S
H866 C863 0.950 . S
C867 C858 1.390 . S
C867 H860 0.950 . S
C867 C864 1.387 . S
C868 C869 1.387 . S
C868 H872 0.950 . S
C868 C877 1.390 . S
C869 C868 1.387 . S
C869 C871 1.387 . S
H870 C877 0.950 . S
C871 C869 1.387 . S
C871 C873 1.390 . S
C871 H875 0.950 . S
H872 C868 0.950 . S
C873 C871 1.390 . S
C873 C874 1.387 . S
C873 H876 0.950 . S
C874 C873 1.387 . S
C874 C877 1.387 . S
H875 C871 0.950 . S
H876 C873 0.950 . S
C877 C868 1.390 . S
C877 H870 0.950 . S
C877 C874 1.387 . S
C878 C879 1.387 . S
C878 H882 0.950 . S
C878 C887 1.390 . S
C879 C878 1.387 . S
C879 C881 1.387 . S
H880 C887 0.950 . S
C881 C879 1.387 . S
C881 C883 1.390 . S
C881 H885 0.950 . S
H882 C878 0.950 . S
C883 C881 1.390 . S
C883 C884 1.387 . S
C883 H886 0.950 . S
C884 C883 1.387 . S
C884 C887 1.387 . S
H885 C881 0.950 . S
H886 C883 0.950 . S
C887 C878 1.390 . S
C887 H880 0.950 . S
C887 C884 1.387 . S
C888 C889 1.387 . S
C888 H892 0.950 . S
C888 C897 1.390 . S
C889 C888 1.387 . S
C889 C891 1.387 . S
H890 C897 0.950 . S
C891 C889 1.387 . S
C891 C893 1.390 . S
C891 H895 0.950 . S
H892 C888 0.950 . S
C893 C891 1.390 . S
C893 C894 1.387 . S
C893 H896 0.950 . S
C894 C893 1.387 . S
C894 C897 1.387 . S
H895 C891 0.950 . S
H896 C893 0.950 . S
C897 C888 1.390 . S
C897 H890 0.950 . S
C897 C894 1.387 . S
C898 C899 1.387 . S
C898 H902 0.950 . S
C898 C907 1.390 . S
C899 C898 1.387 . S
C899 C901 1.387 . S
H900 C907 0.950 . S
C901 C899 1.387 . S
C901 C903 1.390 . S
C901 H905 0.950 . S
H902 C898 0.950 . S
C903 C901 1.390 . S
C903 C904 1.387 . S
C903 H906 0.950 . S
C904 C903 1.387 . S
C904 C907 1.387 . S
H905 C901 0.950 . S
H906 C903 0.950 . S
C907 C898 1.390 . S
C907 H900 0.950 . S
C907 C904 1.387 . S
C908 C909 1.387 . S
C908 H912 0.950 . S
C908 C917 1.390 . S
C909 C908 1.387 . S
C909 C911 1.387 . S
H910 C917 0.950 . S
C911 C909 1.387 . S
C911 C913 1.390 . S
C911 H915 0.950 . S
H912 C908 0.950 . S
C913 C911 1.390 . S
C913 C914 1.387 . S
C913 H916 0.950 . S
C914 C913 1.387 . S
C914 C917 1.387 . S
H915 C911 0.950 . S
H916 C913 0.950 . S
C917 C908 1.390 . S
C917 H910 0.950 . S
C917 C914 1.387 . S
C918 C919 1.387 . S
C918 H922 0.950 . S
C918 C927 1.390 . S
C919 C918 1.387 . S
C919 C921 1.387 . S
H920 C927 0.950 . S
C921 C919 1.387 . S
C921 C923 1.390 . S
C921 H925 0.950 . S
H922 C918 0.950 . S
C923 C921 1.390 . S
C923 C924 1.387 . S
C923 H926 0.950 . S
C924 C923 1.387 . S
C924 C927 1.387 . S
H925 C921 0.950 . S
H926 C923 0.950 . S
C927 C918 1.390 . S
C927 H920 0.950 . S
C927 C924 1.387 . S
C928 C929 1.387 . S
C928 H932 0.950 . S
C928 C937 1.390 . S
C929 C928 1.387 . S
C929 C931 1.387 . S
H930 C937 0.950 . S
C931 C929 1.387 . S
C931 C933 1.390 . S
C931 H935 0.950 . S
H932 C928 0.950 . S
C933 C931 1.390 . S
C933 C934 1.387 . S
C933 H936 0.950 . S
C934 C933 1.387 . S
C934 C937 1.387 . S
H935 C931 0.950 . S
H936 C933 0.950 . S
C937 C928 1.390 . S
C937 H930 0.950 . S
C937 C934 1.387 . S
C938 C939 1.387 . S
C938 H942 0.950 . S
C938 C947 1.390 . S
C939 C938 1.387 . S
C939 C941 1.387 . S
H940 C947 0.950 . S
C941 C939 1.387 . S
C941 C943 1.390 . S
C941 H945 0.950 . S
H942 C938 0.950 . S
C943 C941 1.390 . S
C943 C944 1.387 . S
C943 H946 0.950 . S
C944 C943 1.387 . S
C944 C947 1.387 . S
H945 C941 0.950 . S
H946 C943 0.950 . S
C947 C938 1.390 . S
C947 H940 0.950 . S
C947 C944 1.387 . S
C948 C949 1.387 . S
C948 H952 0.950 . S
C948 C957 1.390 . S
C949 C948 1.387 . S
C949 C951 1.387 . S
H950 C957 0.950 . S
C951 C949 1.387 . S
C951 C953 1.390 . S
C951 H955 0.950 . S
H952 C948 0.950 . S
C953 C951 1.390 . S
C953 C954 1.387 . S
C953 H956 0.950 . S
C954 C953 1.387 . S
C954 C957 1.387 . S
H955 C951 0.950 . S
H956 C953 0.950 . S
C957 C948 1.390 . S
C957 H950 0.950 . S
C957 C954 1.387 . S
C958 C959 1.387 . S
C958 H962 0.950 . S
C958 C967 1.390 . S
C959 C958 1.387 . S
C959 C961 1.387 . S
H960 C967 0.950 . S
C961 C959 1.387 . S
C961 C963 1.390 . S
C961 H965 0.950 . S
H962 C958 0.950 . S
C963 C961 1.390 . S
C963 C964 1.387 . S
C963 H966 0.950 . S
C964 C963 1.387 . S
C964 C967 1.387 . S
H965 C961 0.950 . S
H966 C963 0.950 . S
C967 C958 1.390 . S
C967 H960 0.950 . S
C967 C964 1.387 . S
C968 C969 1.387 . S
C968 H972 0.950 . S
C968 C977 1.390 . S
C969 C968 1.387 . S
C969 C971 1.387 . S
H970 C977 0.950 . S
C971 C969 1.387 . S
C971 C973 1.390 . S
C971 H975 0.950 . S
H972 C968 0.950 . S
C973 C971 1.390 . S
C973 C974 1.387 . S
C973 H976 0.950 . S
C974 C973 1.387 . S
C974 C977 1.387 . S
H975 C971 0.950 . S
H976 C973 0.950 . S
C977 C968 1.390 . S
C977 H970 0.950 . S
C977 C974 1.387 . S
C978 C979 1.387 . S
C978 H982 0.950 . S
C978 C987 1.390 . S
C979 C978 1.387 . S
C979 C981 1.387 . S
H980 C987 0.950 . S
C981 C979 1.387 . S
C981 C983 1.390 . S
C981 H985 0.950 . S
H982 C978 0.950 . S
C983 C981 1.390 . S
C983 C984 1.387 . S
C983 H986 0.950 . S
C984 C983 1.387 . S
C984 C987 1.387 . S
H985 C981 0.950 . S
H986 C983 0.950 . S
C987 C978 1.390 . S
C987 H980 0.950 . S
C987 C984 1.387 . S
C988 C989 1.387 . S
C988 H992 0.950 . S
C988 C997 1.390 . S
C989 C988 1.387 . S
C989 C991 1.387 . S
H990 C997 0.950 . S
C991 C989 1.387 . S
C991 C993 1.390 . S
C991 H995 0.950 . S
H992 C988 0.950 . S
C993 C991 1.390 . S
C993 C994 1.387 . S
C993 H996 0.950 . S
C994 C993 1.387 . S
C994 C997 1.387 . S
H995 C991 0.950 . S
H996 C993 0.950 . S
C997 C988 1.390 . S
C997 H990 0.950 . S
C997 C994 1.387 . S
C524 C347 1.367 . S
C519 C2 1.544 . S
C534 C348 0.543 . S
C529 C65 0.531 . S
C544 C342 1.391 . S
C539 C82 1.455 . S
C549 C145 0.601 . S
C554 C341 0.585 . S
C559 C164 0.736 . S
C564 C344 0.730 . S
C574 C346 1.389 . S
C569 C223 1.451 . S
C579 C244 0.961 . S
C584 C345 0.989 . S
C589 C282 1.551 . S
C594 C343 1.422 . S
C604 C378 3.319 . S
C599 C31 3.258 . S
C609 C60 1.962 . S
C614 C409 1.806 . S
C624 C377 3.490 . S
C619 C111 3.486 . S
C634 C412 1.611 . S
C629 C140 1.617 . S
C639 C162 1.850 . S
C644 C375 1.794 1_556 S
C654 C407 1.506 . S
C649 C225 1.474 . S
C659 C242 1.753 . S
C664 C380 1.698 1_556 S
C669 C311 2.420 . S
C674 C414 2.398 . S
C679 C4 1.081 . S
C684 C410 1.096 . S
C689 C191 1.439 . S
C694 C413 1.486 . S
C704 C381 2.793 . S
C699 C220 2.840 . S
C714 C408 1.126 . S
C709 C271 1.167 . S
C719 C284 1.648 . S
C724 C374 1.744 1_556 S
C729 C84 0.967 . S
C734 C411 0.968 . S
C744 C376 1.092 . S
C739 C143 1.108 . S
C749 C63 1.477 . S
C754 C379 1.481 . S
C759 C303 1.512 . S
C764 C446 1.335 . S
C769 C185 0.565 . S
C774 C447 0.397 . S
C784 C441 1.517 . S
C779 C202 1.600 . S
C794 C440 1.105 . S
C789 C265 1.081 . S
C799 C44 0.495 . S
C804 C443 0.579 . S
C814 C445 1.609 . S
C809 C103 1.691 . S
C819 C124 0.892 . S
C824 C444 0.900 . S
C829 C23 1.523 . S
C834 C442 1.403 . S
C839 C305 1.713 . S
C844 C480 1.732 . S
C854 C512 1.038 . S
C849 C180 1.047 . S
C859 C231 2.720 . S
C864 C473 2.728 . S
C869 C260 1.547 . S
C874 C507 1.586 . S
C884 C478 1.270 . S
C879 C42 1.219 . S
C889 C105 1.248 . S
C894 C509 1.293 . S
C904 C475 1.426 . S
C899 C122 1.402 . S
C914 C510 1.224 . S
C909 C25 1.126 . S
C924 C506 2.498 . S
C919 C300 2.380 . S
C929 C71 1.675 . S
C934 C508 1.604 . S
C939 C100 3.372 . S
C944 C477 3.388 . S
C954 C511 1.886 . S
C949 C151 1.939 . S
C959 C20 3.501 . S
C964 C476 3.425 . S
C969 C204 1.708 . S
C974 C513 1.821 . S
C984 C479 1.784 . S
C979 C263 1.928 . S
C994 C474 1.786 . S
C989 C183 1.664 . S
