# Generated by pormake.
# Topology anh, (6,3)-cn, num edge types: 1
# Building blocks:
#     Node 0, Type 0, BuildingBlock: VOLQOD_clean_sbu_1, # of connection points: 6
#     Node 1, Type 0, BuildingBlock: VOLQOD_clean_sbu_1, # of connection points: 6
#     Node 2, Type 0, BuildingBlock: VOLQOD_clean_sbu_1, # of connection points: 6
#     Node 3, Type 1, BuildingBlock: OLANEW_clean_sbu_2, # of connection points: 3
#     Node 4, Type 1, BuildingBlock: OLANEW_clean_sbu_2, # of connection points: 3
#     Node 5, Type 1, BuildingBlock: OLANEW_clean_sbu_2, # of connection points: 3
#     Node 6, Type 1, BuildingBlock: OLANEW_clean_sbu_2, # of connection points: 3
#     Node 7, Type 1, BuildingBlock: OLANEW_clean_sbu_2, # of connection points: 3
#     Node 8, Type 1, BuildingBlock: OLANEW_clean_sbu_2, # of connection points: 3
#     Edge 9, Type (0, 1), BuildingBlock: OJICUG_clean_linker_0, # of connection points: 2
#     Edge 10, Type (0, 1), BuildingBlock: OJICUG_clean_linker_0, # of connection points: 2
#     Edge 11, Type (0, 1), BuildingBlock: OJICUG_clean_linker_0, # of connection points: 2
#     Edge 12, Type (0, 1), BuildingBlock: OJICUG_clean_linker_0, # of connection points: 2
#     Edge 13, Type (0, 1), BuildingBlock: OJICUG_clean_linker_0, # of connection points: 2
#     Edge 14, Type (0, 1), BuildingBlock: OJICUG_clean_linker_0, # of connection points: 2
#     Edge 15, Type (0, 1), BuildingBlock: OJICUG_clean_linker_0, # of connection points: 2
#     Edge 16, Type (0, 1), BuildingBlock: OJICUG_clean_linker_0, # of connection points: 2
#     Edge 17, Type (0, 1), BuildingBlock: OJICUG_clean_linker_0, # of connection points: 2
#     Edge 18, Type (0, 1), BuildingBlock: OJICUG_clean_linker_0, # of connection points: 2
#     Edge 19, Type (0, 1), BuildingBlock: OJICUG_clean_linker_0, # of connection points: 2
#     Edge 20, Type (0, 1), BuildingBlock: OJICUG_clean_linker_0, # of connection points: 2
#     Edge 21, Type (0, 1), BuildingBlock: OJICUG_clean_linker_0, # of connection points: 2
#     Edge 22, Type (0, 1), BuildingBlock: OJICUG_clean_linker_0, # of connection points: 2
#     Edge 23, Type (0, 1), BuildingBlock: OJICUG_clean_linker_0, # of connection points: 2
#     Edge 24, Type (0, 1), BuildingBlock: OJICUG_clean_linker_0, # of connection points: 2
#     Edge 25, Type (0, 1), BuildingBlock: OJICUG_clean_linker_0, # of connection points: 2
#     Edge 26, Type (0, 1), BuildingBlock: OJICUG_clean_linker_0, # of connection points: 2
# Relax obj value: 0.162
# Max RMSD: 0.206
# Mean RMSD: 0.139
data_MOF--net-anh--node1-VOLQOD_clean_sbu_1--node2-OLANEW_clean_sbu_2--edge1-OJICUG_clean_linker_0
_symmetry_space_group_name_H-M    P1
_symmetry_Int_Tables_number       1
_symmetry_cell_setting            triclinic
loop_
_symmetry_equiv_pos_as_xyz
'x, y, z'
_cell_length_a     25.083654
_cell_length_b     24.942781
_cell_length_c     45.583886
_cell_angle_alpha  90.71454
_cell_angle_beta   89.800295
_cell_angle_gamma 120.5038
loop_
_atom_site_label
_atom_site_type_symbol
_atom_site_fract_x
_atom_site_fract_y
_atom_site_fract_z
_atom_type_partial_charge
O0 O 0.9521 0.52387 0.20321 0.0
Zn1 Zn 0.95679 0.53352 0.15918 0.0
O2 O -0.0298 0.46988 0.141 0.0
Zn3 Zn 0.89924 0.41221 0.11782 0.0
Zn4 Zn -0.01608 0.42413 0.17161 0.0
Zn5 Zn 0.04032 0.50845 0.11487 0.0
O6 O 0.91949 0.4116 0.07524 0.0
O7 O 0.01527 0.49187 0.0721 0.0
O8 O 0.87649 0.52671 0.14522 0.0
O9 O 0.83634 0.43836 0.1195 0.0
O10 O 0.85596 0.32624 0.13424 0.0
O11 O 0.90601 0.33959 0.17629 0.0
O12 O 0.05898 0.41579 0.16256 0.0
O13 O 0.03147 0.61919 0.15252 0.0
O14 O 0.09479 0.47343 0.12238 0.0
O15 O 0.09149 0.60017 0.12352 0.0
C16 C -0.02446 0.50125 0.22033 0.0
C17 C -0.03381 0.44866 0.05999 0.0
C18 C 0.86086 0.30624 0.15902 0.0
C19 C 0.83233 0.48347 0.13028 0.0
C20 C 0.09784 0.43867 0.14166 0.0
C21 C 0.08222 0.63779 0.1388 0.0
O22 O -0.00334 0.46751 0.21073 0.0
O23 O 0.44684 0.00457 0.41447 0.0
Zn24 Zn 0.42626 0.00084 0.45765 0.0
O25 O 0.48376 -0.01511 0.47995 0.0
Zn26 Zn 0.53692 0.05652 0.50394 0.0
Zn27 Zn 0.53565 0.96747 0.45366 0.0
Zn28 Zn 0.43719 0.9156 0.50592 0.0
O29 O 0.53293 0.03639 0.5464 0.0
O30 O 0.45397 0.93948 0.54889 0.0
O31 O 0.43138 0.08269 0.47046 0.0
O32 O 0.51148 0.11947 0.50097 0.0
O33 O 0.6238 0.10009 0.48986 0.0
O34 O 0.62409 0.04109 0.45317 0.0
O35 O 0.53246 0.88606 0.46388 0.0
O36 O 0.33821 0.9274 0.46127 0.0
O37 O 0.45939 0.85104 0.49813 0.0
O38 O 0.34697 0.8722 0.49675 0.0
C39 C 0.47456 -0.01781 0.39972 0.0
C40 C 0.49589 -0.01088 0.56129 0.0
C41 C 0.65166 0.09042 0.46897 0.0
C42 C 0.47036 0.12533 0.48767 0.0
C43 C 0.49663 0.84413 0.48177 0.0
C44 C 0.31439 0.87994 0.47783 0.0
O45 O 0.50527 0.9608 0.41214 0.0
O46 O 0.41369 0.44301 0.75022 0.0
Zn47 Zn 0.39929 0.42656 0.79368 0.0
O48 O 0.47238 0.48907 0.81581 0.0
Zn49 Zn 0.44978 0.53726 0.84092 0.0
Zn50 Zn 0.53864 0.54542 0.78894 0.0
Zn51 Zn 0.50149 0.44742 0.84127 0.0
O52 O 0.46585 0.53265 0.88366 0.0
O53 O 0.49522 0.4626 0.88441 0.0
O54 O 0.32119 0.42814 0.80487 0.0
O55 O 0.36065 0.50814 0.8362 0.0
O56 O 0.49219 0.62549 0.82904 0.0
O57 O 0.55235 0.63323 0.79162 0.0
O58 O 0.61922 0.54692 0.79702 0.0
O59 O 0.38735 0.34052 0.79906 0.0
O60 O 0.58966 0.47678 0.83243 0.0
O61 O 0.45763 0.35631 0.83275 0.0
C62 C 0.46169 0.4772 0.73498 0.0
C63 C 0.48214 0.49958 0.89777 0.0
C64 C 0.52995 0.65728 0.80897 0.0
C65 C 0.31513 0.46581 0.82179 0.0
C66 C 0.63048 0.5152 0.81502 0.0
C67 C 0.41464 0.32028 0.81518 0.0
O68 O 0.51316 0.51596 0.74702 0.0
O69 O 0.4817 0.03088 0.25965 0.0
Cd70 Cd 0.49335 0.04487 0.2067 0.0
O71 O 0.44398 0.92964 0.2589 0.0
Cd72 Cd 0.4199 0.91838 0.21225 0.0
O73 O 0.34787 0.86349 0.1797 0.0
C74 C 0.29521 0.85864 0.18299 0.0
O75 O 0.28819 0.8908 0.20414 0.0
C76 C 0.46456 -0.01951 0.27316 0.0
C77 C 0.61908 0.11888 0.19364 0.0
O78 O 0.588 0.14232 0.2043 0.0
O79 O 0.5909 0.06015 0.18855 0.0
O80 O 0.48929 0.46788 0.59249 0.0
Cd81 Cd 0.48388 0.46332 0.53862 0.0
O82 O 0.40361 0.4711 0.59612 0.0
Cd83 Cd 0.40826 0.49667 0.55015 0.0
O84 O 0.42384 0.5689 0.51894 0.0
C85 C 0.47768 0.61411 0.5133 0.0
O86 O 0.52611 0.61456 0.52449 0.0
C87 C 0.44698 0.46711 0.60825 0.0
C88 C 0.47648 0.35443 0.51693 0.0
O89 O 0.52857 0.40399 0.52197 0.0
O90 O 0.42704 0.35618 0.52184 0.0
O91 O -0.01054 0.46748 0.91724 0.0
Cd92 Cd -0.01674 0.46339 0.86362 0.0
O93 O 0.89048 0.39954 0.92195 0.0
Cd94 Cd 0.87157 0.40802 0.87617 0.0
O95 O 0.82536 0.4352 0.84437 0.0
C96 C 0.83534 0.49055 0.84508 0.0
O97 O 0.87765 0.53124 0.86315 0.0
C98 C 0.94358 0.43321 0.93348 0.0
C99 C 0.08627 0.46165 0.84224 0.0
O100 O 0.08715 0.51282 0.84711 0.0
O101 O 0.03555 0.4105 0.84661 0.0
O102 O 0.00692 0.54708 0.36257 0.0
Cd103 Cd -0.00891 0.55419 0.41523 0.0
O104 O 0.90826 0.47733 0.35656 0.0
Cd105 Cd 0.89374 0.4461 0.4019 0.0
O106 O 0.85299 0.36489 0.43032 0.0
C107 C 0.84602 0.31425 0.41972 0.0
O108 O 0.86657 0.31425 0.39316 0.0
C109 C 0.96079 0.51512 0.34577 0.0
C110 C 0.088 0.6628 0.44028 0.0
O111 O 0.08584 0.61049 0.44213 0.0
O112 O 0.04411 0.66407 0.42662 0.0
O113 O 0.50726 0.9657 0.70341 0.0
Cd114 Cd 0.53199 -0.01648 0.7556 0.0
O115 O 0.52212 0.06006 0.69951 0.0
Cd116 Cd 0.51337 0.07311 0.74622 0.0
O117 O 0.48073 0.11507 0.77838 0.0
C118 C 0.4306 0.11372 0.77231 0.0
O119 O 0.39962 0.08317 0.7487 0.0
C120 C 0.51303 0.00982 0.68756 0.0
C121 C 0.54238 0.88601 0.77773 0.0
O122 O 0.49265 0.88806 0.78095 0.0
O123 O 0.58794 0.93076 0.76436 0.0
O124 O 0.48961 0.47042 0.03944 0.0
Cd125 Cd 0.49221 0.47045 0.09301 0.0
O126 O 0.47099 0.54737 0.03797 0.0
Cd127 Cd 0.44796 0.53902 0.08451 0.0
O128 O 0.372 0.50852 0.11558 0.0
C129 C 0.324 0.45618 0.11 0.0
O130 O 0.32579 0.42238 0.08809 0.0
C131 C 0.48286 0.50951 0.02472 0.0
C132 C 0.60167 0.47675 0.10999 0.0
O133 O 0.55218 0.42453 0.10499 0.0
O134 O 0.59914 0.52659 0.1078 0.0
C135 C 0.2052 0.47021 0.1553 0.0
C136 C 0.15077 0.42918 0.14005 0.0
H137 H 0.30354 0.51072 0.15787 0.0
C138 C 0.15229 0.39029 0.11805 0.0
H139 H 0.20496 0.50142 0.17198 0.0
C140 C 0.2084 0.39521 0.11004 0.0
C141 C 0.26402 0.44032 0.12342 0.0
H142 H 0.11082 0.35919 0.10571 0.0
H143 H 0.20862 0.36704 0.09182 0.0
C144 C 0.26155 0.47583 0.14703 0.0
C145 C 0.73957 0.19944 0.47588 0.0
C146 C 0.71217 0.14328 0.45962 0.0
H147 H 0.80338 0.29759 0.47603 0.0
C148 C 0.73694 0.14239 0.43203 0.0
H149 H 0.72228 0.20183 0.49737 0.0
C150 C 0.78385 0.19761 0.41983 0.0
C151 C 0.80659 0.2547 0.43493 0.0
H152 H 0.71722 0.10001 0.41895 0.0
H153 H 0.79928 0.196 0.39779 0.0
C154 C 0.78602 0.25457 0.46361 0.0
C155 C 0.58298 0.7594 0.78246 0.0
C156 C 0.54064 0.72045 0.80368 0.0
H157 H 0.61743 0.84337 0.75786 0.0
C158 C 0.50326 0.73969 0.81804 0.0
H159 H 0.61244 0.74598 0.77104 0.0
C160 C 0.50533 0.79447 0.81015 0.0
C161 C 0.54565 0.83201 0.78812 0.0
H162 H 0.47012 0.71107 0.83455 0.0
H163 H 0.47427 0.80671 0.82088 0.0
C164 C 0.58585 0.8151 0.77493 0.0
C165 C 0.76968 0.53675 0.13031 0.0
C166 C 0.77362 0.48297 0.12605 0.0
H167 H 0.71198 0.57724 0.12837 0.0
C168 C 0.72018 0.42721 0.11756 0.0
H169 H 0.81002 0.58033 0.1369 0.0
C170 C 0.66434 0.42523 0.1131 0.0
C171 C 0.66047 0.4791 0.11666 0.0
H172 H 0.7213 0.38467 0.11439 0.0
H173 H 0.62438 0.3815 0.10632 0.0
C174 C 0.71361 0.53494 0.12542 0.0
C175 C 0.23163 0.76893 0.48428 0.0
C176 C 0.25092 0.82736 0.47183 0.0
H177 H 0.16562 0.67135 0.48381 0.0
C178 C 0.21246 0.8321 0.4509 0.0
H179 H 0.25984 0.76325 0.50047 0.0
C180 C 0.15764 0.77899 0.4416 0.0
C181 C 0.14097 0.72014 0.45268 0.0
H182 H 0.22587 0.87631 0.44087 0.0
H183 H 0.12999 0.78358 0.42471 0.0
C184 C 0.1777 0.71595 0.47461 0.0
C185 C 0.36727 0.22033 0.78623 0.0
C186 C 0.40538 0.25748 0.80945 0.0
H187 H 0.34479 0.14481 0.75644 0.0
C188 C 0.44314 0.23913 0.82374 0.0
H189 H 0.33721 0.2327 0.7749 0.0
C190 C 0.44798 0.18916 0.81295 0.0
C191 C 0.41468 0.1561 0.78786 0.0
H192 H 0.47257 0.2661 0.84196 0.0
H193 H 0.48065 0.17892 0.82322 0.0
C194 C 0.37175 0.16995 0.77559 0.0
C195 C 0.43634 0.72953 0.48479 0.0
C196 C 0.49443 0.78414 0.48341 0.0
H197 H 0.38557 0.63275 0.49444 0.0
C198 C 0.54802 0.78087 0.48775 0.0
H199 H 0.39434 0.73095 0.4813 0.0
C200 C 0.54305 0.72437 0.49582 0.0
C201 C 0.48445 0.67052 0.49925 0.0
H202 H 0.59327 0.82255 0.48691 0.0
H203 H 0.58488 0.72368 0.50081 0.0
C204 C 0.43138 0.67326 0.49235 0.0
C205 C 0.69223 0.46529 0.80606 0.0
C206 C 0.69033 0.51826 0.81498 0.0
H207 H 0.74078 0.41564 0.80789 0.0
C208 C 0.74125 0.56684 0.82965 0.0
H209 H 0.65292 0.42709 0.79493 0.0
C210 C 0.79151 0.56016 0.83745 0.0
C211 C 0.79102 0.50461 0.83076 0.0
H212 H 0.74003 0.60763 0.83709 0.0
H213 H 0.82844 0.59655 0.8505 0.0
C214 C 0.74236 0.45868 0.81366 0.0
C215 C 0.19476 0.71844 0.13473 0.0
C216 C 0.1351 0.7014 0.14474 0.0
H217 H 0.29224 0.78166 0.13885 0.0
C218 C 0.12844 0.74206 0.16402 0.0
H219 H 0.20174 0.68857 0.11971 0.0
C220 C 0.18053 0.79565 0.17494 0.0
C221 C 0.2404 0.8096 0.16694 0.0
H222 H 0.08325 0.73076 0.17202 0.0
H223 H 0.17384 0.82412 0.19096 0.0
C224 C 0.24683 0.77184 0.14577 0.0
C225 C 0.52673 0.23815 0.50008 0.0
C226 C 0.47075 0.18434 0.49232 0.0
H227 H 0.5724 0.33351 0.51349 0.0
C228 C 0.41653 0.1876 0.4909 0.0
H229 H 0.5695 0.2374 0.50107 0.0
C230 C 0.4181 0.24319 0.49845 0.0
C231 C 0.4741 0.29645 0.50701 0.0
H232 H 0.37278 0.14682 0.48502 0.0
H233 H 0.37545 0.24419 0.498 0.0
C234 C 0.52846 0.29347 0.50715 0.0
C235 C 0.19859 0.40784 0.82121 0.0
C236 C 0.25541 0.46368 0.82424 0.0
H237 H 0.09975 0.36307 0.82484 0.0
C238 C 0.25557 0.51889 0.83096 0.0
H239 H 0.19726 0.3647 0.81598 0.0
C240 C 0.2004 0.51824 0.83553 0.0
C241 C 0.14356 0.46218 0.83395 0.0
H242 H 0.29866 0.56286 0.83301 0.0
H243 H 0.20259 0.5616 0.84127 0.0
C244 C 0.14297 0.40699 0.82631 0.0
C245 C 0.78408 0.25143 0.19838 0.0
C246 C 0.80593 0.24994 0.17014 0.0
H247 H 0.70657 0.21148 0.22761 0.0
C248 C 0.76828 0.20033 0.151 0.0
H249 H 0.8117 0.28968 0.21339 0.0
C250 C 0.70864 0.15466 0.15947 0.0
C251 C 0.68513 0.1594 0.18675 0.0
H252 H 0.78388 0.19859 0.129 0.0
H253 H 0.67947 0.11824 0.14395 0.0
C254 C 0.72377 0.20715 0.20641 0.0
C255 C 0.01278 0.4817 0.00984 0.0
C256 C 0.96206 0.44248 0.02757 0.0
H257 H 0.04697 0.5093 0.96622 0.0
C258 C 0.90632 0.39827 0.01399 0.0
H259 H 0.05646 0.51613 0.01957 0.0
C260 C 0.90086 0.39447 -0.01653 0.0
C261 C 0.95105 0.43459 0.96574 0.0
H262 H 0.86631 0.36715 0.02691 0.0
H263 H 0.85687 0.36056 0.97381 0.0
C264 C 0.00737 0.4777 -0.02075 0.0
C265 C 0.46494 0.0268 0.35256 0.0
C266 C 0.47164 -0.01849 0.36736 0.0
H267 H 0.45878 0.06269 0.31106 0.0
C268 C 0.47617 0.9359 0.35096 0.0
H269 H 0.46167 0.06268 0.36466 0.0
C270 C 0.47326 0.93515 0.32032 0.0
C271 C 0.46743 -0.01904 0.30552 0.0
H272 H 0.48116 0.9003 0.36182 0.0
H273 H 0.47638 0.89919 0.30821 0.0
C274 C 0.46366 0.02701 0.32192 0.0
C275 C 0.51078 0.49053 0.68555 0.0
C276 C 0.4575 0.47204 0.70257 0.0
H277 H 0.54896 0.50205 0.64239 0.0
C278 C 0.40026 0.44917 0.6883 0.0
H279 H 0.55548 0.50791 0.69592 0.0
C280 C 0.39668 0.4467 0.65765 0.0
C281 C 0.45005 0.4657 0.64064 0.0
H282 H 0.35838 0.43459 0.7008 0.0
H283 H 0.35214 0.43018 0.64727 0.0
C284 C 0.50698 0.48676 0.65491 0.0
C285 C 0.47362 0.93964 0.6109 0.0
C286 C 0.50089 -0.00665 0.59361 0.0
H287 H 0.45691 0.90265 0.6544 0.0
C288 C 0.53287 0.05203 0.60749 0.0
H289 H 0.44883 0.8938 0.6008 0.0
C290 C 0.53667 0.05705 0.63798 0.0
C291 C 0.50953 0.00352 0.6553 0.0
H292 H 0.55426 0.09435 0.59482 0.0
H293 H 0.56123 0.10302 0.64798 0.0
C294 C 0.47845 0.94468 0.64152 0.0
C295 C 0.47339 0.54644 0.9452 0.0
C296 C 0.48495 0.50372 0.93025 0.0
H297 H 0.46411 0.5821 -0.0134 0.0
C298 C 0.49815 0.46448 0.94668 0.0
H299 H 0.46332 0.57758 0.93328 0.0
C300 C 0.49857 0.46709 0.97734 0.0
C301 C 0.48597 0.50911 -0.00774 0.0
H302 H 0.50739 0.43111 0.93589 0.0
H303 H 0.50805 0.4356 -0.01067 0.0
C304 C 0.47398 0.54916 0.97583 0.0
C305 C 0.924 0.51078 0.26529 0.0
C306 C -0.02508 0.51111 0.25224 0.0
H307 H 0.87928 0.51073 0.30545 0.0
C308 C 0.02338 0.51738 0.27007 0.0
H309 H 0.88595 0.5057 0.252 0.0
C310 C 0.02043 0.52219 0.30057 0.0
C311 C -0.03196 0.51869 0.31367 0.0
H312 H 0.06321 0.51795 0.26045 0.0
H313 H 0.05773 0.52577 0.31396 0.0
C314 C 0.92012 0.51349 0.29579 0.0
loop_
_geom_bond_atom_site_label_1
_geom_bond_atom_site_label_2
_geom_bond_distance
_geom_bond_site_symmetry_2
_ccdc_geom_bond_type
O0 Zn1 1.953 . S
O0 C16 1.225 1_655 S
Zn1 O0 1.953 . S
Zn1 O2 1.949 1_655 S
Zn1 O8 1.919 . S
Zn1 O13 1.924 1_655 S
O2 Zn1 1.949 1_455 S
O2 Zn3 1.923 1_455 S
O2 Zn4 1.950 . S
O2 Zn5 1.945 . S
Zn3 O2 1.923 1_655 S
Zn3 O6 1.933 . S
Zn3 O9 1.941 . S
Zn3 O10 1.965 . S
Zn4 O2 1.950 . S
Zn4 O11 1.938 1_455 S
Zn4 O12 1.906 . S
Zn4 O22 1.953 . S
Zn5 O2 1.945 . S
Zn5 O7 1.932 . S
Zn5 O14 1.977 . S
Zn5 O15 1.910 . S
O6 Zn3 1.933 . S
O6 C17 1.226 1_655 S
O7 Zn5 1.932 . S
O7 C17 1.307 . S
O8 Zn1 1.919 . S
O8 C19 1.253 . S
O9 Zn3 1.941 . S
O9 C19 1.283 . S
O10 Zn3 1.965 . S
O10 C18 1.303 . S
O11 Zn4 1.938 1_655 S
O11 C18 1.247 . S
O12 Zn4 1.906 . S
O12 C20 1.304 . S
O13 Zn1 1.924 1_455 S
O13 C21 1.311 . S
O14 Zn5 1.977 . S
O14 C20 1.272 . S
O15 Zn5 1.910 . S
O15 C21 1.231 . S
C16 O0 1.225 1_455 S
C16 O22 1.298 . S
C17 O6 1.226 1_455 S
C17 O7 1.307 . S
C18 O10 1.303 . S
C18 O11 1.247 . S
C19 O8 1.253 . S
C19 O9 1.283 . S
C20 O12 1.304 . S
C20 O14 1.272 . S
C21 O13 1.311 . S
C21 O15 1.231 . S
O22 Zn4 1.953 . S
O22 C16 1.298 . S
O23 Zn24 1.953 . S
O23 C39 1.225 . S
Zn24 O23 1.953 . S
Zn24 O25 1.949 . S
Zn24 O31 1.919 . S
Zn24 O36 1.924 1_545 S
O25 Zn24 1.949 . S
O25 Zn26 1.923 . S
O25 Zn27 1.950 1_545 S
O25 Zn28 1.945 1_545 S
Zn26 O25 1.923 . S
Zn26 O29 1.933 . S
Zn26 O32 1.941 . S
Zn26 O33 1.965 . S
Zn27 O25 1.950 1_565 S
Zn27 O34 1.938 1_565 S
Zn27 O35 1.906 . S
Zn27 O45 1.953 . S
Zn28 O25 1.945 1_565 S
Zn28 O30 1.932 . S
Zn28 O37 1.977 . S
Zn28 O38 1.910 . S
O29 Zn26 1.933 . S
O29 C40 1.226 . S
O30 Zn28 1.932 . S
O30 C40 1.307 1_565 S
O31 Zn24 1.919 . S
O31 C42 1.253 . S
O32 Zn26 1.941 . S
O32 C42 1.283 . S
O33 Zn26 1.965 . S
O33 C41 1.303 . S
O34 Zn27 1.938 1_545 S
O34 C41 1.247 . S
O35 Zn27 1.906 . S
O35 C43 1.304 . S
O36 Zn24 1.924 1_565 S
O36 C44 1.311 . S
O37 Zn28 1.977 . S
O37 C43 1.272 . S
O38 Zn28 1.910 . S
O38 C44 1.231 . S
C39 O23 1.225 . S
C39 O45 1.298 1_545 S
C40 O29 1.226 . S
C40 O30 1.307 1_545 S
C41 O33 1.303 . S
C41 O34 1.247 . S
C42 O31 1.253 . S
C42 O32 1.283 . S
C43 O35 1.304 . S
C43 O37 1.272 . S
C44 O36 1.311 . S
C44 O38 1.231 . S
O45 Zn27 1.953 . S
O45 C39 1.298 1_565 S
O46 Zn47 1.953 . S
O46 C62 1.225 . S
Zn47 O46 1.953 . S
Zn47 O48 1.949 . S
Zn47 O54 1.919 . S
Zn47 O59 1.924 . S
O48 Zn47 1.949 . S
O48 Zn49 1.923 . S
O48 Zn50 1.950 . S
O48 Zn51 1.945 . S
Zn49 O48 1.923 . S
Zn49 O52 1.933 . S
Zn49 O55 1.941 . S
Zn49 O56 1.965 . S
Zn50 O48 1.950 . S
Zn50 O57 1.938 . S
Zn50 O58 1.906 . S
Zn50 O68 1.953 . S
Zn51 O48 1.945 . S
Zn51 O53 1.932 . S
Zn51 O60 1.977 . S
Zn51 O61 1.910 . S
O52 Zn49 1.933 . S
O52 C63 1.226 . S
O53 Zn51 1.932 . S
O53 C63 1.307 . S
O54 Zn47 1.919 . S
O54 C65 1.253 . S
O55 Zn49 1.941 . S
O55 C65 1.283 . S
O56 Zn49 1.965 . S
O56 C64 1.303 . S
O57 Zn50 1.938 . S
O57 C64 1.247 . S
O58 Zn50 1.906 . S
O58 C66 1.304 . S
O59 Zn47 1.924 . S
O59 C67 1.311 . S
O60 Zn51 1.977 . S
O60 C66 1.272 . S
O61 Zn51 1.910 . S
O61 C67 1.231 . S
C62 O46 1.225 . S
C62 O68 1.298 . S
C63 O52 1.226 . S
C63 O53 1.307 . S
C64 O56 1.303 . S
C64 O57 1.247 . S
C65 O54 1.253 . S
C65 O55 1.283 . S
C66 O58 1.304 . S
C66 O60 1.272 . S
C67 O59 1.311 . S
C67 O61 1.231 . S
O68 Zn50 1.953 . S
O68 C62 1.298 . S
O69 Cd70 2.300 . S
O69 C76 1.275 1_545 S
Cd70 O69 2.300 . S
Cd70 O78 2.381 . S
Cd70 O79 2.378 . S
O71 Cd72 2.385 . S
O71 C76 1.255 . S
Cd72 O71 2.385 . S
Cd72 O73 2.317 . S
O73 Cd72 2.317 . S
O73 C74 1.232 . S
C74 O73 1.232 . S
C74 O75 1.218 . S
O75 C74 1.218 . S
C76 O69 1.275 1_565 S
C76 O71 1.255 . S
C77 O78 1.258 . S
C77 O79 1.256 . S
O78 Cd70 2.381 . S
O78 C77 1.258 . S
O79 Cd70 2.378 . S
O79 C77 1.256 . S
O80 Cd81 2.300 . S
O80 C87 1.275 . S
Cd81 O80 2.300 . S
Cd81 O89 2.381 . S
Cd81 O90 2.378 . S
O82 Cd83 2.385 . S
O82 C87 1.255 . S
Cd83 O82 2.385 . S
Cd83 O84 2.317 . S
O84 Cd83 2.317 . S
O84 C85 1.232 . S
C85 O84 1.232 . S
C85 O86 1.218 . S
O86 C85 1.218 . S
C87 O80 1.275 . S
C87 O82 1.255 . S
C88 O89 1.258 . S
C88 O90 1.256 . S
O89 Cd81 2.381 . S
O89 C88 1.258 . S
O90 Cd81 2.378 . S
O90 C88 1.256 . S
O91 Cd92 2.300 . S
O91 C98 1.275 . S
Cd92 O91 2.300 . S
Cd92 O100 2.381 . S
Cd92 O101 2.378 . S
O93 Cd94 2.385 . S
O93 C98 1.255 1_655 S
Cd94 O93 2.385 . S
Cd94 O95 2.317 . S
O95 Cd94 2.317 . S
O95 C96 1.232 . S
C96 O95 1.232 . S
C96 O97 1.218 . S
O97 C96 1.218 . S
C98 O91 1.275 . S
C98 O93 1.255 1_455 S
C99 O100 1.258 . S
C99 O101 1.256 . S
O100 Cd92 2.381 . S
O100 C99 1.258 . S
O101 Cd92 2.378 . S
O101 C99 1.256 . S
O102 Cd103 2.300 . S
O102 C109 1.275 1_455 S
Cd103 O102 2.300 . S
Cd103 O111 2.381 . S
Cd103 O112 2.378 . S
O104 Cd105 2.385 . S
O104 C109 1.255 . S
Cd105 O104 2.385 . S
Cd105 O106 2.317 . S
O106 Cd105 2.317 . S
O106 C107 1.232 . S
C107 O106 1.232 . S
C107 O108 1.218 . S
O108 C107 1.218 . S
C109 O102 1.275 1_655 S
C109 O104 1.255 . S
C110 O111 1.258 . S
C110 O112 1.256 . S
O111 Cd103 2.381 . S
O111 C110 1.258 . S
O112 Cd103 2.378 . S
O112 C110 1.256 . S
O113 Cd114 2.300 . S
O113 C120 1.275 1_565 S
Cd114 O113 2.300 . S
Cd114 O122 2.381 . S
Cd114 O123 2.378 . S
O115 Cd116 2.385 . S
O115 C120 1.255 . S
Cd116 O115 2.385 . S
Cd116 O117 2.317 . S
O117 Cd116 2.317 . S
O117 C118 1.232 . S
C118 O117 1.232 . S
C118 O119 1.218 . S
O119 C118 1.218 . S
C120 O113 1.275 1_545 S
C120 O115 1.255 . S
C121 O122 1.258 . S
C121 O123 1.256 . S
O122 Cd114 2.381 . S
O122 C121 1.258 . S
O123 Cd114 2.378 . S
O123 C121 1.256 . S
O124 Cd125 2.300 . S
O124 C131 1.275 . S
Cd125 O124 2.300 . S
Cd125 O133 2.381 . S
Cd125 O134 2.378 . S
O126 Cd127 2.385 . S
O126 C131 1.255 . S
Cd127 O126 2.385 . S
Cd127 O128 2.317 . S
O128 Cd127 2.317 . S
O128 C129 1.232 . S
C129 O128 1.232 . S
C129 O130 1.218 . S
O130 C129 1.218 . S
C131 O124 1.275 . S
C131 O126 1.255 . S
C132 O133 1.258 . S
C132 O134 1.256 . S
O133 Cd125 2.381 . S
O133 C132 1.258 . S
O134 Cd125 2.378 . S
O134 C132 1.256 . S
C135 C136 1.387 . S
C135 H139 0.950 . S
C135 C144 1.390 . S
C136 C135 1.387 . S
C136 C138 1.387 . S
H137 C144 0.950 . S
C138 C136 1.387 . S
C138 C140 1.390 . S
C138 H142 0.950 . S
H139 C135 0.950 . S
C140 C138 1.390 . S
C140 C141 1.387 . S
C140 H143 0.950 . S
C141 C140 1.387 . S
C141 C144 1.387 . S
H142 C138 0.950 . S
H143 C140 0.950 . S
C144 C135 1.390 . S
C144 H137 0.950 . S
C144 C141 1.387 . S
C145 C146 1.387 . S
C145 H149 0.950 . S
C145 C154 1.390 . S
C146 C145 1.387 . S
C146 C148 1.387 . S
H147 C154 0.950 . S
C148 C146 1.387 . S
C148 C150 1.390 . S
C148 H152 0.950 . S
H149 C145 0.950 . S
C150 C148 1.390 . S
C150 C151 1.387 . S
C150 H153 0.950 . S
C151 C150 1.387 . S
C151 C154 1.387 . S
H152 C148 0.950 . S
H153 C150 0.950 . S
C154 C145 1.390 . S
C154 H147 0.950 . S
C154 C151 1.387 . S
C155 C156 1.387 . S
C155 H159 0.950 . S
C155 C164 1.390 . S
C156 C155 1.387 . S
C156 C158 1.387 . S
H157 C164 0.950 . S
C158 C156 1.387 . S
C158 C160 1.390 . S
C158 H162 0.950 . S
H159 C155 0.950 . S
C160 C158 1.390 . S
C160 C161 1.387 . S
C160 H163 0.950 . S
C161 C160 1.387 . S
C161 C164 1.387 . S
H162 C158 0.950 . S
H163 C160 0.950 . S
C164 C155 1.390 . S
C164 H157 0.950 . S
C164 C161 1.387 . S
C165 C166 1.387 . S
C165 H169 0.950 . S
C165 C174 1.390 . S
C166 C165 1.387 . S
C166 C168 1.387 . S
H167 C174 0.950 . S
C168 C166 1.387 . S
C168 C170 1.390 . S
C168 H172 0.950 . S
H169 C165 0.950 . S
C170 C168 1.390 . S
C170 C171 1.387 . S
C170 H173 0.950 . S
C171 C170 1.387 . S
C171 C174 1.387 . S
H172 C168 0.950 . S
H173 C170 0.950 . S
C174 C165 1.390 . S
C174 H167 0.950 . S
C174 C171 1.387 . S
C175 C176 1.387 . S
C175 H179 0.950 . S
C175 C184 1.390 . S
C176 C175 1.387 . S
C176 C178 1.387 . S
H177 C184 0.950 . S
C178 C176 1.387 . S
C178 C180 1.390 . S
C178 H182 0.950 . S
H179 C175 0.950 . S
C180 C178 1.390 . S
C180 C181 1.387 . S
C180 H183 0.950 . S
C181 C180 1.387 . S
C181 C184 1.387 . S
H182 C178 0.950 . S
H183 C180 0.950 . S
C184 C175 1.390 . S
C184 H177 0.950 . S
C184 C181 1.387 . S
C185 C186 1.387 . S
C185 H189 0.950 . S
C185 C194 1.390 . S
C186 C185 1.387 . S
C186 C188 1.387 . S
H187 C194 0.950 . S
C188 C186 1.387 . S
C188 C190 1.390 . S
C188 H192 0.950 . S
H189 C185 0.950 . S
C190 C188 1.390 . S
C190 C191 1.387 . S
C190 H193 0.950 . S
C191 C190 1.387 . S
C191 C194 1.387 . S
H192 C188 0.950 . S
H193 C190 0.950 . S
C194 C185 1.390 . S
C194 H187 0.950 . S
C194 C191 1.387 . S
C195 C196 1.387 . S
C195 H199 0.950 . S
C195 C204 1.390 . S
C196 C195 1.387 . S
C196 C198 1.387 . S
H197 C204 0.950 . S
C198 C196 1.387 . S
C198 C200 1.390 . S
C198 H202 0.950 . S
H199 C195 0.950 . S
C200 C198 1.390 . S
C200 C201 1.387 . S
C200 H203 0.950 . S
C201 C200 1.387 . S
C201 C204 1.387 . S
H202 C198 0.950 . S
H203 C200 0.950 . S
C204 C195 1.390 . S
C204 H197 0.950 . S
C204 C201 1.387 . S
C205 C206 1.387 . S
C205 H209 0.950 . S
C205 C214 1.390 . S
C206 C205 1.387 . S
C206 C208 1.387 . S
H207 C214 0.950 . S
C208 C206 1.387 . S
C208 C210 1.390 . S
C208 H212 0.950 . S
H209 C205 0.950 . S
C210 C208 1.390 . S
C210 C211 1.387 . S
C210 H213 0.950 . S
C211 C210 1.387 . S
C211 C214 1.387 . S
H212 C208 0.950 . S
H213 C210 0.950 . S
C214 C205 1.390 . S
C214 H207 0.950 . S
C214 C211 1.387 . S
C215 C216 1.387 . S
C215 H219 0.950 . S
C215 C224 1.390 . S
C216 C215 1.387 . S
C216 C218 1.387 . S
H217 C224 0.950 . S
C218 C216 1.387 . S
C218 C220 1.390 . S
C218 H222 0.950 . S
H219 C215 0.950 . S
C220 C218 1.390 . S
C220 C221 1.387 . S
C220 H223 0.950 . S
C221 C220 1.387 . S
C221 C224 1.387 . S
H222 C218 0.950 . S
H223 C220 0.950 . S
C224 C215 1.390 . S
C224 H217 0.950 . S
C224 C221 1.387 . S
C225 C226 1.387 . S
C225 H229 0.950 . S
C225 C234 1.390 . S
C226 C225 1.387 . S
C226 C228 1.387 . S
H227 C234 0.950 . S
C228 C226 1.387 . S
C228 C230 1.390 . S
C228 H232 0.950 . S
H229 C225 0.950 . S
C230 C228 1.390 . S
C230 C231 1.387 . S
C230 H233 0.950 . S
C231 C230 1.387 . S
C231 C234 1.387 . S
H232 C228 0.950 . S
H233 C230 0.950 . S
C234 C225 1.390 . S
C234 H227 0.950 . S
C234 C231 1.387 . S
C235 C236 1.387 . S
C235 H239 0.950 . S
C235 C244 1.390 . S
C236 C235 1.387 . S
C236 C238 1.387 . S
H237 C244 0.950 . S
C238 C236 1.387 . S
C238 C240 1.390 . S
C238 H242 0.950 . S
H239 C235 0.950 . S
C240 C238 1.390 . S
C240 C241 1.387 . S
C240 H243 0.950 . S
C241 C240 1.387 . S
C241 C244 1.387 . S
H242 C238 0.950 . S
H243 C240 0.950 . S
C244 C235 1.390 . S
C244 H237 0.950 . S
C244 C241 1.387 . S
C245 C246 1.387 . S
C245 H249 0.950 . S
C245 C254 1.390 . S
C246 C245 1.387 . S
C246 C248 1.387 . S
H247 C254 0.950 . S
C248 C246 1.387 . S
C248 C250 1.390 . S
C248 H252 0.950 . S
H249 C245 0.950 . S
C250 C248 1.390 . S
C250 C251 1.387 . S
C250 H253 0.950 . S
C251 C250 1.387 . S
C251 C254 1.387 . S
H252 C248 0.950 . S
H253 C250 0.950 . S
C254 C245 1.390 . S
C254 H247 0.950 . S
C254 C251 1.387 . S
C255 C256 1.387 . S
C255 H259 0.950 . S
C255 C264 1.390 . S
C256 C255 1.387 . S
C256 C258 1.387 1_455 S
H257 C264 0.950 1_556 S
C258 C256 1.387 1_655 S
C258 C260 1.397 . S
C258 H262 0.950 . S
H259 C255 0.950 . S
C260 C258 1.397 . S
C260 C261 1.384 1_654 S
C260 H263 0.946 1_554 S
C261 C260 1.384 1_456 S
C261 C264 1.387 1_556 S
H262 C258 0.950 . S
H263 C260 0.946 1_556 S
C264 C255 1.390 . S
C264 H257 0.950 1_554 S
C264 C261 1.387 1_554 S
C265 C266 1.387 . S
C265 H269 0.950 . S
C265 C274 1.390 . S
C266 C265 1.387 . S
C266 C268 1.387 1_545 S
H267 C274 0.950 . S
C268 C266 1.387 1_565 S
C268 C270 1.390 . S
C268 H272 0.950 . S
H269 C265 0.950 . S
C270 C268 1.390 . S
C270 C271 1.387 . S
C270 H273 0.950 . S
C271 C270 1.387 . S
C271 C274 1.387 1_565 S
H272 C268 0.950 . S
H273 C270 0.950 . S
C274 C265 1.390 . S
C274 H267 0.950 . S
C274 C271 1.387 1_545 S
C275 C276 1.387 . S
C275 H279 0.950 . S
C275 C284 1.390 . S
C276 C275 1.387 . S
C276 C278 1.387 . S
H277 C284 0.950 . S
C278 C276 1.387 . S
C278 C280 1.390 . S
C278 H282 0.950 . S
H279 C275 0.950 . S
C280 C278 1.390 . S
C280 C281 1.387 . S
C280 H283 0.950 . S
C281 C280 1.387 . S
C281 C284 1.387 . S
H282 C278 0.950 . S
H283 C280 0.950 . S
C284 C275 1.390 . S
C284 H277 0.950 . S
C284 C281 1.387 . S
C285 C286 1.387 1_565 S
C285 H289 0.950 . S
C285 C294 1.390 . S
C286 C285 1.387 1_545 S
C286 C288 1.387 . S
H287 C294 0.950 . S
C288 C286 1.387 . S
C288 C290 1.390 . S
C288 H292 0.950 . S
H289 C285 0.950 . S
C290 C288 1.390 . S
C290 C291 1.387 . S
C290 H293 0.950 . S
C291 C290 1.387 . S
C291 C294 1.387 1_545 S
H292 C288 0.950 . S
H293 C290 0.950 . S
C294 C285 1.390 . S
C294 H287 0.950 . S
C294 C291 1.387 1_565 S
C295 C296 1.387 . S
C295 H299 0.950 . S
C295 C304 1.390 . S
C296 C295 1.387 . S
C296 C298 1.387 . S
H297 C304 0.950 1_554 S
C298 C296 1.387 . S
C298 C300 1.390 . S
C298 H302 0.950 . S
H299 C295 0.950 . S
C300 C298 1.390 . S
C300 C301 1.387 1_556 S
C300 H303 0.950 1_556 S
C301 C300 1.387 1_554 S
C301 C304 1.387 1_554 S
H302 C298 0.950 . S
H303 C300 0.950 1_554 S
C304 C295 1.390 . S
C304 H297 0.950 1_556 S
C304 C301 1.387 1_556 S
C305 C306 1.387 1_655 S
C305 H309 0.950 . S
C305 C314 1.390 . S
C306 C305 1.387 1_455 S
C306 C308 1.387 . S
H307 C314 0.950 . S
C308 C306 1.387 . S
C308 C310 1.390 . S
C308 H312 0.950 . S
H309 C305 0.950 . S
C310 C308 1.390 . S
C310 C311 1.387 1_455 S
C310 H313 0.950 . S
C311 C310 1.387 1_655 S
C311 C314 1.387 . S
H312 C308 0.950 . S
H313 C310 0.950 . S
C314 C305 1.390 . S
C314 H307 0.950 . S
C314 C311 1.387 . S
C136 C20 1.433 . S
C141 C129 1.369 . S
C146 C41 1.527 . S
C151 C107 1.410 . S
C156 C64 1.295 . S
C161 C121 1.251 . S
C166 C19 1.218 . S
C171 C132 1.249 . S
C181 C110 1.229 . S
C176 C44 1.251 . S
C191 C118 1.380 . S
C186 C67 1.499 . S
C196 C43 1.434 . S
C201 C85 1.382 . S
C206 C66 1.432 . S
C211 C96 1.369 . S
C216 C21 1.509 . S
C221 C74 1.406 . S
C231 C88 1.241 . S
C226 C42 1.213 . S
C241 C99 1.253 . S
C236 C65 1.223 . S
C246 C18 1.274 . S
C251 C77 1.234 . S
C261 C98 1.423 . S
C256 C17 1.509 . S
C266 C39 1.505 . S
C271 C76 1.426 . S
C276 C62 1.520 . S
C281 C87 1.435 . S
C291 C120 1.414 . S
C286 C40 1.493 . S
C301 C131 1.427 . S
C296 C63 1.508 . S
C306 C16 1.507 . S
C311 C109 1.431 . S
