# Generated by pormake.
# Topology iac, (4,6)-cn, num edge types: 1
# Building blocks:
#     Node 0, Type 0, BuildingBlock: GALJAG_clean_sbu_0, # of connection points: 4
#     Node 1, Type 0, BuildingBlock: GALJAG_clean_sbu_0, # of connection points: 4
#     Node 2, Type 0, BuildingBlock: GALJAG_clean_sbu_0, # of connection points: 4
#     Node 3, Type 0, BuildingBlock: GALJAG_clean_sbu_0, # of connection points: 4
#     Node 4, Type 0, BuildingBlock: GALJAG_clean_sbu_0, # of connection points: 4
#     Node 5, Type 0, BuildingBlock: GALJAG_clean_sbu_0, # of connection points: 4
#     Node 6, Type 0, BuildingBlock: GALJAG_clean_sbu_0, # of connection points: 4
#     Node 7, Type 0, BuildingBlock: GALJAG_clean_sbu_0, # of connection points: 4
#     Node 8, Type 0, BuildingBlock: GALJAG_clean_sbu_0, # of connection points: 4
#     Node 9, Type 0, BuildingBlock: GALJAG_clean_sbu_0, # of connection points: 4
#     Node 10, Type 0, BuildingBlock: GALJAG_clean_sbu_0, # of connection points: 4
#     Node 11, Type 0, BuildingBlock: GALJAG_clean_sbu_0, # of connection points: 4
#     Node 12, Type 0, BuildingBlock: GALJAG_clean_sbu_0, # of connection points: 4
#     Node 13, Type 0, BuildingBlock: GALJAG_clean_sbu_0, # of connection points: 4
#     Node 14, Type 0, BuildingBlock: GALJAG_clean_sbu_0, # of connection points: 4
#     Node 15, Type 0, BuildingBlock: GALJAG_clean_sbu_0, # of connection points: 4
#     Node 16, Type 0, BuildingBlock: GALJAG_clean_sbu_0, # of connection points: 4
#     Node 17, Type 0, BuildingBlock: GALJAG_clean_sbu_0, # of connection points: 4
#     Node 18, Type 0, BuildingBlock: GALJAG_clean_sbu_0, # of connection points: 4
#     Node 19, Type 0, BuildingBlock: GALJAG_clean_sbu_0, # of connection points: 4
#     Node 20, Type 0, BuildingBlock: GALJAG_clean_sbu_0, # of connection points: 4
#     Node 21, Type 0, BuildingBlock: GALJAG_clean_sbu_0, # of connection points: 4
#     Node 22, Type 0, BuildingBlock: GALJAG_clean_sbu_0, # of connection points: 4
#     Node 23, Type 0, BuildingBlock: GALJAG_clean_sbu_0, # of connection points: 4
#     Node 24, Type 1, BuildingBlock: VOLQOD_clean_sbu_1, # of connection points: 6
#     Node 25, Type 1, BuildingBlock: VOLQOD_clean_sbu_1, # of connection points: 6
#     Node 26, Type 1, BuildingBlock: VOLQOD_clean_sbu_1, # of connection points: 6
#     Node 27, Type 1, BuildingBlock: VOLQOD_clean_sbu_1, # of connection points: 6
#     Node 28, Type 1, BuildingBlock: VOLQOD_clean_sbu_1, # of connection points: 6
#     Node 29, Type 1, BuildingBlock: VOLQOD_clean_sbu_1, # of connection points: 6
#     Node 30, Type 1, BuildingBlock: VOLQOD_clean_sbu_1, # of connection points: 6
#     Node 31, Type 1, BuildingBlock: VOLQOD_clean_sbu_1, # of connection points: 6
#     Node 32, Type 1, BuildingBlock: VOLQOD_clean_sbu_1, # of connection points: 6
#     Node 33, Type 1, BuildingBlock: VOLQOD_clean_sbu_1, # of connection points: 6
#     Node 34, Type 1, BuildingBlock: VOLQOD_clean_sbu_1, # of connection points: 6
#     Node 35, Type 1, BuildingBlock: VOLQOD_clean_sbu_1, # of connection points: 6
#     Node 36, Type 1, BuildingBlock: VOLQOD_clean_sbu_1, # of connection points: 6
#     Node 37, Type 1, BuildingBlock: VOLQOD_clean_sbu_1, # of connection points: 6
#     Node 38, Type 1, BuildingBlock: VOLQOD_clean_sbu_1, # of connection points: 6
#     Node 39, Type 1, BuildingBlock: VOLQOD_clean_sbu_1, # of connection points: 6
#     Edge 40, Type (0, 1), BuildingBlock: OJICUG_clean_linker_0, # of connection points: 2
#     Edge 41, Type (0, 1), BuildingBlock: OJICUG_clean_linker_0, # of connection points: 2
#     Edge 42, Type (0, 1), BuildingBlock: OJICUG_clean_linker_0, # of connection points: 2
#     Edge 43, Type (0, 1), BuildingBlock: OJICUG_clean_linker_0, # of connection points: 2
#     Edge 44, Type (0, 1), BuildingBlock: OJICUG_clean_linker_0, # of connection points: 2
#     Edge 45, Type (0, 1), BuildingBlock: OJICUG_clean_linker_0, # of connection points: 2
#     Edge 46, Type (0, 1), BuildingBlock: OJICUG_clean_linker_0, # of connection points: 2
#     Edge 47, Type (0, 1), BuildingBlock: OJICUG_clean_linker_0, # of connection points: 2
#     Edge 48, Type (0, 1), BuildingBlock: OJICUG_clean_linker_0, # of connection points: 2
#     Edge 49, Type (0, 1), BuildingBlock: OJICUG_clean_linker_0, # of connection points: 2
#     Edge 50, Type (0, 1), BuildingBlock: OJICUG_clean_linker_0, # of connection points: 2
#     Edge 51, Type (0, 1), BuildingBlock: OJICUG_clean_linker_0, # of connection points: 2
#     Edge 52, Type (0, 1), BuildingBlock: OJICUG_clean_linker_0, # of connection points: 2
#     Edge 53, Type (0, 1), BuildingBlock: OJICUG_clean_linker_0, # of connection points: 2
#     Edge 54, Type (0, 1), BuildingBlock: OJICUG_clean_linker_0, # of connection points: 2
#     Edge 55, Type (0, 1), BuildingBlock: OJICUG_clean_linker_0, # of connection points: 2
#     Edge 56, Type (0, 1), BuildingBlock: OJICUG_clean_linker_0, # of connection points: 2
#     Edge 57, Type (0, 1), BuildingBlock: OJICUG_clean_linker_0, # of connection points: 2
#     Edge 58, Type (0, 1), BuildingBlock: OJICUG_clean_linker_0, # of connection points: 2
#     Edge 59, Type (0, 1), BuildingBlock: OJICUG_clean_linker_0, # of connection points: 2
#     Edge 60, Type (0, 1), BuildingBlock: OJICUG_clean_linker_0, # of connection points: 2
#     Edge 61, Type (0, 1), BuildingBlock: OJICUG_clean_linker_0, # of connection points: 2
#     Edge 62, Type (0, 1), BuildingBlock: OJICUG_clean_linker_0, # of connection points: 2
#     Edge 63, Type (0, 1), BuildingBlock: OJICUG_clean_linker_0, # of connection points: 2
#     Edge 64, Type (0, 1), BuildingBlock: OJICUG_clean_linker_0, # of connection points: 2
#     Edge 65, Type (0, 1), BuildingBlock: OJICUG_clean_linker_0, # of connection points: 2
#     Edge 66, Type (0, 1), BuildingBlock: OJICUG_clean_linker_0, # of connection points: 2
#     Edge 67, Type (0, 1), BuildingBlock: OJICUG_clean_linker_0, # of connection points: 2
#     Edge 68, Type (0, 1), BuildingBlock: OJICUG_clean_linker_0, # of connection points: 2
#     Edge 69, Type (0, 1), BuildingBlock: OJICUG_clean_linker_0, # of connection points: 2
#     Edge 70, Type (0, 1), BuildingBlock: OJICUG_clean_linker_0, # of connection points: 2
#     Edge 71, Type (0, 1), BuildingBlock: OJICUG_clean_linker_0, # of connection points: 2
#     Edge 72, Type (0, 1), BuildingBlock: OJICUG_clean_linker_0, # of connection points: 2
#     Edge 73, Type (0, 1), BuildingBlock: OJICUG_clean_linker_0, # of connection points: 2
#     Edge 74, Type (0, 1), BuildingBlock: OJICUG_clean_linker_0, # of connection points: 2
#     Edge 75, Type (0, 1), BuildingBlock: OJICUG_clean_linker_0, # of connection points: 2
#     Edge 76, Type (0, 1), BuildingBlock: OJICUG_clean_linker_0, # of connection points: 2
#     Edge 77, Type (0, 1), BuildingBlock: OJICUG_clean_linker_0, # of connection points: 2
#     Edge 78, Type (0, 1), BuildingBlock: OJICUG_clean_linker_0, # of connection points: 2
#     Edge 79, Type (0, 1), BuildingBlock: OJICUG_clean_linker_0, # of connection points: 2
#     Edge 80, Type (0, 1), BuildingBlock: OJICUG_clean_linker_0, # of connection points: 2
#     Edge 81, Type (0, 1), BuildingBlock: OJICUG_clean_linker_0, # of connection points: 2
#     Edge 82, Type (0, 1), BuildingBlock: OJICUG_clean_linker_0, # of connection points: 2
#     Edge 83, Type (0, 1), BuildingBlock: OJICUG_clean_linker_0, # of connection points: 2
#     Edge 84, Type (0, 1), BuildingBlock: OJICUG_clean_linker_0, # of connection points: 2
#     Edge 85, Type (0, 1), BuildingBlock: OJICUG_clean_linker_0, # of connection points: 2
#     Edge 86, Type (0, 1), BuildingBlock: OJICUG_clean_linker_0, # of connection points: 2
#     Edge 87, Type (0, 1), BuildingBlock: OJICUG_clean_linker_0, # of connection points: 2
#     Edge 88, Type (0, 1), BuildingBlock: OJICUG_clean_linker_0, # of connection points: 2
#     Edge 89, Type (0, 1), BuildingBlock: OJICUG_clean_linker_0, # of connection points: 2
#     Edge 90, Type (0, 1), BuildingBlock: OJICUG_clean_linker_0, # of connection points: 2
#     Edge 91, Type (0, 1), BuildingBlock: OJICUG_clean_linker_0, # of connection points: 2
#     Edge 92, Type (0, 1), BuildingBlock: OJICUG_clean_linker_0, # of connection points: 2
#     Edge 93, Type (0, 1), BuildingBlock: OJICUG_clean_linker_0, # of connection points: 2
#     Edge 94, Type (0, 1), BuildingBlock: OJICUG_clean_linker_0, # of connection points: 2
#     Edge 95, Type (0, 1), BuildingBlock: OJICUG_clean_linker_0, # of connection points: 2
#     Edge 96, Type (0, 1), BuildingBlock: OJICUG_clean_linker_0, # of connection points: 2
#     Edge 97, Type (0, 1), BuildingBlock: OJICUG_clean_linker_0, # of connection points: 2
#     Edge 98, Type (0, 1), BuildingBlock: OJICUG_clean_linker_0, # of connection points: 2
#     Edge 99, Type (0, 1), BuildingBlock: OJICUG_clean_linker_0, # of connection points: 2
#     Edge 100, Type (0, 1), BuildingBlock: OJICUG_clean_linker_0, # of connection points: 2
#     Edge 101, Type (0, 1), BuildingBlock: OJICUG_clean_linker_0, # of connection points: 2
#     Edge 102, Type (0, 1), BuildingBlock: OJICUG_clean_linker_0, # of connection points: 2
#     Edge 103, Type (0, 1), BuildingBlock: OJICUG_clean_linker_0, # of connection points: 2
#     Edge 104, Type (0, 1), BuildingBlock: OJICUG_clean_linker_0, # of connection points: 2
#     Edge 105, Type (0, 1), BuildingBlock: OJICUG_clean_linker_0, # of connection points: 2
#     Edge 106, Type (0, 1), BuildingBlock: OJICUG_clean_linker_0, # of connection points: 2
#     Edge 107, Type (0, 1), BuildingBlock: OJICUG_clean_linker_0, # of connection points: 2
#     Edge 108, Type (0, 1), BuildingBlock: OJICUG_clean_linker_0, # of connection points: 2
#     Edge 109, Type (0, 1), BuildingBlock: OJICUG_clean_linker_0, # of connection points: 2
#     Edge 110, Type (0, 1), BuildingBlock: OJICUG_clean_linker_0, # of connection points: 2
#     Edge 111, Type (0, 1), BuildingBlock: OJICUG_clean_linker_0, # of connection points: 2
#     Edge 112, Type (0, 1), BuildingBlock: OJICUG_clean_linker_0, # of connection points: 2
#     Edge 113, Type (0, 1), BuildingBlock: OJICUG_clean_linker_0, # of connection points: 2
#     Edge 114, Type (0, 1), BuildingBlock: OJICUG_clean_linker_0, # of connection points: 2
#     Edge 115, Type (0, 1), BuildingBlock: OJICUG_clean_linker_0, # of connection points: 2
#     Edge 116, Type (0, 1), BuildingBlock: OJICUG_clean_linker_0, # of connection points: 2
#     Edge 117, Type (0, 1), BuildingBlock: OJICUG_clean_linker_0, # of connection points: 2
#     Edge 118, Type (0, 1), BuildingBlock: OJICUG_clean_linker_0, # of connection points: 2
#     Edge 119, Type (0, 1), BuildingBlock: OJICUG_clean_linker_0, # of connection points: 2
#     Edge 120, Type (0, 1), BuildingBlock: OJICUG_clean_linker_0, # of connection points: 2
#     Edge 121, Type (0, 1), BuildingBlock: OJICUG_clean_linker_0, # of connection points: 2
#     Edge 122, Type (0, 1), BuildingBlock: OJICUG_clean_linker_0, # of connection points: 2
#     Edge 123, Type (0, 1), BuildingBlock: OJICUG_clean_linker_0, # of connection points: 2
#     Edge 124, Type (0, 1), BuildingBlock: OJICUG_clean_linker_0, # of connection points: 2
#     Edge 125, Type (0, 1), BuildingBlock: OJICUG_clean_linker_0, # of connection points: 2
#     Edge 126, Type (0, 1), BuildingBlock: OJICUG_clean_linker_0, # of connection points: 2
#     Edge 127, Type (0, 1), BuildingBlock: OJICUG_clean_linker_0, # of connection points: 2
#     Edge 128, Type (0, 1), BuildingBlock: OJICUG_clean_linker_0, # of connection points: 2
#     Edge 129, Type (0, 1), BuildingBlock: OJICUG_clean_linker_0, # of connection points: 2
#     Edge 130, Type (0, 1), BuildingBlock: OJICUG_clean_linker_0, # of connection points: 2
#     Edge 131, Type (0, 1), BuildingBlock: OJICUG_clean_linker_0, # of connection points: 2
#     Edge 132, Type (0, 1), BuildingBlock: OJICUG_clean_linker_0, # of connection points: 2
#     Edge 133, Type (0, 1), BuildingBlock: OJICUG_clean_linker_0, # of connection points: 2
#     Edge 134, Type (0, 1), BuildingBlock: OJICUG_clean_linker_0, # of connection points: 2
#     Edge 135, Type (0, 1), BuildingBlock: OJICUG_clean_linker_0, # of connection points: 2
# Relax obj value: 0.329
# Max RMSD: 0.288
# Mean RMSD: 0.183
data_MOF--net-iac--node1-GALJAG_clean_sbu_0--node2-VOLQOD_clean_sbu_1--edge1-OJICUG_clean_linker_0
_symmetry_space_group_name_H-M    P1
_symmetry_Int_Tables_number       1
_symmetry_cell_setting            triclinic
loop_
_symmetry_equiv_pos_as_xyz
'x, y, z'
_cell_length_a     41.127769
_cell_length_b     41.117872
_cell_length_c     41.125009
_cell_angle_alpha  90.033967
_cell_angle_beta   90.026161
_cell_angle_gamma 90.525426
loop_
_atom_site_label
_atom_site_type_symbol
_atom_site_fract_x
_atom_site_fract_y
_atom_site_fract_z
_atom_type_partial_charge
In0 In 0.98664 0.23876 0.15623 0.0
O1 O 0.97202 0.20949 0.11226 0.0
O2 O 0.99102 0.18407 0.15338 0.0
C3 C 0.0181 0.27974 0.11669 0.0
C4 C 0.92607 0.24123 0.17899 0.0
C5 C 0.0273 0.25201 0.20481 0.0
O6 O 0.02581 0.2502 0.11873 0.0
O7 O -0.00636 0.28814 0.13318 0.0
O8 O 0.00597 0.27172 0.19536 0.0
O9 O 0.02691 0.22456 0.19083 0.0
C10 C 0.97895 0.18256 0.12511 0.0
O11 O 0.94934 0.22994 0.19522 0.0
O12 O 0.93351 0.25275 0.15148 0.0
In13 In 0.01672 0.75278 0.40465 0.0
O14 O 0.05436 0.73017 0.37103 0.0
O15 O 0.06356 0.7776 0.38981 0.0
C16 C 0.97793 0.76257 0.3532 0.0
C17 C 0.00685 0.701 0.44346 0.0
C18 C 0.00634 0.80093 0.44713 0.0
O19 O 0.98542 0.73435 0.36257 0.0
O20 O 0.99004 0.78546 0.36972 0.0
O21 O 0.03349 0.78697 0.4449 0.0
O22 O 0.98443 0.78991 0.42862 0.0
C23 C 0.07293 0.75474 0.37175 0.0
O24 O 0.98408 0.71539 0.42905 0.0
O25 O 0.03484 0.7124 0.43791 0.0
In26 In 0.49846 0.75954 0.62277 0.0
O27 O 0.52517 0.801 0.59906 0.0
O28 O 0.47608 0.80926 0.61335 0.0
C29 C 0.4802 0.72759 0.56932 0.0
C30 C 0.55418 0.75863 0.65542 0.0
C31 C 0.45999 0.73002 0.66622 0.0
O32 O 0.4619 0.74755 0.58354 0.0
O33 O 0.50821 0.7245 0.58163 0.0
O34 O 0.47654 0.71426 0.64588 0.0
O35 O 0.46292 0.76067 0.66474 0.0
C36 C 0.50182 0.82045 0.60059 0.0
O37 O 0.52845 0.76992 0.66752 0.0
O38 O 0.55139 0.74627 0.62735 0.0
In39 In 0.51486 0.25534 0.88717 0.0
O40 O 0.55611 0.23748 0.85532 0.0
O41 O 0.56138 0.28393 0.87747 0.0
C42 C 0.47561 0.2564 0.83482 0.0
C43 C 0.50818 0.20293 0.92559 0.0
C44 C 0.50107 0.30165 0.93108 0.0
O45 O 0.48342 0.23024 0.84872 0.0
O46 O 0.48762 0.28182 0.84732 0.0
O47 O 0.48378 0.29691 0.90617 0.0
O48 O 0.5253 0.28323 0.93361 0.0
C49 C 0.57359 0.26244 0.85946 0.0
O50 O 0.53543 0.21246 0.91514 0.0
O51 O 0.48426 0.21936 0.91597 0.0
In52 In 0.14832 0.0204 0.25034 0.0
O53 O 0.19137 -0.00647 0.22929 0.0
O54 O 0.18042 0.987 0.27953 0.0
C55 C 0.1823 0.07585 0.24288 0.0
C56 C 0.1054 -0.00074 0.20543 0.0
C57 C 0.10967 0.02398 0.30282 0.0
O58 O 0.18065 0.06047 0.26927 0.0
O59 O 0.1662 0.06353 0.21967 0.0
O60 O 0.12053 0.04886 0.28843 0.0
O61 O 0.11816 -0.00283 0.29068 0.0
C62 C 0.19874 0.98022 0.25589 0.0
O63 O 0.12975 0.98298 0.21391 0.0
O64 O 0.10329 0.02688 0.21864 0.0
In65 In 0.27191 0.8637 0.53106 0.0
O66 O 0.23075 0.89083 0.50714 0.0
O67 O 0.23667 0.89572 0.55853 0.0
C68 C 0.31621 0.91143 0.52668 0.0
C69 C 0.26288 0.81713 0.5754 0.0
C70 C 0.28521 0.82253 0.48281 0.0
O71 O 0.30099 0.90012 0.50255 0.0
O72 O 0.30971 0.89804 0.55368 0.0
O73 O 0.25685 0.83276 0.48833 0.0
O74 O 0.3071 0.83349 0.50141 0.0
C75 C 0.22114 0.90367 0.53332 0.0
O76 O 0.2901 0.83132 0.57193 0.0
O77 O 0.24028 0.82754 0.55766 0.0
In78 In 0.3515 0.98651 0.74017 0.0
O79 O 0.32781 0.01446 0.69894 0.0
O80 O 0.3106 0.0223 0.74717 0.0
C81 C 0.32294 0.92782 0.73315 0.0
C82 C 0.40413 0.01001 0.70946 0.0
C83 C 0.37558 0.98406 0.80083 0.0
O84 O 0.30945 0.95083 0.74804 0.0
O85 O 0.34987 0.935 0.72024 0.0
O86 O 0.38484 0.96531 0.7786 0.0
O87 O 0.35389 0.00389 0.79259 0.0
C88 C 0.30936 0.03033 0.71755 0.0
O89 O 0.38782 0.02697 0.72896 0.0
O90 O 0.39397 0.98117 0.70546 0.0
In91 In 0.22594 0.12995 0.99179 0.0
O92 O 0.26063 0.11183 0.03061 0.0
O93 O 0.25814 0.08556 0.98605 0.0
C94 C 0.17318 0.0907 0.99217 0.0
C95 C 0.22493 0.18416 0.02852 0.0
C96 C 0.23757 0.15477 0.93239 0.0
O97 O 0.18106 0.10761 0.96784 0.0
O98 O 0.19121 0.09439 0.0167 0.0
O99 O 0.25966 0.14169 0.94911 0.0
O100 O 0.20981 0.15473 0.94539 0.0
C101 C 0.27028 0.08791 0.01422 0.0
O102 O 0.20008 0.1662 0.02511 0.0
O103 O 0.24954 0.175 0.01301 0.0
In104 In 0.78097 0.37136 0.02239 0.0
O105 O 0.75676 0.32319 0.03635 0.0
O106 O 0.75226 0.3638 0.06822 0.0
C107 C 0.80803 0.35538 0.96557 0.0
C108 C 0.73148 0.40926 0.00664 0.0
C109 C 0.83495 0.39101 0.05271 0.0
O110 O 0.80096 0.33427 0.98676 0.0
O111 O 0.80077 0.38417 0.97295 0.0
O112 O 0.81277 0.41029 0.04452 0.0
O113 O 0.8286 0.36132 0.04788 0.0
C114 C 0.7442 0.33488 0.06174 0.0
O115 O 0.75572 0.41992 0.02234 0.0
O116 O 0.7335 0.38018 -0.00301 0.0
In117 In 0.86654 0.4995 0.23172 0.0
O118 O 0.90566 0.52478 0.2019 0.0
O119 O 0.89989 0.47369 0.19567 0.0
C120 C 0.9041 0.50501 0.28465 0.0
C121 C 0.82574 0.54947 0.22364 0.0
C122 C 0.82519 0.44879 0.23885 0.0
O123 O 0.90416 0.48016 0.26671 0.0
O124 O 0.88511 0.52725 0.27577 0.0
O125 O 0.84248 0.46008 0.26148 0.0
O126 O 0.8291 0.46262 0.21166 0.0
C127 C 0.91577 0.49918 0.18861 0.0
O128 O 0.84176 0.53765 0.20034 0.0
O129 O 0.82978 0.53556 0.25063 0.0
In130 In 0.72313 0.60926 0.50079 0.0
O131 O 0.75233 0.56753 0.48014 0.0
O132 O 0.74628 0.56969 0.53145 0.0
C133 C 0.66357 0.58152 0.50163 0.0
C134 C 0.74261 0.6533 0.5455 0.0
C135 C 0.73343 0.64632 0.44769 0.0
O136 O 0.67712 0.5921 0.52714 0.0
O137 O 0.6798 0.58538 0.47593 0.0
O138 O 0.75534 0.62909 0.46023 0.0
O139 O 0.70618 0.6446 0.46167 0.0
C140 C 0.75872 0.55523 0.50753 0.0
O141 O 0.71385 0.6526 0.53464 0.0
O142 O 0.76093 0.63178 0.53414 0.0
In143 In 0.59504 0.51633 0.75911 0.0
O144 O 0.62524 0.48295 0.72648 0.0
O145 O 0.63149 0.4798 0.77767 0.0
C146 C 0.6382 0.56544 0.759 0.0
C147 C 0.54514 0.5162 0.71713 0.0
C148 C 0.56173 0.51826 0.81509 0.0
O149 O 0.62677 0.55328 0.7847 0.0
O150 O 0.6271 0.55351 0.7329 0.0
O151 O 0.57044 0.54343 0.79981 0.0
O152 O 0.56925 0.49162 0.80177 0.0
C153 C 0.64055 0.47058 0.74988 0.0
O154 O 0.55551 0.49059 0.73027 0.0
O155 O 0.56013 0.54194 0.72503 0.0
In156 In 0.00446 0.72411 0.88608 0.0
O157 O 0.03715 0.73985 0.84427 0.0
O158 O 0.05897 0.72099 0.88724 0.0
C159 C 0.95185 0.71448 0.84871 0.0
C160 C 0.00413 0.66542 0.91388 0.0
C161 C 0.00268 0.77997 0.92003 0.0
O162 O 0.98015 0.71602 0.83697 0.0
O163 O 0.95017 0.71859 0.87909 0.0
O164 O 0.01453 0.75435 0.93168 0.0
O165 O 0.99086 0.777 0.89188 0.0
C166 C 0.06293 0.7324 0.85906 0.0
O167 O 0.9912 0.68966 0.9274 0.0
O168 O 0.01706 0.67101 0.88665 0.0
In169 In 0.02104 0.27084 0.61757 0.0
O170 O 0.98532 0.27323 0.57627 0.0
O171 O 0.02713 0.30459 0.57459 0.0
C172 C 0.04331 0.21301 0.59903 0.0
C173 C 0.06989 0.28315 0.65813 0.0
C174 C 0.96965 0.29134 0.65101 0.0
O175 O 0.05258 0.23918 0.58588 0.0
O176 O 0.02197 0.21594 0.621 0.0
O177 O -0.0051 0.30871 0.64774 0.0
O178 O 0.97077 0.26322 0.63856 0.0
C179 C 0.00084 0.29516 0.56134 0.0
O180 O 0.0483 0.26184 0.66368 0.0
O181 O 0.066 0.29963 0.63237 0.0
In182 In 0.46143 0.27766 0.38265 0.0
O183 O 0.49541 0.30495 0.34828 0.0
O184 O 0.51574 0.27052 0.38091 0.0
C185 C 0.42449 0.27953 0.32891 0.0
C186 C 0.45222 0.21942 0.4104 0.0
C187 C 0.45507 0.31935 0.43224 0.0
O188 O 0.43071 0.3045 0.34575 0.0
O189 O 0.4354 0.2533 0.34016 0.0
O190 O 0.48201 0.30761 0.42397 0.0
O191 O 0.43109 0.31043 0.41506 0.0
C192 C 0.52051 0.2909 0.35845 0.0
O193 O 0.4359 0.24386 0.41878 0.0
O194 O 0.47227 0.22439 0.38768 0.0
In195 In 0.52919 0.76056 0.13243 0.0
O196 O 0.55527 0.7307 0.09363 0.0
O197 O 0.53597 0.70632 0.13507 0.0
C198 C 0.50069 0.80472 0.09493 0.0
C199 C 0.47658 0.75536 0.17006 0.0
C200 C 0.58153 0.78173 0.16456 0.0
O201 O 0.50628 0.77644 0.08457 0.0
O202 O 0.5118 0.8112 0.12278 0.0
O203 O 0.55964 0.76417 0.17699 0.0
O204 O 0.57712 0.78925 0.13508 0.0
C205 C 0.55165 0.70431 0.10883 0.0
O206 O 0.50364 0.76513 0.18072 0.0
O207 O 0.47655 0.74588 0.14083 0.0
In208 In 0.87324 0.02025 0.75723 0.0
O209 O 0.92185 0.0109 0.73308 0.0
O210 O 0.882 0.02626 0.70373 0.0
C211 C 0.89258 0.01841 0.81903 0.0
C212 C 0.84871 0.08006 0.76013 0.0
C213 C 0.84557 0.96286 0.74361 0.0
O214 O 0.91136 0.02694 0.79625 0.0
O215 O 0.86425 0.00996 0.81046 0.0
O216 O 0.83037 0.98912 0.73918 0.0
O217 O 0.87326 0.96595 0.75648 0.0
C218 C 0.91113 0.01692 0.70496 0.0
O219 O 0.83055 0.05507 0.76109 0.0
O220 O 0.87856 0.07457 0.75628 0.0
In221 In 0.77196 0.14196 0.51548 0.0
O222 O 0.80113 0.0962 0.50391 0.0
O223 O 0.82688 0.1397 0.5155 0.0
C224 C 0.71369 0.11574 0.52894 0.0
C225 C 0.77107 0.18116 0.56742 0.0
C226 C 0.76547 0.16634 0.4557 0.0
O227 O 0.73966 0.10067 0.53512 0.0
O228 O 0.71753 0.143 0.51539 0.0
O229 O 0.77875 0.18225 0.47841 0.0
O230 O 0.75567 0.13818 0.46322 0.0
C231 C 0.82829 0.11044 0.5065 0.0
O232 O 0.77113 0.19198 0.53875 0.0
O233 O 0.77373 0.15068 0.56987 0.0
In234 In 0.61849 0.97739 0.25842 0.0
O235 O 0.67095 0.96417 0.26821 0.0
O236 O 0.63645 0.92545 0.26791 0.0
C237 C 0.63569 0.0385 0.24314 0.0
C238 C 0.58015 0.97023 0.20566 0.0
C239 C 0.59306 0.98161 0.3181 0.0
O240 O 0.65277 0.01446 0.23499 0.0
O241 O 0.61045 0.03156 0.25919 0.0
O242 O 0.58191 0.96175 0.29733 0.0
O243 O 0.61672 -0.00117 0.30856 0.0
C244 C 0.66558 0.93432 0.27256 0.0
O245 O 0.56879 0.97322 0.23393 0.0
O246 O 0.61065 0.96744 0.20446 0.0
In247 In 0.7206 0.86338 0.01264 0.0
O248 O 0.69427 0.91042 0.0017 0.0
O249 O 0.66576 0.86745 0.00895 0.0
C250 C 0.7757 0.89272 0.03171 0.0
C251 C 0.72418 0.82587 0.06564 0.0
C252 C 0.72653 0.83889 0.95276 0.0
O253 O 0.74845 0.90617 0.03549 0.0
O254 O 0.77496 0.86616 0.01638 0.0
O255 O 0.70953 0.82504 0.97434 0.0
O256 O 0.74069 0.86479 0.96161 0.0
C257 C 0.66638 0.89736 0.00189 0.0
O258 O 0.73254 0.81578 0.03796 0.0
O259 O 0.70985 0.8529 0.0655 0.0
In260 In 0.27557 0.63812 0.03461 0.0
O261 O 0.23909 0.66544 0.06518 0.0
O262 O 0.2881 0.68264 0.06494 0.0
C263 C 0.28962 0.66361 0.9759 0.0
C264 C 0.32614 0.60107 0.05111 0.0
C265 C 0.22774 0.59391 0.0355 0.0
O266 O 0.26645 0.67389 -0.00704 0.0
O267 O 0.30504 0.64045 0.98816 0.0
O268 O 0.23562 0.60932 0.01002 0.0
O269 O 0.24309 0.60189 0.06091 0.0
C270 C 0.25935 0.68639 0.07498 0.0
O271 O 0.30249 0.59107 0.03443 0.0
O272 O 0.32395 0.63009 0.06105 0.0
In273 In 0.11111 0.4602 0.7462 0.0
O274 O 0.14843 0.43012 0.77266 0.0
O275 O 0.14577 0.4249 0.7212 0.0
C276 C 0.15187 0.5119 0.74435 0.0
C277 C 0.0635 0.46631 0.7014 0.0
C278 C 0.07561 0.44849 0.7998 0.0
O279 O 0.14619 0.49476 0.7195 0.0
O280 O 0.1362 0.50357 0.76943 0.0
O281 O 0.08542 0.4258 0.78171 0.0
O282 O 0.08292 0.47681 0.79023 0.0
C283 C 0.1599 0.41725 0.74742 0.0
O284 O 0.07467 0.48975 0.71778 0.0
O285 O 0.07665 0.43924 0.70719 0.0
In286 In 0.23728 0.3831 0.50176 0.0
O287 O 0.28187 0.35877 0.52307 0.0
O288 O 0.23559 0.33659 0.53162 0.0
C289 C 0.24773 0.35841 0.4427 0.0
C290 C 0.17504 0.40188 0.49985 0.0
C291 C 0.26038 0.44015 0.5237 0.0
O292 O 0.22839 0.34557 0.46291 0.0
O293 O 0.26257 0.38367 0.45259 0.0
O294 O 0.26025 0.43263 0.49391 0.0
O295 O 0.24999 0.41834 0.54267 0.0
C296 C 0.26607 0.33553 0.53566 0.0
O297 O 0.18768 0.39122 0.52572 0.0
O298 O 0.19317 0.40128 0.47528 0.0
In299 In 0.36756 0.50266 0.23518 0.0
O300 O 0.40027 0.46047 0.22062 0.0
O301 O 0.41403 0.50892 0.2071 0.0
C302 C 0.38934 0.50137 0.29632 0.0
C303 C 0.34145 0.56169 0.23654 0.0
C304 C 0.31689 0.47435 0.20605 0.0
O305 O 0.39782 0.52263 0.27596 0.0
O306 O 0.36969 0.47995 0.28579 0.0
O307 O 0.33885 0.48854 0.18971 0.0
O308 O 0.32168 0.47301 0.23639 0.0
C309 C 0.42118 0.47909 0.20773 0.0
O310 O 0.32947 0.53772 0.2515 0.0
O311 O 0.36663 0.55588 0.21989 0.0
O312 O 0.97313 0.05882 0.03195 0.0
Zn313 Zn 0.98538 0.02159 0.0035 0.0
O314 O 0.97851 0.98057 0.02632 0.0
Zn315 Zn 0.01959 0.95695 0.03117 0.0
Zn316 Zn 0.95782 0.98783 0.0685 0.0
Zn317 Zn 0.94937 0.95524 0.00058 0.0
O318 O 0.01882 0.91287 0.00785 0.0
O319 O 0.97076 0.91655 0.98362 0.0
O320 O 0.03226 0.02818 -0.00616 0.0
O321 O 0.05665 0.98437 0.01352 0.0
O322 O 0.03064 0.95276 0.07863 0.0
O323 O 0.98849 0.97494 0.10385 0.0
O324 O 0.9136 0.96557 0.07339 0.0
O325 O 0.96096 0.02466 0.96141 0.0
O326 O 0.91178 0.94032 0.02568 0.0
O327 O 0.93237 0.97879 0.96246 0.0
C328 C 0.96086 0.06059 0.06026 0.0
C329 C -0.0028 0.90172 0.98844 0.0
C330 C 0.01662 0.96229 0.10452 0.0
C331 C 0.05782 0.01203 -0.00043 0.0
C332 C 0.8997 0.94639 0.05332 0.0
C333 C 0.9398 0.00561 0.94909 0.0
O334 O 0.95299 0.0353 0.07629 0.0
O335 O 0.23515 0.74451 0.21016 0.0
Zn336 Zn 0.24556 0.74064 0.25754 0.0
O337 O 0.27663 0.77458 0.26993 0.0
Zn338 Zn 0.31552 0.75618 0.28973 0.0
Zn339 Zn 0.28869 0.80116 0.23309 0.0
Zn340 Zn 0.25625 0.80156 0.3009 0.0
O341 O 0.31746 0.7619 0.33872 0.0
O342 O 0.27428 0.79353 0.34404 0.0
O343 O 0.26639 0.69681 0.26092 0.0
O344 O 0.31585 0.7091 0.27936 0.0
O345 O 0.35626 0.77191 0.2681 0.0
O346 O 0.33557 0.79479 0.22385 0.0
O347 O 0.27907 0.84868 0.23973 0.0
O348 O 0.2039 0.74213 0.28359 0.0
O349 O 0.26028 0.84819 0.29024 0.0
O350 O 0.20964 0.79095 0.30583 0.0
C351 C 0.2462 0.76246 0.18743 0.0
C352 C 0.29756 0.77766 0.35624 0.0
C353 C 0.3596 0.78375 0.23971 0.0
C354 C 0.29526 0.6887 0.26829 0.0
C355 C 0.26858 0.86354 0.26473 0.0
C356 C 0.19266 0.76563 0.30023 0.0
O357 O 0.26651 0.78525 0.19309 0.0
O358 O 0.49512 0.95511 0.52205 0.0
Zn359 Zn 0.48777 -0.00496 0.4963 0.0
O360 O 0.50311 0.03125 0.52201 0.0
Zn361 Zn 0.46567 0.05487 0.53764 0.0
Zn362 Zn 0.53119 0.01738 0.55691 0.0
Zn363 Zn 0.52791 0.05805 0.49454 0.0
O364 O 0.45745 0.09554 0.51045 0.0
O365 O 0.50064 0.09319 0.47807 0.0
O366 O 0.43967 -0.00428 0.49019 0.0
O367 O 0.42673 0.02525 0.5334 0.0
O368 O 0.46925 0.06299 0.58577 0.0
O369 O 0.5097 0.02978 0.59861 0.0
O370 O 0.57623 0.03816 0.55453 0.0
O371 O 0.51122 0.99045 0.45351 0.0
O372 O 0.56659 0.07576 0.51704 0.0
O373 O 0.5437 0.03364 0.45626 0.0
C374 C 0.51415 0.94763 0.54515 0.0
C375 C 0.47382 0.1059 0.48615 0.0
C376 C 0.48624 0.04803 0.60689 0.0
C377 C 0.4192 0.00458 0.51155 0.0
C378 C 0.58482 0.06345 0.53866 0.0
C379 C 0.53426 0.00781 0.44203 0.0
O380 O 0.53267 0.96855 0.55882 0.0
O381 O 0.28241 0.23919 0.80655 0.0
Zn382 Zn 0.29429 0.26806 0.7688 0.0
O383 O 0.2809 0.2484 0.72849 0.0
Zn384 Zn 0.31577 0.22809 0.70461 0.0
Zn385 Zn 0.24493 0.21961 0.73745 0.0
Zn386 Zn 0.26706 0.28546 0.70475 0.0
O387 O 0.31833 0.24449 0.65737 0.0
O388 O 0.28135 0.28348 0.65977 0.0
O389 O 0.34257 0.27252 0.76789 0.0
O390 O 0.35785 0.23711 0.72955 0.0
O391 O 0.30548 0.18003 0.70217 0.0
O392 O 0.25336 0.1761 0.71698 0.0
O393 O 0.20287 0.2396 0.72281 0.0
O394 O 0.27037 0.31092 0.77356 0.0
O395 O 0.21894 0.28775 0.70388 0.0
O396 O 0.28399 0.32598 0.7245 0.0
C397 C 0.25968 0.21816 0.80937 0.0
C398 C 0.30165 0.26679 0.64397 0.0
C399 C 0.27936 0.16341 0.70607 0.0
C400 C 0.36453 0.25683 0.75277 0.0
C401 C 0.19652 0.26752 0.711 0.0
C402 C 0.27042 0.33243 0.75132 0.0
O403 O 0.24194 0.21009 0.78527 0.0
O404 O 0.02353 0.0087 0.43469 0.0
Zn405 Zn 0.00028 -0.00181 0.4767 0.0
O406 O 0.02822 0.01212 0.51167 0.0
Zn407 Zn 0.03644 0.97907 0.54367 0.0
Zn408 Zn 0.06719 0.03451 0.4985 0.0
Zn409 Zn 0.00335 0.04282 0.53256 0.0
O410 O 0.01182 0.98695 0.58584 0.0
O411 O 0.97673 0.02256 0.56625 0.0
O412 O -0.00567 0.94977 0.47987 0.0
O413 O 0.02106 0.93665 0.52511 0.0
O414 O 0.08461 0.97412 0.54987 0.0
O415 O 0.10452 0.00593 0.51059 0.0
O416 O 0.07325 0.07835 0.5215 0.0
O417 O 0.95617 0.02113 0.47817 0.0
O418 O 0.03067 0.0748 0.55432 0.0
O419 O 0.97401 0.06555 0.50277 0.0
C420 C 0.04875 0.02573 0.42789 0.0
C421 C 0.98561 0.00309 0.58835 0.0
C422 C 0.10825 0.98431 0.53246 0.0
C423 C 0.00454 0.92867 0.50009 0.0
C424 C 0.05707 0.08842 0.5459 0.0
C425 C 0.95201 0.05053 0.48707 0.0
O426 O 0.06657 0.03866 0.44988 0.0
O427 O 0.34187 0.71287 0.7595 0.0
Zn428 Zn 0.30183 0.72997 0.7794 0.0
O429 O 0.26537 0.70835 0.75935 0.0
Zn430 Zn 0.23442 0.74033 0.74393 0.0
Zn431 Zn 0.27811 0.67949 0.72417 0.0
Zn432 Zn 0.24614 0.68301 0.79248 0.0
O433 O 0.19318 0.73981 0.76992 0.0
O434 O 0.2059 0.70398 0.80816 0.0
O435 O 0.30209 0.77725 0.76855 0.0
O436 O 0.25369 0.78556 0.74623 0.0
O437 O 0.22571 0.73414 0.69653 0.0
O438 O 0.26758 0.70314 0.683 0.0
O439 O 0.25341 0.63558 0.72614 0.0
O440 O 0.30395 0.72317 0.82806 0.0
O441 O 0.23324 0.64008 0.77593 0.0
O442 O 0.27499 0.67741 0.83037 0.0
C443 C 0.34924 0.69202 0.73793 0.0
C444 C 0.18674 0.72496 0.79632 0.0
C445 C 0.24526 0.72301 0.67537 0.0
C446 C 0.28139 0.79598 0.75553 0.0
C447 C 0.23674 0.62409 0.74979 0.0
C448 C 0.29433 0.69789 0.84321 0.0
O449 O 0.32738 0.67539 0.72315 0.0
O450 O 0.51948 0.01354 0.06729 0.0
Zn451 Zn 0.50962 0.01803 0.01977 0.0
O452 O 0.46795 -0.00324 0.01069 0.0
Zn453 Zn 0.4742 0.95936 0.98187 0.0
Zn454 Zn 0.44587 0.98419 0.0512 0.0
Zn455 Zn 0.44099 0.02691 0.98871 0.0
O456 O 0.45167 0.96387 0.93836 0.0
O457 O 0.43028 0.01274 0.9443 0.0
O458 O 0.5462 -0.00649 -0.00062 0.0
O459 O 0.52176 0.95147 0.97556 0.0
O460 O 0.45915 0.91865 0.00367 0.0
O461 O 0.44108 0.93604 0.05136 0.0
O462 O 0.40065 0.00375 0.05658 0.0
O463 O 0.51123 0.06525 0.00487 0.0
O464 O 0.39897 0.03117 0.01013 0.0
O465 O 0.4611 0.07027 0.98572 0.0
C466 C 0.50442 0.00239 0.09201 0.0
C467 C 0.43503 0.98743 0.92742 0.0
C468 C 0.44762 0.91302 0.0318 0.0
C469 C 0.54748 0.96671 0.98398 0.0
C470 C 0.38573 0.02155 0.03621 0.0
C471 C 0.48886 0.08233 0.99214 0.0
O472 O 0.47512 0.9922 0.08999 0.0
O473 O 0.17301 0.27326 0.25643 0.0
Zn474 Zn 0.22096 0.26896 0.25988 0.0
O475 O 0.24114 0.29064 0.2235 0.0
Zn476 Zn 0.26877 0.26005 0.20146 0.0
Zn477 Zn 0.2099 0.30763 0.19276 0.0
Zn478 Zn 0.2667 0.32538 0.24041 0.0
O479 O 0.31522 0.26473 0.21744 0.0
O480 O 0.31304 0.31403 0.23928 0.0
O481 O 0.22855 0.22122 0.25881 0.0
O482 O 0.25344 0.21459 0.2114 0.0
O483 O 0.26378 0.26416 0.15306 0.0
O484 O 0.21274 0.28169 0.15142 0.0
O485 O 0.21877 0.35489 0.181 0.0
O486 O 0.23444 0.28784 0.30266 0.0
O487 O 0.2599 0.36487 0.21488 0.0
O488 O 0.25786 0.33417 0.28748 0.0
C489 C 0.15432 0.28745 0.23646 0.0
C490 C 0.3289 0.28882 0.23161 0.0
C491 C 0.23715 0.26852 0.1378 0.0
C492 C 0.2392 0.20297 0.23631 0.0
C493 C 0.24059 0.37373 0.19256 0.0
C494 C 0.24716 0.3153 0.3096 0.0
O495 O 0.16511 0.30228 0.21142 0.0
O496 O 0.50141 0.50334 0.96099 0.0
Zn497 Zn 0.49006 0.48855 0.00626 0.0
O498 O 0.52666 0.497 0.0354 0.0
Zn499 Zn 0.54158 0.45587 0.05292 0.0
Zn500 Zn 0.56078 0.52216 0.01357 0.0
Zn501 Zn 0.51375 0.52282 0.07142 0.0
O502 O 0.52928 0.44823 0.10032 0.0
O503 O 0.51213 0.49781 0.11164 0.0
O504 O 0.48114 0.44054 0.0004 0.0
O505 O 0.52178 0.41928 0.02835 0.0
O506 O 0.58899 0.45245 0.0442 0.0
O507 O 0.60193 0.4967 0.01528 0.0
O508 O 0.5693 0.56681 0.03323 0.0
O509 O 0.45024 0.51202 0.02215 0.0
O510 O 0.54216 0.56048 0.07925 0.0
O511 O 0.46931 0.5395 0.06479 0.0
C512 C 0.52584 0.51829 0.94902 0.0
C513 C 0.51813 0.46894 0.1203 0.0
C514 C 0.60934 0.46962 0.02815 0.0
C515 C 0.49764 0.41607 0.00932 0.0
C516 C 0.56148 0.5767 0.06145 0.0
C517 C 0.44641 0.53231 0.04529 0.0
O518 O 0.54976 0.52744 0.96652 0.0
O519 O 0.79039 0.24998 0.25189 0.0
Zn520 Zn 0.75135 0.26556 0.27522 0.0
O521 O 0.71314 0.25249 0.25082 0.0
Zn522 Zn 0.68933 0.29092 0.23752 0.0
Zn523 Zn 0.72375 0.22495 0.21419 0.0
Zn524 Zn 0.687 0.2271 0.27891 0.0
O525 O 0.64922 0.29793 0.26552 0.0
O526 O 0.65188 0.25366 0.29635 0.0
O527 O 0.75703 0.3139 0.27575 0.0
O528 O 0.71871 0.33027 0.24153 0.0
O529 O 0.6788 0.28843 0.19 0.0
O530 O 0.70772 0.24597 0.17394 0.0
O531 O 0.70372 0.17991 0.21732 0.0
O532 O 0.7532 0.24647 0.32012 0.0
O533 O 0.66854 0.18814 0.25728 0.0
O534 O 0.71202 0.21148 0.31673 0.0
C535 C 0.79532 0.23411 0.22588 0.0
C536 C 0.639 0.28065 0.2892 0.0
C537 C 0.69008 0.27039 0.16752 0.0
C538 C 0.74393 0.33599 0.25863 0.0
C539 C 0.67974 0.17049 0.23461 0.0
C540 C 0.73674 0.22276 0.33155 0.0
O541 O 0.77207 0.22276 0.20874 0.0
O542 O -0.00165 0.50705 0.57168 0.0
Zn543 Zn 0.00272 0.51105 0.52357 0.0
O544 O 0.96739 0.48854 0.5018 0.0
Zn545 Zn 0.98484 0.46132 0.46726 0.0
Zn546 Zn 0.94201 0.46313 0.53308 0.0
Zn547 Zn 0.94057 0.52053 0.48215 0.0
O548 O 0.97301 0.47611 0.4225 0.0
O549 O 0.9416 0.518 0.43396 0.0
O550 O 0.04475 0.48846 0.51411 0.0
O551 O 0.03289 0.45777 0.47121 0.0
O552 O 0.97031 0.41552 0.47279 0.0
O553 O 0.94465 0.41628 0.52033 0.0
O554 O 0.89411 0.47589 0.53349 0.0
O555 O 0.00523 0.5585 0.51069 0.0
O556 O 0.89495 0.5135 0.49462 0.0
O557 O 0.95484 0.56546 0.49286 0.0
C558 C 0.98386 0.48623 0.58954 0.0
C559 C 0.95523 0.49954 0.41344 0.0
C560 C 0.95594 0.40092 0.49597 0.0
C561 C 0.05302 0.4682 0.49231 0.0
C562 C 0.87961 0.4958 0.51481 0.0
C563 C 0.98251 0.57695 0.50086 0.0
O564 O 0.96268 0.46652 0.57797 0.0
O565 O 0.78314 0.7437 0.33341 0.0
Zn566 Zn 0.79428 0.77791 0.30034 0.0
O567 O 0.78198 0.76359 0.25866 0.0
Zn568 Zn 0.81439 0.74583 0.23101 0.0
Zn569 Zn 0.74623 0.73437 0.26341 0.0
Zn570 Zn 0.77336 0.80424 0.23734 0.0
O571 O 0.80423 0.76044 0.18481 0.0
O572 O 0.80188 0.81123 0.19951 0.0
O573 O 0.84266 0.78404 0.29742 0.0
O574 O 0.85746 0.75898 0.25115 0.0
O575 O 0.80916 0.69797 0.22933 0.0
O576 O 0.75707 0.69085 0.24278 0.0
O577 O 0.70802 0.75585 0.24292 0.0
O578 O 0.76711 0.81805 0.31081 0.0
O579 O 0.72702 0.80284 0.2226 0.0
O580 O 0.77999 0.84284 0.2654 0.0
C581 C 0.75754 0.72609 0.33485 0.0
C582 C 0.79974 0.79001 0.1774 0.0
C583 C 0.78404 0.67991 0.23226 0.0
C584 C 0.86439 0.77435 0.27742 0.0
C585 C 0.70401 0.78246 0.22746 0.0
C586 C 0.76679 0.84341 0.29312 0.0
O587 O 0.73814 0.72373 0.31075 0.0
O588 O 0.74311 0.24699 0.7063 0.0
Zn589 Zn 0.75005 0.25635 0.75312 0.0
O590 O 0.77687 0.29506 0.7579 0.0
Zn591 Zn 0.81961 0.28283 0.77351 0.0
Zn592 Zn 0.77891 0.31893 0.71665 0.0
Zn593 Zn 0.7576 0.32205 0.78997 0.0
O594 O 0.82942 0.29907 0.81876 0.0
O595 O 0.78759 0.33203 0.82595 0.0
O596 O 0.77318 0.21666 0.76804 0.0
O597 O 0.82399 0.23439 0.77345 0.0
O598 O 0.85306 0.30071 0.74341 0.0
O599 O 0.82602 0.32817 0.70545 0.0
O600 O 0.75099 0.36025 0.71775 0.0
O601 O 0.70779 0.25917 0.77697 0.0
O602 O 0.74347 0.36311 0.77109 0.0
O603 O 0.71707 0.30224 0.8082 0.0
C604 C 0.75138 0.26117 0.68008 0.0
C605 C 0.81454 0.32047 0.83517 0.0
C606 C 0.85255 0.31817 0.7179 0.0
C607 C 0.80322 0.21127 0.77251 0.0
C608 C 0.74023 0.37497 0.74284 0.0
C609 C 0.69917 0.2784 0.79957 0.0
O610 O 0.76464 0.28927 0.68031 0.0
O611 O 0.6821 0.76033 0.74306 0.0
Zn612 Zn 0.72129 0.74615 0.76766 0.0
O613 O 0.76025 0.75429 0.74187 0.0
Zn614 Zn 0.78034 0.71339 0.72884 0.0
Zn615 Zn 0.75038 0.78082 0.70392 0.0
Zn616 Zn 0.7898 0.77795 0.76867 0.0
O617 O 0.82365 0.70577 0.75143 0.0
O618 O 0.82657 0.75072 0.78143 0.0
O619 O 0.71422 0.69869 0.77369 0.0
O620 O 0.75024 0.67639 0.74032 0.0
O621 O 0.78442 0.71095 0.68035 0.0
O622 O 0.76197 0.75678 0.66304 0.0
O623 O 0.77207 0.82545 0.70563 0.0
O624 O 0.72167 0.768 0.81136 0.0
O625 O 0.80614 0.81728 0.74672 0.0
O626 O 0.76958 0.79292 0.80977 0.0
C627 C 0.6784 0.77505 0.71616 0.0
C628 C 0.83764 0.72336 0.77286 0.0
C629 C 0.77475 0.72926 0.65739 0.0
C630 C 0.72594 0.67405 0.75935 0.0
C631 C 0.79565 0.83474 0.7236 0.0
C632 C 0.74296 0.78663 0.82414 0.0
O633 O 0.7025 0.78514 0.69953 0.0
O634 O 0.4561 0.59464 0.49171 0.0
Zn635 Zn 0.4648 0.54769 0.48327 0.0
O636 O 0.44555 0.52129 0.51764 0.0
Zn637 Zn 0.47843 0.49322 0.53556 0.0
Zn638 Zn 0.42569 0.5475 0.55179 0.0
Zn639 Zn 0.41276 0.49418 0.49904 0.0
O640 O 0.47292 0.44706 0.51961 0.0
O641 O 0.42075 0.44742 0.50627 0.0
O642 O 0.51336 0.5447 0.48401 0.0
O643 O 0.52317 0.51013 0.52422 0.0
O644 O 0.47645 0.49425 0.5839 0.0
O645 O 0.44843 0.53911 0.5945 0.0
O646 O 0.37726 0.53844 0.55774 0.0
O647 O 0.44833 0.5352 0.43882 0.0
O648 O 0.36997 0.50466 0.51621 0.0
O649 O 0.41054 0.49859 0.45133 0.0
C650 C 0.44319 0.60949 0.51551 0.0
C651 C 0.44706 0.43219 0.51079 0.0
C652 C 0.46607 0.51551 0.60377 0.0
C653 C 0.5331 0.53007 0.50266 0.0
C654 C 0.35882 0.52155 0.53936 0.0
C655 C 0.4262 0.51505 0.4304 0.0
O656 O 0.43134 0.59439 0.5399 0.0
O657 O 0.04949 0.38975 0.02208 0.0
Zn658 Zn 0.02676 0.42734 0.00176 0.0
O659 O 0.04353 0.46759 0.019 0.0
Zn660 Zn 0.00914 0.49675 0.03186 0.0
Zn661 Zn 0.06907 0.46053 0.05763 0.0
Zn662 Zn 0.0681 0.48754 0.98582 0.0
O663 O 0.00234 0.53325 0.00065 0.0
O664 O 0.04749 0.52866 0.97165 0.0
O665 O 0.98112 0.42246 0.01743 0.0
O666 O 0.96858 0.47081 0.03801 0.0
O667 O 0.0177 0.51621 0.07543 0.0
O668 O 0.04111 0.47293 0.09618 0.0
O669 O 0.11131 0.48693 0.05492 0.0
O670 O 0.02934 0.42563 0.95233 0.0
O671 O 0.11158 0.49871 0.00206 0.0
O672 O 0.06954 0.46148 0.94551 0.0
C673 C 0.06659 0.38743 0.04779 0.0
C674 C 0.0213 0.54335 0.97838 0.0
C675 C 0.02297 0.49763 0.09945 0.0
C676 C 0.96149 0.44122 0.03208 0.0
C677 C 0.12509 0.49926 0.02986 0.0
C678 C 0.0501 0.44008 0.93429 0.0
O679 O 0.07628 0.4126 0.0633 0.0
C680 C 0.96773 0.15079 0.0748 0.0
C681 C 0.97232 0.15164 0.10861 0.0
H682 H 0.96024 0.12093 0.03275 0.0
C683 C 0.97003 0.1228 0.12662 0.0
H684 H 0.96916 0.17285 0.06046 0.0
C685 C 0.96409 0.09332 0.11094 0.0
C686 C 0.961 0.09219 0.07692 0.0
H687 H 0.97306 0.12297 0.1528 0.0
H688 H 0.96345 0.07128 0.12536 0.0
C689 C 0.96244 0.1212 0.059 0.0
C690 C 0.11384 0.73093 0.33366 0.0
C691 C 0.10279 0.75727 0.35229 0.0
H692 H 0.15108 0.71287 0.30215 0.0
C693 C 0.12032 0.78664 0.35197 0.0
H694 H 0.10054 0.70807 0.33334 0.0
C695 C 0.1488 0.78951 0.33401 0.0
C696 C 0.16057 0.76298 0.31607 0.0
H697 H 0.11219 0.80747 0.36581 0.0
H698 H 0.1619 0.81247 0.33479 0.0
C699 C 0.1426 0.73374 0.31568 0.0
C700 C 0.53529 0.86883 0.58629 0.0
C701 C 0.50471 0.85337 0.58743 0.0
H702 H 0.56226 0.91142 0.57221 0.0
C703 C 0.47748 0.86888 0.57448 0.0
H704 H 0.55661 0.85716 0.59623 0.0
C705 C 0.48092 0.89928 0.55991 0.0
C706 C 0.51147 0.91488 0.55891 0.0
H707 H 0.45375 0.85722 0.57497 0.0
H708 H 0.45955 0.91086 0.54996 0.0
C709 C 0.53857 0.89967 0.57255 0.0
C710 C 0.44173 0.22905 0.79212 0.0
C711 C 0.45153 0.25758 0.80833 0.0
H712 H 0.40663 0.20674 0.76043 0.0
C713 C 0.43583 0.28692 0.80131 0.0
H714 H 0.45366 0.20617 0.79693 0.0
C715 C 0.40882 0.28716 0.78082 0.0
C716 C 0.39754 0.25821 0.76645 0.0
H717 H 0.443 0.30932 0.81332 0.0
H718 H 0.39563 0.30964 0.77765 0.0
C719 C 0.41507 0.22943 0.77101 0.0
C720 C 0.97676 0.85222 0.45777 0.0
C721 C 0.00198 0.83092 0.46595 0.0
H722 H 0.95786 0.90033 0.46225 0.0
C723 C 0.02516 0.84047 0.48916 0.0
H724 H 0.95853 0.84539 0.43994 0.0
C725 C 0.02441 0.87171 0.50235 0.0
C726 C 0.00087 0.894 0.49196 0.0
H727 H 0.04472 0.82436 0.49595 0.0
H728 H 0.0436 0.87906 0.51893 0.0
C729 C 0.97641 0.88367 0.47043 0.0
C730 C 0.41784 0.68767 0.67766 0.0
C731 C 0.43679 0.7142 0.6883 0.0
H732 H 0.37467 0.65919 0.68551 0.0
C733 C 0.43081 0.72794 0.71878 0.0
H734 H 0.42232 0.6766 0.65419 0.0
C735 C 0.40438 0.71733 0.73717 0.0
C736 C 0.38269 0.69367 0.72475 0.0
H737 H 0.44557 0.74804 0.72764 0.0
H738 H 0.39938 0.7299 0.75976 0.0
C739 C 0.3907 0.67761 0.69567 0.0
C740 C 0.53121 0.15494 0.95479 0.0
C741 C 0.50435 0.17424 0.94663 0.0
H742 H 0.54748 0.11046 0.97637 0.0
C743 C 0.47335 0.16521 0.95769 0.0
H744 H 0.55546 0.16162 0.94682 0.0
C745 C 0.46887 0.13629 0.97468 0.0
C746 C 0.4953 0.11578 0.98096 0.0
H747 H 0.45229 0.17988 0.95221 0.0
H748 H 0.44439 0.1293 0.98167 0.0
C749 C 0.52672 0.12587 0.97194 0.0
C750 C 0.06544 0.29587 0.22074 0.0
C751 C 0.05552 0.26319 0.22356 0.0
H752 H 0.10562 0.32931 0.22235 0.0
C753 C 0.07642 0.24057 0.23779 0.0
H754 H 0.04971 0.31379 0.20977 0.0
C755 C 0.10812 0.24976 0.24585 0.0
C756 C 0.11931 0.28136 0.23877 0.0
H757 H 0.06916 0.21529 0.24021 0.0
H758 H 0.12471 0.23128 0.25432 0.0
C759 C 0.09741 0.30479 0.22778 0.0
C760 C 0.08891 0.96113 0.16095 0.0
C761 C 0.08117 0.98674 0.18212 0.0
H762 H 0.07414 0.93276 0.11971 0.0
C763 C 0.0502 0.00057 0.18061 0.0
H764 H 0.11257 0.94981 0.16192 0.0
C765 C 0.02789 0.9902 0.15717 0.0
C766 C 0.03642 0.96627 0.13428 0.0
H767 H 0.04346 0.01996 0.19706 0.0
H768 H 0.00477 0.00253 0.1557 0.0
C769 C 0.06682 0.95118 0.13701 0.0
C770 C 0.26707 0.78427 0.44013 0.0
C771 C 0.29234 0.80219 0.4545 0.0
H772 H 0.2499 0.76083 0.39707 0.0
C773 C 0.32273 0.80427 0.43893 0.0
H774 H 0.24363 0.7819 0.45196 0.0
C775 C 0.32634 0.79215 0.40735 0.0
C776 C 0.29964 0.77773 0.39164 0.0
H777 H 0.34262 0.8179 0.4498 0.0
H778 H 0.34865 0.7971 0.39417 0.0
C779 C 0.27076 0.77197 0.40892 0.0
C780 C 0.45665 0.00421 0.68067 0.0
C781 C 0.43052 0.02376 0.68973 0.0
H782 H 0.49647 -0.00227 0.64833 0.0
C783 C 0.42751 0.05496 0.67628 0.0
H784 H 0.45951 0.9802 0.69109 0.0
C785 C 0.4482 0.06486 0.65113 0.0
C786 C 0.47256 0.04393 0.63982 0.0
H787 H 0.40744 0.07043 0.68309 0.0
H788 H 0.44353 0.08767 0.6389 0.0
C789 C 0.47794 0.01449 0.65636 0.0
C790 C 0.27479 0.18168 0.89242 0.0
C791 C 0.24364 0.17011 0.90062 0.0
H792 H 0.30414 0.20678 0.85724 0.0
C793 C 0.21787 0.17447 0.87871 0.0
H794 H 0.295 0.17878 0.90904 0.0
C795 C 0.22317 0.18993 0.84895 0.0
C796 C 0.25417 0.20206 0.84094 0.0
H797 H 0.19361 0.16575 0.88449 0.0
H798 H 0.20289 0.1928 0.83241 0.0
C799 C 0.27993 0.1979 0.86297 0.0
C800 C 0.09338 0.05373 0.35283 0.0
C801 C 0.09057 0.02611 0.33292 0.0
H802 H 0.08233 0.07515 0.39896 0.0
C803 C 0.07108 -0.00017 0.34303 0.0
H804 H 0.10831 0.07431 0.34553 0.0
C805 C 0.05555 0.00068 0.37319 0.0
C806 C 0.06002 0.02746 0.39399 0.0
H807 H 0.06845 0.97835 0.32794 0.0
H808 H 0.04156 0.97962 0.38096 0.0
C809 C 0.07857 0.05422 0.38334 0.0
C810 C 0.28398 0.77134 0.60855 0.0
C811 C 0.25767 0.78997 0.59797 0.0
H812 H 0.30025 0.73394 0.64045 0.0
C813 C 0.22621 0.78247 0.6091 0.0
H814 H 0.30836 0.77631 0.59978 0.0
C815 C 0.2215 0.75837 0.63253 0.0
C816 C 0.24811 0.74094 0.64457 0.0
H817 H 0.20547 0.79631 0.60091 0.0
H818 H 0.19737 0.75453 0.64245 0.0
C819 C 0.27918 0.74671 0.63137 0.0
C820 C 0.41323 0.96039 0.84206 0.0
C821 C 0.39005 0.98381 0.83348 0.0
H822 H 0.44578 0.94302 0.87877 0.0
C823 C 0.38147 0.00776 0.85602 0.0
H824 H 0.42022 0.94162 0.82502 0.0
C825 C 0.39618 0.00871 0.88644 0.0
C826 C 0.41966 0.98558 0.89509 0.0
H827 H 0.36367 0.02608 0.85004 0.0
H828 H 0.38903 0.02769 0.9032 0.0
C829 C 0.42785 0.96119 0.87274 0.0
C830 C 0.19907 0.22096 0.06919 0.0
C831 C 0.22679 0.21101 0.05215 0.0
H832 H 0.18058 0.24793 0.10954 0.0
C833 C 0.25726 0.22437 0.06041 0.0
H834 H 0.17528 0.21118 0.06313 0.0
C835 C 0.26039 0.24502 0.08713 0.0
C836 C 0.23303 0.2531 0.1057 0.0
H837 H 0.27905 0.21732 0.04751 0.0
H838 H 0.28444 0.25338 0.09419 0.0
C839 C 0.20213 0.24211 0.09564 0.0
C840 C 0.14271 0.04323 0.01496 0.0
C841 C 0.14509 0.06833 0.99193 0.0
H842 H 0.11337 0.00475 0.03468 0.0
C843 C 0.12016 0.07222 0.969 0.0
H844 H 0.16186 0.03952 0.03264 0.0
C845 C 0.09235 0.05258 0.97035 0.0
C846 C 0.08938 0.02826 -0.00583 0.0
H847 H 0.12157 0.09128 0.95086 0.0
H848 H 0.07273 0.05707 0.95339 0.0
C849 C 0.1152 0.02309 0.01585 0.0
C850 C 0.69918 0.45975 0.01384 0.0
C851 C 0.70047 0.42637 0.00672 0.0
H852 H 0.66862 0.50004 0.02605 0.0
C853 C 0.67161 0.40805 0.00502 0.0
H854 H 0.72126 0.47424 0.01546 0.0
C855 C 0.64207 0.42236 0.01229 0.0
C856 C 0.64081 0.45541 0.02049 0.0
H857 H 0.67196 0.3822 -0.00012 0.0
H858 H 0.62016 0.40752 0.01167 0.0
C859 C 0.66932 0.47436 0.02018 0.0
C860 C 0.77937 0.41228 0.2209 0.0
C861 C 0.80247 0.42141 0.2444 0.0
H862 H 0.74187 0.37833 0.20741 0.0
C863 C 0.80395 0.40407 0.27378 0.0
H864 H 0.77756 0.42544 0.19818 0.0
C865 C 0.78375 0.3772 0.27904 0.0
C866 C 0.76129 0.36736 0.25522 0.0
H867 H 0.82137 0.4107 0.29247 0.0
H868 H 0.78627 0.36364 0.30146 0.0
C869 C 0.75874 0.38557 0.22637 0.0
C870 C 0.79853 0.52525 0.54202 0.0
C871 C 0.78391 0.53032 0.51149 0.0
H872 H 0.84127 0.50926 0.56724 0.0
C873 C 0.79765 0.51615 0.48378 0.0
H874 H 0.78827 0.5358 0.56382 0.0
C875 C 0.82768 0.501 0.48584 0.0
C876 C 0.84426 0.49962 0.51564 0.0
H877 H 0.78669 0.51929 0.46003 0.0
H878 H 0.83933 0.49302 0.46362 0.0
C879 C 0.82872 0.50993 0.54408 0.0
C880 C 0.2066 0.12125 0.21013 0.0
C881 C 0.20055 0.10666 0.24039 0.0
H882 H 0.22481 0.16332 0.18508 0.0
C883 C 0.2111 0.12233 0.26891 0.0
H884 H 0.19895 0.10947 0.1878 0.0
C885 C 0.22555 0.15303 0.2674 0.0
C886 C 0.23028 0.16833 0.23731 0.0
H887 H 0.20695 0.11152 0.29258 0.0
H888 H 0.23199 0.1653 0.28986 0.0
C889 C 0.22169 0.15182 0.20858 0.0
C890 C 0.35165 0.94585 0.49165 0.0
C891 C 0.34018 0.93789 0.52285 0.0
H892 H 0.38563 0.97371 0.46355 0.0
C893 C 0.3521 0.95505 0.54987 0.0
H894 H 0.34267 0.93313 0.47033 0.0
C895 C 0.37616 0.97892 0.54584 0.0
C896 C 0.38901 0.98545 0.5148 0.0
H897 H 0.34335 0.94958 0.57412 0.0
H898 H 0.38603 0.99083 0.56723 0.0
C899 C 0.37606 0.9692 0.48769 0.0
C900 C 0.81728 0.60294 0.19711 0.0
C901 C 0.80831 0.58042 0.22116 0.0
H902 H 0.81655 0.65277 0.1821 0.0
C903 C 0.78654 0.58976 0.24572 0.0
H904 H 0.83407 0.59636 0.17796 0.0
C905 C 0.77594 0.6219 0.24765 0.0
C906 C 0.78765 0.6451 0.22549 0.0
H907 H 0.77921 0.57271 0.26447 0.0
H908 H 0.76082 0.62911 0.26794 0.0
C909 C 0.80738 0.63519 0.19953 0.0
C910 C 0.6732 0.43136 0.7164 0.0
C911 C 0.66841 0.44878 0.74544 0.0
H912 H 0.7005 0.39398 0.69235 0.0
C913 C 0.69076 0.44543 0.77088 0.0
H914 H 0.65648 0.43397 0.69623 0.0
C915 C 0.71619 0.42358 0.76831 0.0
C916 C 0.71958 0.40404 0.74047 0.0
H917 H 0.68821 0.4592 0.7932 0.0
H918 H 0.73219 0.42068 0.78904 0.0
C919 C 0.6986 0.40889 0.71397 0.0
C920 C 0.02025 0.81538 0.96675 0.0
C921 C 0.00296 0.81122 0.93746 0.0
H922 H 0.03262 0.84792 0.00595 0.0
C923 C 0.98593 0.83749 0.9244 0.0
H924 H 0.03385 0.79548 0.97714 0.0
C925 C 0.98525 0.86705 0.9407 0.0
C926 C 0.00177 0.87119 0.97037 0.0
H927 H 0.97262 0.83511 0.90176 0.0
H928 H 0.97133 0.88666 0.93016 0.0
C929 C 0.01984 0.84534 0.98305 0.0
C930 C 0.94154 0.31646 0.69816 0.0
C931 C 0.94026 0.30352 0.66666 0.0
H932 H 0.91383 0.33142 0.73968 0.0
C933 C 0.91037 0.30088 0.65047 0.0
H934 H 0.96454 0.31878 0.71085 0.0
C935 C 0.88173 0.30952 0.66625 0.0
C936 C 0.8826 0.31981 0.69879 0.0
H937 H 0.90912 0.29126 0.62595 0.0
H938 H 0.85874 0.30554 0.65392 0.0
C939 C 0.91273 0.32396 0.71443 0.0
C940 C 0.43847 0.18623 0.4597 0.0
C941 C 0.4512 0.18837 0.428 0.0
H942 H 0.43565 0.15785 0.50356 0.0
C943 C 0.46693 0.16151 0.41452 0.0
H944 H 0.42615 0.20672 0.47056 0.0
C945 C 0.47233 0.134 0.43318 0.0
C946 C 0.46215 0.13274 0.46576 0.0
H947 H 0.47654 0.16233 0.38999 0.0
H948 H 0.4858 0.11418 0.42242 0.0
C949 C 0.4439 0.15841 0.47856 0.0
C950 C 0.63872 0.80269 0.16705 0.0
C951 C 0.61153 0.78885 0.18253 0.0
H952 H 0.69003 0.81186 0.16979 0.0
C953 C 0.61426 0.77771 0.21468 0.0
H954 H 0.63711 0.8116 0.14232 0.0
C955 C 0.6443 0.77738 0.22998 0.0
C956 C 0.67196 0.78873 0.21362 0.0
H957 H 0.59354 0.76738 0.22741 0.0
H958 H 0.64614 0.76695 0.25411 0.0
C959 C 0.66887 0.80284 0.18269 0.0
C960 C 0.06943 0.17761 0.55736 0.0
C961 C 0.05502 0.18122 0.58816 0.0
H962 H 0.08224 0.14421 0.51946 0.0
C963 C 0.04927 0.15372 0.60742 0.0
H964 H 0.0745 0.19863 0.54227 0.0
C965 C 0.05445 0.12288 0.59474 0.0
C966 C 0.06492 0.11909 0.56244 0.0
H967 H 0.03894 0.15595 0.63154 0.0
H968 H 0.04739 0.10193 0.60918 0.0
C969 C 0.07429 0.14656 0.54446 0.0
C970 C 0.57971 0.28129 0.35792 0.0
C971 C 0.55247 0.29513 0.34316 0.0
H972 H 0.62891 0.26669 0.35232 0.0
C973 C 0.55552 0.30948 0.31225 0.0
H974 H 0.57813 0.27059 0.38195 0.0
C975 C 0.5848 0.30722 0.29511 0.0
C976 C 0.61103 0.29056 0.30885 0.0
H977 H 0.53478 0.3205 0.3005 0.0
H978 H 0.58611 0.31633 0.27043 0.0
C979 C 0.60873 0.27907 0.34094 0.0
C980 C 0.48134 0.82961 0.0432 0.0
C981 C 0.48078 0.82805 0.07721 0.0
H982 H 0.47001 0.85813 0.00132 0.0
C983 C 0.46198 0.85013 0.09486 0.0
H984 H 0.49516 0.81223 0.02918 0.0
C985 C 0.44674 0.87565 0.07905 0.0
C986 C 0.45102 0.88007 0.04543 0.0
H987 H 0.4603 0.84855 0.12111 0.0
H988 H 0.43435 0.89359 0.09371 0.0
C989 C 0.46663 0.85566 0.02732 0.0
C990 C 0.89199 0.70873 0.84329 0.0
C991 C 0.92265 0.71014 0.82845 0.0
H992 H 0.84055 0.71107 0.83651 0.0
C993 C 0.9248 0.70977 0.79429 0.0
H994 H 0.8896 0.7086 0.86952 0.0
C995 C 0.89654 0.71069 0.77535 0.0
C996 C 0.86609 0.71192 0.79052 0.0
H997 H 0.94822 0.71061 0.78228 0.0
H998 H 0.89856 0.71294 0.74918 0.0
C999 C 0.86394 0.70979 0.82445 0.0
C1000 C 0.88482 0.00071 0.87623 0.0
C1001 C 0.90314 0.01785 0.85305 0.0
H1002 H 0.88218 0.98356 0.92519 0.0
C1003 C 0.932 0.03374 0.86247 0.0
H1004 H 0.86236 0.98844 0.86957 0.0
C1005 C 0.94306 0.03145 0.89444 0.0
C1006 C 0.92565 0.01278 0.91718 0.0
H1007 H 0.94633 0.04742 0.84502 0.0
H1008 H 0.96597 0.04296 0.9009 0.0
C1009 C 0.89613 -0.00203 0.908 0.0
C1010 C 0.76774 0.23609 0.59322 0.0
C1011 C 0.76492 0.20212 0.59567 0.0
H1012 H 0.7652 0.28179 0.61809 0.0
C1013 C 0.75439 0.18819 0.62496 0.0
H1014 H 0.77541 0.24741 0.57067 0.0
C1015 C 0.74766 0.20778 0.65168 0.0
C1016 C 0.7519 0.24173 0.64989 0.0
H1017 H 0.75137 0.16209 0.62728 0.0
H1018 H 0.74048 0.19605 0.67417 0.0
C1019 C 0.76154 0.25576 0.62021 0.0
C1020 C 0.59288 0.00889 0.37179 0.0
C1021 C 0.57895 0.98592 0.35062 0.0
H1022 H 0.58984 0.03355 0.41716 0.0
C1023 C 0.55105 0.96856 0.3604 0.0
H1024 H 0.61451 0.0225 0.36501 0.0
C1025 C 0.53677 0.9749 0.3906 0.0
C1026 C 0.55017 -0.00123 0.41125 0.0
H1027 H 0.53992 0.95064 0.34449 0.0
H1028 H 0.51486 0.96176 0.39737 0.0
C1029 C 0.57866 0.01526 0.40171 0.0
C1030 C 0.74014 0.83312 0.12318 0.0
C1031 C 0.73933 0.81324 0.0955 0.0
H1032 H 0.76064 0.84214 0.16976 0.0
C1033 C 0.75835 0.78495 0.09489 0.0
H1034 H 0.72608 0.85524 0.12436 0.0
C1035 C 0.7784 0.7772 0.12132 0.0
C1036 C 0.78026 0.79807 0.14833 0.0
H1037 H 0.7585 0.7694 0.07363 0.0
H1038 H 0.79283 0.75532 0.12039 0.0
C1039 C 0.76057 0.82587 0.14903 0.0
C1040 C 0.96217 -0.00031 0.67695 0.0
C1041 C 0.93028 0.01164 0.6754 0.0
H1042 H 0.00493 0.98692 0.65008 0.0
C1043 C 0.91607 0.01764 0.64507 0.0
H1044 H 0.97346 -0.00552 0.70014 0.0
C1045 C 0.93375 0.01301 0.61677 0.0
C1046 C 0.96605 0.00232 0.61817 0.0
H1047 H 0.89137 0.02636 0.64312 0.0
H1048 H 0.9223 0.01863 0.59373 0.0
C1049 C 0.97999 -0.00502 0.64841 0.0
C1050 C 0.74042 0.16336 0.40096 0.0
C1051 C 0.76011 0.18013 0.4233 0.0
H1052 H 0.7176 0.1638 0.35444 0.0
C1053 C 0.77342 0.21054 0.41483 0.0
H1054 H 0.7299 0.13984 0.40687 0.0
C1055 C 0.76654 0.22426 0.38458 0.0
C1056 C 0.74596 0.20788 0.36266 0.0
H1057 H 0.78878 0.22387 0.43169 0.0
H1058 H 0.77665 0.24796 0.37873 0.0
C1059 C 0.73328 0.17716 0.37099 0.0
C1060 C 0.52621 0.97749 0.17821 0.0
C1061 C 0.56031 0.97623 0.17636 0.0
H1062 H 0.48158 0.98704 0.15302 0.0
C1063 C 0.57569 0.98472 0.1471 0.0
H1064 H 0.51374 0.97146 0.20063 0.0
C1065 C 0.55748 -0.00539 0.12032 0.0
C1066 C 0.52333 -0.00428 0.12192 0.0
H1067 H 0.60195 0.98449 0.14505 0.0
H1068 H 0.57026 0.00071 0.09809 0.0
C1069 C 0.50784 0.98683 0.15111 0.0
C1070 C 0.71002 0.80008 0.90888 0.0
C1071 C 0.72986 0.82588 0.91967 0.0
H1072 H 0.69829 0.76755 0.8698 0.0
C1073 C 0.75314 0.8393 0.89856 0.0
H1074 H 0.69175 0.78944 0.9247 0.0
C1075 C 0.75702 0.82672 0.86739 0.0
C1076 C 0.73744 0.8007 0.85659 0.0
H1077 H 0.76871 0.85927 0.90625 0.0
H1078 H 0.77547 0.83738 0.8518 0.0
C1079 C 0.71364 0.78769 0.87747 0.0
C1080 C 0.80951 0.9389 0.05369 0.0
C1081 C 0.80636 0.90606 0.04465 0.0
H1082 H 0.84288 0.97787 0.06484 0.0
C1083 C 0.83351 0.88573 0.04651 0.0
H1084 H 0.78876 0.95491 0.05283 0.0
C1085 C 0.86394 0.89861 0.05399 0.0
C1086 C 0.86776 0.93199 0.05975 0.0
H1087 H 0.8316 0.86013 0.04046 0.0
H1088 H 0.88497 0.88297 0.05249 0.0
C1089 C 0.84025 0.95189 0.06112 0.0
C1090 C 0.35745 0.55162 0.03769 0.0
C1091 C 0.35578 0.58165 0.05395 0.0
H1092 H 0.38759 0.51264 0.02186 0.0
C1093 C 0.38356 0.59422 0.06937 0.0
H1094 H 0.33633 0.54129 0.02563 0.0
C1095 C 0.41294 0.57762 0.06733 0.0
C1096 C 0.41496 0.54846 0.04951 0.0
H1097 H 0.38289 0.61734 0.08199 0.0
H1098 H 0.43429 0.58825 0.07871 0.0
C1099 C 0.38683 0.5353 0.03528 0.0
C1100 C 0.18477 0.55255 0.77473 0.0
C1101 C 0.17565 0.53901 0.7448 0.0
H1102 H 0.21193 0.589 0.79967 0.0
C1103 C 0.18938 0.55166 0.71605 0.0
H1104 H 0.1751 0.54302 0.79734 0.0
C1105 C 0.21074 0.57852 0.7173 0.0
C1106 C 0.21869 0.59284 0.74736 0.0
H1107 H 0.18293 0.54141 0.69263 0.0
H1108 H 0.21997 0.58874 0.69483 0.0
C1109 C 0.20608 0.57892 0.77601 0.0
C1110 C 0.12963 0.43159 0.52641 0.0
C1111 C 0.14308 0.4174 0.49853 0.0
H1112 H 0.09088 0.45995 0.54603 0.0
C1113 C 0.12738 0.42102 0.46845 0.0
H1114 H 0.1416 0.42951 0.54978 0.0
C1115 C 0.09848 0.43829 0.46627 0.0
C1116 C 0.08513 0.45284 0.49403 0.0
H1117 H 0.13747 0.41048 0.44655 0.0
H1118 H 0.08657 0.44025 0.44286 0.0
C1119 C 0.101 0.44947 0.52412 0.0
C1120 C 0.85361 0.90375 0.73647 0.0
C1121 C 0.83305 0.93067 0.73388 0.0
H1122 H 0.85788 0.85218 0.73403 0.0
C1123 C 0.8011 0.92613 0.7225 0.0
H1124 H 0.87858 0.90652 0.74448 0.0
C1125 C 0.78928 0.89469 0.71607 0.0
C1126 C 0.80937 0.8677 0.72106 0.0
H1127 H 0.78493 0.94662 0.71988 0.0
H1128 H 0.76398 0.89137 0.7094 0.0
C1129 C 0.84189 0.87263 0.73015 0.0
C1130 C 0.67604 0.07086 0.5472 0.0
C1131 C 0.68098 0.10285 0.53611 0.0
H1132 H 0.64105 0.03307 0.55729 0.0
C1133 C 0.654 0.12267 0.53038 0.0
H1134 H 0.69651 0.05521 0.55207 0.0
C1135 C 0.62267 0.11021 0.53349 0.0
C1136 C 0.61756 0.07766 0.54246 0.0
H1137 H 0.65702 0.14761 0.52237 0.0
H1138 H 0.6024 0.12578 0.52754 0.0
C1139 C 0.6444 0.05831 0.55044 0.0
C1140 C 0.2065 0.38998 0.72034 0.0
C1141 C 0.18888 0.39652 0.74869 0.0
H1142 H 0.24686 0.36573 0.69914 0.0
C1143 C 0.19997 0.38423 0.77858 0.0
H1144 H 0.19874 0.39951 0.69707 0.0
C1145 C 0.22756 0.36467 0.77988 0.0
C1146 C 0.24485 0.3575 0.75138 0.0
H1147 H 0.18693 0.38919 0.80089 0.0
H1148 H 0.23487 0.35452 0.80303 0.0
C1149 C 0.23436 0.37096 0.72169 0.0
C1150 C 0.29635 0.59862 0.25132 0.0
C1151 C 0.32882 0.59444 0.24167 0.0
H1152 H 0.26003 0.63215 0.26722 0.0
C1153 C 0.3499 0.62132 0.24046 0.0
H1154 H 0.27974 0.57805 0.2525 0.0
C1155 C 0.33897 0.65185 0.24987 0.0
C1156 C 0.30659 0.65606 0.25988 0.0
H1157 H 0.37511 0.61854 0.23341 0.0
H1158 H 0.35581 0.67226 0.24901 0.0
C1159 C 0.28516 0.62936 0.25993 0.0
C1160 C 0.48887 0.68712 0.52553 0.0
C1161 C 0.46744 0.70403 0.54576 0.0
H1162 H 0.49702 0.64359 0.49847 0.0
C1163 C 0.43508 0.69328 0.54874 0.0
H1164 H 0.51389 0.69516 0.52284 0.0
C1165 C 0.42568 0.66339 0.53563 0.0
C1166 C 0.44828 0.64463 0.51857 0.0
H1167 H 0.41811 0.70599 0.56426 0.0
H1168 H 0.40174 0.65369 0.5412 0.0
C1169 C 0.47914 0.65773 0.51153 0.0
C1170 C 0.62533 0.29336 0.85186 0.0
C1171 C 0.60583 0.26618 0.84451 0.0
H1172 H 0.6702 0.31843 0.84358 0.0
C1173 C 0.61738 0.24264 0.82274 0.0
H1174 H 0.61701 0.31184 0.86866 0.0
C1175 C 0.64785 0.24643 0.80828 0.0
C1176 C 0.66734 0.27373 0.81547 0.0
H1177 H 0.60281 0.22143 0.81671 0.0
H1178 H 0.65606 0.22798 0.79139 0.0
C1179 C 0.65583 0.29708 0.83756 0.0
C1180 C 0.04264 0.30119 0.06557 0.0
C1181 C 0.03798 0.30359 0.09921 0.0
H1182 H 0.05659 0.32651 0.02217 0.0
C1183 C 0.05035 0.33052 0.11614 0.0
H1184 H 0.03354 0.28024 0.05229 0.0
C1185 C 0.06465 0.35629 0.09929 0.0
C1186 C 0.06556 0.356 0.06509 0.0
H1187 H 0.04746 0.33233 0.14228 0.0
H1188 H 0.07168 0.37778 0.11292 0.0
C1189 C 0.05612 0.32746 0.04849 0.0
C1190 C 0.94451 0.74359 0.30613 0.0
C1191 C 0.95361 0.76845 0.32775 0.0
H1192 H 0.90915 0.72676 0.27167 0.0
C1193 C 0.93668 0.79795 0.32743 0.0
H1194 H 0.95744 0.72075 0.30576 0.0
C1195 C 0.90887 0.8012 0.30838 0.0
C1196 C 0.89818 0.77533 0.28877 0.0
H1197 H 0.94335 0.81759 0.34378 0.0
H1198 H 0.89453 0.82307 0.3106 0.0
C1199 C 0.91714 0.74718 0.28641 0.0
C1200 C 0.51318 0.33004 0.98309 0.0
C1201 C 0.49517 0.32826 0.95419 0.0
H1202 H 0.52724 0.35891 0.02388 0.0
C1203 C 0.47368 0.35345 0.94642 0.0
H1204 H 0.52954 0.31069 0.98991 0.0
C1205 C 0.47238 0.3813 0.96588 0.0
C1206 C 0.49249 0.38422 -0.0066 0.0
H1207 H 0.45929 0.35249 0.92437 0.0
H1208 H 0.4572 0.40127 0.9582 0.0
C1209 C 0.51174 0.35766 0.0026 0.0
C1210 C 0.86651 0.23862 0.16876 0.0
C1211 C 0.89257 0.239 0.19076 0.0
H1212 H 0.81485 0.23554 0.1628 0.0
C1213 C 0.88657 0.23551 0.22415 0.0
H1214 H 0.8707 0.24083 0.14284 0.0
C1215 C 0.85481 0.23273 0.23553 0.0
C1216 C 0.82868 0.23262 0.21361 0.0
H1217 H 0.90639 0.2355 0.24151 0.0
H1218 H 0.85064 0.23105 0.26149 0.0
C1219 C 0.83472 0.23508 0.1801 0.0
C1220 C 0.9692 0.66182 0.47032 0.0
C1221 C 0.00114 0.67191 0.46354 0.0
H1222 H 0.9383 0.62412 0.48851 0.0
C1223 C 0.02721 0.65279 0.47417 0.0
H1224 H 0.94866 0.67638 0.46291 0.0
C1225 C 0.0213 0.6227 0.48896 0.0
C1226 C 0.98923 0.61142 0.49326 0.0
H1227 H 0.0521 0.66025 0.46952 0.0
H1228 H 0.04178 0.60747 0.49502 0.0
C1229 C 0.96331 0.63192 0.48512 0.0
C1230 C 0.58773 0.76722 0.70513 0.0
C1231 C 0.58572 0.76314 0.6713 0.0
H1232 H 0.61916 0.77432 0.74618 0.0
C1233 C 0.61391 0.7655 0.65233 0.0
H1234 H 0.56612 0.76579 0.72013 0.0
C1235 C 0.64384 0.77154 0.66697 0.0
C1236 C 0.64616 0.77451 0.70093 0.0
H1237 H 0.6128 0.76298 0.62612 0.0
H1238 H 0.66534 0.7725 0.65177 0.0
C1239 C 0.61788 0.7724 0.71993 0.0
C1240 C 0.51016 0.48605 0.67782 0.0
C1241 C 0.51957 0.51566 0.69214 0.0
H1242 H 0.48524 0.46283 0.63838 0.0
C1243 C 0.50653 0.54481 0.68034 0.0
H1244 H 0.51964 0.4632 0.68664 0.0
C1245 C 0.48631 0.54454 0.65304 0.0
C1246 C 0.47939 0.51515 0.63694 0.0
H1247 H 0.51316 0.56793 0.69123 0.0
H1248 H 0.47819 0.5675 0.64318 0.0
C1249 C 0.49043 0.48582 0.65027 0.0
C1250 C 0.82191 0.3711 0.90909 0.0
C1251 C 0.81989 0.34688 0.93304 0.0
H1252 H 0.8225 0.38123 0.85814 0.0
C1253 C 0.82491 0.31424 0.92441 0.0
H1254 H 0.81866 0.39651 0.91516 0.0
C1255 C 0.82791 0.30563 0.8917 0.0
C1256 C 0.82554 0.3296 0.86764 0.0
H1257 H 0.8239 0.29518 0.94257 0.0
H1258 H 0.82845 0.2801 0.88518 0.0
C1259 C 0.82442 0.36246 0.87652 0.0
C1260 C 0.96121 0.46998 0.16124 0.0
C1261 C 0.94493 0.4991 0.16779 0.0
H1262 H -0.00018 0.44691 0.13543 0.0
C1263 C 0.9572 0.52837 0.15492 0.0
H1264 H 0.95252 0.44714 0.17127 0.0
C1265 C 0.98422 0.52827 0.13435 0.0
C1266 C -0.00013 0.499 0.12684 0.0
H1267 H 0.94528 0.55123 0.15987 0.0
H1268 H 0.99216 0.55093 0.12336 0.0
C1269 C 0.98864 0.46996 0.1412 0.0
C1270 C 0.77117 0.67702 0.41126 0.0
C1271 C 0.73938 0.66716 0.41915 0.0
H1272 H 0.80173 0.70402 0.37872 0.0
C1273 C 0.71342 0.67744 0.39963 0.0
H1274 H 0.79159 0.66954 0.42605 0.0
C1275 C 0.71926 0.69671 0.37221 0.0
C1276 C 0.75107 0.70667 0.36436 0.0
H1277 H 0.68868 0.67013 0.40522 0.0
H1278 H 0.69888 0.70393 0.35724 0.0
C1279 C 0.77693 0.69691 0.38433 0.0
C1280 C 0.53042 0.4937 0.86113 0.0
C1281 C 0.54755 0.52017 0.84783 0.0
H1282 H 0.50889 0.47299 0.90391 0.0
C1283 C 0.55366 0.54778 0.86711 0.0
H1284 H 0.52537 0.47222 0.84665 0.0
C1285 C 0.54494 0.54794 0.89987 0.0
C1286 C 0.52908 0.52093 0.91356 0.0
H1287 H 0.5669 0.5685 0.85741 0.0
H1288 H 0.55165 0.56867 0.91479 0.0
C1289 C 0.52081 0.49427 0.89372 0.0
C1290 C 0.70164 0.33325 0.10421 0.0
C1291 C 0.7222 0.31644 0.08297 0.0
H1292 H 0.67293 0.33101 0.14722 0.0
C1293 C 0.72352 0.28245 0.08442 0.0
H1294 H 0.69936 0.35945 0.10271 0.0
C1295 C 0.7083 0.26601 0.10998 0.0
C1296 C 0.69175 0.28354 0.13422 0.0
H1297 H 0.73861 0.26896 0.06767 0.0
H1298 H 0.71252 0.24017 0.11264 0.0
C1299 C 0.68609 0.31683 0.12943 0.0
C1300 C 0.91729 0.53229 0.33702 0.0
C1301 C 0.92206 0.50635 0.31546 0.0
H1302 H 0.92447 0.55063 0.38506 0.0
C1303 C 0.94163 0.4802 0.32492 0.0
H1304 H 0.90253 0.55289 0.3302 0.0
C1305 C 0.95431 0.47889 0.35633 0.0
C1306 C 0.9474 0.50365 0.37876 0.0
H1307 H 0.94592 0.46002 0.30857 0.0
H1308 H 0.96797 0.45767 0.36351 0.0
C1309 C 0.92982 0.53093 0.36845 0.0
C1310 C 0.7821 0.6694 0.58869 0.0
C1311 C 0.75375 0.6761 0.57091 0.0
H1312 H 0.81136 0.68145 0.63016 0.0
C1313 C 0.73552 0.70365 0.57879 0.0
H1314 H 0.79677 0.64841 0.58296 0.0
C1315 C 0.74443 0.7231 0.60528 0.0
C1316 C 0.7713 0.71484 0.62471 0.0
H1317 H 0.71378 0.70953 0.56521 0.0
H1318 H 0.72883 0.74313 0.61191 0.0
C1319 C 0.79062 0.68841 0.61557 0.0
C1320 C 0.61289 0.56473 0.47267 0.0
C1321 C 0.63106 0.5662 0.50156 0.0
H1322 H 0.56741 0.55212 0.45041 0.0
C1323 C 0.61775 0.55329 0.53025 0.0
H1324 H 0.62266 0.57445 0.45019 0.0
C1325 C 0.58645 0.53973 0.53019 0.0
C1326 C 0.56773 0.53957 0.50158 0.0
H1327 H 0.63141 0.55391 0.55278 0.0
H1328 H 0.57641 0.53069 0.55283 0.0
C1329 C 0.58135 0.5519 0.47277 0.0
C1330 C 0.17555 0.93032 0.56272 0.0
C1331 C 0.19388 0.92642 0.53423 0.0
H1332 H 0.13359 0.95187 0.5845 0.0
C1333 C 0.18565 0.94399 0.50626 0.0
H1334 H 0.18161 0.91705 0.58462 0.0
C1335 C 0.15889 0.96451 0.50645 0.0
C1336 C 0.13944 0.96717 0.53439 0.0
H1337 H 0.19969 0.9416 0.48412 0.0
H1338 H 0.15254 0.97704 0.4842 0.0
C1339 C 0.14822 0.95025 0.56268 0.0
C1340 C 0.27846 0.88715 0.74339 0.0
C1341 C 0.31102 0.89406 0.73544 0.0
H1342 H 0.24324 0.85022 0.75557 0.0
C1343 C 0.33325 0.86849 0.73318 0.0
H1344 H 0.26093 0.90655 0.74542 0.0
C1345 C 0.32347 0.83672 0.74004 0.0
C1346 C 0.29107 0.82977 0.74847 0.0
H1347 H 0.35856 0.87318 0.72739 0.0
H1348 H 0.34129 0.81751 0.73867 0.0
C1349 C 0.26841 0.85509 0.74935 0.0
C1350 C 0.31548 0.07477 0.05256 0.0
C1351 C 0.29556 0.0658 0.02615 0.0
H1352 H 0.36058 0.06647 0.07743 0.0
C1353 C 0.302 0.03697 0.00925 0.0
H1354 H 0.31084 0.09683 0.06615 0.0
C1355 C 0.32982 0.01927 0.01637 0.0
C1356 C 0.35165 0.03026 0.04029 0.0
H1357 H 0.28676 0.02925 0.98913 0.0
H1358 H 0.33597 -0.00116 0.00094 0.0
C1359 C 0.34362 0.05718 0.05944 0.0
C1360 C 0.68235 0.59789 0.73265 0.0
C1361 C 0.6627 0.59155 0.75981 0.0
H1362 H 0.71898 0.62867 0.71171 0.0
C1363 C 0.66656 0.61039 0.78804 0.0
H1364 H 0.68002 0.58337 0.71077 0.0
C1365 C 0.68853 0.63636 0.78851 0.0
C1366 C 0.70749 0.64339 0.76102 0.0
H1367 H 0.65178 0.60579 0.80939 0.0
H1368 H 0.69005 0.6515 0.81005 0.0
C1369 C 0.70489 0.62345 0.73337 0.0
C1370 C 0.87434 0.43639 0.05983 0.0
C1371 C 0.86832 0.40281 0.05743 0.0
H1372 H 0.90877 0.47505 0.05325 0.0
C1373 C 0.89423 0.38169 0.05145 0.0
H1374 H 0.85474 0.45315 0.06462 0.0
C1375 C 0.92491 0.39423 0.04418 0.0
C1376 C 0.93017 0.42801 0.04331 0.0
H1377 H 0.89027 0.35567 0.04961 0.0
H1378 H 0.9441 0.37747 0.03793 0.0
C1379 C 0.90514 0.44892 0.05291 0.0
C1380 C 0.31037 0.08043 0.684 0.0
C1381 C 0.29466 0.06121 0.70758 0.0
H1382 H 0.31802 0.1285 0.66527 0.0
C1383 C 0.26968 0.07476 0.72626 0.0
H1384 H 0.32992 0.0706 0.66945 0.0
C1385 C 0.26245 0.10775 0.72341 0.0
C1386 C 0.28075 0.12778 0.70247 0.0
H1387 H 0.25732 0.0604 0.74465 0.0
H1388 H 0.24454 0.11804 0.73966 0.0
C1389 C 0.30377 0.11361 0.68178 0.0
C1390 C 0.23731 0.94155 0.2302 0.0
C1391 C 0.22415 0.95555 0.25837 0.0
H1392 H 0.26262 0.90102 0.21011 0.0
C1393 C 0.23234 0.94293 0.2889 0.0
H1394 H 0.23167 0.95119 0.20636 0.0
C1395 C 0.25028 0.91451 0.29108 0.0
C1396 C 0.25999 0.89814 0.26273 0.0
H1397 H 0.22307 0.95374 0.31103 0.0
H1398 H 0.25425 0.90402 0.3149 0.0
C1399 C 0.25517 0.91293 0.23235 0.0
C1400 C 0.4807 0.35671 0.47269 0.0
C1401 C 0.45247 0.34365 0.45828 0.0
H1402 H 0.50115 0.39503 0.50154 0.0
C1403 C 0.42206 0.35601 0.46697 0.0
H1404 H 0.50447 0.34722 0.46678 0.0
C1405 C 0.42012 0.38309 0.48722 0.0
C1406 C 0.44861 0.39845 0.49877 0.0
H1407 H 0.39989 0.34593 0.45671 0.0
H1408 H 0.39639 0.39334 0.49182 0.0
C1409 C 0.4788 0.38396 0.4928 0.0
C1410 C 0.41744 0.7655 0.17158 0.0
C1411 C 0.44658 0.76056 0.18841 0.0
H1412 H 0.36739 0.77803 0.17462 0.0
C1413 C 0.44748 0.76463 0.22231 0.0
H1414 H 0.41631 0.76311 0.14536 0.0
C1415 C 0.41937 0.7731 0.23922 0.0
C1416 C 0.39027 0.77845 0.22228 0.0
H1417 H 0.46991 0.76132 0.23569 0.0
H1418 H 0.42036 0.77543 0.26544 0.0
C1419 C 0.38963 0.7747 0.1883 0.0
C1420 C 0.98972 0.62695 0.95871 0.0
C1421 C 0.00575 0.63328 0.92923 0.0
H1422 H 0.98176 0.59295 -0.00257 0.0
C1423 C 0.02473 0.60898 0.91493 0.0
H1424 H 0.97479 0.64529 0.97009 0.0
C1425 C 0.02887 0.57935 0.93055 0.0
C1426 C 0.01386 0.57334 0.96061 0.0
H1427 H 0.0372 0.61315 0.89209 0.0
H1428 H 0.04434 0.56135 0.91932 0.0
C1429 C -0.00641 0.59703 0.97424 0.0
C1430 C 0.10588 0.25999 0.70046 0.0
C1431 C 0.1001 0.28425 0.67717 0.0
H1432 H 0.14117 0.23553 0.72945 0.0
C1433 C 0.12516 0.30606 0.66894 0.0
H1434 H 0.08689 0.24297 0.70749 0.0
C1435 C 0.15625 0.30192 0.68174 0.0
C1436 C 0.16275 0.27564 0.7026 0.0
H1437 H 0.12124 0.32513 0.65123 0.0
H1438 H 0.17555 0.31813 0.67369 0.0
C1439 C 0.13701 0.25558 0.71293 0.0
C1440 C 0.56704 0.66761 0.06291 0.0
C1441 C 0.56296 0.67294 0.09641 0.0
H1442 H 0.57041 0.63185 0.02505 0.0
C1443 C 0.56631 0.64694 0.11811 0.0
H1444 H 0.56487 0.68749 0.04579 0.0
C1445 C 0.57005 0.61552 0.10639 0.0
C1446 C 0.57007 0.60954 0.07278 0.0
H1447 H 0.56402 0.65061 0.1441 0.0
H1448 H 0.57013 0.59559 0.12363 0.0
C1449 C 0.57051 0.6359 0.05108 0.0
C1450 C 0.12222 0.72266 0.86089 0.0
C1451 C 0.09516 0.73437 0.84394 0.0
H1452 H 0.17249 0.71073 0.85906 0.0
C1453 C 0.09897 0.74584 0.81201 0.0
H1454 H 0.12001 0.7139 0.88564 0.0
C1455 C 0.12923 0.74419 0.79674 0.0
C1456 C 0.15586 0.73076 0.81318 0.0
H1457 H 0.07843 0.75515 0.79852 0.0
H1458 H 0.13142 0.75214 0.77172 0.0
C1459 C 0.15225 0.72077 0.84563 0.0
C1460 C 0.0057 0.32891 0.51176 0.0
C1461 C 0.986 0.31333 0.53479 0.0
H1462 H 0.01015 0.36865 0.47882 0.0
C1463 C 0.95284 0.32089 0.53672 0.0
H1464 H 0.03127 0.32308 0.50977 0.0
C1465 C 0.94089 0.34758 0.51978 0.0
C1466 C 0.96188 0.36611 0.50017 0.0
H1467 H 0.9372 0.30894 0.55433 0.0
H1468 H 0.91647 0.35586 0.52487 0.0
C1469 C -0.00657 0.35479 0.49388 0.0
C1470 C 0.39266 0.25252 0.28451 0.0
C1471 C 0.40556 0.28097 0.29863 0.0
H1472 H 0.35831 0.2326 0.25063 0.0
C1473 C 0.3989 0.31117 0.28446 0.0
H1474 H 0.398 0.22886 0.29464 0.0
C1475 C 0.37691 0.31325 0.25883 0.0
C1476 C 0.36081 0.28521 0.24733 0.0
H1477 H 0.4093 0.3334 0.29429 0.0
H1478 H 0.37029 0.33714 0.25005 0.0
C1479 C 0.37035 0.25462 0.25895 0.0
C1480 C 0.42332 0.52688 0.33948 0.0
C1481 C 0.40039 0.50305 0.33021 0.0
H1482 H 0.44954 0.54939 0.37846 0.0
C1483 C 0.38706 0.48234 0.3538 0.0
H1484 H 0.43406 0.54313 0.32169 0.0
C1485 C 0.39581 0.48602 0.38635 0.0
C1486 C 0.41815 0.51043 0.3958 0.0
H1487 H 0.36935 0.46378 0.34724 0.0
H1488 H 0.38476 0.46995 0.40411 0.0
C1489 C 0.43217 0.53049 0.37198 0.0
C1490 C 0.2235 0.70701 0.11892 0.0
C1491 C 0.25078 0.7114 0.09884 0.0
H1492 H 0.20005 0.72072 0.16321 0.0
C1493 C 0.27164 0.73801 0.10409 0.0
H1494 H 0.20678 0.68688 0.11501 0.0
C1495 C 0.2673 0.75792 0.13112 0.0
C1496 C 0.24255 0.75085 0.15373 0.0
H1497 H 0.29245 0.74223 0.08846 0.0
H1498 H 0.28537 0.77665 0.13593 0.0
C1499 C 0.21952 0.7265 0.14638 0.0
C1500 C 0.06571 0.41307 0.84846 0.0
C1501 C 0.06117 0.44276 0.83208 0.0
H1502 H 0.06541 0.38863 0.89477 0.0
C1503 C 0.04717 0.46889 0.84871 0.0
H1504 H 0.07657 0.39259 0.83612 0.0
C1505 C 0.0407 0.46648 0.8818 0.0
C1506 C 0.04802 0.43793 0.89883 0.0
H1507 H 0.04319 0.49193 0.83664 0.0
H1508 H 0.03207 0.48779 0.89461 0.0
C1509 C 0.05927 0.41071 0.88187 0.0
C1510 C 0.3116 0.31784 0.57156 0.0
C1511 C 0.28155 0.31105 0.55659 0.0
H1512 H 0.34284 0.30728 0.61189 0.0
C1513 C 0.26446 0.28267 0.56519 0.0
H1514 H 0.3254 0.33948 0.56516 0.0
C1515 C 0.27515 0.26365 0.59109 0.0
C1516 C 0.30269 0.27311 0.60904 0.0
H1517 H 0.24148 0.27663 0.55368 0.0
H1518 H 0.25957 0.24406 0.59969 0.0
C1519 C 0.32197 0.2991 0.59791 0.0
C1520 C 0.45205 0.44071 0.17261 0.0
C1521 C 0.45172 0.46748 0.19376 0.0
H1522 H 0.47617 0.41886 0.13202 0.0
C1523 C 0.47983 0.48659 0.19749 0.0
H1524 H 0.43061 0.42548 0.16974 0.0
C1525 C 0.50625 0.48204 0.17692 0.0
C1526 C 0.50419 0.4592 0.15161 0.0
H1527 H 0.48024 0.50693 0.21427 0.0
H1528 H 0.52599 0.49968 0.17756 0.0
C1529 C 0.47838 0.43655 0.15145 0.0
C1530 C 0.28547 0.70613 0.93289 0.0
C1531 C 0.29655 0.6756 0.94304 0.0
H1532 H 0.27764 0.73796 0.89239 0.0
C1533 C 0.31232 0.65524 0.92075 0.0
H1534 H 0.27348 0.72228 0.94981 0.0
C1535 C 0.31428 0.664 0.88813 0.0
C1536 C 0.30147 0.69362 0.87764 0.0
H1537 H 0.32112 0.63159 0.92806 0.0
H1538 H 0.32405 0.64682 0.87076 0.0
C1539 C 0.28825 0.71527 0.9003 0.0
C1540 C 0.0236 0.44449 0.66036 0.0
C1541 C 0.03846 0.47107 0.67611 0.0
H1542 H -0.00675 0.42863 0.62088 0.0
C1543 C 0.03058 0.50275 0.66625 0.0
H1544 H 0.02902 0.41982 0.66768 0.0
C1545 C 0.01038 0.50777 0.63951 0.0
C1546 C -0.00289 0.48122 0.62246 0.0
H1547 H 0.04143 0.52375 0.67809 0.0
H1548 H 0.00649 0.5324 0.6311 0.0
C1549 C 0.00281 0.44955 0.63388 0.0
C1550 C 0.23481 0.3169 0.40057 0.0
C1551 C 0.25036 0.34619 0.40921 0.0
H1552 H 0.22165 0.28415 0.36239 0.0
C1553 C 0.26622 0.36459 0.38516 0.0
H1554 H 0.22246 0.30218 0.41865 0.0
C1555 C 0.26557 0.3544 0.35276 0.0
C1556 C 0.24919 0.32552 0.34396 0.0
H1557 H 0.27835 0.38731 0.39121 0.0
H1558 H 0.27751 0.36936 0.33461 0.0
C1559 C 0.23431 0.30662 0.36829 0.0
C1560 C 0.27931 0.49664 0.51393 0.0
C1561 C 0.27568 0.47036 0.53534 0.0
H1562 H 0.30884 0.5374 0.5006 0.0
C1563 C 0.2921 0.47092 0.56529 0.0
H1564 H 0.26621 0.49712 0.49106 0.0
C1565 C 0.31649 0.49419 0.57079 0.0
C1566 C 0.32435 0.51662 0.54627 0.0
H1567 H 0.28922 0.45112 0.58245 0.0
H1568 H 0.33252 0.4911 0.59146 0.0
C1569 C 0.30323 0.52011 0.51973 0.0
C1570 C 0.88783 0.11393 0.49714 0.0
C1571 C 0.85936 0.09495 0.49819 0.0
H1572 H 0.93932 0.11484 0.4914 0.0
C1573 C 0.86104 0.06159 0.49089 0.0
H1574 H 0.88722 0.13983 0.50198 0.0
C1575 C 0.89112 0.04715 0.4846 0.0
C1576 C 0.91981 0.06596 0.48548 0.0
H1577 H 0.83931 0.0465 0.49109 0.0
H1578 H 0.89207 0.02109 0.48087 0.0
C1579 C 0.91766 0.09964 0.49075 0.0
C1580 C 0.62544 0.09771 0.2473 0.0
C1581 C 0.64523 0.07236 0.23635 0.0
H1582 H 0.6207 0.14876 0.25473 0.0
C1583 C 0.67479 0.07983 0.22082 0.0
H1584 H 0.60232 0.09269 0.25898 0.0
C1585 C 0.6853 0.11216 0.21816 0.0
C1586 C 0.66642 0.13731 0.2312 0.0
H1587 H 0.69036 0.06067 0.21192 0.0
H1588 H 0.70891 0.11727 0.20757 0.0
C1589 C 0.63595 0.12984 0.24481 0.0
C1590 C 0.6369 0.94964 -0.00593 0.0
C1591 C 0.63677 0.91549 -0.00619 0.0
H1592 H 0.60855 -0.00707 0.99067 0.0
C1593 C 0.608 0.89869 0.9859 0.0
H1594 H 0.65891 0.96316 -0.00024 0.0
C1595 C 0.57943 0.91567 0.97988 0.0
C1596 C 0.57895 0.94979 0.98226 0.0
H1597 H 0.60739 0.87236 0.98501 0.0
H1598 H 0.55733 0.90188 0.97527 0.0
C1599 C 0.60816 0.96666 0.98862 0.0
C1600 C 0.25956 0.45655 0.20869 0.0
C1601 C 0.28887 0.45783 0.19133 0.0
H1602 H 0.21745 0.42801 0.21983 0.0
C1603 C 0.2932 0.43738 0.16444 0.0
H1604 H 0.25556 0.47264 0.22916 0.0
C1605 C 0.27124 0.41178 0.15911 0.0
C1606 C 0.24526 0.40681 0.18076 0.0
H1607 H 0.31558 0.43826 0.15057 0.0
H1608 H 0.27773 0.39297 0.14188 0.0
C1609 C 0.23741 0.4314 0.20292 0.0
C1610 C 0.18972 0.55552 0.06401 0.0
C1611 C 0.20363 0.56739 0.03508 0.0
H1612 H 0.1537 0.52399 0.08525 0.0
C1613 C 0.19458 0.55352 0.00532 0.0
H1614 H 0.19673 0.56564 0.08734 0.0
C1615 C 0.17081 0.52937 0.00419 0.0
C1616 C 0.1551 0.51893 0.03278 0.0
H1617 H 0.2055 0.56168 0.98275 0.0
H1618 H 0.16376 0.5199 0.9806 0.0
C1619 C 0.16542 0.53149 0.06287 0.0
C1620 C 0.72421 0.92227 0.28167 0.0
C1621 C 0.69156 0.91197 0.28281 0.0
H1622 H 0.77416 0.90833 0.28504 0.0
C1623 C 0.68423 0.88035 0.29363 0.0
H1624 H 0.7306 0.94663 0.27374 0.0
C1625 C 0.70926 0.85879 0.30125 0.0
C1626 C 0.74193 0.86843 0.29766 0.0
H1627 H 0.65924 0.87193 0.29514 0.0
H1628 H 0.70305 0.83383 0.30722 0.0
C1629 C 0.74916 0.90059 0.28868 0.0
C1630 C 0.80324 0.11946 0.76671 0.0
C1631 C 0.83666 0.11329 0.76466 0.0
H1632 H 0.76631 0.15546 0.77123 0.0
C1633 C 0.85893 0.1392 0.7676 0.0
H1634 H 0.78561 0.09984 0.76482 0.0
C1635 C 0.84804 0.17089 0.77167 0.0
C1636 C 0.8146 0.17735 0.77264 0.0
H1637 H 0.88491 0.13508 0.7665 0.0
H1638 H 0.86588 0.19036 0.77311 0.0
C1639 C 0.79229 0.15127 0.77058 0.0
loop_
_geom_bond_atom_site_label_1
_geom_bond_atom_site_label_2
_geom_bond_distance
_geom_bond_site_symmetry_2
_ccdc_geom_bond_type
In0 O1 2.294 . S
In0 O2 2.326 . S
In0 O6 2.266 . S
In0 O7 2.326 . S
In0 O8 2.266 . S
In0 O9 2.326 . S
In0 O11 2.294 1_455 S
In0 O12 2.326 1_455 S
O1 In0 2.294 . S
O1 C10 1.240 . S
O2 In0 2.326 . S
O2 C10 1.252 . S
C3 O6 1.252 . S
C3 O7 1.260 . S
C4 O11 1.240 . S
C4 O12 1.252 . S
C5 O8 1.252 . S
C5 O9 1.260 . S
O6 In0 2.266 . S
O6 C3 1.252 . S
O7 In0 2.326 . S
O7 C3 1.260 . S
O8 In0 2.266 . S
O8 C5 1.252 . S
O9 In0 2.326 . S
O9 C5 1.260 . S
C10 O1 1.240 . S
C10 O2 1.252 . S
O11 In0 2.294 1_655 S
O11 C4 1.240 . S
O12 In0 2.326 1_655 S
O12 C4 1.252 . S
In13 O14 2.294 . S
In13 O15 2.326 . S
In13 O19 2.266 1_455 S
In13 O20 2.326 1_455 S
In13 O21 2.266 . S
In13 O22 2.326 . S
In13 O24 2.294 . S
In13 O25 2.326 . S
O14 In13 2.294 . S
O14 C23 1.240 . S
O15 In13 2.326 . S
O15 C23 1.252 . S
C16 O19 1.252 . S
C16 O20 1.260 . S
C17 O24 1.240 . S
C17 O25 1.252 . S
C18 O21 1.252 . S
C18 O22 1.260 . S
O19 In13 2.266 1_655 S
O19 C16 1.252 . S
O20 In13 2.326 1_655 S
O20 C16 1.260 . S
O21 In13 2.266 . S
O21 C18 1.252 . S
O22 In13 2.326 . S
O22 C18 1.260 . S
C23 O14 1.240 . S
C23 O15 1.252 . S
O24 In13 2.294 . S
O24 C17 1.240 . S
O25 In13 2.326 . S
O25 C17 1.252 . S
In26 O27 2.294 . S
In26 O28 2.326 . S
In26 O32 2.266 . S
In26 O33 2.326 . S
In26 O34 2.266 . S
In26 O35 2.326 . S
In26 O37 2.294 . S
In26 O38 2.326 . S
O27 In26 2.294 . S
O27 C36 1.240 . S
O28 In26 2.326 . S
O28 C36 1.252 . S
C29 O32 1.252 . S
C29 O33 1.260 . S
C30 O37 1.240 . S
C30 O38 1.252 . S
C31 O34 1.252 . S
C31 O35 1.260 . S
O32 In26 2.266 . S
O32 C29 1.252 . S
O33 In26 2.326 . S
O33 C29 1.260 . S
O34 In26 2.266 . S
O34 C31 1.252 . S
O35 In26 2.326 . S
O35 C31 1.260 . S
C36 O27 1.240 . S
C36 O28 1.252 . S
O37 In26 2.294 . S
O37 C30 1.240 . S
O38 In26 2.326 . S
O38 C30 1.252 . S
In39 O40 2.294 . S
In39 O41 2.326 . S
In39 O45 2.266 . S
In39 O46 2.326 . S
In39 O47 2.266 . S
In39 O48 2.326 . S
In39 O50 2.294 . S
In39 O51 2.326 . S
O40 In39 2.294 . S
O40 C49 1.240 . S
O41 In39 2.326 . S
O41 C49 1.252 . S
C42 O45 1.252 . S
C42 O46 1.260 . S
C43 O50 1.240 . S
C43 O51 1.252 . S
C44 O47 1.252 . S
C44 O48 1.260 . S
O45 In39 2.266 . S
O45 C42 1.252 . S
O46 In39 2.326 . S
O46 C42 1.260 . S
O47 In39 2.266 . S
O47 C44 1.252 . S
O48 In39 2.326 . S
O48 C44 1.260 . S
C49 O40 1.240 . S
C49 O41 1.252 . S
O50 In39 2.294 . S
O50 C43 1.240 . S
O51 In39 2.326 . S
O51 C43 1.252 . S
In52 O53 2.294 1_545 S
In52 O54 2.326 1_545 S
In52 O58 2.266 . S
In52 O59 2.326 . S
In52 O60 2.266 . S
In52 O61 2.326 . S
In52 O63 2.294 . S
In52 O64 2.326 . S
O53 In52 2.294 1_565 S
O53 C62 1.240 . S
O54 In52 2.326 1_565 S
O54 C62 1.252 . S
C55 O58 1.252 . S
C55 O59 1.260 . S
C56 O63 1.240 . S
C56 O64 1.252 . S
C57 O60 1.252 . S
C57 O61 1.260 . S
O58 In52 2.266 . S
O58 C55 1.252 . S
O59 In52 2.326 . S
O59 C55 1.260 . S
O60 In52 2.266 . S
O60 C57 1.252 . S
O61 In52 2.326 . S
O61 C57 1.260 . S
C62 O53 1.240 . S
C62 O54 1.252 . S
O63 In52 2.294 . S
O63 C56 1.240 . S
O64 In52 2.326 . S
O64 C56 1.252 . S
In65 O66 2.294 . S
In65 O67 2.326 . S
In65 O71 2.266 . S
In65 O72 2.326 . S
In65 O73 2.266 . S
In65 O74 2.326 . S
In65 O76 2.294 . S
In65 O77 2.326 . S
O66 In65 2.294 . S
O66 C75 1.240 . S
O67 In65 2.326 . S
O67 C75 1.252 . S
C68 O71 1.252 . S
C68 O72 1.260 . S
C69 O76 1.240 . S
C69 O77 1.252 . S
C70 O73 1.252 . S
C70 O74 1.260 . S
O71 In65 2.266 . S
O71 C68 1.252 . S
O72 In65 2.326 . S
O72 C68 1.260 . S
O73 In65 2.266 . S
O73 C70 1.252 . S
O74 In65 2.326 . S
O74 C70 1.260 . S
C75 O66 1.240 . S
C75 O67 1.252 . S
O76 In65 2.294 . S
O76 C69 1.240 . S
O77 In65 2.326 . S
O77 C69 1.252 . S
In78 O79 2.294 . S
In78 O80 2.326 . S
In78 O84 2.266 1_545 S
In78 O85 2.326 1_545 S
In78 O86 2.266 1_545 S
In78 O87 2.326 1_545 S
In78 O89 2.294 . S
In78 O90 2.326 . S
O79 In78 2.294 . S
O79 C88 1.240 . S
O80 In78 2.326 . S
O80 C88 1.252 . S
C81 O84 1.252 . S
C81 O85 1.260 . S
C82 O89 1.240 . S
C82 O90 1.252 . S
C83 O86 1.252 . S
C83 O87 1.260 . S
O84 In78 2.266 1_565 S
O84 C81 1.252 . S
O85 In78 2.326 1_565 S
O85 C81 1.260 . S
O86 In78 2.266 1_565 S
O86 C83 1.252 . S
O87 In78 2.326 1_565 S
O87 C83 1.260 . S
C88 O79 1.240 . S
C88 O80 1.252 . S
O89 In78 2.294 . S
O89 C82 1.240 . S
O90 In78 2.326 . S
O90 C82 1.252 . S
In91 O92 2.294 . S
In91 O93 2.326 . S
In91 O97 2.266 . S
In91 O98 2.326 . S
In91 O99 2.266 1_554 S
In91 O100 2.326 1_554 S
In91 O102 2.294 . S
In91 O103 2.326 . S
O92 In91 2.294 . S
O92 C101 1.240 . S
O93 In91 2.326 . S
O93 C101 1.252 . S
C94 O97 1.252 . S
C94 O98 1.260 . S
C95 O102 1.240 . S
C95 O103 1.252 . S
C96 O99 1.252 . S
C96 O100 1.260 . S
O97 In91 2.266 . S
O97 C94 1.252 . S
O98 In91 2.326 . S
O98 C94 1.260 . S
O99 In91 2.266 1_556 S
O99 C96 1.252 . S
O100 In91 2.326 1_556 S
O100 C96 1.260 . S
C101 O92 1.240 . S
C101 O93 1.252 . S
O102 In91 2.294 . S
O102 C95 1.240 . S
O103 In91 2.326 . S
O103 C95 1.252 . S
In104 O105 2.294 . S
In104 O106 2.326 . S
In104 O110 2.266 1_554 S
In104 O111 2.326 1_554 S
In104 O112 2.266 . S
In104 O113 2.326 . S
In104 O115 2.294 . S
In104 O116 2.326 . S
O105 In104 2.294 . S
O105 C114 1.240 . S
O106 In104 2.326 . S
O106 C114 1.252 . S
C107 O110 1.252 . S
C107 O111 1.260 . S
C108 O115 1.240 . S
C108 O116 1.252 . S
C109 O112 1.252 . S
C109 O113 1.260 . S
O110 In104 2.266 1_556 S
O110 C107 1.252 . S
O111 In104 2.326 1_556 S
O111 C107 1.260 . S
O112 In104 2.266 . S
O112 C109 1.252 . S
O113 In104 2.326 . S
O113 C109 1.260 . S
C114 O105 1.240 . S
C114 O106 1.252 . S
O115 In104 2.294 . S
O115 C108 1.240 . S
O116 In104 2.326 . S
O116 C108 1.252 . S
In117 O118 2.294 . S
In117 O119 2.326 . S
In117 O123 2.266 . S
In117 O124 2.326 . S
In117 O125 2.266 . S
In117 O126 2.326 . S
In117 O128 2.294 . S
In117 O129 2.326 . S
O118 In117 2.294 . S
O118 C127 1.240 . S
O119 In117 2.326 . S
O119 C127 1.252 . S
C120 O123 1.252 . S
C120 O124 1.260 . S
C121 O128 1.240 . S
C121 O129 1.252 . S
C122 O125 1.252 . S
C122 O126 1.260 . S
O123 In117 2.266 . S
O123 C120 1.252 . S
O124 In117 2.326 . S
O124 C120 1.260 . S
O125 In117 2.266 . S
O125 C122 1.252 . S
O126 In117 2.326 . S
O126 C122 1.260 . S
C127 O118 1.240 . S
C127 O119 1.252 . S
O128 In117 2.294 . S
O128 C121 1.240 . S
O129 In117 2.326 . S
O129 C121 1.252 . S
In130 O131 2.294 . S
In130 O132 2.326 . S
In130 O136 2.266 . S
In130 O137 2.326 . S
In130 O138 2.266 . S
In130 O139 2.326 . S
In130 O141 2.294 . S
In130 O142 2.326 . S
O131 In130 2.294 . S
O131 C140 1.240 . S
O132 In130 2.326 . S
O132 C140 1.252 . S
C133 O136 1.252 . S
C133 O137 1.260 . S
C134 O141 1.240 . S
C134 O142 1.252 . S
C135 O138 1.252 . S
C135 O139 1.260 . S
O136 In130 2.266 . S
O136 C133 1.252 . S
O137 In130 2.326 . S
O137 C133 1.260 . S
O138 In130 2.266 . S
O138 C135 1.252 . S
O139 In130 2.326 . S
O139 C135 1.260 . S
C140 O131 1.240 . S
C140 O132 1.252 . S
O141 In130 2.294 . S
O141 C134 1.240 . S
O142 In130 2.326 . S
O142 C134 1.252 . S
In143 O144 2.294 . S
In143 O145 2.326 . S
In143 O149 2.266 . S
In143 O150 2.326 . S
In143 O151 2.266 . S
In143 O152 2.326 . S
In143 O154 2.294 . S
In143 O155 2.326 . S
O144 In143 2.294 . S
O144 C153 1.240 . S
O145 In143 2.326 . S
O145 C153 1.252 . S
C146 O149 1.252 . S
C146 O150 1.260 . S
C147 O154 1.240 . S
C147 O155 1.252 . S
C148 O151 1.252 . S
C148 O152 1.260 . S
O149 In143 2.266 . S
O149 C146 1.252 . S
O150 In143 2.326 . S
O150 C146 1.260 . S
O151 In143 2.266 . S
O151 C148 1.252 . S
O152 In143 2.326 . S
O152 C148 1.260 . S
C153 O144 1.240 . S
C153 O145 1.252 . S
O154 In143 2.294 . S
O154 C147 1.240 . S
O155 In143 2.326 . S
O155 C147 1.252 . S
In156 O157 2.294 . S
In156 O158 2.326 . S
In156 O162 2.266 1_455 S
In156 O163 2.326 1_455 S
In156 O164 2.266 . S
In156 O165 2.326 . S
In156 O167 2.294 . S
In156 O168 2.326 . S
O157 In156 2.294 . S
O157 C166 1.240 . S
O158 In156 2.326 . S
O158 C166 1.252 . S
C159 O162 1.252 . S
C159 O163 1.260 . S
C160 O167 1.240 . S
C160 O168 1.252 . S
C161 O164 1.252 . S
C161 O165 1.260 . S
O162 In156 2.266 1_655 S
O162 C159 1.252 . S
O163 In156 2.326 1_655 S
O163 C159 1.260 . S
O164 In156 2.266 . S
O164 C161 1.252 . S
O165 In156 2.326 . S
O165 C161 1.260 . S
C166 O157 1.240 . S
C166 O158 1.252 . S
O167 In156 2.294 . S
O167 C160 1.240 . S
O168 In156 2.326 . S
O168 C160 1.252 . S
In169 O170 2.294 . S
In169 O171 2.326 . S
In169 O175 2.266 . S
In169 O176 2.326 . S
In169 O177 2.266 1_455 S
In169 O178 2.326 1_455 S
In169 O180 2.294 . S
In169 O181 2.326 . S
O170 In169 2.294 . S
O170 C179 1.240 . S
O171 In169 2.326 . S
O171 C179 1.252 . S
C172 O175 1.252 . S
C172 O176 1.260 . S
C173 O180 1.240 . S
C173 O181 1.252 . S
C174 O177 1.252 . S
C174 O178 1.260 . S
O175 In169 2.266 . S
O175 C172 1.252 . S
O176 In169 2.326 . S
O176 C172 1.260 . S
O177 In169 2.266 1_655 S
O177 C174 1.252 . S
O178 In169 2.326 1_655 S
O178 C174 1.260 . S
C179 O170 1.240 . S
C179 O171 1.252 . S
O180 In169 2.294 . S
O180 C173 1.240 . S
O181 In169 2.326 . S
O181 C173 1.252 . S
In182 O183 2.294 . S
In182 O184 2.326 . S
In182 O188 2.266 . S
In182 O189 2.326 . S
In182 O190 2.266 . S
In182 O191 2.326 . S
In182 O193 2.294 . S
In182 O194 2.326 . S
O183 In182 2.294 . S
O183 C192 1.240 . S
O184 In182 2.326 . S
O184 C192 1.252 . S
C185 O188 1.252 . S
C185 O189 1.260 . S
C186 O193 1.240 . S
C186 O194 1.252 . S
C187 O190 1.252 . S
C187 O191 1.260 . S
O188 In182 2.266 . S
O188 C185 1.252 . S
O189 In182 2.326 . S
O189 C185 1.260 . S
O190 In182 2.266 . S
O190 C187 1.252 . S
O191 In182 2.326 . S
O191 C187 1.260 . S
C192 O183 1.240 . S
C192 O184 1.252 . S
O193 In182 2.294 . S
O193 C186 1.240 . S
O194 In182 2.326 . S
O194 C186 1.252 . S
In195 O196 2.294 . S
In195 O197 2.326 . S
In195 O201 2.266 . S
In195 O202 2.326 . S
In195 O203 2.266 . S
In195 O204 2.326 . S
In195 O206 2.294 . S
In195 O207 2.326 . S
O196 In195 2.294 . S
O196 C205 1.240 . S
O197 In195 2.326 . S
O197 C205 1.252 . S
C198 O201 1.252 . S
C198 O202 1.260 . S
C199 O206 1.240 . S
C199 O207 1.252 . S
C200 O203 1.252 . S
C200 O204 1.260 . S
O201 In195 2.266 . S
O201 C198 1.252 . S
O202 In195 2.326 . S
O202 C198 1.260 . S
O203 In195 2.266 . S
O203 C200 1.252 . S
O204 In195 2.326 . S
O204 C200 1.260 . S
C205 O196 1.240 . S
C205 O197 1.252 . S
O206 In195 2.294 . S
O206 C199 1.240 . S
O207 In195 2.326 . S
O207 C199 1.252 . S
In208 O209 2.294 . S
In208 O210 2.326 . S
In208 O214 2.266 . S
In208 O215 2.326 . S
In208 O216 2.266 1_545 S
In208 O217 2.326 1_545 S
In208 O219 2.294 . S
In208 O220 2.326 . S
O209 In208 2.294 . S
O209 C218 1.240 . S
O210 In208 2.326 . S
O210 C218 1.252 . S
C211 O214 1.252 . S
C211 O215 1.260 . S
C212 O219 1.240 . S
C212 O220 1.252 . S
C213 O216 1.252 . S
C213 O217 1.260 . S
O214 In208 2.266 . S
O214 C211 1.252 . S
O215 In208 2.326 . S
O215 C211 1.260 . S
O216 In208 2.266 1_565 S
O216 C213 1.252 . S
O217 In208 2.326 1_565 S
O217 C213 1.260 . S
C218 O209 1.240 . S
C218 O210 1.252 . S
O219 In208 2.294 . S
O219 C212 1.240 . S
O220 In208 2.326 . S
O220 C212 1.252 . S
In221 O222 2.294 . S
In221 O223 2.326 . S
In221 O227 2.266 . S
In221 O228 2.326 . S
In221 O229 2.266 . S
In221 O230 2.326 . S
In221 O232 2.294 . S
In221 O233 2.326 . S
O222 In221 2.294 . S
O222 C231 1.240 . S
O223 In221 2.326 . S
O223 C231 1.252 . S
C224 O227 1.252 . S
C224 O228 1.260 . S
C225 O232 1.240 . S
C225 O233 1.252 . S
C226 O229 1.252 . S
C226 O230 1.260 . S
O227 In221 2.266 . S
O227 C224 1.252 . S
O228 In221 2.326 . S
O228 C224 1.260 . S
O229 In221 2.266 . S
O229 C226 1.252 . S
O230 In221 2.326 . S
O230 C226 1.260 . S
C231 O222 1.240 . S
C231 O223 1.252 . S
O232 In221 2.294 . S
O232 C225 1.240 . S
O233 In221 2.326 . S
O233 C225 1.252 . S
In234 O235 2.273 1_545 S
In234 O236 2.294 1_545 S
In234 O240 2.287 . S
In234 O241 2.358 . S
In234 O242 2.271 . S
In234 O243 2.328 . S
In234 O245 2.290 1_545 S
In234 O246 2.323 1_545 S
O235 In234 2.273 1_565 S
O235 C244 1.240 . S
O236 In234 2.294 1_565 S
O236 C244 1.252 . S
C237 O240 1.252 . S
C237 O241 1.260 . S
C238 O245 1.240 . S
C238 O246 1.252 . S
C239 O242 1.252 . S
C239 O243 1.260 . S
O240 In234 2.287 . S
O240 C237 1.252 . S
O241 In234 2.358 . S
O241 C237 1.260 . S
O242 In234 2.271 . S
O242 C239 1.252 . S
O243 In234 2.328 . S
O243 C239 1.260 . S
C244 O235 1.240 . S
C244 O236 1.252 . S
O245 In234 2.290 1_565 S
O245 C238 1.240 . S
O246 In234 2.323 1_565 S
O246 C238 1.252 . S
In247 O248 2.294 . S
In247 O249 2.326 . S
In247 O253 2.263 1_554 S
In247 O254 2.326 . S
In247 O255 2.266 1_554 S
In247 O256 2.326 1_554 S
In247 O258 2.294 . S
In247 O259 2.326 . S
O248 In247 2.294 . S
O248 C257 1.240 . S
O249 In247 2.326 . S
O249 C257 1.252 . S
C250 O253 1.252 . S
C250 O254 1.259 1_556 S
C251 O258 1.240 . S
C251 O259 1.252 . S
C252 O255 1.252 . S
C252 O256 1.260 . S
O253 In247 2.263 1_556 S
O253 C250 1.252 . S
O254 In247 2.326 . S
O254 C250 1.259 1_554 S
O255 In247 2.266 1_556 S
O255 C252 1.252 . S
O256 In247 2.326 1_556 S
O256 C252 1.260 . S
C257 O248 1.240 . S
C257 O249 1.252 . S
O258 In247 2.294 . S
O258 C251 1.240 . S
O259 In247 2.326 . S
O259 C251 1.252 . S
In260 O261 2.294 . S
In260 O262 2.326 . S
In260 O266 2.266 1_554 S
In260 O267 2.326 1_554 S
In260 O268 2.266 1_554 S
In260 O269 2.326 . S
In260 O271 2.294 . S
In260 O272 2.326 . S
O261 In260 2.294 . S
O261 C270 1.240 . S
O262 In260 2.326 . S
O262 C270 1.252 . S
C263 O266 1.252 . S
C263 O267 1.260 . S
C264 O271 1.240 . S
C264 O272 1.252 . S
C265 O268 1.252 . S
C265 O269 1.260 1_556 S
O266 In260 2.266 1_556 S
O266 C263 1.252 . S
O267 In260 2.326 1_556 S
O267 C263 1.260 . S
O268 In260 2.266 1_556 S
O268 C265 1.252 . S
O269 In260 2.326 . S
O269 C265 1.260 1_554 S
C270 O261 1.240 . S
C270 O262 1.252 . S
O271 In260 2.294 . S
O271 C264 1.240 . S
O272 In260 2.326 . S
O272 C264 1.252 . S
In273 O274 2.294 . S
In273 O275 2.326 . S
In273 O279 2.266 . S
In273 O280 2.326 . S
In273 O281 2.266 . S
In273 O282 2.326 . S
In273 O284 2.294 . S
In273 O285 2.326 . S
O274 In273 2.294 . S
O274 C283 1.240 . S
O275 In273 2.326 . S
O275 C283 1.252 . S
C276 O279 1.252 . S
C276 O280 1.260 . S
C277 O284 1.240 . S
C277 O285 1.252 . S
C278 O281 1.252 . S
C278 O282 1.260 . S
O279 In273 2.266 . S
O279 C276 1.252 . S
O280 In273 2.326 . S
O280 C276 1.260 . S
O281 In273 2.266 . S
O281 C278 1.252 . S
O282 In273 2.326 . S
O282 C278 1.260 . S
C283 O274 1.240 . S
C283 O275 1.252 . S
O284 In273 2.294 . S
O284 C277 1.240 . S
O285 In273 2.326 . S
O285 C277 1.252 . S
In286 O287 2.294 . S
In286 O288 2.326 . S
In286 O292 2.266 . S
In286 O293 2.326 . S
In286 O294 2.266 . S
In286 O295 2.326 . S
In286 O297 2.294 . S
In286 O298 2.326 . S
O287 In286 2.294 . S
O287 C296 1.240 . S
O288 In286 2.326 . S
O288 C296 1.252 . S
C289 O292 1.252 . S
C289 O293 1.260 . S
C290 O297 1.240 . S
C290 O298 1.252 . S
C291 O294 1.252 . S
C291 O295 1.260 . S
O292 In286 2.266 . S
O292 C289 1.252 . S
O293 In286 2.326 . S
O293 C289 1.260 . S
O294 In286 2.266 . S
O294 C291 1.252 . S
O295 In286 2.326 . S
O295 C291 1.260 . S
C296 O287 1.240 . S
C296 O288 1.252 . S
O297 In286 2.294 . S
O297 C290 1.240 . S
O298 In286 2.326 . S
O298 C290 1.252 . S
In299 O300 2.294 . S
In299 O301 2.326 . S
In299 O305 2.266 . S
In299 O306 2.326 . S
In299 O307 2.266 . S
In299 O308 2.326 . S
In299 O310 2.294 . S
In299 O311 2.326 . S
O300 In299 2.294 . S
O300 C309 1.240 . S
O301 In299 2.326 . S
O301 C309 1.252 . S
C302 O305 1.252 . S
C302 O306 1.260 . S
C303 O310 1.240 . S
C303 O311 1.252 . S
C304 O307 1.252 . S
C304 O308 1.260 . S
O305 In299 2.266 . S
O305 C302 1.252 . S
O306 In299 2.326 . S
O306 C302 1.260 . S
O307 In299 2.266 . S
O307 C304 1.252 . S
O308 In299 2.326 . S
O308 C304 1.260 . S
C309 O300 1.240 . S
C309 O301 1.252 . S
O310 In299 2.294 . S
O310 C303 1.240 . S
O311 In299 2.326 . S
O311 C303 1.252 . S
O312 Zn313 1.953 1_554 S
O312 C328 1.225 1_455 S
Zn313 O312 1.953 1_556 S
Zn313 O314 1.950 1_556 S
Zn313 O320 1.919 . S
Zn313 O325 1.924 1_455 S
O314 Zn313 1.950 1_554 S
O314 Zn315 1.926 1_545 S
O314 Zn316 1.947 1_455 S
O314 Zn317 1.942 1_444 S
Zn315 O314 1.926 1_565 S
Zn315 O318 1.933 . S
Zn315 O321 1.941 1_565 S
Zn315 O322 1.965 . S
Zn316 O314 1.947 1_655 S
Zn316 O323 1.938 . S
Zn316 O324 1.906 1_545 S
Zn316 O334 1.953 . S
Zn317 O314 1.942 1_666 S
Zn317 O319 1.932 . S
Zn317 O326 1.964 1_556 S
Zn317 O327 1.910 1_565 S
O318 Zn315 1.933 . S
O318 C329 1.226 1_554 S
O319 Zn317 1.932 . S
O319 C329 1.307 1_655 S
O320 Zn313 1.919 . S
O320 C331 1.253 . S
O321 Zn315 1.941 1_545 S
O321 C331 1.283 1_554 S
O322 Zn315 1.965 . S
O322 C330 1.303 . S
O323 Zn316 1.938 . S
O323 C330 1.247 1_645 S
O324 Zn316 1.906 1_565 S
O324 C332 1.304 . S
O325 Zn313 1.924 1_655 S
O325 C333 1.311 . S
O326 Zn317 1.964 1_554 S
O326 C332 1.301 . S
O327 Zn317 1.910 1_545 S
O327 C333 1.231 . S
C328 O312 1.225 1_655 S
C328 O334 1.298 . S
C329 O318 1.226 1_556 S
C329 O319 1.307 1_455 S
C330 O322 1.303 . S
C330 O323 1.247 1_465 S
C331 O320 1.253 . S
C331 O321 1.283 1_556 S
C332 O324 1.304 . S
C332 O326 1.301 . S
C333 O325 1.311 . S
C333 O327 1.231 . S
O334 Zn316 1.953 . S
O334 C328 1.298 . S
O335 Zn336 1.953 . S
O335 C351 1.225 . S
Zn336 O335 1.953 . S
Zn336 O337 1.949 . S
Zn336 O343 1.919 . S
Zn336 O348 1.924 . S
O337 Zn336 1.949 . S
O337 Zn338 1.923 . S
O337 Zn339 1.950 . S
O337 Zn340 1.945 . S
Zn338 O337 1.923 . S
Zn338 O341 1.933 . S
Zn338 O344 1.941 . S
Zn338 O345 1.965 . S
Zn339 O337 1.950 . S
Zn339 O346 1.938 . S
Zn339 O347 1.906 . S
Zn339 O357 1.953 . S
Zn340 O337 1.945 . S
Zn340 O342 1.932 . S
Zn340 O349 1.977 . S
Zn340 O350 1.910 . S
O341 Zn338 1.933 . S
O341 C352 1.226 . S
O342 Zn340 1.932 . S
O342 C352 1.307 . S
O343 Zn336 1.919 . S
O343 C354 1.253 . S
O344 Zn338 1.941 . S
O344 C354 1.283 . S
O345 Zn338 1.965 . S
O345 C353 1.303 . S
O346 Zn339 1.938 . S
O346 C353 1.247 . S
O347 Zn339 1.906 . S
O347 C355 1.304 . S
O348 Zn336 1.924 . S
O348 C356 1.311 . S
O349 Zn340 1.977 . S
O349 C355 1.272 . S
O350 Zn340 1.910 . S
O350 C356 1.231 . S
C351 O335 1.225 . S
C351 O357 1.298 . S
C352 O341 1.226 . S
C352 O342 1.307 . S
C353 O345 1.303 . S
C353 O346 1.247 . S
C354 O343 1.253 . S
C354 O344 1.283 . S
C355 O347 1.304 . S
C355 O349 1.272 . S
C356 O348 1.311 . S
C356 O350 1.231 . S
O357 Zn339 1.953 . S
O357 C351 1.298 . S
O358 Zn359 1.953 . S
O358 C374 1.225 . S
Zn359 O358 1.953 . S
Zn359 O360 1.949 1_565 S
Zn359 O366 1.919 . S
Zn359 O371 1.924 . S
O360 Zn359 1.949 1_545 S
O360 Zn361 1.923 . S
O360 Zn362 1.950 . S
O360 Zn363 1.945 . S
Zn361 O360 1.923 . S
Zn361 O364 1.933 . S
Zn361 O367 1.941 . S
Zn361 O368 1.965 . S
Zn362 O360 1.950 . S
Zn362 O369 1.938 . S
Zn362 O370 1.906 . S
Zn362 O380 1.953 1_545 S
Zn363 O360 1.945 . S
Zn363 O365 1.932 . S
Zn363 O372 1.977 . S
Zn363 O373 1.910 . S
O364 Zn361 1.933 . S
O364 C375 1.226 . S
O365 Zn363 1.932 . S
O365 C375 1.307 . S
O366 Zn359 1.919 . S
O366 C377 1.253 . S
O367 Zn361 1.941 . S
O367 C377 1.283 1_545 S
O368 Zn361 1.965 . S
O368 C376 1.303 . S
O369 Zn362 1.938 . S
O369 C376 1.247 . S
O370 Zn362 1.906 . S
O370 C378 1.304 . S
O371 Zn359 1.924 . S
O371 C379 1.311 . S
O372 Zn363 1.977 . S
O372 C378 1.272 . S
O373 Zn363 1.910 . S
O373 C379 1.231 1_545 S
C374 O358 1.225 . S
C374 O380 1.298 . S
C375 O364 1.226 . S
C375 O365 1.307 . S
C376 O368 1.303 . S
C376 O369 1.247 . S
C377 O366 1.253 . S
C377 O367 1.283 1_565 S
C378 O370 1.304 . S
C378 O372 1.272 . S
C379 O371 1.311 . S
C379 O373 1.231 1_565 S
O380 Zn362 1.953 1_565 S
O380 C374 1.298 . S
O381 Zn382 1.953 . S
O381 C397 1.225 . S
Zn382 O381 1.953 . S
Zn382 O383 1.949 . S
Zn382 O389 1.919 . S
Zn382 O394 1.924 . S
O383 Zn382 1.949 . S
O383 Zn384 1.923 . S
O383 Zn385 1.950 . S
O383 Zn386 1.945 . S
Zn384 O383 1.923 . S
Zn384 O387 1.933 . S
Zn384 O390 1.941 . S
Zn384 O391 1.965 . S
Zn385 O383 1.950 . S
Zn385 O392 1.938 . S
Zn385 O393 1.906 . S
Zn385 O403 1.953 . S
Zn386 O383 1.945 . S
Zn386 O388 1.932 . S
Zn386 O395 1.977 . S
Zn386 O396 1.910 . S
O387 Zn384 1.933 . S
O387 C398 1.226 . S
O388 Zn386 1.932 . S
O388 C398 1.307 . S
O389 Zn382 1.919 . S
O389 C400 1.253 . S
O390 Zn384 1.941 . S
O390 C400 1.283 . S
O391 Zn384 1.965 . S
O391 C399 1.303 . S
O392 Zn385 1.938 . S
O392 C399 1.247 . S
O393 Zn385 1.906 . S
O393 C401 1.304 . S
O394 Zn382 1.924 . S
O394 C402 1.311 . S
O395 Zn386 1.977 . S
O395 C401 1.272 . S
O396 Zn386 1.910 . S
O396 C402 1.231 . S
C397 O381 1.225 . S
C397 O403 1.298 . S
C398 O387 1.226 . S
C398 O388 1.307 . S
C399 O391 1.303 . S
C399 O392 1.247 . S
C400 O389 1.253 . S
C400 O390 1.283 . S
C401 O393 1.304 . S
C401 O395 1.272 . S
C402 O394 1.311 . S
C402 O396 1.231 . S
O403 Zn385 1.953 . S
O403 C397 1.298 . S
O404 Zn405 1.953 1_455 S
O404 C420 1.225 . S
Zn405 O404 1.953 1_655 S
Zn405 O406 1.949 1_655 S
Zn405 O412 1.919 1_545 S
Zn405 O417 1.924 . S
O406 Zn405 1.949 1_455 S
O406 Zn407 1.923 1_545 S
O406 Zn408 1.950 . S
O406 Zn409 1.945 1_455 S
Zn407 O406 1.923 1_565 S
Zn407 O410 1.933 . S
Zn407 O413 1.941 . S
Zn407 O414 1.965 . S
Zn408 O406 1.950 . S
Zn408 O415 1.938 . S
Zn408 O416 1.906 . S
Zn408 O426 1.953 . S
Zn409 O406 1.945 1_655 S
Zn409 O411 1.932 . S
Zn409 O418 1.977 . S
Zn409 O419 1.910 . S
O410 Zn407 1.933 . S
O410 C421 1.226 1_455 S
O411 Zn409 1.932 . S
O411 C421 1.307 1_545 S
O412 Zn405 1.919 1_565 S
O412 C423 1.253 . S
O413 Zn407 1.941 . S
O413 C423 1.283 1_455 S
O414 Zn407 1.965 . S
O414 C422 1.303 . S
O415 Zn408 1.938 . S
O415 C422 1.247 1_545 S
O416 Zn408 1.906 . S
O416 C424 1.304 . S
O417 Zn405 1.924 . S
O417 C425 1.311 . S
O418 Zn409 1.977 . S
O418 C424 1.272 1_655 S
O419 Zn409 1.910 . S
O419 C425 1.231 . S
C420 O404 1.225 . S
C420 O426 1.298 . S
C421 O410 1.226 1_655 S
C421 O411 1.307 1_565 S
C422 O414 1.303 . S
C422 O415 1.247 1_565 S
C423 O412 1.253 . S
C423 O413 1.283 1_655 S
C424 O416 1.304 . S
C424 O418 1.272 1_455 S
C425 O417 1.311 . S
C425 O419 1.231 . S
O426 Zn408 1.953 . S
O426 C420 1.298 . S
O427 Zn428 1.953 . S
O427 C443 1.225 . S
Zn428 O427 1.953 . S
Zn428 O429 1.949 . S
Zn428 O435 1.919 . S
Zn428 O440 1.924 . S
O429 Zn428 1.949 . S
O429 Zn430 1.923 . S
O429 Zn431 1.950 . S
O429 Zn432 1.945 . S
Zn430 O429 1.923 . S
Zn430 O433 1.933 . S
Zn430 O436 1.941 . S
Zn430 O437 1.965 . S
Zn431 O429 1.950 . S
Zn431 O438 1.938 . S
Zn431 O439 1.906 . S
Zn431 O449 1.953 . S
Zn432 O429 1.945 . S
Zn432 O434 1.932 . S
Zn432 O441 1.977 . S
Zn432 O442 1.910 . S
O433 Zn430 1.933 . S
O433 C444 1.226 . S
O434 Zn432 1.932 . S
O434 C444 1.307 . S
O435 Zn428 1.919 . S
O435 C446 1.253 . S
O436 Zn430 1.941 . S
O436 C446 1.283 . S
O437 Zn430 1.965 . S
O437 C445 1.303 . S
O438 Zn431 1.938 . S
O438 C445 1.247 . S
O439 Zn431 1.906 . S
O439 C447 1.304 . S
O440 Zn428 1.924 . S
O440 C448 1.311 . S
O441 Zn432 1.977 . S
O441 C447 1.272 . S
O442 Zn432 1.910 . S
O442 C448 1.231 . S
C443 O427 1.225 . S
C443 O449 1.298 . S
C444 O433 1.226 . S
C444 O434 1.307 . S
C445 O437 1.303 . S
C445 O438 1.247 . S
C446 O435 1.253 . S
C446 O436 1.283 . S
C447 O439 1.304 . S
C447 O441 1.272 . S
C448 O440 1.311 . S
C448 O442 1.231 . S
O449 Zn431 1.953 . S
O449 C443 1.298 . S
O450 Zn451 1.953 . S
O450 C466 1.225 . S
Zn451 O450 1.953 . S
Zn451 O452 1.949 . S
Zn451 O458 1.919 1_545 S
Zn451 O463 1.924 . S
O452 Zn451 1.949 . S
O452 Zn453 1.935 1_545 S
O452 Zn454 1.950 . S
O452 Zn455 1.945 1_554 S
Zn453 O452 1.935 1_565 S
Zn453 O456 1.908 1_554 S
Zn453 O459 1.938 1_554 S
Zn453 O460 1.983 . S
Zn454 O452 1.950 . S
Zn454 O461 1.938 1_545 S
Zn454 O462 1.906 . S
Zn454 O472 1.953 . S
Zn455 O452 1.945 1_556 S
Zn455 O457 1.932 . S
Zn455 O464 1.977 1_556 S
Zn455 O465 1.910 . S
O456 Zn453 1.908 1_556 S
O456 C467 1.226 . S
O457 Zn455 1.932 . S
O457 C467 1.307 1_545 S
O458 Zn451 1.919 1_565 S
O458 C469 1.253 1_554 S
O459 Zn453 1.938 1_556 S
O459 C469 1.283 . S
O460 Zn453 1.983 . S
O460 C468 1.303 . S
O461 Zn454 1.938 1_565 S
O461 C468 1.247 . S
O462 Zn454 1.906 . S
O462 C470 1.304 . S
O463 Zn451 1.924 . S
O463 C471 1.311 . S
O464 Zn455 1.977 1_554 S
O464 C470 1.272 . S
O465 Zn455 1.910 . S
O465 C471 1.231 1_556 S
C466 O450 1.225 . S
C466 O472 1.298 . S
C467 O456 1.226 . S
C467 O457 1.307 1_565 S
C468 O460 1.303 . S
C468 O461 1.247 . S
C469 O458 1.253 1_556 S
C469 O459 1.283 . S
C470 O462 1.304 . S
C470 O464 1.272 . S
C471 O463 1.311 . S
C471 O465 1.231 1_554 S
O472 Zn454 1.953 . S
O472 C466 1.298 . S
O473 Zn474 1.953 . S
O473 C489 1.225 . S
Zn474 O473 1.953 . S
Zn474 O475 1.949 . S
Zn474 O481 1.919 . S
Zn474 O486 1.924 . S
O475 Zn474 1.949 . S
O475 Zn476 1.923 . S
O475 Zn477 1.950 . S
O475 Zn478 1.945 . S
Zn476 O475 1.923 . S
Zn476 O479 1.933 . S
Zn476 O482 1.941 . S
Zn476 O483 1.965 . S
Zn477 O475 1.950 . S
Zn477 O484 1.938 . S
Zn477 O485 1.906 . S
Zn477 O495 1.953 . S
Zn478 O475 1.945 . S
Zn478 O480 1.932 . S
Zn478 O487 1.977 . S
Zn478 O488 1.910 . S
O479 Zn476 1.933 . S
O479 C490 1.226 . S
O480 Zn478 1.932 . S
O480 C490 1.307 . S
O481 Zn474 1.919 . S
O481 C492 1.253 . S
O482 Zn476 1.941 . S
O482 C492 1.283 . S
O483 Zn476 1.965 . S
O483 C491 1.303 . S
O484 Zn477 1.938 . S
O484 C491 1.247 . S
O485 Zn477 1.906 . S
O485 C493 1.304 . S
O486 Zn474 1.924 . S
O486 C494 1.311 . S
O487 Zn478 1.977 . S
O487 C493 1.272 . S
O488 Zn478 1.910 . S
O488 C494 1.231 . S
C489 O473 1.225 . S
C489 O495 1.298 . S
C490 O479 1.226 . S
C490 O480 1.307 . S
C491 O483 1.303 . S
C491 O484 1.247 . S
C492 O481 1.253 . S
C492 O482 1.283 . S
C493 O485 1.304 . S
C493 O487 1.272 . S
C494 O486 1.311 . S
C494 O488 1.231 . S
O495 Zn477 1.953 . S
O495 C489 1.298 . S
O496 Zn497 1.953 . S
O496 C512 1.225 . S
Zn497 O496 1.953 . S
Zn497 O498 1.949 1_556 S
Zn497 O504 1.919 . S
Zn497 O509 1.924 . S
O498 Zn497 1.949 1_554 S
O498 Zn499 1.923 . S
O498 Zn500 1.950 . S
O498 Zn501 1.945 . S
Zn499 O498 1.923 . S
Zn499 O502 1.933 . S
Zn499 O505 1.941 . S
Zn499 O506 1.965 . S
Zn500 O498 1.950 . S
Zn500 O507 1.938 . S
Zn500 O508 1.906 . S
Zn500 O518 1.953 1_554 S
Zn501 O498 1.945 . S
Zn501 O503 1.932 . S
Zn501 O510 1.977 . S
Zn501 O511 1.910 . S
O502 Zn499 1.933 . S
O502 C513 1.226 . S
O503 Zn501 1.932 . S
O503 C513 1.307 . S
O504 Zn497 1.919 . S
O504 C515 1.253 1_556 S
O505 Zn499 1.941 . S
O505 C515 1.283 . S
O506 Zn499 1.965 . S
O506 C514 1.303 . S
O507 Zn500 1.938 . S
O507 C514 1.247 . S
O508 Zn500 1.906 . S
O508 C516 1.304 . S
O509 Zn497 1.924 . S
O509 C517 1.311 . S
O510 Zn501 1.977 . S
O510 C516 1.272 . S
O511 Zn501 1.910 . S
O511 C517 1.231 1_554 S
C512 O496 1.225 . S
C512 O518 1.298 . S
C513 O502 1.226 . S
C513 O503 1.307 . S
C514 O506 1.303 . S
C514 O507 1.247 . S
C515 O504 1.253 1_554 S
C515 O505 1.283 . S
C516 O508 1.304 . S
C516 O510 1.272 . S
C517 O509 1.311 . S
C517 O511 1.231 1_556 S
O518 Zn500 1.953 1_556 S
O518 C512 1.298 . S
O519 Zn520 1.953 . S
O519 C535 1.225 . S
Zn520 O519 1.953 . S
Zn520 O521 1.949 . S
Zn520 O527 1.919 . S
Zn520 O532 1.924 . S
O521 Zn520 1.949 . S
O521 Zn522 1.923 . S
O521 Zn523 1.950 . S
O521 Zn524 1.945 . S
Zn522 O521 1.923 . S
Zn522 O525 1.933 . S
Zn522 O528 1.941 . S
Zn522 O529 1.965 . S
Zn523 O521 1.950 . S
Zn523 O530 1.938 . S
Zn523 O531 1.906 . S
Zn523 O541 1.953 . S
Zn524 O521 1.945 . S
Zn524 O526 1.932 . S
Zn524 O533 1.977 . S
Zn524 O534 1.910 . S
O525 Zn522 1.933 . S
O525 C536 1.226 . S
O526 Zn524 1.932 . S
O526 C536 1.307 . S
O527 Zn520 1.919 . S
O527 C538 1.253 . S
O528 Zn522 1.941 . S
O528 C538 1.283 . S
O529 Zn522 1.965 . S
O529 C537 1.303 . S
O530 Zn523 1.938 . S
O530 C537 1.247 . S
O531 Zn523 1.906 . S
O531 C539 1.304 . S
O532 Zn520 1.924 . S
O532 C540 1.311 . S
O533 Zn524 1.977 . S
O533 C539 1.272 . S
O534 Zn524 1.910 . S
O534 C540 1.231 . S
C535 O519 1.225 . S
C535 O541 1.298 . S
C536 O525 1.226 . S
C536 O526 1.307 . S
C537 O529 1.303 . S
C537 O530 1.247 . S
C538 O527 1.253 . S
C538 O528 1.283 . S
C539 O531 1.304 . S
C539 O533 1.272 . S
C540 O532 1.311 . S
C540 O534 1.231 . S
O541 Zn523 1.953 . S
O541 C535 1.298 . S
O542 Zn543 1.953 . S
O542 C558 1.225 . S
Zn543 O542 1.953 . S
Zn543 O544 1.949 . S
Zn543 O550 1.919 . S
Zn543 O555 1.924 . S
O544 Zn543 1.949 . S
O544 Zn545 1.923 . S
O544 Zn546 1.950 1_455 S
O544 Zn547 1.945 1_455 S
Zn545 O544 1.923 . S
Zn545 O548 1.933 1_455 S
Zn545 O551 1.941 . S
Zn545 O552 1.965 1_455 S
Zn546 O544 1.950 1_655 S
Zn546 O553 1.938 . S
Zn546 O554 1.906 . S
Zn546 O564 1.953 1_655 S
Zn547 O544 1.945 1_655 S
Zn547 O549 1.932 . S
Zn547 O556 1.977 . S
Zn547 O557 1.910 1_655 S
O548 Zn545 1.933 1_655 S
O548 C559 1.226 . S
O549 Zn547 1.932 . S
O549 C559 1.307 . S
O550 Zn543 1.919 . S
O550 C561 1.253 . S
O551 Zn545 1.941 . S
O551 C561 1.283 . S
O552 Zn545 1.965 1_655 S
O552 C560 1.303 . S
O553 Zn546 1.938 . S
O553 C560 1.247 . S
O554 Zn546 1.906 . S
O554 C562 1.304 . S
O555 Zn543 1.924 . S
O555 C563 1.311 . S
O556 Zn547 1.977 . S
O556 C562 1.272 . S
O557 Zn547 1.910 1_455 S
O557 C563 1.231 . S
C558 O542 1.225 . S
C558 O564 1.298 . S
C559 O548 1.226 . S
C559 O549 1.307 . S
C560 O552 1.303 . S
C560 O553 1.247 . S
C561 O550 1.253 . S
C561 O551 1.283 . S
C562 O554 1.304 . S
C562 O556 1.272 . S
C563 O555 1.311 . S
C563 O557 1.231 . S
O564 Zn546 1.953 1_455 S
O564 C558 1.298 . S
O565 Zn566 1.953 . S
O565 C581 1.225 . S
Zn566 O565 1.953 . S
Zn566 O567 1.949 . S
Zn566 O573 1.919 . S
Zn566 O578 1.924 . S
O567 Zn566 1.949 . S
O567 Zn568 1.923 . S
O567 Zn569 1.950 . S
O567 Zn570 1.945 . S
Zn568 O567 1.923 . S
Zn568 O571 1.933 . S
Zn568 O574 1.941 . S
Zn568 O575 1.965 . S
Zn569 O567 1.950 . S
Zn569 O576 1.938 . S
Zn569 O577 1.906 . S
Zn569 O587 1.953 . S
Zn570 O567 1.945 . S
Zn570 O572 1.932 . S
Zn570 O579 1.977 . S
Zn570 O580 1.910 . S
O571 Zn568 1.933 . S
O571 C582 1.226 . S
O572 Zn570 1.932 . S
O572 C582 1.307 . S
O573 Zn566 1.919 . S
O573 C584 1.253 . S
O574 Zn568 1.941 . S
O574 C584 1.283 . S
O575 Zn568 1.965 . S
O575 C583 1.303 . S
O576 Zn569 1.938 . S
O576 C583 1.247 . S
O577 Zn569 1.906 . S
O577 C585 1.304 . S
O578 Zn566 1.924 . S
O578 C586 1.311 . S
O579 Zn570 1.977 . S
O579 C585 1.272 . S
O580 Zn570 1.910 . S
O580 C586 1.231 . S
C581 O565 1.225 . S
C581 O587 1.298 . S
C582 O571 1.226 . S
C582 O572 1.307 . S
C583 O575 1.303 . S
C583 O576 1.247 . S
C584 O573 1.253 . S
C584 O574 1.283 . S
C585 O577 1.304 . S
C585 O579 1.272 . S
C586 O578 1.311 . S
C586 O580 1.231 . S
O587 Zn569 1.953 . S
O587 C581 1.298 . S
O588 Zn589 1.953 . S
O588 C604 1.225 . S
Zn589 O588 1.953 . S
Zn589 O590 1.949 . S
Zn589 O596 1.919 . S
Zn589 O601 1.924 . S
O590 Zn589 1.949 . S
O590 Zn591 1.923 . S
O590 Zn592 1.950 . S
O590 Zn593 1.945 . S
Zn591 O590 1.923 . S
Zn591 O594 1.933 . S
Zn591 O597 1.941 . S
Zn591 O598 1.965 . S
Zn592 O590 1.950 . S
Zn592 O599 1.938 . S
Zn592 O600 1.906 . S
Zn592 O610 1.953 . S
Zn593 O590 1.945 . S
Zn593 O595 1.932 . S
Zn593 O602 1.977 . S
Zn593 O603 1.910 . S
O594 Zn591 1.933 . S
O594 C605 1.226 . S
O595 Zn593 1.932 . S
O595 C605 1.307 . S
O596 Zn589 1.919 . S
O596 C607 1.253 . S
O597 Zn591 1.941 . S
O597 C607 1.283 . S
O598 Zn591 1.965 . S
O598 C606 1.303 . S
O599 Zn592 1.938 . S
O599 C606 1.247 . S
O600 Zn592 1.906 . S
O600 C608 1.304 . S
O601 Zn589 1.924 . S
O601 C609 1.311 . S
O602 Zn593 1.977 . S
O602 C608 1.272 . S
O603 Zn593 1.910 . S
O603 C609 1.231 . S
C604 O588 1.225 . S
C604 O610 1.298 . S
C605 O594 1.226 . S
C605 O595 1.307 . S
C606 O598 1.303 . S
C606 O599 1.247 . S
C607 O596 1.253 . S
C607 O597 1.283 . S
C608 O600 1.304 . S
C608 O602 1.272 . S
C609 O601 1.311 . S
C609 O603 1.231 . S
O610 Zn592 1.953 . S
O610 C604 1.298 . S
O611 Zn612 1.953 . S
O611 C627 1.225 . S
Zn612 O611 1.953 . S
Zn612 O613 1.949 . S
Zn612 O619 1.919 . S
Zn612 O624 1.924 . S
O613 Zn612 1.949 . S
O613 Zn614 1.923 . S
O613 Zn615 1.950 . S
O613 Zn616 1.945 . S
Zn614 O613 1.923 . S
Zn614 O617 1.933 . S
Zn614 O620 1.941 . S
Zn614 O621 1.965 . S
Zn615 O613 1.950 . S
Zn615 O622 1.938 . S
Zn615 O623 1.906 . S
Zn615 O633 1.953 . S
Zn616 O613 1.945 . S
Zn616 O618 1.932 . S
Zn616 O625 1.977 . S
Zn616 O626 1.910 . S
O617 Zn614 1.933 . S
O617 C628 1.226 . S
O618 Zn616 1.932 . S
O618 C628 1.307 . S
O619 Zn612 1.919 . S
O619 C630 1.253 . S
O620 Zn614 1.941 . S
O620 C630 1.283 . S
O621 Zn614 1.965 . S
O621 C629 1.303 . S
O622 Zn615 1.938 . S
O622 C629 1.247 . S
O623 Zn615 1.906 . S
O623 C631 1.304 . S
O624 Zn612 1.924 . S
O624 C632 1.311 . S
O625 Zn616 1.977 . S
O625 C631 1.272 . S
O626 Zn616 1.910 . S
O626 C632 1.231 . S
C627 O611 1.225 . S
C627 O633 1.298 . S
C628 O617 1.226 . S
C628 O618 1.307 . S
C629 O621 1.303 . S
C629 O622 1.247 . S
C630 O619 1.253 . S
C630 O620 1.283 . S
C631 O623 1.304 . S
C631 O625 1.272 . S
C632 O624 1.311 . S
C632 O626 1.231 . S
O633 Zn615 1.953 . S
O633 C627 1.298 . S
O634 Zn635 1.953 . S
O634 C650 1.225 . S
Zn635 O634 1.953 . S
Zn635 O636 1.949 . S
Zn635 O642 1.919 . S
Zn635 O647 1.924 . S
O636 Zn635 1.949 . S
O636 Zn637 1.923 . S
O636 Zn638 1.950 . S
O636 Zn639 1.945 . S
Zn637 O636 1.923 . S
Zn637 O640 1.933 . S
Zn637 O643 1.941 . S
Zn637 O644 1.965 . S
Zn638 O636 1.950 . S
Zn638 O645 1.938 . S
Zn638 O646 1.906 . S
Zn638 O656 1.953 . S
Zn639 O636 1.945 . S
Zn639 O641 1.932 . S
Zn639 O648 1.977 . S
Zn639 O649 1.910 . S
O640 Zn637 1.933 . S
O640 C651 1.226 . S
O641 Zn639 1.932 . S
O641 C651 1.307 . S
O642 Zn635 1.919 . S
O642 C653 1.253 . S
O643 Zn637 1.941 . S
O643 C653 1.283 . S
O644 Zn637 1.965 . S
O644 C652 1.303 . S
O645 Zn638 1.938 . S
O645 C652 1.247 . S
O646 Zn638 1.906 . S
O646 C654 1.304 . S
O647 Zn635 1.924 . S
O647 C655 1.311 . S
O648 Zn639 1.977 . S
O648 C654 1.272 . S
O649 Zn639 1.910 . S
O649 C655 1.231 . S
C650 O634 1.225 . S
C650 O656 1.298 . S
C651 O640 1.226 . S
C651 O641 1.307 . S
C652 O644 1.303 . S
C652 O645 1.247 . S
C653 O642 1.253 . S
C653 O643 1.283 . S
C654 O646 1.304 . S
C654 O648 1.272 . S
C655 O647 1.311 . S
C655 O649 1.231 . S
O656 Zn638 1.953 . S
O656 C650 1.298 . S
O657 Zn658 1.957 1_554 S
O657 C673 1.225 . S
Zn658 O657 1.957 1_556 S
Zn658 O659 1.954 1_556 S
Zn658 O665 1.904 1_455 S
Zn658 O670 1.931 . S
O659 Zn658 1.954 1_554 S
O659 Zn660 1.923 1_455 S
O659 Zn661 1.950 . S
O659 Zn662 1.945 1_554 S
Zn660 O659 1.923 1_655 S
Zn660 O663 1.933 . S
Zn660 O666 1.941 . S
Zn660 O667 1.965 . S
Zn661 O659 1.950 . S
Zn661 O668 1.938 . S
Zn661 O669 1.906 . S
Zn661 O679 1.953 . S
Zn662 O659 1.945 1_556 S
Zn662 O664 1.932 . S
Zn662 O671 1.977 1_556 S
Zn662 O672 1.910 . S
O663 Zn660 1.933 . S
O663 C674 1.226 1_554 S
O664 Zn662 1.932 . S
O664 C674 1.307 1_455 S
O665 Zn658 1.904 1_655 S
O665 C676 1.253 . S
O666 Zn660 1.941 . S
O666 C676 1.283 1_554 S
O667 Zn660 1.965 . S
O667 C675 1.303 . S
O668 Zn661 1.938 . S
O668 C675 1.247 1_455 S
O669 Zn661 1.906 . S
O669 C677 1.304 . S
O670 Zn658 1.931 . S
O670 C678 1.311 . S
O671 Zn662 1.977 1_554 S
O671 C677 1.272 . S
O672 Zn662 1.910 . S
O672 C678 1.231 . S
C673 O657 1.225 . S
C673 O679 1.298 . S
C674 O663 1.226 1_556 S
C674 O664 1.307 1_655 S
C675 O667 1.303 . S
C675 O668 1.247 1_655 S
C676 O665 1.253 . S
C676 O666 1.283 1_556 S
C677 O669 1.304 . S
C677 O671 1.272 . S
C678 O670 1.311 . S
C678 O672 1.231 . S
O679 Zn661 1.953 . S
O679 C673 1.298 . S
C680 C681 1.387 . S
C680 H684 0.950 . S
C680 C689 1.390 . S
C681 C680 1.387 . S
C681 C683 1.387 1_655 S
H682 C689 0.950 . S
C683 C681 1.387 1_455 S
C683 C685 1.390 . S
C683 H687 0.950 . S
H684 C680 0.950 . S
C685 C683 1.390 . S
C685 C686 1.387 1_455 S
C685 H688 0.950 . S
C686 C685 1.387 1_655 S
C686 C689 1.387 . S
H687 C683 0.950 . S
H688 C685 0.950 . S
C689 C680 1.390 . S
C689 H682 0.950 . S
C689 C686 1.387 . S
C690 C691 1.387 . S
C690 H694 0.950 . S
C690 C699 1.390 . S
C691 C690 1.387 . S
C691 C693 1.387 . S
H692 C699 0.950 . S
C693 C691 1.387 . S
C693 C695 1.390 . S
C693 H697 0.950 . S
H694 C690 0.950 . S
C695 C693 1.390 . S
C695 C696 1.387 . S
C695 H698 0.950 . S
C696 C695 1.387 . S
C696 C699 1.387 . S
H697 C693 0.950 . S
H698 C695 0.950 . S
C699 C690 1.390 . S
C699 H692 0.950 . S
C699 C696 1.387 . S
C700 C701 1.387 . S
C700 H704 0.950 . S
C700 C709 1.390 . S
C701 C700 1.387 . S
C701 C703 1.387 . S
H702 C709 0.950 . S
C703 C701 1.387 . S
C703 C705 1.390 . S
C703 H707 0.950 . S
H704 C700 0.950 . S
C705 C703 1.390 . S
C705 C706 1.387 . S
C705 H708 0.950 . S
C706 C705 1.387 . S
C706 C709 1.387 . S
H707 C703 0.950 . S
H708 C705 0.950 . S
C709 C700 1.390 . S
C709 H702 0.950 . S
C709 C706 1.387 . S
C710 C711 1.387 . S
C710 H714 0.950 . S
C710 C719 1.390 . S
C711 C710 1.387 . S
C711 C713 1.387 . S
H712 C719 0.950 . S
C713 C711 1.387 . S
C713 C715 1.390 . S
C713 H717 0.950 . S
H714 C710 0.950 . S
C715 C713 1.390 . S
C715 C716 1.387 . S
C715 H718 0.950 . S
C716 C715 1.387 . S
C716 C719 1.387 . S
H717 C713 0.950 . S
H718 C715 0.950 . S
C719 C710 1.390 . S
C719 H712 0.950 . S
C719 C716 1.387 . S
C720 C721 1.388 . S
C720 H724 0.948 1_655 S
C720 C729 1.392 . S
C721 C720 1.388 . S
C721 C723 1.387 . S
H722 C729 0.950 . S
C723 C721 1.387 . S
C723 C725 1.390 . S
C723 H727 0.950 . S
H724 C720 0.948 1_455 S
C725 C723 1.390 . S
C725 C726 1.387 . S
C725 H728 0.950 . S
C726 C725 1.387 . S
C726 C729 1.387 . S
H727 C723 0.950 . S
H728 C725 0.950 . S
C729 C720 1.392 . S
C729 H722 0.950 . S
C729 C726 1.387 . S
C730 C731 1.387 . S
C730 H734 0.950 . S
C730 C739 1.390 . S
C731 C730 1.387 . S
C731 C733 1.387 . S
H732 C739 0.950 . S
C733 C731 1.387 . S
C733 C735 1.390 . S
C733 H737 0.950 . S
H734 C730 0.950 . S
C735 C733 1.390 . S
C735 C736 1.387 . S
C735 H738 0.950 . S
C736 C735 1.387 . S
C736 C739 1.387 . S
H737 C733 0.950 . S
H738 C735 0.950 . S
C739 C730 1.390 . S
C739 H732 0.950 . S
C739 C736 1.387 . S
C740 C741 1.387 . S
C740 H744 0.950 . S
C740 C749 1.390 . S
C741 C740 1.387 . S
C741 C743 1.387 . S
H742 C749 0.950 1_554 S
C743 C741 1.387 . S
C743 C745 1.390 . S
C743 H747 0.950 . S
H744 C740 0.950 . S
C745 C743 1.390 . S
C745 C746 1.387 . S
C745 H748 0.950 . S
C746 C745 1.387 . S
C746 C749 1.387 . S
H747 C743 0.950 . S
H748 C745 0.950 . S
C749 C740 1.390 . S
C749 H742 0.950 1_556 S
C749 C746 1.387 . S
C750 C751 1.387 . S
C750 H754 0.950 . S
C750 C759 1.390 . S
C751 C750 1.387 . S
C751 C753 1.387 . S
H752 C759 0.950 . S
C753 C751 1.387 . S
C753 C755 1.390 . S
C753 H757 0.950 . S
H754 C750 0.950 . S
C755 C753 1.390 . S
C755 C756 1.387 . S
C755 H758 0.950 . S
C756 C755 1.387 . S
C756 C759 1.387 . S
H757 C753 0.950 . S
H758 C755 0.950 . S
C759 C750 1.390 . S
C759 H752 0.950 . S
C759 C756 1.387 . S
C760 C761 1.387 1_565 S
C760 H764 0.950 . S
C760 C769 1.390 . S
C761 C760 1.387 1_545 S
C761 C763 1.387 . S
H762 C769 0.950 . S
C763 C761 1.387 . S
C763 C765 1.390 . S
C763 H767 0.950 . S
H764 C760 0.950 . S
C765 C763 1.390 . S
C765 C766 1.387 . S
C765 H768 0.950 . S
C766 C765 1.387 . S
C766 C769 1.387 1_545 S
H767 C763 0.950 . S
H768 C765 0.950 . S
C769 C760 1.390 . S
C769 H762 0.950 . S
C769 C766 1.387 1_565 S
C770 C771 1.387 . S
C770 H774 0.950 . S
C770 C779 1.390 . S
C771 C770 1.387 . S
C771 C773 1.387 . S
H772 C779 0.950 . S
C773 C771 1.387 . S
C773 C775 1.390 . S
C773 H777 0.950 . S
H774 C770 0.950 . S
C775 C773 1.390 . S
C775 C776 1.387 . S
C775 H778 0.950 . S
C776 C775 1.387 . S
C776 C779 1.387 . S
H777 C773 0.950 . S
H778 C775 0.950 . S
C779 C770 1.390 . S
C779 H772 0.950 . S
C779 C776 1.387 . S
C780 C781 1.387 1_565 S
C780 H784 0.950 . S
C780 C789 1.390 . S
C781 C780 1.387 1_545 S
C781 C783 1.387 . S
H782 C789 0.950 . S
C783 C781 1.387 . S
C783 C785 1.390 . S
C783 H787 0.950 . S
H784 C780 0.950 . S
C785 C783 1.390 . S
C785 C786 1.387 . S
C785 H788 0.950 . S
C786 C785 1.387 . S
C786 C789 1.387 1_545 S
H787 C783 0.950 . S
H788 C785 0.950 . S
C789 C780 1.390 . S
C789 H782 0.950 . S
C789 C786 1.387 1_565 S
C790 C791 1.387 . S
C790 H794 0.950 . S
C790 C799 1.390 . S
C791 C790 1.387 . S
C791 C793 1.387 . S
H792 C799 0.950 . S
C793 C791 1.387 . S
C793 C795 1.390 . S
C793 H797 0.950 . S
H794 C790 0.950 . S
C795 C793 1.390 . S
C795 C796 1.387 . S
C795 H798 0.950 . S
C796 C795 1.387 . S
C796 C799 1.387 . S
H797 C793 0.950 . S
H798 C795 0.950 . S
C799 C790 1.390 . S
C799 H792 0.950 . S
C799 C796 1.387 . S
C800 C801 1.387 . S
C800 H804 0.950 . S
C800 C809 1.390 . S
C801 C800 1.387 . S
C801 C803 1.387 . S
H802 C809 0.950 . S
C803 C801 1.387 . S
C803 C805 1.390 . S
C803 H807 0.950 1_545 S
H804 C800 0.950 . S
C805 C803 1.390 . S
C805 C806 1.387 . S
C805 H808 0.950 1_545 S
C806 C805 1.387 . S
C806 C809 1.387 . S
H807 C803 0.950 1_565 S
H808 C805 0.950 1_565 S
C809 C800 1.390 . S
C809 H802 0.950 . S
C809 C806 1.387 . S
C810 C811 1.387 . S
C810 H814 0.950 . S
C810 C819 1.390 . S
C811 C810 1.387 . S
C811 C813 1.387 . S
H812 C819 0.950 . S
C813 C811 1.387 . S
C813 C815 1.390 . S
C813 H817 0.950 . S
H814 C810 0.950 . S
C815 C813 1.390 . S
C815 C816 1.387 . S
C815 H818 0.950 . S
C816 C815 1.387 . S
C816 C819 1.387 . S
H817 C813 0.950 . S
H818 C815 0.950 . S
C819 C810 1.390 . S
C819 H812 0.950 . S
C819 C816 1.387 . S
C820 C821 1.387 . S
C820 H824 0.950 . S
C820 C829 1.390 . S
C821 C820 1.387 . S
C821 C823 1.387 1_565 S
H822 C829 0.950 . S
C823 C821 1.387 1_545 S
C823 C825 1.390 . S
C823 H827 0.950 . S
H824 C820 0.950 . S
C825 C823 1.390 . S
C825 C826 1.387 1_545 S
C825 H828 0.950 . S
C826 C825 1.387 1_565 S
C826 C829 1.387 . S
H827 C823 0.950 . S
H828 C825 0.950 . S
C829 C820 1.390 . S
C829 H822 0.950 . S
C829 C826 1.387 . S
C830 C831 1.387 . S
C830 H834 0.950 . S
C830 C839 1.390 . S
C831 C830 1.387 . S
C831 C833 1.387 . S
H832 C839 0.950 . S
C833 C831 1.387 . S
C833 C835 1.390 . S
C833 H837 0.950 . S
H834 C830 0.950 . S
C835 C833 1.390 . S
C835 C836 1.387 . S
C835 H838 0.950 . S
C836 C835 1.387 . S
C836 C839 1.387 . S
H837 C833 0.950 . S
H838 C835 0.950 . S
C839 C830 1.390 . S
C839 H832 0.950 . S
C839 C836 1.387 . S
C840 C841 1.387 . S
C840 H844 0.950 . S
C840 C849 1.390 . S
C841 C840 1.387 . S
C841 C843 1.387 1_554 S
H842 C849 0.950 . S
C843 C841 1.387 1_556 S
C843 C845 1.390 . S
C843 H847 0.950 . S
H844 C840 0.950 . S
C845 C843 1.390 . S
C845 C846 1.387 . S
C845 H848 0.950 . S
C846 C845 1.387 . S
C846 C849 1.387 1_556 S
H847 C843 0.950 . S
H848 C845 0.950 . S
C849 C840 1.390 . S
C849 H842 0.950 . S
C849 C846 1.387 1_554 S
C850 C851 1.387 . S
C850 H854 0.950 . S
C850 C859 1.390 . S
C851 C850 1.387 . S
C851 C853 1.387 . S
H852 C859 0.950 . S
C853 C851 1.387 . S
C853 C855 1.390 . S
C853 H857 0.950 1_554 S
H854 C850 0.950 . S
C855 C853 1.390 . S
C855 C856 1.387 . S
C855 H858 0.942 1_554 S
C856 C855 1.387 . S
C856 C859 1.387 . S
H857 C853 0.950 1_556 S
H858 C855 0.942 1_556 S
C859 C850 1.390 . S
C859 H852 0.950 . S
C859 C856 1.387 . S
C860 C861 1.387 . S
C860 H864 0.950 . S
C860 C869 1.390 . S
C861 C860 1.387 . S
C861 C863 1.387 . S
H862 C869 0.950 . S
C863 C861 1.387 . S
C863 C865 1.390 . S
C863 H867 0.950 . S
H864 C860 0.950 . S
C865 C863 1.390 . S
C865 C866 1.387 . S
C865 H868 0.950 . S
C866 C865 1.387 . S
C866 C869 1.387 . S
H867 C863 0.950 . S
H868 C865 0.950 . S
C869 C860 1.390 . S
C869 H862 0.950 . S
C869 C866 1.387 . S
C870 C871 1.387 . S
C870 H874 0.950 . S
C870 C879 1.390 . S
C871 C870 1.387 . S
C871 C873 1.387 . S
H872 C879 0.950 . S
C873 C871 1.387 . S
C873 C875 1.390 . S
C873 H877 0.950 . S
H874 C870 0.950 . S
C875 C873 1.390 . S
C875 C876 1.387 . S
C875 H878 0.950 . S
C876 C875 1.387 . S
C876 C879 1.387 . S
H877 C873 0.950 . S
H878 C875 0.950 . S
C879 C870 1.390 . S
C879 H872 0.950 . S
C879 C876 1.387 . S
C880 C881 1.387 . S
C880 H884 0.950 . S
C880 C889 1.390 . S
C881 C880 1.387 . S
C881 C883 1.387 . S
H882 C889 0.950 . S
C883 C881 1.387 . S
C883 C885 1.390 . S
C883 H887 0.950 . S
H884 C880 0.950 . S
C885 C883 1.390 . S
C885 C886 1.387 . S
C885 H888 0.950 . S
C886 C885 1.387 . S
C886 C889 1.387 . S
H887 C883 0.950 . S
H888 C885 0.950 . S
C889 C880 1.390 . S
C889 H882 0.950 . S
C889 C886 1.387 . S
C890 C891 1.387 . S
C890 H894 0.950 . S
C890 C899 1.390 . S
C891 C890 1.387 . S
C891 C893 1.387 . S
H892 C899 0.950 . S
C893 C891 1.387 . S
C893 C895 1.390 . S
C893 H897 0.950 . S
H894 C890 0.950 . S
C895 C893 1.390 . S
C895 C896 1.387 . S
C895 H898 0.950 . S
C896 C895 1.387 . S
C896 C899 1.387 . S
H897 C893 0.950 . S
H898 C895 0.950 . S
C899 C890 1.390 . S
C899 H892 0.950 . S
C899 C896 1.387 . S
C900 C901 1.387 . S
C900 H904 0.950 . S
C900 C909 1.390 . S
C901 C900 1.387 . S
C901 C903 1.387 . S
H902 C909 0.950 . S
C903 C901 1.387 . S
C903 C905 1.390 . S
C903 H907 0.950 . S
H904 C900 0.950 . S
C905 C903 1.390 . S
C905 C906 1.387 . S
C905 H908 0.950 . S
C906 C905 1.387 . S
C906 C909 1.387 . S
H907 C903 0.950 . S
H908 C905 0.950 . S
C909 C900 1.390 . S
C909 H902 0.950 . S
C909 C906 1.387 . S
C910 C911 1.387 . S
C910 H914 0.950 . S
C910 C919 1.390 . S
C911 C910 1.387 . S
C911 C913 1.387 . S
H912 C919 0.950 . S
C913 C911 1.387 . S
C913 C915 1.390 . S
C913 H917 0.950 . S
H914 C910 0.950 . S
C915 C913 1.390 . S
C915 C916 1.387 . S
C915 H918 0.950 . S
C916 C915 1.387 . S
C916 C919 1.387 . S
H917 C913 0.950 . S
H918 C915 0.950 . S
C919 C910 1.390 . S
C919 H912 0.950 . S
C919 C916 1.387 . S
C920 C921 1.387 1_655 S
C920 H924 0.950 . S
C920 C929 1.390 . S
C921 C920 1.387 1_455 S
C921 C923 1.387 . S
H922 C929 0.950 . S
C923 C921 1.387 . S
C923 C925 1.390 . S
C923 H927 0.950 . S
H924 C920 0.950 . S
C925 C923 1.390 . S
C925 C926 1.387 . S
C925 H928 0.950 . S
C926 C925 1.387 . S
C926 C929 1.387 1_455 S
H927 C923 0.950 . S
H928 C925 0.950 . S
C929 C920 1.390 . S
C929 H922 0.950 . S
C929 C926 1.387 1_655 S
C930 C931 1.387 . S
C930 H934 0.950 . S
C930 C939 1.390 . S
C931 C930 1.387 . S
C931 C933 1.387 . S
H932 C939 0.950 . S
C933 C931 1.387 . S
C933 C935 1.390 . S
C933 H937 0.950 . S
H934 C930 0.950 . S
C935 C933 1.390 . S
C935 C936 1.387 . S
C935 H938 0.950 . S
C936 C935 1.387 . S
C936 C939 1.387 . S
H937 C933 0.950 . S
H938 C935 0.950 . S
C939 C930 1.390 . S
C939 H932 0.950 . S
C939 C936 1.387 . S
C940 C941 1.387 . S
C940 H944 0.950 . S
C940 C949 1.390 . S
C941 C940 1.387 . S
C941 C943 1.387 . S
H942 C949 0.950 . S
C943 C941 1.387 . S
C943 C945 1.390 . S
C943 H947 0.950 . S
H944 C940 0.950 . S
C945 C943 1.390 . S
C945 C946 1.387 . S
C945 H948 0.950 . S
C946 C945 1.387 . S
C946 C949 1.387 . S
H947 C943 0.950 . S
H948 C945 0.950 . S
C949 C940 1.390 . S
C949 H942 0.950 . S
C949 C946 1.387 . S
C950 C951 1.387 . S
C950 H954 0.950 . S
C950 C959 1.390 . S
C951 C950 1.387 . S
C951 C953 1.387 . S
H952 C959 0.950 . S
C953 C951 1.387 . S
C953 C955 1.390 . S
C953 H957 0.950 . S
H954 C950 0.950 . S
C955 C953 1.390 . S
C955 C956 1.387 . S
C955 H958 0.950 . S
C956 C955 1.387 . S
C956 C959 1.387 . S
H957 C953 0.950 . S
H958 C955 0.950 . S
C959 C950 1.390 . S
C959 H952 0.950 . S
C959 C956 1.387 . S
C960 C961 1.387 . S
C960 H964 0.950 . S
C960 C969 1.390 . S
C961 C960 1.387 . S
C961 C963 1.387 1_455 S
H962 C969 0.950 . S
C963 C961 1.387 1_655 S
C963 C965 1.391 . S
C963 H967 0.950 . S
H964 C960 0.950 . S
C965 C963 1.391 . S
C965 C966 1.387 1_655 S
C965 H968 0.950 . S
C966 C965 1.387 1_455 S
C966 C969 1.387 . S
H967 C963 0.950 . S
H968 C965 0.950 . S
C969 C960 1.390 . S
C969 H962 0.950 . S
C969 C966 1.387 . S
C970 C971 1.387 . S
C970 H974 0.950 . S
C970 C979 1.390 . S
C971 C970 1.387 . S
C971 C973 1.387 . S
H972 C979 0.950 . S
C973 C971 1.387 . S
C973 C975 1.390 . S
C973 H977 0.950 . S
H974 C970 0.950 . S
C975 C973 1.390 . S
C975 C976 1.387 . S
C975 H978 0.950 . S
C976 C975 1.387 . S
C976 C979 1.387 . S
H977 C973 0.950 . S
H978 C975 0.950 . S
C979 C970 1.390 . S
C979 H972 0.950 . S
C979 C976 1.387 . S
C980 C981 1.387 . S
C980 H984 0.950 . S
C980 C989 1.390 . S
C981 C980 1.387 . S
C981 C983 1.387 . S
H982 C989 0.950 . S
C983 C981 1.387 . S
C983 C985 1.390 . S
C983 H987 0.950 . S
H984 C980 0.950 . S
C985 C983 1.390 . S
C985 C986 1.387 . S
C985 H988 0.950 . S
C986 C985 1.387 . S
C986 C989 1.387 . S
H987 C983 0.950 . S
H988 C985 0.950 . S
C989 C980 1.390 . S
C989 H982 0.950 . S
C989 C986 1.387 . S
C990 C991 1.387 . S
C990 H994 0.950 . S
C990 C999 1.390 . S
C991 C990 1.387 . S
C991 C993 1.387 . S
H992 C999 0.950 . S
C993 C991 1.387 . S
C993 C995 1.390 . S
C993 H997 0.950 . S
H994 C990 0.950 . S
C995 C993 1.390 . S
C995 C996 1.387 . S
C995 H998 0.950 . S
C996 C995 1.387 . S
C996 C999 1.387 . S
H997 C993 0.950 . S
H998 C995 0.950 . S
C999 C990 1.390 . S
C999 H992 0.950 . S
C999 C996 1.387 . S
C1000 C1001 1.387 . S
C1000 H1004 0.950 . S
C1000 C1009 1.390 . S
C1001 C1000 1.387 . S
C1001 C1003 1.387 1_545 S
H1002 C1009 0.950 . S
C1003 C1001 1.387 1_565 S
C1003 C1005 1.390 1_565 S
C1003 H1007 0.950 . S
H1004 C1000 0.950 . S
C1005 C1003 1.390 1_545 S
C1005 C1006 1.387 . S
C1005 H1008 0.950 1_545 S
C1006 C1005 1.387 . S
C1006 C1009 1.387 . S
H1007 C1003 0.950 . S
H1008 C1005 0.950 1_565 S
C1009 C1000 1.390 . S
C1009 H1002 0.950 . S
C1009 C1006 1.387 . S
C1010 C1011 1.387 . S
C1010 H1014 0.950 . S
C1010 C1019 1.390 . S
C1011 C1010 1.387 . S
C1011 C1013 1.387 . S
H1012 C1019 0.950 . S
C1013 C1011 1.387 . S
C1013 C1015 1.390 . S
C1013 H1017 0.950 . S
H1014 C1010 0.950 . S
C1015 C1013 1.390 . S
C1015 C1016 1.387 . S
C1015 H1018 0.950 . S
C1016 C1015 1.387 . S
C1016 C1019 1.387 . S
H1017 C1013 0.950 . S
H1018 C1015 0.950 . S
C1019 C1010 1.390 . S
C1019 H1012 0.950 . S
C1019 C1016 1.387 . S
C1020 C1021 1.387 . S
C1020 H1024 0.950 . S
C1020 C1029 1.390 . S
C1021 C1020 1.387 . S
C1021 C1023 1.387 1_545 S
H1022 C1029 0.950 . S
C1023 C1021 1.387 1_565 S
C1023 C1025 1.390 . S
C1023 H1027 0.950 . S
H1024 C1020 0.950 . S
C1025 C1023 1.390 . S
C1025 C1026 1.387 . S
C1025 H1028 0.950 . S
C1026 C1025 1.387 . S
C1026 C1029 1.387 1_565 S
H1027 C1023 0.950 . S
H1028 C1025 0.950 . S
C1029 C1020 1.390 . S
C1029 H1022 0.950 . S
C1029 C1026 1.387 1_545 S
C1030 C1031 1.387 . S
C1030 H1034 0.950 . S
C1030 C1039 1.390 . S
C1031 C1030 1.387 . S
C1031 C1033 1.387 . S
H1032 C1039 0.950 . S
C1033 C1031 1.387 . S
C1033 C1035 1.390 . S
C1033 H1037 0.950 . S
H1034 C1030 0.950 . S
C1035 C1033 1.390 . S
C1035 C1036 1.387 . S
C1035 H1038 0.950 . S
C1036 C1035 1.387 . S
C1036 C1039 1.387 . S
H1037 C1033 0.950 . S
H1038 C1035 0.950 . S
C1039 C1030 1.390 . S
C1039 H1032 0.950 . S
C1039 C1036 1.387 . S
C1040 C1041 1.387 1_565 S
C1040 H1044 0.950 . S
C1040 C1049 1.390 . S
C1041 C1040 1.387 1_545 S
C1041 C1043 1.387 . S
H1042 C1049 0.950 . S
C1043 C1041 1.387 . S
C1043 C1045 1.390 . S
C1043 H1047 0.950 . S
H1044 C1040 0.950 . S
C1045 C1043 1.390 . S
C1045 C1046 1.387 1_545 S
C1045 H1048 0.950 . S
C1046 C1045 1.387 1_565 S
C1046 C1049 1.387 . S
H1047 C1043 0.950 . S
H1048 C1045 0.950 . S
C1049 C1040 1.390 . S
C1049 H1042 0.950 . S
C1049 C1046 1.387 . S
C1050 C1051 1.387 . S
C1050 H1054 0.950 . S
C1050 C1059 1.390 . S
C1051 C1050 1.387 . S
C1051 C1053 1.387 . S
H1052 C1059 0.950 . S
C1053 C1051 1.387 . S
C1053 C1055 1.390 . S
C1053 H1057 0.950 . S
H1054 C1050 0.950 . S
C1055 C1053 1.390 . S
C1055 C1056 1.387 . S
C1055 H1058 0.950 . S
C1056 C1055 1.387 . S
C1056 C1059 1.387 . S
H1057 C1053 0.950 . S
H1058 C1055 0.950 . S
C1059 C1050 1.390 . S
C1059 H1052 0.950 . S
C1059 C1056 1.387 . S
C1060 C1061 1.387 . S
C1060 H1064 0.950 . S
C1060 C1069 1.390 . S
C1061 C1060 1.387 . S
C1061 C1063 1.387 1_565 S
H1062 C1069 0.950 . S
C1063 C1061 1.387 1_545 S
C1063 C1065 1.390 . S
C1063 H1067 0.950 . S
H1064 C1060 0.950 . S
C1065 C1063 1.390 . S
C1065 C1066 1.387 . S
C1065 H1068 0.950 . S
C1066 C1065 1.387 . S
C1066 C1069 1.387 1_545 S
H1067 C1063 0.950 . S
H1068 C1065 0.950 . S
C1069 C1060 1.390 . S
C1069 H1062 0.950 . S
C1069 C1066 1.387 1_565 S
C1070 C1071 1.387 . S
C1070 H1074 0.950 . S
C1070 C1079 1.390 . S
C1071 C1070 1.387 . S
C1071 C1073 1.387 . S
H1072 C1079 0.950 . S
C1073 C1071 1.387 . S
C1073 C1075 1.390 . S
C1073 H1077 0.950 . S
H1074 C1070 0.950 . S
C1075 C1073 1.390 . S
C1075 C1076 1.387 . S
C1075 H1078 0.950 . S
C1076 C1075 1.387 . S
C1076 C1079 1.387 . S
H1077 C1073 0.950 . S
H1078 C1075 0.950 . S
C1079 C1070 1.390 . S
C1079 H1072 0.950 . S
C1079 C1076 1.387 . S
C1080 C1081 1.387 . S
C1080 H1084 0.950 . S
C1080 C1089 1.390 . S
C1081 C1080 1.387 . S
C1081 C1083 1.387 1_554 S
H1082 C1089 0.950 . S
C1083 C1081 1.387 1_556 S
C1083 C1085 1.390 . S
C1083 H1087 0.950 . S
H1084 C1080 0.950 . S
C1085 C1083 1.390 . S
C1085 C1086 1.387 1_556 S
C1085 H1088 0.950 . S
C1086 C1085 1.387 1_554 S
C1086 C1089 1.387 . S
H1087 C1083 0.950 . S
H1088 C1085 0.950 . S
C1089 C1080 1.390 . S
C1089 H1082 0.950 . S
C1089 C1086 1.387 . S
C1090 C1091 1.387 . S
C1090 H1094 0.950 . S
C1090 C1099 1.390 . S
C1091 C1090 1.387 . S
C1091 C1093 1.387 1_554 S
H1092 C1099 0.950 . S
C1093 C1091 1.387 1_556 S
C1093 C1095 1.390 . S
C1093 H1097 0.950 . S
H1094 C1090 0.950 . S
C1095 C1093 1.390 . S
C1095 C1096 1.387 . S
C1095 H1098 0.950 . S
C1096 C1095 1.387 . S
C1096 C1099 1.387 1_556 S
H1097 C1093 0.950 . S
H1098 C1095 0.950 . S
C1099 C1090 1.390 . S
C1099 H1092 0.950 . S
C1099 C1096 1.387 1_554 S
C1100 C1101 1.387 . S
C1100 H1104 0.950 . S
C1100 C1109 1.390 . S
C1101 C1100 1.387 . S
C1101 C1103 1.387 . S
H1102 C1109 0.950 . S
C1103 C1101 1.387 . S
C1103 C1105 1.390 . S
C1103 H1107 0.950 . S
H1104 C1100 0.950 . S
C1105 C1103 1.390 . S
C1105 C1106 1.387 . S
C1105 H1108 0.950 . S
C1106 C1105 1.387 . S
C1106 C1109 1.387 . S
H1107 C1103 0.950 . S
H1108 C1105 0.950 . S
C1109 C1100 1.390 . S
C1109 H1102 0.950 . S
C1109 C1106 1.387 . S
C1110 C1111 1.387 . S
C1110 H1114 0.950 . S
C1110 C1119 1.390 . S
C1111 C1110 1.387 . S
C1111 C1113 1.387 . S
H1112 C1119 0.950 . S
C1113 C1111 1.387 . S
C1113 C1115 1.390 . S
C1113 H1117 0.950 . S
H1114 C1110 0.950 . S
C1115 C1113 1.390 . S
C1115 C1116 1.387 . S
C1115 H1118 0.950 . S
C1116 C1115 1.387 . S
C1116 C1119 1.387 . S
H1117 C1113 0.950 . S
H1118 C1115 0.950 . S
C1119 C1110 1.390 . S
C1119 H1112 0.950 . S
C1119 C1116 1.387 . S
C1120 C1121 1.387 . S
C1120 H1124 0.950 . S
C1120 C1129 1.390 . S
C1121 C1120 1.387 . S
C1121 C1123 1.387 . S
H1122 C1129 0.950 . S
C1123 C1121 1.387 . S
C1123 C1125 1.390 . S
C1123 H1127 0.950 . S
H1124 C1120 0.950 . S
C1125 C1123 1.390 . S
C1125 C1126 1.387 . S
C1125 H1128 0.950 . S
C1126 C1125 1.387 . S
C1126 C1129 1.387 . S
H1127 C1123 0.950 . S
H1128 C1125 0.950 . S
C1129 C1120 1.390 . S
C1129 H1122 0.950 . S
C1129 C1126 1.387 . S
C1130 C1131 1.387 . S
C1130 H1134 0.950 . S
C1130 C1139 1.390 . S
C1131 C1130 1.387 . S
C1131 C1133 1.387 . S
H1132 C1139 0.950 . S
C1133 C1131 1.387 . S
C1133 C1135 1.390 . S
C1133 H1137 0.950 . S
H1134 C1130 0.950 . S
C1135 C1133 1.390 . S
C1135 C1136 1.387 . S
C1135 H1138 0.950 . S
C1136 C1135 1.387 . S
C1136 C1139 1.387 . S
H1137 C1133 0.950 . S
H1138 C1135 0.950 . S
C1139 C1130 1.390 . S
C1139 H1132 0.950 . S
C1139 C1136 1.387 . S
C1140 C1141 1.387 . S
C1140 H1144 0.950 . S
C1140 C1149 1.390 . S
C1141 C1140 1.387 . S
C1141 C1143 1.387 . S
H1142 C1149 0.950 . S
C1143 C1141 1.387 . S
C1143 C1145 1.390 . S
C1143 H1147 0.950 . S
H1144 C1140 0.950 . S
C1145 C1143 1.390 . S
C1145 C1146 1.387 . S
C1145 H1148 0.950 . S
C1146 C1145 1.387 . S
C1146 C1149 1.387 . S
H1147 C1143 0.950 . S
H1148 C1145 0.950 . S
C1149 C1140 1.390 . S
C1149 H1142 0.950 . S
C1149 C1146 1.387 . S
C1150 C1151 1.387 . S
C1150 H1154 0.950 . S
C1150 C1159 1.390 . S
C1151 C1150 1.387 . S
C1151 C1153 1.387 . S
H1152 C1159 0.950 . S
C1153 C1151 1.387 . S
C1153 C1155 1.390 . S
C1153 H1157 0.950 . S
H1154 C1150 0.950 . S
C1155 C1153 1.390 . S
C1155 C1156 1.387 . S
C1155 H1158 0.950 . S
C1156 C1155 1.387 . S
C1156 C1159 1.387 . S
H1157 C1153 0.950 . S
H1158 C1155 0.950 . S
C1159 C1150 1.390 . S
C1159 H1152 0.950 . S
C1159 C1156 1.387 . S
C1160 C1161 1.387 . S
C1160 H1164 0.950 . S
C1160 C1169 1.390 . S
C1161 C1160 1.387 . S
C1161 C1163 1.387 . S
H1162 C1169 0.950 . S
C1163 C1161 1.387 . S
C1163 C1165 1.390 . S
C1163 H1167 0.950 . S
H1164 C1160 0.950 . S
C1165 C1163 1.390 . S
C1165 C1166 1.387 . S
C1165 H1168 0.950 . S
C1166 C1165 1.387 . S
C1166 C1169 1.387 . S
H1167 C1163 0.950 . S
H1168 C1165 0.950 . S
C1169 C1160 1.390 . S
C1169 H1162 0.950 . S
C1169 C1166 1.387 . S
C1170 C1171 1.387 . S
C1170 H1174 0.950 . S
C1170 C1179 1.390 . S
C1171 C1170 1.387 . S
C1171 C1173 1.387 . S
H1172 C1179 0.950 . S
C1173 C1171 1.387 . S
C1173 C1175 1.390 . S
C1173 H1177 0.950 . S
H1174 C1170 0.950 . S
C1175 C1173 1.390 . S
C1175 C1176 1.387 . S
C1175 H1178 0.950 . S
C1176 C1175 1.387 . S
C1176 C1179 1.387 . S
H1177 C1173 0.950 . S
H1178 C1175 0.950 . S
C1179 C1170 1.390 . S
C1179 H1172 0.950 . S
C1179 C1176 1.387 . S
C1180 C1181 1.387 . S
C1180 H1184 0.950 . S
C1180 C1189 1.390 . S
C1181 C1180 1.387 . S
C1181 C1183 1.387 . S
H1182 C1189 0.950 . S
C1183 C1181 1.387 . S
C1183 C1185 1.390 . S
C1183 H1187 0.950 1_455 S
H1184 C1180 0.950 . S
C1185 C1183 1.390 . S
C1185 C1186 1.387 . S
C1185 H1188 0.950 . S
C1186 C1185 1.387 . S
C1186 C1189 1.387 . S
H1187 C1183 0.950 1_655 S
H1188 C1185 0.950 . S
C1189 C1180 1.390 . S
C1189 H1182 0.950 . S
C1189 C1186 1.387 . S
C1190 C1191 1.387 . S
C1190 H1194 0.950 . S
C1190 C1199 1.390 . S
C1191 C1190 1.387 . S
C1191 C1193 1.387 . S
H1192 C1199 0.950 . S
C1193 C1191 1.387 . S
C1193 C1195 1.390 . S
C1193 H1197 0.950 . S
H1194 C1190 0.950 . S
C1195 C1193 1.390 . S
C1195 C1196 1.387 . S
C1195 H1198 0.950 . S
C1196 C1195 1.387 . S
C1196 C1199 1.387 . S
H1197 C1193 0.950 . S
H1198 C1195 0.950 . S
C1199 C1190 1.390 . S
C1199 H1192 0.950 . S
C1199 C1196 1.387 . S
C1200 C1201 1.387 . S
C1200 H1204 0.950 . S
C1200 C1209 1.390 . S
C1201 C1200 1.387 . S
C1201 C1203 1.387 . S
H1202 C1209 0.950 1_554 S
C1203 C1201 1.387 . S
C1203 C1205 1.390 . S
C1203 H1207 0.950 . S
H1204 C1200 0.950 . S
C1205 C1203 1.390 . S
C1205 C1206 1.387 . S
C1205 H1208 0.950 . S
C1206 C1205 1.387 . S
C1206 C1209 1.387 . S
H1207 C1203 0.950 . S
H1208 C1205 0.950 . S
C1209 C1200 1.390 . S
C1209 H1202 0.950 1_556 S
C1209 C1206 1.387 . S
C1210 C1211 1.387 . S
C1210 H1214 0.950 . S
C1210 C1219 1.390 . S
C1211 C1210 1.387 . S
C1211 C1213 1.387 . S
H1212 C1219 0.950 . S
C1213 C1211 1.387 . S
C1213 C1215 1.390 . S
C1213 H1217 0.950 . S
H1214 C1210 0.950 . S
C1215 C1213 1.390 . S
C1215 C1216 1.387 . S
C1215 H1218 0.950 . S
C1216 C1215 1.387 . S
C1216 C1219 1.387 . S
H1217 C1213 0.950 . S
H1218 C1215 0.950 . S
C1219 C1210 1.390 . S
C1219 H1212 0.950 . S
C1219 C1216 1.387 . S
C1220 C1221 1.387 . S
C1220 H1224 0.950 1_455 S
C1220 C1229 1.390 . S
C1221 C1220 1.387 . S
C1221 C1223 1.387 . S
H1222 C1229 0.950 1_655 S
C1223 C1221 1.387 . S
C1223 C1225 1.390 . S
C1223 H1227 0.950 . S
H1224 C1220 0.950 1_655 S
C1225 C1223 1.390 . S
C1225 C1226 1.387 . S
C1225 H1228 0.950 . S
C1226 C1225 1.387 . S
C1226 C1229 1.387 . S
H1227 C1223 0.950 . S
H1228 C1225 0.950 . S
C1229 C1220 1.390 . S
C1229 H1222 0.950 1_455 S
C1229 C1226 1.387 . S
C1230 C1231 1.387 . S
C1230 H1234 0.950 . S
C1230 C1239 1.390 . S
C1231 C1230 1.387 . S
C1231 C1233 1.387 . S
H1232 C1239 0.950 . S
C1233 C1231 1.387 . S
C1233 C1235 1.390 . S
C1233 H1237 0.950 . S
H1234 C1230 0.950 . S
C1235 C1233 1.390 . S
C1235 C1236 1.387 . S
C1235 H1238 0.950 . S
C1236 C1235 1.387 . S
C1236 C1239 1.387 . S
H1237 C1233 0.950 . S
H1238 C1235 0.950 . S
C1239 C1230 1.390 . S
C1239 H1232 0.950 . S
C1239 C1236 1.387 . S
C1240 C1241 1.387 . S
C1240 H1244 0.950 . S
C1240 C1249 1.390 . S
C1241 C1240 1.387 . S
C1241 C1243 1.387 . S
H1242 C1249 0.950 . S
C1243 C1241 1.387 . S
C1243 C1245 1.390 . S
C1243 H1247 0.950 . S
H1244 C1240 0.950 . S
C1245 C1243 1.390 . S
C1245 C1246 1.387 . S
C1245 H1248 0.950 . S
C1246 C1245 1.387 . S
C1246 C1249 1.387 . S
H1247 C1243 0.950 . S
H1248 C1245 0.950 . S
C1249 C1240 1.390 . S
C1249 H1242 0.950 . S
C1249 C1246 1.387 . S
C1250 C1251 1.387 . S
C1250 H1254 0.950 . S
C1250 C1259 1.390 . S
C1251 C1250 1.387 . S
C1251 C1253 1.387 . S
H1252 C1259 0.950 . S
C1253 C1251 1.387 . S
C1253 C1255 1.390 . S
C1253 H1257 0.950 . S
H1254 C1250 0.950 . S
C1255 C1253 1.390 . S
C1255 C1256 1.387 . S
C1255 H1258 0.950 . S
C1256 C1255 1.387 . S
C1256 C1259 1.387 . S
H1257 C1253 0.950 . S
H1258 C1255 0.950 . S
C1259 C1250 1.390 . S
C1259 H1252 0.950 . S
C1259 C1256 1.387 . S
C1260 C1261 1.387 . S
C1260 H1264 0.950 . S
C1260 C1269 1.390 . S
C1261 C1260 1.387 . S
C1261 C1263 1.387 . S
H1262 C1269 0.950 . S
C1263 C1261 1.387 . S
C1263 C1265 1.390 . S
C1263 H1267 0.950 . S
H1264 C1260 0.950 . S
C1265 C1263 1.390 . S
C1265 C1266 1.387 . S
C1265 H1268 0.950 . S
C1266 C1265 1.387 . S
C1266 C1269 1.387 . S
H1267 C1263 0.950 . S
H1268 C1265 0.950 . S
C1269 C1260 1.390 . S
C1269 H1262 0.950 . S
C1269 C1266 1.387 . S
C1270 C1271 1.387 . S
C1270 H1274 0.950 . S
C1270 C1279 1.390 . S
C1271 C1270 1.387 . S
C1271 C1273 1.387 . S
H1272 C1279 0.950 . S
C1273 C1271 1.387 . S
C1273 C1275 1.390 . S
C1273 H1277 0.950 . S
H1274 C1270 0.950 . S
C1275 C1273 1.390 . S
C1275 C1276 1.387 . S
C1275 H1278 0.950 . S
C1276 C1275 1.387 . S
C1276 C1279 1.387 . S
H1277 C1273 0.950 . S
H1278 C1275 0.950 . S
C1279 C1270 1.390 . S
C1279 H1272 0.950 . S
C1279 C1276 1.387 . S
C1280 C1281 1.387 . S
C1280 H1284 0.950 . S
C1280 C1289 1.390 . S
C1281 C1280 1.387 . S
C1281 C1283 1.387 . S
H1282 C1289 0.950 . S
C1283 C1281 1.387 . S
C1283 C1285 1.390 . S
C1283 H1287 0.950 . S
H1284 C1280 0.950 . S
C1285 C1283 1.390 . S
C1285 C1286 1.387 . S
C1285 H1288 0.950 . S
C1286 C1285 1.387 . S
C1286 C1289 1.387 . S
H1287 C1283 0.950 . S
H1288 C1285 0.950 . S
C1289 C1280 1.390 . S
C1289 H1282 0.950 . S
C1289 C1286 1.387 . S
C1290 C1291 1.387 . S
C1290 H1294 0.950 . S
C1290 C1299 1.390 . S
C1291 C1290 1.387 . S
C1291 C1293 1.387 . S
H1292 C1299 0.950 . S
C1293 C1291 1.387 . S
C1293 C1295 1.390 . S
C1293 H1297 0.950 . S
H1294 C1290 0.950 . S
C1295 C1293 1.390 . S
C1295 C1296 1.387 . S
C1295 H1298 0.950 . S
C1296 C1295 1.387 . S
C1296 C1299 1.387 . S
H1297 C1293 0.950 . S
H1298 C1295 0.950 . S
C1299 C1290 1.390 . S
C1299 H1292 0.950 . S
C1299 C1296 1.387 . S
C1300 C1301 1.387 . S
C1300 H1304 0.950 . S
C1300 C1309 1.390 . S
C1301 C1300 1.387 . S
C1301 C1303 1.387 . S
H1302 C1309 0.950 . S
C1303 C1301 1.387 . S
C1303 C1305 1.390 . S
C1303 H1307 0.950 . S
H1304 C1300 0.950 . S
C1305 C1303 1.390 . S
C1305 C1306 1.387 . S
C1305 H1308 0.950 . S
C1306 C1305 1.387 . S
C1306 C1309 1.387 . S
H1307 C1303 0.950 . S
H1308 C1305 0.950 . S
C1309 C1300 1.390 . S
C1309 H1302 0.950 . S
C1309 C1306 1.387 . S
C1310 C1311 1.387 . S
C1310 H1314 0.950 . S
C1310 C1319 1.390 . S
C1311 C1310 1.387 . S
C1311 C1313 1.387 . S
H1312 C1319 0.950 . S
C1313 C1311 1.387 . S
C1313 C1315 1.390 . S
C1313 H1317 0.950 . S
H1314 C1310 0.950 . S
C1315 C1313 1.390 . S
C1315 C1316 1.387 . S
C1315 H1318 0.950 . S
C1316 C1315 1.387 . S
C1316 C1319 1.387 . S
H1317 C1313 0.950 . S
H1318 C1315 0.950 . S
C1319 C1310 1.390 . S
C1319 H1312 0.950 . S
C1319 C1316 1.387 . S
C1320 C1321 1.387 . S
C1320 H1324 0.950 . S
C1320 C1329 1.390 . S
C1321 C1320 1.387 . S
C1321 C1323 1.387 . S
H1322 C1329 0.950 . S
C1323 C1321 1.387 . S
C1323 C1325 1.390 . S
C1323 H1327 0.950 . S
H1324 C1320 0.950 . S
C1325 C1323 1.390 . S
C1325 C1326 1.387 . S
C1325 H1328 0.950 . S
C1326 C1325 1.387 . S
C1326 C1329 1.387 . S
H1327 C1323 0.950 . S
H1328 C1325 0.950 . S
C1329 C1320 1.390 . S
C1329 H1322 0.950 . S
C1329 C1326 1.387 . S
C1330 C1331 1.387 . S
C1330 H1334 0.950 . S
C1330 C1339 1.390 . S
C1331 C1330 1.387 . S
C1331 C1333 1.387 . S
H1332 C1339 0.950 . S
C1333 C1331 1.387 . S
C1333 C1335 1.390 . S
C1333 H1337 0.950 . S
H1334 C1330 0.950 . S
C1335 C1333 1.390 . S
C1335 C1336 1.387 . S
C1335 H1338 0.950 1_565 S
C1336 C1335 1.387 . S
C1336 C1339 1.387 . S
H1337 C1333 0.950 . S
H1338 C1335 0.950 1_545 S
C1339 C1330 1.390 . S
C1339 H1332 0.950 . S
C1339 C1336 1.387 . S
C1340 C1341 1.387 . S
C1340 H1344 0.950 . S
C1340 C1349 1.390 . S
C1341 C1340 1.387 . S
C1341 C1343 1.387 . S
H1342 C1349 0.950 . S
C1343 C1341 1.387 . S
C1343 C1345 1.390 . S
C1343 H1347 0.950 . S
H1344 C1340 0.950 . S
C1345 C1343 1.390 . S
C1345 C1346 1.387 . S
C1345 H1348 0.950 . S
C1346 C1345 1.387 . S
C1346 C1349 1.387 . S
H1347 C1343 0.950 . S
H1348 C1345 0.950 . S
C1349 C1340 1.390 . S
C1349 H1342 0.950 . S
C1349 C1346 1.387 . S
C1350 C1351 1.387 . S
C1350 H1354 0.950 . S
C1350 C1359 1.390 . S
C1351 C1350 1.387 . S
C1351 C1353 1.387 1_554 S
H1352 C1359 0.950 . S
C1353 C1351 1.387 1_556 S
C1353 C1355 1.390 . S
C1353 H1357 0.950 . S
H1354 C1350 0.950 . S
C1355 C1353 1.390 . S
C1355 C1356 1.387 1_556 S
C1355 H1358 0.950 . S
C1356 C1355 1.387 1_554 S
C1356 C1359 1.387 . S
H1357 C1353 0.950 . S
H1358 C1355 0.950 . S
C1359 C1350 1.390 . S
C1359 H1352 0.950 . S
C1359 C1356 1.387 . S
C1360 C1361 1.387 . S
C1360 H1364 0.950 . S
C1360 C1369 1.390 . S
C1361 C1360 1.387 . S
C1361 C1363 1.387 . S
H1362 C1369 0.950 . S
C1363 C1361 1.387 . S
C1363 C1365 1.390 . S
C1363 H1367 0.950 . S
H1364 C1360 0.950 . S
C1365 C1363 1.390 . S
C1365 C1366 1.387 . S
C1365 H1368 0.950 . S
C1366 C1365 1.387 . S
C1366 C1369 1.387 . S
H1367 C1363 0.950 . S
H1368 C1365 0.950 . S
C1369 C1360 1.390 . S
C1369 H1362 0.950 . S
C1369 C1366 1.387 . S
C1370 C1371 1.387 1_556 S
C1370 H1374 0.950 . S
C1370 C1379 1.390 . S
C1371 C1370 1.387 1_554 S
C1371 C1373 1.387 . S
H1372 C1379 0.950 . S
C1373 C1371 1.387 . S
C1373 C1375 1.390 . S
C1373 H1377 0.950 . S
H1374 C1370 0.950 . S
C1375 C1373 1.390 . S
C1375 C1376 1.387 1_554 S
C1375 H1378 0.950 . S
C1376 C1375 1.387 1_556 S
C1376 C1379 1.387 . S
H1377 C1373 0.950 . S
H1378 C1375 0.950 . S
C1379 C1370 1.390 . S
C1379 H1372 0.950 . S
C1379 C1376 1.387 . S
C1380 C1381 1.387 . S
C1380 H1384 0.950 . S
C1380 C1389 1.390 . S
C1381 C1380 1.387 . S
C1381 C1383 1.387 . S
H1382 C1389 0.950 . S
C1383 C1381 1.387 . S
C1383 C1385 1.390 . S
C1383 H1387 0.950 . S
H1384 C1380 0.950 . S
C1385 C1383 1.390 . S
C1385 C1386 1.387 . S
C1385 H1388 0.950 . S
C1386 C1385 1.387 . S
C1386 C1389 1.387 . S
H1387 C1383 0.950 . S
H1388 C1385 0.950 . S
C1389 C1380 1.390 . S
C1389 H1382 0.950 . S
C1389 C1386 1.387 . S
C1390 C1391 1.387 . S
C1390 H1394 0.950 . S
C1390 C1399 1.390 . S
C1391 C1390 1.387 . S
C1391 C1393 1.387 . S
H1392 C1399 0.950 . S
C1393 C1391 1.387 . S
C1393 C1395 1.390 . S
C1393 H1397 0.950 . S
H1394 C1390 0.950 . S
C1395 C1393 1.390 . S
C1395 C1396 1.387 . S
C1395 H1398 0.950 . S
C1396 C1395 1.387 . S
C1396 C1399 1.387 . S
H1397 C1393 0.950 . S
H1398 C1395 0.950 . S
C1399 C1390 1.390 . S
C1399 H1392 0.950 . S
C1399 C1396 1.387 . S
C1400 C1401 1.387 . S
C1400 H1404 0.950 . S
C1400 C1409 1.390 . S
C1401 C1400 1.387 . S
C1401 C1403 1.387 . S
H1402 C1409 0.950 . S
C1403 C1401 1.387 . S
C1403 C1405 1.390 . S
C1403 H1407 0.950 . S
H1404 C1400 0.950 . S
C1405 C1403 1.390 . S
C1405 C1406 1.387 . S
C1405 H1408 0.950 . S
C1406 C1405 1.387 . S
C1406 C1409 1.387 . S
H1407 C1403 0.950 . S
H1408 C1405 0.950 . S
C1409 C1400 1.390 . S
C1409 H1402 0.950 . S
C1409 C1406 1.387 . S
C1410 C1411 1.387 . S
C1410 H1414 0.950 . S
C1410 C1419 1.390 . S
C1411 C1410 1.387 . S
C1411 C1413 1.387 . S
H1412 C1419 0.950 . S
C1413 C1411 1.387 . S
C1413 C1415 1.390 . S
C1413 H1417 0.950 . S
H1414 C1410 0.950 . S
C1415 C1413 1.390 . S
C1415 C1416 1.387 . S
C1415 H1418 0.950 . S
C1416 C1415 1.387 . S
C1416 C1419 1.387 . S
H1417 C1413 0.950 . S
H1418 C1415 0.950 . S
C1419 C1410 1.390 . S
C1419 H1412 0.950 . S
C1419 C1416 1.387 . S
C1420 C1421 1.387 1_655 S
C1420 H1424 0.950 . S
C1420 C1429 1.390 . S
C1421 C1420 1.387 1_455 S
C1421 C1423 1.387 . S
H1422 C1429 0.950 . S
C1423 C1421 1.387 . S
C1423 C1425 1.390 . S
C1423 H1427 0.950 . S
H1424 C1420 0.950 . S
C1425 C1423 1.390 . S
C1425 C1426 1.387 1_455 S
C1425 H1428 0.950 . S
C1426 C1425 1.387 1_655 S
C1426 C1429 1.387 . S
H1427 C1423 0.950 . S
H1428 C1425 0.950 . S
C1429 C1420 1.390 . S
C1429 H1422 0.950 . S
C1429 C1426 1.387 . S
C1430 C1431 1.387 . S
C1430 H1434 0.950 . S
C1430 C1439 1.390 . S
C1431 C1430 1.387 . S
C1431 C1433 1.387 . S
H1432 C1439 0.950 . S
C1433 C1431 1.387 . S
C1433 C1435 1.390 . S
C1433 H1437 0.950 . S
H1434 C1430 0.950 . S
C1435 C1433 1.390 . S
C1435 C1436 1.387 . S
C1435 H1438 0.950 . S
C1436 C1435 1.387 . S
C1436 C1439 1.387 . S
H1437 C1433 0.950 . S
H1438 C1435 0.950 . S
C1439 C1430 1.390 . S
C1439 H1432 0.950 . S
C1439 C1436 1.387 . S
C1440 C1441 1.387 . S
C1440 H1444 0.950 . S
C1440 C1449 1.390 . S
C1441 C1440 1.387 . S
C1441 C1443 1.387 . S
H1442 C1449 0.950 . S
C1443 C1441 1.387 . S
C1443 C1445 1.390 . S
C1443 H1447 0.950 . S
H1444 C1440 0.950 . S
C1445 C1443 1.390 . S
C1445 C1446 1.387 . S
C1445 H1448 0.950 . S
C1446 C1445 1.387 . S
C1446 C1449 1.387 . S
H1447 C1443 0.950 . S
H1448 C1445 0.950 . S
C1449 C1440 1.390 . S
C1449 H1442 0.950 . S
C1449 C1446 1.387 . S
C1450 C1451 1.387 . S
C1450 H1454 0.950 . S
C1450 C1459 1.390 . S
C1451 C1450 1.387 . S
C1451 C1453 1.387 . S
H1452 C1459 0.950 . S
C1453 C1451 1.387 . S
C1453 C1455 1.390 . S
C1453 H1457 0.950 . S
H1454 C1450 0.950 . S
C1455 C1453 1.390 . S
C1455 C1456 1.387 . S
C1455 H1458 0.950 . S
C1456 C1455 1.387 . S
C1456 C1459 1.387 . S
H1457 C1453 0.950 . S
H1458 C1455 0.950 . S
C1459 C1450 1.390 . S
C1459 H1452 0.950 . S
C1459 C1456 1.387 . S
C1460 C1461 1.387 . S
C1460 H1464 0.950 . S
C1460 C1469 1.390 . S
C1461 C1460 1.387 . S
C1461 C1463 1.387 1_455 S
H1462 C1469 0.950 . S
C1463 C1461 1.387 1_655 S
C1463 C1465 1.390 . S
C1463 H1467 0.950 . S
H1464 C1460 0.950 . S
C1465 C1463 1.390 . S
C1465 C1466 1.387 . S
C1465 H1468 0.950 . S
C1466 C1465 1.387 . S
C1466 C1469 1.387 1_655 S
H1467 C1463 0.950 . S
H1468 C1465 0.950 . S
C1469 C1460 1.390 . S
C1469 H1462 0.950 . S
C1469 C1466 1.387 1_455 S
C1470 C1471 1.387 . S
C1470 H1474 0.950 . S
C1470 C1479 1.390 . S
C1471 C1470 1.387 . S
C1471 C1473 1.387 . S
H1472 C1479 0.950 . S
C1473 C1471 1.387 . S
C1473 C1475 1.390 . S
C1473 H1477 0.950 . S
H1474 C1470 0.950 . S
C1475 C1473 1.390 . S
C1475 C1476 1.387 . S
C1475 H1478 0.950 . S
C1476 C1475 1.387 . S
C1476 C1479 1.387 . S
H1477 C1473 0.950 . S
H1478 C1475 0.950 . S
C1479 C1470 1.390 . S
C1479 H1472 0.950 . S
C1479 C1476 1.387 . S
C1480 C1481 1.387 . S
C1480 H1484 0.950 . S
C1480 C1489 1.390 . S
C1481 C1480 1.387 . S
C1481 C1483 1.387 . S
H1482 C1489 0.950 . S
C1483 C1481 1.387 . S
C1483 C1485 1.390 . S
C1483 H1487 0.950 . S
H1484 C1480 0.950 . S
C1485 C1483 1.390 . S
C1485 C1486 1.387 . S
C1485 H1488 0.950 . S
C1486 C1485 1.387 . S
C1486 C1489 1.387 . S
H1487 C1483 0.950 . S
H1488 C1485 0.950 . S
C1489 C1480 1.390 . S
C1489 H1482 0.950 . S
C1489 C1486 1.387 . S
C1490 C1491 1.387 . S
C1490 H1494 0.950 . S
C1490 C1499 1.390 . S
C1491 C1490 1.387 . S
C1491 C1493 1.387 . S
H1492 C1499 0.950 . S
C1493 C1491 1.387 . S
C1493 C1495 1.390 . S
C1493 H1497 0.950 . S
H1494 C1490 0.950 . S
C1495 C1493 1.390 . S
C1495 C1496 1.387 . S
C1495 H1498 0.950 . S
C1496 C1495 1.387 . S
C1496 C1499 1.387 . S
H1497 C1493 0.950 . S
H1498 C1495 0.950 . S
C1499 C1490 1.390 . S
C1499 H1492 0.950 . S
C1499 C1496 1.387 . S
C1500 C1501 1.387 . S
C1500 H1504 0.950 . S
C1500 C1509 1.390 . S
C1501 C1500 1.387 . S
C1501 C1503 1.387 . S
H1502 C1509 0.950 . S
C1503 C1501 1.387 . S
C1503 C1505 1.390 . S
C1503 H1507 0.950 . S
H1504 C1500 0.950 . S
C1505 C1503 1.390 . S
C1505 C1506 1.387 . S
C1505 H1508 0.950 . S
C1506 C1505 1.387 . S
C1506 C1509 1.387 . S
H1507 C1503 0.950 . S
H1508 C1505 0.950 . S
C1509 C1500 1.390 . S
C1509 H1502 0.950 . S
C1509 C1506 1.387 . S
C1510 C1511 1.387 . S
C1510 H1514 0.950 . S
C1510 C1519 1.390 . S
C1511 C1510 1.387 . S
C1511 C1513 1.387 . S
H1512 C1519 0.950 . S
C1513 C1511 1.387 . S
C1513 C1515 1.390 . S
C1513 H1517 0.950 . S
H1514 C1510 0.950 . S
C1515 C1513 1.390 . S
C1515 C1516 1.387 . S
C1515 H1518 0.950 . S
C1516 C1515 1.387 . S
C1516 C1519 1.387 . S
H1517 C1513 0.950 . S
H1518 C1515 0.950 . S
C1519 C1510 1.390 . S
C1519 H1512 0.950 . S
C1519 C1516 1.387 . S
C1520 C1521 1.387 . S
C1520 H1524 0.950 . S
C1520 C1529 1.390 . S
C1521 C1520 1.387 . S
C1521 C1523 1.387 . S
H1522 C1529 0.950 . S
C1523 C1521 1.387 . S
C1523 C1525 1.390 . S
C1523 H1527 0.950 . S
H1524 C1520 0.950 . S
C1525 C1523 1.390 . S
C1525 C1526 1.387 . S
C1525 H1528 0.950 . S
C1526 C1525 1.387 . S
C1526 C1529 1.387 . S
H1527 C1523 0.950 . S
H1528 C1525 0.950 . S
C1529 C1520 1.390 . S
C1529 H1522 0.950 . S
C1529 C1526 1.387 . S
C1530 C1531 1.387 . S
C1530 H1534 0.950 . S
C1530 C1539 1.390 . S
C1531 C1530 1.387 . S
C1531 C1533 1.387 . S
H1532 C1539 0.950 . S
C1533 C1531 1.387 . S
C1533 C1535 1.390 . S
C1533 H1537 0.950 . S
H1534 C1530 0.950 . S
C1535 C1533 1.390 . S
C1535 C1536 1.387 . S
C1535 H1538 0.950 . S
C1536 C1535 1.387 . S
C1536 C1539 1.387 . S
H1537 C1533 0.950 . S
H1538 C1535 0.950 . S
C1539 C1530 1.390 . S
C1539 H1532 0.950 . S
C1539 C1536 1.387 . S
C1540 C1541 1.387 . S
C1540 H1544 0.950 . S
C1540 C1549 1.390 . S
C1541 C1540 1.387 . S
C1541 C1543 1.387 . S
H1542 C1549 0.950 . S
C1543 C1541 1.387 . S
C1543 C1545 1.390 . S
C1543 H1547 0.950 . S
H1544 C1540 0.950 . S
C1545 C1543 1.390 . S
C1545 C1546 1.387 . S
C1545 H1548 0.950 . S
C1546 C1545 1.387 . S
C1546 C1549 1.387 . S
H1547 C1543 0.950 . S
H1548 C1545 0.950 . S
C1549 C1540 1.390 . S
C1549 H1542 0.950 . S
C1549 C1546 1.387 . S
C1550 C1551 1.387 . S
C1550 H1554 0.950 . S
C1550 C1559 1.390 . S
C1551 C1550 1.387 . S
C1551 C1553 1.387 . S
H1552 C1559 0.950 . S
C1553 C1551 1.387 . S
C1553 C1555 1.390 . S
C1553 H1557 0.950 . S
H1554 C1550 0.950 . S
C1555 C1553 1.390 . S
C1555 C1556 1.387 . S
C1555 H1558 0.950 . S
C1556 C1555 1.387 . S
C1556 C1559 1.387 . S
H1557 C1553 0.950 . S
H1558 C1555 0.950 . S
C1559 C1550 1.390 . S
C1559 H1552 0.950 . S
C1559 C1556 1.387 . S
C1560 C1561 1.387 . S
C1560 H1564 0.950 . S
C1560 C1569 1.390 . S
C1561 C1560 1.387 . S
C1561 C1563 1.387 . S
H1562 C1569 0.950 . S
C1563 C1561 1.387 . S
C1563 C1565 1.390 . S
C1563 H1567 0.950 . S
H1564 C1560 0.950 . S
C1565 C1563 1.390 . S
C1565 C1566 1.387 . S
C1565 H1568 0.950 . S
C1566 C1565 1.387 . S
C1566 C1569 1.387 . S
H1567 C1563 0.950 . S
H1568 C1565 0.950 . S
C1569 C1560 1.390 . S
C1569 H1562 0.950 . S
C1569 C1566 1.387 . S
C1570 C1571 1.387 . S
C1570 H1574 0.950 . S
C1570 C1579 1.390 . S
C1571 C1570 1.387 . S
C1571 C1573 1.387 . S
H1572 C1579 0.950 . S
C1573 C1571 1.387 . S
C1573 C1575 1.390 . S
C1573 H1577 0.950 . S
H1574 C1570 0.950 . S
C1575 C1573 1.390 . S
C1575 C1576 1.387 . S
C1575 H1578 0.950 . S
C1576 C1575 1.387 . S
C1576 C1579 1.387 . S
H1577 C1573 0.950 . S
H1578 C1575 0.950 . S
C1579 C1570 1.390 . S
C1579 H1572 0.950 . S
C1579 C1576 1.387 . S
C1580 C1581 1.387 . S
C1580 H1584 0.950 . S
C1580 C1589 1.390 . S
C1581 C1580 1.387 . S
C1581 C1583 1.387 . S
H1582 C1589 0.950 . S
C1583 C1581 1.387 . S
C1583 C1585 1.390 . S
C1583 H1587 0.950 . S
H1584 C1580 0.950 . S
C1585 C1583 1.390 . S
C1585 C1586 1.387 . S
C1585 H1588 0.950 . S
C1586 C1585 1.387 . S
C1586 C1589 1.387 . S
H1587 C1583 0.950 . S
H1588 C1585 0.950 . S
C1589 C1580 1.390 . S
C1589 H1582 0.950 . S
C1589 C1586 1.387 . S
C1590 C1591 1.387 . S
C1590 H1594 0.950 . S
C1590 C1599 1.390 . S
C1591 C1590 1.387 . S
C1591 C1593 1.387 1_554 S
H1592 C1599 0.950 . S
C1593 C1591 1.387 1_556 S
C1593 C1595 1.390 . S
C1593 H1597 0.950 . S
H1594 C1590 0.950 . S
C1595 C1593 1.390 . S
C1595 C1596 1.387 . S
C1595 H1598 0.950 . S
C1596 C1595 1.387 . S
C1596 C1599 1.387 1_556 S
H1597 C1593 0.950 . S
H1598 C1595 0.950 . S
C1599 C1590 1.390 . S
C1599 H1592 0.950 . S
C1599 C1596 1.387 1_554 S
C1600 C1601 1.387 . S
C1600 H1604 0.950 . S
C1600 C1609 1.390 . S
C1601 C1600 1.387 . S
C1601 C1603 1.387 . S
H1602 C1609 0.950 . S
C1603 C1601 1.387 . S
C1603 C1605 1.390 . S
C1603 H1607 0.950 . S
H1604 C1600 0.950 . S
C1605 C1603 1.390 . S
C1605 C1606 1.387 . S
C1605 H1608 0.950 . S
C1606 C1605 1.387 . S
C1606 C1609 1.387 . S
H1607 C1603 0.950 . S
H1608 C1605 0.950 . S
C1609 C1600 1.390 . S
C1609 H1602 0.950 . S
C1609 C1606 1.387 . S
C1610 C1611 1.387 . S
C1610 H1614 0.950 . S
C1610 C1619 1.390 . S
C1611 C1610 1.387 . S
C1611 C1613 1.387 1_554 S
H1612 C1619 0.950 . S
C1613 C1611 1.387 1_556 S
C1613 C1615 1.390 . S
C1613 H1617 0.950 . S
H1614 C1610 0.950 . S
C1615 C1613 1.390 . S
C1615 C1616 1.387 1_556 S
C1615 H1618 0.950 . S
C1616 C1615 1.387 1_554 S
C1616 C1619 1.387 . S
H1617 C1613 0.950 . S
H1618 C1615 0.950 . S
C1619 C1610 1.390 . S
C1619 H1612 0.950 . S
C1619 C1616 1.387 . S
C1620 C1621 1.387 . S
C1620 H1624 0.950 . S
C1620 C1629 1.390 . S
C1621 C1620 1.387 . S
C1621 C1623 1.387 . S
H1622 C1629 0.950 . S
C1623 C1621 1.387 . S
C1623 C1625 1.390 . S
C1623 H1627 0.950 . S
H1624 C1620 0.950 . S
C1625 C1623 1.390 . S
C1625 C1626 1.387 . S
C1625 H1628 0.950 . S
C1626 C1625 1.387 . S
C1626 C1629 1.387 . S
H1627 C1623 0.950 . S
H1628 C1625 0.950 . S
C1629 C1620 1.390 . S
C1629 H1622 0.950 . S
C1629 C1626 1.387 . S
C1630 C1631 1.387 . S
C1630 H1634 0.950 . S
C1630 C1639 1.390 . S
C1631 C1630 1.387 . S
C1631 C1633 1.387 . S
H1632 C1639 0.950 . S
C1633 C1631 1.387 . S
C1633 C1635 1.390 . S
C1633 H1637 0.950 . S
H1634 C1630 0.950 . S
C1635 C1633 1.390 . S
C1635 C1636 1.387 . S
C1635 H1638 0.950 . S
C1636 C1635 1.387 . S
C1636 C1639 1.387 . S
H1637 C1633 0.950 . S
H1638 C1635 0.950 . S
C1639 C1630 1.390 . S
C1639 H1632 0.950 . S
C1639 C1636 1.387 . S
C686 C328 1.362 . S
C681 C10 1.402 1_655 S
C691 C23 1.691 . S
C696 C356 1.527 . S
C701 C36 1.404 . S
C706 C374 1.364 . S
C716 C400 1.504 . S
C711 C42 1.712 . S
C721 C18 1.711 1_655 S
C726 C423 1.504 . S
C736 C443 1.370 . S
C731 C31 1.412 . S
C746 C471 1.525 1_556 S
C741 C43 1.690 . S
C751 C5 1.411 . S
C756 C489 1.368 . S
C761 C56 1.600 . S
C766 C330 1.611 1_545 S
C771 C70 1.400 . S
C776 C352 1.363 . S
C786 C376 1.604 . S
C781 C82 1.594 . S
C796 C397 1.392 . S
C791 C96 1.424 . S
C801 C57 1.428 . S
C806 C420 1.397 . S
C816 C445 1.607 . S
C811 C69 1.596 . S
C826 C467 1.368 . S
C821 C83 1.405 . S
C836 C491 1.612 . S
C831 C95 1.600 . S
C846 C331 1.236 . S
C841 C94 1.410 . S
C856 C514 1.425 . S
C851 C108 1.420 . S
C861 C122 1.431 . S
C866 C538 1.255 . S
C876 C562 1.357 . S
C871 C140 1.410 . S
C881 C55 1.410 . S
C886 C492 1.238 . S
C896 C377 1.259 . S
C891 C68 1.432 . S
C901 C121 1.422 . S
C906 C583 1.426 . S
C916 C608 1.359 . S
C911 C153 1.411 . S
C921 C161 1.234 . S
C926 C329 1.210 . S
C936 C606 1.167 . S
C931 C174 1.151 . S
C941 C186 1.232 . S
C946 C375 1.206 . S
C951 C200 1.121 . S
C956 C585 1.086 . S
C966 C424 1.089 . S
C961 C172 1.123 . S
C976 C536 1.202 . S
C971 C192 1.230 . S
C986 C468 1.167 . S
C981 C198 1.151 . S
C996 C628 1.207 . S
C991 C159 1.231 . S
C1006 C333 1.076 . S
C1001 C211 1.179 . S
C1011 C225 1.397 . S
C1016 C604 1.356 . S
C1026 C379 1.078 . S
C1021 C239 1.182 . S
C1031 C251 1.390 . S
C1036 C582 1.347 . S
C1041 C218 1.390 . S
C1046 C421 1.349 . S
C1051 C226 1.181 . S
C1056 C540 1.077 . S
C1066 C466 1.356 . S
C1061 C238 1.396 . S
C1071 C252 1.181 . S
C1076 C632 1.077 . S
C1081 C250 1.377 1_554 S
C1086 C332 1.329 . S
C1091 C264 1.369 . S
C1096 C517 1.256 . S
C1101 C276 1.389 . S
C1106 C447 1.334 . S
C1111 C290 1.364 . S
C1116 C561 1.199 . S
C1126 C631 1.325 . S
C1121 C213 1.379 . S
C1136 C378 1.336 . S
C1131 C224 1.389 . S
C1146 C402 1.254 . S
C1141 C283 1.368 . S
C1156 C354 1.198 . S
C1151 C303 1.363 . S
C1161 C29 1.410 . S
C1166 C650 1.366 . S
C1176 C609 1.522 . S
C1171 C49 1.689 . S
C1186 C673 1.368 . S
C1181 C3 1.412 . S
C1191 C16 1.710 . S
C1196 C584 1.501 . S
C1201 C44 1.711 . S
C1206 C515 1.501 1_556 S
C1216 C535 1.362 . S
C1211 C4 1.402 . S
C1226 C563 1.522 . S
C1221 C17 1.690 . S
C1236 C627 1.361 . S
C1231 C30 1.401 . S
C1246 C652 1.613 . S
C1241 C147 1.602 . S
C1251 C107 1.404 . S
C1256 C605 1.368 . S
C1261 C127 1.596 . S
C1266 C675 1.607 . S
C1276 C581 1.394 . S
C1271 C135 1.427 . S
C1286 C512 1.392 . S
C1281 C148 1.424 . S
C1291 C114 1.596 . S
C1296 C537 1.605 . S
C1306 C559 1.363 . S
C1301 C120 1.400 . S
C1311 C134 1.600 . S
C1316 C629 1.611 . S
C1326 C653 1.243 . S
C1321 C133 1.412 . S
C1336 C422 1.426 . S
C1331 C75 1.422 . S
C1346 C446 1.260 . S
C1341 C81 1.432 . S
C1351 C101 1.411 . S
C1356 C470 1.359 . S
C1366 C630 1.237 . S
C1361 C146 1.410 . S
C1371 C109 1.432 . S
C1376 C676 1.260 . S
C1386 C399 1.425 . S
C1381 C88 1.420 . S
C1396 C355 1.357 . S
C1391 C62 1.410 . S
C1401 C187 1.233 . S
C1406 C651 1.209 . S
C1416 C353 1.158 . S
C1411 C199 1.145 . S
C1426 C674 1.206 . S
C1421 C160 1.232 . S
C1431 C173 1.119 . S
C1436 C401 1.079 . S
C1441 C205 1.120 . S
C1446 C516 1.081 . S
C1451 C166 1.230 . S
C1456 C444 1.202 . S
C1461 C179 1.147 . S
C1466 C560 1.158 . S
C1471 C185 1.231 . S
C1476 C490 1.207 . S
C1486 C655 1.080 . S
C1481 C302 1.183 . S
C1491 C270 1.398 . S
C1496 C351 1.356 . S
C1506 C678 1.080 . S
C1501 C278 1.185 . S
C1511 C296 1.393 . S
C1516 C398 1.351 . S
C1521 C309 1.395 . S
C1526 C513 1.354 . S
C1536 C448 1.085 . S
C1531 C263 1.186 . S
C1541 C277 1.400 . S
C1546 C558 1.359 . S
C1556 C494 1.080 . S
C1551 C289 1.183 . S
C1566 C654 1.327 . S
C1561 C291 1.379 . S
C1576 C425 1.250 . S
C1571 C231 1.364 . S
C1581 C237 1.389 . S
C1586 C539 1.333 . S
C1596 C469 1.198 . S
C1591 C257 1.361 . S
C1606 C493 1.328 . S
C1601 C304 1.380 . S
C1611 C265 1.388 1_554 S
C1616 C677 1.335 . S
C1626 C586 1.254 . S
C1621 C244 1.365 . S
C1636 C607 1.197 . S
C1631 C212 1.361 . S
