# Generated by pormake.
# Topology ocu, (6,8)-cn, num edge types: 1
# Building blocks:
#     Node 0, Type 0, BuildingBlock: PAMTUU_clean_sbu_0, # of connection points: 6
#     Node 1, Type 0, BuildingBlock: PAMTUU_clean_sbu_0, # of connection points: 6
#     Node 2, Type 0, BuildingBlock: PAMTUU_clean_sbu_0, # of connection points: 6
#     Node 3, Type 0, BuildingBlock: PAMTUU_clean_sbu_0, # of connection points: 6
#     Node 4, Type 0, BuildingBlock: PAMTUU_clean_sbu_0, # of connection points: 6
#     Node 5, Type 0, BuildingBlock: PAMTUU_clean_sbu_0, # of connection points: 6
#     Node 6, Type 0, BuildingBlock: PAMTUU_clean_sbu_0, # of connection points: 6
#     Node 7, Type 0, BuildingBlock: PAMTUU_clean_sbu_0, # of connection points: 6
#     Node 8, Type 1, BuildingBlock: VETTIZ_charged_sbu_0, # of connection points: 8
#     Node 9, Type 1, BuildingBlock: VETTIZ_charged_sbu_0, # of connection points: 8
#     Node 10, Type 1, BuildingBlock: VETTIZ_charged_sbu_0, # of connection points: 8
#     Node 11, Type 1, BuildingBlock: VETTIZ_charged_sbu_0, # of connection points: 8
#     Node 12, Type 1, BuildingBlock: VETTIZ_charged_sbu_0, # of connection points: 8
#     Node 13, Type 1, BuildingBlock: VETTIZ_charged_sbu_0, # of connection points: 8
#     Edge 14, Type (0, 1), BuildingBlock: AJUNOK_clean_linker_0, # of connection points: 2
#     Edge 15, Type (0, 1), BuildingBlock: AJUNOK_clean_linker_0, # of connection points: 2
#     Edge 16, Type (0, 1), BuildingBlock: AJUNOK_clean_linker_0, # of connection points: 2
#     Edge 17, Type (0, 1), BuildingBlock: AJUNOK_clean_linker_0, # of connection points: 2
#     Edge 18, Type (0, 1), BuildingBlock: AJUNOK_clean_linker_0, # of connection points: 2
#     Edge 19, Type (0, 1), BuildingBlock: AJUNOK_clean_linker_0, # of connection points: 2
#     Edge 20, Type (0, 1), BuildingBlock: AJUNOK_clean_linker_0, # of connection points: 2
#     Edge 21, Type (0, 1), BuildingBlock: AJUNOK_clean_linker_0, # of connection points: 2
#     Edge 22, Type (0, 1), BuildingBlock: AJUNOK_clean_linker_0, # of connection points: 2
#     Edge 23, Type (0, 1), BuildingBlock: AJUNOK_clean_linker_0, # of connection points: 2
#     Edge 24, Type (0, 1), BuildingBlock: AJUNOK_clean_linker_0, # of connection points: 2
#     Edge 25, Type (0, 1), BuildingBlock: AJUNOK_clean_linker_0, # of connection points: 2
#     Edge 26, Type (0, 1), BuildingBlock: AJUNOK_clean_linker_0, # of connection points: 2
#     Edge 27, Type (0, 1), BuildingBlock: AJUNOK_clean_linker_0, # of connection points: 2
#     Edge 28, Type (0, 1), BuildingBlock: AJUNOK_clean_linker_0, # of connection points: 2
#     Edge 29, Type (0, 1), BuildingBlock: AJUNOK_clean_linker_0, # of connection points: 2
#     Edge 30, Type (0, 1), BuildingBlock: AJUNOK_clean_linker_0, # of connection points: 2
#     Edge 31, Type (0, 1), BuildingBlock: AJUNOK_clean_linker_0, # of connection points: 2
#     Edge 32, Type (0, 1), BuildingBlock: AJUNOK_clean_linker_0, # of connection points: 2
#     Edge 33, Type (0, 1), BuildingBlock: AJUNOK_clean_linker_0, # of connection points: 2
#     Edge 34, Type (0, 1), BuildingBlock: AJUNOK_clean_linker_0, # of connection points: 2
#     Edge 35, Type (0, 1), BuildingBlock: AJUNOK_clean_linker_0, # of connection points: 2
#     Edge 36, Type (0, 1), BuildingBlock: AJUNOK_clean_linker_0, # of connection points: 2
#     Edge 37, Type (0, 1), BuildingBlock: AJUNOK_clean_linker_0, # of connection points: 2
#     Edge 38, Type (0, 1), BuildingBlock: AJUNOK_clean_linker_0, # of connection points: 2
#     Edge 39, Type (0, 1), BuildingBlock: AJUNOK_clean_linker_0, # of connection points: 2
#     Edge 40, Type (0, 1), BuildingBlock: AJUNOK_clean_linker_0, # of connection points: 2
#     Edge 41, Type (0, 1), BuildingBlock: AJUNOK_clean_linker_0, # of connection points: 2
#     Edge 42, Type (0, 1), BuildingBlock: AJUNOK_clean_linker_0, # of connection points: 2
#     Edge 43, Type (0, 1), BuildingBlock: AJUNOK_clean_linker_0, # of connection points: 2
#     Edge 44, Type (0, 1), BuildingBlock: AJUNOK_clean_linker_0, # of connection points: 2
#     Edge 45, Type (0, 1), BuildingBlock: AJUNOK_clean_linker_0, # of connection points: 2
#     Edge 46, Type (0, 1), BuildingBlock: AJUNOK_clean_linker_0, # of connection points: 2
#     Edge 47, Type (0, 1), BuildingBlock: AJUNOK_clean_linker_0, # of connection points: 2
#     Edge 48, Type (0, 1), BuildingBlock: AJUNOK_clean_linker_0, # of connection points: 2
#     Edge 49, Type (0, 1), BuildingBlock: AJUNOK_clean_linker_0, # of connection points: 2
#     Edge 50, Type (0, 1), BuildingBlock: AJUNOK_clean_linker_0, # of connection points: 2
#     Edge 51, Type (0, 1), BuildingBlock: AJUNOK_clean_linker_0, # of connection points: 2
#     Edge 52, Type (0, 1), BuildingBlock: AJUNOK_clean_linker_0, # of connection points: 2
#     Edge 53, Type (0, 1), BuildingBlock: AJUNOK_clean_linker_0, # of connection points: 2
#     Edge 54, Type (0, 1), BuildingBlock: AJUNOK_clean_linker_0, # of connection points: 2
#     Edge 55, Type (0, 1), BuildingBlock: AJUNOK_clean_linker_0, # of connection points: 2
#     Edge 56, Type (0, 1), BuildingBlock: AJUNOK_clean_linker_0, # of connection points: 2
#     Edge 57, Type (0, 1), BuildingBlock: AJUNOK_clean_linker_0, # of connection points: 2
#     Edge 58, Type (0, 1), BuildingBlock: AJUNOK_clean_linker_0, # of connection points: 2
#     Edge 59, Type (0, 1), BuildingBlock: AJUNOK_clean_linker_0, # of connection points: 2
#     Edge 60, Type (0, 1), BuildingBlock: AJUNOK_clean_linker_0, # of connection points: 2
#     Edge 61, Type (0, 1), BuildingBlock: AJUNOK_clean_linker_0, # of connection points: 2
# Relax obj value: 0.176
# Max RMSD: 0.243
# Mean RMSD: 0.154
data_MOF--net-ocu--node1-PAMTUU_clean_sbu_0--node2-VETTIZ_charged_sbu_0--edge1-AJUNOK_clean_linker_0
_symmetry_space_group_name_H-M    P1
_symmetry_Int_Tables_number       1
_symmetry_cell_setting            triclinic
loop_
_symmetry_equiv_pos_as_xyz
'x, y, z'
_cell_length_a     29.576715
_cell_length_b     31.935775
_cell_length_c     31.062776
_cell_angle_alpha  83.106259
_cell_angle_beta   96.26471
_cell_angle_gamma 106.9195
loop_
_atom_site_label
_atom_site_type_symbol
_atom_site_fract_x
_atom_site_fract_y
_atom_site_fract_z
_atom_type_partial_charge
Tb0 Tb 0.26741 0.28536 0.25361 0.0
Tb1 Tb 0.34832 0.30773 0.32354 0.0
C2 C 0.25785 0.23432 0.34727 0.0
C3 C 0.14815 0.2599 0.20199 0.0
C4 C 0.07759 0.30079 0.20139 0.0
C5 C 0.09783 0.28673 0.24137 0.0
C6 C 0.13376 0.26657 0.24164 0.0
C7 C 0.11994 0.26415 0.16351 0.0
C8 C 0.08355 0.28375 0.16343 0.0
C9 C 0.19787 0.26283 0.19926 0.0
O10 O 0.24239 0.33543 0.29 0.0
O11 O 0.2964 0.34133 0.34815 0.0
O12 O 0.36126 0.3649 0.27726 0.0
O13 O 0.3295 0.32591 0.22096 0.0
O14 O 0.3738 0.33238 0.38374 0.0
O15 O 0.42066 0.31804 0.34333 0.0
O16 O 0.37838 0.26739 0.27884 0.0
O17 O 0.31258 0.24207 0.23429 0.0
O18 O 0.23714 0.24975 0.31238 0.0
O19 O 0.30415 0.24613 0.35329 0.0
C20 C 0.25649 0.35087 0.3299 0.0
O21 O 0.22611 0.303 0.19941 0.0
O22 O 0.21419 0.23476 0.22586 0.0
C23 C 0.36185 0.35898 0.23681 0.0
C24 C 0.43131 0.30184 0.41802 0.0
C25 C 0.46519 0.24774 0.48283 0.0
C26 C 0.48588 0.29351 0.48 0.0
C27 C 0.46893 0.32056 0.44751 0.0
C28 C 0.40866 0.25677 0.42272 0.0
C29 C 0.42545 0.22989 0.45479 0.0
C30 C 0.41576 0.32836 0.38145 0.0
C31 C 0.35832 0.24257 0.24504 0.0
H32 H 0.09297 0.29902 0.27107 0.0
H33 H 0.15489 0.26284 0.27181 0.0
H34 H 0.13025 0.25849 0.13277 0.0
H35 H 0.06738 0.29364 0.13234 0.0
H36 H 0.51678 0.30787 0.50113 0.0
H37 H 0.48625 0.35558 0.44431 0.0
H38 H 0.37954 0.24196 0.4001 0.0
H39 H 0.40964 0.19473 0.45502 0.0
Tb40 Tb 0.77659 0.33125 0.33946 0.0
Tb41 Tb 0.82384 0.27341 0.29001 0.0
C42 C 0.87868 0.32361 0.36866 0.0
C43 C 0.69561 0.39187 0.35078 0.0
C44 C 0.66777 0.43093 0.2714 0.0
C45 C 0.68882 0.4571 0.30558 0.0
C46 C 0.70338 0.43755 0.34521 0.0
C47 C 0.66404 0.36581 0.3209 0.0
C48 C 0.65126 0.38516 0.28089 0.0
C49 C 0.73337 0.37457 0.37339 0.0
O50 O 0.80092 0.37192 0.27766 0.0
O51 O 0.85926 0.34113 0.26662 0.0
O52 O 0.76907 0.29341 0.24802 0.0
O53 O 0.72103 0.28803 0.30052 0.0
O54 O 0.87962 0.25837 0.26489 0.0
O55 O 0.80693 0.22239 0.24909 0.0
O56 O 0.77878 0.22676 0.33755 0.0
O57 O 0.7796 0.27479 0.38667 0.0
O58 O 0.84933 0.34777 0.36414 0.0
O59 O 0.87181 0.28826 0.34818 0.0
C60 C 0.83967 0.37357 0.25855 0.0
O61 O 0.72365 0.33191 0.37923 0.0
O62 O 0.77429 0.39189 0.35725 0.0
C63 C 0.72634 0.28335 0.26046 0.0
C64 C 0.86428 0.18325 0.25922 0.0
C65 C 0.90222 0.12308 0.31198 0.0
C66 C 0.8533 0.11787 0.30959 0.0
C67 C 0.83434 0.14816 0.28351 0.0
C68 C 0.91104 0.18309 0.25533 0.0
C69 C 0.93008 0.15296 0.28178 0.0
C70 C 0.85132 0.22432 0.24712 0.0
C71 C 0.77112 0.23408 0.37679 0.0
H72 H 0.69879 0.49257 0.30029 0.0
H73 H 0.72656 0.45827 0.36851 0.0
H74 H 0.65589 0.33029 0.32498 0.0
H75 H 0.63372 0.3636 0.25604 0.0
H76 H 0.83131 0.09469 0.33257 0.0
H77 H 0.79783 0.14697 0.28651 0.0
H78 H 0.93443 0.20956 0.2362 0.0
H79 H 0.96794 0.1574 0.28317 0.0
Tb80 Tb 0.86745 0.81339 0.27585 0.0
Tb81 Tb 0.79128 0.76503 0.3346 0.0
C82 C 0.86845 0.84803 0.36625 0.0
C83 C 0.97765 0.83916 0.22271 0.0
C84 C 1.013 0.78008 0.18823 0.0
C85 C 1.01078 0.81937 0.16333 0.0
C86 C 0.99195 0.84851 0.18034 0.0
C87 C 0.99063 0.80589 0.25036 0.0
C88 C 1.0073 0.77579 0.23301 0.0
C89 C 0.93787 0.85324 0.23305 0.0
O90 O 0.90105 0.75828 0.31352 0.0
O91 O 0.84301 0.72194 0.35758 0.0
O92 O 0.78774 0.71518 0.29287 0.0
O93 O 0.81762 0.76382 0.23696 0.0
O94 O 0.76521 0.74334 0.39596 0.0
O95 O 0.71845 0.7336 0.33764 0.0
O96 O 0.75562 0.81497 0.28852 0.0
O97 O 0.81521 0.85409 0.24791 0.0
O98 O 0.87487 0.85872 0.32505 0.0
O99 O 0.8391 0.81029 0.37824 0.0
C100 C 0.88647 0.72488 0.34526 0.0
O101 O 0.89695 0.83155 0.21557 0.0
O102 O 0.93593 0.85663 0.27402 0.0
C103 C 0.7928 0.72429 0.25155 0.0
C104 C 0.69657 0.76418 0.39305 0.0
C105 C 0.65599 0.82363 0.42133 0.0
C106 C 0.63518 0.77811 0.42972 0.0
C107 C 0.65549 0.74826 0.4154 0.0
C108 C 0.71624 0.80953 0.38386 0.0
C109 C 0.69599 0.83897 0.39758 0.0
C110 C 0.72149 0.73548 0.37953 0.0
C111 C 0.77006 0.84833 0.25658 0.0
H112 H 1.01675 0.82421 0.12906 0.0
H113 H 0.983 0.87477 0.15888 0.0
H114 H 0.98139 0.79914 0.28375 0.0
H115 H 1.0086 0.74627 0.25355 0.0
H116 H 0.60416 0.76587 0.44811 0.0
H117 H 0.64001 0.71327 0.42258 0.0
H118 H 0.74851 0.82239 0.36737 0.0
H119 H 0.71311 0.87386 0.39151 0.0
Tb120 Tb 0.35544 0.7649 0.32065 0.0
Tb121 Tb 0.29351 0.83477 0.30798 0.0
C122 C 0.26637 0.74821 0.36786 0.0
C123 C 0.42858 0.6943 0.30202 0.0
C124 C 0.46396 0.65323 0.24495 0.0
C125 C 0.45543 0.63348 0.2872 0.0
C126 C 0.43786 0.65411 0.31577 0.0
C127 C 0.43827 0.71461 0.2601 0.0
C128 C 0.45629 0.6942 0.2317 0.0
C129 C 0.40702 0.71393 0.33096 0.0
O130 O 0.29338 0.73684 0.27695 0.0
O131 O 0.27356 0.7997 0.24927 0.0
O132 O 0.36655 0.86522 0.2955 0.0
O133 O 0.37539 0.80873 0.26342 0.0
O134 O 0.23375 0.85482 0.31552 0.0
O135 O 0.29032 0.89687 0.27854 0.0
O136 O 0.32771 0.84252 0.37401 0.0
O137 O 0.38851 0.81348 0.36632 0.0
O138 O 0.31104 0.74968 0.37332 0.0
O139 O 0.25041 0.77344 0.33728 0.0
C140 C 0.26868 0.75748 0.24857 0.0
O141 O 0.42327 0.75653 0.33059 0.0
O142 O 0.36084 0.70035 0.32963 0.0
C143 C 0.38623 0.85068 0.26732 0.0
C144 C 0.25768 0.92987 0.32599 0.0
C145 C 0.26538 0.99606 0.38051 0.0
C146 C 0.26702 1.0065 0.33532 0.0
C147 C 0.26312 0.97342 0.30812 0.0
C148 C 0.25828 0.92013 0.3712 0.0
C149 C 0.26151 0.95268 0.39798 0.0
C150 C 0.25284 0.89454 0.29821 0.0
C151 C 0.36897 0.83567 0.38796 0.0
H152 H 0.46121 0.60168 0.29756 0.0
H153 H 0.4304 0.63826 0.3481 0.0
H154 H 0.43092 0.74564 0.24907 0.0
H155 H 0.46236 0.70941 0.19893 0.0
H156 H 0.26956 0.03968 0.32106 0.0
H157 H 0.26348 0.9816 0.27327 0.0
H158 H 0.25478 0.88697 0.38602 0.0
H159 H 0.25807 0.94318 0.43239 0.0
Tb160 Tb 0.27883 0.81123 0.8081 0.0
Tb161 Tb 0.35188 0.75964 0.82687 0.0
C162 C 0.3642 0.84213 0.88422 0.0
C163 C 0.22646 0.89983 0.81211 0.0
C164 C 0.23307 0.98797 0.79384 0.0
C165 C 0.19044 0.95879 0.80782 0.0
C166 C 0.18664 0.91406 0.81499 0.0
C167 C 0.27147 0.93046 0.81148 0.0
C168 C 0.27491 0.97518 0.80368 0.0
C169 C 0.22026 0.85468 0.80321 0.0
O170 O 0.34366 0.85463 0.78033 0.0
O171 O 0.37331 0.79988 0.76712 0.0
O172 O 0.30111 0.71927 0.7774 0.0
O173 O 0.25742 0.76699 0.7534 0.0
O174 O 0.42242 0.75684 0.83648 0.0
O175 O 0.36339 0.69784 0.84235 0.0
O176 O 0.30629 0.74247 0.88093 0.0
O177 O 0.24167 0.74756 0.83898 0.0
O178 O 0.32082 0.84134 0.86726 0.0
O179 O 0.38471 0.81539 0.8694 0.0
C180 C 0.37308 0.84098 0.76051 0.0
O181 O 0.24112 0.85015 0.76967 0.0
O182 O 0.22694 0.82839 0.83712 0.0
C183 C 0.26771 0.72965 0.74946 0.0
C184 C 0.41977 0.70943 0.90096 0.0
C185 C 0.42303 0.69707 0.99263 0.0
C186 C 0.40187 0.66166 0.96681 0.0
C187 C 0.40123 0.66769 0.92188 0.0
C188 C 0.43861 0.7454 0.92607 0.0
C189 C 0.43985 0.73933 0.97137 0.0
C190 C 0.4078 0.71646 0.85412 0.0
C191 C 0.26011 0.73163 0.87481 0.0
H192 H 0.15783 0.96832 0.80328 0.0
H193 H 0.15195 0.89068 0.81764 0.0
H194 H 0.30301 0.91975 0.8114 0.0
H195 H 0.30867 0.99771 0.7954 0.0
H196 H 0.38733 0.62837 0.98077 0.0
H197 H 0.38472 0.63975 0.90331 0.0
H198 H 0.45185 0.77842 0.9108 0.0
H199 H 0.45575 0.76742 0.9898 0.0
Tb200 Tb 0.35725 0.29636 0.77701 0.0
Tb201 Tb 0.27854 0.28751 0.84525 0.0
C202 C 0.37035 0.36863 0.83841 0.0
C203 C 0.43955 0.26115 0.71757 0.0
C204 C 0.48509 0.19765 0.70503 0.0
C205 C 0.50711 0.24267 0.69517 0.0
C206 C 0.48447 0.27414 0.70135 0.0
C207 C 0.41765 0.21621 0.72779 0.0
C208 C 0.44002 0.18472 0.72118 0.0
C209 C 0.41647 0.29461 0.72487 0.0
O210 O 0.38622 0.26895 0.84023 0.0
O211 O 0.3169 0.23797 0.8727 0.0
O212 O 0.24411 0.25032 0.79046 0.0
O213 O 0.30799 0.23132 0.77583 0.0
O214 O 0.26231 0.29103 0.90871 0.0
O215 O 0.20678 0.2726 0.85818 0.0
O216 O 0.26906 0.34312 0.7988 0.0
O217 O 0.30522 0.33045 0.74173 0.0
O218 O 0.37705 0.36096 0.79959 0.0
O219 O 0.33979 0.34071 0.86309 0.0
C220 C 0.36297 0.24231 0.87171 0.0
O221 O 0.37083 0.28517 0.71503 0.0
O222 O 0.42826 0.31129 0.76213 0.0
C223 C 0.26265 0.22715 0.76929 0.0
C224 C 0.1963 0.31913 0.90865 0.0
C225 C 0.15935 0.38588 0.93002 0.0
C226 C 0.13971 0.36266 0.89361 0.0
C227 C 0.15814 0.32973 0.88288 0.0
C228 C 0.21491 0.34171 0.94567 0.0
C229 C 0.19681 0.37471 0.95611 0.0
C230 C 0.21743 0.28532 0.89719 0.0
C231 C 0.27641 0.34963 0.75695 0.0
H232 H 0.54153 0.25347 0.68206 0.0
H233 H 0.50204 0.30864 0.69346 0.0
H234 H 0.38331 0.20548 0.74099 0.0
H235 H 0.42231 0.15025 0.72907 0.0
H236 H 0.11057 0.3704 0.87317 0.0
H237 H 0.14268 0.31283 0.85427 0.0
H238 H 0.24379 0.33404 0.96658 0.0
H239 H 0.21187 0.39132 0.98499 0.0
Tb240 Tb 0.87742 0.263 0.83541 0.0
Tb241 Tb 0.80044 0.31211 0.79171 0.0
C242 C 0.77651 0.24597 0.88082 0.0
C243 C 0.94524 0.19143 0.8226 0.0
C244 C 0.94338 0.14657 0.74909 0.0
C245 C 0.93553 0.12321 0.79026 0.0
C246 C 0.93593 0.14546 0.82665 0.0
C247 C 0.95779 0.21488 0.78236 0.0
C248 C 0.95708 0.19274 0.74613 0.0
C249 C 0.9292 0.21299 0.85515 0.0
O250 O 0.85005 0.23757 0.77323 0.0
O251 O 0.77752 0.24919 0.76728 0.0
O252 O 0.85738 0.33023 0.74421 0.0
O253 O 0.91884 0.31327 0.78698 0.0
O254 O 0.73191 0.31051 0.76435 0.0
O255 O 0.78772 0.37143 0.76447 0.0
O256 O 0.83703 0.35102 0.84364 0.0
O257 O 0.88864 0.31392 0.87901 0.0
O258 O 0.81685 0.23597 0.87847 0.0
O259 O 0.76509 0.27595 0.85145 0.0
C260 C 0.80662 0.22972 0.7561 0.0
O261 O 0.94567 0.25582 0.85425 0.0
O262 O 0.88338 0.19999 0.85732 0.0
C263 C 0.90321 0.332 0.75008 0.0
C264 C 0.71367 0.37288 0.78138 0.0
C265 C 0.67799 0.41996 0.83323 0.0
C266 C 0.68729 0.43621 0.79001 0.0
C267 C 0.70542 0.41285 0.76427 0.0
C268 C 0.70116 0.35528 0.82343 0.0
C269 C 0.68349 0.3786 0.84913 0.0
C270 C 0.74224 0.35322 0.75895 0.0
C271 C 0.86831 0.34589 0.87553 0.0
H272 H 0.9258 0.08762 0.79373 0.0
H273 H 0.92545 0.12655 0.8571 0.0
H274 H 0.96489 0.25025 0.77795 0.0
H275 H 0.96564 0.21185 0.71536 0.0
H276 H 0.68237 0.46768 0.77678 0.0
H277 H 0.71517 0.42696 0.73193 0.0
H278 H 0.70755 0.32467 0.83745 0.0
H279 H 0.67691 0.36542 0.88239 0.0
Tb280 Tb 0.84343 0.84483 0.8353 0.0
Tb281 Tb 0.83274 0.76558 0.77317 0.0
C282 C 0.91125 0.85426 0.76062 0.0
C283 C 0.80463 0.92199 0.89492 0.0
C284 C 0.73831 0.95805 0.92576 0.0
C285 C 0.76528 0.97995 0.89089 0.0
C286 C 0.79821 0.96231 0.87589 0.0
C287 C 0.7761 0.89908 0.92851 0.0
C288 C 0.74329 0.91688 0.94366 0.0
C289 C 0.84223 0.90537 0.88059 0.0
O290 O 0.77991 0.8421 0.79067 0.0
O291 O 0.79712 0.8104 0.73419 0.0
O292 O 0.76495 0.75066 0.80041 0.0
O293 O 0.7909 0.78749 0.86123 0.0
O294 O 0.84321 0.74314 0.71519 0.0
O295 O 0.81046 0.69761 0.76768 0.0
O296 O 0.86707 0.747 0.83535 0.0
O297 O 0.89885 0.81328 0.86424 0.0
O298 O 0.88821 0.87377 0.78172 0.0
O299 O 0.9024 0.81133 0.76499 0.0
C300 C 0.77276 0.833 0.74974 0.0
O301 O 0.84491 0.86656 0.89698 0.0
O302 O 0.84836 0.91142 0.83918 0.0
C303 C 0.75918 0.75787 0.83974 0.0
C304 C 0.86143 0.67472 0.72886 0.0
C305 C 0.92074 0.6213 0.72144 0.0
C306 C 0.87347 0.60228 0.73155 0.0
C307 C 0.84407 0.62878 0.7351 0.0
C308 C 0.90929 0.69381 0.72109 0.0
C309 C 0.9385 0.6674 0.717 0.0
C310 C 0.82928 0.70202 0.73085 0.0
C311 C 0.89675 0.77134 0.86336 0.0
H312 H 0.76178 1.01138 0.87587 0.0
H313 H 0.81941 0.98075 0.84989 0.0
H314 H 0.77986 0.86787 0.9439 0.0
H315 H 0.72325 0.89927 0.97069 0.0
H316 H 0.85878 0.56689 0.73518 0.0
H317 H 0.80743 0.61335 0.74182 0.0
H318 H 0.92391 0.72912 0.71699 0.0
H319 H 0.97428 0.68327 0.70805 0.0
Fe320 Fe 0.06397 0.15162 0.5519 0.0
O321 O 0.06679 0.09045 0.5709 0.0
Fe322 Fe 0.12838 0.07755 0.55775 0.0
Fe323 Fe 1.02034 0.03522 0.55086 0.0
O324 O 0.0709 0.09311 0.56863 0.0
O325 O 0.08258 0.02417 0.53461 0.0
O326 O 0.07777 0.02178 0.53521 0.0
Fe327 Fe 0.09158 0.96547 0.55172 0.0
C328 C 0.97195 0.09401 0.59164 0.0
O329 O 1.01632 0.13395 0.49948 0.0
O330 O 1.0146 0.06526 0.48956 0.0
O331 O 0.14543 0.99151 0.5113 0.0
O332 O 0.18399 0.0557 0.54222 0.0
O333 O 0.13122 0.1091 0.49664 0.0
O334 O 0.11972 0.17153 0.51053 0.0
O335 O 0.97938 0.97616 0.52349 0.0
O336 O 1.03605 0.94606 0.50447 0.0
C337 C 0.13642 0.14973 0.48763 0.0
O338 O 0.14256 0.98636 0.60278 0.0
O339 O 0.12653 0.04623 0.61781 0.0
O340 O 1.00703 0.12963 0.58915 0.0
O341 O 0.96726 0.05853 0.57228 0.0
C342 C 1.00634 0.10161 0.47642 0.0
C343 C 0.99332 0.95066 0.50081 0.0
C344 C 1.02275 0.96166 0.62076 0.0
O345 O 1.02289 1.00188 0.61264 0.0
O346 O 1.04059 0.94311 0.59569 0.0
C347 C 0.18033 0.02697 0.51496 0.0
O348 O 0.16962 0.13405 0.5873 0.0
O349 O 0.115 0.16744 0.60266 0.0
C350 C 0.14577 1.01585 0.6283 0.0
C351 C 0.15569 0.15908 0.61009 0.0
Fe352 Fe 0.55538 1.01214 0.08822 0.0
O353 O 0.59738 0.06301 0.11604 0.0
Fe354 Fe 0.44832 0.05371 0.06833 0.0
Fe355 Fe 0.66684 0.08373 0.11397 0.0
O356 O 0.51946 0.06146 0.06635 0.0
O357 O 0.52065 0.0738 0.07143 0.0
O358 O 0.5932 0.08752 0.11182 0.0
Fe359 Fe 0.55767 0.13916 0.0788 0.0
C360 C 0.64601 0.97962 0.15027 0.0
O361 O 0.59209 0.02491 0.03279 0.0
O362 O 0.66525 0.04887 0.06263 0.0
O363 O 0.50741 0.16078 1.03009 0.0
O364 O 0.44683 0.10071 1.01516 0.0
O365 O 0.44572 1.00199 1.02745 0.0
O366 O 0.50118 0.96458 0.05037 0.0
O367 O 0.67502 0.14057 0.06641 0.0
O368 O 0.60595 0.14499 1.02856 0.0
C369 C 0.46362 0.96928 1.02495 0.0
O370 O 0.51279 0.14777 0.13075 0.0
O371 O 0.44205 0.1039 0.11195 0.0
O372 O 0.60547 0.9698 0.12336 0.0
O373 O 0.66578 0.02168 0.15547 0.0
C374 C 0.63658 0.03242 0.03179 0.0
C375 C 0.65207 0.15206 0.03087 0.0
C376 C 0.64329 0.14478 0.15858 0.0
O377 O 0.67315 0.12232 0.16507 0.0
O378 O 0.61266 0.13529 0.12611 0.0
C379 C 0.46778 0.14212 1.00799 0.0
O380 O 0.44655 1.00777 0.12053 0.0
O381 O 0.51773 0.99567 0.1415 0.0
C382 C 0.46656 0.1369 0.13415 0.0
C383 C 0.47422 0.9904 0.1461 0.0
Fe384 Fe 1.04758 0.61565 0.05659 0.0
O385 O 0.99582 0.56855 1.02789 0.0
Fe386 Fe 0.13432 0.56104 0.09148 0.0
Fe387 Fe 0.92669 0.5642 0.03141 0.0
O388 O 0.06975 0.56515 0.08538 0.0
O389 O 0.06791 0.5612 0.08678 0.0
O390 O 0.99275 0.56317 0.03064 0.0
Fe391 Fe 1.01456 0.51361 0.06277 0.0
C392 C 0.97168 0.62007 0.10525 0.0
O393 O 1.01341 0.66216 1.01958 0.0
O394 O 0.94568 0.61762 0.9854 0.0
O395 O 0.05255 0.51118 1.01115 0.0
O396 O 0.12382 0.51633 0.04653 0.0
O397 O 0.15578 0.61088 0.04287 0.0
O398 O 0.09216 0.62629 1.00623 0.0
O399 O 0.91491 0.51332 0.9921 0.0
O400 O 0.95675 0.46984 0.03275 0.0
C401 C 0.13654 0.62881 1.00983 0.0
O402 O 1.04264 0.46776 0.09931 0.0
O403 O 0.1099 0.50769 0.13649 0.0
O404 O 1.00647 0.6048 0.10717 0.0
O405 O 0.93959 0.61211 0.07422 0.0
C406 C 0.97718 0.65543 0.98972 0.0
C407 C 0.92667 0.47682 1.00098 0.0
C408 C 0.93185 0.50091 0.11583 0.0
O409 O 0.9083 0.51396 0.08264 0.0
O410 O 0.97679 0.51045 0.11639 0.0
C411 C 0.09399 0.50578 1.01408 0.0
O412 O 0.14408 0.60946 0.1319 0.0
O413 O 0.1041 0.65751 0.09572 0.0
C414 C 0.07548 0.47218 0.13093 0.0
C415 C 0.1342 0.64682 0.1266 0.0
Fe416 Fe 0.56974 0.55241 0.99425 0.0
O417 O 0.62179 0.5739 0.03983 0.0
Fe418 Fe 0.47465 0.49244 0.05252 0.0
Fe419 Fe 0.68926 0.58457 0.03323 0.0
O420 O 0.5417 0.50693 0.04124 0.0
O421 O 0.54231 0.50659 0.04553 0.0
O422 O 0.62179 0.57475 0.04421 0.0
Fe423 Fe 0.5917 0.53108 0.09181 0.0
C424 C 0.64425 0.51775 0.96527 0.0
O425 O 0.60578 0.60237 0.95039 0.0
O426 O 0.67741 0.63357 0.98779 0.0
O427 O 0.55521 0.57151 0.10741 0.0
O428 O 0.48393 0.52316 0.10843 0.0
O429 O 0.46566 0.54877 1.01868 0.0
O430 O 0.53762 0.59445 1.01407 0.0
O431 O 0.69774 0.61752 0.08667 0.0
O432 O 0.64966 0.56675 0.13408 0.0
C433 C 0.49511 0.58612 1.02357 0.0
O434 O 0.55179 0.47993 0.13608 0.0
O435 O 0.48993 0.44148 0.09143 0.0
O436 O 0.60173 0.5103 0.97449 0.0
O437 O 0.6786 0.54679 0.98204 0.0
C438 C 0.64543 0.63294 0.95561 0.0
C439 C 0.68342 0.60334 0.12512 0.0
C440 C 0.66965 0.4978 0.09015 0.0
O441 O 0.69971 0.53356 0.07811 0.0
O442 O 0.62763 0.49132 0.07428 0.0
C443 C 0.51387 0.55785 0.12067 0.0
O444 O 0.46627 0.46659 0.994 0.0
O445 O 0.51166 0.52451 0.95158 0.0
C446 C 0.51412 0.4467 0.12876 0.0
C447 C 0.47993 0.48679 0.95694 0.0
Fe448 Fe 0.1135 0.42541 0.54012 0.0
O449 O 0.12256 0.49073 0.53928 0.0
Fe450 Fe 0.08544 0.52161 0.47657 0.0
Fe451 Fe 0.09967 0.51212 0.59054 0.0
O452 O 0.11878 0.49074 0.5288 0.0
O453 O 0.06433 0.54201 0.53004 0.0
O454 O 0.06819 0.54326 0.53912 0.0
Fe455 Fe 0.06516 0.60389 0.53913 0.0
C456 C 1.03672 0.42172 0.60666 0.0
O457 O 0.1686 0.43881 0.58828 0.0
O458 O 0.13863 0.47227 0.63546 0.0
O459 O 0.11182 0.62831 0.49291 0.0
O460 O 0.14291 0.57597 0.47591 0.0
O461 O 0.12331 0.48322 0.43424 0.0
O462 O 0.15471 0.43689 0.48416 0.0
O463 O 0.15991 0.56884 0.60279 0.0
O464 O 0.12069 0.61899 0.5888 0.0
C465 C 0.14948 0.45307 0.44362 0.0
O466 O 1.0109 0.59729 0.48705 0.0
O467 O 1.03919 0.56807 0.4351 0.0
O468 O 0.06805 0.4061 0.59414 0.0
O469 O 1.03684 0.46034 0.59115 0.0
C470 C 0.16664 0.44874 0.62724 0.0
C471 C 0.15525 0.60681 0.60957 0.0
C472 C 1.03242 0.5557 0.62619 0.0
O473 O 0.0661 0.53637 0.63439 0.0
O474 O 1.02259 0.57627 0.58927 0.0
C475 C 0.14139 0.61576 0.47442 0.0
O476 O 1.02661 0.46823 0.47488 0.0
O477 O 0.0557 0.41066 0.49654 0.0
C478 C 1.01219 0.59376 0.4459 0.0
C479 C 1.02418 0.42748 0.47723 0.0
Fe480 Fe 0.58262 0.96533 0.58304 0.0
O481 O 0.6312 1.01059 0.61561 0.0
Fe482 Fe 0.55595 0.02755 0.48697 0.0
Fe483 Fe 0.63862 1.00926 0.67937 0.0
O484 O 0.56607 1.01781 0.55076 0.0
O485 O 0.56983 0.02228 0.5491 0.0
O486 O 0.63487 1.01539 0.61423 0.0
Fe487 Fe 0.6178 0.06734 0.58128 0.0
C488 C 0.53412 0.95116 0.66683 0.0
O489 O 0.61059 0.91703 0.62283 0.0
O490 O 0.66396 0.95723 0.67345 0.0
O491 O 0.66813 0.07919 0.53501 0.0
O492 O 0.61867 0.07613 0.47497 0.0
O493 O 0.58681 0.98012 0.47642 0.0
O494 O 0.63 0.96931 0.53834 0.0
O495 O 0.69947 0.05836 0.66859 0.0
O496 O 0.67053 0.10713 0.62088 0.0
C497 C 0.61716 0.96316 0.49853 0.0
O498 O 0.59202 0.11553 0.54628 0.0
O499 O 0.53029 0.07776 0.50099 0.0
O500 O 0.53155 0.95839 0.62564 0.0
O501 O 0.57334 0.96331 0.68973 0.0
C502 C 0.64586 0.92223 0.65332 0.0
C503 C 0.70253 0.0973 0.64933 0.0
C504 C 0.57639 0.07115 0.66202 0.0
O505 O 0.60928 0.0597 0.68575 0.0
O506 O 0.56685 0.06142 0.62324 0.0
C507 C 0.65985 0.09006 0.49426 0.0
O508 O 0.49674 0.97571 0.49928 0.0
O509 O 0.52824 0.92542 0.54307 0.0
C510 C 0.55261 0.11131 0.52241 0.0
C511 C 0.49544 0.93606 0.51584 0.0
C512 C 0.2454 0.20929 0.42651 0.0
C513 C 0.22747 0.20897 0.38254 0.0
C514 C 0.21543 0.19118 0.46046 0.0
C515 C 0.16646 0.17212 0.45176 0.0
H516 H 0.2826 0.22472 0.43489 0.0
H517 H 0.2307 0.19196 0.49379 0.0
S518 S 0.1019 0.15965 0.34296 0.0
N519 N 0.15728 0.18543 0.33268 0.0
N520 N 0.10181 0.15165 0.39647 0.0
C521 C 0.1483 0.17035 0.40824 0.0
C522 C 0.17854 0.18874 0.37368 0.0
C523 C 0.91948 0.13187 0.38998 0.0
C524 C 0.92569 0.11185 0.354 0.0
C525 C 0.94624 0.12864 0.42926 0.0
C526 C 0.97974 0.1048 0.43414 0.0
H527 H 0.89491 0.15165 0.38726 0.0
H528 H 0.94048 0.14486 0.45603 0.0
S529 S 1.009 0.04598 0.34982 0.0
N530 N 0.96766 0.06779 0.32517 0.0
N531 N 1.01733 0.06 0.40021 0.0
C532 C 0.98565 0.08367 0.39875 0.0
C533 C 0.95888 0.08778 0.35826 0.0
C534 C 0.8825 0.87861 0.44034 0.0
C535 C 0.89855 0.87703 0.39949 0.0
C536 C 0.91229 0.90372 0.47263 0.0
C537 C 0.95982 0.92702 0.46589 0.0
H538 H 0.84672 0.86018 0.44747 0.0
H539 H 0.89853 0.90364 0.50356 0.0
S540 S 1.01961 0.93345 0.36514 0.0
N541 N 0.96537 0.90188 0.35454 0.0
N542 N 1.02099 0.94723 0.41489 0.0
C543 C 0.976 0.92584 0.42515 0.0
C544 C 0.94556 0.90138 0.39214 0.0
C545 C 0.2805 0.02682 0.45206 0.0
C546 C 0.25794 0.02639 0.40958 0.0
C547 C 0.25751 0.03223 0.48724 0.0
C548 C 0.21239 0.03872 0.48019 0.0
H549 H 0.31267 1.01665 0.45885 0.0
H550 H 0.27263 0.02658 0.52004 0.0
S551 S 0.14582 0.05482 0.37452 0.0
N552 N 0.19349 0.04346 0.36186 0.0
N553 N 0.15118 0.05502 0.42795 0.0
C554 C 0.19369 0.04628 0.43749 0.0
C555 C 0.21668 0.0403 0.40186 0.0
C556 C 0.23807 0.99515 0.71482 0.0
C557 C 0.22751 1.01237 0.75111 0.0
C558 C 0.21215 0.99732 0.67482 0.0
C559 C 0.1759 1.01795 0.6693 0.0
H560 H 0.26237 0.97508 0.71841 0.0
H561 H 0.21916 0.98097 0.64872 0.0
S562 S 0.14487 0.07991 0.75023 0.0
N563 N 0.18595 0.05872 0.77644 0.0
N564 N 0.13763 0.06427 0.70056 0.0
C565 C 0.16982 0.04093 0.70336 0.0
C566 C 0.196 0.03823 0.74433 0.0
C567 C 0.19559 0.22009 0.7118 0.0
C568 C 0.23537 0.2067 0.73014 0.0
C569 C 0.1716 0.20569 0.67254 0.0
C570 C 0.18577 0.17678 0.64949 0.0
H571 H 0.1832 0.24285 0.72735 0.0
H572 H 0.14131 0.21741 0.66038 0.0
S573 S 0.28672 0.12996 0.68455 0.0
N574 N 0.28736 0.16181 0.72289 0.0
N575 N 0.242 0.1342 0.64913 0.0
C576 C 0.22539 0.16268 0.66763 0.0
C577 C 0.2501 0.17765 0.70784 0.0
C578 C 0.9581 0.08926 0.70822 0.0
C579 C 0.93716 0.12337 0.70906 0.0
C580 C 0.96159 0.07362 0.66877 0.0
C581 C 0.94435 0.09135 0.6289 0.0
H582 H 0.97576 0.07741 0.73752 0.0
H583 H 0.98364 0.05199 0.66884 0.0
S584 S 0.87624 0.17327 0.61455 0.0
N585 N 0.89039 0.16808 0.66746 0.0
N586 N 0.89889 0.13954 0.59333 0.0
C587 C 0.91858 0.12169 0.62987 0.0
C588 C 0.9146 0.13753 0.66997 0.0
C589 C 0.95918 0.92721 0.72609 0.0
C590 C 0.94435 0.88091 0.72783 0.0
C591 C 0.98581 0.95303 0.69244 0.0
C592 C 0.99806 0.9339 0.6585 0.0
H593 H 0.94966 0.94382 0.75065 0.0
H594 H 0.99677 0.98823 0.69309 0.0
S595 S 0.97007 0.81377 0.64879 0.0
N596 N 0.94634 0.81701 0.69346 0.0
N597 N 0.99492 0.86503 0.63023 0.0
C598 C 0.98481 0.88749 0.66072 0.0
C599 C 0.9583 0.86124 0.69521 0.0
C600 C 0.4374 0.21934 0.21996 0.0
C601 C 0.38661 0.215 0.21783 0.0
C602 C 0.46176 0.19584 0.19484 0.0
C603 C 0.43944 0.16342 0.16381 0.0
H604 H 0.45996 0.2423 0.2416 0.0
H605 H 0.49994 0.20372 0.2004 0.0
S606 S 0.30681 0.13637 0.142 0.0
N607 N 0.31632 0.17272 0.17798 0.0
N608 N 0.35905 0.13067 0.13451 0.0
C609 C 0.38871 0.15871 0.16155 0.0
C610 C 0.36403 0.18305 0.18663 0.0
C611 C 0.91078 0.42708 0.22423 0.0
C612 C 0.86102 0.41022 0.22452 0.0
C613 C 0.93283 0.45717 0.19022 0.0
C614 C 0.90651 0.47151 0.15358 0.0
H615 H 0.93322 0.41619 0.25031 0.0
H616 H 0.9712 0.4683 0.19227 0.0
S617 S 0.77501 0.43289 0.13516 0.0
N618 N 0.78613 0.40829 0.18337 0.0
N619 N 0.82683 0.46341 0.11909 0.0
C620 C 0.85648 0.45447 0.1532 0.0
C621 C 0.83404 0.42433 0.18848 0.0
C622 C 0.7545 0.92477 0.20931 0.0
C623 C 0.7362 0.88033 0.22977 0.0
C624 C 0.7264 0.95388 0.18574 0.0
C625 C 0.67501 0.94332 0.17669 0.0
H626 H 0.79262 0.93852 0.21199 0.0
H627 H 0.74661 0.98638 0.17359 0.0
S628 S 0.60352 0.83121 0.22053 0.0
N629 N 0.65791 0.82915 0.23733 0.0
N630 N 0.60829 0.88002 0.1936 0.0
C631 C 0.65585 0.89856 0.19639 0.0
C632 C 0.68458 0.86919 0.22181 0.0
C633 C 0.21723 0.74904 0.17663 0.0
C634 C 0.23112 0.73108 0.21814 0.0
C635 C 0.18325 0.7229 0.14752 0.0
C636 C 0.16156 0.67798 0.15912 0.0
H637 H 0.23398 0.78308 0.16596 0.0
H638 H 0.17574 0.73737 0.11517 0.0
S639 S 0.17924 0.61728 0.26679 0.0
N640 N 0.21571 0.66696 0.27083 0.0
N641 N 0.15287 0.61849 0.21725 0.0
C642 C 0.17322 0.66074 0.2016 0.0
C643 C 0.2076 0.68701 0.23074 0.0
C644 C 0.43383 0.87332 0.9444 0.0
C645 C 0.38978 0.87405 0.92058 0.0
C646 C 0.45686 0.90263 0.97762 0.0
C647 C 0.43815 0.93566 0.98984 0.0
H648 H 0.4511 0.8496 0.93742 0.0
H649 H 0.49025 0.89947 0.99362 0.0
S650 S 0.32377 0.95309 0.9384 0.0
N651 N 0.32912 0.91225 0.91338 0.0
N652 N 0.37083 0.96572 0.97328 0.0
C653 C 0.3941 0.93657 0.96613 0.0
C654 C 0.37069 0.90667 0.93271 0.0
C655 C 0.09229 0.4118 0.94973 0.0
C656 C 0.14048 0.42088 0.94223 0.0
C657 C 0.07595 0.44156 0.96946 0.0
C658 C 0.10729 0.48123 0.98228 0.0
H659 H 0.06775 0.38033 0.94298 0.0
H660 H 1.03952 0.43194 0.97768 0.0
S661 S 0.2345 0.52422 0.96166 0.0
N662 N 0.21753 0.47526 0.94302 0.0
N663 N 0.18699 0.53078 0.9802 0.0
C664 C 0.15449 0.49225 0.97134 0.0
C665 C 0.17105 0.46216 0.95133 0.0
C666 C 0.76095 0.20319 0.95786 0.0
C667 C 0.74343 0.22275 0.91845 0.0
C668 C 0.73193 0.18192 0.99297 0.0
C669 C 0.68224 0.17686 0.9916 0.0
H670 H 0.7982 0.2047 0.96213 0.0
H671 H 0.74914 0.16874 1.02177 0.0
S672 S 0.61654 0.22188 0.89646 0.0
N673 N 0.67132 0.23575 0.88157 0.0
N674 N 0.61766 0.19521 0.9454 0.0
C675 C 0.66408 0.19629 0.95229 0.0
C676 C 0.694 0.21897 0.91678 0.0
C677 C 0.93667 0.75625 0.93925 0.0
C678 C 0.927 0.74853 0.89479 0.0
C679 C 0.95701 0.72852 0.9699 0.0
C680 C 0.96897 0.69219 0.95728 0.0
H681 H 0.92575 0.78212 0.95098 0.0
H682 H 0.96053 0.73388 1.00402 0.0
S683 S 0.95708 0.66116 0.84428 0.0
N684 N 0.93603 0.70415 0.8397 0.0
N685 N 0.97337 0.65297 0.89643 0.0
C686 C 0.96224 0.68613 0.91261 0.0
C687 C 0.94165 0.71396 0.88172 0.0
C688 C 1.03231 0.35587 0.18144 0.0
C689 C 0.07502 0.34625 0.19548 0.0
C690 C 1.03246 0.39839 0.164 0.0
C691 C 0.07539 0.43206 0.15958 0.0
H692 H 0.99917 0.32995 0.1814 0.0
H693 H 0.99897 0.40422 0.15137 0.0
S694 S 0.19638 0.42309 0.19415 0.0
N695 N 0.16095 0.37348 0.20595 0.0
N696 N 0.16113 0.45344 0.17385 0.0
C697 C 0.11795 0.42339 0.17653 0.0
C698 C 0.11779 0.38026 0.19407 0.0
C699 C 0.17925 0.69493 0.90273 0.0
C700 C 0.22915 0.70439 0.90902 0.0
C701 C 0.14955 0.67059 0.9351 0.0
C702 C 0.16822 0.6544 0.97518 0.0
H703 H 0.16291 0.70666 0.87269 0.0
H704 H 0.11146 0.66447 0.92849 0.0
S705 S 0.29671 0.67037 1.00822 0.0
N706 N 0.29574 0.69553 0.95873 0.0
N707 N 0.24074 0.65029 1.01906 0.0
C708 C 0.21824 0.66355 0.98171 0.0
C709 C 0.24829 0.68833 0.94882 0.0
C710 C 0.44012 0.22919 0.91414 0.0
C711 C 0.38969 0.21689 0.90675 0.0
C712 C 0.4652 0.20641 0.94674 0.0
C713 C 0.44175 0.16891 0.9737 0.0
H714 H 0.46078 0.25717 0.89464 0.0
H715 H 0.50353 0.21795 0.95017 0.0
S716 S 0.31013 0.1225 0.96927 0.0
N717 N 0.31799 0.16425 0.9313 0.0
N718 N 0.36367 0.12176 0.99022 0.0
C719 C 0.39138 0.15642 0.96653 0.0
C720 C 0.36599 0.18003 0.93407 0.0
C721 C 0.91727 0.37726 0.9413 0.0
C722 C 0.88053 0.37801 0.90877 0.0
C723 C 0.93038 0.40818 0.97202 0.0
C724 C 0.90781 0.4416 0.97121 0.0
H725 H 0.93666 0.35303 0.94281 0.0
H726 H 0.95937 0.40634 0.99596 0.0
S727 S 0.8051 0.45464 0.8964 0.0
N728 N 0.81826 0.41247 0.88045 0.0
N729 N 0.84383 0.47092 0.93768 0.0
C730 C 0.86965 0.44165 0.94006 0.0
C731 C 0.85587 0.40986 0.90897 0.0
C732 C 0.66236 0.95732 0.95711 0.0
C733 C 0.70895 0.97997 0.94645 0.0
C734 C 0.63683 0.97603 0.98148 0.0
C735 C 0.65735 1.01775 0.99669 0.0
H736 H 0.64607 0.92438 0.94766 0.0
H737 H 0.60215 0.95654 0.99083 0.0
S738 S 0.77727 0.09129 0.97609 0.0
N739 N 0.77339 0.04718 0.9516 0.0
N740 N 0.726 0.08186 0.99718 0.0
C741 C 0.70299 0.04132 0.9845 0.0
C742 C 0.72864 0.02259 0.95952 0.0
C743 C 0.97263 0.73231 0.13003 0.0
C744 C 1.00618 0.73998 0.16623 0.0
C745 C 0.95915 0.69222 0.112 0.0
C746 C 0.9783 0.65808 0.12978 0.0
H747 H 0.95555 0.75706 0.11592 0.0
H748 H 0.93455 0.68851 0.08325 0.0
S749 S 0.06374 0.65953 0.22685 0.0
N750 N 0.05731 0.70954 0.21977 0.0
N751 N 1.0294 0.63277 0.18761 0.0
C752 C 1.01054 0.66455 0.16689 0.0
C753 C 1.02526 0.70585 0.18457 0.0
C754 C 0.44815 0.91923 0.25041 0.0
C755 C 0.41291 0.88267 0.2358 0.0
C756 C 0.46848 0.95459 0.22108 0.0
C757 C 0.45243 0.95457 0.177 0.0
H758 H 0.45932 0.92075 0.28475 0.0
H759 H 0.49587 0.98239 0.23291 0.0
S760 S 0.36206 0.86597 0.12288 0.0
N761 N 0.36409 0.8475 0.17485 0.0
N762 N 0.40133 0.91484 0.1195 0.0
C763 C 0.41783 0.91787 0.16196 0.0
C764 C 0.39821 0.88149 0.19156 0.0
C765 C 0.68879 0.2597 0.18908 0.0
C766 C 0.68917 0.25319 0.23469 0.0
C767 C 0.66831 0.22471 0.16355 0.0
C768 C 0.64848 0.18232 0.18313 0.0
H769 H 0.70817 0.29099 0.17339 0.0
H770 H 0.67226 0.22994 0.12887 0.0
S771 S 0.63281 0.14972 0.30007 0.0
N772 N 0.66125 0.20269 0.29763 0.0
N773 N 0.62423 0.13658 0.24939 0.0
C774 C 0.64428 0.1763 0.22804 0.0
C775 C 0.66413 0.21206 0.254 0.0
C776 C 0.70974 0.74124 0.90253 0.0
C777 C 0.71854 0.72944 0.8627 0.0
C778 C 0.68079 0.71065 0.93104 0.0
C779 C 0.65915 0.66756 0.92032 0.0
H780 H 0.72807 0.7733 0.91334 0.0
H781 H 0.67838 0.71969 0.96308 0.0
S782 S 0.66257 0.62261 0.81668 0.0
N783 N 0.6971 0.67361 0.81117 0.0
N784 N 0.64214 0.61614 0.86516 0.0
C785 C 0.66277 0.65681 0.87864 0.0
C786 C 0.69268 0.68787 0.84958 0.0
C787 C 0.41508 0.64608 0.05844 0.0
C788 C 0.43904 0.68779 0.03919 0.0
C789 C 0.43418 0.61111 0.05552 0.0
C790 C 0.48006 0.62023 0.04122 0.0
H791 H 0.37757 0.63831 0.06255 0.0
H792 H 0.41162 0.5777 0.05996 0.0
S793 S 0.56929 0.72935 0.04106 0.0
N794 N 0.51792 0.73936 0.04366 0.0
N795 N 0.55726 0.67556 0.04015 0.0
C796 C 0.50959 0.66351 0.04285 0.0
C797 C 0.48858 0.69775 0.04521 0.0
C798 C 0.39668 0.44445 0.86146 0.0
C799 C 0.40539 0.40379 0.85958 0.0
C800 C 0.42416 0.4739 0.89077 0.0
C801 C 0.4601 0.46266 0.91904 0.0
H802 H 0.3669 0.45228 0.84219 0.0
H803 H 0.41507 0.50392 0.89353 0.0
S804 S 0.49722 0.36082 0.92493 0.0
N805 N 0.45363 0.35491 0.8861 0.0
N806 N 0.50395 0.40935 0.94225 0.0
C807 C 0.47027 0.42303 0.91581 0.0
C808 C 0.44311 0.39368 0.88569 0.0
C809 C 0.63126 0.42815 0.89212 0.0
C810 C 0.66711 0.44717 0.86364 0.0
C811 C 0.62458 0.4511 0.9253 0.0
C812 C 0.6534 0.4938 0.93116 0.0
H813 H 0.60879 0.39494 0.88922 0.0
H814 H 0.59737 0.43496 0.94718 0.0
S815 S 0.75147 0.55887 0.86459 0.0
N816 N 0.73148 0.51149 0.84301 0.0
N817 N 0.71824 0.55496 0.90509 0.0
C818 C 0.6889 0.51357 0.9025 0.0
C819 C 0.6957 0.49025 0.86862 0.0
C820 C 0.63374 0.43037 0.19445 0.0
C821 C 0.66994 0.44938 0.22529 0.0
C822 C 0.63725 0.44292 0.15026 0.0
C823 C 0.6753 0.4775 0.13492 0.0
H824 H 0.6021 0.40548 0.20435 0.0
H825 H 0.60822 0.4269 0.12806 0.0
S826 S 0.78237 0.53514 0.20135 0.0
N827 N 0.74883 0.50039 0.23665 0.0
N828 N 0.75211 0.52832 0.15362 0.0
C829 C 0.71253 0.49631 0.16507 0.0
C830 C 0.7103 0.48167 0.21021 0.0
C831 C 0.76694 0.70289 0.17615 0.0
C832 C 0.76586 0.69131 0.22101 0.0
C833 C 0.73962 0.67436 0.14635 0.0
C834 C 0.70978 0.63228 0.15957 0.0
H835 H 0.78861 0.73468 0.16363 0.0
H836 H 0.74213 0.68607 0.11226 0.0
S837 S 0.69394 0.58545 0.27377 0.0
N838 N 0.73222 0.63441 0.2778 0.0
N839 N 0.6811 0.58062 0.2212 0.0
C840 C 0.70827 0.62 0.20443 0.0
C841 C 0.73628 0.64937 0.23517 0.0
C842 C 0.51956 0.64533 0.19439 0.0
C843 C 0.47624 0.62902 0.21329 0.0
C844 C 0.53146 0.62216 0.16411 0.0
C845 C 0.50001 0.58235 0.15163 0.0
H846 H 0.54449 0.67583 0.20347 0.0
H847 H 0.56553 0.63554 0.15056 0.0
S848 S 0.38004 0.52865 0.19008 0.0
N849 N 0.40078 0.57293 0.21664 0.0
N850 N 0.42222 0.52918 0.15921 0.0
C851 C 0.45577 0.5666 0.16967 0.0
C852 C 0.44411 0.59001 0.20075 0.0
C853 C 0.41588 0.35965 0.18009 0.0
C854 C 0.40526 0.3807 0.21337 0.0
C855 C 0.45606 0.37867 0.15692 0.0
C856 C 0.48714 0.42015 0.16521 0.0
H857 H 0.3925 0.32842 0.17112 0.0
H858 H 0.46078 0.36227 0.12985 0.0
S859 S 0.48001 0.48571 0.2538 0.0
N860 N 0.43298 0.44252 0.25764 0.0
N861 N 0.50773 0.47911 0.21282 0.0
C862 C 0.47928 0.43991 0.20077 0.0
C863 C 0.43841 0.42016 0.22492 0.0
C864 C 0.92765 0.56348 0.67752 0.0
C865 C 0.94886 0.59394 0.70815 0.0
C866 C 0.95521 0.54645 0.65444 0.0
C867 C 1.00481 0.55884 0.6615 0.0
H868 H 0.88998 0.55593 0.66818 0.0
H869 H 0.93794 0.52653 0.62818 0.0
S870 S 0.07704 0.63047 0.7438 0.0
N871 N 1.02195 0.63012 0.74921 0.0
N872 N 0.07378 0.59834 0.70497 0.0
C873 C 1.02614 0.58526 0.69521 0.0
C874 C 0.9981 0.60284 0.71875 0.0
C875 C 0.44422 0.90717 0.75334 0.0
C876 C 0.41013 0.87228 0.73425 0.0
C877 C 0.48386 0.93287 0.73129 0.0
C878 C 0.49035 0.92549 0.68877 0.0
H879 H 0.44136 0.91342 0.78632 0.0
H880 H 0.50984 0.9585 0.74783 0.0
S881 S 0.4096 0.83941 0.62365 0.0
N882 N 0.38494 0.83223 0.67022 0.0
N883 N 0.45769 0.88134 0.6281 0.0
C884 C 0.45536 0.89167 0.66883 0.0
C885 C 0.41582 0.86485 0.69174 0.0
C886 C 0.25205 0.38035 0.68023 0.0
C887 C 0.25012 0.37805 0.72569 0.0
C888 C 0.22648 0.40407 0.6502 0.0
C889 C 0.19665 0.42767 0.66288 0.0
H890 H 0.2731 0.36288 0.66724 0.0
H891 H 0.22995 0.40308 0.61604 0.0
S892 S 0.18011 0.43508 0.77847 0.0
N893 N 0.21634 0.40377 0.782 0.0
N894 N 0.16892 0.44781 0.72599 0.0
C895 C 0.19511 0.42661 0.70843 0.0
C896 C 0.22133 0.40216 0.73935 0.0
C897 C 0.75918 0.20856 0.68782 0.0
C898 C 0.78982 0.19903 0.72289 0.0
C899 C 0.73481 0.17649 0.66037 0.0
C900 C 0.73974 0.13367 0.66786 0.0
H901 H 0.75204 0.24029 0.68299 0.0
H902 H 0.70908 0.18446 0.63561 0.0
S903 S 0.82136 0.09479 0.75202 0.0
N904 N 0.82833 0.14628 0.76103 0.0
N905 N 0.78326 0.08566 0.70897 0.0
C906 C 0.77432 0.12536 0.70013 0.0
C907 C 0.79909 0.15815 0.72802 0.0
C908 C 0.92371 0.33226 0.44012 0.0
C909 C 0.92258 0.34133 0.39471 0.0
C910 C 0.95686 0.36045 0.46719 0.0
C911 C 0.98811 0.3992 0.44937 0.0
H912 H 0.89724 0.30469 0.45474 0.0
H913 H 0.957 0.35281 0.50214 0.0
S914 S 1.00154 0.43531 0.33255 0.0
N915 N 0.95757 0.38941 0.3332 0.0
N916 N 1.01891 0.44317 0.38404 0.0
C917 C 0.98849 0.40755 0.40411 0.0
C918 C 0.95584 0.37835 0.37673 0.0
C919 C 0.63314 0.89302 0.41536 0.0
C920 C 0.64069 0.85607 0.44118 0.0
C921 C 0.62708 0.92825 0.43437 0.0
C922 C 0.62895 0.92788 0.47982 0.0
H923 H 0.63288 0.89499 0.38026 0.0
H924 H 0.62105 0.95604 0.41332 0.0
S925 S 0.64584 0.83742 0.56127 0.0
N926 N 0.64863 0.82026 0.51389 0.0
N927 N 0.63688 0.88635 0.54999 0.0
C928 C 0.63584 0.89069 0.5059 0.0
C929 C 0.64156 0.85468 0.48645 0.0
C930 C 0.24893 0.68024 0.41774 0.0
C931 C 0.23373 0.71518 0.39484 0.0
C932 C 0.2186 0.64758 0.44323 0.0
C933 C 0.17253 0.64931 0.44687 0.0
H934 H 0.28438 0.67774 0.41576 0.0
H935 H 0.23145 0.62126 0.46061 0.0
S936 S 0.11489 0.73265 0.392 0.0
N937 N 0.16935 0.74894 0.37644 0.0
N938 N 0.11187 0.68717 0.42437 0.0
C939 C 0.15657 0.68369 0.42375 0.0
C940 C 0.18736 0.7168 0.39765 0.0
C941 C 0.5383 0.22449 0.49835 0.0
C942 C 0.49065 0.21764 0.50641 0.0
C943 C 0.55888 0.18992 0.50532 0.0
C944 C 0.53209 0.14767 0.51976 0.0
H945 H 0.55853 0.25552 0.48292 0.0
H946 H 0.59488 0.19558 0.49672 0.0
S947 S 0.41056 0.11525 0.55583 0.0
N948 N 0.4208 0.16781 0.53815 0.0
N949 N 0.4592 0.102 0.54925 0.0
C950 C 0.4863 0.14127 0.5321 0.0
C951 C 0.46572 0.17669 0.52617 0.0
C952 C 0.74196 0.86511 0.67795 0.0
C953 C 0.73471 0.84723 0.72124 0.0
C954 C 0.70947 0.88507 0.65318 0.0
C955 C 0.66753 0.88631 0.67003 0.0
H956 H 0.7746 0.86661 0.66423 0.0
H957 H 0.71904 0.90257 0.62191 0.0
S958 S 0.62912 0.8394 0.77959 0.0
N959 N 0.68045 0.82893 0.77844 0.0
N960 N 0.61928 0.86504 0.73159 0.0
C961 C 0.65837 0.86556 0.712 0.0
C962 C 0.69185 0.84634 0.7376 0.0
C963 C 0.72376 0.15444 0.39491 0.0
C964 C 0.74891 0.19582 0.40925 0.0
C965 C 0.69756 0.11983 0.42316 0.0
C966 C 0.69627 0.12387 0.46784 0.0
H967 H 0.7225 0.14919 0.36096 0.0
H968 H 0.67687 0.08982 0.40945 0.0
S969 S 0.75966 0.22341 0.52374 0.0
N970 N 0.7729 0.23742 0.47269 0.0
N971 N 0.72527 0.17226 0.52544 0.0
C972 C 0.72348 0.16408 0.48329 0.0
C973 C 0.74927 0.19987 0.45425 0.0
C974 C 0.96271 0.68506 0.35456 0.0
C975 C 0.91863 0.68986 0.36808 0.0
C976 C 0.99045 0.65418 0.3758 0.0
C977 C 0.97868 0.62303 0.41421 0.0
H978 H 0.97708 0.70624 0.3265 0.0
H979 H 1.02307 0.6561 0.36193 0.0
S980 S 0.86808 0.61864 0.46661 0.0
N981 N 0.86696 0.65638 0.42558 0.0
N982 N 0.91597 0.6029 0.46349 0.0
C983 C 0.93488 0.62789 0.4278 0.0
C984 C 0.90658 0.65876 0.40602 0.0
C985 C 0.442 0.84908 0.4397 0.0
C986 C 0.39664 0.85509 0.42751 0.0
C987 C 0.47231 0.87173 0.47255 0.0
C988 C 0.45851 0.90133 0.4945 0.0
H989 H 0.45552 0.82846 0.42227 0.0
H990 H 0.50814 0.86882 0.47814 0.0
S991 S 0.34093 0.92239 0.48227 0.0
N992 N 0.3372 0.88787 0.44558 0.0
N993 N 0.39479 0.93094 0.50675 0.0
C994 C 0.41205 0.90473 0.48562 0.0
C995 C 0.38096 0.88151 0.4523 0.0
C996 C 0.24261 0.3932 0.39932 0.0
C997 C 0.22825 0.37921 0.35587 0.0
C998 C 0.21879 0.41683 0.42411 0.0
C999 C 0.17705 0.43192 0.40969 0.0
H1000 H 0.27354 0.385 0.41577 0.0
H1001 H 0.23422 0.42328 0.45672 0.0
S1002 S 0.11815 0.40397 0.29926 0.0
N1003 N 0.16354 0.38318 0.30141 0.0
N1004 N 0.12206 0.42628 0.34532 0.0
C1005 C 0.16178 0.41821 0.36615 0.0
C1006 C 0.18577 0.39321 0.34087 0.0
C1007 C 0.48398 0.13013 0.67105 0.0
C1008 C 0.50829 0.1641 0.6971 0.0
C1009 C 0.50588 0.09945 0.66094 0.0
C1010 C 0.55263 0.10102 0.67717 0.0
H1011 H 0.44817 0.12802 0.65737 0.0
H1012 H 0.48622 0.07453 0.63984 0.0
S1013 S 0.63111 0.18268 0.74807 0.0
N1014 N 0.58123 0.19695 0.73984 0.0
N1015 N 0.62231 0.13901 0.72122 0.0
C1016 C 0.57692 0.13411 0.70425 0.0
C1017 C 0.55482 0.16577 0.71402 0.0
C1018 C 0.92288 0.37541 0.67366 0.0
C1019 C 0.93792 0.35465 0.71364 0.0
C1020 C 0.95412 0.39627 0.63995 0.0
C1021 C 1.00272 0.39704 0.64272 0.0
H1022 H 0.88628 0.37596 0.66825 0.0
H1023 H 0.93965 0.41181 0.61096 0.0
S1024 S 0.06293 0.35082 0.74064 0.0
N1025 N 1.00768 0.33946 0.75366 0.0
N1026 N 0.06424 0.37624 0.69104 0.0
C1027 C 1.01834 0.3766 0.68241 0.0
C1028 C 0.98689 0.35625 0.7172 0.0
C1029 C 0.24773 0.65679 0.70836 0.0
C1030 C 0.2406 0.69851 0.71295 0.0
C1031 C 0.22208 0.62801 0.67544 0.0
C1032 C 0.18713 0.63852 0.64395 0.0
H1033 H 0.27335 0.64571 0.73093 0.0
H1034 H 0.22944 0.59676 0.67523 0.0
S1035 S 0.15397 0.74368 0.63986 0.0
N1036 N 0.19469 0.74765 0.68107 0.0
N1037 N 0.14836 0.6961 0.62113 0.0
C1038 C 0.18021 0.6804 0.64821 0.0
C1039 C 0.20604 0.70931 0.68163 0.0
loop_
_geom_bond_atom_site_label_1
_geom_bond_atom_site_label_2
_geom_bond_distance
_geom_bond_site_symmetry_2
_ccdc_geom_bond_type
Tb0 C9 2.764 . S
Tb0 O10 2.325 . S
Tb0 O13 2.303 . S
Tb0 O17 2.322 . S
Tb0 O18 2.349 . S
Tb0 O21 2.415 . S
Tb0 O22 2.399 . S
Tb1 O11 2.322 . S
Tb1 O12 2.349 . S
Tb1 O14 2.415 . S
Tb1 O15 2.399 . S
Tb1 O16 2.325 . S
Tb1 O19 2.303 . S
Tb1 C30 2.764 . S
C2 O18 1.261 . S
C2 O19 1.257 . S
C3 C6 1.358 . S
C3 C7 1.332 . S
C3 C9 1.504 . S
C4 C5 1.373 . S
C4 C8 1.308 . S
C5 C4 1.373 . S
C5 C6 1.429 . S
C5 H32 0.932 . S
C6 C3 1.358 . S
C6 C5 1.429 . S
C6 H33 0.930 . S
C7 C3 1.332 . S
C7 C8 1.394 . S
C7 H34 0.932 . S
C8 C4 1.308 . S
C8 C7 1.394 . S
C8 H35 0.929 . S
C9 Tb0 2.764 . S
C9 C3 1.504 . S
C9 O21 1.239 . S
C9 O22 1.263 . S
O10 Tb0 2.325 . S
O10 C20 1.236 . S
O11 Tb1 2.322 . S
O11 C20 1.257 . S
O12 Tb1 2.349 . S
O12 C23 1.261 . S
O13 Tb0 2.303 . S
O13 C23 1.257 . S
O14 Tb1 2.415 . S
O14 C30 1.239 . S
O15 Tb1 2.399 . S
O15 C30 1.263 . S
O16 Tb1 2.325 . S
O16 C31 1.236 . S
O17 Tb0 2.322 . S
O17 C31 1.257 . S
O18 Tb0 2.349 . S
O18 C2 1.261 . S
O19 Tb1 2.303 . S
O19 C2 1.257 . S
C20 O10 1.236 . S
C20 O11 1.257 . S
O21 Tb0 2.415 . S
O21 C9 1.239 . S
O22 Tb0 2.399 . S
O22 C9 1.263 . S
C23 O12 1.261 . S
C23 O13 1.257 . S
C24 C27 1.358 . S
C24 C28 1.332 . S
C24 C30 1.504 . S
C25 C26 1.373 . S
C25 C29 1.308 . S
C26 C25 1.373 . S
C26 C27 1.429 . S
C26 H36 0.932 . S
C27 C24 1.358 . S
C27 C26 1.429 . S
C27 H37 0.930 . S
C28 C24 1.332 . S
C28 C29 1.394 . S
C28 H38 0.932 . S
C29 C25 1.308 . S
C29 C28 1.394 . S
C29 H39 0.929 . S
C30 Tb1 2.764 . S
C30 O14 1.239 . S
C30 O15 1.263 . S
C30 C24 1.504 . S
C31 O16 1.236 . S
C31 O17 1.257 . S
H32 C5 0.932 . S
H33 C6 0.930 . S
H34 C7 0.932 . S
H35 C8 0.929 . S
H36 C26 0.932 . S
H37 C27 0.930 . S
H38 C28 0.932 . S
H39 C29 0.929 . S
Tb40 C49 2.764 . S
Tb40 O50 2.325 . S
Tb40 O53 2.303 . S
Tb40 O57 2.322 . S
Tb40 O58 2.349 . S
Tb40 O61 2.415 . S
Tb40 O62 2.399 . S
Tb41 O51 2.322 . S
Tb41 O52 2.349 . S
Tb41 O54 2.415 . S
Tb41 O55 2.399 . S
Tb41 O56 2.325 . S
Tb41 O59 2.303 . S
Tb41 C70 2.764 . S
C42 O58 1.261 . S
C42 O59 1.257 . S
C43 C46 1.358 . S
C43 C47 1.332 . S
C43 C49 1.504 . S
C44 C45 1.373 . S
C44 C48 1.308 . S
C45 C44 1.373 . S
C45 C46 1.429 . S
C45 H72 0.932 . S
C46 C43 1.358 . S
C46 C45 1.429 . S
C46 H73 0.930 . S
C47 C43 1.332 . S
C47 C48 1.394 . S
C47 H74 0.932 . S
C48 C44 1.308 . S
C48 C47 1.394 . S
C48 H75 0.929 . S
C49 Tb40 2.764 . S
C49 C43 1.504 . S
C49 O61 1.239 . S
C49 O62 1.263 . S
O50 Tb40 2.325 . S
O50 C60 1.236 . S
O51 Tb41 2.322 . S
O51 C60 1.257 . S
O52 Tb41 2.349 . S
O52 C63 1.261 . S
O53 Tb40 2.303 . S
O53 C63 1.257 . S
O54 Tb41 2.415 . S
O54 C70 1.239 . S
O55 Tb41 2.399 . S
O55 C70 1.263 . S
O56 Tb41 2.325 . S
O56 C71 1.236 . S
O57 Tb40 2.322 . S
O57 C71 1.257 . S
O58 Tb40 2.349 . S
O58 C42 1.261 . S
O59 Tb41 2.303 . S
O59 C42 1.257 . S
C60 O50 1.236 . S
C60 O51 1.257 . S
O61 Tb40 2.415 . S
O61 C49 1.239 . S
O62 Tb40 2.399 . S
O62 C49 1.263 . S
C63 O52 1.261 . S
C63 O53 1.257 . S
C64 C67 1.358 . S
C64 C68 1.332 . S
C64 C70 1.504 . S
C65 C66 1.373 . S
C65 C69 1.308 . S
C66 C65 1.373 . S
C66 C67 1.429 . S
C66 H76 0.932 . S
C67 C64 1.358 . S
C67 C66 1.429 . S
C67 H77 0.930 . S
C68 C64 1.332 . S
C68 C69 1.394 . S
C68 H78 0.932 . S
C69 C65 1.308 . S
C69 C68 1.394 . S
C69 H79 0.929 . S
C70 Tb41 2.764 . S
C70 O54 1.239 . S
C70 O55 1.263 . S
C70 C64 1.504 . S
C71 O56 1.236 . S
C71 O57 1.257 . S
H72 C45 0.932 . S
H73 C46 0.930 . S
H74 C47 0.932 . S
H75 C48 0.929 . S
H76 C66 0.932 . S
H77 C67 0.930 . S
H78 C68 0.932 . S
H79 C69 0.929 . S
Tb80 C89 2.764 . S
Tb80 O90 2.325 . S
Tb80 O93 2.303 . S
Tb80 O97 2.322 . S
Tb80 O98 2.349 . S
Tb80 O101 2.415 . S
Tb80 O102 2.399 . S
Tb81 O91 2.322 . S
Tb81 O92 2.349 . S
Tb81 O94 2.415 . S
Tb81 O95 2.399 . S
Tb81 O96 2.325 . S
Tb81 O99 2.303 . S
Tb81 C110 2.764 . S
C82 O98 1.261 . S
C82 O99 1.257 . S
C83 C86 1.358 . S
C83 C87 1.332 . S
C83 C89 1.504 . S
C84 C85 1.373 . S
C84 C88 1.308 . S
C85 C84 1.373 . S
C85 C86 1.429 . S
C85 H112 0.932 . S
C86 C83 1.358 . S
C86 C85 1.429 . S
C86 H113 0.930 . S
C87 C83 1.332 . S
C87 C88 1.394 . S
C87 H114 0.932 . S
C88 C84 1.308 . S
C88 C87 1.394 . S
C88 H115 0.929 . S
C89 Tb80 2.764 . S
C89 C83 1.504 . S
C89 O101 1.239 . S
C89 O102 1.263 . S
O90 Tb80 2.325 . S
O90 C100 1.236 . S
O91 Tb81 2.322 . S
O91 C100 1.257 . S
O92 Tb81 2.349 . S
O92 C103 1.261 . S
O93 Tb80 2.303 . S
O93 C103 1.257 . S
O94 Tb81 2.415 . S
O94 C110 1.239 . S
O95 Tb81 2.399 . S
O95 C110 1.263 . S
O96 Tb81 2.325 . S
O96 C111 1.236 . S
O97 Tb80 2.322 . S
O97 C111 1.257 . S
O98 Tb80 2.349 . S
O98 C82 1.261 . S
O99 Tb81 2.303 . S
O99 C82 1.257 . S
C100 O90 1.236 . S
C100 O91 1.257 . S
O101 Tb80 2.415 . S
O101 C89 1.239 . S
O102 Tb80 2.399 . S
O102 C89 1.263 . S
C103 O92 1.261 . S
C103 O93 1.257 . S
C104 C107 1.358 . S
C104 C108 1.332 . S
C104 C110 1.504 . S
C105 C106 1.373 . S
C105 C109 1.308 . S
C106 C105 1.373 . S
C106 C107 1.429 . S
C106 H116 0.932 . S
C107 C104 1.358 . S
C107 C106 1.429 . S
C107 H117 0.930 . S
C108 C104 1.332 . S
C108 C109 1.394 . S
C108 H118 0.932 . S
C109 C105 1.308 . S
C109 C108 1.394 . S
C109 H119 0.929 . S
C110 Tb81 2.764 . S
C110 O94 1.239 . S
C110 O95 1.263 . S
C110 C104 1.504 . S
C111 O96 1.236 . S
C111 O97 1.257 . S
H112 C85 0.932 . S
H113 C86 0.930 . S
H114 C87 0.932 . S
H115 C88 0.929 . S
H116 C106 0.932 . S
H117 C107 0.930 . S
H118 C108 0.932 . S
H119 C109 0.929 . S
Tb120 C129 2.764 . S
Tb120 O130 2.325 . S
Tb120 O133 2.303 . S
Tb120 O137 2.322 . S
Tb120 O138 2.349 . S
Tb120 O141 2.415 . S
Tb120 O142 2.399 . S
Tb121 O131 2.322 . S
Tb121 O132 2.349 . S
Tb121 O134 2.415 . S
Tb121 O135 2.399 . S
Tb121 O136 2.325 . S
Tb121 O139 2.303 . S
Tb121 C150 2.764 . S
C122 O138 1.261 . S
C122 O139 1.257 . S
C123 C126 1.358 . S
C123 C127 1.332 . S
C123 C129 1.504 . S
C124 C125 1.373 . S
C124 C128 1.308 . S
C125 C124 1.373 . S
C125 C126 1.429 . S
C125 H152 0.932 . S
C126 C123 1.358 . S
C126 C125 1.429 . S
C126 H153 0.930 . S
C127 C123 1.332 . S
C127 C128 1.394 . S
C127 H154 0.932 . S
C128 C124 1.308 . S
C128 C127 1.394 . S
C128 H155 0.929 . S
C129 Tb120 2.764 . S
C129 C123 1.504 . S
C129 O141 1.239 . S
C129 O142 1.263 . S
O130 Tb120 2.325 . S
O130 C140 1.236 . S
O131 Tb121 2.322 . S
O131 C140 1.257 . S
O132 Tb121 2.349 . S
O132 C143 1.261 . S
O133 Tb120 2.303 . S
O133 C143 1.257 . S
O134 Tb121 2.415 . S
O134 C150 1.239 . S
O135 Tb121 2.399 . S
O135 C150 1.263 . S
O136 Tb121 2.325 . S
O136 C151 1.236 . S
O137 Tb120 2.322 . S
O137 C151 1.257 . S
O138 Tb120 2.349 . S
O138 C122 1.261 . S
O139 Tb121 2.303 . S
O139 C122 1.257 . S
C140 O130 1.236 . S
C140 O131 1.257 . S
O141 Tb120 2.415 . S
O141 C129 1.239 . S
O142 Tb120 2.399 . S
O142 C129 1.263 . S
C143 O132 1.261 . S
C143 O133 1.257 . S
C144 C147 1.358 . S
C144 C148 1.332 . S
C144 C150 1.504 . S
C145 C146 1.373 . S
C145 C149 1.308 . S
C146 C145 1.373 . S
C146 C147 1.429 . S
C146 H156 0.932 . S
C147 C144 1.358 . S
C147 C146 1.429 . S
C147 H157 0.930 . S
C148 C144 1.332 . S
C148 C149 1.394 . S
C148 H158 0.932 . S
C149 C145 1.308 . S
C149 C148 1.394 . S
C149 H159 0.929 . S
C150 Tb121 2.764 . S
C150 O134 1.239 . S
C150 O135 1.263 . S
C150 C144 1.504 . S
C151 O136 1.236 . S
C151 O137 1.257 . S
H152 C125 0.932 . S
H153 C126 0.930 . S
H154 C127 0.932 . S
H155 C128 0.929 . S
H156 C146 0.932 . S
H157 C147 0.930 . S
H158 C148 0.932 . S
H159 C149 0.929 . S
Tb160 C169 2.764 . S
Tb160 O170 2.325 . S
Tb160 O173 2.303 . S
Tb160 O177 2.322 . S
Tb160 O178 2.349 . S
Tb160 O181 2.415 . S
Tb160 O182 2.399 . S
Tb161 O171 2.322 . S
Tb161 O172 2.349 . S
Tb161 O174 2.415 . S
Tb161 O175 2.399 . S
Tb161 O176 2.325 . S
Tb161 O179 2.303 . S
Tb161 C190 2.764 . S
C162 O178 1.261 . S
C162 O179 1.257 . S
C163 C166 1.358 . S
C163 C167 1.332 . S
C163 C169 1.504 . S
C164 C165 1.373 . S
C164 C168 1.308 . S
C165 C164 1.373 . S
C165 C166 1.429 . S
C165 H192 0.932 . S
C166 C163 1.358 . S
C166 C165 1.429 . S
C166 H193 0.930 . S
C167 C163 1.332 . S
C167 C168 1.394 . S
C167 H194 0.932 . S
C168 C164 1.308 . S
C168 C167 1.394 . S
C168 H195 0.929 . S
C169 Tb160 2.764 . S
C169 C163 1.504 . S
C169 O181 1.239 . S
C169 O182 1.263 . S
O170 Tb160 2.325 . S
O170 C180 1.236 . S
O171 Tb161 2.322 . S
O171 C180 1.257 . S
O172 Tb161 2.349 . S
O172 C183 1.261 . S
O173 Tb160 2.303 . S
O173 C183 1.257 . S
O174 Tb161 2.415 . S
O174 C190 1.239 . S
O175 Tb161 2.399 . S
O175 C190 1.263 . S
O176 Tb161 2.325 . S
O176 C191 1.236 . S
O177 Tb160 2.322 . S
O177 C191 1.257 . S
O178 Tb160 2.349 . S
O178 C162 1.261 . S
O179 Tb161 2.303 . S
O179 C162 1.257 . S
C180 O170 1.236 . S
C180 O171 1.257 . S
O181 Tb160 2.415 . S
O181 C169 1.239 . S
O182 Tb160 2.399 . S
O182 C169 1.263 . S
C183 O172 1.261 . S
C183 O173 1.257 . S
C184 C187 1.358 . S
C184 C188 1.332 . S
C184 C190 1.504 . S
C185 C186 1.373 . S
C185 C189 1.308 . S
C186 C185 1.373 . S
C186 C187 1.429 . S
C186 H196 0.932 . S
C187 C184 1.358 . S
C187 C186 1.429 . S
C187 H197 0.930 . S
C188 C184 1.332 . S
C188 C189 1.394 . S
C188 H198 0.932 . S
C189 C185 1.308 . S
C189 C188 1.394 . S
C189 H199 0.929 . S
C190 Tb161 2.764 . S
C190 O174 1.239 . S
C190 O175 1.263 . S
C190 C184 1.504 . S
C191 O176 1.236 . S
C191 O177 1.257 . S
H192 C165 0.932 . S
H193 C166 0.930 . S
H194 C167 0.932 . S
H195 C168 0.929 . S
H196 C186 0.932 . S
H197 C187 0.930 . S
H198 C188 0.932 . S
H199 C189 0.929 . S
Tb200 C209 2.764 . S
Tb200 O210 2.325 . S
Tb200 O213 2.303 . S
Tb200 O217 2.322 . S
Tb200 O218 2.349 . S
Tb200 O221 2.415 . S
Tb200 O222 2.399 . S
Tb201 O211 2.322 . S
Tb201 O212 2.349 . S
Tb201 O214 2.415 . S
Tb201 O215 2.399 . S
Tb201 O216 2.325 . S
Tb201 O219 2.303 . S
Tb201 C230 2.764 . S
C202 O218 1.261 . S
C202 O219 1.257 . S
C203 C206 1.358 . S
C203 C207 1.332 . S
C203 C209 1.504 . S
C204 C205 1.373 . S
C204 C208 1.308 . S
C205 C204 1.373 . S
C205 C206 1.429 . S
C205 H232 0.932 . S
C206 C203 1.358 . S
C206 C205 1.429 . S
C206 H233 0.930 . S
C207 C203 1.332 . S
C207 C208 1.394 . S
C207 H234 0.932 . S
C208 C204 1.308 . S
C208 C207 1.394 . S
C208 H235 0.929 . S
C209 Tb200 2.764 . S
C209 C203 1.504 . S
C209 O221 1.239 . S
C209 O222 1.263 . S
O210 Tb200 2.325 . S
O210 C220 1.236 . S
O211 Tb201 2.322 . S
O211 C220 1.257 . S
O212 Tb201 2.349 . S
O212 C223 1.261 . S
O213 Tb200 2.303 . S
O213 C223 1.257 . S
O214 Tb201 2.415 . S
O214 C230 1.239 . S
O215 Tb201 2.399 . S
O215 C230 1.263 . S
O216 Tb201 2.325 . S
O216 C231 1.236 . S
O217 Tb200 2.322 . S
O217 C231 1.257 . S
O218 Tb200 2.349 . S
O218 C202 1.261 . S
O219 Tb201 2.303 . S
O219 C202 1.257 . S
C220 O210 1.236 . S
C220 O211 1.257 . S
O221 Tb200 2.415 . S
O221 C209 1.239 . S
O222 Tb200 2.399 . S
O222 C209 1.263 . S
C223 O212 1.261 . S
C223 O213 1.257 . S
C224 C227 1.358 . S
C224 C228 1.332 . S
C224 C230 1.504 . S
C225 C226 1.373 . S
C225 C229 1.308 . S
C226 C225 1.373 . S
C226 C227 1.429 . S
C226 H236 0.932 . S
C227 C224 1.358 . S
C227 C226 1.429 . S
C227 H237 0.930 . S
C228 C224 1.332 . S
C228 C229 1.394 . S
C228 H238 0.932 . S
C229 C225 1.308 . S
C229 C228 1.394 . S
C229 H239 0.929 . S
C230 Tb201 2.764 . S
C230 O214 1.239 . S
C230 O215 1.263 . S
C230 C224 1.504 . S
C231 O216 1.236 . S
C231 O217 1.257 . S
H232 C205 0.932 . S
H233 C206 0.930 . S
H234 C207 0.932 . S
H235 C208 0.929 . S
H236 C226 0.932 . S
H237 C227 0.930 . S
H238 C228 0.932 . S
H239 C229 0.929 . S
Tb240 C249 2.764 . S
Tb240 O250 2.325 . S
Tb240 O253 2.303 . S
Tb240 O257 2.322 . S
Tb240 O258 2.349 . S
Tb240 O261 2.415 . S
Tb240 O262 2.399 . S
Tb241 O251 2.322 . S
Tb241 O252 2.349 . S
Tb241 O254 2.415 . S
Tb241 O255 2.399 . S
Tb241 O256 2.325 . S
Tb241 O259 2.303 . S
Tb241 C270 2.764 . S
C242 O258 1.261 . S
C242 O259 1.257 . S
C243 C246 1.358 . S
C243 C247 1.332 . S
C243 C249 1.504 . S
C244 C245 1.373 . S
C244 C248 1.308 . S
C245 C244 1.373 . S
C245 C246 1.429 . S
C245 H272 0.932 . S
C246 C243 1.358 . S
C246 C245 1.429 . S
C246 H273 0.930 . S
C247 C243 1.332 . S
C247 C248 1.394 . S
C247 H274 0.932 . S
C248 C244 1.308 . S
C248 C247 1.394 . S
C248 H275 0.929 . S
C249 Tb240 2.764 . S
C249 C243 1.504 . S
C249 O261 1.239 . S
C249 O262 1.263 . S
O250 Tb240 2.325 . S
O250 C260 1.236 . S
O251 Tb241 2.322 . S
O251 C260 1.257 . S
O252 Tb241 2.349 . S
O252 C263 1.261 . S
O253 Tb240 2.303 . S
O253 C263 1.257 . S
O254 Tb241 2.415 . S
O254 C270 1.239 . S
O255 Tb241 2.399 . S
O255 C270 1.263 . S
O256 Tb241 2.325 . S
O256 C271 1.236 . S
O257 Tb240 2.322 . S
O257 C271 1.257 . S
O258 Tb240 2.349 . S
O258 C242 1.261 . S
O259 Tb241 2.303 . S
O259 C242 1.257 . S
C260 O250 1.236 . S
C260 O251 1.257 . S
O261 Tb240 2.415 . S
O261 C249 1.239 . S
O262 Tb240 2.399 . S
O262 C249 1.263 . S
C263 O252 1.261 . S
C263 O253 1.257 . S
C264 C267 1.358 . S
C264 C268 1.332 . S
C264 C270 1.504 . S
C265 C266 1.373 . S
C265 C269 1.308 . S
C266 C265 1.373 . S
C266 C267 1.429 . S
C266 H276 0.932 . S
C267 C264 1.358 . S
C267 C266 1.429 . S
C267 H277 0.930 . S
C268 C264 1.332 . S
C268 C269 1.394 . S
C268 H278 0.932 . S
C269 C265 1.308 . S
C269 C268 1.394 . S
C269 H279 0.929 . S
C270 Tb241 2.764 . S
C270 O254 1.239 . S
C270 O255 1.263 . S
C270 C264 1.504 . S
C271 O256 1.236 . S
C271 O257 1.257 . S
H272 C245 0.932 . S
H273 C246 0.930 . S
H274 C247 0.932 . S
H275 C248 0.929 . S
H276 C266 0.932 . S
H277 C267 0.930 . S
H278 C268 0.932 . S
H279 C269 0.929 . S
Tb280 C289 2.764 . S
Tb280 O290 2.325 . S
Tb280 O293 2.303 . S
Tb280 O297 2.322 . S
Tb280 O298 2.349 . S
Tb280 O301 2.415 . S
Tb280 O302 2.399 . S
Tb281 O291 2.322 . S
Tb281 O292 2.349 . S
Tb281 O294 2.415 . S
Tb281 O295 2.399 . S
Tb281 O296 2.325 . S
Tb281 O299 2.303 . S
Tb281 C310 2.764 . S
C282 O298 1.261 . S
C282 O299 1.257 . S
C283 C286 1.358 . S
C283 C287 1.332 . S
C283 C289 1.504 . S
C284 C285 1.373 . S
C284 C288 1.308 . S
C285 C284 1.373 . S
C285 C286 1.429 . S
C285 H312 0.932 . S
C286 C283 1.358 . S
C286 C285 1.429 . S
C286 H313 0.930 . S
C287 C283 1.332 . S
C287 C288 1.394 . S
C287 H314 0.932 . S
C288 C284 1.308 . S
C288 C287 1.394 . S
C288 H315 0.929 . S
C289 Tb280 2.764 . S
C289 C283 1.504 . S
C289 O301 1.239 . S
C289 O302 1.263 . S
O290 Tb280 2.325 . S
O290 C300 1.236 . S
O291 Tb281 2.322 . S
O291 C300 1.257 . S
O292 Tb281 2.349 . S
O292 C303 1.261 . S
O293 Tb280 2.303 . S
O293 C303 1.257 . S
O294 Tb281 2.415 . S
O294 C310 1.239 . S
O295 Tb281 2.399 . S
O295 C310 1.263 . S
O296 Tb281 2.325 . S
O296 C311 1.236 . S
O297 Tb280 2.322 . S
O297 C311 1.257 . S
O298 Tb280 2.349 . S
O298 C282 1.261 . S
O299 Tb281 2.303 . S
O299 C282 1.257 . S
C300 O290 1.236 . S
C300 O291 1.257 . S
O301 Tb280 2.415 . S
O301 C289 1.239 . S
O302 Tb280 2.399 . S
O302 C289 1.263 . S
C303 O292 1.261 . S
C303 O293 1.257 . S
C304 C307 1.358 . S
C304 C308 1.332 . S
C304 C310 1.504 . S
C305 C306 1.373 . S
C305 C309 1.308 . S
C306 C305 1.373 . S
C306 C307 1.429 . S
C306 H316 0.932 . S
C307 C304 1.358 . S
C307 C306 1.429 . S
C307 H317 0.930 . S
C308 C304 1.332 . S
C308 C309 1.394 . S
C308 H318 0.932 . S
C309 C305 1.308 . S
C309 C308 1.394 . S
C309 H319 0.929 . S
C310 Tb281 2.764 . S
C310 O294 1.239 . S
C310 O295 1.263 . S
C310 C304 1.504 . S
C311 O296 1.236 . S
C311 O297 1.257 . S
H312 C285 0.932 . S
H313 C286 0.930 . S
H314 C287 0.932 . S
H315 C288 0.929 . S
H316 C306 0.932 . S
H317 C307 0.930 . S
H318 C308 0.932 . S
H319 C309 0.929 . S
Fe320 O321 1.886 1_455 S
Fe320 O324 1.715 . S
Fe320 O329 2.077 1_455 S
Fe320 O334 1.935 . S
Fe320 O340 2.077 1_455 S
Fe320 O349 1.935 . S
O321 Fe320 1.886 1_655 S
O321 Fe323 1.715 . S
Fe322 O324 1.886 . S
Fe322 O325 1.715 1_545 S
Fe322 O332 1.935 . S
Fe322 O333 2.077 . S
Fe322 O339 1.935 . S
Fe322 O348 2.077 . S
Fe323 O321 1.715 . S
Fe323 O326 1.886 1_545 S
Fe323 O330 1.935 . S
Fe323 O335 2.077 1_545 S
Fe323 O341 1.935 . S
Fe323 O345 2.077 1_545 S
O324 Fe320 1.715 . S
O324 Fe322 1.886 . S
O325 Fe322 1.715 1_565 S
O325 Fe327 1.886 . S
O326 Fe323 1.886 1_565 S
O326 Fe327 1.715 1_655 S
Fe327 O325 1.886 . S
Fe327 O326 1.715 1_455 S
Fe327 O331 2.077 . S
Fe327 O336 1.935 1_455 S
Fe327 O338 2.077 . S
Fe327 O346 1.935 1_455 S
C328 O340 1.381 . S
C328 O341 1.421 . S
O329 Fe320 2.077 1_655 S
O329 C342 1.381 . S
O330 Fe323 1.935 . S
O330 C342 1.421 . S
O331 Fe327 2.077 . S
O331 C347 1.381 . S
O332 Fe322 1.935 . S
O332 C347 1.421 1_545 S
O333 Fe322 2.077 . S
O333 C337 1.381 . S
O334 Fe320 1.935 . S
O334 C337 1.421 . S
O335 Fe323 2.077 1_565 S
O335 C343 1.381 . S
O336 Fe327 1.935 1_655 S
O336 C343 1.421 . S
C337 O333 1.381 . S
C337 O334 1.421 . S
O338 Fe327 2.077 . S
O338 C350 1.381 . S
O339 Fe322 1.935 . S
O339 C350 1.421 1_545 S
O340 Fe320 2.077 1_655 S
O340 C328 1.381 . S
O341 Fe323 1.935 . S
O341 C328 1.421 . S
C342 O329 1.381 . S
C342 O330 1.421 . S
C343 O335 1.381 . S
C343 O336 1.421 . S
C344 O345 1.381 . S
C344 O346 1.421 . S
O345 Fe323 2.077 1_565 S
O345 C344 1.381 . S
O346 Fe327 1.935 1_655 S
O346 C344 1.421 . S
C347 O331 1.381 . S
C347 O332 1.421 1_565 S
O348 Fe322 2.077 . S
O348 C351 1.381 . S
O349 Fe320 1.935 . S
O349 C351 1.421 . S
C350 O338 1.381 . S
C350 O339 1.421 1_565 S
C351 O348 1.381 . S
C351 O349 1.421 . S
Fe352 O353 1.886 1_565 S
Fe352 O356 1.715 . S
Fe352 O361 2.077 . S
Fe352 O366 1.935 . S
Fe352 O372 2.077 . S
Fe352 O381 1.935 . S
O353 Fe352 1.886 1_545 S
O353 Fe355 1.715 . S
Fe354 O356 1.886 1_545 S
Fe354 O357 1.715 . S
Fe354 O364 1.935 . S
Fe354 O365 2.077 1_545 S
Fe354 O371 1.935 . S
Fe354 O380 2.077 1_545 S
Fe355 O353 1.715 . S
Fe355 O358 1.886 . S
Fe355 O362 1.935 . S
Fe355 O367 2.077 . S
Fe355 O373 1.935 . S
Fe355 O377 2.077 . S
O356 Fe352 1.715 . S
O356 Fe354 1.886 1_565 S
O357 Fe354 1.715 . S
O357 Fe359 1.886 . S
O358 Fe355 1.886 . S
O358 Fe359 1.715 . S
Fe359 O357 1.886 . S
Fe359 O358 1.715 . S
Fe359 O363 2.077 . S
Fe359 O368 1.935 . S
Fe359 O370 2.077 . S
Fe359 O378 1.935 . S
C360 O372 1.381 . S
C360 O373 1.421 1_565 S
O361 Fe352 2.077 . S
O361 C374 1.382 . S
O362 Fe355 1.935 . S
O362 C374 1.421 1_545 S
O363 Fe359 2.077 . S
O363 C379 1.381 1_554 S
O364 Fe354 1.935 . S
O364 C379 1.421 1_554 S
O365 Fe354 2.077 1_565 S
O365 C369 1.381 1_554 S
O366 Fe352 1.935 . S
O366 C369 1.421 1_554 S
O367 Fe355 2.077 . S
O367 C375 1.381 1_554 S
O368 Fe359 1.935 . S
O368 C375 1.421 1_554 S
C369 O365 1.381 1_556 S
C369 O366 1.421 1_556 S
O370 Fe359 2.077 . S
O370 C382 1.381 . S
O371 Fe354 1.935 . S
O371 C382 1.421 . S
O372 Fe352 2.077 . S
O372 C360 1.381 . S
O373 Fe355 1.935 . S
O373 C360 1.421 1_545 S
C374 O361 1.382 . S
C374 O362 1.421 1_565 S
C375 O367 1.381 1_556 S
C375 O368 1.421 1_556 S
C376 O377 1.381 . S
C376 O378 1.421 . S
O377 Fe355 2.077 . S
O377 C376 1.381 . S
O378 Fe359 1.935 . S
O378 C376 1.421 . S
C379 O363 1.381 1_556 S
C379 O364 1.421 1_556 S
O380 Fe354 2.077 1_565 S
O380 C383 1.381 . S
O381 Fe352 1.935 . S
O381 C383 1.421 . S
C382 O370 1.381 . S
C382 O371 1.421 . S
C383 O380 1.381 . S
C383 O381 1.421 . S
Fe384 O385 1.886 1_455 S
Fe384 O388 1.715 1_556 S
Fe384 O393 2.077 1_455 S
Fe384 O398 1.935 . S
Fe384 O404 2.077 1_456 S
Fe384 O413 1.935 1_556 S
O385 Fe384 1.886 1_655 S
O385 Fe387 1.715 . S
Fe386 O388 1.886 . S
Fe386 O389 1.715 . S
Fe386 O396 1.935 1_554 S
Fe386 O397 2.077 1_554 S
Fe386 O403 1.935 . S
Fe386 O412 2.077 . S
Fe387 O385 1.715 . S
Fe387 O390 1.886 1_556 S
Fe387 O394 1.935 . S
Fe387 O399 2.077 . S
Fe387 O405 1.935 1_556 S
Fe387 O409 2.077 1_556 S
O388 Fe384 1.715 1_554 S
O388 Fe386 1.886 . S
O389 Fe386 1.715 . S
O389 Fe391 1.886 1_455 S
O390 Fe387 1.886 1_554 S
O390 Fe391 1.715 . S
Fe391 O389 1.886 1_655 S
Fe391 O390 1.715 . S
Fe391 O395 2.077 1_654 S
Fe391 O400 1.935 1_554 S
Fe391 O402 2.077 1_655 S
Fe391 O410 1.935 . S
C392 O404 1.381 . S
C392 O405 1.421 . S
O393 Fe384 2.077 1_655 S
O393 C406 1.381 . S
O394 Fe387 1.935 . S
O394 C406 1.421 . S
O395 Fe391 2.077 1_456 S
O395 C411 1.381 . S
O396 Fe386 1.935 1_556 S
O396 C411 1.421 . S
O397 Fe386 2.077 1_556 S
O397 C401 1.381 . S
O398 Fe384 1.935 . S
O398 C401 1.421 . S
O399 Fe387 2.077 . S
O399 C407 1.381 . S
O400 Fe391 1.935 1_556 S
O400 C407 1.421 . S
C401 O397 1.381 . S
C401 O398 1.421 . S
O402 Fe391 2.077 1_455 S
O402 C414 1.381 . S
O403 Fe386 1.935 . S
O403 C414 1.421 . S
O404 Fe384 2.077 1_654 S
O404 C392 1.381 . S
O405 Fe387 1.935 1_554 S
O405 C392 1.421 . S
C406 O393 1.381 . S
C406 O394 1.421 . S
C407 O399 1.381 . S
C407 O400 1.421 . S
C408 O409 1.381 . S
C408 O410 1.421 . S
O409 Fe387 2.077 1_554 S
O409 C408 1.381 . S
O410 Fe391 1.935 . S
O410 C408 1.421 . S
C411 O395 1.381 . S
C411 O396 1.421 . S
O412 Fe386 2.077 . S
O412 C415 1.381 . S
O413 Fe384 1.935 1_554 S
O413 C415 1.421 . S
C414 O402 1.381 . S
C414 O403 1.421 . S
C415 O412 1.381 . S
C415 O413 1.421 . S
Fe416 O417 1.886 . S
Fe416 O420 1.715 . S
Fe416 O425 2.077 . S
Fe416 O430 1.935 . S
Fe416 O436 2.077 . S
Fe416 O445 1.935 . S
O417 Fe416 1.886 . S
O417 Fe419 1.715 1_556 S
Fe418 O420 1.886 1_554 S
Fe418 O421 1.715 . S
Fe418 O428 1.935 . S
Fe418 O429 2.077 1_554 S
Fe418 O435 1.935 . S
Fe418 O444 2.077 1_554 S
Fe419 O417 1.715 1_554 S
Fe419 O422 1.886 . S
Fe419 O426 1.944 . S
Fe419 O431 2.077 . S
Fe419 O437 1.935 . S
Fe419 O441 2.077 . S
O420 Fe416 1.715 . S
O420 Fe418 1.886 1_556 S
O421 Fe418 1.715 . S
O421 Fe423 1.886 . S
O422 Fe419 1.886 . S
O422 Fe423 1.715 . S
Fe423 O421 1.886 . S
Fe423 O422 1.715 . S
Fe423 O427 2.077 . S
Fe423 O432 1.935 . S
Fe423 O434 2.077 . S
Fe423 O442 1.935 . S
C424 O436 1.381 . S
C424 O437 1.421 1_556 S
O425 Fe416 2.077 . S
O425 C438 1.381 . S
O426 Fe419 1.944 . S
O426 C438 1.405 1_554 S
O427 Fe423 2.077 . S
O427 C443 1.381 . S
O428 Fe418 1.935 . S
O428 C443 1.421 . S
O429 Fe418 2.077 1_556 S
O429 C433 1.381 . S
O430 Fe416 1.935 . S
O430 C433 1.421 . S
O431 Fe419 2.077 . S
O431 C439 1.381 . S
O432 Fe423 1.935 . S
O432 C439 1.421 . S
C433 O429 1.381 . S
C433 O430 1.421 . S
O434 Fe423 2.077 . S
O434 C446 1.381 . S
O435 Fe418 1.935 . S
O435 C446 1.421 . S
O436 Fe416 2.077 . S
O436 C424 1.381 . S
O437 Fe419 1.935 . S
O437 C424 1.421 1_554 S
C438 O425 1.381 . S
C438 O426 1.405 1_556 S
C439 O431 1.381 . S
C439 O432 1.421 . S
C440 O441 1.381 . S
C440 O442 1.421 . S
O441 Fe419 2.077 . S
O441 C440 1.381 . S
O442 Fe423 1.935 . S
O442 C440 1.421 . S
C443 O427 1.381 . S
C443 O428 1.421 . S
O444 Fe418 2.077 1_556 S
O444 C447 1.381 . S
O445 Fe416 1.935 . S
O445 C447 1.421 . S
C446 O434 1.381 . S
C446 O435 1.421 . S
C447 O444 1.381 . S
C447 O445 1.421 . S
Fe448 O449 1.886 . S
Fe448 O452 1.715 . S
Fe448 O457 2.077 . S
Fe448 O462 1.935 . S
Fe448 O468 2.077 1_455 S
Fe448 O477 1.935 1_455 S
O449 Fe448 1.886 . S
O449 Fe451 1.715 . S
Fe450 O452 1.886 . S
Fe450 O453 1.715 . S
Fe450 O460 1.935 . S
Fe450 O461 2.077 . S
Fe450 O467 1.935 1_455 S
Fe450 O476 2.077 1_455 S
Fe451 O449 1.715 . S
Fe451 O454 1.886 . S
Fe451 O458 1.935 . S
Fe451 O463 2.077 . S
Fe451 O469 1.935 1_455 S
Fe451 O473 2.077 . S
O452 Fe448 1.715 . S
O452 Fe450 1.886 . S
O453 Fe450 1.715 . S
O453 Fe455 1.886 . S
O454 Fe451 1.886 . S
O454 Fe455 1.715 . S
Fe455 O453 1.886 . S
Fe455 O454 1.715 . S
Fe455 O459 2.077 . S
Fe455 O464 1.935 . S
Fe455 O466 2.077 . S
Fe455 O474 1.935 . S
C456 O468 1.381 . S
C456 O469 1.421 . S
O457 Fe448 2.077 . S
O457 C470 1.381 . S
O458 Fe451 1.935 . S
O458 C470 1.421 . S
O459 Fe455 2.077 . S
O459 C475 1.381 . S
O460 Fe450 1.935 . S
O460 C475 1.421 . S
O461 Fe450 2.077 . S
O461 C465 1.381 . S
O462 Fe448 1.935 . S
O462 C465 1.421 . S
O463 Fe451 2.077 . S
O463 C471 1.381 . S
O464 Fe455 1.935 . S
O464 C471 1.421 . S
C465 O461 1.381 . S
C465 O462 1.421 . S
O466 Fe455 2.077 . S
O466 C478 1.381 1_455 S
O467 Fe450 1.935 1_655 S
O467 C478 1.421 . S
O468 Fe448 2.077 1_655 S
O468 C456 1.381 . S
O469 Fe451 1.935 1_655 S
O469 C456 1.421 . S
C470 O457 1.381 . S
C470 O458 1.421 . S
C471 O463 1.381 . S
C471 O464 1.421 . S
C472 O473 1.381 1_655 S
C472 O474 1.421 1_655 S
O473 Fe451 2.077 . S
O473 C472 1.381 1_455 S
O474 Fe455 1.935 . S
O474 C472 1.421 1_455 S
C475 O459 1.381 . S
C475 O460 1.421 . S
O476 Fe450 2.077 1_655 S
O476 C479 1.381 . S
O477 Fe448 1.935 1_655 S
O477 C479 1.421 . S
C478 O466 1.381 1_655 S
C478 O467 1.421 . S
C479 O476 1.381 . S
C479 O477 1.421 . S
Fe480 O481 1.886 . S
Fe480 O484 1.715 . S
Fe480 O489 2.077 . S
Fe480 O494 1.935 . S
Fe480 O500 2.077 . S
Fe480 O509 1.935 . S
O481 Fe480 1.886 . S
O481 Fe483 1.715 1_565 S
Fe482 O484 1.886 1_545 S
Fe482 O485 1.715 . S
Fe482 O492 1.935 . S
Fe482 O493 2.077 1_545 S
Fe482 O499 1.935 . S
Fe482 O508 2.077 1_545 S
Fe483 O481 1.715 1_545 S
Fe483 O486 1.886 . S
Fe483 O490 1.935 1_545 S
Fe483 O495 2.077 . S
Fe483 O501 1.935 1_545 S
Fe483 O505 2.077 . S
O484 Fe480 1.715 . S
O484 Fe482 1.886 1_565 S
O485 Fe482 1.715 . S
O485 Fe487 1.886 . S
O486 Fe483 1.886 . S
O486 Fe487 1.715 . S
Fe487 O485 1.886 . S
Fe487 O486 1.715 . S
Fe487 O491 2.077 . S
Fe487 O496 1.935 . S
Fe487 O498 2.077 . S
Fe487 O506 1.935 . S
C488 O500 1.381 . S
C488 O501 1.421 . S
O489 Fe480 2.077 . S
O489 C502 1.381 . S
O490 Fe483 1.935 1_565 S
O490 C502 1.421 . S
O491 Fe487 2.077 . S
O491 C507 1.381 . S
O492 Fe482 1.935 . S
O492 C507 1.421 . S
O493 Fe482 2.077 1_565 S
O493 C497 1.381 . S
O494 Fe480 1.935 . S
O494 C497 1.421 . S
O495 Fe483 2.077 . S
O495 C503 1.381 . S
O496 Fe487 1.935 . S
O496 C503 1.421 . S
C497 O493 1.381 . S
C497 O494 1.421 . S
O498 Fe487 2.077 . S
O498 C510 1.381 . S
O499 Fe482 1.935 . S
O499 C510 1.421 . S
O500 Fe480 2.077 . S
O500 C488 1.381 . S
O501 Fe483 1.935 1_565 S
O501 C488 1.421 . S
C502 O489 1.381 . S
C502 O490 1.421 . S
C503 O495 1.381 . S
C503 O496 1.421 . S
C504 O505 1.381 . S
C504 O506 1.421 . S
O505 Fe483 2.077 . S
O505 C504 1.381 . S
O506 Fe487 1.935 . S
O506 C504 1.421 . S
C507 O491 1.381 . S
C507 O492 1.421 . S
O508 Fe482 2.077 1_565 S
O508 C511 1.381 . S
O509 Fe480 1.935 . S
O509 C511 1.421 . S
C510 O498 1.381 . S
C510 O499 1.421 . S
C511 O508 1.381 . S
C511 O509 1.421 . S
C512 C513 1.369 . S
C512 C514 1.419 . S
C512 H516 0.930 . S
C513 C512 1.369 . S
C513 C522 1.429 . S
C514 C512 1.419 . S
C514 C515 1.363 . S
C514 H517 0.929 . S
C515 C514 1.363 . S
C515 C521 1.428 . S
H516 C512 0.930 . S
H517 C514 0.929 . S
S518 N519 1.613 . S
S518 N520 1.610 . S
N519 S518 1.613 . S
N519 C522 1.350 . S
N520 S518 1.610 . S
N520 C521 1.351 . S
C521 C515 1.428 . S
C521 N520 1.351 . S
C521 C522 1.434 . S
C522 C513 1.429 . S
C522 N519 1.350 . S
C522 C521 1.434 . S
C523 C524 1.369 . S
C523 C525 1.419 . S
C523 H527 0.930 . S
C524 C523 1.369 . S
C524 C533 1.429 . S
C525 C523 1.419 . S
C525 C526 1.363 . S
C525 H528 0.929 . S
C526 C525 1.363 . S
C526 C532 1.428 . S
H527 C523 0.930 . S
H528 C525 0.929 . S
S529 N530 1.613 . S
S529 N531 1.610 . S
N530 S529 1.613 . S
N530 C533 1.350 . S
N531 S529 1.610 . S
N531 C532 1.351 . S
C532 C526 1.428 . S
C532 N531 1.351 . S
C532 C533 1.434 . S
C533 C524 1.429 . S
C533 N530 1.350 . S
C533 C532 1.434 . S
C534 C535 1.369 . S
C534 C536 1.419 . S
C534 H538 0.930 . S
C535 C534 1.369 . S
C535 C544 1.429 . S
C536 C534 1.419 . S
C536 C537 1.363 . S
C536 H539 0.929 . S
C537 C536 1.363 . S
C537 C543 1.428 . S
H538 C534 0.930 . S
H539 C536 0.929 . S
S540 N541 1.613 . S
S540 N542 1.610 . S
N541 S540 1.613 . S
N541 C544 1.350 . S
N542 S540 1.610 . S
N542 C543 1.351 . S
C543 C537 1.428 . S
C543 N542 1.351 . S
C543 C544 1.434 . S
C544 C535 1.429 . S
C544 N541 1.350 . S
C544 C543 1.434 . S
C545 C546 1.369 . S
C545 C547 1.419 . S
C545 H549 0.930 . S
C546 C545 1.369 . S
C546 C555 1.429 . S
C547 C545 1.419 . S
C547 C548 1.363 . S
C547 H550 0.939 . S
C548 C547 1.363 . S
C548 C554 1.428 . S
H549 C545 0.930 . S
H550 C547 0.939 . S
S551 N552 1.613 . S
S551 N553 1.610 . S
N552 S551 1.613 . S
N552 C555 1.350 . S
N553 S551 1.610 . S
N553 C554 1.351 . S
C554 C548 1.428 . S
C554 N553 1.351 . S
C554 C555 1.434 . S
C555 C546 1.429 . S
C555 N552 1.350 . S
C555 C554 1.434 . S
C556 C557 1.369 . S
C556 C558 1.419 . S
C556 H560 0.930 . S
C557 C556 1.369 . S
C557 C566 1.429 . S
C558 C556 1.419 . S
C558 C559 1.363 . S
C558 H561 0.929 . S
C559 C558 1.363 . S
C559 C565 1.428 . S
H560 C556 0.930 . S
H561 C558 0.929 . S
S562 N563 1.613 . S
S562 N564 1.610 . S
N563 S562 1.613 . S
N563 C566 1.350 1_545 S
N564 S562 1.610 . S
N564 C565 1.351 1_545 S
C565 C559 1.428 . S
C565 N564 1.351 1_565 S
C565 C566 1.434 . S
C566 C557 1.429 . S
C566 N563 1.350 1_565 S
C566 C565 1.434 . S
C567 C568 1.369 . S
C567 C569 1.419 . S
C567 H571 0.930 . S
C568 C567 1.369 . S
C568 C577 1.429 . S
C569 C567 1.419 . S
C569 C570 1.363 . S
C569 H572 0.929 . S
C570 C569 1.363 . S
C570 C576 1.428 . S
H571 C567 0.930 . S
H572 C569 0.929 . S
S573 N574 1.613 . S
S573 N575 1.610 . S
N574 S573 1.613 . S
N574 C577 1.350 . S
N575 S573 1.610 . S
N575 C576 1.351 . S
C576 C570 1.428 . S
C576 N575 1.351 . S
C576 C577 1.434 . S
C577 C568 1.429 . S
C577 N574 1.350 . S
C577 C576 1.434 . S
C578 C579 1.369 . S
C578 C580 1.419 . S
C578 H582 0.930 . S
C579 C578 1.369 . S
C579 C588 1.429 . S
C580 C578 1.419 . S
C580 C581 1.363 . S
C580 H583 0.929 1_655 S
C581 C580 1.363 . S
C581 C587 1.428 . S
H582 C578 0.930 . S
H583 C580 0.929 1_455 S
S584 N585 1.613 . S
S584 N586 1.610 . S
N585 S584 1.613 . S
N585 C588 1.350 . S
N586 S584 1.610 . S
N586 C587 1.351 . S
C587 C581 1.428 . S
C587 N586 1.351 . S
C587 C588 1.434 . S
C588 C579 1.429 . S
C588 N585 1.350 . S
C588 C587 1.434 . S
C589 C590 1.369 . S
C589 C591 1.419 . S
C589 H593 0.930 . S
C590 C589 1.369 . S
C590 C599 1.429 . S
C591 C589 1.419 . S
C591 C592 1.363 . S
C591 H594 0.929 . S
C592 C591 1.363 . S
C592 C598 1.428 . S
H593 C589 0.930 . S
H594 C591 0.929 . S
S595 N596 1.613 . S
S595 N597 1.610 . S
N596 S595 1.613 . S
N596 C599 1.350 . S
N597 S595 1.610 . S
N597 C598 1.351 . S
C598 C592 1.428 . S
C598 N597 1.351 . S
C598 C599 1.434 . S
C599 C590 1.429 . S
C599 N596 1.350 . S
C599 C598 1.434 . S
C600 C601 1.369 . S
C600 C602 1.419 . S
C600 H604 0.930 . S
C601 C600 1.369 . S
C601 C610 1.429 . S
C602 C600 1.419 . S
C602 C603 1.363 . S
C602 H605 0.929 . S
C603 C602 1.363 . S
C603 C609 1.428 . S
H604 C600 0.930 . S
H605 C602 0.929 . S
S606 N607 1.613 . S
S606 N608 1.610 . S
N607 S606 1.613 . S
N607 C610 1.350 . S
N608 S606 1.610 . S
N608 C609 1.351 . S
C609 C603 1.428 . S
C609 N608 1.351 . S
C609 C610 1.434 . S
C610 C601 1.429 . S
C610 N607 1.350 . S
C610 C609 1.434 . S
C611 C612 1.369 . S
C611 C613 1.419 . S
C611 H615 0.930 . S
C612 C611 1.369 . S
C612 C621 1.429 . S
C613 C611 1.419 . S
C613 C614 1.363 . S
C613 H616 0.929 . S
C614 C613 1.363 . S
C614 C620 1.428 . S
H615 C611 0.930 . S
H616 C613 0.929 . S
S617 N618 1.613 . S
S617 N619 1.610 . S
N618 S617 1.613 . S
N618 C621 1.350 . S
N619 S617 1.610 . S
N619 C620 1.351 . S
C620 C614 1.428 . S
C620 N619 1.351 . S
C620 C621 1.434 . S
C621 C612 1.429 . S
C621 N618 1.350 . S
C621 C620 1.434 . S
C622 C623 1.369 . S
C622 C624 1.419 . S
C622 H626 0.930 . S
C623 C622 1.369 . S
C623 C632 1.429 . S
C624 C622 1.419 . S
C624 C625 1.363 . S
C624 H627 0.929 . S
C625 C624 1.363 . S
C625 C631 1.428 . S
H626 C622 0.930 . S
H627 C624 0.929 . S
S628 N629 1.613 . S
S628 N630 1.610 . S
N629 S628 1.613 . S
N629 C632 1.350 . S
N630 S628 1.610 . S
N630 C631 1.351 . S
C631 C625 1.428 . S
C631 N630 1.351 . S
C631 C632 1.434 . S
C632 C623 1.429 . S
C632 N629 1.350 . S
C632 C631 1.434 . S
C633 C634 1.369 . S
C633 C635 1.419 . S
C633 H637 0.930 . S
C634 C633 1.369 . S
C634 C643 1.429 . S
C635 C633 1.419 . S
C635 C636 1.363 . S
C635 H638 0.929 . S
C636 C635 1.363 . S
C636 C642 1.428 . S
H637 C633 0.930 . S
H638 C635 0.929 . S
S639 N640 1.613 . S
S639 N641 1.610 . S
N640 S639 1.613 . S
N640 C643 1.350 . S
N641 S639 1.610 . S
N641 C642 1.351 . S
C642 C636 1.428 . S
C642 N641 1.351 . S
C642 C643 1.434 . S
C643 C634 1.429 . S
C643 N640 1.350 . S
C643 C642 1.434 . S
C644 C645 1.369 . S
C644 C646 1.419 . S
C644 H648 0.930 . S
C645 C644 1.369 . S
C645 C654 1.429 . S
C646 C644 1.419 . S
C646 C647 1.363 . S
C646 H649 0.929 . S
C647 C646 1.363 . S
C647 C653 1.428 . S
H648 C644 0.930 . S
H649 C646 0.929 . S
S650 N651 1.613 . S
S650 N652 1.610 . S
N651 S650 1.613 . S
N651 C654 1.350 . S
N652 S650 1.610 . S
N652 C653 1.351 . S
C653 C647 1.428 . S
C653 N652 1.351 . S
C653 C654 1.434 . S
C654 C645 1.429 . S
C654 N651 1.350 . S
C654 C653 1.434 . S
C655 C656 1.369 . S
C655 C657 1.419 . S
C655 H659 0.930 . S
C656 C655 1.369 . S
C656 C665 1.429 . S
C657 C655 1.419 . S
C657 C658 1.363 . S
C657 H660 0.929 . S
C658 C657 1.363 . S
C658 C664 1.428 . S
H659 C655 0.930 . S
H660 C657 0.929 . S
S661 N662 1.613 . S
S661 N663 1.610 . S
N662 S661 1.613 . S
N662 C665 1.350 . S
N663 S661 1.610 . S
N663 C664 1.351 . S
C664 C658 1.428 . S
C664 N663 1.351 . S
C664 C665 1.434 . S
C665 C656 1.429 . S
C665 N662 1.350 . S
C665 C664 1.434 . S
C666 C667 1.369 . S
C666 C668 1.419 . S
C666 H670 0.930 . S
C667 C666 1.369 . S
C667 C676 1.429 . S
C668 C666 1.419 . S
C668 C669 1.363 . S
C668 H671 0.929 . S
C669 C668 1.363 . S
C669 C675 1.428 . S
H670 C666 0.930 . S
H671 C668 0.929 . S
S672 N673 1.613 . S
S672 N674 1.610 . S
N673 S672 1.613 . S
N673 C676 1.350 . S
N674 S672 1.610 . S
N674 C675 1.351 . S
C675 C669 1.428 . S
C675 N674 1.351 . S
C675 C676 1.434 . S
C676 C667 1.429 . S
C676 N673 1.350 . S
C676 C675 1.434 . S
C677 C678 1.369 . S
C677 C679 1.419 . S
C677 H681 0.930 . S
C678 C677 1.369 . S
C678 C687 1.429 . S
C679 C677 1.419 . S
C679 C680 1.363 . S
C679 H682 0.929 . S
C680 C679 1.363 . S
C680 C686 1.428 . S
H681 C677 0.930 . S
H682 C679 0.929 . S
S683 N684 1.613 . S
S683 N685 1.610 . S
N684 S683 1.613 . S
N684 C687 1.350 . S
N685 S683 1.610 . S
N685 C686 1.351 . S
C686 C680 1.428 . S
C686 N685 1.351 . S
C686 C687 1.434 . S
C687 C678 1.429 . S
C687 N684 1.350 . S
C687 C686 1.434 . S
C688 C689 1.369 . S
C688 C690 1.419 . S
C688 H692 0.930 . S
C689 C688 1.369 . S
C689 C698 1.429 . S
C690 C688 1.419 . S
C690 C691 1.363 . S
C690 H693 0.929 . S
C691 C690 1.363 . S
C691 C697 1.428 . S
H692 C688 0.930 . S
H693 C690 0.929 . S
S694 N695 1.613 . S
S694 N696 1.610 . S
N695 S694 1.613 . S
N695 C698 1.350 . S
N696 S694 1.610 . S
N696 C697 1.351 . S
C697 C691 1.428 . S
C697 N696 1.351 . S
C697 C698 1.434 . S
C698 C689 1.429 . S
C698 N695 1.350 . S
C698 C697 1.434 . S
C699 C700 1.369 . S
C699 C701 1.419 . S
C699 H703 0.930 . S
C700 C699 1.369 . S
C700 C709 1.429 . S
C701 C699 1.419 . S
C701 C702 1.363 . S
C701 H704 0.929 . S
C702 C701 1.363 . S
C702 C708 1.428 . S
H703 C699 0.930 . S
H704 C701 0.929 . S
S705 N706 1.613 . S
S705 N707 1.610 . S
N706 S705 1.613 . S
N706 C709 1.350 . S
N707 S705 1.610 . S
N707 C708 1.351 . S
C708 C702 1.428 . S
C708 N707 1.351 . S
C708 C709 1.434 . S
C709 C700 1.429 . S
C709 N706 1.350 . S
C709 C708 1.434 . S
C710 C711 1.369 . S
C710 C712 1.419 . S
C710 H714 0.930 . S
C711 C710 1.369 . S
C711 C720 1.429 . S
C712 C710 1.419 . S
C712 C713 1.363 . S
C712 H715 0.929 . S
C713 C712 1.363 . S
C713 C719 1.428 . S
H714 C710 0.930 . S
H715 C712 0.929 . S
S716 N717 1.613 . S
S716 N718 1.610 . S
N717 S716 1.613 . S
N717 C720 1.350 . S
N718 S716 1.610 . S
N718 C719 1.351 . S
C719 C713 1.428 . S
C719 N718 1.351 . S
C719 C720 1.434 . S
C720 C711 1.429 . S
C720 N717 1.350 . S
C720 C719 1.434 . S
C721 C722 1.369 . S
C721 C723 1.419 . S
C721 H725 0.930 . S
C722 C721 1.369 . S
C722 C731 1.429 . S
C723 C721 1.419 . S
C723 C724 1.363 . S
C723 H726 0.929 . S
C724 C723 1.363 . S
C724 C730 1.428 . S
H725 C721 0.930 . S
H726 C723 0.929 . S
S727 N728 1.613 . S
S727 N729 1.610 . S
N728 S727 1.613 . S
N728 C731 1.350 . S
N729 S727 1.610 . S
N729 C730 1.351 . S
C730 C724 1.428 . S
C730 N729 1.351 . S
C730 C731 1.434 . S
C731 C722 1.429 . S
C731 N728 1.350 . S
C731 C730 1.434 . S
C732 C733 1.369 . S
C732 C734 1.419 . S
C732 H736 0.930 . S
C733 C732 1.369 . S
C733 C742 1.429 . S
C734 C732 1.419 . S
C734 C735 1.363 . S
C734 H737 0.929 . S
C735 C734 1.363 . S
C735 C741 1.428 1_565 S
H736 C732 0.930 . S
H737 C734 0.929 . S
S738 N739 1.613 . S
S738 N740 1.610 . S
N739 S738 1.613 . S
N739 C742 1.350 1_545 S
N740 S738 1.610 . S
N740 C741 1.351 . S
C741 C735 1.428 1_545 S
C741 N740 1.351 . S
C741 C742 1.434 1_545 S
C742 C733 1.429 . S
C742 N739 1.350 1_565 S
C742 C741 1.434 1_565 S
C743 C744 1.369 . S
C743 C745 1.419 . S
C743 H747 0.930 . S
C744 C743 1.369 . S
C744 C753 1.429 . S
C745 C743 1.419 . S
C745 C746 1.363 . S
C745 H748 0.929 . S
C746 C745 1.363 . S
C746 C752 1.428 . S
H747 C743 0.930 . S
H748 C745 0.929 . S
S749 N750 1.613 . S
S749 N751 1.610 . S
N750 S749 1.613 . S
N750 C753 1.350 . S
N751 S749 1.610 . S
N751 C752 1.351 . S
C752 C746 1.428 . S
C752 N751 1.351 . S
C752 C753 1.434 . S
C753 C744 1.429 . S
C753 N750 1.350 . S
C753 C752 1.434 . S
C754 C755 1.369 . S
C754 C756 1.419 . S
C754 H758 0.930 . S
C755 C754 1.369 . S
C755 C764 1.429 . S
C756 C754 1.419 . S
C756 C757 1.363 . S
C756 H759 0.929 . S
C757 C756 1.363 . S
C757 C763 1.428 . S
H758 C754 0.930 . S
H759 C756 0.929 . S
S760 N761 1.613 . S
S760 N762 1.610 . S
N761 S760 1.613 . S
N761 C764 1.350 . S
N762 S760 1.610 . S
N762 C763 1.351 . S
C763 C757 1.428 . S
C763 N762 1.351 . S
C763 C764 1.434 . S
C764 C755 1.429 . S
C764 N761 1.350 . S
C764 C763 1.434 . S
C765 C766 1.369 . S
C765 C767 1.419 . S
C765 H769 0.930 . S
C766 C765 1.369 . S
C766 C775 1.429 . S
C767 C765 1.419 . S
C767 C768 1.363 . S
C767 H770 0.929 . S
C768 C767 1.363 . S
C768 C774 1.428 . S
H769 C765 0.930 . S
H770 C767 0.929 . S
S771 N772 1.613 . S
S771 N773 1.610 . S
N772 S771 1.613 . S
N772 C775 1.350 . S
N773 S771 1.610 . S
N773 C774 1.351 . S
C774 C768 1.428 . S
C774 N773 1.351 . S
C774 C775 1.434 . S
C775 C766 1.429 . S
C775 N772 1.350 . S
C775 C774 1.434 . S
C776 C777 1.369 . S
C776 C778 1.419 . S
C776 H780 0.930 . S
C777 C776 1.369 . S
C777 C786 1.429 . S
C778 C776 1.419 . S
C778 C779 1.363 . S
C778 H781 0.929 . S
C779 C778 1.363 . S
C779 C785 1.428 . S
H780 C776 0.930 . S
H781 C778 0.929 . S
S782 N783 1.613 . S
S782 N784 1.610 . S
N783 S782 1.613 . S
N783 C786 1.350 . S
N784 S782 1.610 . S
N784 C785 1.351 . S
C785 C779 1.428 . S
C785 N784 1.351 . S
C785 C786 1.434 . S
C786 C777 1.429 . S
C786 N783 1.350 . S
C786 C785 1.434 . S
C787 C788 1.369 . S
C787 C789 1.419 . S
C787 H791 0.930 . S
C788 C787 1.369 . S
C788 C797 1.429 . S
C789 C787 1.419 . S
C789 C790 1.363 . S
C789 H792 0.929 . S
C790 C789 1.363 . S
C790 C796 1.428 . S
H791 C787 0.930 . S
H792 C789 0.929 . S
S793 N794 1.613 . S
S793 N795 1.610 . S
N794 S793 1.613 . S
N794 C797 1.350 . S
N795 S793 1.610 . S
N795 C796 1.351 . S
C796 C790 1.428 . S
C796 N795 1.351 . S
C796 C797 1.434 . S
C797 C788 1.429 . S
C797 N794 1.350 . S
C797 C796 1.434 . S
C798 C799 1.369 . S
C798 C800 1.419 . S
C798 H802 0.930 . S
C799 C798 1.369 . S
C799 C808 1.429 . S
C800 C798 1.419 . S
C800 C801 1.363 . S
C800 H803 0.929 . S
C801 C800 1.363 . S
C801 C807 1.428 . S
H802 C798 0.930 . S
H803 C800 0.929 . S
S804 N805 1.613 . S
S804 N806 1.610 . S
N805 S804 1.613 . S
N805 C808 1.350 . S
N806 S804 1.610 . S
N806 C807 1.351 . S
C807 C801 1.428 . S
C807 N806 1.351 . S
C807 C808 1.434 . S
C808 C799 1.429 . S
C808 N805 1.350 . S
C808 C807 1.434 . S
C809 C810 1.369 . S
C809 C811 1.419 . S
C809 H813 0.930 . S
C810 C809 1.369 . S
C810 C819 1.429 . S
C811 C809 1.419 . S
C811 C812 1.363 . S
C811 H814 0.929 . S
C812 C811 1.363 . S
C812 C818 1.428 . S
H813 C809 0.930 . S
H814 C811 0.929 . S
S815 N816 1.613 . S
S815 N817 1.610 . S
N816 S815 1.613 . S
N816 C819 1.350 . S
N817 S815 1.610 . S
N817 C818 1.351 . S
C818 C812 1.428 . S
C818 N817 1.351 . S
C818 C819 1.434 . S
C819 C810 1.429 . S
C819 N816 1.350 . S
C819 C818 1.434 . S
C820 C821 1.369 . S
C820 C822 1.419 . S
C820 H824 0.930 . S
C821 C820 1.369 . S
C821 C830 1.429 . S
C822 C820 1.419 . S
C822 C823 1.363 . S
C822 H825 0.929 . S
C823 C822 1.363 . S
C823 C829 1.428 . S
H824 C820 0.930 . S
H825 C822 0.929 . S
S826 N827 1.613 . S
S826 N828 1.610 . S
N827 S826 1.613 . S
N827 C830 1.350 . S
N828 S826 1.610 . S
N828 C829 1.351 . S
C829 C823 1.428 . S
C829 N828 1.351 . S
C829 C830 1.434 . S
C830 C821 1.429 . S
C830 N827 1.350 . S
C830 C829 1.434 . S
C831 C832 1.369 . S
C831 C833 1.419 . S
C831 H835 0.930 . S
C832 C831 1.369 . S
C832 C841 1.429 . S
C833 C831 1.419 . S
C833 C834 1.363 . S
C833 H836 0.929 . S
C834 C833 1.363 . S
C834 C840 1.428 . S
H835 C831 0.930 . S
H836 C833 0.929 . S
S837 N838 1.613 . S
S837 N839 1.610 . S
N838 S837 1.613 . S
N838 C841 1.350 . S
N839 S837 1.610 . S
N839 C840 1.351 . S
C840 C834 1.428 . S
C840 N839 1.351 . S
C840 C841 1.434 . S
C841 C832 1.429 . S
C841 N838 1.350 . S
C841 C840 1.434 . S
C842 C843 1.369 . S
C842 C844 1.419 . S
C842 H846 0.930 . S
C843 C842 1.369 . S
C843 C852 1.429 . S
C844 C842 1.419 . S
C844 C845 1.363 . S
C844 H847 0.929 . S
C845 C844 1.363 . S
C845 C851 1.428 . S
H846 C842 0.930 . S
H847 C844 0.929 . S
S848 N849 1.613 . S
S848 N850 1.610 . S
N849 S848 1.613 . S
N849 C852 1.350 . S
N850 S848 1.610 . S
N850 C851 1.351 . S
C851 C845 1.428 . S
C851 N850 1.351 . S
C851 C852 1.434 . S
C852 C843 1.429 . S
C852 N849 1.350 . S
C852 C851 1.434 . S
C853 C854 1.369 . S
C853 C855 1.419 . S
C853 H857 0.930 . S
C854 C853 1.369 . S
C854 C863 1.429 . S
C855 C853 1.419 . S
C855 C856 1.363 . S
C855 H858 0.929 . S
C856 C855 1.363 . S
C856 C862 1.428 . S
H857 C853 0.930 . S
H858 C855 0.929 . S
S859 N860 1.613 . S
S859 N861 1.610 . S
N860 S859 1.613 . S
N860 C863 1.350 . S
N861 S859 1.610 . S
N861 C862 1.351 . S
C862 C856 1.428 . S
C862 N861 1.351 . S
C862 C863 1.434 . S
C863 C854 1.429 . S
C863 N860 1.350 . S
C863 C862 1.434 . S
C864 C865 1.369 . S
C864 C866 1.419 . S
C864 H868 0.930 . S
C865 C864 1.369 . S
C865 C874 1.429 . S
C866 C864 1.419 . S
C866 C867 1.363 . S
C866 H869 0.929 . S
C867 C866 1.363 . S
C867 C873 1.428 . S
H868 C864 0.930 . S
H869 C866 0.929 . S
S870 N871 1.613 . S
S870 N872 1.610 1_655 S
N871 S870 1.613 . S
N871 C874 1.350 . S
N872 S870 1.610 1_455 S
N872 C873 1.351 1_455 S
C873 C867 1.428 . S
C873 N872 1.351 1_655 S
C873 C874 1.434 . S
C874 C865 1.429 . S
C874 N871 1.350 . S
C874 C873 1.434 . S
C875 C876 1.369 . S
C875 C877 1.419 . S
C875 H879 0.930 . S
C876 C875 1.369 . S
C876 C885 1.429 . S
C877 C875 1.419 . S
C877 C878 1.363 . S
C877 H880 0.929 . S
C878 C877 1.363 . S
C878 C884 1.428 . S
H879 C875 0.930 . S
H880 C877 0.929 . S
S881 N882 1.613 . S
S881 N883 1.610 . S
N882 S881 1.613 . S
N882 C885 1.350 . S
N883 S881 1.610 . S
N883 C884 1.351 . S
C884 C878 1.428 . S
C884 N883 1.351 . S
C884 C885 1.434 . S
C885 C876 1.429 . S
C885 N882 1.350 . S
C885 C884 1.434 . S
C886 C887 1.369 . S
C886 C888 1.419 . S
C886 H890 0.930 . S
C887 C886 1.369 . S
C887 C896 1.429 . S
C888 C886 1.419 . S
C888 C889 1.363 . S
C888 H891 0.929 . S
C889 C888 1.363 . S
C889 C895 1.428 . S
H890 C886 0.930 . S
H891 C888 0.929 . S
S892 N893 1.613 . S
S892 N894 1.610 . S
N893 S892 1.613 . S
N893 C896 1.350 . S
N894 S892 1.610 . S
N894 C895 1.351 . S
C895 C889 1.428 . S
C895 N894 1.351 . S
C895 C896 1.434 . S
C896 C887 1.429 . S
C896 N893 1.350 . S
C896 C895 1.434 . S
C897 C898 1.369 . S
C897 C899 1.419 . S
C897 H901 0.930 . S
C898 C897 1.369 . S
C898 C907 1.429 . S
C899 C897 1.419 . S
C899 C900 1.363 . S
C899 H902 0.929 . S
C900 C899 1.363 . S
C900 C906 1.428 . S
H901 C897 0.930 . S
H902 C899 0.929 . S
S903 N904 1.613 . S
S903 N905 1.610 . S
N904 S903 1.613 . S
N904 C907 1.350 . S
N905 S903 1.610 . S
N905 C906 1.351 . S
C906 C900 1.428 . S
C906 N905 1.351 . S
C906 C907 1.434 . S
C907 C898 1.429 . S
C907 N904 1.350 . S
C907 C906 1.434 . S
C908 C909 1.369 . S
C908 C910 1.419 . S
C908 H912 0.930 . S
C909 C908 1.369 . S
C909 C918 1.429 . S
C910 C908 1.419 . S
C910 C911 1.363 . S
C910 H913 0.929 . S
C911 C910 1.363 . S
C911 C917 1.428 . S
H912 C908 0.930 . S
H913 C910 0.929 . S
S914 N915 1.613 . S
S914 N916 1.610 . S
N915 S914 1.613 . S
N915 C918 1.350 . S
N916 S914 1.610 . S
N916 C917 1.351 . S
C917 C911 1.428 . S
C917 N916 1.351 . S
C917 C918 1.434 . S
C918 C909 1.429 . S
C918 N915 1.350 . S
C918 C917 1.434 . S
C919 C920 1.369 . S
C919 C921 1.419 . S
C919 H923 0.930 . S
C920 C919 1.369 . S
C920 C929 1.429 . S
C921 C919 1.419 . S
C921 C922 1.363 . S
C921 H924 0.929 . S
C922 C921 1.363 . S
C922 C928 1.428 . S
H923 C919 0.930 . S
H924 C921 0.929 . S
S925 N926 1.613 . S
S925 N927 1.610 . S
N926 S925 1.613 . S
N926 C929 1.350 . S
N927 S925 1.610 . S
N927 C928 1.351 . S
C928 C922 1.428 . S
C928 N927 1.351 . S
C928 C929 1.434 . S
C929 C920 1.429 . S
C929 N926 1.350 . S
C929 C928 1.434 . S
C930 C931 1.369 . S
C930 C932 1.419 . S
C930 H934 0.930 . S
C931 C930 1.369 . S
C931 C940 1.429 . S
C932 C930 1.419 . S
C932 C933 1.363 . S
C932 H935 0.929 . S
C933 C932 1.363 . S
C933 C939 1.428 . S
H934 C930 0.930 . S
H935 C932 0.929 . S
S936 N937 1.613 . S
S936 N938 1.610 . S
N937 S936 1.613 . S
N937 C940 1.350 . S
N938 S936 1.610 . S
N938 C939 1.351 . S
C939 C933 1.428 . S
C939 N938 1.351 . S
C939 C940 1.434 . S
C940 C931 1.429 . S
C940 N937 1.350 . S
C940 C939 1.434 . S
C941 C942 1.369 . S
C941 C943 1.419 . S
C941 H945 0.930 . S
C942 C941 1.369 . S
C942 C951 1.429 . S
C943 C941 1.419 . S
C943 C944 1.363 . S
C943 H946 0.929 . S
C944 C943 1.363 . S
C944 C950 1.428 . S
H945 C941 0.930 . S
H946 C943 0.929 . S
S947 N948 1.613 . S
S947 N949 1.610 . S
N948 S947 1.613 . S
N948 C951 1.350 . S
N949 S947 1.610 . S
N949 C950 1.351 . S
C950 C944 1.428 . S
C950 N949 1.351 . S
C950 C951 1.434 . S
C951 C942 1.429 . S
C951 N948 1.350 . S
C951 C950 1.434 . S
C952 C953 1.369 . S
C952 C954 1.419 . S
C952 H956 0.930 . S
C953 C952 1.369 . S
C953 C962 1.429 . S
C954 C952 1.419 . S
C954 C955 1.363 . S
C954 H957 0.929 . S
C955 C954 1.363 . S
C955 C961 1.428 . S
H956 C952 0.930 . S
H957 C954 0.929 . S
S958 N959 1.613 . S
S958 N960 1.610 . S
N959 S958 1.613 . S
N959 C962 1.350 . S
N960 S958 1.610 . S
N960 C961 1.351 . S
C961 C955 1.428 . S
C961 N960 1.351 . S
C961 C962 1.434 . S
C962 C953 1.429 . S
C962 N959 1.350 . S
C962 C961 1.434 . S
C963 C964 1.369 . S
C963 C965 1.419 . S
C963 H967 0.930 . S
C964 C963 1.369 . S
C964 C973 1.429 . S
C965 C963 1.419 . S
C965 C966 1.363 . S
C965 H968 0.929 . S
C966 C965 1.363 . S
C966 C972 1.428 . S
H967 C963 0.930 . S
H968 C965 0.929 . S
S969 N970 1.613 . S
S969 N971 1.610 . S
N970 S969 1.613 . S
N970 C973 1.350 . S
N971 S969 1.610 . S
N971 C972 1.351 . S
C972 C966 1.428 . S
C972 N971 1.351 . S
C972 C973 1.434 . S
C973 C964 1.429 . S
C973 N970 1.350 . S
C973 C972 1.434 . S
C974 C975 1.369 . S
C974 C976 1.419 . S
C974 H978 0.930 . S
C975 C974 1.369 . S
C975 C984 1.429 . S
C976 C974 1.419 . S
C976 C977 1.363 . S
C976 H979 0.929 . S
C977 C976 1.363 . S
C977 C983 1.428 . S
H978 C974 0.930 . S
H979 C976 0.929 . S
S980 N981 1.613 . S
S980 N982 1.610 . S
N981 S980 1.613 . S
N981 C984 1.350 . S
N982 S980 1.610 . S
N982 C983 1.351 . S
C983 C977 1.428 . S
C983 N982 1.351 . S
C983 C984 1.434 . S
C984 C975 1.429 . S
C984 N981 1.350 . S
C984 C983 1.434 . S
C985 C986 1.369 . S
C985 C987 1.419 . S
C985 H989 0.930 . S
C986 C985 1.369 . S
C986 C995 1.429 . S
C987 C985 1.419 . S
C987 C988 1.363 . S
C987 H990 0.929 . S
C988 C987 1.363 . S
C988 C994 1.428 . S
H989 C985 0.930 . S
H990 C987 0.929 . S
S991 N992 1.613 . S
S991 N993 1.610 . S
N992 S991 1.613 . S
N992 C995 1.350 . S
N993 S991 1.610 . S
N993 C994 1.351 . S
C994 C988 1.428 . S
C994 N993 1.351 . S
C994 C995 1.434 . S
C995 C986 1.429 . S
C995 N992 1.350 . S
C995 C994 1.434 . S
C996 C997 1.369 . S
C996 C998 1.419 . S
C996 H1000 0.930 . S
C997 C996 1.369 . S
C997 C1006 1.429 . S
C998 C996 1.419 . S
C998 C999 1.363 . S
C998 H1001 0.929 . S
C999 C998 1.363 . S
C999 C1005 1.428 . S
H1000 C996 0.930 . S
H1001 C998 0.929 . S
S1002 N1003 1.613 . S
S1002 N1004 1.610 . S
N1003 S1002 1.613 . S
N1003 C1006 1.350 . S
N1004 S1002 1.610 . S
N1004 C1005 1.351 . S
C1005 C999 1.428 . S
C1005 N1004 1.351 . S
C1005 C1006 1.434 . S
C1006 C997 1.429 . S
C1006 N1003 1.350 . S
C1006 C1005 1.434 . S
C1007 C1008 1.369 . S
C1007 C1009 1.419 . S
C1007 H1011 0.930 . S
C1008 C1007 1.369 . S
C1008 C1017 1.429 . S
C1009 C1007 1.419 . S
C1009 C1010 1.363 . S
C1009 H1012 0.929 . S
C1010 C1009 1.363 . S
C1010 C1016 1.428 . S
H1011 C1007 0.930 . S
H1012 C1009 0.929 . S
S1013 N1014 1.613 . S
S1013 N1015 1.610 . S
N1014 S1013 1.613 . S
N1014 C1017 1.350 . S
N1015 S1013 1.610 . S
N1015 C1016 1.351 . S
C1016 C1010 1.428 . S
C1016 N1015 1.351 . S
C1016 C1017 1.434 . S
C1017 C1008 1.429 . S
C1017 N1014 1.350 . S
C1017 C1016 1.434 . S
C1018 C1019 1.369 . S
C1018 C1020 1.419 . S
C1018 H1022 0.930 . S
C1019 C1018 1.369 . S
C1019 C1028 1.429 . S
C1020 C1018 1.419 . S
C1020 C1021 1.363 . S
C1020 H1023 0.929 . S
C1021 C1020 1.363 . S
C1021 C1027 1.428 . S
H1022 C1018 0.930 . S
H1023 C1020 0.929 . S
S1024 N1025 1.613 . S
S1024 N1026 1.610 . S
N1025 S1024 1.613 . S
N1025 C1028 1.350 . S
N1026 S1024 1.610 . S
N1026 C1027 1.351 . S
C1027 C1021 1.428 . S
C1027 N1026 1.351 . S
C1027 C1028 1.434 . S
C1028 C1019 1.429 . S
C1028 N1025 1.350 . S
C1028 C1027 1.434 . S
C1029 C1030 1.369 . S
C1029 C1031 1.419 . S
C1029 H1033 0.930 . S
C1030 C1029 1.369 . S
C1030 C1039 1.429 . S
C1031 C1029 1.419 . S
C1031 C1032 1.363 . S
C1031 H1034 0.929 . S
C1032 C1031 1.363 . S
C1032 C1038 1.428 . S
H1033 C1029 0.930 . S
H1034 C1031 0.929 . S
S1035 N1036 1.613 . S
S1035 N1037 1.610 . S
N1036 S1035 1.613 . S
N1036 C1039 1.350 . S
N1037 S1035 1.610 . S
N1037 C1038 1.351 . S
C1038 C1032 1.428 . S
C1038 N1037 1.351 . S
C1038 C1039 1.434 . S
C1039 C1030 1.429 . S
C1039 N1036 1.350 . S
C1039 C1038 1.434 . S
C515 C337 1.738 . S
C513 C2 1.698 . S
C526 C342 0.497 . S
C524 C65 0.358 . S
C537 C343 1.730 . S
C535 C82 1.720 . S
C546 C145 0.741 . S
C548 C347 0.753 . S
C557 C164 0.556 . S
C559 C350 0.784 . S
C570 C351 1.713 . S
C568 C223 1.700 . S
C579 C244 0.969 . S
C581 C328 0.983 . S
C590 C282 1.676 . S
C592 C344 1.715 . S
C603 C382 3.135 . S
C601 C31 3.175 . S
C612 C60 1.909 . S
C614 C408 1.888 . S
C625 C360 3.169 . S
C623 C111 3.285 . S
C636 C415 1.818 . S
C634 C140 1.822 . S
C645 C162 1.861 . S
C647 C369 1.881 . S
C658 C411 1.254 . S
C656 C225 1.257 . S
C667 C242 1.979 . S
C669 C375 1.962 . S
C678 C311 2.341 . S
C680 C406 2.307 . S
C689 C4 1.006 . S
C691 C414 1.020 . S
C700 C191 1.236 . S
C702 C401 1.214 . S
C713 C379 2.801 . S
C711 C220 2.824 . S
C724 C407 1.294 . S
C722 C271 1.343 . S
C733 C284 1.494 . S
C735 C374 1.455 1_556 S
C744 C84 0.970 . S
C746 C392 1.035 . S
C757 C383 1.290 . S
C755 C143 1.293 . S
C766 C63 1.364 . S
C768 C376 1.354 . S
C777 C303 1.649 . S
C779 C438 1.598 . S
C788 C185 0.557 . S
C790 C433 0.617 . S
C801 C447 1.589 . S
C799 C202 1.668 . S
C812 C424 0.918 . S
C810 C265 0.943 . S
C821 C44 0.352 . S
C823 C440 0.494 . S
C834 C439 1.590 . S
C832 C103 1.688 . S
C843 C124 0.728 . S
C845 C443 0.719 . S
C854 C23 1.668 . S
C856 C446 1.593 . S
C865 C305 1.492 . S
C867 C472 1.568 . S
C878 C488 1.260 . S
C876 C180 1.241 . S
C887 C231 2.836 . S
C889 C470 2.837 . S
C898 C260 1.343 . S
C900 C503 1.256 . S
C911 C479 1.333 . S
C909 C42 1.349 . S
C920 C105 0.988 . S
C922 C497 0.916 . S
C933 C475 1.233 . S
C931 C122 1.273 . S
C944 C510 0.984 . S
C942 C25 1.011 . S
C955 C502 2.350 . S
C953 C300 2.374 . S
C964 C71 1.909 . S
C966 C507 1.795 . S
C975 C100 3.301 . S
C977 C478 3.316 . S
C988 C511 1.764 . S
C986 C151 1.821 . S
C997 C20 3.189 . S
C999 C465 3.197 . S
C1008 C204 1.284 . S
C1010 C504 1.194 . S
C1021 C456 1.900 . S
C1019 C263 1.965 . S
C1032 C471 1.746 . S
C1030 C183 1.843 . S
