# Generated by pormake.
# Topology pyr, (3,6)-cn, num edge types: 1
# Building blocks:
#     Node 0, Type 0, BuildingBlock: OLANEW_clean_sbu_2, # of connection points: 3
#     Node 1, Type 0, BuildingBlock: OLANEW_clean_sbu_2, # of connection points: 3
#     Node 2, Type 0, BuildingBlock: OLANEW_clean_sbu_2, # of connection points: 3
#     Node 3, Type 0, BuildingBlock: OLANEW_clean_sbu_2, # of connection points: 3
#     Node 4, Type 0, BuildingBlock: OLANEW_clean_sbu_2, # of connection points: 3
#     Node 5, Type 0, BuildingBlock: OLANEW_clean_sbu_2, # of connection points: 3
#     Node 6, Type 0, BuildingBlock: OLANEW_clean_sbu_2, # of connection points: 3
#     Node 7, Type 0, BuildingBlock: OLANEW_clean_sbu_2, # of connection points: 3
#     Node 8, Type 1, BuildingBlock: BETFEN_clean_sbu_0, # of connection points: 6
#     Node 9, Type 1, BuildingBlock: BETFEN_clean_sbu_0, # of connection points: 6
#     Node 10, Type 1, BuildingBlock: BETFEN_clean_sbu_0, # of connection points: 6
#     Node 11, Type 1, BuildingBlock: BETFEN_clean_sbu_0, # of connection points: 6
#     Edge 12, Type (0, 1), BuildingBlock: OJICUG_clean_linker_0, # of connection points: 2
#     Edge 13, Type (0, 1), BuildingBlock: OJICUG_clean_linker_0, # of connection points: 2
#     Edge 14, Type (0, 1), BuildingBlock: OJICUG_clean_linker_0, # of connection points: 2
#     Edge 15, Type (0, 1), BuildingBlock: OJICUG_clean_linker_0, # of connection points: 2
#     Edge 16, Type (0, 1), BuildingBlock: OJICUG_clean_linker_0, # of connection points: 2
#     Edge 17, Type (0, 1), BuildingBlock: OJICUG_clean_linker_0, # of connection points: 2
#     Edge 18, Type (0, 1), BuildingBlock: OJICUG_clean_linker_0, # of connection points: 2
#     Edge 19, Type (0, 1), BuildingBlock: OJICUG_clean_linker_0, # of connection points: 2
#     Edge 20, Type (0, 1), BuildingBlock: OJICUG_clean_linker_0, # of connection points: 2
#     Edge 21, Type (0, 1), BuildingBlock: OJICUG_clean_linker_0, # of connection points: 2
#     Edge 22, Type (0, 1), BuildingBlock: OJICUG_clean_linker_0, # of connection points: 2
#     Edge 23, Type (0, 1), BuildingBlock: OJICUG_clean_linker_0, # of connection points: 2
#     Edge 24, Type (0, 1), BuildingBlock: OJICUG_clean_linker_0, # of connection points: 2
#     Edge 25, Type (0, 1), BuildingBlock: OJICUG_clean_linker_0, # of connection points: 2
#     Edge 26, Type (0, 1), BuildingBlock: OJICUG_clean_linker_0, # of connection points: 2
#     Edge 27, Type (0, 1), BuildingBlock: OJICUG_clean_linker_0, # of connection points: 2
#     Edge 28, Type (0, 1), BuildingBlock: OJICUG_clean_linker_0, # of connection points: 2
#     Edge 29, Type (0, 1), BuildingBlock: OJICUG_clean_linker_0, # of connection points: 2
#     Edge 30, Type (0, 1), BuildingBlock: OJICUG_clean_linker_0, # of connection points: 2
#     Edge 31, Type (0, 1), BuildingBlock: OJICUG_clean_linker_0, # of connection points: 2
#     Edge 32, Type (0, 1), BuildingBlock: OJICUG_clean_linker_0, # of connection points: 2
#     Edge 33, Type (0, 1), BuildingBlock: OJICUG_clean_linker_0, # of connection points: 2
#     Edge 34, Type (0, 1), BuildingBlock: OJICUG_clean_linker_0, # of connection points: 2
#     Edge 35, Type (0, 1), BuildingBlock: OJICUG_clean_linker_0, # of connection points: 2
# Relax obj value: 0.223
# Max RMSD: 0.322
# Mean RMSD: 0.151
data_MOF--net-pyr--node1-OLANEW_clean_sbu_2--node2-BETFEN_clean_sbu_0--edge1-OJICUG_clean_linker_0
_symmetry_space_group_name_H-M    P1
_symmetry_Int_Tables_number       1
_symmetry_cell_setting            triclinic
loop_
_symmetry_equiv_pos_as_xyz
'x, y, z'
_cell_length_a     29.814381
_cell_length_b     34.678311
_cell_length_c     31.013514
_cell_angle_alpha  95.696654
_cell_angle_beta   102.95443
_cell_angle_gamma 118.70173
loop_
_atom_site_label
_atom_site_type_symbol
_atom_site_fract_x
_atom_site_fract_y
_atom_site_fract_z
_atom_type_partial_charge
O0 O 0.47591 0.38139 0.28321 0.0
Cd1 Cd 0.45523 0.43652 0.31085 0.0
O2 O 0.39419 0.33623 0.28491 0.0
Cd3 Cd 0.33353 0.26904 0.28654 0.0
O4 O 0.39576 0.2889 0.35091 0.0
C5 C 0.39008 0.28982 0.39024 0.0
O6 O 0.43316 0.30773 0.42607 0.0
C7 C 0.43639 0.34166 0.27664 0.0
C8 C 0.36916 0.42621 0.24269 0.0
O9 O 0.41754 0.45758 0.24796 0.0
O10 O 0.36118 0.40026 0.2703 0.0
O11 O 0.25367 0.78949 0.82724 0.0
Cd12 Cd 0.21617 0.73138 0.7568 0.0
O13 O 0.22608 0.83666 0.80932 0.0
Cd14 Cd 0.17765 0.81057 0.73777 0.0
O15 O 0.14896 0.84454 0.6932 0.0
C16 C 0.11509 0.85366 0.70232 0.0
O17 O 0.09554 0.83908 0.73528 0.0
C18 C 0.25183 0.82495 0.83815 0.0
C19 C 0.29505 0.71743 0.73641 0.0
O20 O 0.28239 0.74436 0.71932 0.0
O21 O 0.27065 0.69697 0.76361 0.0
O22 O 0.72841 0.3824 0.79425 0.0
Cd23 Cd 0.65377 0.353 0.72253 0.0
O24 O 0.69082 0.32095 0.81948 0.0
Cd25 Cd 0.6737 0.27453 0.86583 0.0
O26 O 0.62599 0.22439 0.90113 0.0
C27 C 0.6363 0.19486 0.91368 0.0
O28 O 0.67731 0.1939 0.90581 0.0
C29 C 0.73064 0.36058 0.82457 0.0
C30 C 0.63586 0.41725 0.68616 0.0
O31 O 0.60723 0.39367 0.70946 0.0
O32 O 0.67372 0.41135 0.68083 0.0
O33 O 0.93421 0.76417 0.31793 0.0
Cd34 Cd 0.90149 0.68822 0.26005 0.0
O35 O 0.86799 0.73997 0.34895 0.0
Cd36 Cd 0.81468 0.66691 0.32638 0.0
O37 O 0.76233 0.635 0.3675 0.0
C38 C 0.76344 0.66266 0.3986 0.0
O39 O 0.79395 0.70634 0.40264 0.0
C40 C 0.91091 0.77205 0.34517 0.0
C41 C 0.93897 0.65039 0.19792 0.0
O42 O 0.92053 0.67597 0.18688 0.0
O43 O 0.94356 0.64511 0.23876 0.0
O44 O 0.65592 0.66692 0.72391 0.0
Cd45 Cd 0.60549 0.61179 0.76238 0.0
O46 O 0.68629 0.71246 0.79021 0.0
Cd47 Cd 0.71715 0.77322 0.84108 0.0
O48 O 0.65134 0.77913 0.85091 0.0
C49 C 0.61751 0.77695 0.81604 0.0
O50 O 0.62616 0.77535 0.77641 0.0
C51 C 0.6864 0.70669 0.74924 0.0
C52 C 0.69106 0.62255 0.82888 0.0
O53 O 0.6722 0.59521 0.78979 0.0
O54 O 0.66633 0.6422 0.83863 0.0
O55 O 0.81932 0.21128 0.31641 0.0
Cd56 Cd 0.88615 0.23999 0.39221 0.0
O57 O 0.7927 0.25944 0.29903 0.0
Cd58 Cd 0.82536 0.31661 0.35661 0.0
O59 O 0.78967 0.353 0.38239 0.0
C60 C 0.75952 0.36197 0.35451 0.0
O61 O 0.75313 0.35182 0.31075 0.0
C62 C 0.79174 0.22254 0.28866 0.0
C63 C 0.90712 0.17311 0.41816 0.0
O64 O 0.86915 0.17689 0.42681 0.0
O65 O 0.93524 0.20078 0.39718 0.0
O66 O 0.48069 0.81939 0.25968 0.0
Cd67 Cd 0.47322 0.77628 0.32517 0.0
O68 O 0.42247 0.83984 0.2663 0.0
Cd69 Cd 0.37853 0.78232 0.2932 0.0
O70 O 0.30725 0.72371 0.24364 0.0
C71 C 0.31097 0.72021 0.20354 0.0
O72 O 0.35593 0.74961 0.19706 0.0
C73 C 0.45882 0.84293 0.24943 0.0
C74 C 0.47783 0.70562 0.36609 0.0
O75 O 0.51581 0.73196 0.35118 0.0
O76 O 0.43702 0.71056 0.35949 0.0
O77 O 0.21182 0.45227 0.80966 0.0
Cd78 Cd 0.2629 0.42738 0.76855 0.0
O79 O 0.17413 0.38943 0.83365 0.0
Cd80 Cd 0.18587 0.34288 0.78829 0.0
O81 O 0.16559 0.27807 0.74314 0.0
C82 C 0.12556 0.24211 0.74599 0.0
O83 O 0.10179 0.24609 0.77562 0.0
C84 C 0.18451 0.42988 0.83449 0.0
C85 C 0.31153 0.45497 0.69805 0.0
O86 O 0.32854 0.48235 0.73693 0.0
O87 O 0.27001 0.41557 0.69109 0.0
Pr88 Pr 0.95467 0.98039 0.5573 0.0
Pr89 Pr 0.06314 0.03102 0.53627 0.0
C90 C 0.86175 0.91899 0.56713 0.0
C91 C 0.84869 0.896 0.60409 0.0
C92 C 0.83026 0.91104 0.6362 0.0
C93 C 0.81264 0.88606 0.66796 0.0
C94 C 0.81307 0.84577 0.6676 0.0
C95 C 0.83591 0.83311 0.63837 0.0
C96 C 0.85339 0.85784 0.60684 0.0
C97 C 0.02286 0.06254 0.62502 0.0
C98 C 0.05307 0.96368 0.60635 0.0
C99 C 0.15659 0.09755 0.53285 0.0
C100 C 0.17035 0.12419 0.49872 0.0
C101 C 0.18434 0.10967 0.4628 0.0
C102 C 0.20258 0.1373 0.43342 0.0
C103 C 0.2075 0.18006 0.43968 0.0
C104 C 0.18823 0.19239 0.47261 0.0
C105 C 0.17017 0.16485 0.50211 0.0
C106 C 1.00029 0.94944 0.46877 0.0
C107 C 0.96385 0.04875 0.48928 0.0
O108 O 0.8876 0.90813 0.54418 0.0
O109 O 0.87861 0.96223 0.57547 0.0
O110 O 0.03424 0.04847 0.59239 0.0
O111 O 0.97515 0.03215 0.62403 0.0
O112 O 0.08659 0.99597 0.59055 0.0
O113 O 1.00203 0.95119 0.59711 0.0
O114 O 0.12803 0.10459 0.5554 0.0
O115 O 0.14193 0.05484 0.52146 0.0
O116 O 0.98408 0.96039 0.50016 0.0
O117 O 0.04751 0.98192 0.47109 0.0
O118 O 0.9305 0.01577 0.50439 0.0
O119 O 0.01469 0.06057 0.49724 0.0
H120 H 0.8272 0.94087 0.63547 0.0
H121 H 0.79519 0.89636 0.69039 0.0
H122 H 0.837 0.80228 0.63797 0.0
H123 H 0.86841 0.84576 0.58336 0.0
H124 H 0.18378 0.07805 0.45869 0.0
H125 H 0.21726 0.12676 0.40848 0.0
H126 H 0.19073 0.22481 0.47767 0.0
H127 H 0.15836 0.17648 0.52881 0.0
Pr128 Pr 0.47834 0.03707 0.08697 0.0
Pr129 Pr 0.53924 1.00261 0.05135 0.0
C130 C 0.43404 0.0697 0.13481 0.0
C131 C 0.44189 0.11281 0.15697 0.0
C132 C 0.44108 0.14429 0.13203 0.0
C133 C 0.44332 0.18283 0.1531 0.0
C134 C 0.44692 0.19058 0.19935 0.0
C135 C 0.45012 0.16022 0.22472 0.0
C136 C 0.44728 0.12141 0.20354 0.0
C137 C 0.5191 0.07787 0.01985 0.0
C138 C 0.61135 0.08849 0.13846 0.0
C139 C 0.57965 0.98353 0.98982 0.0
C140 C 0.56264 0.94161 0.95752 0.0
C141 C 0.57369 0.90935 0.97229 0.0
C142 C 0.55902 0.87046 0.94125 0.0
C143 C 0.53268 0.86283 0.89474 0.0
C144 C 0.51872 0.89387 0.88049 0.0
C145 C 0.53397 0.93314 0.91158 0.0
C146 C 0.50209 0.94813 0.11112 0.0
C147 C 0.40765 0.94929 1.00433 0.0
O148 O 0.46887 0.05893 0.15381 0.0
O149 O 0.41878 0.05872 0.09027 0.0
O150 O 0.54359 0.0699 0.05291 0.0
O151 O 0.4707 0.06515 0.02052 0.0
O152 O 0.6136 0.06067 0.10826 0.0
O153 O 0.56587 0.08669 0.13781 0.0
O154 O 0.54742 0.99928 0.98122 0.0
O155 O 0.59866 0.98658 0.03335 0.0
O156 O 0.49191 0.97927 0.10459 0.0
O157 O 0.53072 0.94489 0.08675 0.0
O158 O 0.40508 0.96804 0.04172 0.0
O159 O 0.45392 0.96201 0.9973 0.0
H160 H 0.43744 0.13869 0.09611 0.0
H161 H 0.44142 0.20628 0.13318 0.0
H162 H 0.45267 0.1656 0.26041 0.0
H163 H 0.44789 0.09747 0.22326 0.0
H164 H 0.59517 0.91465 0.00756 0.0
H165 H 0.57168 0.848 0.95356 0.0
H166 H 0.49809 0.88879 0.84503 0.0
H167 H 0.52428 0.95731 0.89945 0.0
Pr168 Pr 0.55841 0.6018 0.57823 0.0
Pr169 Pr 0.50581 0.50793 0.50407 0.0
C170 C 0.56665 0.66913 0.63604 0.0
C171 C 0.52636 0.67449 0.65155 0.0
C172 C 0.5338 0.68548 0.69836 0.0
C173 C 0.49548 0.69013 0.71357 0.0
C174 C 0.44902 0.68374 0.68205 0.0
C175 C 0.44056 0.67052 0.63521 0.0
C176 C 0.47875 0.66589 0.6201 0.0
C177 C 0.59039 0.54205 0.6033 0.0
C178 C 0.43645 0.51206 0.5713 0.0
C179 C 0.51116 0.43782 0.46567 0.0
C180 C 0.55159 0.43401 0.44774 0.0
C181 C 0.53808 0.41356 0.40176 0.0
C182 C 0.57501 0.4072 0.38564 0.0
C183 C 0.62587 0.42009 0.41533 0.0
C184 C 0.6402 0.4427 0.46083 0.0
C185 C 0.6037 0.44957 0.47681 0.0
C186 C 0.48742 0.57071 0.46241 0.0
C187 C 0.62483 0.59888 0.51097 0.0
O188 O 0.56529 0.66995 0.59357 0.0
O189 O 0.57455 0.6377 0.64925 0.0
O190 O 0.54336 0.53183 0.58184 0.0
O191 O 0.62398 0.58571 0.61386 0.0
O192 O 0.43995 0.48359 0.54209 0.0
O193 O 0.47022 0.55644 0.58109 0.0
O194 O 0.52604 0.4536 0.50968 0.0
O195 O 0.48265 0.45256 0.44236 0.0
O196 O 0.51133 0.57602 0.50351 0.0
O197 O 0.46807 0.52913 0.44074 0.0
O198 O 0.61694 0.62717 0.53537 0.0
O199 O 0.59505 0.55449 0.50483 0.0
H200 H 0.5694 0.69061 0.72311 0.0
H201 H 0.50287 0.69985 0.74987 0.0
H202 H 0.40437 0.66394 0.61013 0.0
H203 H 0.47093 0.65561 0.58377 0.0
H204 H 0.49856 0.4017 0.3785 0.0
H205 H 0.563 0.39102 0.35017 0.0
H206 H 0.6796 0.45484 0.48447 0.0
H207 H 0.61625 0.46642 0.51234 0.0
Pr208 Pr 0.03556 0.55333 0.9762 0.0
Pr209 Pr 0.03346 0.48982 0.03266 0.0
C210 C 1.00921 0.6016 0.92492 0.0
C211 C 0.96743 0.61316 0.92097 0.0
C212 C 0.97985 0.65754 0.92077 0.0
C213 C 0.93985 0.66838 0.91687 0.0
C214 C 0.88706 0.63491 0.91336 0.0
C215 C 0.87542 0.59091 0.91517 0.0
C216 C 0.91521 0.58019 0.91897 0.0
C217 C 0.13169 0.58985 0.04712 0.0
C218 C 0.9916 0.55578 0.06703 0.0
C219 C 0.05525 0.4387 0.08332 0.0
C220 C 0.09625 0.42614 0.09142 0.0
C221 C 0.09164 0.39346 0.11601 0.0
C222 C 0.13478 0.38693 0.13077 0.0
C223 C 0.18319 0.41324 0.1212 0.0
C224 C 0.18556 0.44302 0.09291 0.0
C225 C 0.14253 0.44964 0.07838 0.0
C226 C 0.93368 0.45684 0.96853 0.0
C227 C 0.09114 0.49789 0.94816 0.0
O228 O 0.99223 0.55883 0.90972 0.0
O229 O 0.04796 0.62048 0.96369 0.0
O230 O 0.08514 0.56689 0.05009 0.0
O231 O 0.13008 0.59451 1.00579 0.0
O232 O 0.01115 0.53038 0.08059 0.0
O233 O 0.98938 0.56365 0.02585 0.0
O234 O 0.07312 0.48153 0.09908 0.0
O235 O 0.02002 0.42167 0.04267 0.0
O236 O 0.97823 0.476 0.96046 0.0
O237 O 0.9396 0.45275 0.01022 0.0
O238 O 0.07057 0.52199 0.93309 0.0
O239 O 0.08717 0.48614 0.98718 0.0
H240 H 0.02021 0.68354 0.923 0.0
H241 H 0.94982 0.70257 0.91551 0.0
H242 H 0.8349 0.56411 0.91146 0.0
H243 H 0.90482 0.54582 0.9194 0.0
H244 H 0.0559 0.37483 0.12597 0.0
H245 H 0.13147 0.36372 0.15248 0.0
H246 H 0.22176 0.46298 0.08404 0.0
H247 H 0.14654 0.4748 0.059 0.0
C248 C 0.33128 0.28337 0.43773 0.0
C249 C 0.33643 0.26872 0.39635 0.0
H250 H 0.28516 0.26697 0.48357 0.0
C251 C 0.29227 0.22975 0.36455 0.0
H252 H 0.36445 0.31367 0.46254 0.0
C253 C 0.24615 0.20302 0.37634 0.0
C254 C 0.24399 0.21482 0.42015 0.0
H255 H 0.29513 0.21742 0.33246 0.0
H256 H 0.2144 0.17115 0.35286 0.0
C257 C 0.28536 0.25678 0.44949 0.0
C258 C 0.30169 0.83976 0.92032 0.0
C259 C 0.28429 0.85556 0.88394 0.0
H260 H 0.35409 0.8578 0.98843 0.0
C261 C 0.30208 0.90195 0.89057 0.0
H262 H 0.28833 0.80415 0.91623 0.0
C263 C 0.33944 0.93234 0.93171 0.0
C264 C 0.3588 0.91673 0.96705 0.0
H265 H 0.28974 0.91521 0.86306 0.0
H266 H 0.35557 0.96831 0.93495 0.0
C267 C 0.33876 0.87022 0.96166 0.0
C268 C 0.66531 0.4866 0.65496 0.0
C269 C 0.62462 0.44944 0.66504 0.0
H270 H 0.68658 0.54575 0.62821 0.0
C271 C 0.57265 0.44275 0.654 0.0
H272 H 0.70573 0.49254 0.66309 0.0
C273 C 0.56143 0.47231 0.63289 0.0
C274 C 0.60231 0.50992 0.62361 0.0
H275 H 0.5404 0.41426 0.66107 0.0
H276 H 0.52091 0.46621 0.62464 0.0
C277 C 0.65443 0.517 0.63507 0.0
C278 C 0.96602 0.59385 0.17513 0.0
C279 C 0.95239 0.62621 0.16418 0.0
H280 H 0.98823 0.54631 0.15374 0.0
C281 C 0.95 0.63388 0.12009 0.0
H282 H 0.96774 0.58635 0.20833 0.0
C283 C 0.96157 0.61057 0.08845 0.0
C284 C 0.9758 0.57859 0.09966 0.0
H285 H 0.93936 0.65816 0.10997 0.0
H286 H 0.95992 0.6181 0.05526 0.0
C287 C 0.97753 0.57054 0.14352 0.0
C288 C 0.48026 0.29587 0.28031 0.0
C289 C 0.43858 0.30228 0.25871 0.0
H290 H 0.51532 0.25456 0.27835 0.0
C291 C 0.39891 0.27122 0.21856 0.0
H292 H 0.51037 0.31878 0.3119 0.0
C293 C 0.40195 0.23497 0.19916 0.0
C294 C 0.44411 0.22887 0.22028 0.0
H295 H 0.36629 0.27564 0.20165 0.0
H296 H 0.37125 0.21156 0.16778 0.0
C297 C 0.48278 0.25905 0.26139 0.0
C298 C 0.05307 0.88224 0.67892 0.0
C299 C 0.10005 0.88243 0.67817 0.0
H300 H 1.00162 0.90779 0.65706 0.0
C301 C 0.13317 0.91132 0.65544 0.0
H302 H 0.02683 0.86048 0.69628 0.0
C303 C 0.11921 0.93919 0.63347 0.0
C304 C 0.07145 0.93812 0.63328 0.0
H305 H 0.17003 0.91257 0.65485 0.0
H306 H 0.14512 0.96067 0.61575 0.0
C307 C 0.03874 0.90951 0.65649 0.0
C308 C 0.81192 0.3633 0.8734 0.0
C309 C 0.77945 0.3823 0.8647 0.0
H310 H 0.8876 0.37299 0.91257 0.0
C311 C 0.7978 0.42548 0.89086 0.0
H312 H 0.79906 0.33042 0.85306 0.0
C313 C 0.84753 0.44916 0.92531 0.0
C314 C 0.88092 0.43109 0.93274 0.0
H315 H 0.77372 0.44101 0.88444 0.0
H316 H 0.86021 0.48185 0.94585 0.0
C317 C 0.86262 0.38777 0.90692 0.0
C318 C 0.7305 0.67762 0.46219 0.0
C319 C 0.73072 0.6465 0.42954 0.0
H320 H 0.69732 0.68723 0.51399 0.0
C321 C 0.69893 0.60002 0.42646 0.0
H322 H 0.75488 0.71374 0.46563 0.0
C323 C 0.66652 0.58492 0.4545 0.0
C324 C 0.66477 0.61591 0.48608 0.0
H325 H 0.69838 0.57518 0.4019 0.0
H326 H 0.64159 0.54871 0.4503 0.0
C327 C 0.69771 0.66248 0.49009 0.0
C328 C 0.27626 0.37908 0.18713 0.0
C329 C 0.32358 0.42152 0.20723 0.0
H330 H 0.19513 0.3427 0.14205 0.0
C331 C 0.32621 0.46016 0.19495 0.0
H332 H 0.27365 0.34866 0.1956 0.0
C333 C 0.28127 0.45694 0.16515 0.0
C334 C 0.23294 0.41483 0.14634 0.0
H335 H 0.36216 0.49328 0.21023 0.0
H336 H 0.28372 0.48796 0.15889 0.0
C337 C 0.23144 0.37569 0.15655 0.0
C338 C 0.5548 0.15777 0.94084 0.0
C339 C 0.6041 0.16311 0.93862 0.0
H340 H 0.48848 0.12584 0.96752 0.0
C341 C 0.62329 0.13836 0.96145 0.0
H342 H 0.53866 0.17611 0.92343 0.0
C343 C 0.59511 0.11035 0.98716 0.0
C344 C 0.54631 0.10546 0.98994 0.0
H345 H 0.66094 0.14145 0.96044 0.0
H346 H 0.61193 0.09281 1.00532 0.0
C347 C 0.52591 0.12886 0.96591 0.0
C348 C 0.98426 0.85502 0.38002 0.0
C349 C 0.93299 0.81834 0.37504 0.0
H350 H 0.04481 0.92413 0.41297 0.0
C351 C 0.90275 0.82556 0.4009 0.0
H352 H 1.00905 0.85115 0.36134 0.0
C353 C 0.9234 0.86768 0.43106 0.0
C354 C 0.97489 0.90414 0.43612 0.0
H355 H 0.86286 0.79838 0.39819 0.0
H356 H 0.89918 0.87154 0.45047 0.0
C357 C 1.00472 0.89707 0.40992 0.0
C358 C 0.35249 0.72423 0.68686 0.0
C359 C 0.33553 0.70945 0.72392 0.0
H360 H 0.40162 0.728 0.645 0.0
C361 C 0.35697 0.68665 0.74805 0.0
H362 H 0.33686 0.74191 0.66759 0.0
C363 C 0.39439 0.6786 0.735 0.0
C364 C 0.41047 0.69275 0.6973 0.0
H365 H 0.34483 0.67502 0.77693 0.0
H366 H 0.40992 0.66061 0.75384 0.0
C367 C 0.38933 0.7159 0.67366 0.0
C368 C 0.7089 0.73591 0.68262 0.0
C369 C 0.71822 0.7444 0.7299 0.0
H370 H 0.73115 0.76158 0.62638 0.0
C371 C 0.75941 0.78766 0.75728 0.0
H372 H 0.67848 0.70299 0.66043 0.0
C373 C 0.79017 0.82162 0.73741 0.0
C374 C 0.78064 0.81225 0.69015 0.0
H375 H 0.7693 0.79508 0.79389 0.0
H376 H 0.82215 0.85452 0.75887 0.0
C377 C 0.73948 0.76938 0.66303 0.0
C378 C 0.72213 0.20192 0.21417 0.0
C379 C 0.75147 0.18938 0.24584 0.0
H380 H 0.65381 0.17914 0.15532 0.0
C381 C 0.7371 0.14372 0.23895 0.0
H382 H 0.73257 0.23689 0.21809 0.0
C383 C 0.69243 0.11097 0.2027 0.0
C384 C 0.66124 0.12336 0.17331 0.0
H385 H 0.75867 0.13289 0.26274 0.0
H386 H 0.68072 0.07571 0.19896 0.0
C387 C 0.677 0.16904 0.17843 0.0
C388 C 0.52068 0.65986 0.39199 0.0
C389 C 0.48134 0.67159 0.39149 0.0
H390 H 0.5532 0.6189 0.41449 0.0
C391 C 0.44558 0.65089 0.41645 0.0
H392 H 0.54916 0.67502 0.37356 0.0
C393 C 0.44862 0.61935 0.44059 0.0
C394 C 0.4871 0.60708 0.44019 0.0
H395 H 0.41506 0.65915 0.41747 0.0
H396 H 0.42014 0.60391 0.45897 0.0
C397 C 0.52316 0.62777 0.41563 0.0
C398 C 0.15229 0.48358 0.85486 0.0
C399 C 0.16393 0.44998 0.86485 0.0
H400 H 0.11978 0.52442 0.87232 0.0
C401 C 0.15355 0.434 0.90375 0.0
H402 H 0.1595 0.49677 0.82531 0.0
C403 C 0.13163 0.4504 0.93125 0.0
C404 C 0.11817 0.48282 0.92044 0.0
H405 H 0.1623 0.40847 0.91303 0.0
H406 H 0.12414 0.43679 0.96055 0.0
C407 C 0.12927 0.49938 0.8819 0.0
C408 C 0.56952 0.8183 0.8035 0.0
C409 C 0.57588 0.78562 0.82253 0.0
H410 H 0.55007 0.86944 0.81213 0.0
C411 C 0.55066 0.76849 0.85498 0.0
H412 H 0.58792 0.83129 0.77772 0.0
C413 C 0.52673 0.78899 0.87349 0.0
C414 C 0.5305 0.82812 0.86122 0.0
H415 H 0.55378 0.74213 0.86895 0.0
H416 H 0.5116 0.77784 0.90136 0.0
C417 C 0.54728 0.8399 0.82309 0.0
C418 C 0.96371 0.13747 0.42698 0.0
C419 C 0.91903 0.13868 0.43306 0.0
H420 H 0.01258 0.10792 0.43953 0.0
C421 C 0.88684 0.10759 0.45481 0.0
H422 H 0.98928 0.1608 0.41026 0.0
C423 C 0.89986 0.07683 0.47116 0.0
C424 C 0.94563 0.07671 0.46646 0.0
H425 H 0.85208 0.10755 0.46 0.0
H426 H 0.87513 0.05434 0.48898 0.0
C427 C 0.97699 0.10702 0.44368 0.0
C428 C 0.214 0.65852 0.16841 0.0
C429 C 0.26541 0.68508 0.16421 0.0
H430 H 0.13149 0.60734 0.13458 0.0
C431 C 0.27285 0.67887 0.12139 0.0
H432 H 0.2068 0.66278 0.20078 0.0
C433 C 0.2297 0.64722 0.08342 0.0
C434 C 0.1783 0.62103 0.08755 0.0
H435 H 0.31201 0.69877 0.11703 0.0
H436 H 0.23647 0.64356 0.05077 0.0
C437 C 0.17091 0.62673 0.13047 0.0
C438 C 0.37138 0.51426 0.6635 0.0
C439 C 0.33978 0.46834 0.66289 0.0
H440 H 0.42397 0.56352 0.63461 0.0
C441 C 0.33739 0.43591 0.6296 0.0
H442 H 0.37439 0.54023 0.68852 0.0
C443 C 0.36693 0.44933 0.59849 0.0
C444 C 0.3988 0.49553 0.59936 0.0
H445 H 0.314 0.4002 0.62854 0.0
H446 H 0.36583 0.42364 0.57464 0.0
C447 C 0.39979 0.52756 0.6321 0.0
C448 C 0.75018 0.61992 0.89773 0.0
C449 C 0.74414 0.63575 0.85836 0.0
H450 H 0.80217 0.60835 0.94747 0.0
C451 C 0.78842 0.65907 0.84289 0.0
H452 H 0.7162 0.60194 0.91 0.0
C453 C 0.83728 0.66303 0.86415 0.0
C454 C 0.84214 0.6431 0.90078 0.0
H455 H 0.78418 0.67166 0.81252 0.0
H456 H 0.86951 0.67802 0.84925 0.0
C457 C 0.79912 0.62354 0.9189 0.0
C458 C 0.44311 0.89365 0.20202 0.0
C459 C 0.47171 0.87164 0.21542 0.0
H460 H 0.42987 0.93492 0.15912 0.0
C461 C 0.51063 0.87614 0.19458 0.0
H462 H 0.41253 0.89102 0.21697 0.0
C463 C 0.51998 0.90099 0.16105 0.0
C464 C 0.49107 0.92248 0.14735 0.0
H465 H 0.5336 0.86006 0.2038 0.0
H466 H 0.55028 0.90342 0.14581 0.0
C467 C 0.45284 0.91889 0.16868 0.0
C468 C 0.05052 0.16206 0.71203 0.0
C469 C 0.10239 0.19666 0.71497 0.0
H470 H 0.98602 0.0941 0.68205 0.0
C471 C 0.12983 0.18674 0.68821 0.0
H472 H 0.02769 0.1681 0.73161 0.0
C473 C 0.10531 0.14312 0.65907 0.0
C474 C 0.05296 0.10885 0.65624 0.0
H475 H 0.17005 0.21251 0.68987 0.0
H476 H 0.12713 0.13635 0.63889 0.0
C477 C 0.0264 0.1192 0.68334 0.0
C478 C 0.69677 0.3917 0.3403 0.0
C479 C 0.72821 0.37981 0.37051 0.0
H480 H 0.64118 0.41485 0.33067 0.0
C481 C 0.72726 0.38289 0.4157 0.0
H482 H 0.69664 0.38981 0.30519 0.0
C483 C 0.69473 0.39645 0.43012 0.0
C484 C 0.66259 0.40789 0.39993 0.0
H485 H 0.75059 0.37364 0.43978 0.0
H486 H 0.69372 0.39655 0.46479 0.0
C487 C 0.66454 0.40574 0.35486 0.0
loop_
_geom_bond_atom_site_label_1
_geom_bond_atom_site_label_2
_geom_bond_distance
_geom_bond_site_symmetry_2
_ccdc_geom_bond_type
O0 Cd1 2.300 . S
O0 C7 1.275 . S
Cd1 O0 2.300 . S
Cd1 O9 2.381 . S
Cd1 O10 2.378 . S
O2 Cd3 2.385 . S
O2 C7 1.255 . S
Cd3 O2 2.385 . S
Cd3 O4 2.317 . S
O4 Cd3 2.317 . S
O4 C5 1.232 . S
C5 O4 1.232 . S
C5 O6 1.218 . S
O6 C5 1.218 . S
C7 O0 1.275 . S
C7 O2 1.255 . S
C8 O9 1.258 . S
C8 O10 1.256 . S
O9 Cd1 2.381 . S
O9 C8 1.258 . S
O10 Cd1 2.378 . S
O10 C8 1.256 . S
O11 Cd12 2.300 . S
O11 C18 1.275 . S
Cd12 O11 2.300 . S
Cd12 O20 2.381 . S
Cd12 O21 2.378 . S
O13 Cd14 2.385 . S
O13 C18 1.255 . S
Cd14 O13 2.385 . S
Cd14 O15 2.317 . S
O15 Cd14 2.317 . S
O15 C16 1.232 . S
C16 O15 1.232 . S
C16 O17 1.218 . S
O17 C16 1.218 . S
C18 O11 1.275 . S
C18 O13 1.255 . S
C19 O20 1.258 . S
C19 O21 1.256 . S
O20 Cd12 2.381 . S
O20 C19 1.258 . S
O21 Cd12 2.378 . S
O21 C19 1.256 . S
O22 Cd23 2.300 . S
O22 C29 1.275 . S
Cd23 O22 2.300 . S
Cd23 O31 2.381 . S
Cd23 O32 2.378 . S
O24 Cd25 2.385 . S
O24 C29 1.255 . S
Cd25 O24 2.385 . S
Cd25 O26 2.317 . S
O26 Cd25 2.317 . S
O26 C27 1.232 . S
C27 O26 1.232 . S
C27 O28 1.218 . S
O28 C27 1.218 . S
C29 O22 1.275 . S
C29 O24 1.255 . S
C30 O31 1.258 . S
C30 O32 1.256 . S
O31 Cd23 2.381 . S
O31 C30 1.258 . S
O32 Cd23 2.378 . S
O32 C30 1.256 . S
O33 Cd34 2.300 . S
O33 C40 1.275 . S
Cd34 O33 2.300 . S
Cd34 O42 2.381 . S
Cd34 O43 2.378 . S
O35 Cd36 2.385 . S
O35 C40 1.255 . S
Cd36 O35 2.385 . S
Cd36 O37 2.317 . S
O37 Cd36 2.317 . S
O37 C38 1.232 . S
C38 O37 1.232 . S
C38 O39 1.218 . S
O39 C38 1.218 . S
C40 O33 1.275 . S
C40 O35 1.255 . S
C41 O42 1.258 . S
C41 O43 1.256 . S
O42 Cd34 2.381 . S
O42 C41 1.258 . S
O43 Cd34 2.378 . S
O43 C41 1.256 . S
O44 Cd45 2.300 . S
O44 C51 1.275 . S
Cd45 O44 2.300 . S
Cd45 O53 2.381 . S
Cd45 O54 2.378 . S
O46 Cd47 2.385 . S
O46 C51 1.255 . S
Cd47 O46 2.385 . S
Cd47 O48 2.317 . S
O48 Cd47 2.317 . S
O48 C49 1.232 . S
C49 O48 1.232 . S
C49 O50 1.218 . S
O50 C49 1.218 . S
C51 O44 1.275 . S
C51 O46 1.255 . S
C52 O53 1.258 . S
C52 O54 1.256 . S
O53 Cd45 2.381 . S
O53 C52 1.258 . S
O54 Cd45 2.378 . S
O54 C52 1.256 . S
O55 Cd56 2.300 . S
O55 C62 1.275 . S
Cd56 O55 2.300 . S
Cd56 O64 2.381 . S
Cd56 O65 2.378 . S
O57 Cd58 2.385 . S
O57 C62 1.255 . S
Cd58 O57 2.385 . S
Cd58 O59 2.317 . S
O59 Cd58 2.317 . S
O59 C60 1.232 . S
C60 O59 1.232 . S
C60 O61 1.218 . S
O61 C60 1.218 . S
C62 O55 1.275 . S
C62 O57 1.255 . S
C63 O64 1.258 . S
C63 O65 1.256 . S
O64 Cd56 2.381 . S
O64 C63 1.258 . S
O65 Cd56 2.378 . S
O65 C63 1.256 . S
O66 Cd67 2.300 . S
O66 C73 1.275 . S
Cd67 O66 2.300 . S
Cd67 O75 2.381 . S
Cd67 O76 2.378 . S
O68 Cd69 2.385 . S
O68 C73 1.255 . S
Cd69 O68 2.385 . S
Cd69 O70 2.317 . S
O70 Cd69 2.317 . S
O70 C71 1.232 . S
C71 O70 1.232 . S
C71 O72 1.218 . S
O72 C71 1.218 . S
C73 O66 1.275 . S
C73 O68 1.255 . S
C74 O75 1.258 . S
C74 O76 1.256 . S
O75 Cd67 2.381 . S
O75 C74 1.258 . S
O76 Cd67 2.378 . S
O76 C74 1.256 . S
O77 Cd78 2.300 . S
O77 C84 1.275 . S
Cd78 O77 2.300 . S
Cd78 O86 2.381 . S
Cd78 O87 2.378 . S
O79 Cd80 2.385 . S
O79 C84 1.255 . S
Cd80 O79 2.385 . S
Cd80 O81 2.317 . S
O81 Cd80 2.317 . S
O81 C82 1.232 . S
C82 O81 1.232 . S
C82 O83 1.218 . S
O83 C82 1.218 . S
C84 O77 1.275 . S
C84 O79 1.255 . S
C85 O86 1.258 . S
C85 O87 1.256 . S
O86 Cd78 2.381 . S
O86 C85 1.258 . S
O87 Cd78 2.378 . S
O87 C85 1.256 . S
Pr88 C90 2.880 . S
Pr88 O108 2.562 . S
Pr88 O109 2.490 . S
Pr88 O110 2.695 1_665 S
Pr88 O111 2.513 1_565 S
Pr88 O113 2.437 1_655 S
Pr88 O116 2.436 . S
Pr88 O118 2.438 1_565 S
Pr89 C99 2.880 . S
Pr89 O110 2.436 . S
Pr89 O112 2.438 1_545 S
Pr89 O114 2.562 . S
Pr89 O115 2.490 . S
Pr89 O116 2.695 1_445 S
Pr89 O117 2.512 1_545 S
Pr89 O119 2.437 1_455 S
C90 Pr88 2.880 . S
C90 C91 1.491 . S
C90 O108 1.254 . S
C90 O109 1.225 . S
C91 C90 1.491 . S
C91 C92 1.392 . S
C91 C96 1.356 . S
C92 C91 1.392 . S
C92 C93 1.368 . S
C92 H120 0.929 . S
C93 C92 1.368 . S
C93 C94 1.386 . S
C93 H121 0.929 . S
C94 C93 1.386 . S
C94 C95 1.373 . S
C95 C94 1.373 . S
C95 C96 1.409 . S
C95 H122 0.931 . S
C96 C91 1.356 . S
C96 C95 1.409 . S
C96 H123 0.930 . S
C97 O110 1.270 . S
C97 O111 1.238 1_455 S
C98 O112 1.267 . S
C98 O113 1.278 . S
C99 Pr89 2.880 . S
C99 C100 1.491 . S
C99 O114 1.254 . S
C99 O115 1.225 . S
C100 C99 1.491 . S
C100 C101 1.392 . S
C100 C105 1.356 . S
C101 C100 1.392 . S
C101 C102 1.368 . S
C101 H124 0.929 . S
C102 C101 1.368 . S
C102 C103 1.386 . S
C102 H125 0.929 . S
C103 C102 1.386 . S
C103 C104 1.373 . S
C104 C103 1.373 . S
C104 C105 1.409 . S
C104 H126 0.931 . S
C105 C100 1.356 . S
C105 C104 1.409 . S
C105 H127 0.930 . S
C106 O116 1.270 . S
C106 O117 1.248 1_655 S
C107 O118 1.267 . S
C107 O119 1.278 . S
O108 Pr88 2.562 . S
O108 C90 1.254 . S
O109 Pr88 2.490 . S
O109 C90 1.225 . S
O110 Pr88 2.695 1_445 S
O110 Pr89 2.436 . S
O110 C97 1.270 . S
O111 Pr88 2.513 1_545 S
O111 C97 1.238 1_655 S
O112 Pr89 2.438 1_565 S
O112 C98 1.267 . S
O113 Pr88 2.437 1_455 S
O113 C98 1.278 . S
O114 Pr89 2.562 . S
O114 C99 1.254 . S
O115 Pr89 2.490 . S
O115 C99 1.225 . S
O116 Pr88 2.436 . S
O116 Pr89 2.695 1_665 S
O116 C106 1.270 . S
O117 Pr89 2.512 1_565 S
O117 C106 1.248 1_455 S
O118 Pr88 2.438 1_545 S
O118 C107 1.267 . S
O119 Pr89 2.437 1_655 S
O119 C107 1.278 . S
H120 C92 0.929 . S
H121 C93 0.929 . S
H122 C95 0.931 . S
H123 C96 0.930 . S
H124 C101 0.929 . S
H125 C102 0.929 . S
H126 C104 0.931 . S
H127 C105 0.930 . S
Pr128 C130 2.880 . S
Pr128 O148 2.562 . S
Pr128 O149 2.490 . S
Pr128 O150 2.695 . S
Pr128 O151 2.512 . S
Pr128 O153 2.437 . S
Pr128 O156 2.436 . S
Pr128 O158 2.438 1_544 S
Pr129 C139 2.880 1_544 S
Pr129 O150 2.436 . S
Pr129 O152 2.438 . S
Pr129 O154 2.562 1_544 S
Pr129 O155 2.490 1_545 S
Pr129 O156 2.695 . S
Pr129 O157 2.512 1_545 S
Pr129 O159 2.437 1_544 S
C130 Pr128 2.880 . S
C130 C131 1.491 . S
C130 O148 1.254 . S
C130 O149 1.225 . S
C131 C130 1.491 . S
C131 C132 1.392 . S
C131 C136 1.356 . S
C132 C131 1.392 . S
C132 C133 1.368 . S
C132 H160 0.929 . S
C133 C132 1.368 . S
C133 C134 1.386 . S
C133 H161 0.929 . S
C134 C133 1.386 . S
C134 C135 1.373 . S
C135 C134 1.373 . S
C135 C136 1.409 . S
C135 H162 0.931 . S
C136 C131 1.356 . S
C136 C135 1.409 . S
C136 H163 0.930 . S
C137 O150 1.270 1_556 S
C137 O151 1.248 1_556 S
C138 O152 1.267 . S
C138 O153 1.278 . S
C139 Pr129 2.880 1_566 S
C139 C140 1.491 . S
C139 O154 1.254 . S
C139 O155 1.225 1_556 S
C140 C139 1.491 . S
C140 C141 1.392 . S
C140 C145 1.356 . S
C141 C140 1.392 . S
C141 C142 1.368 . S
C141 H164 0.929 . S
C142 C141 1.368 . S
C142 C143 1.386 . S
C142 H165 0.929 . S
C143 C142 1.386 . S
C143 C144 1.373 . S
C144 C143 1.373 . S
C144 C145 1.409 . S
C144 H166 0.931 . S
C145 C140 1.356 . S
C145 C144 1.409 . S
C145 H167 0.930 . S
C146 O156 1.270 1_565 S
C146 O157 1.248 . S
C147 O158 1.267 . S
C147 O159 1.278 . S
O148 Pr128 2.562 . S
O148 C130 1.254 . S
O149 Pr128 2.490 . S
O149 C130 1.225 . S
O150 Pr128 2.695 . S
O150 Pr129 2.436 . S
O150 C137 1.270 1_554 S
O151 Pr128 2.512 . S
O151 C137 1.248 1_554 S
O152 Pr129 2.438 . S
O152 C138 1.267 . S
O153 Pr128 2.437 . S
O153 C138 1.278 . S
O154 Pr129 2.562 1_566 S
O154 C139 1.254 . S
O155 Pr129 2.490 1_565 S
O155 C139 1.225 1_554 S
O156 Pr128 2.436 . S
O156 Pr129 2.695 . S
O156 C146 1.270 1_545 S
O157 Pr129 2.512 1_565 S
O157 C146 1.248 . S
O158 Pr128 2.438 1_566 S
O158 C147 1.267 . S
O159 Pr129 2.437 1_566 S
O159 C147 1.278 . S
H160 C132 0.929 . S
H161 C133 0.929 . S
H162 C135 0.931 . S
H163 C136 0.930 . S
H164 C141 0.929 . S
H165 C142 0.929 . S
H166 C144 0.931 . S
H167 C145 0.930 . S
Pr168 C170 2.880 . S
Pr168 O188 2.562 . S
Pr168 O189 2.490 . S
Pr168 O190 2.695 . S
Pr168 O191 2.512 . S
Pr168 O193 2.437 . S
Pr168 O196 2.436 . S
Pr168 O198 2.438 . S
Pr169 C179 2.880 . S
Pr169 O190 2.436 . S
Pr169 O192 2.438 . S
Pr169 O194 2.562 . S
Pr169 O195 2.490 . S
Pr169 O196 2.695 . S
Pr169 O197 2.512 . S
Pr169 O199 2.437 . S
C170 Pr168 2.880 . S
C170 C171 1.491 . S
C170 O188 1.254 . S
C170 O189 1.225 . S
C171 C170 1.491 . S
C171 C172 1.392 . S
C171 C176 1.356 . S
C172 C171 1.392 . S
C172 C173 1.368 . S
C172 H200 0.929 . S
C173 C172 1.368 . S
C173 C174 1.386 . S
C173 H201 0.929 . S
C174 C173 1.386 . S
C174 C175 1.373 . S
C175 C174 1.373 . S
C175 C176 1.409 . S
C175 H202 0.931 . S
C176 C171 1.356 . S
C176 C175 1.409 . S
C176 H203 0.930 . S
C177 O190 1.270 . S
C177 O191 1.248 . S
C178 O192 1.267 . S
C178 O193 1.278 . S
C179 Pr169 2.880 . S
C179 C180 1.491 . S
C179 O194 1.254 . S
C179 O195 1.225 . S
C180 C179 1.491 . S
C180 C181 1.392 . S
C180 C185 1.356 . S
C181 C180 1.392 . S
C181 C182 1.368 . S
C181 H204 0.929 . S
C182 C181 1.368 . S
C182 C183 1.386 . S
C182 H205 0.929 . S
C183 C182 1.386 . S
C183 C184 1.373 . S
C184 C183 1.373 . S
C184 C185 1.409 . S
C184 H206 0.931 . S
C185 C180 1.356 . S
C185 C184 1.409 . S
C185 H207 0.930 . S
C186 O196 1.270 . S
C186 O197 1.248 . S
C187 O198 1.267 . S
C187 O199 1.278 . S
O188 Pr168 2.562 . S
O188 C170 1.254 . S
O189 Pr168 2.490 . S
O189 C170 1.225 . S
O190 Pr168 2.695 . S
O190 Pr169 2.436 . S
O190 C177 1.270 . S
O191 Pr168 2.512 . S
O191 C177 1.248 . S
O192 Pr169 2.438 . S
O192 C178 1.267 . S
O193 Pr168 2.437 . S
O193 C178 1.278 . S
O194 Pr169 2.562 . S
O194 C179 1.254 . S
O195 Pr169 2.490 . S
O195 C179 1.225 . S
O196 Pr168 2.436 . S
O196 Pr169 2.695 . S
O196 C186 1.270 . S
O197 Pr169 2.512 . S
O197 C186 1.248 . S
O198 Pr168 2.438 . S
O198 C187 1.267 . S
O199 Pr169 2.437 . S
O199 C187 1.278 . S
H200 C172 0.929 . S
H201 C173 0.929 . S
H202 C175 0.931 . S
H203 C176 0.930 . S
H204 C181 0.929 . S
H205 C182 0.929 . S
H206 C184 0.931 . S
H207 C185 0.930 . S
Pr208 C210 2.880 1_455 S
Pr208 O228 2.562 1_455 S
Pr208 O229 2.490 . S
Pr208 O230 2.695 1_556 S
Pr208 O231 2.512 1_556 S
Pr208 O233 2.437 1_556 S
Pr208 O236 2.436 1_455 S
Pr208 O238 2.438 . S
Pr209 C219 2.880 . S
Pr209 O230 2.436 . S
Pr209 O232 2.438 1_455 S
Pr209 O234 2.562 . S
Pr209 O235 2.490 . S
Pr209 O236 2.695 1_454 S
Pr209 O237 2.512 1_454 S
Pr209 O239 2.437 1_554 S
C210 Pr208 2.880 1_655 S
C210 C211 1.491 . S
C210 O228 1.254 . S
C210 O229 1.225 1_655 S
C211 C210 1.491 . S
C211 C212 1.392 . S
C211 C216 1.356 . S
C212 C211 1.392 . S
C212 C213 1.368 . S
C212 H240 0.929 1_655 S
C213 C212 1.368 . S
C213 C214 1.386 . S
C213 H241 0.929 . S
C214 C213 1.386 . S
C214 C215 1.373 . S
C215 C214 1.373 . S
C215 C216 1.409 . S
C215 H242 0.931 . S
C216 C211 1.356 . S
C216 C215 1.409 . S
C216 H243 0.930 . S
C217 O230 1.270 . S
C217 O231 1.248 . S
C218 O232 1.267 . S
C218 O233 1.278 1_655 S
C219 Pr209 2.880 . S
C219 C220 1.491 . S
C219 O234 1.254 . S
C219 O235 1.225 . S
C220 C219 1.491 . S
C220 C221 1.392 . S
C220 C225 1.356 . S
C221 C220 1.392 . S
C221 C222 1.368 . S
C221 H244 0.929 . S
C222 C221 1.368 . S
C222 C223 1.386 . S
C222 H245 0.929 . S
C223 C222 1.386 . S
C223 C224 1.373 . S
C224 C223 1.373 . S
C224 C225 1.409 . S
C224 H246 0.931 . S
C225 C220 1.356 . S
C225 C224 1.409 . S
C225 H247 0.930 . S
C226 O236 1.270 . S
C226 O237 1.248 . S
C227 O238 1.267 . S
C227 O239 1.278 . S
O228 Pr208 2.562 1_655 S
O228 C210 1.254 . S
O229 Pr208 2.490 . S
O229 C210 1.225 1_455 S
O230 Pr208 2.695 1_554 S
O230 Pr209 2.436 . S
O230 C217 1.270 . S
O231 Pr208 2.512 1_554 S
O231 C217 1.248 . S
O232 Pr209 2.438 1_655 S
O232 C218 1.267 . S
O233 Pr208 2.437 1_554 S
O233 C218 1.278 1_455 S
O234 Pr209 2.562 . S
O234 C219 1.254 . S
O235 Pr209 2.490 . S
O235 C219 1.225 . S
O236 Pr208 2.436 1_655 S
O236 Pr209 2.695 1_656 S
O236 C226 1.270 . S
O237 Pr209 2.512 1_656 S
O237 C226 1.248 . S
O238 Pr208 2.438 . S
O238 C227 1.267 . S
O239 Pr209 2.437 1_556 S
O239 C227 1.278 . S
H240 C212 0.929 1_455 S
H241 C213 0.929 . S
H242 C215 0.931 . S
H243 C216 0.930 . S
H244 C221 0.929 . S
H245 C222 0.929 . S
H246 C224 0.931 . S
H247 C225 0.930 . S
C248 C249 1.387 . S
C248 H252 0.950 . S
C248 C257 1.390 . S
C249 C248 1.387 . S
C249 C251 1.387 . S
H250 C257 0.950 . S
C251 C249 1.387 . S
C251 C253 1.390 . S
C251 H255 0.950 . S
H252 C248 0.950 . S
C253 C251 1.390 . S
C253 C254 1.387 . S
C253 H256 0.950 . S
C254 C253 1.387 . S
C254 C257 1.387 . S
H255 C251 0.950 . S
H256 C253 0.950 . S
C257 C248 1.390 . S
C257 H250 0.950 . S
C257 C254 1.387 . S
C258 C259 1.387 . S
C258 H262 0.950 . S
C258 C267 1.390 . S
C259 C258 1.387 . S
C259 C261 1.387 . S
H260 C267 0.950 . S
C261 C259 1.387 . S
C261 C263 1.390 . S
C261 H265 0.950 . S
H262 C258 0.950 . S
C263 C261 1.390 . S
C263 C264 1.387 . S
C263 H266 0.950 . S
C264 C263 1.387 . S
C264 C267 1.387 . S
H265 C261 0.950 . S
H266 C263 0.950 . S
C267 C258 1.390 . S
C267 H260 0.950 . S
C267 C264 1.387 . S
C268 C269 1.387 . S
C268 H272 0.950 . S
C268 C277 1.390 . S
C269 C268 1.387 . S
C269 C271 1.387 . S
H270 C277 0.950 . S
C271 C269 1.387 . S
C271 C273 1.390 . S
C271 H275 0.950 . S
H272 C268 0.950 . S
C273 C271 1.390 . S
C273 C274 1.387 . S
C273 H276 0.950 . S
C274 C273 1.387 . S
C274 C277 1.387 . S
H275 C271 0.950 . S
H276 C273 0.950 . S
C277 C268 1.390 . S
C277 H270 0.950 . S
C277 C274 1.387 . S
C278 C279 1.387 . S
C278 H282 0.950 . S
C278 C287 1.390 . S
C279 C278 1.387 . S
C279 C281 1.387 . S
H280 C287 0.950 . S
C281 C279 1.387 . S
C281 C283 1.390 . S
C281 H285 0.950 . S
H282 C278 0.950 . S
C283 C281 1.390 . S
C283 C284 1.387 . S
C283 H286 0.950 . S
C284 C283 1.387 . S
C284 C287 1.387 . S
H285 C281 0.950 . S
H286 C283 0.950 . S
C287 C278 1.390 . S
C287 H280 0.950 . S
C287 C284 1.387 . S
C288 C289 1.387 . S
C288 H292 0.950 . S
C288 C297 1.390 . S
C289 C288 1.387 . S
C289 C291 1.387 . S
H290 C297 0.950 . S
C291 C289 1.387 . S
C291 C293 1.390 . S
C291 H295 0.950 . S
H292 C288 0.950 . S
C293 C291 1.390 . S
C293 C294 1.387 . S
C293 H296 0.950 . S
C294 C293 1.387 . S
C294 C297 1.387 . S
H295 C291 0.950 . S
H296 C293 0.950 . S
C297 C288 1.390 . S
C297 H290 0.950 . S
C297 C294 1.387 . S
C298 C299 1.387 . S
C298 H302 0.950 . S
C298 C307 1.390 . S
C299 C298 1.387 . S
C299 C301 1.387 . S
H300 C307 0.950 1_655 S
C301 C299 1.387 . S
C301 C303 1.390 . S
C301 H305 0.950 . S
H302 C298 0.950 . S
C303 C301 1.390 . S
C303 C304 1.387 . S
C303 H306 0.950 . S
C304 C303 1.387 . S
C304 C307 1.387 . S
H305 C301 0.950 . S
H306 C303 0.950 . S
C307 C298 1.390 . S
C307 H300 0.950 1_455 S
C307 C304 1.387 . S
C308 C309 1.387 . S
C308 H312 0.950 . S
C308 C317 1.390 . S
C309 C308 1.387 . S
C309 C311 1.387 . S
H310 C317 0.950 . S
C311 C309 1.387 . S
C311 C313 1.390 . S
C311 H315 0.950 . S
H312 C308 0.950 . S
C313 C311 1.390 . S
C313 C314 1.387 . S
C313 H316 0.950 . S
C314 C313 1.387 . S
C314 C317 1.387 . S
H315 C311 0.950 . S
H316 C313 0.950 . S
C317 C308 1.390 . S
C317 H310 0.950 . S
C317 C314 1.387 . S
C318 C319 1.387 . S
C318 H322 0.950 . S
C318 C327 1.390 . S
C319 C318 1.387 . S
C319 C321 1.387 . S
H320 C327 0.950 . S
C321 C319 1.387 . S
C321 C323 1.390 . S
C321 H325 0.950 . S
H322 C318 0.950 . S
C323 C321 1.390 . S
C323 C324 1.387 . S
C323 H326 0.950 . S
C324 C323 1.387 . S
C324 C327 1.387 . S
H325 C321 0.950 . S
H326 C323 0.950 . S
C327 C318 1.390 . S
C327 H320 0.950 . S
C327 C324 1.387 . S
C328 C329 1.387 . S
C328 H332 0.950 . S
C328 C337 1.390 . S
C329 C328 1.387 . S
C329 C331 1.387 . S
H330 C337 0.950 . S
C331 C329 1.387 . S
C331 C333 1.390 . S
C331 H335 0.950 . S
H332 C328 0.950 . S
C333 C331 1.390 . S
C333 C334 1.387 . S
C333 H336 0.950 . S
C334 C333 1.387 . S
C334 C337 1.387 . S
H335 C331 0.950 . S
H336 C333 0.950 . S
C337 C328 1.390 . S
C337 H330 0.950 . S
C337 C334 1.387 . S
C338 C339 1.387 . S
C338 H342 0.950 . S
C338 C347 1.390 . S
C339 C338 1.387 . S
C339 C341 1.387 . S
H340 C347 0.950 . S
C341 C339 1.387 . S
C341 C343 1.390 . S
C341 H345 0.950 . S
H342 C338 0.950 . S
C343 C341 1.390 . S
C343 C344 1.387 . S
C343 H346 0.950 . S
C344 C343 1.387 . S
C344 C347 1.387 . S
H345 C341 0.950 . S
H346 C343 0.950 . S
C347 C338 1.390 . S
C347 H340 0.950 . S
C347 C344 1.387 . S
C348 C349 1.387 . S
C348 H352 0.950 . S
C348 C357 1.390 . S
C349 C348 1.387 . S
C349 C351 1.387 . S
H350 C357 0.950 . S
C351 C349 1.387 . S
C351 C353 1.390 . S
C351 H355 0.950 . S
H352 C348 0.950 . S
C353 C351 1.390 . S
C353 C354 1.387 . S
C353 H356 0.950 . S
C354 C353 1.387 . S
C354 C357 1.387 . S
H355 C351 0.950 . S
H356 C353 0.950 . S
C357 C348 1.390 . S
C357 H350 0.950 . S
C357 C354 1.387 . S
C358 C359 1.387 . S
C358 H362 0.950 . S
C358 C367 1.390 . S
C359 C358 1.387 . S
C359 C361 1.387 . S
H360 C367 0.950 . S
C361 C359 1.387 . S
C361 C363 1.390 . S
C361 H365 0.950 . S
H362 C358 0.950 . S
C363 C361 1.390 . S
C363 C364 1.387 . S
C363 H366 0.950 . S
C364 C363 1.387 . S
C364 C367 1.387 . S
H365 C361 0.950 . S
H366 C363 0.950 . S
C367 C358 1.390 . S
C367 H360 0.950 . S
C367 C364 1.387 . S
C368 C369 1.387 . S
C368 H372 0.950 . S
C368 C377 1.390 . S
C369 C368 1.387 . S
C369 C371 1.387 . S
H370 C377 0.950 . S
C371 C369 1.387 . S
C371 C373 1.390 . S
C371 H375 0.950 . S
H372 C368 0.950 . S
C373 C371 1.390 . S
C373 C374 1.387 . S
C373 H376 0.950 . S
C374 C373 1.387 . S
C374 C377 1.387 . S
H375 C371 0.950 . S
H376 C373 0.950 . S
C377 C368 1.390 . S
C377 H370 0.950 . S
C377 C374 1.387 . S
C378 C379 1.387 . S
C378 H382 0.950 . S
C378 C387 1.390 . S
C379 C378 1.387 . S
C379 C381 1.387 . S
H380 C387 0.950 . S
C381 C379 1.387 . S
C381 C383 1.390 . S
C381 H385 0.950 . S
H382 C378 0.950 . S
C383 C381 1.390 . S
C383 C384 1.387 . S
C383 H386 0.950 . S
C384 C383 1.387 . S
C384 C387 1.387 . S
H385 C381 0.950 . S
H386 C383 0.950 . S
C387 C378 1.390 . S
C387 H380 0.950 . S
C387 C384 1.387 . S
C388 C389 1.387 . S
C388 H392 0.950 . S
C388 C397 1.390 . S
C389 C388 1.387 . S
C389 C391 1.387 . S
H390 C397 0.950 . S
C391 C389 1.387 . S
C391 C393 1.390 . S
C391 H395 0.950 . S
H392 C388 0.950 . S
C393 C391 1.390 . S
C393 C394 1.387 . S
C393 H396 0.950 . S
C394 C393 1.387 . S
C394 C397 1.387 . S
H395 C391 0.950 . S
H396 C393 0.950 . S
C397 C388 1.390 . S
C397 H390 0.950 . S
C397 C394 1.387 . S
C398 C399 1.387 . S
C398 H402 0.950 . S
C398 C407 1.390 . S
C399 C398 1.387 . S
C399 C401 1.387 . S
H400 C407 0.950 . S
C401 C399 1.387 . S
C401 C403 1.390 . S
C401 H405 0.950 . S
H402 C398 0.950 . S
C403 C401 1.390 . S
C403 C404 1.387 . S
C403 H406 0.950 . S
C404 C403 1.387 . S
C404 C407 1.387 . S
H405 C401 0.950 . S
H406 C403 0.950 . S
C407 C398 1.390 . S
C407 H400 0.950 . S
C407 C404 1.387 . S
C408 C409 1.387 . S
C408 H412 0.950 . S
C408 C417 1.390 . S
C409 C408 1.387 . S
C409 C411 1.387 . S
H410 C417 0.950 . S
C411 C409 1.387 . S
C411 C413 1.390 . S
C411 H415 0.950 . S
H412 C408 0.950 . S
C413 C411 1.390 . S
C413 C414 1.387 . S
C413 H416 0.950 . S
C414 C413 1.387 . S
C414 C417 1.387 . S
H415 C411 0.950 . S
H416 C413 0.950 . S
C417 C408 1.390 . S
C417 H410 0.950 . S
C417 C414 1.387 . S
C418 C419 1.387 . S
C418 H422 0.950 1_655 S
C418 C427 1.390 . S
C419 C418 1.387 . S
C419 C421 1.387 . S
H420 C427 0.950 1_455 S
C421 C419 1.387 . S
C421 C423 1.390 . S
C421 H425 0.950 . S
H422 C418 0.950 1_455 S
C423 C421 1.390 . S
C423 C424 1.387 . S
C423 H426 0.950 . S
C424 C423 1.387 . S
C424 C427 1.387 . S
H425 C421 0.950 . S
H426 C423 0.950 . S
C427 C418 1.390 . S
C427 H420 0.950 1_655 S
C427 C424 1.387 . S
C428 C429 1.387 . S
C428 H432 0.950 . S
C428 C437 1.390 . S
C429 C428 1.387 . S
C429 C431 1.387 . S
H430 C437 0.950 . S
C431 C429 1.387 . S
C431 C433 1.390 . S
C431 H435 0.950 . S
H432 C428 0.950 . S
C433 C431 1.390 . S
C433 C434 1.387 . S
C433 H436 0.950 . S
C434 C433 1.387 . S
C434 C437 1.387 . S
H435 C431 0.950 . S
H436 C433 0.950 . S
C437 C428 1.390 . S
C437 H430 0.950 . S
C437 C434 1.387 . S
C438 C439 1.387 . S
C438 H442 0.950 . S
C438 C447 1.390 . S
C439 C438 1.387 . S
C439 C441 1.387 . S
H440 C447 0.950 . S
C441 C439 1.387 . S
C441 C443 1.390 . S
C441 H445 0.950 . S
H442 C438 0.950 . S
C443 C441 1.390 . S
C443 C444 1.387 . S
C443 H446 0.950 . S
C444 C443 1.387 . S
C444 C447 1.387 . S
H445 C441 0.950 . S
H446 C443 0.950 . S
C447 C438 1.390 . S
C447 H440 0.950 . S
C447 C444 1.387 . S
C448 C449 1.387 . S
C448 H452 0.950 . S
C448 C457 1.390 . S
C449 C448 1.387 . S
C449 C451 1.387 . S
H450 C457 0.950 . S
C451 C449 1.387 . S
C451 C453 1.390 . S
C451 H455 0.950 . S
H452 C448 0.950 . S
C453 C451 1.390 . S
C453 C454 1.387 . S
C453 H456 0.950 . S
C454 C453 1.387 . S
C454 C457 1.387 . S
H455 C451 0.950 . S
H456 C453 0.950 . S
C457 C448 1.390 . S
C457 H450 0.950 . S
C457 C454 1.387 . S
C458 C459 1.387 . S
C458 H462 0.950 . S
C458 C467 1.390 . S
C459 C458 1.387 . S
C459 C461 1.387 . S
H460 C467 0.950 . S
C461 C459 1.387 . S
C461 C463 1.390 . S
C461 H465 0.950 . S
H462 C458 0.950 . S
C463 C461 1.390 . S
C463 C464 1.387 . S
C463 H466 0.950 . S
C464 C463 1.387 . S
C464 C467 1.387 . S
H465 C461 0.950 . S
H466 C463 0.950 . S
C467 C458 1.390 . S
C467 H460 0.950 . S
C467 C464 1.387 . S
C468 C469 1.387 . S
C468 H472 0.950 . S
C468 C477 1.390 . S
C469 C468 1.387 . S
C469 C471 1.387 . S
H470 C477 0.950 1_655 S
C471 C469 1.387 . S
C471 C473 1.390 . S
C471 H475 0.950 . S
H472 C468 0.950 . S
C473 C471 1.390 . S
C473 C474 1.387 . S
C473 H476 0.950 . S
C474 C473 1.387 . S
C474 C477 1.387 . S
H475 C471 0.950 . S
H476 C473 0.950 . S
C477 C468 1.390 . S
C477 H470 0.950 1_455 S
C477 C474 1.387 . S
C478 C479 1.387 . S
C478 H482 0.950 . S
C478 C487 1.390 . S
C479 C478 1.387 . S
C479 C481 1.387 . S
H480 C487 0.950 . S
C481 C479 1.387 . S
C481 C483 1.390 . S
C481 H485 0.950 . S
H482 C478 0.950 . S
C483 C481 1.390 . S
C483 C484 1.387 . S
C483 H486 0.950 . S
C484 C483 1.387 . S
C484 C487 1.387 . S
H485 C481 0.950 . S
H486 C483 0.950 . S
C487 C478 1.390 . S
C487 H480 0.950 . S
C487 C484 1.387 . S
C249 C5 0.880 . S
C254 C103 1.315 . S
C259 C18 1.463 . S
C264 C147 1.486 . S
C274 C177 2.286 . S
C269 C30 2.249 . S
C279 C41 2.465 . S
C284 C218 2.456 . S
C294 C134 1.104 . S
C289 C7 1.029 . S
C304 C98 2.445 . S
C299 C16 2.355 . S
C314 C226 1.220 . S
C309 C29 1.211 . S
C324 C187 1.976 . S
C319 C38 1.577 . S
C329 C8 1.543 . S
C334 C223 1.708 . S
C344 C137 2.227 . S
C339 C27 2.098 . S
C349 C40 2.103 . S
C354 C106 2.071 . S
C359 C19 2.167 . S
C364 C174 2.101 . S
C374 C94 1.292 . S
C369 C51 1.013 . S
C379 C62 1.705 . S
C384 C138 1.665 . S
C389 C74 2.443 . S
C394 C186 2.523 . S
C399 C84 2.397 . S
C404 C227 2.430 . S
C409 C49 0.882 . S
C414 C143 1.246 . S
C424 C107 2.454 . S
C419 C63 2.421 . S
C434 C217 1.103 . S
C429 C71 1.064 . S
C444 C178 2.133 . S
C439 C85 2.218 . S
C449 C52 1.506 . S
C454 C214 1.720 . S
C464 C146 2.256 . S
C459 C73 2.389 . S
C474 C97 1.818 . S
C469 C82 1.764 . S
C479 C60 1.970 . S
C484 C183 2.052 . S
