# Generated by pormake.
# Topology gar, (4,6)-cn, num edge types: 1
# Building blocks:
#     Node 0, Type 0, BuildingBlock: AZAVOO_clean_sbu_0, # of connection points: 4
#     Node 1, Type 0, BuildingBlock: AZAVOO_clean_sbu_0, # of connection points: 4
#     Node 2, Type 0, BuildingBlock: AZAVOO_clean_sbu_0, # of connection points: 4
#     Node 3, Type 0, BuildingBlock: AZAVOO_clean_sbu_0, # of connection points: 4
#     Node 4, Type 0, BuildingBlock: AZAVOO_clean_sbu_0, # of connection points: 4
#     Node 5, Type 0, BuildingBlock: AZAVOO_clean_sbu_0, # of connection points: 4
#     Node 6, Type 0, BuildingBlock: AZAVOO_clean_sbu_0, # of connection points: 4
#     Node 7, Type 0, BuildingBlock: AZAVOO_clean_sbu_0, # of connection points: 4
#     Node 8, Type 0, BuildingBlock: AZAVOO_clean_sbu_0, # of connection points: 4
#     Node 9, Type 0, BuildingBlock: AZAVOO_clean_sbu_0, # of connection points: 4
#     Node 10, Type 0, BuildingBlock: AZAVOO_clean_sbu_0, # of connection points: 4
#     Node 11, Type 0, BuildingBlock: AZAVOO_clean_sbu_0, # of connection points: 4
#     Node 12, Type 0, BuildingBlock: AZAVOO_clean_sbu_0, # of connection points: 4
#     Node 13, Type 0, BuildingBlock: AZAVOO_clean_sbu_0, # of connection points: 4
#     Node 14, Type 0, BuildingBlock: AZAVOO_clean_sbu_0, # of connection points: 4
#     Node 15, Type 0, BuildingBlock: AZAVOO_clean_sbu_0, # of connection points: 4
#     Node 16, Type 0, BuildingBlock: AZAVOO_clean_sbu_0, # of connection points: 4
#     Node 17, Type 0, BuildingBlock: AZAVOO_clean_sbu_0, # of connection points: 4
#     Node 18, Type 0, BuildingBlock: AZAVOO_clean_sbu_0, # of connection points: 4
#     Node 19, Type 0, BuildingBlock: AZAVOO_clean_sbu_0, # of connection points: 4
#     Node 20, Type 0, BuildingBlock: AZAVOO_clean_sbu_0, # of connection points: 4
#     Node 21, Type 0, BuildingBlock: AZAVOO_clean_sbu_0, # of connection points: 4
#     Node 22, Type 0, BuildingBlock: AZAVOO_clean_sbu_0, # of connection points: 4
#     Node 23, Type 0, BuildingBlock: AZAVOO_clean_sbu_0, # of connection points: 4
#     Node 24, Type 1, BuildingBlock: CUKXOW_clean_sbu_0, # of connection points: 6
#     Node 25, Type 1, BuildingBlock: CUKXOW_clean_sbu_0, # of connection points: 6
#     Node 26, Type 1, BuildingBlock: CUKXOW_clean_sbu_0, # of connection points: 6
#     Node 27, Type 1, BuildingBlock: CUKXOW_clean_sbu_0, # of connection points: 6
#     Node 28, Type 1, BuildingBlock: CUKXOW_clean_sbu_0, # of connection points: 6
#     Node 29, Type 1, BuildingBlock: CUKXOW_clean_sbu_0, # of connection points: 6
#     Node 30, Type 1, BuildingBlock: CUKXOW_clean_sbu_0, # of connection points: 6
#     Node 31, Type 1, BuildingBlock: CUKXOW_clean_sbu_0, # of connection points: 6
#     Node 32, Type 1, BuildingBlock: CUKXOW_clean_sbu_0, # of connection points: 6
#     Node 33, Type 1, BuildingBlock: CUKXOW_clean_sbu_0, # of connection points: 6
#     Node 34, Type 1, BuildingBlock: CUKXOW_clean_sbu_0, # of connection points: 6
#     Node 35, Type 1, BuildingBlock: CUKXOW_clean_sbu_0, # of connection points: 6
#     Node 36, Type 1, BuildingBlock: CUKXOW_clean_sbu_0, # of connection points: 6
#     Node 37, Type 1, BuildingBlock: CUKXOW_clean_sbu_0, # of connection points: 6
#     Node 38, Type 1, BuildingBlock: CUKXOW_clean_sbu_0, # of connection points: 6
#     Node 39, Type 1, BuildingBlock: CUKXOW_clean_sbu_0, # of connection points: 6
#     Edge 40, Type (0, 1), BuildingBlock: ZUJKAS_clean_linker_0, # of connection points: 2
#     Edge 41, Type (0, 1), BuildingBlock: ZUJKAS_clean_linker_0, # of connection points: 2
#     Edge 42, Type (0, 1), BuildingBlock: ZUJKAS_clean_linker_0, # of connection points: 2
#     Edge 43, Type (0, 1), BuildingBlock: ZUJKAS_clean_linker_0, # of connection points: 2
#     Edge 44, Type (0, 1), BuildingBlock: ZUJKAS_clean_linker_0, # of connection points: 2
#     Edge 45, Type (0, 1), BuildingBlock: ZUJKAS_clean_linker_0, # of connection points: 2
#     Edge 46, Type (0, 1), BuildingBlock: ZUJKAS_clean_linker_0, # of connection points: 2
#     Edge 47, Type (0, 1), BuildingBlock: ZUJKAS_clean_linker_0, # of connection points: 2
#     Edge 48, Type (0, 1), BuildingBlock: ZUJKAS_clean_linker_0, # of connection points: 2
#     Edge 49, Type (0, 1), BuildingBlock: ZUJKAS_clean_linker_0, # of connection points: 2
#     Edge 50, Type (0, 1), BuildingBlock: ZUJKAS_clean_linker_0, # of connection points: 2
#     Edge 51, Type (0, 1), BuildingBlock: ZUJKAS_clean_linker_0, # of connection points: 2
#     Edge 52, Type (0, 1), BuildingBlock: ZUJKAS_clean_linker_0, # of connection points: 2
#     Edge 53, Type (0, 1), BuildingBlock: ZUJKAS_clean_linker_0, # of connection points: 2
#     Edge 54, Type (0, 1), BuildingBlock: ZUJKAS_clean_linker_0, # of connection points: 2
#     Edge 55, Type (0, 1), BuildingBlock: ZUJKAS_clean_linker_0, # of connection points: 2
#     Edge 56, Type (0, 1), BuildingBlock: ZUJKAS_clean_linker_0, # of connection points: 2
#     Edge 57, Type (0, 1), BuildingBlock: ZUJKAS_clean_linker_0, # of connection points: 2
#     Edge 58, Type (0, 1), BuildingBlock: ZUJKAS_clean_linker_0, # of connection points: 2
#     Edge 59, Type (0, 1), BuildingBlock: ZUJKAS_clean_linker_0, # of connection points: 2
#     Edge 60, Type (0, 1), BuildingBlock: ZUJKAS_clean_linker_0, # of connection points: 2
#     Edge 61, Type (0, 1), BuildingBlock: ZUJKAS_clean_linker_0, # of connection points: 2
#     Edge 62, Type (0, 1), BuildingBlock: ZUJKAS_clean_linker_0, # of connection points: 2
#     Edge 63, Type (0, 1), BuildingBlock: ZUJKAS_clean_linker_0, # of connection points: 2
#     Edge 64, Type (0, 1), BuildingBlock: ZUJKAS_clean_linker_0, # of connection points: 2
#     Edge 65, Type (0, 1), BuildingBlock: ZUJKAS_clean_linker_0, # of connection points: 2
#     Edge 66, Type (0, 1), BuildingBlock: ZUJKAS_clean_linker_0, # of connection points: 2
#     Edge 67, Type (0, 1), BuildingBlock: ZUJKAS_clean_linker_0, # of connection points: 2
#     Edge 68, Type (0, 1), BuildingBlock: ZUJKAS_clean_linker_0, # of connection points: 2
#     Edge 69, Type (0, 1), BuildingBlock: ZUJKAS_clean_linker_0, # of connection points: 2
#     Edge 70, Type (0, 1), BuildingBlock: ZUJKAS_clean_linker_0, # of connection points: 2
#     Edge 71, Type (0, 1), BuildingBlock: ZUJKAS_clean_linker_0, # of connection points: 2
#     Edge 72, Type (0, 1), BuildingBlock: ZUJKAS_clean_linker_0, # of connection points: 2
#     Edge 73, Type (0, 1), BuildingBlock: ZUJKAS_clean_linker_0, # of connection points: 2
#     Edge 74, Type (0, 1), BuildingBlock: ZUJKAS_clean_linker_0, # of connection points: 2
#     Edge 75, Type (0, 1), BuildingBlock: ZUJKAS_clean_linker_0, # of connection points: 2
#     Edge 76, Type (0, 1), BuildingBlock: ZUJKAS_clean_linker_0, # of connection points: 2
#     Edge 77, Type (0, 1), BuildingBlock: ZUJKAS_clean_linker_0, # of connection points: 2
#     Edge 78, Type (0, 1), BuildingBlock: ZUJKAS_clean_linker_0, # of connection points: 2
#     Edge 79, Type (0, 1), BuildingBlock: ZUJKAS_clean_linker_0, # of connection points: 2
#     Edge 80, Type (0, 1), BuildingBlock: ZUJKAS_clean_linker_0, # of connection points: 2
#     Edge 81, Type (0, 1), BuildingBlock: ZUJKAS_clean_linker_0, # of connection points: 2
#     Edge 82, Type (0, 1), BuildingBlock: ZUJKAS_clean_linker_0, # of connection points: 2
#     Edge 83, Type (0, 1), BuildingBlock: ZUJKAS_clean_linker_0, # of connection points: 2
#     Edge 84, Type (0, 1), BuildingBlock: ZUJKAS_clean_linker_0, # of connection points: 2
#     Edge 85, Type (0, 1), BuildingBlock: ZUJKAS_clean_linker_0, # of connection points: 2
#     Edge 86, Type (0, 1), BuildingBlock: ZUJKAS_clean_linker_0, # of connection points: 2
#     Edge 87, Type (0, 1), BuildingBlock: ZUJKAS_clean_linker_0, # of connection points: 2
#     Edge 88, Type (0, 1), BuildingBlock: ZUJKAS_clean_linker_0, # of connection points: 2
#     Edge 89, Type (0, 1), BuildingBlock: ZUJKAS_clean_linker_0, # of connection points: 2
#     Edge 90, Type (0, 1), BuildingBlock: ZUJKAS_clean_linker_0, # of connection points: 2
#     Edge 91, Type (0, 1), BuildingBlock: ZUJKAS_clean_linker_0, # of connection points: 2
#     Edge 92, Type (0, 1), BuildingBlock: ZUJKAS_clean_linker_0, # of connection points: 2
#     Edge 93, Type (0, 1), BuildingBlock: ZUJKAS_clean_linker_0, # of connection points: 2
#     Edge 94, Type (0, 1), BuildingBlock: ZUJKAS_clean_linker_0, # of connection points: 2
#     Edge 95, Type (0, 1), BuildingBlock: ZUJKAS_clean_linker_0, # of connection points: 2
#     Edge 96, Type (0, 1), BuildingBlock: ZUJKAS_clean_linker_0, # of connection points: 2
#     Edge 97, Type (0, 1), BuildingBlock: ZUJKAS_clean_linker_0, # of connection points: 2
#     Edge 98, Type (0, 1), BuildingBlock: ZUJKAS_clean_linker_0, # of connection points: 2
#     Edge 99, Type (0, 1), BuildingBlock: ZUJKAS_clean_linker_0, # of connection points: 2
#     Edge 100, Type (0, 1), BuildingBlock: ZUJKAS_clean_linker_0, # of connection points: 2
#     Edge 101, Type (0, 1), BuildingBlock: ZUJKAS_clean_linker_0, # of connection points: 2
#     Edge 102, Type (0, 1), BuildingBlock: ZUJKAS_clean_linker_0, # of connection points: 2
#     Edge 103, Type (0, 1), BuildingBlock: ZUJKAS_clean_linker_0, # of connection points: 2
#     Edge 104, Type (0, 1), BuildingBlock: ZUJKAS_clean_linker_0, # of connection points: 2
#     Edge 105, Type (0, 1), BuildingBlock: ZUJKAS_clean_linker_0, # of connection points: 2
#     Edge 106, Type (0, 1), BuildingBlock: ZUJKAS_clean_linker_0, # of connection points: 2
#     Edge 107, Type (0, 1), BuildingBlock: ZUJKAS_clean_linker_0, # of connection points: 2
#     Edge 108, Type (0, 1), BuildingBlock: ZUJKAS_clean_linker_0, # of connection points: 2
#     Edge 109, Type (0, 1), BuildingBlock: ZUJKAS_clean_linker_0, # of connection points: 2
#     Edge 110, Type (0, 1), BuildingBlock: ZUJKAS_clean_linker_0, # of connection points: 2
#     Edge 111, Type (0, 1), BuildingBlock: ZUJKAS_clean_linker_0, # of connection points: 2
#     Edge 112, Type (0, 1), BuildingBlock: ZUJKAS_clean_linker_0, # of connection points: 2
#     Edge 113, Type (0, 1), BuildingBlock: ZUJKAS_clean_linker_0, # of connection points: 2
#     Edge 114, Type (0, 1), BuildingBlock: ZUJKAS_clean_linker_0, # of connection points: 2
#     Edge 115, Type (0, 1), BuildingBlock: ZUJKAS_clean_linker_0, # of connection points: 2
#     Edge 116, Type (0, 1), BuildingBlock: ZUJKAS_clean_linker_0, # of connection points: 2
#     Edge 117, Type (0, 1), BuildingBlock: ZUJKAS_clean_linker_0, # of connection points: 2
#     Edge 118, Type (0, 1), BuildingBlock: ZUJKAS_clean_linker_0, # of connection points: 2
#     Edge 119, Type (0, 1), BuildingBlock: ZUJKAS_clean_linker_0, # of connection points: 2
#     Edge 120, Type (0, 1), BuildingBlock: ZUJKAS_clean_linker_0, # of connection points: 2
#     Edge 121, Type (0, 1), BuildingBlock: ZUJKAS_clean_linker_0, # of connection points: 2
#     Edge 122, Type (0, 1), BuildingBlock: ZUJKAS_clean_linker_0, # of connection points: 2
#     Edge 123, Type (0, 1), BuildingBlock: ZUJKAS_clean_linker_0, # of connection points: 2
#     Edge 124, Type (0, 1), BuildingBlock: ZUJKAS_clean_linker_0, # of connection points: 2
#     Edge 125, Type (0, 1), BuildingBlock: ZUJKAS_clean_linker_0, # of connection points: 2
#     Edge 126, Type (0, 1), BuildingBlock: ZUJKAS_clean_linker_0, # of connection points: 2
#     Edge 127, Type (0, 1), BuildingBlock: ZUJKAS_clean_linker_0, # of connection points: 2
#     Edge 128, Type (0, 1), BuildingBlock: ZUJKAS_clean_linker_0, # of connection points: 2
#     Edge 129, Type (0, 1), BuildingBlock: ZUJKAS_clean_linker_0, # of connection points: 2
#     Edge 130, Type (0, 1), BuildingBlock: ZUJKAS_clean_linker_0, # of connection points: 2
#     Edge 131, Type (0, 1), BuildingBlock: ZUJKAS_clean_linker_0, # of connection points: 2
#     Edge 132, Type (0, 1), BuildingBlock: ZUJKAS_clean_linker_0, # of connection points: 2
#     Edge 133, Type (0, 1), BuildingBlock: ZUJKAS_clean_linker_0, # of connection points: 2
#     Edge 134, Type (0, 1), BuildingBlock: ZUJKAS_clean_linker_0, # of connection points: 2
#     Edge 135, Type (0, 1), BuildingBlock: ZUJKAS_clean_linker_0, # of connection points: 2
# Relax obj value: 0.125
# Max RMSD: 0.224
# Mean RMSD: 0.168
data_MOF--net-gar--node1-AZAVOO_clean_sbu_0--node2-CUKXOW_clean_sbu_0--edge1-ZUJKAS_clean_linker_0
_symmetry_space_group_name_H-M    P1
_symmetry_Int_Tables_number       1
_symmetry_cell_setting            triclinic
loop_
_symmetry_equiv_pos_as_xyz
'x, y, z'
_cell_length_a     71.908965
_cell_length_b     67.862246
_cell_length_c     69.530673
_cell_angle_alpha  95.714936
_cell_angle_beta   95.349586
_cell_angle_gamma 100.36134
loop_
_atom_site_label
_atom_site_type_symbol
_atom_site_fract_x
_atom_site_fract_y
_atom_site_fract_z
_atom_type_partial_charge
Mg0 Mg 0.01099 0.26722 0.414 0.0
O1 O 0.01198 0.29784 0.43181 0.0
O2 O 0.98465 0.29542 0.4451 0.0
Mg3 Mg 0.96635 0.26427 0.43558 0.0
C4 C 0.00084 0.30539 0.44244 0.0
C5 C 0.04927 0.25958 0.40496 0.0
O6 O 0.03869 0.24152 0.40416 0.0
O7 O 0.01621 0.25286 0.44143 0.0
O8 O 0.98805 0.24988 0.45322 0.0
O9 O 0.99759 0.27773 0.38806 0.0
O10 O 0.98158 0.2622 0.40968 0.0
C11 C 0.00521 0.24708 0.45399 0.0
C12 C 0.98141 0.27112 0.39415 0.0
O13 O 0.04233 0.2748 0.41062 0.0
Mg14 Mg 0.00553 0.82886 0.62834 0.0
O15 O 0.99419 0.79708 0.61349 0.0
O16 O 0.96244 0.79053 0.61053 0.0
Mg17 Mg 0.95341 0.81918 0.62407 0.0
C18 C 0.9783 0.78525 0.60798 0.0
C19 C 0.05064 0.8277 0.62117 0.0
O20 O 0.06309 0.82911 0.60845 0.0
O21 O 0.99604 0.84125 0.60109 0.0
O22 O 0.96432 0.83659 0.59919 0.0
O23 O 0.00483 0.817 0.65768 0.0
O24 O 0.98127 0.82797 0.64222 0.0
C25 C 0.98004 0.84306 0.59266 0.0
C26 C 0.98745 0.8198 0.65677 0.0
O27 O 0.03346 0.82807 0.61539 0.0
Mg28 Mg 0.51211 0.76848 0.88863 0.0
O29 O 0.50949 0.797 0.908 0.0
O30 O 0.48073 0.79133 0.91839 0.0
Mg31 Mg 0.46488 0.75995 0.90515 0.0
C32 C 0.49688 0.80264 0.91791 0.0
C33 C 0.55331 0.76549 0.88562 0.0
O34 O 0.54463 0.74655 0.88438 0.0
O35 O 0.51584 0.75224 0.91525 0.0
O36 O 0.48618 0.74571 0.92338 0.0
O37 O 0.49988 0.78011 0.86253 0.0
O38 O 0.48298 0.76135 0.8814 0.0
C39 C 0.50371 0.74429 0.92589 0.0
C40 C 0.48341 0.7715 0.8667 0.0
O41 O 0.5438 0.77924 0.88903 0.0
Mg42 Mg 0.49482 0.32178 0.12813 0.0
O43 O 0.49014 0.29018 0.11143 0.0
O44 O 0.46041 0.2835 0.09644 0.0
Mg45 Mg 0.44589 0.31 0.10473 0.0
C46 C 0.47656 0.27856 0.10033 0.0
C47 C 0.53668 0.34036 0.13988 0.0
O48 O 0.52818 0.35552 0.1444 0.0
O49 O 0.49628 0.33511 0.09973 0.0
O50 O 0.46569 0.3303 0.08741 0.0
O51 O 0.48515 0.30882 0.1543 0.0
O52 O 0.46611 0.31787 0.13132 0.0
C53 C 0.48331 0.3374 0.08682 0.0
C54 C 0.46806 0.30961 0.14711 0.0
O55 O 0.52665 0.32367 0.13197 0.0
Mg56 Mg 0.97617 0.76926 0.15882 0.0
O57 O 0.97639 0.73889 0.14093 0.0
O58 O 0.9496 0.73096 0.12049 0.0
Mg59 Mg 0.93153 0.75501 0.12644 0.0
C60 C 0.96558 0.72722 0.12719 0.0
C61 C 0.0129 0.77587 0.18731 0.0
O62 O -0.00028 0.77668 0.19909 0.0
O63 O 0.98193 0.78595 0.13237 0.0
O64 O 0.95357 0.7782 0.11438 0.0
O65 O 0.96112 0.75413 0.18178 0.0
O66 O 0.94648 0.76366 0.15603 0.0
C67 C 0.97083 0.7877 0.11743 0.0
C68 C 0.94531 0.75549 0.17191 0.0
O69 O 0.00792 0.77284 0.16905 0.0
Mg70 Mg 0.5068 0.7737 0.35906 0.0
O71 O 0.50468 0.80229 0.37942 0.0
O72 O 0.47668 0.79504 0.39127 0.0
Mg73 Mg 0.46145 0.76306 0.37984 0.0
C74 C 0.49218 0.80717 0.39001 0.0
C75 C 0.54202 0.78472 0.3384 0.0
O76 O 0.52778 0.77954 0.32449 0.0
O77 O 0.51391 0.75779 0.38568 0.0
O78 O 0.48539 0.75127 0.39653 0.0
O79 O 0.49068 0.78465 0.33415 0.0
O80 O 0.47725 0.76534 0.35461 0.0
C81 C 0.50303 0.75029 0.39773 0.0
C82 C 0.47531 0.77538 0.34008 0.0
O83 O 0.53837 0.78492 0.35599 0.0
Mg84 Mg 0.48116 0.27138 0.6651 0.0
O85 O 0.48207 0.24171 0.64649 0.0
O86 O 0.45559 0.23337 0.62571 0.0
Mg87 Mg 0.43726 0.25727 0.63175 0.0
C88 C 0.47166 0.22998 0.63256 0.0
C89 C 0.51883 0.28435 0.69234 0.0
O90 O 0.5069 0.29247 0.70233 0.0
O91 O 0.48742 0.28916 0.63942 0.0
O92 O 0.45946 0.2812 0.62072 0.0
O93 O 0.46547 0.25508 0.68708 0.0
O94 O 0.45148 0.26585 0.66167 0.0
C95 C 0.47656 0.29106 0.62435 0.0
C96 C 0.44989 0.257 0.67712 0.0
O97 O 0.51269 0.27452 0.67574 0.0
Mg98 Mg 0.0073 0.26686 0.85877 0.0
O99 O 0.00676 0.29656 0.8782 0.0
O100 O 0.97817 0.29217 0.88923 0.0
Mg101 Mg 0.96082 0.26104 0.87777 0.0
C102 C 0.9945 0.30293 0.88823 0.0
C103 C 0.04362 0.2732 0.8394 0.0
O104 O 0.02972 0.26707 0.82524 0.0
O105 O 0.01171 0.25117 0.88617 0.0
O106 O 0.98251 0.24713 0.89556 0.0
O107 O 0.99385 0.27814 0.83247 0.0
O108 O 0.97773 0.26174 0.85333 0.0
C109 C -0.00025 0.24467 0.89767 0.0
C110 C 0.97762 0.27125 0.83825 0.0
O111 O 0.03942 0.2753 0.85678 0.0
Mg112 Mg 0.40724 0.07802 0.26497 0.0
O113 O 0.38523 0.04872 0.26561 0.0
O114 O 0.3738 0.0514 0.29441 0.0
Mg115 Mg 0.38785 0.08143 0.31193 0.0
C116 C 0.37427 0.04168 0.27781 0.0
C117 C 0.41499 0.05462 0.22666 0.0
O118 O 0.41786 0.04204 0.23933 0.0
O119 O 0.38284 0.09532 0.25964 0.0
O120 O 0.373 0.0974 0.28921 0.0
O121 O 0.4303 0.06435 0.27933 0.0
O122 O 0.41226 0.08161 0.29535 0.0
C123 C 0.37192 0.10128 0.27157 0.0
C124 C 0.42532 0.07091 0.29582 0.0
O125 O 0.40915 0.07061 0.23237 0.0
Mg126 Mg 0.29298 0.14385 0.49364 0.0
O127 O 0.29465 0.16866 0.51864 0.0
O128 O 0.32474 0.18497 0.52583 0.0
Mg129 Mg 0.34221 0.17022 0.50465 0.0
C130 C 0.30725 0.18232 0.52879 0.0
C131 C 0.25123 0.13209 0.47416 0.0
O132 O 0.25992 0.12619 0.45943 0.0
O133 O 0.29622 0.16696 0.47264 0.0
O134 O 0.32675 0.18215 0.47868 0.0
O135 O 0.2979 0.12283 0.51475 0.0
O136 O 0.32094 0.14178 0.50197 0.0
C137 C 0.3103 0.17981 0.46903 0.0
C138 C 0.31591 0.12928 0.51426 0.0
O139 O 0.26107 0.1405 0.48989 0.0
Mg140 Mg 0.11686 0.98996 0.7808 0.0
O141 O 0.1348 0.02212 0.78538 0.0
O142 O 0.15158 0.02592 0.81468 0.0
Mg143 Mg 0.14337 0.99725 0.82919 0.0
C144 C 0.14699 0.03267 0.79875 0.0
C145 C 0.09706 0.97871 0.73946 0.0
O146 O 0.08694 0.966 0.7493 0.0
O147 O 0.14313 0.97689 0.77649 0.0
O148 O 0.15767 0.97944 0.8067 0.0
O149 O 0.09263 0.00046 0.79345 0.0
O150 O 0.11599 0.99044 0.81053 0.0
C151 C 0.15645 0.97363 0.78848 0.0
C152 C 0.10057 0.99764 0.81019 0.0
O153 O 0.11113 0.99136 0.74844 0.0
Mg154 Mg 0.22519 0.89638 0.02813 0.0
O155 O 0.22162 0.8764 0.99821 0.0
O156 O 0.24739 0.86209 0.99817 0.0
Mg157 Mg 0.26807 0.8743 0.02549 0.0
C158 C 0.23144 0.86461 0.99012 0.0
C159 C 0.18985 0.91132 0.03981 0.0
O160 O 0.20249 0.91635 0.05524 0.0
O161 O 0.21949 0.86888 0.04562 0.0
O162 O 0.24738 0.85882 0.04482 0.0
O163 O 0.24046 0.92282 0.01504 0.0
O164 O 0.25468 0.90077 0.02875 0.0
C165 C 0.23102 0.85751 0.05087 0.0
C166 C 0.25603 0.91655 0.0198 0.0
O167 O 0.1941 0.90088 0.02517 0.0
Mg168 Mg 0.27358 0.42981 0.05262 0.0
O169 O 0.27373 0.40597 0.02685 0.0
O170 O 0.29805 0.39041 0.03341 0.0
Mg171 Mg 0.31295 0.40381 0.06351 0.0
C172 C 0.28376 0.39288 0.0222 0.0
C173 C 0.24169 0.43948 0.02395 0.0
O174 O 0.25591 0.44165 0.01329 0.0
O175 O 0.26101 0.4051 0.06994 0.0
O176 O 0.28583 0.39032 0.07663 0.0
O177 O 0.29307 0.45211 0.03919 0.0
O178 O 0.30277 0.43198 0.05953 0.0
C179 C 0.26847 0.39176 0.07782 0.0
C180 C 0.30692 0.44522 0.04774 0.0
O181 O 0.24426 0.43394 0.04078 0.0
Mg182 Mg 0.79891 0.15494 0.99299 0.0
O183 O 0.80092 0.17616 0.02125 0.0
O184 O 0.82828 0.19826 0.02465 0.0
Mg185 Mg 0.8439 0.19057 0.99819 0.0
C186 C 0.81251 0.19117 0.03074 0.0
C187 C 0.75748 0.12961 0.98431 0.0
O188 O 0.76567 0.12046 0.97085 0.0
O189 O 0.79276 0.17944 0.97438 0.0
O190 O 0.82113 0.1999 0.97671 0.0
O191 O 0.81361 0.13408 0.00879 0.0
O192 O 0.82876 0.15859 0.99421 0.0
C193 C 0.80361 0.19485 0.96967 0.0
C194 C 0.82956 0.14384 0.00443 0.0
O195 O 0.76732 0.14451 0.99555 0.0
Mg196 Mg 0.11026 0.48033 0.2943 0.0
O197 O 0.1306 0.51087 0.29627 0.0
O198 O 0.14752 0.5167 0.32556 0.0
Mg199 Mg 0.13776 0.49008 0.34237 0.0
C200 C 0.1433 0.52194 0.3088 0.0
C201 C 0.08728 0.47652 0.25392 0.0
O202 O 0.07377 0.47249 0.26523 0.0
O203 O 0.13472 0.46361 0.29102 0.0
O204 O 0.15004 0.46877 0.32108 0.0
O205 O 0.08825 0.49553 0.30636 0.0
O206 O 0.10983 0.484 0.3245 0.0
C207 C 0.14796 0.46075 0.30339 0.0
C208 C 0.09592 0.49363 0.32351 0.0
O209 O 0.10453 0.48021 0.26146 0.0
Mg210 Mg 0.76004 0.92961 0.54483 0.0
O211 O 0.76313 0.9071 0.51916 0.0
O212 O 0.78922 0.89423 0.5255 0.0
Mg213 Mg 0.80229 0.90785 0.55615 0.0
C214 C 0.77451 0.89554 0.51429 0.0
C215 C 0.72945 0.93638 0.5139 0.0
O216 O 0.745 0.93989 0.50526 0.0
O217 O 0.74891 0.90333 0.5612 0.0
O218 O 0.77554 0.89137 0.56765 0.0
O219 O 0.77845 0.95397 0.53265 0.0
O220 O 0.78932 0.93449 0.55296 0.0
C221 C 0.75777 0.89069 0.5686 0.0
C222 C 0.7928 0.94823 0.54156 0.0
O223 O 0.73051 0.93094 0.5309 0.0
Mg224 Mg 0.8637 0.06328 0.24088 0.0
O225 O 0.84865 0.03117 0.24505 0.0
O226 O 0.84115 0.03285 0.27556 0.0
Mg227 Mg 0.85109 0.06492 0.29065 0.0
C228 C 0.8413 0.02289 0.25902 0.0
C229 C 0.86911 0.06966 0.19936 0.0
O230 O 0.87183 0.08801 0.20855 0.0
O231 O 0.8355 0.0741 0.23861 0.0
O232 O 0.82961 0.0761 0.26973 0.0
O233 O 0.89162 0.05671 0.25173 0.0
O234 O 0.87269 0.06986 0.27047 0.0
C235 C 0.82532 0.07845 0.25194 0.0
C236 C 0.8882 0.06313 0.26895 0.0
O237 O 0.86281 0.05494 0.20839 0.0
Mg238 Mg 0.29795 0.65713 0.49477 0.0
O239 O 0.29811 0.67848 0.5224 0.0
O240 O 0.32493 0.70134 0.52727 0.0
Mg241 Mg 0.34227 0.69351 0.50209 0.0
C242 C 0.30878 0.69383 0.53233 0.0
C243 C 0.25499 0.63575 0.48274 0.0
O244 O 0.26145 0.63044 0.46631 0.0
O245 O 0.29231 0.6811 0.47529 0.0
O246 O 0.32057 0.70188 0.47873 0.0
O247 O 0.31215 0.6369 0.51186 0.0
O248 O 0.32793 0.66112 0.49735 0.0
C249 C 0.30337 0.69646 0.47074 0.0
C250 C 0.32832 0.64652 0.50788 0.0
O251 O 0.26636 0.64656 0.49643 0.0
Mg252 Mg 0.37268 0.56214 0.74764 0.0
O253 O 0.35607 0.53063 0.75147 0.0
O254 O 0.34867 0.5326 0.78202 0.0
Mg255 Mg 0.36081 0.56418 0.79764 0.0
C256 C 0.34826 0.52265 0.76535 0.0
C257 C 0.37451 0.56953 0.70556 0.0
O258 O 0.37591 0.58772 0.71473 0.0
O259 O 0.34559 0.57499 0.74627 0.0
O260 O 0.34049 0.57782 0.77759 0.0
O261 O 0.39996 0.55353 0.75776 0.0
O262 O 0.38217 0.56777 0.77708 0.0
C263 C 0.33623 0.58054 0.7599 0.0
C264 C 0.39709 0.56007 0.77515 0.0
O265 O 0.37067 0.55448 0.71499 0.0
Mg266 Mg 0.61156 0.98308 0.79142 0.0
O267 O 0.63191 0.01341 0.79297 0.0
O268 O 0.64909 0.02006 0.82209 0.0
Mg269 Mg 0.63983 0.99344 0.83914 0.0
C270 C 0.64465 0.02481 0.80518 0.0
C271 C 0.58753 0.98275 0.75244 0.0
O272 O 0.57473 0.98089 0.76478 0.0
O273 O 0.63613 0.96646 0.78749 0.0
O274 O 0.65206 0.9727 0.81732 0.0
O275 O 0.59018 0.99873 0.8043 0.0
O276 O 0.61175 0.98647 0.82172 0.0
C277 C 0.64985 0.96437 0.79972 0.0
C278 C 0.59806 0.99639 0.82121 0.0
O279 O 0.60486 0.98349 0.75871 0.0
Mg280 Mg 0.80253 0.65754 0.98608 0.0
O281 O 0.80356 0.67839 0.014 0.0
O282 O 0.83347 0.6938 0.02411 0.0
Mg283 Mg 0.85156 0.68315 0.00115 0.0
C284 C 0.81577 0.69044 0.0262 0.0
C285 C 0.76041 0.64126 0.96967 0.0
O286 O 0.76883 0.6309 0.95733 0.0
O287 O 0.80628 0.68423 0.96906 0.0
O288 O 0.83652 0.69939 0.97827 0.0
O289 O 0.80747 0.63329 0.00358 0.0
O290 O 0.8305 0.65468 0.99326 0.0
C291 C 0.82048 0.69823 0.96815 0.0
C292 C 0.82547 0.64007 0.00337 0.0
O293 O 0.77054 0.65422 0.98267 0.0
Mg294 Mg 0.91272 0.58198 0.76982 0.0
O295 O 0.89082 0.5526 0.77022 0.0
O296 O 0.87726 0.55638 0.79773 0.0
Mg297 Mg 0.89101 0.58646 0.81537 0.0
C298 C 0.87885 0.54615 0.78173 0.0
C299 C 0.92186 0.55853 0.73176 0.0
O300 O 0.92538 0.5461 0.74437 0.0
O301 O 0.88865 0.59918 0.76285 0.0
O302 O 0.87762 0.60248 0.79177 0.0
O303 O 0.93534 0.56892 0.78574 0.0
O304 O 0.91636 0.58627 0.80018 0.0
C305 C 0.87742 0.60583 0.77401 0.0
C306 C 0.9296 0.57587 0.80171 0.0
O307 O 0.91554 0.57418 0.73754 0.0
Mg308 Mg 0.72288 0.39922 0.52329 0.0
O309 O 0.72053 0.37823 0.49389 0.0
O310 O 0.74713 0.36542 0.49588 0.0
Mg311 Mg 0.76621 0.37756 0.52414 0.0
C312 C 0.73137 0.36704 0.48665 0.0
C313 C 0.6919 0.42255 0.52512 0.0
O314 O 0.70829 0.43425 0.53192 0.0
O315 O 0.71649 0.37266 0.54167 0.0
O316 O 0.74429 0.36214 0.54245 0.0
O317 O 0.73884 0.4251 0.50997 0.0
O318 O 0.75247 0.40379 0.52551 0.0
C319 C 0.72761 0.3612 0.54764 0.0
C320 C 0.75426 0.41921 0.51605 0.0
O321 O 0.69187 0.40413 0.51924 0.0
Mg322 Mg 0.62872 0.48789 0.29022 0.0
O323 O 0.6461 0.51999 0.29302 0.0
O324 O 0.66433 0.52592 0.32154 0.0
Mg325 Mg 0.65789 0.49763 0.33715 0.0
C326 C 0.65858 0.53153 0.3054 0.0
C327 C 0.60354 0.48433 0.25172 0.0
O328 O 0.59104 0.47899 0.26378 0.0
O329 O 0.6548 0.47508 0.28448 0.0
O330 O 0.67131 0.47962 0.31396 0.0
O331 O 0.60572 0.4992 0.30425 0.0
O332 O 0.62957 0.48887 0.32022 0.0
C333 C 0.66907 0.47293 0.29586 0.0
C334 C 0.6144 0.49646 0.32066 0.0
O335 O 0.62106 0.48902 0.25816 0.0
Tb336 Tb 0.02025 0.05515 0.02642 0.0
C337 C 0.02143 0.02405 0.99047 0.0
Tb338 Tb 0.00536 0.00946 0.02851 0.0
O339 O 0.05021 0.05171 0.02943 0.0
O340 O 0.02955 0.03131 0.03968 0.0
O341 O 0.01897 0.04253 0.99632 0.0
C342 C 0.00327 0.97089 0.03436 0.0
O343 O 0.01877 0.00908 0.00148 0.0
C344 C 0.97927 0.03048 0.01947 0.0
C345 C 0.00118 0.04141 0.0635 0.0
O346 O 0.99428 0.97714 0.01973 0.0
O347 O 0.01327 0.98631 0.04555 0.0
O348 O 0.9759 0.0138 0.02737 0.0
O349 O 0.99603 0.0331 0.01483 0.0
O350 O 0.00096 0.02218 0.05735 0.0
O351 O 0.00805 0.05663 0.05393 0.0
C352 C 0.02319 0.09405 0.02104 0.0
O353 O 0.00809 0.08248 0.02528 0.0
O354 O 0.03674 0.08382 0.02035 0.0
C355 C 0.04658 0.03434 0.03596 0.0
Tb356 Tb 0.25215 0.8052 0.26668 0.0
C357 C 0.28252 0.77743 0.26704 0.0
Tb358 Tb 0.23901 0.75913 0.26372 0.0
O359 O 0.26663 0.80604 0.29598 0.0
O360 O 0.24293 0.78378 0.28586 0.0
O361 O 0.27798 0.79406 0.26098 0.0
C362 C 0.22535 0.7214 0.27013 0.0
O363 O 0.26954 0.76257 0.27143 0.0
C364 C 0.24705 0.77364 0.23085 0.0
C365 C 0.2079 0.78699 0.26281 0.0
O366 O 0.23853 0.73409 0.28136 0.0
O367 O 0.21988 0.72994 0.25525 0.0
O368 O 0.24784 0.75533 0.23431 0.0
O369 O 0.23984 0.78163 0.24465 0.0
O370 O 0.2118 0.76888 0.26522 0.0
O371 O 0.22132 0.80316 0.26211 0.0
C372 C 0.26202 0.84346 0.25999 0.0
O373 O 0.25329 0.83751 0.27458 0.0
O374 O 0.2648 0.82783 0.24906 0.0
C375 C 0.25608 0.78955 0.29964 0.0
Tb376 Tb 0.53371 0.0246 0.51505 0.0
C377 C 0.52666 0.01883 0.5582 0.0
Tb378 Tb 0.4938 0.02741 0.52753 0.0
O379 O 0.54705 0.05322 0.53307 0.0
O380 O 0.51831 0.04723 0.52251 0.0
O381 O 0.53753 0.01593 0.54415 0.0
C382 C 0.46584 0.04166 0.54317 0.0
O383 O 0.51004 0.02471 0.55518 0.0
C384 C 0.49643 0.99311 0.50848 0.0
C385 C 0.50097 0.03244 0.48419 0.0
O386 O 0.46875 0.02333 0.54358 0.0
O387 O 0.47833 0.05159 0.53368 0.0
O388 O 0.48054 0.99975 0.50863 0.0
O389 O 0.50909 0.00454 0.52034 0.0
O390 O 0.49045 0.03619 0.49836 0.0
O391 O 0.51729 0.02598 0.4872 0.0
C392 C 0.56202 0.01058 0.49975 0.0
O393 O 0.55931 0.02903 0.49978 0.0
O394 O 0.54894 0.00036 0.50834 0.0
C395 C 0.53087 0.05909 0.53402 0.0
Tb396 Tb 0.2572 0.27939 0.79232 0.0
C397 C 0.26888 0.31332 0.76593 0.0
Tb398 Tb 0.25178 0.26757 0.74821 0.0
O399 O 0.28818 0.28485 0.79165 0.0
O400 O 0.27023 0.26286 0.77191 0.0
O401 O 0.26408 0.30931 0.7833 0.0
C402 C 0.25973 0.25918 0.71199 0.0
O403 O 0.26669 0.29914 0.75079 0.0
C404 C 0.22137 0.27442 0.76342 0.0
C405 C 0.23811 0.23431 0.7745 0.0
O406 O 0.27009 0.25724 0.72768 0.0
O407 O 0.24465 0.26577 0.71661 0.0
O408 O 0.22082 0.2622 0.74761 0.0
O409 O 0.23826 0.28352 0.76863 0.0
O410 O 0.24409 0.23782 0.75742 0.0
O411 O 0.24008 0.24874 0.7894 0.0
C412 C 0.25402 0.28805 0.82999 0.0
O413 O 0.26589 0.27768 0.82304 0.0
O414 O 0.24384 0.29337 0.81573 0.0
C415 C 0.2872 0.27173 0.77649 0.0
Tb416 Tb 0.01356 0.03737 0.47462 0.0
C417 C 0.98316 0.01577 0.49839 0.0
Tb418 Tb 0.02702 0.02555 0.51436 0.0
O419 O 0.00428 0.00559 0.4629 0.0
O420 O 0.02661 0.0143 0.48489 0.0
O421 O 0.9863 0.02869 0.48541 0.0
C422 C 0.03432 0.00727 0.54566 0.0
O423 O 0.99718 0.01037 0.50923 0.0
C424 C 0.02429 0.06346 0.51459 0.0
C425 C 0.05722 0.04819 0.49084 0.0
O426 O 0.0219 0.0188 0.54367 0.0
O427 O 0.04278 0.00606 0.53001 0.0
O428 O 0.03565 0.05702 0.52706 0.0
O429 O 0.01374 0.04861 0.50425 0.0
O430 O 0.05435 0.03533 0.50396 0.0
O431 O 0.0431 0.05306 0.47974 0.0
C432 C 0.00487 0.05394 0.44263 0.0
O433 O 0.01661 0.04161 0.44425 0.0
O434 O 0.99814 0.05708 0.4591 0.0
C435 C 0.01597 0.99922 0.47507 0.0
Tb436 Tb 0.26642 0.77942 0.7608 0.0
C437 C 0.23951 0.78804 0.79201 0.0
Tb438 Tb 0.22419 0.77596 0.74656 0.0
O439 O 0.26941 0.8118 0.76906 0.0
O440 O 0.24958 0.79689 0.74594 0.0
O441 O 0.2562 0.78321 0.78906 0.0
C442 C 0.18947 0.7838 0.73873 0.0
O443 O 0.2258 0.78757 0.77759 0.0
C444 C 0.23497 0.74185 0.75071 0.0
C445 C 0.25164 0.76683 0.71569 0.0
O446 O 0.20518 0.79494 0.73535 0.0
O447 O 0.19324 0.76801 0.74622 0.0
O448 O 0.22088 0.74356 0.73823 0.0
O449 O 0.24099 0.75841 0.76126 0.0
O450 O 0.23502 0.7722 0.71824 0.0
O451 O 0.26469 0.76652 0.73045 0.0
C452 C 0.30184 0.77392 0.76892 0.0
O453 O 0.29692 0.7878 0.75912 0.0
O454 O 0.28682 0.76315 0.77427 0.0
C455 C 0.2555 0.81347 0.75642 0.0
Tb456 Tb 0.4834 0.03293 0.01796 0.0
C457 C 0.50997 0.00156 0.01288 0.0
Tb458 Tb 0.52685 0.04872 0.02274 0.0
O459 O 0.48407 0.02265 0.98728 0.0
O460 O 0.50376 0.04739 0.00128 0.0
O461 O 0.49309 0.00443 0.01755 0.0
C462 C 0.56305 0.05921 0.01588 0.0
O463 O 0.52448 0.01669 0.01243 0.0
C464 C 0.51119 0.04552 0.05515 0.0
C465 C 0.50022 0.07985 0.02877 0.0
O466 O 0.55749 0.05118 0.03109 0.0
O467 O 0.54827 0.06139 0.00472 0.0
O468 O 0.52663 0.05839 0.05376 0.0
O469 O 0.50653 0.03408 0.03938 0.0
O470 O 0.51704 0.07719 0.02371 0.0
O471 O 0.48595 0.06459 0.0296 0.0
C472 C 0.44622 0.02228 0.02049 0.0
O473 O 0.45371 0.03347 0.00807 0.0
O474 O 0.45969 0.0173 0.03166 0.0
C475 C 0.49926 0.03567 0.98568 0.0
Tb476 Tb 0.22766 0.26605 0.26565 0.0
C477 C 0.26235 0.26185 0.2943 0.0
Tb478 Tb 0.26724 0.27243 0.25142 0.0
O479 O 0.22879 0.23424 0.26796 0.0
O480 O 0.24278 0.24953 0.24738 0.0
O481 O 0.24526 0.26674 0.29292 0.0
C482 C 0.30135 0.26907 0.24115 0.0
O483 O 0.27231 0.26071 0.27921 0.0
C484 C 0.25485 0.30529 0.26216 0.0
C485 C 0.23248 0.27613 0.22239 0.0
O486 O 0.28536 0.25789 0.23332 0.0
O487 O 0.29812 0.28232 0.25458 0.0
O488 O 0.26643 0.30419 0.24901 0.0
O489 O 0.25223 0.28903 0.26968 0.0
O490 O 0.24998 0.27227 0.22414 0.0
O491 O 0.22181 0.27616 0.23706 0.0
C492 C 0.19484 0.27025 0.27893 0.0
O493 O 0.21008 0.28407 0.28085 0.0
O494 O 0.19795 0.25405 0.26919 0.0
C495 C 0.24025 0.23317 0.25467 0.0
Tb496 Tb 0.5261 0.54258 0.98253 0.0
C497 C 0.49686 0.52094 0.00766 0.0
Tb498 Tb 0.5398 0.53848 0.02514 0.0
O499 O 0.52133 0.51003 0.97388 0.0
O500 O 0.54126 0.52351 0.99733 0.0
O501 O 0.49898 0.53165 0.99277 0.0
C502 C 0.54883 0.5269 0.05974 0.0
O503 O 0.51136 0.51945 0.02042 0.0
C504 C 0.53255 0.57383 0.0188 0.0
C505 C 0.5691 0.55926 0.99943 0.0
O506 O 0.53359 0.53368 0.05466 0.0
O507 O 0.55911 0.52668 0.04537 0.0
O508 O 0.54458 0.57127 0.03298 0.0
O509 O 0.52407 0.55691 0.01047 0.0
O510 O 0.5669 0.54872 0.01443 0.0
O511 O 0.55467 0.56088 0.9867 0.0
C512 C 0.51581 0.55503 0.94874 0.0
O513 O 0.528 0.54333 0.95142 0.0
O514 O 0.50949 0.55978 0.96511 0.0
C515 C 0.53269 0.5068 0.98835 0.0
Tb516 Tb 0.77562 0.28133 0.26244 0.0
C517 C 0.74565 0.29398 0.28953 0.0
Tb518 Tb 0.73625 0.28532 0.24322 0.0
O519 O 0.78323 0.31403 0.26992 0.0
O520 O 0.76442 0.30162 0.24544 0.0
O521 O 0.76167 0.2869 0.28849 0.0
C522 C 0.70686 0.30037 0.22883 0.0
O523 O 0.7341 0.29544 0.27382 0.0
C524 C 0.73898 0.24853 0.24968 0.0
C525 C 0.76544 0.27073 0.21701 0.0
O526 O 0.72028 0.30985 0.24201 0.0
O527 O 0.70985 0.28236 0.22396 0.0
O528 O 0.72589 0.25259 0.23738 0.0
O529 O 0.74754 0.26475 0.25953 0.0
O530 O 0.75186 0.28167 0.21796 0.0
O531 O 0.77481 0.2663 0.23292 0.0
C532 C 0.80767 0.27138 0.27723 0.0
O533 O 0.80615 0.28194 0.26281 0.0
O534 O 0.79113 0.26625 0.28321 0.0
C535 C 0.77174 0.31785 0.25589 0.0
Tb536 Tb 0.98113 0.5404 0.51701 0.0
C537 C 0.00912 0.51055 0.51188 0.0
Tb538 Tb 0.0242 0.55785 0.52172 0.0
O539 O 0.98148 0.53007 0.48634 0.0
O540 O 0.00101 0.55513 0.49993 0.0
O541 O 0.99214 0.51263 0.51692 0.0
C542 C 0.06056 0.56958 0.5161 0.0
O543 O 0.02289 0.5262 0.51078 0.0
C544 C 0.0088 0.55428 0.55423 0.0
C545 C 0.99621 0.58763 0.52759 0.0
O546 O 0.05464 0.55835 0.52921 0.0
O547 O 0.04606 0.57428 0.50638 0.0
O548 O 0.0239 0.56753 0.55271 0.0
O549 O 0.0044 0.54266 0.53856 0.0
O550 O 0.01328 0.5857 0.52273 0.0
O551 O 0.9824 0.5719 0.52831 0.0
C552 C 0.94422 0.52842 0.51998 0.0
O553 O 0.95117 0.53993 0.50755 0.0
O554 O 0.95807 0.52381 0.53091 0.0
C555 C 0.99653 0.54315 0.48444 0.0
Tb556 Tb 0.75226 0.77907 0.2865 0.0
C557 C 0.76279 0.81343 0.2601 0.0
Tb558 Tb 0.7462 0.76738 0.24248 0.0
O559 O 0.78313 0.78384 0.28566 0.0
O560 O 0.76483 0.76221 0.26581 0.0
O561 O 0.75916 0.80914 0.27776 0.0
C562 C 0.75474 0.76061 0.20623 0.0
O563 O 0.75951 0.79948 0.24467 0.0
C564 C 0.71628 0.77556 0.25794 0.0
C565 C 0.73456 0.73378 0.2691 0.0
O566 O 0.76674 0.76831 0.22129 0.0
O567 O 0.7377 0.75677 0.21149 0.0
O568 O 0.71523 0.76372 0.24181 0.0
O569 O 0.73337 0.78387 0.26308 0.0
O570 O 0.74088 0.73752 0.25221 0.0
O571 O 0.73574 0.74826 0.28378 0.0
C572 C 0.7488 0.78743 0.32413 0.0
O573 O 0.73703 0.79018 0.30981 0.0
O574 O 0.76246 0.7798 0.31727 0.0
C575 C 0.78189 0.77085 0.27034 0.0
Tb576 Tb 0.75676 0.3049 0.76774 0.0
C577 C 0.78794 0.27809 0.76128 0.0
Tb578 Tb 0.74492 0.25948 0.75881 0.0
O579 O 0.74952 0.30331 0.79759 0.0
O580 O 0.75923 0.27968 0.78283 0.0
O581 O 0.78267 0.29555 0.75889 0.0
C582 C 0.73068 0.22146 0.76385 0.0
O583 O 0.77557 0.262 0.76431 0.0
C584 C 0.74858 0.27861 0.72787 0.0
C585 C 0.71306 0.28697 0.76308 0.0
O586 O 0.73878 0.22699 0.7488 0.0
O587 O 0.73061 0.23728 0.77591 0.0
O588 O 0.75066 0.26001 0.72843 0.0
O589 O 0.74267 0.28453 0.74351 0.0
O590 O 0.71743 0.26865 0.76193 0.0
O591 O 0.72619 0.30369 0.76429 0.0
C592 C 0.77265 0.34375 0.768 0.0
O593 O 0.75968 0.33343 0.75475 0.0
O594 O 0.77636 0.3323 0.78112 0.0
C595 C 0.7527 0.28511 0.79825 0.0
Tb596 Tb 0.74972 0.78605 0.7707 0.0
C597 C 0.78552 0.78876 0.80035 0.0
Tb598 Tb 0.7888 0.79312 0.75543 0.0
O599 O 0.75307 0.75554 0.77592 0.0
O600 O 0.76529 0.76911 0.75324 0.0
O601 O 0.76763 0.79131 0.79824 0.0
C602 C 0.82333 0.78976 0.74596 0.0
O603 O 0.79574 0.78716 0.78549 0.0
C604 C 0.77449 0.82534 0.76375 0.0
C605 C 0.75283 0.79162 0.72609 0.0
O606 O 0.80941 0.77484 0.74649 0.0
O607 O 0.81774 0.80659 0.75049 0.0
O608 O 0.78567 0.82379 0.75026 0.0
O609 O 0.77322 0.80999 0.77266 0.0
O610 O 0.77064 0.78854 0.72795 0.0
O611 O 0.74274 0.79299 0.74111 0.0
C612 C 0.71585 0.78823 0.78252 0.0
O613 O 0.72064 0.77205 0.77456 0.0
O614 O 0.73004 0.80321 0.78359 0.0
C615 C 0.76399 0.75382 0.76223 0.0
Tb616 Tb 0.51484 0.5558 0.52117 0.0
C617 C 0.51848 0.52118 0.48959 0.0
Tb618 Tb 0.50403 0.5116 0.53002 0.0
O619 O 0.54453 0.55275 0.52009 0.0
O620 O 0.52752 0.53568 0.53733 0.0
O621 O 0.51513 0.53976 0.49269 0.0
C622 C 0.50416 0.47405 0.53838 0.0
O623 O 0.51689 0.50835 0.50286 0.0
C624 C 0.47526 0.52882 0.51974 0.0
C625 C 0.49867 0.54629 0.56095 0.0
O626 O 0.49318 0.47894 0.52443 0.0
O627 O 0.51493 0.49027 0.54756 0.0
O628 O 0.47408 0.51402 0.53034 0.0
O629 O 0.49147 0.53158 0.51376 0.0
O630 O 0.50182 0.52757 0.55812 0.0
O631 O 0.50167 0.55937 0.54802 0.0
C632 C 0.51595 0.59312 0.51163 0.0
O633 O 0.50351 0.57726 0.50426 0.0
O634 O 0.52775 0.58807 0.52473 0.0
C635 C 0.54354 0.53819 0.53094 0.0
Tb636 Tb 0.03839 0.52333 0.01691 0.0
C637 C 0.02931 0.5075 0.05781 0.0
Tb638 Tb 0.99803 0.51874 0.02861 0.0
O639 O 0.04214 0.55642 0.02144 0.0
O640 O 0.02435 0.53826 0.0374 0.0
O641 O 0.04164 0.5108 0.04478 0.0
C642 C 0.96529 0.52705 0.03891 0.0
O643 O 0.01163 0.5107 0.05509 0.0
C644 C 0.00676 0.48611 0.01141 0.0
C645 C 0.00743 0.53532 0.98859 0.0
O646 O 0.98198 0.53459 0.04804 0.0
O647 O 0.967 0.51462 0.02402 0.0
O648 O 0.99428 0.48575 0.02385 0.0
O649 O 0.01199 0.50396 0.00791 0.0
O650 O 0.99687 0.53579 0.00331 0.0
O651 O 0.02338 0.52803 0.98971 0.0
C652 C 0.07024 0.51287 0.00635 0.0
O653 O 0.0678 0.53132 0.01012 0.0
O654 O 0.05487 0.5005 0.00864 0.0
C655 C 0.0296 0.55606 0.03381 0.0
H656 H 0.97879 0.23164 0.92625 0.0
H657 H 0.98625 0.20961 0.95022 0.0
H658 H 0.04072 0.20895 0.92929 0.0
H659 H 0.0334 0.23119 0.90501 0.0
H660 H 0.99482 0.17018 0.93787 0.0
H661 H 0.0517 0.21867 0.99074 0.0
H662 H 0.03523 0.22909 0.97531 0.0
H663 H 0.05406 0.21898 0.96519 0.0
C664 C 0.99249 0.22707 0.9268 0.0
C665 C 0.00543 0.23308 0.91353 0.0
C666 C 0.99672 0.2145 0.94059 0.0
C667 C 0.01404 0.20775 0.94157 0.0
C668 C 0.02736 0.21424 0.92889 0.0
H669 H 0.05253 0.11675 0.00639 0.0
H670 H 0.0511 0.14579 0.98838 0.0
C671 C 0.02312 0.22687 0.91499 0.0
C672 C 0.0171 0.19239 0.95461 0.0
H673 H 0.04268 0.18459 0.99614 0.0
C674 C 0.00527 0.17331 0.95062 0.0
C675 C 0.03086 0.19654 0.97109 0.0
C676 C 0.04368 0.21694 0.97602 0.0
C677 C 0.00679 0.1582 0.96269 0.0
C678 C 0.02018 0.16246 0.97953 0.0
C679 C 0.03228 0.18146 0.98335 0.0
C680 C 0.02197 0.14708 0.99295 0.0
C681 C 0.99426 0.13766 0.95706 0.0
C682 C 0.00635 0.13878 0.00221 0.0
C683 C 0.00709 0.12213 0.0124 0.0
C684 C 0.02357 0.11372 0.01366 0.0
C685 C 0.03965 0.12295 0.0056 0.0
C686 C 0.03886 0.13953 0.99532 0.0
H687 H 0.98857 0.13534 0.94142 0.0
H688 H 0.00216 0.12546 0.96004 0.0
H689 H 0.98198 0.13629 0.96572 0.0
H690 H 0.9933 0.14465 0.00088 0.0
H691 H 0.99451 0.11532 0.01853 0.0
H692 H 0.02732 0.77899 0.22545 0.0
H693 H 0.06054 0.78299 0.23887 0.0
H694 H 0.07767 0.78304 0.18105 0.0
H695 H 0.04431 0.77855 0.16741 0.0
H696 H 0.09503 0.75874 0.20193 0.0
H697 H 0.10183 0.83288 0.24585 0.0
H698 H 0.08251 0.81452 0.25155 0.0
H699 H 0.08191 0.8227 0.22769 0.0
C700 C 0.03814 0.77995 0.21556 0.0
C701 C 0.03315 0.77852 0.19534 0.0
C702 C 0.05717 0.7824 0.22329 0.0
C703 C 0.07166 0.78374 0.21102 0.0
C704 C 0.06673 0.7822 0.19081 0.0
H705 H 0.19349 0.81785 0.24805 0.0
H706 H 0.16038 0.81763 0.236 0.0
C707 C 0.04766 0.77963 0.18304 0.0
C708 C 0.09184 0.78581 0.21923 0.0
H709 H 0.12671 0.81454 0.25244 0.0
C710 C 0.10198 0.77102 0.21288 0.0
C711 C 0.10102 0.80198 0.23334 0.0
C712 C 0.09133 0.81904 0.23987 0.0
C713 C 0.12087 0.77167 0.22056 0.0
C714 C 0.12974 0.78729 0.23535 0.0
C715 C 0.11979 0.80239 0.24135 0.0
C716 C 0.14946 0.78831 0.24447 0.0
C717 C 0.13124 0.75578 0.21251 0.0
C718 C 0.15419 0.77229 0.25398 0.0
C719 C 0.1731 0.77231 0.26081 0.0
C720 C 0.18765 0.7885 0.2585 0.0
C721 C 0.18268 0.80513 0.25008 0.0
C722 C 0.16375 0.80502 0.24312 0.0
H723 H 0.12449 0.74852 0.19788 0.0
H724 H 0.14636 0.7623 0.21143 0.0
H725 H 0.13083 0.74384 0.22235 0.0
H726 H 0.14331 0.75949 0.25566 0.0
H727 H 0.17636 0.75935 0.2674 0.0
H728 H 0.46762 0.82303 0.4118 0.0
H729 H 0.47284 0.85567 0.43136 0.0
H730 H 0.52945 0.87004 0.4145 0.0
H731 H 0.52429 0.83719 0.39447 0.0
H732 H 0.5006 0.8703 0.46262 0.0
H733 H 0.50626 0.91968 0.4033 0.0
H734 H 0.4968 0.89294 0.39868 0.0
H735 H 0.52199 0.90187 0.40402 0.0
C736 C 0.48121 0.83307 0.4121 0.0
C737 C 0.49555 0.82741 0.4015 0.0
C738 C 0.48415 0.85177 0.42336 0.0
C739 C 0.50147 0.86534 0.42431 0.0
C740 C 0.51587 0.85989 0.41375 0.0
H741 H 0.52374 0.97038 0.51425 0.0
H742 H 0.52792 0.94038 0.49358 0.0
C743 C 0.51292 0.84108 0.40237 0.0
C744 C 0.50422 0.88493 0.43678 0.0
H745 H 0.5085 0.93569 0.4353 0.0
C746 C 0.50254 0.88464 0.45671 0.0
C747 C 0.50658 0.90356 0.42896 0.0
C748 C 0.50789 0.90467 0.40755 0.0
C749 C 0.50259 0.90239 0.46895 0.0
C750 C 0.50476 0.92102 0.46111 0.0
C751 C 0.50695 0.92139 0.44128 0.0
C752 C 0.50333 0.94002 0.47295 0.0
C753 C 0.49944 0.90091 0.48997 0.0
C754 C 0.48848 0.9501 0.46792 0.0
C755 C 0.48632 0.96741 0.4795 0.0
C756 C 0.49905 0.97502 0.49622 0.0
C757 C 0.51402 0.96508 0.50117 0.0
C758 C 0.51625 0.94779 0.48953 0.0
H759 H 0.49388 0.88515 0.49258 0.0
H760 H 0.51316 0.90628 0.49929 0.0
H761 H 0.48928 0.91049 0.49458 0.0
H762 H 0.47834 0.94434 0.45521 0.0
H763 H 0.47467 0.97483 0.47536 0.0
H764 H 0.44058 0.23432 0.70659 0.0
H765 H 0.41111 0.2309 0.72205 0.0
H766 H 0.38828 0.26663 0.68108 0.0
H767 H 0.4171 0.26911 0.66504 0.0
H768 H 0.39866 0.25893 0.74092 0.0
H769 H 0.34201 0.22588 0.68164 0.0
H770 H 0.3668 0.22642 0.67896 0.0
H771 H 0.35618 0.24799 0.67474 0.0
C772 C 0.42903 0.24091 0.70054 0.0
C773 C 0.43116 0.25191 0.68454 0.0
C774 C 0.4122 0.23904 0.70944 0.0
C775 C 0.39725 0.24831 0.70266 0.0
C776 C 0.39922 0.25877 0.6863 0.0
H777 H 0.32097 0.29698 0.77531 0.0
H778 H 0.34747 0.29022 0.75758 0.0
C779 C 0.41585 0.2603 0.67718 0.0
C780 C 0.38063 0.24901 0.71387 0.0
H781 H 0.33232 0.24504 0.70894 0.0
C782 C 0.38414 0.25555 0.73393 0.0
C783 C 0.36156 0.24437 0.70496 0.0
C784 C 0.35643 0.23556 0.68394 0.0
C785 C 0.36931 0.25825 0.74512 0.0
C786 C 0.35043 0.25512 0.7359 0.0
C787 C 0.3468 0.24785 0.716 0.0
C788 C 0.33428 0.25937 0.74657 0.0
C789 C 0.37411 0.26419 0.76676 0.0
C790 C 0.31769 0.24462 0.74571 0.0
C791 C 0.30239 0.24865 0.75548 0.0
C792 C 0.30342 0.26749 0.76634 0.0
C793 C 0.31995 0.28226 0.76721 0.0
C794 C 0.33513 0.27834 0.75719 0.0
H795 H 0.38729 0.25917 0.77227 0.0
H796 H 0.37669 0.28088 0.76988 0.0
H797 H 0.36239 0.25768 0.77491 0.0
H798 H 0.31659 0.22992 0.73757 0.0
H799 H 0.28979 0.23699 0.75465 0.0
H800 H 0.95242 0.86219 0.57793 0.0
H801 H 0.95501 0.88487 0.55256 0.0
H802 H 0.01028 0.87184 0.54353 0.0
H803 H 0.00793 0.84934 0.56884 0.0
H804 H 0.9876 0.91901 0.55746 0.0
H805 H 0.98161 0.86979 0.48742 0.0
H806 H 0.97151 0.86107 0.50863 0.0
H807 H 0.99661 0.8636 0.50723 0.0
C808 C 0.96492 0.8638 0.57022 0.0
C809 C 0.98005 0.85416 0.57547 0.0
C810 C 0.96636 0.87673 0.55577 0.0
C811 C 0.98276 0.87983 0.54616 0.0
C812 C 0.99741 0.86939 0.55063 0.0
H813 H 0.03979 0.98212 0.49784 0.0
H814 H 0.03107 0.95176 0.51398 0.0
C815 C 0.99609 0.85667 0.56519 0.0
C816 C 0.98584 0.89591 0.53341 0.0
H817 H 0.99415 0.90481 0.48724 0.0
C818 C 0.98879 0.91594 0.54205 0.0
C819 C 0.98745 0.89173 0.51339 0.0
C820 C 0.984 0.87038 0.50351 0.0
C821 C 0.99391 0.93202 0.53127 0.0
C822 C 0.99616 0.92784 0.5114 0.0
C823 C 0.99258 0.90784 0.50256 0.0
C824 C 0.00221 0.94427 0.49972 0.0
C825 C 0.99717 0.95336 0.54126 0.0
C826 C 0.98905 0.94949 0.48591 0.0
C827 C 0.99396 0.96684 0.47686 0.0
C828 C 0.01207 0.97913 0.4816 0.0
C829 C 0.02562 0.97309 0.49439 0.0
C830 C 0.0207 0.95578 0.50349 0.0
H831 H 0.99107 0.95413 0.55536 0.0
H832 H 0.0127 0.95936 0.54416 0.0
H833 H 0.99086 0.96328 0.53183 0.0
H834 H 0.97473 0.94071 0.48287 0.0
H835 H 0.98325 0.97121 0.46702 0.0
H836 H 0.47937 0.79413 0.8367 0.0
H837 H 0.45 0.79489 0.81607 0.0
H838 H 0.41835 0.75285 0.84924 0.0
H839 H 0.4475 0.75183 0.86978 0.0
H840 H 0.41237 0.74322 0.80661 0.0
H841 H 0.40469 0.82128 0.8332 0.0
H842 H 0.42741 0.81786 0.826 0.0
H843 H 0.41921 0.80733 0.84704 0.0
C844 C 0.46612 0.78517 0.83968 0.0
C845 C 0.4657 0.77303 0.85494 0.0
C846 C 0.44941 0.78565 0.82791 0.0
C847 C 0.43211 0.77399 0.83126 0.0
C848 C 0.43163 0.76194 0.8465 0.0
H849 H 0.31388 0.7471 0.79141 0.0
H850 H 0.34674 0.74637 0.80369 0.0
C851 C 0.44828 0.7615 0.85829 0.0
C852 C 0.41439 0.77406 0.81883 0.0
H853 H 0.38096 0.80265 0.80948 0.0
C854 C 0.40553 0.75624 0.80706 0.0
C855 C 0.4057 0.79115 0.81945 0.0
C856 C 0.4146 0.81051 0.83216 0.0
C857 C 0.38789 0.75492 0.79609 0.0
C858 C 0.37881 0.77174 0.79733 0.0
C859 C 0.388 0.78978 0.80859 0.0
C860 C 0.35923 0.77066 0.78816 0.0
C861 C 0.37915 0.73553 0.78335 0.0
C862 C 0.35541 0.78462 0.77546 0.0
C863 C 0.33667 0.7852 0.76864 0.0
C864 C 0.32153 0.77189 0.77451 0.0
C865 C 0.32536 0.75749 0.78669 0.0
C866 C 0.3441 0.75696 0.79356 0.0
H867 H 0.39018 0.72689 0.77915 0.0
H868 H 0.36928 0.72594 0.79152 0.0
H869 H 0.37097 0.73848 0.76994 0.0
H870 H 0.3669 0.79537 0.77123 0.0
H871 H 0.33403 0.79643 0.75923 0.0
H872 H 0.452 0.25057 0.0744 0.0
H873 H 0.45643 0.21712 0.06147 0.0
H874 H 0.512 0.22771 0.09411 0.0
H875 H 0.50774 0.26119 0.10725 0.0
H876 H 0.48652 0.20652 0.04008 0.0
H877 H 0.48317 0.17403 0.11031 0.0
H878 H 0.47485 0.197 0.10621 0.0
H879 H 0.49988 0.19729 0.1109 0.0
C880 C 0.46518 0.24584 0.07885 0.0
C881 C 0.47947 0.25855 0.09197 0.0
C882 C 0.46769 0.22673 0.07141 0.0
C883 C 0.48443 0.21993 0.07703 0.0
C884 C 0.49886 0.23264 0.08983 0.0
H885 H 0.52472 0.11531 0.02675 0.0
H886 H 0.52068 0.14949 0.03772 0.0
C887 C 0.49642 0.25179 0.09725 0.0
C888 C 0.4867 0.19944 0.06958 0.0
H889 H 0.49067 0.15351 0.08371 0.0
C890 C 0.48744 0.1949 0.04957 0.0
C891 C 0.48767 0.18434 0.08205 0.0
C892 C 0.4862 0.18826 0.10355 0.0
C893 C 0.48936 0.17561 0.04169 0.0
C894 C 0.49069 0.16063 0.05422 0.0
C895 C 0.48975 0.16512 0.07419 0.0
C896 C 0.49285 0.14007 0.04688 0.0
C897 C 0.48963 0.17129 0.02002 0.0
C898 C 0.4786 0.12349 0.04861 0.0
C899 C 0.48084 0.10394 0.04239 0.0
C900 C 0.49748 0.10062 0.03448 0.0
C901 C 0.51171 0.11732 0.03271 0.0
C902 C 0.5094 0.13688 0.03888 0.0
H903 H 0.48429 0.18291 0.01203 0.0
H904 H 0.50446 0.17115 0.01689 0.0
H905 H 0.48085 0.15627 0.0144 0.0
H906 H 0.46576 0.12569 0.05485 0.0
H907 H 0.46964 0.09145 0.04407 0.0
H908 H 0.07265 0.29498 0.40022 0.0
H909 H 0.09839 0.2991 0.37935 0.0
H910 H 0.09138 0.2345 0.36716 0.0
H911 H 0.06576 0.23014 0.38798 0.0
H912 H 0.13414 0.27867 0.37875 0.0
H913 H 0.0802 0.25989 0.31359 0.0
H914 H 0.07455 0.26916 0.3372 0.0
H915 H 0.07761 0.24354 0.33242 0.0
C916 C 0.07684 0.28164 0.39342 0.0
C917 C 0.06701 0.26223 0.39556 0.0
C918 C 0.09151 0.28404 0.3815 0.0
C919 C 0.09646 0.26709 0.37156 0.0
C920 C 0.08754 0.24773 0.37461 0.0
H921 H 0.16518 0.24003 0.28205 0.0
H922 H 0.14072 0.24095 0.30421 0.0
C923 C 0.07295 0.2453 0.38656 0.0
C924 C 0.11004 0.26951 0.35697 0.0
H925 H 0.11248 0.26333 0.30804 0.0
C926 C 0.12949 0.2755 0.36328 0.0
C927 C 0.10375 0.26531 0.33687 0.0
C928 C 0.08288 0.25923 0.32948 0.0
C929 C 0.143 0.27676 0.34991 0.0
C930 C 0.13673 0.27238 0.32975 0.0
C931 C 0.11721 0.26673 0.32348 0.0
C932 C 0.15027 0.27256 0.31499 0.0
C933 C 0.16385 0.28201 0.35752 0.0
C934 C 0.1632 0.29022 0.31318 0.0
C935 C 0.1772 0.28969 0.30062 0.0
C936 C 0.17829 0.27155 0.28954 0.0
C937 C 0.16461 0.25419 0.29045 0.0
C938 C 0.1507 0.2547 0.30311 0.0
H939 H 0.1663 0.28014 0.3732 0.0
H940 H 0.17212 0.27245 0.34925 0.0
H941 H 0.16944 0.298 0.35582 0.0
H942 H 0.16278 0.30427 0.32186 0.0
H943 H 0.18758 0.30328 0.3001 0.0
H944 H 0.8738 0.03354 0.18099 0.0
H945 H 0.89529 0.02873 0.15639 0.0
H946 H 0.90693 0.09275 0.15287 0.0
H947 H 0.88543 0.09777 0.17739 0.0
H948 H 0.90349 0.06603 0.11571 0.0
H949 H 0.95364 0.04901 0.17493 0.0
H950 H 0.92988 0.03436 0.1722 0.0
H951 H 0.93381 0.06101 0.17972 0.0
C952 C 0.88053 0.04656 0.17465 0.0
C953 C 0.87815 0.06609 0.18139 0.0
C954 C 0.89288 0.04378 0.16068 0.0
C955 C 0.90295 0.06044 0.1532 0.0
C956 C 0.89937 0.07973 0.15863 0.0
H957 H 0.99266 0.07762 0.07725 0.0
H958 H 0.96955 0.08298 0.09991 0.0
C959 C 0.88707 0.08255 0.17263 0.0
C960 C 0.91846 0.05804 0.14114 0.0
H961 H 0.96287 0.04658 0.14324 0.0
C962 C 0.91649 0.0618 0.12167 0.0
C963 C 0.9354 0.05263 0.1491 0.0
C964 C 0.93848 0.04915 0.17017 0.0
C965 C 0.93094 0.05985 0.10975 0.0
C966 C 0.94792 0.05447 0.11774 0.0
C967 C 0.94987 0.05077 0.13723 0.0
C968 C 0.96356 0.05192 0.10588 0.0
C969 C 0.92772 0.06305 0.0886 0.0
C970 C 0.96868 0.03299 0.10272 0.0
C971 C 0.98206 0.0299 0.08998 0.0
C972 C 0.99059 0.04574 0.0802 0.0
C973 C 0.98637 0.06506 0.08448 0.0
C974 C 0.97298 0.06812 0.09724 0.0
H975 H 0.91242 0.06226 0.08372 0.0
H976 H 0.93556 0.0782 0.08653 0.0
H977 H 0.93309 0.05163 0.07916 0.0
H978 H 0.96171 0.02036 0.10945 0.0
H979 H 0.98499 0.01484 0.08711 0.0
H980 H 0.3229 0.72916 0.45604 0.0
H981 H 0.31307 0.74453 0.42739 0.0
H982 H 0.2592 0.70313 0.41939 0.0
H983 H 0.26877 0.68781 0.44818 0.0
H984 H 0.30393 0.72541 0.38979 0.0
H985 H 0.24277 0.75692 0.4141 0.0
H986 H 0.25987 0.7489 0.43083 0.0
H987 H 0.24135 0.73058 0.41641 0.0
C988 C 0.30883 0.72348 0.44841 0.0
C989 C 0.29664 0.70721 0.45454 0.0
C990 C 0.30325 0.73227 0.43195 0.0
C991 C 0.28532 0.72514 0.42128 0.0
C992 C 0.27296 0.70918 0.42756 0.0
H993 H 0.23269 0.7583 0.31283 0.0
H994 H 0.23946 0.74137 0.34167 0.0
C995 C 0.27851 0.70037 0.44403 0.0
C996 C 0.28008 0.73365 0.40302 0.0
H997 H 0.24769 0.75789 0.38093 0.0
C998 C 0.29165 0.73256 0.38789 0.0
C999 C 0.26396 0.74282 0.40043 0.0
C1000 C 0.25134 0.74507 0.41634 0.0
C1001 C 0.28756 0.74032 0.37029 0.0
C1002 C 0.27163 0.74978 0.36782 0.0
C1003 C 0.25987 0.75061 0.38281 0.0
C1004 C 0.26748 0.75971 0.35015 0.0
C1005 C 0.30024 0.73807 0.3544 0.0
C1006 C 0.28085 0.77575 0.34543 0.0
C1007 C 0.27705 0.7853 0.32899 0.0
C1008 C 0.25975 0.7791 0.31693 0.0
C1009 C 0.24624 0.76319 0.32172 0.0
C1010 C 0.25006 0.7536 0.33824 0.0
H1011 H 0.30808 0.72556 0.35618 0.0
H1012 H 0.29189 0.73523 0.33981 0.0
H1013 H 0.3109 0.75221 0.35501 0.0
H1014 H 0.29421 0.78103 0.35458 0.0
H1015 H 0.28771 0.79757 0.32571 0.0
H1016 H 0.55224 0.9852 0.73587 0.0
H1017 H 0.54297 0.99085 0.70247 0.0
H1018 H 0.60043 0.99175 0.68909 0.0
H1019 H 0.60994 0.9861 0.72259 0.0
H1020 H 0.56022 0.02512 0.68358 0.0
H1021 H 0.56577 0.95071 0.64534 0.0
H1022 H 0.56353 0.95441 0.67105 0.0
H1023 H 0.58582 0.96337 0.66226 0.0
C1024 C 0.56292 0.98644 0.72583 0.0
C1025 C 0.58185 0.98517 0.7319 0.0
C1026 C 0.55758 0.9897 0.70675 0.0
C1027 C 0.57098 0.99156 0.69332 0.0
C1028 C 0.58984 0.9901 0.69921 0.0
H1029 H 0.56116 0.01037 0.5712 0.0
H1030 H 0.57223 0.00452 0.60405 0.0
C1031 C 0.59525 0.98694 0.71836 0.0
C1032 C 0.56525 0.99576 0.67336 0.0
H1033 H 0.55816 0.97527 0.62579 0.0
C1034 C 0.55976 0.01425 0.67092 0.0
C1035 C 0.56478 0.98156 0.65694 0.0
C1036 C 0.57015 0.96131 0.6589 0.0
C1037 C 0.55391 0.01902 0.6524 0.0
C1038 C 0.55307 0.00466 0.63596 0.0
C1039 C 0.55875 0.98623 0.63842 0.0
C1040 C 0.54627 0.00842 0.61609 0.0
C1041 C 0.54905 0.03954 0.65061 0.0
C1042 C 0.5279 0.01235 0.61187 0.0
C1043 C 0.52154 0.01584 0.59312 0.0
C1044 C 0.53335 0.0152 0.57813 0.0
C1045 C 0.55166 0.01099 0.58236 0.0
C1046 C 0.55803 0.00763 0.60114 0.0
H1047 H 0.55568 0.0506 0.66335 0.0
H1048 H 0.55379 0.04548 0.6372 0.0
H1049 H 0.5334 0.03831 0.64991 0.0
H1050 H 0.5184 0.01255 0.62306 0.0
H1051 H 0.50731 0.01888 0.59036 0.0
H1052 H 0.25518 0.39422 0.99359 0.0
H1053 H 0.24788 0.37399 0.96176 0.0
H1054 H 0.29358 0.34269 0.97581 0.0
H1055 H 0.30117 0.36292 0.00754 0.0
H1056 H 0.29427 0.35776 0.93998 0.0
H1057 H 0.2226 0.31434 0.94748 0.0
H1058 H 0.22536 0.3412 0.9531 0.0
H1059 H 0.23875 0.3274 0.96814 0.0
C1060 C 0.26361 0.38293 0.99 0.0
C1061 C 0.27879 0.38022 0.00315 0.0
C1062 C 0.25931 0.37129 0.97184 0.0
C1063 C 0.27003 0.35666 0.96657 0.0
C1064 C 0.28508 0.35383 0.97968 0.0
H1065 H 0.27637 0.27983 0.86078 0.0
H1066 H 0.27926 0.2952 0.8946 0.0
C1067 C 0.2894 0.36544 0.9978 0.0
C1068 C 0.26638 0.34517 0.94694 0.0
H1069 H 0.23296 0.31168 0.91601 0.0
C1070 C 0.28092 0.34758 0.93477 0.0
C1071 C 0.24889 0.33202 0.94021 0.0
C1072 C 0.23303 0.32839 0.95294 0.0
C1073 C 0.27837 0.3374 0.9159 0.0
C1074 C 0.26093 0.32417 0.90917 0.0
C1075 C 0.24633 0.32178 0.92129 0.0
C1076 C 0.25758 0.31303 0.8894 0.0
C1077 C 0.29421 0.34127 0.90315 0.0
C1078 C 0.24385 0.31731 0.87557 0.0
C1079 C 0.2421 0.30846 0.8563 0.0
C1080 C 0.25404 0.29519 0.85067 0.0
C1081 C 0.26708 0.29011 0.86476 0.0
C1082 C 0.2688 0.29894 0.88402 0.0
H1083 H 0.3047 0.35524 0.90877 0.0
H1084 H 0.30185 0.32843 0.90268 0.0
H1085 H 0.28847 0.34258 0.88804 0.0
H1086 H 0.235 0.32809 0.87951 0.0
H1087 H 0.23188 0.31256 0.84569 0.0
H1088 H 0.88635 0.07836 0.30644 0.0
H1089 H 0.90961 0.07944 0.33466 0.0
H1090 H 0.94414 0.04921 0.29869 0.0
H1091 H 0.92082 0.0478 0.27037 0.0
H1092 H 0.93796 0.03293 0.33368 0.0
H1093 H 0.96267 0.11595 0.34625 0.0
H1094 H 0.93729 0.10803 0.34452 0.0
H1095 H 0.94956 0.10316 0.32369 0.0
C1096 C 0.89883 0.07184 0.30453 0.0
C1097 C 0.90174 0.06296 0.28619 0.0
C1098 C 0.9122 0.07268 0.32062 0.0
C1099 C 0.92873 0.06477 0.31862 0.0
C1100 C 0.93153 0.05557 0.30043 0.0
H1101 H 0.01632 0.04607 0.40696 0.0
H1102 H 0.00017 0.0508 0.37561 0.0
C1103 C 0.91818 0.05474 0.28431 0.0
C1104 C 0.94268 0.06533 0.33572 0.0
H1105 H 0.97189 0.09724 0.37165 0.0
C1106 C 0.94558 0.04696 0.34187 0.0
C1107 C 0.95254 0.0837 0.34629 0.0
C1108 C 0.95053 0.10385 0.33978 0.0
C1109 C 0.95755 0.04644 0.35882 0.0
C1110 C 0.96712 0.06482 0.36963 0.0
C1111 C 0.96454 0.08321 0.36326 0.0
C1112 C 0.97885 0.06509 0.38827 0.0
C1113 C 0.95923 0.02625 0.36545 0.0
C1114 C 0.97281 0.07263 0.40565 0.0
C1115 C 0.98208 0.07011 0.42353 0.0
C1116 C 0.9975 0.06003 0.42418 0.0
C1117 C 0.00437 0.05377 0.40679 0.0
C1118 C 0.99513 0.05636 0.38892 0.0
H1119 H 0.94794 0.01388 0.35774 0.0
H1120 H 0.97322 0.02268 0.36246 0.0
H1121 H 0.95838 0.02658 0.38134 0.0
H1122 H 0.96032 0.07951 0.40539 0.0
H1123 H 0.97659 0.07513 0.43677 0.0
H1124 H 0.3287 0.72371 0.56031 0.0
H1125 H 0.31787 0.73719 0.5905 0.0
H1126 H 0.26324 0.69789 0.57542 0.0
H1127 H 0.27383 0.68425 0.54532 0.0
H1128 H 0.2708 0.74877 0.5914 0.0
H1129 H 0.29914 0.69395 0.63516 0.0
H1130 H 0.31224 0.70459 0.61651 0.0
H1131 H 0.29026 0.68707 0.60976 0.0
C1132 C 0.31434 0.718 0.56332 0.0
C1133 C 0.30219 0.70281 0.55033 0.0
C1134 C 0.30818 0.72575 0.58058 0.0
C1135 C 0.28975 0.71854 0.58514 0.0
C1136 C 0.27749 0.70368 0.57212 0.0
H1137 H 0.22743 0.75598 0.68152 0.0
H1138 H 0.23566 0.74444 0.64933 0.0
C1139 C 0.28363 0.69586 0.55494 0.0
C1140 C 0.28351 0.72591 0.60385 0.0
H1141 H 0.28387 0.71736 0.65143 0.0
C1142 C 0.27361 0.74195 0.60457 0.0
C1143 C 0.28723 0.71696 0.62093 0.0
C1144 C 0.29778 0.69965 0.62076 0.0
C1145 C 0.26758 0.74952 0.62207 0.0
C1146 C 0.2712 0.74047 0.63922 0.0
C1147 C 0.28102 0.7243 0.63835 0.0
C1148 C 0.26585 0.74803 0.65846 0.0
C1149 C 0.25792 0.76749 0.62213 0.0
C1150 C 0.2799 0.75355 0.67445 0.0
C1151 C 0.2752 0.75981 0.69282 0.0
C1152 C 0.25627 0.76083 0.69577 0.0
C1153 C 0.24216 0.75554 0.67973 0.0
C1154 C 0.24688 0.74904 0.66129 0.0
H1155 H 0.26077 0.77584 0.60943 0.0
H1156 H 0.24231 0.76224 0.62138 0.0
H1157 H 0.26268 0.77807 0.63565 0.0
H1158 H 0.29462 0.75293 0.67273 0.0
H1159 H 0.28651 0.76385 0.70474 0.0
H1160 H 0.60644 0.98763 0.85819 0.0
H1161 H 0.59195 0.99765 0.88721 0.0
H1162 H 0.56033 0.03379 0.85421 0.0
H1163 H 0.5743 0.02337 0.82502 0.0
H1164 H 0.58988 0.03355 0.90847 0.0
H1165 H 0.51849 0.99472 0.8732 0.0
H1166 H 0.54006 0.99192 0.86284 0.0
H1167 H 0.52989 0.01397 0.85999 0.0
C1168 C 0.59656 0.99789 0.85717 0.0
C1169 C 0.59129 0.00448 0.83926 0.0
C1170 C 0.58832 0.00363 0.87377 0.0
C1171 C 0.57475 0.01611 0.87276 0.0
C1172 C 0.5704 0.02373 0.85519 0.0
H1173 H 0.52431 0.06537 0.97281 0.0
H1174 H 0.54393 0.06164 0.94606 0.0
C1175 C 0.57846 0.01782 0.83855 0.0
C1176 C 0.56428 0.02005 0.8897 0.0
H1177 H 0.51966 0.01335 0.90395 0.0
C1178 C 0.57452 0.02916 0.90753 0.0
C1179 C 0.54427 0.01399 0.88851 0.0
C1180 C 0.53253 0.00293 0.87018 0.0
C1181 C 0.56527 0.03245 0.92418 0.0
C1182 C 0.54521 0.02682 0.92281 0.0
C1183 C 0.53502 0.01777 0.90496 0.0
C1184 C 0.53436 0.02929 0.93975 0.0
C1185 C 0.5771 0.0414 0.94316 0.0
C1186 C 0.52222 0.01245 0.94486 0.0
C1187 C 0.51083 0.01464 0.9598 0.0
C1188 C 0.51151 0.03367 0.97007 0.0
C1189 C 0.52378 0.05051 0.9652 0.0
C1190 C 0.53504 0.04836 0.95003 0.0
H1191 H 0.59215 0.03959 0.94304 0.0
H1192 H 0.57699 0.05778 0.94555 0.0
H1193 H 0.57128 0.03432 0.95561 0.0
H1194 H 0.52144 0.99759 0.93714 0.0
H1195 H 0.50157 0.0014 0.96339 0.0
H1196 H 0.23272 0.39289 0.08829 0.0
H1197 H 0.21472 0.37063 0.10862 0.0
H1198 H 0.25985 0.33665 0.11277 0.0
H1199 H 0.27789 0.35861 0.09256 0.0
H1200 H 0.2198 0.31304 0.10559 0.0
H1201 H 0.23388 0.37384 0.16833 0.0
H1202 H 0.22381 0.37895 0.14507 0.0
H1203 H 0.24793 0.37523 0.14813 0.0
C1204 C 0.23874 0.38056 0.09339 0.0
C1205 C 0.25686 0.37767 0.08897 0.0
C1206 C 0.22842 0.36789 0.10498 0.0
C1207 C 0.23604 0.35212 0.11222 0.0
C1208 C 0.25374 0.34875 0.10725 0.0
H1209 H 0.24602 0.2702 0.18748 0.0
H1210 H 0.2395 0.28653 0.15875 0.0
C1211 C 0.26408 0.36141 0.09579 0.0
C1212 C 0.22655 0.33988 0.1262 0.0
H1213 H 0.22312 0.34088 0.1748 0.0
C1214 C 0.22004 0.31916 0.12066 0.0
C1215 C 0.22663 0.34798 0.14573 0.0
C1216 C 0.23346 0.3702 0.15234 0.0
C1217 C 0.21491 0.30607 0.13449 0.0
C1218 C 0.21685 0.3139 0.15435 0.0
C1219 C 0.22171 0.33486 0.15958 0.0
C1220 C 0.2175 0.30077 0.17011 0.0
C1221 C 0.20823 0.28388 0.12777 0.0
C1222 C 0.20721 0.30318 0.18613 0.0
C1223 C 0.2111 0.29396 0.2028 0.0
C1224 C 0.22549 0.28241 0.20374 0.0
C1225 C 0.2349 0.27906 0.18725 0.0
C1226 C 0.231 0.28821 0.17066 0.0
H1227 H 0.2001 0.28154 0.11307 0.0
H1228 H 0.22078 0.27658 0.12671 0.0
H1229 H 0.19914 0.27633 0.13798 0.0
H1230 H 0.19688 0.31299 0.18609 0.0
H1231 H 0.20368 0.29692 0.21532 0.0
H1232 H 0.17623 0.93157 0.06958 0.0
H1233 H 0.14975 0.9495 0.06784 0.0
H1234 H 0.13715 0.9293 0.00645 0.0
H1235 H 0.16393 0.91136 0.00802 0.0
H1236 H 0.13957 0.97055 0.01512 0.0
H1237 H 0.0924 0.9294 0.06247 0.0
H1238 H 0.11636 0.93775 0.07385 0.0
H1239 H 0.11161 0.91939 0.05261 0.0
C1240 C 0.16769 0.93064 0.05573 0.0
C1241 C 0.17224 0.91998 0.03893 0.0
C1242 C 0.15244 0.94085 0.05479 0.0
C1243 C 0.14128 0.9406 0.03707 0.0
C1244 C 0.1455 0.92962 0.02032 0.0
H1245 H 0.03905 0.99339 0.02584 0.0
H1246 H 0.06144 0.9703 0.02614 0.0
C1247 C 0.16076 0.9193 0.02125 0.0
C1248 C 0.12616 0.95298 0.03593 0.0
H1249 H 0.08627 0.96174 0.05586 0.0
C1250 C 0.12782 0.9685 0.0239 0.0
C1251 C 0.1107 0.95021 0.04722 0.0
C1252 C 0.10751 0.93316 0.05962 0.0
C1253 C 0.11482 0.98171 0.02332 0.0
C1254 C 0.09991 0.97956 0.03534 0.0
C1255 C 0.09787 0.96361 0.04688 0.0
C1256 C 0.08618 0.99359 0.03602 0.0
C1257 C 0.1171 0.99773 0.0097 0.0
C1258 C 0.09248 0.01436 0.04178 0.0
C1259 C 0.07952 0.02751 0.04198 0.0
C1260 C 0.05997 0.02012 0.03678 0.0
C1261 C 0.05373 0.99937 0.03106 0.0
C1262 C 0.06665 0.98621 0.03084 0.0
H1263 H 0.12571 0.99394 0.99788 0.0
H1264 H 0.10306 0.99984 0.00305 0.0
H1265 H 0.12454 0.01227 0.01799 0.0
H1266 H 0.10744 0.02042 0.04611 0.0
H1267 H 0.08477 0.04349 0.04624 0.0
H1268 H 0.73944 0.65682 0.99606 0.0
H1269 H 0.70615 0.64451 5e-05 0.0
H1270 H 0.70099 0.60146 0.94894 0.0
H1271 H 0.73446 0.61338 0.94501 0.0
H1272 H 0.67207 0.64102 0.9767 0.0
H1273 H 0.6867 0.56604 0.9916 0.0
H1274 H 0.7054 0.5875 0.99088 0.0
H1275 H 0.69323 0.57329 0.96864 0.0
C1276 C 0.7312 0.64487 0.98552 0.0
C1277 C 0.73966 0.63586 0.97037 0.0
C1278 C 0.71217 0.63788 0.98783 0.0
C1279 C 0.70128 0.6218 0.97504 0.0
C1280 C 0.70933 0.61358 0.95922 0.0
H1281 H 0.57981 0.5784 0.96835 0.0
H1282 H 0.61175 0.59442 0.963 0.0
C1283 C 0.72841 0.6205 0.95694 0.0
C1284 C 0.68182 0.61304 0.97888 0.0
H1285 H 0.65448 0.5697 0.98921 0.0
C1286 C 0.66818 0.62544 0.97943 0.0
C1287 C 0.67697 0.59283 0.98286 0.0
C1288 C 0.69137 0.57917 0.98367 0.0
C1289 C 0.64966 0.61803 0.98357 0.0
C1290 C 0.64463 0.59761 0.98684 0.0
C1291 C 0.65836 0.58532 0.98655 0.0
C1292 C 0.62518 0.58855 0.99046 0.0
C1293 C 0.63578 0.63224 0.98475 0.0
C1294 C 0.6222 0.57952 0.0075 0.0
C1295 C 0.60396 0.57009 0.01052 0.0
C1296 C 0.58839 0.56951 0.99652 0.0
C1297 C 0.59145 0.57867 0.97951 0.0
C1298 C 0.60969 0.58798 0.97646 0.0
H1299 H 0.64324 0.64825 0.98753 0.0
H1300 H 0.62658 0.63027 0.97071 0.0
H1301 H 0.62652 0.62907 0.99643 0.0
H1302 H 0.63402 0.57972 0.01843 0.0
H1303 H 0.6021 0.56322 0.0238 0.0
H1304 H 0.66883 0.45562 0.25845 0.0
H1305 H 0.68806 0.43141 0.24715 0.0
H1306 H 0.71864 0.43819 0.30448 0.0
H1307 H 0.69958 0.46236 0.31601 0.0
H1308 H 0.73198 0.43385 0.2514 0.0
H1309 H 0.68908 0.37669 0.28973 0.0
H1310 H 0.68079 0.39889 0.28292 0.0
H1311 H 0.69813 0.40087 0.30368 0.0
C1312 C 0.67985 0.45224 0.26861 0.0
C1313 C 0.68249 0.46074 0.28823 0.0
C1314 C 0.69083 0.43846 0.26208 0.0
C1315 C 0.70455 0.43297 0.27506 0.0
C1316 C 0.70798 0.44223 0.29432 0.0
H1317 H 0.77516 0.34718 0.28604 0.0
H1318 H 0.75938 0.37622 0.28777 0.0
C1319 C 0.69707 0.45603 0.30086 0.0
C1320 C 0.71412 0.41625 0.26914 0.0
H1321 H 0.71669 0.36817 0.27766 0.0
C1322 C 0.72857 0.41939 0.25692 0.0
C1323 C 0.70938 0.39742 0.27624 0.0
C1324 C 0.6934 0.39309 0.28875 0.0
C1325 C 0.73909 0.40432 0.25239 0.0
C1326 C 0.73486 0.38585 0.26024 0.0
C1327 C 0.71992 0.38248 0.27181 0.0
C1328 C 0.7465 0.37018 0.25789 0.0
C1329 C 0.75509 0.4084 0.23992 0.0
C1330 C 0.74473 0.35751 0.24035 0.0
C1331 C 0.75376 0.34087 0.23932 0.0
C1332 C 0.76443 0.33671 0.25588 0.0
C1333 C 0.76696 0.35004 0.27308 0.0
C1334 C 0.75796 0.36659 0.27411 0.0
H1335 H 0.75744 0.42409 0.23607 0.0
H1336 H 0.76847 0.40572 0.24765 0.0
H1337 H 0.7518 0.3978 0.2263 0.0
H1338 H 0.73576 0.35999 0.22776 0.0
H1339 H 0.75176 0.33081 0.22586 0.0
H1340 H 0.78862 0.41243 0.53096 0.0
H1341 H 0.81989 0.43314 0.53 0.0
H1342 H 0.79456 0.47228 0.49477 0.0
H1343 H 0.76297 0.45156 0.49562 0.0
H1344 H 0.83126 0.45821 0.48366 0.0
H1345 H 0.83373 0.49315 0.55992 0.0
H1346 H 0.82649 0.46614 0.55562 0.0
H1347 H 0.81168 0.48183 0.54509 0.0
C1348 C 0.78964 0.42523 0.52272 0.0
C1349 C 0.77329 0.43037 0.51337 0.0
C1350 C 0.80753 0.43711 0.5223 0.0
C1351 C 0.80941 0.45431 0.51253 0.0
C1352 C 0.79329 0.45907 0.50247 0.0
H1353 H 0.91431 0.53679 0.4974 0.0
H1354 H 0.88079 0.52045 0.49545 0.0
C1355 C 0.7753 0.44722 0.50295 0.0
C1356 C 0.82822 0.46755 0.51348 0.0
H1357 H 0.86229 0.49925 0.54518 0.0
C1358 C 0.83803 0.46739 0.49699 0.0
C1359 C 0.8369 0.47938 0.53097 0.0
C1360 C 0.82667 0.48034 0.54892 0.0
C1361 C 0.85671 0.47823 0.49775 0.0
C1362 C 0.86553 0.48985 0.51537 0.0
C1363 C 0.85549 0.49034 0.53171 0.0
C1364 C 0.88549 0.50084 0.51741 0.0
C1365 C 0.86708 0.47646 0.47995 0.0
C1366 C 0.89907 0.49588 0.53102 0.0
C1367 C 0.91814 0.50537 0.53234 0.0
C1368 C 0.9239 0.51996 0.52005 0.0
C1369 C 0.91021 0.52547 0.50694 0.0
C1370 C 0.89112 0.51605 0.50571 0.0
H1371 H 0.86006 0.46327 0.46936 0.0
H1372 H 0.86725 0.49024 0.47258 0.0
H1373 H 0.88205 0.47502 0.48399 0.0
H1374 H 0.89498 0.48428 0.54029 0.0
H1375 H 0.92843 0.5009 0.5426 0.0
H1376 H 0.34349 0.11123 0.29158 0.0
H1377 H 0.32043 0.1317 0.28241 0.0
H1378 H 0.34409 0.13905 0.22826 0.0
H1379 H 0.36763 0.11844 0.23741 0.0
H1380 H 0.33838 0.17567 0.24948 0.0
H1381 H 0.27362 0.11616 0.24149 0.0
H1382 H 0.28836 0.11675 0.26391 0.0
H1383 H 0.29721 0.11052 0.24116 0.0
C1384 C 0.34384 0.11704 0.27763 0.0
C1385 C 0.35747 0.11313 0.26522 0.0
C1386 C 0.3305 0.12866 0.27237 0.0
C1387 C 0.33034 0.13662 0.25454 0.0
C1388 C 0.34389 0.13287 0.24203 0.0
H1389 H 0.25919 0.22476 0.22369 0.0
H1390 H 0.28109 0.201 0.22071 0.0
C1391 C 0.35729 0.12107 0.24726 0.0
C1392 C 0.31643 0.14958 0.24973 0.0
H1393 H 0.26895 0.15039 0.24739 0.0
C1394 C 0.32317 0.17012 0.24859 0.0
C1395 C 0.29661 0.14226 0.24855 0.0
C1396 C 0.2885 0.12016 0.24864 0.0
C1397 C 0.31064 0.18378 0.24758 0.0
C1398 C 0.29088 0.17658 0.24749 0.0
C1399 C 0.28411 0.15589 0.24764 0.0
C1400 C 0.27715 0.19042 0.24867 0.0
C1401 C 0.31869 0.20594 0.24768 0.0
C1402 C 0.26726 0.19187 0.26509 0.0
C1403 C 0.2548 0.20539 0.2668 0.0
C1404 C 0.25206 0.21768 0.25211 0.0
C1405 C 0.26144 0.21574 0.23539 0.0
C1406 C 0.27392 0.20221 0.23368 0.0
H1407 H 0.33439 0.20947 0.25139 0.0
H1408 H 0.31535 0.21045 0.23304 0.0
H1409 H 0.31218 0.21522 0.25826 0.0
H1410 H 0.26951 0.18284 0.27679 0.0
H1411 H 0.24775 0.20664 0.27985 0.0
H1412 H 0.35464 0.13821 0.51557 0.0
H1413 H 0.37763 0.12259 0.53377 0.0
H1414 H 0.33236 0.08851 0.56023 0.0
H1415 H 0.30918 0.10403 0.54208 0.0
H1416 H 0.38548 0.1172 0.57637 0.0
H1417 H 0.35616 0.04668 0.52621 0.0
H1418 H 0.3514 0.07081 0.52059 0.0
H1419 H 0.34018 0.05882 0.5395 0.0
C1420 C 0.34959 0.12772 0.52554 0.0
C1421 C 0.33009 0.12214 0.52718 0.0
C1422 C 0.36274 0.11888 0.53599 0.0
C1423 C 0.35659 0.10433 0.54818 0.0
C1424 C 0.33729 0.09964 0.5508 0.0
H1425 H 0.43584 0.02209 0.55983 0.0
H1426 H 0.40839 0.03609 0.5695 0.0
C1427 C 0.32411 0.10849 0.54036 0.0
C1428 C 0.37015 0.09239 0.55591 0.0
H1429 H 0.3856 0.04868 0.54406 0.0
C1430 C 0.38533 0.10201 0.56973 0.0
C1431 C 0.36967 0.07247 0.54745 0.0
C1432 C 0.35356 0.06148 0.53256 0.0
C1433 C 0.40086 0.09273 0.57418 0.0
C1434 C 0.40134 0.0737 0.56408 0.0
C1435 C 0.38528 0.06332 0.55173 0.0
C1436 C 0.41932 0.0662 0.56278 0.0
C1437 C 0.41696 0.10382 0.58896 0.0
C1438 C 0.43464 0.07853 0.55611 0.0
C1439 C 0.45014 0.07061 0.55061 0.0
C1440 C 0.45053 0.05013 0.55142 0.0
C1441 C 0.43575 0.03793 0.55902 0.0
C1442 C 0.42017 0.04592 0.56461 0.0
H1443 H 0.41142 0.11244 0.60086 0.0
H1444 H 0.42535 0.09336 0.59536 0.0
H1445 H 0.42654 0.11487 0.58186 0.0
H1446 H 0.43411 0.09402 0.55395 0.0
H1447 H 0.46144 0.08036 0.5449 0.0
H1448 H 0.64857 0.54971 0.27354 0.0
H1449 H 0.66172 0.58356 0.26619 0.0
H1450 H 0.69959 0.59387 0.31955 0.0
H1451 H 0.68667 0.56001 0.32703 0.0
H1452 H 0.66231 0.62074 0.2887 0.0
H1453 H 0.73516 0.60878 0.27777 0.0
H1454 H 0.71538 0.58817 0.27769 0.0
H1455 H 0.72722 0.60176 0.30032 0.0
C1456 C 0.65976 0.55911 0.28371 0.0
C1457 C 0.66659 0.55206 0.30087 0.0
C1458 C 0.66723 0.57847 0.27947 0.0
C1459 C 0.68178 0.5911 0.29219 0.0
C1460 C 0.68859 0.58421 0.30936 0.0
H1461 H 0.71847 0.72043 0.30072 0.0
H1462 H 0.70533 0.68574 0.30554 0.0
C1463 C 0.6811 0.56487 0.31366 0.0
C1464 C 0.68946 0.61172 0.28777 0.0
H1465 H 0.73018 0.64258 0.27934 0.0
C1466 C 0.67712 0.62551 0.28657 0.0
C1467 C 0.70873 0.6178 0.28476 0.0
C1468 C 0.72239 0.60333 0.28501 0.0
C1469 C 0.68367 0.64539 0.28288 0.0
C1470 C 0.70309 0.65167 0.28055 0.0
C1471 C 0.71533 0.63775 0.28129 0.0
C1472 C 0.71102 0.6727 0.27753 0.0
C1473 C 0.66971 0.65947 0.28133 0.0
C1474 C 0.71892 0.67682 0.26033 0.0
C1475 C 0.72652 0.69666 0.25752 0.0
C1476 C 0.72649 0.71273 0.27197 0.0
C1477 C 0.7187 0.70847 0.28926 0.0
C1478 C 0.71107 0.68865 0.29202 0.0
H1479 H 0.65477 0.6511 0.27856 0.0
H1480 H 0.67122 0.66952 0.29522 0.0
H1481 H 0.67255 0.66907 0.2695 0.0
H1482 H 0.7191 0.66468 0.24901 0.0
H1483 H 0.73244 0.69937 0.24405 0.0
H1484 H 0.84341 0.53383 0.79191 0.0
H1485 H 0.82421 0.49982 0.78671 0.0
H1486 H 0.86771 0.47851 0.75625 0.0
H1487 H 0.88663 0.51289 0.76061 0.0
H1488 H 0.83331 0.46019 0.73948 0.0
H1489 H 0.83559 0.45708 0.81888 0.0
H1490 H 0.82496 0.47748 0.81153 0.0
H1491 H 0.84961 0.47739 0.8087 0.0
C1492 C 0.84882 0.52193 0.78397 0.0
C1493 C 0.86663 0.52593 0.77689 0.0
C1494 C 0.83789 0.50246 0.78112 0.0
C1495 C 0.84478 0.48646 0.77166 0.0
C1496 C 0.86218 0.49058 0.76377 0.0
H1497 H 0.80561 0.36227 0.78945 0.0
H1498 H 0.82314 0.39645 0.78879 0.0
C1499 C 0.87298 0.51021 0.76626 0.0
C1500 C 0.83413 0.46539 0.77064 0.0
H1501 H 0.81427 0.43065 0.79876 0.0
C1502 C 0.82922 0.45367 0.75244 0.0
C1503 C 0.82909 0.45673 0.78759 0.0
C1504 C 0.83526 0.46775 0.80778 0.0
C1505 C 0.81924 0.43363 0.75072 0.0
C1506 C 0.81346 0.42531 0.7676 0.0
C1507 C 0.81848 0.43704 0.78577 0.0
C1508 C 0.80293 0.40423 0.76708 0.0
C1509 C 0.81552 0.42146 0.7309 0.0
C1510 C 0.78566 0.3971 0.75513 0.0
C1511 C 0.77577 0.37733 0.75523 0.0
C1512 C 0.78277 0.3646 0.76767 0.0
C1513 C 0.79985 0.37182 0.7798 0.0
C1514 C 0.80989 0.39136 0.77941 0.0
H1515 H 0.82566 0.42774 0.72093 0.0
H1516 H 0.81664 0.40548 0.73188 0.0
H1517 H 0.80095 0.42188 0.72435 0.0
H1518 H 0.77967 0.40687 0.74591 0.0
H1519 H 0.76256 0.37211 0.74582 0.0
H1520 H 0.00171 0.81876 0.12395 0.0
H1521 H 0.00879 0.84685 0.10463 0.0
H1522 H 0.96195 0.81875 0.06165 0.0
H1523 H 0.95446 0.79086 0.08105 0.0
H1524 H 0.01676 0.85122 0.06646 0.0
H1525 H 0.94743 0.87233 0.07969 0.0
H1526 H 0.95703 0.8539 0.09249 0.0
H1527 H 0.94565 0.84717 0.06798 0.0
C1528 C 0.9931 0.81837 0.11023 0.0
C1529 C 0.97731 0.80273 0.10422 0.0
C1530 C 0.99717 0.83445 0.09921 0.0
C1531 C 0.98559 0.83511 0.08196 0.0
C1532 C 0.97075 0.81878 0.07517 0.0
H1533 H 0.97937 0.93725 0.01527 0.0
H1534 H 0.97594 0.90265 0.02399 0.0
C1535 C 0.96655 0.80281 0.08626 0.0
C1536 C 0.98819 0.85354 0.07192 0.0
H1537 H 0.96632 0.89215 0.06026 0.0
C1538 C 0.0057 0.86012 0.06499 0.0
C1539 C 0.97375 0.86515 0.07007 0.0
C1540 C 0.95496 0.85944 0.07809 0.0
C1541 C 0.00919 0.87809 0.05635 0.0
C1542 C 0.99486 0.88984 0.05483 0.0
C1543 C 0.97722 0.88301 0.06132 0.0
C1544 C 0.99829 0.91009 0.0481 0.0
C1545 C 0.02819 0.88439 0.04899 0.0
C1546 C 0.01197 0.92566 0.05875 0.0
C1547 C 0.01385 0.94533 0.05389 0.0
C1548 C 0.00203 0.9498 0.03832 0.0
C1549 C 0.98865 0.93416 0.02732 0.0
C1550 C 0.98671 0.91444 0.03227 0.0
H1551 H 0.0352 0.87129 0.04588 0.0
H1552 H 0.02664 0.89186 0.03558 0.0
H1553 H 0.03768 0.89529 0.06028 0.0
H1554 H 0.02076 0.92274 0.07127 0.0
H1555 H 0.02428 0.95712 0.0626 0.0
H1556 H 0.96747 0.26845 0.79924 0.0
H1557 H 0.9362 0.26995 0.7827 0.0
H1558 H 0.91634 0.2836 0.83831 0.0
H1559 H 0.94721 0.28118 0.85476 0.0
H1560 H 0.89169 0.25545 0.81776 0.0
H1561 H 0.91106 0.31545 0.77075 0.0
H1562 H 0.9233 0.29492 0.7664 0.0
H1563 H 0.92773 0.31018 0.78968 0.0
C1564 C 0.95645 0.27202 0.80785 0.0
C1565 C 0.95962 0.27448 0.82825 0.0
C1566 C 0.93862 0.273 0.7984 0.0
C1567 C 0.92389 0.2771 0.80921 0.0
C1568 C 0.92739 0.28029 0.82962 0.0
H1569 H 0.81757 0.30995 0.77046 0.0
H1570 H 0.85079 0.30873 0.78018 0.0
C1571 C 0.94502 0.27885 0.83903 0.0
C1572 C 0.90445 0.27678 0.79956 0.0
H1573 H 0.87935 0.29666 0.76466 0.0
C1574 C 0.88902 0.26454 0.80619 0.0
C1575 C 0.90089 0.28873 0.78455 0.0
C1576 C 0.9166 0.30321 0.77756 0.0
C1577 C 0.8702 0.26411 0.79852 0.0
C1578 C 0.86665 0.27553 0.78307 0.0
C1579 C 0.88207 0.28765 0.77629 0.0
C1580 C 0.84697 0.2762 0.77478 0.0
C1581 C 0.85433 0.25204 0.80769 0.0
C1582 C 0.83387 0.25839 0.7677 0.0
C1583 C 0.81473 0.25901 0.76249 0.0
C1584 C 0.80849 0.27752 0.76371 0.0
C1585 C 0.82192 0.29544 0.76933 0.0
C1586 C 0.84095 0.29477 0.77492 0.0
H1587 H 0.85921 0.24906 0.82258 0.0
H1588 H 0.84217 0.26 0.80863 0.0
H1589 H 0.8492 0.23725 0.79874 0.0
H1590 H 0.8383 0.24393 0.76681 0.0
H1591 H 0.80475 0.24497 0.75799 0.0
H1592 H 0.45287 0.20003 0.60433 0.0
H1593 H 0.46493 0.17155 0.5891 0.0
H1594 H 0.51871 0.19167 0.62469 0.0
H1595 H 0.50669 0.21996 0.6403 0.0
H1596 H 0.49507 0.17169 0.56788 0.0
H1597 H 0.50608 0.1327 0.63327 0.0
H1598 H 0.49255 0.15264 0.63275 0.0
H1599 H 0.51813 0.15857 0.6361 0.0
C1600 C 0.46722 0.19835 0.60906 0.0
C1601 C 0.47875 0.21229 0.62366 0.0
C1602 C 0.47411 0.18206 0.60028 0.0
C1603 C 0.49265 0.1793 0.6059 0.0
C1604 C 0.50423 0.19321 0.62039 0.0
H1605 H 0.54979 0.09799 0.53568 0.0
H1606 H 0.54222 0.12814 0.55369 0.0
C1607 C 0.49733 0.20946 0.62926 0.0
C1608 C 0.49995 0.16215 0.59622 0.0
H1609 H 0.51779 0.12002 0.60473 0.0
C1610 C 0.50007 0.16041 0.57594 0.0
C1611 C 0.5063 0.14731 0.60672 0.0
C1612 C 0.50562 0.14772 0.62838 0.0
C1613 C 0.50631 0.14425 0.56586 0.0
C1614 C 0.51301 0.12964 0.57641 0.0
C1615 C 0.51291 0.13139 0.5967 0.0
C1616 C 0.51878 0.11161 0.56651 0.0
C1617 C 0.50508 0.14261 0.54396 0.0
C1618 C 0.50876 0.0923 0.56844 0.0
C1619 C 0.51323 0.07523 0.5584 0.0
C1620 C 0.52767 0.07706 0.5461 0.0
C1621 C 0.5384 0.09624 0.54489 0.0
C1622 C 0.53396 0.11343 0.55502 0.0
H1623 H 0.49573 0.15238 0.53786 0.0
H1624 H 0.5195 0.14741 0.53958 0.0
H1625 H 0.49957 0.12679 0.5374 0.0
H1626 H 0.49718 0.09045 0.57743 0.0
H1627 H 0.50534 0.0606 0.56032 0.0
H1628 H 0.55339 0.78827 0.30247 0.0
H1629 H 0.58536 0.79023 0.29294 0.0
H1630 H 0.60773 0.79114 0.35282 0.0
H1631 H 0.5755 0.78892 0.36255 0.0
H1632 H 0.61932 0.81825 0.30385 0.0
H1633 H 0.62485 0.74223 0.32467 0.0
H1634 H 0.6026 0.75104 0.3228 0.0
H1635 H 0.62 0.76014 0.34348 0.0
C1636 C 0.56508 0.78903 0.3137 0.0
C1637 C 0.56183 0.78823 0.33327 0.0
C1638 C 0.58339 0.79021 0.3082 0.0
C1639 C 0.5989 0.79053 0.3221 0.0
C1640 C 0.5959 0.79058 0.3418 0.0
H1641 H 0.71477 0.80619 0.28615 0.0
H1642 H 0.6876 0.81089 0.30384 0.0
C1643 C 0.5775 0.78944 0.34736 0.0
C1644 C 0.6179 0.7899 0.31556 0.0
H1645 H 0.65033 0.75921 0.31017 0.0
C1646 C 0.62626 0.80548 0.30543 0.0
C1647 C 0.62677 0.77308 0.31744 0.0
C1648 C 0.6181 0.75556 0.32755 0.0
C1649 C 0.643 0.80447 0.29674 0.0
C1650 C 0.65174 0.78754 0.29843 0.0
C1651 C 0.64364 0.77221 0.30896 0.0
C1652 C 0.66849 0.7847 0.28821 0.0
C1653 C 0.65072 0.82109 0.28509 0.0
C1654 C 0.66689 0.76823 0.27384 0.0
C1655 C 0.68243 0.7654 0.26393 0.0
C1656 C 0.69991 0.77889 0.26832 0.0
C1657 C 0.70153 0.79539 0.2827 0.0
C1658 C 0.68597 0.79821 0.29266 0.0
H1659 H 0.64024 0.83086 0.2819 0.0
H1660 H 0.66362 0.8307 0.29347 0.0
H1661 H 0.65482 0.81472 0.27112 0.0
H1662 H 0.65354 0.75762 0.27017 0.0
H1663 H 0.6808 0.75255 0.25292 0.0
H1664 H 0.99265 0.24143 0.48936 0.0
H1665 H 0.99938 0.21583 0.51006 0.0
H1666 H 0.03738 0.19723 0.47031 0.0
H1667 H 0.03168 0.22345 0.45047 0.0
H1668 H 0.9895 0.17872 0.50117 0.0
H1669 H 0.06687 0.19081 0.51854 0.0
H1670 H 0.0555 0.20992 0.50888 0.0
H1671 H 0.06225 0.19047 0.49278 0.0
C1672 C 0.00292 0.23228 0.48545 0.0
C1673 C 0.01164 0.2344 0.46832 0.0
C1674 C 0.00674 0.21764 0.49726 0.0
C1675 C 0.01908 0.20467 0.49194 0.0
C1676 C 0.02835 0.20742 0.47522 0.0
H1677 H 0.00018 0.07899 0.49043 0.0
H1678 H 0.99902 0.11443 0.48868 0.0
C1679 C 0.02493 0.22235 0.46372 0.0
C1680 C 0.02006 0.18643 0.50186 0.0
H1681 H 0.05037 0.15508 0.51348 0.0
C1682 C 0.00289 0.17384 0.50438 0.0
C1683 C 0.03745 0.1801 0.50668 0.0
C1684 C 0.05651 0.19373 0.50678 0.0
C1685 C 0.00257 0.1545 0.50992 0.0
C1686 C 0.01978 0.14717 0.51206 0.0
C1687 C 0.03706 0.16038 0.51125 0.0
C1688 C 0.02009 0.12557 0.5136 0.0
C1689 C 0.98371 0.14213 0.51312 0.0
C1690 C 0.03288 0.11996 0.5276 0.0
C1691 C 0.03418 0.0997 0.52793 0.0
C1692 C 0.02257 0.08472 0.51441 0.0
C1693 C 0.00952 0.09026 0.50073 0.0
C1694 C 0.00856 0.11052 0.50005 0.0
H1695 H 0.97428 0.15199 0.519 0.0
H1696 H 0.9764 0.13413 0.49898 0.0
H1697 H 0.98548 0.13086 0.52335 0.0
H1698 H 0.042 0.13126 0.53815 0.0
H1699 H 0.04434 0.09579 0.53872 0.0
H1700 H 0.56115 0.37216 0.16133 0.0
H1701 H 0.59397 0.37293 0.1749 0.0
H1702 H 0.59107 0.31286 0.14638 0.0
H1703 H 0.55843 0.31199 0.13265 0.0
H1704 H 0.60354 0.34605 0.1998 0.0
H1705 H 0.64305 0.3421 0.13547 0.0
H1706 H 0.62015 0.34961 0.13474 0.0
H1707 H 0.62166 0.3233 0.13258 0.0
C1708 C 0.56763 0.35927 0.15762 0.0
C1709 C 0.55717 0.34195 0.146 0.0
C1710 C 0.58637 0.35976 0.16539 0.0
C1711 C 0.59499 0.34306 0.16145 0.0
C1712 C 0.58482 0.32608 0.14926 0.0
H1713 H 0.6786 0.2815 0.20113 0.0
H1714 H 0.65306 0.29577 0.18548 0.0
C1715 C 0.5661 0.32554 0.14154 0.0
C1716 C 0.6137 0.34223 0.17175 0.0
H1717 H 0.65663 0.33006 0.1642 0.0
C1718 C 0.61536 0.34304 0.19211 0.0
C1719 C 0.62907 0.33838 0.16164 0.0
C1720 C 0.62848 0.3385 0.13991 0.0
C1721 C 0.63146 0.33858 0.20249 0.0
C1722 C 0.64629 0.33345 0.1922 0.0
C1723 C 0.64513 0.33387 0.172 0.0
C1724 C 0.66205 0.32539 0.20176 0.0
C1725 C 0.63195 0.3381 0.22419 0.0
C1726 C 0.67553 0.33739 0.21609 0.0
C1727 C 0.69009 0.32922 0.22515 0.0
C1728 C 0.69133 0.309 0.21988 0.0
C1729 C 0.67789 0.29711 0.20548 0.0
C1730 C 0.66337 0.30525 0.19649 0.0
H1731 H 0.6181 0.33959 0.22947 0.0
H1732 H 0.63576 0.32381 0.22829 0.0
H1733 H 0.64298 0.35075 0.23178 0.0
H1734 H 0.67483 0.35305 0.22018 0.0
H1735 H 0.7004 0.33871 0.23615 0.0
H1736 H 0.52894 0.83199 0.91977 0.0
H1737 H 0.53534 0.8656 0.93828 0.0
H1738 H 0.48064 0.85296 0.9598 0.0
H1739 H 0.47414 0.81939 0.9416 0.0
H1740 H 0.51378 0.89602 0.93477 0.0
H1741 H 0.51721 0.87386 0.00942 0.0
H1742 H 0.51906 0.85678 0.98834 0.0
H1743 H 0.49615 0.86115 0.99407 0.0
C1744 C 0.51831 0.8363 0.92854 0.0
C1745 C 0.50103 0.82294 0.92922 0.0
C1746 C 0.52201 0.8555 0.9391 0.0
C1747 C 0.5086 0.8616 0.95065 0.0
C1748 C 0.49136 0.84836 0.95132 0.0
H1749 H 0.48437 0.96651 0.013 0.0
H1750 H 0.48653 0.93278 0.9987 0.0
C1751 C 0.48762 0.82921 0.94077 0.0
C1752 C 0.51209 0.88216 0.96125 0.0
H1753 H 0.51337 0.90777 0.00631 0.0
C1754 C 0.51399 0.89866 0.95045 0.0
C1755 C 0.51236 0.88549 0.98168 0.0
C1756 C 0.51127 0.8684 0.9941 0.0
C1757 C 0.51524 0.91838 0.95945 0.0
C1758 C 0.5149 0.92162 0.97982 0.0
C1759 C 0.5136 0.90519 0.99069 0.0
C1760 C 0.51458 0.94179 0.98989 0.0
C1761 C 0.51602 0.93544 0.94698 0.0
C1762 C 0.52989 0.9579 0.99015 0.0
C1763 C 0.52871 0.97725 0.9983 0.0
C1764 C 0.51222 0.98077 0.00639 0.0
C1765 C 0.49726 0.96438 0.00683 0.0
C1766 C 0.49846 0.94507 0.99869 0.0
H1767 H 0.51227 0.92985 0.93128 0.0
H1768 H 0.50618 0.94552 0.95136 0.0
H1769 H 0.53065 0.94455 0.94895 0.0
H1770 H 0.54259 0.95557 0.98371 0.0
H1771 H 0.54052 0.98951 0.99772 0.0
H1772 H 0.95414 0.83137 0.66204 0.0
H1773 H 0.93053 0.81828 0.68267 0.0
H1774 H 0.96671 0.77911 0.704 0.0
H1775 H 0.99083 0.79228 0.68303 0.0
H1776 H 0.91553 0.77136 0.68069 0.0
H1777 H 0.94638 0.81432 0.75245 0.0
H1778 H 0.95182 0.82507 0.73044 0.0
H1779 H 0.96094 0.80322 0.73624 0.0
C1780 C 0.95721 0.81999 0.6711 0.0
C1781 C 0.97426 0.81268 0.67075 0.0
C1782 C 0.94369 0.81257 0.68291 0.0
C1783 C 0.94688 0.7977 0.6947 0.0
C1784 C 0.96408 0.79063 0.69493 0.0
H1785 H 0.83767 0.75532 0.73983 0.0
H1786 H 0.86937 0.75251 0.73075 0.0
C1787 C 0.97779 0.79816 0.68303 0.0
C1788 C 0.93149 0.78955 0.706 0.0
H1789 H 0.91329 0.80122 0.74829 0.0
C1790 C 0.91511 0.77725 0.6957 0.0
C1791 C 0.93113 0.79746 0.72547 0.0
C1792 C 0.94848 0.81074 0.73695 0.0
C1793 C 0.89782 0.77413 0.7038 0.0
C1794 C 0.89708 0.78333 0.72284 0.0
C1795 C 0.9139 0.79421 0.7337 0.0
C1796 C 0.87868 0.78463 0.73038 0.0
C1797 C 0.8802 0.76255 0.69129 0.0
C1798 C 0.87366 0.80363 0.7338 0.0
C1799 C 0.85574 0.80527 0.73915 0.0
C1800 C 0.84247 0.78792 0.74108 0.0
C1801 C 0.84762 0.76891 0.7382 0.0
C1802 C 0.86568 0.76729 0.733 0.0
H1803 H 0.88279 0.75909 0.67593 0.0
H1804 H 0.87537 0.74806 0.69707 0.0
H1805 H 0.8685 0.77123 0.69156 0.0
H1806 H 0.88346 0.81721 0.73181 0.0
H1807 H 0.85214 0.8201 0.74139 0.0
H1808 H 0.11784 0.00622 0.84758 0.0
H1809 H 0.1025 0.00996 0.87726 0.0
H1810 H 0.04777 0.00045 0.84293 0.0
H1811 H 0.0632 0.99769 0.81317 0.0
H1812 H 0.0494 0.02871 0.87103 0.0
H1813 H 0.07467 0.96524 0.90235 0.0
H1814 H 0.09426 0.98394 0.89787 0.0
H1815 H 0.07776 0.97034 0.87777 0.0
C1816 C 0.10257 0.00499 0.84637 0.0
C1817 C 0.09169 0.00151 0.8281 0.0
C1818 C 0.09378 0.00695 0.86335 0.0
C1819 C 0.07391 0.00483 0.86236 0.0
C1820 C 0.0631 0.00195 0.84407 0.0
H1821 H 0.01739 0.98797 0.96747 0.0
H1822 H 0.02805 0.9824 0.93521 0.0
C1823 C 0.07193 0.00043 0.82708 0.0
C1824 C 0.06441 0.00593 0.88036 0.0
H1825 H 0.06198 0.98762 0.92421 0.0
C1826 C 0.052 0.01957 0.88257 0.0
C1827 C 0.06738 0.99363 0.89523 0.0
C1828 C 0.07907 0.97731 0.89309 0.0
C1829 C 0.04301 0.02174 0.89948 0.0
C1830 C 0.04715 0.01056 0.91495 0.0
C1831 C 0.05902 0.99641 0.91248 0.0
C1832 C 0.03997 0.01389 0.93407 0.0
C1833 C 0.029 0.03583 0.90042 0.0
C1834 C 0.04334 0.03334 0.94422 0.0
C1835 C 0.03697 0.03658 0.96237 0.0
C1836 C 0.02755 0.02034 0.97101 0.0
C1837 C 0.02455 0.00077 0.9611 0.0
C1838 C 0.03063 0.99759 0.94271 0.0
H1839 H 0.02234 0.03718 0.88565 0.0
H1840 H 0.01755 0.03063 0.90945 0.0
H1841 H 0.03661 0.0511 0.90683 0.0
H1842 H 0.05115 0.04604 0.93823 0.0
H1843 H 0.03983 0.05179 0.96983 0.0
H1844 H 0.70706 0.36909 0.57785 0.0
H1845 H 0.70789 0.35406 0.60855 0.0
H1846 H 0.73892 0.31062 0.58431 0.0
H1847 H 0.73857 0.32584 0.55391 0.0
H1848 H 0.69791 0.31585 0.62128 0.0
H1849 H 0.77622 0.34145 0.62969 0.0
H1850 H 0.76071 0.34942 0.61134 0.0
H1851 H 0.7674 0.32513 0.60758 0.0
C1852 C 0.71351 0.35593 0.57887 0.0
C1853 C 0.7229 0.34876 0.56353 0.0
C1854 C 0.71411 0.34745 0.59648 0.0
C1855 C 0.724 0.33163 0.59894 0.0
C1856 C 0.73169 0.3232 0.58295 0.0
H1857 H 0.75804 0.2659 0.6923 0.0
H1858 H 0.75149 0.27935 0.66144 0.0
C1859 C 0.73131 0.33178 0.56551 0.0
C1860 C 0.72769 0.32496 0.61848 0.0
H1861 H 0.76375 0.32009 0.65235 0.0
C1862 C 0.71229 0.31688 0.62814 0.0
C1863 C 0.74648 0.32652 0.62755 0.0
C1864 C 0.76365 0.33628 0.61862 0.0
C1865 C 0.7152 0.30969 0.64629 0.0
C1866 C 0.734 0.31078 0.65506 0.0
C1867 C 0.74936 0.31914 0.64554 0.0
C1868 C 0.73811 0.30296 0.67391 0.0
C1869 C 0.6982 0.3005 0.65575 0.0
C1870 C 0.73316 0.31208 0.69125 0.0
C1871 C 0.73705 0.30453 0.70892 0.0
C1872 C 0.7459 0.2877 0.70955 0.0
C1873 C 0.75118 0.27887 0.69225 0.0
C1874 C 0.74741 0.2865 0.67462 0.0
H1875 H 0.68492 0.29725 0.6455 0.0
H1876 H 0.70049 0.28628 0.66142 0.0
H1877 H 0.69622 0.31115 0.66824 0.0
H1878 H 0.72628 0.32502 0.69109 0.0
H1879 H 0.73279 0.31164 0.72202 0.0
H1880 H 0.45133 0.04642 0.30139 0.0
H1881 H 0.46496 0.03781 0.33243 0.0
H1882 H 0.43186 0.07473 0.36331 0.0
H1883 H 0.41843 0.08363 0.33257 0.0
H1884 H 0.4853 0.06671 0.36592 0.0
H1885 H 0.41983 0.01792 0.38339 0.0
H1886 H 0.4233 0.0236 0.35898 0.0
H1887 H 0.41677 0.04197 0.37619 0.0
C1888 C 0.44691 0.05266 0.31479 0.0
C1889 C 0.43358 0.06551 0.31446 0.0
C1890 C 0.45472 0.04773 0.33248 0.0
C1891 C 0.44919 0.05541 0.3501 0.0
C1892 C 0.43605 0.06836 0.34983 0.0
H1893 H 0.4715 0.05068 0.47274 0.0
H1894 H 0.46001 0.05557 0.43974 0.0
C1895 C 0.42835 0.0734 0.33221 0.0
C1896 C 0.45738 0.05035 0.36889 0.0
H1897 H 0.44534 0.02751 0.40873 0.0
C1898 C 0.47667 0.05797 0.37524 0.0
C1899 C 0.44601 0.039 0.38097 0.0
C1900 C 0.42535 0.02998 0.37454 0.0
C1901 C 0.48475 0.05517 0.39373 0.0
C1902 C 0.47329 0.04406 0.40597 0.0
C1903 C 0.4541 0.03606 0.39937 0.0
C1904 C 0.48067 0.04117 0.42595 0.0
C1905 C 0.50524 0.06484 0.40028 0.0
C1906 C 0.49604 0.0313 0.42919 0.0
C1907 C 0.50277 0.02859 0.44811 0.0
C1908 C 0.49408 0.0355 0.46413 0.0
C1909 C 0.47855 0.04517 0.46078 0.0
C1910 C 0.47193 0.04797 0.4419 0.0
H1911 H 0.51049 0.07695 0.39138 0.0
H1912 H 0.5071 0.07137 0.41579 0.0
H1913 H 0.51424 0.05323 0.39876 0.0
H1914 H 0.50271 0.02549 0.41708 0.0
H1915 H 0.51462 0.02088 0.45013 0.0
H1916 H 0.83729 0.71337 0.05809 0.0
H1917 H 0.82592 0.72722 0.0877 0.0
H1918 H 0.76792 0.70366 0.0632 0.0
H1919 H 0.77903 0.68955 0.03373 0.0
H1920 H 0.80063 0.75449 0.09333 0.0
H1921 H 0.7723 0.67906 0.11465 0.0
H1922 H 0.78829 0.68253 0.09623 0.0
H1923 H 0.76346 0.68292 0.09057 0.0
C1924 C 0.82211 0.71121 0.05895 0.0
C1925 C 0.80909 0.70014 0.04361 0.0
C1926 C 0.81565 0.71915 0.07587 0.0
C1927 C 0.79611 0.71612 0.07772 0.0
C1928 C 0.78307 0.70577 0.06218 0.0
H1929 H 0.73133 0.74346 0.17338 0.0
H1930 H 0.74086 0.7341 0.14122 0.0
C1931 C 0.78948 0.69778 0.04532 0.0
C1932 C 0.78933 0.72342 0.09606 0.0
H1933 H 0.76557 0.70732 0.13358 0.0
C1934 C 0.79299 0.74421 0.10217 0.0
C1935 C 0.77936 0.70992 0.1075 0.0
C1936 C 0.77574 0.68735 0.10204 0.0
C1937 C 0.78673 0.75192 0.11939 0.0
C1938 C 0.77682 0.7384 0.13085 0.0
C1939 C 0.77306 0.71763 0.12466 0.0
C1940 C 0.77092 0.74534 0.14977 0.0
C1941 C 0.79056 0.77444 0.12506 0.0
C1942 C 0.78469 0.75464 0.16515 0.0
C1943 C 0.77931 0.75996 0.18342 0.0
C1944 C 0.76006 0.75594 0.18663 0.0
C1945 C 0.74625 0.74678 0.17121 0.0
C1946 C 0.75166 0.74144 0.1529 0.0
H1947 H 0.79349 0.7828 0.11238 0.0
H1948 H 0.77833 0.77928 0.13155 0.0
H1949 H 0.80325 0.77871 0.13606 0.0
H1950 H 0.79966 0.75735 0.16315 0.0
H1951 H 0.79025 0.76686 0.19513 0.0
H1952 H 0.06547 0.95684 0.71706 0.0
H1953 H 0.05588 0.95815 0.68265 0.0
H1954 H 0.10718 0.00134 0.6797 0.0
H1955 H 0.11668 0.00049 0.71425 0.0
H1956 H 0.07594 0.01359 0.6648 0.0
H1957 H 0.07434 0.93482 0.63364 0.0
H1958 H 0.06037 0.93649 0.65361 0.0
H1959 H 0.08575 0.94499 0.65771 0.0
C1960 C 0.07482 0.96647 0.70905 0.0
C1961 C 0.09181 0.97861 0.71839 0.0
C1962 C 0.06939 0.96706 0.68933 0.0
C1963 C 0.08097 0.97958 0.67854 0.0
C1964 C 0.09809 0.99147 0.68775 0.0
H1965 H 0.06445 0.98906 0.55425 0.0
H1966 H 0.07563 0.98055 0.58629 0.0
C1967 C 0.10348 0.99099 0.7075 0.0
C1968 C 0.07446 0.98162 0.65813 0.0
H1969 H 0.05905 0.95515 0.61336 0.0
C1970 C 0.0724 0.00083 0.65353 0.0
C1971 C 0.07001 0.96498 0.64341 0.0
C1972 C 0.0729 0.9442 0.64727 0.0
C1973 C 0.06562 0.00381 0.63471 0.0
C1974 C 0.06035 0.98704 0.62021 0.0
C1975 C 0.06285 0.9679 0.62462 0.0
C1976 C 0.05231 0.98935 0.60041 0.0
C1977 C 0.06429 0.02495 0.63049 0.0
C1978 C 0.03513 0.99629 0.59766 0.0
C1979 C 0.02884 0.00126 0.57951 0.0
C1980 C 0.03955 0.99918 0.56381 0.0
C1981 C 0.05604 0.99091 0.56621 0.0
C1982 C 0.0624 0.98603 0.58444 0.0
H1983 H 0.07336 0.03652 0.64155 0.0
H1984 H 0.06862 0.02764 0.61591 0.0
H1985 H 0.04935 0.02701 0.63071 0.0
H1986 H 0.02696 0.99855 0.60974 0.0
H1987 H 0.01594 0.00738 0.57794 0.0
H1988 H 0.70611 0.37451 0.457 0.0
H1989 H 0.7027 0.36064 0.42251 0.0
H1990 H 0.74392 0.3236 0.43575 0.0
H1991 H 0.74711 0.33692 0.46989 0.0
H1992 H 0.73075 0.36396 0.39811 0.0
H1993 H 0.70328 0.28319 0.4017 0.0
H1994 H 0.70295 0.30235 0.42157 0.0
H1995 H 0.72422 0.29237 0.41853 0.0
C1996 C 0.71407 0.36304 0.45262 0.0
C1997 C 0.72686 0.35684 0.4663 0.0
C1998 C 0.71221 0.35521 0.43287 0.0
C1999 C 0.72288 0.34084 0.42649 0.0
C2000 C 0.73519 0.33427 0.44026 0.0
H2001 H 0.76248 0.2885 0.32512 0.0
H2002 H 0.75478 0.30011 0.3573 0.0
C2003 C 0.73709 0.34207 0.45986 0.0
C2004 C 0.7225 0.33376 0.4054 0.0
H2005 H 0.71913 0.29114 0.37353 0.0
C2006 C 0.72783 0.34806 0.39264 0.0
C2007 C 0.71872 0.31299 0.39818 0.0
C2008 C 0.71178 0.29687 0.41069 0.0
C2009 C 0.73049 0.34212 0.37324 0.0
C2010 C 0.72756 0.32134 0.36633 0.0
C2011 C 0.72152 0.30707 0.37885 0.0
C2012 C 0.73174 0.31406 0.34654 0.0
C2013 C 0.73728 0.35811 0.36053 0.0
C2014 C 0.72119 0.3178 0.3297 0.0
C2015 C 0.72551 0.31109 0.31119 0.0
C2016 C 0.7405 0.30051 0.30913 0.0
C2017 C 0.75088 0.29663 0.32607 0.0
C2018 C 0.74648 0.30323 0.34453 0.0
H2019 H 0.74211 0.37322 0.36902 0.0
H2020 H 0.74918 0.35415 0.35278 0.0
H2021 H 0.72547 0.35907 0.34942 0.0
H2022 H 0.70959 0.3259 0.33087 0.0
H2023 H 0.71722 0.31441 0.2985 0.0
H2024 H 0.41513 0.07976 0.19802 0.0
H2025 H 0.42907 0.07645 0.16733 0.0
H2026 H 0.44283 0.01951 0.18003 0.0
H2027 H 0.42911 0.02273 0.21076 0.0
H2028 H 0.47364 0.04643 0.1709 0.0
H2029 H 0.41129 0.04006 0.11566 0.0
H2030 H 0.41423 0.06117 0.13418 0.0
H2031 H 0.40893 0.03595 0.14067 0.0
C2032 C 0.4208 0.06635 0.19414 0.0
C2033 C 0.42105 0.05154 0.20692 0.0
C2034 C 0.42871 0.06445 0.17653 0.0
C2035 C 0.43688 0.04766 0.17131 0.0
C2036 C 0.43657 0.03257 0.18374 0.0
H2037 H 0.4825 0.01606 0.06273 0.0
H2038 H 0.46394 0.0164 0.09062 0.0
C2039 C 0.42868 0.03444 0.20131 0.0
C2040 C 0.44714 0.04658 0.15376 0.0
H2041 H 0.44183 0.04547 0.10427 0.0
C2042 C 0.46666 0.04613 0.15633 0.0
C2043 C 0.43799 0.04602 0.13474 0.0
C2044 C 0.41692 0.04564 0.13104 0.0
C2045 C 0.47734 0.04549 0.14045 0.0
C2046 C 0.46833 0.04556 0.1215 0.0
C2047 C 0.44873 0.0456 0.11885 0.0
C2048 C 0.4791 0.04564 0.1043 0.0
C2049 C 0.49816 0.04454 0.14408 0.0
C2050 C 0.4936 0.06205 0.10264 0.0
C2051 C 0.50407 0.06193 0.08667 0.0
C2052 C 0.50015 0.04545 0.07203 0.0
C2053 C 0.48557 0.02909 0.07364 0.0
C2054 C 0.47504 0.02923 0.08959 0.0
H2055 H 0.50178 0.03971 0.15854 0.0
H2056 H 0.50223 0.03397 0.13269 0.0
H2057 H 0.50681 0.05975 0.14363 0.0
H2058 H 0.49679 0.07497 0.11369 0.0
H2059 H 0.51516 0.0748 0.08573 0.0
H2060 H 0.84296 0.73535 0.96746 0.0
H2061 H 0.8398 0.75903 0.94344 0.0
H2062 H 0.79114 0.71735 0.91283 0.0
H2063 H 0.79369 0.69421 0.93702 0.0
H2064 H 0.8429 0.75555 0.90627 0.0
H2065 H 0.77044 0.76775 0.91486 0.0
H2066 H 0.78337 0.75563 0.93217 0.0
H2067 H 0.76988 0.7412 0.91051 0.0
C2068 C 0.83144 0.73141 0.95573 0.0
C2069 C 0.81847 0.713 0.95422 0.0
C2070 C 0.82966 0.74493 0.94204 0.0
C2071 C 0.81495 0.7402 0.92659 0.0
C2072 C 0.80217 0.72172 0.925 0.0
H2073 H 0.80941 0.76377 0.81014 0.0
H2074 H 0.81931 0.75653 0.8428 0.0
C2075 C 0.80374 0.70839 0.93879 0.0
C2076 C 0.81352 0.75373 0.91127 0.0
H2077 H 0.78072 0.77153 0.88275 0.0
C2078 C 0.82941 0.75947 0.90137 0.0
C2079 C 0.79614 0.75947 0.90522 0.0
C2080 C 0.7791 0.75588 0.91645 0.0
C2081 C 0.82796 0.76937 0.88466 0.0
C2082 C 0.80997 0.77286 0.87726 0.0
C2083 C 0.79448 0.76853 0.88808 0.0
C2084 C 0.80632 0.77928 0.85767 0.0
C2085 C 0.84571 0.77574 0.8751 0.0
C2086 C 0.79542 0.79423 0.85499 0.0
C2087 C 0.78913 0.7978 0.83628 0.0
C2088 C 0.79403 0.78683 0.81994 0.0
C2089 C 0.80573 0.77264 0.82256 0.0
C2090 C 0.81155 0.76865 0.84126 0.0
H2091 H 0.85841 0.77995 0.88612 0.0
H2092 H 0.848 0.76288 0.86501 0.0
H2093 H 0.8447 0.78875 0.86681 0.0
H2094 H 0.79115 0.80262 0.86737 0.0
H2095 H 0.78013 0.80886 0.83456 0.0
H2096 H 0.83566 0.11494 0.02766 0.0
H2097 H 0.86373 0.09947 0.03147 0.0
H2098 H 0.89221 0.14024 0.99503 0.0
H2099 H 0.86424 0.1561 0.99145 0.0
H2100 H 0.87712 0.07974 0.00129 0.0
H2101 H 0.93443 0.14133 0.03859 0.0
H2102 H 0.90954 0.14277 0.03783 0.0
H2103 H 0.92202 0.14746 0.01702 0.0
C2104 C 0.84804 0.12095 0.02079 0.0
C2105 C 0.84766 0.13676 0.00922 0.0
C2106 C 0.86409 0.11203 0.02295 0.0
C2107 C 0.88017 0.11871 0.01363 0.0
C2108 C 0.88015 0.13504 0.00268 0.0
H2109 H 0.9798 0.06216 0.99754 0.0
H2110 H 0.95674 0.08495 0.99588 0.0
C2111 C 0.86409 0.14406 0.00059 0.0
C2112 C 0.89603 0.10723 0.01391 0.0
H2113 H 0.94375 0.11086 0.02692 0.0
C2114 C 0.89166 0.08659 0.00695 0.0
C2115 C 0.91509 0.11616 0.02107 0.0
C2116 C 0.9206 0.13811 0.02921 0.0
C2117 C 0.90569 0.07463 0.00708 0.0
C2118 C 0.92465 0.08342 0.01461 0.0
C2119 C 0.9292 0.10416 0.02117 0.0
C2120 C 0.93957 0.07093 0.0166 0.0
C2121 C 0.90011 0.05263 0.99906 0.0
C2122 C 0.93783 0.05586 0.02911 0.0
C2123 C 0.9509 0.04295 0.03006 0.0
C2124 C 0.96611 0.04491 0.01865 0.0
C2125 C 0.96824 0.06038 0.00654 0.0
C2126 C 0.95509 0.07337 0.00558 0.0
H2127 H 0.88644 0.04946 0.98941 0.0
H2128 H 0.91129 0.04776 0.99076 0.0
H2129 H 0.89833 0.04339 0.0113 0.0
H2130 H 0.92617 0.05392 0.03798 0.0
H2131 H 0.94903 0.03135 0.03972 0.0
H2132 H 0.33957 0.43641 0.06546 0.0
H2133 H 0.37221 0.44783 0.05825 0.0
H2134 H 0.35132 0.47935 0.01244 0.0
H2135 H 0.31876 0.46826 0.01965 0.0
H2136 H 0.38886 0.44212 0.02354 0.0
H2137 H 0.39058 0.52323 0.04628 0.0
H2138 H 0.37244 0.50348 0.05229 0.0
H2139 H 0.37096 0.51168 0.02847 0.0
C2140 C 0.34193 0.44572 0.05382 0.0
C2141 C 0.32661 0.45153 0.0432 0.0
C2142 C 0.36056 0.45223 0.04973 0.0
C2143 C 0.36416 0.46468 0.03503 0.0
C2144 C 0.34886 0.47009 0.02412 0.0
H2145 H 0.46308 0.52369 0.98751 0.0
H2146 H 0.43107 0.50848 0.99367 0.0
C2147 C 0.33026 0.46367 0.02822 0.0
C2148 C 0.3839 0.47214 0.03111 0.0
H2149 H 0.41622 0.5153 0.02974 0.0
C2150 C 0.39492 0.4581 0.02499 0.0
C2151 C 0.39172 0.493 0.0331 0.0
C2152 C 0.3809 0.50873 0.04057 0.0
C2153 C 0.41346 0.46443 0.02031 0.0
C2154 C 0.42114 0.4853 0.02201 0.0
C2155 C 0.41019 0.49931 0.02832 0.0
C2156 C 0.44057 0.49308 0.01743 0.0
C2157 C 0.42453 0.44882 0.01315 0.0
C2158 C 0.45648 0.48936 0.02873 0.0
C2159 C 0.47482 0.49806 0.02529 0.0
C2160 C 0.47753 0.5107 0.01053 0.0
C2161 C 0.46153 0.51404 0.99899 0.0
C2162 C 0.44321 0.50538 0.00248 0.0
H2163 H 0.41517 0.43389 0.00848 0.0
H2164 H 0.43222 0.45365 0.00077 0.0
H2165 H 0.43525 0.44701 0.02508 0.0
H2166 H 0.4547 0.48015 0.04054 0.0
H2167 H 0.48683 0.49513 0.03443 0.0
H2168 H 0.31041 0.59094 0.78359 0.0
H2169 H 0.29029 0.61587 0.77909 0.0
H2170 H 0.30884 0.62312 0.72258 0.0
H2171 H 0.32913 0.5982 0.72692 0.0
H2172 H 0.31442 0.65934 0.749 0.0
H2173 H 0.24058 0.61578 0.74367 0.0
H2174 H 0.2564 0.61101 0.76352 0.0
H2175 H 0.26064 0.60408 0.73892 0.0
C2176 C 0.30993 0.59749 0.77 0.0
C2177 C 0.32149 0.59267 0.75566 0.0
C2178 C 0.29834 0.61167 0.76744 0.0
C2179 C 0.29805 0.62124 0.75049 0.0
C2180 C 0.30885 0.6158 0.73574 0.0
H2181 H 0.22932 0.70986 0.72276 0.0
H2182 H 0.24465 0.6804 0.72227 0.0
C2183 C 0.32037 0.60151 0.73823 0.0
C2184 C 0.28811 0.63839 0.74915 0.0
H2185 H 0.24454 0.65159 0.74951 0.0
C2186 C 0.29912 0.65765 0.74893 0.0
C2187 C 0.26818 0.63607 0.74904 0.0
C2188 C 0.25569 0.61561 0.74863 0.0
C2189 C 0.29075 0.67479 0.74905 0.0
C2190 C 0.27089 0.67255 0.74959 0.0
C2191 C 0.2598 0.65323 0.7493 0.0
C2192 C 0.26135 0.6901 0.75024 0.0
C2193 C 0.3032 0.69513 0.74854 0.0
C2194 C 0.26544 0.70507 0.7663 0.0
C2195 C 0.25665 0.72185 0.76663 0.0
C2196 C 0.24371 0.72387 0.7509 0.0
C2197 C 0.2393 0.70865 0.73505 0.0
C2198 C 0.24804 0.69187 0.73474 0.0
H2199 H 0.31721 0.6937 0.74363 0.0
H2200 H 0.29613 0.7042 0.73874 0.0
H2201 H 0.30579 0.70352 0.76338 0.0
H2202 H 0.27538 0.70374 0.77858 0.0
H2203 H 0.25987 0.73315 0.77922 0.0
H2204 H 0.23784 0.64303 0.51545 0.0
H2205 H 0.20483 0.63094 0.52064 0.0
H2206 H 0.19333 0.60096 0.46193 0.0
H2207 H 0.22649 0.61274 0.45665 0.0
H2208 H 0.17193 0.638 0.50111 0.0
H2209 H 0.1735 0.5561 0.49429 0.0
H2210 H 0.19486 0.57525 0.49734 0.0
H2211 H 0.18105 0.56852 0.47393 0.0
C2212 C 0.22833 0.63382 0.50362 0.0
C2213 C 0.23484 0.62876 0.48565 0.0
C2214 C 0.20946 0.62693 0.50663 0.0
C2215 C 0.19671 0.61481 0.49178 0.0
C2216 C 0.20305 0.60995 0.47372 0.0
H2217 H 0.07356 0.5913 0.48772 0.0
H2218 H 0.10664 0.60211 0.48171 0.0
C2219 C 0.22197 0.61681 0.47069 0.0
C2220 C 0.17671 0.60767 0.49518 0.0
H2221 H 0.14337 0.56525 0.49663 0.0
C2222 C 0.16568 0.6221 0.50014 0.0
C2223 C 0.16869 0.58691 0.49416 0.0
C2224 C 0.18015 0.57076 0.48982 0.0
C2225 C 0.14676 0.61633 0.50392 0.0
C2226 C 0.13858 0.59558 0.50237 0.0
C2227 C 0.14966 0.58114 0.49764 0.0
C2228 C 0.11855 0.5886 0.50573 0.0
C2229 C 0.13581 0.63251 0.50988 0.0
C2230 C 0.11427 0.57695 0.5209 0.0
C2231 C 0.09536 0.57067 0.52431 0.0
C2232 C 0.0805 0.5759 0.51253 0.0
C2233 C 0.08479 0.58725 0.49714 0.0
C2234 C 0.10366 0.59349 0.49374 0.0
H2235 H 0.14544 0.64715 0.51521 0.0
H2236 H 0.12632 0.63482 0.49712 0.0
H2237 H 0.12685 0.62803 0.52148 0.0
H2238 H 0.12557 0.57293 0.53025 0.0
H2239 H 0.0924 0.56184 0.53619 0.0
H2240 H 0.64724 0.93896 0.7658 0.0
H2241 H 0.66875 0.9161 0.75715 0.0
H2242 H 0.7043 0.93739 0.81127 0.0
H2243 H 0.68305 0.96025 0.82006 0.0
H2244 H 0.72426 0.93411 0.77697 0.0
H2245 H 0.67252 0.86452 0.78474 0.0
H2246 H 0.66424 0.88163 0.76927 0.0
H2247 H 0.66991 0.88928 0.79492 0.0
C2248 C 0.6597 0.93888 0.77582 0.0
C2249 C 0.66333 0.95137 0.7937 0.0
C2250 C 0.67191 0.92574 0.77088 0.0
C2251 C 0.68796 0.92493 0.78368 0.0
C2252 C 0.69193 0.93777 0.80123 0.0
H2253 H 0.75764 0.8355 0.79568 0.0
H2254 H 0.73665 0.86003 0.79936 0.0
C2255 C 0.67972 0.95079 0.80624 0.0
C2256 C 0.70051 0.91043 0.77914 0.0
H2257 H 0.70233 0.86027 0.77535 0.0
C2258 C 0.71947 0.91795 0.77645 0.0
C2259 C 0.69421 0.8894 0.77873 0.0
C2260 C 0.67416 0.88062 0.78219 0.0
C2261 C 0.73236 0.90497 0.77345 0.0
C2262 C 0.72605 0.88394 0.77301 0.0
C2263 C 0.70706 0.87641 0.77559 0.0
C2264 C 0.73911 0.86951 0.77074 0.0
C2265 C 0.75277 0.91386 0.77138 0.0
C2266 C 0.74744 0.86674 0.75343 0.0
C2267 C 0.75934 0.85265 0.75129 0.0
C2268 C 0.76294 0.84105 0.76636 0.0
C2269 C 0.75484 0.84407 0.78375 0.0
C2270 C 0.74291 0.85808 0.78588 0.0
H2271 H 0.75621 0.93038 0.77599 0.0
H2272 H 0.76266 0.90651 0.78014 0.0
H2273 H 0.75528 0.91122 0.75591 0.0
H2274 H 0.74446 0.87521 0.74148 0.0
H2275 H 0.76536 0.8505 0.73769 0.0
H2276 H 0.69382 0.92649 0.525 0.0
H2277 H 0.66519 0.93823 0.51278 0.0
H2278 H 0.69616 0.96926 0.471 0.0
H2279 H 0.72483 0.95735 0.48284 0.0
H2280 H 0.67601 0.9918 0.50353 0.0
H2281 H 0.63161 0.92733 0.45446 0.0
H2282 H 0.64429 0.92179 0.47627 0.0
H2283 H 0.65734 0.9316 0.45744 0.0
C2284 C 0.69446 0.93548 0.51296 0.0
C2285 C 0.71159 0.94113 0.50499 0.0
C2286 C 0.67809 0.94207 0.50595 0.0
C2287 C 0.67867 0.95448 0.49097 0.0
C2288 C 0.6955 0.95953 0.48246 0.0
H2289 H 0.59069 0.02942 0.48079 0.0
H2290 H 0.61936 0.01669 0.473 0.0
C2291 C 0.71183 0.95273 0.48928 0.0
C2292 C 0.66235 0.96414 0.48612 0.0
H2293 H 0.61631 0.95392 0.46544 0.0
C2294 C 0.66302 0.98378 0.49488 0.0
C2295 C 0.64561 0.95345 0.47488 0.0
C2296 C 0.64455 0.93239 0.46507 0.0
C2297 C 0.64681 0.99259 0.49388 0.0
C2298 C 0.62969 0.98158 0.48328 0.0
C2299 C 0.62945 0.96236 0.47349 0.0
C2300 C 0.61135 0.98835 0.48471 0.0
C2301 C 0.64787 0.0129 0.50543 0.0
C2302 C 0.5969 0.97617 0.49276 0.0
C2303 C 0.5805 0.9832 0.4968 0.0
C2304 C 0.5783 0.00264 0.49305 0.0
C2305 C 0.59223 0.01447 0.48403 0.0
C2306 C 0.60861 0.00727 0.47969 0.0
H2307 H 0.66104 0.0174 0.51579 0.0
H2308 H 0.64779 0.02456 0.49533 0.0
H2309 H 0.63544 0.01282 0.5138 0.0
H2310 H 0.59866 0.96151 0.49671 0.0
H2311 H 0.56988 0.9737 0.50361 0.0
H2312 H 0.34616 0.49496 0.73308 0.0
H2313 H 0.33131 0.45908 0.72909 0.0
H2314 H 0.31462 0.46557 0.787 0.0
H2315 H 0.32911 0.50123 0.79108 0.0
H2316 H 0.34002 0.42919 0.75175 0.0
H2317 H 0.26505 0.43736 0.75444 0.0
H2318 H 0.28345 0.45787 0.75026 0.0
H2319 H 0.2807 0.45178 0.77457 0.0
C2320 C 0.33917 0.48879 0.7449 0.0
C2321 C 0.33879 0.50106 0.76238 0.0
C2322 C 0.33072 0.46829 0.7426 0.0
C2323 C 0.3216 0.45974 0.75763 0.0
C2324 C 0.32121 0.47193 0.77504 0.0
H2325 H 0.27317 0.34679 0.79253 0.0
H2326 H 0.28596 0.38171 0.78834 0.0
C2327 C 0.32964 0.49234 0.77738 0.0
C2328 C 0.31316 0.43792 0.75567 0.0
H2329 H 0.27223 0.4051 0.76005 0.0
C2330 C 0.32514 0.42386 0.75324 0.0
C2331 C 0.29372 0.43102 0.75758 0.0
C2332 C 0.27994 0.44528 0.75916 0.0
C2333 C 0.3184 0.40315 0.75368 0.0
C2334 C 0.29914 0.39637 0.75638 0.0
C2335 C 0.28702 0.41036 0.75811 0.0
C2336 C 0.29151 0.37502 0.75858 0.0
C2337 C 0.33211 0.38879 0.75214 0.0
C2338 C 0.29026 0.35966 0.74317 0.0
C2339 C 0.28292 0.33958 0.7455 0.0
C2340 C 0.27666 0.33454 0.76329 0.0
C2341 C 0.27788 0.35005 0.77864 0.0
C2342 C 0.28516 0.37006 0.77627 0.0
H2343 H 0.34715 0.39686 0.75373 0.0
H2344 H 0.33042 0.37831 0.76342 0.0
H2345 H 0.32901 0.37962 0.73769 0.0
H2346 H 0.29483 0.36321 0.7293 0.0
H2347 H 0.28216 0.32805 0.73335 0.0
H2348 H 0.1368 0.53968 0.27568 0.0
H2349 H 0.15171 0.57309 0.26868 0.0
H2350 H 0.18659 0.58263 0.32392 0.0
H2351 H 0.17161 0.54938 0.33123 0.0
H2352 H 0.16889 0.61462 0.31702 0.0
H2353 H 0.20484 0.59202 0.25342 0.0
H2354 H 0.17985 0.58157 0.25113 0.0
H2355 H 0.19565 0.57441 0.26964 0.0
C2356 C 0.14776 0.54878 0.2863 0.0
C2357 C 0.153 0.54178 0.30403 0.0
C2358 C 0.15635 0.56785 0.2822 0.0
C2359 C 0.17045 0.58023 0.29566 0.0
C2360 C 0.1758 0.57327 0.3133 0.0
H2361 H 0.23512 0.70265 0.30136 0.0
H2362 H 0.22198 0.6683 0.30771 0.0
C2363 C 0.16721 0.55423 0.31743 0.0
C2364 C 0.17898 0.60083 0.29178 0.0
H2365 H 0.20417 0.62694 0.26002 0.0
C2366 C 0.17671 0.61732 0.30463 0.0
C2367 C 0.18912 0.60429 0.27557 0.0
C2368 C 0.1927 0.58715 0.26173 0.0
C2369 C 0.18402 0.63722 0.30153 0.0
C2370 C 0.19411 0.64068 0.28529 0.0
C2371 C 0.19641 0.62421 0.27245 0.0
C2372 C 0.20232 0.66133 0.28135 0.0
C2373 C 0.1805 0.65438 0.31539 0.0
C2374 C 0.19592 0.6686 0.26422 0.0
C2375 C 0.20346 0.68816 0.26054 0.0
C2376 C 0.21759 0.70068 0.27388 0.0
C2377 C 0.22417 0.6933 0.29088 0.0
C2378 C 0.21662 0.67375 0.29457 0.0
H2379 H 0.16874 0.64942 0.32416 0.0
H2380 H 0.19357 0.66038 0.32557 0.0
H2381 H 0.17699 0.66685 0.3074 0.0
H2382 H 0.18495 0.65921 0.25381 0.0
H2383 H 0.19817 0.69349 0.2473 0.0
H2384 H 0.48582 0.73852 0.42907 0.0
H2385 H 0.49561 0.71668 0.45209 0.0
H2386 H 0.54685 0.71489 0.42481 0.0
H2387 H 0.53693 0.73671 0.40126 0.0
H2388 H 0.52732 0.67761 0.42779 0.0
H2389 H 0.53437 0.72327 0.49919 0.0
H2390 H 0.51211 0.72381 0.48552 0.0
H2391 H 0.53405 0.73437 0.47663 0.0
C2392 C 0.49935 0.7338 0.42807 0.0
C2393 C 0.51052 0.73926 0.41317 0.0
C2394 C 0.50504 0.72146 0.44146 0.0
C2395 C 0.52211 0.71439 0.44041 0.0
C2396 C 0.53369 0.72035 0.426 0.0
H2397 H 0.54496 0.62592 0.52067 0.0
H2398 H 0.54955 0.65676 0.50441 0.0
C2399 C 0.52801 0.73282 0.41256 0.0
C2400 C 0.52632 0.69876 0.45276 0.0
H2401 H 0.52608 0.68678 0.49934 0.0
C2402 C 0.52751 0.67977 0.44348 0.0
C2403 C 0.52681 0.70158 0.47327 0.0
C2404 C 0.52698 0.72195 0.48423 0.0
C2405 C 0.52772 0.66319 0.45398 0.0
C2406 C 0.52641 0.66561 0.47422 0.0
C2407 C 0.5267 0.68489 0.48375 0.0
C2408 C 0.52321 0.64797 0.48526 0.0
C2409 C 0.52876 0.64306 0.4432 0.0
C2410 C 0.50658 0.63327 0.48036 0.0
C2411 C 0.50393 0.61582 0.48958 0.0
C2412 C 0.51782 0.61278 0.50398 0.0
C2413 C 0.53405 0.62793 0.5096 0.0
C2414 C 0.53671 0.64547 0.50031 0.0
H2415 H 0.53528 0.64489 0.42945 0.0
H2416 H 0.53712 0.63444 0.45231 0.0
H2417 H 0.51415 0.63406 0.43941 0.0
H2418 H 0.49581 0.63513 0.46907 0.0
H2419 H 0.49122 0.60444 0.48508 0.0
H2420 H 0.53627 0.30501 0.72698 0.0
H2421 H 0.56927 0.30773 0.74087 0.0
H2422 H 0.57978 0.27041 0.69065 0.0
H2423 H 0.54686 0.26783 0.67648 0.0
H2424 H 0.58803 0.27758 0.75071 0.0
H2425 H 0.62336 0.31881 0.69498 0.0
H2426 H 0.59822 0.31641 0.69696 0.0
H2427 H 0.60723 0.29596 0.68496 0.0
C2428 C 0.54562 0.29747 0.7188 0.0
C2429 C 0.53894 0.28627 0.70056 0.0
C2430 C 0.56447 0.29903 0.72679 0.0
C2431 C 0.57706 0.28952 0.71669 0.0
C2432 C 0.57043 0.27823 0.69852 0.0
H2433 H 0.68204 0.25623 0.75879 0.0
H2434 H 0.64893 0.2581 0.74949 0.0
C2435 C 0.55157 0.27669 0.69049 0.0
C2436 C 0.59696 0.2909 0.72542 0.0
H2437 H 0.64328 0.30494 0.71719 0.0
C2438 C 0.60012 0.28369 0.74346 0.0
C2439 C 0.61272 0.29918 0.7161 0.0
C2440 C 0.61027 0.30822 0.69727 0.0
C2441 C 0.61863 0.28398 0.75214 0.0
C2442 C 0.63436 0.29137 0.74236 0.0
C2443 C 0.63121 0.29914 0.72461 0.0
C2444 C 0.65419 0.29056 0.74986 0.0
C2445 C 0.62114 0.27646 0.77174 0.0
C2446 C 0.66824 0.30819 0.75313 0.0
C2447 C 0.68728 0.30718 0.75835 0.0
C2448 C 0.69267 0.28847 0.76024 0.0
C2449 C 0.67845 0.27091 0.75754 0.0
C2450 C 0.65944 0.27195 0.75231 0.0
H2451 H 0.60858 0.2772 0.77977 0.0
H2452 H 0.62277 0.26046 0.76963 0.0
H2453 H 0.63402 0.28533 0.78081 0.0
H2454 H 0.66451 0.32271 0.75124 0.0
H2455 H 0.69783 0.321 0.76024 0.0
H2456 H 0.96998 0.32355 0.90531 0.0
H2457 H 0.97723 0.35637 0.92479 0.0
H2458 H 0.03648 0.36168 0.91637 0.0
H2459 H 0.02937 0.3285 0.89667 0.0
H2460 H 0.02806 0.37035 0.95664 0.0
H2461 H 0.99206 0.41231 0.90481 0.0
H2462 H 0.97781 0.38877 0.90875 0.0
H2463 H 0.99927 0.38879 0.89738 0.0
C2464 C 0.98459 0.33164 0.90746 0.0
C2465 C 0.99911 0.32334 0.89938 0.0
C2466 C 0.98866 0.35049 0.91854 0.0
C2467 C 0.00733 0.36152 0.92183 0.0
C2468 C 0.02194 0.3534 0.91387 0.0
H2469 H 0.02522 0.48539 0.97893 0.0
H2470 H 0.02879 0.45575 0.95752 0.0
C2471 C 0.01785 0.33449 0.90259 0.0
C2472 C 0.01134 0.38123 0.93414 0.0
H2473 H 0.99843 0.42732 0.93795 0.0
C2474 C 0.02186 0.38296 0.95247 0.0
C2475 C 0.00338 0.39768 0.92858 0.0
C2476 C 0.99264 0.39693 0.90873 0.0
C2477 C 0.0238 0.40039 0.96579 0.0
C2478 C 0.01482 0.41634 0.96066 0.0
C2479 C 0.00515 0.41499 0.94194 0.0
C2480 C 0.01442 0.43414 0.9747 0.0
C2481 C 0.03523 0.40152 0.98533 0.0
C2482 C 0.00522 0.43182 0.99152 0.0
C2483 C 0.00315 0.44873 0.00378 0.0
C2484 C 0.01021 0.46823 0.99938 0.0
C2485 C 0.01976 0.47053 0.98276 0.0
C2486 C 0.02178 0.45363 0.9705 0.0
H2487 H 0.04543 0.39101 0.98497 0.0
H2488 H 0.04326 0.41708 0.99014 0.0
H2489 H 0.02543 0.39724 0.99627 0.0
H2490 H 0.99909 0.41693 0.99483 0.0
H2491 H 0.99567 0.44656 0.01646 0.0
H2492 H 0.90976 0.75557 0.15401 0.0
H2493 H 0.88032 0.75389 0.16923 0.0
H2494 H 0.90961 0.74362 0.22323 0.0
H2495 H 0.93903 0.74475 0.20797 0.0
H2496 H 0.87263 0.72171 0.21633 0.0
H2497 H 0.87482 0.80227 0.20643 0.0
H2498 H 0.87409 0.78609 0.18421 0.0
H2499 H 0.89444 0.78979 0.20221 0.0
C2500 C 0.90988 0.75251 0.169 0.0
C2501 C 0.92682 0.75052 0.17983 0.0
C2502 C 0.89305 0.75172 0.17773 0.0
C2503 C 0.8929 0.74919 0.19751 0.0
C2504 C 0.90944 0.74576 0.20798 0.0
H2505 H 0.81848 0.79142 0.27616 0.0
H2506 H 0.8451 0.78488 0.25853 0.0
C2507 C 0.92625 0.74638 0.19922 0.0
C2508 C 0.87602 0.75161 0.20766 0.0
H2509 H 0.84824 0.78573 0.21994 0.0
C2510 C 0.86724 0.73567 0.21709 0.0
C2511 C 0.86923 0.76998 0.20891 0.0
C2512 C 0.87871 0.78809 0.20007 0.0
C2513 C 0.85179 0.73758 0.22768 0.0
C2514 C 0.84476 0.75582 0.22857 0.0
C2515 C 0.85356 0.77172 0.21914 0.0
C2516 C 0.82869 0.75906 0.23969 0.0
C2517 C 0.84349 0.72029 0.23825 0.0
C2518 C 0.81062 0.74674 0.23497 0.0
C2519 C 0.79545 0.75035 0.24517 0.0
C2520 C 0.79802 0.76656 0.26002 0.0
C2521 C 0.81611 0.77883 0.26477 0.0
C2522 C 0.83129 0.77514 0.25468 0.0
H2523 H 0.85346 0.70973 0.24031 0.0
H2524 H 0.83983 0.72586 0.25271 0.0
H2525 H 0.83027 0.71169 0.22958 0.0
H2526 H 0.80815 0.73452 0.22321 0.0
H2527 H 0.78166 0.74058 0.24129 0.0
H2528 H 0.51447 0.33859 0.06717 0.0
H2529 H 0.5251 0.36233 0.04428 0.0
H2530 H 0.47586 0.38958 0.05091 0.0
H2531 H 0.46453 0.36488 0.07246 0.0
H2532 H 0.48298 0.38978 0.01585 0.0
H2533 H 0.55151 0.41789 0.06245 0.0
H2534 H 0.54846 0.39191 0.05275 0.0
H2535 H 0.53286 0.39963 0.06965 0.0
C2536 C 0.50584 0.34949 0.06343 0.0
C2537 C 0.48879 0.3501 0.0716 0.0
C2538 C 0.512 0.36316 0.05054 0.0
C2539 C 0.50163 0.37821 0.04636 0.0
C2540 C 0.48418 0.37819 0.05394 0.0
H2541 H 0.53846 0.49822 0.02546 0.0
H2542 H 0.53258 0.4653 0.03704 0.0
C2543 C 0.47771 0.36411 0.06627 0.0
C2544 C 0.50914 0.39462 0.03495 0.0
H2545 H 0.54663 0.43321 0.03412 0.0
C2546 C 0.49693 0.39925 0.0198 0.0
C2547 C 0.52733 0.40707 0.04021 0.0
C2548 C 0.54072 0.40403 0.05726 0.0
C2549 C 0.50189 0.41655 0.01051 0.0
C2550 C 0.52011 0.42892 0.0157 0.0
C2551 C 0.53274 0.42365 0.03008 0.0
C2552 C 0.52552 0.44863 0.00823 0.0
C2553 C 0.48703 0.42201 0.99623 0.0
C2554 C 0.52412 0.45033 0.9882 0.0
C2555 C 0.52704 0.46936 0.98168 0.0
C2556 C 0.53215 0.48686 0.99506 0.0
C2557 C 0.53485 0.48504 0.01493 0.0
C2558 C 0.53139 0.46615 0.02151 0.0
H2559 H 0.47249 0.41388 0.99776 0.0
H2560 H 0.48708 0.43846 0.99825 0.0
H2561 H 0.49009 0.4178 0.98119 0.0
H2562 H 0.52026 0.43702 0.97764 0.0
H2563 H 0.52502 0.47042 0.9662 0.0
H2564 H 0.97692 0.2901 0.36175 0.0
H2565 H 0.94718 0.29039 0.34174 0.0
H2566 H 0.91565 0.25639 0.38135 0.0
H2567 H 0.94526 0.25612 0.40154 0.0
H2568 H 0.92165 0.25537 0.32389 0.0
H2569 H 0.88695 0.3028 0.37368 0.0
H2570 H 0.9121 0.30249 0.37712 0.0
H2571 H 0.89522 0.28239 0.38424 0.0
C2572 C 0.96364 0.28295 0.36637 0.0
C2573 C 0.96341 0.27313 0.38325 0.0
C2574 C 0.9467 0.28309 0.3549 0.0
C2575 C 0.92929 0.27355 0.36019 0.0
C2576 C 0.92895 0.26413 0.37724 0.0
H2577 H 0.81238 0.25136 0.3087 0.0
H2578 H 0.84243 0.25021 0.32787 0.0
C2579 C 0.94589 0.26397 0.38873 0.0
C2580 C 0.91158 0.27237 0.34724 0.0
H2581 H 0.86786 0.28532 0.34528 0.0
C2582 C 0.9099 0.262 0.32848 0.0
C2583 C 0.89634 0.281 0.35339 0.0
C2584 C 0.89773 0.29296 0.37314 0.0
C2585 C 0.89316 0.2597 0.31575 0.0
C2586 C 0.87789 0.26825 0.32194 0.0
C2587 C 0.8796 0.27868 0.34068 0.0
C2588 C 0.86007 0.26695 0.30913 0.0
C2589 C 0.89179 0.24784 0.29596 0.0
C2590 C 0.86016 0.27647 0.29212 0.0
C2591 C 0.84306 0.27709 0.28114 0.0
C2592 C 0.82567 0.26833 0.28715 0.0
C2593 C 0.82563 0.2582 0.30379 0.0
C2594 C 0.84274 0.25757 0.31474 0.0
H2595 H 0.90265 0.23811 0.29533 0.0
H2596 H 0.87746 0.23822 0.292 0.0
H2597 H 0.89417 0.25847 0.2849 0.0
H2598 H 0.8734 0.28407 0.28775 0.0
H2599 H 0.84341 0.28507 0.26841 0.0
H2600 H 0.94813 0.75362 0.59746 0.0
H2601 H 0.94927 0.71939 0.58314 0.0
H2602 H 0.00994 0.73647 0.58267 0.0
H2603 H 0.00907 0.77041 0.59715 0.0
H2604 H 0.96227 0.706 0.54816 0.0
H2605 H 0.0048 0.68687 0.6119 0.0
H2606 H 0.99317 0.70835 0.61313 0.0
H2607 H 0.01559 0.70979 0.60328 0.0
C2608 C 0.96171 0.75008 0.59431 0.0
C2609 C 0.97853 0.76472 0.59863 0.0
C2610 C 0.96232 0.73054 0.58613 0.0
C2611 C 0.97974 0.72534 0.58222 0.0
C2612 C 0.99642 0.74005 0.58602 0.0
H2613 H 0.02185 0.62331 0.53265 0.0
H2614 H 0.01655 0.65662 0.54496 0.0
C2615 C 0.99586 0.75949 0.59423 0.0
C2616 C 0.98064 0.70459 0.57408 0.0
H2617 H 0.00225 0.66491 0.58236 0.0
C2618 C 0.97083 0.6969 0.55569 0.0
C2619 C 0.99179 0.69277 0.58401 0.0
C2620 C 0.00179 0.69976 0.60425 0.0
C2621 C 0.97245 0.67793 0.54666 0.0
C2622 C 0.98405 0.66641 0.55638 0.0
C2623 C 0.99352 0.67392 0.57491 0.0
C2624 C 0.98671 0.64654 0.54758 0.0
C2625 C 0.96223 0.67054 0.5266 0.0
C2626 C 0.97163 0.62992 0.54496 0.0
C2627 C 0.97459 0.61083 0.53799 0.0
C2628 C 0.99272 0.60807 0.53355 0.0
C2629 C 0.0077 0.62489 0.53585 0.0
C2630 C 0.00473 0.64393 0.54291 0.0
H2631 H 0.95672 0.68273 0.51967 0.0
H2632 H 0.97185 0.66427 0.51707 0.0
H2633 H 0.95 0.65827 0.52764 0.0
H2634 H 0.95768 0.63162 0.54876 0.0
H2635 H 0.96275 0.59821 0.53643 0.0
H2636 H 0.57387 0.80294 0.88249 0.0
H2637 H 0.60272 0.81046 0.86627 0.0
H2638 H 0.6046 0.7471 0.85774 0.0
H2639 H 0.57589 0.73936 0.87393 0.0
H2640 H 0.64219 0.79383 0.87298 0.0
H2641 H 0.59695 0.77196 0.80189 0.0
H2642 H 0.58772 0.78099 0.82371 0.0
H2643 H 0.59254 0.75591 0.82076 0.0
C2644 C 0.58064 0.79063 0.87754 0.0
C2645 C 0.57246 0.77051 0.87927 0.0
C2646 C 0.59709 0.79498 0.86829 0.0
C2647 C 0.60553 0.77929 0.86069 0.0
C2648 C 0.59813 0.75936 0.86347 0.0
H2649 H 0.68725 0.75677 0.7848 0.0
H2650 H 0.66012 0.75689 0.80354 0.0
C2651 C 0.58175 0.75499 0.87273 0.0
C2652 C 0.62106 0.78337 0.8484 0.0
H2653 H 0.63023 0.77805 0.80112 0.0
C2654 C 0.63966 0.79063 0.85726 0.0
C2655 C 0.61751 0.77914 0.82795 0.0
C2656 C 0.59761 0.77167 0.81788 0.0
C2657 C 0.65505 0.79303 0.84613 0.0
C2658 C 0.65154 0.78837 0.82565 0.0
C2659 C 0.63283 0.78164 0.81681 0.0
C2660 C 0.6672 0.78892 0.81325 0.0
C2661 C 0.67497 0.79966 0.8564 0.0
C2662 C 0.67978 0.80702 0.81204 0.0
C2663 C 0.6953 0.80697 0.80136 0.0
C2664 C 0.69832 0.78883 0.79167 0.0
C2665 C 0.68522 0.77093 0.79216 0.0
C2666 C 0.66977 0.77098 0.80287 0.0
H2667 H 0.67545 0.79862 0.87228 0.0
H2668 H 0.6847 0.79035 0.85025 0.0
H2669 H 0.68036 0.8156 0.85434 0.0
H2670 H 0.67777 0.82109 0.81961 0.0
H2671 H 0.70519 0.821 0.80108 0.0
H2672 H 0.38094 0.53472 0.68614 0.0
H2673 H 0.4008 0.53217 0.65966 0.0
H2674 H 0.40616 0.59594 0.65611 0.0
H2675 H 0.38635 0.59876 0.68265 0.0
H2676 H 0.40087 0.56388 0.61757 0.0
H2677 H 0.45993 0.5641 0.67556 0.0
H2678 H 0.43737 0.54792 0.67677 0.0
H2679 H 0.4393 0.57478 0.68032 0.0
C2680 C 0.38588 0.54813 0.67941 0.0
C2681 C 0.3823 0.56701 0.68671 0.0
C2682 C 0.39726 0.54663 0.66431 0.0
C2683 C 0.40507 0.56392 0.65621 0.0
C2684 C 0.40026 0.58247 0.6623 0.0
H2685 H 0.48467 0.58077 0.56913 0.0
H2686 H 0.46266 0.58657 0.59285 0.0
C2687 C 0.38894 0.58402 0.67746 0.0
C2688 C 0.41992 0.56303 0.64307 0.0
H2689 H 0.46672 0.55979 0.6431 0.0
C2690 C 0.4153 0.56309 0.62306 0.0
C2691 C 0.43867 0.56201 0.65045 0.0
C2692 C 0.44428 0.5623 0.67195 0.0
C2693 C 0.42895 0.56161 0.61007 0.0
C2694 C 0.44774 0.56052 0.61746 0.0
C2695 C 0.45234 0.56071 0.63753 0.0
C2696 C 0.46258 0.55817 0.60451 0.0
C2697 C 0.423 0.5605 0.58853 0.0
C2698 C 0.47067 0.54082 0.60403 0.0
C2699 C 0.48347 0.53756 0.59069 0.0
C2700 C 0.48843 0.55163 0.57761 0.0
C2701 C 0.48117 0.56959 0.57896 0.0
C2702 C 0.46839 0.57284 0.59235 0.0
H2703 H 0.40728 0.55683 0.58502 0.0
H2704 H 0.42821 0.57531 0.58351 0.0
H2705 H 0.42924 0.54895 0.58022 0.0
H2706 H 0.4665 0.52941 0.61346 0.0
H2707 H 0.48879 0.52359 0.5901 0.0
H2708 H 0.82023 0.23121 0.95901 0.0
H2709 H 0.80954 0.24802 0.93168 0.0
H2710 H 0.76016 0.20044 0.91742 0.0
H2711 H 0.77041 0.1839 0.94506 0.0
H2712 H 0.80575 0.23495 0.89446 0.0
H2713 H 0.73562 0.24838 0.91306 0.0
H2714 H 0.75255 0.24093 0.93036 0.0
H2715 H 0.73735 0.22233 0.91268 0.0
C2716 C 0.80691 0.22448 0.95028 0.0
C2717 C 0.79618 0.20619 0.95433 0.0
C2718 C 0.80083 0.23411 0.9346 0.0
C2719 C 0.7839 0.22568 0.92254 0.0
C2720 C 0.773 0.20759 0.92674 0.0
H2721 H 0.76288 0.24879 0.80226 0.0
H2722 H 0.76945 0.23426 0.83239 0.0
C2723 C 0.77896 0.19806 0.94255 0.0
C2724 C 0.77844 0.23502 0.9048 0.0
H2725 H 0.74182 0.25142 0.88012 0.0
C2726 C 0.79181 0.23868 0.89144 0.0
C2727 C 0.76033 0.24017 0.90085 0.0
C2728 C 0.74572 0.23795 0.9151 0.0
C2729 C 0.78751 0.24693 0.87418 0.0
C2730 C 0.76909 0.25114 0.86977 0.0
C2731 C 0.75584 0.24791 0.88331 0.0
C2732 C 0.76346 0.25913 0.85131 0.0
C2733 C 0.80295 0.25142 0.86106 0.0
C2734 C 0.75688 0.27745 0.85172 0.0
C2735 C 0.7527 0.28559 0.83442 0.0
C2736 C 0.75507 0.27558 0.81638 0.0
C2737 C 0.76097 0.2569 0.81593 0.0
C2738 C 0.76493 0.24868 0.83319 0.0
H2739 H 0.81734 0.25318 0.86913 0.0
H2740 H 0.80134 0.23868 0.84933 0.0
H2741 H 0.80207 0.26539 0.85424 0.0
H2742 H 0.75547 0.28574 0.86548 0.0
H2743 H 0.74816 0.29999 0.83523 0.0
H2744 H 0.05183 0.47168 0.23418 0.0
H2745 H 0.04358 0.47519 0.19997 0.0
H2746 H 0.1031 0.48777 0.19193 0.0
H2747 H 0.11156 0.48422 0.22621 0.0
H2748 H 0.05589 0.51091 0.18207 0.0
H2749 H 0.07861 0.44351 0.14626 0.0
H2750 H 0.07429 0.44582 0.1715 0.0
H2751 H 0.09576 0.45955 0.16431 0.0
C2752 C 0.0632 0.47501 0.22513 0.0
C2753 C 0.08236 0.47767 0.23294 0.0
C2754 C 0.05844 0.47702 0.20558 0.0
C2755 C 0.07272 0.48154 0.1934 0.0
C2756 C 0.09187 0.48396 0.20103 0.0
H2757 H 0.06573 0.50532 0.07202 0.0
H2758 H 0.07683 0.49877 0.10473 0.0
C2759 C 0.09666 0.48203 0.22064 0.0
C2760 C 0.06747 0.48481 0.17302 0.0
H2761 H 0.06748 0.46565 0.12569 0.0
C2762 C 0.05841 0.50102 0.16973 0.0
C2763 C 0.07095 0.47198 0.157 0.0
C2764 C 0.08032 0.45413 0.15982 0.0
C2765 C 0.05268 0.50475 0.15082 0.0
C2766 C 0.05571 0.49162 0.13477 0.0
C2767 C 0.0651 0.47562 0.13803 0.0
C2768 C 0.04887 0.49416 0.11455 0.0
C2769 C 0.04368 0.5229 0.1482 0.0
C2770 C 0.02942 0.49312 0.10907 0.0
C2771 C 0.02303 0.49692 0.09047 0.0
C2772 C 0.03597 0.50166 0.07688 0.0
C2773 C 0.05538 0.50179 0.08213 0.0
C2774 C 0.06177 0.49806 0.10082 0.0
H2775 H 0.04726 0.53434 0.16124 0.0
H2776 H 0.04831 0.53013 0.13536 0.0
H2777 H 0.02798 0.51805 0.1459 0.0
H2778 H 0.01917 0.48965 0.11931 0.0
H2779 H 0.00796 0.49644 0.08688 0.0
H2780 H 0.74428 0.89367 0.4867 0.0
H2781 H 0.73713 0.87265 0.45532 0.0
H2782 H 0.78787 0.84827 0.467 0.0
H2783 H 0.79507 0.869 0.49852 0.0
H2784 H 0.75972 0.87316 0.42496 0.0
H2785 H 0.74672 0.79761 0.45074 0.0
H2786 H 0.74705 0.82057 0.46643 0.0
H2787 H 0.76898 0.81328 0.46095 0.0
C2788 C 0.7539 0.88377 0.48267 0.0
C2789 C 0.77024 0.88299 0.49518 0.0
C2790 C 0.74976 0.87176 0.46475 0.0
C2791 C 0.76179 0.85867 0.45904 0.0
C2792 C 0.77817 0.85793 0.47137 0.0
H2793 H 0.7747 0.78595 0.35479 0.0
H2794 H 0.77605 0.8022 0.3881 0.0
C2795 C 0.78234 0.86993 0.48931 0.0
C2796 C 0.75775 0.84657 0.43973 0.0
H2797 H 0.75001 0.79839 0.41698 0.0
C2798 C 0.75739 0.8568 0.42318 0.0
C2799 C 0.75476 0.82526 0.43754 0.0
C2800 C 0.75421 0.81349 0.45485 0.0
C2801 C 0.7547 0.8463 0.40443 0.0
C2802 C 0.75197 0.825 0.40224 0.0
C2803 C 0.75207 0.81473 0.41877 0.0
C2804 C 0.74985 0.81327 0.38285 0.0
C2805 C 0.75547 0.85813 0.38715 0.0
C2806 C 0.73433 0.81357 0.36914 0.0
C2807 C 0.73356 0.80436 0.35014 0.0
C2808 C 0.74825 0.79465 0.34466 0.0
C2809 C 0.76323 0.79341 0.35867 0.0
C2810 C 0.76401 0.80265 0.37766 0.0
H2811 H 0.76174 0.87434 0.39146 0.0
H2812 H 0.76393 0.85187 0.37632 0.0
H2813 H 0.74081 0.85708 0.37999 0.0
H2814 H 0.72311 0.82141 0.37301 0.0
H2815 H 0.7218 0.80541 0.33959 0.0
H2816 H 0.3965 0.57578 0.8127 0.0
H2817 H 0.42023 0.57646 0.84037 0.0
H2818 H 0.45248 0.54382 0.80374 0.0
H2819 H 0.42867 0.54287 0.77591 0.0
H2820 H 0.44683 0.529 0.84009 0.0
H2821 H 0.47434 0.61156 0.84873 0.0
H2822 H 0.44892 0.60471 0.84774 0.0
H2823 H 0.46043 0.59816 0.8268 0.0
C2824 C 0.40855 0.56861 0.81052 0.0
C2825 C 0.41072 0.55926 0.79213 0.0
C2826 C 0.42219 0.56921 0.82631 0.0
C2827 C 0.43824 0.56056 0.82394 0.0
C2828 C 0.44024 0.55076 0.80574 0.0
H2829 H 0.52603 0.54333 0.9133 0.0
H2830 H 0.50962 0.54618 0.88146 0.0
C2831 C 0.42662 0.55019 0.78991 0.0
C2832 C 0.45263 0.5613 0.84068 0.0
H2833 H 0.48328 0.5938 0.87501 0.0
C2834 C 0.45502 0.54311 0.84761 0.0
C2835 C 0.46324 0.57978 0.85034 0.0
C2836 C 0.46178 0.59967 0.84294 0.0
C2837 C 0.46714 0.54296 0.86456 0.0
C2838 C 0.47738 0.5615 0.87453 0.0
C2839 C 0.4754 0.57965 0.86727 0.0
C2840 C 0.4891 0.56233 0.89328 0.0
C2841 C 0.46822 0.52306 0.87213 0.0
C2842 C 0.48356 0.57142 0.91028 0.0
C2843 C 0.49297 0.56996 0.9284 0.0
C2844 C 0.50803 0.55941 0.92971 0.0
C2845 C 0.51434 0.55142 0.91262 0.0
C2846 C 0.50495 0.55293 0.89449 0.0
H2847 H 0.45657 0.51075 0.86496 0.0
H2848 H 0.48197 0.51875 0.86928 0.0
H2849 H 0.46751 0.52427 0.88808 0.0
H2850 H 0.4714 0.57883 0.90957 0.0
H2851 H 0.48793 0.57634 0.94139 0.0
H2852 H 0.83455 0.22118 0.05708 0.0
H2853 H 0.82675 0.23502 0.08855 0.0
H2854 H 0.77153 0.19606 0.07842 0.0
H2855 H 0.77928 0.18188 0.04717 0.0
H2856 H 0.79834 0.25497 0.0982 0.0
H2857 H 0.79143 0.18345 0.13143 0.0
H2858 H 0.80177 0.18657 0.10899 0.0
H2859 H 0.77633 0.18146 0.10899 0.0
C2860 C 0.82074 0.21552 0.06153 0.0
C2861 C 0.80763 0.20026 0.04958 0.0
C2862 C 0.8163 0.22348 0.07955 0.0
C2863 C 0.79868 0.21633 0.08606 0.0
C2864 C 0.78539 0.20148 0.07397 0.0
H2865 H 0.74853 0.27457 0.18083 0.0
H2866 H 0.75667 0.26184 0.14915 0.0
C2867 C 0.78983 0.19346 0.056 0.0
C2868 C 0.79417 0.22448 0.10542 0.0
H2869 H 0.78116 0.21066 0.14893 0.0
C2870 C 0.79464 0.24529 0.10932 0.0
C2871 C 0.7896 0.21192 0.12006 0.0
C2872 C 0.78992 0.18964 0.11728 0.0
C2873 C 0.79038 0.25381 0.12729 0.0
C2874 C 0.78514 0.24113 0.14167 0.0
C2875 C 0.78496 0.22037 0.13787 0.0
C2876 C 0.78018 0.24908 0.16091 0.0
C2877 C 0.79191 0.27637 0.13083 0.0
C2878 C 0.79031 0.24571 0.17815 0.0
C2879 C 0.78557 0.25279 0.19631 0.0
C2880 C 0.77053 0.2634 0.19767 0.0
C2881 C 0.76031 0.26664 0.18037 0.0
C2882 C 0.76503 0.25947 0.1622 0.0
H2883 H 0.80105 0.2843 0.12086 0.0
H2884 H 0.77753 0.28005 0.12822 0.0
H2885 H 0.79781 0.28228 0.14607 0.0
H2886 H 0.80199 0.23765 0.17757 0.0
H2887 H 0.79373 0.24992 0.20928 0.0
H2888 H 0.06317 0.50814 0.32574 0.0
H2889 H 0.05013 0.52 0.35489 0.0
H2890 H 0.09962 0.5109 0.39046 0.0
H2891 H 0.11231 0.49804 0.36136 0.0
H2892 H 0.06951 0.49615 0.40547 0.0
H2893 H 0.06169 0.57218 0.38883 0.0
H2894 H 0.04941 0.55365 0.36952 0.0
H2895 H 0.0749 0.55697 0.37473 0.0
C2896 C 0.07141 0.50888 0.33975 0.0
C2897 C 0.08885 0.50224 0.3412 0.0
C2898 C 0.064 0.51586 0.35643 0.0
C2899 C 0.07407 0.51683 0.37491 0.0
C2900 C 0.09163 0.51045 0.37637 0.0
H2901 H 0.02571 0.57082 0.47458 0.0
H2902 H 0.04734 0.56518 0.45012 0.0
C2903 C 0.09891 0.50314 0.35969 0.0
C2904 C 0.06554 0.523 0.3927 0.0
H2905 H 0.04195 0.55809 0.41237 0.0
C2906 C 0.06377 0.50987 0.4071 0.0
C2907 C 0.05841 0.54112 0.39518 0.0
C2908 C 0.06141 0.55686 0.38133 0.0
C2909 C 0.05423 0.51383 0.42335 0.0
C2910 C 0.04557 0.53101 0.42487 0.0
C2911 C 0.04824 0.5447 0.41104 0.0
C2912 C 0.03295 0.53449 0.44009 0.0
C2913 C 0.05358 0.49952 0.43868 0.0
C2914 C 0.01747 0.51936 0.44232 0.0
C2915 C 0.00558 0.52237 0.45663 0.0
C2916 C 0.0087 0.54073 0.46878 0.0
C2917 C 0.02359 0.55625 0.46598 0.0
C2918 C 0.03574 0.55311 0.45184 0.0
H2919 H 0.06621 0.49218 0.43925 0.0
H2920 H 0.05298 0.50736 0.45334 0.0
H2921 H 0.04078 0.48739 0.43499 0.0
H2922 H 0.01452 0.50516 0.43296 0.0
H2923 H 0.99404 0.51021 0.45829 0.0
H2924 H 0.76937 0.85682 0.5788 0.0
H2925 H 0.75555 0.8341 0.60074 0.0
H2926 H 0.70943 0.8665 0.60513 0.0
H2927 H 0.7234 0.88969 0.58313 0.0
H2928 H 0.72832 0.86434 0.6401 0.0
H2929 H 0.71122 0.78809 0.59994 0.0
H2930 H 0.73454 0.80031 0.59595 0.0
H2931 H 0.71414 0.81058 0.58775 0.0
C2932 C 0.75608 0.85893 0.58408 0.0
C2933 C 0.74761 0.87523 0.57942 0.0
C2934 C 0.74803 0.84571 0.59644 0.0
C2935 C 0.73128 0.84839 0.60434 0.0
C2936 C 0.72224 0.86404 0.59898 0.0
H2937 H 0.71785 0.801 0.71663 0.0
H2938 H 0.7061 0.81167 0.68593 0.0
C2939 C 0.73026 0.87728 0.58647 0.0
C2940 C 0.72549 0.83701 0.62058 0.0
H2941 H 0.72233 0.78998 0.63483 0.0
C2942 C 0.72631 0.84801 0.63892 0.0
C2943 C 0.72278 0.81573 0.61896 0.0
C2944 C 0.72041 0.80303 0.59951 0.0
C2945 C 0.72663 0.8385 0.65591 0.0
C2946 C 0.72578 0.8174 0.65438 0.0
C2947 C 0.72315 0.80618 0.63594 0.0
C2948 C 0.73077 0.80749 0.6716 0.0
C2949 C 0.7296 0.85133 0.67539 0.0
C2950 C 0.7481 0.80072 0.67332 0.0
C2951 C 0.75484 0.79456 0.69075 0.0
C2952 C 0.74435 0.79506 0.7068 0.0
C2953 C 0.72638 0.80059 0.70461 0.0
C2954 C 0.71963 0.80673 0.6871 0.0
H2955 H 0.73226 0.86773 0.67396 0.0
H2956 H 0.71674 0.84778 0.68301 0.0
H2957 H 0.74183 0.848 0.68465 0.0
H2958 H 0.7569 0.8012 0.66147 0.0
H2959 H 0.76866 0.79025 0.69186 0.0
H2960 H 0.6542 0.40288 0.51872 0.0
H2961 H 0.62582 0.41835 0.52017 0.0
H2962 H 0.66178 0.47732 0.53183 0.0
H2963 H 0.68984 0.46216 0.53084 0.0
H2964 H 0.63517 0.47249 0.55678 0.0
H2965 H 0.60141 0.44936 0.4807 0.0
H2966 H 0.60601 0.42921 0.49427 0.0
H2967 H 0.62556 0.44714 0.4883 0.0
C2968 C 0.65599 0.41913 0.52145 0.0
C2969 C 0.67431 0.43124 0.52472 0.0
C2970 C 0.63976 0.42798 0.5222 0.0
C2971 C 0.64163 0.44906 0.526 0.0
C2972 C 0.65991 0.46105 0.52896 0.0
H2973 H 0.56905 0.53324 0.50532 0.0
H2974 H 0.59109 0.50973 0.50497 0.0
C2975 C 0.676 0.4523 0.52835 0.0
C2976 C 0.62486 0.45903 0.52751 0.0
H2977 H 0.58579 0.46909 0.50119 0.0
C2978 C 0.62426 0.4716 0.54468 0.0
C2979 C 0.6107 0.45799 0.51168 0.0
C2980 C 0.61093 0.44535 0.49261 0.0
C2981 C 0.61038 0.48367 0.54626 0.0
C2982 C 0.59629 0.48278 0.53038 0.0
C2983 C 0.59651 0.46972 0.5134 0.0
C2984 C 0.58221 0.49646 0.53048 0.0
C2985 C 0.6116 0.49804 0.56456 0.0
C2986 C 0.5697 0.49683 0.54486 0.0
C2987 C 0.55727 0.51057 0.54526 0.0
C2988 C 0.55683 0.52386 0.53106 0.0
C2989 C 0.56914 0.52327 0.51655 0.0
C2990 C 0.58164 0.50969 0.51623 0.0
H2991 H 0.62579 0.50044 0.5732 0.0
H2992 H 0.60875 0.51291 0.56111 0.0
H2993 H 0.6008 0.49167 0.57381 0.0
H2994 H 0.56961 0.48659 0.55585 0.0
H2995 H 0.54824 0.51103 0.55684 0.0
H2996 H 0.22949 0.14096 0.50273 0.0
H2997 H 0.19569 0.12808 0.50355 0.0
H2998 H 0.19174 0.09829 0.44514 0.0
H2999 H 0.22575 0.11082 0.44427 0.0
H3000 H 0.1629 0.1313 0.48039 0.0
H3001 H 0.17411 0.05214 0.4772 0.0
H3002 H 0.19354 0.07353 0.48168 0.0
H3003 H 0.18207 0.06529 0.4574 0.0
C3004 C 0.22143 0.13183 0.48996 0.0
C3005 C 0.23035 0.12664 0.47352 0.0
C3006 C 0.20211 0.12452 0.49046 0.0
C3007 C 0.19138 0.11193 0.47457 0.0
C3008 C 0.19994 0.10766 0.4577 0.0
H3009 H 0.06882 0.07201 0.46316 0.0
H3010 H 0.10123 0.08778 0.45912 0.0
C3011 C 0.21932 0.11492 0.45719 0.0
C3012 C 0.1715 0.10253 0.47616 0.0
H3013 H 0.14246 0.0571 0.47733 0.0
C3014 C 0.15837 0.11508 0.47965 0.0
C3015 C 0.16582 0.08139 0.47557 0.0
C3016 C 0.17963 0.06726 0.47294 0.0
C3017 C 0.1396 0.10703 0.48248 0.0
C3018 C 0.13381 0.08586 0.48142 0.0
C3019 C 0.14696 0.07332 0.478 0.0
C3020 C 0.11419 0.07637 0.48396 0.0
C3021 C 0.12628 0.12125 0.48705 0.0
C3022 C 0.11083 0.06428 0.49898 0.0
C3023 C 0.09232 0.05503 0.50125 0.0
C3024 C 0.07688 0.05773 0.48848 0.0
C3025 C 0.08036 0.06974 0.47336 0.0
C3026 C 0.09887 0.07888 0.47107 0.0
H3027 H 0.13416 0.13675 0.49243 0.0
H3028 H 0.11697 0.12211 0.47363 0.0
H3029 H 0.11708 0.11584 0.49815 0.0
H3030 H 0.12255 0.06209 0.50901 0.0
H3031 H 0.09012 0.04588 0.51304 0.0
H3032 H 0.18676 0.96329 0.80925 0.0
H3033 H 0.20568 0.9387 0.79854 0.0
H3034 H 0.17526 0.93062 0.741 0.0
H3035 H 0.15609 0.9551 0.75156 0.0
H3036 H 0.17517 0.89489 0.75761 0.0
H3037 H 0.24831 0.93963 0.76324 0.0
H3038 H 0.23683 0.94369 0.78475 0.0
H3039 H 0.22745 0.95106 0.76223 0.0
C3040 C 0.1843 0.95661 0.79421 0.0
C3041 C 0.1698 0.9611 0.78131 0.0
C3042 C 0.19524 0.94264 0.78808 0.0
C3043 C 0.19197 0.933 0.76894 0.0
C3044 C 0.17804 0.938 0.75581 0.0
H3045 H 0.23304 0.82354 0.72652 0.0
H3046 H 0.21749 0.85296 0.72682 0.0
C3047 C 0.16712 0.95201 0.7619 0.0
C3048 C 0.20167 0.91621 0.76336 0.0
H3049 H 0.24551 0.90379 0.76273 0.0
C3050 C 0.19054 0.89682 0.7584 0.0
C3051 C 0.22169 0.91886 0.76439 0.0
C3052 C 0.23427 0.93947 0.76876 0.0
C3053 C 0.19894 0.87981 0.75551 0.0
C3054 C 0.21902 0.88238 0.75731 0.0
C3055 C 0.23012 0.90188 0.76146 0.0
C3056 C 0.22883 0.86498 0.75647 0.0
C3057 C 0.18626 0.85921 0.75145 0.0
C3058 C 0.24075 0.86235 0.77279 0.0
C3059 C 0.24963 0.8457 0.77259 0.0
C3060 C 0.24668 0.83137 0.75608 0.0
C3061 C 0.23515 0.83421 0.73955 0.0
C3062 C 0.2263 0.85096 0.73972 0.0
H3063 H 0.17159 0.85951 0.75513 0.0
H3064 H 0.18529 0.85388 0.73571 0.0
H3065 H 0.19213 0.84812 0.75974 0.0
H3066 H 0.2429 0.87302 0.78585 0.0
H3067 H 0.25849 0.84383 0.78551 0.0
H3068 H 0.2638 0.94977 0.00029 0.0
H3069 H 0.29526 0.9692 0.9966 0.0
H3070 H 0.3219 0.92773 0.02755 0.0
H3071 H 0.29081 0.90826 0.0311 0.0
H3072 H 0.32271 0.98836 0.02615 0.0
H3073 H 0.35133 0.93175 0.98076 0.0
H3074 H 0.32632 0.9291 0.98358 0.0
H3075 H 0.34244 0.92193 0.00183 0.0
C3076 C 0.27638 0.94462 0.006 0.0
C3077 C 0.27479 0.92735 0.01582 0.0
C3078 C 0.29432 0.95575 0.00392 0.0
C3079 C 0.31092 0.94972 0.01152 0.0
C3080 C 0.30931 0.93237 0.02111 0.0
H3081 H 0.42944 0.99489 0.04266 0.0
H3082 H 0.39573 0.97891 0.03974 0.0
C3083 C 0.29147 0.92126 0.02317 0.0
C3084 C 0.32995 0.96214 0.01073 0.0
H3085 H 0.37441 0.9591 0.99873 0.0
C3086 C 0.33394 0.98211 0.01985 0.0
C3087 C 0.34457 0.95395 0.00246 0.0
C3088 C 0.34091 0.93307 0.99143 0.0
C3089 C 0.3524 0.99374 0.02173 0.0
C3090 C 0.36713 0.98515 0.0143 0.0
C3091 C 0.36304 0.9655 0.00458 0.0
C3092 C 0.38707 0.99606 0.01703 0.0
C3093 C 0.35631 0.01484 0.03224 0.0
C3094 C 0.39319 0.01109 0.00535 0.0
C3095 C 0.41242 0.02016 0.00693 0.0
C3096 C 0.42574 0.01432 0.02024 0.0
C3097 C 0.41945 0.99969 0.03232 0.0
C3098 C 0.40026 0.99054 0.03065 0.0
H3099 H 0.34354 0.01886 0.03831 0.0
H3100 H 0.36796 0.01639 0.04428 0.0
H3101 H 0.36111 0.02579 0.02204 0.0
H3102 H 0.38317 0.01542 0.99469 0.0
H3103 H 0.41694 0.03138 0.99742 0.0
H3104 H 0.87575 0.62247 0.73938 0.0
H3105 H 0.85496 0.64552 0.72926 0.0
H3106 H 0.8285 0.64085 0.78221 0.0
H3107 H 0.84875 0.61782 0.79224 0.0
H3108 H 0.80252 0.63857 0.74897 0.0
H3109 H 0.86222 0.70459 0.75411 0.0
H3110 H 0.86373 0.68231 0.73846 0.0
H3111 H 0.86511 0.68173 0.76429 0.0
C3112 C 0.86537 0.62622 0.74875 0.0
C3113 C 0.86407 0.61843 0.76671 0.0
C3114 C 0.8536 0.63948 0.743 0.0
C3115 C 0.84039 0.6451 0.75513 0.0
C3116 C 0.83863 0.63676 0.77266 0.0
H3117 H 0.76851 0.72465 0.7853 0.0
H3118 H 0.78602 0.69726 0.77956 0.0
C3119 C 0.85032 0.62362 0.7784 0.0
C3120 C 0.82866 0.66017 0.75031 0.0
H3121 H 0.83121 0.71085 0.74968 0.0
C3122 C 0.80878 0.65432 0.74877 0.0
C3123 C 0.83686 0.6807 0.74998 0.0
C3124 C 0.85814 0.68786 0.7519 0.0
C3125 C 0.79693 0.66859 0.74791 0.0
C3126 C 0.8052 0.68924 0.74885 0.0
C3127 C 0.82497 0.69498 0.74909 0.0
C3128 C 0.79379 0.7052 0.75159 0.0
C3129 C 0.77567 0.66152 0.74657 0.0
C3130 C 0.79254 0.71884 0.73785 0.0
C3131 C 0.78245 0.73445 0.74109 0.0
C3132 C 0.77385 0.73686 0.75828 0.0
C3133 C 0.77499 0.72309 0.77191 0.0
C3134 C 0.78492 0.70742 0.76861 0.0
H3135 H 0.77138 0.64546 0.74023 0.0
H3136 H 0.77114 0.66286 0.7614 0.0
H3137 H 0.76803 0.67086 0.7376 0.0
H3138 H 0.79936 0.71741 0.72467 0.0
H3139 H 0.78149 0.7447 0.73021 0.0
H3140 H 0.86167 0.6399 0.99545 0.0
H3141 H 0.88375 0.6205 0.00965 0.0
H3142 H 0.84403 0.60097 0.04997 0.0
H3143 H 0.82135 0.61943 0.03491 0.0
H3144 H 0.90211 0.62011 0.04346 0.0
H3145 H 0.85036 0.54766 0.0253 0.0
H3146 H 0.84572 0.57085 0.01715 0.0
H3147 H 0.84279 0.56589 0.04176 0.0
C3148 C 0.85772 0.6316 0.00745 0.0
C3149 C 0.83973 0.63085 0.0139 0.0
C3150 C 0.87034 0.62053 0.01558 0.0
C3151 C 0.86534 0.60883 0.03055 0.0
C3152 C 0.84792 0.60929 0.03798 0.0
H3153 H 0.95909 0.55027 0.07101 0.0
H3154 H 0.93285 0.56856 0.07392 0.0
C3155 C 0.83505 0.61996 0.02949 0.0
C3156 C 0.87812 0.59549 0.03743 0.0
H3157 H 0.88077 0.546 0.03956 0.0
C3158 C 0.89743 0.60391 0.04281 0.0
C3159 C 0.87196 0.57433 0.03644 0.0
C3160 C 0.85163 0.56409 0.02969 0.0
C3161 C 0.91094 0.59173 0.04605 0.0
C3162 C 0.90481 0.57057 0.04487 0.0
C3163 C 0.88536 0.56224 0.04063 0.0
C3164 C 0.91852 0.55672 0.04521 0.0
C3165 C 0.93175 0.60155 0.04927 0.0
C3166 C 0.9183 0.54277 0.0288 0.0
C3167 C 0.93289 0.53185 0.0274 0.0
C3168 C 0.94803 0.53495 0.04228 0.0
C3169 C 0.94759 0.5478 0.05929 0.0
C3170 C 0.93275 0.55839 0.06086 0.0
H3171 H 0.93416 0.61751 0.04616 0.0
H3172 H 0.93727 0.60136 0.06464 0.0
H3173 H 0.94015 0.59317 0.03993 0.0
H3174 H 0.90739 0.54113 0.01659 0.0
H3175 H 0.93293 0.52202 0.01415 0.0
H3176 H 0.13994 0.05362 0.76789 0.0
H3177 H 0.15541 0.08774 0.76316 0.0
H3178 H 0.19009 0.09284 0.8181 0.0
H3179 H 0.17488 0.05882 0.82296 0.0
H3180 H 0.15737 0.12462 0.78781 0.0
H3181 H 0.2289 0.10727 0.77897 0.0
H3182 H 0.20775 0.08791 0.77683 0.0
H3183 H 0.21911 0.09934 0.80042 0.0
C3184 C 0.15089 0.06196 0.77895 0.0
C3185 C 0.1562 0.05339 0.79577 0.0
C3186 C 0.15969 0.08146 0.77624 0.0
C3187 C 0.17406 0.09269 0.79017 0.0
C3188 C 0.17926 0.0843 0.80702 0.0
H3189 H 0.22041 0.22134 0.80548 0.0
H3190 H 0.20454 0.18705 0.80902 0.0
C3191 C 0.17045 0.06485 0.8098 0.0
C3192 C 0.18345 0.1133 0.78726 0.0
H3193 H 0.22654 0.14187 0.78217 0.0
C3194 C 0.17247 0.1284 0.78651 0.0
C3195 C 0.20312 0.11812 0.78538 0.0
C3196 C 0.21542 0.1023 0.78526 0.0
C3197 C 0.18074 0.14832 0.7843 0.0
C3198 C 0.20051 0.15326 0.783 0.0
C3199 C 0.21141 0.13807 0.78337 0.0
C3200 C 0.21013 0.17405 0.78094 0.0
C3201 C 0.16822 0.16388 0.78314 0.0
C3202 C 0.21888 0.17801 0.76417 0.0
C3203 C 0.22801 0.19755 0.76211 0.0
C3204 C 0.22872 0.21352 0.77689 0.0
C3205 C 0.22013 0.20943 0.79381 0.0
C3206 C 0.21094 0.18986 0.79581 0.0
H3207 H 0.15293 0.15679 0.77983 0.0
H3208 H 0.1701 0.17347 0.79733 0.0
H3209 H 0.17221 0.17381 0.77182 0.0
H3210 H 0.21849 0.16598 0.75258 0.0
H3211 H 0.2345 0.20011 0.74891 0.0
H3212 H 0.3725 0.01416 0.24545 0.0
H3213 H 0.35141 0.98103 0.23779 0.0
H3214 H 0.32635 0.99082 0.29104 0.0
H3215 H 0.34708 0.02376 0.29877 0.0
H3216 H 0.34895 0.94858 0.26066 0.0
H3217 H 0.27979 0.97339 0.25008 0.0
H3218 H 0.30228 0.99014 0.24961 0.0
H3219 H 0.2939 0.98468 0.27245 0.0
C3220 C 0.3624 0.00932 0.25546 0.0
C3221 C 0.36149 0.02169 0.27272 0.0
C3222 C 0.35037 0.9904 0.25105 0.0
C3223 C 0.33709 0.98364 0.26368 0.0
C3224 C 0.33618 0.99592 0.28087 0.0
H3225 H 0.26182 0.87723 0.28471 0.0
H3226 H 0.27938 0.91144 0.28324 0.0
C3227 C 0.3482 0.01473 0.28533 0.0
C3228 C 0.32483 0.96331 0.25963 0.0
H3229 H 0.2785 0.93882 0.25528 0.0
C3230 C 0.33354 0.94639 0.25916 0.0
C3231 C 0.30474 0.96055 0.25776 0.0
C3232 C 0.29459 0.97815 0.25731 0.0
C3233 C 0.32272 0.92679 0.25778 0.0
C3234 C 0.30263 0.92406 0.25645 0.0
C3235 C 0.2939 0.94096 0.25635 0.0
C3236 C 0.29054 0.90384 0.25618 0.0
C3237 C 0.33293 0.90926 0.25867 0.0
C3238 C 0.29046 0.88842 0.24112 0.0
C3239 C 0.28049 0.8689 0.24197 0.0
C3240 C 0.2703 0.86453 0.25781 0.0
C3241 C 0.26957 0.8802 0.27235 0.0
C3242 C 0.2796 0.89972 0.27152 0.0
H3243 H 0.34827 0.91429 0.26404 0.0
H3244 H 0.32637 0.89853 0.26829 0.0
H3245 H 0.33186 0.90105 0.24386 0.0
H3246 H 0.29848 0.89138 0.22895 0.0
H3247 H 0.2812 0.8571 0.23051 0.0
H3248 H 0.50729 0.32234 0.63188 0.0
H3249 H 0.51421 0.35134 0.61361 0.0
H3250 H 0.46758 0.32428 0.57002 0.0
H3251 H 0.46033 0.29545 0.58827 0.0
H3252 H 0.52186 0.35694 0.57488 0.0
H3253 H 0.45302 0.37745 0.5909 0.0
H3254 H 0.46308 0.3588 0.60294 0.0
H3255 H 0.45098 0.35243 0.57869 0.0
C3256 C 0.49871 0.32237 0.61823 0.0
C3257 C 0.48305 0.30672 0.61171 0.0
C3258 C 0.50269 0.33898 0.60782 0.0
C3259 C 0.49112 0.34016 0.59072 0.0
C3260 C 0.4764 0.32387 0.58343 0.0
H3261 H 0.4801 0.43925 0.52247 0.0
H3262 H 0.47812 0.4057 0.53333 0.0
C3263 C 0.47233 0.30737 0.59386 0.0
C3264 C 0.49351 0.359 0.58132 0.0
H3265 H 0.47084 0.3973 0.57055 0.0
C3266 C 0.51072 0.36577 0.57389 0.0
C3267 C 0.47897 0.37053 0.58014 0.0
C3268 C 0.46053 0.36459 0.58874 0.0
C3269 C 0.51367 0.3837 0.5651 0.0
C3270 C 0.49913 0.39523 0.56399 0.0
C3271 C 0.4819 0.38835 0.57129 0.0
C3272 C 0.50164 0.41494 0.55612 0.0
C3273 C 0.53224 0.39005 0.55692 0.0
C3274 C 0.51554 0.43122 0.5653 0.0
C3275 C 0.51664 0.45035 0.55916 0.0
C3276 C 0.5038 0.45354 0.5438 0.0
C3277 C 0.49017 0.43717 0.53433 0.0
C3278 C 0.48904 0.41804 0.54051 0.0
H3279 H 0.53952 0.37712 0.55401 0.0
H3280 H 0.52996 0.39686 0.54321 0.0
H3281 H 0.54183 0.40153 0.56761 0.0
H3282 H 0.52514 0.42929 0.57763 0.0
H3283 H 0.52728 0.46274 0.56672 0.0
H3284 H 0.44147 0.7528 0.34587 0.0
H3285 H 0.40976 0.75437 0.33113 0.0
H3286 H 0.43375 0.80242 0.29937 0.0
H3287 H 0.46578 0.80069 0.3139 0.0
H3288 H 0.39087 0.78556 0.33373 0.0
H3289 H 0.4 0.76356 0.25653 0.0
H3290 H 0.41685 0.76064 0.27647 0.0
H3291 H 0.41698 0.78501 0.2684 0.0
C3292 C 0.44006 0.76376 0.33579 0.0
C3293 C 0.45615 0.77668 0.33111 0.0
C3294 C 0.42189 0.76458 0.32732 0.0
C3295 C 0.41937 0.77832 0.31396 0.0
C3296 C 0.43539 0.79139 0.30932 0.0
H3297 H 0.31347 0.80358 0.25824 0.0
H3298 H 0.34706 0.80409 0.26869 0.0
C3299 C 0.45366 0.79048 0.31773 0.0
C3300 C 0.39985 0.77915 0.30545 0.0
H3301 H 0.37057 0.77248 0.26271 0.0
C3302 C 0.38646 0.78272 0.3182 0.0
C3303 C 0.39411 0.77547 0.28517 0.0
C3304 C 0.40766 0.77078 0.27082 0.0
C3305 C 0.36748 0.78256 0.31126 0.0
C3306 C 0.36169 0.77858 0.29104 0.0
C3307 C 0.37511 0.77547 0.27821 0.0
C3308 C 0.3416 0.7772 0.28313 0.0
C3309 C 0.35373 0.78669 0.32562 0.0
C3310 C 0.32753 0.76155 0.28731 0.0
C3311 C 0.30836 0.76114 0.28132 0.0
C3312 C 0.30291 0.77641 0.27104 0.0
C3313 C 0.31716 0.79162 0.26618 0.0
C3314 C 0.33636 0.79195 0.27212 0.0
H3315 H 0.36123 0.79385 0.33999 0.0
H3316 H 0.34433 0.79666 0.32003 0.0
H3317 H 0.3446 0.77224 0.32779 0.0
H3318 H 0.33135 0.7499 0.29562 0.0
H3319 H 0.2978 0.74922 0.28535 0.0
H3320 H 0.94925 0.70203 0.0944 0.0
H3321 H 0.96033 0.67298 0.07915 0.0
H3322 H 0.00732 0.68203 0.12445 0.0
H3323 H 0.99662 0.7115 0.13959 0.0
H3324 H 0.01892 0.67493 0.08936 0.0
H3325 H 0.95563 0.61741 0.09609 0.0
H3326 H 0.94947 0.63748 0.0833 0.0
H3327 H 0.95946 0.64269 0.1084 0.0
C3328 C 0.96188 0.6978 0.10125 0.0
C3329 C 0.97197 0.70909 0.11833 0.0
C3330 C 0.96814 0.68108 0.09253 0.0
C3331 C 0.98447 0.67507 0.10082 0.0
C3332 C 0.99463 0.68632 0.11782 0.0
H3333 H 0.01429 0.55871 0.068 0.0
H3334 H 0.00387 0.58779 0.08423 0.0
C3335 C 0.98846 0.70316 0.12649 0.0
C3336 C 0.99124 0.6574 0.09143 0.0
H3337 H 0.97718 0.60742 0.07446 0.0
C3338 C 0.00985 0.66013 0.08621 0.0
C3339 C 0.97952 0.638 0.08763 0.0
C3340 C 0.95999 0.63363 0.09433 0.0
C3341 C 0.01696 0.6441 0.07703 0.0
C3342 C 0.00491 0.62492 0.07229 0.0
C3343 C 0.98637 0.62215 0.07779 0.0
C3344 C 0.01139 0.60736 0.06225 0.0
C3345 C 0.03749 0.64783 0.07299 0.0
C3346 C 0.01896 0.60851 0.04436 0.0
C3347 C 0.02518 0.59193 0.03519 0.0
C3348 C 0.02348 0.57377 0.04351 0.0
C3349 C 0.01563 0.5725 0.0612 0.0
C3350 C 0.00968 0.58913 0.07049 0.0
H3351 H 0.04609 0.66094 0.08271 0.0
H3352 H 0.04401 0.63441 0.07491 0.0
H3353 H 0.03824 0.65125 0.05778 0.0
H3354 H 0.01992 0.62216 0.03738 0.0
H3355 H 0.03099 0.59319 0.02144 0.0
H3356 H 0.05587 0.27352 0.80359 0.0
H3357 H 0.08839 0.27704 0.79536 0.0
H3358 H 0.10944 0.28435 0.85627 0.0
H3359 H 0.07664 0.28068 0.86474 0.0
H3360 H 0.12022 0.30903 0.80641 0.0
H3361 H 0.1319 0.23652 0.83199 0.0
H3362 H 0.10848 0.24252 0.82803 0.0
H3363 H 0.12435 0.25428 0.84914 0.0
C3364 C 0.06736 0.27594 0.81531 0.0
C3365 C 0.06362 0.27667 0.83484 0.0
C3366 C 0.08598 0.27802 0.81055 0.0
C3367 C 0.10132 0.28075 0.82516 0.0
C3368 C 0.09777 0.28199 0.84475 0.0
H3369 H 0.21815 0.30449 0.7915 0.0
H3370 H 0.19045 0.3073 0.80906 0.0
C3371 C 0.07905 0.27999 0.84956 0.0
C3372 C 0.12085 0.2817 0.81952 0.0
H3373 H 0.1563 0.25445 0.81676 0.0
C3374 C 0.12828 0.29727 0.80891 0.0
C3375 C 0.13119 0.26621 0.82264 0.0
C3376 C 0.12362 0.24882 0.83345 0.0
C3377 C 0.14551 0.29747 0.80085 0.0
C3378 C 0.15567 0.28177 0.80364 0.0
C3379 C 0.14851 0.26651 0.81473 0.0
C3380 C 0.17284 0.27995 0.7938 0.0
C3381 C 0.15225 0.31393 0.78861 0.0
C3382 C 0.17226 0.26348 0.7797 0.0
C3383 C 0.18805 0.26179 0.76982 0.0
C3384 C 0.2048 0.27644 0.77398 0.0
C3385 C 0.20548 0.29286 0.78822 0.0
C3386 C 0.18963 0.29457 0.7981 0.0
H3387 H 0.14108 0.32277 0.78499 0.0
H3388 H 0.16476 0.32443 0.79674 0.0
H3389 H 0.1567 0.30746 0.77486 0.0
H3390 H 0.15945 0.25204 0.77615 0.0
H3391 H 0.18718 0.24894 0.75897 0.0
H3392 H 0.53853 0.73362 0.9327 0.0
H3393 H 0.54638 0.70781 0.95252 0.0
H3394 H 0.49024 0.69949 0.97112 0.0
H3395 H 0.48225 0.72536 0.95157 0.0
H3396 H 0.52078 0.69786 0.00096 0.0
H3397 H 0.52079 0.64835 0.93211 0.0
H3398 H 0.53647 0.67253 0.93483 0.0
H3399 H 0.51118 0.67117 0.93274 0.0
C3400 C 0.52796 0.7266 0.94128 0.0
C3401 C 0.50964 0.73132 0.94028 0.0
C3402 C 0.53246 0.71182 0.95255 0.0
C3403 C 0.51875 0.70157 0.96295 0.0
C3404 C 0.50096 0.70722 0.96309 0.0
H3405 H 0.50293 0.58184 0.99572 0.0
H3406 H 0.50027 0.61388 0.98329 0.0
C3407 C 0.49642 0.72196 0.95184 0.0
C3408 C 0.52217 0.68369 0.97216 0.0
H3409 H 0.52703 0.63487 0.96137 0.0
C3410 C 0.52231 0.68411 0.99239 0.0
C3411 C 0.52382 0.66574 0.96079 0.0
C3412 C 0.52292 0.66423 0.9389 0.0
C3413 C 0.52403 0.66692 0.00158 0.0
C3414 C 0.52578 0.64904 0.99019 0.0
C3415 C 0.52576 0.64869 0.97 0.0
C3416 C 0.527 0.6302 0.99874 0.0
C3417 C 0.5234 0.6678 0.02327 0.0
C3418 C 0.54288 0.62888 0.01153 0.0
C3419 C 0.54448 0.61056 0.01846 0.0
C3420 C 0.53031 0.59336 0.01253 0.0
C3421 C 0.51424 0.59482 9e-05 0.0
C3422 C 0.51264 0.6131 0.99315 0.0
H3423 H 0.51815 0.6813 0.02927 0.0
H3424 H 0.51411 0.65407 0.02693 0.0
H3425 H 0.53795 0.66845 0.03053 0.0
H3426 H 0.55423 0.64186 0.01576 0.0
H3427 H 0.55703 0.60973 0.02803 0.0
H3428 H 0.08328 0.84736 0.64196 0.0
H3429 H 0.0978 0.83905 0.67244 0.0
H3430 H 0.04744 0.79484 0.67641 0.0
H3431 H 0.03312 0.80271 0.64524 0.0
H3432 H 0.08932 0.83657 0.71095 0.0
H3433 H 0.08858 0.76104 0.67045 0.0
H3434 H 0.08226 0.78144 0.65812 0.0
H3435 H 0.0662 0.76866 0.67316 0.0
C3436 C 0.07512 0.83624 0.6496 0.0
C3437 C 0.05707 0.82574 0.64143 0.0
C3438 C 0.08337 0.83157 0.66706 0.0
C3439 C 0.07379 0.81618 0.67657 0.0
C3440 C 0.05512 0.80667 0.6692 0.0
H3441 H 0.15537 0.76115 0.74415 0.0
H3442 H 0.12357 0.76816 0.73513 0.0
C3443 C 0.04683 0.81136 0.6516 0.0
C3444 C 0.08481 0.80847 0.69222 0.0
H3445 H 0.11014 0.77115 0.69819 0.0
C3446 C 0.09348 0.82201 0.70852 0.0
C3447 C 0.09013 0.78939 0.6891 0.0
C3448 C 0.08143 0.77425 0.67176 0.0
C3449 C 0.10852 0.81773 0.72075 0.0
C3450 C 0.11512 0.79957 0.71638 0.0
C3451 C 0.10513 0.78514 0.70138 0.0
C3452 C 0.13399 0.79666 0.72472 0.0
C3453 C 0.11786 0.83314 0.7376 0.0
C3454 C 0.15033 0.81033 0.7218 0.0
C3455 C 0.16838 0.80627 0.72674 0.0
C3456 C 0.17041 0.78844 0.73461 0.0
C3457 C 0.15412 0.77499 0.73805 0.0
C3458 C 0.13601 0.77903 0.73302 0.0
H3459 H 0.10743 0.84175 0.74341 0.0
H3460 H 0.12432 0.82595 0.74954 0.0
H3461 H 0.12923 0.84407 0.73253 0.0
H3462 H 0.14914 0.82372 0.71487 0.0
H3463 H 0.18074 0.81681 0.72389 0.0
H3464 H 0.03217 0.33347 0.43743 0.0
H3465 H 0.04003 0.36905 0.45118 0.0
H3466 H 0.98985 0.36089 0.48119 0.0
H3467 H 0.982 0.32551 0.46782 0.0
H3468 H 0.01739 0.39782 0.44568 0.0
H3469 H 0.03096 0.39029 0.52396 0.0
H3470 H 0.03085 0.36988 0.50514 0.0
H3471 H 0.00883 0.37494 0.513 0.0
C3472 C 0.02295 0.33918 0.44716 0.0
C3473 C 0.00645 0.3266 0.45152 0.0
C3474 C 0.02746 0.35951 0.45498 0.0
C3475 C 0.01569 0.36748 0.46744 0.0
C3476 C 0.99937 0.35492 0.47197 0.0
H3477 H 0.98647 0.47468 0.51601 0.0
H3478 H 0.9913 0.44078 0.50538 0.0
C3479 C 0.99483 0.3347 0.46416 0.0
C3480 C 0.01944 0.38924 0.47468 0.0
H3481 H 0.02259 0.42168 0.51613 0.0
C3482 C 0.01895 0.40315 0.46108 0.0
C3483 C 0.02153 0.3961 0.49478 0.0
C3484 C 0.02328 0.38203 0.51006 0.0
C3485 C 0.0192 0.42359 0.46705 0.0
C3486 C 0.02019 0.4302 0.48712 0.0
C3487 C 0.02169 0.41648 0.50074 0.0
C3488 C 0.01804 0.45085 0.49419 0.0
C3489 C 0.01733 0.43771 0.45182 0.0
C3490 C 0.03164 0.4677 0.49165 0.0
C3491 C 0.02892 0.48714 0.4977 0.0
C3492 C 0.01256 0.49001 0.50644 0.0
C3493 C 0.99918 0.47303 0.50929 0.0
C3494 C 0.00194 0.45364 0.50327 0.0
H3495 H 0.0135 0.4295 0.43694 0.0
H3496 H 0.00636 0.44683 0.45495 0.0
H3497 H 0.03108 0.44827 0.45206 0.0
H3498 H 0.04427 0.46582 0.48487 0.0
H3499 H 0.03949 0.49989 0.49524 0.0
H3500 H 0.46794 0.29258 0.18109 0.0
H3501 H 0.44045 0.28128 0.19817 0.0
H3502 H 0.4032 0.29584 0.15159 0.0
H3503 H 0.43054 0.3078 0.13482 0.0
H3504 H 0.39768 0.31284 0.18672 0.0
H3505 H 0.39829 0.23145 0.18922 0.0
H3506 H 0.42046 0.24786 0.19851 0.0
H3507 H 0.41174 0.2463 0.17321 0.0
C3508 C 0.45386 0.29313 0.17436 0.0
C3509 C 0.45141 0.30108 0.15658 0.0
C3510 C 0.43817 0.28649 0.18407 0.0
C3511 C 0.41979 0.28747 0.176 0.0
C3512 C 0.41728 0.29486 0.15799 0.0
H3513 H 0.30892 0.24547 0.21001 0.0
H3514 H 0.3391 0.24839 0.1958 0.0
C3515 C 0.43294 0.30165 0.14839 0.0
C3516 C 0.40334 0.28277 0.1871 0.0
H3517 H 0.37706 0.24562 0.20835 0.0
C3518 C 0.39315 0.29813 0.19141 0.0
C3519 C 0.39746 0.26353 0.19311 0.0
C3520 C 0.40743 0.24626 0.18814 0.0
C3521 C 0.37716 0.2948 0.20149 0.0
C3522 C 0.37152 0.27573 0.20793 0.0
C3523 C 0.38165 0.2603 0.20361 0.0
C3524 C 0.35451 0.27145 0.21827 0.0
C3525 C 0.36614 0.31159 0.20466 0.0
C3526 C 0.35352 0.28283 0.236 0.0
C3527 C 0.3363 0.28139 0.24396 0.0
C3528 C 0.31996 0.26836 0.2344 0.0
C3529 C 0.32133 0.2558 0.2175 0.0
C3530 C 0.33853 0.25737 0.20944 0.0
H3531 H 0.36959 0.32332 0.1948 0.0
H3532 H 0.35057 0.30564 0.20232 0.0
H3533 H 0.36981 0.31896 0.21986 0.0
H3534 H 0.36585 0.29348 0.24319 0.0
H3535 H 0.33561 0.29103 0.25716 0.0
H3536 H 0.62479 0.48509 0.35605 0.0
H3537 H 0.60842 0.48779 0.38523 0.0
H3538 H 0.56991 0.52016 0.35616 0.0
H3539 H 0.58585 0.51705 0.32677 0.0
H3540 H 0.60133 0.51947 0.40899 0.0
H3541 H 0.53366 0.47317 0.37198 0.0
H3542 H 0.55572 0.47523 0.36123 0.0
H3543 H 0.54188 0.49479 0.36001 0.0
C3544 C 0.61296 0.49297 0.35595 0.0
C3545 C 0.60643 0.50065 0.33907 0.0
C3546 C 0.6036 0.49445 0.3726 0.0
C3547 C 0.58765 0.50368 0.37263 0.0
C3548 C 0.58184 0.51244 0.3562 0.0
H3549 H 0.5161 0.53838 0.4559 0.0
H3550 H 0.53279 0.53212 0.42749 0.0
C3551 C 0.59106 0.5108 0.3395 0.0
C3552 C 0.57681 0.50382 0.38969 0.0
H3553 H 0.53228 0.4905 0.40329 0.0
C3554 C 0.58629 0.51297 0.40781 0.0
C3555 C 0.55722 0.49509 0.3881 0.0
C3556 C 0.54656 0.48383 0.36933 0.0
C3557 C 0.57648 0.51429 0.42426 0.0
C3558 C 0.5568 0.50624 0.42244 0.0
C3559 C 0.54739 0.49671 0.40449 0.0
C3560 C 0.54556 0.50855 0.43888 0.0
C3561 C 0.58702 0.52476 0.44338 0.0
C3562 C 0.54691 0.49692 0.45432 0.0
C3563 C 0.53726 0.5003 0.4705 0.0
C3564 C 0.52628 0.51549 0.47144 0.0
C3565 C 0.52448 0.52661 0.45559 0.0
C3566 C 0.53398 0.52308 0.43938 0.0
H3567 H 0.60193 0.53183 0.44193 0.0
H3568 H 0.57956 0.53658 0.44935 0.0
H3569 H 0.58726 0.51366 0.45405 0.0
H3570 H 0.55578 0.48559 0.45405 0.0
H3571 H 0.53907 0.49163 0.48257 0.0
H3572 H 0.20252 0.85596 0.07517 0.0
H3573 H 0.20047 0.83852 0.10443 0.0
H3574 H 0.24915 0.81272 0.0915 0.0
H3575 H 0.25071 0.82908 0.0621 0.0
H3576 H 0.22536 0.7864 0.10614 0.0
H3577 H 0.23555 0.85957 0.15307 0.0
H3578 H 0.21432 0.85422 0.13621 0.0
H3579 H 0.23725 0.85811 0.1273 0.0
C3580 C 0.21248 0.84618 0.07833 0.0
C3581 C 0.22695 0.84422 0.06637 0.0
C3582 C 0.21148 0.83643 0.09523 0.0
C3583 C 0.22506 0.8248 0.10058 0.0
C3584 C 0.23861 0.82174 0.0879 0.0
H3585 H 0.26809 0.80463 0.21584 0.0
H3586 H 0.26186 0.81603 0.18385 0.0
C3587 C 0.2395 0.83122 0.07102 0.0
C3588 C 0.22612 0.81653 0.11969 0.0
H3589 H 0.23316 0.83032 0.16887 0.0
C3590 C 0.22696 0.796 0.11987 0.0
C3591 C 0.22856 0.82908 0.13766 0.0
C3592 C 0.22906 0.85149 0.13865 0.0
C3593 C 0.23059 0.7878 0.13733 0.0
C3594 C 0.23275 0.80029 0.1553 0.0
C3595 C 0.23148 0.8207 0.15515 0.0
C3596 C 0.23692 0.79274 0.17438 0.0
C3597 C 0.23295 0.76607 0.13618 0.0
C3598 C 0.22508 0.77584 0.17982 0.0
C3599 C 0.22892 0.76912 0.1979 0.0
C3600 C 0.24441 0.77942 0.21106 0.0
C3601 C 0.25616 0.79639 0.20582 0.0
C3602 C 0.25253 0.80292 0.18759 0.0
H3603 H 0.23675 0.76067 0.12171 0.0
H3604 H 0.24414 0.76397 0.1475 0.0
H3605 H 0.21931 0.75646 0.13841 0.0
H3606 H 0.21262 0.76808 0.17026 0.0
H3607 H 0.21941 0.75627 0.20189 0.0
H3608 H 0.9568 0.55333 0.80958 0.0
H3609 H 0.97027 0.54702 0.84162 0.0
H3610 H 0.93398 0.5825 0.86927 0.0
H3611 H 0.92068 0.58914 0.83751 0.0
H3612 H 0.98816 0.57926 0.87453 0.0
H3613 H 0.92508 0.52618 0.89173 0.0
H3614 H 0.929 0.53067 0.86711 0.0
H3615 H 0.92076 0.54912 0.88277 0.0
C3616 C 0.95162 0.55971 0.82247 0.0
C3617 C 0.93749 0.57155 0.82095 0.0
C3618 C 0.95934 0.55611 0.84074 0.0
C3619 C 0.95294 0.56412 0.85774 0.0
C3620 C 0.93889 0.57595 0.85629 0.0
H3621 H 0.97697 0.55363 0.98082 0.0
H3622 H 0.96449 0.56198 0.94931 0.0
C3623 C 0.93128 0.57968 0.83808 0.0
C3624 C 0.9612 0.56054 0.87708 0.0
H3625 H 0.95066 0.53646 0.91662 0.0
C3626 C 0.98003 0.56985 0.88375 0.0
C3627 C 0.95043 0.54844 0.88906 0.0
C3628 C 0.93022 0.53787 0.88235 0.0
C3629 C 0.98837 0.56757 0.90228 0.0
C3630 C 0.97771 0.5552 0.91421 0.0
C3631 C 0.95882 0.54595 0.9075 0.0
C3632 C 0.98596 0.55123 0.9335 0.0
C3633 C 0.00836 0.57882 0.90906 0.0
C3634 C 0.00216 0.54241 0.9351 0.0
C3635 C 0.00942 0.53778 0.9531 0.0
C3636 C 0.00045 0.54159 0.96985 0.0
C3637 C 0.98425 0.55051 0.96823 0.0
C3638 C 0.97707 0.55527 0.95022 0.0
H3639 H 0.01218 0.59213 0.90112 0.0
H3640 H 0.01013 0.584 0.92489 0.0
H3641 H 0.01852 0.56865 0.90621 0.0
H3642 H 0.00898 0.53867 0.92234 0.0
H3643 H 0.0218 0.53074 0.95374 0.0
H3644 H 0.27148 0.18067 0.5396 0.0
H3645 H 0.26248 0.19758 0.56894 0.0
H3646 H 0.32069 0.22792 0.58507 0.0
H3647 H 0.32993 0.21115 0.55565 0.0
H3648 H 0.27844 0.19211 0.60635 0.0
H3649 H 0.28928 0.27304 0.5947 0.0
H3650 H 0.28647 0.25293 0.57494 0.0
H3651 H 0.30878 0.26066 0.59002 0.0
C3652 C 0.28237 0.19118 0.54918 0.0
C3653 C 0.30148 0.19443 0.54532 0.0
C3654 C 0.27716 0.20084 0.56593 0.0
C3655 C 0.29089 0.21407 0.57905 0.0
C3656 C 0.30984 0.218 0.57493 0.0
H3657 H 0.29079 0.24501 0.70188 0.0
H3658 H 0.29814 0.23511 0.66906 0.0
C3659 C 0.3151 0.2083 0.55816 0.0
C3660 C 0.28572 0.222 0.59797 0.0
H3661 H 0.28383 0.26531 0.62663 0.0
C3662 C 0.2795 0.2081 0.61074 0.0
C3663 C 0.28707 0.24286 0.60355 0.0
C3664 C 0.29311 0.25828 0.59006 0.0
C3665 C 0.27492 0.21453 0.62916 0.0
C3666 C 0.27675 0.2354 0.63496 0.0
C3667 C 0.28258 0.24933 0.62208 0.0
C3668 C 0.27295 0.24286 0.65457 0.0
C3669 C 0.26819 0.199 0.64236 0.0
C3670 C 0.25654 0.25084 0.65714 0.0
C3671 C 0.25226 0.25644 0.67588 0.0
C3672 C 0.26442 0.2542 0.69219 0.0
C3673 C 0.28112 0.24676 0.68952 0.0
C3674 C 0.28534 0.24112 0.67083 0.0
H3675 H 0.2641 0.18357 0.63438 0.0
H3676 H 0.27981 0.19896 0.65403 0.0
H3677 H 0.25582 0.20276 0.64939 0.0
H3678 H 0.24685 0.25226 0.64468 0.0
H3679 H 0.23935 0.26223 0.67762 0.0
H3680 H 0.56717 0.4815 0.23492 0.0
H3681 H 0.55691 0.48596 0.20133 0.0
H3682 H 0.61517 0.49489 0.18861 0.0
H3683 H 0.62564 0.49061 0.22219 0.0
H3684 H 0.57349 0.52368 0.1837 0.0
H3685 H 0.58198 0.45098 0.14403 0.0
H3686 H 0.57808 0.45347 0.16939 0.0
H3687 H 0.6009 0.46356 0.16235 0.0
C3688 C 0.57779 0.48421 0.22494 0.0
C3689 C 0.59722 0.48577 0.2312 0.0
C3690 C 0.5719 0.48674 0.20579 0.0
C3691 C 0.5853 0.49057 0.19259 0.0
C3692 C 0.60465 0.49171 0.19862 0.0
H3693 H 0.58198 0.51647 0.07338 0.0
H3694 H 0.59036 0.5072 0.10582 0.0
C3695 C 0.61058 0.48936 0.21781 0.0
C3696 C 0.57923 0.49483 0.17288 0.0
H3697 H 0.57436 0.47602 0.12497 0.0
C3698 C 0.57354 0.51326 0.17082 0.0
C3699 C 0.57955 0.4812 0.15626 0.0
C3700 C 0.58534 0.4611 0.15797 0.0
C3701 C 0.56846 0.51866 0.15241 0.0
C3702 C 0.5686 0.50496 0.13571 0.0
C3703 C 0.57423 0.48645 0.13782 0.0
C3704 C 0.56321 0.50974 0.11593 0.0
C3705 C 0.56356 0.53924 0.15101 0.0
C3706 C 0.54507 0.51382 0.11081 0.0
C3707 C 0.54037 0.51933 0.09244 0.0
C3708 C 0.55365 0.52051 0.07884 0.0
C3709 C 0.57156 0.51575 0.0837 0.0
C3710 C 0.57632 0.51042 0.10216 0.0
H3711 H 0.56922 0.54978 0.16439 0.0
H3712 H 0.56928 0.54596 0.13835 0.0
H3713 H 0.54786 0.53777 0.14916 0.0
H3714 H 0.53459 0.51287 0.12107 0.0
H3715 H 0.52637 0.5227 0.08891 0.0
H3716 H 0.22372 0.88284 0.95801 0.0
H3717 H 0.22143 0.86822 0.92406 0.0
H3718 H 0.22358 0.80981 0.94283 0.0
H3719 H 0.22742 0.82491 0.97677 0.0
H3720 H 0.24646 0.81493 0.91866 0.0
H3721 H 0.18215 0.83697 0.8847 0.0
H3722 H 0.1985 0.85899 0.89611 0.0
H3723 H 0.1882 0.84022 0.91071 0.0
C3724 C 0.22314 0.86678 0.9548 0.0
C3725 C 0.2255 0.85493 0.96995 0.0
C3726 C 0.22175 0.85835 0.93533 0.0
C3727 C 0.222 0.83772 0.93061 0.0
C3728 C 0.22336 0.82573 0.9459 0.0
H3729 H 0.20583 0.78387 0.80812 0.0
H3730 H 0.201 0.79455 0.84175 0.0
C3731 C 0.22538 0.8343 0.96533 0.0
C3732 C 0.22293 0.8291 0.91009 0.0
H3733 H 0.20433 0.82818 0.86281 0.0
C3734 C 0.23699 0.81763 0.90654 0.0
C3735 C 0.21051 0.83219 0.89405 0.0
C3736 C 0.19387 0.84257 0.89663 0.0
C3737 C 0.23923 0.80961 0.88766 0.0
C3738 C 0.22781 0.81405 0.87151 0.0
C3739 C 0.2134 0.82504 0.87504 0.0
C3740 C 0.23067 0.80755 0.85096 0.0
C3741 C 0.2536 0.79606 0.88541 0.0
C3742 C 0.24886 0.81152 0.84465 0.0
C3743 C 0.2517 0.80489 0.82562 0.0
C3744 C 0.23632 0.79479 0.81219 0.0
C3745 C 0.21798 0.79153 0.81818 0.0
C3746 C 0.21522 0.79769 0.83741 0.0
H3747 H 0.25572 0.78836 0.8986 0.0
H3748 H 0.24915 0.78436 0.87268 0.0
H3749 H 0.26754 0.80531 0.8835 0.0
H3750 H 0.26093 0.81983 0.85442 0.0
H3751 H 0.26593 0.80805 0.82132 0.0
H3752 H 0.93708 0.52758 0.71539 0.0
H3753 H 0.94952 0.52481 0.68388 0.0
H3754 H 0.93203 0.58017 0.67147 0.0
H3755 H 0.91936 0.58301 0.7029 0.0
H3756 H 0.92501 0.54926 0.63906 0.0
H3757 H 0.99923 0.56217 0.67498 0.0
H3758 H 0.98323 0.54164 0.68258 0.0
H3759 H 0.97957 0.56704 0.68787 0.0
C3760 C 0.93568 0.53908 0.7059 0.0
C3761 C 0.9274 0.55564 0.71179 0.0
C3762 C 0.94287 0.5375 0.68792 0.0
C3763 C 0.942 0.55247 0.6755 0.0
C3764 C 0.93293 0.5685 0.68089 0.0
H3765 H 0.01271 0.58314 0.58505 0.0
H3766 H 0.9955 0.58218 0.61381 0.0
C3767 C 0.92571 0.5701 0.69888 0.0
C3768 C 0.95139 0.55198 0.65738 0.0
H3769 H 0.99491 0.55482 0.64078 0.0
C3770 C 0.94028 0.55042 0.63939 0.0
C3771 C 0.97135 0.55378 0.6579 0.0
C3772 C 0.98412 0.55643 0.67685 0.0
C3773 C 0.94861 0.55047 0.62186 0.0
C3774 C 0.96854 0.55192 0.62239 0.0
C3775 C 0.97962 0.55356 0.6404 0.0
C3776 C 0.97837 0.55253 0.60455 0.0
C3777 C 0.9361 0.54946 0.60299 0.0
C3778 C 0.97456 0.5361 0.58984 0.0
C3779 C 0.98441 0.53662 0.5734 0.0
C3780 C 0.99825 0.55355 0.57144 0.0
C3781 C 0.00211 0.5699 0.5862 0.0
C3782 C 0.99227 0.56938 0.6026 0.0
H3783 H 0.92199 0.55314 0.60544 0.0
H3784 H 0.94299 0.56 0.59338 0.0
H3785 H 0.93371 0.53395 0.59526 0.0
H3786 H 0.96422 0.52274 0.59124 0.0
H3787 H 0.98148 0.52366 0.56241 0.0
H3788 H 0.33692 0.20709 0.45449 0.0
H3789 H 0.33217 0.2244 0.4256 0.0
H3790 H 0.27276 0.19649 0.41751 0.0
H3791 H 0.27724 0.17914 0.4461 0.0
H3792 H 0.29358 0.19172 0.38417 0.0
H3793 H 0.30227 0.27145 0.41746 0.0
H3794 H 0.32017 0.25743 0.42491 0.0
H3795 H 0.29645 0.25036 0.43118 0.0
C3796 C 0.3228 0.20481 0.44668 0.0
C3797 C 0.30749 0.19164 0.45258 0.0
C3798 C 0.32012 0.21476 0.43024 0.0
C3799 C 0.30211 0.21173 0.41954 0.0
C3800 C 0.28677 0.19899 0.42562 0.0
H3801 H 0.24732 0.264 0.329 0.0
H3802 H 0.25934 0.25312 0.35943 0.0
C3803 C 0.28939 0.18909 0.44199 0.0
C3804 C 0.29923 0.22079 0.40132 0.0
H3805 H 0.29578 0.26512 0.38329 0.0
C3806 C 0.29423 0.20779 0.3839 0.0
C3807 C 0.3 0.24172 0.40117 0.0
C3808 C 0.3049 0.25615 0.41965 0.0
C3809 C 0.28957 0.21511 0.3663 0.0
C3810 C 0.29018 0.23603 0.36615 0.0
C3811 C 0.29548 0.24911 0.38351 0.0
C3812 C 0.28409 0.24431 0.34826 0.0
C3813 C 0.28333 0.20034 0.34815 0.0
C3814 C 0.29429 0.2433 0.33208 0.0
C3815 C 0.28744 0.24943 0.31463 0.0
C3816 C 0.27031 0.25673 0.31312 0.0
C3817 C 0.2605 0.25836 0.32962 0.0
C3818 C 0.26737 0.25223 0.34705 0.0
H3819 H 0.28018 0.18448 0.35149 0.0
H3820 H 0.27046 0.2037 0.34 0.0
H3821 H 0.29485 0.20168 0.33851 0.0
H3822 H 0.30734 0.23741 0.33284 0.0
H3823 H 0.29539 0.24803 0.30224 0.0
H3824 H 0.36217 0.65513 0.49241 0.0
H3825 H 0.38886 0.63728 0.49563 0.0
H3826 H 0.36146 0.60283 0.5375 0.0
H3827 H 0.33452 0.6201 0.53388 0.0
H3828 H 0.41476 0.63109 0.52472 0.0
H3829 H 0.36668 0.55866 0.49625 0.0
H3830 H 0.35924 0.58261 0.49578 0.0
H3831 H 0.35945 0.5706 0.51773 0.0
C3832 C 0.36197 0.64399 0.50255 0.0
C3833 C 0.34608 0.63885 0.51269 0.0
C3834 C 0.37724 0.63375 0.50433 0.0
C3835 C 0.37694 0.61825 0.51636 0.0
C3836 C 0.36177 0.61425 0.52764 0.0
H3837 H 0.44853 0.53301 0.54418 0.0
H3838 H 0.42566 0.55572 0.54324 0.0
C3839 C 0.34643 0.62428 0.52569 0.0
C3840 C 0.39188 0.60557 0.51637 0.0
H3841 H 0.39807 0.55668 0.50886 0.0
C3842 C 0.41111 0.61484 0.52114 0.0
C3843 C 0.3872 0.58434 0.51147 0.0
C3844 C 0.36705 0.57347 0.50482 0.0
C3845 C 0.42565 0.6034 0.5217 0.0
C3846 C 0.42083 0.58218 0.51732 0.0
C3847 C 0.40169 0.57295 0.51234 0.0
C3848 C 0.43536 0.56914 0.51816 0.0
C3849 C 0.44603 0.61394 0.52739 0.0
C3850 C 0.44827 0.56897 0.50419 0.0
C3851 C 0.46122 0.55577 0.50453 0.0
C3852 C 0.46156 0.54269 0.51894 0.0
C3853 C 0.44859 0.54289 0.53286 0.0
C3854 C 0.43559 0.55594 0.53243 0.0
H3855 H 0.44716 0.63006 0.53305 0.0
H3856 H 0.45296 0.60628 0.53865 0.0
H3857 H 0.45399 0.61317 0.51449 0.0
H3858 H 0.44808 0.57875 0.4928 0.0
H3859 H 0.47065 0.55548 0.4933 0.0
H3860 H 0.82603 0.94115 0.55948 0.0
H3861 H 0.85825 0.95238 0.5512 0.0
H3862 H 0.83598 0.98312 0.50546 0.0
H3863 H 0.80372 0.97199 0.51362 0.0
H3864 H 0.87187 0.94454 0.51443 0.0
H3865 H 0.87817 0.02654 0.53734 0.0
H3866 H 0.86025 0.00764 0.54501 0.0
H3867 H 0.85734 0.01507 0.52099 0.0
C3868 C 0.82797 0.95029 0.54766 0.0
C3869 C 0.81233 0.95563 0.53716 0.0
C3870 C 0.84638 0.95671 0.54298 0.0
C3871 C 0.84944 0.9687 0.52786 0.0
C3872 C 0.83389 0.97412 0.51739 0.0
H3873 H 0.95046 0.02327 0.4796 0.0
H3874 H 0.91777 0.01055 0.48562 0.0
C3875 C 0.81548 0.96771 0.52205 0.0
C3876 C 0.86888 0.97514 0.52274 0.0
H3877 H 0.90295 0.0167 0.52081 0.0
C3878 C 0.87873 0.9603 0.51586 0.0
C3879 C 0.87766 0.99572 0.52458 0.0
C3880 C 0.86792 0.0122 0.53253 0.0
C3881 C 0.89715 0.96553 0.51053 0.0
C3882 C 0.90597 0.98611 0.51248 0.0
C3883 C 0.89608 0.00094 0.51928 0.0
C3884 C 0.92565 0.99264 0.508 0.0
C3885 C 0.90686 0.94904 0.50257 0.0
C3886 C 0.94085 0.98672 0.5186 0.0
C3887 C 0.95953 0.99392 0.51519 0.0
C3888 C 0.96334 0.00731 0.50123 0.0
C3889 C 0.94804 0.013 0.49047 0.0
C3890 C 0.92935 0.00576 0.49388 0.0
H3891 H 0.89647 0.93498 0.49703 0.0
H3892 H 0.9152 0.95386 0.49062 0.0
H3893 H 0.9168 0.94551 0.51435 0.0
H3894 H 0.93829 0.97691 0.52983 0.0
H3895 H 0.97098 0.98928 0.52378 0.0
H3896 H 0.82199 0.10288 0.22347 0.0
H3897 H 0.80102 0.1274 0.22172 0.0
H3898 H 0.77215 0.10296 0.26826 0.0
H3899 H 0.79371 0.079 0.27071 0.0
H3900 H 0.76376 0.12911 0.21679 0.0
H3901 H 0.79436 0.15951 0.29256 0.0
H3902 H 0.80331 0.14018 0.2786 0.0
H3903 H 0.78189 0.13384 0.29 0.0
C3904 C 0.81088 0.10239 0.23301 0.0
C3905 C 0.8097 0.08931 0.24748 0.0
C3906 C 0.7989 0.11644 0.23202 0.0
C3907 C 0.78543 0.11742 0.24529 0.0
C3908 C 0.78288 0.1029 0.25832 0.0
H3909 H 0.71558 0.21194 0.24018 0.0
H3910 H 0.72441 0.17857 0.23944 0.0
C3911 C 0.7951 0.08913 0.2596 0.0
C3912 C 0.7757 0.13493 0.24682 0.0
H3913 H 0.77196 0.17604 0.27771 0.0
C3914 C 0.7654 0.13932 0.23014 0.0
C3915 C 0.77815 0.14839 0.2642 0.0
C3916 C 0.79016 0.14541 0.28231 0.0
C3917 C 0.75785 0.15704 0.23022 0.0
C3918 C 0.76024 0.1704 0.24763 0.0
C3919 C 0.77004 0.16569 0.26443 0.0
C3920 C 0.75435 0.19028 0.24843 0.0
C3921 C 0.74825 0.16175 0.21144 0.0
C3922 C 0.76808 0.20787 0.25429 0.0
C3923 C 0.76296 0.22676 0.25511 0.0
C3924 C 0.74409 0.22851 0.25007 0.0
C3925 C 0.73028 0.21095 0.24422 0.0
C3926 C 0.73532 0.19193 0.24363 0.0
H3927 H 0.75156 0.15244 0.19859 0.0
H3928 H 0.7326 0.15852 0.21175 0.0
H3929 H 0.75265 0.17792 0.20955 0.0
H3930 H 0.78287 0.207 0.25792 0.0
H3931 H 0.77392 0.23998 0.25888 0.0
H3932 H 0.73228 0.09886 0.96215 0.0
H3933 H 0.69895 0.08659 0.96637 0.0
H3934 H 0.7036 0.1311 0.01625 0.0
H3935 H 0.73682 0.14369 0.01197 0.0
H3936 H 0.68376 0.07062 0.99767 0.0
H3937 H 0.65636 0.13978 0.98358 0.0
H3938 H 0.67946 0.13585 0.97774 0.0
H3939 H 0.67607 0.14418 0.00233 0.0
C3940 C 0.72619 0.10614 0.97396 0.0
C3941 C 0.7372 0.12234 0.98666 0.0
C3942 C 0.70714 0.09908 0.97636 0.0
C3943 C 0.6987 0.10811 0.99145 0.0
C3944 C 0.70969 0.12418 0.00425 0.0
H3945 H 0.59542 0.05874 0.03954 0.0
H3946 H 0.62839 0.06981 0.03304 0.0
C3947 C 0.72872 0.13129 0.00184 0.0
C3948 C 0.67856 0.10039 0.9941 0.0
H3949 H 0.63548 0.11444 0.99661 0.0
C3950 C 0.67317 0.08016 0.99735 0.0
C3951 C 0.6647 0.11278 0.99341 0.0
C3952 C 0.66935 0.1343 0.98889 0.0
C3953 C 0.6544 0.07211 0.00033 0.0
C3954 C 0.64073 0.08473 0.00041 0.0
C3955 C 0.64602 0.10483 0.99675 0.0
C3956 C 0.62083 0.07741 0.00419 0.0
C3957 C 0.64931 0.05009 0.00309 0.0
C3958 C 0.60564 0.07835 0.99029 0.0
C3959 C 0.58685 0.07226 0.99408 0.0
C3960 C 0.58292 0.06514 0.01184 0.0
C3961 C 0.59809 0.06408 0.0257 0.0
C3962 C 0.61691 0.07027 0.02195 0.0
H3963 H 0.65971 0.04139 0.99734 0.0
H3964 H 0.6494 0.04867 0.01886 0.0
H3965 H 0.63488 0.04322 0.99577 0.0
H3966 H 0.60834 0.08384 0.97651 0.0
H3967 H 0.5754 0.07318 0.98312 0.0
H3968 H 0.17964 0.45337 0.32435 0.0
H3969 H 0.19871 0.42813 0.3157 0.0
H3970 H 0.16388 0.41076 0.26061 0.0
H3971 H 0.14464 0.43595 0.26909 0.0
H3972 H 0.16893 0.37818 0.28294 0.0
H3973 H 0.23746 0.42781 0.27486 0.0
H3974 H 0.22731 0.43378 0.29688 0.0
H3975 H 0.21514 0.43658 0.27385 0.0
C3976 C 0.17613 0.44437 0.31029 0.0
C3977 C 0.16057 0.44671 0.29743 0.0
C3978 C 0.18711 0.43001 0.30534 0.0
C3979 C 0.18278 0.41771 0.28747 0.0
C3980 C 0.16748 0.42018 0.27445 0.0
H3981 H 0.24951 0.334 0.23875 0.0
H3982 H 0.23175 0.36127 0.24454 0.0
C3983 C 0.15655 0.43463 0.27933 0.0
C3984 C 0.19355 0.40151 0.28286 0.0
H3985 H 0.23784 0.39294 0.27551 0.0
C3986 C 0.18397 0.38138 0.2812 0.0
C3987 C 0.21312 0.40577 0.28048 0.0
C3988 C 0.22389 0.42715 0.28144 0.0
C3989 C 0.19356 0.36534 0.27763 0.0
C3990 C 0.21328 0.3696 0.27584 0.0
C3991 C 0.22276 0.38974 0.27706 0.0
C3992 C 0.22429 0.35333 0.27259 0.0
C3993 C 0.1825 0.34399 0.27571 0.0
C3994 C 0.22626 0.3401 0.28662 0.0
C3995 C 0.23647 0.32462 0.28338 0.0
C3996 C 0.24478 0.32209 0.26604 0.0
C3997 C 0.24319 0.33563 0.25223 0.0
C3998 C 0.23303 0.35114 0.25549 0.0
H3999 H 0.16698 0.34333 0.27233 0.0
H4000 H 0.18735 0.33423 0.26417 0.0
H4001 H 0.1848 0.33772 0.2897 0.0
H4002 H 0.21997 0.34181 0.3001 0.0
H4003 H 0.23794 0.31468 0.29445 0.0
H4004 H 0.23309 0.45668 0.99108 0.0
H4005 H 0.20468 0.47071 0.98272 0.0
H4006 H 0.18127 0.45036 0.03376 0.0
H4007 H 0.20957 0.4365 0.04236 0.0
H4008 H 0.16483 0.45329 0.97679 0.0
H4009 H 0.18366 0.51209 0.04037 0.0
H4010 H 0.20041 0.49745 0.03158 0.0
H4011 H 0.18309 0.48699 0.0467 0.0
C4012 C 0.2218 0.45501 0.00042 0.0
C4013 C 0.22369 0.44573 0.01753 0.0
C4014 C 0.20561 0.46303 0.99561 0.0
C4015 C 0.19114 0.46191 0.00786 0.0
C4016 C 0.19252 0.45172 0.02436 0.0
H4017 H 0.07631 0.47466 0.99996 0.0
H4018 H 0.10657 0.46399 0.99648 0.0
C4019 C 0.20867 0.44374 0.0292 0.0
C4020 C 0.17485 0.47201 0.00395 0.0
H4021 H 0.15181 0.50682 0.02485 0.0
C4022 C 0.16206 0.46518 0.98713 0.0
C4023 C 0.17157 0.48785 0.01723 0.0
C4024 C 0.18551 0.4967 0.03488 0.0
C4025 C 0.1454 0.47302 0.98384 0.0
C4026 C 0.14141 0.48778 0.99791 0.0
C4027 C 0.1548 0.49539 0.01413 0.0
C4028 C 0.1228 0.49426 0.99719 0.0
C4029 C 0.13218 0.46526 0.96546 0.0
C4030 C 0.12187 0.51486 0.9989 0.0
C4031 C 0.10458 0.52101 0.0012 0.0
C4032 C 0.08806 0.50664 0.00188 0.0
C4033 C 0.08887 0.48604 0.99944 0.0
C4034 C 0.10612 0.47991 0.99724 0.0
H4035 H 0.14006 0.46002 0.95355 0.0
H4036 H 0.1215 0.45217 0.96823 0.0
H4037 H 0.12454 0.47701 0.96052 0.0
H4038 H 0.13462 0.52617 0.99906 0.0
H4039 H 0.10427 0.53699 0.00304 0.0
H4040 H 0.82497 0.00047 0.28568 0.0
H4041 H 0.81127 0.96461 0.28165 0.0
H4042 H 0.82415 0.95961 0.22223 0.0
H4043 H 0.83824 0.99569 0.22616 0.0
H4044 H 0.7808 0.94365 0.25513 0.0
H4045 H 0.84734 0.91462 0.24517 0.0
H4046 H 0.84755 0.94044 0.25457 0.0
H4047 H 0.84151 0.93228 0.22903 0.0
C4048 C 0.82498 0.99183 0.27172 0.0
C4049 C 0.8328 0.00103 0.25625 0.0
C4050 C 0.8171 0.97129 0.26945 0.0
C4051 C 0.81687 0.9594 0.25173 0.0
C4052 C 0.82448 0.96846 0.23615 0.0
H4053 H 0.77466 0.82848 0.22713 0.0
H4054 H 0.78695 0.86374 0.22308 0.0
C4055 C 0.83243 0.9891 0.2384 0.0
C4056 C 0.80836 0.9376 0.24977 0.0
H4057 H 0.81923 0.8905 0.24464 0.0
C4058 C 0.78916 0.93202 0.25269 0.0
C4059 C 0.81929 0.92246 0.24649 0.0
C4060 C 0.84011 0.92764 0.24376 0.0
C4061 C 0.78069 0.91174 0.25285 0.0
C4062 C 0.79179 0.89666 0.2503 0.0
C4063 C 0.81079 0.90213 0.24664 0.0
C4064 C 0.78424 0.87533 0.25259 0.0
C4065 C 0.75995 0.90662 0.2559 0.0
C4066 C 0.77889 0.87016 0.2706 0.0
C4067 C 0.77191 0.85009 0.273 0.0
C4068 C 0.77017 0.83472 0.25742 0.0
C4069 C 0.77569 0.83993 0.23941 0.0
C4070 C 0.78276 0.86006 0.23705 0.0
H4071 H 0.75227 0.91879 0.25216 0.0
H4072 H 0.75282 0.89229 0.247 0.0
H4073 H 0.7588 0.90474 0.27144 0.0
H4074 H 0.78026 0.88168 0.28289 0.0
H4075 H 0.7679 0.84667 0.2871 0.0
H4076 H 0.63811 0.04083 0.77111 0.0
H4077 H 0.65373 0.07314 0.76218 0.0
H4078 H 0.6886 0.08527 0.81749 0.0
H4079 H 0.67321 0.05292 0.82657 0.0
H4080 H 0.65448 0.11139 0.78173 0.0
H4081 H 0.72744 0.09616 0.77806 0.0
H4082 H 0.70694 0.07634 0.7779 0.0
H4083 H 0.71782 0.09104 0.80037 0.0
C4084 C 0.64919 0.05027 0.78136 0.0
C4085 C 0.65441 0.04422 0.79957 0.0
C4086 C 0.65809 0.06874 0.77621 0.0
C4087 C 0.67248 0.08145 0.78906 0.0
C4088 C 0.67778 0.07549 0.80721 0.0
H4089 H 0.71298 0.20931 0.79461 0.0
H4090 H 0.69878 0.17492 0.79965 0.0
C4091 C 0.66887 0.05704 0.81241 0.0
C4092 C 0.68129 0.10139 0.78386 0.0
H4093 H 0.72379 0.13034 0.77745 0.0
C4094 C 0.66961 0.1155 0.78066 0.0
C4095 C 0.70099 0.1066 0.78225 0.0
C4096 C 0.71403 0.09169 0.78464 0.0
C4097 C 0.6772 0.13491 0.77645 0.0
C4098 C 0.69701 0.1404 0.77564 0.0
C4099 C 0.70862 0.12611 0.77825 0.0
C4100 C 0.70596 0.1611 0.77262 0.0
C4101 C 0.66396 0.1494 0.77287 0.0
C4102 C 0.71508 0.16463 0.75596 0.0
C4103 C 0.72323 0.1843 0.75305 0.0
C4104 C 0.72248 0.20063 0.76686 0.0
C4105 C 0.71365 0.19699 0.78368 0.0
C4106 C 0.70548 0.17739 0.78654 0.0
H4107 H 0.64895 0.14142 0.76913 0.0
H4108 H 0.6647 0.16002 0.78626 0.0
H4109 H 0.66815 0.15838 0.76092 0.0
H4110 H 0.71568 0.15221 0.74511 0.0
H4111 H 0.73003 0.18673 0.73999 0.0
loop_
_geom_bond_atom_site_label_1
_geom_bond_atom_site_label_2
_geom_bond_distance
_geom_bond_site_symmetry_2
_ccdc_geom_bond_type
Mg0 O1 2.028 . S
Mg0 O7 1.986 . S
Mg0 O9 2.114 1_455 S
Mg0 O10 2.251 1_455 S
Mg0 O13 2.010 . S
O1 Mg0 2.028 . S
O1 C4 1.250 . S
O2 Mg3 2.049 . S
O2 C4 1.215 1_655 S
Mg3 O2 2.049 . S
Mg3 O8 2.032 . S
Mg3 O10 2.079 . S
C4 O1 1.250 . S
C4 O2 1.215 1_455 S
C5 O6 1.264 . S
C5 O13 1.249 . S
O6 C5 1.264 . S
O7 Mg0 1.986 . S
O7 C11 1.246 . S
O8 Mg3 2.032 . S
O8 C11 1.259 1_655 S
O9 Mg0 2.114 1_655 S
O9 C12 1.252 . S
O10 Mg0 2.251 1_655 S
O10 Mg3 2.079 . S
O10 C12 1.273 . S
C11 O7 1.246 . S
C11 O8 1.259 1_455 S
C12 O9 1.252 . S
C12 O10 1.273 . S
O13 Mg0 2.010 . S
O13 C5 1.249 . S
Mg14 O15 2.028 . S
Mg14 O21 1.986 . S
Mg14 O23 2.114 1_455 S
Mg14 O24 2.251 1_455 S
Mg14 O27 2.010 . S
O15 Mg14 2.028 . S
O15 C18 1.250 1_455 S
O16 Mg17 2.028 . S
O16 C18 1.248 . S
Mg17 O16 2.028 . S
Mg17 O22 2.032 . S
Mg17 O24 2.079 . S
C18 O15 1.250 1_655 S
C18 O16 1.248 . S
C19 O20 1.264 . S
C19 O27 1.249 . S
O20 C19 1.264 . S
O21 Mg14 1.986 . S
O21 C25 1.246 1_455 S
O22 Mg17 2.032 . S
O22 C25 1.259 . S
O23 Mg14 2.114 1_655 S
O23 C26 1.252 . S
O24 Mg14 2.251 1_655 S
O24 Mg17 2.079 . S
O24 C26 1.273 . S
C25 O21 1.246 1_655 S
C25 O22 1.259 . S
C26 O23 1.252 . S
C26 O24 1.273 . S
O27 Mg14 2.010 . S
O27 C19 1.249 . S
Mg28 O29 2.028 . S
Mg28 O35 1.986 . S
Mg28 O37 2.114 . S
Mg28 O38 2.251 . S
Mg28 O41 2.010 . S
O29 Mg28 2.028 . S
O29 C32 1.250 . S
O30 Mg31 2.028 . S
O30 C32 1.248 . S
Mg31 O30 2.028 . S
Mg31 O36 2.032 . S
Mg31 O38 2.079 . S
C32 O29 1.250 . S
C32 O30 1.248 . S
C33 O34 1.264 . S
C33 O41 1.249 . S
O34 C33 1.264 . S
O35 Mg28 1.986 . S
O35 C39 1.246 . S
O36 Mg31 2.032 . S
O36 C39 1.259 . S
O37 Mg28 2.114 . S
O37 C40 1.252 . S
O38 Mg28 2.251 . S
O38 Mg31 2.079 . S
O38 C40 1.273 . S
C39 O35 1.246 . S
C39 O36 1.259 . S
C40 O37 1.252 . S
C40 O38 1.273 . S
O41 Mg28 2.010 . S
O41 C33 1.249 . S
Mg42 O43 2.028 . S
Mg42 O49 1.986 . S
Mg42 O51 2.114 . S
Mg42 O52 2.251 . S
Mg42 O55 2.010 . S
O43 Mg42 2.028 . S
O43 C46 1.250 . S
O44 Mg45 2.028 . S
O44 C46 1.248 . S
Mg45 O44 2.028 . S
Mg45 O50 2.032 . S
Mg45 O52 2.079 . S
C46 O43 1.250 . S
C46 O44 1.248 . S
C47 O48 1.264 . S
C47 O55 1.249 . S
O48 C47 1.264 . S
O49 Mg42 1.986 . S
O49 C53 1.246 . S
O50 Mg45 2.032 . S
O50 C53 1.259 . S
O51 Mg42 2.114 . S
O51 C54 1.252 . S
O52 Mg42 2.251 . S
O52 Mg45 2.079 . S
O52 C54 1.273 . S
C53 O49 1.246 . S
C53 O50 1.259 . S
C54 O51 1.252 . S
C54 O52 1.273 . S
O55 Mg42 2.010 . S
O55 C47 1.249 . S
Mg56 O57 2.028 . S
Mg56 O63 1.986 . S
Mg56 O65 2.114 1_455 S
Mg56 O66 2.251 1_455 S
Mg56 O69 2.010 . S
O57 Mg56 2.028 . S
O57 C60 1.250 . S
O58 Mg59 2.028 . S
O58 C60 1.248 1_655 S
Mg59 O58 2.028 . S
Mg59 O64 2.032 . S
Mg59 O66 2.079 . S
C60 O57 1.250 . S
C60 O58 1.248 1_455 S
C61 O62 1.264 . S
C61 O69 1.249 . S
O62 C61 1.264 . S
O63 Mg56 1.986 . S
O63 C67 1.246 . S
O64 Mg59 2.032 . S
O64 C67 1.259 1_655 S
O65 Mg56 2.114 1_655 S
O65 C68 1.252 . S
O66 Mg56 2.251 1_655 S
O66 Mg59 2.079 . S
O66 C68 1.273 . S
C67 O63 1.246 . S
C67 O64 1.259 1_455 S
C68 O65 1.252 . S
C68 O66 1.273 . S
O69 Mg56 2.010 . S
O69 C61 1.249 . S
Mg70 O71 2.028 . S
Mg70 O77 1.986 . S
Mg70 O79 2.114 . S
Mg70 O80 2.251 . S
Mg70 O83 2.010 . S
O71 Mg70 2.028 . S
O71 C74 1.250 . S
O72 Mg73 2.028 . S
O72 C74 1.248 . S
Mg73 O72 2.028 . S
Mg73 O78 2.032 . S
Mg73 O80 2.079 . S
C74 O71 1.250 . S
C74 O72 1.248 . S
C75 O76 1.264 . S
C75 O83 1.249 . S
O76 C75 1.264 . S
O77 Mg70 1.986 . S
O77 C81 1.246 . S
O78 Mg73 2.032 . S
O78 C81 1.259 . S
O79 Mg70 2.114 . S
O79 C82 1.252 . S
O80 Mg70 2.251 . S
O80 Mg73 2.079 . S
O80 C82 1.273 . S
C81 O77 1.246 . S
C81 O78 1.259 . S
C82 O79 1.252 . S
C82 O80 1.273 . S
O83 Mg70 2.010 . S
O83 C75 1.249 . S
Mg84 O85 2.028 . S
Mg84 O91 1.986 . S
Mg84 O93 2.114 . S
Mg84 O94 2.251 . S
Mg84 O97 2.010 . S
O85 Mg84 2.028 . S
O85 C88 1.250 . S
O86 Mg87 2.028 . S
O86 C88 1.248 . S
Mg87 O86 2.028 . S
Mg87 O92 2.032 . S
Mg87 O94 2.079 . S
C88 O85 1.250 . S
C88 O86 1.248 . S
C89 O90 1.264 . S
C89 O97 1.249 . S
O90 C89 1.264 . S
O91 Mg84 1.986 . S
O91 C95 1.246 . S
O92 Mg87 2.032 . S
O92 C95 1.259 . S
O93 Mg84 2.114 . S
O93 C96 1.252 . S
O94 Mg84 2.251 . S
O94 Mg87 2.079 . S
O94 C96 1.273 . S
C95 O91 1.246 . S
C95 O92 1.259 . S
C96 O93 1.252 . S
C96 O94 1.273 . S
O97 Mg84 2.010 . S
O97 C89 1.249 . S
Mg98 O99 2.028 . S
Mg98 O105 1.986 . S
Mg98 O107 2.114 1_455 S
Mg98 O108 2.251 1_455 S
Mg98 O111 2.010 . S
O99 Mg98 2.028 . S
O99 C102 1.250 . S
O100 Mg101 2.028 . S
O100 C102 1.248 1_655 S
Mg101 O100 2.028 . S
Mg101 O106 2.032 . S
Mg101 O108 2.079 . S
C102 O99 1.250 . S
C102 O100 1.248 1_455 S
C103 O104 1.264 . S
C103 O111 1.249 . S
O104 C103 1.264 . S
O105 Mg98 1.986 . S
O105 C109 1.246 . S
O106 Mg101 2.032 . S
O106 C109 1.259 1_655 S
O107 Mg98 2.114 1_655 S
O107 C110 1.252 . S
O108 Mg98 2.251 1_655 S
O108 Mg101 2.079 . S
O108 C110 1.273 . S
C109 O105 1.246 . S
C109 O106 1.259 1_455 S
C110 O107 1.252 . S
C110 O108 1.273 . S
O111 Mg98 2.010 . S
O111 C103 1.249 . S
Mg112 O113 2.028 . S
Mg112 O119 1.986 . S
Mg112 O121 2.114 . S
Mg112 O122 2.251 . S
Mg112 O125 2.010 . S
O113 Mg112 2.028 . S
O113 C116 1.250 . S
O114 Mg115 2.028 . S
O114 C116 1.248 . S
Mg115 O114 2.028 . S
Mg115 O120 2.032 . S
Mg115 O122 2.079 . S
C116 O113 1.250 . S
C116 O114 1.248 . S
C117 O118 1.264 . S
C117 O125 1.249 . S
O118 C117 1.264 . S
O119 Mg112 1.986 . S
O119 C123 1.246 . S
O120 Mg115 2.032 . S
O120 C123 1.259 . S
O121 Mg112 2.114 . S
O121 C124 1.252 . S
O122 Mg112 2.251 . S
O122 Mg115 2.079 . S
O122 C124 1.273 . S
C123 O119 1.246 . S
C123 O120 1.259 . S
C124 O121 1.252 . S
C124 O122 1.273 . S
O125 Mg112 2.010 . S
O125 C117 1.249 . S
Mg126 O127 2.028 . S
Mg126 O133 1.986 . S
Mg126 O135 2.114 . S
Mg126 O136 2.251 . S
Mg126 O139 2.010 . S
O127 Mg126 2.028 . S
O127 C130 1.250 . S
O128 Mg129 2.028 . S
O128 C130 1.248 . S
Mg129 O128 2.028 . S
Mg129 O134 2.032 . S
Mg129 O136 2.079 . S
C130 O127 1.250 . S
C130 O128 1.248 . S
C131 O132 1.264 . S
C131 O139 1.249 . S
O132 C131 1.264 . S
O133 Mg126 1.986 . S
O133 C137 1.246 . S
O134 Mg129 2.032 . S
O134 C137 1.259 . S
O135 Mg126 2.114 . S
O135 C138 1.252 . S
O136 Mg126 2.251 . S
O136 Mg129 2.079 . S
O136 C138 1.273 . S
C137 O133 1.246 . S
C137 O134 1.259 . S
C138 O135 1.252 . S
C138 O136 1.273 . S
O139 Mg126 2.010 . S
O139 C131 1.249 . S
Mg140 O141 2.028 1_565 S
Mg140 O147 1.986 . S
Mg140 O149 2.114 1_565 S
Mg140 O150 2.251 . S
Mg140 O153 2.010 . S
O141 Mg140 2.028 1_545 S
O141 C144 1.250 . S
O142 Mg143 2.028 . S
O142 C144 1.248 . S
Mg143 O142 2.028 . S
Mg143 O148 2.032 1_545 S
Mg143 O150 2.079 1_545 S
C144 O141 1.250 . S
C144 O142 1.248 . S
C145 O146 1.264 . S
C145 O153 1.249 . S
O146 C145 1.264 . S
O147 Mg140 1.986 . S
O147 C151 1.246 . S
O148 Mg143 2.032 1_565 S
O148 C151 1.259 . S
O149 Mg140 2.114 1_545 S
O149 C152 1.252 . S
O150 Mg140 2.251 . S
O150 Mg143 2.079 1_565 S
O150 C152 1.273 1_565 S
C151 O147 1.246 . S
C151 O148 1.259 . S
C152 O149 1.252 . S
C152 O150 1.273 1_545 S
O153 Mg140 2.010 . S
O153 C145 1.249 . S
Mg154 O155 2.028 . S
Mg154 O161 1.986 . S
Mg154 O163 2.114 . S
Mg154 O164 2.251 . S
Mg154 O167 2.010 . S
O155 Mg154 2.028 . S
O155 C158 1.250 . S
O156 Mg157 2.028 . S
O156 C158 1.248 . S
Mg157 O156 2.028 . S
Mg157 O162 2.032 . S
Mg157 O164 2.079 . S
C158 O155 1.250 . S
C158 O156 1.248 . S
C159 O160 1.264 . S
C159 O167 1.249 . S
O160 C159 1.264 . S
O161 Mg154 1.986 . S
O161 C165 1.246 . S
O162 Mg157 2.032 . S
O162 C165 1.259 . S
O163 Mg154 2.114 . S
O163 C166 1.252 . S
O164 Mg154 2.251 . S
O164 Mg157 2.079 . S
O164 C166 1.273 . S
C165 O161 1.246 . S
C165 O162 1.259 . S
C166 O163 1.252 . S
C166 O164 1.273 . S
O167 Mg154 2.010 . S
O167 C159 1.249 . S
Mg168 O169 2.028 . S
Mg168 O175 1.986 . S
Mg168 O177 2.114 . S
Mg168 O178 2.251 . S
Mg168 O181 2.010 . S
O169 Mg168 2.028 . S
O169 C172 1.250 1_554 S
O170 Mg171 2.028 . S
O170 C172 1.248 1_554 S
Mg171 O170 2.028 . S
Mg171 O176 2.032 . S
Mg171 O178 2.079 . S
C172 O169 1.250 1_556 S
C172 O170 1.248 1_556 S
C173 O174 1.264 . S
C173 O181 1.249 . S
O174 C173 1.264 . S
O175 Mg168 1.986 . S
O175 C179 1.246 . S
O176 Mg171 2.032 . S
O176 C179 1.259 . S
O177 Mg168 2.114 . S
O177 C180 1.252 . S
O178 Mg168 2.251 . S
O178 Mg171 2.079 . S
O178 C180 1.273 . S
C179 O175 1.246 . S
C179 O176 1.259 . S
C180 O177 1.252 . S
C180 O178 1.273 . S
O181 Mg168 2.010 . S
O181 C173 1.249 . S
Mg182 O183 2.028 1_556 S
Mg182 O189 1.986 . S
Mg182 O191 2.114 1_556 S
Mg182 O192 2.251 . S
Mg182 O195 2.010 . S
O183 Mg182 2.028 1_554 S
O183 C186 1.250 . S
O184 Mg185 2.028 . S
O184 C186 1.248 . S
Mg185 O184 2.028 . S
Mg185 O190 2.032 1_554 S
Mg185 O192 2.079 1_554 S
C186 O183 1.250 . S
C186 O184 1.248 . S
C187 O188 1.264 . S
C187 O195 1.249 . S
O188 C187 1.264 . S
O189 Mg182 1.986 . S
O189 C193 1.246 . S
O190 Mg185 2.032 1_556 S
O190 C193 1.259 . S
O191 Mg182 2.114 1_554 S
O191 C194 1.252 . S
O192 Mg182 2.251 . S
O192 Mg185 2.079 1_556 S
O192 C194 1.273 1_556 S
C193 O189 1.246 . S
C193 O190 1.259 . S
C194 O191 1.252 . S
C194 O192 1.273 1_554 S
O195 Mg182 2.010 . S
O195 C187 1.249 . S
Mg196 O197 2.028 . S
Mg196 O203 1.986 . S
Mg196 O205 2.114 . S
Mg196 O206 2.251 . S
Mg196 O209 2.010 . S
O197 Mg196 2.028 . S
O197 C200 1.250 . S
O198 Mg199 2.028 . S
O198 C200 1.248 . S
Mg199 O198 2.028 . S
Mg199 O204 2.032 . S
Mg199 O206 2.079 . S
C200 O197 1.250 . S
C200 O198 1.248 . S
C201 O202 1.264 . S
C201 O209 1.249 . S
O202 C201 1.264 . S
O203 Mg196 1.986 . S
O203 C207 1.246 . S
O204 Mg199 2.032 . S
O204 C207 1.259 . S
O205 Mg196 2.114 . S
O205 C208 1.252 . S
O206 Mg196 2.251 . S
O206 Mg199 2.079 . S
O206 C208 1.273 . S
C207 O203 1.246 . S
C207 O204 1.259 . S
C208 O205 1.252 . S
C208 O206 1.273 . S
O209 Mg196 2.010 . S
O209 C201 1.249 . S
Mg210 O211 2.028 . S
Mg210 O217 1.986 . S
Mg210 O219 2.114 . S
Mg210 O220 2.251 . S
Mg210 O223 2.010 . S
O211 Mg210 2.028 . S
O211 C214 1.250 . S
O212 Mg213 2.028 . S
O212 C214 1.248 . S
Mg213 O212 2.028 . S
Mg213 O218 2.032 . S
Mg213 O220 2.079 . S
C214 O211 1.250 . S
C214 O212 1.248 . S
C215 O216 1.264 . S
C215 O223 1.249 . S
O216 C215 1.264 . S
O217 Mg210 1.986 . S
O217 C221 1.246 . S
O218 Mg213 2.032 . S
O218 C221 1.259 . S
O219 Mg210 2.114 . S
O219 C222 1.252 . S
O220 Mg210 2.251 . S
O220 Mg213 2.079 . S
O220 C222 1.273 . S
C221 O217 1.246 . S
C221 O218 1.259 . S
C222 O219 1.252 . S
C222 O220 1.273 . S
O223 Mg210 2.010 . S
O223 C215 1.249 . S
Mg224 O225 2.028 . S
Mg224 O231 1.986 . S
Mg224 O233 2.114 . S
Mg224 O234 2.251 . S
Mg224 O237 2.010 . S
O225 Mg224 2.028 . S
O225 C228 1.250 . S
O226 Mg227 2.028 . S
O226 C228 1.248 . S
Mg227 O226 2.028 . S
Mg227 O232 2.032 . S
Mg227 O234 2.079 . S
C228 O225 1.250 . S
C228 O226 1.248 . S
C229 O230 1.264 . S
C229 O237 1.249 . S
O230 C229 1.264 . S
O231 Mg224 1.986 . S
O231 C235 1.246 . S
O232 Mg227 2.032 . S
O232 C235 1.259 . S
O233 Mg224 2.114 . S
O233 C236 1.252 . S
O234 Mg224 2.251 . S
O234 Mg227 2.079 . S
O234 C236 1.273 . S
C235 O231 1.246 . S
C235 O232 1.259 . S
C236 O233 1.252 . S
C236 O234 1.273 . S
O237 Mg224 2.010 . S
O237 C229 1.249 . S
Mg238 O239 2.028 . S
Mg238 O245 1.986 . S
Mg238 O247 2.114 . S
Mg238 O248 2.251 . S
Mg238 O251 2.010 . S
O239 Mg238 2.028 . S
O239 C242 1.250 . S
O240 Mg241 2.028 . S
O240 C242 1.248 . S
Mg241 O240 2.028 . S
Mg241 O246 2.032 . S
Mg241 O248 2.079 . S
C242 O239 1.250 . S
C242 O240 1.248 . S
C243 O244 1.264 . S
C243 O251 1.249 . S
O244 C243 1.264 . S
O245 Mg238 1.986 . S
O245 C249 1.246 . S
O246 Mg241 2.032 . S
O246 C249 1.259 . S
O247 Mg238 2.114 . S
O247 C250 1.252 . S
O248 Mg238 2.251 . S
O248 Mg241 2.079 . S
O248 C250 1.273 . S
C249 O245 1.246 . S
C249 O246 1.259 . S
C250 O247 1.252 . S
C250 O248 1.273 . S
O251 Mg238 2.010 . S
O251 C243 1.249 . S
Mg252 O253 2.028 . S
Mg252 O259 1.986 . S
Mg252 O261 2.114 . S
Mg252 O262 2.251 . S
Mg252 O265 2.010 . S
O253 Mg252 2.028 . S
O253 C256 1.250 . S
O254 Mg255 2.028 . S
O254 C256 1.248 . S
Mg255 O254 2.028 . S
Mg255 O260 2.032 . S
Mg255 O262 2.079 . S
C256 O253 1.250 . S
C256 O254 1.248 . S
C257 O258 1.264 . S
C257 O265 1.249 . S
O258 C257 1.264 . S
O259 Mg252 1.986 . S
O259 C263 1.246 . S
O260 Mg255 2.032 . S
O260 C263 1.259 . S
O261 Mg252 2.114 . S
O261 C264 1.252 . S
O262 Mg252 2.251 . S
O262 Mg255 2.079 . S
O262 C264 1.273 . S
C263 O259 1.246 . S
C263 O260 1.259 . S
C264 O261 1.252 . S
C264 O262 1.273 . S
O265 Mg252 2.010 . S
O265 C257 1.249 . S
Mg266 O267 2.028 . S
Mg266 O273 1.986 1_545 S
Mg266 O275 2.114 . S
Mg266 O276 2.251 . S
Mg266 O279 2.010 . S
O267 Mg266 2.028 . S
O267 C270 1.250 . S
O268 Mg269 2.028 . S
O268 C270 1.248 . S
Mg269 O268 2.028 . S
Mg269 O274 2.032 1_545 S
Mg269 O276 2.079 . S
C270 O267 1.250 . S
C270 O268 1.248 . S
C271 O272 1.264 1_545 S
C271 O279 1.249 . S
O272 C271 1.264 1_565 S
O273 Mg266 1.986 1_565 S
O273 C277 1.246 . S
O274 Mg269 2.032 1_565 S
O274 C277 1.259 . S
O275 Mg266 2.114 . S
O275 C278 1.252 . S
O276 Mg266 2.251 . S
O276 Mg269 2.079 . S
O276 C278 1.273 . S
C277 O273 1.246 . S
C277 O274 1.259 . S
C278 O275 1.252 . S
C278 O276 1.273 . S
O279 Mg266 2.010 . S
O279 C271 1.249 . S
Mg280 O281 2.028 1_556 S
Mg280 O287 1.986 . S
Mg280 O289 2.114 1_556 S
Mg280 O290 2.252 1_556 S
Mg280 O293 2.010 . S
O281 Mg280 2.028 1_554 S
O281 C284 1.250 . S
O282 Mg283 2.028 . S
O282 C284 1.248 . S
Mg283 O282 2.028 . S
Mg283 O288 2.032 1_554 S
Mg283 O290 2.082 . S
C284 O281 1.250 . S
C284 O282 1.248 . S
C285 O286 1.264 . S
C285 O293 1.249 . S
O286 C285 1.264 . S
O287 Mg280 1.986 . S
O287 C291 1.246 . S
O288 Mg283 2.032 1_556 S
O288 C291 1.259 . S
O289 Mg280 2.114 1_554 S
O289 C292 1.252 . S
O290 Mg280 2.252 1_554 S
O290 Mg283 2.082 . S
O290 C292 1.293 . S
C291 O287 1.246 . S
C291 O288 1.259 . S
C292 O289 1.252 . S
C292 O290 1.293 . S
O293 Mg280 2.010 . S
O293 C285 1.249 . S
Mg294 O295 2.028 . S
Mg294 O301 1.986 . S
Mg294 O303 2.114 . S
Mg294 O304 2.251 . S
Mg294 O307 2.010 . S
O295 Mg294 2.028 . S
O295 C298 1.250 . S
O296 Mg297 2.028 . S
O296 C298 1.248 . S
Mg297 O296 2.028 . S
Mg297 O302 2.032 . S
Mg297 O304 2.079 . S
C298 O295 1.250 . S
C298 O296 1.248 . S
C299 O300 1.264 . S
C299 O307 1.249 . S
O300 C299 1.264 . S
O301 Mg294 1.986 . S
O301 C305 1.246 . S
O302 Mg297 2.032 . S
O302 C305 1.259 . S
O303 Mg294 2.114 . S
O303 C306 1.252 . S
O304 Mg294 2.251 . S
O304 Mg297 2.079 . S
O304 C306 1.273 . S
C305 O301 1.246 . S
C305 O302 1.259 . S
C306 O303 1.252 . S
C306 O304 1.273 . S
O307 Mg294 2.010 . S
O307 C299 1.249 . S
Mg308 O309 2.028 . S
Mg308 O315 1.986 . S
Mg308 O317 2.114 . S
Mg308 O318 2.251 . S
Mg308 O321 2.010 . S
O309 Mg308 2.028 . S
O309 C312 1.250 . S
O310 Mg311 2.028 . S
O310 C312 1.248 . S
Mg311 O310 2.028 . S
Mg311 O316 2.032 . S
Mg311 O318 2.079 . S
C312 O309 1.250 . S
C312 O310 1.248 . S
C313 O314 1.264 . S
C313 O321 1.249 . S
O314 C313 1.264 . S
O315 Mg308 1.986 . S
O315 C319 1.246 . S
O316 Mg311 2.032 . S
O316 C319 1.259 . S
O317 Mg308 2.114 . S
O317 C320 1.252 . S
O318 Mg308 2.251 . S
O318 Mg311 2.079 . S
O318 C320 1.273 . S
C319 O315 1.246 . S
C319 O316 1.259 . S
C320 O317 1.252 . S
C320 O318 1.273 . S
O321 Mg308 2.010 . S
O321 C313 1.249 . S
Mg322 O323 2.028 . S
Mg322 O329 1.986 . S
Mg322 O331 2.114 . S
Mg322 O332 2.251 . S
Mg322 O335 2.010 . S
O323 Mg322 2.028 . S
O323 C326 1.250 . S
O324 Mg325 2.028 . S
O324 C326 1.248 . S
Mg325 O324 2.028 . S
Mg325 O330 2.032 . S
Mg325 O332 2.079 . S
C326 O323 1.250 . S
C326 O324 1.248 . S
C327 O328 1.264 . S
C327 O335 1.249 . S
O328 C327 1.264 . S
O329 Mg322 1.986 . S
O329 C333 1.246 . S
O330 Mg325 2.032 . S
O330 C333 1.259 . S
O331 Mg322 2.114 . S
O331 C334 1.252 . S
O332 Mg322 2.251 . S
O332 Mg325 2.079 . S
O332 C334 1.273 . S
C333 O329 1.246 . S
C333 O330 1.259 . S
C334 O331 1.252 . S
C334 O332 1.273 . S
O335 Mg322 2.010 . S
O335 C327 1.249 . S
Tb336 O339 2.453 . S
Tb336 O340 2.596 . S
Tb336 O341 2.374 1_554 S
Tb336 O349 2.343 1_455 S
Tb336 O351 2.353 . S
Tb336 O353 2.427 . S
Tb336 O354 2.513 1_554 S
C337 O341 1.251 . S
C337 O343 1.247 1_455 S
Tb338 O340 2.343 1_655 S
Tb338 O343 2.363 1_554 S
Tb338 O346 2.426 1_545 S
Tb338 O347 2.536 1_545 S
Tb338 O348 2.453 1_554 S
Tb338 O349 2.596 . S
Tb338 O350 2.374 . S
O339 Tb336 2.453 . S
O339 C355 1.245 . S
O340 Tb336 2.596 . S
O340 Tb338 2.343 1_455 S
O340 C355 1.259 . S
O341 Tb336 2.374 1_556 S
O341 C337 1.251 . S
C342 O346 1.275 1_455 S
C342 O347 1.222 1_455 S
O343 C337 1.247 1_655 S
O343 Tb338 2.363 1_556 S
C344 O348 1.242 1_554 S
C344 O349 1.266 . S
C345 O350 1.250 . S
C345 O351 1.263 1_655 S
O346 Tb338 2.426 1_565 S
O346 C342 1.275 1_655 S
O347 Tb338 2.536 1_565 S
O347 C342 1.222 1_655 S
O348 Tb338 2.453 1_556 S
O348 C344 1.242 1_556 S
O349 Tb336 2.343 1_655 S
O349 Tb338 2.596 . S
O349 C344 1.266 . S
O350 Tb338 2.374 . S
O350 C345 1.250 . S
O351 Tb336 2.353 . S
O351 C345 1.263 1_455 S
C352 O353 1.275 1_556 S
C352 O354 1.246 . S
O353 Tb336 2.427 . S
O353 C352 1.275 1_554 S
O354 Tb336 2.513 1_556 S
O354 C352 1.246 . S
C355 O339 1.245 . S
C355 O340 1.259 . S
Tb356 O359 2.453 . S
Tb356 O360 2.596 . S
Tb356 O361 2.374 . S
Tb356 O369 2.343 . S
Tb356 O371 2.353 . S
Tb356 O373 2.427 . S
Tb356 O374 2.513 . S
C357 O361 1.251 . S
C357 O363 1.263 . S
Tb358 O360 2.343 . S
Tb358 O363 2.353 . S
Tb358 O366 2.427 . S
Tb358 O367 2.513 . S
Tb358 O368 2.453 . S
Tb358 O369 2.596 . S
Tb358 O370 2.374 . S
O359 Tb356 2.453 . S
O359 C375 1.245 . S
O360 Tb356 2.596 . S
O360 Tb358 2.343 . S
O360 C375 1.259 . S
O361 Tb356 2.374 . S
O361 C357 1.251 . S
C362 O366 1.275 . S
C362 O367 1.246 . S
O363 C357 1.263 . S
O363 Tb358 2.353 . S
C364 O368 1.245 . S
C364 O369 1.259 . S
C365 O370 1.250 . S
C365 O371 1.263 . S
O366 Tb358 2.427 . S
O366 C362 1.275 . S
O367 Tb358 2.513 . S
O367 C362 1.246 . S
O368 Tb358 2.453 . S
O368 C364 1.245 . S
O369 Tb356 2.343 . S
O369 Tb358 2.596 . S
O369 C364 1.259 . S
O370 Tb358 2.374 . S
O370 C365 1.250 . S
O371 Tb356 2.353 . S
O371 C365 1.263 . S
C372 O373 1.275 . S
C372 O374 1.246 . S
O373 Tb356 2.427 . S
O373 C372 1.275 . S
O374 Tb356 2.513 . S
O374 C372 1.246 . S
C375 O359 1.245 . S
C375 O360 1.259 . S
Tb376 O379 2.453 . S
Tb376 O380 2.596 . S
Tb376 O381 2.374 . S
Tb376 O389 2.343 . S
Tb376 O391 2.353 . S
Tb376 O393 2.427 . S
Tb376 O394 2.513 . S
C377 O381 1.251 . S
C377 O383 1.263 . S
Tb378 O380 2.343 . S
Tb378 O383 2.353 . S
Tb378 O386 2.427 . S
Tb378 O387 2.513 . S
Tb378 O388 2.453 1_545 S
Tb378 O389 2.596 . S
Tb378 O390 2.374 . S
O379 Tb376 2.453 . S
O379 C395 1.245 . S
O380 Tb376 2.596 . S
O380 Tb378 2.343 . S
O380 C395 1.259 . S
O381 Tb376 2.374 . S
O381 C377 1.251 . S
C382 O386 1.275 . S
C382 O387 1.246 . S
O383 C377 1.263 . S
O383 Tb378 2.353 . S
C384 O388 1.245 . S
C384 O389 1.259 1_565 S
C385 O390 1.250 . S
C385 O391 1.263 . S
O386 Tb378 2.427 . S
O386 C382 1.275 . S
O387 Tb378 2.513 . S
O387 C382 1.246 . S
O388 Tb378 2.453 1_565 S
O388 C384 1.245 . S
O389 Tb376 2.343 . S
O389 Tb378 2.596 . S
O389 C384 1.259 1_545 S
O390 Tb378 2.374 . S
O390 C385 1.250 . S
O391 Tb376 2.353 . S
O391 C385 1.263 . S
C392 O393 1.275 . S
C392 O394 1.246 . S
O393 Tb376 2.427 . S
O393 C392 1.275 . S
O394 Tb376 2.513 . S
O394 C392 1.246 . S
C395 O379 1.245 . S
C395 O380 1.259 . S
Tb396 O399 2.453 . S
Tb396 O400 2.596 . S
Tb396 O401 2.374 . S
Tb396 O409 2.343 . S
Tb396 O411 2.353 . S
Tb396 O413 2.427 . S
Tb396 O414 2.513 . S
C397 O401 1.251 . S
C397 O403 1.263 . S
Tb398 O400 2.343 . S
Tb398 O403 2.353 . S
Tb398 O406 2.427 . S
Tb398 O407 2.513 . S
Tb398 O408 2.453 . S
Tb398 O409 2.596 . S
Tb398 O410 2.374 . S
O399 Tb396 2.453 . S
O399 C415 1.245 . S
O400 Tb396 2.596 . S
O400 Tb398 2.343 . S
O400 C415 1.259 . S
O401 Tb396 2.374 . S
O401 C397 1.251 . S
C402 O406 1.275 . S
C402 O407 1.246 . S
O403 C397 1.263 . S
O403 Tb398 2.353 . S
C404 O408 1.245 . S
C404 O409 1.259 . S
C405 O410 1.250 . S
C405 O411 1.263 . S
O406 Tb398 2.427 . S
O406 C402 1.275 . S
O407 Tb398 2.513 . S
O407 C402 1.246 . S
O408 Tb398 2.453 . S
O408 C404 1.245 . S
O409 Tb396 2.343 . S
O409 Tb398 2.596 . S
O409 C404 1.259 . S
O410 Tb398 2.374 . S
O410 C405 1.250 . S
O411 Tb396 2.353 . S
O411 C405 1.263 . S
C412 O413 1.275 . S
C412 O414 1.246 . S
O413 Tb396 2.427 . S
O413 C412 1.275 . S
O414 Tb396 2.513 . S
O414 C412 1.246 . S
C415 O399 1.245 . S
C415 O400 1.259 . S
Tb416 O419 2.448 1_645 S
Tb416 O420 2.594 1_655 S
Tb416 O421 2.388 . S
Tb416 O429 2.345 . S
Tb416 O431 2.339 1_655 S
Tb416 O433 2.424 1_655 S
Tb416 O434 2.523 . S
C417 O421 1.251 . S
C417 O423 1.263 . S
Tb418 O420 2.343 . S
Tb418 O423 2.353 1_455 S
Tb418 O426 2.427 1_455 S
Tb418 O427 2.513 . S
Tb418 O428 2.453 1_455 S
Tb418 O429 2.595 1_455 S
Tb418 O430 2.374 . S
O419 Tb416 2.448 1_465 S
O419 C435 1.245 . S
O420 Tb416 2.594 1_455 S
O420 Tb418 2.343 . S
O420 C435 1.259 1_545 S
O421 Tb416 2.388 . S
O421 C417 1.251 . S
C422 O426 1.275 1_455 S
C422 O427 1.246 . S
O423 C417 1.263 . S
O423 Tb418 2.353 1_655 S
C424 O428 1.250 . S
C424 O429 1.256 . S
C425 O430 1.250 . S
C425 O431 1.263 . S
O426 Tb418 2.427 1_655 S
O426 C422 1.275 1_655 S
O427 Tb418 2.513 . S
O427 C422 1.246 . S
O428 Tb418 2.453 1_655 S
O428 C424 1.250 . S
O429 Tb416 2.345 . S
O429 Tb418 2.595 1_655 S
O429 C424 1.256 . S
O430 Tb418 2.374 . S
O430 C425 1.250 . S
O431 Tb416 2.339 1_455 S
O431 C425 1.263 . S
C432 O433 1.275 1_655 S
C432 O434 1.246 . S
O433 Tb416 2.424 1_455 S
O433 C432 1.275 1_455 S
O434 Tb416 2.523 . S
O434 C432 1.246 . S
C435 O419 1.245 . S
C435 O420 1.259 1_565 S
Tb436 O439 2.453 . S
Tb436 O440 2.596 . S
Tb436 O441 2.374 . S
Tb436 O449 2.343 . S
Tb436 O451 2.353 . S
Tb436 O453 2.427 . S
Tb436 O454 2.513 . S
C437 O441 1.251 . S
C437 O443 1.263 . S
Tb438 O440 2.343 . S
Tb438 O443 2.353 . S
Tb438 O446 2.427 . S
Tb438 O447 2.513 . S
Tb438 O448 2.453 . S
Tb438 O449 2.596 . S
Tb438 O450 2.374 . S
O439 Tb436 2.453 . S
O439 C455 1.245 . S
O440 Tb436 2.596 . S
O440 Tb438 2.343 . S
O440 C455 1.259 . S
O441 Tb436 2.374 . S
O441 C437 1.251 . S
C442 O446 1.275 . S
C442 O447 1.246 . S
O443 C437 1.263 . S
O443 Tb438 2.353 . S
C444 O448 1.245 . S
C444 O449 1.259 . S
C445 O450 1.250 . S
C445 O451 1.263 . S
O446 Tb438 2.427 . S
O446 C442 1.275 . S
O447 Tb438 2.513 . S
O447 C442 1.246 . S
O448 Tb438 2.453 . S
O448 C444 1.245 . S
O449 Tb436 2.343 . S
O449 Tb438 2.596 . S
O449 C444 1.259 . S
O450 Tb438 2.374 . S
O450 C445 1.250 . S
O451 Tb436 2.353 . S
O451 C445 1.263 . S
C452 O453 1.275 . S
C452 O454 1.246 . S
O453 Tb436 2.427 . S
O453 C452 1.275 . S
O454 Tb436 2.513 . S
O454 C452 1.246 . S
C455 O439 1.245 . S
C455 O440 1.259 . S
Tb456 O459 2.453 . S
Tb456 O460 2.596 . S
Tb456 O461 2.374 1_545 S
Tb456 O469 2.343 1_556 S
Tb456 O471 2.353 1_556 S
Tb456 O473 2.427 1_556 S
Tb456 O474 2.525 1_556 S
C457 O461 1.251 1_554 S
C457 O463 1.264 . S
Tb458 O460 2.343 1_554 S
Tb458 O463 2.349 1_545 S
Tb458 O466 2.427 . S
Tb458 O467 2.513 . S
Tb458 O468 2.453 . S
Tb458 O469 2.596 . S
Tb458 O470 2.374 . S
O459 Tb456 2.453 . S
O459 C475 1.245 . S
O460 Tb456 2.596 . S
O460 Tb458 2.343 1_556 S
O460 C475 1.259 . S
O461 Tb456 2.374 1_565 S
O461 C457 1.251 1_556 S
C462 O466 1.275 . S
C462 O467 1.246 . S
O463 C457 1.264 . S
O463 Tb458 2.349 1_565 S
C464 O468 1.245 . S
C464 O469 1.259 . S
C465 O470 1.250 . S
C465 O471 1.263 . S
O466 Tb458 2.427 . S
O466 C462 1.275 . S
O467 Tb458 2.513 . S
O467 C462 1.246 . S
O468 Tb458 2.453 . S
O468 C464 1.245 . S
O469 Tb456 2.343 1_554 S
O469 Tb458 2.596 . S
O469 C464 1.259 . S
O470 Tb458 2.374 . S
O470 C465 1.250 . S
O471 Tb456 2.353 1_554 S
O471 C465 1.263 . S
C472 O473 1.275 . S
C472 O474 1.261 . S
O473 Tb456 2.427 1_554 S
O473 C472 1.275 . S
O474 Tb456 2.525 1_554 S
O474 C472 1.261 . S
C475 O459 1.245 . S
C475 O460 1.259 . S
Tb476 O479 2.453 . S
Tb476 O480 2.596 . S
Tb476 O481 2.374 . S
Tb476 O489 2.343 . S
Tb476 O491 2.353 . S
Tb476 O493 2.427 . S
Tb476 O494 2.513 . S
C477 O481 1.251 . S
C477 O483 1.263 . S
Tb478 O480 2.343 . S
Tb478 O483 2.353 . S
Tb478 O486 2.427 . S
Tb478 O487 2.513 . S
Tb478 O488 2.453 . S
Tb478 O489 2.596 . S
Tb478 O490 2.374 . S
O479 Tb476 2.453 . S
O479 C495 1.245 . S
O480 Tb476 2.596 . S
O480 Tb478 2.343 . S
O480 C495 1.259 . S
O481 Tb476 2.374 . S
O481 C477 1.251 . S
C482 O486 1.275 . S
C482 O487 1.246 . S
O483 C477 1.263 . S
O483 Tb478 2.353 . S
C484 O488 1.245 . S
C484 O489 1.259 . S
C485 O490 1.250 . S
C485 O491 1.263 . S
O486 Tb478 2.427 . S
O486 C482 1.275 . S
O487 Tb478 2.513 . S
O487 C482 1.246 . S
O488 Tb478 2.453 . S
O488 C484 1.245 . S
O489 Tb476 2.343 . S
O489 Tb478 2.596 . S
O489 C484 1.259 . S
O490 Tb478 2.374 . S
O490 C485 1.250 . S
O491 Tb476 2.353 . S
O491 C485 1.263 . S
C492 O493 1.275 . S
C492 O494 1.246 . S
O493 Tb476 2.427 . S
O493 C492 1.275 . S
O494 Tb476 2.513 . S
O494 C492 1.246 . S
C495 O479 1.245 . S
C495 O480 1.259 . S
Tb496 O499 2.453 1_556 S
Tb496 O500 2.596 1_556 S
Tb496 O501 2.374 1_556 S
Tb496 O509 2.343 1_556 S
Tb496 O511 2.353 . S
Tb496 O513 2.427 . S
Tb496 O514 2.513 . S
C497 O501 1.251 . S
C497 O503 1.263 . S
Tb498 O500 2.343 . S
Tb498 O503 2.353 . S
Tb498 O506 2.427 . S
Tb498 O507 2.513 . S
Tb498 O508 2.453 . S
Tb498 O509 2.596 . S
Tb498 O510 2.374 . S
O499 Tb496 2.453 1_554 S
O499 C515 1.245 . S
O500 Tb496 2.596 1_554 S
O500 Tb498 2.343 . S
O500 C515 1.259 . S
O501 Tb496 2.374 1_554 S
O501 C497 1.251 . S
C502 O506 1.275 . S
C502 O507 1.246 . S
O503 C497 1.263 . S
O503 Tb498 2.353 . S
C504 O508 1.245 . S
C504 O509 1.259 . S
C505 O510 1.250 . S
C505 O511 1.263 1_554 S
O506 Tb498 2.427 . S
O506 C502 1.275 . S
O507 Tb498 2.513 . S
O507 C502 1.246 . S
O508 Tb498 2.453 . S
O508 C504 1.245 . S
O509 Tb496 2.343 1_554 S
O509 Tb498 2.596 . S
O509 C504 1.259 . S
O510 Tb498 2.374 . S
O510 C505 1.250 . S
O511 Tb496 2.353 . S
O511 C505 1.263 1_556 S
C512 O513 1.275 . S
C512 O514 1.246 . S
O513 Tb496 2.427 . S
O513 C512 1.275 . S
O514 Tb496 2.513 . S
O514 C512 1.246 . S
C515 O499 1.245 . S
C515 O500 1.259 . S
Tb516 O519 2.453 . S
Tb516 O520 2.596 . S
Tb516 O521 2.374 . S
Tb516 O529 2.343 . S
Tb516 O531 2.353 . S
Tb516 O533 2.427 . S
Tb516 O534 2.513 . S
C517 O521 1.251 . S
C517 O523 1.263 . S
Tb518 O520 2.343 . S
Tb518 O523 2.353 . S
Tb518 O526 2.427 . S
Tb518 O527 2.513 . S
Tb518 O528 2.453 . S
Tb518 O529 2.596 . S
Tb518 O530 2.374 . S
O519 Tb516 2.453 . S
O519 C535 1.245 . S
O520 Tb516 2.596 . S
O520 Tb518 2.343 . S
O520 C535 1.259 . S
O521 Tb516 2.374 . S
O521 C517 1.251 . S
C522 O526 1.275 . S
C522 O527 1.246 . S
O523 C517 1.263 . S
O523 Tb518 2.353 . S
C524 O528 1.245 . S
C524 O529 1.259 . S
C525 O530 1.250 . S
C525 O531 1.263 . S
O526 Tb518 2.427 . S
O526 C522 1.275 . S
O527 Tb518 2.513 . S
O527 C522 1.246 . S
O528 Tb518 2.453 . S
O528 C524 1.245 . S
O529 Tb516 2.343 . S
O529 Tb518 2.596 . S
O529 C524 1.259 . S
O530 Tb518 2.374 . S
O530 C525 1.250 . S
O531 Tb516 2.353 . S
O531 C525 1.263 . S
C532 O533 1.275 . S
C532 O534 1.246 . S
O533 Tb516 2.427 . S
O533 C532 1.275 . S
O534 Tb516 2.513 . S
O534 C532 1.246 . S
C535 O519 1.245 . S
C535 O520 1.259 . S
Tb536 O539 2.453 1_655 S
Tb536 O540 2.596 1_655 S
Tb536 O541 2.374 . S
Tb536 O549 2.343 . S
Tb536 O551 2.353 . S
Tb536 O553 2.427 . S
Tb536 O554 2.513 . S
C537 O541 1.251 1_455 S
C537 O543 1.263 . S
Tb538 O540 2.343 . S
Tb538 O543 2.353 . S
Tb538 O546 2.427 . S
Tb538 O547 2.513 . S
Tb538 O548 2.453 . S
Tb538 O549 2.596 1_455 S
Tb538 O550 2.374 . S
O539 Tb536 2.453 1_455 S
O539 C555 1.245 . S
O540 Tb536 2.596 1_455 S
O540 Tb538 2.343 . S
O540 C555 1.259 . S
O541 Tb536 2.374 . S
O541 C537 1.251 1_655 S
C542 O546 1.275 . S
C542 O547 1.246 . S
O543 C537 1.263 . S
O543 Tb538 2.353 . S
C544 O548 1.245 1_655 S
C544 O549 1.259 . S
C545 O550 1.250 . S
C545 O551 1.263 1_455 S
O546 Tb538 2.427 . S
O546 C542 1.275 . S
O547 Tb538 2.513 . S
O547 C542 1.246 . S
O548 Tb538 2.453 . S
O548 C544 1.245 1_455 S
O549 Tb536 2.343 . S
O549 Tb538 2.596 1_655 S
O549 C544 1.259 . S
O550 Tb538 2.374 . S
O550 C545 1.250 . S
O551 Tb536 2.353 . S
O551 C545 1.263 1_655 S
C552 O553 1.275 . S
C552 O554 1.246 . S
O553 Tb536 2.427 . S
O553 C552 1.275 . S
O554 Tb536 2.513 . S
O554 C552 1.246 . S
C555 O539 1.245 . S
C555 O540 1.259 . S
Tb556 O559 2.453 . S
Tb556 O560 2.596 . S
Tb556 O561 2.374 . S
Tb556 O569 2.343 . S
Tb556 O571 2.353 . S
Tb556 O573 2.427 . S
Tb556 O574 2.513 . S
C557 O561 1.251 . S
C557 O563 1.263 . S
Tb558 O560 2.343 . S
Tb558 O563 2.353 . S
Tb558 O566 2.427 . S
Tb558 O567 2.513 . S
Tb558 O568 2.453 . S
Tb558 O569 2.596 . S
Tb558 O570 2.374 . S
O559 Tb556 2.453 . S
O559 C575 1.245 . S
O560 Tb556 2.596 . S
O560 Tb558 2.343 . S
O560 C575 1.259 . S
O561 Tb556 2.374 . S
O561 C557 1.251 . S
C562 O566 1.275 . S
C562 O567 1.246 . S
O563 C557 1.263 . S
O563 Tb558 2.353 . S
C564 O568 1.245 . S
C564 O569 1.259 . S
C565 O570 1.250 . S
C565 O571 1.263 . S
O566 Tb558 2.427 . S
O566 C562 1.275 . S
O567 Tb558 2.513 . S
O567 C562 1.246 . S
O568 Tb558 2.453 . S
O568 C564 1.245 . S
O569 Tb556 2.343 . S
O569 Tb558 2.596 . S
O569 C564 1.259 . S
O570 Tb558 2.374 . S
O570 C565 1.250 . S
O571 Tb556 2.353 . S
O571 C565 1.263 . S
C572 O573 1.275 . S
C572 O574 1.246 . S
O573 Tb556 2.427 . S
O573 C572 1.275 . S
O574 Tb556 2.513 . S
O574 C572 1.246 . S
C575 O559 1.245 . S
C575 O560 1.259 . S
Tb576 O579 2.453 . S
Tb576 O580 2.596 . S
Tb576 O581 2.374 . S
Tb576 O589 2.343 . S
Tb576 O591 2.353 . S
Tb576 O593 2.427 . S
Tb576 O594 2.513 . S
C577 O581 1.251 . S
C577 O583 1.263 . S
Tb578 O580 2.343 . S
Tb578 O583 2.353 . S
Tb578 O586 2.427 . S
Tb578 O587 2.513 . S
Tb578 O588 2.453 . S
Tb578 O589 2.596 . S
Tb578 O590 2.374 . S
O579 Tb576 2.453 . S
O579 C595 1.245 . S
O580 Tb576 2.596 . S
O580 Tb578 2.343 . S
O580 C595 1.259 . S
O581 Tb576 2.374 . S
O581 C577 1.251 . S
C582 O586 1.275 . S
C582 O587 1.246 . S
O583 C577 1.263 . S
O583 Tb578 2.353 . S
C584 O588 1.245 . S
C584 O589 1.259 . S
C585 O590 1.250 . S
C585 O591 1.263 . S
O586 Tb578 2.427 . S
O586 C582 1.275 . S
O587 Tb578 2.513 . S
O587 C582 1.246 . S
O588 Tb578 2.453 . S
O588 C584 1.245 . S
O589 Tb576 2.343 . S
O589 Tb578 2.596 . S
O589 C584 1.259 . S
O590 Tb578 2.374 . S
O590 C585 1.250 . S
O591 Tb576 2.353 . S
O591 C585 1.263 . S
C592 O593 1.275 . S
C592 O594 1.246 . S
O593 Tb576 2.427 . S
O593 C592 1.275 . S
O594 Tb576 2.513 . S
O594 C592 1.246 . S
C595 O579 1.245 . S
C595 O580 1.259 . S
Tb596 O599 2.453 . S
Tb596 O600 2.596 . S
Tb596 O601 2.374 . S
Tb596 O609 2.343 . S
Tb596 O611 2.353 . S
Tb596 O613 2.427 . S
Tb596 O614 2.513 . S
C597 O601 1.251 . S
C597 O603 1.263 . S
Tb598 O600 2.343 . S
Tb598 O603 2.353 . S
Tb598 O606 2.427 . S
Tb598 O607 2.513 . S
Tb598 O608 2.453 . S
Tb598 O609 2.596 . S
Tb598 O610 2.374 . S
O599 Tb596 2.453 . S
O599 C615 1.245 . S
O600 Tb596 2.596 . S
O600 Tb598 2.343 . S
O600 C615 1.259 . S
O601 Tb596 2.374 . S
O601 C597 1.251 . S
C602 O606 1.275 . S
C602 O607 1.246 . S
O603 C597 1.263 . S
O603 Tb598 2.353 . S
C604 O608 1.245 . S
C604 O609 1.259 . S
C605 O610 1.250 . S
C605 O611 1.263 . S
O606 Tb598 2.427 . S
O606 C602 1.275 . S
O607 Tb598 2.513 . S
O607 C602 1.246 . S
O608 Tb598 2.453 . S
O608 C604 1.245 . S
O609 Tb596 2.343 . S
O609 Tb598 2.596 . S
O609 C604 1.259 . S
O610 Tb598 2.374 . S
O610 C605 1.250 . S
O611 Tb596 2.353 . S
O611 C605 1.263 . S
C612 O613 1.275 . S
C612 O614 1.246 . S
O613 Tb596 2.427 . S
O613 C612 1.275 . S
O614 Tb596 2.513 . S
O614 C612 1.246 . S
C615 O599 1.245 . S
C615 O600 1.259 . S
Tb616 O619 2.453 . S
Tb616 O620 2.596 . S
Tb616 O621 2.374 . S
Tb616 O629 2.343 . S
Tb616 O631 2.353 . S
Tb616 O633 2.427 . S
Tb616 O634 2.513 . S
C617 O621 1.251 . S
C617 O623 1.263 . S
Tb618 O620 2.343 . S
Tb618 O623 2.353 . S
Tb618 O626 2.427 . S
Tb618 O627 2.513 . S
Tb618 O628 2.453 . S
Tb618 O629 2.596 . S
Tb618 O630 2.374 . S
O619 Tb616 2.453 . S
O619 C635 1.245 . S
O620 Tb616 2.596 . S
O620 Tb618 2.343 . S
O620 C635 1.259 . S
O621 Tb616 2.374 . S
O621 C617 1.251 . S
C622 O626 1.275 . S
C622 O627 1.246 . S
O623 C617 1.263 . S
O623 Tb618 2.353 . S
C624 O628 1.245 . S
C624 O629 1.259 . S
C625 O630 1.250 . S
C625 O631 1.263 . S
O626 Tb618 2.427 . S
O626 C622 1.275 . S
O627 Tb618 2.513 . S
O627 C622 1.246 . S
O628 Tb618 2.453 . S
O628 C624 1.245 . S
O629 Tb616 2.343 . S
O629 Tb618 2.596 . S
O629 C624 1.259 . S
O630 Tb618 2.374 . S
O630 C625 1.250 . S
O631 Tb616 2.353 . S
O631 C625 1.263 . S
C632 O633 1.275 . S
C632 O634 1.246 . S
O633 Tb616 2.427 . S
O633 C632 1.275 . S
O634 Tb616 2.513 . S
O634 C632 1.246 . S
C635 O619 1.245 . S
C635 O620 1.259 . S
Tb636 O639 2.453 . S
Tb636 O640 2.596 . S
Tb636 O641 2.374 . S
Tb636 O649 2.343 . S
Tb636 O651 2.353 1_554 S
Tb636 O653 2.427 1_554 S
Tb636 O654 2.513 . S
C637 O641 1.251 . S
C637 O643 1.263 1_455 S
Tb638 O640 2.343 1_655 S
Tb638 O643 2.353 . S
Tb638 O646 2.427 . S
Tb638 O647 2.513 . S
Tb638 O648 2.453 . S
Tb638 O649 2.596 1_655 S
Tb638 O650 2.374 1_554 S
O639 Tb636 2.453 . S
O639 C655 1.245 . S
O640 Tb636 2.596 . S
O640 Tb638 2.343 1_455 S
O640 C655 1.259 . S
O641 Tb636 2.374 . S
O641 C637 1.251 . S
C642 O646 1.275 . S
C642 O647 1.246 . S
O643 C637 1.263 1_655 S
O643 Tb638 2.353 . S
C644 O648 1.246 1_556 S
C644 O649 1.260 1_656 S
C645 O650 1.250 . S
C645 O651 1.263 1_655 S
O646 Tb638 2.427 . S
O646 C642 1.275 . S
O647 Tb638 2.513 . S
O647 C642 1.246 . S
O648 Tb638 2.453 . S
O648 C644 1.246 1_554 S
O649 Tb636 2.343 . S
O649 Tb638 2.596 1_455 S
O649 C644 1.260 1_454 S
O650 Tb638 2.374 1_556 S
O650 C645 1.250 . S
O651 Tb636 2.353 1_556 S
O651 C645 1.263 1_455 S
C652 O653 1.253 1_554 S
C652 O654 1.277 . S
O653 Tb636 2.427 1_556 S
O653 C652 1.253 1_556 S
O654 Tb636 2.513 . S
O654 C652 1.277 . S
C655 O639 1.245 . S
C655 O640 1.259 . S
H656 C664 0.929 . S
H657 C666 0.930 . S
H658 C668 0.930 . S
H659 C671 0.929 . S
H660 C674 0.930 . S
H661 C676 0.960 . S
H662 C676 0.960 . S
H663 C676 0.960 . S
C664 H656 0.929 . S
C664 C665 1.377 1_655 S
C664 C666 1.384 . S
C665 C664 1.377 1_455 S
C665 C671 1.390 . S
C666 H657 0.930 . S
C666 C664 1.384 . S
C666 C667 1.372 1_655 S
C667 C666 1.372 1_455 S
C667 C668 1.400 . S
C667 C672 1.490 . S
C668 H658 0.930 . S
C668 C667 1.400 . S
C668 C671 1.386 . S
H669 C685 0.930 . S
H670 C686 0.931 . S
C671 H659 0.929 . S
C671 C665 1.390 . S
C671 C668 1.386 . S
C672 C667 1.490 . S
C672 C674 1.395 1_455 S
C672 C675 1.403 . S
H673 C679 0.930 . S
C674 H660 0.930 . S
C674 C672 1.395 1_655 S
C674 C677 1.403 . S
C675 C672 1.403 . S
C675 C676 1.524 . S
C675 C679 1.400 . S
C676 H661 0.960 . S
C676 H662 0.960 . S
C676 H663 0.960 . S
C676 C675 1.524 . S
C677 C674 1.403 . S
C677 C678 1.399 . S
C677 C681 1.495 . S
C678 C677 1.399 . S
C678 C679 1.379 1_655 S
C678 C680 1.480 . S
C679 H673 0.930 . S
C679 C675 1.400 . S
C679 C678 1.379 1_455 S
C680 C678 1.480 . S
C680 C682 1.400 . S
C680 C686 1.359 1_655 S
C681 C677 1.495 . S
C681 H687 0.959 . S
C681 H688 0.961 . S
C681 H689 0.960 . S
C682 C680 1.400 . S
C682 C683 1.369 1_556 S
C682 H690 0.930 . S
C683 C682 1.369 1_554 S
C683 C684 1.370 1_654 S
C683 H691 0.969 . S
C684 C683 1.370 1_456 S
C684 C685 1.377 . S
C685 H669 0.930 . S
C685 C684 1.377 . S
C685 C686 1.379 . S
C686 H670 0.931 . S
C686 C680 1.359 1_455 S
C686 C685 1.379 . S
H687 C681 0.959 . S
H688 C681 0.961 . S
H689 C681 0.960 . S
H690 C682 0.930 . S
H691 C683 0.969 . S
H692 C700 0.929 . S
H693 C702 0.930 . S
H694 C704 0.930 . S
H695 C707 0.929 . S
H696 C710 0.930 . S
H697 C712 0.960 . S
H698 C712 0.960 . S
H699 C712 0.960 . S
C700 H692 0.929 . S
C700 C701 1.377 . S
C700 C702 1.384 . S
C701 C700 1.377 . S
C701 C707 1.390 . S
C702 H693 0.930 . S
C702 C700 1.384 . S
C702 C703 1.372 . S
C703 C702 1.372 . S
C703 C704 1.400 . S
C703 C708 1.490 . S
C704 H694 0.930 . S
C704 C703 1.400 . S
C704 C707 1.386 . S
H705 C721 0.930 . S
H706 C722 0.931 . S
C707 H695 0.929 . S
C707 C701 1.390 . S
C707 C704 1.386 . S
C708 C703 1.490 . S
C708 C710 1.395 . S
C708 C711 1.403 . S
H709 C715 0.930 . S
C710 H696 0.930 . S
C710 C708 1.395 . S
C710 C713 1.403 . S
C711 C708 1.403 . S
C711 C712 1.524 . S
C711 C715 1.400 . S
C712 H697 0.960 . S
C712 H698 0.960 . S
C712 H699 0.960 . S
C712 C711 1.524 . S
C713 C710 1.403 . S
C713 C714 1.392 . S
C713 C717 1.495 . S
C714 C713 1.392 . S
C714 C715 1.385 . S
C714 C716 1.478 . S
C715 H709 0.930 . S
C715 C711 1.400 . S
C715 C714 1.385 . S
C716 C714 1.478 . S
C716 C718 1.381 . S
C716 C722 1.383 . S
C717 C713 1.495 . S
C717 H723 0.959 . S
C717 H724 0.961 . S
C717 H725 0.960 . S
C718 C716 1.381 . S
C718 C719 1.394 . S
C718 H726 0.930 . S
C719 C718 1.394 . S
C719 C720 1.383 . S
C719 H727 0.929 . S
C720 C719 1.383 . S
C720 C721 1.377 . S
C721 H705 0.930 . S
C721 C720 1.377 . S
C721 C722 1.379 . S
C722 H706 0.931 . S
C722 C716 1.383 . S
C722 C721 1.379 . S
H723 C717 0.959 . S
H724 C717 0.961 . S
H725 C717 0.960 . S
H726 C718 0.930 . S
H727 C719 0.929 . S
H728 C736 0.929 . S
H729 C738 0.930 . S
H730 C740 0.930 . S
H731 C743 0.929 . S
H732 C746 0.930 . S
H733 C748 0.960 . S
H734 C748 0.960 . S
H735 C748 0.960 . S
C736 H728 0.929 . S
C736 C737 1.377 . S
C736 C738 1.384 . S
C737 C736 1.377 . S
C737 C743 1.390 . S
C738 H729 0.930 . S
C738 C736 1.384 . S
C738 C739 1.372 . S
C739 C738 1.372 . S
C739 C740 1.400 . S
C739 C744 1.490 . S
C740 H730 0.930 . S
C740 C739 1.400 . S
C740 C743 1.386 . S
H741 C757 0.930 . S
H742 C758 0.931 . S
C743 H731 0.929 . S
C743 C737 1.390 . S
C743 C740 1.386 . S
C744 C739 1.490 . S
C744 C746 1.395 . S
C744 C747 1.403 . S
H745 C751 0.930 . S
C746 H732 0.930 . S
C746 C744 1.395 . S
C746 C749 1.403 . S
C747 C744 1.403 . S
C747 C748 1.524 . S
C747 C751 1.400 . S
C748 H733 0.960 . S
C748 H734 0.960 . S
C748 H735 0.960 . S
C748 C747 1.524 . S
C749 C746 1.403 . S
C749 C750 1.392 . S
C749 C753 1.495 . S
C750 C749 1.392 . S
C750 C751 1.385 . S
C750 C752 1.478 . S
C751 H745 0.930 . S
C751 C747 1.400 . S
C751 C750 1.385 . S
C752 C750 1.478 . S
C752 C754 1.381 . S
C752 C758 1.383 . S
C753 C749 1.495 . S
C753 H759 0.959 . S
C753 H760 0.961 . S
C753 H761 0.960 . S
C754 C752 1.381 . S
C754 C755 1.394 . S
C754 H762 0.930 . S
C755 C754 1.394 . S
C755 C756 1.383 . S
C755 H763 0.929 . S
C756 C755 1.383 . S
C756 C757 1.377 . S
C757 H741 0.930 . S
C757 C756 1.377 . S
C757 C758 1.379 . S
C758 H742 0.931 . S
C758 C752 1.383 . S
C758 C757 1.379 . S
H759 C753 0.959 . S
H760 C753 0.961 . S
H761 C753 0.960 . S
H762 C754 0.930 . S
H763 C755 0.929 . S
H764 C772 0.929 . S
H765 C774 0.930 . S
H766 C776 0.930 . S
H767 C779 0.929 . S
H768 C782 0.930 . S
H769 C784 0.960 . S
H770 C784 0.960 . S
H771 C784 0.960 . S
C772 H764 0.929 . S
C772 C773 1.377 . S
C772 C774 1.384 . S
C773 C772 1.377 . S
C773 C779 1.390 . S
C774 H765 0.930 . S
C774 C772 1.384 . S
C774 C775 1.372 . S
C775 C774 1.372 . S
C775 C776 1.400 . S
C775 C780 1.490 . S
C776 H766 0.930 . S
C776 C775 1.400 . S
C776 C779 1.386 . S
H777 C793 0.930 . S
H778 C794 0.931 . S
C779 H767 0.929 . S
C779 C773 1.390 . S
C779 C776 1.386 . S
C780 C775 1.490 . S
C780 C782 1.395 . S
C780 C783 1.403 . S
H781 C787 0.930 . S
C782 H768 0.930 . S
C782 C780 1.395 . S
C782 C785 1.403 . S
C783 C780 1.403 . S
C783 C784 1.524 . S
C783 C787 1.400 . S
C784 H769 0.960 . S
C784 H770 0.960 . S
C784 H771 0.960 . S
C784 C783 1.524 . S
C785 C782 1.403 . S
C785 C786 1.392 . S
C785 C789 1.495 . S
C786 C785 1.392 . S
C786 C787 1.385 . S
C786 C788 1.478 . S
C787 H781 0.930 . S
C787 C783 1.400 . S
C787 C786 1.385 . S
C788 C786 1.478 . S
C788 C790 1.381 . S
C788 C794 1.383 . S
C789 C785 1.495 . S
C789 H795 0.959 . S
C789 H796 0.961 . S
C789 H797 0.960 . S
C790 C788 1.381 . S
C790 C791 1.394 . S
C790 H798 0.930 . S
C791 C790 1.394 . S
C791 C792 1.383 . S
C791 H799 0.929 . S
C792 C791 1.383 . S
C792 C793 1.377 . S
C793 H777 0.930 . S
C793 C792 1.377 . S
C793 C794 1.379 . S
C794 H778 0.931 . S
C794 C788 1.383 . S
C794 C793 1.379 . S
H795 C789 0.959 . S
H796 C789 0.961 . S
H797 C789 0.960 . S
H798 C790 0.930 . S
H799 C791 0.929 . S
H800 C808 0.929 . S
H801 C810 0.930 . S
H802 C812 0.930 . S
H803 C815 0.929 . S
H804 C818 0.930 . S
H805 C820 0.960 . S
H806 C820 0.960 . S
H807 C820 0.960 . S
C808 H800 0.929 . S
C808 C809 1.377 1_655 S
C808 C810 1.384 . S
C809 C808 1.377 1_455 S
C809 C815 1.390 . S
C810 H801 0.930 . S
C810 C808 1.384 . S
C810 C811 1.372 1_655 S
C811 C810 1.372 1_455 S
C811 C812 1.400 . S
C811 C816 1.490 . S
C812 H802 0.930 . S
C812 C811 1.400 . S
C812 C815 1.386 . S
H813 C829 0.930 . S
H814 C830 0.931 . S
C815 H803 0.929 . S
C815 C809 1.390 . S
C815 C812 1.386 . S
C816 C811 1.490 . S
C816 C818 1.395 1_455 S
C816 C819 1.403 . S
H817 C823 0.930 . S
C818 H804 0.930 . S
C818 C816 1.395 1_655 S
C818 C821 1.403 . S
C819 C816 1.403 . S
C819 C820 1.524 . S
C819 C823 1.400 . S
C820 H805 0.960 . S
C820 H806 0.960 . S
C820 H807 0.960 . S
C820 C819 1.524 . S
C821 C818 1.403 . S
C821 C822 1.360 1_655 S
C821 C825 1.495 . S
C822 C821 1.360 1_455 S
C822 C823 1.424 . S
C822 C824 1.475 . S
C823 H817 0.930 . S
C823 C819 1.400 . S
C823 C822 1.424 . S
C824 C822 1.475 . S
C824 C826 1.381 1_455 S
C824 C830 1.383 . S
C825 C821 1.495 . S
C825 H831 0.959 . S
C825 H832 0.961 . S
C825 H833 0.960 . S
C826 C824 1.381 1_655 S
C826 C827 1.394 . S
C826 H834 0.930 . S
C827 C826 1.394 . S
C827 C828 1.383 1_655 S
C827 H835 0.929 . S
C828 C827 1.383 1_455 S
C828 C829 1.377 . S
C829 H813 0.930 . S
C829 C828 1.377 . S
C829 C830 1.379 . S
C830 H814 0.931 . S
C830 C824 1.383 . S
C830 C829 1.379 . S
H831 C825 0.959 . S
H832 C825 0.961 . S
H833 C825 0.960 . S
H834 C826 0.930 . S
H835 C827 0.929 . S
H836 C844 0.929 . S
H837 C846 0.930 . S
H838 C848 0.930 . S
H839 C851 0.929 . S
H840 C854 0.930 . S
H841 C856 0.960 . S
H842 C856 0.960 . S
H843 C856 0.960 . S
C844 H836 0.929 . S
C844 C845 1.377 . S
C844 C846 1.384 . S
C845 C844 1.377 . S
C845 C851 1.390 . S
C846 H837 0.930 . S
C846 C844 1.384 . S
C846 C847 1.372 . S
C847 C846 1.372 . S
C847 C848 1.400 . S
C847 C852 1.490 . S
C848 H838 0.930 . S
C848 C847 1.400 . S
C848 C851 1.386 . S
H849 C865 0.930 . S
H850 C866 0.931 . S
C851 H839 0.929 . S
C851 C845 1.390 . S
C851 C848 1.386 . S
C852 C847 1.490 . S
C852 C854 1.395 . S
C852 C855 1.403 . S
H853 C859 0.930 . S
C854 H840 0.930 . S
C854 C852 1.395 . S
C854 C857 1.403 . S
C855 C852 1.403 . S
C855 C856 1.524 . S
C855 C859 1.400 . S
C856 H841 0.960 . S
C856 H842 0.960 . S
C856 H843 0.960 . S
C856 C855 1.524 . S
C857 C854 1.403 . S
C857 C858 1.392 . S
C857 C861 1.495 . S
C858 C857 1.392 . S
C858 C859 1.385 . S
C858 C860 1.478 . S
C859 H853 0.930 . S
C859 C855 1.400 . S
C859 C858 1.385 . S
C860 C858 1.478 . S
C860 C862 1.381 . S
C860 C866 1.383 . S
C861 C857 1.495 . S
C861 H867 0.959 . S
C861 H868 0.961 . S
C861 H869 0.960 . S
C862 C860 1.381 . S
C862 C863 1.394 . S
C862 H870 0.930 . S
C863 C862 1.394 . S
C863 C864 1.383 . S
C863 H871 0.929 . S
C864 C863 1.383 . S
C864 C865 1.377 . S
C865 H849 0.930 . S
C865 C864 1.377 . S
C865 C866 1.379 . S
C866 H850 0.931 . S
C866 C860 1.383 . S
C866 C865 1.379 . S
H867 C861 0.959 . S
H868 C861 0.961 . S
H869 C861 0.960 . S
H870 C862 0.930 . S
H871 C863 0.929 . S
H872 C880 0.929 . S
H873 C882 0.930 . S
H874 C884 0.930 . S
H875 C887 0.929 . S
H876 C890 0.930 . S
H877 C892 0.960 . S
H878 C892 0.960 . S
H879 C892 0.960 . S
C880 H872 0.929 . S
C880 C881 1.377 . S
C880 C882 1.384 . S
C881 C880 1.377 . S
C881 C887 1.390 . S
C882 H873 0.930 . S
C882 C880 1.384 . S
C882 C883 1.372 . S
C883 C882 1.372 . S
C883 C884 1.400 . S
C883 C888 1.490 . S
C884 H874 0.930 . S
C884 C883 1.400 . S
C884 C887 1.386 . S
H885 C901 0.930 . S
H886 C902 0.931 . S
C887 H875 0.929 . S
C887 C881 1.390 . S
C887 C884 1.386 . S
C888 C883 1.490 . S
C888 C890 1.395 . S
C888 C891 1.403 . S
H889 C895 0.930 . S
C890 H876 0.930 . S
C890 C888 1.395 . S
C890 C893 1.403 . S
C891 C888 1.403 . S
C891 C892 1.524 . S
C891 C895 1.400 . S
C892 H877 0.960 . S
C892 H878 0.960 . S
C892 H879 0.960 . S
C892 C891 1.524 . S
C893 C890 1.403 . S
C893 C894 1.392 . S
C893 C897 1.495 . S
C894 C893 1.392 . S
C894 C895 1.385 . S
C894 C896 1.478 . S
C895 H889 0.930 . S
C895 C891 1.400 . S
C895 C894 1.385 . S
C896 C894 1.478 . S
C896 C898 1.381 . S
C896 C902 1.383 . S
C897 C893 1.495 . S
C897 H903 0.959 . S
C897 H904 0.961 . S
C897 H905 0.960 . S
C898 C896 1.381 . S
C898 C899 1.394 . S
C898 H906 0.930 . S
C899 C898 1.394 . S
C899 C900 1.383 . S
C899 H907 0.929 . S
C900 C899 1.383 . S
C900 C901 1.377 . S
C901 H885 0.930 . S
C901 C900 1.377 . S
C901 C902 1.379 . S
C902 H886 0.931 . S
C902 C896 1.383 . S
C902 C901 1.379 . S
H903 C897 0.959 . S
H904 C897 0.961 . S
H905 C897 0.960 . S
H906 C898 0.930 . S
H907 C899 0.929 . S
H908 C916 0.929 . S
H909 C918 0.930 . S
H910 C920 0.930 . S
H911 C923 0.929 . S
H912 C926 0.930 . S
H913 C928 0.960 . S
H914 C928 0.960 . S
H915 C928 0.960 . S
C916 H908 0.929 . S
C916 C917 1.377 . S
C916 C918 1.384 . S
C917 C916 1.377 . S
C917 C923 1.390 . S
C918 H909 0.930 . S
C918 C916 1.384 . S
C918 C919 1.372 . S
C919 C918 1.372 . S
C919 C920 1.400 . S
C919 C924 1.490 . S
C920 H910 0.930 . S
C920 C919 1.400 . S
C920 C923 1.386 . S
H921 C937 0.930 . S
H922 C938 0.931 . S
C923 H911 0.929 . S
C923 C917 1.390 . S
C923 C920 1.386 . S
C924 C919 1.490 . S
C924 C926 1.395 . S
C924 C927 1.403 . S
H925 C931 0.930 . S
C926 H912 0.930 . S
C926 C924 1.395 . S
C926 C929 1.403 . S
C927 C924 1.403 . S
C927 C928 1.524 . S
C927 C931 1.400 . S
C928 H913 0.960 . S
C928 H914 0.960 . S
C928 H915 0.960 . S
C928 C927 1.524 . S
C929 C926 1.403 . S
C929 C930 1.392 . S
C929 C933 1.495 . S
C930 C929 1.392 . S
C930 C931 1.385 . S
C930 C932 1.478 . S
C931 H925 0.930 . S
C931 C927 1.400 . S
C931 C930 1.385 . S
C932 C930 1.478 . S
C932 C934 1.381 . S
C932 C938 1.383 . S
C933 C929 1.495 . S
C933 H939 0.959 . S
C933 H940 0.961 . S
C933 H941 0.960 . S
C934 C932 1.381 . S
C934 C935 1.394 . S
C934 H942 0.930 . S
C935 C934 1.394 . S
C935 C936 1.383 . S
C935 H943 0.929 . S
C936 C935 1.383 . S
C936 C937 1.377 . S
C937 H921 0.930 . S
C937 C936 1.377 . S
C937 C938 1.379 . S
C938 H922 0.931 . S
C938 C932 1.383 . S
C938 C937 1.379 . S
H939 C933 0.959 . S
H940 C933 0.961 . S
H941 C933 0.960 . S
H942 C934 0.930 . S
H943 C935 0.929 . S
H944 C952 0.929 . S
H945 C954 0.930 . S
H946 C956 0.930 . S
H947 C959 0.929 . S
H948 C962 0.930 . S
H949 C964 0.960 . S
H950 C964 0.960 . S
H951 C964 0.960 . S
C952 H944 0.929 . S
C952 C953 1.377 . S
C952 C954 1.384 . S
C953 C952 1.377 . S
C953 C959 1.390 . S
C954 H945 0.930 . S
C954 C952 1.384 . S
C954 C955 1.372 . S
C955 C954 1.372 . S
C955 C956 1.400 . S
C955 C960 1.490 . S
C956 H946 0.930 . S
C956 C955 1.400 . S
C956 C959 1.386 . S
H957 C973 0.908 1_455 S
H958 C974 0.931 . S
C959 H947 0.929 . S
C959 C953 1.390 . S
C959 C956 1.386 . S
C960 C955 1.490 . S
C960 C962 1.395 . S
C960 C963 1.403 . S
H961 C967 0.930 . S
C962 H948 0.930 . S
C962 C960 1.395 . S
C962 C965 1.403 . S
C963 C960 1.403 . S
C963 C964 1.524 . S
C963 C967 1.400 . S
C964 H949 0.960 . S
C964 H950 0.960 . S
C964 H951 0.960 . S
C964 C963 1.524 . S
C965 C962 1.403 . S
C965 C966 1.392 . S
C965 C969 1.495 . S
C966 C965 1.392 . S
C966 C967 1.385 . S
C966 C968 1.478 . S
C967 H961 0.930 . S
C967 C963 1.400 . S
C967 C966 1.385 . S
C968 C966 1.478 . S
C968 C970 1.381 . S
C968 C974 1.383 . S
C969 C965 1.495 . S
C969 H975 0.959 . S
C969 H976 0.961 . S
C969 H977 0.960 . S
C970 C968 1.381 . S
C970 C971 1.394 . S
C970 H978 0.930 . S
C971 C970 1.394 . S
C971 C972 1.383 . S
C971 H979 0.929 . S
C972 C971 1.383 . S
C972 C973 1.377 . S
C973 H957 0.908 1_655 S
C973 C972 1.377 . S
C973 C974 1.379 . S
C974 H958 0.931 . S
C974 C968 1.383 . S
C974 C973 1.379 . S
H975 C969 0.959 . S
H976 C969 0.961 . S
H977 C969 0.960 . S
H978 C970 0.930 . S
H979 C971 0.929 . S
H980 C988 0.929 . S
H981 C990 0.930 . S
H982 C992 0.930 . S
H983 C995 0.929 . S
H984 C998 0.930 . S
H985 C1000 0.960 . S
H986 C1000 0.960 . S
H987 C1000 0.960 . S
C988 H980 0.929 . S
C988 C989 1.377 . S
C988 C990 1.384 . S
C989 C988 1.377 . S
C989 C995 1.390 . S
C990 H981 0.930 . S
C990 C988 1.384 . S
C990 C991 1.372 . S
C991 C990 1.372 . S
C991 C992 1.400 . S
C991 C996 1.490 . S
C992 H982 0.930 . S
C992 C991 1.400 . S
C992 C995 1.386 . S
H993 C1009 0.930 . S
H994 C1010 0.931 . S
C995 H983 0.929 . S
C995 C989 1.390 . S
C995 C992 1.386 . S
C996 C991 1.490 . S
C996 C998 1.395 . S
C996 C999 1.403 . S
H997 C1003 0.930 . S
C998 H984 0.930 . S
C998 C996 1.395 . S
C998 C1001 1.403 . S
C999 C996 1.403 . S
C999 C1000 1.524 . S
C999 C1003 1.400 . S
C1000 H985 0.960 . S
C1000 H986 0.960 . S
C1000 H987 0.960 . S
C1000 C999 1.524 . S
C1001 C998 1.403 . S
C1001 C1002 1.392 . S
C1001 C1005 1.495 . S
C1002 C1001 1.392 . S
C1002 C1003 1.385 . S
C1002 C1004 1.478 . S
C1003 H997 0.930 . S
C1003 C999 1.400 . S
C1003 C1002 1.385 . S
C1004 C1002 1.478 . S
C1004 C1006 1.381 . S
C1004 C1010 1.383 . S
C1005 C1001 1.495 . S
C1005 H1011 0.959 . S
C1005 H1012 0.961 . S
C1005 H1013 0.960 . S
C1006 C1004 1.381 . S
C1006 C1007 1.394 . S
C1006 H1014 0.930 . S
C1007 C1006 1.394 . S
C1007 C1008 1.383 . S
C1007 H1015 0.929 . S
C1008 C1007 1.383 . S
C1008 C1009 1.377 . S
C1009 H993 0.930 . S
C1009 C1008 1.377 . S
C1009 C1010 1.379 . S
C1010 H994 0.931 . S
C1010 C1004 1.383 . S
C1010 C1009 1.379 . S
H1011 C1005 0.959 . S
H1012 C1005 0.961 . S
H1013 C1005 0.960 . S
H1014 C1006 0.930 . S
H1015 C1007 0.929 . S
H1016 C1024 0.929 . S
H1017 C1026 0.930 . S
H1018 C1028 0.930 . S
H1019 C1031 0.929 . S
H1020 C1034 0.930 . S
H1021 C1036 0.961 1_565 S
H1022 C1036 0.963 1_565 S
H1023 C1036 0.959 . S
C1024 H1016 0.929 . S
C1024 C1025 1.377 . S
C1024 C1026 1.384 . S
C1025 C1024 1.377 . S
C1025 C1031 1.390 . S
C1026 H1017 0.930 . S
C1026 C1024 1.384 . S
C1026 C1027 1.372 . S
C1027 C1026 1.372 . S
C1027 C1028 1.400 . S
C1027 C1032 1.490 . S
C1028 H1018 0.930 . S
C1028 C1027 1.400 . S
C1028 C1031 1.386 . S
H1029 C1045 0.930 . S
H1030 C1046 0.931 . S
C1031 H1019 0.929 . S
C1031 C1025 1.390 . S
C1031 C1028 1.386 . S
C1032 C1027 1.490 . S
C1032 C1034 1.395 . S
C1032 C1035 1.403 . S
H1033 C1039 0.930 . S
C1034 H1020 0.930 . S
C1034 C1032 1.395 . S
C1034 C1037 1.403 . S
C1035 C1032 1.403 . S
C1035 C1036 1.521 . S
C1035 C1039 1.400 . S
C1036 H1021 0.961 1_545 S
C1036 H1022 0.963 1_545 S
C1036 H1023 0.959 . S
C1036 C1035 1.521 . S
C1037 C1034 1.403 . S
C1037 C1038 1.392 . S
C1037 C1041 1.495 . S
C1038 C1037 1.392 . S
C1038 C1039 1.385 . S
C1038 C1040 1.478 . S
C1039 H1033 0.930 . S
C1039 C1035 1.400 . S
C1039 C1038 1.385 . S
C1040 C1038 1.478 . S
C1040 C1042 1.381 . S
C1040 C1046 1.383 . S
C1041 C1037 1.495 . S
C1041 H1047 0.959 . S
C1041 H1048 0.961 . S
C1041 H1049 0.960 . S
C1042 C1040 1.381 . S
C1042 C1043 1.394 . S
C1042 H1050 0.930 . S
C1043 C1042 1.394 . S
C1043 C1044 1.383 . S
C1043 H1051 0.929 . S
C1044 C1043 1.383 . S
C1044 C1045 1.377 . S
C1045 H1029 0.930 . S
C1045 C1044 1.377 . S
C1045 C1046 1.379 . S
C1046 H1030 0.931 . S
C1046 C1040 1.383 . S
C1046 C1045 1.379 . S
H1047 C1041 0.959 . S
H1048 C1041 0.961 . S
H1049 C1041 0.960 . S
H1050 C1042 0.930 . S
H1051 C1043 0.929 . S
H1052 C1060 0.929 . S
H1053 C1062 0.930 . S
H1054 C1064 0.930 . S
H1055 C1067 0.929 . S
H1056 C1070 0.930 . S
H1057 C1072 0.960 . S
H1058 C1072 0.960 . S
H1059 C1072 0.960 . S
C1060 H1052 0.929 . S
C1060 C1061 1.377 . S
C1060 C1062 1.384 . S
C1061 C1060 1.377 . S
C1061 C1067 1.390 . S
C1062 H1053 0.930 . S
C1062 C1060 1.384 . S
C1062 C1063 1.372 . S
C1063 C1062 1.372 . S
C1063 C1064 1.400 . S
C1063 C1068 1.490 . S
C1064 H1054 0.930 . S
C1064 C1063 1.400 . S
C1064 C1067 1.386 . S
H1065 C1081 0.930 . S
H1066 C1082 0.931 . S
C1067 H1055 0.929 . S
C1067 C1061 1.390 . S
C1067 C1064 1.386 . S
C1068 C1063 1.490 . S
C1068 C1070 1.395 . S
C1068 C1071 1.403 . S
H1069 C1075 0.930 . S
C1070 H1056 0.930 . S
C1070 C1068 1.395 . S
C1070 C1073 1.403 . S
C1071 C1068 1.403 . S
C1071 C1072 1.524 . S
C1071 C1075 1.400 . S
C1072 H1057 0.960 . S
C1072 H1058 0.960 . S
C1072 H1059 0.960 . S
C1072 C1071 1.524 . S
C1073 C1070 1.403 . S
C1073 C1074 1.392 . S
C1073 C1077 1.495 . S
C1074 C1073 1.392 . S
C1074 C1075 1.385 . S
C1074 C1076 1.478 . S
C1075 H1069 0.930 . S
C1075 C1071 1.400 . S
C1075 C1074 1.385 . S
C1076 C1074 1.478 . S
C1076 C1078 1.381 . S
C1076 C1082 1.383 . S
C1077 C1073 1.495 . S
C1077 H1083 0.959 . S
C1077 H1084 0.961 . S
C1077 H1085 0.960 . S
C1078 C1076 1.381 . S
C1078 C1079 1.394 . S
C1078 H1086 0.930 . S
C1079 C1078 1.394 . S
C1079 C1080 1.383 . S
C1079 H1087 0.929 . S
C1080 C1079 1.383 . S
C1080 C1081 1.377 . S
C1081 H1065 0.930 . S
C1081 C1080 1.377 . S
C1081 C1082 1.379 . S
C1082 H1066 0.931 . S
C1082 C1076 1.383 . S
C1082 C1081 1.379 . S
H1083 C1077 0.959 . S
H1084 C1077 0.961 . S
H1085 C1077 0.960 . S
H1086 C1078 0.930 . S
H1087 C1079 0.929 . S
H1088 C1096 0.929 . S
H1089 C1098 0.930 . S
H1090 C1100 0.930 . S
H1091 C1103 0.929 . S
H1092 C1106 0.930 . S
H1093 C1108 0.960 . S
H1094 C1108 0.960 . S
H1095 C1108 0.960 . S
C1096 H1088 0.929 . S
C1096 C1097 1.377 . S
C1096 C1098 1.384 . S
C1097 C1096 1.377 . S
C1097 C1103 1.390 . S
C1098 H1089 0.930 . S
C1098 C1096 1.384 . S
C1098 C1099 1.372 . S
C1099 C1098 1.372 . S
C1099 C1100 1.400 . S
C1099 C1104 1.490 . S
C1100 H1090 0.930 . S
C1100 C1099 1.400 . S
C1100 C1103 1.386 . S
H1101 C1117 0.930 1_455 S
H1102 C1118 0.931 . S
C1103 H1091 0.929 . S
C1103 C1097 1.390 . S
C1103 C1100 1.386 . S
C1104 C1099 1.490 . S
C1104 C1106 1.395 . S
C1104 C1107 1.403 . S
H1105 C1111 0.930 . S
C1106 H1092 0.930 . S
C1106 C1104 1.395 . S
C1106 C1109 1.403 . S
C1107 C1104 1.403 . S
C1107 C1108 1.524 . S
C1107 C1111 1.400 . S
C1108 H1093 0.960 . S
C1108 H1094 0.960 . S
C1108 H1095 0.960 . S
C1108 C1107 1.524 . S
C1109 C1106 1.403 . S
C1109 C1110 1.392 . S
C1109 C1113 1.495 . S
C1110 C1109 1.392 . S
C1110 C1111 1.385 . S
C1110 C1112 1.478 . S
C1111 H1105 0.930 . S
C1111 C1107 1.400 . S
C1111 C1110 1.385 . S
C1112 C1110 1.478 . S
C1112 C1114 1.381 . S
C1112 C1118 1.383 . S
C1113 C1109 1.495 . S
C1113 H1119 0.962 1_545 S
C1113 H1120 0.961 . S
C1113 H1121 0.960 . S
C1114 C1112 1.381 . S
C1114 C1115 1.394 . S
C1114 H1122 0.930 . S
C1115 C1114 1.394 . S
C1115 C1116 1.383 . S
C1115 H1123 0.929 . S
C1116 C1115 1.383 . S
C1116 C1117 1.377 . S
C1117 H1101 0.930 1_655 S
C1117 C1116 1.377 . S
C1117 C1118 1.379 . S
C1118 H1102 0.931 . S
C1118 C1112 1.383 . S
C1118 C1117 1.379 . S
H1119 C1113 0.962 1_565 S
H1120 C1113 0.961 . S
H1121 C1113 0.960 . S
H1122 C1114 0.930 . S
H1123 C1115 0.929 . S
H1124 C1132 0.929 . S
H1125 C1134 0.930 . S
H1126 C1136 0.930 . S
H1127 C1139 0.929 . S
H1128 C1142 0.930 . S
H1129 C1144 0.960 . S
H1130 C1144 0.960 . S
H1131 C1144 0.960 . S
C1132 H1124 0.929 . S
C1132 C1133 1.377 . S
C1132 C1134 1.384 . S
C1133 C1132 1.377 . S
C1133 C1139 1.390 . S
C1134 H1125 0.930 . S
C1134 C1132 1.384 . S
C1134 C1135 1.372 . S
C1135 C1134 1.372 . S
C1135 C1136 1.400 . S
C1135 C1140 1.490 . S
C1136 H1126 0.930 . S
C1136 C1135 1.400 . S
C1136 C1139 1.386 . S
H1137 C1153 0.930 . S
H1138 C1154 0.931 . S
C1139 H1127 0.929 . S
C1139 C1133 1.390 . S
C1139 C1136 1.386 . S
C1140 C1135 1.490 . S
C1140 C1142 1.395 . S
C1140 C1143 1.403 . S
H1141 C1147 0.930 . S
C1142 H1128 0.930 . S
C1142 C1140 1.395 . S
C1142 C1145 1.403 . S
C1143 C1140 1.403 . S
C1143 C1144 1.524 . S
C1143 C1147 1.400 . S
C1144 H1129 0.960 . S
C1144 H1130 0.960 . S
C1144 H1131 0.960 . S
C1144 C1143 1.524 . S
C1145 C1142 1.403 . S
C1145 C1146 1.392 . S
C1145 C1149 1.495 . S
C1146 C1145 1.392 . S
C1146 C1147 1.385 . S
C1146 C1148 1.478 . S
C1147 H1141 0.930 . S
C1147 C1143 1.400 . S
C1147 C1146 1.385 . S
C1148 C1146 1.478 . S
C1148 C1150 1.381 . S
C1148 C1154 1.383 . S
C1149 C1145 1.495 . S
C1149 H1155 0.959 . S
C1149 H1156 0.961 . S
C1149 H1157 0.960 . S
C1150 C1148 1.381 . S
C1150 C1151 1.394 . S
C1150 H1158 0.930 . S
C1151 C1150 1.394 . S
C1151 C1152 1.383 . S
C1151 H1159 0.929 . S
C1152 C1151 1.383 . S
C1152 C1153 1.377 . S
C1153 H1137 0.930 . S
C1153 C1152 1.377 . S
C1153 C1154 1.379 . S
C1154 H1138 0.931 . S
C1154 C1148 1.383 . S
C1154 C1153 1.379 . S
H1155 C1149 0.959 . S
H1156 C1149 0.961 . S
H1157 C1149 0.960 . S
H1158 C1150 0.930 . S
H1159 C1151 0.929 . S
H1160 C1168 0.929 1_565 S
H1161 C1170 0.930 . S
H1162 C1172 0.930 . S
H1163 C1175 0.929 . S
H1164 C1178 0.930 . S
H1165 C1180 0.960 . S
H1166 C1180 1.004 . S
H1167 C1180 0.960 . S
C1168 H1160 0.929 1_545 S
C1168 C1169 1.377 . S
C1168 C1170 1.384 . S
C1169 C1168 1.377 . S
C1169 C1175 1.390 . S
C1170 H1161 0.930 . S
C1170 C1168 1.384 . S
C1170 C1171 1.372 . S
C1171 C1170 1.372 . S
C1171 C1172 1.400 . S
C1171 C1176 1.490 . S
C1172 H1162 0.930 . S
C1172 C1171 1.400 . S
C1172 C1175 1.386 . S
H1173 C1189 0.930 . S
H1174 C1190 0.931 . S
C1175 H1163 0.929 . S
C1175 C1169 1.390 . S
C1175 C1172 1.386 . S
C1176 C1171 1.490 . S
C1176 C1178 1.395 . S
C1176 C1179 1.403 . S
H1177 C1183 0.930 . S
C1178 H1164 0.930 . S
C1178 C1176 1.395 . S
C1178 C1181 1.403 . S
C1179 C1176 1.403 . S
C1179 C1180 1.524 . S
C1179 C1183 1.400 . S
C1180 H1165 0.960 . S
C1180 H1166 1.004 . S
C1180 H1167 0.960 . S
C1180 C1179 1.524 . S
C1181 C1178 1.403 . S
C1181 C1182 1.392 . S
C1181 C1185 1.495 . S
C1182 C1181 1.392 . S
C1182 C1183 1.385 . S
C1182 C1184 1.478 . S
C1183 H1177 0.930 . S
C1183 C1179 1.400 . S
C1183 C1182 1.385 . S
C1184 C1182 1.478 . S
C1184 C1186 1.381 . S
C1184 C1190 1.383 . S
C1185 C1181 1.495 . S
C1185 H1191 0.959 . S
C1185 H1192 0.961 . S
C1185 H1193 0.960 . S
C1186 C1184 1.381 . S
C1186 C1187 1.394 . S
C1186 H1194 0.930 . S
C1187 C1186 1.394 . S
C1187 C1188 1.383 . S
C1187 H1195 0.929 . S
C1188 C1187 1.383 . S
C1188 C1189 1.377 . S
C1189 H1173 0.930 . S
C1189 C1188 1.377 . S
C1189 C1190 1.379 . S
C1190 H1174 0.931 . S
C1190 C1184 1.383 . S
C1190 C1189 1.379 . S
H1191 C1185 0.959 . S
H1192 C1185 0.961 . S
H1193 C1185 0.960 . S
H1194 C1186 0.930 . S
H1195 C1187 0.929 . S
H1196 C1204 0.929 . S
H1197 C1206 0.930 . S
H1198 C1208 0.930 . S
H1199 C1211 0.929 . S
H1200 C1214 0.930 . S
H1201 C1216 0.960 . S
H1202 C1216 0.960 . S
H1203 C1216 0.960 . S
C1204 H1196 0.929 . S
C1204 C1205 1.377 . S
C1204 C1206 1.384 . S
C1205 C1204 1.377 . S
C1205 C1211 1.390 . S
C1206 H1197 0.930 . S
C1206 C1204 1.384 . S
C1206 C1207 1.372 . S
C1207 C1206 1.372 . S
C1207 C1208 1.400 . S
C1207 C1212 1.490 . S
C1208 H1198 0.930 . S
C1208 C1207 1.400 . S
C1208 C1211 1.386 . S
H1209 C1225 0.930 . S
H1210 C1226 0.931 . S
C1211 H1199 0.929 . S
C1211 C1205 1.390 . S
C1211 C1208 1.386 . S
C1212 C1207 1.490 . S
C1212 C1214 1.395 . S
C1212 C1215 1.403 . S
H1213 C1219 0.930 . S
C1214 H1200 0.930 . S
C1214 C1212 1.395 . S
C1214 C1217 1.403 . S
C1215 C1212 1.403 . S
C1215 C1216 1.524 . S
C1215 C1219 1.400 . S
C1216 H1201 0.960 . S
C1216 H1202 0.960 . S
C1216 H1203 0.960 . S
C1216 C1215 1.524 . S
C1217 C1214 1.403 . S
C1217 C1218 1.392 . S
C1217 C1221 1.495 . S
C1218 C1217 1.392 . S
C1218 C1219 1.385 . S
C1218 C1220 1.478 . S
C1219 H1213 0.930 . S
C1219 C1215 1.400 . S
C1219 C1218 1.385 . S
C1220 C1218 1.478 . S
C1220 C1222 1.381 . S
C1220 C1226 1.383 . S
C1221 C1217 1.495 . S
C1221 H1227 0.959 . S
C1221 H1228 0.961 . S
C1221 H1229 0.960 . S
C1222 C1220 1.381 . S
C1222 C1223 1.394 . S
C1222 H1230 0.930 . S
C1223 C1222 1.394 . S
C1223 C1224 1.383 . S
C1223 H1231 0.929 . S
C1224 C1223 1.383 . S
C1224 C1225 1.377 . S
C1225 H1209 0.930 . S
C1225 C1224 1.377 . S
C1225 C1226 1.379 . S
C1226 H1210 0.931 . S
C1226 C1220 1.383 . S
C1226 C1225 1.379 . S
H1227 C1221 0.959 . S
H1228 C1221 0.961 . S
H1229 C1221 0.960 . S
H1230 C1222 0.930 . S
H1231 C1223 0.929 . S
H1232 C1240 0.929 . S
H1233 C1242 0.930 . S
H1234 C1244 0.930 . S
H1235 C1247 0.929 . S
H1236 C1250 0.930 . S
H1237 C1252 0.960 . S
H1238 C1252 0.960 . S
H1239 C1252 0.960 . S
C1240 H1232 0.929 . S
C1240 C1241 1.377 . S
C1240 C1242 1.384 . S
C1241 C1240 1.377 . S
C1241 C1247 1.390 . S
C1242 H1233 0.930 . S
C1242 C1240 1.384 . S
C1242 C1243 1.372 . S
C1243 C1242 1.372 . S
C1243 C1244 1.400 . S
C1243 C1248 1.490 . S
C1244 H1234 0.930 . S
C1244 C1243 1.400 . S
C1244 C1247 1.386 . S
H1245 C1261 0.927 . S
H1246 C1262 0.940 . S
C1247 H1235 0.929 . S
C1247 C1241 1.390 . S
C1247 C1244 1.386 . S
C1248 C1243 1.490 . S
C1248 C1250 1.395 . S
C1248 C1251 1.403 . S
H1249 C1255 0.930 . S
C1250 H1236 0.930 . S
C1250 C1248 1.395 . S
C1250 C1253 1.403 . S
C1251 C1248 1.403 . S
C1251 C1252 1.524 . S
C1251 C1255 1.400 . S
C1252 H1237 0.960 . S
C1252 H1238 0.960 . S
C1252 H1239 0.960 . S
C1252 C1251 1.524 . S
C1253 C1250 1.403 . S
C1253 C1254 1.392 . S
C1253 C1257 1.495 1_565 S
C1254 C1253 1.392 . S
C1254 C1255 1.385 . S
C1254 C1256 1.478 . S
C1255 H1249 0.930 . S
C1255 C1251 1.400 . S
C1255 C1254 1.385 . S
C1256 C1254 1.478 . S
C1256 C1258 1.381 1_565 S
C1256 C1262 1.383 . S
C1257 C1253 1.495 1_545 S
C1257 H1263 0.959 . S
C1257 H1264 0.927 1_554 S
C1257 H1265 0.960 . S
C1258 C1256 1.381 1_545 S
C1258 C1259 1.394 . S
C1258 H1266 0.930 . S
C1259 C1258 1.394 . S
C1259 C1260 1.383 . S
C1259 H1267 0.929 . S
C1260 C1259 1.383 . S
C1260 C1261 1.377 1_545 S
C1261 H1245 0.927 . S
C1261 C1260 1.377 1_565 S
C1261 C1262 1.379 . S
C1262 H1246 0.940 . S
C1262 C1256 1.383 . S
C1262 C1261 1.379 . S
H1263 C1257 0.959 . S
H1264 C1257 0.927 1_556 S
H1265 C1257 0.960 . S
H1266 C1258 0.930 . S
H1267 C1259 0.929 . S
H1268 C1276 0.929 . S
H1269 C1278 0.930 . S
H1270 C1280 0.930 . S
H1271 C1283 0.929 . S
H1272 C1286 0.930 . S
H1273 C1288 0.960 . S
H1274 C1288 0.960 . S
H1275 C1288 0.960 1_556 S
C1276 H1268 0.929 . S
C1276 C1277 1.377 . S
C1276 C1278 1.384 . S
C1277 C1276 1.377 . S
C1277 C1283 1.390 1_554 S
C1278 H1269 0.930 . S
C1278 C1276 1.384 . S
C1278 C1279 1.372 . S
C1279 C1278 1.372 . S
C1279 C1280 1.400 1_554 S
C1279 C1284 1.490 . S
C1280 H1270 0.930 . S
C1280 C1279 1.400 1_556 S
C1280 C1283 1.386 . S
H1281 C1297 0.930 . S
H1282 C1298 0.931 . S
C1283 H1271 0.929 . S
C1283 C1277 1.390 1_556 S
C1283 C1280 1.386 . S
C1284 C1279 1.490 . S
C1284 C1286 1.395 . S
C1284 C1287 1.403 . S
H1285 C1291 0.930 . S
C1286 H1272 0.930 . S
C1286 C1284 1.395 . S
C1286 C1289 1.403 . S
C1287 C1284 1.403 . S
C1287 C1288 1.524 . S
C1287 C1291 1.400 . S
C1288 H1273 0.960 . S
C1288 H1274 0.960 . S
C1288 H1275 0.960 1_554 S
C1288 C1287 1.524 . S
C1289 C1286 1.403 . S
C1289 C1290 1.392 . S
C1289 C1293 1.495 . S
C1290 C1289 1.392 . S
C1290 C1291 1.385 . S
C1290 C1292 1.478 . S
C1291 H1285 0.930 . S
C1291 C1287 1.400 . S
C1291 C1290 1.385 . S
C1292 C1290 1.478 . S
C1292 C1294 1.381 . S
C1292 C1298 1.383 1_554 S
C1293 C1289 1.495 . S
C1293 H1299 0.959 . S
C1293 H1300 0.961 1_554 S
C1293 H1301 0.960 . S
C1294 C1292 1.381 . S
C1294 C1295 1.394 . S
C1294 H1302 0.930 . S
C1295 C1294 1.394 . S
C1295 C1296 1.383 . S
C1295 H1303 0.929 . S
C1296 C1295 1.383 . S
C1296 C1297 1.377 1_554 S
C1297 H1281 0.930 . S
C1297 C1296 1.377 1_556 S
C1297 C1298 1.379 . S
C1298 H1282 0.931 . S
C1298 C1292 1.383 1_556 S
C1298 C1297 1.379 . S
H1299 C1293 0.959 . S
H1300 C1293 0.961 1_556 S
H1301 C1293 0.960 . S
H1302 C1294 0.930 . S
H1303 C1295 0.929 . S
H1304 C1312 0.929 . S
H1305 C1314 0.930 . S
H1306 C1316 0.930 . S
H1307 C1319 0.929 . S
H1308 C1322 0.930 . S
H1309 C1324 0.960 . S
H1310 C1324 0.960 . S
H1311 C1324 0.960 . S
C1312 H1304 0.929 . S
C1312 C1313 1.377 . S
C1312 C1314 1.384 . S
C1313 C1312 1.377 . S
C1313 C1319 1.390 . S
C1314 H1305 0.930 . S
C1314 C1312 1.384 . S
C1314 C1315 1.372 . S
C1315 C1314 1.372 . S
C1315 C1316 1.400 . S
C1315 C1320 1.490 . S
C1316 H1306 0.930 . S
C1316 C1315 1.400 . S
C1316 C1319 1.386 . S
H1317 C1333 0.930 . S
H1318 C1334 0.931 . S
C1319 H1307 0.929 . S
C1319 C1313 1.390 . S
C1319 C1316 1.386 . S
C1320 C1315 1.490 . S
C1320 C1322 1.395 . S
C1320 C1323 1.403 . S
H1321 C1327 0.930 . S
C1322 H1308 0.930 . S
C1322 C1320 1.395 . S
C1322 C1325 1.403 . S
C1323 C1320 1.403 . S
C1323 C1324 1.524 . S
C1323 C1327 1.400 . S
C1324 H1309 0.960 . S
C1324 H1310 0.960 . S
C1324 H1311 0.960 . S
C1324 C1323 1.524 . S
C1325 C1322 1.403 . S
C1325 C1326 1.392 . S
C1325 C1329 1.495 . S
C1326 C1325 1.392 . S
C1326 C1327 1.385 . S
C1326 C1328 1.478 . S
C1327 H1321 0.930 . S
C1327 C1323 1.400 . S
C1327 C1326 1.385 . S
C1328 C1326 1.478 . S
C1328 C1330 1.381 . S
C1328 C1334 1.383 . S
C1329 C1325 1.495 . S
C1329 H1335 0.959 . S
C1329 H1336 0.961 . S
C1329 H1337 0.960 . S
C1330 C1328 1.381 . S
C1330 C1331 1.394 . S
C1330 H1338 0.930 . S
C1331 C1330 1.394 . S
C1331 C1332 1.383 . S
C1331 H1339 0.929 . S
C1332 C1331 1.383 . S
C1332 C1333 1.377 . S
C1333 H1317 0.930 . S
C1333 C1332 1.377 . S
C1333 C1334 1.379 . S
C1334 H1318 0.931 . S
C1334 C1328 1.383 . S
C1334 C1333 1.379 . S
H1335 C1329 0.959 . S
H1336 C1329 0.961 . S
H1337 C1329 0.960 . S
H1338 C1330 0.930 . S
H1339 C1331 0.929 . S
H1340 C1348 0.929 . S
H1341 C1350 0.930 . S
H1342 C1352 0.930 . S
H1343 C1355 0.929 . S
H1344 C1358 0.930 . S
H1345 C1360 0.960 . S
H1346 C1360 0.960 . S
H1347 C1360 0.960 . S
C1348 H1340 0.929 . S
C1348 C1349 1.377 . S
C1348 C1350 1.384 . S
C1349 C1348 1.377 . S
C1349 C1355 1.390 . S
C1350 H1341 0.930 . S
C1350 C1348 1.384 . S
C1350 C1351 1.372 . S
C1351 C1350 1.372 . S
C1351 C1352 1.400 . S
C1351 C1356 1.490 . S
C1352 H1342 0.930 . S
C1352 C1351 1.400 . S
C1352 C1355 1.386 . S
H1353 C1369 0.930 . S
H1354 C1370 0.931 . S
C1355 H1343 0.929 . S
C1355 C1349 1.390 . S
C1355 C1352 1.386 . S
C1356 C1351 1.490 . S
C1356 C1358 1.395 . S
C1356 C1359 1.403 . S
H1357 C1363 0.930 . S
C1358 H1344 0.930 . S
C1358 C1356 1.395 . S
C1358 C1361 1.403 . S
C1359 C1356 1.403 . S
C1359 C1360 1.524 . S
C1359 C1363 1.400 . S
C1360 H1345 0.960 . S
C1360 H1346 0.960 . S
C1360 H1347 0.960 . S
C1360 C1359 1.524 . S
C1361 C1358 1.403 . S
C1361 C1362 1.392 . S
C1361 C1365 1.495 . S
C1362 C1361 1.392 . S
C1362 C1363 1.385 . S
C1362 C1364 1.478 . S
C1363 H1357 0.930 . S
C1363 C1359 1.400 . S
C1363 C1362 1.385 . S
C1364 C1362 1.478 . S
C1364 C1366 1.381 . S
C1364 C1370 1.383 . S
C1365 C1361 1.495 . S
C1365 H1371 0.959 . S
C1365 H1372 0.961 . S
C1365 H1373 0.960 . S
C1366 C1364 1.381 . S
C1366 C1367 1.394 . S
C1366 H1374 0.930 . S
C1367 C1366 1.394 . S
C1367 C1368 1.383 . S
C1367 H1375 0.929 . S
C1368 C1367 1.383 . S
C1368 C1369 1.377 . S
C1369 H1353 0.930 . S
C1369 C1368 1.377 . S
C1369 C1370 1.379 . S
C1370 H1354 0.931 . S
C1370 C1364 1.383 . S
C1370 C1369 1.379 . S
H1371 C1365 0.959 . S
H1372 C1365 0.961 . S
H1373 C1365 0.960 . S
H1374 C1366 0.930 . S
H1375 C1367 0.929 . S
H1376 C1384 0.929 . S
H1377 C1386 0.930 . S
H1378 C1388 0.930 . S
H1379 C1391 0.929 . S
H1380 C1394 0.930 . S
H1381 C1396 0.960 . S
H1382 C1396 0.960 . S
H1383 C1396 0.960 . S
C1384 H1376 0.929 . S
C1384 C1385 1.377 . S
C1384 C1386 1.384 . S
C1385 C1384 1.377 . S
C1385 C1391 1.390 . S
C1386 H1377 0.930 . S
C1386 C1384 1.384 . S
C1386 C1387 1.372 . S
C1387 C1386 1.372 . S
C1387 C1388 1.400 . S
C1387 C1392 1.490 . S
C1388 H1378 0.930 . S
C1388 C1387 1.400 . S
C1388 C1391 1.386 . S
H1389 C1405 0.930 . S
H1390 C1406 0.931 . S
C1391 H1379 0.929 . S
C1391 C1385 1.390 . S
C1391 C1388 1.386 . S
C1392 C1387 1.490 . S
C1392 C1394 1.395 . S
C1392 C1395 1.403 . S
H1393 C1399 0.930 . S
C1394 H1380 0.930 . S
C1394 C1392 1.395 . S
C1394 C1397 1.403 . S
C1395 C1392 1.403 . S
C1395 C1396 1.524 . S
C1395 C1399 1.400 . S
C1396 H1381 0.960 . S
C1396 H1382 0.960 . S
C1396 H1383 0.960 . S
C1396 C1395 1.524 . S
C1397 C1394 1.403 . S
C1397 C1398 1.392 . S
C1397 C1401 1.495 . S
C1398 C1397 1.392 . S
C1398 C1399 1.385 . S
C1398 C1400 1.478 . S
C1399 H1393 0.930 . S
C1399 C1395 1.400 . S
C1399 C1398 1.385 . S
C1400 C1398 1.478 . S
C1400 C1402 1.381 . S
C1400 C1406 1.383 . S
C1401 C1397 1.495 . S
C1401 H1407 0.959 . S
C1401 H1408 0.961 . S
C1401 H1409 0.960 . S
C1402 C1400 1.381 . S
C1402 C1403 1.394 . S
C1402 H1410 0.930 . S
C1403 C1402 1.394 . S
C1403 C1404 1.383 . S
C1403 H1411 0.929 . S
C1404 C1403 1.383 . S
C1404 C1405 1.377 . S
C1405 H1389 0.930 . S
C1405 C1404 1.377 . S
C1405 C1406 1.379 . S
C1406 H1390 0.931 . S
C1406 C1400 1.383 . S
C1406 C1405 1.379 . S
H1407 C1401 0.959 . S
H1408 C1401 0.961 . S
H1409 C1401 0.960 . S
H1410 C1402 0.930 . S
H1411 C1403 0.929 . S
H1412 C1420 0.929 . S
H1413 C1422 0.930 . S
H1414 C1424 0.930 . S
H1415 C1427 0.929 . S
H1416 C1430 0.930 . S
H1417 C1432 0.960 . S
H1418 C1432 0.960 . S
H1419 C1432 0.960 . S
C1420 H1412 0.929 . S
C1420 C1421 1.377 . S
C1420 C1422 1.384 . S
C1421 C1420 1.377 . S
C1421 C1427 1.390 . S
C1422 H1413 0.930 . S
C1422 C1420 1.384 . S
C1422 C1423 1.372 . S
C1423 C1422 1.372 . S
C1423 C1424 1.400 . S
C1423 C1428 1.490 . S
C1424 H1414 0.930 . S
C1424 C1423 1.400 . S
C1424 C1427 1.386 . S
H1425 C1441 0.930 . S
H1426 C1442 0.931 . S
C1427 H1415 0.929 . S
C1427 C1421 1.390 . S
C1427 C1424 1.386 . S
C1428 C1423 1.490 . S
C1428 C1430 1.395 . S
C1428 C1431 1.403 . S
H1429 C1435 0.930 . S
C1430 H1416 0.930 . S
C1430 C1428 1.395 . S
C1430 C1433 1.403 . S
C1431 C1428 1.403 . S
C1431 C1432 1.524 . S
C1431 C1435 1.400 . S
C1432 H1417 0.960 . S
C1432 H1418 0.960 . S
C1432 H1419 0.960 . S
C1432 C1431 1.524 . S
C1433 C1430 1.403 . S
C1433 C1434 1.392 . S
C1433 C1437 1.495 . S
C1434 C1433 1.392 . S
C1434 C1435 1.385 . S
C1434 C1436 1.478 . S
C1435 H1429 0.930 . S
C1435 C1431 1.400 . S
C1435 C1434 1.385 . S
C1436 C1434 1.478 . S
C1436 C1438 1.381 . S
C1436 C1442 1.383 . S
C1437 C1433 1.495 . S
C1437 H1443 0.959 . S
C1437 H1444 0.961 . S
C1437 H1445 0.960 . S
C1438 C1436 1.381 . S
C1438 C1439 1.394 . S
C1438 H1446 0.930 . S
C1439 C1438 1.394 . S
C1439 C1440 1.383 . S
C1439 H1447 0.929 . S
C1440 C1439 1.383 . S
C1440 C1441 1.377 . S
C1441 H1425 0.930 . S
C1441 C1440 1.377 . S
C1441 C1442 1.379 . S
C1442 H1426 0.931 . S
C1442 C1436 1.383 . S
C1442 C1441 1.379 . S
H1443 C1437 0.959 . S
H1444 C1437 0.961 . S
H1445 C1437 0.960 . S
H1446 C1438 0.930 . S
H1447 C1439 0.929 . S
H1448 C1456 0.929 . S
H1449 C1458 0.930 . S
H1450 C1460 0.930 . S
H1451 C1463 0.929 . S
H1452 C1466 0.930 . S
H1453 C1468 0.960 . S
H1454 C1468 0.960 . S
H1455 C1468 0.960 . S
C1456 H1448 0.929 . S
C1456 C1457 1.377 . S
C1456 C1458 1.384 . S
C1457 C1456 1.377 . S
C1457 C1463 1.390 . S
C1458 H1449 0.930 . S
C1458 C1456 1.384 . S
C1458 C1459 1.372 . S
C1459 C1458 1.372 . S
C1459 C1460 1.400 . S
C1459 C1464 1.490 . S
C1460 H1450 0.930 . S
C1460 C1459 1.400 . S
C1460 C1463 1.386 . S
H1461 C1477 0.930 . S
H1462 C1478 0.931 . S
C1463 H1451 0.929 . S
C1463 C1457 1.390 . S
C1463 C1460 1.386 . S
C1464 C1459 1.490 . S
C1464 C1466 1.395 . S
C1464 C1467 1.403 . S
H1465 C1471 0.930 . S
C1466 H1452 0.930 . S
C1466 C1464 1.395 . S
C1466 C1469 1.403 . S
C1467 C1464 1.403 . S
C1467 C1468 1.524 . S
C1467 C1471 1.400 . S
C1468 H1453 0.960 . S
C1468 H1454 0.960 . S
C1468 H1455 0.960 . S
C1468 C1467 1.524 . S
C1469 C1466 1.403 . S
C1469 C1470 1.392 . S
C1469 C1473 1.495 . S
C1470 C1469 1.392 . S
C1470 C1471 1.385 . S
C1470 C1472 1.478 . S
C1471 H1465 0.930 . S
C1471 C1467 1.400 . S
C1471 C1470 1.385 . S
C1472 C1470 1.478 . S
C1472 C1474 1.381 . S
C1472 C1478 1.383 . S
C1473 C1469 1.495 . S
C1473 H1479 0.959 . S
C1473 H1480 0.961 . S
C1473 H1481 0.960 . S
C1474 C1472 1.381 . S
C1474 C1475 1.394 . S
C1474 H1482 0.930 . S
C1475 C1474 1.394 . S
C1475 C1476 1.383 . S
C1475 H1483 0.929 . S
C1476 C1475 1.383 . S
C1476 C1477 1.377 . S
C1477 H1461 0.930 . S
C1477 C1476 1.377 . S
C1477 C1478 1.379 . S
C1478 H1462 0.931 . S
C1478 C1472 1.383 . S
C1478 C1477 1.379 . S
H1479 C1473 0.959 . S
H1480 C1473 0.961 . S
H1481 C1473 0.960 . S
H1482 C1474 0.930 . S
H1483 C1475 0.929 . S
H1484 C1492 0.929 . S
H1485 C1494 0.930 . S
H1486 C1496 0.930 . S
H1487 C1499 0.929 . S
H1488 C1502 0.930 . S
H1489 C1504 0.960 . S
H1490 C1504 0.960 . S
H1491 C1504 0.960 . S
C1492 H1484 0.929 . S
C1492 C1493 1.377 . S
C1492 C1494 1.384 . S
C1493 C1492 1.377 . S
C1493 C1499 1.390 . S
C1494 H1485 0.930 . S
C1494 C1492 1.384 . S
C1494 C1495 1.372 . S
C1495 C1494 1.372 . S
C1495 C1496 1.400 . S
C1495 C1500 1.490 . S
C1496 H1486 0.930 . S
C1496 C1495 1.400 . S
C1496 C1499 1.386 . S
H1497 C1513 0.930 . S
H1498 C1514 0.931 . S
C1499 H1487 0.929 . S
C1499 C1493 1.390 . S
C1499 C1496 1.386 . S
C1500 C1495 1.490 . S
C1500 C1502 1.395 . S
C1500 C1503 1.403 . S
H1501 C1507 0.930 . S
C1502 H1488 0.930 . S
C1502 C1500 1.395 . S
C1502 C1505 1.403 . S
C1503 C1500 1.403 . S
C1503 C1504 1.524 . S
C1503 C1507 1.400 . S
C1504 H1489 0.960 . S
C1504 H1490 0.960 . S
C1504 H1491 0.960 . S
C1504 C1503 1.524 . S
C1505 C1502 1.403 . S
C1505 C1506 1.392 . S
C1505 C1509 1.495 . S
C1506 C1505 1.392 . S
C1506 C1507 1.385 . S
C1506 C1508 1.478 . S
C1507 H1501 0.930 . S
C1507 C1503 1.400 . S
C1507 C1506 1.385 . S
C1508 C1506 1.478 . S
C1508 C1510 1.381 . S
C1508 C1514 1.383 . S
C1509 C1505 1.495 . S
C1509 H1515 0.959 . S
C1509 H1516 0.961 . S
C1509 H1517 0.960 . S
C1510 C1508 1.381 . S
C1510 C1511 1.394 . S
C1510 H1518 0.930 . S
C1511 C1510 1.394 . S
C1511 C1512 1.383 . S
C1511 H1519 0.929 . S
C1512 C1511 1.383 . S
C1512 C1513 1.377 . S
C1513 H1497 0.930 . S
C1513 C1512 1.377 . S
C1513 C1514 1.379 . S
C1514 H1498 0.931 . S
C1514 C1508 1.383 . S
C1514 C1513 1.379 . S
H1515 C1509 0.959 . S
H1516 C1509 0.961 . S
H1517 C1509 0.960 . S
H1518 C1510 0.930 . S
H1519 C1511 0.929 . S
H1520 C1528 0.929 . S
H1521 C1530 0.930 . S
H1522 C1532 0.923 1_655 S
H1523 C1535 0.930 . S
H1524 C1538 0.930 . S
H1525 C1540 0.960 . S
H1526 C1540 0.960 . S
H1527 C1540 0.960 . S
C1528 H1520 0.929 . S
C1528 C1529 1.377 . S
C1528 C1530 1.384 . S
C1529 C1528 1.377 . S
C1529 C1535 1.390 . S
C1530 H1521 0.930 . S
C1530 C1528 1.384 . S
C1530 C1531 1.372 . S
C1531 C1530 1.372 . S
C1531 C1532 1.400 . S
C1531 C1536 1.490 . S
C1532 H1522 0.923 1_455 S
C1532 C1531 1.400 . S
C1532 C1535 1.386 . S
H1533 C1549 0.930 . S
H1534 C1550 0.931 . S
C1535 H1523 0.930 . S
C1535 C1529 1.390 . S
C1535 C1532 1.386 . S
C1536 C1531 1.490 . S
C1536 C1538 1.395 . S
C1536 C1539 1.403 1_455 S
H1537 C1543 0.930 . S
C1538 H1524 0.930 . S
C1538 C1536 1.395 . S
C1538 C1541 1.403 . S
C1539 C1536 1.403 1_655 S
C1539 C1540 1.524 . S
C1539 C1543 1.400 . S
C1540 H1525 0.960 . S
C1540 H1526 0.960 . S
C1540 H1527 0.960 . S
C1540 C1539 1.524 . S
C1541 C1538 1.403 . S
C1541 C1542 1.392 . S
C1541 C1545 1.495 . S
C1542 C1541 1.392 . S
C1542 C1543 1.385 1_455 S
C1542 C1544 1.478 . S
C1543 H1537 0.930 . S
C1543 C1539 1.400 . S
C1543 C1542 1.385 1_655 S
C1544 C1542 1.478 . S
C1544 C1546 1.381 . S
C1544 C1550 1.383 . S
C1545 C1541 1.495 . S
C1545 H1551 0.959 . S
C1545 H1552 0.961 . S
C1545 H1553 0.960 . S
C1546 C1544 1.381 . S
C1546 C1547 1.394 . S
C1546 H1554 0.930 . S
C1547 C1546 1.394 . S
C1547 C1548 1.383 . S
C1547 H1555 0.929 . S
C1548 C1547 1.383 . S
C1548 C1549 1.377 . S
C1549 H1533 0.930 . S
C1549 C1548 1.377 . S
C1549 C1550 1.379 . S
C1550 H1534 0.931 . S
C1550 C1544 1.383 . S
C1550 C1549 1.379 . S
H1551 C1545 0.959 . S
H1552 C1545 0.961 . S
H1553 C1545 0.960 . S
H1554 C1546 0.930 . S
H1555 C1547 0.929 . S
H1556 C1564 0.929 . S
H1557 C1566 0.930 . S
H1558 C1568 0.930 . S
H1559 C1571 0.929 . S
H1560 C1574 0.930 . S
H1561 C1576 0.960 . S
H1562 C1576 0.960 . S
H1563 C1576 0.960 . S
C1564 H1556 0.929 . S
C1564 C1565 1.377 . S
C1564 C1566 1.384 . S
C1565 C1564 1.377 . S
C1565 C1571 1.390 . S
C1566 H1557 0.930 . S
C1566 C1564 1.384 . S
C1566 C1567 1.372 . S
C1567 C1566 1.372 . S
C1567 C1568 1.400 . S
C1567 C1572 1.490 . S
C1568 H1558 0.930 . S
C1568 C1567 1.400 . S
C1568 C1571 1.386 . S
H1569 C1585 0.930 . S
H1570 C1586 0.931 . S
C1571 H1559 0.929 . S
C1571 C1565 1.390 . S
C1571 C1568 1.386 . S
C1572 C1567 1.490 . S
C1572 C1574 1.395 . S
C1572 C1575 1.403 . S
H1573 C1579 0.930 . S
C1574 H1560 0.930 . S
C1574 C1572 1.395 . S
C1574 C1577 1.403 . S
C1575 C1572 1.403 . S
C1575 C1576 1.524 . S
C1575 C1579 1.400 . S
C1576 H1561 0.960 . S
C1576 H1562 0.960 . S
C1576 H1563 0.960 . S
C1576 C1575 1.524 . S
C1577 C1574 1.403 . S
C1577 C1578 1.392 . S
C1577 C1581 1.495 . S
C1578 C1577 1.392 . S
C1578 C1579 1.385 . S
C1578 C1580 1.478 . S
C1579 H1573 0.930 . S
C1579 C1575 1.400 . S
C1579 C1578 1.385 . S
C1580 C1578 1.478 . S
C1580 C1582 1.381 . S
C1580 C1586 1.383 . S
C1581 C1577 1.495 . S
C1581 H1587 0.959 . S
C1581 H1588 0.961 . S
C1581 H1589 0.960 . S
C1582 C1580 1.381 . S
C1582 C1583 1.394 . S
C1582 H1590 0.930 . S
C1583 C1582 1.394 . S
C1583 C1584 1.383 . S
C1583 H1591 0.929 . S
C1584 C1583 1.383 . S
C1584 C1585 1.377 . S
C1585 H1569 0.930 . S
C1585 C1584 1.377 . S
C1585 C1586 1.379 . S
C1586 H1570 0.931 . S
C1586 C1580 1.383 . S
C1586 C1585 1.379 . S
H1587 C1581 0.959 . S
H1588 C1581 0.961 . S
H1589 C1581 0.960 . S
H1590 C1582 0.930 . S
H1591 C1583 0.929 . S
H1592 C1600 0.929 . S
H1593 C1602 0.930 . S
H1594 C1604 0.930 . S
H1595 C1607 0.929 . S
H1596 C1610 0.930 . S
H1597 C1612 0.960 . S
H1598 C1612 0.960 . S
H1599 C1612 0.960 . S
C1600 H1592 0.929 . S
C1600 C1601 1.377 . S
C1600 C1602 1.384 . S
C1601 C1600 1.377 . S
C1601 C1607 1.390 . S
C1602 H1593 0.930 . S
C1602 C1600 1.384 . S
C1602 C1603 1.372 . S
C1603 C1602 1.372 . S
C1603 C1604 1.400 . S
C1603 C1608 1.490 . S
C1604 H1594 0.930 . S
C1604 C1603 1.400 . S
C1604 C1607 1.386 . S
H1605 C1621 0.930 . S
H1606 C1622 0.931 . S
C1607 H1595 0.929 . S
C1607 C1601 1.390 . S
C1607 C1604 1.386 . S
C1608 C1603 1.490 . S
C1608 C1610 1.395 . S
C1608 C1611 1.403 . S
H1609 C1615 0.930 . S
C1610 H1596 0.930 . S
C1610 C1608 1.395 . S
C1610 C1613 1.403 . S
C1611 C1608 1.403 . S
C1611 C1612 1.524 . S
C1611 C1615 1.400 . S
C1612 H1597 0.960 . S
C1612 H1598 0.960 . S
C1612 H1599 0.960 . S
C1612 C1611 1.524 . S
C1613 C1610 1.403 . S
C1613 C1614 1.392 . S
C1613 C1617 1.495 . S
C1614 C1613 1.392 . S
C1614 C1615 1.385 . S
C1614 C1616 1.478 . S
C1615 H1609 0.930 . S
C1615 C1611 1.400 . S
C1615 C1614 1.385 . S
C1616 C1614 1.478 . S
C1616 C1618 1.381 . S
C1616 C1622 1.383 . S
C1617 C1613 1.495 . S
C1617 H1623 0.959 . S
C1617 H1624 0.961 . S
C1617 H1625 0.960 . S
C1618 C1616 1.381 . S
C1618 C1619 1.394 . S
C1618 H1626 0.930 . S
C1619 C1618 1.394 . S
C1619 C1620 1.383 . S
C1619 H1627 0.929 . S
C1620 C1619 1.383 . S
C1620 C1621 1.377 . S
C1621 H1605 0.930 . S
C1621 C1620 1.377 . S
C1621 C1622 1.379 . S
C1622 H1606 0.931 . S
C1622 C1616 1.383 . S
C1622 C1621 1.379 . S
H1623 C1617 0.959 . S
H1624 C1617 0.961 . S
H1625 C1617 0.960 . S
H1626 C1618 0.930 . S
H1627 C1619 0.929 . S
H1628 C1636 0.929 . S
H1629 C1638 0.930 . S
H1630 C1640 0.930 . S
H1631 C1643 0.929 . S
H1632 C1646 0.930 . S
H1633 C1648 0.960 . S
H1634 C1648 0.960 . S
H1635 C1648 0.960 . S
C1636 H1628 0.929 . S
C1636 C1637 1.377 . S
C1636 C1638 1.384 . S
C1637 C1636 1.377 . S
C1637 C1643 1.390 . S
C1638 H1629 0.930 . S
C1638 C1636 1.384 . S
C1638 C1639 1.372 . S
C1639 C1638 1.372 . S
C1639 C1640 1.400 . S
C1639 C1644 1.490 . S
C1640 H1630 0.930 . S
C1640 C1639 1.400 . S
C1640 C1643 1.386 . S
H1641 C1657 0.930 . S
H1642 C1658 0.931 . S
C1643 H1631 0.929 . S
C1643 C1637 1.390 . S
C1643 C1640 1.386 . S
C1644 C1639 1.490 . S
C1644 C1646 1.395 . S
C1644 C1647 1.403 . S
H1645 C1651 0.930 . S
C1646 H1632 0.930 . S
C1646 C1644 1.395 . S
C1646 C1649 1.403 . S
C1647 C1644 1.403 . S
C1647 C1648 1.524 . S
C1647 C1651 1.400 . S
C1648 H1633 0.960 . S
C1648 H1634 0.960 . S
C1648 H1635 0.960 . S
C1648 C1647 1.524 . S
C1649 C1646 1.403 . S
C1649 C1650 1.392 . S
C1649 C1653 1.495 . S
C1650 C1649 1.392 . S
C1650 C1651 1.385 . S
C1650 C1652 1.478 . S
C1651 H1645 0.930 . S
C1651 C1647 1.400 . S
C1651 C1650 1.385 . S
C1652 C1650 1.478 . S
C1652 C1654 1.381 . S
C1652 C1658 1.383 . S
C1653 C1649 1.495 . S
C1653 H1659 0.959 . S
C1653 H1660 0.961 . S
C1653 H1661 0.960 . S
C1654 C1652 1.381 . S
C1654 C1655 1.394 . S
C1654 H1662 0.930 . S
C1655 C1654 1.394 . S
C1655 C1656 1.383 . S
C1655 H1663 0.929 . S
C1656 C1655 1.383 . S
C1656 C1657 1.377 . S
C1657 H1641 0.930 . S
C1657 C1656 1.377 . S
C1657 C1658 1.379 . S
C1658 H1642 0.931 . S
C1658 C1652 1.383 . S
C1658 C1657 1.379 . S
H1659 C1653 0.959 . S
H1660 C1653 0.961 . S
H1661 C1653 0.960 . S
H1662 C1654 0.930 . S
H1663 C1655 0.929 . S
H1664 C1672 0.929 1_655 S
H1665 C1674 0.940 . S
H1666 C1676 0.930 . S
H1667 C1679 0.929 . S
H1668 C1682 0.930 . S
H1669 C1684 0.960 . S
H1670 C1684 0.960 . S
H1671 C1684 0.960 . S
C1672 H1664 0.929 1_455 S
C1672 C1673 1.377 . S
C1672 C1674 1.384 1_455 S
C1673 C1672 1.377 . S
C1673 C1679 1.390 . S
C1674 H1665 0.940 . S
C1674 C1672 1.384 1_655 S
C1674 C1675 1.362 1_655 S
C1675 C1674 1.362 1_455 S
C1675 C1676 1.400 . S
C1675 C1680 1.490 . S
C1676 H1666 0.930 . S
C1676 C1675 1.400 . S
C1676 C1679 1.386 . S
H1677 C1693 0.930 . S
H1678 C1694 0.931 . S
C1679 H1667 0.929 . S
C1679 C1673 1.390 . S
C1679 C1676 1.386 . S
C1680 C1675 1.490 . S
C1680 C1682 1.395 1_455 S
C1680 C1683 1.403 . S
H1681 C1687 0.930 . S
C1682 H1668 0.930 . S
C1682 C1680 1.395 1_655 S
C1682 C1685 1.403 . S
C1683 C1680 1.403 . S
C1683 C1684 1.524 . S
C1683 C1687 1.400 . S
C1684 H1669 0.960 . S
C1684 H1670 0.960 . S
C1684 H1671 0.960 . S
C1684 C1683 1.524 . S
C1685 C1682 1.403 . S
C1685 C1686 1.344 1_655 S
C1685 C1689 1.495 . S
C1686 C1685 1.344 1_455 S
C1686 C1687 1.434 . S
C1686 C1688 1.484 1_455 S
C1687 H1681 0.930 . S
C1687 C1683 1.400 . S
C1687 C1686 1.434 . S
C1688 C1686 1.484 1_655 S
C1688 C1690 1.394 . S
C1688 C1694 1.368 1_655 S
C1689 C1685 1.495 . S
C1689 H1695 0.959 . S
C1689 H1696 0.961 . S
C1689 H1697 0.960 . S
C1690 C1688 1.394 . S
C1690 C1691 1.394 . S
C1690 H1698 0.930 . S
C1691 C1690 1.394 . S
C1691 C1692 1.399 . S
C1691 H1699 0.929 . S
C1692 C1691 1.399 . S
C1692 C1693 1.364 1_655 S
C1693 H1677 0.930 . S
C1693 C1692 1.364 1_455 S
C1693 C1694 1.379 . S
C1694 H1678 0.931 . S
C1694 C1688 1.368 1_455 S
C1694 C1693 1.379 . S
H1695 C1689 0.959 . S
H1696 C1689 0.961 . S
H1697 C1689 0.960 . S
H1698 C1690 0.930 . S
H1699 C1691 0.929 . S
H1700 C1708 0.929 . S
H1701 C1710 0.930 . S
H1702 C1712 0.930 . S
H1703 C1715 0.929 . S
H1704 C1718 0.930 . S
H1705 C1720 0.960 . S
H1706 C1720 0.960 . S
H1707 C1720 0.960 . S
C1708 H1700 0.929 . S
C1708 C1709 1.377 . S
C1708 C1710 1.384 . S
C1709 C1708 1.377 . S
C1709 C1715 1.390 . S
C1710 H1701 0.930 . S
C1710 C1708 1.384 . S
C1710 C1711 1.372 . S
C1711 C1710 1.372 . S
C1711 C1712 1.400 . S
C1711 C1716 1.490 . S
C1712 H1702 0.930 . S
C1712 C1711 1.400 . S
C1712 C1715 1.386 . S
H1713 C1729 0.930 . S
H1714 C1730 0.931 . S
C1715 H1703 0.929 . S
C1715 C1709 1.390 . S
C1715 C1712 1.386 . S
C1716 C1711 1.490 . S
C1716 C1718 1.395 . S
C1716 C1719 1.403 . S
H1717 C1723 0.930 . S
C1718 H1704 0.930 . S
C1718 C1716 1.395 . S
C1718 C1721 1.403 . S
C1719 C1716 1.403 . S
C1719 C1720 1.524 . S
C1719 C1723 1.400 . S
C1720 H1705 0.960 . S
C1720 H1706 0.960 . S
C1720 H1707 0.960 . S
C1720 C1719 1.524 . S
C1721 C1718 1.403 . S
C1721 C1722 1.392 . S
C1721 C1725 1.495 . S
C1722 C1721 1.392 . S
C1722 C1723 1.385 . S
C1722 C1724 1.478 . S
C1723 H1717 0.930 . S
C1723 C1719 1.400 . S
C1723 C1722 1.385 . S
C1724 C1722 1.478 . S
C1724 C1726 1.381 . S
C1724 C1730 1.383 . S
C1725 C1721 1.495 . S
C1725 H1731 0.959 . S
C1725 H1732 0.961 . S
C1725 H1733 0.960 . S
C1726 C1724 1.381 . S
C1726 C1727 1.394 . S
C1726 H1734 0.930 . S
C1727 C1726 1.394 . S
C1727 C1728 1.383 . S
C1727 H1735 0.929 . S
C1728 C1727 1.383 . S
C1728 C1729 1.377 . S
C1729 H1713 0.930 . S
C1729 C1728 1.377 . S
C1729 C1730 1.379 . S
C1730 H1714 0.931 . S
C1730 C1724 1.383 . S
C1730 C1729 1.379 . S
H1731 C1725 0.959 . S
H1732 C1725 0.961 . S
H1733 C1725 0.960 . S
H1734 C1726 0.930 . S
H1735 C1727 0.929 . S
H1736 C1744 0.929 . S
H1737 C1746 0.930 . S
H1738 C1748 0.930 . S
H1739 C1751 0.929 . S
H1740 C1754 0.930 . S
H1741 C1756 0.960 . S
H1742 C1756 0.960 . S
H1743 C1756 0.960 . S
C1744 H1736 0.929 . S
C1744 C1745 1.377 . S
C1744 C1746 1.384 . S
C1745 C1744 1.377 . S
C1745 C1751 1.390 . S
C1746 H1737 0.930 . S
C1746 C1744 1.384 . S
C1746 C1747 1.372 . S
C1747 C1746 1.372 . S
C1747 C1748 1.400 . S
C1747 C1752 1.490 . S
C1748 H1738 0.930 . S
C1748 C1747 1.400 . S
C1748 C1751 1.386 . S
H1749 C1765 0.930 . S
H1750 C1766 0.931 . S
C1751 H1739 0.929 . S
C1751 C1745 1.390 . S
C1751 C1748 1.386 . S
C1752 C1747 1.490 . S
C1752 C1754 1.395 . S
C1752 C1755 1.403 . S
H1753 C1759 0.930 . S
C1754 H1740 0.930 . S
C1754 C1752 1.395 . S
C1754 C1757 1.403 . S
C1755 C1752 1.403 . S
C1755 C1756 1.524 . S
C1755 C1759 1.400 . S
C1756 H1741 0.960 . S
C1756 H1742 0.960 . S
C1756 H1743 0.960 . S
C1756 C1755 1.524 . S
C1757 C1754 1.403 . S
C1757 C1758 1.392 . S
C1757 C1761 1.495 . S
C1758 C1757 1.392 . S
C1758 C1759 1.385 . S
C1758 C1760 1.478 . S
C1759 H1753 0.930 . S
C1759 C1755 1.400 . S
C1759 C1758 1.385 . S
C1760 C1758 1.478 . S
C1760 C1762 1.381 . S
C1760 C1766 1.383 . S
C1761 C1757 1.495 . S
C1761 H1767 0.959 . S
C1761 H1768 0.961 . S
C1761 H1769 0.960 . S
C1762 C1760 1.381 . S
C1762 C1763 1.394 . S
C1762 H1770 0.930 . S
C1763 C1762 1.394 . S
C1763 C1764 1.383 . S
C1763 H1771 0.929 . S
C1764 C1763 1.383 . S
C1764 C1765 1.377 . S
C1765 H1749 0.930 . S
C1765 C1764 1.377 . S
C1765 C1766 1.379 . S
C1766 H1750 0.931 . S
C1766 C1760 1.383 . S
C1766 C1765 1.379 . S
H1767 C1761 0.959 . S
H1768 C1761 0.961 . S
H1769 C1761 0.960 . S
H1770 C1762 0.930 . S
H1771 C1763 0.929 . S
H1772 C1780 0.929 . S
H1773 C1782 0.930 . S
H1774 C1784 0.930 . S
H1775 C1787 0.929 . S
H1776 C1790 0.930 . S
H1777 C1792 0.960 . S
H1778 C1792 0.960 . S
H1779 C1792 0.960 . S
C1780 H1772 0.929 . S
C1780 C1781 1.377 . S
C1780 C1782 1.384 . S
C1781 C1780 1.377 . S
C1781 C1787 1.390 . S
C1782 H1773 0.930 . S
C1782 C1780 1.384 . S
C1782 C1783 1.372 . S
C1783 C1782 1.372 . S
C1783 C1784 1.400 . S
C1783 C1788 1.490 . S
C1784 H1774 0.930 . S
C1784 C1783 1.400 . S
C1784 C1787 1.386 . S
H1785 C1801 0.930 . S
H1786 C1802 0.931 . S
C1787 H1775 0.929 . S
C1787 C1781 1.390 . S
C1787 C1784 1.386 . S
C1788 C1783 1.490 . S
C1788 C1790 1.395 . S
C1788 C1791 1.403 . S
H1789 C1795 0.930 . S
C1790 H1776 0.930 . S
C1790 C1788 1.395 . S
C1790 C1793 1.403 . S
C1791 C1788 1.403 . S
C1791 C1792 1.524 . S
C1791 C1795 1.400 . S
C1792 H1777 0.960 . S
C1792 H1778 0.960 . S
C1792 H1779 0.960 . S
C1792 C1791 1.524 . S
C1793 C1790 1.403 . S
C1793 C1794 1.392 . S
C1793 C1797 1.495 . S
C1794 C1793 1.392 . S
C1794 C1795 1.385 . S
C1794 C1796 1.478 . S
C1795 H1789 0.930 . S
C1795 C1791 1.400 . S
C1795 C1794 1.385 . S
C1796 C1794 1.478 . S
C1796 C1798 1.381 . S
C1796 C1802 1.383 . S
C1797 C1793 1.495 . S
C1797 H1803 0.959 . S
C1797 H1804 0.961 . S
C1797 H1805 0.960 . S
C1798 C1796 1.381 . S
C1798 C1799 1.394 . S
C1798 H1806 0.930 . S
C1799 C1798 1.394 . S
C1799 C1800 1.383 . S
C1799 H1807 0.929 . S
C1800 C1799 1.383 . S
C1800 C1801 1.377 . S
C1801 H1785 0.930 . S
C1801 C1800 1.377 . S
C1801 C1802 1.379 . S
C1802 H1786 0.931 . S
C1802 C1796 1.383 . S
C1802 C1801 1.379 . S
H1803 C1797 0.959 . S
H1804 C1797 0.961 . S
H1805 C1797 0.960 . S
H1806 C1798 0.930 . S
H1807 C1799 0.929 . S
H1808 C1816 0.929 . S
H1809 C1818 0.930 . S
H1810 C1820 0.930 . S
H1811 C1823 0.929 . S
H1812 C1826 0.930 . S
H1813 C1828 0.960 . S
H1814 C1828 0.960 . S
H1815 C1828 0.960 . S
C1816 H1808 0.929 . S
C1816 C1817 1.377 . S
C1816 C1818 1.384 . S
C1817 C1816 1.377 . S
C1817 C1823 1.390 1_545 S
C1818 H1809 0.930 . S
C1818 C1816 1.384 . S
C1818 C1819 1.372 . S
C1819 C1818 1.372 . S
C1819 C1820 1.400 1_545 S
C1819 C1824 1.490 . S
C1820 H1810 0.930 . S
C1820 C1819 1.400 1_565 S
C1820 C1823 1.386 . S
H1821 C1837 0.930 . S
H1822 C1838 0.931 . S
C1823 H1811 0.929 . S
C1823 C1817 1.390 1_565 S
C1823 C1820 1.386 . S
C1824 C1819 1.490 . S
C1824 C1826 1.395 . S
C1824 C1827 1.403 1_545 S
H1825 C1831 0.930 . S
C1826 H1812 0.930 . S
C1826 C1824 1.395 . S
C1826 C1829 1.403 . S
C1827 C1824 1.403 1_565 S
C1827 C1828 1.524 . S
C1827 C1831 1.400 . S
C1828 H1813 0.960 . S
C1828 H1814 0.960 . S
C1828 H1815 0.960 . S
C1828 C1827 1.524 . S
C1829 C1826 1.403 . S
C1829 C1830 1.392 . S
C1829 C1833 1.495 . S
C1830 C1829 1.392 . S
C1830 C1831 1.385 1_545 S
C1830 C1832 1.478 . S
C1831 H1825 0.930 . S
C1831 C1827 1.400 . S
C1831 C1830 1.385 1_565 S
C1832 C1830 1.478 . S
C1832 C1834 1.381 . S
C1832 C1838 1.383 1_545 S
C1833 C1829 1.495 . S
C1833 H1839 0.959 . S
C1833 H1840 0.961 . S
C1833 H1841 0.960 . S
C1834 C1832 1.381 . S
C1834 C1835 1.394 . S
C1834 H1842 0.930 . S
C1835 C1834 1.394 . S
C1835 C1836 1.383 . S
C1835 H1843 0.929 . S
C1836 C1835 1.383 . S
C1836 C1837 1.377 1_545 S
C1837 H1821 0.930 . S
C1837 C1836 1.377 1_565 S
C1837 C1838 1.379 . S
C1838 H1822 0.931 . S
C1838 C1832 1.383 1_565 S
C1838 C1837 1.379 . S
H1839 C1833 0.959 . S
H1840 C1833 0.961 . S
H1841 C1833 0.960 . S
H1842 C1834 0.930 . S
H1843 C1835 0.929 . S
H1844 C1852 0.929 . S
H1845 C1854 0.930 . S
H1846 C1856 0.930 . S
H1847 C1859 0.929 . S
H1848 C1862 0.930 . S
H1849 C1864 0.960 . S
H1850 C1864 0.960 . S
H1851 C1864 0.960 . S
C1852 H1844 0.929 . S
C1852 C1853 1.377 . S
C1852 C1854 1.384 . S
C1853 C1852 1.377 . S
C1853 C1859 1.390 . S
C1854 H1845 0.930 . S
C1854 C1852 1.384 . S
C1854 C1855 1.372 . S
C1855 C1854 1.372 . S
C1855 C1856 1.400 . S
C1855 C1860 1.490 . S
C1856 H1846 0.930 . S
C1856 C1855 1.400 . S
C1856 C1859 1.386 . S
H1857 C1873 0.930 . S
H1858 C1874 0.931 . S
C1859 H1847 0.929 . S
C1859 C1853 1.390 . S
C1859 C1856 1.386 . S
C1860 C1855 1.490 . S
C1860 C1862 1.395 . S
C1860 C1863 1.403 . S
H1861 C1867 0.930 . S
C1862 H1848 0.930 . S
C1862 C1860 1.395 . S
C1862 C1865 1.403 . S
C1863 C1860 1.403 . S
C1863 C1864 1.524 . S
C1863 C1867 1.400 . S
C1864 H1849 0.960 . S
C1864 H1850 0.960 . S
C1864 H1851 0.960 . S
C1864 C1863 1.524 . S
C1865 C1862 1.403 . S
C1865 C1866 1.392 . S
C1865 C1869 1.495 . S
C1866 C1865 1.392 . S
C1866 C1867 1.385 . S
C1866 C1868 1.478 . S
C1867 H1861 0.930 . S
C1867 C1863 1.400 . S
C1867 C1866 1.385 . S
C1868 C1866 1.478 . S
C1868 C1870 1.381 . S
C1868 C1874 1.383 . S
C1869 C1865 1.495 . S
C1869 H1875 0.959 . S
C1869 H1876 0.961 . S
C1869 H1877 0.960 . S
C1870 C1868 1.381 . S
C1870 C1871 1.394 . S
C1870 H1878 0.930 . S
C1871 C1870 1.394 . S
C1871 C1872 1.383 . S
C1871 H1879 0.929 . S
C1872 C1871 1.383 . S
C1872 C1873 1.377 . S
C1873 H1857 0.930 . S
C1873 C1872 1.377 . S
C1873 C1874 1.379 . S
C1874 H1858 0.931 . S
C1874 C1868 1.383 . S
C1874 C1873 1.379 . S
H1875 C1869 0.959 . S
H1876 C1869 0.961 . S
H1877 C1869 0.960 . S
H1878 C1870 0.930 . S
H1879 C1871 0.929 . S
H1880 C1888 0.929 . S
H1881 C1890 0.930 . S
H1882 C1892 0.930 . S
H1883 C1895 0.929 . S
H1884 C1898 0.930 . S
H1885 C1900 0.995 . S
H1886 C1900 0.960 . S
H1887 C1900 0.960 . S
C1888 H1880 0.929 . S
C1888 C1889 1.377 . S
C1888 C1890 1.384 . S
C1889 C1888 1.377 . S
C1889 C1895 1.390 . S
C1890 H1881 0.930 . S
C1890 C1888 1.384 . S
C1890 C1891 1.372 . S
C1891 C1890 1.372 . S
C1891 C1892 1.400 . S
C1891 C1896 1.490 . S
C1892 H1882 0.930 . S
C1892 C1891 1.400 . S
C1892 C1895 1.386 . S
H1893 C1909 0.930 . S
H1894 C1910 0.931 . S
C1895 H1883 0.929 . S
C1895 C1889 1.390 . S
C1895 C1892 1.386 . S
C1896 C1891 1.490 . S
C1896 C1898 1.395 . S
C1896 C1899 1.403 . S
H1897 C1903 0.930 . S
C1898 H1884 0.930 . S
C1898 C1896 1.395 . S
C1898 C1901 1.403 . S
C1899 C1896 1.403 . S
C1899 C1900 1.524 . S
C1899 C1903 1.400 . S
C1900 H1885 0.995 . S
C1900 H1886 0.960 . S
C1900 H1887 0.960 . S
C1900 C1899 1.524 . S
C1901 C1898 1.403 . S
C1901 C1902 1.392 . S
C1901 C1905 1.495 . S
C1902 C1901 1.392 . S
C1902 C1903 1.385 . S
C1902 C1904 1.478 . S
C1903 H1897 0.930 . S
C1903 C1899 1.400 . S
C1903 C1902 1.385 . S
C1904 C1902 1.478 . S
C1904 C1906 1.381 . S
C1904 C1910 1.383 . S
C1905 C1901 1.495 . S
C1905 H1911 0.959 . S
C1905 H1912 0.961 . S
C1905 H1913 0.960 . S
C1906 C1904 1.381 . S
C1906 C1907 1.394 . S
C1906 H1914 0.930 . S
C1907 C1906 1.394 . S
C1907 C1908 1.383 . S
C1907 H1915 0.929 . S
C1908 C1907 1.383 . S
C1908 C1909 1.377 . S
C1909 H1893 0.930 . S
C1909 C1908 1.377 . S
C1909 C1910 1.379 . S
C1910 H1894 0.931 . S
C1910 C1904 1.383 . S
C1910 C1909 1.379 . S
H1911 C1905 0.959 . S
H1912 C1905 0.961 . S
H1913 C1905 0.960 . S
H1914 C1906 0.930 . S
H1915 C1907 0.929 . S
H1916 C1924 0.929 . S
H1917 C1926 0.930 . S
H1918 C1928 0.930 . S
H1919 C1931 0.929 . S
H1920 C1934 0.930 . S
H1921 C1936 0.960 . S
H1922 C1936 0.960 . S
H1923 C1936 0.960 . S
C1924 H1916 0.929 . S
C1924 C1925 1.377 . S
C1924 C1926 1.384 . S
C1925 C1924 1.377 . S
C1925 C1931 1.390 . S
C1926 H1917 0.930 . S
C1926 C1924 1.384 . S
C1926 C1927 1.372 . S
C1927 C1926 1.372 . S
C1927 C1928 1.400 . S
C1927 C1932 1.490 . S
C1928 H1918 0.930 . S
C1928 C1927 1.400 . S
C1928 C1931 1.386 . S
H1929 C1945 0.930 . S
H1930 C1946 0.931 . S
C1931 H1919 0.929 . S
C1931 C1925 1.390 . S
C1931 C1928 1.386 . S
C1932 C1927 1.490 . S
C1932 C1934 1.395 . S
C1932 C1935 1.403 . S
H1933 C1939 0.930 . S
C1934 H1920 0.930 . S
C1934 C1932 1.395 . S
C1934 C1937 1.403 . S
C1935 C1932 1.403 . S
C1935 C1936 1.524 . S
C1935 C1939 1.400 . S
C1936 H1921 0.960 . S
C1936 H1922 0.960 . S
C1936 H1923 0.960 . S
C1936 C1935 1.524 . S
C1937 C1934 1.403 . S
C1937 C1938 1.392 . S
C1937 C1941 1.495 . S
C1938 C1937 1.392 . S
C1938 C1939 1.385 . S
C1938 C1940 1.478 . S
C1939 H1933 0.930 . S
C1939 C1935 1.400 . S
C1939 C1938 1.385 . S
C1940 C1938 1.478 . S
C1940 C1942 1.381 . S
C1940 C1946 1.383 . S
C1941 C1937 1.495 . S
C1941 H1947 0.959 . S
C1941 H1948 0.961 . S
C1941 H1949 0.960 . S
C1942 C1940 1.381 . S
C1942 C1943 1.394 . S
C1942 H1950 0.930 . S
C1943 C1942 1.394 . S
C1943 C1944 1.383 . S
C1943 H1951 0.929 . S
C1944 C1943 1.383 . S
C1944 C1945 1.377 . S
C1945 H1929 0.930 . S
C1945 C1944 1.377 . S
C1945 C1946 1.379 . S
C1946 H1930 0.931 . S
C1946 C1940 1.383 . S
C1946 C1945 1.379 . S
H1947 C1941 0.959 . S
H1948 C1941 0.961 . S
H1949 C1941 0.960 . S
H1950 C1942 0.930 . S
H1951 C1943 0.929 . S
H1952 C1960 0.929 . S
H1953 C1962 0.930 . S
H1954 C1964 0.930 . S
H1955 C1967 0.929 . S
H1956 C1970 0.930 . S
H1957 C1972 0.960 . S
H1958 C1972 0.960 . S
H1959 C1972 0.960 . S
C1960 H1952 0.929 . S
C1960 C1961 1.377 1_545 S
C1960 C1962 1.384 . S
C1961 C1960 1.377 1_565 S
C1961 C1967 1.390 . S
C1962 H1953 0.930 . S
C1962 C1960 1.384 . S
C1962 C1963 1.372 . S
C1963 C1962 1.372 . S
C1963 C1964 1.400 1_545 S
C1963 C1968 1.490 . S
C1964 H1954 0.930 . S
C1964 C1963 1.400 1_565 S
C1964 C1967 1.386 . S
H1965 C1981 0.930 . S
H1966 C1982 0.931 . S
C1967 H1955 0.929 . S
C1967 C1961 1.390 . S
C1967 C1964 1.386 . S
C1968 C1963 1.490 . S
C1968 C1970 1.395 . S
C1968 C1971 1.403 1_545 S
H1969 C1975 0.933 . S
C1970 H1956 0.930 . S
C1970 C1968 1.395 . S
C1970 C1973 1.403 . S
C1971 C1968 1.403 1_565 S
C1971 C1972 1.524 . S
C1971 C1975 1.402 . S
C1972 H1957 0.960 . S
C1972 H1958 0.960 . S
C1972 H1959 0.960 . S
C1972 C1971 1.524 . S
C1973 C1970 1.403 . S
C1973 C1974 1.392 . S
C1973 C1977 1.495 . S
C1974 C1973 1.392 . S
C1974 C1975 1.381 1_545 S
C1974 C1976 1.478 . S
C1975 H1969 0.933 . S
C1975 C1971 1.402 . S
C1975 C1974 1.381 1_565 S
C1976 C1974 1.478 . S
C1976 C1978 1.381 . S
C1976 C1982 1.383 . S
C1977 C1973 1.495 . S
C1977 H1983 0.959 . S
C1977 H1984 0.961 . S
C1977 H1985 0.960 . S
C1978 C1976 1.381 . S
C1978 C1979 1.394 . S
C1978 H1986 0.930 . S
C1979 C1978 1.394 . S
C1979 C1980 1.383 . S
C1979 H1987 0.929 . S
C1980 C1979 1.383 . S
C1980 C1981 1.377 . S
C1981 H1965 0.930 . S
C1981 C1980 1.377 . S
C1981 C1982 1.379 . S
C1982 H1966 0.931 . S
C1982 C1976 1.383 . S
C1982 C1981 1.379 . S
H1983 C1977 0.959 . S
H1984 C1977 0.961 . S
H1985 C1977 0.960 . S
H1986 C1978 0.930 . S
H1987 C1979 0.929 . S
H1988 C1996 0.929 . S
H1989 C1998 0.930 . S
H1990 C2000 0.930 . S
H1991 C2003 0.929 . S
H1992 C2006 0.930 . S
H1993 C2008 0.960 . S
H1994 C2008 0.960 . S
H1995 C2008 0.960 . S
C1996 H1988 0.929 . S
C1996 C1997 1.377 . S
C1996 C1998 1.384 . S
C1997 C1996 1.377 . S
C1997 C2003 1.390 . S
C1998 H1989 0.930 . S
C1998 C1996 1.384 . S
C1998 C1999 1.372 . S
C1999 C1998 1.372 . S
C1999 C2000 1.400 . S
C1999 C2004 1.490 . S
C2000 H1990 0.930 . S
C2000 C1999 1.400 . S
C2000 C2003 1.386 . S
H2001 C2017 0.930 . S
H2002 C2018 0.931 . S
C2003 H1991 0.929 . S
C2003 C1997 1.390 . S
C2003 C2000 1.386 . S
C2004 C1999 1.490 . S
C2004 C2006 1.395 . S
C2004 C2007 1.403 . S
H2005 C2011 0.930 . S
C2006 H1992 0.930 . S
C2006 C2004 1.395 . S
C2006 C2009 1.403 . S
C2007 C2004 1.403 . S
C2007 C2008 1.524 . S
C2007 C2011 1.400 . S
C2008 H1993 0.960 . S
C2008 H1994 0.960 . S
C2008 H1995 0.960 . S
C2008 C2007 1.524 . S
C2009 C2006 1.403 . S
C2009 C2010 1.392 . S
C2009 C2013 1.495 . S
C2010 C2009 1.392 . S
C2010 C2011 1.385 . S
C2010 C2012 1.478 . S
C2011 H2005 0.930 . S
C2011 C2007 1.400 . S
C2011 C2010 1.385 . S
C2012 C2010 1.478 . S
C2012 C2014 1.381 . S
C2012 C2018 1.383 . S
C2013 C2009 1.495 . S
C2013 H2019 0.959 . S
C2013 H2020 0.961 . S
C2013 H2021 0.960 . S
C2014 C2012 1.381 . S
C2014 C2015 1.394 . S
C2014 H2022 0.930 . S
C2015 C2014 1.394 . S
C2015 C2016 1.383 . S
C2015 H2023 0.929 . S
C2016 C2015 1.383 . S
C2016 C2017 1.377 . S
C2017 H2001 0.930 . S
C2017 C2016 1.377 . S
C2017 C2018 1.379 . S
C2018 H2002 0.931 . S
C2018 C2012 1.383 . S
C2018 C2017 1.379 . S
H2019 C2013 0.959 . S
H2020 C2013 0.961 . S
H2021 C2013 0.960 . S
H2022 C2014 0.930 . S
H2023 C2015 0.929 . S
H2024 C2032 0.929 . S
H2025 C2034 0.930 . S
H2026 C2036 0.930 . S
H2027 C2039 0.929 . S
H2028 C2042 0.930 . S
H2029 C2044 0.960 1_565 S
H2030 C2044 0.960 . S
H2031 C2044 0.960 1_565 S
C2032 H2024 0.929 . S
C2032 C2033 1.377 . S
C2032 C2034 1.384 . S
C2033 C2032 1.377 . S
C2033 C2039 1.390 . S
C2034 H2025 0.930 . S
C2034 C2032 1.384 . S
C2034 C2035 1.372 . S
C2035 C2034 1.372 . S
C2035 C2036 1.400 . S
C2035 C2040 1.490 . S
C2036 H2026 0.930 . S
C2036 C2035 1.400 . S
C2036 C2039 1.386 . S
H2037 C2053 0.930 . S
H2038 C2054 0.931 . S
C2039 H2027 0.929 . S
C2039 C2033 1.390 . S
C2039 C2036 1.386 . S
C2040 C2035 1.490 . S
C2040 C2042 1.395 . S
C2040 C2043 1.403 . S
H2041 C2047 0.930 . S
C2042 H2028 0.930 . S
C2042 C2040 1.395 . S
C2042 C2045 1.403 . S
C2043 C2040 1.403 . S
C2043 C2044 1.524 . S
C2043 C2047 1.400 . S
C2044 H2029 0.960 1_545 S
C2044 H2030 0.960 . S
C2044 H2031 0.960 1_545 S
C2044 C2043 1.524 . S
C2045 C2042 1.403 . S
C2045 C2046 1.392 . S
C2045 C2049 1.495 . S
C2046 C2045 1.392 . S
C2046 C2047 1.385 . S
C2046 C2048 1.478 . S
C2047 H2041 0.930 . S
C2047 C2043 1.400 . S
C2047 C2046 1.385 . S
C2048 C2046 1.478 . S
C2048 C2050 1.381 . S
C2048 C2054 1.383 . S
C2049 C2045 1.495 . S
C2049 H2055 0.959 . S
C2049 H2056 0.961 . S
C2049 H2057 0.960 . S
C2050 C2048 1.381 . S
C2050 C2051 1.394 . S
C2050 H2058 0.930 . S
C2051 C2050 1.394 . S
C2051 C2052 1.383 . S
C2051 H2059 0.929 . S
C2052 C2051 1.383 . S
C2052 C2053 1.377 . S
C2053 H2037 0.930 . S
C2053 C2052 1.377 . S
C2053 C2054 1.379 . S
C2054 H2038 0.931 . S
C2054 C2048 1.383 . S
C2054 C2053 1.379 . S
H2055 C2049 0.959 . S
H2056 C2049 0.961 . S
H2057 C2049 0.960 . S
H2058 C2050 0.930 . S
H2059 C2051 0.929 . S
H2060 C2068 0.929 . S
H2061 C2070 0.930 . S
H2062 C2072 0.930 . S
H2063 C2075 0.929 . S
H2064 C2078 0.930 . S
H2065 C2080 0.960 . S
H2066 C2080 0.960 . S
H2067 C2080 0.960 . S
C2068 H2060 0.929 . S
C2068 C2069 1.377 . S
C2068 C2070 1.384 . S
C2069 C2068 1.377 . S
C2069 C2075 1.390 . S
C2070 H2061 0.930 . S
C2070 C2068 1.384 . S
C2070 C2071 1.372 . S
C2071 C2070 1.372 . S
C2071 C2072 1.400 . S
C2071 C2076 1.490 . S
C2072 H2062 0.930 . S
C2072 C2071 1.400 . S
C2072 C2075 1.386 . S
H2073 C2089 0.930 . S
H2074 C2090 0.931 . S
C2075 H2063 0.929 . S
C2075 C2069 1.390 . S
C2075 C2072 1.386 . S
C2076 C2071 1.490 . S
C2076 C2078 1.395 . S
C2076 C2079 1.403 . S
H2077 C2083 0.930 . S
C2078 H2064 0.930 . S
C2078 C2076 1.395 . S
C2078 C2081 1.403 . S
C2079 C2076 1.403 . S
C2079 C2080 1.524 . S
C2079 C2083 1.400 . S
C2080 H2065 0.960 . S
C2080 H2066 0.960 . S
C2080 H2067 0.960 . S
C2080 C2079 1.524 . S
C2081 C2078 1.403 . S
C2081 C2082 1.392 . S
C2081 C2085 1.495 . S
C2082 C2081 1.392 . S
C2082 C2083 1.385 . S
C2082 C2084 1.478 . S
C2083 H2077 0.930 . S
C2083 C2079 1.400 . S
C2083 C2082 1.385 . S
C2084 C2082 1.478 . S
C2084 C2086 1.381 . S
C2084 C2090 1.383 . S
C2085 C2081 1.495 . S
C2085 H2091 0.959 . S
C2085 H2092 0.961 . S
C2085 H2093 0.960 . S
C2086 C2084 1.381 . S
C2086 C2087 1.394 . S
C2086 H2094 0.930 . S
C2087 C2086 1.394 . S
C2087 C2088 1.383 . S
C2087 H2095 0.929 . S
C2088 C2087 1.383 . S
C2088 C2089 1.377 . S
C2089 H2073 0.930 . S
C2089 C2088 1.377 . S
C2089 C2090 1.379 . S
C2090 H2074 0.931 . S
C2090 C2084 1.383 . S
C2090 C2089 1.379 . S
H2091 C2085 0.959 . S
H2092 C2085 0.961 . S
H2093 C2085 0.960 . S
H2094 C2086 0.930 . S
H2095 C2087 0.929 . S
H2096 C2104 0.929 . S
H2097 C2106 0.930 . S
H2098 C2108 0.930 . S
H2099 C2111 0.929 . S
H2100 C2114 0.930 . S
H2101 C2116 0.960 . S
H2102 C2116 0.960 . S
H2103 C2116 0.960 . S
C2104 H2096 0.929 . S
C2104 C2105 1.377 . S
C2104 C2106 1.384 . S
C2105 C2104 1.377 . S
C2105 C2111 1.390 1_554 S
C2106 H2097 0.930 . S
C2106 C2104 1.384 . S
C2106 C2107 1.372 . S
C2107 C2106 1.372 . S
C2107 C2108 1.400 1_554 S
C2107 C2112 1.490 . S
C2108 H2098 0.930 . S
C2108 C2107 1.400 1_556 S
C2108 C2111 1.386 . S
H2109 C2125 0.930 . S
H2110 C2126 0.931 . S
C2111 H2099 0.929 . S
C2111 C2105 1.390 1_556 S
C2111 C2108 1.386 . S
C2112 C2107 1.490 . S
C2112 C2114 1.395 . S
C2112 C2115 1.403 1_554 S
H2113 C2119 0.930 . S
C2114 H2100 0.930 . S
C2114 C2112 1.395 . S
C2114 C2117 1.403 . S
C2115 C2112 1.403 1_556 S
C2115 C2116 1.524 . S
C2115 C2119 1.400 . S
C2116 H2101 0.960 . S
C2116 H2102 0.960 . S
C2116 H2103 0.960 . S
C2116 C2115 1.524 . S
C2117 C2114 1.403 . S
C2117 C2118 1.392 . S
C2117 C2121 1.495 . S
C2118 C2117 1.392 . S
C2118 C2119 1.385 1_554 S
C2118 C2120 1.478 . S
C2119 H2113 0.930 . S
C2119 C2115 1.400 . S
C2119 C2118 1.385 1_556 S
C2120 C2118 1.478 . S
C2120 C2122 1.381 . S
C2120 C2126 1.383 1_554 S
C2121 C2117 1.495 . S
C2121 H2127 0.959 . S
C2121 H2128 0.961 . S
C2121 H2129 0.960 . S
C2122 C2120 1.381 . S
C2122 C2123 1.394 . S
C2122 H2130 0.930 . S
C2123 C2122 1.394 . S
C2123 C2124 1.383 . S
C2123 H2131 0.929 . S
C2124 C2123 1.383 . S
C2124 C2125 1.377 1_554 S
C2125 H2109 0.930 . S
C2125 C2124 1.377 1_556 S
C2125 C2126 1.379 . S
C2126 H2110 0.931 . S
C2126 C2120 1.383 1_556 S
C2126 C2125 1.379 . S
H2127 C2121 0.959 . S
H2128 C2121 0.961 . S
H2129 C2121 0.960 . S
H2130 C2122 0.930 . S
H2131 C2123 0.929 . S
H2132 C2140 0.929 . S
H2133 C2142 0.930 . S
H2134 C2144 0.930 1_556 S
H2135 C2147 0.929 1_556 S
H2136 C2150 0.930 . S
H2137 C2152 0.960 . S
H2138 C2152 0.960 . S
H2139 C2152 0.960 . S
C2140 H2132 0.929 . S
C2140 C2141 1.377 . S
C2140 C2142 1.384 . S
C2141 C2140 1.377 . S
C2141 C2147 1.390 . S
C2142 H2133 0.930 . S
C2142 C2140 1.384 . S
C2142 C2143 1.372 . S
C2143 C2142 1.372 . S
C2143 C2144 1.400 . S
C2143 C2148 1.490 . S
C2144 H2134 0.930 1_554 S
C2144 C2143 1.400 . S
C2144 C2147 1.386 . S
H2145 C2161 0.930 1_556 S
H2146 C2162 0.931 1_556 S
C2147 H2135 0.929 1_554 S
C2147 C2141 1.390 . S
C2147 C2144 1.386 . S
C2148 C2143 1.490 . S
C2148 C2150 1.395 . S
C2148 C2151 1.403 . S
H2149 C2155 0.930 . S
C2150 H2136 0.930 . S
C2150 C2148 1.395 . S
C2150 C2153 1.403 . S
C2151 C2148 1.403 . S
C2151 C2152 1.524 . S
C2151 C2155 1.400 . S
C2152 H2137 0.960 . S
C2152 H2138 0.960 . S
C2152 H2139 0.960 . S
C2152 C2151 1.524 . S
C2153 C2150 1.403 . S
C2153 C2154 1.392 . S
C2153 C2157 1.495 . S
C2154 C2153 1.392 . S
C2154 C2155 1.385 . S
C2154 C2156 1.478 . S
C2155 H2149 0.930 . S
C2155 C2151 1.400 . S
C2155 C2154 1.385 . S
C2156 C2154 1.478 . S
C2156 C2158 1.381 . S
C2156 C2162 1.383 . S
C2157 C2153 1.495 . S
C2157 H2163 0.959 . S
C2157 H2164 0.961 . S
C2157 H2165 0.960 . S
C2158 C2156 1.381 . S
C2158 C2159 1.394 . S
C2158 H2166 0.930 . S
C2159 C2158 1.394 . S
C2159 C2160 1.383 . S
C2159 H2167 0.929 . S
C2160 C2159 1.383 . S
C2160 C2161 1.377 . S
C2161 H2145 0.930 1_554 S
C2161 C2160 1.377 . S
C2161 C2162 1.379 . S
C2162 H2146 0.931 1_554 S
C2162 C2156 1.383 . S
C2162 C2161 1.379 . S
H2163 C2157 0.959 . S
H2164 C2157 0.961 . S
H2165 C2157 0.960 . S
H2166 C2158 0.930 . S
H2167 C2159 0.929 . S
H2168 C2176 0.929 . S
H2169 C2178 0.930 . S
H2170 C2180 0.930 . S
H2171 C2183 0.929 . S
H2172 C2186 0.930 . S
H2173 C2188 0.960 . S
H2174 C2188 0.960 . S
H2175 C2188 0.960 . S
C2176 H2168 0.929 . S
C2176 C2177 1.377 . S
C2176 C2178 1.384 . S
C2177 C2176 1.377 . S
C2177 C2183 1.390 . S
C2178 H2169 0.930 . S
C2178 C2176 1.384 . S
C2178 C2179 1.372 . S
C2179 C2178 1.372 . S
C2179 C2180 1.400 . S
C2179 C2184 1.490 . S
C2180 H2170 0.930 . S
C2180 C2179 1.400 . S
C2180 C2183 1.386 . S
H2181 C2197 0.930 . S
H2182 C2198 0.931 . S
C2183 H2171 0.929 . S
C2183 C2177 1.390 . S
C2183 C2180 1.386 . S
C2184 C2179 1.490 . S
C2184 C2186 1.395 . S
C2184 C2187 1.403 . S
H2185 C2191 0.930 . S
C2186 H2172 0.930 . S
C2186 C2184 1.395 . S
C2186 C2189 1.403 . S
C2187 C2184 1.403 . S
C2187 C2188 1.524 . S
C2187 C2191 1.400 . S
C2188 H2173 0.960 . S
C2188 H2174 0.960 . S
C2188 H2175 0.960 . S
C2188 C2187 1.524 . S
C2189 C2186 1.403 . S
C2189 C2190 1.392 . S
C2189 C2193 1.495 . S
C2190 C2189 1.392 . S
C2190 C2191 1.385 . S
C2190 C2192 1.478 . S
C2191 H2185 0.930 . S
C2191 C2187 1.400 . S
C2191 C2190 1.385 . S
C2192 C2190 1.478 . S
C2192 C2194 1.381 . S
C2192 C2198 1.383 . S
C2193 C2189 1.495 . S
C2193 H2199 0.959 . S
C2193 H2200 0.961 . S
C2193 H2201 0.960 . S
C2194 C2192 1.381 . S
C2194 C2195 1.394 . S
C2194 H2202 0.930 . S
C2195 C2194 1.394 . S
C2195 C2196 1.383 . S
C2195 H2203 0.929 . S
C2196 C2195 1.383 . S
C2196 C2197 1.377 . S
C2197 H2181 0.930 . S
C2197 C2196 1.377 . S
C2197 C2198 1.379 . S
C2198 H2182 0.931 . S
C2198 C2192 1.383 . S
C2198 C2197 1.379 . S
H2199 C2193 0.959 . S
H2200 C2193 0.961 . S
H2201 C2193 0.960 . S
H2202 C2194 0.930 . S
H2203 C2195 0.929 . S
H2204 C2212 0.929 . S
H2205 C2214 0.930 . S
H2206 C2216 0.930 . S
H2207 C2219 0.929 . S
H2208 C2222 0.930 . S
H2209 C2224 0.960 . S
H2210 C2224 0.960 . S
H2211 C2224 0.960 . S
C2212 H2204 0.929 . S
C2212 C2213 1.377 . S
C2212 C2214 1.384 . S
C2213 C2212 1.377 . S
C2213 C2219 1.390 . S
C2214 H2205 0.930 . S
C2214 C2212 1.384 . S
C2214 C2215 1.372 . S
C2215 C2214 1.372 . S
C2215 C2216 1.400 . S
C2215 C2220 1.490 . S
C2216 H2206 0.930 . S
C2216 C2215 1.400 . S
C2216 C2219 1.386 . S
H2217 C2233 0.930 . S
H2218 C2234 0.931 . S
C2219 H2207 0.929 . S
C2219 C2213 1.390 . S
C2219 C2216 1.386 . S
C2220 C2215 1.490 . S
C2220 C2222 1.395 . S
C2220 C2223 1.403 . S
H2221 C2227 0.930 . S
C2222 H2208 0.930 . S
C2222 C2220 1.395 . S
C2222 C2225 1.403 . S
C2223 C2220 1.403 . S
C2223 C2224 1.524 . S
C2223 C2227 1.400 . S
C2224 H2209 0.960 . S
C2224 H2210 0.960 . S
C2224 H2211 0.960 . S
C2224 C2223 1.524 . S
C2225 C2222 1.403 . S
C2225 C2226 1.392 . S
C2225 C2229 1.495 . S
C2226 C2225 1.392 . S
C2226 C2227 1.385 . S
C2226 C2228 1.478 . S
C2227 H2221 0.930 . S
C2227 C2223 1.400 . S
C2227 C2226 1.385 . S
C2228 C2226 1.478 . S
C2228 C2230 1.381 . S
C2228 C2234 1.383 . S
C2229 C2225 1.495 . S
C2229 H2235 0.959 . S
C2229 H2236 0.961 . S
C2229 H2237 0.960 . S
C2230 C2228 1.381 . S
C2230 C2231 1.394 . S
C2230 H2238 0.930 . S
C2231 C2230 1.394 . S
C2231 C2232 1.383 . S
C2231 H2239 0.929 . S
C2232 C2231 1.383 . S
C2232 C2233 1.377 . S
C2233 H2217 0.930 . S
C2233 C2232 1.377 . S
C2233 C2234 1.379 . S
C2234 H2218 0.931 . S
C2234 C2228 1.383 . S
C2234 C2233 1.379 . S
H2235 C2229 0.959 . S
H2236 C2229 0.961 . S
H2237 C2229 0.960 . S
H2238 C2230 0.930 . S
H2239 C2231 0.929 . S
H2240 C2248 0.929 . S
H2241 C2250 0.930 . S
H2242 C2252 0.930 . S
H2243 C2255 0.929 . S
H2244 C2258 0.930 . S
H2245 C2260 0.960 . S
H2246 C2260 0.960 . S
H2247 C2260 0.960 . S
C2248 H2240 0.929 . S
C2248 C2249 1.377 . S
C2248 C2250 1.384 . S
C2249 C2248 1.377 . S
C2249 C2255 1.390 . S
C2250 H2241 0.930 . S
C2250 C2248 1.384 . S
C2250 C2251 1.372 . S
C2251 C2250 1.372 . S
C2251 C2252 1.400 . S
C2251 C2256 1.490 . S
C2252 H2242 0.930 . S
C2252 C2251 1.400 . S
C2252 C2255 1.386 . S
H2253 C2269 0.930 . S
H2254 C2270 0.931 . S
C2255 H2243 0.929 . S
C2255 C2249 1.390 . S
C2255 C2252 1.386 . S
C2256 C2251 1.490 . S
C2256 C2258 1.395 . S
C2256 C2259 1.403 . S
H2257 C2263 0.930 . S
C2258 H2244 0.930 . S
C2258 C2256 1.395 . S
C2258 C2261 1.403 . S
C2259 C2256 1.403 . S
C2259 C2260 1.524 . S
C2259 C2263 1.400 . S
C2260 H2245 0.960 . S
C2260 H2246 0.960 . S
C2260 H2247 0.960 . S
C2260 C2259 1.524 . S
C2261 C2258 1.403 . S
C2261 C2262 1.392 . S
C2261 C2265 1.495 . S
C2262 C2261 1.392 . S
C2262 C2263 1.385 . S
C2262 C2264 1.478 . S
C2263 H2257 0.930 . S
C2263 C2259 1.400 . S
C2263 C2262 1.385 . S
C2264 C2262 1.478 . S
C2264 C2266 1.381 . S
C2264 C2270 1.383 . S
C2265 C2261 1.495 . S
C2265 H2271 0.959 . S
C2265 H2272 0.961 . S
C2265 H2273 0.960 . S
C2266 C2264 1.381 . S
C2266 C2267 1.394 . S
C2266 H2274 0.930 . S
C2267 C2266 1.394 . S
C2267 C2268 1.383 . S
C2267 H2275 0.929 . S
C2268 C2267 1.383 . S
C2268 C2269 1.377 . S
C2269 H2253 0.930 . S
C2269 C2268 1.377 . S
C2269 C2270 1.379 . S
C2270 H2254 0.931 . S
C2270 C2264 1.383 . S
C2270 C2269 1.379 . S
H2271 C2265 0.959 . S
H2272 C2265 0.961 . S
H2273 C2265 0.960 . S
H2274 C2266 0.930 . S
H2275 C2267 0.929 . S
H2276 C2284 0.929 . S
H2277 C2286 0.930 . S
H2278 C2288 0.930 . S
H2279 C2291 0.929 . S
H2280 C2294 0.930 . S
H2281 C2296 0.960 . S
H2282 C2296 0.960 . S
H2283 C2296 0.960 . S
C2284 H2276 0.929 . S
C2284 C2285 1.377 . S
C2284 C2286 1.384 . S
C2285 C2284 1.377 . S
C2285 C2291 1.390 . S
C2286 H2277 0.930 . S
C2286 C2284 1.384 . S
C2286 C2287 1.372 . S
C2287 C2286 1.372 . S
C2287 C2288 1.400 . S
C2287 C2292 1.490 . S
C2288 H2278 0.930 . S
C2288 C2287 1.400 . S
C2288 C2291 1.386 . S
H2289 C2305 0.930 . S
H2290 C2306 0.931 . S
C2291 H2279 0.929 . S
C2291 C2285 1.390 . S
C2291 C2288 1.386 . S
C2292 C2287 1.490 . S
C2292 C2294 1.395 . S
C2292 C2295 1.403 . S
H2293 C2299 0.930 . S
C2294 H2280 0.930 . S
C2294 C2292 1.395 . S
C2294 C2297 1.403 . S
C2295 C2292 1.403 . S
C2295 C2296 1.524 . S
C2295 C2299 1.400 . S
C2296 H2281 0.960 . S
C2296 H2282 0.960 . S
C2296 H2283 0.960 . S
C2296 C2295 1.524 . S
C2297 C2294 1.403 . S
C2297 C2298 1.392 . S
C2297 C2301 1.495 1_565 S
C2298 C2297 1.392 . S
C2298 C2299 1.385 . S
C2298 C2300 1.478 . S
C2299 H2293 0.930 . S
C2299 C2295 1.400 . S
C2299 C2298 1.385 . S
C2300 C2298 1.478 . S
C2300 C2302 1.381 . S
C2300 C2306 1.383 . S
C2301 C2297 1.495 1_545 S
C2301 H2307 0.959 . S
C2301 H2308 0.961 . S
C2301 H2309 0.960 . S
C2302 C2300 1.381 . S
C2302 C2303 1.364 1_565 S
C2302 H2310 0.930 . S
C2303 C2302 1.364 1_545 S
C2303 C2304 1.394 . S
C2303 H2311 0.952 . S
C2304 C2303 1.394 . S
C2304 C2305 1.377 1_545 S
C2305 H2289 0.930 . S
C2305 C2304 1.377 1_565 S
C2305 C2306 1.379 . S
C2306 H2290 0.931 . S
C2306 C2300 1.383 . S
C2306 C2305 1.379 . S
H2307 C2301 0.959 . S
H2308 C2301 0.961 . S
H2309 C2301 0.960 . S
H2310 C2302 0.930 . S
H2311 C2303 0.952 . S
H2312 C2320 0.929 . S
H2313 C2322 0.930 . S
H2314 C2324 0.930 . S
H2315 C2327 0.929 . S
H2316 C2330 0.930 . S
H2317 C2332 0.960 . S
H2318 C2332 0.960 . S
H2319 C2332 0.960 . S
C2320 H2312 0.929 . S
C2320 C2321 1.377 . S
C2320 C2322 1.384 . S
C2321 C2320 1.377 . S
C2321 C2327 1.390 . S
C2322 H2313 0.930 . S
C2322 C2320 1.384 . S
C2322 C2323 1.372 . S
C2323 C2322 1.372 . S
C2323 C2324 1.400 . S
C2323 C2328 1.490 . S
C2324 H2314 0.930 . S
C2324 C2323 1.400 . S
C2324 C2327 1.386 . S
H2325 C2341 0.930 . S
H2326 C2342 0.931 . S
C2327 H2315 0.929 . S
C2327 C2321 1.390 . S
C2327 C2324 1.386 . S
C2328 C2323 1.490 . S
C2328 C2330 1.395 . S
C2328 C2331 1.403 . S
H2329 C2335 0.930 . S
C2330 H2316 0.930 . S
C2330 C2328 1.395 . S
C2330 C2333 1.403 . S
C2331 C2328 1.403 . S
C2331 C2332 1.524 . S
C2331 C2335 1.400 . S
C2332 H2317 0.960 . S
C2332 H2318 0.960 . S
C2332 H2319 0.960 . S
C2332 C2331 1.524 . S
C2333 C2330 1.403 . S
C2333 C2334 1.392 . S
C2333 C2337 1.495 . S
C2334 C2333 1.392 . S
C2334 C2335 1.385 . S
C2334 C2336 1.478 . S
C2335 H2329 0.930 . S
C2335 C2331 1.400 . S
C2335 C2334 1.385 . S
C2336 C2334 1.478 . S
C2336 C2338 1.381 . S
C2336 C2342 1.383 . S
C2337 C2333 1.495 . S
C2337 H2343 0.959 . S
C2337 H2344 0.961 . S
C2337 H2345 0.960 . S
C2338 C2336 1.381 . S
C2338 C2339 1.394 . S
C2338 H2346 0.930 . S
C2339 C2338 1.394 . S
C2339 C2340 1.383 . S
C2339 H2347 0.929 . S
C2340 C2339 1.383 . S
C2340 C2341 1.377 . S
C2341 H2325 0.930 . S
C2341 C2340 1.377 . S
C2341 C2342 1.379 . S
C2342 H2326 0.931 . S
C2342 C2336 1.383 . S
C2342 C2341 1.379 . S
H2343 C2337 0.959 . S
H2344 C2337 0.961 . S
H2345 C2337 0.960 . S
H2346 C2338 0.930 . S
H2347 C2339 0.929 . S
H2348 C2356 0.929 . S
H2349 C2358 0.930 . S
H2350 C2360 0.930 . S
H2351 C2363 0.929 . S
H2352 C2366 0.930 . S
H2353 C2368 0.960 . S
H2354 C2368 0.960 . S
H2355 C2368 0.960 . S
C2356 H2348 0.929 . S
C2356 C2357 1.377 . S
C2356 C2358 1.384 . S
C2357 C2356 1.377 . S
C2357 C2363 1.390 . S
C2358 H2349 0.930 . S
C2358 C2356 1.384 . S
C2358 C2359 1.372 . S
C2359 C2358 1.372 . S
C2359 C2360 1.400 . S
C2359 C2364 1.490 . S
C2360 H2350 0.930 . S
C2360 C2359 1.400 . S
C2360 C2363 1.386 . S
H2361 C2377 0.930 . S
H2362 C2378 0.931 . S
C2363 H2351 0.929 . S
C2363 C2357 1.390 . S
C2363 C2360 1.386 . S
C2364 C2359 1.490 . S
C2364 C2366 1.395 . S
C2364 C2367 1.403 . S
H2365 C2371 0.930 . S
C2366 H2352 0.930 . S
C2366 C2364 1.395 . S
C2366 C2369 1.403 . S
C2367 C2364 1.403 . S
C2367 C2368 1.524 . S
C2367 C2371 1.400 . S
C2368 H2353 0.960 . S
C2368 H2354 0.960 . S
C2368 H2355 0.960 . S
C2368 C2367 1.524 . S
C2369 C2366 1.403 . S
C2369 C2370 1.392 . S
C2369 C2373 1.495 . S
C2370 C2369 1.392 . S
C2370 C2371 1.385 . S
C2370 C2372 1.478 . S
C2371 H2365 0.930 . S
C2371 C2367 1.400 . S
C2371 C2370 1.385 . S
C2372 C2370 1.478 . S
C2372 C2374 1.381 . S
C2372 C2378 1.383 . S
C2373 C2369 1.495 . S
C2373 H2379 0.959 . S
C2373 H2380 0.961 . S
C2373 H2381 0.960 . S
C2374 C2372 1.381 . S
C2374 C2375 1.394 . S
C2374 H2382 0.930 . S
C2375 C2374 1.394 . S
C2375 C2376 1.383 . S
C2375 H2383 0.929 . S
C2376 C2375 1.383 . S
C2376 C2377 1.377 . S
C2377 H2361 0.930 . S
C2377 C2376 1.377 . S
C2377 C2378 1.379 . S
C2378 H2362 0.931 . S
C2378 C2372 1.383 . S
C2378 C2377 1.379 . S
H2379 C2373 0.959 . S
H2380 C2373 0.961 . S
H2381 C2373 0.960 . S
H2382 C2374 0.930 . S
H2383 C2375 0.929 . S
H2384 C2392 0.929 . S
H2385 C2394 0.930 . S
H2386 C2396 0.930 . S
H2387 C2399 0.929 . S
H2388 C2402 0.930 . S
H2389 C2404 0.960 . S
H2390 C2404 0.960 . S
H2391 C2404 0.960 . S
C2392 H2384 0.929 . S
C2392 C2393 1.377 . S
C2392 C2394 1.384 . S
C2393 C2392 1.377 . S
C2393 C2399 1.390 . S
C2394 H2385 0.930 . S
C2394 C2392 1.384 . S
C2394 C2395 1.372 . S
C2395 C2394 1.372 . S
C2395 C2396 1.400 . S
C2395 C2400 1.490 . S
C2396 H2386 0.930 . S
C2396 C2395 1.400 . S
C2396 C2399 1.386 . S
H2397 C2413 0.930 . S
H2398 C2414 0.931 . S
C2399 H2387 0.929 . S
C2399 C2393 1.390 . S
C2399 C2396 1.386 . S
C2400 C2395 1.490 . S
C2400 C2402 1.395 . S
C2400 C2403 1.403 . S
H2401 C2407 0.930 . S
C2402 H2388 0.930 . S
C2402 C2400 1.395 . S
C2402 C2405 1.403 . S
C2403 C2400 1.403 . S
C2403 C2404 1.524 . S
C2403 C2407 1.400 . S
C2404 H2389 0.960 . S
C2404 H2390 0.960 . S
C2404 H2391 0.960 . S
C2404 C2403 1.524 . S
C2405 C2402 1.403 . S
C2405 C2406 1.392 . S
C2405 C2409 1.495 . S
C2406 C2405 1.392 . S
C2406 C2407 1.385 . S
C2406 C2408 1.478 . S
C2407 H2401 0.930 . S
C2407 C2403 1.400 . S
C2407 C2406 1.385 . S
C2408 C2406 1.478 . S
C2408 C2410 1.381 . S
C2408 C2414 1.383 . S
C2409 C2405 1.495 . S
C2409 H2415 0.959 . S
C2409 H2416 0.961 . S
C2409 H2417 0.960 . S
C2410 C2408 1.381 . S
C2410 C2411 1.394 . S
C2410 H2418 0.930 . S
C2411 C2410 1.394 . S
C2411 C2412 1.383 . S
C2411 H2419 0.929 . S
C2412 C2411 1.383 . S
C2412 C2413 1.377 . S
C2413 H2397 0.930 . S
C2413 C2412 1.377 . S
C2413 C2414 1.379 . S
C2414 H2398 0.931 . S
C2414 C2408 1.383 . S
C2414 C2413 1.379 . S
H2415 C2409 0.959 . S
H2416 C2409 0.961 . S
H2417 C2409 0.960 . S
H2418 C2410 0.930 . S
H2419 C2411 0.929 . S
H2420 C2428 0.929 . S
H2421 C2430 0.930 . S
H2422 C2432 0.930 . S
H2423 C2435 0.929 . S
H2424 C2438 0.930 . S
H2425 C2440 0.960 . S
H2426 C2440 0.960 . S
H2427 C2440 0.960 . S
C2428 H2420 0.929 . S
C2428 C2429 1.377 . S
C2428 C2430 1.384 . S
C2429 C2428 1.377 . S
C2429 C2435 1.390 . S
C2430 H2421 0.930 . S
C2430 C2428 1.384 . S
C2430 C2431 1.372 . S
C2431 C2430 1.372 . S
C2431 C2432 1.400 . S
C2431 C2436 1.490 . S
C2432 H2422 0.930 . S
C2432 C2431 1.400 . S
C2432 C2435 1.386 . S
H2433 C2449 0.930 . S
H2434 C2450 0.931 . S
C2435 H2423 0.929 . S
C2435 C2429 1.390 . S
C2435 C2432 1.386 . S
C2436 C2431 1.490 . S
C2436 C2438 1.395 . S
C2436 C2439 1.403 . S
H2437 C2443 0.930 . S
C2438 H2424 0.930 . S
C2438 C2436 1.395 . S
C2438 C2441 1.403 . S
C2439 C2436 1.403 . S
C2439 C2440 1.524 . S
C2439 C2443 1.400 . S
C2440 H2425 0.960 . S
C2440 H2426 0.960 . S
C2440 H2427 0.960 . S
C2440 C2439 1.524 . S
C2441 C2438 1.403 . S
C2441 C2442 1.392 . S
C2441 C2445 1.495 . S
C2442 C2441 1.392 . S
C2442 C2443 1.385 . S
C2442 C2444 1.478 . S
C2443 H2437 0.930 . S
C2443 C2439 1.400 . S
C2443 C2442 1.385 . S
C2444 C2442 1.478 . S
C2444 C2446 1.381 . S
C2444 C2450 1.383 . S
C2445 C2441 1.495 . S
C2445 H2451 0.959 . S
C2445 H2452 0.961 . S
C2445 H2453 0.960 . S
C2446 C2444 1.381 . S
C2446 C2447 1.394 . S
C2446 H2454 0.930 . S
C2447 C2446 1.394 . S
C2447 C2448 1.383 . S
C2447 H2455 0.929 . S
C2448 C2447 1.383 . S
C2448 C2449 1.377 . S
C2449 H2433 0.930 . S
C2449 C2448 1.377 . S
C2449 C2450 1.379 . S
C2450 H2434 0.931 . S
C2450 C2444 1.383 . S
C2450 C2449 1.379 . S
H2451 C2445 0.959 . S
H2452 C2445 0.961 . S
H2453 C2445 0.960 . S
H2454 C2446 0.930 . S
H2455 C2447 0.929 . S
H2456 C2464 0.929 . S
H2457 C2466 0.930 . S
H2458 C2468 0.930 . S
H2459 C2471 0.929 . S
H2460 C2474 0.930 . S
H2461 C2476 0.960 . S
H2462 C2476 0.960 . S
H2463 C2476 0.960 . S
C2464 H2456 0.929 . S
C2464 C2465 1.377 . S
C2464 C2466 1.384 . S
C2465 C2464 1.377 . S
C2465 C2471 1.390 . S
C2466 H2457 0.930 . S
C2466 C2464 1.384 . S
C2466 C2467 1.372 . S
C2467 C2466 1.372 . S
C2467 C2468 1.400 . S
C2467 C2472 1.490 . S
C2468 H2458 0.930 . S
C2468 C2467 1.400 . S
C2468 C2471 1.386 . S
H2469 C2485 0.930 . S
H2470 C2486 0.931 . S
C2471 H2459 0.929 . S
C2471 C2465 1.390 . S
C2471 C2468 1.386 . S
C2472 C2467 1.490 . S
C2472 C2474 1.395 . S
C2472 C2475 1.403 1_455 S
H2473 C2479 0.930 . S
C2474 H2460 0.930 . S
C2474 C2472 1.395 . S
C2474 C2477 1.403 . S
C2475 C2472 1.403 1_655 S
C2475 C2476 1.524 . S
C2475 C2479 1.400 . S
C2476 H2461 0.960 . S
C2476 H2462 0.960 . S
C2476 H2463 0.960 . S
C2476 C2475 1.524 . S
C2477 C2474 1.403 . S
C2477 C2478 1.392 . S
C2477 C2481 1.495 . S
C2478 C2477 1.392 . S
C2478 C2479 1.385 1_455 S
C2478 C2480 1.478 . S
C2479 H2473 0.930 . S
C2479 C2475 1.400 . S
C2479 C2478 1.385 1_655 S
C2480 C2478 1.478 . S
C2480 C2482 1.381 . S
C2480 C2486 1.383 . S
C2481 C2477 1.495 . S
C2481 H2487 0.959 . S
C2481 H2488 0.961 . S
C2481 H2489 0.960 . S
C2482 C2480 1.381 . S
C2482 C2483 1.394 1_556 S
C2482 H2490 0.902 1_556 S
C2483 C2482 1.394 1_554 S
C2483 C2484 1.383 1_554 S
C2483 H2491 0.929 . S
C2484 C2483 1.383 1_556 S
C2484 C2485 1.377 . S
C2485 H2469 0.930 . S
C2485 C2484 1.377 . S
C2485 C2486 1.379 . S
C2486 H2470 0.931 . S
C2486 C2480 1.383 . S
C2486 C2485 1.379 . S
H2487 C2481 0.959 . S
H2488 C2481 0.961 . S
H2489 C2481 0.960 . S
H2490 C2482 0.902 1_554 S
H2491 C2483 0.929 . S
H2492 C2500 0.929 . S
H2493 C2502 0.930 . S
H2494 C2504 0.930 . S
H2495 C2507 0.929 . S
H2496 C2510 0.930 . S
H2497 C2512 0.960 . S
H2498 C2512 0.960 . S
H2499 C2512 0.960 . S
C2500 H2492 0.929 . S
C2500 C2501 1.377 . S
C2500 C2502 1.384 . S
C2501 C2500 1.377 . S
C2501 C2507 1.390 . S
C2502 H2493 0.930 . S
C2502 C2500 1.384 . S
C2502 C2503 1.372 . S
C2503 C2502 1.372 . S
C2503 C2504 1.400 . S
C2503 C2508 1.490 . S
C2504 H2494 0.930 . S
C2504 C2503 1.400 . S
C2504 C2507 1.386 . S
H2505 C2521 0.930 . S
H2506 C2522 0.931 . S
C2507 H2495 0.929 . S
C2507 C2501 1.390 . S
C2507 C2504 1.386 . S
C2508 C2503 1.490 . S
C2508 C2510 1.395 . S
C2508 C2511 1.403 . S
H2509 C2515 0.930 . S
C2510 H2496 0.930 . S
C2510 C2508 1.395 . S
C2510 C2513 1.403 . S
C2511 C2508 1.403 . S
C2511 C2512 1.524 . S
C2511 C2515 1.400 . S
C2512 H2497 0.960 . S
C2512 H2498 0.960 . S
C2512 H2499 0.960 . S
C2512 C2511 1.524 . S
C2513 C2510 1.403 . S
C2513 C2514 1.392 . S
C2513 C2517 1.495 . S
C2514 C2513 1.392 . S
C2514 C2515 1.385 . S
C2514 C2516 1.478 . S
C2515 H2509 0.930 . S
C2515 C2511 1.400 . S
C2515 C2514 1.385 . S
C2516 C2514 1.478 . S
C2516 C2518 1.381 . S
C2516 C2522 1.383 . S
C2517 C2513 1.495 . S
C2517 H2523 0.959 . S
C2517 H2524 0.961 . S
C2517 H2525 0.960 . S
C2518 C2516 1.381 . S
C2518 C2519 1.394 . S
C2518 H2526 0.930 . S
C2519 C2518 1.394 . S
C2519 C2520 1.383 . S
C2519 H2527 0.929 . S
C2520 C2519 1.383 . S
C2520 C2521 1.377 . S
C2521 H2505 0.930 . S
C2521 C2520 1.377 . S
C2521 C2522 1.379 . S
C2522 H2506 0.931 . S
C2522 C2516 1.383 . S
C2522 C2521 1.379 . S
H2523 C2517 0.959 . S
H2524 C2517 0.961 . S
H2525 C2517 0.960 . S
H2526 C2518 0.930 . S
H2527 C2519 0.929 . S
H2528 C2536 0.929 . S
H2529 C2538 0.930 . S
H2530 C2540 0.930 . S
H2531 C2543 0.929 . S
H2532 C2546 0.930 . S
H2533 C2548 0.960 . S
H2534 C2548 0.960 . S
H2535 C2548 0.960 . S
C2536 H2528 0.929 . S
C2536 C2537 1.377 . S
C2536 C2538 1.384 . S
C2537 C2536 1.377 . S
C2537 C2543 1.390 . S
C2538 H2529 0.930 . S
C2538 C2536 1.384 . S
C2538 C2539 1.372 . S
C2539 C2538 1.372 . S
C2539 C2540 1.400 . S
C2539 C2544 1.490 . S
C2540 H2530 0.930 . S
C2540 C2539 1.400 . S
C2540 C2543 1.386 . S
H2541 C2557 0.930 . S
H2542 C2558 0.931 . S
C2543 H2531 0.929 . S
C2543 C2537 1.390 . S
C2543 C2540 1.386 . S
C2544 C2539 1.490 . S
C2544 C2546 1.395 . S
C2544 C2547 1.403 . S
H2545 C2551 0.930 . S
C2546 H2532 0.930 . S
C2546 C2544 1.395 . S
C2546 C2549 1.403 . S
C2547 C2544 1.403 . S
C2547 C2548 1.524 . S
C2547 C2551 1.400 . S
C2548 H2533 0.960 . S
C2548 H2534 0.960 . S
C2548 H2535 0.960 . S
C2548 C2547 1.524 . S
C2549 C2546 1.403 . S
C2549 C2550 1.392 . S
C2549 C2553 1.495 . S
C2550 C2549 1.392 . S
C2550 C2551 1.385 . S
C2550 C2552 1.478 . S
C2551 H2545 0.930 . S
C2551 C2547 1.400 . S
C2551 C2550 1.385 . S
C2552 C2550 1.478 . S
C2552 C2554 1.381 . S
C2552 C2558 1.383 . S
C2553 C2549 1.495 . S
C2553 H2559 0.959 . S
C2553 H2560 0.961 . S
C2553 H2561 0.960 . S
C2554 C2552 1.381 . S
C2554 C2555 1.394 . S
C2554 H2562 0.930 . S
C2555 C2554 1.394 . S
C2555 C2556 1.383 . S
C2555 H2563 0.929 . S
C2556 C2555 1.383 . S
C2556 C2557 1.377 . S
C2557 H2541 0.930 . S
C2557 C2556 1.377 . S
C2557 C2558 1.379 . S
C2558 H2542 0.931 . S
C2558 C2552 1.383 . S
C2558 C2557 1.379 . S
H2559 C2553 0.959 . S
H2560 C2553 0.961 . S
H2561 C2553 0.960 . S
H2562 C2554 0.930 . S
H2563 C2555 0.929 . S
H2564 C2572 0.929 . S
H2565 C2574 0.930 . S
H2566 C2576 0.930 . S
H2567 C2579 0.929 . S
H2568 C2582 0.930 . S
H2569 C2584 0.960 . S
H2570 C2584 0.960 . S
H2571 C2584 0.960 . S
C2572 H2564 0.929 . S
C2572 C2573 1.377 . S
C2572 C2574 1.384 . S
C2573 C2572 1.377 . S
C2573 C2579 1.390 . S
C2574 H2565 0.930 . S
C2574 C2572 1.384 . S
C2574 C2575 1.372 . S
C2575 C2574 1.372 . S
C2575 C2576 1.400 . S
C2575 C2580 1.490 . S
C2576 H2566 0.930 . S
C2576 C2575 1.400 . S
C2576 C2579 1.386 . S
H2577 C2593 0.930 . S
H2578 C2594 0.931 . S
C2579 H2567 0.929 . S
C2579 C2573 1.390 . S
C2579 C2576 1.386 . S
C2580 C2575 1.490 . S
C2580 C2582 1.395 . S
C2580 C2583 1.403 . S
H2581 C2587 0.930 . S
C2582 H2568 0.930 . S
C2582 C2580 1.395 . S
C2582 C2585 1.403 . S
C2583 C2580 1.403 . S
C2583 C2584 1.524 . S
C2583 C2587 1.400 . S
C2584 H2569 0.960 . S
C2584 H2570 0.960 . S
C2584 H2571 0.960 . S
C2584 C2583 1.524 . S
C2585 C2582 1.403 . S
C2585 C2586 1.392 . S
C2585 C2589 1.495 . S
C2586 C2585 1.392 . S
C2586 C2587 1.385 . S
C2586 C2588 1.478 . S
C2587 H2581 0.930 . S
C2587 C2583 1.400 . S
C2587 C2586 1.385 . S
C2588 C2586 1.478 . S
C2588 C2590 1.381 . S
C2588 C2594 1.383 . S
C2589 C2585 1.495 . S
C2589 H2595 0.959 . S
C2589 H2596 0.961 . S
C2589 H2597 0.960 . S
C2590 C2588 1.381 . S
C2590 C2591 1.394 . S
C2590 H2598 0.930 . S
C2591 C2590 1.394 . S
C2591 C2592 1.383 . S
C2591 H2599 0.929 . S
C2592 C2591 1.383 . S
C2592 C2593 1.377 . S
C2593 H2577 0.930 . S
C2593 C2592 1.377 . S
C2593 C2594 1.379 . S
C2594 H2578 0.931 . S
C2594 C2588 1.383 . S
C2594 C2593 1.379 . S
H2595 C2589 0.959 . S
H2596 C2589 0.961 . S
H2597 C2589 0.960 . S
H2598 C2590 0.930 . S
H2599 C2591 0.929 . S
H2600 C2608 0.929 . S
H2601 C2610 0.930 . S
H2602 C2612 0.930 . S
H2603 C2615 0.929 . S
H2604 C2618 0.930 . S
H2605 C2620 0.960 . S
H2606 C2620 0.960 . S
H2607 C2620 0.960 . S
C2608 H2600 0.929 . S
C2608 C2609 1.377 . S
C2608 C2610 1.384 . S
C2609 C2608 1.377 . S
C2609 C2615 1.390 1_655 S
C2610 H2601 0.930 . S
C2610 C2608 1.384 . S
C2610 C2611 1.372 . S
C2611 C2610 1.372 . S
C2611 C2612 1.400 1_655 S
C2611 C2616 1.490 . S
C2612 H2602 0.930 . S
C2612 C2611 1.400 1_455 S
C2612 C2615 1.386 . S
H2613 C2629 0.930 . S
H2614 C2630 0.931 . S
C2615 H2603 0.929 . S
C2615 C2609 1.390 1_455 S
C2615 C2612 1.386 . S
C2616 C2611 1.490 . S
C2616 C2618 1.395 . S
C2616 C2619 1.403 1_655 S
H2617 C2623 0.930 . S
C2618 H2604 0.930 . S
C2618 C2616 1.395 . S
C2618 C2621 1.403 . S
C2619 C2616 1.403 1_455 S
C2619 C2620 1.524 . S
C2619 C2623 1.400 . S
C2620 H2605 0.960 . S
C2620 H2606 0.960 . S
C2620 H2607 0.960 . S
C2620 C2619 1.524 . S
C2621 C2618 1.403 . S
C2621 C2622 1.392 . S
C2621 C2625 1.495 . S
C2622 C2621 1.392 . S
C2622 C2623 1.385 1_655 S
C2622 C2624 1.478 . S
C2623 H2617 0.930 . S
C2623 C2619 1.400 . S
C2623 C2622 1.385 1_455 S
C2624 C2622 1.478 . S
C2624 C2626 1.381 . S
C2624 C2630 1.383 1_655 S
C2625 C2621 1.495 . S
C2625 H2631 0.959 . S
C2625 H2632 0.961 . S
C2625 H2633 0.960 . S
C2626 C2624 1.381 . S
C2626 C2627 1.394 . S
C2626 H2634 0.930 . S
C2627 C2626 1.394 . S
C2627 C2628 1.387 . S
C2627 H2635 0.929 . S
C2628 C2627 1.387 . S
C2628 C2629 1.375 1_655 S
C2629 H2613 0.930 . S
C2629 C2628 1.375 1_455 S
C2629 C2630 1.379 . S
C2630 H2614 0.931 . S
C2630 C2624 1.383 1_455 S
C2630 C2629 1.379 . S
H2631 C2625 0.959 . S
H2632 C2625 0.961 . S
H2633 C2625 0.960 . S
H2634 C2626 0.930 . S
H2635 C2627 0.929 . S
H2636 C2644 0.929 . S
H2637 C2646 0.930 . S
H2638 C2648 0.930 . S
H2639 C2651 0.929 . S
H2640 C2654 0.930 . S
H2641 C2656 0.960 . S
H2642 C2656 0.960 . S
H2643 C2656 0.960 . S
C2644 H2636 0.929 . S
C2644 C2645 1.377 . S
C2644 C2646 1.384 . S
C2645 C2644 1.377 . S
C2645 C2651 1.390 . S
C2646 H2637 0.930 . S
C2646 C2644 1.384 . S
C2646 C2647 1.372 . S
C2647 C2646 1.372 . S
C2647 C2648 1.400 . S
C2647 C2652 1.490 . S
C2648 H2638 0.930 . S
C2648 C2647 1.400 . S
C2648 C2651 1.386 . S
H2649 C2665 0.930 . S
H2650 C2666 0.931 . S
C2651 H2639 0.929 . S
C2651 C2645 1.390 . S
C2651 C2648 1.386 . S
C2652 C2647 1.490 . S
C2652 C2654 1.395 . S
C2652 C2655 1.403 . S
H2653 C2659 0.930 . S
C2654 H2640 0.930 . S
C2654 C2652 1.395 . S
C2654 C2657 1.403 . S
C2655 C2652 1.403 . S
C2655 C2656 1.524 . S
C2655 C2659 1.400 . S
C2656 H2641 0.960 . S
C2656 H2642 0.960 . S
C2656 H2643 0.960 . S
C2656 C2655 1.524 . S
C2657 C2654 1.403 . S
C2657 C2658 1.392 . S
C2657 C2661 1.495 . S
C2658 C2657 1.392 . S
C2658 C2659 1.385 . S
C2658 C2660 1.478 . S
C2659 H2653 0.930 . S
C2659 C2655 1.400 . S
C2659 C2658 1.385 . S
C2660 C2658 1.478 . S
C2660 C2662 1.381 . S
C2660 C2666 1.383 . S
C2661 C2657 1.495 . S
C2661 H2667 0.959 . S
C2661 H2668 0.961 . S
C2661 H2669 0.960 . S
C2662 C2660 1.381 . S
C2662 C2663 1.394 . S
C2662 H2670 0.930 . S
C2663 C2662 1.394 . S
C2663 C2664 1.383 . S
C2663 H2671 0.929 . S
C2664 C2663 1.383 . S
C2664 C2665 1.377 . S
C2665 H2649 0.930 . S
C2665 C2664 1.377 . S
C2665 C2666 1.379 . S
C2666 H2650 0.931 . S
C2666 C2660 1.383 . S
C2666 C2665 1.379 . S
H2667 C2661 0.959 . S
H2668 C2661 0.961 . S
H2669 C2661 0.960 . S
H2670 C2662 0.930 . S
H2671 C2663 0.929 . S
H2672 C2680 0.929 . S
H2673 C2682 0.930 . S
H2674 C2684 0.930 . S
H2675 C2687 0.929 . S
H2676 C2690 0.930 . S
H2677 C2692 0.960 . S
H2678 C2692 0.960 . S
H2679 C2692 0.960 . S
C2680 H2672 0.929 . S
C2680 C2681 1.377 . S
C2680 C2682 1.384 . S
C2681 C2680 1.377 . S
C2681 C2687 1.390 . S
C2682 H2673 0.930 . S
C2682 C2680 1.384 . S
C2682 C2683 1.372 . S
C2683 C2682 1.372 . S
C2683 C2684 1.400 . S
C2683 C2688 1.490 . S
C2684 H2674 0.930 . S
C2684 C2683 1.400 . S
C2684 C2687 1.386 . S
H2685 C2701 0.930 . S
H2686 C2702 0.931 . S
C2687 H2675 0.929 . S
C2687 C2681 1.390 . S
C2687 C2684 1.386 . S
C2688 C2683 1.490 . S
C2688 C2690 1.395 . S
C2688 C2691 1.403 . S
H2689 C2695 0.930 . S
C2690 H2676 0.930 . S
C2690 C2688 1.395 . S
C2690 C2693 1.403 . S
C2691 C2688 1.403 . S
C2691 C2692 1.524 . S
C2691 C2695 1.400 . S
C2692 H2677 0.960 . S
C2692 H2678 0.960 . S
C2692 H2679 0.960 . S
C2692 C2691 1.524 . S
C2693 C2690 1.403 . S
C2693 C2694 1.392 . S
C2693 C2697 1.495 . S
C2694 C2693 1.392 . S
C2694 C2695 1.385 . S
C2694 C2696 1.478 . S
C2695 H2689 0.930 . S
C2695 C2691 1.400 . S
C2695 C2694 1.385 . S
C2696 C2694 1.478 . S
C2696 C2698 1.381 . S
C2696 C2702 1.383 . S
C2697 C2693 1.495 . S
C2697 H2703 0.959 . S
C2697 H2704 0.961 . S
C2697 H2705 0.960 . S
C2698 C2696 1.381 . S
C2698 C2699 1.394 . S
C2698 H2706 0.930 . S
C2699 C2698 1.394 . S
C2699 C2700 1.383 . S
C2699 H2707 0.929 . S
C2700 C2699 1.383 . S
C2700 C2701 1.377 . S
C2701 H2685 0.930 . S
C2701 C2700 1.377 . S
C2701 C2702 1.379 . S
C2702 H2686 0.931 . S
C2702 C2696 1.383 . S
C2702 C2701 1.379 . S
H2703 C2697 0.959 . S
H2704 C2697 0.961 . S
H2705 C2697 0.960 . S
H2706 C2698 0.930 . S
H2707 C2699 0.929 . S
H2708 C2716 0.929 . S
H2709 C2718 0.930 . S
H2710 C2720 0.930 . S
H2711 C2723 0.929 . S
H2712 C2726 0.930 . S
H2713 C2728 0.960 . S
H2714 C2728 0.960 . S
H2715 C2728 0.960 . S
C2716 H2708 0.929 . S
C2716 C2717 1.377 . S
C2716 C2718 1.384 . S
C2717 C2716 1.377 . S
C2717 C2723 1.390 . S
C2718 H2709 0.930 . S
C2718 C2716 1.384 . S
C2718 C2719 1.372 . S
C2719 C2718 1.372 . S
C2719 C2720 1.400 . S
C2719 C2724 1.490 . S
C2720 H2710 0.930 . S
C2720 C2719 1.400 . S
C2720 C2723 1.386 . S
H2721 C2737 0.930 . S
H2722 C2738 0.931 . S
C2723 H2711 0.929 . S
C2723 C2717 1.390 . S
C2723 C2720 1.386 . S
C2724 C2719 1.490 . S
C2724 C2726 1.395 . S
C2724 C2727 1.403 . S
H2725 C2731 0.930 . S
C2726 H2712 0.930 . S
C2726 C2724 1.395 . S
C2726 C2729 1.403 . S
C2727 C2724 1.403 . S
C2727 C2728 1.524 . S
C2727 C2731 1.400 . S
C2728 H2713 0.960 . S
C2728 H2714 0.960 . S
C2728 H2715 0.960 . S
C2728 C2727 1.524 . S
C2729 C2726 1.403 . S
C2729 C2730 1.392 . S
C2729 C2733 1.495 . S
C2730 C2729 1.392 . S
C2730 C2731 1.385 . S
C2730 C2732 1.478 . S
C2731 H2725 0.930 . S
C2731 C2727 1.400 . S
C2731 C2730 1.385 . S
C2732 C2730 1.478 . S
C2732 C2734 1.381 . S
C2732 C2738 1.383 . S
C2733 C2729 1.495 . S
C2733 H2739 0.959 . S
C2733 H2740 0.961 . S
C2733 H2741 0.960 . S
C2734 C2732 1.381 . S
C2734 C2735 1.394 . S
C2734 H2742 0.930 . S
C2735 C2734 1.394 . S
C2735 C2736 1.383 . S
C2735 H2743 0.929 . S
C2736 C2735 1.383 . S
C2736 C2737 1.377 . S
C2737 H2721 0.930 . S
C2737 C2736 1.377 . S
C2737 C2738 1.379 . S
C2738 H2722 0.931 . S
C2738 C2732 1.383 . S
C2738 C2737 1.379 . S
H2739 C2733 0.959 . S
H2740 C2733 0.961 . S
H2741 C2733 0.960 . S
H2742 C2734 0.930 . S
H2743 C2735 0.929 . S
H2744 C2752 0.929 . S
H2745 C2754 0.930 . S
H2746 C2756 0.930 . S
H2747 C2759 0.929 . S
H2748 C2762 0.930 . S
H2749 C2764 0.960 . S
H2750 C2764 0.960 . S
H2751 C2764 0.960 . S
C2752 H2744 0.929 . S
C2752 C2753 1.377 . S
C2752 C2754 1.384 . S
C2753 C2752 1.377 . S
C2753 C2759 1.390 . S
C2754 H2745 0.930 . S
C2754 C2752 1.384 . S
C2754 C2755 1.372 . S
C2755 C2754 1.372 . S
C2755 C2756 1.400 . S
C2755 C2760 1.490 . S
C2756 H2746 0.930 . S
C2756 C2755 1.400 . S
C2756 C2759 1.386 . S
H2757 C2773 0.930 . S
H2758 C2774 0.931 . S
C2759 H2747 0.929 . S
C2759 C2753 1.390 . S
C2759 C2756 1.386 . S
C2760 C2755 1.490 . S
C2760 C2762 1.395 . S
C2760 C2763 1.403 . S
H2761 C2767 0.930 . S
C2762 H2748 0.930 . S
C2762 C2760 1.395 . S
C2762 C2765 1.403 . S
C2763 C2760 1.403 . S
C2763 C2764 1.524 . S
C2763 C2767 1.400 . S
C2764 H2749 0.960 . S
C2764 H2750 0.960 . S
C2764 H2751 0.960 . S
C2764 C2763 1.524 . S
C2765 C2762 1.403 . S
C2765 C2766 1.392 . S
C2765 C2769 1.495 . S
C2766 C2765 1.392 . S
C2766 C2767 1.385 . S
C2766 C2768 1.478 . S
C2767 H2761 0.930 . S
C2767 C2763 1.400 . S
C2767 C2766 1.385 . S
C2768 C2766 1.478 . S
C2768 C2770 1.381 . S
C2768 C2774 1.383 . S
C2769 C2765 1.495 . S
C2769 H2775 0.959 . S
C2769 H2776 0.961 . S
C2769 H2777 0.960 . S
C2770 C2768 1.381 . S
C2770 C2771 1.394 . S
C2770 H2778 0.930 . S
C2771 C2770 1.394 . S
C2771 C2772 1.383 . S
C2771 H2779 0.929 1_455 S
C2772 C2771 1.383 . S
C2772 C2773 1.377 . S
C2773 H2757 0.930 . S
C2773 C2772 1.377 . S
C2773 C2774 1.379 . S
C2774 H2758 0.931 . S
C2774 C2768 1.383 . S
C2774 C2773 1.379 . S
H2775 C2769 0.959 . S
H2776 C2769 0.961 . S
H2777 C2769 0.960 . S
H2778 C2770 0.930 . S
H2779 C2771 0.929 1_655 S
H2780 C2788 0.929 . S
H2781 C2790 0.930 . S
H2782 C2792 0.930 . S
H2783 C2795 0.929 . S
H2784 C2798 0.930 . S
H2785 C2800 0.960 . S
H2786 C2800 0.960 . S
H2787 C2800 0.960 . S
C2788 H2780 0.929 . S
C2788 C2789 1.377 . S
C2788 C2790 1.384 . S
C2789 C2788 1.377 . S
C2789 C2795 1.390 . S
C2790 H2781 0.930 . S
C2790 C2788 1.384 . S
C2790 C2791 1.372 . S
C2791 C2790 1.372 . S
C2791 C2792 1.400 . S
C2791 C2796 1.490 . S
C2792 H2782 0.930 . S
C2792 C2791 1.400 . S
C2792 C2795 1.386 . S
H2793 C2809 0.930 . S
H2794 C2810 0.931 . S
C2795 H2783 0.929 . S
C2795 C2789 1.390 . S
C2795 C2792 1.386 . S
C2796 C2791 1.490 . S
C2796 C2798 1.395 . S
C2796 C2799 1.403 . S
H2797 C2803 0.930 . S
C2798 H2784 0.930 . S
C2798 C2796 1.395 . S
C2798 C2801 1.403 . S
C2799 C2796 1.403 . S
C2799 C2800 1.524 . S
C2799 C2803 1.400 . S
C2800 H2785 0.960 . S
C2800 H2786 0.960 . S
C2800 H2787 0.960 . S
C2800 C2799 1.524 . S
C2801 C2798 1.403 . S
C2801 C2802 1.392 . S
C2801 C2805 1.495 . S
C2802 C2801 1.392 . S
C2802 C2803 1.385 . S
C2802 C2804 1.478 . S
C2803 H2797 0.930 . S
C2803 C2799 1.400 . S
C2803 C2802 1.385 . S
C2804 C2802 1.478 . S
C2804 C2806 1.381 . S
C2804 C2810 1.383 . S
C2805 C2801 1.495 . S
C2805 H2811 0.959 . S
C2805 H2812 0.961 . S
C2805 H2813 0.960 . S
C2806 C2804 1.381 . S
C2806 C2807 1.394 . S
C2806 H2814 0.930 . S
C2807 C2806 1.394 . S
C2807 C2808 1.383 . S
C2807 H2815 0.929 . S
C2808 C2807 1.383 . S
C2808 C2809 1.377 . S
C2809 H2793 0.930 . S
C2809 C2808 1.377 . S
C2809 C2810 1.379 . S
C2810 H2794 0.931 . S
C2810 C2804 1.383 . S
C2810 C2809 1.379 . S
H2811 C2805 0.959 . S
H2812 C2805 0.961 . S
H2813 C2805 0.960 . S
H2814 C2806 0.930 . S
H2815 C2807 0.929 . S
H2816 C2824 0.929 . S
H2817 C2826 0.930 . S
H2818 C2828 0.930 . S
H2819 C2831 0.929 . S
H2820 C2834 0.930 . S
H2821 C2836 0.960 . S
H2822 C2836 0.960 . S
H2823 C2836 0.960 . S
C2824 H2816 0.929 . S
C2824 C2825 1.377 . S
C2824 C2826 1.384 . S
C2825 C2824 1.377 . S
C2825 C2831 1.390 . S
C2826 H2817 0.930 . S
C2826 C2824 1.384 . S
C2826 C2827 1.372 . S
C2827 C2826 1.372 . S
C2827 C2828 1.400 . S
C2827 C2832 1.490 . S
C2828 H2818 0.930 . S
C2828 C2827 1.400 . S
C2828 C2831 1.386 . S
H2829 C2845 0.930 . S
H2830 C2846 0.931 . S
C2831 H2819 0.929 . S
C2831 C2825 1.390 . S
C2831 C2828 1.386 . S
C2832 C2827 1.490 . S
C2832 C2834 1.395 . S
C2832 C2835 1.403 . S
H2833 C2839 0.930 . S
C2834 H2820 0.930 . S
C2834 C2832 1.395 . S
C2834 C2837 1.403 . S
C2835 C2832 1.403 . S
C2835 C2836 1.524 . S
C2835 C2839 1.400 . S
C2836 H2821 0.960 . S
C2836 H2822 0.960 . S
C2836 H2823 0.960 . S
C2836 C2835 1.524 . S
C2837 C2834 1.403 . S
C2837 C2838 1.392 . S
C2837 C2841 1.495 . S
C2838 C2837 1.392 . S
C2838 C2839 1.385 . S
C2838 C2840 1.478 . S
C2839 H2833 0.930 . S
C2839 C2835 1.400 . S
C2839 C2838 1.385 . S
C2840 C2838 1.478 . S
C2840 C2842 1.381 . S
C2840 C2846 1.383 . S
C2841 C2837 1.495 . S
C2841 H2847 0.959 . S
C2841 H2848 0.961 . S
C2841 H2849 0.960 . S
C2842 C2840 1.381 . S
C2842 C2843 1.394 . S
C2842 H2850 0.930 . S
C2843 C2842 1.394 . S
C2843 C2844 1.383 . S
C2843 H2851 0.929 . S
C2844 C2843 1.383 . S
C2844 C2845 1.377 . S
C2845 H2829 0.930 . S
C2845 C2844 1.377 . S
C2845 C2846 1.379 . S
C2846 H2830 0.931 . S
C2846 C2840 1.383 . S
C2846 C2845 1.379 . S
H2847 C2841 0.959 . S
H2848 C2841 0.961 . S
H2849 C2841 0.960 . S
H2850 C2842 0.930 . S
H2851 C2843 0.929 . S
H2852 C2860 0.929 . S
H2853 C2862 0.930 . S
H2854 C2864 0.930 . S
H2855 C2867 0.929 . S
H2856 C2870 0.930 . S
H2857 C2872 0.960 . S
H2858 C2872 0.960 . S
H2859 C2872 0.960 . S
C2860 H2852 0.929 . S
C2860 C2861 1.377 . S
C2860 C2862 1.384 . S
C2861 C2860 1.377 . S
C2861 C2867 1.390 . S
C2862 H2853 0.930 . S
C2862 C2860 1.384 . S
C2862 C2863 1.372 . S
C2863 C2862 1.372 . S
C2863 C2864 1.400 . S
C2863 C2868 1.490 . S
C2864 H2854 0.930 . S
C2864 C2863 1.400 . S
C2864 C2867 1.386 . S
H2865 C2881 0.930 . S
H2866 C2882 0.931 . S
C2867 H2855 0.929 . S
C2867 C2861 1.390 . S
C2867 C2864 1.386 . S
C2868 C2863 1.490 . S
C2868 C2870 1.395 . S
C2868 C2871 1.403 . S
H2869 C2875 0.930 . S
C2870 H2856 0.930 . S
C2870 C2868 1.395 . S
C2870 C2873 1.403 . S
C2871 C2868 1.403 . S
C2871 C2872 1.524 . S
C2871 C2875 1.400 . S
C2872 H2857 0.960 . S
C2872 H2858 0.960 . S
C2872 H2859 0.960 . S
C2872 C2871 1.524 . S
C2873 C2870 1.403 . S
C2873 C2874 1.392 . S
C2873 C2877 1.495 . S
C2874 C2873 1.392 . S
C2874 C2875 1.385 . S
C2874 C2876 1.478 . S
C2875 H2869 0.930 . S
C2875 C2871 1.400 . S
C2875 C2874 1.385 . S
C2876 C2874 1.478 . S
C2876 C2878 1.381 . S
C2876 C2882 1.383 . S
C2877 C2873 1.495 . S
C2877 H2883 0.959 . S
C2877 H2884 0.961 . S
C2877 H2885 0.960 . S
C2878 C2876 1.381 . S
C2878 C2879 1.394 . S
C2878 H2886 0.930 . S
C2879 C2878 1.394 . S
C2879 C2880 1.383 . S
C2879 H2887 0.929 . S
C2880 C2879 1.383 . S
C2880 C2881 1.377 . S
C2881 H2865 0.930 . S
C2881 C2880 1.377 . S
C2881 C2882 1.379 . S
C2882 H2866 0.931 . S
C2882 C2876 1.383 . S
C2882 C2881 1.379 . S
H2883 C2877 0.959 . S
H2884 C2877 0.961 . S
H2885 C2877 0.960 . S
H2886 C2878 0.930 . S
H2887 C2879 0.929 . S
H2888 C2896 0.929 . S
H2889 C2898 0.930 . S
H2890 C2900 0.930 . S
H2891 C2903 0.929 . S
H2892 C2906 0.930 . S
H2893 C2908 0.960 . S
H2894 C2908 0.960 . S
H2895 C2908 0.960 . S
C2896 H2888 0.929 . S
C2896 C2897 1.377 . S
C2896 C2898 1.384 . S
C2897 C2896 1.377 . S
C2897 C2903 1.390 . S
C2898 H2889 0.930 . S
C2898 C2896 1.384 . S
C2898 C2899 1.372 . S
C2899 C2898 1.372 . S
C2899 C2900 1.400 . S
C2899 C2904 1.490 . S
C2900 H2890 0.930 . S
C2900 C2899 1.400 . S
C2900 C2903 1.386 . S
H2901 C2917 0.930 . S
H2902 C2918 0.931 . S
C2903 H2891 0.929 . S
C2903 C2897 1.390 . S
C2903 C2900 1.386 . S
C2904 C2899 1.490 . S
C2904 C2906 1.395 . S
C2904 C2907 1.403 . S
H2905 C2911 0.930 . S
C2906 H2892 0.930 . S
C2906 C2904 1.395 . S
C2906 C2909 1.403 . S
C2907 C2904 1.403 . S
C2907 C2908 1.524 . S
C2907 C2911 1.400 . S
C2908 H2893 0.960 . S
C2908 H2894 0.960 . S
C2908 H2895 0.960 . S
C2908 C2907 1.524 . S
C2909 C2906 1.403 . S
C2909 C2910 1.392 . S
C2909 C2913 1.495 . S
C2910 C2909 1.392 . S
C2910 C2911 1.385 . S
C2910 C2912 1.478 . S
C2911 H2905 0.930 . S
C2911 C2907 1.400 . S
C2911 C2910 1.385 . S
C2912 C2910 1.478 . S
C2912 C2914 1.381 . S
C2912 C2918 1.383 . S
C2913 C2909 1.495 . S
C2913 H2919 0.959 . S
C2913 H2920 0.961 . S
C2913 H2921 0.960 . S
C2914 C2912 1.381 . S
C2914 C2915 1.394 . S
C2914 H2922 0.930 . S
C2915 C2914 1.394 . S
C2915 C2916 1.383 . S
C2915 H2923 0.929 . S
C2916 C2915 1.383 . S
C2916 C2917 1.377 . S
C2917 H2901 0.930 . S
C2917 C2916 1.377 . S
C2917 C2918 1.379 . S
C2918 H2902 0.931 . S
C2918 C2912 1.383 . S
C2918 C2917 1.379 . S
H2919 C2913 0.959 . S
H2920 C2913 0.961 . S
H2921 C2913 0.960 . S
H2922 C2914 0.930 . S
H2923 C2915 0.929 . S
H2924 C2932 0.929 . S
H2925 C2934 0.930 . S
H2926 C2936 0.930 . S
H2927 C2939 0.929 . S
H2928 C2942 0.930 . S
H2929 C2944 0.960 . S
H2930 C2944 0.960 . S
H2931 C2944 0.960 . S
C2932 H2924 0.929 . S
C2932 C2933 1.377 . S
C2932 C2934 1.384 . S
C2933 C2932 1.377 . S
C2933 C2939 1.390 . S
C2934 H2925 0.930 . S
C2934 C2932 1.384 . S
C2934 C2935 1.372 . S
C2935 C2934 1.372 . S
C2935 C2936 1.400 . S
C2935 C2940 1.490 . S
C2936 H2926 0.930 . S
C2936 C2935 1.400 . S
C2936 C2939 1.386 . S
H2937 C2953 0.930 . S
H2938 C2954 0.931 . S
C2939 H2927 0.929 . S
C2939 C2933 1.390 . S
C2939 C2936 1.386 . S
C2940 C2935 1.490 . S
C2940 C2942 1.395 . S
C2940 C2943 1.403 . S
H2941 C2947 0.930 . S
C2942 H2928 0.930 . S
C2942 C2940 1.395 . S
C2942 C2945 1.403 . S
C2943 C2940 1.403 . S
C2943 C2944 1.524 . S
C2943 C2947 1.400 . S
C2944 H2929 0.960 . S
C2944 H2930 0.960 . S
C2944 H2931 0.960 . S
C2944 C2943 1.524 . S
C2945 C2942 1.403 . S
C2945 C2946 1.392 . S
C2945 C2949 1.495 . S
C2946 C2945 1.392 . S
C2946 C2947 1.385 . S
C2946 C2948 1.478 . S
C2947 H2941 0.930 . S
C2947 C2943 1.400 . S
C2947 C2946 1.385 . S
C2948 C2946 1.478 . S
C2948 C2950 1.381 . S
C2948 C2954 1.383 . S
C2949 C2945 1.495 . S
C2949 H2955 0.959 . S
C2949 H2956 0.961 . S
C2949 H2957 0.960 . S
C2950 C2948 1.381 . S
C2950 C2951 1.394 . S
C2950 H2958 0.930 . S
C2951 C2950 1.394 . S
C2951 C2952 1.383 . S
C2951 H2959 0.929 . S
C2952 C2951 1.383 . S
C2952 C2953 1.377 . S
C2953 H2937 0.930 . S
C2953 C2952 1.377 . S
C2953 C2954 1.379 . S
C2954 H2938 0.931 . S
C2954 C2948 1.383 . S
C2954 C2953 1.379 . S
H2955 C2949 0.959 . S
H2956 C2949 0.961 . S
H2957 C2949 0.960 . S
H2958 C2950 0.930 . S
H2959 C2951 0.929 . S
H2960 C2968 0.929 . S
H2961 C2970 0.930 . S
H2962 C2972 0.930 . S
H2963 C2975 0.929 . S
H2964 C2978 0.930 . S
H2965 C2980 0.960 . S
H2966 C2980 0.960 . S
H2967 C2980 0.960 . S
C2968 H2960 0.929 . S
C2968 C2969 1.377 . S
C2968 C2970 1.384 . S
C2969 C2968 1.377 . S
C2969 C2975 1.390 . S
C2970 H2961 0.930 . S
C2970 C2968 1.384 . S
C2970 C2971 1.372 . S
C2971 C2970 1.372 . S
C2971 C2972 1.400 . S
C2971 C2976 1.490 . S
C2972 H2962 0.930 . S
C2972 C2971 1.400 . S
C2972 C2975 1.386 . S
H2973 C2989 0.930 . S
H2974 C2990 0.931 . S
C2975 H2963 0.929 . S
C2975 C2969 1.390 . S
C2975 C2972 1.386 . S
C2976 C2971 1.490 . S
C2976 C2978 1.395 . S
C2976 C2979 1.403 . S
H2977 C2983 0.930 . S
C2978 H2964 0.930 . S
C2978 C2976 1.395 . S
C2978 C2981 1.403 . S
C2979 C2976 1.403 . S
C2979 C2980 1.524 . S
C2979 C2983 1.400 . S
C2980 H2965 0.960 . S
C2980 H2966 0.960 . S
C2980 H2967 0.960 . S
C2980 C2979 1.524 . S
C2981 C2978 1.403 . S
C2981 C2982 1.392 . S
C2981 C2985 1.495 . S
C2982 C2981 1.392 . S
C2982 C2983 1.385 . S
C2982 C2984 1.478 . S
C2983 H2977 0.930 . S
C2983 C2979 1.400 . S
C2983 C2982 1.385 . S
C2984 C2982 1.478 . S
C2984 C2986 1.381 . S
C2984 C2990 1.383 . S
C2985 C2981 1.495 . S
C2985 H2991 0.959 . S
C2985 H2992 0.961 . S
C2985 H2993 0.960 . S
C2986 C2984 1.381 . S
C2986 C2987 1.394 . S
C2986 H2994 0.930 . S
C2987 C2986 1.394 . S
C2987 C2988 1.383 . S
C2987 H2995 0.929 . S
C2988 C2987 1.383 . S
C2988 C2989 1.377 . S
C2989 H2973 0.930 . S
C2989 C2988 1.377 . S
C2989 C2990 1.379 . S
C2990 H2974 0.931 . S
C2990 C2984 1.383 . S
C2990 C2989 1.379 . S
H2991 C2985 0.959 . S
H2992 C2985 0.961 . S
H2993 C2985 0.960 . S
H2994 C2986 0.930 . S
H2995 C2987 0.929 . S
H2996 C3004 0.929 . S
H2997 C3006 0.930 . S
H2998 C3008 0.930 . S
H2999 C3011 0.929 . S
H3000 C3014 0.930 . S
H3001 C3016 0.960 . S
H3002 C3016 0.960 . S
H3003 C3016 0.960 . S
C3004 H2996 0.929 . S
C3004 C3005 1.377 . S
C3004 C3006 1.384 . S
C3005 C3004 1.377 . S
C3005 C3011 1.390 . S
C3006 H2997 0.930 . S
C3006 C3004 1.384 . S
C3006 C3007 1.372 . S
C3007 C3006 1.372 . S
C3007 C3008 1.400 . S
C3007 C3012 1.490 . S
C3008 H2998 0.930 . S
C3008 C3007 1.400 . S
C3008 C3011 1.386 . S
H3009 C3025 0.930 . S
H3010 C3026 0.931 . S
C3011 H2999 0.929 . S
C3011 C3005 1.390 . S
C3011 C3008 1.386 . S
C3012 C3007 1.490 . S
C3012 C3014 1.395 . S
C3012 C3015 1.403 . S
H3013 C3019 0.930 . S
C3014 H3000 0.930 . S
C3014 C3012 1.395 . S
C3014 C3017 1.403 . S
C3015 C3012 1.403 . S
C3015 C3016 1.524 . S
C3015 C3019 1.400 . S
C3016 H3001 0.960 . S
C3016 H3002 0.960 . S
C3016 H3003 0.960 . S
C3016 C3015 1.524 . S
C3017 C3014 1.403 . S
C3017 C3018 1.392 . S
C3017 C3021 1.495 . S
C3018 C3017 1.392 . S
C3018 C3019 1.385 . S
C3018 C3020 1.478 . S
C3019 H3013 0.930 . S
C3019 C3015 1.400 . S
C3019 C3018 1.385 . S
C3020 C3018 1.478 . S
C3020 C3022 1.381 . S
C3020 C3026 1.383 . S
C3021 C3017 1.495 . S
C3021 H3027 0.959 . S
C3021 H3028 0.961 . S
C3021 H3029 0.960 . S
C3022 C3020 1.381 . S
C3022 C3023 1.394 . S
C3022 H3030 0.930 . S
C3023 C3022 1.394 . S
C3023 C3024 1.383 . S
C3023 H3031 0.929 . S
C3024 C3023 1.383 . S
C3024 C3025 1.377 . S
C3025 H3009 0.930 . S
C3025 C3024 1.377 . S
C3025 C3026 1.379 . S
C3026 H3010 0.931 . S
C3026 C3020 1.383 . S
C3026 C3025 1.379 . S
H3027 C3021 0.959 . S
H3028 C3021 0.961 . S
H3029 C3021 0.960 . S
H3030 C3022 0.930 . S
H3031 C3023 0.929 . S
H3032 C3040 0.929 . S
H3033 C3042 0.930 . S
H3034 C3044 0.930 . S
H3035 C3047 0.929 . S
H3036 C3050 0.930 . S
H3037 C3052 0.960 . S
H3038 C3052 0.960 . S
H3039 C3052 0.960 . S
C3040 H3032 0.929 . S
C3040 C3041 1.377 . S
C3040 C3042 1.384 . S
C3041 C3040 1.377 . S
C3041 C3047 1.390 . S
C3042 H3033 0.930 . S
C3042 C3040 1.384 . S
C3042 C3043 1.372 . S
C3043 C3042 1.372 . S
C3043 C3044 1.400 . S
C3043 C3048 1.490 . S
C3044 H3034 0.930 . S
C3044 C3043 1.400 . S
C3044 C3047 1.386 . S
H3045 C3061 0.930 . S
H3046 C3062 0.931 . S
C3047 H3035 0.929 . S
C3047 C3041 1.390 . S
C3047 C3044 1.386 . S
C3048 C3043 1.490 . S
C3048 C3050 1.395 . S
C3048 C3051 1.403 . S
H3049 C3055 0.930 . S
C3050 H3036 0.930 . S
C3050 C3048 1.395 . S
C3050 C3053 1.403 . S
C3051 C3048 1.403 . S
C3051 C3052 1.524 . S
C3051 C3055 1.400 . S
C3052 H3037 0.960 . S
C3052 H3038 0.960 . S
C3052 H3039 0.960 . S
C3052 C3051 1.524 . S
C3053 C3050 1.403 . S
C3053 C3054 1.392 . S
C3053 C3057 1.495 . S
C3054 C3053 1.392 . S
C3054 C3055 1.385 . S
C3054 C3056 1.478 . S
C3055 H3049 0.930 . S
C3055 C3051 1.400 . S
C3055 C3054 1.385 . S
C3056 C3054 1.478 . S
C3056 C3058 1.381 . S
C3056 C3062 1.383 . S
C3057 C3053 1.495 . S
C3057 H3063 0.959 . S
C3057 H3064 0.961 . S
C3057 H3065 0.960 . S
C3058 C3056 1.381 . S
C3058 C3059 1.394 . S
C3058 H3066 0.930 . S
C3059 C3058 1.394 . S
C3059 C3060 1.383 . S
C3059 H3067 0.929 . S
C3060 C3059 1.383 . S
C3060 C3061 1.377 . S
C3061 H3045 0.930 . S
C3061 C3060 1.377 . S
C3061 C3062 1.379 . S
C3062 H3046 0.931 . S
C3062 C3056 1.383 . S
C3062 C3061 1.379 . S
H3063 C3057 0.959 . S
H3064 C3057 0.961 . S
H3065 C3057 0.960 . S
H3066 C3058 0.930 . S
H3067 C3059 0.929 . S
H3068 C3076 0.929 . S
H3069 C3078 0.930 . S
H3070 C3080 0.930 . S
H3071 C3083 0.929 . S
H3072 C3086 0.930 . S
H3073 C3088 0.960 . S
H3074 C3088 0.960 . S
H3075 C3088 0.960 . S
C3076 H3068 0.929 . S
C3076 C3077 1.377 . S
C3076 C3078 1.384 . S
C3077 C3076 1.377 . S
C3077 C3083 1.390 . S
C3078 H3069 0.930 . S
C3078 C3076 1.384 . S
C3078 C3079 1.372 . S
C3079 C3078 1.372 . S
C3079 C3080 1.400 . S
C3079 C3084 1.490 . S
C3080 H3070 0.930 . S
C3080 C3079 1.400 . S
C3080 C3083 1.386 . S
H3081 C3097 0.911 1_565 S
H3082 C3098 0.931 . S
C3083 H3071 0.929 . S
C3083 C3077 1.390 . S
C3083 C3080 1.386 . S
C3084 C3079 1.490 . S
C3084 C3086 1.395 . S
C3084 C3087 1.403 . S
H3085 C3091 0.930 . S
C3086 H3072 0.930 . S
C3086 C3084 1.395 . S
C3086 C3089 1.403 . S
C3087 C3084 1.403 . S
C3087 C3088 1.524 . S
C3087 C3091 1.400 . S
C3088 H3073 0.960 . S
C3088 H3074 0.960 . S
C3088 H3075 0.960 . S
C3088 C3087 1.524 . S
C3089 C3086 1.403 . S
C3089 C3090 1.392 . S
C3089 C3093 1.495 1_565 S
C3090 C3089 1.392 . S
C3090 C3091 1.385 . S
C3090 C3092 1.478 . S
C3091 H3085 0.930 . S
C3091 C3087 1.400 . S
C3091 C3090 1.385 . S
C3092 C3090 1.478 . S
C3092 C3094 1.381 1_565 S
C3092 C3098 1.383 . S
C3093 C3089 1.495 1_545 S
C3093 H3099 0.959 . S
C3093 H3100 0.961 . S
C3093 H3101 0.960 . S
C3094 C3092 1.381 1_545 S
C3094 C3095 1.394 . S
C3094 H3102 0.930 1_554 S
C3095 C3094 1.394 . S
C3095 C3096 1.383 . S
C3095 H3103 0.929 1_554 S
C3096 C3095 1.383 . S
C3096 C3097 1.394 . S
C3097 H3081 0.911 1_545 S
C3097 C3096 1.394 . S
C3097 C3098 1.373 1_545 S
C3098 H3082 0.931 . S
C3098 C3092 1.383 . S
C3098 C3097 1.373 1_565 S
H3099 C3093 0.959 . S
H3100 C3093 0.961 . S
H3101 C3093 0.960 . S
H3102 C3094 0.930 1_556 S
H3103 C3095 0.929 1_556 S
H3104 C3112 0.929 . S
H3105 C3114 0.930 . S
H3106 C3116 0.930 . S
H3107 C3119 0.929 . S
H3108 C3122 0.930 . S
H3109 C3124 0.960 . S
H3110 C3124 0.960 . S
H3111 C3124 0.960 . S
C3112 H3104 0.929 . S
C3112 C3113 1.377 . S
C3112 C3114 1.384 . S
C3113 C3112 1.377 . S
C3113 C3119 1.390 . S
C3114 H3105 0.930 . S
C3114 C3112 1.384 . S
C3114 C3115 1.372 . S
C3115 C3114 1.372 . S
C3115 C3116 1.400 . S
C3115 C3120 1.490 . S
C3116 H3106 0.930 . S
C3116 C3115 1.400 . S
C3116 C3119 1.386 . S
H3117 C3133 0.930 . S
H3118 C3134 0.931 . S
C3119 H3107 0.929 . S
C3119 C3113 1.390 . S
C3119 C3116 1.386 . S
C3120 C3115 1.490 . S
C3120 C3122 1.395 . S
C3120 C3123 1.403 . S
H3121 C3127 0.930 . S
C3122 H3108 0.930 . S
C3122 C3120 1.395 . S
C3122 C3125 1.403 . S
C3123 C3120 1.403 . S
C3123 C3124 1.524 . S
C3123 C3127 1.400 . S
C3124 H3109 0.960 . S
C3124 H3110 0.960 . S
C3124 H3111 0.960 . S
C3124 C3123 1.524 . S
C3125 C3122 1.403 . S
C3125 C3126 1.392 . S
C3125 C3129 1.495 . S
C3126 C3125 1.392 . S
C3126 C3127 1.385 . S
C3126 C3128 1.478 . S
C3127 H3121 0.930 . S
C3127 C3123 1.400 . S
C3127 C3126 1.385 . S
C3128 C3126 1.478 . S
C3128 C3130 1.381 . S
C3128 C3134 1.383 . S
C3129 C3125 1.495 . S
C3129 H3135 0.959 . S
C3129 H3136 0.961 . S
C3129 H3137 0.960 . S
C3130 C3128 1.381 . S
C3130 C3131 1.394 . S
C3130 H3138 0.930 . S
C3131 C3130 1.394 . S
C3131 C3132 1.383 . S
C3131 H3139 0.929 . S
C3132 C3131 1.383 . S
C3132 C3133 1.377 . S
C3133 H3117 0.930 . S
C3133 C3132 1.377 . S
C3133 C3134 1.379 . S
C3134 H3118 0.931 . S
C3134 C3128 1.383 . S
C3134 C3133 1.379 . S
H3135 C3129 0.959 . S
H3136 C3129 0.961 . S
H3137 C3129 0.960 . S
H3138 C3130 0.930 . S
H3139 C3131 0.929 . S
H3140 C3148 0.929 . S
H3141 C3150 0.930 . S
H3142 C3152 0.930 . S
H3143 C3155 0.929 . S
H3144 C3158 0.927 1_556 S
H3145 C3160 0.960 . S
H3146 C3160 0.960 . S
H3147 C3160 0.960 . S
C3148 H3140 0.929 . S
C3148 C3149 1.377 1_556 S
C3148 C3150 1.384 . S
C3149 C3148 1.377 1_554 S
C3149 C3155 1.390 . S
C3150 H3141 0.930 . S
C3150 C3148 1.384 . S
C3150 C3151 1.372 1_556 S
C3151 C3150 1.372 1_554 S
C3151 C3152 1.400 . S
C3151 C3156 1.490 . S
C3152 H3142 0.930 . S
C3152 C3151 1.400 . S
C3152 C3155 1.386 . S
H3153 C3169 0.930 . S
H3154 C3170 0.931 . S
C3155 H3143 0.929 . S
C3155 C3149 1.390 . S
C3155 C3152 1.386 . S
C3156 C3151 1.490 . S
C3156 C3158 1.395 . S
C3156 C3159 1.403 . S
H3157 C3163 0.930 . S
C3158 H3144 0.927 1_554 S
C3158 C3156 1.395 . S
C3158 C3161 1.403 . S
C3159 C3156 1.403 . S
C3159 C3160 1.524 . S
C3159 C3163 1.400 . S
C3160 H3145 0.960 . S
C3160 H3146 0.960 . S
C3160 H3147 0.960 . S
C3160 C3159 1.524 . S
C3161 C3158 1.403 . S
C3161 C3162 1.392 . S
C3161 C3165 1.494 . S
C3162 C3161 1.392 . S
C3162 C3163 1.385 . S
C3162 C3164 1.478 . S
C3163 H3157 0.930 . S
C3163 C3159 1.400 . S
C3163 C3162 1.385 . S
C3164 C3162 1.478 . S
C3164 C3166 1.381 . S
C3164 C3170 1.383 . S
C3165 C3161 1.494 . S
C3165 H3171 0.960 1_554 S
C3165 H3172 0.960 . S
C3165 H3173 0.961 1_554 S
C3166 C3164 1.381 . S
C3166 C3167 1.394 . S
C3166 H3174 0.930 1_554 S
C3167 C3166 1.394 . S
C3167 C3168 1.383 . S
C3167 H3175 0.929 1_554 S
C3168 C3167 1.383 . S
C3168 C3169 1.377 . S
C3169 H3153 0.930 . S
C3169 C3168 1.377 . S
C3169 C3170 1.379 . S
C3170 H3154 0.931 . S
C3170 C3164 1.383 . S
C3170 C3169 1.379 . S
H3171 C3165 0.960 1_556 S
H3172 C3165 0.960 . S
H3173 C3165 0.961 1_556 S
H3174 C3166 0.930 1_556 S
H3175 C3167 0.929 1_556 S
H3176 C3184 0.929 . S
H3177 C3186 0.930 . S
H3178 C3188 0.930 . S
H3179 C3191 0.929 . S
H3180 C3194 0.930 . S
H3181 C3196 0.960 . S
H3182 C3196 0.960 . S
H3183 C3196 0.960 . S
C3184 H3176 0.929 . S
C3184 C3185 1.377 . S
C3184 C3186 1.384 . S
C3185 C3184 1.377 . S
C3185 C3191 1.390 . S
C3186 H3177 0.930 . S
C3186 C3184 1.384 . S
C3186 C3187 1.372 . S
C3187 C3186 1.372 . S
C3187 C3188 1.400 . S
C3187 C3192 1.490 . S
C3188 H3178 0.930 . S
C3188 C3187 1.400 . S
C3188 C3191 1.386 . S
H3189 C3205 0.930 . S
H3190 C3206 0.931 . S
C3191 H3179 0.929 . S
C3191 C3185 1.390 . S
C3191 C3188 1.386 . S
C3192 C3187 1.490 . S
C3192 C3194 1.395 . S
C3192 C3195 1.403 . S
H3193 C3199 0.930 . S
C3194 H3180 0.930 . S
C3194 C3192 1.395 . S
C3194 C3197 1.403 . S
C3195 C3192 1.403 . S
C3195 C3196 1.524 . S
C3195 C3199 1.400 . S
C3196 H3181 0.960 . S
C3196 H3182 0.960 . S
C3196 H3183 0.960 . S
C3196 C3195 1.524 . S
C3197 C3194 1.403 . S
C3197 C3198 1.392 . S
C3197 C3201 1.495 . S
C3198 C3197 1.392 . S
C3198 C3199 1.385 . S
C3198 C3200 1.478 . S
C3199 H3193 0.930 . S
C3199 C3195 1.400 . S
C3199 C3198 1.385 . S
C3200 C3198 1.478 . S
C3200 C3202 1.381 . S
C3200 C3206 1.383 . S
C3201 C3197 1.495 . S
C3201 H3207 0.959 . S
C3201 H3208 0.961 . S
C3201 H3209 0.960 . S
C3202 C3200 1.381 . S
C3202 C3203 1.394 . S
C3202 H3210 0.930 . S
C3203 C3202 1.394 . S
C3203 C3204 1.383 . S
C3203 H3211 0.929 . S
C3204 C3203 1.383 . S
C3204 C3205 1.377 . S
C3205 H3189 0.930 . S
C3205 C3204 1.377 . S
C3205 C3206 1.379 . S
C3206 H3190 0.931 . S
C3206 C3200 1.383 . S
C3206 C3205 1.379 . S
H3207 C3201 0.959 . S
H3208 C3201 0.961 . S
H3209 C3201 0.960 . S
H3210 C3202 0.930 . S
H3211 C3203 0.929 . S
H3212 C3220 0.929 . S
H3213 C3222 0.930 . S
H3214 C3224 0.930 . S
H3215 C3227 0.953 . S
H3216 C3230 0.930 . S
H3217 C3232 0.960 . S
H3218 C3232 0.960 . S
H3219 C3232 0.960 . S
C3220 H3212 0.929 . S
C3220 C3221 1.377 1_565 S
C3220 C3222 1.384 . S
C3221 C3220 1.377 1_545 S
C3221 C3227 1.406 . S
C3222 H3213 0.930 . S
C3222 C3220 1.384 . S
C3222 C3223 1.372 . S
C3223 C3222 1.372 . S
C3223 C3224 1.400 . S
C3223 C3228 1.490 . S
C3224 H3214 0.930 . S
C3224 C3223 1.400 . S
C3224 C3227 1.347 1_565 S
H3225 C3241 0.930 . S
H3226 C3242 0.931 . S
C3227 H3215 0.953 . S
C3227 C3221 1.406 . S
C3227 C3224 1.347 1_545 S
C3228 C3223 1.490 . S
C3228 C3230 1.395 . S
C3228 C3231 1.403 . S
H3229 C3235 0.930 . S
C3230 H3216 0.930 . S
C3230 C3228 1.395 . S
C3230 C3233 1.403 . S
C3231 C3228 1.403 . S
C3231 C3232 1.524 . S
C3231 C3235 1.400 . S
C3232 H3217 0.960 . S
C3232 H3218 0.960 . S
C3232 H3219 0.960 . S
C3232 C3231 1.524 . S
C3233 C3230 1.403 . S
C3233 C3234 1.392 . S
C3233 C3237 1.495 . S
C3234 C3233 1.392 . S
C3234 C3235 1.385 . S
C3234 C3236 1.478 . S
C3235 H3229 0.930 . S
C3235 C3231 1.400 . S
C3235 C3234 1.385 . S
C3236 C3234 1.478 . S
C3236 C3238 1.381 . S
C3236 C3242 1.383 . S
C3237 C3233 1.495 . S
C3237 H3243 0.959 . S
C3237 H3244 0.961 . S
C3237 H3245 0.960 . S
C3238 C3236 1.381 . S
C3238 C3239 1.394 . S
C3238 H3246 0.930 . S
C3239 C3238 1.394 . S
C3239 C3240 1.383 . S
C3239 H3247 0.929 . S
C3240 C3239 1.383 . S
C3240 C3241 1.377 . S
C3241 H3225 0.930 . S
C3241 C3240 1.377 . S
C3241 C3242 1.379 . S
C3242 H3226 0.931 . S
C3242 C3236 1.383 . S
C3242 C3241 1.379 . S
H3243 C3237 0.959 . S
H3244 C3237 0.961 . S
H3245 C3237 0.960 . S
H3246 C3238 0.930 . S
H3247 C3239 0.929 . S
H3248 C3256 0.929 . S
H3249 C3258 0.930 . S
H3250 C3260 0.930 . S
H3251 C3263 0.929 . S
H3252 C3266 0.930 . S
H3253 C3268 0.960 . S
H3254 C3268 0.960 . S
H3255 C3268 0.960 . S
C3256 H3248 0.929 . S
C3256 C3257 1.377 . S
C3256 C3258 1.384 . S
C3257 C3256 1.377 . S
C3257 C3263 1.390 . S
C3258 H3249 0.930 . S
C3258 C3256 1.384 . S
C3258 C3259 1.372 . S
C3259 C3258 1.372 . S
C3259 C3260 1.400 . S
C3259 C3264 1.490 . S
C3260 H3250 0.930 . S
C3260 C3259 1.400 . S
C3260 C3263 1.386 . S
H3261 C3277 0.930 . S
H3262 C3278 0.931 . S
C3263 H3251 0.929 . S
C3263 C3257 1.390 . S
C3263 C3260 1.386 . S
C3264 C3259 1.490 . S
C3264 C3266 1.395 . S
C3264 C3267 1.403 . S
H3265 C3271 0.930 . S
C3266 H3252 0.930 . S
C3266 C3264 1.395 . S
C3266 C3269 1.403 . S
C3267 C3264 1.403 . S
C3267 C3268 1.524 . S
C3267 C3271 1.400 . S
C3268 H3253 0.960 . S
C3268 H3254 0.960 . S
C3268 H3255 0.960 . S
C3268 C3267 1.524 . S
C3269 C3266 1.403 . S
C3269 C3270 1.392 . S
C3269 C3273 1.495 . S
C3270 C3269 1.392 . S
C3270 C3271 1.385 . S
C3270 C3272 1.478 . S
C3271 H3265 0.930 . S
C3271 C3267 1.400 . S
C3271 C3270 1.385 . S
C3272 C3270 1.478 . S
C3272 C3274 1.381 . S
C3272 C3278 1.383 . S
C3273 C3269 1.495 . S
C3273 H3279 0.959 . S
C3273 H3280 0.961 . S
C3273 H3281 0.960 . S
C3274 C3272 1.381 . S
C3274 C3275 1.394 . S
C3274 H3282 0.930 . S
C3275 C3274 1.394 . S
C3275 C3276 1.383 . S
C3275 H3283 0.929 . S
C3276 C3275 1.383 . S
C3276 C3277 1.377 . S
C3277 H3261 0.930 . S
C3277 C3276 1.377 . S
C3277 C3278 1.379 . S
C3278 H3262 0.931 . S
C3278 C3272 1.383 . S
C3278 C3277 1.379 . S
H3279 C3273 0.959 . S
H3280 C3273 0.961 . S
H3281 C3273 0.960 . S
H3282 C3274 0.930 . S
H3283 C3275 0.929 . S
H3284 C3292 0.929 . S
H3285 C3294 0.930 . S
H3286 C3296 0.930 . S
H3287 C3299 0.929 . S
H3288 C3302 0.930 . S
H3289 C3304 0.960 . S
H3290 C3304 0.960 . S
H3291 C3304 0.960 . S
C3292 H3284 0.929 . S
C3292 C3293 1.377 . S
C3292 C3294 1.384 . S
C3293 C3292 1.377 . S
C3293 C3299 1.390 . S
C3294 H3285 0.930 . S
C3294 C3292 1.384 . S
C3294 C3295 1.372 . S
C3295 C3294 1.372 . S
C3295 C3296 1.400 . S
C3295 C3300 1.490 . S
C3296 H3286 0.930 . S
C3296 C3295 1.400 . S
C3296 C3299 1.386 . S
H3297 C3313 0.930 . S
H3298 C3314 0.931 . S
C3299 H3287 0.929 . S
C3299 C3293 1.390 . S
C3299 C3296 1.386 . S
C3300 C3295 1.490 . S
C3300 C3302 1.395 . S
C3300 C3303 1.403 . S
H3301 C3307 0.930 . S
C3302 H3288 0.930 . S
C3302 C3300 1.395 . S
C3302 C3305 1.403 . S
C3303 C3300 1.403 . S
C3303 C3304 1.524 . S
C3303 C3307 1.400 . S
C3304 H3289 0.960 . S
C3304 H3290 0.960 . S
C3304 H3291 0.960 . S
C3304 C3303 1.524 . S
C3305 C3302 1.403 . S
C3305 C3306 1.392 . S
C3305 C3309 1.495 . S
C3306 C3305 1.392 . S
C3306 C3307 1.385 . S
C3306 C3308 1.478 . S
C3307 H3301 0.930 . S
C3307 C3303 1.400 . S
C3307 C3306 1.385 . S
C3308 C3306 1.478 . S
C3308 C3310 1.381 . S
C3308 C3314 1.383 . S
C3309 C3305 1.495 . S
C3309 H3315 0.959 . S
C3309 H3316 0.961 . S
C3309 H3317 0.960 . S
C3310 C3308 1.381 . S
C3310 C3311 1.394 . S
C3310 H3318 0.930 . S
C3311 C3310 1.394 . S
C3311 C3312 1.383 . S
C3311 H3319 0.929 . S
C3312 C3311 1.383 . S
C3312 C3313 1.377 . S
C3313 H3297 0.930 . S
C3313 C3312 1.377 . S
C3313 C3314 1.379 . S
C3314 H3298 0.931 . S
C3314 C3308 1.383 . S
C3314 C3313 1.379 . S
H3315 C3309 0.959 . S
H3316 C3309 0.961 . S
H3317 C3309 0.960 . S
H3318 C3310 0.930 . S
H3319 C3311 0.929 . S
H3320 C3328 0.929 . S
H3321 C3330 0.930 . S
H3322 C3332 0.930 . S
H3323 C3335 0.929 . S
H3324 C3338 0.930 . S
H3325 C3340 0.960 . S
H3326 C3340 0.960 . S
H3327 C3340 0.960 . S
C3328 H3320 0.929 . S
C3328 C3329 1.377 . S
C3328 C3330 1.384 . S
C3329 C3328 1.377 . S
C3329 C3335 1.390 . S
C3330 H3321 0.930 . S
C3330 C3328 1.384 . S
C3330 C3331 1.372 . S
C3331 C3330 1.372 . S
C3331 C3332 1.400 . S
C3331 C3336 1.490 . S
C3332 H3322 0.930 . S
C3332 C3331 1.400 . S
C3332 C3335 1.386 . S
H3333 C3349 0.930 . S
H3334 C3350 0.931 . S
C3335 H3323 0.929 . S
C3335 C3329 1.390 . S
C3335 C3332 1.386 . S
C3336 C3331 1.490 . S
C3336 C3338 1.395 . S
C3336 C3339 1.403 1_455 S
H3337 C3343 0.930 . S
C3338 H3324 0.930 . S
C3338 C3336 1.395 . S
C3338 C3341 1.403 . S
C3339 C3336 1.403 1_655 S
C3339 C3340 1.524 . S
C3339 C3343 1.400 . S
C3340 H3325 0.960 . S
C3340 H3326 0.960 . S
C3340 H3327 0.960 . S
C3340 C3339 1.524 . S
C3341 C3338 1.403 . S
C3341 C3342 1.392 . S
C3341 C3345 1.495 . S
C3342 C3341 1.392 . S
C3342 C3343 1.385 1_455 S
C3342 C3344 1.478 . S
C3343 H3337 0.930 . S
C3343 C3339 1.400 . S
C3343 C3342 1.385 1_655 S
C3344 C3342 1.478 . S
C3344 C3346 1.381 . S
C3344 C3350 1.383 . S
C3345 C3341 1.495 . S
C3345 H3351 0.959 . S
C3345 H3352 0.961 . S
C3345 H3353 0.960 . S
C3346 C3344 1.381 . S
C3346 C3347 1.394 . S
C3346 H3354 0.930 . S
C3347 C3346 1.394 . S
C3347 C3348 1.383 . S
C3347 H3355 0.929 . S
C3348 C3347 1.383 . S
C3348 C3349 1.377 . S
C3349 H3333 0.930 . S
C3349 C3348 1.377 . S
C3349 C3350 1.379 . S
C3350 H3334 0.931 . S
C3350 C3344 1.383 . S
C3350 C3349 1.379 . S
H3351 C3345 0.959 . S
H3352 C3345 0.961 . S
H3353 C3345 0.960 . S
H3354 C3346 0.930 . S
H3355 C3347 0.929 . S
H3356 C3364 0.929 . S
H3357 C3366 0.930 . S
H3358 C3368 0.930 . S
H3359 C3371 0.929 . S
H3360 C3374 0.930 . S
H3361 C3376 0.960 . S
H3362 C3376 0.960 . S
H3363 C3376 0.960 . S
C3364 H3356 0.929 . S
C3364 C3365 1.377 . S
C3364 C3366 1.384 . S
C3365 C3364 1.377 . S
C3365 C3371 1.390 . S
C3366 H3357 0.930 . S
C3366 C3364 1.384 . S
C3366 C3367 1.372 . S
C3367 C3366 1.372 . S
C3367 C3368 1.400 . S
C3367 C3372 1.490 . S
C3368 H3358 0.930 . S
C3368 C3367 1.400 . S
C3368 C3371 1.386 . S
H3369 C3385 0.930 . S
H3370 C3386 0.931 . S
C3371 H3359 0.929 . S
C3371 C3365 1.390 . S
C3371 C3368 1.386 . S
C3372 C3367 1.490 . S
C3372 C3374 1.395 . S
C3372 C3375 1.403 . S
H3373 C3379 0.930 . S
C3374 H3360 0.930 . S
C3374 C3372 1.395 . S
C3374 C3377 1.403 . S
C3375 C3372 1.403 . S
C3375 C3376 1.524 . S
C3375 C3379 1.400 . S
C3376 H3361 0.960 . S
C3376 H3362 0.960 . S
C3376 H3363 0.960 . S
C3376 C3375 1.524 . S
C3377 C3374 1.403 . S
C3377 C3378 1.392 . S
C3377 C3381 1.495 . S
C3378 C3377 1.392 . S
C3378 C3379 1.385 . S
C3378 C3380 1.478 . S
C3379 H3373 0.930 . S
C3379 C3375 1.400 . S
C3379 C3378 1.385 . S
C3380 C3378 1.478 . S
C3380 C3382 1.381 . S
C3380 C3386 1.383 . S
C3381 C3377 1.495 . S
C3381 H3387 0.959 . S
C3381 H3388 0.961 . S
C3381 H3389 0.960 . S
C3382 C3380 1.381 . S
C3382 C3383 1.394 . S
C3382 H3390 0.930 . S
C3383 C3382 1.394 . S
C3383 C3384 1.383 . S
C3383 H3391 0.929 . S
C3384 C3383 1.383 . S
C3384 C3385 1.377 . S
C3385 H3369 0.930 . S
C3385 C3384 1.377 . S
C3385 C3386 1.379 . S
C3386 H3370 0.931 . S
C3386 C3380 1.383 . S
C3386 C3385 1.379 . S
H3387 C3381 0.959 . S
H3388 C3381 0.961 . S
H3389 C3381 0.960 . S
H3390 C3382 0.930 . S
H3391 C3383 0.929 . S
H3392 C3400 0.929 . S
H3393 C3402 0.930 . S
H3394 C3404 0.930 . S
H3395 C3407 0.929 . S
H3396 C3410 0.930 . S
H3397 C3412 0.960 . S
H3398 C3412 0.960 . S
H3399 C3412 0.960 . S
C3400 H3392 0.929 . S
C3400 C3401 1.377 . S
C3400 C3402 1.384 . S
C3401 C3400 1.377 . S
C3401 C3407 1.390 . S
C3402 H3393 0.930 . S
C3402 C3400 1.384 . S
C3402 C3403 1.372 . S
C3403 C3402 1.372 . S
C3403 C3404 1.400 . S
C3403 C3408 1.490 . S
C3404 H3394 0.930 . S
C3404 C3403 1.400 . S
C3404 C3407 1.386 . S
H3405 C3421 0.930 . S
H3406 C3422 0.931 . S
C3407 H3395 0.929 . S
C3407 C3401 1.390 . S
C3407 C3404 1.386 . S
C3408 C3403 1.490 . S
C3408 C3410 1.395 . S
C3408 C3411 1.403 . S
H3409 C3415 0.930 . S
C3410 H3396 0.930 . S
C3410 C3408 1.395 . S
C3410 C3413 1.403 . S
C3411 C3408 1.403 . S
C3411 C3412 1.524 . S
C3411 C3415 1.400 . S
C3412 H3397 0.960 . S
C3412 H3398 0.960 . S
C3412 H3399 0.960 . S
C3412 C3411 1.524 . S
C3413 C3410 1.403 . S
C3413 C3414 1.392 . S
C3413 C3417 1.495 . S
C3414 C3413 1.392 . S
C3414 C3415 1.385 . S
C3414 C3416 1.478 . S
C3415 H3409 0.930 . S
C3415 C3411 1.400 . S
C3415 C3414 1.385 . S
C3416 C3414 1.478 . S
C3416 C3418 1.381 . S
C3416 C3422 1.383 . S
C3417 C3413 1.495 . S
C3417 H3423 0.959 1_556 S
C3417 H3424 0.961 . S
C3417 H3425 0.960 1_556 S
C3418 C3416 1.381 . S
C3418 C3419 1.394 . S
C3418 H3426 0.930 . S
C3419 C3418 1.394 . S
C3419 C3420 1.383 . S
C3419 H3427 0.929 1_556 S
C3420 C3419 1.383 . S
C3420 C3421 1.377 . S
C3421 H3405 0.930 . S
C3421 C3420 1.377 . S
C3421 C3422 1.379 . S
C3422 H3406 0.931 . S
C3422 C3416 1.383 . S
C3422 C3421 1.379 . S
H3423 C3417 0.959 1_554 S
H3424 C3417 0.961 . S
H3425 C3417 0.960 1_554 S
H3426 C3418 0.930 . S
H3427 C3419 0.929 1_554 S
H3428 C3436 0.929 . S
H3429 C3438 0.930 . S
H3430 C3440 0.930 . S
H3431 C3443 0.929 . S
H3432 C3446 0.930 . S
H3433 C3448 0.960 . S
H3434 C3448 0.960 . S
H3435 C3448 0.960 . S
C3436 H3428 0.929 . S
C3436 C3437 1.377 . S
C3436 C3438 1.384 . S
C3437 C3436 1.377 . S
C3437 C3443 1.390 . S
C3438 H3429 0.930 . S
C3438 C3436 1.384 . S
C3438 C3439 1.372 . S
C3439 C3438 1.372 . S
C3439 C3440 1.400 . S
C3439 C3444 1.490 . S
C3440 H3430 0.930 . S
C3440 C3439 1.400 . S
C3440 C3443 1.386 . S
H3441 C3457 0.930 . S
H3442 C3458 0.931 . S
C3443 H3431 0.929 . S
C3443 C3437 1.390 . S
C3443 C3440 1.386 . S
C3444 C3439 1.490 . S
C3444 C3446 1.395 . S
C3444 C3447 1.403 . S
H3445 C3451 0.930 . S
C3446 H3432 0.930 . S
C3446 C3444 1.395 . S
C3446 C3449 1.403 . S
C3447 C3444 1.403 . S
C3447 C3448 1.524 . S
C3447 C3451 1.400 . S
C3448 H3433 0.960 . S
C3448 H3434 0.960 . S
C3448 H3435 0.960 . S
C3448 C3447 1.524 . S
C3449 C3446 1.403 . S
C3449 C3450 1.392 . S
C3449 C3453 1.495 . S
C3450 C3449 1.392 . S
C3450 C3451 1.385 . S
C3450 C3452 1.478 . S
C3451 H3445 0.930 . S
C3451 C3447 1.400 . S
C3451 C3450 1.385 . S
C3452 C3450 1.478 . S
C3452 C3454 1.381 . S
C3452 C3458 1.383 . S
C3453 C3449 1.495 . S
C3453 H3459 0.959 . S
C3453 H3460 0.961 . S
C3453 H3461 0.960 . S
C3454 C3452 1.381 . S
C3454 C3455 1.394 . S
C3454 H3462 0.930 . S
C3455 C3454 1.394 . S
C3455 C3456 1.383 . S
C3455 H3463 0.929 . S
C3456 C3455 1.383 . S
C3456 C3457 1.377 . S
C3457 H3441 0.930 . S
C3457 C3456 1.377 . S
C3457 C3458 1.379 . S
C3458 H3442 0.931 . S
C3458 C3452 1.383 . S
C3458 C3457 1.379 . S
H3459 C3453 0.959 . S
H3460 C3453 0.961 . S
H3461 C3453 0.960 . S
H3462 C3454 0.930 . S
H3463 C3455 0.929 . S
H3464 C3472 0.929 . S
H3465 C3474 0.930 . S
H3466 C3476 0.930 1_655 S
H3467 C3479 0.929 1_655 S
H3468 C3482 0.930 . S
H3469 C3484 0.960 . S
H3470 C3484 0.960 . S
H3471 C3484 0.960 . S
C3472 H3464 0.929 . S
C3472 C3473 1.377 . S
C3472 C3474 1.384 . S
C3473 C3472 1.377 . S
C3473 C3479 1.390 . S
C3474 H3465 0.930 . S
C3474 C3472 1.384 . S
C3474 C3475 1.372 . S
C3475 C3474 1.372 . S
C3475 C3476 1.400 . S
C3475 C3480 1.490 . S
C3476 H3466 0.930 1_455 S
C3476 C3475 1.400 . S
C3476 C3479 1.386 . S
H3477 C3493 0.930 1_655 S
H3478 C3494 0.931 1_655 S
C3479 H3467 0.929 1_455 S
C3479 C3473 1.390 . S
C3479 C3476 1.386 . S
C3480 C3475 1.490 . S
C3480 C3482 1.395 . S
C3480 C3483 1.403 . S
H3481 C3487 0.930 1_655 S
C3482 H3468 0.930 . S
C3482 C3480 1.395 . S
C3482 C3485 1.403 . S
C3483 C3480 1.403 . S
C3483 C3484 1.524 1_455 S
C3483 C3487 1.400 . S
C3484 H3469 0.960 . S
C3484 H3470 0.960 . S
C3484 H3471 0.960 . S
C3484 C3483 1.524 1_655 S
C3485 C3482 1.403 . S
C3485 C3486 1.392 . S
C3485 C3489 1.495 . S
C3486 C3485 1.392 . S
C3486 C3487 1.385 . S
C3486 C3488 1.478 . S
C3487 H3481 0.930 1_455 S
C3487 C3483 1.400 . S
C3487 C3486 1.385 . S
C3488 C3486 1.478 . S
C3488 C3490 1.381 . S
C3488 C3494 1.383 . S
C3489 C3485 1.495 . S
C3489 H3495 0.959 . S
C3489 H3496 0.961 . S
C3489 H3497 0.960 . S
C3490 C3488 1.381 . S
C3490 C3491 1.394 . S
C3490 H3498 0.930 . S
C3491 C3490 1.394 . S
C3491 C3492 1.383 . S
C3491 H3499 0.929 . S
C3492 C3491 1.383 . S
C3492 C3493 1.377 . S
C3493 H3477 0.930 1_455 S
C3493 C3492 1.377 . S
C3493 C3494 1.379 . S
C3494 H3478 0.931 1_455 S
C3494 C3488 1.383 . S
C3494 C3493 1.379 . S
H3495 C3489 0.959 . S
H3496 C3489 0.961 . S
H3497 C3489 0.960 . S
H3498 C3490 0.930 . S
H3499 C3491 0.929 . S
H3500 C3508 0.929 . S
H3501 C3510 0.930 . S
H3502 C3512 0.930 . S
H3503 C3515 0.929 . S
H3504 C3518 0.930 . S
H3505 C3520 0.960 . S
H3506 C3520 0.960 . S
H3507 C3520 0.960 . S
C3508 H3500 0.929 . S
C3508 C3509 1.377 . S
C3508 C3510 1.384 . S
C3509 C3508 1.377 . S
C3509 C3515 1.390 . S
C3510 H3501 0.930 . S
C3510 C3508 1.384 . S
C3510 C3511 1.372 . S
C3511 C3510 1.372 . S
C3511 C3512 1.400 . S
C3511 C3516 1.490 . S
C3512 H3502 0.930 . S
C3512 C3511 1.400 . S
C3512 C3515 1.386 . S
H3513 C3529 0.930 . S
H3514 C3530 0.931 . S
C3515 H3503 0.929 . S
C3515 C3509 1.390 . S
C3515 C3512 1.386 . S
C3516 C3511 1.490 . S
C3516 C3518 1.395 . S
C3516 C3519 1.403 . S
H3517 C3523 0.930 . S
C3518 H3504 0.930 . S
C3518 C3516 1.395 . S
C3518 C3521 1.403 . S
C3519 C3516 1.403 . S
C3519 C3520 1.524 . S
C3519 C3523 1.400 . S
C3520 H3505 0.960 . S
C3520 H3506 0.960 . S
C3520 H3507 0.960 . S
C3520 C3519 1.524 . S
C3521 C3518 1.403 . S
C3521 C3522 1.392 . S
C3521 C3525 1.495 . S
C3522 C3521 1.392 . S
C3522 C3523 1.385 . S
C3522 C3524 1.478 . S
C3523 H3517 0.930 . S
C3523 C3519 1.400 . S
C3523 C3522 1.385 . S
C3524 C3522 1.478 . S
C3524 C3526 1.381 . S
C3524 C3530 1.383 . S
C3525 C3521 1.495 . S
C3525 H3531 0.959 . S
C3525 H3532 0.961 . S
C3525 H3533 0.960 . S
C3526 C3524 1.381 . S
C3526 C3527 1.394 . S
C3526 H3534 0.930 . S
C3527 C3526 1.394 . S
C3527 C3528 1.383 . S
C3527 H3535 0.929 . S
C3528 C3527 1.383 . S
C3528 C3529 1.377 . S
C3529 H3513 0.930 . S
C3529 C3528 1.377 . S
C3529 C3530 1.379 . S
C3530 H3514 0.931 . S
C3530 C3524 1.383 . S
C3530 C3529 1.379 . S
H3531 C3525 0.959 . S
H3532 C3525 0.961 . S
H3533 C3525 0.960 . S
H3534 C3526 0.930 . S
H3535 C3527 0.929 . S
H3536 C3544 0.929 . S
H3537 C3546 0.930 . S
H3538 C3548 0.930 . S
H3539 C3551 0.929 . S
H3540 C3554 0.930 . S
H3541 C3556 0.960 . S
H3542 C3556 0.960 . S
H3543 C3556 0.960 . S
C3544 H3536 0.929 . S
C3544 C3545 1.377 . S
C3544 C3546 1.384 . S
C3545 C3544 1.377 . S
C3545 C3551 1.390 . S
C3546 H3537 0.930 . S
C3546 C3544 1.384 . S
C3546 C3547 1.372 . S
C3547 C3546 1.372 . S
C3547 C3548 1.400 . S
C3547 C3552 1.490 . S
C3548 H3538 0.930 . S
C3548 C3547 1.400 . S
C3548 C3551 1.386 . S
H3549 C3565 0.930 . S
H3550 C3566 0.931 . S
C3551 H3539 0.929 . S
C3551 C3545 1.390 . S
C3551 C3548 1.386 . S
C3552 C3547 1.490 . S
C3552 C3554 1.395 . S
C3552 C3555 1.403 . S
H3553 C3559 0.930 . S
C3554 H3540 0.930 . S
C3554 C3552 1.395 . S
C3554 C3557 1.403 . S
C3555 C3552 1.403 . S
C3555 C3556 1.524 . S
C3555 C3559 1.400 . S
C3556 H3541 0.960 . S
C3556 H3542 0.960 . S
C3556 H3543 0.960 . S
C3556 C3555 1.524 . S
C3557 C3554 1.403 . S
C3557 C3558 1.392 . S
C3557 C3561 1.495 . S
C3558 C3557 1.392 . S
C3558 C3559 1.385 . S
C3558 C3560 1.478 . S
C3559 H3553 0.930 . S
C3559 C3555 1.400 . S
C3559 C3558 1.385 . S
C3560 C3558 1.478 . S
C3560 C3562 1.381 . S
C3560 C3566 1.383 . S
C3561 C3557 1.495 . S
C3561 H3567 0.959 . S
C3561 H3568 0.961 . S
C3561 H3569 0.960 . S
C3562 C3560 1.381 . S
C3562 C3563 1.394 . S
C3562 H3570 0.930 . S
C3563 C3562 1.394 . S
C3563 C3564 1.383 . S
C3563 H3571 0.929 . S
C3564 C3563 1.383 . S
C3564 C3565 1.377 . S
C3565 H3549 0.930 . S
C3565 C3564 1.377 . S
C3565 C3566 1.379 . S
C3566 H3550 0.931 . S
C3566 C3560 1.383 . S
C3566 C3565 1.379 . S
H3567 C3561 0.959 . S
H3568 C3561 0.961 . S
H3569 C3561 0.960 . S
H3570 C3562 0.930 . S
H3571 C3563 0.929 . S
H3572 C3580 0.929 . S
H3573 C3582 0.930 . S
H3574 C3584 0.930 . S
H3575 C3587 0.929 . S
H3576 C3590 0.930 . S
H3577 C3592 0.960 . S
H3578 C3592 0.960 . S
H3579 C3592 0.960 . S
C3580 H3572 0.929 . S
C3580 C3581 1.377 . S
C3580 C3582 1.384 . S
C3581 C3580 1.377 . S
C3581 C3587 1.390 . S
C3582 H3573 0.930 . S
C3582 C3580 1.384 . S
C3582 C3583 1.372 . S
C3583 C3582 1.372 . S
C3583 C3584 1.400 . S
C3583 C3588 1.490 . S
C3584 H3574 0.930 . S
C3584 C3583 1.400 . S
C3584 C3587 1.386 . S
H3585 C3601 0.930 . S
H3586 C3602 0.931 . S
C3587 H3575 0.929 . S
C3587 C3581 1.390 . S
C3587 C3584 1.386 . S
C3588 C3583 1.490 . S
C3588 C3590 1.395 . S
C3588 C3591 1.403 . S
H3589 C3595 0.930 . S
C3590 H3576 0.930 . S
C3590 C3588 1.395 . S
C3590 C3593 1.403 . S
C3591 C3588 1.403 . S
C3591 C3592 1.524 . S
C3591 C3595 1.400 . S
C3592 H3577 0.960 . S
C3592 H3578 0.960 . S
C3592 H3579 0.960 . S
C3592 C3591 1.524 . S
C3593 C3590 1.403 . S
C3593 C3594 1.392 . S
C3593 C3597 1.495 . S
C3594 C3593 1.392 . S
C3594 C3595 1.385 . S
C3594 C3596 1.478 . S
C3595 H3589 0.930 . S
C3595 C3591 1.400 . S
C3595 C3594 1.385 . S
C3596 C3594 1.478 . S
C3596 C3598 1.381 . S
C3596 C3602 1.383 . S
C3597 C3593 1.495 . S
C3597 H3603 0.959 . S
C3597 H3604 0.961 . S
C3597 H3605 0.960 . S
C3598 C3596 1.381 . S
C3598 C3599 1.394 . S
C3598 H3606 0.930 . S
C3599 C3598 1.394 . S
C3599 C3600 1.383 . S
C3599 H3607 0.929 . S
C3600 C3599 1.383 . S
C3600 C3601 1.377 . S
C3601 H3585 0.930 . S
C3601 C3600 1.377 . S
C3601 C3602 1.379 . S
C3602 H3586 0.931 . S
C3602 C3596 1.383 . S
C3602 C3601 1.379 . S
H3603 C3597 0.959 . S
H3604 C3597 0.961 . S
H3605 C3597 0.960 . S
H3606 C3598 0.930 . S
H3607 C3599 0.929 . S
H3608 C3616 0.929 . S
H3609 C3618 0.930 . S
H3610 C3620 0.930 . S
H3611 C3623 0.929 . S
H3612 C3626 0.930 . S
H3613 C3628 0.960 . S
H3614 C3628 0.960 . S
H3615 C3628 0.960 . S
C3616 H3608 0.929 . S
C3616 C3617 1.377 . S
C3616 C3618 1.384 . S
C3617 C3616 1.377 . S
C3617 C3623 1.390 . S
C3618 H3609 0.930 . S
C3618 C3616 1.384 . S
C3618 C3619 1.372 . S
C3619 C3618 1.372 . S
C3619 C3620 1.400 . S
C3619 C3624 1.490 . S
C3620 H3610 0.930 . S
C3620 C3619 1.400 . S
C3620 C3623 1.386 . S
H3621 C3637 0.930 . S
H3622 C3638 0.931 . S
C3623 H3611 0.929 . S
C3623 C3617 1.390 . S
C3623 C3620 1.386 . S
C3624 C3619 1.490 . S
C3624 C3626 1.395 . S
C3624 C3627 1.403 . S
H3625 C3631 0.930 . S
C3626 H3612 0.930 . S
C3626 C3624 1.395 . S
C3626 C3629 1.403 . S
C3627 C3624 1.403 . S
C3627 C3628 1.524 . S
C3627 C3631 1.400 . S
C3628 H3613 0.960 . S
C3628 H3614 0.960 . S
C3628 H3615 0.960 . S
C3628 C3627 1.524 . S
C3629 C3626 1.403 . S
C3629 C3630 1.392 . S
C3629 C3633 1.495 1_655 S
C3630 C3629 1.392 . S
C3630 C3631 1.385 . S
C3630 C3632 1.478 . S
C3631 H3625 0.930 . S
C3631 C3627 1.400 . S
C3631 C3630 1.385 . S
C3632 C3630 1.478 . S
C3632 C3634 1.381 . S
C3632 C3638 1.383 . S
C3633 C3629 1.495 1_455 S
C3633 H3639 0.959 . S
C3633 H3640 0.961 . S
C3633 H3641 0.960 . S
C3634 C3632 1.381 . S
C3634 C3635 1.394 . S
C3634 H3642 0.930 . S
C3635 C3634 1.394 . S
C3635 C3636 1.383 . S
C3635 H3643 0.929 . S
C3636 C3635 1.383 . S
C3636 C3637 1.377 . S
C3637 H3621 0.930 . S
C3637 C3636 1.377 . S
C3637 C3638 1.379 . S
C3638 H3622 0.931 . S
C3638 C3632 1.383 . S
C3638 C3637 1.379 . S
H3639 C3633 0.959 . S
H3640 C3633 0.961 . S
H3641 C3633 0.960 . S
H3642 C3634 0.930 . S
H3643 C3635 0.929 . S
H3644 C3652 0.929 . S
H3645 C3654 0.930 . S
H3646 C3656 0.930 . S
H3647 C3659 0.929 . S
H3648 C3662 0.930 . S
H3649 C3664 0.960 . S
H3650 C3664 0.960 . S
H3651 C3664 0.960 . S
C3652 H3644 0.929 . S
C3652 C3653 1.377 . S
C3652 C3654 1.384 . S
C3653 C3652 1.377 . S
C3653 C3659 1.390 . S
C3654 H3645 0.930 . S
C3654 C3652 1.384 . S
C3654 C3655 1.372 . S
C3655 C3654 1.372 . S
C3655 C3656 1.400 . S
C3655 C3660 1.490 . S
C3656 H3646 0.930 . S
C3656 C3655 1.400 . S
C3656 C3659 1.386 . S
H3657 C3673 0.930 . S
H3658 C3674 0.931 . S
C3659 H3647 0.929 . S
C3659 C3653 1.390 . S
C3659 C3656 1.386 . S
C3660 C3655 1.490 . S
C3660 C3662 1.395 . S
C3660 C3663 1.403 . S
H3661 C3667 0.930 . S
C3662 H3648 0.930 . S
C3662 C3660 1.395 . S
C3662 C3665 1.403 . S
C3663 C3660 1.403 . S
C3663 C3664 1.524 . S
C3663 C3667 1.400 . S
C3664 H3649 0.960 . S
C3664 H3650 0.960 . S
C3664 H3651 0.960 . S
C3664 C3663 1.524 . S
C3665 C3662 1.403 . S
C3665 C3666 1.392 . S
C3665 C3669 1.495 . S
C3666 C3665 1.392 . S
C3666 C3667 1.385 . S
C3666 C3668 1.478 . S
C3667 H3661 0.930 . S
C3667 C3663 1.400 . S
C3667 C3666 1.385 . S
C3668 C3666 1.478 . S
C3668 C3670 1.381 . S
C3668 C3674 1.383 . S
C3669 C3665 1.495 . S
C3669 H3675 0.959 . S
C3669 H3676 0.961 . S
C3669 H3677 0.960 . S
C3670 C3668 1.381 . S
C3670 C3671 1.394 . S
C3670 H3678 0.930 . S
C3671 C3670 1.394 . S
C3671 C3672 1.383 . S
C3671 H3679 0.929 . S
C3672 C3671 1.383 . S
C3672 C3673 1.377 . S
C3673 H3657 0.930 . S
C3673 C3672 1.377 . S
C3673 C3674 1.379 . S
C3674 H3658 0.931 . S
C3674 C3668 1.383 . S
C3674 C3673 1.379 . S
H3675 C3669 0.959 . S
H3676 C3669 0.961 . S
H3677 C3669 0.960 . S
H3678 C3670 0.930 . S
H3679 C3671 0.929 . S
H3680 C3688 0.929 . S
H3681 C3690 0.930 . S
H3682 C3692 0.930 . S
H3683 C3695 0.929 . S
H3684 C3698 0.930 . S
H3685 C3700 0.960 . S
H3686 C3700 0.960 . S
H3687 C3700 0.960 . S
C3688 H3680 0.929 . S
C3688 C3689 1.377 . S
C3688 C3690 1.384 . S
C3689 C3688 1.377 . S
C3689 C3695 1.390 . S
C3690 H3681 0.930 . S
C3690 C3688 1.384 . S
C3690 C3691 1.372 . S
C3691 C3690 1.372 . S
C3691 C3692 1.400 . S
C3691 C3696 1.490 . S
C3692 H3682 0.930 . S
C3692 C3691 1.400 . S
C3692 C3695 1.386 . S
H3693 C3709 0.930 . S
H3694 C3710 0.931 . S
C3695 H3683 0.929 . S
C3695 C3689 1.390 . S
C3695 C3692 1.386 . S
C3696 C3691 1.490 . S
C3696 C3698 1.395 . S
C3696 C3699 1.403 . S
H3697 C3703 0.930 . S
C3698 H3684 0.930 . S
C3698 C3696 1.395 . S
C3698 C3701 1.403 . S
C3699 C3696 1.403 . S
C3699 C3700 1.524 . S
C3699 C3703 1.400 . S
C3700 H3685 0.960 . S
C3700 H3686 0.960 . S
C3700 H3687 0.960 . S
C3700 C3699 1.524 . S
C3701 C3698 1.403 . S
C3701 C3702 1.392 . S
C3701 C3705 1.495 . S
C3702 C3701 1.392 . S
C3702 C3703 1.385 . S
C3702 C3704 1.478 . S
C3703 H3697 0.930 . S
C3703 C3699 1.400 . S
C3703 C3702 1.385 . S
C3704 C3702 1.478 . S
C3704 C3706 1.381 . S
C3704 C3710 1.383 . S
C3705 C3701 1.495 . S
C3705 H3711 0.959 . S
C3705 H3712 0.961 . S
C3705 H3713 0.960 . S
C3706 C3704 1.381 . S
C3706 C3707 1.394 . S
C3706 H3714 0.930 . S
C3707 C3706 1.394 . S
C3707 C3708 1.383 . S
C3707 H3715 0.929 . S
C3708 C3707 1.383 . S
C3708 C3709 1.377 . S
C3709 H3693 0.930 . S
C3709 C3708 1.377 . S
C3709 C3710 1.379 . S
C3710 H3694 0.931 . S
C3710 C3704 1.383 . S
C3710 C3709 1.379 . S
H3711 C3705 0.959 . S
H3712 C3705 0.961 . S
H3713 C3705 0.960 . S
H3714 C3706 0.930 . S
H3715 C3707 0.929 . S
H3716 C3724 0.929 . S
H3717 C3726 0.930 . S
H3718 C3728 0.930 . S
H3719 C3731 0.929 . S
H3720 C3734 0.930 . S
H3721 C3736 0.960 . S
H3722 C3736 0.960 . S
H3723 C3736 0.960 . S
C3724 H3716 0.929 . S
C3724 C3725 1.377 . S
C3724 C3726 1.384 . S
C3725 C3724 1.377 . S
C3725 C3731 1.390 . S
C3726 H3717 0.930 . S
C3726 C3724 1.384 . S
C3726 C3727 1.372 . S
C3727 C3726 1.372 . S
C3727 C3728 1.400 . S
C3727 C3732 1.490 . S
C3728 H3718 0.930 . S
C3728 C3727 1.400 . S
C3728 C3731 1.386 . S
H3729 C3745 0.930 . S
H3730 C3746 0.931 . S
C3731 H3719 0.929 . S
C3731 C3725 1.390 . S
C3731 C3728 1.386 . S
C3732 C3727 1.490 . S
C3732 C3734 1.395 . S
C3732 C3735 1.403 . S
H3733 C3739 0.930 . S
C3734 H3720 0.930 . S
C3734 C3732 1.395 . S
C3734 C3737 1.403 . S
C3735 C3732 1.403 . S
C3735 C3736 1.524 . S
C3735 C3739 1.400 . S
C3736 H3721 0.960 . S
C3736 H3722 0.960 . S
C3736 H3723 0.960 . S
C3736 C3735 1.524 . S
C3737 C3734 1.403 . S
C3737 C3738 1.392 . S
C3737 C3741 1.495 . S
C3738 C3737 1.392 . S
C3738 C3739 1.385 . S
C3738 C3740 1.478 . S
C3739 H3733 0.930 . S
C3739 C3735 1.400 . S
C3739 C3738 1.385 . S
C3740 C3738 1.478 . S
C3740 C3742 1.381 . S
C3740 C3746 1.383 . S
C3741 C3737 1.495 . S
C3741 H3747 0.959 . S
C3741 H3748 0.961 . S
C3741 H3749 0.960 . S
C3742 C3740 1.381 . S
C3742 C3743 1.394 . S
C3742 H3750 0.930 . S
C3743 C3742 1.394 . S
C3743 C3744 1.383 . S
C3743 H3751 0.929 . S
C3744 C3743 1.383 . S
C3744 C3745 1.377 . S
C3745 H3729 0.930 . S
C3745 C3744 1.377 . S
C3745 C3746 1.379 . S
C3746 H3730 0.931 . S
C3746 C3740 1.383 . S
C3746 C3745 1.379 . S
H3747 C3741 0.959 . S
H3748 C3741 0.961 . S
H3749 C3741 0.960 . S
H3750 C3742 0.930 . S
H3751 C3743 0.929 . S
H3752 C3760 0.929 . S
H3753 C3762 0.930 . S
H3754 C3764 0.930 . S
H3755 C3767 0.929 . S
H3756 C3770 0.930 . S
H3757 C3772 0.960 . S
H3758 C3772 0.960 . S
H3759 C3772 0.960 . S
C3760 H3752 0.929 . S
C3760 C3761 1.377 . S
C3760 C3762 1.384 . S
C3761 C3760 1.377 . S
C3761 C3767 1.390 . S
C3762 H3753 0.930 . S
C3762 C3760 1.384 . S
C3762 C3763 1.372 . S
C3763 C3762 1.372 . S
C3763 C3764 1.400 . S
C3763 C3768 1.490 . S
C3764 H3754 0.930 . S
C3764 C3763 1.400 . S
C3764 C3767 1.386 . S
H3765 C3781 0.930 . S
H3766 C3782 0.931 . S
C3767 H3755 0.929 . S
C3767 C3761 1.390 . S
C3767 C3764 1.386 . S
C3768 C3763 1.490 . S
C3768 C3770 1.395 . S
C3768 C3771 1.403 . S
H3769 C3775 0.930 . S
C3770 H3756 0.930 . S
C3770 C3768 1.395 . S
C3770 C3773 1.403 . S
C3771 C3768 1.403 . S
C3771 C3772 1.524 . S
C3771 C3775 1.400 . S
C3772 H3757 0.960 . S
C3772 H3758 0.960 . S
C3772 H3759 0.960 . S
C3772 C3771 1.524 . S
C3773 C3770 1.403 . S
C3773 C3774 1.392 . S
C3773 C3777 1.495 . S
C3774 C3773 1.392 . S
C3774 C3775 1.385 . S
C3774 C3776 1.478 . S
C3775 H3769 0.930 . S
C3775 C3771 1.400 . S
C3775 C3774 1.385 . S
C3776 C3774 1.478 . S
C3776 C3778 1.381 . S
C3776 C3782 1.383 . S
C3777 C3773 1.495 . S
C3777 H3783 0.959 . S
C3777 H3784 0.961 . S
C3777 H3785 0.960 . S
C3778 C3776 1.381 . S
C3778 C3779 1.394 . S
C3778 H3786 0.930 . S
C3779 C3778 1.394 . S
C3779 C3780 1.383 . S
C3779 H3787 0.929 . S
C3780 C3779 1.383 . S
C3780 C3781 1.377 . S
C3781 H3765 0.930 . S
C3781 C3780 1.377 . S
C3781 C3782 1.379 . S
C3782 H3766 0.931 . S
C3782 C3776 1.383 . S
C3782 C3781 1.379 . S
H3783 C3777 0.959 . S
H3784 C3777 0.961 . S
H3785 C3777 0.960 . S
H3786 C3778 0.930 . S
H3787 C3779 0.929 . S
H3788 C3796 0.929 . S
H3789 C3798 0.930 . S
H3790 C3800 0.930 . S
H3791 C3803 0.929 . S
H3792 C3806 0.930 . S
H3793 C3808 0.960 . S
H3794 C3808 0.960 . S
H3795 C3808 0.960 . S
C3796 H3788 0.929 . S
C3796 C3797 1.377 . S
C3796 C3798 1.384 . S
C3797 C3796 1.377 . S
C3797 C3803 1.390 . S
C3798 H3789 0.930 . S
C3798 C3796 1.384 . S
C3798 C3799 1.372 . S
C3799 C3798 1.372 . S
C3799 C3800 1.400 . S
C3799 C3804 1.490 . S
C3800 H3790 0.930 . S
C3800 C3799 1.400 . S
C3800 C3803 1.386 . S
H3801 C3817 0.930 . S
H3802 C3818 0.931 . S
C3803 H3791 0.929 . S
C3803 C3797 1.390 . S
C3803 C3800 1.386 . S
C3804 C3799 1.490 . S
C3804 C3806 1.395 . S
C3804 C3807 1.403 . S
H3805 C3811 0.930 . S
C3806 H3792 0.930 . S
C3806 C3804 1.395 . S
C3806 C3809 1.403 . S
C3807 C3804 1.403 . S
C3807 C3808 1.524 . S
C3807 C3811 1.400 . S
C3808 H3793 0.960 . S
C3808 H3794 0.960 . S
C3808 H3795 0.960 . S
C3808 C3807 1.524 . S
C3809 C3806 1.403 . S
C3809 C3810 1.392 . S
C3809 C3813 1.495 . S
C3810 C3809 1.392 . S
C3810 C3811 1.385 . S
C3810 C3812 1.478 . S
C3811 H3805 0.930 . S
C3811 C3807 1.400 . S
C3811 C3810 1.385 . S
C3812 C3810 1.478 . S
C3812 C3814 1.381 . S
C3812 C3818 1.383 . S
C3813 C3809 1.495 . S
C3813 H3819 0.959 . S
C3813 H3820 0.961 . S
C3813 H3821 0.960 . S
C3814 C3812 1.381 . S
C3814 C3815 1.394 . S
C3814 H3822 0.930 . S
C3815 C3814 1.394 . S
C3815 C3816 1.383 . S
C3815 H3823 0.929 . S
C3816 C3815 1.383 . S
C3816 C3817 1.377 . S
C3817 H3801 0.930 . S
C3817 C3816 1.377 . S
C3817 C3818 1.379 . S
C3818 H3802 0.931 . S
C3818 C3812 1.383 . S
C3818 C3817 1.379 . S
H3819 C3813 0.959 . S
H3820 C3813 0.961 . S
H3821 C3813 0.960 . S
H3822 C3814 0.930 . S
H3823 C3815 0.929 . S
H3824 C3832 0.929 . S
H3825 C3834 0.930 . S
H3826 C3836 0.930 . S
H3827 C3839 0.929 . S
H3828 C3842 0.930 . S
H3829 C3844 0.960 . S
H3830 C3844 0.960 . S
H3831 C3844 0.960 . S
C3832 H3824 0.929 . S
C3832 C3833 1.377 . S
C3832 C3834 1.384 . S
C3833 C3832 1.377 . S
C3833 C3839 1.390 . S
C3834 H3825 0.930 . S
C3834 C3832 1.384 . S
C3834 C3835 1.372 . S
C3835 C3834 1.372 . S
C3835 C3836 1.400 . S
C3835 C3840 1.490 . S
C3836 H3826 0.930 . S
C3836 C3835 1.400 . S
C3836 C3839 1.386 . S
H3837 C3853 0.930 . S
H3838 C3854 0.931 . S
C3839 H3827 0.929 . S
C3839 C3833 1.390 . S
C3839 C3836 1.386 . S
C3840 C3835 1.490 . S
C3840 C3842 1.395 . S
C3840 C3843 1.403 . S
H3841 C3847 0.930 . S
C3842 H3828 0.930 . S
C3842 C3840 1.395 . S
C3842 C3845 1.403 . S
C3843 C3840 1.403 . S
C3843 C3844 1.524 . S
C3843 C3847 1.400 . S
C3844 H3829 0.960 . S
C3844 H3830 0.960 . S
C3844 H3831 0.960 . S
C3844 C3843 1.524 . S
C3845 C3842 1.403 . S
C3845 C3846 1.392 . S
C3845 C3849 1.495 . S
C3846 C3845 1.392 . S
C3846 C3847 1.385 . S
C3846 C3848 1.478 . S
C3847 H3841 0.930 . S
C3847 C3843 1.400 . S
C3847 C3846 1.385 . S
C3848 C3846 1.478 . S
C3848 C3850 1.381 . S
C3848 C3854 1.383 . S
C3849 C3845 1.495 . S
C3849 H3855 0.959 . S
C3849 H3856 0.961 . S
C3849 H3857 0.960 . S
C3850 C3848 1.381 . S
C3850 C3851 1.394 . S
C3850 H3858 0.930 . S
C3851 C3850 1.394 . S
C3851 C3852 1.383 . S
C3851 H3859 0.929 . S
C3852 C3851 1.383 . S
C3852 C3853 1.377 . S
C3853 H3837 0.930 . S
C3853 C3852 1.377 . S
C3853 C3854 1.379 . S
C3854 H3838 0.931 . S
C3854 C3848 1.383 . S
C3854 C3853 1.379 . S
H3855 C3849 0.959 . S
H3856 C3849 0.961 . S
H3857 C3849 0.960 . S
H3858 C3850 0.930 . S
H3859 C3851 0.929 . S
H3860 C3868 0.929 . S
H3861 C3870 0.930 . S
H3862 C3872 0.930 . S
H3863 C3875 0.929 . S
H3864 C3878 0.930 . S
H3865 C3880 0.960 1_545 S
H3866 C3880 0.960 . S
H3867 C3880 0.960 . S
C3868 H3860 0.929 . S
C3868 C3869 1.377 . S
C3868 C3870 1.384 . S
C3869 C3868 1.377 . S
C3869 C3875 1.390 . S
C3870 H3861 0.930 . S
C3870 C3868 1.384 . S
C3870 C3871 1.372 . S
C3871 C3870 1.372 . S
C3871 C3872 1.400 . S
C3871 C3876 1.490 . S
C3872 H3862 0.930 . S
C3872 C3871 1.400 . S
C3872 C3875 1.386 . S
H3873 C3889 0.930 . S
H3874 C3890 0.937 . S
C3875 H3863 0.929 . S
C3875 C3869 1.390 . S
C3875 C3872 1.386 . S
C3876 C3871 1.490 . S
C3876 C3878 1.395 . S
C3876 C3879 1.403 . S
H3877 C3883 0.930 . S
C3878 H3864 0.930 . S
C3878 C3876 1.395 . S
C3878 C3881 1.403 . S
C3879 C3876 1.403 . S
C3879 C3880 1.524 . S
C3879 C3883 1.400 . S
C3880 H3865 0.960 1_565 S
C3880 H3866 0.960 . S
C3880 H3867 0.960 . S
C3880 C3879 1.524 . S
C3881 C3878 1.403 . S
C3881 C3882 1.392 . S
C3881 C3885 1.495 . S
C3882 C3881 1.392 . S
C3882 C3883 1.385 . S
C3882 C3884 1.478 . S
C3883 H3877 0.930 . S
C3883 C3879 1.400 . S
C3883 C3882 1.385 . S
C3884 C3882 1.478 . S
C3884 C3886 1.381 . S
C3884 C3890 1.383 . S
C3885 C3881 1.495 . S
C3885 H3891 0.959 . S
C3885 H3892 0.961 . S
C3885 H3893 0.960 . S
C3886 C3884 1.381 . S
C3886 C3887 1.394 . S
C3886 H3894 0.930 . S
C3887 C3886 1.394 . S
C3887 C3888 1.383 1_565 S
C3887 H3895 0.929 . S
C3888 C3887 1.383 1_545 S
C3888 C3889 1.377 . S
C3889 H3873 0.930 . S
C3889 C3888 1.377 . S
C3889 C3890 1.379 1_545 S
C3890 H3874 0.937 . S
C3890 C3884 1.383 . S
C3890 C3889 1.379 1_565 S
H3891 C3885 0.959 . S
H3892 C3885 0.961 . S
H3893 C3885 0.960 . S
H3894 C3886 0.930 . S
H3895 C3887 0.929 . S
H3896 C3904 0.929 . S
H3897 C3906 0.930 . S
H3898 C3908 0.930 . S
H3899 C3911 0.929 . S
H3900 C3914 0.930 . S
H3901 C3916 0.960 . S
H3902 C3916 0.960 . S
H3903 C3916 0.960 . S
C3904 H3896 0.929 . S
C3904 C3905 1.377 . S
C3904 C3906 1.384 . S
C3905 C3904 1.377 . S
C3905 C3911 1.390 . S
C3906 H3897 0.930 . S
C3906 C3904 1.384 . S
C3906 C3907 1.372 . S
C3907 C3906 1.372 . S
C3907 C3908 1.400 . S
C3907 C3912 1.490 . S
C3908 H3898 0.930 . S
C3908 C3907 1.400 . S
C3908 C3911 1.386 . S
H3909 C3925 0.930 . S
H3910 C3926 0.931 . S
C3911 H3899 0.929 . S
C3911 C3905 1.390 . S
C3911 C3908 1.386 . S
C3912 C3907 1.490 . S
C3912 C3914 1.395 . S
C3912 C3915 1.403 . S
H3913 C3919 0.930 . S
C3914 H3900 0.930 . S
C3914 C3912 1.395 . S
C3914 C3917 1.403 . S
C3915 C3912 1.403 . S
C3915 C3916 1.524 . S
C3915 C3919 1.400 . S
C3916 H3901 0.960 . S
C3916 H3902 0.960 . S
C3916 H3903 0.960 . S
C3916 C3915 1.524 . S
C3917 C3914 1.403 . S
C3917 C3918 1.392 . S
C3917 C3921 1.495 . S
C3918 C3917 1.392 . S
C3918 C3919 1.385 . S
C3918 C3920 1.478 . S
C3919 H3913 0.930 . S
C3919 C3915 1.400 . S
C3919 C3918 1.385 . S
C3920 C3918 1.478 . S
C3920 C3922 1.381 . S
C3920 C3926 1.383 . S
C3921 C3917 1.495 . S
C3921 H3927 0.959 . S
C3921 H3928 0.961 . S
C3921 H3929 0.960 . S
C3922 C3920 1.381 . S
C3922 C3923 1.394 . S
C3922 H3930 0.930 . S
C3923 C3922 1.394 . S
C3923 C3924 1.383 . S
C3923 H3931 0.929 . S
C3924 C3923 1.383 . S
C3924 C3925 1.377 . S
C3925 H3909 0.930 . S
C3925 C3924 1.377 . S
C3925 C3926 1.379 . S
C3926 H3910 0.931 . S
C3926 C3920 1.383 . S
C3926 C3925 1.379 . S
H3927 C3921 0.959 . S
H3928 C3921 0.961 . S
H3929 C3921 0.960 . S
H3930 C3922 0.930 . S
H3931 C3923 0.929 . S
H3932 C3940 0.929 . S
H3933 C3942 0.930 . S
H3934 C3944 0.930 . S
H3935 C3947 0.929 . S
H3936 C3950 0.930 . S
H3937 C3952 0.960 . S
H3938 C3952 0.960 . S
H3939 C3952 0.960 1_554 S
C3940 H3932 0.929 . S
C3940 C3941 1.411 . S
C3940 C3942 1.384 . S
C3941 C3940 1.411 . S
C3941 C3947 1.347 1_556 S
C3942 H3933 0.930 . S
C3942 C3940 1.384 . S
C3942 C3943 1.350 1_556 S
C3943 C3942 1.350 1_554 S
C3943 C3944 1.417 . S
C3943 C3948 1.496 . S
C3944 H3934 0.930 . S
C3944 C3943 1.417 . S
C3944 C3947 1.386 . S
H3945 C3961 0.930 . S
H3946 C3962 0.931 . S
C3947 H3935 0.929 . S
C3947 C3941 1.347 1_554 S
C3947 C3944 1.386 . S
C3948 C3943 1.496 . S
C3948 C3950 1.395 . S
C3948 C3951 1.405 . S
H3949 C3955 0.930 . S
C3950 H3936 0.930 . S
C3950 C3948 1.395 . S
C3950 C3953 1.403 . S
C3951 C3948 1.405 . S
C3951 C3952 1.513 1_554 S
C3951 C3955 1.410 . S
C3952 H3937 0.960 . S
C3952 H3938 0.960 . S
C3952 H3939 0.960 1_556 S
C3952 C3951 1.513 1_556 S
C3953 C3950 1.403 . S
C3953 C3954 1.392 . S
C3953 C3957 1.495 . S
C3954 C3953 1.392 . S
C3954 C3955 1.385 . S
C3954 C3956 1.478 . S
C3955 H3949 0.930 . S
C3955 C3951 1.410 . S
C3955 C3954 1.385 . S
C3956 C3954 1.478 . S
C3956 C3958 1.381 1_554 S
C3956 C3962 1.383 . S
C3957 C3953 1.495 . S
C3957 H3963 0.959 . S
C3957 H3964 0.961 . S
C3957 H3965 0.960 1_554 S
C3958 C3956 1.381 1_556 S
C3958 C3959 1.394 . S
C3958 H3966 0.930 . S
C3959 C3958 1.394 . S
C3959 C3960 1.383 1_556 S
C3959 H3967 0.929 . S
C3960 C3959 1.383 1_554 S
C3960 C3961 1.377 . S
C3961 H3945 0.930 . S
C3961 C3960 1.377 . S
C3961 C3962 1.379 . S
C3962 H3946 0.931 . S
C3962 C3956 1.383 . S
C3962 C3961 1.379 . S
H3963 C3957 0.959 . S
H3964 C3957 0.961 . S
H3965 C3957 0.960 1_556 S
H3966 C3958 0.930 . S
H3967 C3959 0.929 . S
H3968 C3976 0.929 . S
H3969 C3978 0.930 . S
H3970 C3980 0.930 . S
H3971 C3983 0.929 . S
H3972 C3986 0.930 . S
H3973 C3988 0.960 . S
H3974 C3988 0.960 . S
H3975 C3988 0.960 . S
C3976 H3968 0.929 . S
C3976 C3977 1.377 . S
C3976 C3978 1.384 . S
C3977 C3976 1.377 . S
C3977 C3983 1.390 . S
C3978 H3969 0.930 . S
C3978 C3976 1.384 . S
C3978 C3979 1.372 . S
C3979 C3978 1.372 . S
C3979 C3980 1.400 . S
C3979 C3984 1.490 . S
C3980 H3970 0.930 . S
C3980 C3979 1.400 . S
C3980 C3983 1.386 . S
H3981 C3997 0.930 . S
H3982 C3998 0.931 . S
C3983 H3971 0.929 . S
C3983 C3977 1.390 . S
C3983 C3980 1.386 . S
C3984 C3979 1.490 . S
C3984 C3986 1.395 . S
C3984 C3987 1.403 . S
H3985 C3991 0.930 . S
C3986 H3972 0.930 . S
C3986 C3984 1.395 . S
C3986 C3989 1.403 . S
C3987 C3984 1.403 . S
C3987 C3988 1.524 . S
C3987 C3991 1.400 . S
C3988 H3973 0.960 . S
C3988 H3974 0.960 . S
C3988 H3975 0.960 . S
C3988 C3987 1.524 . S
C3989 C3986 1.403 . S
C3989 C3990 1.392 . S
C3989 C3993 1.495 . S
C3990 C3989 1.392 . S
C3990 C3991 1.385 . S
C3990 C3992 1.478 . S
C3991 H3985 0.930 . S
C3991 C3987 1.400 . S
C3991 C3990 1.385 . S
C3992 C3990 1.478 . S
C3992 C3994 1.381 . S
C3992 C3998 1.383 . S
C3993 C3989 1.495 . S
C3993 H3999 0.959 . S
C3993 H4000 0.961 . S
C3993 H4001 0.960 . S
C3994 C3992 1.381 . S
C3994 C3995 1.394 . S
C3994 H4002 0.930 . S
C3995 C3994 1.394 . S
C3995 C3996 1.383 . S
C3995 H4003 0.929 . S
C3996 C3995 1.383 . S
C3996 C3997 1.377 . S
C3997 H3981 0.930 . S
C3997 C3996 1.377 . S
C3997 C3998 1.379 . S
C3998 H3982 0.931 . S
C3998 C3992 1.383 . S
C3998 C3997 1.379 . S
H3999 C3993 0.959 . S
H4000 C3993 0.961 . S
H4001 C3993 0.960 . S
H4002 C3994 0.930 . S
H4003 C3995 0.929 . S
H4004 C4012 0.931 1_556 S
H4005 C4014 0.930 1_556 S
H4006 C4016 0.930 . S
H4007 C4019 0.929 . S
H4008 C4022 0.930 . S
H4009 C4024 0.960 . S
H4010 C4024 0.960 . S
H4011 C4024 0.960 . S
C4012 H4004 0.931 1_554 S
C4012 C4013 1.377 . S
C4012 C4014 1.384 . S
C4013 C4012 1.377 . S
C4013 C4019 1.390 . S
C4014 H4005 0.930 1_554 S
C4014 C4012 1.384 . S
C4014 C4015 1.372 . S
C4015 C4014 1.372 . S
C4015 C4016 1.400 . S
C4015 C4020 1.490 . S
C4016 H4006 0.930 . S
C4016 C4015 1.400 . S
C4016 C4019 1.386 . S
H4017 C4033 0.930 . S
H4018 C4034 0.931 . S
C4019 H4007 0.929 . S
C4019 C4013 1.390 . S
C4019 C4016 1.386 . S
C4020 C4015 1.490 . S
C4020 C4022 1.395 1_554 S
C4020 C4023 1.403 . S
H4021 C4027 0.930 . S
C4022 H4008 0.930 . S
C4022 C4020 1.395 1_556 S
C4022 C4025 1.403 . S
C4023 C4020 1.403 . S
C4023 C4024 1.524 . S
C4023 C4027 1.400 . S
C4024 H4009 0.960 . S
C4024 H4010 0.960 . S
C4024 H4011 0.960 . S
C4024 C4023 1.524 . S
C4025 C4022 1.403 . S
C4025 C4026 1.392 1_556 S
C4025 C4029 1.495 . S
C4026 C4025 1.392 1_554 S
C4026 C4027 1.385 . S
C4026 C4028 1.478 1_554 S
C4027 H4021 0.930 . S
C4027 C4023 1.400 . S
C4027 C4026 1.385 . S
C4028 C4026 1.478 1_556 S
C4028 C4030 1.381 . S
C4028 C4034 1.383 1_556 S
C4029 C4025 1.495 . S
C4029 H4035 0.959 . S
C4029 H4036 0.961 . S
C4029 H4037 0.960 . S
C4030 C4028 1.381 . S
C4030 C4031 1.394 . S
C4030 H4038 0.930 . S
C4031 C4030 1.394 . S
C4031 C4032 1.383 . S
C4031 H4039 0.929 . S
C4032 C4031 1.383 . S
C4032 C4033 1.377 1_556 S
C4033 H4017 0.930 . S
C4033 C4032 1.377 1_554 S
C4033 C4034 1.379 . S
C4034 H4018 0.931 . S
C4034 C4028 1.383 1_554 S
C4034 C4033 1.379 . S
H4035 C4029 0.959 . S
H4036 C4029 0.961 . S
H4037 C4029 0.960 . S
H4038 C4030 0.930 . S
H4039 C4031 0.929 . S
H4040 C4048 0.929 1_545 S
H4041 C4050 0.930 . S
H4042 C4052 0.930 . S
H4043 C4055 0.929 . S
H4044 C4058 0.930 . S
H4045 C4060 0.960 . S
H4046 C4060 0.960 . S
H4047 C4060 0.960 . S
C4048 H4040 0.929 1_565 S
C4048 C4049 1.377 1_565 S
C4048 C4050 1.384 . S
C4049 C4048 1.377 1_545 S
C4049 C4055 1.390 1_545 S
C4050 H4041 0.930 . S
C4050 C4048 1.384 . S
C4050 C4051 1.372 . S
C4051 C4050 1.372 . S
C4051 C4052 1.400 . S
C4051 C4056 1.490 . S
C4052 H4042 0.930 . S
C4052 C4051 1.400 . S
C4052 C4055 1.386 . S
H4053 C4069 0.930 . S
H4054 C4070 0.931 . S
C4055 H4043 0.929 . S
C4055 C4049 1.390 1_565 S
C4055 C4052 1.386 . S
C4056 C4051 1.490 . S
C4056 C4058 1.395 . S
C4056 C4059 1.403 . S
H4057 C4063 0.930 . S
C4058 H4044 0.930 . S
C4058 C4056 1.395 . S
C4058 C4061 1.403 . S
C4059 C4056 1.403 . S
C4059 C4060 1.524 . S
C4059 C4063 1.400 . S
C4060 H4045 0.960 . S
C4060 H4046 0.960 . S
C4060 H4047 0.960 . S
C4060 C4059 1.524 . S
C4061 C4058 1.403 . S
C4061 C4062 1.392 . S
C4061 C4065 1.495 . S
C4062 C4061 1.392 . S
C4062 C4063 1.385 . S
C4062 C4064 1.478 . S
C4063 H4057 0.930 . S
C4063 C4059 1.400 . S
C4063 C4062 1.385 . S
C4064 C4062 1.478 . S
C4064 C4066 1.381 . S
C4064 C4070 1.383 . S
C4065 C4061 1.495 . S
C4065 H4071 0.959 . S
C4065 H4072 0.961 . S
C4065 H4073 0.960 . S
C4066 C4064 1.381 . S
C4066 C4067 1.394 . S
C4066 H4074 0.930 . S
C4067 C4066 1.394 . S
C4067 C4068 1.383 . S
C4067 H4075 0.929 . S
C4068 C4067 1.383 . S
C4068 C4069 1.377 . S
C4069 H4053 0.930 . S
C4069 C4068 1.377 . S
C4069 C4070 1.379 . S
C4070 H4054 0.931 . S
C4070 C4064 1.383 . S
C4070 C4069 1.379 . S
H4071 C4065 0.959 . S
H4072 C4065 0.961 . S
H4073 C4065 0.960 . S
H4074 C4066 0.930 . S
H4075 C4067 0.929 . S
H4076 C4084 0.929 . S
H4077 C4086 0.930 . S
H4078 C4088 0.930 . S
H4079 C4091 0.929 . S
H4080 C4094 0.930 . S
H4081 C4096 0.960 . S
H4082 C4096 0.960 . S
H4083 C4096 0.960 . S
C4084 H4076 0.929 . S
C4084 C4085 1.377 . S
C4084 C4086 1.384 . S
C4085 C4084 1.377 . S
C4085 C4091 1.390 . S
C4086 H4077 0.930 . S
C4086 C4084 1.384 . S
C4086 C4087 1.372 . S
C4087 C4086 1.372 . S
C4087 C4088 1.400 . S
C4087 C4092 1.490 . S
C4088 H4078 0.930 . S
C4088 C4087 1.400 . S
C4088 C4091 1.386 . S
H4089 C4105 0.930 . S
H4090 C4106 0.931 . S
C4091 H4079 0.929 . S
C4091 C4085 1.390 . S
C4091 C4088 1.386 . S
C4092 C4087 1.490 . S
C4092 C4094 1.395 . S
C4092 C4095 1.403 . S
H4093 C4099 0.930 . S
C4094 H4080 0.930 . S
C4094 C4092 1.395 . S
C4094 C4097 1.403 . S
C4095 C4092 1.403 . S
C4095 C4096 1.524 . S
C4095 C4099 1.400 . S
C4096 H4081 0.960 . S
C4096 H4082 0.960 . S
C4096 H4083 0.960 . S
C4096 C4095 1.524 . S
C4097 C4094 1.403 . S
C4097 C4098 1.392 . S
C4097 C4101 1.495 . S
C4098 C4097 1.392 . S
C4098 C4099 1.385 . S
C4098 C4100 1.478 . S
C4099 H4093 0.930 . S
C4099 C4095 1.400 . S
C4099 C4098 1.385 . S
C4100 C4098 1.478 . S
C4100 C4102 1.381 . S
C4100 C4106 1.383 . S
C4101 C4097 1.495 . S
C4101 H4107 0.959 . S
C4101 H4108 0.961 . S
C4101 H4109 0.960 . S
C4102 C4100 1.381 . S
C4102 C4103 1.394 . S
C4102 H4110 0.930 . S
C4103 C4102 1.394 . S
C4103 C4104 1.383 . S
C4103 H4111 0.929 . S
C4104 C4103 1.383 . S
C4104 C4105 1.377 . S
C4105 H4089 0.930 . S
C4105 C4104 1.377 . S
C4105 C4106 1.379 . S
C4106 H4090 0.931 . S
C4106 C4100 1.383 . S
C4106 C4105 1.379 . S
H4107 C4101 0.959 . S
H4108 C4101 0.961 . S
H4109 C4101 0.960 . S
H4110 C4102 0.930 . S
H4111 C4103 0.929 . S
C665 C109 1.035 . S
C684 C352 1.039 . S
C701 C61 0.987 . S
C720 C365 1.094 . S
C737 C74 1.181 . S
C756 C384 1.176 . S
C792 C415 1.937 . S
C773 C96 2.010 . S
C809 C25 1.661 1_455 S
C828 C435 1.654 . S
C864 C452 0.681 . S
C845 C40 0.650 . S
C900 C465 1.465 . S
C881 C46 1.472 . S
C917 C5 0.801 . S
C936 C492 0.809 . S
C972 C345 0.961 . S
C953 C229 0.882 . S
C989 C249 1.308 . S
C1008 C375 1.269 . S
C1044 C377 1.560 . S
C1025 C271 1.400 . S
C1080 C412 0.792 . S
C1061 C172 0.819 . S
C1097 C236 0.979 . S
C1116 C432 0.961 . S
C1152 C445 1.918 . S
C1133 C242 1.938 . S
C1188 C475 1.082 . S
C1169 C278 1.078 . S
C1224 C485 1.143 . S
C1205 C179 1.174 . S
C1260 C355 1.498 . S
C1241 C159 1.306 . S
C1277 C285 1.553 1_554 S
C1296 C505 1.749 . S
C1332 C535 1.416 . S
C1313 C333 1.424 . S
C1368 C552 1.020 . S
C1349 C320 1.052 . S
C1385 C123 1.858 . S
C1404 C495 1.849 . S
C1421 C138 1.177 . S
C1440 C382 1.170 . S
C1457 C326 1.993 . S
C1476 C565 1.991 . S
C1512 C592 0.857 . S
C1493 C298 0.809 . S
C1548 C342 1.027 . S
C1529 C67 1.013 . S
C1584 C577 1.099 . S
C1565 C110 1.092 . S
C1601 C88 1.209 . S
C1620 C395 1.201 . S
C1637 C75 1.607 . S
C1656 C564 1.865 . S
C1692 C424 1.589 . S
C1673 C11 1.607 . S
C1709 C47 0.686 . S
C1728 C522 0.673 . S
C1764 C457 1.408 1_556 S
C1745 C32 1.365 . S
C1800 C602 0.824 . S
C1781 C26 0.840 . S
C1836 C337 1.017 . S
C1817 C152 1.060 . S
C1872 C584 1.296 . S
C1853 C319 1.288 . S
C1889 C124 1.561 . S
C1908 C385 1.520 . S
C1925 C284 0.825 . S
C1944 C562 0.830 . S
C1961 C145 0.874 . S
C1980 C422 0.908 . S
C2016 C517 1.830 . S
C1997 C312 1.773 . S
C2033 C117 0.850 . S
C2052 C464 0.867 . S
C2069 C291 1.074 . S
C2088 C597 1.079 . S
C2105 C194 1.554 . S
C2124 C344 1.496 . S
C2141 C180 1.746 . S
C2160 C497 1.731 . S
C2177 C263 1.280 . S
C2196 C444 1.306 . S
C2213 C243 0.900 . S
C2232 C542 0.947 . S
C2268 C604 1.840 . S
C2249 C277 1.881 . S
C2285 C215 0.979 . S
C2304 C392 1.074 . S
C2340 C397 1.897 . S
C2321 C256 1.848 . S
C2376 C362 0.893 . S
C2357 C200 0.880 . S
C2393 C81 1.034 . S
C2412 C632 1.030 . S
C2448 C585 1.099 . S
C2429 C89 0.988 . S
C2465 C102 1.172 . S
C2484 C644 1.216 1_455 S
C2501 C68 2.009 . S
C2520 C575 1.944 . S
C2537 C53 1.665 . S
C2556 C515 1.620 . S
C2592 C532 0.687 . S
C2573 C12 0.651 . S
C2628 C545 1.481 1_655 S
C2609 C18 1.476 . S
C2664 C612 0.813 . S
C2645 C33 0.799 . S
C2700 C625 0.947 . S
C2681 C257 0.875 . S
C2717 C193 1.308 . S
C2736 C595 1.262 . S
C2772 C637 1.560 . S
C2753 C201 1.400 . S
C2808 C572 0.831 . S
C2789 C214 0.814 . S
C2844 C512 0.954 . S
C2825 C264 0.981 . S
C2861 C186 1.938 . S
C2880 C525 1.919 . S
C2916 C555 1.021 . S
C2897 C208 1.077 . S
C2933 C221 1.167 . S
C2952 C605 1.168 . S
C2988 C635 1.516 . S
C2969 C313 1.324 . S
C3005 C131 1.556 . S
C3024 C425 1.754 . S
C3060 C455 1.423 . S
C3041 C151 1.428 . S
C3096 C472 1.054 . S
C3077 C166 1.052 . S
C3132 C615 1.845 . S
C3113 C305 1.858 . S
C3149 C292 1.176 . S
C3168 C642 1.139 . S
C3204 C405 1.979 . S
C3185 C144 1.985 . S
C3240 C372 0.815 . S
C3221 C116 0.822 . S
C3257 C95 1.018 . S
C3276 C622 1.037 . S
C3312 C357 1.073 . S
C3293 C82 1.090 . S
C3329 C60 1.205 . S
C3348 C655 1.163 . S
C3365 C103 1.605 . S
C3384 C404 1.851 . S
C3401 C39 1.609 . S
C3420 C504 1.566 1_556 S
C3456 C442 0.659 . S
C3437 C19 0.681 . S
C3473 C4 1.361 . S
C3492 C537 1.413 . S
C3509 C54 0.842 . S
C3528 C482 0.794 . S
C3564 C617 1.057 . S
C3545 C334 1.060 . S
C3581 C165 1.298 . S
C3600 C364 1.260 . S
C3636 C645 1.541 . S
C3617 C306 1.559 . S
C3653 C130 0.832 . S
C3672 C402 0.825 . S
C3689 C327 0.870 . S
C3708 C502 0.929 . S
C3744 C437 1.817 . S
C3725 C158 1.771 1_556 S
C3761 C299 0.849 . S
C3780 C544 0.935 . S
C3816 C477 1.061 . S
C3797 C137 1.068 . S
C3852 C624 1.535 . S
C3833 C250 1.554 . S
C3888 C417 1.722 . S
C3869 C222 1.745 . S
C3905 C235 1.287 . S
C3924 C524 1.263 . S
C3960 C462 0.960 . S
C3941 C187 0.922 . S
C3977 C207 1.877 . S
C3996 C484 1.869 . S
C4013 C173 0.974 . S
C4032 C652 1.121 1_556 S
C4068 C557 1.875 . S
C4049 C228 1.844 . S
C4104 C582 0.839 . S
C4085 C270 0.876 . S
