# Generated by pormake.
# Topology pth, (4,4)-cn, num edge types: 1
# Building blocks:
#     Node 0, Type 0, BuildingBlock: CEKHIL_clean_sbu_0, # of connection points: 4
#     Node 1, Type 0, BuildingBlock: CEKHIL_clean_sbu_0, # of connection points: 4
#     Node 2, Type 0, BuildingBlock: CEKHIL_clean_sbu_0, # of connection points: 4
#     Node 3, Type 1, BuildingBlock: MUDLON_clean_sbu_0, # of connection points: 4
#     Node 4, Type 1, BuildingBlock: MUDLON_clean_sbu_0, # of connection points: 4
#     Node 5, Type 1, BuildingBlock: MUDLON_clean_sbu_0, # of connection points: 4
#     Edge 6, Type (0, 1), BuildingBlock: CIFDUS_clean_linker_0, # of connection points: 2
#     Edge 7, Type (0, 1), BuildingBlock: CIFDUS_clean_linker_0, # of connection points: 2
#     Edge 8, Type (0, 1), BuildingBlock: CIFDUS_clean_linker_0, # of connection points: 2
#     Edge 9, Type (0, 1), BuildingBlock: CIFDUS_clean_linker_0, # of connection points: 2
#     Edge 10, Type (0, 1), BuildingBlock: CIFDUS_clean_linker_0, # of connection points: 2
#     Edge 11, Type (0, 1), BuildingBlock: CIFDUS_clean_linker_0, # of connection points: 2
#     Edge 12, Type (0, 1), BuildingBlock: CIFDUS_clean_linker_0, # of connection points: 2
#     Edge 13, Type (0, 1), BuildingBlock: CIFDUS_clean_linker_0, # of connection points: 2
#     Edge 14, Type (0, 1), BuildingBlock: CIFDUS_clean_linker_0, # of connection points: 2
#     Edge 15, Type (0, 1), BuildingBlock: CIFDUS_clean_linker_0, # of connection points: 2
#     Edge 16, Type (0, 1), BuildingBlock: CIFDUS_clean_linker_0, # of connection points: 2
#     Edge 17, Type (0, 1), BuildingBlock: CIFDUS_clean_linker_0, # of connection points: 2
# Relax obj value: 0.014
# Max RMSD: 0.063
# Mean RMSD: 0.051
data_MOF--net-pth--node1-CEKHIL_clean_sbu_0--node2-MUDLON_clean_sbu_0--edge1-CIFDUS_clean_linker_0
_symmetry_space_group_name_H-M    P1
_symmetry_Int_Tables_number       1
_symmetry_cell_setting            triclinic
loop_
_symmetry_equiv_pos_as_xyz
'x, y, z'
_cell_length_a     19.789273
_cell_length_b     19.875903
_cell_length_c     52.81191
_cell_angle_alpha  91.145659
_cell_angle_beta   89.867004
_cell_angle_gamma 120.12151
loop_
_atom_site_label
_atom_site_type_symbol
_atom_site_fract_x
_atom_site_fract_y
_atom_site_fract_z
_atom_type_partial_charge
Co0 Co 0.05815 0.04066 0.10995 0.0
O1 O 1.00119 0.96562 0.13548 0.0
O2 O 0.0991 0.97052 0.11363 0.0
C3 C 0.07605 0.1449 0.1334 0.0
O4 O 0.1336 0.11078 0.08291 0.0
Co5 Co 0.99412 0.13764 0.08631 0.0
O6 O 0.09575 0.19268 0.06878 0.0
C7 C 0.92552 0.97317 0.07067 0.0
C8 C 0.04722 0.93789 0.13124 0.0
C9 C 0.14384 0.16783 0.06911 0.0
O10 O 0.97944 0.96992 0.08335 0.0
O11 O 0.91782 0.03338 0.07093 0.0
O12 O 0.12257 0.11702 0.13575 0.0
O13 O 0.01693 0.1062 0.11828 0.0
Co14 Co 0.0498 0.04502 0.42244 0.0
O15 O 0.98645 0.06771 0.40068 0.0
O16 O 0.0969 0.15699 0.4188 0.0
C17 C 0.04692 0.9519 0.39623 0.0
O18 O 0.13318 0.04436 0.44523 0.0
Co19 Co 0.98511 0.88292 0.44547 0.0
O20 O 0.09675 0.91983 0.4528 0.0
C21 C 0.93392 0.9892 0.46596 0.0
C22 C 0.03862 0.14063 0.40367 0.0
C23 C 0.14721 0.99214 0.45361 0.0
O24 O 0.98657 0.04454 0.45267 0.0
O25 O 0.92018 0.91902 0.46435 0.0
O26 O 0.09686 0.02499 0.39293 0.0
O27 O 0.9975 0.9375 0.41428 0.0
Co28 Co 0.03954 0.03007 0.75289 0.0
O29 O 0.10524 0.07131 0.72352 0.0
O30 O 0.10675 0.98569 0.74928 0.0
C31 C 0.92987 0.00757 0.73208 0.0
O32 O 0.97992 0.96849 0.78376 0.0
Co33 Co 0.94599 0.09765 0.77778 0.0
O34 O 0.88742 0.9964 0.79504 0.0
C35 C 0.11607 0.17247 0.78822 0.0
C36 C 0.13231 0.02564 0.72879 0.0
C37 C 0.91934 0.95482 0.79664 0.0
O38 O 0.11869 0.11788 0.77538 0.0
O39 O 0.05389 0.17698 0.79014 0.0
O40 O 0.95397 0.95763 0.73079 0.0
O41 O 0.97307 0.07016 0.74535 0.0
Mg42 Mg 0.06266 0.55359 0.2687 0.0
C43 C 0.06509 0.44682 0.3035 0.0
O44 O 0.99635 0.41448 0.29225 0.0
C45 C 0.06763 0.64793 0.22915 0.0
O46 O 0.99556 0.59319 0.23375 0.0
C47 C 0.06472 0.4515 0.23076 0.0
O48 O 0.1367 0.50238 0.23772 0.0
O49 O 0.00917 0.4558 0.24148 0.0
O50 O 0.11696 0.51457 0.29666 0.0
O51 O 0.9987 0.59725 0.29098 0.0
C52 C 0.97706 0.58083 0.31385 0.0
O53 O 0.97671 0.52119 0.32419 0.0
O54 O 0.12237 0.64966 0.24242 0.0
Mg55 Mg 0.53419 0.0334 0.59762 0.0
C56 C 0.4843 0.06307 0.54856 0.0
O57 O 0.48861 0.99987 0.54479 0.0
C58 C 0.62601 0.02869 0.63782 0.0
O59 O 0.57215 0.95754 0.63118 0.0
C60 C 0.36759 0.97584 0.61359 0.0
O61 O 0.36302 0.99203 0.58991 0.0
O62 O 0.42903 0.97635 0.62101 0.0
O63 O 0.50745 0.09884 0.56992 0.0
O64 O 0.57973 0.97174 0.57483 0.0
C65 C 0.64423 0.02219 0.56515 0.0
O66 O 0.66989 0.09602 0.57053 0.0
O67 O 0.62657 0.0851 0.62648 0.0
Mg68 Mg 0.53758 0.55569 0.92779 0.0
C69 C 0.43861 0.47301 0.88596 0.0
O70 O 0.48604 0.44613 0.89027 0.0
C71 C 0.62623 0.65361 0.97101 0.0
O72 O 0.63511 0.59244 0.97126 0.0
C73 C 0.47665 0.41437 0.96855 0.0
O74 O 0.54636 0.42842 0.97541 0.0
O75 O 0.4694 0.45445 0.95139 0.0
O76 O 0.44541 0.52928 0.89995 0.0
O77 O 0.63146 0.57711 0.90126 0.0
C78 C 0.69572 0.64161 0.90193 0.0
O79 O 0.71559 0.68437 0.9228 0.0
O80 O 0.58307 0.6568 0.95373 0.0
H81 H 0.96378 0.1779 0.14917 0.0
H82 H 0.2106 0.2588 0.15425 0.0
H83 H 0.22826 0.36164 0.18411 0.0
H84 H 0.17378 0.42461 0.21008 0.0
H85 H 0.92649 0.34281 0.20753 0.0
H86 H 0.90857 0.24382 0.17545 0.0
C87 C 0.02147 0.2188 0.1566 0.0
C88 C 0.08597 0.21106 0.14946 0.0
C89 C 0.03091 0.27687 0.17438 0.0
C90 C 0.16018 0.2636 0.15947 0.0
C91 C 0.17028 0.32228 0.17659 0.0
C92 C 0.11575 0.38547 0.20252 0.0
C93 C 0.05151 0.39119 0.21125 0.0
C94 C 0.106 0.32873 0.18442 0.0
C95 C 0.9769 0.33955 0.20121 0.0
C96 C 0.96673 0.28309 0.18284 0.0
H97 H 0.80603 0.88704 0.49302 0.0
H98 H 0.95578 0.1323 0.47956 0.0
H99 H 0.87954 0.16279 0.50902 0.0
H100 H 0.77124 0.12085 0.53842 0.0
H101 H 0.61873 0.87641 0.55183 0.0
H102 H 0.69549 0.84467 0.52248 0.0
C103 C 0.82224 0.94724 0.49654 0.0
C104 C 0.88704 0.00726 0.48402 0.0
C105 C 0.77768 0.96455 0.51347 0.0
C106 C 0.90648 0.08481 0.4888 0.0
C107 C 0.86287 0.1024 0.5057 0.0
C108 C 0.75455 0.06045 0.53503 0.0
C109 C 0.6893 1.00105 0.54742 0.0
C110 C 0.79849 0.04282 0.51811 0.0
C111 C 0.6686 0.92325 0.54258 0.0
C112 C 0.71255 0.90515 0.52581 0.0
H113 H 0.78079 0.81893 0.799 0.0
H114 H 0.99908 0.95976 0.83862 0.0
H115 H 0.95253 0.87026 0.87409 0.0
H116 H 0.84499 0.75848 0.89537 0.0
H117 H 0.62917 0.61286 0.85476 0.0
H118 H 0.67989 0.69601 0.81798 0.0
C119 C 0.81815 0.82917 0.81533 0.0
C120 C 0.89269 0.89597 0.81651 0.0
C121 C 0.79155 0.77643 0.8354 0.0
C122 C 0.94132 0.90865 0.8375 0.0
C123 C 0.91471 0.85759 0.85774 0.0
C124 C 0.8098 0.74395 0.87825 0.0
C125 C 0.73328 0.67982 0.87792 0.0
C126 C 0.83935 0.79209 0.85712 0.0
C127 C 0.68847 0.66153 0.85553 0.0
C128 C 0.71712 0.70963 0.83454 0.0
H129 H 0.16505 0.91835 0.1501 0.0
H130 H 0.91441 0.81495 0.14731 0.0
H131 H 0.89971 0.71456 0.17627 0.0
H132 H 0.95684 0.66089 0.20402 0.0
H133 H 0.2072 0.76567 0.21025 0.0
H134 H 0.22355 0.86129 0.1784 0.0
C135 C 0.10739 0.87297 0.15561 0.0
C136 C 0.04071 0.87349 0.1465 0.0
C137 C 0.09945 0.81659 0.17308 0.0
C138 C 0.96636 0.81552 0.15407 0.0
C139 C 0.95797 0.7583 0.17067 0.0
C140 C 0.01532 0.70424 0.19844 0.0
C141 C 0.08077 0.70602 0.2096 0.0
C142 C 0.024 0.7591 0.1806 0.0
C143 C 0.15582 0.76307 0.20205 0.0
C144 C 0.16508 0.81763 0.18381 0.0
H145 H 0.22289 0.0977 0.49222 0.0
H146 H 0.24115 0.93521 0.4414 0.0
H147 H 0.35699 0.9545 0.46415 0.0
H148 H 0.44179 0.00363 0.50122 0.0
H149 H 0.41803 0.15587 0.55526 0.0
H150 H 0.31728 0.15634 0.52834 0.0
C151 C 0.2536 0.06812 0.48589 0.0
C152 C 0.22394 0.0152 0.46516 0.0
C153 C 0.31873 0.07724 0.49977 0.0
C154 C 0.2631 0.97609 0.45731 0.0
C155 C 0.32915 0.98699 0.47034 0.0
C156 C 0.41562 0.03808 0.50701 0.0
C157 C 0.437 0.07902 0.53039 0.0
C158 C 0.35585 0.03535 0.49204 0.0
C159 C 0.40288 0.12391 0.53737 0.0
C160 C 0.34469 0.12355 0.52206 0.0
H161 H 0.13324 0.29416 0.81835 0.0
H162 H 0.25871 0.18189 0.79071 0.0
H163 H 0.3709 0.26945 0.81706 0.0
H164 H 0.43015 0.37117 0.84982 0.0
H165 H 0.30607 0.48314 0.87855 0.0
H166 H 0.19681 0.4029 0.84952 0.0
C167 C 0.18528 0.28907 0.81788 0.0
C168 C 0.18681 0.23061 0.80261 0.0
C169 C 0.24978 0.33944 0.8333 0.0
C170 C 0.25525 0.22568 0.80227 0.0
C171 C 0.3196 0.27579 0.81738 0.0
C172 C 0.37948 0.37864 0.84969 0.0
C173 C 0.37601 0.43267 0.86655 0.0
C174 C 0.31693 0.33183 0.83326 0.0
C175 C 0.31028 0.44205 0.86581 0.0
C176 C 0.24768 0.39585 0.8493 0.0
H177 H 0.90125 0.12141 0.71696 0.0
H178 H 0.81169 0.87391 0.71138 0.0
H179 H 0.70843 0.85927 0.68263 0.0
H180 H 0.64742 0.91672 0.6578 0.0
H181 H 0.7393 0.16486 0.66088 0.0
H182 H 0.8383 0.1795 0.6919 0.0
C183 C 0.85851 0.06419 0.70966 0.0
C184 C 0.86385 0.99864 0.71638 0.0
C185 C 0.80036 0.05652 0.69257 0.0
C186 C 0.8088 0.92511 0.70652 0.0
C187 C 0.74988 0.91677 0.69004 0.0
C188 C 0.6887 0.97422 0.66529 0.0
C189 C 0.68574 0.03969 0.65701 0.0
C190 C 0.74574 0.98212 0.68271 0.0
C191 C 0.74027 0.11356 0.66688 0.0
C192 C 0.79679 0.12185 0.68463 0.0
H193 H 0.81686 0.96372 0.03658 0.0
H194 H 0.91095 0.82878 0.06832 0.0
H195 H 0.82437 0.71811 0.0411 0.0
H196 H 0.72519 0.66069 1.00766 0.0
H197 H 0.63203 0.7948 0.97489 0.0
H198 H 0.71485 0.9047 1.00338 0.0
C199 C 0.81833 0.91006 0.03768 0.0
C200 C 0.87089 0.90505 0.05454 0.0
C201 C 0.76858 0.84649 0.02179 0.0
C202 C 0.87169 0.83481 0.05553 0.0
C203 C 0.82204 0.7713 0.03996 0.0
C204 C 0.72248 0.71374 1.00674 0.0
C205 C 0.67236 0.71938 0.98907 0.0
C206 C 0.77074 0.7767 0.02293 0.0
C207 C 0.66991 0.78874 0.98828 0.0
C208 C 0.71743 0.85166 1.00454 0.0
H209 H 0.95736 0.79417 0.40055 0.0
H210 H 0.12196 0.97237 0.35144 0.0
H211 H 0.1081 0.8734 0.32054 0.0
H212 H 0.0522 0.73661 0.30776 0.0
H213 H 0.8953 0.55682 0.35778 0.0
H214 H 0.90193 0.65578 0.38778 0.0
C215 C 0.99025 0.8112 0.3831 0.0
C216 C 0.04069 0.8906 0.37835 0.0
C217 C 0.98269 0.7537 0.36543 0.0
C218 C 0.08308 0.91175 0.35568 0.0
C219 C 0.07489 0.85517 0.3379 0.0
C220 C 0.01828 0.71895 0.32501 0.0
C221 C 0.97238 0.63943 0.33038 0.0
C222 C 0.02492 0.77605 0.34256 0.0
C223 C 0.93046 0.61767 0.35313 0.0
C224 C 0.93466 0.67424 0.37034 0.0
H225 H 0.13135 0.0328 0.67789 0.0
H226 H 0.24399 0.98742 0.73956 0.0
H227 H 0.32454 0.96339 0.70939 0.0
H228 H 0.36492 0.95867 0.66522 0.0
H229 H 0.24402 0.99599 0.60392 0.0
H230 H 0.16389 0.01803 0.63413 0.0
C231 C 0.17399 0.01822 0.68472 0.0
C232 C 0.18296 0.01339 0.71088 0.0
C233 C 0.21796 1.00201 0.66728 0.0
C234 C 0.23676 0.99229 0.71947 0.0
C235 C 0.28253 0.97828 0.70223 0.0
C236 C 0.3203 0.97052 0.65846 0.0
C237 C 0.31122 0.97613 0.63223 0.0
C238 C 0.27374 0.98308 0.67604 0.0
C239 C 0.25277 0.99136 0.62391 0.0
C240 C 0.20702 0.00454 0.6412 0.0
H241 H 0.15509 0.24088 0.02539 0.0
H242 H 0.28655 0.17717 0.07456 0.0
H243 H 0.40088 0.24421 0.04716 0.0
H244 H 0.46522 0.32703 1.01004 0.0
H245 H 0.32811 0.38398 0.96063 0.0
H246 H 0.21474 0.31311 0.98718 0.0
C247 C 0.20875 0.24161 0.03017 0.0
C248 C 0.21258 0.20504 0.05219 0.0
C249 C 0.27348 0.27907 1.0142 0.0
C250 C 0.28212 0.2052 0.05777 0.0
C251 C 0.34754 0.24362 0.04211 0.0
C252 C 0.41033 0.32313 1.00492 0.0
C253 C 0.40606 0.36182 0.9834 0.0
C254 C 0.3442 0.28154 0.02036 0.0
C255 C 0.33394 0.35553 0.97708 0.0
C256 C 0.2687 0.31504 0.99232 0.0
H257 H 0.15739 0.28037 0.38692 0.0
H258 H 0.9066 0.13228 0.38644 0.0
H259 H 0.89372 0.21703 0.35663 0.0
H260 H 0.95262 0.32566 0.32831 0.0
H261 H 0.20288 0.47479 0.32648 0.0
H262 H 0.21724 0.39747 0.35965 0.0
C263 C 0.10002 0.26777 0.38061 0.0
C264 C 0.03293 0.2 0.38883 0.0
C265 C 0.09303 0.31616 0.36282 0.0
C266 C 0.95901 0.18378 0.38031 0.0
C267 C 0.95159 0.23209 0.3632 0.0
C268 C 0.01061 0.34171 0.3351 0.0
C269 C 0.0767 0.40531 0.32463 0.0
C270 C 0.01813 0.29711 0.35387 0.0
C271 C 0.15106 0.42582 0.3341 0.0
C272 C 0.15918 0.38153 0.35304 0.0
loop_
_geom_bond_atom_site_label_1
_geom_bond_atom_site_label_2
_geom_bond_distance
_geom_bond_site_symmetry_2
_ccdc_geom_bond_type
Co0 O1 2.216 1_445 S
Co0 O2 2.091 1_545 S
Co0 O4 2.004 . S
Co0 O10 2.021 1_445 S
Co0 O12 2.137 . S
Co0 O13 2.244 1_455 S
O1 Co0 2.216 1_665 S
O1 C8 1.247 1_655 S
O2 Co0 2.091 1_565 S
O2 C8 1.261 . S
C3 O12 1.247 . S
C3 O13 1.272 1_455 S
O4 Co0 2.004 . S
O4 C9 1.259 . S
Co5 O6 2.061 1_655 S
Co5 O11 2.052 . S
Co5 O13 2.135 . S
O6 Co5 2.061 1_455 S
O6 C9 1.235 . S
C7 O10 1.238 . S
C7 O11 1.241 1_565 S
C8 O1 1.247 1_455 S
C8 O2 1.261 . S
C9 O4 1.259 . S
C9 O6 1.235 . S
O10 Co0 2.021 1_665 S
O10 C7 1.238 . S
O11 Co5 2.052 . S
O11 C7 1.241 1_545 S
O12 Co0 2.137 . S
O12 C3 1.247 . S
O13 Co0 2.244 1_655 S
O13 C3 1.272 1_655 S
O13 Co5 2.135 . S
Co14 O15 2.216 1_455 S
Co14 O16 2.091 . S
Co14 O18 2.004 . S
Co14 O24 2.021 . S
Co14 O26 2.137 . S
Co14 O27 2.244 1_545 S
O15 Co14 2.216 1_655 S
O15 C22 1.247 1_655 S
O16 Co14 2.091 . S
O16 C22 1.261 . S
C17 O26 1.247 1_565 S
C17 O27 1.272 . S
O18 Co14 2.004 . S
O18 C23 1.259 . S
Co19 O20 2.061 1_655 S
Co19 O25 2.052 . S
Co19 O27 2.135 1_655 S
O20 Co19 2.061 1_455 S
O20 C23 1.235 1_565 S
C21 O24 1.238 1_655 S
C21 O25 1.241 1_545 S
C22 O15 1.247 1_455 S
C22 O16 1.261 . S
C23 O18 1.259 . S
C23 O20 1.235 1_545 S
O24 Co14 2.021 . S
O24 C21 1.238 1_455 S
O25 Co19 2.052 . S
O25 C21 1.241 1_565 S
O26 Co14 2.137 . S
O26 C17 1.247 1_545 S
O27 Co14 2.244 1_565 S
O27 C17 1.272 . S
O27 Co19 2.135 1_455 S
Co28 O29 2.216 . S
Co28 O30 2.091 1_545 S
Co28 O32 2.004 1_445 S
Co28 O38 2.021 . S
Co28 O40 2.137 1_445 S
Co28 O41 2.244 1_455 S
O29 Co28 2.216 . S
O29 C36 1.247 . S
O30 Co28 2.091 1_565 S
O30 C36 1.261 1_565 S
C31 O40 1.247 1_545 S
C31 O41 1.272 . S
O32 Co28 2.004 1_665 S
O32 C37 1.259 . S
Co33 O34 2.061 1_545 S
Co33 O39 2.052 1_655 S
Co33 O41 2.135 . S
O34 Co33 2.061 1_565 S
O34 C37 1.235 . S
C35 O38 1.238 . S
C35 O39 1.241 . S
C36 O29 1.247 . S
C36 O30 1.261 1_545 S
C37 O32 1.259 . S
C37 O34 1.235 . S
O38 Co28 2.021 . S
O38 C35 1.238 . S
O39 Co33 2.052 1_455 S
O39 C35 1.241 . S
O40 Co28 2.137 1_665 S
O40 C31 1.247 1_565 S
O41 Co28 2.244 1_655 S
O41 C31 1.272 . S
O41 Co33 2.135 . S
Mg42 O49 2.141 . S
Mg42 O50 2.048 . S
Mg42 O51 2.048 . S
Mg42 O54 2.141 . S
C43 O44 1.313 1_455 S
C43 O50 1.195 . S
O44 C43 1.313 1_655 S
C45 O46 1.245 1_455 S
C45 O54 1.289 . S
O46 C45 1.245 1_655 S
C47 O48 1.245 1_455 S
C47 O49 1.289 . S
O48 C47 1.245 1_655 S
O49 Mg42 2.141 . S
O49 C47 1.289 . S
O50 Mg42 2.048 . S
O50 C43 1.195 . S
O51 Mg42 2.048 . S
O51 C52 1.195 . S
C52 O51 1.195 . S
C52 O53 1.313 1_455 S
O53 C52 1.313 1_655 S
O54 Mg42 2.141 . S
O54 C45 1.289 . S
Mg55 O62 2.141 . S
Mg55 O63 2.048 . S
Mg55 O64 2.048 . S
Mg55 O67 2.141 . S
C56 O57 1.313 1_545 S
C56 O63 1.195 . S
O57 C56 1.313 1_565 S
C58 O59 1.245 1_545 S
C58 O67 1.289 . S
O59 C58 1.245 1_565 S
C60 O61 1.245 1_545 S
C60 O62 1.289 . S
O61 C60 1.245 1_565 S
O62 Mg55 2.141 . S
O62 C60 1.289 . S
O63 Mg55 2.048 . S
O63 C56 1.195 . S
O64 Mg55 2.048 . S
O64 C65 1.195 . S
C65 O64 1.195 . S
C65 O66 1.313 1_545 S
O66 C65 1.313 1_565 S
O67 Mg55 2.141 . S
O67 C58 1.289 . S
Mg68 O75 2.141 . S
Mg68 O76 2.048 . S
Mg68 O77 2.048 . S
Mg68 O80 2.141 . S
C69 O70 1.313 . S
C69 O76 1.195 . S
O70 C69 1.313 . S
C71 O72 1.245 . S
C71 O80 1.289 . S
O72 C71 1.245 . S
C73 O74 1.245 . S
C73 O75 1.289 . S
O74 C73 1.245 . S
O75 Mg68 2.141 . S
O75 C73 1.289 . S
O76 Mg68 2.048 . S
O76 C69 1.195 . S
O77 Mg68 2.048 . S
O77 C78 1.195 . S
C78 O77 1.195 . S
C78 O79 1.313 . S
O79 C78 1.313 . S
O80 Mg68 2.141 . S
O80 C71 1.289 . S
H81 C87 0.930 . S
H82 C90 0.930 . S
H83 C91 0.930 . S
H84 C92 0.930 . S
H85 C95 0.930 . S
H86 C96 0.930 . S
C87 H81 0.930 . S
C87 C88 1.355 . S
C87 C89 1.415 . S
C88 C87 1.355 . S
C88 C90 1.419 . S
C89 C87 1.415 . S
C89 C94 1.425 . S
C89 C96 1.409 . S
C90 H82 0.930 . S
C90 C88 1.419 . S
C90 C91 1.362 . S
C91 H83 0.930 . S
C91 C90 1.362 . S
C91 C94 1.409 . S
C92 H84 0.930 . S
C92 C93 1.355 . S
C92 C94 1.415 . S
C93 C92 1.355 . S
C93 C95 1.419 . S
C94 C89 1.425 . S
C94 C91 1.409 . S
C94 C92 1.415 . S
C95 H85 0.930 . S
C95 C93 1.419 . S
C95 C96 1.362 . S
C96 H86 0.930 . S
C96 C89 1.409 . S
C96 C95 1.362 . S
H97 C103 0.930 . S
H98 C106 0.930 . S
H99 C107 0.930 . S
H100 C108 0.930 . S
H101 C111 0.930 . S
H102 C112 0.921 1_565 S
C103 H97 0.930 . S
C103 C104 1.355 . S
C103 C105 1.415 . S
C104 C103 1.355 . S
C104 C106 1.419 . S
C105 C103 1.415 . S
C105 C110 1.425 . S
C105 C112 1.409 . S
C106 H98 0.930 . S
C106 C104 1.419 . S
C106 C107 1.362 . S
C107 H99 0.930 . S
C107 C106 1.362 . S
C107 C110 1.409 . S
C108 H100 0.930 . S
C108 C109 1.355 . S
C108 C110 1.415 . S
C109 C108 1.355 . S
C109 C111 1.419 . S
C110 C105 1.425 . S
C110 C107 1.409 . S
C110 C108 1.415 . S
C111 H101 0.930 . S
C111 C109 1.419 . S
C111 C112 1.362 . S
C112 H102 0.921 1_545 S
C112 C105 1.409 . S
C112 C111 1.362 . S
H113 C119 0.930 . S
H114 C122 0.930 . S
H115 C123 0.930 . S
H116 C124 0.930 . S
H117 C127 0.930 . S
H118 C128 0.930 . S
C119 H113 0.930 . S
C119 C120 1.355 . S
C119 C121 1.415 . S
C120 C119 1.355 . S
C120 C122 1.419 . S
C121 C119 1.415 . S
C121 C126 1.425 . S
C121 C128 1.409 . S
C122 H114 0.930 . S
C122 C120 1.419 . S
C122 C123 1.362 . S
C123 H115 0.930 . S
C123 C122 1.362 . S
C123 C126 1.409 . S
C124 H116 0.930 . S
C124 C125 1.355 . S
C124 C126 1.415 . S
C125 C124 1.355 . S
C125 C127 1.419 . S
C126 C121 1.425 . S
C126 C123 1.409 . S
C126 C124 1.415 . S
C127 H117 0.930 . S
C127 C125 1.419 . S
C127 C128 1.362 . S
C128 H118 0.930 . S
C128 C121 1.409 . S
C128 C127 1.362 . S
H129 C135 0.930 . S
H130 C138 0.930 . S
H131 C139 0.930 . S
H132 C140 0.930 . S
H133 C143 0.930 . S
H134 C144 0.930 . S
C135 H129 0.930 . S
C135 C136 1.355 . S
C135 C137 1.415 . S
C136 C135 1.355 . S
C136 C138 1.419 1_455 S
C137 C135 1.415 . S
C137 C142 1.425 1_455 S
C137 C144 1.409 . S
C138 H130 0.930 . S
C138 C136 1.419 1_655 S
C138 C139 1.362 . S
C139 H131 0.930 . S
C139 C138 1.362 . S
C139 C142 1.409 . S
C140 H132 0.930 . S
C140 C141 1.355 1_655 S
C140 C142 1.415 . S
C141 C140 1.355 1_455 S
C141 C143 1.419 . S
C142 C137 1.425 1_655 S
C142 C139 1.409 . S
C142 C140 1.415 . S
C143 H133 0.930 . S
C143 C141 1.419 . S
C143 C144 1.362 . S
C144 H134 0.930 . S
C144 C137 1.409 . S
C144 C143 1.362 . S
H145 C151 0.930 . S
H146 C154 0.930 . S
H147 C155 0.930 . S
H148 C156 0.930 . S
H149 C159 0.930 . S
H150 C160 0.930 . S
C151 H145 0.930 . S
C151 C152 1.355 . S
C151 C153 1.415 . S
C152 C151 1.355 . S
C152 C154 1.419 1_545 S
C153 C151 1.415 . S
C153 C158 1.425 . S
C153 C160 1.409 . S
C154 H146 0.930 . S
C154 C152 1.419 1_565 S
C154 C155 1.362 . S
C155 H147 0.930 . S
C155 C154 1.362 . S
C155 C158 1.409 1_565 S
C156 H148 0.930 . S
C156 C157 1.355 1_565 S
C156 C158 1.415 1_565 S
C157 C156 1.355 1_545 S
C157 C159 1.419 . S
C158 C153 1.425 . S
C158 C155 1.409 1_545 S
C158 C156 1.415 1_545 S
C159 H149 0.930 . S
C159 C157 1.419 . S
C159 C160 1.362 . S
C160 H150 0.930 . S
C160 C153 1.409 . S
C160 C159 1.362 . S
H161 C167 0.930 . S
H162 C170 0.930 . S
H163 C171 0.930 . S
H164 C172 0.930 . S
H165 C175 0.930 . S
H166 C176 0.930 . S
C167 H161 0.930 . S
C167 C168 1.355 . S
C167 C169 1.415 . S
C168 C167 1.355 . S
C168 C170 1.419 . S
C169 C167 1.415 . S
C169 C174 1.425 . S
C169 C176 1.409 . S
C170 H162 0.930 . S
C170 C168 1.419 . S
C170 C171 1.362 . S
C171 H163 0.930 . S
C171 C170 1.362 . S
C171 C174 1.409 . S
C172 H164 0.930 . S
C172 C173 1.355 . S
C172 C174 1.415 . S
C173 C172 1.355 . S
C173 C175 1.419 . S
C174 C169 1.425 . S
C174 C171 1.409 . S
C174 C172 1.415 . S
C175 H165 0.930 . S
C175 C173 1.419 . S
C175 C176 1.362 . S
C176 H166 0.930 . S
C176 C169 1.409 . S
C176 C175 1.362 . S
H177 C183 0.930 . S
H178 C186 0.930 . S
H179 C187 0.930 . S
H180 C188 0.930 1_565 S
H181 C191 0.930 . S
H182 C192 0.930 . S
C183 H177 0.930 . S
C183 C184 1.355 . S
C183 C185 1.415 . S
C184 C183 1.355 . S
C184 C186 1.419 1_545 S
C185 C183 1.415 . S
C185 C190 1.425 . S
C185 C192 1.409 . S
C186 H178 0.930 . S
C186 C184 1.419 1_565 S
C186 C187 1.362 . S
C187 H179 0.930 . S
C187 C186 1.362 . S
C187 C190 1.409 1_565 S
C188 H180 0.930 1_545 S
C188 C189 1.355 . S
C188 C190 1.415 . S
C189 C188 1.355 . S
C189 C191 1.419 . S
C190 C185 1.425 . S
C190 C187 1.409 1_545 S
C190 C188 1.415 . S
C191 H181 0.930 . S
C191 C189 1.419 . S
C191 C192 1.362 . S
C192 H182 0.930 . S
C192 C185 1.409 . S
C192 C191 1.362 . S
H193 C199 0.930 . S
H194 C202 0.930 . S
H195 C203 0.930 1_556 S
H196 C204 0.930 . S
H197 C207 0.930 . S
H198 C208 0.930 . S
C199 H193 0.930 . S
C199 C200 1.355 . S
C199 C201 1.415 . S
C200 C199 1.355 . S
C200 C202 1.419 . S
C201 C199 1.415 . S
C201 C206 1.425 1_554 S
C201 C208 1.409 . S
C202 H194 0.930 . S
C202 C200 1.419 . S
C202 C203 1.362 . S
C203 H195 0.930 1_554 S
C203 C202 1.362 . S
C203 C206 1.409 1_554 S
C204 H196 0.930 . S
C204 C205 1.355 . S
C204 C206 1.415 . S
C205 C204 1.355 . S
C205 C207 1.419 . S
C206 C201 1.425 1_556 S
C206 C203 1.409 1_556 S
C206 C204 1.415 . S
C207 H197 0.930 . S
C207 C205 1.419 . S
C207 C208 1.362 1_556 S
C208 H198 0.930 . S
C208 C201 1.409 . S
C208 C207 1.362 1_554 S
H209 C215 0.930 . S
H210 C218 0.930 . S
H211 C219 0.930 . S
H212 C220 0.930 . S
H213 C223 0.930 . S
H214 C224 0.930 . S
C215 H209 0.930 . S
C215 C216 1.355 1_655 S
C215 C217 1.415 . S
C216 C215 1.355 1_455 S
C216 C218 1.419 . S
C217 C215 1.415 . S
C217 C222 1.425 1_655 S
C217 C224 1.409 . S
C218 H210 0.930 . S
C218 C216 1.419 . S
C218 C219 1.362 . S
C219 H211 0.930 . S
C219 C218 1.362 . S
C219 C222 1.409 . S
C220 H212 0.930 . S
C220 C221 1.355 . S
C220 C222 1.415 . S
C221 C220 1.355 . S
C221 C223 1.419 1_455 S
C222 C217 1.425 1_455 S
C222 C219 1.409 . S
C222 C220 1.415 . S
C223 H213 0.930 . S
C223 C221 1.419 1_655 S
C223 C224 1.362 . S
C224 H214 0.930 . S
C224 C217 1.409 . S
C224 C223 1.362 . S
H225 C231 0.930 . S
H226 C234 0.930 . S
H227 C235 0.930 . S
H228 C236 0.930 . S
H229 C239 0.930 . S
H230 C240 0.930 . S
C231 H225 0.930 . S
C231 C232 1.355 1_565 S
C231 C233 1.415 1_565 S
C232 C231 1.355 1_545 S
C232 C234 1.419 . S
C233 C231 1.415 1_545 S
C233 C238 1.425 . S
C233 C240 1.409 1_545 S
C234 H226 0.930 . S
C234 C232 1.419 . S
C234 C235 1.362 . S
C235 H227 0.930 . S
C235 C234 1.362 . S
C235 C238 1.409 . S
C236 H228 0.930 . S
C236 C237 1.355 . S
C236 C238 1.415 . S
C237 C236 1.355 . S
C237 C239 1.419 1_545 S
C238 C233 1.425 . S
C238 C235 1.409 . S
C238 C236 1.415 . S
C239 H229 0.930 . S
C239 C237 1.419 1_565 S
C239 C240 1.362 . S
C240 H230 0.930 . S
C240 C233 1.409 1_565 S
C240 C239 1.362 . S
H241 C247 0.930 . S
H242 C250 0.930 . S
H243 C251 0.930 . S
H244 C252 0.930 . S
H245 C255 0.930 . S
H246 C256 0.920 1_554 S
C247 H241 0.930 . S
C247 C248 1.355 . S
C247 C249 1.415 . S
C248 C247 1.355 . S
C248 C250 1.419 . S
C249 C247 1.415 . S
C249 C254 1.425 1_554 S
C249 C256 1.409 1_554 S
C250 H242 0.930 . S
C250 C248 1.419 . S
C250 C251 1.362 . S
C251 H243 0.930 . S
C251 C250 1.362 . S
C251 C254 1.409 1_554 S
C252 H244 0.930 . S
C252 C253 1.355 . S
C252 C254 1.415 . S
C253 C252 1.355 . S
C253 C255 1.419 . S
C254 C249 1.425 1_556 S
C254 C251 1.409 1_556 S
C254 C252 1.415 . S
C255 H245 0.930 . S
C255 C253 1.419 . S
C255 C256 1.362 . S
C256 H246 0.920 1_556 S
C256 C249 1.409 1_556 S
C256 C255 1.362 . S
H257 C263 0.930 . S
H258 C266 0.930 . S
H259 C267 0.930 . S
H260 C268 0.930 . S
H261 C271 0.930 . S
H262 C272 0.930 . S
C263 H257 0.930 . S
C263 C264 1.355 . S
C263 C265 1.415 . S
C264 C263 1.355 . S
C264 C266 1.419 1_455 S
C265 C263 1.415 . S
C265 C270 1.425 . S
C265 C272 1.409 . S
C266 H258 0.930 . S
C266 C264 1.419 1_655 S
C266 C267 1.362 . S
C267 H259 0.930 . S
C267 C266 1.362 . S
C267 C270 1.409 1_655 S
C268 H260 0.930 . S
C268 C269 1.355 1_655 S
C268 C270 1.415 1_655 S
C269 C268 1.355 1_455 S
C269 C271 1.419 . S
C270 C265 1.425 . S
C270 C267 1.409 1_455 S
C270 C268 1.415 1_455 S
C271 H261 0.930 . S
C271 C269 1.419 . S
C271 C272 1.362 . S
C272 H262 0.930 . S
C272 C265 1.409 . S
C272 C271 1.362 . S
C93 C47 1.414 . S
C88 C3 1.411 . S
C104 C21 1.511 . S
C109 C65 1.519 . S
C120 C37 1.472 . S
C125 C78 1.490 . S
C136 C8 1.432 . S
C141 C45 1.438 . S
C157 C56 1.493 . S
C152 C23 1.458 . S
C168 C35 1.481 . S
C173 C69 1.502 . S
C189 C58 1.433 . S
C184 C31 1.412 . S
C200 C7 1.429 . S
C205 C71 1.442 . S
C221 C52 1.476 . S
C216 C17 1.481 . S
C237 C60 1.388 . S
C232 C36 1.403 . S
C253 C73 1.444 . S
C248 C9 1.438 . S
C264 C22 1.492 . S
C269 C43 1.495 . S
