# Generated by pormake.
# Topology ocu, (6,8)-cn, num edge types: 1
# Building blocks:
#     Node 0, Type 0, BuildingBlock: HISSIN_clean_sbu_0, # of connection points: 6
#     Node 1, Type 0, BuildingBlock: HISSIN_clean_sbu_0, # of connection points: 6
#     Node 2, Type 0, BuildingBlock: HISSIN_clean_sbu_0, # of connection points: 6
#     Node 3, Type 0, BuildingBlock: HISSIN_clean_sbu_0, # of connection points: 6
#     Node 4, Type 0, BuildingBlock: HISSIN_clean_sbu_0, # of connection points: 6
#     Node 5, Type 0, BuildingBlock: HISSIN_clean_sbu_0, # of connection points: 6
#     Node 6, Type 0, BuildingBlock: HISSIN_clean_sbu_0, # of connection points: 6
#     Node 7, Type 0, BuildingBlock: HISSIN_clean_sbu_0, # of connection points: 6
#     Node 8, Type 1, BuildingBlock: VETTIZ_charged_sbu_0, # of connection points: 8
#     Node 9, Type 1, BuildingBlock: VETTIZ_charged_sbu_0, # of connection points: 8
#     Node 10, Type 1, BuildingBlock: VETTIZ_charged_sbu_0, # of connection points: 8
#     Node 11, Type 1, BuildingBlock: VETTIZ_charged_sbu_0, # of connection points: 8
#     Node 12, Type 1, BuildingBlock: VETTIZ_charged_sbu_0, # of connection points: 8
#     Node 13, Type 1, BuildingBlock: VETTIZ_charged_sbu_0, # of connection points: 8
#     Edge 14, Type (0, 1), None
#     Edge 15, Type (0, 1), None
#     Edge 16, Type (0, 1), None
#     Edge 17, Type (0, 1), None
#     Edge 18, Type (0, 1), None
#     Edge 19, Type (0, 1), None
#     Edge 20, Type (0, 1), None
#     Edge 21, Type (0, 1), None
#     Edge 22, Type (0, 1), None
#     Edge 23, Type (0, 1), None
#     Edge 24, Type (0, 1), None
#     Edge 25, Type (0, 1), None
#     Edge 26, Type (0, 1), None
#     Edge 27, Type (0, 1), None
#     Edge 28, Type (0, 1), None
#     Edge 29, Type (0, 1), None
#     Edge 30, Type (0, 1), None
#     Edge 31, Type (0, 1), None
#     Edge 32, Type (0, 1), None
#     Edge 33, Type (0, 1), None
#     Edge 34, Type (0, 1), None
#     Edge 35, Type (0, 1), None
#     Edge 36, Type (0, 1), None
#     Edge 37, Type (0, 1), None
#     Edge 38, Type (0, 1), None
#     Edge 39, Type (0, 1), None
#     Edge 40, Type (0, 1), None
#     Edge 41, Type (0, 1), None
#     Edge 42, Type (0, 1), None
#     Edge 43, Type (0, 1), None
#     Edge 44, Type (0, 1), None
#     Edge 45, Type (0, 1), None
#     Edge 46, Type (0, 1), None
#     Edge 47, Type (0, 1), None
#     Edge 48, Type (0, 1), None
#     Edge 49, Type (0, 1), None
#     Edge 50, Type (0, 1), None
#     Edge 51, Type (0, 1), None
#     Edge 52, Type (0, 1), None
#     Edge 53, Type (0, 1), None
#     Edge 54, Type (0, 1), None
#     Edge 55, Type (0, 1), None
#     Edge 56, Type (0, 1), None
#     Edge 57, Type (0, 1), None
#     Edge 58, Type (0, 1), None
#     Edge 59, Type (0, 1), None
#     Edge 60, Type (0, 1), None
#     Edge 61, Type (0, 1), None
# Relax obj value: 0.272
# Max RMSD: 0.199
# Mean RMSD: 0.164
data_MOF--net-ocu--node1-HISSIN_clean_sbu_0--node2-VETTIZ_charged_sbu_0--edge1-none
_symmetry_space_group_name_H-M    P1
_symmetry_Int_Tables_number       1
_symmetry_cell_setting            triclinic
loop_
_symmetry_equiv_pos_as_xyz
'x, y, z'
_cell_length_a     20.091528
_cell_length_b     21.611783
_cell_length_c     20.674323
_cell_angle_alpha  107.95806
_cell_angle_beta   74.921421
_cell_angle_gamma 111.46308
loop_
_atom_site_label
_atom_site_type_symbol
_atom_site_fract_x
_atom_site_fract_y
_atom_site_fract_z
_atom_type_partial_charge
Eu0 Eu 0.38834 0.31199 0.37209 0.0
Eu1 Eu 0.27142 0.24236 0.27604 0.0
C2 C 0.27057 0.17366 0.39262 0.0
C3 C 0.50075 0.28644 0.46209 0.0
C4 C 0.47718 0.26279 0.52277 0.0
C5 C 0.54269 0.18695 0.40487 0.0
C6 C 0.48502 0.20161 0.5244 0.0
C7 C 0.53388 0.24769 0.4031 0.0
C8 C 0.51775 0.16271 0.46541 0.0
C9 C 0.47584 0.34092 0.45601 0.0
O10 O 0.26155 0.34834 0.32986 0.0
O11 O 0.28994 0.3524 0.42923 0.0
C12 C 0.25277 0.36941 0.397 0.0
O13 O 0.4215 0.38445 0.30108 0.0
O14 O 0.15964 0.22457 0.26679 0.0
O15 O 0.23534 0.19856 0.17557 0.0
O16 O 0.3688 0.30105 0.21397 0.0
C17 C 0.41439 0.36082 0.23545 0.0
O18 O 0.44509 0.25018 0.27709 0.0
O19 O 0.3431 0.17214 0.23618 0.0
O20 O 0.22854 0.19158 0.36724 0.0
O21 O 0.49788 0.35913 0.39734 0.0
O22 O 0.40662 0.33214 0.47747 0.0
O23 O 0.34038 0.20197 0.37993 0.0
C24 C 0.1732 0.27301 0.17367 0.0
C25 C 0.22073 0.29145 0.11439 0.0
C26 C 0.13669 0.37489 0.19577 0.0
C27 C 0.22701 0.35129 0.09677 0.0
C28 C 0.1314 0.31585 0.21407 0.0
C29 C 0.18529 0.39391 0.13748 0.0
C30 C 0.17717 0.21762 0.20008 0.0
C31 C 0.41415 0.19258 0.23528 0.0
H32 H 0.44999 0.29017 0.56833 0.0
H33 H 0.56889 0.15893 0.35858 0.0
H34 H 0.46533 0.18492 0.57212 0.0
H35 H 0.55103 0.26293 0.35463 0.0
H36 H 0.25491 0.26077 0.08264 0.0
H37 H 0.10343 0.40635 0.22802 0.0
H38 H 0.26401 0.36369 1.05073 0.0
H39 H 0.09631 0.30531 0.26146 0.0
Eu40 Eu 0.89342 0.22057 0.26864 0.0
Eu41 Eu 0.79626 0.32325 0.34097 0.0
C42 C 0.93882 0.34625 0.40376 0.0
C43 C 0.95999 0.09871 0.29878 0.0
C44 C 0.90196 0.08817 0.35388 0.0
C45 C 1.0347 0.08049 0.36169 0.0
C46 C 0.911 0.07716 0.41366 0.0
C47 C 1.02553 0.09199 0.30208 0.0
C48 C 0.97835 0.07576 0.4193 0.0
C49 C 0.95535 0.12777 0.24477 0.0
O50 O 0.88037 0.36473 0.25584 0.0
O51 O 0.93209 0.28221 0.18786 0.0
C52 C 0.91823 0.33965 0.19806 0.0
O53 O 0.82841 0.19898 0.18654 0.0
O54 O 0.79079 0.42675 0.38526 0.0
O55 O 0.69447 0.34575 0.35618 0.0
O56 O 0.7356 0.23685 0.25778 0.0
C57 C 0.76322 0.20407 0.19726 0.0
O58 O 0.79807 0.17467 0.34368 0.0
O59 O 0.75759 0.26045 0.4194 0.0
O60 O 0.87582 0.35755 0.41716 0.0
O61 O 0.8902 0.11388 0.23279 0.0
O62 O 0.99208 0.19243 0.25003 0.0
O63 O 0.95794 0.30552 0.34546 0.0
C64 C 0.71983 0.45073 0.32752 0.0
C65 C 0.65867 0.47152 0.3386 0.0
C66 C 0.76856 0.49842 0.22592 0.0
C67 C 0.65276 0.50569 0.29366 0.0
C68 C 0.77474 0.465 0.27112 0.0
C69 C 0.70821 0.51996 0.23737 0.0
C70 C 0.72595 0.41177 0.37213 0.0
C71 C 0.7634 0.19919 0.40369 0.0
H72 H 0.85002 0.09067 0.35188 0.0
H73 H 0.08705 0.07796 0.36339 0.0
H74 H 0.86593 0.07184 0.45602 0.0
H75 H 1.07051 0.09843 0.25983 0.0
H76 H 0.61571 0.46141 0.38174 0.0
H77 H 0.80882 0.50451 0.18021 0.0
H78 H 0.60416 0.51981 0.30199 0.0
H79 H 0.8223 0.44989 0.26205 0.0
Eu80 Eu 0.85967 0.82546 0.2989 0.0
Eu81 Eu 0.7788 0.7187 0.38817 0.0
C82 C 0.69335 0.71254 0.27844 0.0
C83 C 0.86173 0.94652 0.20686 0.0
C84 C 0.79192 0.94756 0.24275 0.0
C85 C 0.84355 0.9853 0.11777 0.0
C86 C 0.74761 0.96731 0.21594 0.0
C87 C 0.88709 0.96558 0.14444 0.0
C88 C 0.77303 0.98622 0.15287 0.0
C89 C 0.90498 0.9181 0.22958 0.0
O90 O 0.86269 0.67607 0.29958 0.0
O91 O 0.93479 0.76026 0.24591 0.0
C92 C 0.92049 0.69891 0.25425 0.0
O93 O 0.92728 0.85687 0.38262 0.0
O94 O 0.72488 0.61644 0.40718 0.0
O95 O 0.78506 0.69663 0.4819 0.0
O96 O 0.83054 0.81792 0.46044 0.0
C97 C 0.89622 0.85827 0.44682 0.0
O98 O 0.77088 0.8664 0.37192 0.0
O99 O 0.69688 0.78018 0.42485 0.0
O100 O 0.687 0.68725 0.33042 0.0
O101 O 0.90351 0.93273 0.29599 0.0
O102 O 0.89758 0.85364 0.20032 0.0
O103 O 0.75504 0.757 0.25695 0.0
C104 C 0.80251 0.59099 0.45712 0.0
C105 C 0.85493 0.58063 0.39821 0.0
C106 C 0.86374 0.55616 0.51948 0.0
C107 C 0.91342 0.56156 0.4006 0.0
C108 C 0.80586 0.57605 0.51703 0.0
C109 C 0.92012 0.55216 0.46232 0.0
C110 C 0.75558 0.63103 0.46064 0.0
C111 C 0.70989 0.83994 0.41097 0.0
H112 H 0.77111 0.93187 0.29071 0.0
H113 H 0.86544 0.99863 1.0684 0.0
H114 H 0.69385 0.96707 0.24387 0.0
H115 H 0.94008 0.96389 0.11553 0.0
H116 H 0.8524 0.58973 0.35089 0.0
H117 H 0.86661 0.54827 0.56782 0.0
H118 H 0.95517 0.55814 0.35553 0.0
H119 H 0.76653 0.58416 0.56329 0.0
Eu120 Eu 0.3859 0.75854 0.32714 0.0
Eu121 Eu 0.29363 0.84275 0.33425 0.0
C122 C 0.25757 0.694 0.23297 0.0
C123 C 0.43741 0.6476 0.25551 0.0
C124 C 0.37399 0.59125 0.26392 0.0
C125 C 0.41088 0.63651 0.14295 0.0
C126 C 0.33453 0.55705 0.21001 0.0
C127 C 0.45375 0.67211 0.19489 0.0
C128 C 0.36985 0.56868 0.14519 0.0
C129 C 0.46474 0.6948 0.31698 0.0
O130 O 0.2269 0.78033 0.41867 0.0
O131 O 0.27894 0.69533 0.36528 0.0
C132 C 0.23033 0.71797 0.41255 0.0
O133 O 0.37603 0.82823 0.43191 0.0
O134 O 0.26857 0.84686 0.23875 0.0
O135 O 0.25084 0.92148 0.33469 0.0
O136 O 0.37885 0.9174 0.39963 0.0
C137 C 0.4003 0.89342 0.43884 0.0
O138 O 0.43266 0.79698 0.22954 0.0
O139 O 0.41356 0.88931 0.2986 0.0
O140 O 0.22928 0.73827 0.27796 0.0
O141 O 0.49972 0.75772 0.31027 0.0
O142 O 0.41423 0.69135 0.37143 0.0
O143 O 0.32175 0.69547 0.23823 0.0
C144 C 0.15365 0.86567 0.2721 0.0
C145 C 0.11987 0.80194 0.28971 0.0
C146 C 0.1053 0.91923 0.38301 0.0
C147 C 0.10462 0.80284 0.36034 0.0
C148 C 0.12115 0.91519 0.31213 0.0
C149 C 0.10885 0.86607 0.40799 0.0
C150 C 0.23301 0.89059 0.2732 0.0
C151 C 0.44721 0.86165 0.24069 0.0
H152 H 0.35401 0.57495 0.31192 0.0
H153 H 0.4277 0.65171 0.09442 0.0
H154 H 0.28977 0.51092 0.21494 0.0
H155 H 0.49992 0.71628 0.18653 0.0
H156 H 0.12449 0.75565 0.25201 0.0
H157 H 0.10349 0.96807 0.41567 0.0
H158 H 0.10022 0.75811 0.37638 0.0
H159 H 0.13174 0.96101 0.295 0.0
Eu160 Eu 0.3763 0.73813 0.80001 0.0
Eu161 Eu 0.27913 0.8408 0.87233 0.0
C162 C 0.40934 0.8573 0.94372 0.0
C163 C 0.45273 0.61065 0.81346 0.0
C164 C 0.51389 0.58985 0.80237 0.0
C165 C 0.404 0.56295 0.91506 0.0
C166 C 0.5198 0.55568 0.84731 0.0
C167 C 0.39782 0.59637 0.86985 0.0
C168 C 0.46435 0.54142 0.90361 0.0
C169 C 0.44661 0.6496 0.76885 0.0
O170 O 0.37449 0.8867 0.79729 0.0
O171 O 0.41497 0.80093 0.72158 0.0
C172 C 0.40916 0.86218 0.73729 0.0
O173 O 0.29674 0.70382 0.72381 0.0
O174 O 0.28236 0.94749 0.90818 0.0
O175 O 0.18048 0.86894 0.89094 0.0
O176 O 0.21462 0.75585 0.79551 0.0
C177 C 0.23373 0.71513 0.73721 0.0
O178 O 0.29219 0.69664 0.88514 0.0
O179 O 0.24047 0.77917 0.95312 0.0
O180 O 0.34415 0.8624 0.95443 0.0
O181 O 0.38177 0.63462 0.75572 0.0
O182 O 0.47808 0.71563 0.7848 0.0
O183 O 0.43695 0.82452 0.88319 0.0
C184 C 0.21257 0.96267 0.8422 0.0
C185 C 0.2706 0.9732 0.78709 0.0
C186 C 0.13786 0.98088 0.77928 0.0
C187 C 0.26156 0.98422 0.72732 0.0
C188 C 0.14702 0.96938 0.83889 0.0
C189 C 0.19421 0.98562 0.72168 0.0
C190 C 0.21721 0.9336 0.8962 0.0
C191 C 0.25433 0.72173 0.94292 0.0
H192 H 0.55685 0.59997 0.75924 0.0
H193 H 0.36374 0.55686 0.96076 0.0
H194 H 0.5684 0.54157 0.83898 0.0
H195 H 0.35025 0.61148 0.87892 0.0
H196 H 0.32254 0.97071 0.78909 0.0
H197 H 1.08551 0.98341 0.77758 0.0
H198 H 0.30663 0.98953 0.68495 0.0
H199 H 0.10205 0.96294 0.88114 0.0
Eu200 Eu 0.39376 0.34268 0.7528 0.0
Eu201 Eu 0.31289 0.23592 0.84207 0.0
C202 C 0.27634 0.20311 0.69415 0.0
C203 C 0.37005 0.47039 0.68386 0.0
C204 C 0.31763 0.48074 0.74277 0.0
C205 C 0.30882 0.50522 0.6215 0.0
C206 C 0.25913 0.49981 0.74037 0.0
C207 C 0.3667 0.48533 0.62394 0.0
C208 C 0.25243 0.50922 0.67865 0.0
C209 C 0.41698 0.43035 0.68034 0.0
O210 O 0.40168 0.19497 0.76906 0.0
O211 O 0.47568 0.28119 0.71613 0.0
C212 C 0.46267 0.22143 0.73 0.0
O213 O 0.48556 0.37413 0.81056 0.0
O214 O 0.26905 0.12864 0.84499 0.0
O215 O 0.27498 0.20773 0.94065 0.0
O216 O 0.41752 0.30438 0.88403 0.0
C217 C 0.47921 0.34883 0.86253 0.0
O218 O 0.30986 0.3853 0.84139 0.0
O219 O 0.23777 0.30111 0.89506 0.0
O220 O 0.24528 0.2045 0.75835 0.0
O221 O 0.44767 0.44494 0.73379 0.0
O222 O 0.3875 0.36474 0.65908 0.0
O223 O 0.34202 0.24346 0.68053 0.0
C224 C 0.31083 0.11485 0.93412 0.0
C225 C 0.38064 0.11382 0.89823 0.0
C226 C 0.32901 0.07608 1.0232 0.0
C227 C 0.42495 0.09406 0.92504 0.0
C228 C 0.28547 0.0958 0.99654 0.0
C229 C 0.39952 0.07515 0.98811 0.0
C230 C 0.26758 0.14328 0.9114 0.0
C231 C 0.25207 0.36246 0.88673 0.0
H232 H 0.32015 0.47165 0.79008 0.0
H233 H 0.30594 0.51311 0.57315 0.0
H234 H 0.21738 0.50323 0.78545 0.0
H235 H 0.40603 0.47722 0.57769 0.0
H236 H 0.40145 0.12951 0.85027 0.0
H237 H 0.30711 0.06275 0.07257 0.0
H238 H 0.47871 0.09431 0.89711 0.0
H239 H 0.23248 0.09748 1.02545 0.0
Eu240 Eu 0.87892 0.21862 0.80672 0.0
Eu241 Eu 0.78666 0.30283 0.81383 0.0
C242 C 0.77226 0.16796 0.70213 0.0
C243 C 1.01891 0.19571 0.86887 0.0
C244 C 1.05269 0.25944 0.85126 0.0
C245 C 1.06726 0.14214 0.75797 0.0
C246 C 1.06794 0.25854 0.78063 0.0
C247 C 1.05141 0.14618 0.82885 0.0
C248 C 1.0637 0.1953 0.73298 0.0
C249 C 0.93955 0.17078 0.86778 0.0
O250 O 0.7399 0.26439 0.91143 0.0
O251 O 0.759 0.17206 0.84238 0.0
C252 C 0.72534 0.19972 0.90029 0.0
O253 O 0.94328 0.32311 0.86301 0.0
O254 O 0.67284 0.30365 0.83071 0.0
O255 O 0.75832 0.37003 0.76954 0.0
O256 O 0.85081 0.3659 0.90274 0.0
C257 C 0.91499 0.36738 0.90801 0.0
O258 O 0.94566 0.28105 0.7223 0.0
O259 O 0.89362 0.36605 0.7757 0.0
O260 O 0.79653 0.23315 0.70907 0.0
O261 O 0.90399 0.21452 0.90222 0.0
O262 O 0.92172 0.13989 0.80628 0.0
O263 O 0.7937 0.14397 0.74135 0.0
C264 C 0.73515 0.41377 0.88547 0.0
C265 C 0.79857 0.47013 0.87705 0.0
C266 C 0.76168 0.42486 0.99803 0.0
C267 C 0.83802 0.50433 0.93096 0.0
C268 C 0.71881 0.38926 0.94608 0.0
C269 C 0.80271 0.49269 0.99579 0.0
C270 C 0.70782 0.36657 0.82399 0.0
C271 C 0.94222 0.34341 0.72843 0.0
H272 H 1.04807 0.30573 0.88896 0.0
H273 H 1.06907 0.0933 0.7253 0.0
H274 H 1.07234 0.30327 0.76459 0.0
H275 H 1.04082 0.10036 0.84598 0.0
H276 H 0.81855 0.48642 0.82906 0.0
H277 H 0.74486 0.40967 1.04656 0.0
H278 H 0.88279 0.55046 0.92604 0.0
H279 H 0.67264 0.34509 0.95444 0.0
Eu280 Eu 0.90113 0.81902 0.86494 0.0
Eu281 Eu 0.78421 0.74939 0.76888 0.0
C282 C 0.75817 0.70055 0.90552 0.0
C283 C 0.99936 0.78837 0.9673 0.0
C284 C 0.95183 0.76992 1.02658 0.0
C285 C 1.03587 0.68648 0.94521 0.0
C286 C 0.94554 0.71008 1.0442 0.0
C287 C 1.04116 0.74552 0.92691 0.0
C288 C 0.98727 0.66746 1.0035 0.0
C289 C 0.99539 0.84376 0.94089 0.0
O290 O 0.72747 0.81119 0.86388 0.0
O291 O 0.82946 0.88924 0.9048 0.0
C292 C 0.7584 0.86879 0.9057 0.0
O293 O 0.94402 0.8698 0.77374 0.0
O294 O 0.67468 0.70224 0.74364 0.0
O295 O 0.76594 0.72923 0.66351 0.0
O296 O 0.83218 0.8594 0.76104 0.0
C297 C 0.90198 0.88771 0.74835 0.0
O298 O 0.91101 0.71304 0.81112 0.0
O299 O 0.88262 0.70897 0.71174 0.0
O300 O 0.75105 0.67693 0.8399 0.0
O301 O 1.01292 0.83681 0.87419 0.0
O302 O 0.93722 0.86281 0.9654 0.0
O303 O 0.80376 0.76033 0.927 0.0
C304 C 0.67181 0.77494 0.67889 0.0
C305 C 0.69538 0.79859 0.6182 0.0
C306 C 0.62986 0.87442 0.73611 0.0
C307 C 0.68754 0.85976 0.61658 0.0
C308 C 0.63867 0.81368 0.73787 0.0
C309 C 0.65481 0.89867 0.67557 0.0
C310 C 0.69672 0.72045 0.68496 0.0
C311 C 0.91979 0.69197 0.74398 0.0
H312 H 0.91765 0.80061 1.05833 0.0
H313 H 1.06913 0.65503 0.91296 0.0
H314 H 0.90855 0.69768 0.09024 0.0
H315 H 1.07625 0.75607 0.87951 0.0
H316 H 0.72257 0.7712 0.57264 0.0
H317 H 0.60366 0.90245 0.7824 0.0
H318 H 0.70723 0.87645 0.56886 0.0
H319 H 0.62153 0.79845 0.78634 0.0
Fe320 Fe 0.11135 0.10435 0.56399 0.0
O321 O 1.02877 0.04217 0.616 0.0
Fe322 Fe 0.24763 1.02952 0.51745 0.0
Fe323 Fe 0.92493 0.03185 0.62352 0.0
O324 O 0.14745 1.02505 0.52567 0.0
O325 O 0.14379 1.0192 0.52497 0.0
O326 O 1.0251 0.03632 0.61531 0.0
Fe327 Fe 1.06121 0.95702 0.57698 0.0
C328 C 1.02481 0.17642 0.67409 0.0
O329 O 1.05432 0.07118 0.48531 0.0
O330 O 0.94316 0.07356 0.53928 0.0
O331 O 0.10967 0.88252 0.52736 0.0
O332 O 0.2117 0.92971 0.45887 0.0
O333 O 0.2626 0.08242 0.44126 0.0
O334 O 0.19649 0.15699 0.49897 0.0
O335 O 0.89509 0.93514 0.55743 0.0
O336 O 1.00048 0.92148 0.4991 0.0
C337 C 0.2404 0.13402 0.44656 0.0
O338 O 0.11824 0.9902 0.65566 0.0
O339 O 0.22939 0.98781 0.60169 0.0
O340 O 1.06289 0.17886 0.61362 0.0
O341 O 0.96086 0.13167 0.68211 0.0
C342 C 0.99168 0.0719 0.48495 0.0
C343 C 0.93268 0.9079 0.50409 0.0
C344 C 0.93216 0.92735 0.69441 0.0
O345 O 0.90996 0.97896 0.69972 0.0
O346 O 0.97607 0.90439 0.64201 0.0
C347 C 0.14775 0.88496 0.46689 0.0
O348 O 0.27747 0.12624 0.58355 0.0
O349 O 0.17208 0.13989 0.64188 0.0
C350 C 0.18088 0.98948 0.65602 0.0
C351 C 0.23988 0.15347 0.63689 0.0
Fe352 Fe 0.58878 0.95548 1.06566 0.0
O353 O 0.64232 0.03278 1.01912 0.0
Fe354 Fe 0.42431 0.99101 0.13939 0.0
Fe355 Fe 0.74825 0.07036 1.00158 0.0
O356 O 0.53181 1.02072 0.12163 0.0
O357 O 0.53024 1.02859 0.12185 0.0
O358 O 0.64075 0.04066 1.01934 0.0
Fe359 Fe 0.58378 0.1059 0.07531 0.0
C360 C 0.72867 1.00467 0.11936 0.0
O361 O 0.66128 0.90005 0.99647 0.0
O362 O 0.74147 0.97664 0.93287 0.0
O363 O 0.51272 0.07015 1.00437 0.0
O364 O 0.40952 0.03388 0.074 0.0
O365 O 0.41502 0.90104 1.06303 0.0
O366 O 0.52017 0.91448 0.99173 0.0
O367 O 0.73119 0.11641 0.94042 0.0
O368 O 0.65257 0.17528 1.01091 0.0
C369 C 0.45109 0.892 1.00217 0.0
O370 O 0.51128 0.16133 0.14451 0.0
O371 O 0.43109 0.08473 0.20811 0.0
O372 O 0.65984 0.99123 0.1366 0.0
O373 O 0.76303 1.02749 1.06698 0.0
C374 C 0.71572 0.91677 0.94653 0.0
C375 C 0.69951 0.16213 0.95474 0.0
C376 C 0.72147 0.16937 0.1388 0.0
O377 O 0.75754 0.16033 0.07795 0.0
O378 O 0.65239 0.14689 0.14924 0.0
C379 C 0.44389 0.0567 1.02161 0.0
O380 O 0.44137 0.94496 0.20055 0.0
O381 O 0.51998 0.88609 0.13007 0.0
C382 C 0.45684 0.14461 0.19445 0.0
C383 C 0.47305 0.89925 0.18624 0.0
Fe384 Fe 0.09622 0.61195 0.09195 0.0
O385 O 1.02531 0.52715 0.11813 0.0
Fe386 Fe 0.25237 0.55577 1.02353 0.0
Fe387 Fe 0.92019 0.5056 0.11745 0.0
O388 O 0.14905 0.54426 1.03069 0.0
O389 O 0.14725 0.53422 1.02284 0.0
O390 O 1.02351 0.51712 0.11028 0.0
Fe391 Fe 1.07634 0.44943 1.04902 0.0
C392 C 0.96222 0.64956 0.20646 0.0
O393 O 1.04346 0.59238 1.01218 0.0
O394 O 0.93327 0.58246 1.06951 0.0
O395 O 0.14949 0.39175 0.97784 0.0
O396 O 0.24314 0.47597 0.93469 0.0
O397 O 0.25993 0.6332 0.98054 0.0
O398 O 0.17664 0.68884 1.04631 0.0
O399 O 0.91052 0.43362 1.02374 0.0
O400 O 1.0189 0.42384 0.96754 0.0
C401 C 0.22895 0.68029 0.99483 0.0
O402 O 0.1291 0.46899 0.12879 0.0
O403 O 0.23928 0.47891 0.07147 0.0
O404 O 1.02307 0.66962 0.16313 0.0
O405 O 0.92941 0.58541 0.20628 0.0
C406 C 0.98542 0.60721 1.02508 0.0
C407 C 0.95122 0.41277 0.96905 0.0
C408 C 0.94361 0.38108 0.14614 0.0
O409 O 0.91263 0.42817 0.16043 0.0
O410 O 0.99592 0.37254 0.09466 0.0
C411 C 0.21034 0.41181 0.93451 0.0
O412 O 0.26203 0.62775 0.11724 0.0
O413 O 0.15366 0.63753 0.17344 0.0
C414 C 0.18714 0.45417 0.1159 0.0
C415 C 0.22134 0.64861 0.17192 0.0
Fe416 Fe 0.6105 0.52624 0.99371 0.0
O417 O 0.62794 0.59806 0.08018 0.0
Fe418 Fe 0.44808 0.40511 1.03685 0.0
Fe419 Fe 0.72448 0.65627 0.10412 0.0
O420 O 0.54385 0.46553 1.05507 0.0
O421 O 0.54461 0.46332 1.06079 0.0
O422 O 0.62871 0.59584 0.0859 0.0
Fe423 Fe 0.56206 0.53513 0.14726 0.0
C424 C 0.75434 0.53381 1.0221 0.0
O425 O 0.68385 0.59668 0.93793 0.0
O426 O 0.72621 0.69383 1.02188 0.0
O427 O 0.48216 0.5592 0.13287 0.0
O428 O 0.39226 0.46334 0.10633 0.0
O429 O 0.44622 0.45614 0.96417 0.0
O430 O 0.53085 0.55746 0.98616 0.0
O431 O 0.65987 0.7054 0.17803 0.0
O432 O 0.59209 0.62128 0.23349 0.0
C433 C 0.47773 0.51773 0.95697 0.0
O434 O 0.48871 0.4647 0.20305 0.0
O435 O 0.44635 0.36755 0.1191 0.0
O436 O 0.69039 0.50218 1.00811 0.0
O437 O 0.78029 0.59804 1.03465 0.0
C438 C 0.71852 0.66119 0.95816 0.0
C439 C 0.63712 0.68324 0.23318 0.0
C440 C 0.69483 0.54365 0.184 0.0
O441 O 0.72634 0.60523 0.17681 0.0
O442 O 0.64171 0.50392 0.15482 0.0
C443 C 0.41822 0.52757 0.11887 0.0
O444 O 0.51269 0.35597 0.96294 0.0
O445 O 0.58047 0.44009 0.90748 0.0
C446 C 0.45404 0.40019 0.18282 0.0
C447 C 0.53544 0.37813 0.90779 0.0
Fe448 Fe 1.08458 0.45394 0.56173 0.0
O449 O 1.03892 0.52405 0.62918 0.0
Fe450 Fe 0.12743 0.50427 0.41094 0.0
Fe451 Fe 1.04513 0.5571 0.73003 0.0
O452 O 0.12844 0.52701 0.5093 0.0
O453 O 0.13364 0.53732 0.5118 0.0
O454 O 1.04411 0.53436 0.63168 0.0
Fe455 Fe 0.08797 0.60744 0.57924 0.0
C456 C 0.99264 0.39779 0.69221 0.0
O457 O 0.17358 0.49576 0.60743 0.0
O458 O 0.13502 0.52575 0.7206 0.0
O459 O 0.13973 0.67506 0.50967 0.0
O460 O 0.18764 0.60432 0.41495 0.0
O461 O 0.20856 0.4616 0.40451 0.0
O462 O 0.14988 0.39545 0.48404 0.0
O463 O 0.11134 0.65499 0.7327 0.0
O464 O 0.1801 0.6524 0.63113 0.0
C465 C 0.20254 0.41305 0.43303 0.0
O466 O 0.99897 0.56562 0.53354 0.0
O467 O 1.03754 0.53562 0.42038 0.0
O468 O 1.03283 0.38631 0.6313 0.0
O469 O 0.98492 0.45705 0.72602 0.0
C470 C 0.18363 0.5129 0.66916 0.0
C471 C 0.17367 0.67039 0.69711 0.0
C472 C 0.97002 0.64833 0.70795 0.0
O473 O 0.964 0.59977 0.73647 0.0
O474 O 1.02268 0.66592 0.65693 0.0
C475 C 0.17992 0.66359 0.44876 0.0
O476 O 1.06122 0.40639 0.40828 0.0
O477 O 0.99246 0.40898 0.50985 0.0
C478 C 0.98893 0.54847 0.47181 0.0
C479 C 0.99889 0.39099 0.44386 0.0
Fe480 Fe 0.56609 0.95202 0.56611 0.0
O481 O 0.54212 0.03412 0.63097 0.0
Fe482 Fe 0.62666 1.0046 0.41084 0.0
Fe483 Fe 0.5459 0.05677 0.73013 0.0
O484 O 0.62784 1.01949 0.50921 0.0
O485 O 0.63044 1.02725 0.51001 0.0
O486 O 0.54472 0.04189 0.63176 0.0
Fe487 Fe 0.60647 0.10936 0.57487 0.0
C488 C 0.45345 0.91177 0.69549 0.0
O489 O 0.65188 0.97227 0.61292 0.0
O490 O 0.5964 0.98471 0.72081 0.0
O491 O 0.67659 0.16774 0.50278 0.0
O492 O 0.71838 0.08706 0.41532 0.0
O493 O 0.67357 0.93034 0.40449 0.0
O494 O 0.60693 0.87458 0.4905 0.0
O495 O 0.6457 0.12996 0.72891 0.0
O496 O 0.69552 0.12964 0.61968 0.0
C497 C 0.65843 0.88248 0.43682 0.0
O498 O 0.52068 0.0891 0.52806 0.0
O499 O 0.57615 0.07667 0.42017 0.0
O500 O 0.49597 0.89364 0.6382 0.0
O501 O 0.45417 0.97431 0.72565 0.0
C502 C 0.6395 0.95957 0.67151 0.0
C503 C 0.70065 0.13444 0.68119 0.0
C504 C 0.51412 0.17889 0.70416 0.0
O505 O 0.49899 0.13104 0.73648 0.0
O506 O 0.56562 0.1868 0.65048 0.0
C507 C 0.71911 0.1496 0.44548 0.0
O508 O 0.52686 0.93142 0.41206 0.0
O509 O 0.47704 0.93174 0.5213 0.0
C510 C 0.53306 0.1018 0.46947 0.0
C511 C 0.4719 0.92693 0.45978 0.0
loop_
_geom_bond_atom_site_label_1
_geom_bond_atom_site_label_2
_geom_bond_distance
_geom_bond_site_symmetry_2
_ccdc_geom_bond_type
Eu0 C9 2.828 . S
Eu0 O11 2.392 . S
Eu0 O13 2.418 . S
Eu0 O18 2.373 . S
Eu0 O21 2.488 . S
Eu0 O22 2.471 . S
Eu0 O23 2.349 . S
Eu1 O10 2.373 . S
Eu1 O14 2.488 . S
Eu1 O15 2.471 . S
Eu1 O16 2.349 . S
Eu1 O19 2.392 . S
Eu1 O20 2.418 . S
Eu1 C30 2.828 . S
C2 O20 1.244 . S
C2 O23 1.265 . S
C3 C4 1.379 . S
C3 C7 1.373 . S
C3 C9 1.505 . S
C4 C3 1.379 . S
C4 C6 1.369 . S
C4 H32 0.930 . S
C5 C7 1.383 . S
C5 C8 1.382 . S
C5 H33 0.930 . S
C6 C4 1.369 . S
C6 C8 1.392 . S
C6 H34 0.930 . S
C7 C3 1.373 . S
C7 C5 1.383 . S
C7 H35 0.931 . S
C8 C5 1.382 . S
C8 C6 1.392 . S
C9 Eu0 2.828 . S
C9 C3 1.505 . S
C9 O21 1.249 . S
C9 O22 1.244 . S
O10 Eu1 2.373 . S
O10 C12 1.258 . S
O11 Eu0 2.392 . S
O11 C12 1.242 . S
C12 O10 1.258 . S
C12 O11 1.242 . S
O13 Eu0 2.418 . S
O13 C17 1.244 . S
O14 Eu1 2.488 . S
O14 C30 1.249 . S
O15 Eu1 2.471 . S
O15 C30 1.244 . S
O16 Eu1 2.349 . S
O16 C17 1.265 . S
C17 O13 1.244 . S
C17 O16 1.265 . S
O18 Eu0 2.373 . S
O18 C31 1.258 . S
O19 Eu1 2.392 . S
O19 C31 1.242 . S
O20 Eu1 2.418 . S
O20 C2 1.244 . S
O21 Eu0 2.488 . S
O21 C9 1.249 . S
O22 Eu0 2.471 . S
O22 C9 1.244 . S
O23 Eu0 2.349 . S
O23 C2 1.265 . S
C24 C25 1.379 . S
C24 C28 1.373 . S
C24 C30 1.505 . S
C25 C24 1.379 . S
C25 C27 1.369 . S
C25 H36 0.930 . S
C26 C28 1.383 1_655 S
C26 C29 1.382 1_655 S
C26 H37 0.930 . S
C27 C25 1.369 . S
C27 C29 1.394 . S
C27 H38 0.930 . S
C28 C24 1.373 . S
C28 C26 1.383 1_455 S
C28 H39 0.931 1_455 S
C29 C26 1.382 1_455 S
C29 C27 1.394 . S
C30 Eu1 2.828 . S
C30 O14 1.249 . S
C30 O15 1.244 . S
C30 C24 1.505 . S
C31 O18 1.258 . S
C31 O19 1.242 . S
H32 C4 0.930 . S
H33 C5 0.930 . S
H34 C6 0.930 . S
H35 C7 0.931 . S
H36 C25 0.930 . S
H37 C26 0.930 . S
H38 C27 0.930 . S
H39 C28 0.931 1_655 S
Eu40 C49 2.828 . S
Eu40 O51 2.392 . S
Eu40 O53 2.418 . S
Eu40 O58 2.373 . S
Eu40 O61 2.488 . S
Eu40 O62 2.471 . S
Eu40 O63 2.349 . S
Eu41 O50 2.373 . S
Eu41 O54 2.488 . S
Eu41 O55 2.471 . S
Eu41 O56 2.349 . S
Eu41 O59 2.392 . S
Eu41 O60 2.418 . S
Eu41 C70 2.828 . S
C42 O60 1.244 . S
C42 O63 1.265 . S
C43 C44 1.379 . S
C43 C47 1.373 . S
C43 C49 1.505 . S
C44 C43 1.379 . S
C44 C46 1.369 . S
C44 H72 0.930 . S
C45 C47 1.383 1_565 S
C45 C48 1.382 1_565 S
C45 H73 0.930 . S
C46 C44 1.369 . S
C46 C48 1.392 . S
C46 H74 0.930 . S
C47 C43 1.373 . S
C47 C45 1.383 1_545 S
C47 H75 0.931 . S
C48 C45 1.382 1_545 S
C48 C46 1.392 . S
C49 Eu40 2.828 . S
C49 C43 1.505 . S
C49 O61 1.249 . S
C49 O62 1.244 . S
O50 Eu41 2.373 . S
O50 C52 1.258 . S
O51 Eu40 2.392 . S
O51 C52 1.242 . S
C52 O50 1.258 . S
C52 O51 1.242 . S
O53 Eu40 2.418 . S
O53 C57 1.244 . S
O54 Eu41 2.488 . S
O54 C70 1.249 . S
O55 Eu41 2.471 . S
O55 C70 1.244 . S
O56 Eu41 2.349 . S
O56 C57 1.265 . S
C57 O53 1.244 . S
C57 O56 1.265 . S
O58 Eu40 2.373 . S
O58 C71 1.258 . S
O59 Eu41 2.392 . S
O59 C71 1.242 . S
O60 Eu41 2.418 . S
O60 C42 1.244 . S
O61 Eu40 2.488 . S
O61 C49 1.249 . S
O62 Eu40 2.471 . S
O62 C49 1.244 . S
O63 Eu40 2.349 . S
O63 C42 1.265 . S
C64 C65 1.379 . S
C64 C68 1.373 . S
C64 C70 1.505 . S
C65 C64 1.379 . S
C65 C67 1.369 . S
C65 H76 0.930 . S
C66 C68 1.383 . S
C66 C69 1.382 . S
C66 H77 0.930 . S
C67 C65 1.369 . S
C67 C69 1.392 . S
C67 H78 0.930 . S
C68 C64 1.373 . S
C68 C66 1.383 . S
C68 H79 0.931 . S
C69 C66 1.382 . S
C69 C67 1.392 . S
C70 Eu41 2.828 . S
C70 O54 1.249 . S
C70 O55 1.244 . S
C70 C64 1.505 . S
C71 O58 1.258 . S
C71 O59 1.242 . S
H72 C44 0.930 . S
H73 C45 0.930 . S
H74 C46 0.930 . S
H75 C47 0.931 . S
H76 C65 0.930 . S
H77 C66 0.930 . S
H78 C67 0.930 . S
H79 C68 0.931 . S
Eu80 C89 2.828 . S
Eu80 O91 2.392 . S
Eu80 O93 2.418 . S
Eu80 O98 2.373 . S
Eu80 O101 2.488 . S
Eu80 O102 2.471 . S
Eu80 O103 2.349 . S
Eu81 O90 2.373 . S
Eu81 O94 2.488 . S
Eu81 O95 2.471 . S
Eu81 O96 2.349 . S
Eu81 O99 2.392 . S
Eu81 O100 2.418 . S
Eu81 C110 2.828 . S
C82 O100 1.244 . S
C82 O103 1.265 . S
C83 C84 1.379 . S
C83 C87 1.373 . S
C83 C89 1.505 . S
C84 C83 1.379 . S
C84 C86 1.369 . S
C84 H112 0.930 . S
C85 C87 1.383 1_545 S
C85 C88 1.382 1_545 S
C85 H113 0.930 . S
C86 C84 1.369 . S
C86 C88 1.392 . S
C86 H114 0.930 . S
C87 C83 1.373 . S
C87 C85 1.383 1_565 S
C87 H115 0.931 1_565 S
C88 C85 1.382 1_565 S
C88 C86 1.392 . S
C89 Eu80 2.828 . S
C89 C83 1.505 . S
C89 O101 1.249 . S
C89 O102 1.244 . S
O90 Eu81 2.373 . S
O90 C92 1.258 . S
O91 Eu80 2.392 . S
O91 C92 1.242 . S
C92 O90 1.258 . S
C92 O91 1.242 . S
O93 Eu80 2.418 . S
O93 C97 1.244 . S
O94 Eu81 2.488 . S
O94 C110 1.249 . S
O95 Eu81 2.471 . S
O95 C110 1.244 . S
O96 Eu81 2.349 . S
O96 C97 1.265 . S
C97 O93 1.244 . S
C97 O96 1.265 . S
O98 Eu80 2.373 . S
O98 C111 1.258 . S
O99 Eu81 2.392 . S
O99 C111 1.242 . S
O100 Eu81 2.418 . S
O100 C82 1.244 . S
O101 Eu80 2.488 . S
O101 C89 1.249 . S
O102 Eu80 2.471 . S
O102 C89 1.244 . S
O103 Eu80 2.349 . S
O103 C82 1.265 . S
C104 C105 1.379 . S
C104 C108 1.373 . S
C104 C110 1.505 . S
C105 C104 1.379 . S
C105 C107 1.369 . S
C105 H116 0.930 . S
C106 C108 1.383 . S
C106 C109 1.382 . S
C106 H117 0.930 . S
C107 C105 1.369 . S
C107 C109 1.392 . S
C107 H118 0.930 . S
C108 C104 1.373 . S
C108 C106 1.383 . S
C108 H119 0.931 . S
C109 C106 1.382 . S
C109 C107 1.392 . S
C110 Eu81 2.828 . S
C110 O94 1.249 . S
C110 O95 1.244 . S
C110 C104 1.505 . S
C111 O98 1.258 . S
C111 O99 1.242 . S
H112 C84 0.930 . S
H113 C85 0.930 . S
H114 C86 0.930 . S
H115 C87 0.931 1_545 S
H116 C105 0.930 . S
H117 C106 0.930 . S
H118 C107 0.930 . S
H119 C108 0.931 . S
Eu120 C129 2.828 . S
Eu120 O131 2.392 . S
Eu120 O133 2.418 . S
Eu120 O138 2.373 . S
Eu120 O141 2.488 . S
Eu120 O142 2.471 . S
Eu120 O143 2.349 . S
Eu121 O130 2.373 . S
Eu121 O134 2.488 . S
Eu121 O135 2.471 . S
Eu121 O136 2.349 . S
Eu121 O139 2.392 . S
Eu121 O140 2.418 . S
Eu121 C150 2.828 . S
C122 O140 1.244 . S
C122 O143 1.265 . S
C123 C124 1.379 . S
C123 C127 1.373 . S
C123 C129 1.505 . S
C124 C123 1.379 . S
C124 C126 1.376 . S
C124 H152 0.930 . S
C125 C127 1.383 . S
C125 C128 1.382 . S
C125 H153 0.930 . S
C126 C124 1.376 . S
C126 C128 1.397 . S
C126 H154 0.918 1_554 S
C127 C123 1.373 . S
C127 C125 1.383 . S
C127 H155 0.931 . S
C128 C125 1.382 . S
C128 C126 1.397 . S
C129 Eu120 2.828 . S
C129 C123 1.505 . S
C129 O141 1.249 . S
C129 O142 1.244 . S
O130 Eu121 2.373 . S
O130 C132 1.258 . S
O131 Eu120 2.392 . S
O131 C132 1.242 . S
C132 O130 1.258 . S
C132 O131 1.242 . S
O133 Eu120 2.418 . S
O133 C137 1.244 . S
O134 Eu121 2.488 . S
O134 C150 1.249 . S
O135 Eu121 2.471 . S
O135 C150 1.244 . S
O136 Eu121 2.349 . S
O136 C137 1.265 . S
C137 O133 1.244 . S
C137 O136 1.265 . S
O138 Eu120 2.373 . S
O138 C151 1.258 . S
O139 Eu121 2.392 . S
O139 C151 1.242 . S
O140 Eu121 2.418 . S
O140 C122 1.244 . S
O141 Eu120 2.488 . S
O141 C129 1.249 . S
O142 Eu120 2.471 . S
O142 C129 1.244 . S
O143 Eu120 2.349 . S
O143 C122 1.265 . S
C144 C145 1.379 . S
C144 C148 1.373 . S
C144 C150 1.505 . S
C145 C144 1.379 . S
C145 C147 1.369 . S
C145 H156 0.930 . S
C146 C148 1.383 1_655 S
C146 C149 1.382 1_655 S
C146 H157 0.930 . S
C147 C145 1.369 . S
C147 C149 1.392 . S
C147 H158 0.930 . S
C148 C144 1.373 . S
C148 C146 1.383 1_455 S
C148 H159 0.931 . S
C149 C146 1.382 1_455 S
C149 C147 1.392 . S
C150 Eu121 2.828 . S
C150 O134 1.249 . S
C150 O135 1.244 . S
C150 C144 1.505 . S
C151 O138 1.258 . S
C151 O139 1.242 . S
H152 C124 0.930 . S
H153 C125 0.930 . S
H154 C126 0.918 1_556 S
H155 C127 0.931 . S
H156 C145 0.930 . S
H157 C146 0.930 . S
H158 C147 0.930 . S
H159 C148 0.931 . S
Eu160 C169 2.828 . S
Eu160 O171 2.392 . S
Eu160 O173 2.418 . S
Eu160 O178 2.373 . S
Eu160 O181 2.488 . S
Eu160 O182 2.471 . S
Eu160 O183 2.349 . S
Eu161 O170 2.373 . S
Eu161 O174 2.488 . S
Eu161 O175 2.471 . S
Eu161 O176 2.349 . S
Eu161 O179 2.392 . S
Eu161 O180 2.418 . S
Eu161 C190 2.828 . S
C162 O180 1.244 . S
C162 O183 1.265 . S
C163 C164 1.379 . S
C163 C167 1.373 . S
C163 C169 1.505 . S
C164 C163 1.379 . S
C164 C166 1.369 . S
C164 H192 0.930 . S
C165 C167 1.383 . S
C165 C168 1.382 . S
C165 H193 0.930 . S
C166 C164 1.369 . S
C166 C168 1.392 . S
C166 H194 0.930 . S
C167 C163 1.373 . S
C167 C165 1.383 . S
C167 H195 0.931 . S
C168 C165 1.382 . S
C168 C166 1.392 . S
C169 Eu160 2.828 . S
C169 C163 1.505 . S
C169 O181 1.249 . S
C169 O182 1.244 . S
O170 Eu161 2.373 . S
O170 C172 1.258 . S
O171 Eu160 2.392 . S
O171 C172 1.242 . S
C172 O170 1.258 . S
C172 O171 1.242 . S
O173 Eu160 2.418 . S
O173 C177 1.244 . S
O174 Eu161 2.488 . S
O174 C190 1.249 . S
O175 Eu161 2.471 . S
O175 C190 1.244 . S
O176 Eu161 2.349 . S
O176 C177 1.265 . S
C177 O173 1.244 . S
C177 O176 1.265 . S
O178 Eu160 2.373 . S
O178 C191 1.258 . S
O179 Eu161 2.392 . S
O179 C191 1.242 . S
O180 Eu161 2.418 . S
O180 C162 1.244 . S
O181 Eu160 2.488 . S
O181 C169 1.249 . S
O182 Eu160 2.471 . S
O182 C169 1.244 . S
O183 Eu160 2.349 . S
O183 C162 1.265 . S
C184 C185 1.379 . S
C184 C188 1.373 . S
C184 C190 1.505 . S
C185 C184 1.379 . S
C185 C187 1.369 . S
C185 H196 0.930 . S
C186 C188 1.383 1_545 S
C186 C189 1.382 1_545 S
C186 H197 0.930 . S
C187 C185 1.369 . S
C187 C189 1.392 . S
C187 H198 0.930 . S
C188 C184 1.373 . S
C188 C186 1.383 1_565 S
C188 H199 0.931 . S
C189 C186 1.382 1_565 S
C189 C187 1.392 . S
C190 Eu161 2.828 . S
C190 O174 1.249 . S
C190 O175 1.244 . S
C190 C184 1.505 . S
C191 O178 1.258 . S
C191 O179 1.242 . S
H192 C164 0.930 . S
H193 C165 0.930 . S
H194 C166 0.930 . S
H195 C167 0.931 . S
H196 C185 0.930 . S
H197 C186 0.930 . S
H198 C187 0.930 . S
H199 C188 0.931 . S
Eu200 C209 2.828 . S
Eu200 O211 2.392 . S
Eu200 O213 2.418 . S
Eu200 O218 2.373 . S
Eu200 O221 2.488 . S
Eu200 O222 2.471 . S
Eu200 O223 2.349 . S
Eu201 O210 2.373 . S
Eu201 O214 2.488 . S
Eu201 O215 2.471 . S
Eu201 O216 2.349 . S
Eu201 O219 2.392 . S
Eu201 O220 2.418 . S
Eu201 C230 2.828 . S
C202 O220 1.244 . S
C202 O223 1.265 . S
C203 C204 1.379 . S
C203 C207 1.373 . S
C203 C209 1.505 . S
C204 C203 1.379 . S
C204 C206 1.369 . S
C204 H232 0.930 . S
C205 C207 1.383 . S
C205 C208 1.382 . S
C205 H233 0.930 . S
C206 C204 1.369 . S
C206 C208 1.392 . S
C206 H234 0.930 . S
C207 C203 1.373 . S
C207 C205 1.383 . S
C207 H235 0.931 . S
C208 C205 1.382 . S
C208 C206 1.392 . S
C209 Eu200 2.828 . S
C209 C203 1.505 . S
C209 O221 1.249 . S
C209 O222 1.244 . S
O210 Eu201 2.373 . S
O210 C212 1.258 . S
O211 Eu200 2.392 . S
O211 C212 1.242 . S
C212 O210 1.258 . S
C212 O211 1.242 . S
O213 Eu200 2.418 . S
O213 C217 1.244 . S
O214 Eu201 2.488 . S
O214 C230 1.249 . S
O215 Eu201 2.471 . S
O215 C230 1.244 . S
O216 Eu201 2.349 . S
O216 C217 1.265 . S
C217 O213 1.244 . S
C217 O216 1.265 . S
O218 Eu200 2.373 . S
O218 C231 1.258 . S
O219 Eu201 2.392 . S
O219 C231 1.242 . S
O220 Eu201 2.418 . S
O220 C202 1.244 . S
O221 Eu200 2.488 . S
O221 C209 1.249 . S
O222 Eu200 2.471 . S
O222 C209 1.244 . S
O223 Eu200 2.349 . S
O223 C202 1.265 . S
C224 C225 1.379 . S
C224 C228 1.373 . S
C224 C230 1.505 . S
C225 C224 1.379 . S
C225 C227 1.369 . S
C225 H236 0.930 . S
C226 C228 1.383 1_565 S
C226 C229 1.382 1_565 S
C226 H237 0.930 . S
C227 C225 1.369 . S
C227 C229 1.392 . S
C227 H238 0.930 . S
C228 C224 1.373 . S
C228 C226 1.383 1_545 S
C228 H239 0.931 1_545 S
C229 C226 1.382 1_545 S
C229 C227 1.392 . S
C230 Eu201 2.828 . S
C230 O214 1.249 . S
C230 O215 1.244 . S
C230 C224 1.505 . S
C231 O218 1.258 . S
C231 O219 1.242 . S
H232 C204 0.930 . S
H233 C205 0.930 . S
H234 C206 0.930 . S
H235 C207 0.931 . S
H236 C225 0.930 . S
H237 C226 0.930 . S
H238 C227 0.930 . S
H239 C228 0.931 1_565 S
Eu240 C249 2.828 . S
Eu240 O251 2.392 . S
Eu240 O253 2.418 . S
Eu240 O258 2.373 . S
Eu240 O261 2.488 . S
Eu240 O262 2.471 . S
Eu240 O263 2.349 . S
Eu241 O250 2.373 . S
Eu241 O254 2.488 . S
Eu241 O255 2.471 . S
Eu241 O256 2.349 . S
Eu241 O259 2.392 . S
Eu241 O260 2.418 . S
Eu241 C270 2.828 . S
C242 O260 1.244 . S
C242 O263 1.265 . S
C243 C244 1.379 . S
C243 C247 1.373 . S
C243 C249 1.505 . S
C244 C243 1.379 . S
C244 C246 1.369 . S
C244 H272 0.930 . S
C245 C247 1.383 1_455 S
C245 C248 1.382 1_455 S
C245 H273 0.930 . S
C246 C244 1.369 . S
C246 C248 1.392 . S
C246 H274 0.930 . S
C247 C243 1.373 . S
C247 C245 1.383 1_655 S
C247 H275 0.931 . S
C248 C245 1.382 1_655 S
C248 C246 1.392 . S
C249 Eu240 2.828 . S
C249 C243 1.505 . S
C249 O261 1.249 . S
C249 O262 1.244 . S
O250 Eu241 2.373 . S
O250 C252 1.258 . S
O251 Eu240 2.392 . S
O251 C252 1.242 . S
C252 O250 1.258 . S
C252 O251 1.242 . S
O253 Eu240 2.418 . S
O253 C257 1.244 . S
O254 Eu241 2.488 . S
O254 C270 1.249 . S
O255 Eu241 2.471 . S
O255 C270 1.244 . S
O256 Eu241 2.349 . S
O256 C257 1.265 . S
C257 O253 1.244 . S
C257 O256 1.265 . S
O258 Eu240 2.373 . S
O258 C271 1.258 . S
O259 Eu241 2.392 . S
O259 C271 1.242 . S
O260 Eu241 2.418 . S
O260 C242 1.244 . S
O261 Eu240 2.488 . S
O261 C249 1.249 . S
O262 Eu240 2.471 . S
O262 C249 1.244 . S
O263 Eu240 2.349 . S
O263 C242 1.265 . S
C264 C265 1.379 . S
C264 C268 1.373 . S
C264 C270 1.505 . S
C265 C264 1.379 . S
C265 C267 1.373 . S
C265 H276 0.930 . S
C266 C268 1.383 . S
C266 C269 1.382 . S
C266 H277 0.930 . S
C267 C265 1.373 . S
C267 C269 1.395 . S
C267 H278 0.924 1_556 S
C268 C264 1.373 . S
C268 C266 1.383 . S
C268 H279 0.931 . S
C269 C266 1.382 . S
C269 C267 1.395 . S
C270 Eu241 2.828 . S
C270 O254 1.249 . S
C270 O255 1.244 . S
C270 C264 1.505 . S
C271 O258 1.258 . S
C271 O259 1.242 . S
H272 C244 0.930 . S
H273 C245 0.930 . S
H274 C246 0.930 . S
H275 C247 0.931 . S
H276 C265 0.930 . S
H277 C266 0.930 . S
H278 C267 0.924 1_554 S
H279 C268 0.931 . S
Eu280 C289 2.828 . S
Eu280 O291 2.392 . S
Eu280 O293 2.418 . S
Eu280 O298 2.373 . S
Eu280 O301 2.488 . S
Eu280 O302 2.471 . S
Eu280 O303 2.349 . S
Eu281 O290 2.373 . S
Eu281 O294 2.488 . S
Eu281 O295 2.471 . S
Eu281 O296 2.349 . S
Eu281 O299 2.392 . S
Eu281 O300 2.418 . S
Eu281 C310 2.828 . S
C282 O300 1.244 . S
C282 O303 1.265 . S
C283 C284 1.379 . S
C283 C287 1.373 . S
C283 C289 1.505 . S
C284 C283 1.379 . S
C284 C286 1.369 . S
C284 H312 0.930 . S
C285 C287 1.383 1_455 S
C285 C288 1.382 . S
C285 H313 0.930 . S
C286 C284 1.369 . S
C286 C288 1.391 1_655 S
C286 H314 0.930 . S
C287 C283 1.373 . S
C287 C285 1.383 1_655 S
C287 H315 0.931 1_655 S
C288 C285 1.382 . S
C288 C286 1.391 1_455 S
C289 Eu280 2.828 . S
C289 C283 1.505 . S
C289 O301 1.249 . S
C289 O302 1.244 . S
O290 Eu281 2.373 . S
O290 C292 1.258 . S
O291 Eu280 2.392 . S
O291 C292 1.242 . S
C292 O290 1.258 . S
C292 O291 1.242 . S
O293 Eu280 2.418 . S
O293 C297 1.244 . S
O294 Eu281 2.488 . S
O294 C310 1.249 . S
O295 Eu281 2.471 . S
O295 C310 1.244 . S
O296 Eu281 2.349 . S
O296 C297 1.265 . S
C297 O293 1.244 . S
C297 O296 1.265 . S
O298 Eu280 2.373 . S
O298 C311 1.258 . S
O299 Eu281 2.392 . S
O299 C311 1.242 . S
O300 Eu281 2.418 . S
O300 C282 1.244 . S
O301 Eu280 2.488 . S
O301 C289 1.249 . S
O302 Eu280 2.471 . S
O302 C289 1.244 . S
O303 Eu280 2.349 . S
O303 C282 1.265 . S
C304 C305 1.379 . S
C304 C308 1.373 . S
C304 C310 1.505 . S
C305 C304 1.379 . S
C305 C307 1.369 . S
C305 H316 0.930 . S
C306 C308 1.383 . S
C306 C309 1.382 . S
C306 H317 0.930 . S
C307 C305 1.369 . S
C307 C309 1.392 . S
C307 H318 0.930 . S
C308 C304 1.373 . S
C308 C306 1.383 . S
C308 H319 0.931 . S
C309 C306 1.382 . S
C309 C307 1.392 . S
C310 Eu281 2.828 . S
C310 O294 1.249 . S
C310 O295 1.244 . S
C310 C304 1.505 . S
C311 O298 1.258 . S
C311 O299 1.242 . S
H312 C284 0.930 . S
H313 C285 0.930 . S
H314 C286 0.930 . S
H315 C287 0.931 1_455 S
H316 C305 0.930 . S
H317 C306 0.930 . S
H318 C307 0.930 . S
H319 C308 0.931 . S
Fe320 O321 1.886 1_455 S
Fe320 O324 1.715 . S
Fe320 O329 2.077 1_455 S
Fe320 O334 1.935 . S
Fe320 O340 2.077 1_455 S
Fe320 O349 1.935 . S
O321 Fe320 1.886 1_655 S
O321 Fe323 1.715 1_545 S
Fe322 O324 1.886 . S
Fe322 O325 1.715 1_545 S
Fe322 O332 1.935 1_545 S
Fe322 O333 2.077 . S
Fe322 O339 1.935 1_545 S
Fe322 O348 2.077 . S
Fe323 O321 1.715 1_565 S
Fe323 O326 1.886 . S
Fe323 O330 1.935 1_565 S
Fe323 O335 2.077 . S
Fe323 O341 1.935 1_565 S
Fe323 O345 2.077 . S
O324 Fe320 1.715 . S
O324 Fe322 1.886 . S
O325 Fe322 1.715 1_565 S
O325 Fe327 1.886 1_455 S
O326 Fe323 1.886 . S
O326 Fe327 1.715 . S
Fe327 O325 1.886 1_655 S
Fe327 O326 1.715 . S
Fe327 O331 2.077 1_655 S
Fe327 O336 1.935 . S
Fe327 O338 2.077 1_655 S
Fe327 O346 1.935 . S
C328 O340 1.381 . S
C328 O341 1.421 . S
O329 Fe320 2.077 1_655 S
O329 C342 1.381 . S
O330 Fe323 1.935 1_545 S
O330 C342 1.421 . S
O331 Fe327 2.077 1_455 S
O331 C347 1.381 . S
O332 Fe322 1.935 1_565 S
O332 C347 1.421 . S
O333 Fe322 2.077 . S
O333 C337 1.381 . S
O334 Fe320 1.935 . S
O334 C337 1.421 . S
O335 Fe323 2.077 . S
O335 C343 1.381 . S
O336 Fe327 1.935 . S
O336 C343 1.421 . S
C337 O333 1.381 . S
C337 O334 1.421 . S
O338 Fe327 2.077 1_455 S
O338 C350 1.381 . S
O339 Fe322 1.935 1_565 S
O339 C350 1.421 . S
O340 Fe320 2.077 1_655 S
O340 C328 1.381 . S
O341 Fe323 1.935 1_545 S
O341 C328 1.421 . S
C342 O329 1.381 . S
C342 O330 1.421 . S
C343 O335 1.381 . S
C343 O336 1.421 . S
C344 O345 1.381 . S
C344 O346 1.421 . S
O345 Fe323 2.077 . S
O345 C344 1.381 . S
O346 Fe327 1.935 . S
O346 C344 1.421 . S
C347 O331 1.381 . S
C347 O332 1.421 . S
O348 Fe322 2.077 . S
O348 C351 1.381 . S
O349 Fe320 1.935 . S
O349 C351 1.421 . S
C350 O338 1.381 . S
C350 O339 1.421 . S
C351 O348 1.381 . S
C351 O349 1.421 . S
Fe352 O353 1.886 . S
Fe352 O356 1.715 . S
Fe352 O361 2.077 . S
Fe352 O366 1.935 . S
Fe352 O372 2.077 1_556 S
Fe352 O381 1.935 1_556 S
O353 Fe352 1.886 . S
O353 Fe355 1.715 1_565 S
Fe354 O356 1.886 1_554 S
Fe354 O357 1.715 1_565 S
Fe354 O364 1.935 1_564 S
Fe354 O365 2.077 1_554 S
Fe354 O371 1.935 1_565 S
Fe354 O380 2.077 . S
Fe355 O353 1.715 1_545 S
Fe355 O358 1.886 1_556 S
Fe355 O362 1.935 1_545 S
Fe355 O367 2.077 . S
Fe355 O373 1.935 1_546 S
Fe355 O377 2.077 1_556 S
O356 Fe352 1.715 . S
O356 Fe354 1.886 1_556 S
O357 Fe354 1.715 1_545 S
O357 Fe359 1.886 . S
O358 Fe355 1.886 1_554 S
O358 Fe359 1.715 . S
Fe359 O357 1.886 . S
Fe359 O358 1.715 . S
Fe359 O363 2.077 1_554 S
Fe359 O368 1.935 1_554 S
Fe359 O370 2.077 . S
Fe359 O378 1.935 . S
C360 O372 1.381 . S
C360 O373 1.421 . S
O361 Fe352 2.077 . S
O361 C374 1.381 . S
O362 Fe355 1.935 1_565 S
O362 C374 1.421 . S
O363 Fe359 2.077 1_556 S
O363 C379 1.381 . S
O364 Fe354 1.935 1_546 S
O364 C379 1.421 . S
O365 Fe354 2.077 1_556 S
O365 C369 1.381 . S
O366 Fe352 1.935 . S
O366 C369 1.421 . S
O367 Fe355 2.077 . S
O367 C375 1.381 . S
O368 Fe359 1.935 1_556 S
O368 C375 1.421 . S
C369 O365 1.381 . S
C369 O366 1.421 . S
O370 Fe359 2.077 . S
O370 C382 1.381 . S
O371 Fe354 1.935 1_545 S
O371 C382 1.421 . S
O372 Fe352 2.077 1_554 S
O372 C360 1.381 . S
O373 Fe355 1.935 1_564 S
O373 C360 1.421 . S
C374 O361 1.381 . S
C374 O362 1.421 . S
C375 O367 1.381 . S
C375 O368 1.421 . S
C376 O377 1.381 . S
C376 O378 1.421 . S
O377 Fe355 2.077 1_554 S
O377 C376 1.381 . S
O378 Fe359 1.935 . S
O378 C376 1.421 . S
C379 O363 1.381 . S
C379 O364 1.421 . S
O380 Fe354 2.077 . S
O380 C383 1.381 . S
O381 Fe352 1.935 1_554 S
O381 C383 1.421 . S
C382 O370 1.381 . S
C382 O371 1.421 . S
C383 O380 1.381 . S
C383 O381 1.421 . S
Fe384 O385 1.886 1_455 S
Fe384 O388 1.715 . S
Fe384 O393 2.077 1_454 S
Fe384 O398 1.935 1_554 S
Fe384 O404 2.077 1_455 S
Fe384 O413 1.935 . S
O385 Fe384 1.886 1_655 S
O385 Fe387 1.715 . S
Fe386 O388 1.886 1_556 S
Fe386 O389 1.715 . S
Fe386 O396 1.935 . S
Fe386 O397 2.077 . S
Fe386 O403 1.935 1_556 S
Fe386 O412 2.077 1_556 S
Fe387 O385 1.715 . S
Fe387 O390 1.886 1_554 S
Fe387 O394 1.935 1_554 S
Fe387 O399 2.077 1_554 S
Fe387 O405 1.935 . S
Fe387 O409 2.077 . S
O388 Fe384 1.715 . S
O388 Fe386 1.886 1_554 S
O389 Fe386 1.715 . S
O389 Fe391 1.886 1_455 S
O390 Fe387 1.886 1_556 S
O390 Fe391 1.715 . S
Fe391 O389 1.886 1_655 S
Fe391 O390 1.715 . S
Fe391 O395 2.077 1_655 S
Fe391 O400 1.935 . S
Fe391 O402 2.077 1_656 S
Fe391 O410 1.935 1_556 S
C392 O404 1.381 . S
C392 O405 1.421 . S
O393 Fe384 2.077 1_656 S
O393 C406 1.381 . S
O394 Fe387 1.935 1_556 S
O394 C406 1.421 . S
O395 Fe391 2.077 1_455 S
O395 C411 1.381 . S
O396 Fe386 1.935 . S
O396 C411 1.421 . S
O397 Fe386 2.077 . S
O397 C401 1.381 . S
O398 Fe384 1.935 1_556 S
O398 C401 1.421 . S
O399 Fe387 2.077 1_556 S
O399 C407 1.381 . S
O400 Fe391 1.935 . S
O400 C407 1.421 . S
C401 O397 1.381 . S
C401 O398 1.421 . S
O402 Fe391 2.077 1_454 S
O402 C414 1.381 . S
O403 Fe386 1.935 1_554 S
O403 C414 1.421 . S
O404 Fe384 2.077 1_655 S
O404 C392 1.381 . S
O405 Fe387 1.935 . S
O405 C392 1.421 . S
C406 O393 1.381 . S
C406 O394 1.421 . S
C407 O399 1.381 . S
C407 O400 1.421 . S
C408 O409 1.381 . S
C408 O410 1.421 . S
O409 Fe387 2.077 . S
O409 C408 1.381 . S
O410 Fe391 1.935 1_554 S
O410 C408 1.421 . S
C411 O395 1.381 . S
C411 O396 1.421 . S
O412 Fe386 2.077 1_554 S
O412 C415 1.381 . S
O413 Fe384 1.935 . S
O413 C415 1.421 . S
C414 O402 1.381 . S
C414 O403 1.421 . S
C415 O412 1.381 . S
C415 O413 1.421 . S
Fe416 O417 1.886 . S
Fe416 O420 1.715 . S
Fe416 O425 2.077 . S
Fe416 O430 1.935 . S
Fe416 O436 2.077 . S
Fe416 O445 1.935 . S
O417 Fe416 1.886 . S
O417 Fe419 1.715 . S
Fe418 O420 1.886 1_554 S
Fe418 O421 1.715 . S
Fe418 O428 1.935 . S
Fe418 O429 2.077 1_554 S
Fe418 O435 1.935 . S
Fe418 O444 2.077 1_554 S
Fe419 O417 1.715 . S
Fe419 O422 1.886 1_556 S
Fe419 O426 1.935 . S
Fe419 O431 2.077 1_556 S
Fe419 O437 1.935 . S
Fe419 O441 2.077 1_556 S
O420 Fe416 1.715 . S
O420 Fe418 1.886 1_556 S
O421 Fe418 1.715 . S
O421 Fe423 1.886 . S
O422 Fe419 1.886 1_554 S
O422 Fe423 1.715 . S
Fe423 O421 1.886 . S
Fe423 O422 1.715 . S
Fe423 O427 2.077 . S
Fe423 O432 1.935 . S
Fe423 O434 2.077 . S
Fe423 O442 1.935 . S
C424 O436 1.381 . S
C424 O437 1.421 . S
O425 Fe416 2.077 . S
O425 C438 1.381 . S
O426 Fe419 1.935 . S
O426 C438 1.421 . S
O427 Fe423 2.077 . S
O427 C443 1.381 . S
O428 Fe418 1.935 . S
O428 C443 1.421 . S
O429 Fe418 2.077 1_556 S
O429 C433 1.381 . S
O430 Fe416 1.935 . S
O430 C433 1.421 . S
O431 Fe419 2.077 1_554 S
O431 C439 1.381 . S
O432 Fe423 1.935 . S
O432 C439 1.421 . S
C433 O429 1.381 . S
C433 O430 1.421 . S
O434 Fe423 2.077 . S
O434 C446 1.381 . S
O435 Fe418 1.935 . S
O435 C446 1.421 . S
O436 Fe416 2.077 . S
O436 C424 1.381 . S
O437 Fe419 1.935 . S
O437 C424 1.421 . S
C438 O425 1.381 . S
C438 O426 1.421 . S
C439 O431 1.381 . S
C439 O432 1.421 . S
C440 O441 1.381 . S
C440 O442 1.421 . S
O441 Fe419 2.077 1_554 S
O441 C440 1.381 . S
O442 Fe423 1.935 . S
O442 C440 1.421 . S
C443 O427 1.381 . S
C443 O428 1.421 . S
O444 Fe418 2.077 1_556 S
O444 C447 1.381 . S
O445 Fe416 1.935 . S
O445 C447 1.421 . S
C446 O434 1.381 . S
C446 O435 1.421 . S
C447 O444 1.381 . S
C447 O445 1.421 . S
Fe448 O449 1.886 . S
Fe448 O452 1.715 . S
Fe448 O457 2.077 1_655 S
Fe448 O462 1.935 1_655 S
Fe448 O468 2.077 . S
Fe448 O477 1.935 . S
O449 Fe448 1.886 . S
O449 Fe451 1.715 . S
Fe450 O452 1.886 1_455 S
Fe450 O453 1.715 . S
Fe450 O460 1.935 . S
Fe450 O461 2.077 . S
Fe450 O467 1.935 1_455 S
Fe450 O476 2.077 1_455 S
Fe451 O449 1.715 . S
Fe451 O454 1.886 1_655 S
Fe451 O458 1.935 1_655 S
Fe451 O463 2.077 1_655 S
Fe451 O469 1.935 . S
Fe451 O473 2.077 . S
O452 Fe448 1.715 . S
O452 Fe450 1.886 1_655 S
O453 Fe450 1.715 . S
O453 Fe455 1.886 . S
O454 Fe451 1.886 1_455 S
O454 Fe455 1.715 . S
Fe455 O453 1.886 . S
Fe455 O454 1.715 . S
Fe455 O459 2.077 . S
Fe455 O464 1.935 . S
Fe455 O466 2.077 1_455 S
Fe455 O474 1.935 1_455 S
C456 O468 1.381 . S
C456 O469 1.421 . S
O457 Fe448 2.077 1_455 S
O457 C470 1.381 . S
O458 Fe451 1.935 1_455 S
O458 C470 1.421 . S
O459 Fe455 2.077 . S
O459 C475 1.381 . S
O460 Fe450 1.935 . S
O460 C475 1.421 . S
O461 Fe450 2.077 . S
O461 C465 1.381 . S
O462 Fe448 1.935 1_455 S
O462 C465 1.421 . S
O463 Fe451 2.077 1_455 S
O463 C471 1.381 . S
O464 Fe455 1.935 . S
O464 C471 1.421 . S
C465 O461 1.381 . S
C465 O462 1.421 . S
O466 Fe455 2.077 1_655 S
O466 C478 1.381 . S
O467 Fe450 1.935 1_655 S
O467 C478 1.421 . S
O468 Fe448 2.077 . S
O468 C456 1.381 . S
O469 Fe451 1.935 . S
O469 C456 1.421 . S
C470 O457 1.381 . S
C470 O458 1.421 . S
C471 O463 1.381 . S
C471 O464 1.421 . S
C472 O473 1.381 . S
C472 O474 1.421 . S
O473 Fe451 2.077 . S
O473 C472 1.381 . S
O474 Fe455 1.935 1_655 S
O474 C472 1.421 . S
C475 O459 1.381 . S
C475 O460 1.421 . S
O476 Fe450 2.077 1_655 S
O476 C479 1.381 . S
O477 Fe448 1.935 . S
O477 C479 1.421 . S
C478 O466 1.381 . S
C478 O467 1.421 . S
C479 O476 1.381 . S
C479 O477 1.421 . S
Fe480 O481 1.886 . S
Fe480 O484 1.715 . S
Fe480 O489 2.077 . S
Fe480 O494 1.935 . S
Fe480 O500 2.077 . S
Fe480 O509 1.935 . S
O481 Fe480 1.886 . S
O481 Fe483 1.715 1_565 S
Fe482 O484 1.886 . S
Fe482 O485 1.715 1_565 S
Fe482 O492 1.935 1_565 S
Fe482 O493 2.077 . S
Fe482 O499 1.935 1_565 S
Fe482 O508 2.077 . S
Fe483 O481 1.715 1_545 S
Fe483 O486 1.886 . S
Fe483 O490 1.935 1_545 S
Fe483 O495 2.077 . S
Fe483 O501 1.935 1_545 S
Fe483 O505 2.077 . S
O484 Fe480 1.715 . S
O484 Fe482 1.886 . S
O485 Fe482 1.715 1_545 S
O485 Fe487 1.886 . S
O486 Fe483 1.886 . S
O486 Fe487 1.715 . S
Fe487 O485 1.886 . S
Fe487 O486 1.715 . S
Fe487 O491 2.077 . S
Fe487 O496 1.935 . S
Fe487 O498 2.077 . S
Fe487 O506 1.935 . S
C488 O500 1.381 . S
C488 O501 1.421 . S
O489 Fe480 2.077 . S
O489 C502 1.381 . S
O490 Fe483 1.935 1_565 S
O490 C502 1.421 . S
O491 Fe487 2.077 . S
O491 C507 1.381 . S
O492 Fe482 1.935 1_545 S
O492 C507 1.421 . S
O493 Fe482 2.077 . S
O493 C497 1.381 . S
O494 Fe480 1.935 . S
O494 C497 1.421 . S
O495 Fe483 2.077 . S
O495 C503 1.381 . S
O496 Fe487 1.935 . S
O496 C503 1.421 . S
C497 O493 1.381 . S
C497 O494 1.421 . S
O498 Fe487 2.077 . S
O498 C510 1.381 . S
O499 Fe482 1.935 1_545 S
O499 C510 1.421 . S
O500 Fe480 2.077 . S
O500 C488 1.381 . S
O501 Fe483 1.935 1_565 S
O501 C488 1.421 . S
C502 O489 1.381 . S
C502 O490 1.421 . S
C503 O495 1.381 . S
C503 O496 1.421 . S
C504 O505 1.381 . S
C504 O506 1.421 . S
O505 Fe483 2.077 . S
O505 C504 1.381 . S
O506 Fe487 1.935 . S
O506 C504 1.421 . S
C507 O491 1.381 . S
C507 O492 1.421 . S
O508 Fe482 2.077 . S
O508 C511 1.381 . S
O509 Fe480 1.935 . S
O509 C511 1.421 . S
C510 O498 1.381 . S
C510 O499 1.421 . S
C511 O508 1.381 . S
C511 O509 1.421 . S
C337 C2 2.932 . S
C342 C48 1.683 . S
C343 C97 2.496 . S
C149 C347 2.620 . S
C189 C350 1.683 . S
C351 C202 2.496 . S
C248 C328 2.620 . S
C297 C344 2.932 . S
C382 C31 3.845 . S
C52 C408 2.193 . S
C360 C88 1.936 . S
C415 C122 1.903 . S
C162 C369 2.278 . S
C411 C231 3.813 . S
C252 C375 2.371 . S
C288 C406 2.280 1_455 S
C29 C414 2.281 . S
C191 C401 2.194 . S
C379 C229 1.936 . S
C407 C257 1.903 . S
C292 C374 3.845 . S
C92 C392 3.813 . S
C383 C151 2.371 . S
C57 C376 2.278 . S
C282 C438 2.700 . S
C168 C433 1.280 . S
C447 C217 1.881 . S
C424 C269 2.991 . S
C69 C440 1.280 . S
C439 C82 1.881 . S
C128 C443 2.991 . S
C17 C446 2.700 . S
C311 C472 4.094 . S
C488 C172 1.889 . S
C208 C470 2.208 . S
C242 C503 1.703 . S
C479 C42 2.259 . S
C111 C497 3.988 . S
C475 C132 1.992 . S
C510 C8 1.908 . S
C502 C309 1.908 . S
C71 C507 1.889 . S
C109 C478 2.208 . S
C511 C137 1.703 . S
C12 C465 4.094 . S
C212 C504 3.989 . S
C456 C271 1.992 . S
C471 C177 2.259 . S
