# Generated by pormake.
# Topology pth, (4,4)-cn, num edge types: 1
# Building blocks:
#     Node 0, Type 0, BuildingBlock: GALJAG_clean_sbu_0, # of connection points: 4
#     Node 1, Type 0, BuildingBlock: GALJAG_clean_sbu_0, # of connection points: 4
#     Node 2, Type 0, BuildingBlock: GALJAG_clean_sbu_0, # of connection points: 4
#     Node 3, Type 1, BuildingBlock: KOZSID_clean_sbu_0, # of connection points: 4
#     Node 4, Type 1, BuildingBlock: KOZSID_clean_sbu_0, # of connection points: 4
#     Node 5, Type 1, BuildingBlock: KOZSID_clean_sbu_0, # of connection points: 4
#     Edge 6, Type (0, 1), BuildingBlock: XIVTED_clean_linker_0, # of connection points: 2
#     Edge 7, Type (0, 1), BuildingBlock: XIVTED_clean_linker_0, # of connection points: 2
#     Edge 8, Type (0, 1), BuildingBlock: XIVTED_clean_linker_0, # of connection points: 2
#     Edge 9, Type (0, 1), BuildingBlock: XIVTED_clean_linker_0, # of connection points: 2
#     Edge 10, Type (0, 1), BuildingBlock: XIVTED_clean_linker_0, # of connection points: 2
#     Edge 11, Type (0, 1), BuildingBlock: XIVTED_clean_linker_0, # of connection points: 2
#     Edge 12, Type (0, 1), BuildingBlock: XIVTED_clean_linker_0, # of connection points: 2
#     Edge 13, Type (0, 1), BuildingBlock: XIVTED_clean_linker_0, # of connection points: 2
#     Edge 14, Type (0, 1), BuildingBlock: XIVTED_clean_linker_0, # of connection points: 2
#     Edge 15, Type (0, 1), BuildingBlock: XIVTED_clean_linker_0, # of connection points: 2
#     Edge 16, Type (0, 1), BuildingBlock: XIVTED_clean_linker_0, # of connection points: 2
#     Edge 17, Type (0, 1), BuildingBlock: XIVTED_clean_linker_0, # of connection points: 2
# Relax obj value: 0.002
# Max RMSD: 0.043
# Mean RMSD: 0.025
data_MOF--net-pth--node1-GALJAG_clean_sbu_0--node2-KOZSID_clean_sbu_0--edge1-XIVTED_clean_linker_0
_symmetry_space_group_name_H-M    P1
_symmetry_Int_Tables_number       1
_symmetry_cell_setting            triclinic
loop_
_symmetry_equiv_pos_as_xyz
'x, y, z'
_cell_length_a     27.229324
_cell_length_b     27.241956
_cell_length_c     59.415872
_cell_angle_alpha  87.581044
_cell_angle_beta   87.489855
_cell_angle_gamma 119.98534
loop_
_atom_site_label
_atom_site_type_symbol
_atom_site_fract_x
_atom_site_fract_y
_atom_site_fract_z
_atom_type_partial_charge
In0 In 0.05843 0.04876 0.03641 0.0
O1 O 0.01239 0.09503 0.04862 0.0
O2 O 0.08767 0.1107 0.06382 0.0
C3 C 0.97964 0.97456 0.01057 0.0
C4 C 0.14699 0.12484 0.00805 0.0
C5 C 0.05854 0.96996 0.06533 0.0
O6 O 0.97231 0.01032 0.02088 0.0
O7 O 0.02667 0.97725 0.013 0.0
O8 O 0.09496 0.99422 0.04876 0.0
O9 O 0.02277 0.98634 0.06761 0.0
C10 C 0.04802 0.12174 0.06279 0.0
O11 O 0.15338 0.10217 0.02578 0.0
O12 O 0.096 0.10822 0.00436 0.0
In13 In 0.04688 0.07383 0.36972 0.0
O14 O 0.08689 0.16661 0.35652 0.0
O15 O 0.01972 0.10416 0.33894 0.0
C16 C 0.13189 0.08854 0.39577 0.0
C17 C 0.95944 0.06486 0.39614 0.0
C18 C 0.03643 0.98953 0.34437 0.0
O19 O 0.14045 0.10541 0.37518 0.0
O20 O 0.08085 0.06574 0.40345 0.0
O21 O 0.00058 0.98073 0.36053 0.0
O22 O 0.07619 0.04029 0.34102 0.0
C23 C 0.0548 0.15618 0.3405 0.0
O24 O 0.96139 0.02147 0.39062 0.0
O25 O 0.00153 0.1118 0.38866 0.0
In26 In 0.06144 0.04519 0.70303 0.0
O27 O 0.01954 0.95292 0.71726 0.0
O28 O 0.99903 0.00837 0.73417 0.0
C29 C 0.1385 0.04779 0.67218 0.0
C30 C 0.98622 0.05406 0.67734 0.0
C31 C 0.13297 0.11839 0.73115 0.0
O32 O 0.10077 0.00218 0.68272 0.0
O33 O 0.13644 0.09149 0.6768 0.0
O34 O 0.09567 0.12572 0.72213 0.0
O35 O 0.1331 0.07374 0.72635 0.0
C36 C 0.99092 0.95872 0.73315 0.0
O37 O 0.02391 0.09608 0.6866 0.0
O38 O 0.98744 0.00881 0.68077 0.0
C39 C 0.09296 0.65488 0.168 0.0
C40 C 0.14577 0.69903 0.15936 0.0
C41 C 0.18559 0.69276 0.17017 0.0
C42 C 0.15511 0.64568 0.18485 0.0
N43 N 0.09808 0.62093 0.18395 0.0
Co44 Co 0.03801 0.55378 0.2035 0.0
N45 N 0.09694 0.54695 0.22035 0.0
C46 C 0.15411 0.58019 0.21691 0.0
C47 C 0.18376 0.56354 0.23019 0.0
C48 C 0.14324 0.51637 0.24274 0.0
C49 C 0.09088 0.50716 0.23646 0.0
N50 N 0.978 0.48697 0.22317 0.0
C51 C 0.98325 0.45337 0.23924 0.0
C52 C 0.93065 0.41119 0.24887 0.0
C53 C 0.89064 0.41757 0.23818 0.0
C54 C 0.92095 0.46326 0.22279 0.0
N55 N 0.97915 0.56033 0.18653 0.0
C56 C 0.92201 0.52623 0.18956 0.0
C57 C 0.89261 0.54144 0.17544 0.0
C58 C 0.93328 0.58847 0.1628 0.0
C59 C 0.98536 0.59946 0.17008 0.0
N60 N 0.03928 0.50129 0.18158 0.0
C61 C 0.0408 0.42212 0.15288 0.0
C62 C 0.98952 0.41606 0.16168 0.0
C63 C 0.98974 0.45578 0.17582 0.0
C64 C 0.09133 0.46942 0.1582 0.0
C65 C 0.0896 0.50821 0.1724 0.0
N66 N 0.0365 0.60616 0.22544 0.0
C67 C 0.98407 0.6397 0.24767 0.0
C68 C 0.03441 0.685 0.25419 0.0
C69 C 0.08577 0.68916 0.24661 0.0
C70 C 0.08583 0.64959 0.23242 0.0
C71 C 0.98608 0.60111 0.23346 0.0
H72 H 0.12635 0.65542 0.22713 0.0
H73 H 0.94623 0.56815 0.22891 0.0
H74 H 0.94924 0.44813 0.18217 0.0
H75 H 0.12954 0.54309 0.1759 0.0
C76 C 0.1788 0.62521 0.20033 0.0
C77 C 0.03928 0.64857 0.16131 0.0
C78 C 0.03679 0.45852 0.24542 0.0
C79 C 0.89715 0.48244 0.20674 0.0
H80 H 0.15487 0.73316 0.1469 0.0
H81 H 0.2313 0.72012 0.168 0.0
H82 H 0.22942 0.58252 0.23029 0.0
H83 H 0.15166 0.49099 0.25473 0.0
H84 H 0.92211 0.37851 0.26198 0.0
H85 H 0.84491 0.39115 0.2409 0.0
H86 H 0.84698 0.52149 0.17478 0.0
H87 H 0.92549 0.61259 0.14994 0.0
H88 H 0.94919 0.37992 0.15823 0.0
H89 H 0.13218 0.47659 0.15146 0.0
H90 H 0.94317 0.63479 0.25294 0.0
H91 H 0.12594 0.72291 0.25155 0.0
C92 C 0.45617 0.00968 0.57138 0.0
C93 C 0.41645 0.95688 0.58173 0.0
C94 C 0.42426 0.91757 0.57115 0.0
C95 C 0.46851 0.94848 0.55521 0.0
N96 N 0.48998 0.00523 0.55517 0.0
Co97 Co 0.55625 0.06575 0.53558 0.0
N98 N 0.56213 0.00764 0.5178 0.0
C99 C 0.52713 0.95063 0.52022 0.0
C100 C 0.53999 0.92176 0.50492 0.0
C101 C 0.5864 0.9627 0.49208 0.0
C102 C 0.59968 0.01434 0.50056 0.0
N103 N 0.62416 0.12619 0.51653 0.0
C104 C 0.6586 0.12145 0.50062 0.0
C105 C 0.70475 0.17423 0.49324 0.0
C106 C 0.69913 0.21357 0.50476 0.0
C107 C 0.65052 0.18284 0.51866 0.0
N108 N 0.54827 0.12382 0.55267 0.0
C109 C 0.581 0.18101 0.54929 0.0
C110 C 0.5619 0.21012 0.5617 0.0
C111 C 0.51346 0.16919 0.5735 0.0
C112 C 0.5062 0.11708 0.56783 0.0
N113 N 0.60873 0.06363 0.55738 0.0
C114 C 0.68902 0.06316 0.58584 0.0
C115 C 0.68537 0.11206 0.58172 0.0
C116 C 0.64558 0.11144 0.56754 0.0
C117 C 0.6505 0.01398 0.57594 0.0
C118 C 0.61079 0.01501 0.56209 0.0
N119 N 0.50412 0.06817 0.51388 0.0
C120 C 0.47436 0.12254 0.4909 0.0
C121 C 0.42573 0.07302 0.48603 0.0
C122 C 0.41749 0.02085 0.49468 0.0
C123 C 0.45676 0.0194 0.50868 0.0
C124 C 0.51322 0.11913 0.50448 0.0
H125 H 0.44748 0.97852 0.51543 0.0
H126 H 0.54989 0.15834 0.5074 0.0
H127 H 0.64606 0.15051 0.56496 0.0
H128 H 0.5828 0.97603 0.55515 0.0
C129 C 0.48594 0.92529 0.53831 0.0
C130 C 0.45787 0.06235 0.57662 0.0
C131 C 0.65039 0.06793 0.49266 0.0
C132 C 0.62847 0.20599 0.53378 0.0
H133 H 0.38403 0.94759 0.59509 0.0
H134 H 0.39913 0.8718 0.57411 0.0
H135 H 0.51916 0.87627 0.50368 0.0
H136 H 0.6089 0.9552 0.47842 0.0
H137 H 0.73961 0.1836 0.48109 0.0
H138 H 0.72761 0.25912 0.50341 0.0
H139 H 0.58011 0.2557 0.56169 0.0
H140 H 0.48616 0.17728 0.58457 0.0
H141 H 0.71309 0.15097 0.58939 0.0
H142 H 0.65157 0.97492 0.57837 0.0
H143 H 0.48238 0.16374 0.48423 0.0
H144 H 0.3801 0.98152 0.49119 0.0
C145 C 0.66933 0.58588 0.83479 0.0
C146 C 0.71113 0.57444 0.82693 0.0
C147 C 0.70181 0.52645 0.83895 0.0
C148 C 0.65524 0.51142 0.85347 0.0
N149 N 0.63381 0.54658 0.85131 0.0
Co150 Co 0.56704 0.54088 0.86948 0.0
N151 N 0.5591 0.47564 0.88944 0.0
C152 C 0.59367 0.4533 0.88882 0.0
C153 C 0.5774 0.40852 0.90444 0.0
C154 C 0.52926 0.40143 0.91563 0.0
C155 C 0.51895 0.44264 0.90616 0.0
N156 N 0.49847 0.53328 0.88689 0.0
C157 C 0.46274 0.49337 0.90319 0.0
C158 C 0.41831 0.50187 0.91002 0.0
C159 C 0.42544 0.54804 0.89721 0.0
C160 C 0.47365 0.56505 0.88339 0.0
N161 N 0.57695 0.60809 0.85032 0.0
C162 C 0.54498 0.63324 0.85194 0.0
C163 C 0.56382 0.68039 0.8373 0.0
C164 C 0.61149 0.68658 0.82599 0.0
C165 C 0.619 0.64269 0.83447 0.0
N166 N 0.51544 0.48748 0.84824 0.0
C167 C 0.43472 0.40719 0.8213 0.0
C168 C 0.43831 0.45961 0.82387 0.0
C169 C 0.47837 0.49859 0.83732 0.0
C170 C 0.4738 0.39662 0.83185 0.0
C171 C 0.51375 0.43717 0.84494 0.0
N172 N 0.61831 0.59427 0.89075 0.0
C173 C 0.64333 0.67246 0.91433 0.0
C174 C 0.69421 0.6746 0.919 0.0
C175 C 0.70572 0.63484 0.90959 0.0
C176 C 0.66733 0.59513 0.89582 0.0
C177 C 0.60657 0.63262 0.90022 0.0
H178 H 0.67863 0.56601 0.88925 0.0
H179 H 0.56912 0.63408 0.89711 0.0
H180 H 0.47787 0.5371 0.8388 0.0
H181 H 0.54215 0.42636 0.85252 0.0
C182 C 0.63626 0.47018 0.87146 0.0
C183 C 0.66764 0.63675 0.8274 0.0
C184 C 0.46831 0.446 0.91233 0.0
C185 C 0.49726 0.6112 0.86726 0.0
H186 H 0.74622 0.59925 0.81446 0.0
H187 H 0.7278 0.50673 0.83809 0.0
H188 H 0.59664 0.38235 0.90668 0.0
H189 H 0.50365 0.36821 0.92868 0.0
H190 H 0.38395 0.47687 0.92278 0.0
H191 H 0.39848 0.56671 0.89779 0.0
H192 H 0.54547 0.70742 0.83529 0.0
H193 H 0.6382 0.72005 0.81316 0.0
H194 H 0.41025 0.4708 0.81557 0.0
H195 H 0.47291 0.35667 0.83053 0.0
H196 H 0.63152 0.70127 0.92155 0.0
H197 H 0.74473 0.63483 0.9124 0.0
H198 H 0.11881 0.18107 0.0948 0.0
H199 H 0.96986 0.36478 0.11999 0.0
H200 H 0.97178 0.1598 0.062 0.0
H201 H 0.1129 0.37941 0.15406 0.0
H202 H 0.96984 0.29038 0.09832 0.0
H203 H 0.11705 0.25422 0.11649 0.0
C204 C 0.08597 0.19168 0.09222 0.0
C205 C 0.04535 0.16432 0.07658 0.0
C206 C 0.00127 0.30994 0.11052 0.0
C207 C 0.04324 0.24844 0.10131 0.0
C208 C 0.00119 0.35229 0.12296 0.0
C209 C 0.04148 0.37847 0.13889 0.0
C210 C 0.04186 0.29353 0.11404 0.0
C211 C 0.08156 0.36108 0.14176 0.0
C212 C 0.08503 0.23356 0.1046 0.0
C213 C 0.00383 0.17982 0.07393 0.0
N214 N 0.08064 0.31971 0.12951 0.0
N215 N 0.0039 0.22099 0.08615 0.0
H216 H 0.88288 0.97883 0.42653 0.0
H217 H 0.68907 0.11585 0.44952 0.0
H218 H 0.92744 0.14449 0.39687 0.0
H219 H 0.71189 0.01651 0.502 0.0
H220 H 0.76334 0.11336 0.42536 0.0
H221 H 0.80563 0.97798 0.45003 0.0
C222 C 0.87612 0.01473 0.42489 0.0
C223 C 0.91155 0.06192 0.40989 0.0
C224 C 0.75201 0.09217 0.44218 0.0
C225 C 0.82346 0.06078 0.4362 0.0
C226 C 0.70998 0.09374 0.45591 0.0
C227 C 0.69526 0.06706 0.47778 0.0
C228 C 0.77821 0.06237 0.45021 0.0
C229 C 0.72255 0.03788 0.48523 0.0
C230 C 0.83241 0.01434 0.43831 0.0
C231 C 0.90125 0.10749 0.40838 0.0
N232 N 0.76261 0.036 0.47141 0.0
N233 N 0.85787 0.10565 0.42126 0.0
H234 H 0.94674 0.84542 0.72812 0.0
H235 H 0.73974 0.74181 0.84083 0.0
H236 H 0.93671 0.96234 0.77229 0.0
H237 H 0.70692 0.63963 0.78391 0.0
H238 H 0.82188 0.82065 0.81876 0.0
H239 H 0.86921 0.76611 0.75162 0.0
C240 C 0.92862 0.85433 0.7429 0.0
C241 C 0.94793 0.91044 0.74826 0.0
C242 C 0.79676 0.78094 0.81113 0.0
C243 C 0.85954 0.82019 0.77512 0.0
C244 C 0.75012 0.73619 0.82367 0.0
C245 C 0.71722 0.68446 0.8141 0.0
C246 C 0.81073 0.77348 0.78899 0.0
C247 C 0.73186 0.67889 0.79185 0.0
C248 C 0.88421 0.80914 0.75619 0.0
C249 C 0.92285 0.91967 0.76754 0.0
N250 N 0.77787 0.72281 0.78004 0.0
N251 N 0.87993 0.87496 0.78031 0.0
H252 H 0.99484 0.92168 0.10532 0.0
H253 H 0.07598 0.67795 0.11671 0.0
H254 H 0.11587 0.91271 0.05881 0.0
H255 H 0.00301 0.72163 0.1727 0.0
H256 H 0.08098 0.75699 0.09328 0.0
H257 H 0.98829 0.84206 0.1287 0.0
C258 C 0.02015 0.90305 0.10008 0.0
C259 C 0.05605 0.9238 0.08015 0.0
C260 C 0.06385 0.7493 0.11068 0.0
C261 C 0.04818 0.83248 0.10658 0.0
C262 C 0.06086 0.70426 0.12395 0.0
C263 C 0.03953 0.69404 0.14657 0.0
C264 C 0.04456 0.78367 0.12008 0.0
C265 C 0.0199 0.72863 0.15528 0.0
C266 C 0.01641 0.8577 0.11342 0.0
C267 C 0.08786 0.89814 0.07411 0.0
N268 N 0.02285 0.77203 0.14201 0.0
N269 N 0.08293 0.85357 0.08721 0.0
H270 H 0.13409 0.08536 0.44171 0.0
H271 H 0.3936 0.03197 0.44489 0.0
H272 H 0.23148 0.09609 0.38056 0.0
H273 H 0.36184 0.12106 0.4966 0.0
H274 H 0.32326 0.03908 0.42243 0.0
H275 H 0.20728 0.08347 0.46388 0.0
C276 C 0.17102 0.08759 0.43299 0.0
C277 C 0.17706 0.09113 0.40933 0.0
C278 C 0.33188 0.05712 0.43868 0.0
C279 C 0.25962 0.08755 0.43443 0.0
C280 C 0.37156 0.05282 0.45146 0.0
C281 C 0.3832 0.0761 0.47246 0.0
C282 C 0.30287 0.08361 0.44729 0.0
C283 C 0.3539 0.10284 0.48038 0.0
C284 C 0.21263 0.0866 0.4456 0.0
C285 C 0.22555 0.09378 0.3988 0.0
N286 N 0.31456 0.10544 0.46786 0.0
N287 N 0.26473 0.09122 0.41143 0.0
H288 H 0.13427 0.21022 0.74893 0.0
H289 H 0.44232 0.33101 0.79435 0.0
H290 H 0.22825 0.12146 0.74535 0.0
H291 H 0.32474 0.38384 0.81797 0.0
H292 H 0.36784 0.25954 0.77325 0.0
H293 H 0.20738 0.2804 0.77124 0.0
C294 C 0.17017 0.20544 0.7529 0.0
C295 C 0.17522 0.15997 0.74534 0.0
C296 C 0.35843 0.2868 0.78309 0.0
C297 C 0.25908 0.2402 0.77053 0.0
C298 C 0.40088 0.32751 0.79526 0.0
C299 C 0.39008 0.36379 0.80805 0.0
C300 C 0.30485 0.28256 0.78346 0.0
C301 C 0.33563 0.35773 0.80807 0.0
C302 C 0.21178 0.24539 0.76564 0.0
C303 C 0.2226 0.15577 0.75093 0.0
N304 N 0.29519 0.31809 0.79592 0.0
N305 N 0.26289 0.19556 0.76306 0.0
H306 H 0.88996 0.96476 0.66403 0.0
H307 H 0.79862 0.15032 0.58916 0.0
H308 H 0.98317 0.14806 0.66064 0.0
H309 H 0.68078 0.97741 0.61488 0.0
H310 H 0.87059 0.14977 0.6121 0.0
H311 H 0.81725 0.96777 0.64239 0.0
C312 C 0.89518 0.00571 0.65867 0.0
C313 C 0.94267 0.05629 0.6641 0.0
C314 C 0.82886 0.11211 0.61275 0.0
C315 C 0.85964 0.05997 0.63923 0.0
C316 C 0.78749 0.11238 0.59975 0.0
C317 C 0.73317 0.06378 0.6 0.0
C318 C 0.81626 0.06268 0.62588 0.0
C319 C 0.72214 0.01555 0.61373 0.0
C320 C 0.85351 0.00735 0.64641 0.0
C321 C 0.94713 0.10812 0.65681 0.0
N322 N 0.76337 0.01616 0.626 0.0
N323 N 0.90623 0.10867 0.6446 0.0
H324 H 0.88516 0.97161 0.99463 0.0
H325 H 0.76359 0.66419 0.94886 0.0
H326 H 0.97541 0.87896 0.99648 0.0
H327 H 0.71847 0.7851 0.92198 0.0
H328 H 0.83237 0.73736 0.97119 0.0
H329 H 0.8139 0.89806 0.97263 0.0
C330 C 0.88989 0.93581 0.99042 0.0
C331 C 0.93625 0.93137 0.99726 0.0
C332 C 0.80731 0.74773 0.96038 0.0
C333 C 0.85497 0.84721 0.97254 0.0
C334 C 0.76819 0.70606 0.9475 0.0
C335 C 0.73511 0.71827 0.93331 0.0
C336 C 0.81303 0.80191 0.95938 0.0
C337 C 0.74221 0.77317 0.93286 0.0
C338 C 0.84942 0.89406 0.97786 0.0
C339 C 0.94048 0.88418 0.9914 0.0
N340 N 0.78028 0.81289 0.94573 0.0
N341 N 0.90019 0.84377 0.9795 0.0
H342 H 0.10784 0.00185 0.30839 0.0
H343 H 0.96006 0.66949 0.29034 0.0
H344 H 0.95992 0.87466 0.34932 0.0
H345 H 0.10615 0.80016 0.24958 0.0
H346 H 0.95821 0.74293 0.31213 0.0
H347 H 0.10664 0.92761 0.28663 0.0
C348 C 0.07492 0.95819 0.31276 0.0
C349 C 0.03392 0.94438 0.33071 0.0
C350 C 0.99069 0.75545 0.29844 0.0
C351 C 0.03242 0.85878 0.30584 0.0
C352 C 0.99167 0.71359 0.28593 0.0
C353 C 0.03344 0.72862 0.26811 0.0
C354 C 0.0317 0.81279 0.29306 0.0
C355 C 0.07371 0.7864 0.26336 0.0
C356 C 0.07429 0.91573 0.30033 0.0
C357 C 0.99228 0.88709 0.33559 0.0
N358 N 0.07177 0.82625 0.27573 0.0
N359 N 0.99265 0.84628 0.32324 0.0
H360 H 0.24532 0.13765 0.66316 0.0
H361 H 0.34689 0.01217 0.56679 0.0
H362 H 0.13575 0.96459 0.64708 0.0
H363 H 0.45891 0.10479 0.6177 0.0
H364 H 0.26678 0.00702 0.5898 0.0
H365 H 0.32328 0.14062 0.63968 0.0
C366 C 0.23758 0.10053 0.65447 0.0
C367 C 0.18425 0.05075 0.65701 0.0
C368 C 0.30902 0.02857 0.59581 0.0
C369 C 0.27252 0.05429 0.63005 0.0
C370 C 0.35448 0.03161 0.58276 0.0
C371 C 0.40942 0.05965 0.59031 0.0
C372 C 0.31907 0.05493 0.6162 0.0
C373 C 0.41729 0.08383 0.61115 0.0
C374 C 0.28203 0.10218 0.64126 0.0
C375 C 0.17643 0.00364 0.64557 0.0
N376 N 0.37267 0.08164 0.62328 0.0
N377 N 0.2201 0.00668 0.63235 0.0
H378 H 0.25907 0.18221 0.01674 0.0
H379 H 0.36472 0.36962 0.89894 0.0
H380 H 0.14459 0.17001 0.96645 0.0
H381 H 0.46319 0.41553 0.95717 0.0
H382 H 0.28596 0.28957 0.92187 0.0
H383 H 0.3377 0.26059 0.99335 0.0
C384 C 0.25059 0.19578 0.00069 0.0
C385 C 0.19531 0.16973 0.9935 0.0
C386 C 0.32474 0.31718 0.92965 0.0
C387 C 0.28486 0.25919 0.96673 0.0
C388 C 0.36944 0.36266 0.91661 0.0
C389 C 0.42014 0.39854 0.92629 0.0
C390 C 0.33119 0.30744 0.95246 0.0
C391 C 0.42465 0.38827 0.94918 0.0
C392 C 0.29538 0.24068 0.98743 0.0
C393 C 0.1866 0.18908 0.97263 0.0
N394 N 0.3808 0.34334 0.96151 0.0
N395 N 0.23096 0.23262 0.95994 0.0
H396 H 0.11054 0.27026 0.34565 0.0
H397 H 0.00388 0.35102 0.23437 0.0
H398 H 0.99864 0.14472 0.30232 0.0
H399 H 0.06904 0.46176 0.28847 0.0
H400 H 0.00871 0.27646 0.25721 0.0
H401 H 0.10483 0.34367 0.32266 0.0
C402 C 0.08514 0.25824 0.33118 0.0
C403 C 0.055 0.20139 0.32586 0.0
C404 C 0.02175 0.31698 0.26412 0.0
C405 C 0.04813 0.28497 0.29957 0.0
C406 C 0.01888 0.35926 0.25115 0.0
C407 C 0.03641 0.41224 0.25964 0.0
C408 C 0.04281 0.32819 0.28562 0.0
C409 C 0.05554 0.42134 0.2814 0.0
C410 C 0.0816 0.30006 0.31817 0.0
C411 C 0.02249 0.18809 0.30701 0.0
N412 N 0.05869 0.37983 0.29361 0.0
N413 N 0.01999 0.22961 0.2945 0.0
loop_
_geom_bond_atom_site_label_1
_geom_bond_atom_site_label_2
_geom_bond_distance
_geom_bond_site_symmetry_2
_ccdc_geom_bond_type
In0 O1 2.294 . S
In0 O2 2.326 . S
In0 O6 2.266 1_445 S
In0 O7 2.326 1_545 S
In0 O8 2.266 1_545 S
In0 O9 2.326 1_545 S
In0 O11 2.294 . S
In0 O12 2.326 . S
O1 In0 2.294 . S
O1 C10 1.240 . S
O2 In0 2.326 . S
O2 C10 1.252 . S
C3 O6 1.252 . S
C3 O7 1.260 1_655 S
C4 O11 1.240 . S
C4 O12 1.252 . S
C5 O8 1.252 . S
C5 O9 1.260 . S
O6 In0 2.266 1_665 S
O6 C3 1.252 . S
O7 In0 2.326 1_565 S
O7 C3 1.260 1_455 S
O8 In0 2.266 1_565 S
O8 C5 1.252 . S
O9 In0 2.326 1_565 S
O9 C5 1.260 . S
C10 O1 1.240 . S
C10 O2 1.252 . S
O11 In0 2.294 . S
O11 C4 1.240 . S
O12 In0 2.326 . S
O12 C4 1.252 . S
In13 O14 2.294 . S
In13 O15 2.326 1_455 S
In13 O19 2.266 . S
In13 O20 2.326 . S
In13 O21 2.266 1_445 S
In13 O22 2.326 . S
In13 O24 2.294 1_455 S
In13 O25 2.326 . S
O14 In13 2.294 . S
O14 C23 1.240 . S
O15 In13 2.326 1_655 S
O15 C23 1.252 1_655 S
C16 O19 1.252 . S
C16 O20 1.260 . S
C17 O24 1.240 . S
C17 O25 1.252 1_655 S
C18 O21 1.254 1_445 S
C18 O22 1.266 . S
O19 In13 2.266 . S
O19 C16 1.252 . S
O20 In13 2.326 . S
O20 C16 1.260 . S
O21 In13 2.266 1_665 S
O21 C18 1.254 1_665 S
O22 In13 2.326 . S
O22 C18 1.266 . S
C23 O14 1.240 . S
C23 O15 1.252 1_455 S
O24 In13 2.294 1_655 S
O24 C17 1.240 . S
O25 In13 2.326 . S
O25 C17 1.252 1_455 S
In26 O27 2.294 1_545 S
In26 O28 2.326 1_455 S
In26 O32 2.266 . S
In26 O33 2.326 . S
In26 O34 2.266 . S
In26 O35 2.326 . S
In26 O37 2.294 . S
In26 O38 2.326 1_445 S
O27 In26 2.294 1_565 S
O27 C36 1.240 1_455 S
O28 In26 2.326 1_655 S
O28 C36 1.252 1_545 S
C29 O32 1.252 . S
C29 O33 1.260 . S
C30 O37 1.240 1_655 S
C30 O38 1.252 1_545 S
C31 O34 1.252 . S
C31 O35 1.260 . S
O32 In26 2.266 . S
O32 C29 1.252 . S
O33 In26 2.326 . S
O33 C29 1.260 . S
O34 In26 2.266 . S
O34 C31 1.252 . S
O35 In26 2.326 . S
O35 C31 1.260 . S
C36 O27 1.240 1_655 S
C36 O28 1.252 1_565 S
O37 In26 2.294 . S
O37 C30 1.240 1_455 S
O38 In26 2.326 1_665 S
O38 C30 1.252 1_565 S
C39 C40 1.443 . S
C39 N43 1.376 . S
C39 C77 1.389 . S
C40 C39 1.443 . S
C40 C41 1.340 . S
C40 H80 0.951 . S
C41 C40 1.340 . S
C41 C42 1.439 . S
C41 H81 0.950 . S
C42 C41 1.439 . S
C42 N43 1.374 . S
C42 C76 1.395 . S
N43 C39 1.376 . S
N43 C42 1.374 . S
N43 Co44 2.008 . S
Co44 N43 2.008 . S
Co44 N45 1.995 . S
Co44 N50 2.008 1_455 S
Co44 N55 1.995 1_455 S
Co44 N60 2.282 . S
Co44 N66 2.282 . S
N45 Co44 1.995 . S
N45 C46 1.376 . S
N45 C49 1.383 . S
C46 N45 1.376 . S
C46 C47 1.446 . S
C46 C76 1.391 . S
C47 C46 1.446 . S
C47 C48 1.339 . S
C47 H82 0.949 . S
C48 C47 1.339 . S
C48 C49 1.439 . S
C48 H83 0.950 . S
C49 N45 1.383 . S
C49 C48 1.439 . S
C49 C78 1.392 . S
N50 Co44 2.008 1_655 S
N50 C51 1.376 . S
N50 C54 1.374 . S
C51 N50 1.376 . S
C51 C52 1.443 . S
C51 C78 1.389 1_655 S
C52 C51 1.443 . S
C52 C53 1.340 . S
C52 H84 0.951 . S
C53 C52 1.340 . S
C53 C54 1.439 . S
C53 H85 0.950 . S
C54 N50 1.374 . S
C54 C53 1.439 . S
C54 C79 1.395 . S
N55 Co44 1.995 1_655 S
N55 C56 1.376 . S
N55 C59 1.383 . S
C56 N55 1.376 . S
C56 C57 1.446 . S
C56 C79 1.391 . S
C57 C56 1.446 . S
C57 C58 1.339 . S
C57 H86 0.949 . S
C58 C57 1.339 . S
C58 C59 1.439 . S
C58 H87 0.950 . S
C59 N55 1.383 . S
C59 C58 1.439 . S
C59 C77 1.392 1_655 S
N60 Co44 2.282 . S
N60 C63 1.332 . S
N60 C65 1.332 . S
C61 C62 1.386 . S
C61 C64 1.388 . S
C62 C61 1.386 . S
C62 C63 1.382 . S
C62 H88 0.950 1_455 S
C63 N60 1.332 . S
C63 C62 1.382 . S
C63 H74 0.952 1_455 S
C64 C61 1.388 . S
C64 C65 1.382 . S
C64 H89 0.950 . S
C65 N60 1.332 . S
C65 C64 1.382 . S
C65 H75 0.948 . S
N66 Co44 2.282 . S
N66 C70 1.332 . S
N66 C71 1.332 1_455 S
C67 C68 1.388 1_655 S
C67 C71 1.382 . S
C67 H90 0.950 . S
C68 C67 1.388 1_455 S
C68 C69 1.386 . S
C69 C68 1.386 . S
C69 C70 1.382 . S
C69 H91 0.950 . S
C70 N66 1.332 . S
C70 C69 1.382 . S
C70 H72 0.952 . S
C71 N66 1.332 1_655 S
C71 C67 1.382 . S
C71 H73 0.948 . S
H72 C70 0.952 . S
H73 C71 0.948 . S
H74 C63 0.952 1_655 S
H75 C65 0.948 . S
C76 C42 1.395 . S
C76 C46 1.391 . S
C77 C39 1.389 . S
C77 C59 1.392 1_455 S
C78 C49 1.392 . S
C78 C51 1.389 1_455 S
C79 C54 1.395 . S
C79 C56 1.391 . S
H80 C40 0.951 . S
H81 C41 0.950 . S
H82 C47 0.949 . S
H83 C48 0.950 . S
H84 C52 0.951 . S
H85 C53 0.950 . S
H86 C57 0.949 . S
H87 C58 0.950 . S
H88 C62 0.950 1_655 S
H89 C64 0.950 . S
H90 C67 0.950 . S
H91 C69 0.950 . S
C92 C93 1.443 1_545 S
C92 N96 1.377 . S
C92 C130 1.389 . S
C93 C92 1.443 1_565 S
C93 C94 1.340 . S
C93 H133 0.951 . S
C94 C93 1.340 . S
C94 C95 1.439 . S
C94 H134 0.950 . S
C95 C94 1.439 . S
C95 N96 1.372 1_565 S
C95 C129 1.395 . S
N96 C92 1.377 . S
N96 C95 1.372 1_545 S
N96 Co97 2.009 . S
Co97 N96 2.009 . S
Co97 N98 1.995 . S
Co97 N103 2.008 . S
Co97 N108 1.995 . S
Co97 N113 2.282 . S
Co97 N119 2.282 . S
N98 Co97 1.995 . S
N98 C99 1.376 1_545 S
N98 C102 1.383 . S
C99 N98 1.376 1_565 S
C99 C100 1.446 . S
C99 C129 1.391 . S
C100 C99 1.446 . S
C100 C101 1.339 . S
C100 H135 0.949 . S
C101 C100 1.339 . S
C101 C102 1.439 1_565 S
C101 H136 0.950 . S
C102 N98 1.383 . S
C102 C101 1.439 1_545 S
C102 C131 1.392 . S
N103 Co97 2.008 . S
N103 C104 1.376 . S
N103 C107 1.374 . S
C104 N103 1.376 . S
C104 C105 1.443 . S
C104 C131 1.389 . S
C105 C104 1.443 . S
C105 C106 1.340 . S
C105 H137 0.951 . S
C106 C105 1.340 . S
C106 C107 1.439 . S
C106 H138 0.950 . S
C107 N103 1.374 . S
C107 C106 1.439 . S
C107 C132 1.395 . S
N108 Co97 1.995 . S
N108 C109 1.376 . S
N108 C112 1.383 . S
C109 N108 1.376 . S
C109 C110 1.446 . S
C109 C132 1.391 . S
C110 C109 1.446 . S
C110 C111 1.339 . S
C110 H139 0.949 . S
C111 C110 1.339 . S
C111 C112 1.439 . S
C111 H140 0.950 . S
C112 N108 1.383 . S
C112 C111 1.439 . S
C112 C130 1.392 . S
N113 Co97 2.282 . S
N113 C116 1.332 . S
N113 C118 1.332 . S
C114 C115 1.386 . S
C114 C117 1.388 . S
C115 C114 1.386 . S
C115 C116 1.382 . S
C115 H141 0.950 . S
C116 N113 1.332 . S
C116 C115 1.382 . S
C116 H127 0.952 . S
C117 C114 1.388 . S
C117 C118 1.382 . S
C117 H142 0.950 1_545 S
C118 N113 1.332 . S
C118 C117 1.382 . S
C118 H128 0.948 1_545 S
N119 Co97 2.282 . S
N119 C123 1.332 . S
N119 C124 1.332 . S
C120 C121 1.388 . S
C120 C124 1.382 . S
C120 H143 0.950 . S
C121 C120 1.388 . S
C121 C122 1.386 . S
C122 C121 1.386 . S
C122 C123 1.382 . S
C122 H144 0.950 1_545 S
C123 N119 1.332 . S
C123 C122 1.382 . S
C123 H125 0.952 1_545 S
C124 N119 1.332 . S
C124 C120 1.382 . S
C124 H126 0.948 . S
H125 C123 0.952 1_565 S
H126 C124 0.948 . S
H127 C116 0.952 . S
H128 C118 0.948 1_565 S
C129 C95 1.395 . S
C129 C99 1.391 . S
C130 C92 1.389 . S
C130 C112 1.392 . S
C131 C102 1.392 . S
C131 C104 1.389 . S
C132 C107 1.395 . S
C132 C109 1.391 . S
H133 C93 0.951 . S
H134 C94 0.950 . S
H135 C100 0.949 . S
H136 C101 0.950 . S
H137 C105 0.951 . S
H138 C106 0.950 . S
H139 C110 0.949 . S
H140 C111 0.950 . S
H141 C115 0.950 . S
H142 C117 0.950 1_565 S
H143 C120 0.950 . S
H144 C122 0.950 1_565 S
C145 C146 1.443 . S
C145 N149 1.376 . S
C145 C183 1.389 . S
C146 C145 1.443 . S
C146 C147 1.340 . S
C146 H186 0.951 . S
C147 C146 1.340 . S
C147 C148 1.439 . S
C147 H187 0.950 . S
C148 C147 1.439 . S
C148 N149 1.374 . S
C148 C182 1.395 . S
N149 C145 1.376 . S
N149 C148 1.374 . S
N149 Co150 2.008 . S
Co150 N149 2.008 . S
Co150 N151 1.995 . S
Co150 N156 2.008 . S
Co150 N161 1.995 . S
Co150 N166 2.282 . S
Co150 N172 2.282 . S
N151 Co150 1.995 . S
N151 C152 1.376 . S
N151 C155 1.383 . S
C152 N151 1.376 . S
C152 C153 1.446 . S
C152 C182 1.391 . S
C153 C152 1.446 . S
C153 C154 1.339 . S
C153 H188 0.949 . S
C154 C153 1.339 . S
C154 C155 1.439 . S
C154 H189 0.950 . S
C155 N151 1.383 . S
C155 C154 1.439 . S
C155 C184 1.392 . S
N156 Co150 2.008 . S
N156 C157 1.376 . S
N156 C160 1.374 . S
C157 N156 1.376 . S
C157 C158 1.443 . S
C157 C184 1.389 . S
C158 C157 1.443 . S
C158 C159 1.340 . S
C158 H190 0.951 . S
C159 C158 1.340 . S
C159 C160 1.439 . S
C159 H191 0.950 . S
C160 N156 1.374 . S
C160 C159 1.439 . S
C160 C185 1.395 . S
N161 Co150 1.995 . S
N161 C162 1.376 . S
N161 C165 1.383 . S
C162 N161 1.376 . S
C162 C163 1.446 . S
C162 C185 1.391 . S
C163 C162 1.446 . S
C163 C164 1.339 . S
C163 H192 0.949 . S
C164 C163 1.339 . S
C164 C165 1.439 . S
C164 H193 0.950 . S
C165 N161 1.383 . S
C165 C164 1.439 . S
C165 C183 1.392 . S
N166 Co150 2.282 . S
N166 C169 1.332 . S
N166 C171 1.332 . S
C167 C168 1.386 . S
C167 C170 1.388 . S
C168 C167 1.386 . S
C168 C169 1.382 . S
C168 H194 0.950 . S
C169 N166 1.332 . S
C169 C168 1.382 . S
C169 H180 0.952 . S
C170 C167 1.388 . S
C170 C171 1.382 . S
C170 H195 0.950 . S
C171 N166 1.332 . S
C171 C170 1.382 . S
C171 H181 0.948 . S
N172 Co150 2.282 . S
N172 C176 1.332 . S
N172 C177 1.332 . S
C173 C174 1.388 . S
C173 C177 1.382 . S
C173 H196 0.950 . S
C174 C173 1.388 . S
C174 C175 1.386 . S
C175 C174 1.386 . S
C175 C176 1.382 . S
C175 H197 0.950 . S
C176 N172 1.332 . S
C176 C175 1.382 . S
C176 H178 0.952 . S
C177 N172 1.332 . S
C177 C173 1.382 . S
C177 H179 0.948 . S
H178 C176 0.952 . S
H179 C177 0.948 . S
H180 C169 0.952 . S
H181 C171 0.948 . S
C182 C148 1.395 . S
C182 C152 1.391 . S
C183 C145 1.389 . S
C183 C165 1.392 . S
C184 C155 1.392 . S
C184 C157 1.389 . S
C185 C160 1.395 . S
C185 C162 1.391 . S
H186 C146 0.951 . S
H187 C147 0.950 . S
H188 C153 0.949 . S
H189 C154 0.950 . S
H190 C158 0.951 . S
H191 C159 0.950 . S
H192 C163 0.949 . S
H193 C164 0.950 . S
H194 C168 0.950 . S
H195 C170 0.950 . S
H196 C173 0.950 . S
H197 C175 0.950 . S
H198 C204 0.930 . S
H199 C208 0.930 1_655 S
H200 C213 0.928 1_655 S
H201 C211 0.929 . S
H202 C206 0.929 1_655 S
H203 C212 0.929 . S
C204 H198 0.930 . S
C204 C205 1.367 . S
C204 C212 1.378 . S
C205 C204 1.367 . S
C205 C213 1.433 . S
C206 H202 0.929 1_455 S
C206 C208 1.378 . S
C206 C210 1.350 . S
C207 C210 1.463 . S
C207 C212 1.350 . S
C207 N215 1.427 . S
C208 H199 0.930 1_455 S
C208 C206 1.378 . S
C208 C209 1.367 . S
C209 C208 1.367 . S
C209 C211 1.433 . S
C210 C206 1.350 . S
C210 C207 1.463 . S
C210 N214 1.427 . S
C211 H201 0.929 . S
C211 C209 1.433 . S
C211 N214 1.384 . S
C212 H203 0.929 . S
C212 C204 1.378 . S
C212 C207 1.350 . S
C213 H200 0.928 1_455 S
C213 C205 1.433 . S
C213 N215 1.384 . S
N214 C210 1.427 . S
N214 C211 1.384 . S
N215 C207 1.427 . S
N215 C213 1.384 . S
H216 C222 0.930 1_565 S
H217 C226 0.930 . S
H218 C231 0.929 . S
H219 C229 0.929 1_565 S
H220 C224 0.929 . S
H221 C230 0.929 1_565 S
C222 H216 0.930 1_545 S
C222 C223 1.367 . S
C222 C230 1.378 . S
C223 C222 1.367 . S
C223 C231 1.433 . S
C224 H220 0.929 . S
C224 C226 1.378 . S
C224 C228 1.350 . S
C225 C228 1.463 . S
C225 C230 1.350 . S
C225 N233 1.427 . S
C226 H217 0.930 . S
C226 C224 1.378 . S
C226 C227 1.367 . S
C227 C226 1.367 . S
C227 C229 1.433 . S
C228 C224 1.350 . S
C228 C225 1.463 . S
C228 N232 1.427 . S
C229 H219 0.929 1_545 S
C229 C227 1.433 . S
C229 N232 1.384 . S
C230 H221 0.929 1_545 S
C230 C222 1.378 . S
C230 C225 1.350 . S
C231 H218 0.929 . S
C231 C223 1.433 . S
C231 N233 1.384 . S
N232 C228 1.427 . S
N232 C229 1.384 . S
N233 C225 1.427 . S
N233 C231 1.384 . S
H234 C240 0.930 . S
H235 C244 0.930 . S
H236 C249 0.929 . S
H237 C247 0.929 . S
H238 C242 0.929 . S
H239 C248 0.929 . S
C240 H234 0.930 . S
C240 C241 1.367 . S
C240 C248 1.378 . S
C241 C240 1.367 . S
C241 C249 1.433 . S
C242 H238 0.929 . S
C242 C244 1.378 . S
C242 C246 1.350 . S
C243 C246 1.463 . S
C243 C248 1.350 . S
C243 N251 1.427 . S
C244 H235 0.930 . S
C244 C242 1.378 . S
C244 C245 1.367 . S
C245 C244 1.367 . S
C245 C247 1.433 . S
C246 C242 1.350 . S
C246 C243 1.463 . S
C246 N250 1.427 . S
C247 H237 0.929 . S
C247 C245 1.433 . S
C247 N250 1.384 . S
C248 H239 0.929 . S
C248 C240 1.378 . S
C248 C243 1.350 . S
C249 H236 0.929 . S
C249 C241 1.433 . S
C249 N251 1.384 . S
N250 C246 1.427 . S
N250 C247 1.384 . S
N251 C243 1.427 . S
N251 C249 1.384 . S
H252 C258 0.930 . S
H253 C262 0.930 . S
H254 C267 0.929 . S
H255 C265 0.929 . S
H256 C260 0.929 . S
H257 C266 0.929 . S
C258 H252 0.930 . S
C258 C259 1.367 . S
C258 C266 1.378 . S
C259 C258 1.367 . S
C259 C267 1.433 . S
C260 H256 0.929 . S
C260 C262 1.378 . S
C260 C264 1.350 . S
C261 C264 1.463 . S
C261 C266 1.350 . S
C261 N269 1.427 . S
C262 H253 0.930 . S
C262 C260 1.378 . S
C262 C263 1.367 . S
C263 C262 1.367 . S
C263 C265 1.433 . S
C264 C260 1.350 . S
C264 C261 1.463 . S
C264 N268 1.427 . S
C265 H255 0.929 . S
C265 C263 1.433 . S
C265 N268 1.384 . S
C266 H257 0.929 . S
C266 C258 1.378 . S
C266 C261 1.350 . S
C267 H254 0.929 . S
C267 C259 1.433 . S
C267 N269 1.384 . S
N268 C264 1.427 . S
N268 C265 1.384 . S
N269 C261 1.427 . S
N269 C267 1.384 . S
H270 C276 0.930 . S
H271 C280 0.930 . S
H272 C285 0.929 . S
H273 C283 0.929 . S
H274 C278 0.929 . S
H275 C284 0.929 . S
C276 H270 0.930 . S
C276 C277 1.367 . S
C276 C284 1.378 . S
C277 C276 1.367 . S
C277 C285 1.433 . S
C278 H274 0.929 . S
C278 C280 1.378 . S
C278 C282 1.350 . S
C279 C282 1.463 . S
C279 C284 1.350 . S
C279 N287 1.427 . S
C280 H271 0.930 . S
C280 C278 1.378 . S
C280 C281 1.367 . S
C281 C280 1.367 . S
C281 C283 1.433 . S
C282 C278 1.350 . S
C282 C279 1.463 . S
C282 N286 1.427 . S
C283 H273 0.929 . S
C283 C281 1.433 . S
C283 N286 1.384 . S
C284 H275 0.929 . S
C284 C276 1.378 . S
C284 C279 1.350 . S
C285 H272 0.929 . S
C285 C277 1.433 . S
C285 N287 1.384 . S
N286 C282 1.427 . S
N286 C283 1.384 . S
N287 C279 1.427 . S
N287 C285 1.384 . S
H288 C294 0.930 . S
H289 C298 0.930 . S
H290 C303 0.929 . S
H291 C301 0.929 . S
H292 C296 0.929 . S
H293 C302 0.929 . S
C294 H288 0.930 . S
C294 C295 1.367 . S
C294 C302 1.378 . S
C295 C294 1.367 . S
C295 C303 1.433 . S
C296 H292 0.929 . S
C296 C298 1.378 . S
C296 C300 1.350 . S
C297 C300 1.463 . S
C297 C302 1.350 . S
C297 N305 1.427 . S
C298 H289 0.930 . S
C298 C296 1.378 . S
C298 C299 1.367 . S
C299 C298 1.367 . S
C299 C301 1.433 . S
C300 C296 1.350 . S
C300 C297 1.463 . S
C300 N304 1.427 . S
C301 H291 0.929 . S
C301 C299 1.433 . S
C301 N304 1.384 . S
C302 H293 0.929 . S
C302 C294 1.378 . S
C302 C297 1.350 . S
C303 H290 0.929 . S
C303 C295 1.433 . S
C303 N305 1.384 . S
N304 C300 1.427 . S
N304 C301 1.384 . S
N305 C297 1.427 . S
N305 C303 1.384 . S
H306 C312 0.930 . S
H307 C316 0.930 . S
H308 C321 0.929 . S
H309 C319 0.929 1_565 S
H310 C314 0.929 . S
H311 C320 0.929 . S
C312 H306 0.930 . S
C312 C313 1.367 1_565 S
C312 C320 1.378 . S
C313 C312 1.367 1_545 S
C313 C321 1.433 . S
C314 H310 0.929 . S
C314 C316 1.378 . S
C314 C318 1.350 . S
C315 C318 1.463 . S
C315 C320 1.350 1_545 S
C315 N323 1.427 . S
C316 H307 0.930 . S
C316 C314 1.378 . S
C316 C317 1.367 . S
C317 C316 1.367 . S
C317 C319 1.433 . S
C318 C314 1.350 . S
C318 C315 1.463 . S
C318 N322 1.418 1_545 S
C319 H309 0.929 1_545 S
C319 C317 1.433 . S
C319 N322 1.376 1_545 S
C320 H311 0.929 . S
C320 C312 1.378 . S
C320 C315 1.350 1_565 S
C321 H308 0.929 . S
C321 C313 1.433 . S
C321 N323 1.384 . S
N322 C318 1.418 1_565 S
N322 C319 1.376 1_565 S
N323 C315 1.427 . S
N323 C321 1.384 . S
H324 C330 0.930 . S
H325 C334 0.930 . S
H326 C339 0.929 . S
H327 C337 0.929 . S
H328 C332 0.929 . S
H329 C338 0.929 . S
C330 H324 0.930 . S
C330 C331 1.367 . S
C330 C338 1.378 . S
C331 C330 1.367 . S
C331 C339 1.433 1_556 S
C332 H328 0.929 . S
C332 C334 1.378 . S
C332 C336 1.350 . S
C333 C336 1.463 . S
C333 C338 1.350 . S
C333 N341 1.427 . S
C334 H325 0.930 . S
C334 C332 1.378 . S
C334 C335 1.367 . S
C335 C334 1.367 . S
C335 C337 1.433 . S
C336 C332 1.350 . S
C336 C333 1.463 . S
C336 N340 1.427 . S
C337 H327 0.929 . S
C337 C335 1.433 . S
C337 N340 1.384 . S
C338 H329 0.929 . S
C338 C330 1.378 . S
C338 C333 1.350 . S
C339 H326 0.929 . S
C339 C331 1.433 1_554 S
C339 N341 1.384 1_554 S
N340 C336 1.427 . S
N340 C337 1.384 . S
N341 C333 1.427 . S
N341 C339 1.384 1_556 S
H342 C348 0.930 1_545 S
H343 C352 0.930 . S
H344 C357 0.929 . S
H345 C355 0.929 . S
H346 C350 0.929 . S
H347 C356 0.929 . S
C348 H342 0.930 1_565 S
C348 C349 1.367 . S
C348 C356 1.378 . S
C349 C348 1.367 . S
C349 C357 1.433 1_455 S
C350 H346 0.929 . S
C350 C352 1.378 . S
C350 C354 1.350 1_655 S
C351 C354 1.463 . S
C351 C356 1.350 . S
C351 N359 1.427 1_455 S
C352 H343 0.930 . S
C352 C350 1.378 . S
C352 C353 1.367 1_655 S
C353 C352 1.367 1_455 S
C353 C355 1.433 . S
C354 C350 1.350 1_455 S
C354 C351 1.463 . S
C354 N358 1.427 . S
C355 H345 0.929 . S
C355 C353 1.433 . S
C355 N358 1.384 . S
C356 H347 0.929 . S
C356 C348 1.378 . S
C356 C351 1.350 . S
C357 H344 0.929 . S
C357 C349 1.433 1_655 S
C357 N359 1.384 . S
N358 C354 1.427 . S
N358 C355 1.384 . S
N359 C351 1.427 1_655 S
N359 C357 1.384 . S
H360 C366 0.930 . S
H361 C370 0.930 1_565 S
H362 C375 0.929 1_565 S
H363 C373 0.929 . S
H364 C368 0.929 1_565 S
H365 C374 0.929 . S
C366 H360 0.930 . S
C366 C367 1.367 . S
C366 C374 1.378 . S
C367 C366 1.367 . S
C367 C375 1.433 . S
C368 H364 0.929 1_545 S
C368 C370 1.378 . S
C368 C372 1.350 . S
C369 C372 1.463 . S
C369 C374 1.350 . S
C369 N377 1.427 . S
C370 H361 0.930 1_545 S
C370 C368 1.378 . S
C370 C371 1.367 . S
C371 C370 1.367 . S
C371 C373 1.433 . S
C372 C368 1.350 . S
C372 C369 1.463 . S
C372 N376 1.427 . S
C373 H363 0.929 . S
C373 C371 1.433 . S
C373 N376 1.384 . S
C374 H365 0.929 . S
C374 C366 1.378 . S
C374 C369 1.350 . S
C375 H362 0.929 1_545 S
C375 C367 1.433 . S
C375 N377 1.384 . S
N376 C372 1.427 . S
N376 C373 1.384 . S
N377 C369 1.427 . S
N377 C375 1.384 . S
H378 C384 0.930 . S
H379 C388 0.930 . S
H380 C393 0.929 . S
H381 C391 0.929 . S
H382 C386 0.929 . S
H383 C392 0.929 . S
C384 H378 0.930 . S
C384 C385 1.367 1_554 S
C384 C392 1.378 1_554 S
C385 C384 1.367 1_556 S
C385 C393 1.433 . S
C386 H382 0.929 . S
C386 C388 1.378 . S
C386 C390 1.350 . S
C387 C390 1.463 . S
C387 C392 1.350 . S
C387 N395 1.427 . S
C388 H379 0.930 . S
C388 C386 1.378 . S
C388 C389 1.367 . S
C389 C388 1.367 . S
C389 C391 1.433 . S
C390 C386 1.350 . S
C390 C387 1.463 . S
C390 N394 1.427 . S
C391 H381 0.929 . S
C391 C389 1.433 . S
C391 N394 1.384 . S
C392 H383 0.929 . S
C392 C384 1.378 1_556 S
C392 C387 1.350 . S
C393 H380 0.929 . S
C393 C385 1.433 . S
C393 N395 1.384 . S
N394 C390 1.427 . S
N394 C391 1.384 . S
N395 C387 1.427 . S
N395 C393 1.384 . S
H396 C402 0.930 . S
H397 C406 0.930 1_655 S
H398 C411 0.929 . S
H399 C409 0.929 . S
H400 C404 0.929 . S
H401 C410 0.929 . S
C402 H396 0.930 . S
C402 C403 1.367 . S
C402 C410 1.378 . S
C403 C402 1.367 . S
C403 C411 1.433 1_455 S
C404 H400 0.929 . S
C404 C406 1.378 1_655 S
C404 C408 1.349 1_655 S
C405 C408 1.463 . S
C405 C410 1.350 . S
C405 N413 1.427 1_455 S
C406 H397 0.930 1_455 S
C406 C404 1.378 1_455 S
C406 C407 1.367 . S
C407 C406 1.367 . S
C407 C409 1.433 . S
C408 C404 1.349 1_455 S
C408 C405 1.463 . S
C408 N412 1.427 . S
C409 H399 0.929 . S
C409 C407 1.433 . S
C409 N412 1.384 . S
C410 H401 0.929 . S
C410 C402 1.378 . S
C410 C405 1.350 . S
C411 H398 0.929 . S
C411 C403 1.433 1_655 S
C411 N413 1.384 . S
N412 C408 1.427 . S
N412 C409 1.384 . S
N413 C405 1.427 1_655 S
N413 C411 1.384 . S
C209 C61 1.517 . S
C205 C10 1.517 . S
C223 C17 1.518 . S
C227 C131 1.518 . S
C241 C36 1.521 . S
C245 C183 1.522 . S
C259 C5 1.520 . S
C263 C77 1.519 . S
C281 C121 1.519 . S
C277 C16 1.519 . S
C295 C31 1.520 . S
C299 C167 1.519 . S
C317 C114 1.517 . S
C313 C30 1.517 . S
C331 C3 1.520 1_556 S
C335 C174 1.519 . S
C353 C68 1.519 . S
C349 C18 1.511 1_565 S
C371 C130 1.519 . S
C367 C29 1.520 . S
C389 C184 1.521 . S
C385 C4 1.521 1_556 S
C403 C23 1.518 . S
C407 C78 1.518 . S
