# Generated by pormake.
# Topology cor, (4,6)-cn, num edge types: 1
# Building blocks:
#     Node 0, Type 0, BuildingBlock: CEKHIL_clean_sbu_0, # of connection points: 4
#     Node 1, Type 0, BuildingBlock: CEKHIL_clean_sbu_0, # of connection points: 4
#     Node 2, Type 0, BuildingBlock: CEKHIL_clean_sbu_0, # of connection points: 4
#     Node 3, Type 0, BuildingBlock: CEKHIL_clean_sbu_0, # of connection points: 4
#     Node 4, Type 0, BuildingBlock: CEKHIL_clean_sbu_0, # of connection points: 4
#     Node 5, Type 0, BuildingBlock: CEKHIL_clean_sbu_0, # of connection points: 4
#     Node 6, Type 0, BuildingBlock: CEKHIL_clean_sbu_0, # of connection points: 4
#     Node 7, Type 0, BuildingBlock: CEKHIL_clean_sbu_0, # of connection points: 4
#     Node 8, Type 0, BuildingBlock: CEKHIL_clean_sbu_0, # of connection points: 4
#     Node 9, Type 0, BuildingBlock: CEKHIL_clean_sbu_0, # of connection points: 4
#     Node 10, Type 0, BuildingBlock: CEKHIL_clean_sbu_0, # of connection points: 4
#     Node 11, Type 0, BuildingBlock: CEKHIL_clean_sbu_0, # of connection points: 4
#     Node 12, Type 0, BuildingBlock: CEKHIL_clean_sbu_0, # of connection points: 4
#     Node 13, Type 0, BuildingBlock: CEKHIL_clean_sbu_0, # of connection points: 4
#     Node 14, Type 0, BuildingBlock: CEKHIL_clean_sbu_0, # of connection points: 4
#     Node 15, Type 0, BuildingBlock: CEKHIL_clean_sbu_0, # of connection points: 4
#     Node 16, Type 0, BuildingBlock: CEKHIL_clean_sbu_0, # of connection points: 4
#     Node 17, Type 0, BuildingBlock: CEKHIL_clean_sbu_0, # of connection points: 4
#     Node 18, Type 1, BuildingBlock: MIDCAF_clean_sbu_0, # of connection points: 6
#     Node 19, Type 1, BuildingBlock: MIDCAF_clean_sbu_0, # of connection points: 6
#     Node 20, Type 1, BuildingBlock: MIDCAF_clean_sbu_0, # of connection points: 6
#     Node 21, Type 1, BuildingBlock: MIDCAF_clean_sbu_0, # of connection points: 6
#     Node 22, Type 1, BuildingBlock: MIDCAF_clean_sbu_0, # of connection points: 6
#     Node 23, Type 1, BuildingBlock: MIDCAF_clean_sbu_0, # of connection points: 6
#     Node 24, Type 1, BuildingBlock: MIDCAF_clean_sbu_0, # of connection points: 6
#     Node 25, Type 1, BuildingBlock: MIDCAF_clean_sbu_0, # of connection points: 6
#     Node 26, Type 1, BuildingBlock: MIDCAF_clean_sbu_0, # of connection points: 6
#     Node 27, Type 1, BuildingBlock: MIDCAF_clean_sbu_0, # of connection points: 6
#     Node 28, Type 1, BuildingBlock: MIDCAF_clean_sbu_0, # of connection points: 6
#     Node 29, Type 1, BuildingBlock: MIDCAF_clean_sbu_0, # of connection points: 6
#     Edge 30, Type (0, 1), BuildingBlock: KIFKEQ_clean_linker_1, # of connection points: 2
#     Edge 31, Type (0, 1), BuildingBlock: KIFKEQ_clean_linker_1, # of connection points: 2
#     Edge 32, Type (0, 1), BuildingBlock: KIFKEQ_clean_linker_1, # of connection points: 2
#     Edge 33, Type (0, 1), BuildingBlock: KIFKEQ_clean_linker_1, # of connection points: 2
#     Edge 34, Type (0, 1), BuildingBlock: KIFKEQ_clean_linker_1, # of connection points: 2
#     Edge 35, Type (0, 1), BuildingBlock: KIFKEQ_clean_linker_1, # of connection points: 2
#     Edge 36, Type (0, 1), BuildingBlock: KIFKEQ_clean_linker_1, # of connection points: 2
#     Edge 37, Type (0, 1), BuildingBlock: KIFKEQ_clean_linker_1, # of connection points: 2
#     Edge 38, Type (0, 1), BuildingBlock: KIFKEQ_clean_linker_1, # of connection points: 2
#     Edge 39, Type (0, 1), BuildingBlock: KIFKEQ_clean_linker_1, # of connection points: 2
#     Edge 40, Type (0, 1), BuildingBlock: KIFKEQ_clean_linker_1, # of connection points: 2
#     Edge 41, Type (0, 1), BuildingBlock: KIFKEQ_clean_linker_1, # of connection points: 2
#     Edge 42, Type (0, 1), BuildingBlock: KIFKEQ_clean_linker_1, # of connection points: 2
#     Edge 43, Type (0, 1), BuildingBlock: KIFKEQ_clean_linker_1, # of connection points: 2
#     Edge 44, Type (0, 1), BuildingBlock: KIFKEQ_clean_linker_1, # of connection points: 2
#     Edge 45, Type (0, 1), BuildingBlock: KIFKEQ_clean_linker_1, # of connection points: 2
#     Edge 46, Type (0, 1), BuildingBlock: KIFKEQ_clean_linker_1, # of connection points: 2
#     Edge 47, Type (0, 1), BuildingBlock: KIFKEQ_clean_linker_1, # of connection points: 2
#     Edge 48, Type (0, 1), BuildingBlock: KIFKEQ_clean_linker_1, # of connection points: 2
#     Edge 49, Type (0, 1), BuildingBlock: KIFKEQ_clean_linker_1, # of connection points: 2
#     Edge 50, Type (0, 1), BuildingBlock: KIFKEQ_clean_linker_1, # of connection points: 2
#     Edge 51, Type (0, 1), BuildingBlock: KIFKEQ_clean_linker_1, # of connection points: 2
#     Edge 52, Type (0, 1), BuildingBlock: KIFKEQ_clean_linker_1, # of connection points: 2
#     Edge 53, Type (0, 1), BuildingBlock: KIFKEQ_clean_linker_1, # of connection points: 2
#     Edge 54, Type (0, 1), BuildingBlock: KIFKEQ_clean_linker_1, # of connection points: 2
#     Edge 55, Type (0, 1), BuildingBlock: KIFKEQ_clean_linker_1, # of connection points: 2
#     Edge 56, Type (0, 1), BuildingBlock: KIFKEQ_clean_linker_1, # of connection points: 2
#     Edge 57, Type (0, 1), BuildingBlock: KIFKEQ_clean_linker_1, # of connection points: 2
#     Edge 58, Type (0, 1), BuildingBlock: KIFKEQ_clean_linker_1, # of connection points: 2
#     Edge 59, Type (0, 1), BuildingBlock: KIFKEQ_clean_linker_1, # of connection points: 2
#     Edge 60, Type (0, 1), BuildingBlock: KIFKEQ_clean_linker_1, # of connection points: 2
#     Edge 61, Type (0, 1), BuildingBlock: KIFKEQ_clean_linker_1, # of connection points: 2
#     Edge 62, Type (0, 1), BuildingBlock: KIFKEQ_clean_linker_1, # of connection points: 2
#     Edge 63, Type (0, 1), BuildingBlock: KIFKEQ_clean_linker_1, # of connection points: 2
#     Edge 64, Type (0, 1), BuildingBlock: KIFKEQ_clean_linker_1, # of connection points: 2
#     Edge 65, Type (0, 1), BuildingBlock: KIFKEQ_clean_linker_1, # of connection points: 2
#     Edge 66, Type (0, 1), BuildingBlock: KIFKEQ_clean_linker_1, # of connection points: 2
#     Edge 67, Type (0, 1), BuildingBlock: KIFKEQ_clean_linker_1, # of connection points: 2
#     Edge 68, Type (0, 1), BuildingBlock: KIFKEQ_clean_linker_1, # of connection points: 2
#     Edge 69, Type (0, 1), BuildingBlock: KIFKEQ_clean_linker_1, # of connection points: 2
#     Edge 70, Type (0, 1), BuildingBlock: KIFKEQ_clean_linker_1, # of connection points: 2
#     Edge 71, Type (0, 1), BuildingBlock: KIFKEQ_clean_linker_1, # of connection points: 2
#     Edge 72, Type (0, 1), BuildingBlock: KIFKEQ_clean_linker_1, # of connection points: 2
#     Edge 73, Type (0, 1), BuildingBlock: KIFKEQ_clean_linker_1, # of connection points: 2
#     Edge 74, Type (0, 1), BuildingBlock: KIFKEQ_clean_linker_1, # of connection points: 2
#     Edge 75, Type (0, 1), BuildingBlock: KIFKEQ_clean_linker_1, # of connection points: 2
#     Edge 76, Type (0, 1), BuildingBlock: KIFKEQ_clean_linker_1, # of connection points: 2
#     Edge 77, Type (0, 1), BuildingBlock: KIFKEQ_clean_linker_1, # of connection points: 2
#     Edge 78, Type (0, 1), BuildingBlock: KIFKEQ_clean_linker_1, # of connection points: 2
#     Edge 79, Type (0, 1), BuildingBlock: KIFKEQ_clean_linker_1, # of connection points: 2
#     Edge 80, Type (0, 1), BuildingBlock: KIFKEQ_clean_linker_1, # of connection points: 2
#     Edge 81, Type (0, 1), BuildingBlock: KIFKEQ_clean_linker_1, # of connection points: 2
#     Edge 82, Type (0, 1), BuildingBlock: KIFKEQ_clean_linker_1, # of connection points: 2
#     Edge 83, Type (0, 1), BuildingBlock: KIFKEQ_clean_linker_1, # of connection points: 2
#     Edge 84, Type (0, 1), BuildingBlock: KIFKEQ_clean_linker_1, # of connection points: 2
#     Edge 85, Type (0, 1), BuildingBlock: KIFKEQ_clean_linker_1, # of connection points: 2
#     Edge 86, Type (0, 1), BuildingBlock: KIFKEQ_clean_linker_1, # of connection points: 2
#     Edge 87, Type (0, 1), BuildingBlock: KIFKEQ_clean_linker_1, # of connection points: 2
#     Edge 88, Type (0, 1), BuildingBlock: KIFKEQ_clean_linker_1, # of connection points: 2
#     Edge 89, Type (0, 1), BuildingBlock: KIFKEQ_clean_linker_1, # of connection points: 2
#     Edge 90, Type (0, 1), BuildingBlock: KIFKEQ_clean_linker_1, # of connection points: 2
#     Edge 91, Type (0, 1), BuildingBlock: KIFKEQ_clean_linker_1, # of connection points: 2
#     Edge 92, Type (0, 1), BuildingBlock: KIFKEQ_clean_linker_1, # of connection points: 2
#     Edge 93, Type (0, 1), BuildingBlock: KIFKEQ_clean_linker_1, # of connection points: 2
#     Edge 94, Type (0, 1), BuildingBlock: KIFKEQ_clean_linker_1, # of connection points: 2
#     Edge 95, Type (0, 1), BuildingBlock: KIFKEQ_clean_linker_1, # of connection points: 2
#     Edge 96, Type (0, 1), BuildingBlock: KIFKEQ_clean_linker_1, # of connection points: 2
#     Edge 97, Type (0, 1), BuildingBlock: KIFKEQ_clean_linker_1, # of connection points: 2
#     Edge 98, Type (0, 1), BuildingBlock: KIFKEQ_clean_linker_1, # of connection points: 2
#     Edge 99, Type (0, 1), BuildingBlock: KIFKEQ_clean_linker_1, # of connection points: 2
#     Edge 100, Type (0, 1), BuildingBlock: KIFKEQ_clean_linker_1, # of connection points: 2
#     Edge 101, Type (0, 1), BuildingBlock: KIFKEQ_clean_linker_1, # of connection points: 2
# Relax obj value: 0.113
# Max RMSD: 0.161
# Mean RMSD: 0.107
data_MOF--net-cor--node1-CEKHIL_clean_sbu_0--node2-MIDCAF_clean_sbu_0--edge1-KIFKEQ_clean_linker_1
_symmetry_space_group_name_H-M    P1
_symmetry_Int_Tables_number       1
_symmetry_cell_setting            triclinic
loop_
_symmetry_equiv_pos_as_xyz
'x, y, z'
_cell_length_a     39.027037
_cell_length_b     38.821121
_cell_length_c     102.22955
_cell_angle_alpha  90.667328
_cell_angle_beta   89.651206
_cell_angle_gamma 120.69837
loop_
_atom_site_label
_atom_site_type_symbol
_atom_site_fract_x
_atom_site_fract_y
_atom_site_fract_z
_atom_type_partial_charge
Co0 Co 0.72681 0.01913 0.25639 0.0
O1 O 0.70298 0.03896 0.24439 0.0
O2 O 0.7548 0.07719 0.25705 0.0
C3 C 0.67062 0.96938 0.26561 0.0
O4 O 0.75797 0.00879 0.27031 0.0
Co5 Co 0.71209 0.93342 0.25192 0.0
O6 O 0.73495 0.94245 0.26986 0.0
C7 C 0.76305 0.99663 0.23369 0.0
C8 C 0.73031 0.07478 0.248 0.0
C9 C 0.75498 0.97693 0.27529 0.0
O10 O 0.76422 0.02228 0.24203 0.0
O11 O 0.74045 0.95877 0.23508 0.0
O12 O 0.685 0.00629 0.26946 0.0
O13 O 0.6872 0.96498 0.25523 0.0
Co14 Co 0.01747 0.72546 0.25718 0.0
O15 O 0.03653 0.70122 0.26929 0.0
O16 O 0.07525 0.75258 0.25663 0.0
C17 C 0.96752 0.66922 0.24786 0.0
O18 O 0.00771 0.7572 0.24319 0.0
Co19 Co 0.93234 0.7116 0.26116 0.0
O20 O 0.9418 0.73445 0.24333 0.0
C21 C 0.99513 0.76204 0.27988 0.0
C22 C 0.07231 0.7281 0.26576 0.0
C23 C 0.97614 0.75438 0.23807 0.0
O24 O 0.02093 0.76289 0.27177 0.0
O25 O 0.95755 0.74038 0.27798 0.0
O26 O 0.00409 0.68315 0.24404 0.0
O27 O 0.96354 0.68629 0.25821 0.0
Co28 Co 0.3152 0.32067 0.25327 0.0
O29 O 0.36062 0.34427 0.24167 0.0
O30 O 0.34421 0.29271 0.25458 0.0
C31 C 0.32174 0.3774 0.26193 0.0
O32 O 0.27193 0.28949 0.26697 0.0
Co33 Co 0.24429 0.33398 0.24877 0.0
O34 O 0.23008 0.31328 0.2669 0.0
C35 C 0.25791 0.28371 0.23033 0.0
C36 C 0.36774 0.31681 0.2456 0.0
C37 C 0.24368 0.2931 0.27218 0.0
O38 O 0.28228 0.28309 0.23862 0.0
O39 O 0.24175 0.30496 0.23206 0.0
O40 O 0.34339 0.36337 0.26635 0.0
O41 O 0.30132 0.35978 0.25155 0.0
Co42 Co 0.31142 0.02214 0.75624 0.0
O43 O 0.33614 0.00285 0.7681 0.0
O44 O 0.28349 0.96407 0.75584 0.0
C45 C 0.36706 0.07143 0.74667 0.0
O46 O 0.27922 0.03153 0.74243 0.0
Co47 Co 0.32644 0.10835 0.75986 0.0
O48 O 0.29886 0.09713 0.7427 0.0
C49 C 0.27911 0.04711 0.77921 0.0
C50 C 0.3087 0.96687 0.76468 0.0
C51 C 0.27938 0.06219 0.73756 0.0
O52 O 0.27543 0.02014 0.77095 0.0
O53 O 0.30198 0.08464 0.77723 0.0
O54 O 0.35245 0.03441 0.74288 0.0
O55 O 0.35089 0.07624 0.75705 0.0
Co56 Co 0.02154 0.31352 0.75768 0.0
O57 O 1.00216 0.33853 0.74597 0.0
O58 O 0.96378 0.28322 0.75704 0.0
C59 C 0.06751 0.36923 0.76841 0.0
O60 O 0.03069 0.28018 0.77113 0.0
Co61 Co 0.10888 0.33263 0.75592 0.0
O62 O 0.0969 0.3077 0.77351 0.0
C63 C 0.05185 0.28313 0.73535 0.0
C64 C 0.96649 0.30933 0.74858 0.0
C65 C 0.06128 0.28425 0.77736 0.0
O66 O 0.02335 0.28068 0.74247 0.0
O67 O 0.08859 0.30487 0.73856 0.0
O68 O 0.03013 0.35204 0.77172 0.0
O69 O 0.07473 0.35508 0.75794 0.0
Co70 Co 0.72498 0.72417 0.75613 0.0
O71 O 0.68 0.69883 0.76791 0.0
O72 O 0.69435 0.75056 0.75536 0.0
C73 C 0.72005 0.66883 0.7468 0.0
O74 O 0.76716 0.75686 0.74236 0.0
Co75 Co 0.7977 0.71311 0.75983 0.0
O76 O 0.81466 0.74026 0.74264 0.0
C77 C 0.78033 0.7578 0.77933 0.0
C78 C 0.67142 0.7255 0.76424 0.0
C79 C 0.79832 0.75808 0.73746 0.0
O80 O 0.75817 0.7615 0.77087 0.0
O81 O 0.79544 0.7357 0.77737 0.0
O82 O 0.69714 0.68192 0.74284 0.0
O83 O 0.74057 0.68617 0.75719 0.0
Co84 Co 0.39802 0.34961 0.58913 0.0
O85 O 0.37333 0.36436 0.57572 0.0
O86 O 0.42164 0.40741 0.58875 0.0
C87 C 0.3417 0.29872 0.59795 0.0
O88 O 0.42947 0.3452 0.6044 0.0
Co89 Co 0.39033 0.26596 0.5885 0.0
O90 O 0.40774 0.27969 0.60698 0.0
C91 C 0.44591 0.32805 0.57029 0.0
C92 C 0.39745 0.40141 0.57912 0.0
C93 C 0.42685 0.31587 0.61107 0.0
O94 O 0.43888 0.35362 0.57595 0.0
O95 O 0.42788 0.29095 0.57337 0.0
O96 O 0.35348 0.33566 0.60113 0.0
O97 O 0.36142 0.2943 0.58854 0.0
Co98 Co 0.68683 0.06431 0.58856 0.0
O99 O 0.7064 0.03866 0.59985 0.0
O100 O 0.74478 0.09422 0.58886 0.0
C101 C 0.64047 0.00911 0.57764 0.0
O102 O 0.67669 0.09852 0.57577 0.0
Co103 Co 0.59922 0.04394 0.59167 0.0
O104 O 0.61047 0.07387 0.57501 0.0
C105 C 0.65786 0.09063 0.6121 0.0
C106 C 0.74203 0.06767 0.59713 0.0
C107 C 0.64567 0.09701 0.57071 0.0
O108 O 0.6858 0.09641 0.6041 0.0
O109 O 0.62086 0.06711 0.60953 0.0
O110 O 0.67774 0.02662 0.5742 0.0
O111 O 0.63364 0.02249 0.58837 0.0
Co112 Co 0.9773 0.64759 0.58856 0.0
O113 O 0.02158 0.67225 0.57647 0.0
O114 O 0.00793 0.62107 0.58918 0.0
C115 C 0.9842 0.70414 0.59766 0.0
O116 O 0.93591 0.61543 0.6026 0.0
Co117 Co 0.90498 0.65938 0.58592 0.0
O118 O 0.89334 0.63818 0.60406 0.0
C119 C 0.91498 0.60744 0.56696 0.0
C120 C 0.03053 0.64592 0.5802 0.0
C121 C 0.90796 0.61789 0.60854 0.0
O122 O 0.94281 0.60942 0.57421 0.0
O123 O 0.89816 0.62782 0.56937 0.0
O124 O 0.0062 0.69002 0.60162 0.0
O125 O 0.96251 0.68647 0.58749 0.0
Co126 Co 0.98205 0.35467 0.09071 0.0
O127 O 0.00628 0.33514 0.10265 0.0
O128 O 0.95333 0.29647 0.09046 0.0
C129 C 0.03803 0.40262 0.0809 0.0
O130 O 0.94992 0.3645 0.07701 0.0
Co131 Co 0.99956 0.44179 0.09393 0.0
O132 O 0.97123 0.43046 0.07689 0.0
C133 C 0.95133 0.38176 0.1136 0.0
C134 C 0.97847 0.29926 0.09932 0.0
C135 C 0.95059 0.39527 0.07201 0.0
O136 O 0.94707 0.35414 0.10553 0.0
O137 O 0.97466 0.41911 0.11139 0.0
O138 O 0.02201 0.36541 0.07717 0.0
O139 O 0.02278 0.40848 0.09133 0.0
Co140 Co 0.68999 0.64958 0.09014 0.0
O141 O 0.67126 0.67458 0.07821 0.0
O142 O 0.63224 0.62229 0.09051 0.0
C143 C 0.73923 0.70551 0.09971 0.0
O144 O 0.69875 0.61678 0.1039 0.0
Co145 Co 0.77541 0.66374 0.08717 0.0
O146 O 0.764 0.63688 0.1044 0.0
C147 C 0.71442 0.61486 0.06757 0.0
C148 C 0.63541 0.64748 0.08161 0.0
C149 C 0.7289 0.61695 0.10913 0.0
O150 O 0.68762 0.61346 0.07531 0.0
O151 O 0.75178 0.63626 0.07002 0.0
O152 O 0.70259 0.69066 0.10362 0.0
O153 O 0.7439 0.68906 0.08935 0.0
Co154 Co 0.39329 0.05842 0.09011 0.0
O155 O 0.3498 0.0351 0.10246 0.0
O156 O 0.36298 0.08529 0.08928 0.0
C157 C 0.38608 0.00143 0.08133 0.0
O158 O 0.43459 0.08909 0.07582 0.0
Co159 Co 0.46495 0.04531 0.09344 0.0
O160 O 0.47801 0.06712 0.07542 0.0
C161 C 0.45041 0.09284 0.11276 0.0
C162 C 0.34108 0.06145 0.09858 0.0
C163 C 0.46312 0.08646 0.07035 0.0
O164 O 0.42826 0.09682 0.10436 0.0
O165 O 0.46459 0.0699 0.11081 0.0
O166 O 0.36353 0.01491 0.07735 0.0
O167 O 0.40778 0.01968 0.09142 0.0
Co168 Co 0.05565 0.67904 0.92217 0.0
O169 O 0.02853 0.69483 0.91002 0.0
O170 O 0.08135 0.73694 0.92171 0.0
C171 C 1.00177 0.62993 0.93259 0.0
O172 O 0.09057 0.67373 0.93599 0.0
Co173 Co 0.04459 0.59411 0.92017 0.0
O174 O 0.06928 0.60806 0.93784 0.0
C175 C 0.09151 0.65352 0.90011 0.0
C176 C 0.05514 0.73168 0.91289 0.0
C177 C 0.08961 0.64412 0.94198 0.0
O178 O 0.09107 0.68062 0.90736 0.0
O179 O 0.07208 0.61629 0.90299 0.0
O180 O 0.01547 0.66727 0.93576 0.0
O181 O 0.01767 0.6242 0.92229 0.0
Co182 Co 0.3527 0.39232 0.92322 0.0
O183 O 0.37097 0.36692 0.93515 0.0
O184 O 0.41039 0.41885 0.92276 0.0
C185 C 0.30248 0.33682 0.91368 0.0
O186 O 0.34405 0.42537 0.90956 0.0
Co187 Co 0.26777 0.37937 0.92694 0.0
O188 O 0.27933 0.40762 0.90995 0.0
C189 C 0.32976 0.42491 0.94644 0.0
C190 C 0.40692 0.3937 0.93172 0.0
C191 C 0.31402 0.42653 0.90484 0.0
O192 O 0.35609 0.42907 0.93798 0.0
O193 O 0.29229 0.40227 0.94449 0.0
O194 O 0.339 0.35054 0.90982 0.0
O195 O 0.29866 0.35375 0.92407 0.0
Co196 Co 0.6414 0.97937 0.92091 0.0
O197 O 0.68619 0.00405 0.90905 0.0
O198 O 0.67138 0.95234 0.92169 0.0
C199 C 0.64723 0.03523 0.93009 0.0
O200 O 0.59942 0.94745 0.93481 0.0
Co201 Co 0.56917 0.99096 0.91713 0.0
O202 O 0.55222 0.96444 0.93445 0.0
C203 C 0.58659 0.94626 0.89764 0.0
C204 C 0.6943 0.97706 0.91273 0.0
C205 C 0.56852 0.94673 0.93972 0.0
O206 O 0.60784 0.94187 0.90628 0.0
O207 O 0.57187 0.96877 0.8995 0.0
O208 O 0.66979 0.02175 0.93407 0.0
O209 O 0.62638 0.0178 0.91975 0.0
Co210 Co 0.65221 0.69638 0.42301 0.0
O211 O 0.67625 0.67631 0.4348 0.0
O212 O 0.62455 0.63819 0.42207 0.0
C213 C 0.70834 0.74643 0.41387 0.0
O214 O 0.62071 0.70751 0.40937 0.0
Co215 Co 0.66835 0.78264 0.42809 0.0
O216 O 0.63981 0.77291 0.41119 0.0
C217 C 0.61904 0.7189 0.44641 0.0
C218 C 0.64917 0.64057 0.43107 0.0
C219 C 0.62052 0.73893 0.40541 0.0
O220 O 0.61549 0.69307 0.4377 0.0
O221 O 0.64266 0.75662 0.44508 0.0
O222 O 0.69378 0.70973 0.40975 0.0
O223 O 0.69194 0.75028 0.42435 0.0
Co224 Co 0.34933 0.97776 0.42309 0.0
O225 O 0.3312 0.00316 0.41119 0.0
O226 O 0.29153 0.95088 0.42341 0.0
C227 C 0.39877 0.0331 0.43284 0.0
O228 O 0.35833 0.94497 0.43674 0.0
Co229 Co 0.4341 0.99138 0.41904 0.0
O230 O 0.42323 0.96339 0.4361 0.0
C231 C 0.37198 0.94476 0.39977 0.0
C232 C 0.29522 0.9762 0.41448 0.0
C233 C 0.38877 0.9444 0.44137 0.0
O234 O 0.34618 0.94123 0.40833 0.0
O235 O 0.40955 0.96744 0.4015 0.0
O236 O 0.36207 0.01864 0.4366 0.0
O237 O 0.40333 0.01707 0.42232 0.0
Co238 Co 0.06399 0.39657 0.42422 0.0
O239 O 0.01659 0.3694 0.43483 0.0
O240 O 0.03515 0.42503 0.42386 0.0
C241 C 0.05787 0.34216 0.41374 0.0
O242 O 0.10966 0.43183 0.41181 0.0
Co243 Co 0.13313 0.38021 0.42809 0.0
O244 O 0.15196 0.40859 0.4111 0.0
C245 C 0.11665 0.42424 0.44831 0.0
C246 C 0.00982 0.39778 0.43179 0.0
C247 C 0.13934 0.43069 0.40665 0.0
O248 O 0.09479 0.42919 0.44006 0.0
O249 O 0.13156 0.40212 0.4459 0.0
O250 O 0.03801 0.35857 0.40967 0.0
O251 O 0.07671 0.35629 0.42463 0.0
Zn252 Zn 0.01935 0.01916 0.12881 0.0
Zn253 Zn 0.02628 0.03023 0.17965 0.0
Zn254 Zn 0.02292 0.02352 0.15481 0.0
C255 C 0.99359 0.94941 0.17485 0.0
C256 C 0.10418 0.07377 0.17167 0.0
O257 O 0.99445 0.05753 0.14786 0.0
O258 O 0.9947 0.05243 0.12627 0.0
C259 C 0.97487 0.9407 0.13852 0.0
O260 O 0.99785 0.9618 0.16296 0.0
O261 O 0.00293 0.97373 0.18428 0.0
O262 O 0.08368 0.06355 0.18199 0.0
O263 O 0.08707 0.06176 0.16042 0.0
O264 O 0.98491 0.95994 0.12795 0.0
O265 O 0.98723 0.95915 0.14959 0.0
O266 O 0.08499 0.05096 0.14708 0.0
O267 O 0.07739 0.04378 0.12558 0.0
C268 C 0.09982 0.05501 0.13549 0.0
O269 O 0.98497 0.04847 0.16142 0.0
O270 O 0.99347 0.05445 0.18285 0.0
C271 C 0.9872 0.06618 0.13643 0.0
C272 C 0.97685 0.05748 0.17276 0.0
Zn273 Zn 0.02593 0.02469 0.33264 0.0
Zn274 Zn 0.02926 0.03145 0.38236 0.0
Zn275 Zn 0.0252 0.02638 0.35705 0.0
C276 C 0.05986 0.10923 0.37393 0.0
C277 C 0.94822 0.98232 0.37584 0.0
O278 O 0.04994 0.9877 0.35085 0.0
O279 O 0.03957 0.98367 0.3295 0.0
C280 C 0.07756 0.10266 0.33817 0.0
O281 O 0.05315 0.09096 0.36277 0.0
O282 O 0.05254 0.08992 0.38442 0.0
O283 O 0.97161 0.99632 0.38549 0.0
O284 O 0.96214 0.99144 0.36409 0.0
O285 O 0.06739 0.079 0.32854 0.0
O286 O 0.06295 0.08947 0.34963 0.0
O287 O 0.96177 0.99958 0.3507 0.0
O288 O 0.97088 0.01059 0.32943 0.0
C289 C 0.94804 0.99908 0.33921 0.0
O290 O 0.06012 0.99868 0.36402 0.0
O291 O 0.06322 0.00838 0.38548 0.0
C292 C 0.05081 0.97337 0.33947 0.0
C293 C 0.07235 0.99564 0.37543 0.0
Zn294 Zn 0.01856 0.01204 0.88445 0.0
Zn295 Zn 0.01098 0.01588 0.83833 0.0
Zn296 Zn 0.01538 0.01507 0.86012 0.0
C297 C 0.01932 0.08494 0.84424 0.0
C298 C 0.94402 0.95087 0.84407 0.0
O299 O 0.04292 0.97775 0.86445 0.0
O300 O 0.03581 0.9724 0.88595 0.0
C301 C 0.06678 0.09288 0.87764 0.0
O302 O 0.03814 0.0779 0.85318 0.0
O303 O 0.9943 0.05624 0.83723 0.0
O304 O 0.97067 0.959 0.83563 0.0
O305 O 0.95211 0.97399 0.85416 0.0
O306 O 0.05812 0.06938 0.88716 0.0
O307 O 0.0517 0.07891 0.86627 0.0
O308 O 0.95229 0.98664 0.86709 0.0
O309 O 0.96229 0.99406 0.88843 0.0
C310 C 0.93876 0.98378 0.87883 0.0
O311 O 0.05515 0.99472 0.85204 0.0
O312 O 0.06764 0.03337 0.83498 0.0
C313 C 0.04564 0.96282 0.87535 0.0
C314 C 0.07714 0.01327 0.84211 0.0
Zn315 Zn 0.01576 0.02576 0.67416 0.0
Zn316 Zn 0.01538 0.01869 0.62803 0.0
Zn317 Zn 0.0181 0.02284 0.65274 0.0
C318 C 0.98449 0.94016 0.63665 0.0
C319 C 0.09656 0.06745 0.63539 0.0
O320 O 0.99728 0.06473 0.65896 0.0
O321 O 0.03462 0.08315 0.67664 0.0
C322 C 0.95202 0.95701 0.66977 0.0
O323 O 0.98932 0.95784 0.64782 0.0
O324 O 0.99357 0.96007 0.62622 0.0
O325 O 0.07355 0.05513 0.62561 0.0
O326 O 0.08209 0.05694 0.64701 0.0
O327 O 0.95799 0.98744 0.67623 0.0
O328 O 0.97701 0.96146 0.66068 0.0
O329 O 0.07971 0.04476 0.66035 0.0
O330 O 0.05312 0.00663 0.67752 0.0
C331 C 0.08319 0.02683 0.67037 0.0
O332 O 0.98333 0.05109 0.64616 0.0
O333 O 0.97973 0.04014 0.62478 0.0
C334 C 0.01395 0.08932 0.66863 0.0
C335 C 0.9704 0.05304 0.63475 0.0
Zn336 Zn 0.70611 0.37387 0.52883 0.0
Zn337 Zn 0.67439 0.34831 0.46006 0.0
Zn338 Zn 0.68704 0.35789 0.48376 0.0
C339 C 0.75732 0.37932 0.46398 0.0
C340 C 0.62926 0.27234 0.4709 0.0
O341 O 0.65703 0.38717 0.49288 0.0
O342 O 0.68483 0.38044 0.51026 0.0
C343 C 0.7548 0.39819 0.50187 0.0
O344 O 0.74823 0.38284 0.47586 0.0
O345 O 0.73026 0.36449 0.45538 0.0
O346 O 0.63441 0.29023 0.4602 0.0
O347 O 0.64795 0.29204 0.48125 0.0
O348 O 0.72299 0.37941 0.50867 0.0
O349 O 0.75068 0.39379 0.48943 0.0
O350 O 0.66242 0.29997 0.49423 0.0
O351 O 0.6852 0.34017 0.51102 0.0
C352 C 0.66955 0.30436 0.50656 0.0
O353 O 0.65964 0.39459 0.47908 0.0
O354 O 0.65561 0.38688 0.45759 0.0
C355 C 0.66032 0.38942 0.50537 0.0
C356 C 0.6514 0.40302 0.46779 0.0
Zn357 Zn 0.68904 0.35238 0.71776 0.0
Zn358 Zn 0.69383 0.35376 0.67185 0.0
Zn359 Zn 0.6903 0.35185 0.69366 0.0
C360 C 0.625 0.34949 0.67643 0.0
C361 C 0.7562 0.42172 0.67702 0.0
O362 O 0.72438 0.32235 0.70017 0.0
O363 O 0.72414 0.33122 0.72154 0.0
C364 C 0.6097 0.30501 0.71036 0.0
O365 O 0.62934 0.33053 0.68595 0.0
O366 O 0.65471 0.37174 0.66939 0.0
O367 O 0.7515 0.39324 0.66972 0.0
O368 O 0.73109 0.4144 0.68638 0.0
O369 O 0.63153 0.31619 0.72041 0.0
O370 O 0.62558 0.31682 0.69897 0.0
O371 O 0.71954 0.41636 0.69941 0.0
O372 O 0.71035 0.40992 0.72077 0.0
C373 C 0.72221 0.432 0.71083 0.0
O374 O 0.71006 0.30966 0.68733 0.0
O375 O 0.67496 0.29636 0.66928 0.0
C376 C 0.73543 0.31934 0.71179 0.0
C377 C 0.69286 0.28675 0.67735 0.0
Zn378 Zn 0.68854 0.35425 0.21758 0.0
Zn379 Zn 0.68333 0.34326 0.17192 0.0
Zn380 Zn 0.6867 0.3505 0.19354 0.0
C381 C 0.68614 0.41222 0.17483 0.0
C382 C 0.61695 0.28006 0.17856 0.0
O383 O 0.71798 0.31825 0.20019 0.0
O384 O 0.7111 0.32048 0.22158 0.0
C385 C 0.73322 0.43332 0.20902 0.0
O386 O 0.70564 0.41032 0.18469 0.0
O387 O 0.66413 0.38063 0.16837 0.0
O388 O 0.64479 0.28513 0.17103 0.0
O389 O 0.62398 0.30661 0.18749 0.0
O390 O 0.72382 0.41252 0.21924 0.0
O391 O 0.72045 0.41612 0.19779 0.0
O392 O 0.623 0.32059 0.20028 0.0
O393 O 0.63185 0.33224 0.22153 0.0
C394 C 0.60865 0.31871 0.21184 0.0
O395 O 0.72933 0.33104 0.18729 0.0
O396 O 0.7399 0.36208 0.16853 0.0
C397 C 0.72226 0.30841 0.21185 0.0
C398 C 0.75066 0.34601 0.17692 0.0
Zn399 Zn 0.67066 0.34511 0.00937 0.0
Zn400 Zn 0.68685 0.35767 0.9633 0.0
Zn401 Zn 0.68274 0.35141 0.98773 0.0
C402 C 0.65389 0.27626 0.96811 0.0
C403 C 0.76549 0.40168 0.97262 0.0
O404 O 0.65884 0.39051 0.99434 0.0
O405 O 0.67875 0.39704 0.01482 0.0
C406 C 0.61452 0.27519 1.0017 0.0
O407 O 0.65615 0.28899 0.97996 0.0
O408 O 0.66546 0.30072 0.95879 0.0
O409 O 0.74493 0.39319 0.96233 0.0
O410 O 0.74828 0.38778 0.98372 0.0
O411 O 0.6148 0.30082 0.00941 0.0
O412 O 0.64261 0.28656 0.99313 0.0
O413 O 0.74217 0.37307 0.99689 0.0
O414 O 0.71303 0.33309 0.01352 0.0
C415 C 0.74435 0.35499 0.00708 0.0
O416 O 0.64807 0.38023 0.98128 0.0
O417 O 0.65306 0.38067 0.95971 0.0
C418 C 0.66523 0.40796 1.00563 0.0
C419 C 0.63904 0.38752 0.96989 0.0
Zn420 Zn 0.36301 0.70794 0.84111 0.0
Zn421 Zn 0.34226 0.67736 0.79565 0.0
Zn422 Zn 0.35315 0.6919 0.81965 0.0
C423 C 0.42383 0.71112 0.79928 0.0
C424 C 0.29623 0.60403 0.80809 0.0
O425 O 0.31388 0.7159 0.82572 0.0
O426 O 0.31141 0.70001 0.84648 0.0
C427 C 0.43019 0.76447 0.83145 0.0
O428 O 0.41388 0.71653 0.81085 0.0
O429 O 0.39725 0.69269 0.79071 0.0
O430 O 0.30152 0.6199 0.797 0.0
O431 O 0.3154 0.62546 0.81815 0.0
O432 O 0.40601 0.76384 0.83978 0.0
O433 O 0.41836 0.73502 0.82326 0.0
O434 O 0.33471 0.63509 0.83037 0.0
O435 O 0.37684 0.66755 0.84633 0.0
C436 C 0.35419 0.63487 0.84049 0.0
O437 O 0.32288 0.7243 0.8125 0.0
O438 O 0.32444 0.71517 0.7912 0.0
C439 C 0.29814 0.71091 0.8372 0.0
C440 C 0.31714 0.73162 0.80066 0.0
Zn441 Zn 0.35071 0.68079 0.05028 0.0
Zn442 Zn 0.36025 0.68704 1.0041 0.0
Zn443 Zn 0.3566 0.68628 0.02568 0.0
C444 C 0.29196 0.68278 0.00754 0.0
C445 C 0.42285 0.7554 0.00979 0.0
O446 O 0.39239 0.65918 0.03239 0.0
O447 O 0.38752 0.66099 0.05393 0.0
C448 C 0.27334 0.63363 0.04079 0.0
O449 O 0.29608 0.66402 0.01718 0.0
O450 O 0.32209 0.70567 1.00077 0.0
O451 O 0.41814 0.72599 1.00299 0.0
O452 O 0.39702 0.74924 0.01878 0.0
O453 O 0.29266 0.64246 0.05136 0.0
O454 O 0.29147 0.6487 0.0299 0.0
O455 O 0.38379 0.74952 0.03203 0.0
O456 O 0.3704 0.73854 0.05312 0.0
C457 C 0.38383 0.76262 0.04366 0.0
O458 O 0.37889 0.64622 0.01951 0.0
O459 O 0.34158 0.62942 1.00188 0.0
C460 C 0.40198 0.65371 0.04393 0.0
C461 C 0.36149 0.62201 0.00983 0.0
Zn462 Zn 0.36158 0.68701 0.55017 0.0
Zn463 Zn 0.34438 0.67409 0.50491 0.0
Zn464 Zn 0.35194 0.68242 0.52649 0.0
C465 C 0.35014 0.7443 0.50824 0.0
C466 C 0.27866 0.61195 0.51363 0.0
O467 O 0.37957 0.6456 0.53142 0.0
O468 O 0.36718 0.63945 0.55265 0.0
C469 C 0.4142 0.76279 0.53963 0.0
O470 O 0.37118 0.74215 0.51754 0.0
O471 O 0.32601 0.71259 0.50218 0.0
O472 O 0.30464 0.61631 0.50537 0.0
O473 O 0.2876 0.63953 0.52235 0.0
O474 O 0.41067 0.74115 0.54928 0.0
O475 O 0.39007 0.74768 0.52989 0.0
O476 O 0.29092 0.65709 0.53486 0.0
O477 O 0.30931 0.68118 0.55487 0.0
C478 C 0.2821 0.664 0.54639 0.0
O479 O 0.39208 0.6611 0.51919 0.0
O480 O 0.40001 0.69096 0.50031 0.0
C481 C 0.37807 0.62903 0.54246 0.0
C482 C 0.41171 0.67505 0.50846 0.0
Zn483 Zn 0.35443 0.69688 0.29601 0.0
Zn484 Zn 0.35076 0.70042 0.35552 0.0
Zn485 Zn 0.35152 0.68959 0.32037 0.0
C486 C 0.42755 0.72302 0.34185 0.0
C487 C 0.30928 0.62811 0.33735 0.0
O488 O 0.31642 0.71826 0.31468 0.0
O489 O 0.32087 0.72052 0.29311 0.0
C490 C 0.4334 0.7393 0.30507 0.0
O491 O 0.41071 0.71328 0.33042 0.0
O492 O 0.40876 0.72103 0.35232 0.0
O493 O 0.33144 0.66269 0.34163 0.0
O494 O 0.31256 0.62449 0.32513 0.0
O495 O 0.41249 0.73196 0.29491 0.0
O496 O 0.41652 0.7249 0.31615 0.0
O497 O 0.32404 0.62721 0.31206 0.0
O498 O 0.33284 0.64027 0.29095 0.0
C499 C 0.32159 0.61523 0.3001 0.0
O500 O 0.32731 0.72769 0.32828 0.0
O501 O 0.33205 0.73675 0.35021 0.0
C502 C 0.3071 0.7265 0.30352 0.0
C503 C 0.32306 0.7435 0.33899 0.0
H504 H 0.20404 0.27251 0.21132 0.0
H505 H 0.28901 0.23764 0.22203 0.0
H506 H 0.18306 0.22693 0.19275 0.0
H507 H 0.26849 0.19242 0.20313 0.0
H508 H 0.15795 0.07109 0.18736 0.0
H509 H 0.20916 0.12951 0.19891 0.0
H510 H 0.19549 0.20622 0.17178 0.0
H511 H 0.14336 0.147 0.16035 0.0
C512 C 0.21872 0.2556 0.20961 0.0
C513 C 0.24761 0.2582 0.21837 0.0
C514 C 0.2071 0.22977 0.19879 0.0
C515 C 0.2241 0.2059 0.19638 0.0
C516 C 0.25451 0.21006 0.20475 0.0
C517 C 0.26611 0.23589 0.21562 0.0
C518 C 0.16764 0.10044 0.18339 0.0
C519 C 0.1464 0.10467 0.17312 0.0
C520 C 0.19693 0.13413 0.19008 0.0
C521 C 0.20541 0.17263 0.18658 0.0
C522 C 0.18875 0.17688 0.17495 0.0
C523 C 0.15942 0.143 0.16822 0.0
H524 H 0.74838 0.96788 0.20857 0.0
H525 H 0.83926 0.05932 0.23321 0.0
H526 H 0.79419 0.99128 0.19009 0.0
H527 H 0.88639 0.08059 0.21532 0.0
H528 H 0.97222 0.11874 0.18419 0.0
H529 H 0.91478 0.11009 0.19649 0.0
H530 H 0.84511 0.98932 0.18093 0.0
H531 H 0.90132 1.00025 0.16775 0.0
C532 C 0.7784 0.99286 0.21002 0.0
C533 C 0.7904 0.01157 0.22233 0.0
C534 C 0.80496 0.00626 0.19943 0.0
C535 C 0.84474 0.03785 0.20099 0.0
C536 C 0.85613 0.05694 0.21337 0.0
C537 C 0.82917 0.04439 0.2238 0.0
C538 C 0.94378 0.09136 0.18286 0.0
C539 C 0.94107 0.06026 0.17499 0.0
C540 C 0.91097 0.08575 0.19022 0.0
C541 C 0.87528 0.04815 0.19037 0.0
C542 C 0.87158 0.01874 0.18129 0.0
C543 C 0.90396 0.02504 0.17356 0.0
H544 H 0.91549 0.73769 0.22137 0.0
H545 H 0.04208 0.81788 0.22653 0.0
H546 H 0.91626 0.77545 0.20249 0.0
H547 H 0.04266 0.85632 0.20759 0.0
H548 H 0.03661 0.91343 0.1704 0.0
H549 H 0.03239 0.85892 0.18357 0.0
H550 H 0.92384 0.84153 0.2012 0.0
H551 H 0.9285 0.89581 0.18815 0.0
C552 C 0.94364 0.76334 0.21844 0.0
C553 C 0.97864 0.77525 0.22567 0.0
C554 C 0.94401 0.78494 0.20757 0.0
C555 C 0.97935 0.81921 0.2036 0.0
C556 C 0.01492 0.82987 0.21032 0.0
C557 C 0.01459 0.80802 0.22124 0.0
C558 C 0.01084 0.89643 0.17661 0.0
C559 C 0.98245 0.90819 0.17812 0.0
C560 C 0.00882 0.8658 0.18433 0.0
C561 C 0.97808 0.84617 0.19357 0.0
C562 C 0.94776 0.85566 0.19413 0.0
C563 C 0.95014 0.88656 0.18657 0.0
H564 H 0.24739 0.23162 0.28387 0.0
H565 H 0.19952 0.30956 0.28914 0.0
H566 H 0.21299 0.19566 0.30363 0.0
H567 H 0.16635 0.27466 0.30909 0.0
H568 H 0.06349 0.15786 0.32801 0.0
H569 H 0.11 0.21178 0.31394 0.0
H570 H 0.20497 0.19384 0.32689 0.0
H571 H 0.15753 0.13896 0.34074 0.0
C572 C 0.23006 0.24149 0.28935 0.0
C573 C 0.22564 0.27297 0.28476 0.0
C574 C 0.21059 0.22112 0.30078 0.0
C575 C 0.1866 0.23206 0.30799 0.0
C576 C 0.18389 0.26486 0.30371 0.0
C577 C 0.20295 0.28489 0.29223 0.0
C578 C 0.09477 0.16704 0.3284 0.0
C579 C 0.10709 0.14475 0.33558 0.0
C580 C 0.12154 0.19777 0.32022 0.0
C581 C 0.16124 0.20671 0.31901 0.0
C582 C 0.17446 0.1872 0.32733 0.0
C583 C 0.14755 0.15639 0.33552 0.0
H584 H 0.81852 0.04316 0.28671 0.0
H585 H 0.73762 0.91653 0.29225 0.0
H586 H 0.85587 0.04492 0.30604 0.0
H587 H 0.77395 0.91847 0.31174 0.0
H588 H 0.89041 0.92974 0.32871 0.0
H589 H 0.83623 0.92355 0.31534 0.0
H590 H 0.86039 0.03938 0.32932 0.0
H591 H 0.91535 0.04547 0.34254 0.0
C592 C 0.80829 0.01588 0.29218 0.0
C593 C 0.7756 0.97959 0.28776 0.0
C594 C 0.82949 0.01689 0.30335 0.0
C595 C 0.81818 0.9817 0.31045 0.0
C596 C 0.78407 0.94597 0.30641 0.0
C597 C 0.76322 0.94489 0.2952 0.0
C598 C 0.88262 0.95278 0.32948 0.0
C599 C 0.90652 0.98771 0.3368 0.0
C600 C 0.85173 0.94952 0.3217 0.0
C601 C 0.8443 0.98136 0.32102 0.0
C602 C 0.86575 0.01463 0.32941 0.0
C603 C 0.89664 0.01777 0.33722 0.0
H604 H 0.95041 0.77264 0.29843 0.0
H605 H 0.07223 0.80968 0.28855 0.0
H606 H 0.97344 0.81868 0.31689 0.0
H607 H 0.09535 0.85535 0.30735 0.0
H608 H 0.1069 0.97559 0.32352 0.0
H609 H 0.09883 0.91762 0.31156 0.0
H610 H 0.00454 0.83986 0.33799 0.0
H611 H 0.01248 0.89869 0.34982 0.0
C612 C 0.98212 0.79015 0.30029 0.0
C613 C 0.00943 0.78794 0.2918 0.0
C614 C 0.9954 0.81629 0.31105 0.0
C615 C 0.03636 0.84088 0.31368 0.0
C616 C 0.06362 0.8372 0.30556 0.0
C617 C 0.05032 0.81107 0.29475 0.0
C618 C 0.08609 0.94603 0.32723 0.0
C619 C 0.06019 0.94152 0.33752 0.0
C620 C 0.08118 0.91261 0.32031 0.0
C621 C 0.05013 0.87399 0.32354 0.0
C622 C 0.02806 0.86929 0.33504 0.0
C623 C 0.03311 0.90291 0.342 0.0
H624 H 0.79452 0.83383 0.7833 0.0
H625 H 0.78826 0.7336 0.80333 0.0
H626 H 0.82164 0.87509 0.80298 0.0
H627 H 0.81266 0.77362 0.82329 0.0
H628 H 0.87492 0.94857 0.83802 0.0
H629 H 0.82151 0.89551 0.82476 0.0
H630 H 0.87548 0.8229 0.82958 0.0
H631 H 0.92702 0.87496 0.84301 0.0
C632 C 0.7979 0.82036 0.79205 0.0
C633 C 0.79027 0.78091 0.79173 0.0
C634 C 0.8131 0.84386 0.80342 0.0
C635 C 0.82013 0.82804 0.81477 0.0
C636 C 0.80892 0.78734 0.81467 0.0
C637 C 0.7948 0.76428 0.80324 0.0
C638 C 0.87373 0.92021 0.83681 0.0
C639 C 0.9047 0.9155 0.84157 0.0
C640 C 0.84368 0.89011 0.82899 0.0
C641 C 0.84447 0.85508 0.82577 0.0
C642 C 0.87326 0.849 0.83183 0.0
C643 C 0.90296 0.87887 0.83963 0.0
H644 H 0.20455 0.98175 0.78279 0.0
H645 H 0.29876 0.08465 0.80293 0.0
H646 H 0.16082 0.9682 0.80162 0.0
H647 H 0.25616 0.06997 0.82203 0.0
H648 H 0.14959 0.07731 0.83866 0.0
H649 H 0.20316 0.08007 0.82585 0.0
H650 H 0.13978 0.95056 0.82382 0.0
H651 H 0.08511 0.94833 0.8366 0.0
C652 C 0.21622 0.00083 0.79139 0.0
C653 C 0.25469 0.03483 0.79128 0.0
C654 C 0.19128 0.99288 0.80226 0.0
C655 C 0.2046 0.01839 0.81333 0.0
C656 C 0.24438 0.05032 0.81357 0.0
C657 C 0.26889 0.05875 0.80262 0.0
C658 C 0.14786 0.0494 0.83591 0.0
C659 C 0.11343 0.01267 0.8386 0.0
C660 C 0.17868 0.05087 0.82854 0.0
C661 C 0.17582 0.01552 0.82359 0.0
C662 C 0.14272 0.97841 0.82728 0.0
C663 C 0.1117 0.977 0.83477 0.0
H664 H 0.99371 0.21624 0.78554 0.0
H665 H 0.11586 0.29894 0.7965 0.0
H666 H 0.98606 0.17559 0.8045 0.0
H667 H 0.10786 0.25935 0.81579 0.0
H668 H 0.09206 0.14552 0.83667 0.0
H669 H 0.10302 0.19899 0.82182 0.0
H670 H 0.98056 0.16808 0.82715 0.0
H671 H 0.96953 0.11339 0.84137 0.0
C672 C 0.01876 0.22609 0.79211 0.0
C673 C 0.05549 0.26061 0.78938 0.0
C674 C 0.01434 0.20295 0.80311 0.0
C675 C 0.04635 0.21402 0.81181 0.0
C676 C 0.08271 0.24933 0.80926 0.0
C677 C 0.08726 0.27216 0.79818 0.0
C678 C 0.0681 0.15141 0.83509 0.0
C679 C 0.03004 0.12554 0.84019 0.0
C680 C 0.07417 0.18191 0.82647 0.0
C681 C 0.04234 0.18736 0.82293 0.0
C682 C 0.00545 0.16406 0.82925 0.0
C683 C 0.99927 0.13322 0.83764 0.0
H684 H 0.76347 0.78223 0.71939 0.0
H685 H 0.87289 0.78425 0.72763 0.0
H686 H 0.79287 0.81979 0.69942 0.0
H687 H 0.90291 0.82326 0.70807 0.0
H688 H 0.95143 0.88593 0.67083 0.0
H689 H 0.90814 0.82945 0.68499 0.0
H690 H 0.83947 0.88561 0.69421 0.0
H691 H 0.8814 0.94034 0.67986 0.0
C692 C 0.79389 0.7909 0.71699 0.0
C693 C 0.81597 0.78071 0.72523 0.0
C694 C 0.8108 0.81243 0.70551 0.0
C695 C 0.85049 0.82492 0.70208 0.0
C696 C 0.87212 0.8137 0.71018 0.0
C697 C 0.85501 0.7917 0.72154 0.0
C698 C 0.926 0.8851 0.67547 0.0
C699 C 0.91998 0.91763 0.67438 0.0
C700 C 0.90156 0.85314 0.68377 0.0
C701 C 0.87075 0.85328 0.69105 0.0
C702 C 0.86258 0.88403 0.68881 0.0
C703 C 0.8868 0.91566 0.68057 0.0
H704 H 0.24842 0.99985 0.71975 0.0
H705 H 0.25869 0.11426 0.72775 0.0
H706 H 0.21055 0.99272 0.69997 0.0
H707 H 0.21964 0.10648 0.70841 0.0
H708 H 0.15756 0.09491 0.67134 0.0
H709 H 0.21251 0.10447 0.68542 0.0
H710 H 0.14665 0.97833 0.69467 0.0
H711 H 0.09339 0.96905 0.68037 0.0
C712 C 0.24243 0.02338 0.71734 0.0
C713 C 0.25627 0.05739 0.72546 0.0
C714 C 0.22071 0.01935 0.70597 0.0
C715 C 0.21177 0.04898 0.7025 0.0
C716 C 0.22644 0.08335 0.71051 0.0
C717 C 0.2485 0.08757 0.72176 0.0
C718 C 0.15589 0.0691 0.67594 0.0
C719 C 0.12122 0.03131 0.67483 0.0
C720 C 0.18698 0.07458 0.68421 0.0
C721 C 0.1838 0.04234 0.6915 0.0
C722 C 0.15063 0.00394 0.68927 0.0
C723 C 0.11987 0.99855 0.68105 0.0
H724 H 0.10257 0.2747 0.71888 0.0
H725 H 0.97839 0.23786 0.72366 0.0
H726 H 0.08644 0.23334 0.69938 0.0
H727 H 0.96227 0.19699 0.70377 0.0
H728 H 0.95293 0.08297 0.68291 0.0
H729 H 0.9583 0.13578 0.69736 0.0
H730 H 0.06566 0.22174 0.67726 0.0
H731 H 0.06082 0.16807 0.66324 0.0
C732 C 0.07184 0.25821 0.71568 0.0
C733 C 0.04179 0.25936 0.72298 0.0
C734 C 0.06255 0.23474 0.70434 0.0
C735 C 0.02298 0.21185 0.69987 0.0
C736 C 0.993 0.21392 0.70695 0.0
C737 C 0.0023 0.23736 0.71837 0.0
C738 C 0.97637 0.11358 0.68113 0.0
C739 C 0.00627 0.12163 0.67192 0.0
C740 C 0.97973 0.14395 0.6895 0.0
C741 C 0.01311 0.18295 0.68876 0.0
C742 C 0.04018 0.19183 0.67837 0.0
C743 C 0.03701 0.16131 0.67012 0.0
H744 H 0.92886 0.54617 0.56151 0.0
H745 H 0.86899 0.60526 0.54648 0.0
H746 H 0.9009 0.49699 0.54367 0.0
H747 H 0.84134 0.55625 0.52869 0.0
H748 H 0.78192 0.38922 0.52501 0.0
H749 H 0.82994 0.44269 0.53927 0.0
H750 H 0.85746 0.52821 0.50847 0.0
H751 H 0.80938 0.47408 0.49408 0.0
C752 C 0.9102 0.54904 0.55433 0.0
C753 C 0.9008 0.57945 0.55554 0.0
C754 C 0.89422 0.52084 0.5441 0.0
C755 C 0.869 0.52278 0.53475 0.0
C756 C 0.86109 0.55422 0.53563 0.0
C757 C 0.87661 0.58207 0.54593 0.0
C758 C 0.79944 0.41919 0.52112 0.0
C759 C 0.79208 0.42759 0.50847 0.0
C760 C 0.82692 0.44986 0.52929 0.0
C761 C 0.84715 0.48976 0.52505 0.0
C762 C 0.84202 0.49775 0.51203 0.0
C763 C 0.81493 0.46678 0.50374 0.0
H764 H 0.48631 0.29176 0.56189 0.0
H765 H 0.47659 0.39632 0.55545 0.0
H766 H 0.53937 0.31544 0.54563 0.0
H767 H 0.52959 0.41946 0.53885 0.0
H768 H 0.58903 0.38333 0.49895 0.0
H769 H 0.5364 0.37405 0.51437 0.0
H770 H 0.61523 0.39491 0.54672 0.0
H771 H 0.66792 0.40533 0.53151 0.0
C772 C 0.49517 0.31959 0.55693 0.0
C773 C 0.47721 0.34217 0.56002 0.0
C774 C 0.5256 0.33312 0.54764 0.0
C775 C 0.53836 0.36915 0.54104 0.0
C776 C 0.52005 0.39151 0.54383 0.0
C777 C 0.48994 0.37831 0.55334 0.0
C778 C 0.59556 0.38735 0.50933 0.0
C779 C 0.63243 0.39433 0.51402 0.0
C780 C 0.56543 0.38193 0.51813 0.0
C781 C 0.57185 0.38337 0.53168 0.0
C782 C 0.6096 0.39343 0.5363 0.0
C783 C 0.63967 0.39923 0.52757 0.0
H784 H 0.71379 0.16486 0.56264 0.0
H785 H 0.58823 0.09083 0.55399 0.0
H786 H 0.71961 0.21248 0.54607 0.0
H787 H 0.59412 0.13847 0.53751 0.0
H788 H 0.62965 0.22285 0.50149 0.0
H789 H 0.62508 0.17015 0.51582 0.0
H790 H 0.69453 0.25959 0.54514 0.0
H791 H 0.69929 0.31144 0.53104 0.0
C792 C 0.68755 0.15847 0.55713 0.0
C793 C 0.65049 0.12421 0.55979 0.0
C794 C 0.69081 0.18586 0.54767 0.0
C795 C 0.65721 0.17943 0.54054 0.0
C796 C 0.62059 0.14424 0.54277 0.0
C797 C 0.61722 0.1171 0.55231 0.0
C798 C 0.64373 0.23108 0.51103 0.0
C799 C 0.66445 0.27141 0.51515 0.0
C800 C 0.64114 0.20097 0.51922 0.0
C801 C 0.6598 0.21074 0.53158 0.0
C802 C 0.68038 0.25102 0.53562 0.0
C803 C 0.68258 0.28082 0.52755 0.0
H804 H 0.86722 0.63218 0.62766 0.0
H805 H 0.91096 0.55327 0.61742 0.0
H806 H 0.83756 0.5942 0.64752 0.0
H807 H 0.87976 0.51405 0.63685 0.0
H808 H 0.7422 0.48023 0.6696 0.0
H809 H 0.78372 0.53378 0.65448 0.0
H810 H 0.87823 0.50771 0.65932 0.0
H811 H 0.8353 0.45256 0.67372 0.0
C812 C 0.87038 0.60658 0.62963 0.0
C813 C 0.89124 0.59558 0.62089 0.0
C814 C 0.85324 0.58467 0.64103 0.0
C815 C 0.856 0.5508 0.64392 0.0
C816 C 0.87758 0.54037 0.63523 0.0
C817 C 0.89525 0.56266 0.62395 0.0
C818 C 0.77248 0.4872 0.66783 0.0
C819 C 0.78569 0.4625 0.67282 0.0
C820 C 0.79637 0.51779 0.65907 0.0
C821 C 0.83417 0.52457 0.6553 0.0
C822 C 0.84885 0.50259 0.66156 0.0
C823 C 0.82464 0.47151 0.67006 0.0
H824 H 0.40728 0.26597 0.63185 0.0
H825 H 0.49642 0.38316 0.61841 0.0
H826 H 0.44732 0.27449 0.65112 0.0
H827 H 0.53766 0.3911 0.63727 0.0
H828 H 0.60653 0.40673 0.67256 0.0
H829 H 0.55162 0.40021 0.65942 0.0
H830 H 0.50401 0.27241 0.65635 0.0
H831 H 0.55776 0.27918 0.67023 0.0
C832 C 0.43544 0.29372 0.63307 0.0
C833 C 0.44889 0.3238 0.62356 0.0
C834 C 0.45858 0.29852 0.6441 0.0
C835 C 0.49618 0.33325 0.64579 0.0
C836 C 0.5087 0.36411 0.63652 0.0
C837 C 0.48516 0.35957 0.62561 0.0
C838 C 0.58323 0.37709 0.66952 0.0
C839 C 0.58611 0.34342 0.67243 0.0
C840 C 0.55212 0.37336 0.66177 0.0
C841 C 0.52377 0.33596 0.65641 0.0
C842 C 0.52496 0.30176 0.66029 0.0
C843 C 0.55572 0.30547 0.66831 0.0
H844 H 0.61762 0.0679 0.63526 0.0
H845 H 0.72289 0.16426 0.61731 0.0
H846 H 0.63204 0.10729 0.65533 0.0
H847 H 0.7361 0.20491 0.63701 0.0
H848 H 0.75678 0.27776 0.67221 0.0
H849 H 0.75326 0.22291 0.65899 0.0
H850 H 0.62456 0.15999 0.66156 0.0
H851 H 0.62873 0.21354 0.675 0.0
C852 C 0.64387 0.0976 0.63562 0.0
C853 C 0.66869 0.1133 0.62464 0.0
C854 C 0.65217 0.12031 0.64713 0.0
C855 C 0.68489 0.15981 0.64783 0.0
C856 C 0.71089 0.17458 0.63702 0.0
C857 C 0.70309 0.15143 0.62561 0.0
C858 C 0.72805 0.25105 0.6705 0.0
C859 C 0.69301 0.2496 0.67462 0.0
C860 C 0.72585 0.21995 0.6627 0.0
C861 C 0.68855 0.18723 0.65885 0.0
C862 C 0.6539 0.1842 0.66428 0.0
C863 C 0.65618 0.21499 0.67207 0.0
H864 H 0.46857 0.17029 0.11674 0.0
H865 H 0.45513 0.06696 0.13678 0.0
H866 H 0.49616 0.21067 0.1366 0.0
H867 H 0.48 0.10618 0.15687 0.0
H868 H 0.59639 0.20298 0.17694 0.0
H869 H 0.54401 0.15304 0.16322 0.0
H870 H 0.49581 0.23083 0.1586 0.0
H871 H 0.54989 0.28165 0.17226 0.0
C872 C 0.4705 0.15602 0.12552 0.0
C873 C 0.46076 0.11587 0.12517 0.0
C874 C 0.48595 0.17901 0.13698 0.0
C875 C 0.49111 0.16199 0.14837 0.0
C876 C 0.47772 0.12075 0.14823 0.0
C877 C 0.46336 0.09818 0.13672 0.0
C878 C 0.57343 0.20855 0.17352 0.0
C879 C 0.57705 0.24598 0.17565 0.0
C880 C 0.54324 0.17989 0.16557 0.0
C881 C 0.51585 0.18801 0.1595 0.0
C882 C 0.51687 0.22387 0.16286 0.0
C883 C 0.54732 0.2527 0.1709 0.0
H884 H 0.87707 0.31652 0.11764 0.0
H885 H 0.97145 0.42101 0.13707 0.0
H886 H 0.83434 0.3031 0.13669 0.0
H887 H 0.92995 0.40641 0.15645 0.0
H888 H 0.82353 0.41042 0.17488 0.0
H889 H 0.87719 0.41456 0.16175 0.0
H890 H 0.81419 0.28524 0.15852 0.0
H891 H 0.75935 0.28175 0.17145 0.0
C892 C 0.88899 0.33606 0.12613 0.0
C893 C 0.92725 0.37033 0.12575 0.0
C894 C 0.86462 0.32818 0.13715 0.0
C895 C 0.87828 0.35397 0.14816 0.0
C896 C 0.9178 0.38648 0.14807 0.0
C897 C 0.94173 0.39486 0.13696 0.0
C898 C 0.82207 0.38282 0.17188 0.0
C899 C 0.78759 0.34582 0.17424 0.0
C900 C 0.8529 0.38508 0.16426 0.0
C901 C 0.85002 0.35025 0.15878 0.0
C902 C 0.81712 0.31278 0.16231 0.0
C903 C 0.78604 0.3106 0.16994 0.0
H904 H 0.78107 0.59789 0.11989 0.0
H905 H 0.66388 0.58153 0.1255 0.0
H906 H 0.77094 0.55574 0.13858 0.0
H907 H 0.65426 0.54046 0.14461 0.0
H908 H 0.6306 0.42115 0.16237 0.0
H909 H 0.64146 0.47581 0.14849 0.0
H910 H 0.76395 0.54423 0.16148 0.0
H911 H 0.75298 0.48797 0.1752 0.0
C912 C 0.75326 0.58574 0.12522 0.0
C913 C 0.72303 0.59269 0.12102 0.0
C914 C 0.74763 0.56183 0.13609 0.0
C915 C 0.71172 0.54441 0.14318 0.0
C916 C 0.68207 0.55269 0.13928 0.0
C917 C 0.68755 0.5763 0.1283 0.0
C918 C 0.65965 0.44827 0.16254 0.0
C919 C 0.69107 0.45009 0.16977 0.0
C920 C 0.66588 0.47989 0.15458 0.0
C921 C 0.70379 0.51448 0.15363 0.0
C922 C 0.73452 0.51772 0.16174 0.0
C923 C 0.72819 0.48579 0.16977 0.0
H924 H 0.50695 0.07127 0.05278 0.0
H925 H 0.45676 0.14679 0.05908 0.0
H926 H 0.53682 0.10561 0.03241 0.0
H927 H 0.48792 0.1823 0.039 0.0
H928 H 0.53419 0.23763 1.00157 0.0
H929 H 0.49107 0.18288 0.01608 0.0
H930 H 0.59019 0.16726 0.02545 0.0
H931 H 0.63227 0.22058 0.01037 0.0
C932 C 0.50237 0.09534 0.04983 0.0
C933 C 0.47979 0.10658 0.05767 0.0
C934 C 0.51958 0.11509 0.03812 0.0
C935 C 0.51505 0.14694 0.03396 0.0
C936 C 0.49156 0.15745 0.04166 0.0
C937 C 0.47393 0.13735 0.0533 0.0
C938 C 0.54595 0.22079 1.00616 0.0
C939 C 0.58639 0.23303 1.0048 0.0
C940 C 0.52155 0.19004 0.01474 0.0
C941 C 0.53738 0.17148 0.02236 0.0
C942 C 0.57674 0.18071 0.01981 0.0
C943 C 0.60094 0.21109 0.01103 0.0
H944 H 0.91401 0.33039 0.05529 0.0
H945 H 0.93224 0.44876 0.0618 0.0
H946 H 0.8724 0.32166 0.03639 0.0
H947 H 0.88952 0.43949 0.0433 0.0
H948 H 0.81995 0.4221 0.00685 0.0
H949 H 0.87648 0.43266 0.02036 0.0
H950 H 0.80807 0.3097 0.03309 0.0
H951 H 0.75316 0.29926 0.01946 0.0
C952 C 0.90908 0.35451 0.05273 0.0
C953 C 0.92611 0.39004 0.06021 0.0
C954 C 0.88517 0.34955 0.04186 0.0
C955 C 0.87718 0.37975 0.03829 0.0
C956 C 0.89532 0.41575 0.04555 0.0
C957 C 0.91955 0.42088 0.05631 0.0
C958 C 0.81778 0.39715 0.0122 0.0
C959 C 0.78207 0.36 0.0122 0.0
C960 C 0.84988 0.40324 0.02009 0.0
C961 C 0.84679 0.37221 0.02804 0.0
C962 C 0.81205 0.33431 0.02711 0.0
C963 C 0.78027 0.32834 0.01931 0.0
H964 H 0.63849 0.56698 0.05799 0.0
H965 H 0.76176 0.60657 0.04949 0.0
H966 H 0.61797 0.52248 0.0389 0.0
H967 H 0.74128 0.56169 0.03074 0.0
H968 H 0.70584 0.48452 0.99685 0.0
H969 H 0.71244 0.54194 0.00927 0.0
H970 H 0.61645 0.46093 0.03464 0.0
H971 H 0.60971 0.40437 0.02206 0.0
C972 C 0.66123 0.56642 0.05203 0.0
C973 C 0.70177 0.5899 0.05545 0.0
C974 C 0.64947 0.54096 0.04106 0.0
C975 C 0.67791 0.53835 0.03325 0.0
C976 C 0.71849 0.56329 0.03634 0.0
C977 C 0.73024 0.58874 0.04726 0.0
C978 C 0.68473 0.47937 1.0046 0.0
C979 C 0.65719 0.44026 0.00851 0.0
C980 C 0.68891 0.51213 0.01188 0.0
C981 C 0.6657 0.50605 0.02319 0.0
C982 C 0.63482 0.46696 0.02601 0.0
C983 C 0.63075 0.4344 0.01876 0.0
H984 H 0.58705 0.974 0.87337 0.0
H985 H 0.56739 0.86872 0.89366 0.0
H986 H 0.56738 0.9365 0.85283 0.0
H987 H 0.5443 0.82988 0.87343 0.0
H988 H 0.45789 0.84299 0.8292 0.0
H989 H 0.50883 0.89241 0.84334 0.0
H990 H 0.54725 0.80872 0.85251 0.0
H991 H 0.4939 0.75832 0.83868 0.0
C992 C 0.57835 0.94265 0.87339 0.0
C993 C 0.57797 0.924 0.88511 0.0
C994 C 0.56686 0.92098 0.86162 0.0
C995 C 0.55317 0.87962 0.86134 0.0
C996 C 0.55495 0.86162 0.87304 0.0
C997 C 0.56774 0.88373 0.88475 0.0
C998 C 0.47872 0.83597 0.83365 0.0
C999 C 0.47181 0.79685 0.83294 0.0
C1000 C 0.50805 0.86436 0.84194 0.0
C1001 C 0.5316 0.85439 0.8496 0.0
C1002 C 0.52873 0.81711 0.84721 0.0
C1003 C 0.49886 0.78845 0.83898 0.0
H1004 H 0.10404 0.60635 0.88292 0.0
H1005 H 0.13479 0.72899 0.8897 0.0
H1006 H 0.14807 0.6271 0.8641 0.0
H1007 H 0.17836 0.74966 0.87059 0.0
H1008 H 0.2984 0.76661 0.85309 0.0
H1009 H 0.24177 0.75619 0.86616 0.0
H1010 H 0.16391 0.65312 0.84222 0.0
H1011 H 0.22142 0.66355 0.82928 0.0
C1012 C 0.11974 0.63769 0.88031 0.0
C1013 C 0.11625 0.66602 0.88801 0.0
C1014 C 0.14472 0.64959 0.86936 0.0
C1015 C 0.16686 0.69013 0.86576 0.0
C1016 C 0.1621 0.71826 0.87314 0.0
C1017 C 0.13712 0.70636 0.88412 0.0
C1018 C 0.26884 0.74311 0.85018 0.0
C1019 C 0.26414 0.71605 0.84015 0.0
C1020 C 0.23626 0.73688 0.85774 0.0
C1021 C 0.19829 0.70318 0.85547 0.0
C1022 C 0.1929 0.67888 0.84441 0.0
C1023 C 0.22565 0.68526 0.83681 0.0
H1024 H 0.26014 0.44304 0.89393 0.0
H1025 H 0.38006 0.46591 0.88903 0.0
H1026 H 0.26995 0.48688 0.87578 0.0
H1027 H 0.38943 0.50896 0.8705 0.0
H1028 H 0.40868 0.6289 0.85481 0.0
H1029 H 0.39866 0.57367 0.86824 0.0
H1030 H 0.2795 0.50099 0.85272 0.0
H1031 H 0.28951 0.55762 0.83935 0.0
C1032 C 0.28851 0.45698 0.88888 0.0
C1033 C 0.31956 0.45134 0.89313 0.0
C1034 C 0.29395 0.48187 0.87832 0.0
C1035 C 0.33053 0.50172 0.87164 0.0
C1036 C 0.36104 0.49472 0.87554 0.0
C1037 C 0.35568 0.46998 0.88617 0.0
C1038 C 0.38051 0.60091 0.85406 0.0
C1039 C 0.34966 0.59781 0.84616 0.0
C1040 C 0.37486 0.56897 0.86171 0.0
C1041 C 0.33812 0.53281 0.86172 0.0
C1042 C 0.308 0.52867 0.85313 0.0
C1043 C 0.31379 0.56088 0.84536 0.0
H1044 H 0.60596 0.92869 0.95868 0.0
H1045 H 0.493 0.91734 0.94918 0.0
H1046 H 0.57831 0.89416 0.97923 0.0
H1047 H 0.46457 0.88092 0.96932 0.0
H1048 H 0.41762 0.82286 0.0071 0.0
H1049 H 0.45853 0.87791 0.99219 0.0
H1050 H 0.53602 0.82983 0.98623 0.0
H1051 H 0.49648 0.7768 1.00143 0.0
C1052 C 0.57507 0.91845 0.96093 0.0
C1053 C 0.55156 0.92528 0.95219 0.0
C1054 C 0.55913 0.89862 0.97274 0.0
C1055 C 0.51896 0.88433 0.97603 0.0
C1056 C 0.49576 0.892 0.96736 0.0
C1057 C 0.51194 0.91247 0.95567 0.0
C1058 C 0.44459 0.82546 1.00309 0.0
C1059 C 0.45381 0.79553 1.00536 0.0
C1060 C 0.46762 0.85648 0.99431 0.0
C1061 C 0.50012 0.8579 0.98762 0.0
C1062 C 0.51152 0.83022 0.9911 0.0
C1063 C 0.48876 0.7996 0.99987 0.0
H1064 H 0.1597 0.71167 0.94886 0.0
H1065 H 0.07391 0.59306 0.96218 0.0
H1066 H 0.20256 0.7203 0.96733 0.0
H1067 H 0.11545 0.60224 0.98108 0.0
H1068 H 0.27151 0.73828 1.003 0.0
H1069 H 0.21663 0.72978 0.9894 0.0
H1070 H 0.17309 0.60269 0.98652 0.0
H1071 H 0.2267 0.6114 1.00088 0.0
C1072 C 0.14962 0.68779 0.95592 0.0
C1073 C 0.11371 0.65156 0.95397 0.0
C1074 C 0.17406 0.69275 0.96662 0.0
C1075 C 0.16279 0.66187 0.97581 0.0
C1076 C 0.12579 0.62637 0.97413 0.0
C1077 C 0.10179 0.62116 0.96331 0.0
C1078 C 0.24911 0.70834 0.99988 0.0
C1079 C 0.25302 0.67543 1.00303 0.0
C1080 C 0.21804 0.70349 0.99186 0.0
C1081 C 0.19079 0.66571 0.98646 0.0
C1082 C 0.19313 0.63228 0.99048 0.0
C1083 C 0.2238 0.63709 0.99878 0.0
H1084 H 0.29557 0.40196 0.97041 0.0
H1085 H 0.39342 0.50045 0.95031 0.0
H1086 H 0.31135 0.44288 0.99018 0.0
H1087 H 0.4078 0.54255 0.96976 0.0
H1088 H 0.4279 0.61788 1.00431 0.0
H1089 H 0.42736 0.56353 0.99164 0.0
H1090 H 0.29904 0.49342 0.9956 0.0
H1091 H 0.30032 0.54673 0.0084 0.0
C1092 C 0.32059 0.43243 0.97026 0.0
C1093 C 0.34275 0.44836 0.95877 0.0
C1094 C 0.32965 0.45598 0.98158 0.0
C1095 C 0.36031 0.49647 0.98156 0.0
C1096 C 0.38418 0.5115 0.97027 0.0
C1097 C 0.37572 0.48752 0.95903 0.0
C1098 C 0.40004 0.58985 1.00301 0.0
C1099 C 0.36414 0.58618 0.0073 0.0
C1100 C 0.39953 0.55899 0.99556 0.0
C1101 C 0.36307 0.52425 0.99229 0.0
C1102 C 0.32782 0.51928 0.99791 0.0
C1103 C 0.32842 0.54991 1.00531 0.0
H1104 H 0.13085 0.49977 0.45309 0.0
H1105 H 0.1241 0.39786 0.47206 0.0
H1106 H 0.15661 0.53909 0.47313 0.0
H1107 H 0.14682 0.43582 0.49247 0.0
H1108 H 0.25884 0.53506 0.51371 0.0
H1109 H 0.20729 0.48367 0.50019 0.0
H1110 H 0.15642 0.55881 0.49462 0.0
H1111 H 0.21017 0.61136 0.50785 0.0
C1112 C 0.13387 0.48549 0.46169 0.0
C1113 C 0.12645 0.44614 0.46095 0.0
C1114 C 0.14825 0.50789 0.47329 0.0
C1115 C 0.15461 0.49108 0.48452 0.0
C1116 C 0.14371 0.45043 0.48399 0.0
C1117 C 0.1305 0.4285 0.47229 0.0
C1118 C 0.2354 0.53971 0.51015 0.0
C1119 C 0.23849 0.57709 0.51177 0.0
C1120 C 0.20565 0.51017 0.50227 0.0
C1121 C 0.17799 0.51723 0.49586 0.0
C1122 C 0.17791 0.5527 0.49901 0.0
C1123 C 0.20811 0.58254 0.50687 0.0
H1124 H 0.54382 0.65372 0.44883 0.0
H1125 H 0.63668 0.7529 0.47071 0.0
H1126 H 0.49854 0.63755 0.46733 0.0
H1127 H 0.59248 0.73551 0.4895 0.0
H1128 H 0.48487 0.73937 0.50704 0.0
H1129 H 0.53956 0.74466 0.49417 0.0
H1130 H 0.47545 0.6159 0.48884 0.0
H1131 H 0.41972 0.6113 0.50155 0.0
C1132 C 0.55484 0.67141 0.45773 0.0
C1133 C 0.59346 0.70511 0.45822 0.0
C1134 C 0.52898 0.66195 0.46842 0.0
C1135 C 0.54148 0.68558 0.47993 0.0
C1136 C 0.58129 0.7173 0.48071 0.0
C1137 C 0.60675 0.72725 0.46994 0.0
C1138 C 0.4833 0.71208 0.5036 0.0
C1139 C 0.44845 0.67496 0.50537 0.0
C1140 C 0.51471 0.71499 0.49615 0.0
C1141 C 0.51198 0.68074 0.49023 0.0
C1142 C 0.47835 0.64301 0.49303 0.0
C1143 C 0.44672 0.64018 0.50051 0.0
H1144 H 0.44009 0.92223 0.45081 0.0
H1145 H 0.32749 0.91384 0.45922 0.0
H1146 H 0.432 0.8818 0.46981 0.0
H1147 H 0.32007 0.87461 0.47863 0.0
H1148 H 0.29405 0.75562 0.49733 0.0
H1149 H 0.3046 0.80944 0.48309 0.0
H1150 H 0.42997 0.87362 0.49287 0.0
H1151 H 0.41917 0.81815 0.50698 0.0
C1152 C 0.41376 0.91218 0.45682 0.0
C1153 C 0.38412 0.92084 0.45333 0.0
C1154 C 0.40935 0.8893 0.46786 0.0
C1155 C 0.37534 0.87469 0.47585 0.0
C1156 C 0.34637 0.88465 0.47262 0.0
C1157 C 0.35058 0.90718 0.46147 0.0
C1158 C 0.32375 0.78172 0.49673 0.0
C1159 C 0.35587 0.78245 0.50315 0.0
C1160 C 0.32983 0.81285 0.48856 0.0
C1161 C 0.3683 0.84584 0.48657 0.0
C1162 C 0.40003 0.84827 0.49393 0.0
C1163 C 0.39385 0.81683 0.50217 0.0
H1164 H 0.13186 0.4919 0.3967 0.0
H1165 H 0.19385 0.42733 0.39043 0.0
H1166 H 0.16868 0.53594 0.37857 0.0
H1167 H 0.23067 0.47157 0.37232 0.0
H1168 H 0.26906 0.54568 0.33367 0.0
H1169 H 0.22394 0.4945 0.34936 0.0
H1170 H 0.24064 0.58805 0.37642 0.0
H1171 H 0.28506 0.63828 0.36107 0.0
C1172 C 0.15309 0.48687 0.39142 0.0
C1173 C 0.16021 0.45635 0.39518 0.0
C1174 C 0.17422 0.51214 0.38103 0.0
C1175 C 0.20272 0.50733 0.37404 0.0
C1176 C 0.20872 0.47586 0.37743 0.0
C1177 C 0.18787 0.45079 0.38792 0.0
C1178 C 0.26283 0.55506 0.34296 0.0
C1179 C 0.28087 0.59597 0.34616 0.0
C1180 C 0.23716 0.52589 0.35194 0.0
C1181 C 0.22855 0.5373 0.3641 0.0
C1182 C 0.24614 0.57821 0.3671 0.0
C1183 C 0.27199 0.60704 0.3583 0.0
H1184 H 0.59747 0.68659 0.38434 0.0
H1185 H 0.59048 0.78657 0.39998 0.0
H1186 H 0.56112 0.68625 0.36482 0.0
H1187 H 0.55296 0.78517 0.38112 0.0
H1188 H 0.49687 0.79307 0.34643 0.0
H1189 H 0.55178 0.79853 0.35939 0.0
H1190 H 0.49851 0.6698 0.35728 0.0
H1191 H 0.4458 0.66534 0.34353 0.0
C1192 C 0.58788 0.70823 0.38366 0.0
C1193 C 0.5969 0.73658 0.39372 0.0
C1194 C 0.56708 0.70815 0.37246 0.0
C1195 C 0.55432 0.73607 0.37117 0.0
C1196 C 0.56324 0.76405 0.38137 0.0
C1197 C 0.58442 0.7645 0.39238 0.0
C1198 C 0.49842 0.76638 0.34811 0.0
C1199 C 0.46745 0.72888 0.34389 0.0
C1200 C 0.52929 0.76921 0.35584 0.0
C1201 C 0.52891 0.7344 0.35993 0.0
C1202 C 0.50014 0.69737 0.35444 0.0
C1203 C 0.46991 0.69475 0.34643 0.0
H1204 H 0.30856 0.86919 0.39711 0.0
H1205 H 0.4025 0.96545 0.37509 0.0
H1206 H 0.28833 0.82638 0.37789 0.0
H1207 H 0.38033 0.92404 0.35534 0.0
H1208 H 0.3771 0.81875 0.33262 0.0
H1209 H 0.38405 0.87453 0.3454 0.0
H1210 H 0.2615 0.80216 0.35815 0.0
H1211 H 0.25665 0.74512 0.34626 0.0
C1212 C 0.32429 0.88145 0.388 0.0
C1213 C 0.3576 0.92029 0.38765 0.0
C1214 C 0.31233 0.85704 0.37682 0.0
C1215 C 0.33263 0.87118 0.36481 0.0
C1216 C 0.36446 0.91124 0.36436 0.0
C1217 C 0.37721 0.93521 0.37568 0.0
C1218 C 0.35098 0.81547 0.33759 0.0
C1219 C 0.31663 0.77754 0.33866 0.0
C1220 C 0.35501 0.8476 0.34513 0.0
C1221 C 0.32405 0.84266 0.35355 0.0
C1222 C 0.28694 0.80669 0.35247 0.0
C1223 C 0.28353 0.77414 0.34529 0.0
H1224 H 0.29253 0.08478 0.08767 0.0
H1225 H 0.31819 0.04762 0.12406 0.0
H1226 H 0.23852 0.08881 0.0981 0.0
H1227 H 0.26671 0.05498 0.13496 0.0
H1228 H 0.14056 0.02386 0.1468 0.0
H1229 H 0.20123 0.02835 0.13857 0.0
H1230 H 0.21534 0.11914 0.11123 0.0
H1231 H 0.15249 0.11128 0.11878 0.0
C1232 C 0.28691 0.07811 0.09799 0.0
C1233 C 0.30915 0.06541 0.10501 0.0
C1234 C 0.25616 0.0809 0.1041 0.0
C1235 C 0.24767 0.07236 0.11753 0.0
C1236 C 0.27113 0.06086 0.12458 0.0
C1237 C 0.30098 0.05683 0.11835 0.0
C1238 C 0.15735 0.04549 0.13927 0.0
C1239 C 0.14198 0.06724 0.13343 0.0
C1240 C 0.19234 0.04816 0.13447 0.0
C1241 C 0.21341 0.07353 0.12391 0.0
C1242 C 0.19955 0.098 0.11896 0.0
C1243 C 0.16388 0.09425 0.12347 0.0
H1244 H 0.99811 0.29427 0.1244 0.0
H1245 H 0.94992 0.22393 0.08918 0.0
H1246 H 0.99202 0.23642 0.13552 0.0
H1247 H 0.94691 0.16666 0.09978 0.0
H1248 H 0.92758 0.06024 0.1212 0.0
H1249 H 0.91958 0.115 0.1137 0.0
H1250 H 0.01786 0.19707 0.13854 0.0
H1251 H 0.0228 0.14131 0.14678 0.0
C1252 C 0.98666 0.26637 0.11898 0.0
C1253 C 0.97469 0.26364 0.1059 0.0
C1254 C 0.98338 0.23304 0.12534 0.0
C1255 C 0.96918 0.19621 0.11867 0.0
C1256 C 0.9571 0.19376 0.10551 0.0
C1257 C 0.95924 0.22683 0.09929 0.0
C1258 C 0.94633 0.08986 0.12538 0.0
C1259 C 0.97552 0.09653 0.13465 0.0
C1260 C 0.94244 0.12162 0.12088 0.0
C1261 C 0.96879 0.16131 0.12512 0.0
C1262 C 0.99655 0.16732 0.13501 0.0
C1263 C 0.99947 0.13523 0.13982 0.0
H1264 H 0.81448 0.75331 0.09086 0.0
H1265 H 0.74219 0.72652 0.12558 0.0
H1266 H 0.87192 0.80399 0.1028 0.0
H1267 H 0.80053 0.77587 0.13796 0.0
H1268 H 0.90132 0.90536 0.14931 0.0
H1269 H 0.84335 0.84395 0.14134 0.0
H1270 H 0.92068 0.81852 0.11788 0.0
H1271 H 0.97789 0.8817 0.12511 0.0
C1272 C 0.81106 0.758 0.10114 0.0
C1273 C 0.77382 0.73622 0.10726 0.0
C1274 C 0.84425 0.78677 0.1081 0.0
C1275 C 0.84142 0.79402 0.1215 0.0
C1276 C 0.80402 0.77166 0.12766 0.0
C1277 C 0.77051 0.7433 0.12058 0.0
C1278 C 0.90585 0.88578 0.1428 0.0
C1279 C 0.94387 0.89809 0.13778 0.0
C1280 C 0.87256 0.85052 0.13816 0.0
C1281 C 0.87689 0.82657 0.12858 0.0
C1282 C 0.91577 0.83687 0.12481 0.0
C1283 C 0.94878 0.87265 0.12915 0.0
H1284 H 0.08438 0.29418 0.42237 0.0
H1285 H 0.0407 0.32181 0.38775 0.0
H1286 H 0.09103 0.24396 0.41028 0.0
H1287 H 0.04934 0.27258 0.37524 0.0
H1288 H 0.02046 0.1433 0.3636 0.0
H1289 H 0.02329 0.20398 0.37181 0.0
H1290 H 0.12658 0.23103 0.39503 0.0
H1291 H 0.1214 0.16878 0.38751 0.0
C1292 C 0.07664 0.2898 0.41208 0.0
C1293 C 0.06181 0.31179 0.40604 0.0
C1294 C 0.08096 0.26123 0.40504 0.0
C1295 C 0.07133 0.25426 0.39163 0.0
C1296 C 0.05678 0.27668 0.38554 0.0
C1297 C 0.05185 0.30497 0.39269 0.0
C1298 C 0.04453 0.16307 0.37011 0.0
C1299 C 0.07068 0.15149 0.37496 0.0
C1300 C 0.04614 0.19788 0.37489 0.0
C1301 C 0.07443 0.22208 0.38445 0.0
C1302 C 0.10333 0.21248 0.3881 0.0
C1303 C 0.10098 0.1772 0.3836 0.0
H1304 H 0.75744 0.74824 0.39423 0.0
H1305 H 0.72694 0.82401 0.41646 0.0
H1306 H 0.80968 0.80709 0.38294 0.0
H1307 H 0.7771 0.88219 0.40476 0.0
H1308 H 0.90745 0.97771 0.3978 0.0
H1309 H 0.8459 0.92121 0.40537 0.0
H1310 H 0.83057 0.86165 0.36801 0.0
H1311 H 0.89405 0.91867 0.36055 0.0
C1312 C 0.76153 0.7774 0.39657 0.0
C1313 C 0.73854 0.78154 0.40641 0.0
C1314 C 0.79119 0.81114 0.38999 0.0
C1315 C 0.7981 0.84972 0.39298 0.0
C1316 C 0.77353 0.85328 0.40238 0.0
C1317 C 0.74454 0.81978 0.4091 0.0
C1318 C 0.89059 0.95299 0.39106 0.0
C1319 C 0.90586 0.95257 0.37861 0.0
C1320 C 0.85494 0.92044 0.39539 0.0
C1321 C 0.83309 0.88637 0.38739 0.0
C1322 C 0.84692 0.88704 0.37455 0.0
C1323 C 0.88296 0.91994 0.37018 0.0
H1324 H 0.22028 0.95028 0.42403 0.0
H1325 H 0.292 0.99462 0.3892 0.0
H1326 H 0.16482 0.94896 0.41274 0.0
H1327 H 0.23599 0.99028 0.37746 0.0
H1328 H 0.14712 0.02877 0.3657 0.0
H1329 H 0.20024 0.02039 0.37437 0.0
H1330 H 0.11413 0.92204 0.39808 0.0
H1331 H 0.06198 0.93331 0.39009 0.0
C1332 C 0.22386 0.95911 0.41387 0.0
C1333 C 0.26054 0.97312 0.40756 0.0
C1334 C 0.19188 0.95794 0.40727 0.0
C1335 C 0.19542 0.96961 0.39405 0.0
C1336 C 0.23198 0.9821 0.38767 0.0
C1337 C 0.2642 0.9844 0.39439 0.0
C1338 C 0.13957 0.00458 0.37245 0.0
C1339 C 0.10056 0.98149 0.37716 0.0
C1340 C 0.17009 0.99969 0.37751 0.0
C1341 C 0.16209 0.97092 0.38723 0.0
C1342 C 0.1221 0.94548 0.39101 0.0
C1343 C 0.09188 0.95123 0.38622 0.0
H1344 H 0.71178 0.91802 0.91622 0.0
H1345 H 0.74959 0.02712 0.89493 0.0
H1346 H 0.7648 0.91156 0.90597 0.0
H1347 H 0.80344 0.02134 0.88494 0.0
H1348 H 0.88577 0.99098 0.86305 0.0
H1349 H 0.82228 0.98436 0.86992 0.0
H1350 H 0.83532 0.94493 0.90796 0.0
H1351 H 0.89751 0.95076 0.90105 0.0
C1352 C 0.73154 0.94075 0.9094 0.0
C1353 C 0.72676 0.97335 0.90653 0.0
C1354 C 0.76197 0.93705 0.9035 0.0
C1355 C 0.78861 0.966 0.89464 0.0
C1356 C 0.78322 0.99816 0.89156 0.0
C1357 C 0.75261 0.00175 0.89742 0.0
C1358 C 0.87434 0.9798 0.87273 0.0
C1359 C 0.89675 0.97166 0.88154 0.0
C1360 C 0.83826 0.97649 0.87674 0.0
C1361 C 0.82382 0.96455 0.88957 0.0
C1362 C 0.84513 0.95389 0.89799 0.0
C1363 C 0.88103 0.95742 0.89404 0.0
H1364 H 0.09537 0.81108 0.9199 0.0
H1365 H 0.01908 0.72939 0.88984 0.0
H1366 H 0.0972 0.86665 0.90847 0.0
H1367 H 0.02269 0.78501 0.87792 0.0
H1368 H 0.99557 0.88512 0.86945 0.0
H1369 H 0.99984 0.82881 0.87756 0.0
H1370 H 0.11959 0.91074 0.89131 0.0
H1371 H 0.11356 0.96704 0.88392 0.0
C1372 C 0.0793 0.80508 0.91076 0.0
C1373 C 0.05671 0.76576 0.90588 0.0
C1374 C 0.08071 0.8371 0.90406 0.0
C1375 C 0.06019 0.8308 0.89213 0.0
C1376 C 0.03829 0.79134 0.88715 0.0
C1377 C 0.03629 0.75928 0.89399 0.0
C1378 C 0.02331 0.89081 0.87377 0.0
C1379 C 0.05451 0.93026 0.87585 0.0
C1380 C 0.02582 0.85848 0.87852 0.0
C1381 C 0.05989 0.86481 0.88536 0.0
C1382 C 0.09238 0.90442 0.88647 0.0
C1383 C 0.08942 0.93679 0.88196 0.0
H1384 H 0.22581 0.31922 0.91616 0.0
H1385 H 0.29977 0.28668 0.89401 0.0
H1386 H 0.16722 0.26795 0.90476 0.0
H1387 H 0.24041 0.23349 0.88295 0.0
H1388 H 0.1264 0.14686 0.86144 0.0
H1389 H 0.18363 0.21187 0.8682 0.0
H1390 H 0.13067 0.19788 0.90649 0.0
H1391 H 0.0742 0.13454 0.89968 0.0
C1392 C 0.22959 0.30106 0.90885 0.0
C1393 C 0.2674 0.30664 0.90614 0.0
C1394 C 0.19587 0.27151 0.9023 0.0
C1395 C 0.19884 0.24604 0.89305 0.0
C1396 C 0.23696 0.25271 0.88993 0.0
C1397 C 0.27095 0.28289 0.89636 0.0
C1398 C 0.12662 0.15859 0.87113 0.0
C1399 C 0.09599 0.1357 0.88006 0.0
C1400 C 0.15957 0.19547 0.87507 0.0
C1401 C 0.16204 0.21009 0.88794 0.0
C1402 C 0.12986 0.18813 0.89647 0.0
C1403 C 0.09738 0.15156 0.89258 0.0
H1404 H 0.95583 0.75045 0.58874 0.0
H1405 H 0.00409 0.72781 0.62324 0.0
H1406 H 0.9502 0.80204 0.60043 0.0
H1407 H 0.99622 0.77794 0.63537 0.0
H1408 H 0.0243 0.9063 0.64672 0.0
H1409 H 0.02138 0.84568 0.63849 0.0
H1410 H 0.9174 0.81822 0.61557 0.0
H1411 H 0.9228 0.88057 0.6231 0.0
C1412 C 0.9648 0.75625 0.59892 0.0
C1413 C 0.98071 0.73533 0.60503 0.0
C1414 C 0.96108 0.78559 0.60574 0.0
C1415 C 0.97229 0.7943 0.61901 0.0
C1416 C 0.98772 0.77274 0.62516 0.0
C1417 C 0.99218 0.74386 0.61822 0.0
C1418 C 1.00007 0.88646 0.64027 0.0
C1419 C 0.97369 0.8979 0.63556 0.0
C1420 C 0.99841 0.85164 0.63546 0.0
C1421 C 0.9698 0.82718 0.626 0.0
C1422 C 0.94089 0.83686 0.62241 0.0
C1423 C 0.94332 0.87218 0.62693 0.0
H1424 H 0.28997 0.29841 0.61629 0.0
H1425 H 0.32329 0.22087 0.5966 0.0
H1426 H 0.23635 0.24066 0.62757 0.0
H1427 H 0.2712 0.16361 0.60825 0.0
H1428 H 0.13881 0.06965 0.61412 0.0
H1429 H 0.20176 0.12497 0.60676 0.0
H1430 H 0.21454 0.18752 0.64332 0.0
H1431 H 0.14994 0.13164 0.65057 0.0
C1432 C 0.28617 0.26911 0.6145 0.0
C1433 C 0.31049 0.26417 0.60539 0.0
C1434 C 0.25569 0.23599 0.62108 0.0
C1435 C 0.24907 0.19719 0.61879 0.0
C1436 C 0.27471 0.19276 0.61009 0.0
C1437 C 0.30474 0.2257 0.60341 0.0
C1438 C 0.15547 0.09475 0.62075 0.0
C1439 C 0.13931 0.09634 0.6329 0.0
C1440 C 0.19185 0.1266 0.61654 0.0
C1441 C 0.21336 0.16116 0.62436 0.0
C1442 C 0.1985 0.16167 0.63694 0.0
C1443 C 0.16183 0.12944 0.6412 0.0
H1444 H 0.74583 0.0458 0.62194 0.0
H1445 H 0.81765 0.09779 0.58754 0.0
H1446 H 0.80267 0.05063 0.63325 0.0
H1447 H 0.87403 0.09954 0.5983 0.0
H1448 H 0.97832 0.115 0.62032 0.0
H1449 H 0.92479 0.12465 0.61269 0.0
H1450 H 0.84076 0.02338 0.63583 0.0
H1451 H 0.89519 0.01674 0.6442 0.0
C1452 C 0.77386 0.05783 0.61674 0.0
C1453 C 0.77727 0.07115 0.60383 0.0
C1454 C 0.80661 0.06037 0.6232 0.0
C1455 C 0.84354 0.07511 0.61679 0.0
C1456 C 0.84676 0.08876 0.60382 0.0
C1457 C 0.81423 0.08739 0.59751 0.0
C1458 C 0.94852 0.09603 0.62414 0.0
C1459 C 0.94089 0.06562 0.63301 0.0
C1460 C 0.91748 0.10085 0.61955 0.0
C1461 C 0.87765 0.07426 0.6233 0.0
C1462 C 0.87066 0.04504 0.63274 0.0
C1463 C 0.90196 0.04112 0.63762 0.0
H1464 H 0.95063 0.34222 0.44731 0.0
H1465 H 0.99171 0.45708 0.42936 0.0
H1466 H 0.89346 0.34394 0.45649 0.0
H1467 H 0.93407 0.45835 0.43856 0.0
H1468 H 0.8264 0.41253 0.47891 0.0
H1469 H 0.89132 0.42159 0.47221 0.0
H1470 H 0.8446 0.3761 0.43372 0.0
H1471 H 0.78054 0.36696 0.44015 0.0
C1472 C 0.94772 0.368 0.44541 0.0
C1473 C 0.97562 0.39941 0.43751 0.0
C1474 C 0.9152 0.36906 0.45077 0.0
C1475 C 0.90999 0.40159 0.44839 0.0
C1476 C 0.93798 0.43329 0.44068 0.0
C1477 C 0.97065 0.43231 0.43532 0.0
C1478 C 0.83014 0.40491 0.46899 0.0
C1479 C 0.7981 0.38901 0.46011 0.0
C1480 C 0.86719 0.41009 0.46518 0.0
C1481 C 0.87262 0.39959 0.45245 0.0
C1482 C 0.84108 0.38465 0.44354 0.0
C1483 C 0.80437 0.37947 0.44729 0.0
H1484 H 0.67077 0.63533 0.45585 0.0
H1485 H 0.6185 0.56478 0.42091 0.0
H1486 H 0.66427 0.57709 0.46681 0.0
H1487 H 0.61473 0.50692 0.43139 0.0
H1488 H 0.59174 0.3996 0.45328 0.0
H1489 H 0.58629 0.45587 0.44575 0.0
H1490 H 0.68912 0.53623 0.46922 0.0
H1491 H 0.69189 0.47916 0.47746 0.0
C1492 C 0.65834 0.60731 0.45045 0.0
C1493 C 0.64536 0.60467 0.43749 0.0
C1494 C 0.65479 0.57375 0.45672 0.0
C1495 C 0.63912 0.53669 0.4501 0.0
C1496 C 0.6261 0.53429 0.43706 0.0
C1497 C 0.62865 0.56767 0.43092 0.0
C1498 C 0.61215 0.42925 0.45717 0.0
C1499 C 0.64194 0.43502 0.46606 0.0
C1500 C 0.60967 0.46181 0.45264 0.0
C1501 C 0.6379 0.50132 0.4565 0.0
C1502 C 0.66642 0.50661 0.46601 0.0
C1503 C 0.66808 0.47379 0.47083 0.0
H1504 H 0.47657 0.0761 0.42539 0.0
H1505 H 0.39842 0.0581 0.45795 0.0
H1506 H 0.5327 0.12768 0.43774 0.0
H1507 H 0.45498 0.10848 0.47067 0.0
H1508 H 0.5538 0.24105 0.47946 0.0
H1509 H 0.49719 0.17787 0.47197 0.0
H1510 H 0.57814 0.14496 0.45473 0.0
H1511 H 0.63445 0.20952 0.46164 0.0
C1512 C 0.47152 0.08285 0.43528 0.0
C1513 C 0.43304 0.06341 0.44063 0.0
C1514 C 0.50387 0.11216 0.44247 0.0
C1515 C 0.49872 0.12241 0.45531 0.0
C1516 C 0.46019 0.10198 0.46078 0.0
C1517 C 0.42771 0.07301 0.45349 0.0
C1518 C 0.55933 0.21945 0.47456 0.0
C1519 C 0.5983 0.22977 0.47123 0.0
C1520 C 0.52686 0.18319 0.47017 0.0
C1521 C 0.53284 0.15643 0.46242 0.0
C1522 C 0.57222 0.16524 0.46031 0.0
C1523 C 0.6046 0.20183 0.4645 0.0
H1524 H 0.78259 0.65668 0.74845 0.0
H1525 H 0.67218 0.61588 0.72772 0.0
H1526 H 0.79282 0.60815 0.73672 0.0
H1527 H 0.68103 0.5649 0.71647 0.0
H1528 H 0.71071 0.48159 0.69473 0.0
H1529 H 0.71593 0.54519 0.70132 0.0
H1530 H 0.7649 0.5395 0.73853 0.0
H1531 H 0.76082 0.47773 0.7318 0.0
C1532 C 0.76034 0.63721 0.74139 0.0
C1533 C 0.72627 0.6398 0.73916 0.0
C1534 C 0.76615 0.60915 0.73467 0.0
C1535 C 0.73746 0.58194 0.72577 0.0
C1536 C 0.70399 0.58551 0.72315 0.0
C1537 C 0.69863 0.61441 0.7297 0.0
C1538 C 0.72399 0.49498 0.70409 0.0
C1539 C 0.73525 0.47473 0.71278 0.0
C1540 C 0.72639 0.53102 0.70796 0.0
C1541 C 0.74038 0.54742 0.72054 0.0
C1542 C 0.75439 0.52839 0.72873 0.0
C1543 C 0.75194 0.49269 0.72489 0.0
H1544 H 0.38338 0.14841 0.74791 0.0
H1545 H 0.41815 0.07251 0.72789 0.0
H1546 H 0.43381 0.20599 0.73609 0.0
H1547 H 0.47087 0.13097 0.71655 0.0
H1548 H 0.55828 0.24165 0.69452 0.0
H1549 H 0.49349 0.18478 0.70118 0.0
H1550 H 0.50226 0.24564 0.73782 0.0
H1551 H 0.56513 0.30185 0.731 0.0
C1552 C 0.40194 0.14402 0.741 0.0
C1553 C 0.39711 0.10595 0.73898 0.0
C1554 C 0.4311 0.17719 0.73422 0.0
C1555 C 0.45711 0.17354 0.72548 0.0
C1556 C 0.45127 0.13506 0.72309 0.0
C1557 C 0.42134 0.10156 0.7297 0.0
C1558 C 0.54538 0.24324 0.70376 0.0
C1559 C 0.56676 0.27605 0.71227 0.0
C1560 C 0.50862 0.21045 0.70769 0.0
C1561 C 0.49263 0.21017 0.72014 0.0
C1562 C 0.51297 0.24456 0.72812 0.0
C1563 C 0.54934 0.27696 0.72422 0.0
H1564 H 0.96394 0.36097 0.73119 0.0
H1565 H 0.88885 0.24801 0.75029 0.0
H1566 H 0.90587 0.35509 0.72023 0.0
H1567 H 0.83079 0.24152 0.73905 0.0
H1568 H 0.73704 0.2797 0.73308 0.0
H1569 H 0.79171 0.27232 0.74056 0.0
H1570 H 0.85348 0.32052 0.70407 0.0
H1571 H 0.79824 0.32864 0.69665 0.0
C1572 C 0.93504 0.3347 0.73299 0.0
C1573 C 0.93101 0.30523 0.74177 0.0
C1574 C 0.90173 0.33107 0.72655 0.0
C1575 C 0.86346 0.2978 0.7287 0.0
C1576 C 0.85965 0.26782 0.73726 0.0
C1577 C 0.89297 0.27153 0.74373 0.0
C1578 C 0.76181 0.28777 0.72649 0.0
C1579 C 0.76346 0.30503 0.71431 0.0
C1580 C 0.79325 0.28341 0.73078 0.0
C1581 C 0.82745 0.29631 0.72303 0.0
C1582 C 0.82789 0.31092 0.7104 0.0
C1583 C 0.79605 0.31505 0.70605 0.0
H1584 H 0.42345 0.36501 0.22763 0.0
H1585 H 0.38294 0.25624 0.2494 0.0
H1586 H 0.47549 0.35655 0.21754 0.0
H1587 H 0.43419 0.24705 0.23903 0.0
H1588 H 0.56651 0.2833 0.23366 0.0
H1589 H 0.50442 0.27773 0.24056 0.0
H1590 H 0.49215 0.31815 0.2026 0.0
H1591 H 0.55557 0.32456 0.19577 0.0
C1592 C 0.42551 0.33914 0.23021 0.0
C1593 C 0.39942 0.31163 0.23948 0.0
C1594 C 0.45505 0.33398 0.22428 0.0
C1595 C 0.45914 0.30106 0.22742 0.0
C1596 C 0.43233 0.27304 0.23648 0.0
C1597 C 0.40294 0.27833 0.24246 0.0
C1598 C 0.55005 0.28998 0.22664 0.0
C1599 C 0.56607 0.30469 0.21421 0.0
C1600 C 0.51425 0.28667 0.2306 0.0
C1601 C 0.49339 0.29805 0.22223 0.0
C1602 C 0.50784 0.30984 0.20938 0.0
C1603 C 0.54383 0.31295 0.20538 0.0
H1604 H 0.79047 0.15292 0.25081 0.0
H1605 H 0.68007 0.07801 0.2302 0.0
H1606 H 0.79763 0.21172 0.23982 0.0
H1607 H 0.68644 0.1368 0.21953 0.0
H1608 H 0.71359 0.24549 0.19655 0.0
H1609 H 0.72123 0.18982 0.20395 0.0
H1610 H 0.76777 0.25134 0.24086 0.0
H1611 H 0.76109 0.30656 0.23337 0.0
C1612 C 0.76759 0.14902 0.24399 0.0
C1613 C 0.73448 0.1108 0.24151 0.0
C1614 C 0.77168 0.18277 0.23766 0.0
C1615 C 0.7426 0.17923 0.22875 0.0
C1616 C 0.70982 0.14079 0.22613 0.0
C1617 C 0.70588 0.10705 0.23239 0.0
C1618 C 0.72674 0.24756 0.20605 0.0
C1619 C 0.73648 0.28025 0.21441 0.0
C1620 C 0.73058 0.21543 0.21039 0.0
C1621 C 0.74451 0.21561 0.22312 0.0
C1622 C 0.75718 0.24995 0.23099 0.0
C1623 C 0.75322 0.28172 0.2267 0.0
H1624 H 0.89192 0.6559 0.2487 0.0
H1625 H 0.96466 0.61717 0.22894 0.0
H1626 H 0.83486 0.60902 0.23582 0.0
H1627 H 0.90632 0.56707 0.21678 0.0
H1628 H 0.79832 0.48233 0.19383 0.0
H1629 H 0.85566 0.54632 0.20106 0.0
H1630 H 0.79063 0.54236 0.23601 0.0
H1631 H 0.7339 0.48072 0.22845 0.0
C1632 C 0.8957 0.63712 0.24165 0.0
C1633 C 0.93282 0.64009 0.23994 0.0
C1634 C 0.86272 0.60983 0.23427 0.0
C1635 C 0.86536 0.58339 0.22534 0.0
C1636 C 0.90291 0.58707 0.2234 0.0
C1637 C 0.93635 0.61544 0.23052 0.0
C1638 C 0.79593 0.49641 0.20273 0.0
C1639 C 0.76177 0.47665 0.2106 0.0
C1640 C 0.82904 0.53263 0.20704 0.0
C1641 C 0.82844 0.54951 0.21929 0.0
C1642 C 0.79267 0.53111 0.22649 0.0
C1643 C 0.75985 0.49542 0.22216 0.0
H1644 H 0.69364 0.08439 0.9501 0.0
H1645 H 0.58949 0.05405 0.92703 0.0
H1646 H 0.68747 0.13708 0.96128 0.0
H1647 H 0.58214 0.10496 0.93852 0.0
H1648 H 0.62256 0.23725 0.9453 0.0
H1649 H 0.61643 0.17517 0.93774 0.0
H1650 H 0.65101 0.15696 0.97596 0.0
H1651 H 0.65824 0.22069 0.98349 0.0
C1652 C 0.66914 0.08861 0.94754 0.0
C1653 C 0.64249 0.06554 0.93752 0.0
C1654 C 0.66532 0.11851 0.95405 0.0
C1655 C 0.63449 0.12563 0.95074 0.0
C1656 C 0.60677 0.10103 0.94115 0.0
C1657 C 0.61094 0.07169 0.93455 0.0
C1658 C 0.62808 0.21967 0.95221 0.0
C1659 C 0.6412 0.23407 0.96496 0.0
C1660 C 0.62435 0.18377 0.94788 0.0
C1661 C 0.6335 0.16097 0.95619 0.0
C1662 C 0.64429 0.17407 0.96925 0.0
C1663 C 0.64792 0.21026 0.97362 0.0
H1664 H 0.95058 0.63016 0.95101 0.0
H1665 H 0.98865 0.55392 0.93322 0.0
H1666 H 0.90046 0.57352 0.9636 0.0
H1667 H 0.94121 0.49832 0.94645 0.0
H1668 H 0.81233 0.39901 0.95385 0.0
H1669 H 0.87438 0.45438 0.94614 0.0
H1670 H 0.87924 0.5247 0.98 0.0
H1671 H 0.81504 0.46864 0.98739 0.0
C1672 C 0.9487 0.60144 0.94997 0.0
C1673 C 0.9731 0.59638 0.94094 0.0
C1674 C 0.92026 0.56896 0.95733 0.0
C1675 C 0.91614 0.53081 0.95603 0.0
C1676 C 0.94239 0.52668 0.94751 0.0
C1677 C 0.96992 0.55876 0.93992 0.0
C1678 C 0.82734 0.42582 0.9599 0.0
C1679 C 0.80881 0.42954 0.97119 0.0
C1680 C 0.86323 0.45786 0.95548 0.0
C1681 C 0.88203 0.49471 0.96229 0.0
C1682 C 0.86529 0.49719 0.97431 0.0
C1683 C 0.82891 0.46483 0.97872 0.0
H1684 H 0.41094 0.37302 0.95673 0.0
H1685 H 0.48205 0.42238 0.92201 0.0
H1686 H 0.46833 0.37952 0.96822 0.0
H1687 H 0.53893 0.42598 0.93301 0.0
H1688 H 0.64452 0.44814 0.95533 0.0
H1689 H 0.58948 0.45503 0.94757 0.0
H1690 H 0.50805 0.35373 0.97118 0.0
H1691 H 0.56395 0.3497 0.97967 0.0
C1692 C 0.43888 0.38474 0.95149 0.0
C1693 C 0.44199 0.39694 0.93844 0.0
C1694 C 0.47193 0.38832 0.95807 0.0
C1695 C 0.50886 0.40318 0.95166 0.0
C1696 C 0.51167 0.41533 0.93852 0.0
C1697 C 0.47884 0.41282 0.93208 0.0
C1698 C 0.61495 0.4285 0.95921 0.0
C1699 C 0.60845 0.39868 0.96818 0.0
C1700 C 0.58309 0.43176 0.95455 0.0
C1701 C 0.5436 0.40421 0.95836 0.0
C1702 C 0.53769 0.3759 0.968 0.0
C1703 C 0.56983 0.37352 0.97296 0.0
H1704 H 0.64643 0.77777 0.75838 0.0
H1705 H 0.62186 0.6802 0.78406 0.0
H1706 H 0.59185 0.78234 0.76831 0.0
H1707 H 0.56688 0.68442 0.79388 0.0
H1708 H 0.48428 0.7177 0.81491 0.0
H1709 H 0.54815 0.72623 0.80742 0.0
H1710 H 0.51973 0.74044 0.76781 0.0
H1711 H 0.45688 0.73226 0.77525 0.0
C1712 C 0.62938 0.75727 0.76614 0.0
C1713 C 0.63825 0.72832 0.77031 0.0
C1714 C 0.59809 0.75991 0.77185 0.0
C1715 C 0.57491 0.73374 0.7819 0.0
C1716 C 0.58441 0.7054 0.78629 0.0
C1717 C 0.61565 0.70267 0.78054 0.0
C1718 C 0.49231 0.72369 0.80468 0.0
C1719 C 0.46552 0.72411 0.79566 0.0
C1720 C 0.52862 0.72812 0.80036 0.0
C1721 C 0.53895 0.7337 0.78698 0.0
C1722 C 0.51304 0.73653 0.77817 0.0
C1723 C 0.47684 0.73166 0.78244 0.0
H1724 H 0.25016 0.88825 0.76147 0.0
H1725 H 0.35939 0.96443 0.78251 0.0
H1726 H 0.24467 0.82962 0.77205 0.0
H1727 H 0.3546 0.9058 0.79282 0.0
H1728 H 0.3265 0.79549 0.81566 0.0
H1729 H 0.31968 0.85154 0.80815 0.0
H1730 H 0.2768 0.79185 0.77078 0.0
H1731 H 0.28265 0.73621 0.77833 0.0
C1732 C 0.27312 0.89248 0.76831 0.0
C1733 C 0.30542 0.93103 0.77102 0.0
C1734 C 0.27001 0.85883 0.77439 0.0
C1735 C 0.29924 0.86277 0.78331 0.0
C1736 C 0.33118 0.90149 0.78618 0.0
C1737 C 0.33418 0.93515 0.78014 0.0
C1738 C 0.31458 0.79398 0.80599 0.0
C1739 C 0.3054 0.76151 0.79757 0.0
C1740 C 0.31114 0.82631 0.8016 0.0
C1741 C 0.29814 0.8266 0.78877 0.0
C1742 C 0.2866 0.7928 0.78074 0.0
C1743 C 0.29016 0.76082 0.78507 0.0
H1744 H 0.14638 0.41153 0.76255 0.0
H1745 H 0.06289 0.39487 0.79321 0.0
H1746 H 0.20076 0.4614 0.7758 0.0
H1747 H 0.11789 0.44426 0.80684 0.0
H1748 H 0.22066 0.57684 0.81581 0.0
H1749 H 0.16313 0.51439 0.80822 0.0
H1750 H 0.24186 0.47445 0.79406 0.0
H1751 H 0.29924 0.53808 0.80109 0.0
C1752 C 0.13968 0.41827 0.77221 0.0
C1753 C 0.10026 0.39945 0.77677 0.0
C1754 C 0.17106 0.4466 0.77994 0.0
C1755 C 0.16406 0.45676 0.79254 0.0
C1756 C 0.12451 0.43748 0.79718 0.0
C1757 C 0.09295 0.40918 0.78937 0.0
C1758 C 0.22541 0.5538 0.81164 0.0
C1759 C 0.26423 0.56196 0.80913 0.0
C1760 C 0.19242 0.51801 0.80718 0.0
C1761 C 0.19772 0.48964 0.80016 0.0
C1762 C 0.2366 0.49608 0.79905 0.0
C1763 C 0.26954 0.53215 0.80333 0.0
H1764 H 0.33899 0.95095 0.06161 0.0
H1765 H 0.44495 0.98414 0.08407 0.0
H1766 H 0.34615 0.89891 0.05035 0.0
H1767 H 0.45354 0.93448 0.07239 0.0
H1768 H 0.41739 0.80361 0.0659 0.0
H1769 H 0.42196 0.86504 0.07335 0.0
H1770 H 0.38206 0.87922 0.03549 0.0
H1771 H 0.37619 0.81589 0.02814 0.0
C1772 C 0.36408 0.94752 0.064 0.0
C1773 C 0.391 0.97123 0.07388 0.0
C1774 C 0.3685 0.91803 0.05744 0.0
C1775 C 0.40025 0.91208 0.06053 0.0
C1776 C 0.42817 0.93738 0.06995 0.0
C1777 C 0.42331 0.96611 0.07664 0.0
C1778 C 0.4105 0.82028 0.05903 0.0
C1779 C 0.39634 0.80488 0.04646 0.0
C1780 C 0.41328 0.8558 0.06329 0.0
C1781 C 0.40215 0.87723 0.05508 0.0
C1782 C 0.39035 0.8632 0.04214 0.0
C1783 C 0.3876 0.82732 0.03785 0.0
H1784 H 0.06065 0.40143 0.05552 0.0
H1785 H 0.08439 0.48028 0.08867 0.0
H1786 H 0.11043 0.45783 0.04272 0.0
H1787 H 0.13534 0.53603 0.07628 0.0
H1788 H 0.2132 0.63846 0.05226 0.0
H1789 H 0.1505 0.58197 0.05991 0.0
H1790 H 0.17882 0.5005 0.04009 0.0
H1791 H 0.24001 0.55749 0.03178 0.0
C1792 C 0.07677 0.43079 0.0601 0.0
C1793 C 0.06874 0.4364 0.07312 0.0
C1794 C 0.10541 0.4632 0.05277 0.0
C1795 C 0.12707 0.50192 0.05835 0.0
C1796 C 0.11877 0.50718 0.07142 0.0
C1797 C 0.0898 0.47499 0.07864 0.0
C1798 C 0.20487 0.60848 0.04905 0.0
C1799 C 0.231 0.60222 0.04131 0.0
C1800 C 0.16937 0.57593 0.05366 0.0
C1801 C 0.15989 0.53629 0.05102 0.0
C1802 C 0.1847 0.53034 0.04235 0.0
C1803 C 0.21979 0.56304 0.03749 0.0
H1804 H 0.63028 0.66734 0.05658 0.0
H1805 H 0.56095 0.61984 0.09173 0.0
H1806 H 0.57259 0.6613 0.04543 0.0
H1807 H 0.50388 0.6168 0.08109 0.0
H1808 H 0.3973 0.59483 0.05924 0.0
H1809 H 0.45242 0.58803 0.06695 0.0
H1810 H 0.53317 0.68734 0.04251 0.0
H1811 H 0.47708 0.69116 0.03407 0.0
C1812 C 0.60267 0.65611 0.06198 0.0
C1813 C 0.60013 0.64426 0.07505 0.0
C1814 C 0.56945 0.65282 0.0556 0.0
C1815 C 0.53295 0.63867 0.06224 0.0
C1816 C 0.53074 0.62689 0.07539 0.0
C1817 C 0.56369 0.62906 0.08163 0.0
C1818 C 0.42674 0.61411 0.0552 0.0
C1819 C 0.43296 0.64321 0.04598 0.0
C1820 C 0.45867 0.6109 0.05983 0.0
C1821 C 0.49803 0.63784 0.05573 0.0
C1822 C 0.50366 0.66561 0.04591 0.0
C1823 C 0.47141 0.66789 0.04099 0.0
H1824 H 0.07812 0.68953 0.55977 0.0
H1825 H 0.0591 0.59727 0.58705 0.0
H1826 H 0.1349 0.68755 0.55043 0.0
H1827 H 0.11566 0.59511 0.57765 0.0
H1828 H 0.25119 0.65026 0.57084 0.0
H1829 H 0.18791 0.64161 0.57799 0.0
H1830 H 0.15618 0.64533 0.53785 0.0
H1831 H 0.22043 0.65421 0.53061 0.0
C1832 C 0.08591 0.66866 0.56374 0.0
C1833 C 0.06432 0.64387 0.57427 0.0
C1834 C 0.11823 0.66725 0.55828 0.0
C1835 C 0.12991 0.64122 0.56329 0.0
C1836 C 0.10771 0.6158 0.57364 0.0
C1837 C 0.07527 0.61702 0.57903 0.0
C1838 C 0.23059 0.64872 0.56348 0.0
C1839 C 0.24098 0.65313 0.55015 0.0
C1840 C 0.1941 0.64351 0.56759 0.0
C1841 C 0.16693 0.64287 0.55852 0.0
C1842 C 0.17664 0.64602 0.5451 0.0
C1843 C 0.21322 0.65075 0.54094 0.0
H1844 H 0.44277 0.4822 0.58427 0.0
H1845 H 0.35273 0.39639 0.55796 0.0
H1846 H 0.44113 0.53654 0.57303 0.0
H1847 H 0.3518 0.45055 0.54652 0.0
H1848 H 0.32171 0.55107 0.54264 0.0
H1849 H 0.32869 0.49576 0.5503 0.0
H1850 H 0.45613 0.57542 0.55334 0.0
H1851 H 0.44848 0.6311 0.54593 0.0
C1852 C 0.42285 0.47494 0.57603 0.0
C1853 C 0.3976 0.43487 0.57212 0.0
C1854 C 0.42217 0.50617 0.56948 0.0
C1855 C 0.39627 0.49811 0.55883 0.0
C1856 C 0.3717 0.458 0.55477 0.0
C1857 C 0.37231 0.42686 0.56133 0.0
C1858 C 0.35132 0.55633 0.54453 0.0
C1859 C 0.38464 0.595 0.54346 0.0
C1860 C 0.35541 0.52467 0.54896 0.0
C1861 C 0.39299 0.53098 0.55255 0.0
C1862 C 0.42667 0.56951 0.55085 0.0
C1863 C 0.42248 0.60127 0.5464 0.0
H1864 H 0.56028 0.973 0.58182 0.0
H1865 H 0.64684 0.97436 0.555 0.0
H1866 H 0.50666 0.91894 0.56918 0.0
H1867 H 0.59306 0.92044 0.54222 0.0
H1868 H 0.49147 0.78506 0.53923 0.0
H1869 H 0.54743 0.84952 0.54612 0.0
H1870 H 0.46948 0.89798 0.5484 0.0
H1871 H 0.41315 0.83266 0.54149 0.0
C1872 C 0.56785 0.96202 0.57314 0.0
C1873 C 0.60787 0.97768 0.56951 0.0
C1874 C 0.53703 0.93128 0.56579 0.0
C1875 C 0.54546 0.91528 0.55465 0.0
C1876 C 0.5855 0.93181 0.5508 0.0
C1877 C 0.61633 0.96272 0.55813 0.0
C1878 C 0.48669 0.80999 0.54072 0.0
C1879 C 0.44824 0.80418 0.53973 0.0
C1880 C 0.51874 0.84697 0.54469 0.0
C1881 C 0.51296 0.87892 0.54796 0.0
C1882 C 0.47484 0.87383 0.5461 0.0
C1883 C 0.44271 0.83671 0.54198 0.0
H1884 H 0.26515 0.39716 0.2578 0.0
H1885 H 0.3658 0.42568 0.28248 0.0
H1886 H 0.2561 0.4471 0.26915 0.0
H1887 H 0.35819 0.47776 0.29348 0.0
H1888 H 0.32543 0.55914 0.31532 0.0
H1889 H 0.32005 0.49648 0.30758 0.0
H1890 H 0.2893 0.51692 0.26904 0.0
H1891 H 0.29327 0.5778 0.27683 0.0
C1892 C 0.28551 0.41424 0.26564 0.0
C1893 C 0.31649 0.40774 0.26913 0.0
C1894 C 0.2804 0.44308 0.27214 0.0
C1895 C 0.3067 0.46699 0.28214 0.0
C1896 C 0.33708 0.4597 0.28592 0.0
C1897 C 0.34177 0.43018 0.27953 0.0
C1898 C 0.31626 0.54939 0.30532 0.0
C1899 C 0.30991 0.57347 0.29667 0.0
C1900 C 0.31376 0.51383 0.30083 0.0
C1901 C 0.30462 0.50169 0.28763 0.0
C1902 C 0.29593 0.52476 0.27928 0.0
C1903 C 0.29841 0.55998 0.28375 0.0
H1904 H 0.6202 0.96851 0.28452 0.0
H1905 H 0.65476 0.89228 0.26465 0.0
H1906 H 0.56979 0.91109 0.29674 0.0
H1907 H 0.60711 0.83574 0.27752 0.0
H1908 H 0.47876 0.73696 0.28571 0.0
H1909 H 0.5405 0.79233 0.27785 0.0
H1910 H 0.54862 0.86102 0.31256 0.0
H1911 H 0.4846 0.80502 0.3201 0.0
C1912 C 0.61742 0.93956 0.28291 0.0
C1913 C 0.64106 0.93487 0.27346 0.0
C1914 C 0.58884 0.9066 0.29006 0.0
C1915 C 0.58375 0.86822 0.28814 0.0
C1916 C 0.60901 0.86428 0.2791 0.0
C1917 C 0.6367 0.89691 0.27172 0.0
C1918 C 0.49442 0.76338 0.2919 0.0
C1919 C 0.47678 0.7667 0.30348 0.0
C1920 C 0.53015 0.79545 0.28738 0.0
C1921 C 0.54977 0.83193 0.29439 0.0
C1922 C 0.534 0.83387 0.30669 0.0
C1923 C 0.49774 0.80151 0.31119 0.0
H1924 H 0.14803 0.75896 0.25622 0.0
H1925 H 0.07657 0.70697 0.2907 0.0
H1926 H 0.2054 0.76381 0.26727 0.0
H1927 H 0.13435 0.71453 0.30224 0.0
H1928 H 0.23212 0.68719 0.31344 0.0
H1929 H 0.17546 0.69018 0.30511 0.0
H1930 H 0.25553 0.79345 0.28202 0.0
H1931 H 0.31141 0.78774 0.28962 0.0
C1932 C 0.14481 0.74907 0.26625 0.0
C1933 C 0.10772 0.73212 0.27252 0.0
C1934 C 0.17792 0.75229 0.27273 0.0
C1935 C 0.17516 0.73973 0.28581 0.0
C1936 C 0.13797 0.72375 0.29213 0.0
C1937 C 0.10467 0.71953 0.28553 0.0
C1938 C 0.23754 0.71125 0.30691 0.0
C1939 C 0.27607 0.73729 0.3022 0.0
C1940 C 0.20494 0.713 0.30203 0.0
C1941 C 0.21026 0.74151 0.29253 0.0
C1942 C 0.2496 0.77 0.28887 0.0
C1943 C 0.28194 0.76742 0.29346 0.0
loop_
_geom_bond_atom_site_label_1
_geom_bond_atom_site_label_2
_geom_bond_distance
_geom_bond_site_symmetry_2
_ccdc_geom_bond_type
Co0 O1 2.216 . S
Co0 O2 2.091 . S
Co0 O4 2.004 . S
Co0 O10 2.021 . S
Co0 O12 2.137 . S
Co0 O13 2.244 1_545 S
O1 Co0 2.216 . S
O1 C8 1.247 . S
O2 Co0 2.091 . S
O2 C8 1.261 . S
C3 O12 1.247 1_565 S
C3 O13 1.272 . S
O4 Co0 2.004 . S
O4 C9 1.259 . S
Co5 O6 2.061 . S
Co5 O11 2.052 . S
Co5 O13 2.135 . S
O6 Co5 2.061 . S
O6 C9 1.235 1_565 S
C7 O10 1.238 . S
C7 O11 1.241 1_545 S
C8 O1 1.247 . S
C8 O2 1.261 . S
C9 O4 1.259 . S
C9 O6 1.235 1_545 S
O10 Co0 2.021 . S
O10 C7 1.238 . S
O11 Co5 2.052 . S
O11 C7 1.241 1_565 S
O12 Co0 2.137 . S
O12 C3 1.247 1_545 S
O13 Co0 2.244 1_565 S
O13 C3 1.272 . S
O13 Co5 2.135 . S
Co14 O15 2.216 . S
Co14 O16 2.091 . S
Co14 O18 2.004 . S
Co14 O24 2.021 . S
Co14 O26 2.137 . S
Co14 O27 2.244 1_455 S
O15 Co14 2.216 . S
O15 C22 1.247 . S
O16 Co14 2.091 . S
O16 C22 1.261 . S
C17 O26 1.247 1_655 S
C17 O27 1.272 . S
O18 Co14 2.004 . S
O18 C23 1.259 . S
Co19 O20 2.061 . S
Co19 O25 2.052 . S
Co19 O27 2.135 . S
O20 Co19 2.061 . S
O20 C23 1.235 1_655 S
C21 O24 1.238 . S
C21 O25 1.241 1_455 S
C22 O15 1.247 . S
C22 O16 1.261 . S
C23 O18 1.259 . S
C23 O20 1.235 1_455 S
O24 Co14 2.021 . S
O24 C21 1.238 . S
O25 Co19 2.052 . S
O25 C21 1.241 1_655 S
O26 Co14 2.137 . S
O26 C17 1.247 1_455 S
O27 Co14 2.244 1_655 S
O27 C17 1.272 . S
O27 Co19 2.135 . S
Co28 O29 2.216 . S
Co28 O30 2.091 . S
Co28 O32 2.004 . S
Co28 O38 2.021 . S
Co28 O40 2.137 . S
Co28 O41 2.244 . S
O29 Co28 2.216 . S
O29 C36 1.247 . S
O30 Co28 2.091 . S
O30 C36 1.261 . S
C31 O40 1.247 . S
C31 O41 1.272 . S
O32 Co28 2.004 . S
O32 C37 1.259 . S
Co33 O34 2.061 . S
Co33 O39 2.052 . S
Co33 O41 2.135 . S
O34 Co33 2.061 . S
O34 C37 1.235 . S
C35 O38 1.238 . S
C35 O39 1.241 . S
C36 O29 1.247 . S
C36 O30 1.261 . S
C37 O32 1.259 . S
C37 O34 1.235 . S
O38 Co28 2.021 . S
O38 C35 1.238 . S
O39 Co33 2.052 . S
O39 C35 1.241 . S
O40 Co28 2.137 . S
O40 C31 1.247 . S
O41 Co28 2.244 . S
O41 C31 1.272 . S
O41 Co33 2.135 . S
Co42 O43 2.216 1_545 S
Co42 O44 2.091 1_545 S
Co42 O46 1.998 . S
Co42 O52 2.021 . S
Co42 O54 2.137 . S
Co42 O55 2.244 . S
O43 Co42 2.216 1_565 S
O43 C50 1.247 . S
O44 Co42 2.091 1_565 S
O44 C50 1.261 . S
C45 O54 1.247 . S
C45 O55 1.272 . S
O46 Co42 1.998 . S
O46 C51 1.290 . S
Co47 O48 2.061 . S
Co47 O53 2.052 . S
Co47 O55 2.135 . S
O48 Co47 2.061 . S
O48 C51 1.235 . S
C49 O52 1.238 . S
C49 O53 1.241 . S
C50 O43 1.247 . S
C50 O44 1.261 . S
C51 O46 1.290 . S
C51 O48 1.235 . S
O52 Co42 2.021 . S
O52 C49 1.238 . S
O53 Co47 2.052 . S
O53 C49 1.241 . S
O54 Co42 2.137 . S
O54 C45 1.247 . S
O55 Co42 2.244 . S
O55 C45 1.272 . S
O55 Co47 2.135 . S
Co56 O57 2.216 1_455 S
Co56 O58 2.091 1_455 S
Co56 O60 2.005 1_455 S
Co56 O66 2.021 . S
Co56 O68 2.137 . S
Co56 O69 2.244 . S
O57 Co56 2.216 1_655 S
O57 C64 1.247 . S
O58 Co56 2.091 1_655 S
O58 C64 1.261 . S
C59 O68 1.247 . S
C59 O69 1.272 . S
O60 Co56 2.005 1_655 S
O60 C65 1.255 1_655 S
Co61 O62 2.061 . S
Co61 O67 2.052 . S
Co61 O69 2.135 . S
O62 Co61 2.061 . S
O62 C65 1.235 . S
C63 O66 1.238 . S
C63 O67 1.241 . S
C64 O57 1.247 . S
C64 O58 1.261 . S
C65 O60 1.255 1_455 S
C65 O62 1.235 . S
O66 Co56 2.021 . S
O66 C63 1.238 . S
O67 Co61 2.052 . S
O67 C63 1.241 . S
O68 Co56 2.137 . S
O68 C59 1.247 . S
O69 Co56 2.244 . S
O69 C59 1.272 . S
O69 Co61 2.135 . S
Co70 O71 2.216 . S
Co70 O72 2.091 . S
Co70 O74 2.004 . S
Co70 O80 2.021 . S
Co70 O82 2.137 . S
Co70 O83 2.244 . S
O71 Co70 2.216 . S
O71 C78 1.247 . S
O72 Co70 2.091 . S
O72 C78 1.261 . S
C73 O82 1.247 . S
C73 O83 1.272 . S
O74 Co70 2.004 . S
O74 C79 1.259 . S
Co75 O76 2.061 . S
Co75 O81 2.052 . S
Co75 O83 2.135 . S
O76 Co75 2.061 . S
O76 C79 1.235 . S
C77 O80 1.238 . S
C77 O81 1.241 . S
C78 O71 1.247 . S
C78 O72 1.261 . S
C79 O74 1.259 . S
C79 O76 1.235 . S
O80 Co70 2.021 . S
O80 C77 1.238 . S
O81 Co75 2.052 . S
O81 C77 1.241 . S
O82 Co70 2.137 . S
O82 C73 1.247 . S
O83 Co70 2.244 . S
O83 C73 1.272 . S
O83 Co75 2.135 . S
Co84 O85 2.216 . S
Co84 O86 2.091 . S
Co84 O88 2.004 . S
Co84 O94 2.021 . S
Co84 O96 2.137 . S
Co84 O97 2.244 . S
O85 Co84 2.216 . S
O85 C92 1.247 . S
O86 Co84 2.091 . S
O86 C92 1.261 . S
C87 O96 1.247 . S
C87 O97 1.272 . S
O88 Co84 2.004 . S
O88 C93 1.259 . S
Co89 O90 2.061 . S
Co89 O95 2.052 . S
Co89 O97 2.135 . S
O90 Co89 2.061 . S
O90 C93 1.235 . S
C91 O94 1.238 . S
C91 O95 1.241 . S
C92 O85 1.247 . S
C92 O86 1.261 . S
C93 O88 1.259 . S
C93 O90 1.235 . S
O94 Co84 2.021 . S
O94 C91 1.238 . S
O95 Co89 2.052 . S
O95 C91 1.241 . S
O96 Co84 2.137 . S
O96 C87 1.247 . S
O97 Co84 2.244 . S
O97 C87 1.272 . S
O97 Co89 2.135 . S
Co98 O99 2.216 . S
Co98 O100 2.091 . S
Co98 O102 2.004 . S
Co98 O108 2.021 . S
Co98 O110 2.137 . S
Co98 O111 2.244 . S
O99 Co98 2.216 . S
O99 C106 1.247 . S
O100 Co98 2.091 . S
O100 C106 1.261 . S
C101 O110 1.247 . S
C101 O111 1.272 . S
O102 Co98 2.004 . S
O102 C107 1.259 . S
Co103 O104 2.061 . S
Co103 O109 2.052 . S
Co103 O111 2.135 . S
O104 Co103 2.061 . S
O104 C107 1.235 . S
C105 O108 1.238 . S
C105 O109 1.241 . S
C106 O99 1.247 . S
C106 O100 1.261 . S
C107 O102 1.259 . S
C107 O104 1.235 . S
O108 Co98 2.021 . S
O108 C105 1.238 . S
O109 Co103 2.052 . S
O109 C105 1.241 . S
O110 Co98 2.137 . S
O110 C101 1.247 . S
O111 Co98 2.244 . S
O111 C101 1.272 . S
O111 Co103 2.135 . S
Co112 O113 2.216 1_655 S
Co112 O114 2.091 1_655 S
Co112 O116 2.004 . S
Co112 O122 2.021 . S
Co112 O124 2.137 1_655 S
Co112 O125 2.244 . S
O113 Co112 2.216 1_455 S
O113 C120 1.247 . S
O114 Co112 2.091 1_455 S
O114 C120 1.261 . S
C115 O124 1.247 1_655 S
C115 O125 1.272 . S
O116 Co112 2.004 . S
O116 C121 1.259 . S
Co117 O118 2.061 . S
Co117 O123 2.052 . S
Co117 O125 2.135 . S
O118 Co117 2.061 . S
O118 C121 1.235 . S
C119 O122 1.238 . S
C119 O123 1.241 . S
C120 O113 1.247 . S
C120 O114 1.261 . S
C121 O116 1.259 . S
C121 O118 1.235 . S
O122 Co112 2.021 . S
O122 C119 1.238 . S
O123 Co117 2.052 . S
O123 C119 1.241 . S
O124 Co112 2.137 1_455 S
O124 C115 1.247 1_455 S
O125 Co112 2.244 . S
O125 C115 1.272 . S
O125 Co117 2.135 . S
Co126 O127 2.211 1_655 S
Co126 O128 2.091 . S
Co126 O130 2.004 . S
Co126 O136 2.021 . S
Co126 O138 2.137 1_655 S
Co126 O139 2.244 1_655 S
O127 Co126 2.211 1_455 S
O127 C134 1.247 1_455 S
O128 Co126 2.091 . S
O128 C134 1.261 . S
C129 O138 1.247 . S
C129 O139 1.272 . S
O130 Co126 2.004 . S
O130 C135 1.259 . S
Co131 O132 2.061 . S
Co131 O137 2.052 . S
Co131 O139 2.135 1_655 S
O132 Co131 2.061 . S
O132 C135 1.235 . S
C133 O136 1.238 . S
C133 O137 1.241 . S
C134 O127 1.247 1_655 S
C134 O128 1.261 . S
C135 O130 1.259 . S
C135 O132 1.235 . S
O136 Co126 2.021 . S
O136 C133 1.238 . S
O137 Co131 2.052 . S
O137 C133 1.241 . S
O138 Co126 2.137 1_455 S
O138 C129 1.247 . S
O139 Co126 2.244 1_455 S
O139 C129 1.272 . S
O139 Co131 2.135 1_455 S
Co140 O141 2.216 . S
Co140 O142 2.091 . S
Co140 O144 2.004 . S
Co140 O150 2.021 . S
Co140 O152 2.137 . S
Co140 O153 2.244 . S
O141 Co140 2.216 . S
O141 C148 1.247 . S
O142 Co140 2.091 . S
O142 C148 1.261 . S
C143 O152 1.247 . S
C143 O153 1.272 . S
O144 Co140 2.004 . S
O144 C149 1.259 . S
Co145 O146 2.061 . S
Co145 O151 2.052 . S
Co145 O153 2.135 . S
O146 Co145 2.061 . S
O146 C149 1.235 . S
C147 O150 1.238 . S
C147 O151 1.241 . S
C148 O141 1.247 . S
C148 O142 1.261 . S
C149 O144 1.259 . S
C149 O146 1.235 . S
O150 Co140 2.021 . S
O150 C147 1.238 . S
O151 Co145 2.052 . S
O151 C147 1.241 . S
O152 Co140 2.137 . S
O152 C143 1.247 . S
O153 Co140 2.244 . S
O153 C143 1.272 . S
O153 Co145 2.135 . S
Co154 O155 2.216 . S
Co154 O156 2.091 . S
Co154 O158 2.004 . S
Co154 O164 2.021 . S
Co154 O166 2.137 . S
Co154 O167 2.244 . S
O155 Co154 2.216 . S
O155 C162 1.247 . S
O156 Co154 2.091 . S
O156 C162 1.261 . S
C157 O166 1.247 . S
C157 O167 1.272 . S
O158 Co154 2.004 . S
O158 C163 1.259 . S
Co159 O160 2.061 . S
Co159 O165 2.052 . S
Co159 O167 2.135 . S
O160 Co159 2.061 . S
O160 C163 1.235 . S
C161 O164 1.238 . S
C161 O165 1.241 . S
C162 O155 1.247 . S
C162 O156 1.261 . S
C163 O158 1.259 . S
C163 O160 1.235 . S
O164 Co154 2.021 . S
O164 C161 1.238 . S
O165 Co159 2.052 . S
O165 C161 1.241 . S
O166 Co154 2.137 . S
O166 C157 1.247 . S
O167 Co154 2.244 . S
O167 C157 1.272 . S
O167 Co159 2.135 . S
Co168 O169 2.216 . S
Co168 O170 2.091 . S
Co168 O172 2.004 . S
Co168 O178 2.021 . S
Co168 O180 2.137 . S
Co168 O181 2.244 . S
O169 Co168 2.216 . S
O169 C176 1.247 . S
O170 Co168 2.091 . S
O170 C176 1.261 . S
C171 O180 1.247 . S
C171 O181 1.272 . S
O172 Co168 2.004 . S
O172 C177 1.259 . S
Co173 O174 2.061 . S
Co173 O179 2.052 . S
Co173 O181 2.135 . S
O174 Co173 2.061 . S
O174 C177 1.235 . S
C175 O178 1.238 . S
C175 O179 1.241 . S
C176 O169 1.247 . S
C176 O170 1.261 . S
C177 O172 1.259 . S
C177 O174 1.235 . S
O178 Co168 2.021 . S
O178 C175 1.238 . S
O179 Co173 2.052 . S
O179 C175 1.241 . S
O180 Co168 2.137 . S
O180 C171 1.247 . S
O181 Co168 2.244 . S
O181 C171 1.272 . S
O181 Co173 2.135 . S
Co182 O183 2.216 . S
Co182 O184 2.091 . S
Co182 O186 2.004 . S
Co182 O192 2.021 . S
Co182 O194 2.137 . S
Co182 O195 2.244 . S
O183 Co182 2.216 . S
O183 C190 1.247 . S
O184 Co182 2.091 . S
O184 C190 1.261 . S
C185 O194 1.247 . S
C185 O195 1.272 . S
O186 Co182 2.004 . S
O186 C191 1.259 . S
Co187 O188 2.061 . S
Co187 O193 2.052 . S
Co187 O195 2.135 . S
O188 Co187 2.061 . S
O188 C191 1.235 . S
C189 O192 1.238 . S
C189 O193 1.241 . S
C190 O183 1.247 . S
C190 O184 1.261 . S
C191 O186 1.259 . S
C191 O188 1.235 . S
O192 Co182 2.021 . S
O192 C189 1.238 . S
O193 Co187 2.052 . S
O193 C189 1.241 . S
O194 Co182 2.137 . S
O194 C185 1.247 . S
O195 Co182 2.244 . S
O195 C185 1.272 . S
O195 Co187 2.135 . S
Co196 O197 2.216 1_565 S
Co196 O198 2.091 . S
Co196 O200 2.004 . S
Co196 O206 2.021 . S
Co196 O208 2.137 1_565 S
Co196 O209 2.244 1_565 S
O197 Co196 2.216 1_545 S
O197 C204 1.247 1_545 S
O198 Co196 2.091 . S
O198 C204 1.261 . S
C199 O208 1.247 . S
C199 O209 1.272 . S
O200 Co196 2.004 . S
O200 C205 1.259 . S
Co201 O202 2.061 . S
Co201 O207 2.052 . S
Co201 O209 2.135 1_565 S
O202 Co201 2.061 . S
O202 C205 1.235 . S
C203 O206 1.238 . S
C203 O207 1.241 . S
C204 O197 1.247 1_565 S
C204 O198 1.261 . S
C205 O200 1.259 . S
C205 O202 1.235 . S
O206 Co196 2.021 . S
O206 C203 1.238 . S
O207 Co201 2.052 . S
O207 C203 1.241 . S
O208 Co196 2.137 1_545 S
O208 C199 1.247 . S
O209 Co196 2.244 1_545 S
O209 C199 1.272 . S
O209 Co201 2.135 1_545 S
Co210 O211 2.216 . S
Co210 O212 2.091 . S
Co210 O214 2.004 . S
Co210 O220 2.021 . S
Co210 O222 2.137 . S
Co210 O223 2.244 . S
O211 Co210 2.216 . S
O211 C218 1.247 . S
O212 Co210 2.091 . S
O212 C218 1.261 . S
C213 O222 1.247 . S
C213 O223 1.272 . S
O214 Co210 2.004 . S
O214 C219 1.259 . S
Co215 O216 2.061 . S
Co215 O221 2.052 . S
Co215 O223 2.135 . S
O216 Co215 2.061 . S
O216 C219 1.235 . S
C217 O220 1.238 . S
C217 O221 1.241 . S
C218 O211 1.247 . S
C218 O212 1.261 . S
C219 O214 1.259 . S
C219 O216 1.235 . S
O220 Co210 2.021 . S
O220 C217 1.238 . S
O221 Co215 2.052 . S
O221 C217 1.241 . S
O222 Co210 2.137 . S
O222 C213 1.247 . S
O223 Co210 2.244 . S
O223 C213 1.272 . S
O223 Co215 2.135 . S
Co224 O225 2.216 1_565 S
Co224 O226 2.091 . S
Co224 O228 2.004 . S
Co224 O234 2.021 . S
Co224 O236 2.137 1_565 S
Co224 O237 2.244 1_565 S
O225 Co224 2.216 1_545 S
O225 C232 1.247 1_545 S
O226 Co224 2.091 . S
O226 C232 1.261 . S
C227 O236 1.247 . S
C227 O237 1.272 . S
O228 Co224 2.004 . S
O228 C233 1.259 . S
Co229 O230 2.061 . S
Co229 O235 2.052 . S
Co229 O237 2.135 1_565 S
O230 Co229 2.061 . S
O230 C233 1.235 . S
C231 O234 1.238 . S
C231 O235 1.241 . S
C232 O225 1.247 1_565 S
C232 O226 1.261 . S
C233 O228 1.259 . S
C233 O230 1.235 . S
O234 Co224 2.021 . S
O234 C231 1.238 . S
O235 Co229 2.052 . S
O235 C231 1.241 . S
O236 Co224 2.137 1_545 S
O236 C227 1.247 . S
O237 Co224 2.244 1_545 S
O237 C227 1.272 . S
O237 Co229 2.135 1_545 S
Co238 O239 2.216 . S
Co238 O240 2.091 . S
Co238 O242 2.004 . S
Co238 O248 2.021 . S
Co238 O250 2.137 . S
Co238 O251 2.244 . S
O239 Co238 2.216 . S
O239 C246 1.247 1_455 S
O240 Co238 2.091 . S
O240 C246 1.261 1_455 S
C241 O250 1.247 . S
C241 O251 1.272 . S
O242 Co238 2.004 . S
O242 C247 1.259 . S
Co243 O244 2.061 . S
Co243 O249 2.052 . S
Co243 O251 2.135 . S
O244 Co243 2.061 . S
O244 C247 1.235 . S
C245 O248 1.238 . S
C245 O249 1.241 . S
C246 O239 1.247 1_655 S
C246 O240 1.261 1_655 S
C247 O242 1.259 . S
C247 O244 1.235 . S
O248 Co238 2.021 . S
O248 C245 1.238 . S
O249 Co243 2.052 . S
O249 C245 1.241 . S
O250 Co238 2.137 . S
O250 C241 1.247 . S
O251 Co238 2.244 . S
O251 C241 1.272 . S
O251 Co243 2.135 . S
Zn252 O258 1.920 1_455 S
Zn252 O264 1.898 1_445 S
Zn252 O267 1.905 . S
Zn253 O261 1.913 1_445 S
Zn253 O262 1.898 . S
Zn253 O270 1.920 1_455 S
Zn254 O257 2.080 . S
Zn254 O260 2.114 1_545 S
Zn254 O263 2.120 . S
Zn254 O265 2.120 1_445 S
Zn254 O266 2.114 . S
Zn254 O269 2.080 1_455 S
C255 O260 1.166 . S
C255 O261 1.173 1_455 S
C256 O262 1.167 . S
C256 O263 1.299 . S
O257 Zn254 2.080 . S
O257 C271 1.305 1_455 S
O258 Zn252 1.920 1_655 S
O258 C271 1.234 . S
C259 O264 1.167 . S
C259 O265 1.299 . S
O260 Zn254 2.114 1_565 S
O260 C255 1.166 . S
O261 Zn253 1.913 1_665 S
O261 C255 1.173 1_655 S
O262 Zn253 1.898 . S
O262 C256 1.167 . S
O263 Zn254 2.120 . S
O263 C256 1.299 . S
O264 Zn252 1.898 1_665 S
O264 C259 1.167 . S
O265 Zn254 2.120 1_665 S
O265 C259 1.299 . S
O266 Zn254 2.114 . S
O266 C268 1.166 . S
O267 Zn252 1.905 . S
O267 C268 1.182 . S
C268 O266 1.166 . S
C268 O267 1.182 . S
O269 Zn254 2.080 1_655 S
O269 C272 1.305 . S
O270 Zn253 1.920 1_655 S
O270 C272 1.234 . S
C271 O257 1.305 1_655 S
C271 O258 1.234 . S
C272 O269 1.305 . S
C272 O270 1.234 . S
Zn273 O279 1.920 1_545 S
Zn273 O285 1.898 . S
Zn273 O288 1.905 1_455 S
Zn274 O282 1.905 . S
Zn274 O283 1.898 1_445 S
Zn274 O291 1.920 1_545 S
Zn275 O278 2.080 1_545 S
Zn275 O281 2.114 . S
Zn275 O284 2.120 1_445 S
Zn275 O286 2.120 . S
Zn275 O287 2.114 1_455 S
Zn275 O290 2.080 . S
C276 O281 1.166 . S
C276 O282 1.182 . S
C277 O283 1.167 . S
C277 O284 1.299 . S
O278 Zn275 2.080 1_565 S
O278 C292 1.305 . S
O279 Zn273 1.920 1_565 S
O279 C292 1.234 . S
C280 O285 1.167 . S
C280 O286 1.299 . S
O281 Zn275 2.114 . S
O281 C276 1.166 . S
O282 Zn274 1.905 . S
O282 C276 1.182 . S
O283 Zn274 1.898 1_665 S
O283 C277 1.167 . S
O284 Zn275 2.120 1_665 S
O284 C277 1.299 . S
O285 Zn273 1.898 . S
O285 C280 1.167 . S
O286 Zn275 2.120 . S
O286 C280 1.299 . S
O287 Zn275 2.114 1_655 S
O287 C289 1.166 . S
O288 Zn273 1.905 1_655 S
O288 C289 1.182 . S
C289 O287 1.166 . S
C289 O288 1.182 . S
O290 Zn275 2.080 . S
O290 C293 1.305 . S
O291 Zn274 1.920 1_565 S
O291 C293 1.234 1_565 S
C292 O278 1.305 . S
C292 O279 1.234 . S
C293 O290 1.305 . S
C293 O291 1.234 1_545 S
Zn294 O300 1.920 1_545 S
Zn294 O306 1.898 . S
Zn294 O309 1.905 1_445 S
Zn295 O303 1.905 . S
Zn295 O304 1.898 1_445 S
Zn295 O312 1.920 . S
Zn296 O299 2.080 1_545 S
Zn296 O302 2.114 . S
Zn296 O305 2.120 1_445 S
Zn296 O307 2.120 . S
Zn296 O308 2.114 1_455 S
Zn296 O311 2.080 . S
C297 O302 1.166 . S
C297 O303 1.182 . S
C298 O304 1.167 . S
C298 O305 1.299 . S
O299 Zn296 2.080 1_565 S
O299 C313 1.305 . S
O300 Zn294 1.920 1_565 S
O300 C313 1.234 . S
C301 O306 1.167 . S
C301 O307 1.299 . S
O302 Zn296 2.114 . S
O302 C297 1.166 . S
O303 Zn295 1.905 . S
O303 C297 1.182 . S
O304 Zn295 1.898 1_665 S
O304 C298 1.167 . S
O305 Zn296 2.120 1_665 S
O305 C298 1.299 . S
O306 Zn294 1.898 . S
O306 C301 1.167 . S
O307 Zn296 2.120 . S
O307 C301 1.299 . S
O308 Zn296 2.114 1_655 S
O308 C310 1.166 . S
O309 Zn294 1.905 1_665 S
O309 C310 1.182 1_565 S
C310 O308 1.166 . S
C310 O309 1.182 1_545 S
O311 Zn296 2.080 . S
O311 C314 1.305 . S
O312 Zn295 1.920 . S
O312 C314 1.234 . S
C313 O299 1.305 . S
C313 O300 1.234 . S
C314 O311 1.305 . S
C314 O312 1.234 . S
Zn315 O321 1.920 . S
Zn315 O327 1.898 1_445 S
Zn315 O330 1.905 . S
Zn316 O324 1.905 1_445 S
Zn316 O325 1.898 . S
Zn316 O333 1.920 1_455 S
Zn317 O320 2.080 . S
Zn317 O323 2.114 1_545 S
Zn317 O326 2.120 . S
Zn317 O328 2.120 1_445 S
Zn317 O329 2.114 . S
Zn317 O332 2.080 1_455 S
C318 O323 1.166 . S
C318 O324 1.182 1_455 S
C319 O325 1.167 . S
C319 O326 1.299 . S
O320 Zn317 2.080 . S
O320 C334 1.305 . S
O321 Zn315 1.920 . S
O321 C334 1.234 . S
C322 O327 1.167 . S
C322 O328 1.299 . S
O323 Zn317 2.114 1_565 S
O323 C318 1.166 . S
O324 Zn316 1.905 1_665 S
O324 C318 1.182 1_655 S
O325 Zn316 1.898 . S
O325 C319 1.167 . S
O326 Zn317 2.120 . S
O326 C319 1.299 . S
O327 Zn315 1.898 1_665 S
O327 C322 1.167 . S
O328 Zn317 2.120 1_665 S
O328 C322 1.299 . S
O329 Zn317 2.114 . S
O329 C331 1.166 . S
O330 Zn315 1.905 . S
O330 C331 1.182 . S
C331 O329 1.166 . S
C331 O330 1.182 . S
O332 Zn317 2.080 1_655 S
O332 C335 1.305 . S
O333 Zn316 1.920 1_655 S
O333 C335 1.234 . S
C334 O320 1.305 . S
C334 O321 1.234 . S
C335 O332 1.305 . S
C335 O333 1.234 . S
Zn336 O342 1.920 . S
Zn336 O348 1.898 . S
Zn336 O351 1.905 . S
Zn337 O345 1.905 . S
Zn337 O346 1.898 . S
Zn337 O354 1.920 . S
Zn338 O341 2.080 . S
Zn338 O344 2.114 . S
Zn338 O347 2.120 . S
Zn338 O349 2.120 . S
Zn338 O350 2.114 . S
Zn338 O353 2.080 . S
C339 O344 1.166 . S
C339 O345 1.182 . S
C340 O346 1.167 . S
C340 O347 1.299 . S
O341 Zn338 2.080 . S
O341 C355 1.305 . S
O342 Zn336 1.920 . S
O342 C355 1.234 . S
C343 O348 1.167 . S
C343 O349 1.299 . S
O344 Zn338 2.114 . S
O344 C339 1.166 . S
O345 Zn337 1.905 . S
O345 C339 1.182 . S
O346 Zn337 1.898 . S
O346 C340 1.167 . S
O347 Zn338 2.120 . S
O347 C340 1.299 . S
O348 Zn336 1.898 . S
O348 C343 1.167 . S
O349 Zn338 2.120 . S
O349 C343 1.299 . S
O350 Zn338 2.114 . S
O350 C352 1.166 . S
O351 Zn336 1.905 . S
O351 C352 1.182 . S
C352 O350 1.166 . S
C352 O351 1.182 . S
O353 Zn338 2.080 . S
O353 C356 1.305 . S
O354 Zn337 1.920 . S
O354 C356 1.234 . S
C355 O341 1.305 . S
C355 O342 1.234 . S
C356 O353 1.305 . S
C356 O354 1.234 . S
Zn357 O363 1.920 . S
Zn357 O369 1.898 . S
Zn357 O372 1.905 . S
Zn358 O366 1.905 . S
Zn358 O367 1.898 . S
Zn358 O375 1.920 . S
Zn359 O362 2.080 . S
Zn359 O365 2.114 . S
Zn359 O368 2.120 . S
Zn359 O370 2.120 . S
Zn359 O371 2.114 . S
Zn359 O374 2.080 . S
C360 O365 1.166 . S
C360 O366 1.182 . S
C361 O367 1.167 . S
C361 O368 1.299 . S
O362 Zn359 2.080 . S
O362 C376 1.305 . S
O363 Zn357 1.920 . S
O363 C376 1.234 . S
C364 O369 1.167 . S
C364 O370 1.299 . S
O365 Zn359 2.114 . S
O365 C360 1.166 . S
O366 Zn358 1.905 . S
O366 C360 1.182 . S
O367 Zn358 1.898 . S
O367 C361 1.167 . S
O368 Zn359 2.120 . S
O368 C361 1.299 . S
O369 Zn357 1.898 . S
O369 C364 1.167 . S
O370 Zn359 2.120 . S
O370 C364 1.299 . S
O371 Zn359 2.114 . S
O371 C373 1.166 . S
O372 Zn357 1.905 . S
O372 C373 1.182 . S
C373 O371 1.166 . S
C373 O372 1.182 . S
O374 Zn359 2.080 . S
O374 C377 1.305 . S
O375 Zn358 1.920 . S
O375 C377 1.234 . S
C376 O362 1.305 . S
C376 O363 1.234 . S
C377 O374 1.305 . S
C377 O375 1.234 . S
Zn378 O384 1.920 . S
Zn378 O390 1.898 . S
Zn378 O393 1.905 . S
Zn379 O387 1.905 . S
Zn379 O388 1.898 . S
Zn379 O396 1.920 . S
Zn380 O383 2.080 . S
Zn380 O386 2.114 . S
Zn380 O389 2.120 . S
Zn380 O391 2.120 . S
Zn380 O392 2.114 . S
Zn380 O395 2.080 . S
C381 O386 1.166 . S
C381 O387 1.182 . S
C382 O388 1.167 . S
C382 O389 1.299 . S
O383 Zn380 2.080 . S
O383 C397 1.305 . S
O384 Zn378 1.920 . S
O384 C397 1.234 . S
C385 O390 1.167 . S
C385 O391 1.299 . S
O386 Zn380 2.114 . S
O386 C381 1.166 . S
O387 Zn379 1.905 . S
O387 C381 1.182 . S
O388 Zn379 1.898 . S
O388 C382 1.167 . S
O389 Zn380 2.120 . S
O389 C382 1.299 . S
O390 Zn378 1.898 . S
O390 C385 1.167 . S
O391 Zn380 2.120 . S
O391 C385 1.299 . S
O392 Zn380 2.114 . S
O392 C394 1.166 . S
O393 Zn378 1.905 . S
O393 C394 1.182 . S
C394 O392 1.166 . S
C394 O393 1.182 . S
O395 Zn380 2.080 . S
O395 C398 1.305 . S
O396 Zn379 1.920 . S
O396 C398 1.234 . S
C397 O383 1.305 . S
C397 O384 1.234 . S
C398 O395 1.305 . S
C398 O396 1.234 . S
Zn399 O405 1.920 . S
Zn399 O411 1.898 . S
Zn399 O414 1.905 . S
Zn400 O408 1.905 . S
Zn400 O409 1.898 . S
Zn400 O417 1.920 . S
Zn401 O404 2.080 . S
Zn401 O407 2.114 . S
Zn401 O410 2.120 . S
Zn401 O412 2.120 . S
Zn401 O413 2.114 . S
Zn401 O416 2.080 . S
C402 O407 1.166 . S
C402 O408 1.182 . S
C403 O409 1.167 . S
C403 O410 1.299 . S
O404 Zn401 2.080 . S
O404 C418 1.305 1_556 S
O405 Zn399 1.920 . S
O405 C418 1.234 . S
C406 O411 1.167 . S
C406 O412 1.299 1_554 S
O407 Zn401 2.114 . S
O407 C402 1.166 . S
O408 Zn400 1.905 . S
O408 C402 1.182 . S
O409 Zn400 1.898 . S
O409 C403 1.167 . S
O410 Zn401 2.120 . S
O410 C403 1.299 . S
O411 Zn399 1.898 . S
O411 C406 1.167 . S
O412 Zn401 2.120 . S
O412 C406 1.299 1_556 S
O413 Zn401 2.114 . S
O413 C415 1.166 1_556 S
O414 Zn399 1.905 . S
O414 C415 1.182 . S
C415 O413 1.166 1_554 S
C415 O414 1.182 . S
O416 Zn401 2.080 . S
O416 C419 1.305 . S
O417 Zn400 1.920 . S
O417 C419 1.234 . S
C418 O404 1.305 1_554 S
C418 O405 1.234 . S
C419 O416 1.305 . S
C419 O417 1.234 . S
Zn420 O426 1.920 . S
Zn420 O432 1.898 . S
Zn420 O435 1.905 . S
Zn421 O429 1.905 . S
Zn421 O430 1.898 . S
Zn421 O438 1.920 . S
Zn422 O425 2.080 . S
Zn422 O428 2.114 . S
Zn422 O431 2.120 . S
Zn422 O433 2.120 . S
Zn422 O434 2.114 . S
Zn422 O437 2.080 . S
C423 O428 1.166 . S
C423 O429 1.182 . S
C424 O430 1.167 . S
C424 O431 1.299 . S
O425 Zn422 2.080 . S
O425 C439 1.305 . S
O426 Zn420 1.920 . S
O426 C439 1.234 . S
C427 O432 1.167 . S
C427 O433 1.299 . S
O428 Zn422 2.114 . S
O428 C423 1.166 . S
O429 Zn421 1.905 . S
O429 C423 1.182 . S
O430 Zn421 1.898 . S
O430 C424 1.167 . S
O431 Zn422 2.120 . S
O431 C424 1.299 . S
O432 Zn420 1.898 . S
O432 C427 1.167 . S
O433 Zn422 2.120 . S
O433 C427 1.299 . S
O434 Zn422 2.114 . S
O434 C436 1.166 . S
O435 Zn420 1.905 . S
O435 C436 1.182 . S
C436 O434 1.166 . S
C436 O435 1.182 . S
O437 Zn422 2.080 . S
O437 C440 1.305 . S
O438 Zn421 1.920 . S
O438 C440 1.234 . S
C439 O425 1.305 . S
C439 O426 1.234 . S
C440 O437 1.305 . S
C440 O438 1.234 . S
Zn441 O447 1.920 . S
Zn441 O453 1.898 . S
Zn441 O456 1.905 . S
Zn442 O450 1.905 . S
Zn442 O451 1.898 . S
Zn442 O459 1.920 . S
Zn443 O446 2.080 . S
Zn443 O449 2.114 . S
Zn443 O452 2.120 . S
Zn443 O454 2.120 . S
Zn443 O455 2.114 . S
Zn443 O458 2.080 . S
C444 O449 1.166 1_556 S
C444 O450 1.182 . S
C445 O451 1.167 . S
C445 O452 1.299 1_556 S
O446 Zn443 2.080 . S
O446 C460 1.305 . S
O447 Zn441 1.920 . S
O447 C460 1.234 . S
C448 O453 1.167 . S
C448 O454 1.299 . S
O449 Zn443 2.114 . S
O449 C444 1.166 1_554 S
O450 Zn442 1.905 . S
O450 C444 1.182 . S
O451 Zn442 1.898 . S
O451 C445 1.167 . S
O452 Zn443 2.120 . S
O452 C445 1.299 1_554 S
O453 Zn441 1.898 . S
O453 C448 1.167 . S
O454 Zn443 2.120 . S
O454 C448 1.299 . S
O455 Zn443 2.114 . S
O455 C457 1.166 . S
O456 Zn441 1.905 . S
O456 C457 1.182 . S
C457 O455 1.166 . S
C457 O456 1.182 . S
O458 Zn443 2.080 . S
O458 C461 1.305 1_554 S
O459 Zn442 1.920 . S
O459 C461 1.234 . S
C460 O446 1.305 . S
C460 O447 1.234 . S
C461 O458 1.305 1_556 S
C461 O459 1.234 . S
Zn462 O468 1.920 . S
Zn462 O474 1.898 . S
Zn462 O477 1.905 . S
Zn463 O471 1.905 . S
Zn463 O472 1.898 . S
Zn463 O480 1.920 . S
Zn464 O467 2.080 . S
Zn464 O470 2.114 . S
Zn464 O473 2.120 . S
Zn464 O475 2.120 . S
Zn464 O476 2.114 . S
Zn464 O479 2.080 . S
C465 O470 1.166 . S
C465 O471 1.182 . S
C466 O472 1.167 . S
C466 O473 1.299 . S
O467 Zn464 2.080 . S
O467 C481 1.305 . S
O468 Zn462 1.920 . S
O468 C481 1.234 . S
C469 O474 1.167 . S
C469 O475 1.299 . S
O470 Zn464 2.114 . S
O470 C465 1.166 . S
O471 Zn463 1.905 . S
O471 C465 1.182 . S
O472 Zn463 1.898 . S
O472 C466 1.167 . S
O473 Zn464 2.120 . S
O473 C466 1.299 . S
O474 Zn462 1.898 . S
O474 C469 1.167 . S
O475 Zn464 2.120 . S
O475 C469 1.299 . S
O476 Zn464 2.114 . S
O476 C478 1.166 . S
O477 Zn462 1.905 . S
O477 C478 1.182 . S
C478 O476 1.166 . S
C478 O477 1.182 . S
O479 Zn464 2.080 . S
O479 C482 1.305 . S
O480 Zn463 1.920 . S
O480 C482 1.234 . S
C481 O467 1.305 . S
C481 O468 1.234 . S
C482 O479 1.305 . S
C482 O480 1.234 . S
Zn483 O489 1.920 . S
Zn483 O495 1.898 . S
Zn483 O498 1.905 . S
Zn484 O492 1.905 . S
Zn484 O493 1.898 . S
Zn484 O501 1.920 . S
Zn485 O488 2.080 . S
Zn485 O491 2.114 . S
Zn485 O494 2.120 . S
Zn485 O496 2.120 . S
Zn485 O497 2.114 . S
Zn485 O500 2.080 . S
C486 O491 1.166 . S
C486 O492 1.182 . S
C487 O493 1.167 . S
C487 O494 1.299 . S
O488 Zn485 2.080 . S
O488 C502 1.305 . S
O489 Zn483 1.920 . S
O489 C502 1.234 . S
C490 O495 1.167 . S
C490 O496 1.299 . S
O491 Zn485 2.114 . S
O491 C486 1.166 . S
O492 Zn484 1.905 . S
O492 C486 1.182 . S
O493 Zn484 1.898 . S
O493 C487 1.167 . S
O494 Zn485 2.120 . S
O494 C487 1.299 . S
O495 Zn483 1.898 . S
O495 C490 1.167 . S
O496 Zn485 2.120 . S
O496 C490 1.299 . S
O497 Zn485 2.114 . S
O497 C499 1.166 . S
O498 Zn483 1.905 . S
O498 C499 1.182 . S
C499 O497 1.166 . S
C499 O498 1.182 . S
O500 Zn485 2.080 . S
O500 C503 1.305 . S
O501 Zn484 1.920 . S
O501 C503 1.234 . S
C502 O488 1.305 . S
C502 O489 1.234 . S
C503 O500 1.305 . S
C503 O501 1.234 . S
H504 C512 0.950 . S
H505 C517 0.950 . S
H506 C514 0.950 . S
H507 C516 0.950 . S
H508 C518 0.950 . S
H509 C520 0.950 . S
H510 C522 0.950 . S
H511 C523 0.950 . S
C512 H504 0.950 . S
C512 C513 1.386 . S
C512 C514 1.391 . S
C513 C512 1.386 . S
C513 C517 1.393 . S
C514 H506 0.950 . S
C514 C512 1.391 . S
C514 C515 1.400 . S
C515 C514 1.400 . S
C515 C516 1.398 . S
C515 C521 1.491 . S
C516 H507 0.950 . S
C516 C515 1.398 . S
C516 C517 1.391 . S
C517 H505 0.950 . S
C517 C513 1.393 . S
C517 C516 1.391 . S
C518 H508 0.950 . S
C518 C519 1.386 . S
C518 C520 1.391 . S
C519 C518 1.386 . S
C519 C523 1.393 . S
C520 H509 0.950 . S
C520 C518 1.391 . S
C520 C521 1.400 . S
C521 C515 1.491 . S
C521 C520 1.400 . S
C521 C522 1.398 . S
C522 H510 0.950 . S
C522 C521 1.398 . S
C522 C523 1.391 . S
C523 H511 0.950 . S
C523 C519 1.393 . S
C523 C522 1.391 . S
H524 C532 0.950 1_565 S
H525 C537 0.950 . S
H526 C534 0.950 . S
H527 C536 0.950 . S
H528 C538 0.950 . S
H529 C540 0.950 . S
H530 C542 0.950 . S
H531 C543 0.950 . S
C532 H524 0.950 1_545 S
C532 C533 1.386 . S
C532 C534 1.391 . S
C533 C532 1.386 . S
C533 C537 1.393 . S
C534 H526 0.950 . S
C534 C532 1.391 . S
C534 C535 1.400 . S
C535 C534 1.400 . S
C535 C536 1.398 . S
C535 C541 1.491 . S
C536 H527 0.950 . S
C536 C535 1.398 . S
C536 C537 1.391 . S
C537 H525 0.950 . S
C537 C533 1.393 . S
C537 C536 1.391 . S
C538 H528 0.950 . S
C538 C539 1.386 . S
C538 C540 1.391 . S
C539 C538 1.386 . S
C539 C543 1.393 . S
C540 H529 0.950 . S
C540 C538 1.391 . S
C540 C541 1.400 . S
C541 C535 1.491 . S
C541 C540 1.400 . S
C541 C542 1.398 . S
C542 H530 0.950 . S
C542 C541 1.398 . S
C542 C543 1.391 . S
C543 H531 0.950 . S
C543 C539 1.393 . S
C543 C542 1.391 . S
H544 C552 0.950 . S
H545 C557 0.950 . S
H546 C554 0.950 . S
H547 C556 0.950 . S
H548 C558 0.950 . S
H549 C560 0.950 . S
H550 C562 0.950 . S
H551 C563 0.950 . S
C552 H544 0.950 . S
C552 C553 1.386 1_655 S
C552 C554 1.391 . S
C553 C552 1.386 1_455 S
C553 C557 1.393 . S
C554 H546 0.950 . S
C554 C552 1.391 . S
C554 C555 1.400 1_655 S
C555 C554 1.400 1_455 S
C555 C556 1.398 . S
C555 C561 1.491 . S
C556 H547 0.950 . S
C556 C555 1.398 . S
C556 C557 1.391 . S
C557 H545 0.950 . S
C557 C553 1.393 . S
C557 C556 1.391 . S
C558 H548 0.950 . S
C558 C559 1.386 . S
C558 C560 1.391 . S
C559 C558 1.386 . S
C559 C563 1.393 1_455 S
C560 H549 0.950 . S
C560 C558 1.391 . S
C560 C561 1.400 . S
C561 C555 1.491 . S
C561 C560 1.400 . S
C561 C562 1.398 1_455 S
C562 H550 0.950 . S
C562 C561 1.398 1_655 S
C562 C563 1.391 . S
C563 H551 0.950 . S
C563 C559 1.393 1_655 S
C563 C562 1.391 . S
H564 C572 0.950 . S
H565 C577 0.950 . S
H566 C574 0.950 . S
H567 C576 0.950 . S
H568 C578 0.950 . S
H569 C580 0.950 . S
H570 C582 0.950 . S
H571 C583 0.950 . S
C572 H564 0.950 . S
C572 C573 1.386 . S
C572 C574 1.391 . S
C573 C572 1.386 . S
C573 C577 1.393 . S
C574 H566 0.950 . S
C574 C572 1.391 . S
C574 C575 1.400 . S
C575 C574 1.400 . S
C575 C576 1.398 . S
C575 C581 1.491 . S
C576 H567 0.950 . S
C576 C575 1.398 . S
C576 C577 1.391 . S
C577 H565 0.950 . S
C577 C573 1.393 . S
C577 C576 1.391 . S
C578 H568 0.950 . S
C578 C579 1.386 . S
C578 C580 1.391 . S
C579 C578 1.386 . S
C579 C583 1.393 . S
C580 H569 0.950 . S
C580 C578 1.391 . S
C580 C581 1.400 . S
C581 C575 1.491 . S
C581 C580 1.400 . S
C581 C582 1.398 . S
C582 H570 0.950 . S
C582 C581 1.398 . S
C582 C583 1.391 . S
C583 H571 0.950 . S
C583 C579 1.393 . S
C583 C582 1.391 . S
H584 C592 0.950 . S
H585 C597 0.950 . S
H586 C594 0.950 . S
H587 C596 0.950 . S
H588 C598 0.950 . S
H589 C600 0.950 . S
H590 C602 0.950 . S
H591 C603 0.950 . S
C592 H584 0.950 . S
C592 C593 1.386 . S
C592 C594 1.391 . S
C593 C592 1.386 . S
C593 C597 1.393 1_545 S
C594 H586 0.950 . S
C594 C592 1.391 . S
C594 C595 1.400 . S
C595 C594 1.400 . S
C595 C596 1.398 1_545 S
C595 C601 1.491 . S
C596 H587 0.950 . S
C596 C595 1.398 1_565 S
C596 C597 1.391 . S
C597 H585 0.950 . S
C597 C593 1.393 1_565 S
C597 C596 1.391 . S
C598 H588 0.950 . S
C598 C599 1.386 1_565 S
C598 C600 1.391 . S
C599 C598 1.386 1_545 S
C599 C603 1.393 . S
C600 H589 0.950 . S
C600 C598 1.391 . S
C600 C601 1.400 1_565 S
C601 C595 1.491 . S
C601 C600 1.400 1_545 S
C601 C602 1.398 . S
C602 H590 0.950 . S
C602 C601 1.398 . S
C602 C603 1.391 . S
C603 H591 0.950 . S
C603 C599 1.393 . S
C603 C602 1.391 . S
H604 C612 0.950 . S
H605 C617 0.950 . S
H606 C614 0.950 . S
H607 C616 0.950 . S
H608 C618 0.950 . S
H609 C620 0.950 . S
H610 C622 0.950 . S
H611 C623 0.950 . S
C612 H604 0.950 . S
C612 C613 1.386 1_655 S
C612 C614 1.391 . S
C613 C612 1.386 1_455 S
C613 C617 1.393 . S
C614 H606 0.950 . S
C614 C612 1.391 . S
C614 C615 1.400 1_655 S
C615 C614 1.400 1_455 S
C615 C616 1.398 . S
C615 C621 1.491 . S
C616 H607 0.950 . S
C616 C615 1.398 . S
C616 C617 1.391 . S
C617 H605 0.950 . S
C617 C613 1.393 . S
C617 C616 1.391 . S
C618 H608 0.950 . S
C618 C619 1.386 . S
C618 C620 1.391 . S
C619 C618 1.386 . S
C619 C623 1.393 1_455 S
C620 H609 0.950 . S
C620 C618 1.391 . S
C620 C621 1.400 . S
C621 C615 1.491 . S
C621 C620 1.400 . S
C621 C622 1.398 1_455 S
C622 H610 0.950 . S
C622 C621 1.398 1_655 S
C622 C623 1.391 . S
C623 H611 0.950 . S
C623 C619 1.393 1_655 S
C623 C622 1.391 . S
H624 C632 0.950 . S
H625 C637 0.950 . S
H626 C634 0.950 . S
H627 C636 0.950 . S
H628 C638 0.950 . S
H629 C640 0.950 . S
H630 C642 0.950 . S
H631 C643 0.950 . S
C632 H624 0.950 . S
C632 C633 1.386 . S
C632 C634 1.391 . S
C633 C632 1.386 . S
C633 C637 1.393 . S
C634 H626 0.950 . S
C634 C632 1.391 . S
C634 C635 1.400 . S
C635 C634 1.400 . S
C635 C636 1.398 . S
C635 C641 1.491 . S
C636 H627 0.950 . S
C636 C635 1.398 . S
C636 C637 1.391 . S
C637 H625 0.950 . S
C637 C633 1.393 . S
C637 C636 1.391 . S
C638 H628 0.950 . S
C638 C639 1.386 . S
C638 C640 1.391 . S
C639 C638 1.386 . S
C639 C643 1.393 . S
C640 H629 0.950 . S
C640 C638 1.391 . S
C640 C641 1.400 . S
C641 C635 1.491 . S
C641 C640 1.400 . S
C641 C642 1.398 . S
C642 H630 0.950 . S
C642 C641 1.398 . S
C642 C643 1.391 . S
C643 H631 0.950 . S
C643 C639 1.393 . S
C643 C642 1.391 . S
H644 C652 0.950 . S
H645 C657 0.950 . S
H646 C654 0.950 . S
H647 C656 0.950 . S
H648 C658 0.950 . S
H649 C660 0.950 . S
H650 C662 0.950 . S
H651 C663 0.950 . S
C652 H644 0.950 . S
C652 C653 1.386 1_565 S
C652 C654 1.391 . S
C653 C652 1.386 1_545 S
C653 C657 1.393 . S
C654 H646 0.950 . S
C654 C652 1.391 . S
C654 C655 1.400 1_565 S
C655 C654 1.400 1_545 S
C655 C656 1.398 . S
C655 C661 1.491 . S
C656 H647 0.950 . S
C656 C655 1.398 . S
C656 C657 1.391 . S
C657 H645 0.950 . S
C657 C653 1.393 . S
C657 C656 1.391 . S
C658 H648 0.950 . S
C658 C659 1.386 . S
C658 C660 1.391 . S
C659 C658 1.386 . S
C659 C663 1.393 1_545 S
C660 H649 0.950 . S
C660 C658 1.391 . S
C660 C661 1.400 . S
C661 C655 1.491 . S
C661 C660 1.400 . S
C661 C662 1.398 1_545 S
C662 H650 0.950 . S
C662 C661 1.398 1_565 S
C662 C663 1.391 . S
C663 H651 0.950 . S
C663 C659 1.393 1_565 S
C663 C662 1.391 . S
H664 C672 0.950 . S
H665 C677 0.950 . S
H666 C674 0.950 . S
H667 C676 0.950 . S
H668 C678 0.950 . S
H669 C680 0.950 . S
H670 C682 0.950 . S
H671 C683 0.950 . S
C672 H664 0.950 . S
C672 C673 1.386 . S
C672 C674 1.391 . S
C673 C672 1.386 . S
C673 C677 1.393 . S
C674 H666 0.950 . S
C674 C672 1.391 . S
C674 C675 1.400 . S
C675 C674 1.400 . S
C675 C676 1.398 . S
C675 C681 1.491 . S
C676 H667 0.950 . S
C676 C675 1.398 . S
C676 C677 1.391 . S
C677 H665 0.950 . S
C677 C673 1.393 . S
C677 C676 1.391 . S
C678 H668 0.950 . S
C678 C679 1.386 . S
C678 C680 1.391 . S
C679 C678 1.386 . S
C679 C683 1.393 . S
C680 H669 0.950 . S
C680 C678 1.391 . S
C680 C681 1.400 . S
C681 C675 1.491 . S
C681 C680 1.400 . S
C681 C682 1.398 . S
C682 H670 0.950 . S
C682 C681 1.398 . S
C682 C683 1.391 . S
C683 H671 0.950 . S
C683 C679 1.393 . S
C683 C682 1.391 . S
H684 C692 0.950 . S
H685 C697 0.950 . S
H686 C694 0.950 . S
H687 C696 0.950 . S
H688 C698 0.950 . S
H689 C700 0.950 . S
H690 C702 0.950 . S
H691 C703 0.950 . S
C692 H684 0.950 . S
C692 C693 1.386 . S
C692 C694 1.391 . S
C693 C692 1.386 . S
C693 C697 1.393 . S
C694 H686 0.950 . S
C694 C692 1.391 . S
C694 C695 1.400 . S
C695 C694 1.400 . S
C695 C696 1.398 . S
C695 C701 1.491 . S
C696 H687 0.950 . S
C696 C695 1.398 . S
C696 C697 1.391 . S
C697 H685 0.950 . S
C697 C693 1.393 . S
C697 C696 1.391 . S
C698 H688 0.950 . S
C698 C699 1.386 . S
C698 C700 1.391 . S
C699 C698 1.386 . S
C699 C703 1.393 . S
C700 H689 0.950 . S
C700 C698 1.391 . S
C700 C701 1.400 . S
C701 C695 1.491 . S
C701 C700 1.400 . S
C701 C702 1.398 . S
C702 H690 0.950 . S
C702 C701 1.398 . S
C702 C703 1.391 . S
C703 H691 0.950 . S
C703 C699 1.393 . S
C703 C702 1.391 . S
H704 C712 0.950 . S
H705 C717 0.950 . S
H706 C714 0.967 . S
H707 C716 0.950 . S
H708 C718 0.950 . S
H709 C720 0.950 . S
H710 C722 0.950 1_565 S
H711 C723 0.950 1_565 S
C712 H704 0.950 . S
C712 C713 1.386 1_565 S
C712 C714 1.407 . S
C713 C712 1.386 1_545 S
C713 C717 1.393 . S
C714 H706 0.967 . S
C714 C712 1.407 . S
C714 C715 1.369 1_565 S
C715 C714 1.369 1_545 S
C715 C716 1.398 . S
C715 C721 1.491 . S
C716 H707 0.950 . S
C716 C715 1.398 . S
C716 C717 1.391 . S
C717 H705 0.950 . S
C717 C713 1.393 . S
C717 C716 1.391 . S
C718 H708 0.950 . S
C718 C719 1.386 . S
C718 C720 1.391 . S
C719 C718 1.386 . S
C719 C723 1.393 . S
C720 H709 0.950 . S
C720 C718 1.391 . S
C720 C721 1.400 . S
C721 C715 1.491 . S
C721 C720 1.400 . S
C721 C722 1.398 . S
C722 H710 0.950 1_545 S
C722 C721 1.398 . S
C722 C723 1.391 . S
C723 H711 0.950 1_545 S
C723 C719 1.393 . S
C723 C722 1.391 . S
H724 C732 0.950 . S
H725 C737 0.950 1_655 S
H726 C734 0.950 . S
H727 C736 0.950 . S
H728 C738 0.950 . S
H729 C740 0.950 . S
H730 C742 0.950 . S
H731 C743 0.950 . S
C732 H724 0.950 . S
C732 C733 1.386 . S
C732 C734 1.391 . S
C733 C732 1.386 . S
C733 C737 1.393 . S
C734 H726 0.950 . S
C734 C732 1.391 . S
C734 C735 1.400 . S
C735 C734 1.400 . S
C735 C736 1.398 1_455 S
C735 C741 1.491 . S
C736 H727 0.950 . S
C736 C735 1.398 1_655 S
C736 C737 1.391 1_655 S
C737 H725 0.950 1_455 S
C737 C733 1.393 . S
C737 C736 1.391 1_455 S
C738 H728 0.950 . S
C738 C739 1.386 1_655 S
C738 C740 1.391 . S
C739 C738 1.386 1_455 S
C739 C743 1.393 . S
C740 H729 0.950 . S
C740 C738 1.391 . S
C740 C741 1.400 1_655 S
C741 C735 1.491 . S
C741 C740 1.400 1_455 S
C741 C742 1.398 . S
C742 H730 0.950 . S
C742 C741 1.398 . S
C742 C743 1.391 . S
C743 H731 0.950 . S
C743 C739 1.393 . S
C743 C742 1.391 . S
H744 C752 0.950 . S
H745 C757 0.950 . S
H746 C754 0.950 . S
H747 C756 0.950 . S
H748 C758 0.950 . S
H749 C760 0.950 . S
H750 C762 0.950 . S
H751 C763 0.950 . S
C752 H744 0.950 . S
C752 C753 1.386 . S
C752 C754 1.391 . S
C753 C752 1.386 . S
C753 C757 1.393 . S
C754 H746 0.950 . S
C754 C752 1.391 . S
C754 C755 1.400 . S
C755 C754 1.400 . S
C755 C756 1.398 . S
C755 C761 1.491 . S
C756 H747 0.950 . S
C756 C755 1.398 . S
C756 C757 1.391 . S
C757 H745 0.950 . S
C757 C753 1.393 . S
C757 C756 1.391 . S
C758 H748 0.950 . S
C758 C759 1.386 . S
C758 C760 1.391 . S
C759 C758 1.386 . S
C759 C763 1.393 . S
C760 H749 0.950 . S
C760 C758 1.391 . S
C760 C761 1.400 . S
C761 C755 1.491 . S
C761 C760 1.400 . S
C761 C762 1.398 . S
C762 H750 0.950 . S
C762 C761 1.398 . S
C762 C763 1.391 . S
C763 H751 0.950 . S
C763 C759 1.393 . S
C763 C762 1.391 . S
H764 C772 0.950 . S
H765 C777 0.950 . S
H766 C774 0.950 . S
H767 C776 0.950 . S
H768 C778 0.950 . S
H769 C780 0.950 . S
H770 C782 0.950 . S
H771 C783 0.950 . S
C772 H764 0.950 . S
C772 C773 1.386 . S
C772 C774 1.391 . S
C773 C772 1.386 . S
C773 C777 1.393 . S
C774 H766 0.950 . S
C774 C772 1.391 . S
C774 C775 1.400 . S
C775 C774 1.400 . S
C775 C776 1.398 . S
C775 C781 1.491 . S
C776 H767 0.950 . S
C776 C775 1.398 . S
C776 C777 1.391 . S
C777 H765 0.950 . S
C777 C773 1.393 . S
C777 C776 1.391 . S
C778 H768 0.950 . S
C778 C779 1.386 . S
C778 C780 1.391 . S
C779 C778 1.386 . S
C779 C783 1.393 . S
C780 H769 0.950 . S
C780 C778 1.391 . S
C780 C781 1.400 . S
C781 C775 1.491 . S
C781 C780 1.400 . S
C781 C782 1.398 . S
C782 H770 0.950 . S
C782 C781 1.398 . S
C782 C783 1.391 . S
C783 H771 0.950 . S
C783 C779 1.393 . S
C783 C782 1.391 . S
H784 C792 0.950 . S
H785 C797 0.950 . S
H786 C794 0.950 . S
H787 C796 0.950 . S
H788 C798 0.950 . S
H789 C800 0.950 . S
H790 C802 0.950 . S
H791 C803 0.950 . S
C792 H784 0.950 . S
C792 C793 1.386 . S
C792 C794 1.391 . S
C793 C792 1.386 . S
C793 C797 1.393 . S
C794 H786 0.950 . S
C794 C792 1.391 . S
C794 C795 1.400 . S
C795 C794 1.400 . S
C795 C796 1.398 . S
C795 C801 1.491 . S
C796 H787 0.950 . S
C796 C795 1.398 . S
C796 C797 1.391 . S
C797 H785 0.950 . S
C797 C793 1.393 . S
C797 C796 1.391 . S
C798 H788 0.950 . S
C798 C799 1.386 . S
C798 C800 1.391 . S
C799 C798 1.386 . S
C799 C803 1.393 . S
C800 H789 0.950 . S
C800 C798 1.391 . S
C800 C801 1.400 . S
C801 C795 1.491 . S
C801 C800 1.400 . S
C801 C802 1.398 . S
C802 H790 0.950 . S
C802 C801 1.398 . S
C802 C803 1.391 . S
C803 H791 0.950 . S
C803 C799 1.393 . S
C803 C802 1.391 . S
H804 C812 0.950 . S
H805 C817 0.950 . S
H806 C814 0.950 . S
H807 C816 0.950 . S
H808 C818 0.950 . S
H809 C820 0.950 . S
H810 C822 0.950 . S
H811 C823 0.950 . S
C812 H804 0.950 . S
C812 C813 1.386 . S
C812 C814 1.391 . S
C813 C812 1.386 . S
C813 C817 1.393 . S
C814 H806 0.950 . S
C814 C812 1.391 . S
C814 C815 1.400 . S
C815 C814 1.400 . S
C815 C816 1.398 . S
C815 C821 1.491 . S
C816 H807 0.950 . S
C816 C815 1.398 . S
C816 C817 1.391 . S
C817 H805 0.950 . S
C817 C813 1.393 . S
C817 C816 1.391 . S
C818 H808 0.950 . S
C818 C819 1.386 . S
C818 C820 1.391 . S
C819 C818 1.386 . S
C819 C823 1.393 . S
C820 H809 0.950 . S
C820 C818 1.391 . S
C820 C821 1.400 . S
C821 C815 1.491 . S
C821 C820 1.400 . S
C821 C822 1.398 . S
C822 H810 0.950 . S
C822 C821 1.398 . S
C822 C823 1.391 . S
C823 H811 0.950 . S
C823 C819 1.393 . S
C823 C822 1.391 . S
H824 C832 0.950 . S
H825 C837 0.950 . S
H826 C834 0.950 . S
H827 C836 0.950 . S
H828 C838 0.950 . S
H829 C840 0.950 . S
H830 C842 0.950 . S
H831 C843 0.950 . S
C832 H824 0.950 . S
C832 C833 1.386 . S
C832 C834 1.391 . S
C833 C832 1.386 . S
C833 C837 1.393 . S
C834 H826 0.950 . S
C834 C832 1.391 . S
C834 C835 1.400 . S
C835 C834 1.400 . S
C835 C836 1.398 . S
C835 C841 1.491 . S
C836 H827 0.950 . S
C836 C835 1.398 . S
C836 C837 1.391 . S
C837 H825 0.950 . S
C837 C833 1.393 . S
C837 C836 1.391 . S
C838 H828 0.950 . S
C838 C839 1.386 . S
C838 C840 1.391 . S
C839 C838 1.386 . S
C839 C843 1.393 . S
C840 H829 0.950 . S
C840 C838 1.391 . S
C840 C841 1.400 . S
C841 C835 1.491 . S
C841 C840 1.400 . S
C841 C842 1.398 . S
C842 H830 0.950 . S
C842 C841 1.398 . S
C842 C843 1.391 . S
C843 H831 0.950 . S
C843 C839 1.393 . S
C843 C842 1.391 . S
H844 C852 0.950 . S
H845 C857 0.950 . S
H846 C854 0.950 . S
H847 C856 0.950 . S
H848 C858 0.950 . S
H849 C860 0.950 . S
H850 C862 0.950 . S
H851 C863 0.950 . S
C852 H844 0.950 . S
C852 C853 1.386 . S
C852 C854 1.391 . S
C853 C852 1.386 . S
C853 C857 1.393 . S
C854 H846 0.950 . S
C854 C852 1.391 . S
C854 C855 1.400 . S
C855 C854 1.400 . S
C855 C856 1.398 . S
C855 C861 1.491 . S
C856 H847 0.950 . S
C856 C855 1.398 . S
C856 C857 1.391 . S
C857 H845 0.950 . S
C857 C853 1.393 . S
C857 C856 1.391 . S
C858 H848 0.950 . S
C858 C859 1.386 . S
C858 C860 1.391 . S
C859 C858 1.386 . S
C859 C863 1.393 . S
C860 H849 0.950 . S
C860 C858 1.391 . S
C860 C861 1.400 . S
C861 C855 1.491 . S
C861 C860 1.400 . S
C861 C862 1.398 . S
C862 H850 0.950 . S
C862 C861 1.398 . S
C862 C863 1.391 . S
C863 H851 0.950 . S
C863 C859 1.393 . S
C863 C862 1.391 . S
H864 C872 0.950 . S
H865 C877 0.950 . S
H866 C874 0.950 . S
H867 C876 0.950 . S
H868 C878 0.950 . S
H869 C880 0.950 . S
H870 C882 0.950 . S
H871 C883 0.950 . S
C872 H864 0.950 . S
C872 C873 1.386 . S
C872 C874 1.391 . S
C873 C872 1.386 . S
C873 C877 1.393 . S
C874 H866 0.950 . S
C874 C872 1.391 . S
C874 C875 1.400 . S
C875 C874 1.400 . S
C875 C876 1.398 . S
C875 C881 1.491 . S
C876 H867 0.950 . S
C876 C875 1.398 . S
C876 C877 1.391 . S
C877 H865 0.950 . S
C877 C873 1.393 . S
C877 C876 1.391 . S
C878 H868 0.950 . S
C878 C879 1.386 . S
C878 C880 1.391 . S
C879 C878 1.386 . S
C879 C883 1.393 . S
C880 H869 0.950 . S
C880 C878 1.391 . S
C880 C881 1.400 . S
C881 C875 1.491 . S
C881 C880 1.400 . S
C881 C882 1.398 . S
C882 H870 0.950 . S
C882 C881 1.398 . S
C882 C883 1.391 . S
C883 H871 0.950 . S
C883 C879 1.393 . S
C883 C882 1.391 . S
H884 C892 0.950 . S
H885 C897 0.950 . S
H886 C894 0.950 . S
H887 C896 0.950 . S
H888 C898 0.950 . S
H889 C900 0.950 . S
H890 C902 0.950 . S
H891 C903 0.950 . S
C892 H884 0.950 . S
C892 C893 1.386 . S
C892 C894 1.391 . S
C893 C892 1.386 . S
C893 C897 1.393 . S
C894 H886 0.950 . S
C894 C892 1.391 . S
C894 C895 1.400 . S
C895 C894 1.400 . S
C895 C896 1.398 . S
C895 C901 1.491 . S
C896 H887 0.950 . S
C896 C895 1.398 . S
C896 C897 1.391 . S
C897 H885 0.950 . S
C897 C893 1.393 . S
C897 C896 1.391 . S
C898 H888 0.950 . S
C898 C899 1.386 . S
C898 C900 1.391 . S
C899 C898 1.386 . S
C899 C903 1.393 . S
C900 H889 0.950 . S
C900 C898 1.391 . S
C900 C901 1.400 . S
C901 C895 1.491 . S
C901 C900 1.400 . S
C901 C902 1.398 . S
C902 H890 0.950 . S
C902 C901 1.398 . S
C902 C903 1.391 . S
C903 H891 0.950 . S
C903 C899 1.393 . S
C903 C902 1.391 . S
H904 C912 0.950 . S
H905 C917 0.950 . S
H906 C914 0.950 . S
H907 C916 0.950 . S
H908 C918 0.950 . S
H909 C920 0.950 . S
H910 C922 0.950 . S
H911 C923 0.950 . S
C912 H904 0.950 . S
C912 C913 1.386 . S
C912 C914 1.391 . S
C913 C912 1.386 . S
C913 C917 1.393 . S
C914 H906 0.950 . S
C914 C912 1.391 . S
C914 C915 1.400 . S
C915 C914 1.400 . S
C915 C916 1.398 . S
C915 C921 1.491 . S
C916 H907 0.950 . S
C916 C915 1.398 . S
C916 C917 1.391 . S
C917 H905 0.950 . S
C917 C913 1.393 . S
C917 C916 1.391 . S
C918 H908 0.950 . S
C918 C919 1.386 . S
C918 C920 1.391 . S
C919 C918 1.386 . S
C919 C923 1.393 . S
C920 H909 0.950 . S
C920 C918 1.391 . S
C920 C921 1.400 . S
C921 C915 1.491 . S
C921 C920 1.400 . S
C921 C922 1.398 . S
C922 H910 0.950 . S
C922 C921 1.398 . S
C922 C923 1.391 . S
C923 H911 0.950 . S
C923 C919 1.393 . S
C923 C922 1.391 . S
H924 C932 0.950 . S
H925 C937 0.950 . S
H926 C934 0.950 . S
H927 C936 0.950 . S
H928 C938 0.950 . S
H929 C940 0.950 . S
H930 C942 0.950 . S
H931 C943 0.950 . S
C932 H924 0.950 . S
C932 C933 1.386 . S
C932 C934 1.391 . S
C933 C932 1.386 . S
C933 C937 1.393 . S
C934 H926 0.950 . S
C934 C932 1.391 . S
C934 C935 1.400 . S
C935 C934 1.400 . S
C935 C936 1.398 . S
C935 C941 1.491 . S
C936 H927 0.950 . S
C936 C935 1.398 . S
C936 C937 1.391 . S
C937 H925 0.950 . S
C937 C933 1.393 . S
C937 C936 1.391 . S
C938 H928 0.950 . S
C938 C939 1.386 . S
C938 C940 1.391 . S
C939 C938 1.386 . S
C939 C943 1.393 . S
C940 H929 0.950 . S
C940 C938 1.391 . S
C940 C941 1.400 . S
C941 C935 1.491 . S
C941 C940 1.400 . S
C941 C942 1.398 . S
C942 H930 0.950 . S
C942 C941 1.398 . S
C942 C943 1.391 . S
C943 H931 0.950 . S
C943 C939 1.393 . S
C943 C942 1.391 . S
H944 C952 0.950 . S
H945 C957 0.950 . S
H946 C954 0.950 . S
H947 C956 0.950 . S
H948 C958 0.950 . S
H949 C960 0.950 . S
H950 C962 0.950 . S
H951 C963 0.950 . S
C952 H944 0.950 . S
C952 C953 1.386 . S
C952 C954 1.391 . S
C953 C952 1.386 . S
C953 C957 1.393 . S
C954 H946 0.950 . S
C954 C952 1.391 . S
C954 C955 1.400 . S
C955 C954 1.400 . S
C955 C956 1.398 . S
C955 C961 1.491 . S
C956 H947 0.950 . S
C956 C955 1.398 . S
C956 C957 1.391 . S
C957 H945 0.950 . S
C957 C953 1.393 . S
C957 C956 1.391 . S
C958 H948 0.950 . S
C958 C959 1.386 . S
C958 C960 1.391 . S
C959 C958 1.386 . S
C959 C963 1.393 . S
C960 H949 0.950 . S
C960 C958 1.391 . S
C960 C961 1.400 . S
C961 C955 1.491 . S
C961 C960 1.400 . S
C961 C962 1.398 . S
C962 H950 0.950 . S
C962 C961 1.398 . S
C962 C963 1.391 . S
C963 H951 0.950 . S
C963 C959 1.393 . S
C963 C962 1.391 . S
H964 C972 0.950 . S
H965 C977 0.950 . S
H966 C974 0.950 . S
H967 C976 0.950 . S
H968 C978 0.950 . S
H969 C980 0.950 . S
H970 C982 0.950 . S
H971 C983 0.950 . S
C972 H964 0.950 . S
C972 C973 1.386 . S
C972 C974 1.391 . S
C973 C972 1.386 . S
C973 C977 1.393 . S
C974 H966 0.950 . S
C974 C972 1.391 . S
C974 C975 1.400 . S
C975 C974 1.400 . S
C975 C976 1.398 . S
C975 C981 1.491 . S
C976 H967 0.950 . S
C976 C975 1.398 . S
C976 C977 1.391 . S
C977 H965 0.950 . S
C977 C973 1.393 . S
C977 C976 1.391 . S
C978 H968 0.950 . S
C978 C979 1.386 . S
C978 C980 1.391 . S
C979 C978 1.386 . S
C979 C983 1.393 . S
C980 H969 0.950 . S
C980 C978 1.391 . S
C980 C981 1.400 . S
C981 C975 1.491 . S
C981 C980 1.400 . S
C981 C982 1.398 . S
C982 H970 0.950 . S
C982 C981 1.398 . S
C982 C983 1.391 . S
C983 H971 0.950 . S
C983 C979 1.393 . S
C983 C982 1.391 . S
H984 C992 0.950 . S
H985 C997 0.950 . S
H986 C994 0.950 . S
H987 C996 0.950 . S
H988 C998 0.950 . S
H989 C1000 0.950 . S
H990 C1002 0.950 . S
H991 C1003 0.950 . S
C992 H984 0.950 . S
C992 C993 1.386 . S
C992 C994 1.391 . S
C993 C992 1.386 . S
C993 C997 1.393 . S
C994 H986 0.950 . S
C994 C992 1.391 . S
C994 C995 1.400 . S
C995 C994 1.400 . S
C995 C996 1.398 . S
C995 C1001 1.491 . S
C996 H987 0.950 . S
C996 C995 1.398 . S
C996 C997 1.391 . S
C997 H985 0.950 . S
C997 C993 1.393 . S
C997 C996 1.391 . S
C998 H988 0.950 . S
C998 C999 1.386 . S
C998 C1000 1.391 . S
C999 C998 1.386 . S
C999 C1003 1.393 . S
C1000 H989 0.950 . S
C1000 C998 1.391 . S
C1000 C1001 1.400 . S
C1001 C995 1.491 . S
C1001 C1000 1.400 . S
C1001 C1002 1.398 . S
C1002 H990 0.950 . S
C1002 C1001 1.398 . S
C1002 C1003 1.391 . S
C1003 H991 0.950 . S
C1003 C999 1.393 . S
C1003 C1002 1.391 . S
H1004 C1012 0.950 . S
H1005 C1017 0.950 . S
H1006 C1014 0.950 . S
H1007 C1016 0.950 . S
H1008 C1018 0.950 . S
H1009 C1020 0.950 . S
H1010 C1022 0.950 . S
H1011 C1023 0.950 . S
C1012 H1004 0.950 . S
C1012 C1013 1.386 . S
C1012 C1014 1.391 . S
C1013 C1012 1.386 . S
C1013 C1017 1.393 . S
C1014 H1006 0.950 . S
C1014 C1012 1.391 . S
C1014 C1015 1.400 . S
C1015 C1014 1.400 . S
C1015 C1016 1.398 . S
C1015 C1021 1.491 . S
C1016 H1007 0.950 . S
C1016 C1015 1.398 . S
C1016 C1017 1.391 . S
C1017 H1005 0.950 . S
C1017 C1013 1.393 . S
C1017 C1016 1.391 . S
C1018 H1008 0.950 . S
C1018 C1019 1.386 . S
C1018 C1020 1.391 . S
C1019 C1018 1.386 . S
C1019 C1023 1.393 . S
C1020 H1009 0.950 . S
C1020 C1018 1.391 . S
C1020 C1021 1.400 . S
C1021 C1015 1.491 . S
C1021 C1020 1.400 . S
C1021 C1022 1.398 . S
C1022 H1010 0.950 . S
C1022 C1021 1.398 . S
C1022 C1023 1.391 . S
C1023 H1011 0.950 . S
C1023 C1019 1.393 . S
C1023 C1022 1.391 . S
H1024 C1032 0.950 . S
H1025 C1037 0.950 . S
H1026 C1034 0.950 . S
H1027 C1036 0.950 . S
H1028 C1038 0.950 . S
H1029 C1040 0.950 . S
H1030 C1042 0.950 . S
H1031 C1043 0.950 . S
C1032 H1024 0.950 . S
C1032 C1033 1.386 . S
C1032 C1034 1.391 . S
C1033 C1032 1.386 . S
C1033 C1037 1.393 . S
C1034 H1026 0.950 . S
C1034 C1032 1.391 . S
C1034 C1035 1.400 . S
C1035 C1034 1.400 . S
C1035 C1036 1.398 . S
C1035 C1041 1.491 . S
C1036 H1027 0.950 . S
C1036 C1035 1.398 . S
C1036 C1037 1.391 . S
C1037 H1025 0.950 . S
C1037 C1033 1.393 . S
C1037 C1036 1.391 . S
C1038 H1028 0.950 . S
C1038 C1039 1.386 . S
C1038 C1040 1.391 . S
C1039 C1038 1.386 . S
C1039 C1043 1.393 . S
C1040 H1029 0.950 . S
C1040 C1038 1.391 . S
C1040 C1041 1.400 . S
C1041 C1035 1.491 . S
C1041 C1040 1.400 . S
C1041 C1042 1.398 . S
C1042 H1030 0.950 . S
C1042 C1041 1.398 . S
C1042 C1043 1.391 . S
C1043 H1031 0.950 . S
C1043 C1039 1.393 . S
C1043 C1042 1.391 . S
H1044 C1052 0.950 . S
H1045 C1057 0.950 . S
H1046 C1054 0.950 . S
H1047 C1056 0.950 . S
H1048 C1058 0.950 . S
H1049 C1060 0.950 . S
H1050 C1062 0.950 . S
H1051 C1063 0.958 . S
C1052 H1044 0.950 . S
C1052 C1053 1.386 . S
C1052 C1054 1.391 . S
C1053 C1052 1.386 . S
C1053 C1057 1.393 . S
C1054 H1046 0.950 . S
C1054 C1052 1.391 . S
C1054 C1055 1.400 . S
C1055 C1054 1.400 . S
C1055 C1056 1.398 . S
C1055 C1061 1.491 . S
C1056 H1047 0.950 . S
C1056 C1055 1.398 . S
C1056 C1057 1.391 . S
C1057 H1045 0.950 . S
C1057 C1053 1.393 . S
C1057 C1056 1.391 . S
C1058 H1048 0.950 . S
C1058 C1059 1.386 . S
C1058 C1060 1.391 . S
C1059 C1058 1.386 . S
C1059 C1063 1.393 . S
C1060 H1049 0.950 . S
C1060 C1058 1.391 . S
C1060 C1061 1.400 . S
C1061 C1055 1.491 . S
C1061 C1060 1.400 . S
C1061 C1062 1.398 . S
C1062 H1050 0.950 . S
C1062 C1061 1.398 . S
C1062 C1063 1.391 . S
C1063 H1051 0.958 . S
C1063 C1059 1.393 . S
C1063 C1062 1.391 . S
H1064 C1072 0.950 . S
H1065 C1077 0.950 . S
H1066 C1074 0.950 . S
H1067 C1076 0.950 . S
H1068 C1078 0.950 1_554 S
H1069 C1080 0.950 . S
H1070 C1082 0.950 . S
H1071 C1083 0.950 . S
C1072 H1064 0.950 . S
C1072 C1073 1.386 . S
C1072 C1074 1.391 . S
C1073 C1072 1.386 . S
C1073 C1077 1.393 . S
C1074 H1066 0.950 . S
C1074 C1072 1.391 . S
C1074 C1075 1.400 . S
C1075 C1074 1.400 . S
C1075 C1076 1.398 . S
C1075 C1081 1.491 . S
C1076 H1067 0.950 . S
C1076 C1075 1.398 . S
C1076 C1077 1.391 . S
C1077 H1065 0.950 . S
C1077 C1073 1.393 . S
C1077 C1076 1.391 . S
C1078 H1068 0.950 1_556 S
C1078 C1079 1.386 . S
C1078 C1080 1.391 . S
C1079 C1078 1.386 . S
C1079 C1083 1.393 . S
C1080 H1069 0.950 . S
C1080 C1078 1.391 . S
C1080 C1081 1.400 . S
C1081 C1075 1.491 . S
C1081 C1080 1.400 . S
C1081 C1082 1.398 . S
C1082 H1070 0.950 . S
C1082 C1081 1.398 . S
C1082 C1083 1.391 . S
C1083 H1071 0.950 . S
C1083 C1079 1.393 . S
C1083 C1082 1.391 . S
H1084 C1092 0.950 . S
H1085 C1097 0.950 . S
H1086 C1094 0.950 . S
H1087 C1096 0.950 . S
H1088 C1098 0.950 . S
H1089 C1100 0.950 . S
H1090 C1102 0.950 . S
H1091 C1103 0.950 1_554 S
C1092 H1084 0.950 . S
C1092 C1093 1.386 . S
C1092 C1094 1.391 . S
C1093 C1092 1.386 . S
C1093 C1097 1.393 . S
C1094 H1086 0.950 . S
C1094 C1092 1.391 . S
C1094 C1095 1.400 . S
C1095 C1094 1.400 . S
C1095 C1096 1.398 . S
C1095 C1101 1.491 . S
C1096 H1087 0.950 . S
C1096 C1095 1.398 . S
C1096 C1097 1.391 . S
C1097 H1085 0.950 . S
C1097 C1093 1.393 . S
C1097 C1096 1.391 . S
C1098 H1088 0.950 . S
C1098 C1099 1.386 . S
C1098 C1100 1.391 . S
C1099 C1098 1.386 . S
C1099 C1103 1.393 . S
C1100 H1089 0.950 . S
C1100 C1098 1.391 . S
C1100 C1101 1.400 . S
C1101 C1095 1.491 . S
C1101 C1100 1.400 . S
C1101 C1102 1.398 . S
C1102 H1090 0.950 . S
C1102 C1101 1.398 . S
C1102 C1103 1.391 . S
C1103 H1091 0.950 1_556 S
C1103 C1099 1.393 . S
C1103 C1102 1.391 . S
H1104 C1112 0.950 . S
H1105 C1117 0.950 . S
H1106 C1114 0.950 . S
H1107 C1116 0.950 . S
H1108 C1118 0.950 . S
H1109 C1120 0.950 . S
H1110 C1122 0.950 . S
H1111 C1123 0.950 . S
C1112 H1104 0.950 . S
C1112 C1113 1.386 . S
C1112 C1114 1.391 . S
C1113 C1112 1.386 . S
C1113 C1117 1.393 . S
C1114 H1106 0.950 . S
C1114 C1112 1.391 . S
C1114 C1115 1.400 . S
C1115 C1114 1.400 . S
C1115 C1116 1.398 . S
C1115 C1121 1.491 . S
C1116 H1107 0.950 . S
C1116 C1115 1.398 . S
C1116 C1117 1.391 . S
C1117 H1105 0.950 . S
C1117 C1113 1.393 . S
C1117 C1116 1.391 . S
C1118 H1108 0.950 . S
C1118 C1119 1.386 . S
C1118 C1120 1.391 . S
C1119 C1118 1.386 . S
C1119 C1123 1.393 . S
C1120 H1109 0.950 . S
C1120 C1118 1.391 . S
C1120 C1121 1.400 . S
C1121 C1115 1.491 . S
C1121 C1120 1.400 . S
C1121 C1122 1.398 . S
C1122 H1110 0.950 . S
C1122 C1121 1.398 . S
C1122 C1123 1.391 . S
C1123 H1111 0.950 . S
C1123 C1119 1.393 . S
C1123 C1122 1.391 . S
H1124 C1132 0.950 . S
H1125 C1137 0.950 . S
H1126 C1134 0.950 . S
H1127 C1136 0.950 . S
H1128 C1138 0.950 . S
H1129 C1140 0.950 . S
H1130 C1142 0.950 . S
H1131 C1143 0.950 . S
C1132 H1124 0.950 . S
C1132 C1133 1.386 . S
C1132 C1134 1.391 . S
C1133 C1132 1.386 . S
C1133 C1137 1.393 . S
C1134 H1126 0.950 . S
C1134 C1132 1.391 . S
C1134 C1135 1.400 . S
C1135 C1134 1.400 . S
C1135 C1136 1.398 . S
C1135 C1141 1.491 . S
C1136 H1127 0.950 . S
C1136 C1135 1.398 . S
C1136 C1137 1.391 . S
C1137 H1125 0.950 . S
C1137 C1133 1.393 . S
C1137 C1136 1.391 . S
C1138 H1128 0.950 . S
C1138 C1139 1.386 . S
C1138 C1140 1.391 . S
C1139 C1138 1.386 . S
C1139 C1143 1.393 . S
C1140 H1129 0.950 . S
C1140 C1138 1.391 . S
C1140 C1141 1.400 . S
C1141 C1135 1.491 . S
C1141 C1140 1.400 . S
C1141 C1142 1.398 . S
C1142 H1130 0.950 . S
C1142 C1141 1.398 . S
C1142 C1143 1.391 . S
C1143 H1131 0.950 . S
C1143 C1139 1.393 . S
C1143 C1142 1.391 . S
H1144 C1152 0.950 . S
H1145 C1157 0.950 . S
H1146 C1154 0.950 . S
H1147 C1156 0.950 . S
H1148 C1158 0.950 . S
H1149 C1160 0.950 . S
H1150 C1162 0.950 . S
H1151 C1163 0.950 . S
C1152 H1144 0.950 . S
C1152 C1153 1.386 . S
C1152 C1154 1.391 . S
C1153 C1152 1.386 . S
C1153 C1157 1.393 . S
C1154 H1146 0.950 . S
C1154 C1152 1.391 . S
C1154 C1155 1.400 . S
C1155 C1154 1.400 . S
C1155 C1156 1.398 . S
C1155 C1161 1.491 . S
C1156 H1147 0.950 . S
C1156 C1155 1.398 . S
C1156 C1157 1.391 . S
C1157 H1145 0.950 . S
C1157 C1153 1.393 . S
C1157 C1156 1.391 . S
C1158 H1148 0.950 . S
C1158 C1159 1.386 . S
C1158 C1160 1.391 . S
C1159 C1158 1.386 . S
C1159 C1163 1.393 . S
C1160 H1149 0.950 . S
C1160 C1158 1.391 . S
C1160 C1161 1.400 . S
C1161 C1155 1.491 . S
C1161 C1160 1.400 . S
C1161 C1162 1.398 . S
C1162 H1150 0.950 . S
C1162 C1161 1.398 . S
C1162 C1163 1.391 . S
C1163 H1151 0.950 . S
C1163 C1159 1.393 . S
C1163 C1162 1.391 . S
H1164 C1172 0.950 . S
H1165 C1177 0.950 . S
H1166 C1174 0.950 . S
H1167 C1176 0.950 . S
H1168 C1178 0.950 . S
H1169 C1180 0.950 . S
H1170 C1182 0.950 . S
H1171 C1183 0.950 . S
C1172 H1164 0.950 . S
C1172 C1173 1.386 . S
C1172 C1174 1.391 . S
C1173 C1172 1.386 . S
C1173 C1177 1.393 . S
C1174 H1166 0.950 . S
C1174 C1172 1.391 . S
C1174 C1175 1.400 . S
C1175 C1174 1.400 . S
C1175 C1176 1.398 . S
C1175 C1181 1.491 . S
C1176 H1167 0.950 . S
C1176 C1175 1.398 . S
C1176 C1177 1.391 . S
C1177 H1165 0.950 . S
C1177 C1173 1.393 . S
C1177 C1176 1.391 . S
C1178 H1168 0.950 . S
C1178 C1179 1.386 . S
C1178 C1180 1.391 . S
C1179 C1178 1.386 . S
C1179 C1183 1.393 . S
C1180 H1169 0.950 . S
C1180 C1178 1.391 . S
C1180 C1181 1.400 . S
C1181 C1175 1.491 . S
C1181 C1180 1.400 . S
C1181 C1182 1.398 . S
C1182 H1170 0.950 . S
C1182 C1181 1.398 . S
C1182 C1183 1.391 . S
C1183 H1171 0.950 . S
C1183 C1179 1.393 . S
C1183 C1182 1.391 . S
H1184 C1192 0.950 . S
H1185 C1197 0.950 . S
H1186 C1194 0.950 . S
H1187 C1196 0.950 . S
H1188 C1198 0.950 . S
H1189 C1200 0.950 . S
H1190 C1202 0.950 . S
H1191 C1203 0.950 . S
C1192 H1184 0.950 . S
C1192 C1193 1.386 . S
C1192 C1194 1.391 . S
C1193 C1192 1.386 . S
C1193 C1197 1.393 . S
C1194 H1186 0.950 . S
C1194 C1192 1.391 . S
C1194 C1195 1.400 . S
C1195 C1194 1.400 . S
C1195 C1196 1.398 . S
C1195 C1201 1.491 . S
C1196 H1187 0.950 . S
C1196 C1195 1.398 . S
C1196 C1197 1.391 . S
C1197 H1185 0.950 . S
C1197 C1193 1.393 . S
C1197 C1196 1.391 . S
C1198 H1188 0.950 . S
C1198 C1199 1.386 . S
C1198 C1200 1.391 . S
C1199 C1198 1.386 . S
C1199 C1203 1.393 . S
C1200 H1189 0.950 . S
C1200 C1198 1.391 . S
C1200 C1201 1.400 . S
C1201 C1195 1.491 . S
C1201 C1200 1.400 . S
C1201 C1202 1.398 . S
C1202 H1190 0.950 . S
C1202 C1201 1.398 . S
C1202 C1203 1.391 . S
C1203 H1191 0.950 . S
C1203 C1199 1.393 . S
C1203 C1202 1.391 . S
H1204 C1212 0.950 . S
H1205 C1217 0.950 . S
H1206 C1214 0.950 . S
H1207 C1216 0.950 . S
H1208 C1218 0.950 . S
H1209 C1220 0.950 . S
H1210 C1222 0.950 . S
H1211 C1223 0.950 . S
C1212 H1204 0.950 . S
C1212 C1213 1.386 . S
C1212 C1214 1.391 . S
C1213 C1212 1.386 . S
C1213 C1217 1.393 . S
C1214 H1206 0.950 . S
C1214 C1212 1.391 . S
C1214 C1215 1.400 . S
C1215 C1214 1.400 . S
C1215 C1216 1.398 . S
C1215 C1221 1.491 . S
C1216 H1207 0.950 . S
C1216 C1215 1.398 . S
C1216 C1217 1.391 . S
C1217 H1205 0.950 . S
C1217 C1213 1.393 . S
C1217 C1216 1.391 . S
C1218 H1208 0.950 . S
C1218 C1219 1.386 . S
C1218 C1220 1.391 . S
C1219 C1218 1.386 . S
C1219 C1223 1.393 . S
C1220 H1209 0.950 . S
C1220 C1218 1.391 . S
C1220 C1221 1.400 . S
C1221 C1215 1.491 . S
C1221 C1220 1.400 . S
C1221 C1222 1.398 . S
C1222 H1210 0.950 . S
C1222 C1221 1.398 . S
C1222 C1223 1.391 . S
C1223 H1211 0.950 . S
C1223 C1219 1.393 . S
C1223 C1222 1.391 . S
H1224 C1232 0.950 . S
H1225 C1237 0.950 . S
H1226 C1234 0.950 . S
H1227 C1236 0.950 . S
H1228 C1238 0.950 . S
H1229 C1240 0.950 . S
H1230 C1242 0.950 . S
H1231 C1243 0.950 . S
C1232 H1224 0.950 . S
C1232 C1233 1.386 . S
C1232 C1234 1.391 . S
C1233 C1232 1.386 . S
C1233 C1237 1.393 . S
C1234 H1226 0.950 . S
C1234 C1232 1.391 . S
C1234 C1235 1.400 . S
C1235 C1234 1.400 . S
C1235 C1236 1.398 . S
C1235 C1241 1.491 . S
C1236 H1227 0.950 . S
C1236 C1235 1.398 . S
C1236 C1237 1.391 . S
C1237 H1225 0.950 . S
C1237 C1233 1.393 . S
C1237 C1236 1.391 . S
C1238 H1228 0.950 . S
C1238 C1239 1.386 . S
C1238 C1240 1.391 . S
C1239 C1238 1.386 . S
C1239 C1243 1.393 . S
C1240 H1229 0.950 . S
C1240 C1238 1.391 . S
C1240 C1241 1.400 . S
C1241 C1235 1.491 . S
C1241 C1240 1.400 . S
C1241 C1242 1.398 . S
C1242 H1230 0.950 . S
C1242 C1241 1.398 . S
C1242 C1243 1.391 . S
C1243 H1231 0.950 . S
C1243 C1239 1.393 . S
C1243 C1242 1.391 . S
H1244 C1252 0.950 . S
H1245 C1257 0.950 . S
H1246 C1254 0.950 . S
H1247 C1256 0.950 . S
H1248 C1258 0.950 . S
H1249 C1260 0.950 . S
H1250 C1262 0.950 . S
H1251 C1263 0.950 . S
C1252 H1244 0.950 . S
C1252 C1253 1.386 1_455 S
C1252 C1254 1.391 . S
C1253 C1252 1.386 1_655 S
C1253 C1257 1.393 . S
C1254 H1246 0.950 . S
C1254 C1252 1.391 . S
C1254 C1255 1.400 1_455 S
C1255 C1254 1.400 1_655 S
C1255 C1256 1.398 . S
C1255 C1261 1.491 . S
C1256 H1247 0.950 . S
C1256 C1255 1.398 . S
C1256 C1257 1.391 . S
C1257 H1245 0.950 . S
C1257 C1253 1.393 . S
C1257 C1256 1.391 . S
C1258 H1248 0.950 . S
C1258 C1259 1.386 . S
C1258 C1260 1.391 . S
C1259 C1258 1.386 . S
C1259 C1263 1.393 1_655 S
C1260 H1249 0.950 . S
C1260 C1258 1.391 . S
C1260 C1261 1.400 . S
C1261 C1255 1.491 . S
C1261 C1260 1.400 . S
C1261 C1262 1.398 1_655 S
C1262 H1250 0.950 . S
C1262 C1261 1.398 1_455 S
C1262 C1263 1.391 . S
C1263 H1251 0.950 . S
C1263 C1259 1.393 1_455 S
C1263 C1262 1.391 . S
H1264 C1272 0.950 . S
H1265 C1277 0.950 . S
H1266 C1274 0.950 . S
H1267 C1276 0.950 . S
H1268 C1278 0.950 . S
H1269 C1280 0.950 . S
H1270 C1282 0.950 . S
H1271 C1283 0.950 . S
C1272 H1264 0.950 . S
C1272 C1273 1.386 . S
C1272 C1274 1.391 . S
C1273 C1272 1.386 . S
C1273 C1277 1.393 . S
C1274 H1266 0.950 . S
C1274 C1272 1.391 . S
C1274 C1275 1.400 . S
C1275 C1274 1.400 . S
C1275 C1276 1.398 . S
C1275 C1281 1.491 . S
C1276 H1267 0.950 . S
C1276 C1275 1.398 . S
C1276 C1277 1.391 . S
C1277 H1265 0.950 . S
C1277 C1273 1.393 . S
C1277 C1276 1.391 . S
C1278 H1268 0.950 . S
C1278 C1279 1.386 . S
C1278 C1280 1.391 . S
C1279 C1278 1.386 . S
C1279 C1283 1.393 . S
C1280 H1269 0.950 . S
C1280 C1278 1.391 . S
C1280 C1281 1.400 . S
C1281 C1275 1.491 . S
C1281 C1280 1.400 . S
C1281 C1282 1.398 . S
C1282 H1270 0.950 . S
C1282 C1281 1.398 . S
C1282 C1283 1.391 . S
C1283 H1271 0.950 . S
C1283 C1279 1.393 . S
C1283 C1282 1.391 . S
H1284 C1292 0.950 . S
H1285 C1297 0.950 . S
H1286 C1294 0.950 . S
H1287 C1296 0.944 1_655 S
H1288 C1298 0.938 1_655 S
H1289 C1300 0.968 . S
H1290 C1302 0.950 . S
H1291 C1303 0.950 . S
C1292 H1284 0.950 . S
C1292 C1293 1.386 . S
C1292 C1294 1.391 . S
C1293 C1292 1.386 . S
C1293 C1297 1.393 . S
C1294 H1286 0.950 . S
C1294 C1292 1.391 . S
C1294 C1295 1.400 . S
C1295 C1294 1.400 . S
C1295 C1296 1.398 . S
C1295 C1301 1.491 . S
C1296 H1287 0.944 1_455 S
C1296 C1295 1.398 . S
C1296 C1297 1.391 . S
C1297 H1285 0.950 . S
C1297 C1293 1.393 . S
C1297 C1296 1.391 . S
C1298 H1288 0.938 1_455 S
C1298 C1299 1.386 . S
C1298 C1300 1.391 . S
C1299 C1298 1.386 . S
C1299 C1303 1.393 . S
C1300 H1289 0.968 . S
C1300 C1298 1.391 . S
C1300 C1301 1.400 . S
C1301 C1295 1.491 . S
C1301 C1300 1.400 . S
C1301 C1302 1.398 . S
C1302 H1290 0.950 . S
C1302 C1301 1.398 . S
C1302 C1303 1.391 . S
C1303 H1291 0.950 . S
C1303 C1299 1.393 . S
C1303 C1302 1.391 . S
H1304 C1312 0.950 . S
H1305 C1317 0.950 . S
H1306 C1314 0.950 . S
H1307 C1316 0.950 . S
H1308 C1318 0.950 . S
H1309 C1320 0.950 . S
H1310 C1322 0.950 . S
H1311 C1323 0.950 . S
C1312 H1304 0.950 . S
C1312 C1313 1.386 . S
C1312 C1314 1.391 . S
C1313 C1312 1.386 . S
C1313 C1317 1.393 . S
C1314 H1306 0.950 . S
C1314 C1312 1.391 . S
C1314 C1315 1.400 . S
C1315 C1314 1.400 . S
C1315 C1316 1.398 . S
C1315 C1321 1.491 . S
C1316 H1307 0.950 . S
C1316 C1315 1.398 . S
C1316 C1317 1.391 . S
C1317 H1305 0.950 . S
C1317 C1313 1.393 . S
C1317 C1316 1.391 . S
C1318 H1308 0.950 . S
C1318 C1319 1.386 . S
C1318 C1320 1.391 . S
C1319 C1318 1.386 . S
C1319 C1323 1.393 . S
C1320 H1309 0.950 . S
C1320 C1318 1.391 . S
C1320 C1321 1.400 . S
C1321 C1315 1.491 . S
C1321 C1320 1.400 . S
C1321 C1322 1.398 . S
C1322 H1310 0.950 . S
C1322 C1321 1.398 . S
C1322 C1323 1.391 . S
C1323 H1311 0.950 . S
C1323 C1319 1.393 . S
C1323 C1322 1.391 . S
H1324 C1332 0.950 . S
H1325 C1337 0.950 . S
H1326 C1334 0.950 . S
H1327 C1336 0.954 . S
H1328 C1338 0.950 . S
H1329 C1340 0.950 . S
H1330 C1342 0.950 . S
H1331 C1343 0.950 . S
C1332 H1324 0.950 . S
C1332 C1333 1.386 . S
C1332 C1334 1.391 . S
C1333 C1332 1.386 . S
C1333 C1337 1.393 . S
C1334 H1326 0.950 . S
C1334 C1332 1.391 . S
C1334 C1335 1.400 . S
C1335 C1334 1.400 . S
C1335 C1336 1.398 . S
C1335 C1341 1.491 . S
C1336 H1327 0.954 . S
C1336 C1335 1.398 . S
C1336 C1337 1.391 . S
C1337 H1325 0.950 . S
C1337 C1333 1.393 . S
C1337 C1336 1.391 . S
C1338 H1328 0.950 . S
C1338 C1339 1.386 . S
C1338 C1340 1.391 . S
C1339 C1338 1.386 . S
C1339 C1343 1.393 . S
C1340 H1329 0.950 . S
C1340 C1338 1.391 . S
C1340 C1341 1.400 . S
C1341 C1335 1.491 . S
C1341 C1340 1.400 . S
C1341 C1342 1.398 . S
C1342 H1330 0.950 . S
C1342 C1341 1.398 . S
C1342 C1343 1.391 . S
C1343 H1331 0.950 . S
C1343 C1339 1.393 . S
C1343 C1342 1.391 . S
H1344 C1352 0.950 . S
H1345 C1357 0.950 . S
H1346 C1354 0.950 . S
H1347 C1356 0.950 . S
H1348 C1358 0.950 . S
H1349 C1360 0.950 . S
H1350 C1362 0.950 . S
H1351 C1363 0.950 . S
C1352 H1344 0.950 . S
C1352 C1353 1.386 . S
C1352 C1354 1.391 . S
C1353 C1352 1.386 . S
C1353 C1357 1.393 1_565 S
C1354 H1346 0.950 . S
C1354 C1352 1.391 . S
C1354 C1355 1.400 . S
C1355 C1354 1.400 . S
C1355 C1356 1.398 1_565 S
C1355 C1361 1.491 . S
C1356 H1347 0.950 . S
C1356 C1355 1.398 1_545 S
C1356 C1357 1.391 . S
C1357 H1345 0.950 . S
C1357 C1353 1.393 1_545 S
C1357 C1356 1.391 . S
C1358 H1348 0.950 . S
C1358 C1359 1.386 1_545 S
C1358 C1360 1.391 . S
C1359 C1358 1.386 1_565 S
C1359 C1363 1.393 . S
C1360 H1349 0.950 . S
C1360 C1358 1.391 . S
C1360 C1361 1.400 1_545 S
C1361 C1355 1.491 . S
C1361 C1360 1.400 1_565 S
C1361 C1362 1.398 . S
C1362 H1350 0.950 . S
C1362 C1361 1.398 . S
C1362 C1363 1.391 . S
C1363 H1351 0.950 . S
C1363 C1359 1.393 . S
C1363 C1362 1.391 . S
H1364 C1372 0.950 . S
H1365 C1377 0.950 1_655 S
H1366 C1374 0.950 . S
H1367 C1376 0.950 1_655 S
H1368 C1378 0.950 1_655 S
H1369 C1380 0.950 1_655 S
H1370 C1382 0.950 . S
H1371 C1383 0.950 . S
C1372 H1364 0.950 . S
C1372 C1373 1.386 . S
C1372 C1374 1.391 . S
C1373 C1372 1.386 . S
C1373 C1377 1.393 . S
C1374 H1366 0.950 . S
C1374 C1372 1.391 . S
C1374 C1375 1.400 . S
C1375 C1374 1.400 . S
C1375 C1376 1.398 . S
C1375 C1381 1.491 . S
C1376 H1367 0.950 1_455 S
C1376 C1375 1.398 . S
C1376 C1377 1.391 . S
C1377 H1365 0.950 1_455 S
C1377 C1373 1.393 . S
C1377 C1376 1.391 . S
C1378 H1368 0.950 1_455 S
C1378 C1379 1.386 . S
C1378 C1380 1.391 . S
C1379 C1378 1.386 . S
C1379 C1383 1.393 . S
C1380 H1369 0.950 1_455 S
C1380 C1378 1.391 . S
C1380 C1381 1.400 . S
C1381 C1375 1.491 . S
C1381 C1380 1.400 . S
C1381 C1382 1.398 . S
C1382 H1370 0.950 . S
C1382 C1381 1.398 . S
C1382 C1383 1.391 . S
C1383 H1371 0.950 . S
C1383 C1379 1.393 . S
C1383 C1382 1.391 . S
H1384 C1392 0.950 . S
H1385 C1397 0.950 . S
H1386 C1394 0.950 . S
H1387 C1396 0.950 . S
H1388 C1398 0.950 . S
H1389 C1400 0.950 . S
H1390 C1402 0.950 . S
H1391 C1403 0.950 . S
C1392 H1384 0.950 . S
C1392 C1393 1.386 . S
C1392 C1394 1.391 . S
C1393 C1392 1.386 . S
C1393 C1397 1.393 . S
C1394 H1386 0.950 . S
C1394 C1392 1.391 . S
C1394 C1395 1.400 . S
C1395 C1394 1.400 . S
C1395 C1396 1.398 . S
C1395 C1401 1.491 . S
C1396 H1387 0.950 . S
C1396 C1395 1.398 . S
C1396 C1397 1.391 . S
C1397 H1385 0.950 . S
C1397 C1393 1.393 . S
C1397 C1396 1.391 . S
C1398 H1388 0.950 . S
C1398 C1399 1.386 . S
C1398 C1400 1.391 . S
C1399 C1398 1.386 . S
C1399 C1403 1.393 . S
C1400 H1389 0.950 . S
C1400 C1398 1.391 . S
C1400 C1401 1.400 . S
C1401 C1395 1.491 . S
C1401 C1400 1.400 . S
C1401 C1402 1.398 . S
C1402 H1390 0.950 . S
C1402 C1401 1.398 . S
C1402 C1403 1.391 . S
C1403 H1391 0.950 . S
C1403 C1399 1.393 . S
C1403 C1402 1.391 . S
H1404 C1412 0.950 . S
H1405 C1417 0.950 . S
H1406 C1414 0.950 . S
H1407 C1416 0.950 . S
H1408 C1418 0.950 . S
H1409 C1420 0.950 . S
H1410 C1422 0.950 . S
H1411 C1423 0.950 . S
C1412 H1404 0.950 . S
C1412 C1413 1.386 . S
C1412 C1414 1.391 . S
C1413 C1412 1.386 . S
C1413 C1417 1.393 1_655 S
C1414 H1406 0.950 . S
C1414 C1412 1.391 . S
C1414 C1415 1.400 . S
C1415 C1414 1.400 . S
C1415 C1416 1.398 1_655 S
C1415 C1421 1.491 . S
C1416 H1407 0.950 . S
C1416 C1415 1.398 1_455 S
C1416 C1417 1.391 . S
C1417 H1405 0.950 . S
C1417 C1413 1.393 1_455 S
C1417 C1416 1.391 . S
C1418 H1408 0.950 . S
C1418 C1419 1.386 1_455 S
C1418 C1420 1.391 . S
C1419 C1418 1.386 1_655 S
C1419 C1423 1.393 . S
C1420 H1409 0.950 . S
C1420 C1418 1.391 . S
C1420 C1421 1.400 1_455 S
C1421 C1415 1.491 . S
C1421 C1420 1.400 1_655 S
C1421 C1422 1.398 . S
C1422 H1410 0.950 . S
C1422 C1421 1.398 . S
C1422 C1423 1.391 . S
C1423 H1411 0.950 . S
C1423 C1419 1.393 . S
C1423 C1422 1.391 . S
H1424 C1432 0.950 . S
H1425 C1437 0.950 . S
H1426 C1434 0.950 . S
H1427 C1436 0.950 . S
H1428 C1438 0.950 . S
H1429 C1440 0.950 . S
H1430 C1442 0.950 . S
H1431 C1443 0.950 . S
C1432 H1424 0.950 . S
C1432 C1433 1.386 . S
C1432 C1434 1.391 . S
C1433 C1432 1.386 . S
C1433 C1437 1.393 . S
C1434 H1426 0.950 . S
C1434 C1432 1.391 . S
C1434 C1435 1.400 . S
C1435 C1434 1.400 . S
C1435 C1436 1.398 . S
C1435 C1441 1.491 . S
C1436 H1427 0.950 . S
C1436 C1435 1.398 . S
C1436 C1437 1.391 . S
C1437 H1425 0.950 . S
C1437 C1433 1.393 . S
C1437 C1436 1.391 . S
C1438 H1428 0.950 . S
C1438 C1439 1.386 . S
C1438 C1440 1.391 . S
C1439 C1438 1.386 . S
C1439 C1443 1.393 . S
C1440 H1429 0.950 . S
C1440 C1438 1.391 . S
C1440 C1441 1.400 . S
C1441 C1435 1.491 . S
C1441 C1440 1.400 . S
C1441 C1442 1.398 . S
C1442 H1430 0.950 . S
C1442 C1441 1.398 . S
C1442 C1443 1.391 . S
C1443 H1431 0.950 . S
C1443 C1439 1.393 . S
C1443 C1442 1.391 . S
H1444 C1452 0.950 . S
H1445 C1457 0.950 . S
H1446 C1454 0.950 . S
H1447 C1456 0.950 . S
H1448 C1458 0.950 . S
H1449 C1460 0.950 . S
H1450 C1462 0.950 . S
H1451 C1463 0.950 . S
C1452 H1444 0.950 . S
C1452 C1453 1.386 . S
C1452 C1454 1.391 . S
C1453 C1452 1.386 . S
C1453 C1457 1.393 . S
C1454 H1446 0.950 . S
C1454 C1452 1.391 . S
C1454 C1455 1.400 . S
C1455 C1454 1.400 . S
C1455 C1456 1.398 . S
C1455 C1461 1.491 . S
C1456 H1447 0.950 . S
C1456 C1455 1.398 . S
C1456 C1457 1.391 . S
C1457 H1445 0.950 . S
C1457 C1453 1.393 . S
C1457 C1456 1.391 . S
C1458 H1448 0.950 . S
C1458 C1459 1.386 . S
C1458 C1460 1.391 . S
C1459 C1458 1.386 . S
C1459 C1463 1.393 . S
C1460 H1449 0.950 . S
C1460 C1458 1.391 . S
C1460 C1461 1.400 . S
C1461 C1455 1.491 . S
C1461 C1460 1.400 . S
C1461 C1462 1.398 . S
C1462 H1450 0.950 . S
C1462 C1461 1.398 . S
C1462 C1463 1.391 . S
C1463 H1451 0.950 . S
C1463 C1459 1.393 . S
C1463 C1462 1.391 . S
H1464 C1472 0.950 . S
H1465 C1477 0.950 . S
H1466 C1474 0.950 . S
H1467 C1476 0.950 . S
H1468 C1478 0.950 . S
H1469 C1480 0.950 . S
H1470 C1482 0.950 . S
H1471 C1483 0.950 . S
C1472 H1464 0.950 . S
C1472 C1473 1.386 . S
C1472 C1474 1.391 . S
C1473 C1472 1.386 . S
C1473 C1477 1.393 . S
C1474 H1466 0.950 . S
C1474 C1472 1.391 . S
C1474 C1475 1.400 . S
C1475 C1474 1.400 . S
C1475 C1476 1.398 . S
C1475 C1481 1.491 . S
C1476 H1467 0.950 . S
C1476 C1475 1.398 . S
C1476 C1477 1.391 . S
C1477 H1465 0.950 . S
C1477 C1473 1.393 . S
C1477 C1476 1.391 . S
C1478 H1468 0.950 . S
C1478 C1479 1.386 . S
C1478 C1480 1.391 . S
C1479 C1478 1.386 . S
C1479 C1483 1.393 . S
C1480 H1469 0.950 . S
C1480 C1478 1.391 . S
C1480 C1481 1.400 . S
C1481 C1475 1.491 . S
C1481 C1480 1.400 . S
C1481 C1482 1.398 . S
C1482 H1470 0.950 . S
C1482 C1481 1.398 . S
C1482 C1483 1.391 . S
C1483 H1471 0.950 . S
C1483 C1479 1.393 . S
C1483 C1482 1.391 . S
H1484 C1492 0.950 . S
H1485 C1497 0.950 . S
H1486 C1494 0.950 . S
H1487 C1496 0.950 . S
H1488 C1498 0.950 . S
H1489 C1500 0.950 . S
H1490 C1502 0.950 . S
H1491 C1503 0.950 . S
C1492 H1484 0.950 . S
C1492 C1493 1.386 . S
C1492 C1494 1.391 . S
C1493 C1492 1.386 . S
C1493 C1497 1.393 . S
C1494 H1486 0.950 . S
C1494 C1492 1.391 . S
C1494 C1495 1.400 . S
C1495 C1494 1.400 . S
C1495 C1496 1.398 . S
C1495 C1501 1.491 . S
C1496 H1487 0.950 . S
C1496 C1495 1.398 . S
C1496 C1497 1.391 . S
C1497 H1485 0.950 . S
C1497 C1493 1.393 . S
C1497 C1496 1.391 . S
C1498 H1488 0.950 . S
C1498 C1499 1.386 . S
C1498 C1500 1.391 . S
C1499 C1498 1.386 . S
C1499 C1503 1.393 . S
C1500 H1489 0.950 . S
C1500 C1498 1.391 . S
C1500 C1501 1.400 . S
C1501 C1495 1.491 . S
C1501 C1500 1.400 . S
C1501 C1502 1.398 . S
C1502 H1490 0.950 . S
C1502 C1501 1.398 . S
C1502 C1503 1.391 . S
C1503 H1491 0.950 . S
C1503 C1499 1.393 . S
C1503 C1502 1.391 . S
H1504 C1512 0.950 . S
H1505 C1517 0.950 . S
H1506 C1514 0.950 . S
H1507 C1516 0.950 . S
H1508 C1518 0.950 . S
H1509 C1520 0.950 . S
H1510 C1522 0.950 . S
H1511 C1523 0.950 . S
C1512 H1504 0.950 . S
C1512 C1513 1.386 . S
C1512 C1514 1.391 . S
C1513 C1512 1.386 . S
C1513 C1517 1.393 . S
C1514 H1506 0.950 . S
C1514 C1512 1.391 . S
C1514 C1515 1.400 . S
C1515 C1514 1.400 . S
C1515 C1516 1.398 . S
C1515 C1521 1.491 . S
C1516 H1507 0.950 . S
C1516 C1515 1.398 . S
C1516 C1517 1.391 . S
C1517 H1505 0.950 . S
C1517 C1513 1.393 . S
C1517 C1516 1.391 . S
C1518 H1508 0.950 . S
C1518 C1519 1.386 . S
C1518 C1520 1.391 . S
C1519 C1518 1.386 . S
C1519 C1523 1.393 . S
C1520 H1509 0.950 . S
C1520 C1518 1.391 . S
C1520 C1521 1.400 . S
C1521 C1515 1.491 . S
C1521 C1520 1.400 . S
C1521 C1522 1.398 . S
C1522 H1510 0.950 . S
C1522 C1521 1.398 . S
C1522 C1523 1.391 . S
C1523 H1511 0.950 . S
C1523 C1519 1.393 . S
C1523 C1522 1.391 . S
H1524 C1532 0.950 . S
H1525 C1537 0.950 . S
H1526 C1534 0.950 . S
H1527 C1536 0.950 . S
H1528 C1538 0.950 . S
H1529 C1540 0.950 . S
H1530 C1542 0.950 . S
H1531 C1543 0.950 . S
C1532 H1524 0.950 . S
C1532 C1533 1.386 . S
C1532 C1534 1.391 . S
C1533 C1532 1.386 . S
C1533 C1537 1.393 . S
C1534 H1526 0.950 . S
C1534 C1532 1.391 . S
C1534 C1535 1.400 . S
C1535 C1534 1.400 . S
C1535 C1536 1.398 . S
C1535 C1541 1.491 . S
C1536 H1527 0.950 . S
C1536 C1535 1.398 . S
C1536 C1537 1.391 . S
C1537 H1525 0.950 . S
C1537 C1533 1.393 . S
C1537 C1536 1.391 . S
C1538 H1528 0.950 . S
C1538 C1539 1.386 . S
C1538 C1540 1.391 . S
C1539 C1538 1.386 . S
C1539 C1543 1.393 . S
C1540 H1529 0.950 . S
C1540 C1538 1.391 . S
C1540 C1541 1.400 . S
C1541 C1535 1.491 . S
C1541 C1540 1.400 . S
C1541 C1542 1.398 . S
C1542 H1530 0.950 . S
C1542 C1541 1.398 . S
C1542 C1543 1.391 . S
C1543 H1531 0.950 . S
C1543 C1539 1.393 . S
C1543 C1542 1.391 . S
H1544 C1552 0.950 . S
H1545 C1557 0.950 . S
H1546 C1554 0.950 . S
H1547 C1556 0.950 . S
H1548 C1558 0.950 . S
H1549 C1560 0.950 . S
H1550 C1562 0.950 . S
H1551 C1563 0.950 . S
C1552 H1544 0.950 . S
C1552 C1553 1.386 . S
C1552 C1554 1.391 . S
C1553 C1552 1.386 . S
C1553 C1557 1.393 . S
C1554 H1546 0.950 . S
C1554 C1552 1.391 . S
C1554 C1555 1.400 . S
C1555 C1554 1.400 . S
C1555 C1556 1.398 . S
C1555 C1561 1.491 . S
C1556 H1547 0.950 . S
C1556 C1555 1.398 . S
C1556 C1557 1.391 . S
C1557 H1545 0.950 . S
C1557 C1553 1.393 . S
C1557 C1556 1.391 . S
C1558 H1548 0.950 . S
C1558 C1559 1.386 . S
C1558 C1560 1.391 . S
C1559 C1558 1.386 . S
C1559 C1563 1.393 . S
C1560 H1549 0.950 . S
C1560 C1558 1.391 . S
C1560 C1561 1.400 . S
C1561 C1555 1.491 . S
C1561 C1560 1.400 . S
C1561 C1562 1.398 . S
C1562 H1550 0.950 . S
C1562 C1561 1.398 . S
C1562 C1563 1.391 . S
C1563 H1551 0.950 . S
C1563 C1559 1.393 . S
C1563 C1562 1.391 . S
H1564 C1572 0.950 . S
H1565 C1577 0.950 . S
H1566 C1574 0.950 . S
H1567 C1576 0.950 . S
H1568 C1578 0.950 . S
H1569 C1580 0.950 . S
H1570 C1582 0.950 . S
H1571 C1583 0.950 . S
C1572 H1564 0.950 . S
C1572 C1573 1.386 . S
C1572 C1574 1.391 . S
C1573 C1572 1.386 . S
C1573 C1577 1.393 . S
C1574 H1566 0.950 . S
C1574 C1572 1.391 . S
C1574 C1575 1.400 . S
C1575 C1574 1.400 . S
C1575 C1576 1.398 . S
C1575 C1581 1.491 . S
C1576 H1567 0.950 . S
C1576 C1575 1.398 . S
C1576 C1577 1.391 . S
C1577 H1565 0.950 . S
C1577 C1573 1.393 . S
C1577 C1576 1.391 . S
C1578 H1568 0.950 . S
C1578 C1579 1.386 . S
C1578 C1580 1.391 . S
C1579 C1578 1.386 . S
C1579 C1583 1.393 . S
C1580 H1569 0.950 . S
C1580 C1578 1.391 . S
C1580 C1581 1.400 . S
C1581 C1575 1.491 . S
C1581 C1580 1.400 . S
C1581 C1582 1.398 . S
C1582 H1570 0.950 . S
C1582 C1581 1.398 . S
C1582 C1583 1.391 . S
C1583 H1571 0.950 . S
C1583 C1579 1.393 . S
C1583 C1582 1.391 . S
H1584 C1592 0.950 . S
H1585 C1597 0.950 . S
H1586 C1594 0.950 . S
H1587 C1596 0.950 . S
H1588 C1598 0.950 . S
H1589 C1600 0.950 . S
H1590 C1602 0.950 . S
H1591 C1603 0.950 . S
C1592 H1584 0.950 . S
C1592 C1593 1.386 . S
C1592 C1594 1.391 . S
C1593 C1592 1.386 . S
C1593 C1597 1.393 . S
C1594 H1586 0.950 . S
C1594 C1592 1.391 . S
C1594 C1595 1.400 . S
C1595 C1594 1.400 . S
C1595 C1596 1.398 . S
C1595 C1601 1.491 . S
C1596 H1587 0.950 . S
C1596 C1595 1.398 . S
C1596 C1597 1.391 . S
C1597 H1585 0.950 . S
C1597 C1593 1.393 . S
C1597 C1596 1.391 . S
C1598 H1588 0.950 . S
C1598 C1599 1.386 . S
C1598 C1600 1.391 . S
C1599 C1598 1.386 . S
C1599 C1603 1.393 . S
C1600 H1589 0.950 . S
C1600 C1598 1.391 . S
C1600 C1601 1.400 . S
C1601 C1595 1.491 . S
C1601 C1600 1.400 . S
C1601 C1602 1.398 . S
C1602 H1590 0.950 . S
C1602 C1601 1.398 . S
C1602 C1603 1.391 . S
C1603 H1591 0.950 . S
C1603 C1599 1.393 . S
C1603 C1602 1.391 . S
H1604 C1612 0.950 . S
H1605 C1617 0.950 . S
H1606 C1614 0.950 . S
H1607 C1616 0.950 . S
H1608 C1618 0.950 . S
H1609 C1620 0.950 . S
H1610 C1622 0.950 . S
H1611 C1623 0.950 . S
C1612 H1604 0.950 . S
C1612 C1613 1.386 . S
C1612 C1614 1.391 . S
C1613 C1612 1.386 . S
C1613 C1617 1.393 . S
C1614 H1606 0.950 . S
C1614 C1612 1.391 . S
C1614 C1615 1.400 . S
C1615 C1614 1.400 . S
C1615 C1616 1.398 . S
C1615 C1621 1.491 . S
C1616 H1607 0.950 . S
C1616 C1615 1.398 . S
C1616 C1617 1.391 . S
C1617 H1605 0.950 . S
C1617 C1613 1.393 . S
C1617 C1616 1.391 . S
C1618 H1608 0.950 . S
C1618 C1619 1.386 . S
C1618 C1620 1.391 . S
C1619 C1618 1.386 . S
C1619 C1623 1.393 . S
C1620 H1609 0.950 . S
C1620 C1618 1.391 . S
C1620 C1621 1.400 . S
C1621 C1615 1.491 . S
C1621 C1620 1.400 . S
C1621 C1622 1.398 . S
C1622 H1610 0.950 . S
C1622 C1621 1.398 . S
C1622 C1623 1.391 . S
C1623 H1611 0.950 . S
C1623 C1619 1.393 . S
C1623 C1622 1.391 . S
H1624 C1632 0.950 . S
H1625 C1637 0.950 . S
H1626 C1634 0.950 . S
H1627 C1636 0.950 . S
H1628 C1638 0.950 . S
H1629 C1640 0.950 . S
H1630 C1642 0.950 . S
H1631 C1643 0.950 . S
C1632 H1624 0.950 . S
C1632 C1633 1.386 . S
C1632 C1634 1.391 . S
C1633 C1632 1.386 . S
C1633 C1637 1.393 . S
C1634 H1626 0.950 . S
C1634 C1632 1.391 . S
C1634 C1635 1.400 . S
C1635 C1634 1.400 . S
C1635 C1636 1.398 . S
C1635 C1641 1.491 . S
C1636 H1627 0.950 . S
C1636 C1635 1.398 . S
C1636 C1637 1.391 . S
C1637 H1625 0.950 . S
C1637 C1633 1.393 . S
C1637 C1636 1.391 . S
C1638 H1628 0.950 . S
C1638 C1639 1.386 . S
C1638 C1640 1.391 . S
C1639 C1638 1.386 . S
C1639 C1643 1.393 . S
C1640 H1629 0.950 . S
C1640 C1638 1.391 . S
C1640 C1641 1.400 . S
C1641 C1635 1.491 . S
C1641 C1640 1.400 . S
C1641 C1642 1.398 . S
C1642 H1630 0.950 . S
C1642 C1641 1.398 . S
C1642 C1643 1.391 . S
C1643 H1631 0.950 . S
C1643 C1639 1.393 . S
C1643 C1642 1.391 . S
H1644 C1652 0.950 . S
H1645 C1657 0.950 . S
H1646 C1654 0.950 . S
H1647 C1656 0.950 . S
H1648 C1658 0.950 . S
H1649 C1660 0.950 . S
H1650 C1662 0.950 . S
H1651 C1663 0.950 . S
C1652 H1644 0.950 . S
C1652 C1653 1.386 . S
C1652 C1654 1.391 . S
C1653 C1652 1.386 . S
C1653 C1657 1.393 . S
C1654 H1646 0.950 . S
C1654 C1652 1.391 . S
C1654 C1655 1.400 . S
C1655 C1654 1.400 . S
C1655 C1656 1.398 . S
C1655 C1661 1.491 . S
C1656 H1647 0.950 . S
C1656 C1655 1.398 . S
C1656 C1657 1.391 . S
C1657 H1645 0.950 . S
C1657 C1653 1.393 . S
C1657 C1656 1.391 . S
C1658 H1648 0.950 . S
C1658 C1659 1.386 . S
C1658 C1660 1.391 . S
C1659 C1658 1.386 . S
C1659 C1663 1.393 . S
C1660 H1649 0.950 . S
C1660 C1658 1.391 . S
C1660 C1661 1.400 . S
C1661 C1655 1.491 . S
C1661 C1660 1.400 . S
C1661 C1662 1.398 . S
C1662 H1650 0.950 . S
C1662 C1661 1.398 . S
C1662 C1663 1.391 . S
C1663 H1651 0.950 . S
C1663 C1659 1.393 . S
C1663 C1662 1.391 . S
H1664 C1672 0.950 . S
H1665 C1677 0.950 . S
H1666 C1674 0.950 . S
H1667 C1676 0.950 . S
H1668 C1678 0.950 . S
H1669 C1680 0.950 . S
H1670 C1682 0.950 . S
H1671 C1683 0.950 . S
C1672 H1664 0.950 . S
C1672 C1673 1.386 . S
C1672 C1674 1.391 . S
C1673 C1672 1.386 . S
C1673 C1677 1.393 . S
C1674 H1666 0.950 . S
C1674 C1672 1.391 . S
C1674 C1675 1.400 . S
C1675 C1674 1.400 . S
C1675 C1676 1.398 . S
C1675 C1681 1.491 . S
C1676 H1667 0.950 . S
C1676 C1675 1.398 . S
C1676 C1677 1.391 . S
C1677 H1665 0.950 . S
C1677 C1673 1.393 . S
C1677 C1676 1.391 . S
C1678 H1668 0.950 . S
C1678 C1679 1.386 . S
C1678 C1680 1.391 . S
C1679 C1678 1.386 . S
C1679 C1683 1.393 . S
C1680 H1669 0.950 . S
C1680 C1678 1.391 . S
C1680 C1681 1.400 . S
C1681 C1675 1.491 . S
C1681 C1680 1.400 . S
C1681 C1682 1.398 . S
C1682 H1670 0.950 . S
C1682 C1681 1.398 . S
C1682 C1683 1.391 . S
C1683 H1671 0.950 . S
C1683 C1679 1.393 . S
C1683 C1682 1.391 . S
H1684 C1692 0.950 . S
H1685 C1697 0.950 . S
H1686 C1694 0.950 . S
H1687 C1696 0.950 . S
H1688 C1698 0.950 . S
H1689 C1700 0.950 . S
H1690 C1702 0.950 . S
H1691 C1703 0.950 . S
C1692 H1684 0.950 . S
C1692 C1693 1.386 . S
C1692 C1694 1.391 . S
C1693 C1692 1.386 . S
C1693 C1697 1.393 . S
C1694 H1686 0.950 . S
C1694 C1692 1.391 . S
C1694 C1695 1.400 . S
C1695 C1694 1.400 . S
C1695 C1696 1.398 . S
C1695 C1701 1.491 . S
C1696 H1687 0.950 . S
C1696 C1695 1.398 . S
C1696 C1697 1.391 . S
C1697 H1685 0.950 . S
C1697 C1693 1.393 . S
C1697 C1696 1.391 . S
C1698 H1688 0.950 . S
C1698 C1699 1.386 . S
C1698 C1700 1.391 . S
C1699 C1698 1.386 . S
C1699 C1703 1.393 . S
C1700 H1689 0.950 . S
C1700 C1698 1.391 . S
C1700 C1701 1.400 . S
C1701 C1695 1.491 . S
C1701 C1700 1.400 . S
C1701 C1702 1.398 . S
C1702 H1690 0.950 . S
C1702 C1701 1.398 . S
C1702 C1703 1.391 . S
C1703 H1691 0.950 . S
C1703 C1699 1.393 . S
C1703 C1702 1.391 . S
H1704 C1712 0.950 . S
H1705 C1717 0.950 . S
H1706 C1714 0.950 . S
H1707 C1716 0.950 . S
H1708 C1718 0.950 . S
H1709 C1720 0.950 . S
H1710 C1722 0.950 . S
H1711 C1723 0.950 . S
C1712 H1704 0.950 . S
C1712 C1713 1.386 . S
C1712 C1714 1.391 . S
C1713 C1712 1.386 . S
C1713 C1717 1.393 . S
C1714 H1706 0.950 . S
C1714 C1712 1.391 . S
C1714 C1715 1.400 . S
C1715 C1714 1.400 . S
C1715 C1716 1.398 . S
C1715 C1721 1.491 . S
C1716 H1707 0.950 . S
C1716 C1715 1.398 . S
C1716 C1717 1.391 . S
C1717 H1705 0.950 . S
C1717 C1713 1.393 . S
C1717 C1716 1.391 . S
C1718 H1708 0.950 . S
C1718 C1719 1.386 . S
C1718 C1720 1.391 . S
C1719 C1718 1.386 . S
C1719 C1723 1.393 . S
C1720 H1709 0.950 . S
C1720 C1718 1.391 . S
C1720 C1721 1.400 . S
C1721 C1715 1.491 . S
C1721 C1720 1.400 . S
C1721 C1722 1.398 . S
C1722 H1710 0.950 . S
C1722 C1721 1.398 . S
C1722 C1723 1.391 . S
C1723 H1711 0.950 . S
C1723 C1719 1.393 . S
C1723 C1722 1.391 . S
H1724 C1732 0.950 . S
H1725 C1737 0.950 . S
H1726 C1734 0.950 . S
H1727 C1736 0.950 . S
H1728 C1738 0.950 . S
H1729 C1740 0.950 . S
H1730 C1742 0.950 . S
H1731 C1743 0.950 . S
C1732 H1724 0.950 . S
C1732 C1733 1.386 . S
C1732 C1734 1.391 . S
C1733 C1732 1.386 . S
C1733 C1737 1.393 . S
C1734 H1726 0.950 . S
C1734 C1732 1.391 . S
C1734 C1735 1.400 . S
C1735 C1734 1.400 . S
C1735 C1736 1.398 . S
C1735 C1741 1.491 . S
C1736 H1727 0.950 . S
C1736 C1735 1.398 . S
C1736 C1737 1.391 . S
C1737 H1725 0.950 . S
C1737 C1733 1.393 . S
C1737 C1736 1.391 . S
C1738 H1728 0.950 . S
C1738 C1739 1.386 . S
C1738 C1740 1.391 . S
C1739 C1738 1.386 . S
C1739 C1743 1.393 . S
C1740 H1729 0.950 . S
C1740 C1738 1.391 . S
C1740 C1741 1.400 . S
C1741 C1735 1.491 . S
C1741 C1740 1.400 . S
C1741 C1742 1.398 . S
C1742 H1730 0.950 . S
C1742 C1741 1.398 . S
C1742 C1743 1.391 . S
C1743 H1731 0.950 . S
C1743 C1739 1.393 . S
C1743 C1742 1.391 . S
H1744 C1752 0.950 . S
H1745 C1757 0.950 . S
H1746 C1754 0.950 . S
H1747 C1756 0.950 . S
H1748 C1758 0.950 . S
H1749 C1760 0.950 . S
H1750 C1762 0.950 . S
H1751 C1763 0.950 . S
C1752 H1744 0.950 . S
C1752 C1753 1.386 . S
C1752 C1754 1.391 . S
C1753 C1752 1.386 . S
C1753 C1757 1.393 . S
C1754 H1746 0.950 . S
C1754 C1752 1.391 . S
C1754 C1755 1.400 . S
C1755 C1754 1.400 . S
C1755 C1756 1.398 . S
C1755 C1761 1.491 . S
C1756 H1747 0.950 . S
C1756 C1755 1.398 . S
C1756 C1757 1.391 . S
C1757 H1745 0.950 . S
C1757 C1753 1.393 . S
C1757 C1756 1.391 . S
C1758 H1748 0.950 . S
C1758 C1759 1.386 . S
C1758 C1760 1.391 . S
C1759 C1758 1.386 . S
C1759 C1763 1.393 . S
C1760 H1749 0.950 . S
C1760 C1758 1.391 . S
C1760 C1761 1.400 . S
C1761 C1755 1.491 . S
C1761 C1760 1.400 . S
C1761 C1762 1.398 . S
C1762 H1750 0.950 . S
C1762 C1761 1.398 . S
C1762 C1763 1.391 . S
C1763 H1751 0.950 . S
C1763 C1759 1.393 . S
C1763 C1762 1.391 . S
H1764 C1772 0.950 . S
H1765 C1777 0.950 . S
H1766 C1774 0.950 . S
H1767 C1776 0.950 . S
H1768 C1778 0.950 . S
H1769 C1780 0.950 . S
H1770 C1782 0.950 . S
H1771 C1783 0.950 . S
C1772 H1764 0.950 . S
C1772 C1773 1.386 . S
C1772 C1774 1.391 . S
C1773 C1772 1.386 . S
C1773 C1777 1.393 . S
C1774 H1766 0.950 . S
C1774 C1772 1.391 . S
C1774 C1775 1.400 . S
C1775 C1774 1.400 . S
C1775 C1776 1.398 . S
C1775 C1781 1.491 . S
C1776 H1767 0.950 . S
C1776 C1775 1.398 . S
C1776 C1777 1.391 . S
C1777 H1765 0.950 . S
C1777 C1773 1.393 . S
C1777 C1776 1.391 . S
C1778 H1768 0.950 . S
C1778 C1779 1.386 . S
C1778 C1780 1.391 . S
C1779 C1778 1.386 . S
C1779 C1783 1.393 . S
C1780 H1769 0.950 . S
C1780 C1778 1.391 . S
C1780 C1781 1.400 . S
C1781 C1775 1.491 . S
C1781 C1780 1.400 . S
C1781 C1782 1.398 . S
C1782 H1770 0.950 . S
C1782 C1781 1.398 . S
C1782 C1783 1.391 . S
C1783 H1771 0.950 . S
C1783 C1779 1.393 . S
C1783 C1782 1.391 . S
H1784 C1792 0.950 . S
H1785 C1797 0.950 . S
H1786 C1794 0.950 . S
H1787 C1796 0.950 . S
H1788 C1798 0.950 . S
H1789 C1800 0.950 . S
H1790 C1802 0.950 . S
H1791 C1803 0.950 . S
C1792 H1784 0.950 . S
C1792 C1793 1.386 . S
C1792 C1794 1.391 . S
C1793 C1792 1.386 . S
C1793 C1797 1.393 . S
C1794 H1786 0.950 . S
C1794 C1792 1.391 . S
C1794 C1795 1.400 . S
C1795 C1794 1.400 . S
C1795 C1796 1.398 . S
C1795 C1801 1.491 . S
C1796 H1787 0.950 . S
C1796 C1795 1.398 . S
C1796 C1797 1.391 . S
C1797 H1785 0.950 . S
C1797 C1793 1.393 . S
C1797 C1796 1.391 . S
C1798 H1788 0.950 . S
C1798 C1799 1.386 . S
C1798 C1800 1.391 . S
C1799 C1798 1.386 . S
C1799 C1803 1.393 . S
C1800 H1789 0.950 . S
C1800 C1798 1.391 . S
C1800 C1801 1.400 . S
C1801 C1795 1.491 . S
C1801 C1800 1.400 . S
C1801 C1802 1.398 . S
C1802 H1790 0.950 . S
C1802 C1801 1.398 . S
C1802 C1803 1.391 . S
C1803 H1791 0.950 . S
C1803 C1799 1.393 . S
C1803 C1802 1.391 . S
H1804 C1812 0.950 . S
H1805 C1817 0.950 . S
H1806 C1814 0.950 . S
H1807 C1816 0.950 . S
H1808 C1818 0.950 . S
H1809 C1820 0.950 . S
H1810 C1822 0.950 . S
H1811 C1823 0.950 . S
C1812 H1804 0.950 . S
C1812 C1813 1.386 . S
C1812 C1814 1.391 . S
C1813 C1812 1.386 . S
C1813 C1817 1.393 . S
C1814 H1806 0.950 . S
C1814 C1812 1.391 . S
C1814 C1815 1.400 . S
C1815 C1814 1.400 . S
C1815 C1816 1.398 . S
C1815 C1821 1.491 . S
C1816 H1807 0.950 . S
C1816 C1815 1.398 . S
C1816 C1817 1.391 . S
C1817 H1805 0.950 . S
C1817 C1813 1.393 . S
C1817 C1816 1.391 . S
C1818 H1808 0.950 . S
C1818 C1819 1.386 . S
C1818 C1820 1.391 . S
C1819 C1818 1.386 . S
C1819 C1823 1.393 . S
C1820 H1809 0.950 . S
C1820 C1818 1.391 . S
C1820 C1821 1.400 . S
C1821 C1815 1.491 . S
C1821 C1820 1.400 . S
C1821 C1822 1.398 . S
C1822 H1810 0.950 . S
C1822 C1821 1.398 . S
C1822 C1823 1.391 . S
C1823 H1811 0.950 . S
C1823 C1819 1.393 . S
C1823 C1822 1.391 . S
H1824 C1832 0.950 . S
H1825 C1837 0.950 . S
H1826 C1834 0.950 . S
H1827 C1836 0.950 . S
H1828 C1838 0.950 . S
H1829 C1840 0.950 . S
H1830 C1842 0.950 . S
H1831 C1843 0.950 . S
C1832 H1824 0.950 . S
C1832 C1833 1.386 . S
C1832 C1834 1.391 . S
C1833 C1832 1.386 . S
C1833 C1837 1.393 . S
C1834 H1826 0.950 . S
C1834 C1832 1.391 . S
C1834 C1835 1.400 . S
C1835 C1834 1.400 . S
C1835 C1836 1.398 . S
C1835 C1841 1.491 . S
C1836 H1827 0.950 . S
C1836 C1835 1.398 . S
C1836 C1837 1.391 . S
C1837 H1825 0.950 . S
C1837 C1833 1.393 . S
C1837 C1836 1.391 . S
C1838 H1828 0.950 . S
C1838 C1839 1.386 . S
C1838 C1840 1.391 . S
C1839 C1838 1.386 . S
C1839 C1843 1.393 . S
C1840 H1829 0.950 . S
C1840 C1838 1.391 . S
C1840 C1841 1.400 . S
C1841 C1835 1.491 . S
C1841 C1840 1.400 . S
C1841 C1842 1.398 . S
C1842 H1830 0.950 . S
C1842 C1841 1.398 . S
C1842 C1843 1.391 . S
C1843 H1831 0.950 . S
C1843 C1839 1.393 . S
C1843 C1842 1.391 . S
H1844 C1852 0.950 . S
H1845 C1857 0.950 . S
H1846 C1854 0.950 . S
H1847 C1856 0.950 . S
H1848 C1858 0.950 . S
H1849 C1860 0.950 . S
H1850 C1862 0.950 . S
H1851 C1863 0.950 . S
C1852 H1844 0.950 . S
C1852 C1853 1.386 . S
C1852 C1854 1.391 . S
C1853 C1852 1.386 . S
C1853 C1857 1.393 . S
C1854 H1846 0.950 . S
C1854 C1852 1.391 . S
C1854 C1855 1.400 . S
C1855 C1854 1.400 . S
C1855 C1856 1.398 . S
C1855 C1861 1.491 . S
C1856 H1847 0.950 . S
C1856 C1855 1.398 . S
C1856 C1857 1.391 . S
C1857 H1845 0.950 . S
C1857 C1853 1.393 . S
C1857 C1856 1.391 . S
C1858 H1848 0.950 . S
C1858 C1859 1.386 . S
C1858 C1860 1.391 . S
C1859 C1858 1.386 . S
C1859 C1863 1.393 . S
C1860 H1849 0.950 . S
C1860 C1858 1.391 . S
C1860 C1861 1.400 . S
C1861 C1855 1.491 . S
C1861 C1860 1.400 . S
C1861 C1862 1.398 . S
C1862 H1850 0.950 . S
C1862 C1861 1.398 . S
C1862 C1863 1.391 . S
C1863 H1851 0.950 . S
C1863 C1859 1.393 . S
C1863 C1862 1.391 . S
H1864 C1872 0.950 . S
H1865 C1877 0.950 . S
H1866 C1874 0.950 . S
H1867 C1876 0.950 . S
H1868 C1878 0.950 . S
H1869 C1880 0.950 . S
H1870 C1882 0.950 . S
H1871 C1883 0.950 . S
C1872 H1864 0.950 . S
C1872 C1873 1.386 . S
C1872 C1874 1.391 . S
C1873 C1872 1.386 . S
C1873 C1877 1.393 . S
C1874 H1866 0.950 . S
C1874 C1872 1.391 . S
C1874 C1875 1.400 . S
C1875 C1874 1.400 . S
C1875 C1876 1.398 . S
C1875 C1881 1.491 . S
C1876 H1867 0.950 . S
C1876 C1875 1.398 . S
C1876 C1877 1.391 . S
C1877 H1865 0.950 . S
C1877 C1873 1.393 . S
C1877 C1876 1.391 . S
C1878 H1868 0.950 . S
C1878 C1879 1.386 . S
C1878 C1880 1.391 . S
C1879 C1878 1.386 . S
C1879 C1883 1.393 . S
C1880 H1869 0.950 . S
C1880 C1878 1.391 . S
C1880 C1881 1.400 . S
C1881 C1875 1.491 . S
C1881 C1880 1.400 . S
C1881 C1882 1.398 . S
C1882 H1870 0.950 . S
C1882 C1881 1.398 . S
C1882 C1883 1.391 . S
C1883 H1871 0.950 . S
C1883 C1879 1.393 . S
C1883 C1882 1.391 . S
H1884 C1892 0.950 . S
H1885 C1897 0.950 . S
H1886 C1894 0.950 . S
H1887 C1896 0.950 . S
H1888 C1898 0.950 . S
H1889 C1900 0.950 . S
H1890 C1902 0.950 . S
H1891 C1903 0.950 . S
C1892 H1884 0.950 . S
C1892 C1893 1.386 . S
C1892 C1894 1.391 . S
C1893 C1892 1.386 . S
C1893 C1897 1.393 . S
C1894 H1886 0.950 . S
C1894 C1892 1.391 . S
C1894 C1895 1.400 . S
C1895 C1894 1.400 . S
C1895 C1896 1.398 . S
C1895 C1901 1.491 . S
C1896 H1887 0.950 . S
C1896 C1895 1.398 . S
C1896 C1897 1.391 . S
C1897 H1885 0.950 . S
C1897 C1893 1.393 . S
C1897 C1896 1.391 . S
C1898 H1888 0.950 . S
C1898 C1899 1.386 . S
C1898 C1900 1.391 . S
C1899 C1898 1.386 . S
C1899 C1903 1.393 . S
C1900 H1889 0.950 . S
C1900 C1898 1.391 . S
C1900 C1901 1.400 . S
C1901 C1895 1.491 . S
C1901 C1900 1.400 . S
C1901 C1902 1.398 . S
C1902 H1890 0.950 . S
C1902 C1901 1.398 . S
C1902 C1903 1.391 . S
C1903 H1891 0.950 . S
C1903 C1899 1.393 . S
C1903 C1902 1.391 . S
H1904 C1912 0.950 . S
H1905 C1917 0.950 . S
H1906 C1914 0.950 . S
H1907 C1916 0.950 . S
H1908 C1918 0.950 . S
H1909 C1920 0.950 . S
H1910 C1922 0.950 . S
H1911 C1923 0.950 . S
C1912 H1904 0.950 . S
C1912 C1913 1.386 . S
C1912 C1914 1.391 . S
C1913 C1912 1.386 . S
C1913 C1917 1.393 . S
C1914 H1906 0.950 . S
C1914 C1912 1.391 . S
C1914 C1915 1.400 . S
C1915 C1914 1.400 . S
C1915 C1916 1.398 . S
C1915 C1921 1.491 . S
C1916 H1907 0.950 . S
C1916 C1915 1.398 . S
C1916 C1917 1.391 . S
C1917 H1905 0.950 . S
C1917 C1913 1.393 . S
C1917 C1916 1.391 . S
C1918 H1908 0.950 . S
C1918 C1919 1.386 . S
C1918 C1920 1.391 . S
C1919 C1918 1.386 . S
C1919 C1923 1.393 . S
C1920 H1909 0.950 . S
C1920 C1918 1.391 . S
C1920 C1921 1.400 . S
C1921 C1915 1.491 . S
C1921 C1920 1.400 . S
C1921 C1922 1.398 . S
C1922 H1910 0.950 . S
C1922 C1921 1.398 . S
C1922 C1923 1.391 . S
C1923 H1911 0.950 . S
C1923 C1919 1.393 . S
C1923 C1922 1.391 . S
H1924 C1932 0.950 . S
H1925 C1937 0.950 . S
H1926 C1934 0.950 . S
H1927 C1936 0.950 . S
H1928 C1938 0.950 . S
H1929 C1940 0.950 . S
H1930 C1942 0.950 . S
H1931 C1943 0.950 . S
C1932 H1924 0.950 . S
C1932 C1933 1.386 . S
C1932 C1934 1.391 . S
C1933 C1932 1.386 . S
C1933 C1937 1.393 . S
C1934 H1926 0.950 . S
C1934 C1932 1.391 . S
C1934 C1935 1.400 . S
C1935 C1934 1.400 . S
C1935 C1936 1.398 . S
C1935 C1941 1.491 . S
C1936 H1927 0.950 . S
C1936 C1935 1.398 . S
C1936 C1937 1.391 . S
C1937 H1925 0.950 . S
C1937 C1933 1.393 . S
C1937 C1936 1.391 . S
C1938 H1928 0.950 . S
C1938 C1939 1.386 . S
C1938 C1940 1.391 . S
C1939 C1938 1.386 . S
C1939 C1943 1.393 . S
C1940 H1929 0.950 . S
C1940 C1938 1.391 . S
C1940 C1941 1.400 . S
C1941 C1935 1.491 . S
C1941 C1940 1.400 . S
C1941 C1942 1.398 . S
C1942 H1930 0.950 . S
C1942 C1941 1.398 . S
C1942 C1943 1.391 . S
C1943 H1931 0.950 . S
C1943 C1939 1.393 . S
C1943 C1942 1.391 . S
C513 C35 1.285 . S
C519 C256 1.099 . S
C533 C7 1.285 . S
C539 C272 1.106 . S
C559 C255 1.139 . S
C553 C23 1.259 . S
C579 C280 1.096 . S
C573 C37 1.272 . S
C593 C9 1.294 . S
C599 C289 1.115 . S
C619 C292 1.092 . S
C613 C21 1.285 . S
C633 C77 1.285 . S
C639 C298 1.112 . S
C659 C314 1.092 . S
C653 C49 1.289 . S
C679 C297 1.120 . S
C673 C65 1.258 . S
C693 C79 1.262 . S
C699 C322 1.132 . S
C719 C331 1.163 . S
C713 C51 1.291 . S
C739 C334 1.122 . S
C733 C63 1.278 . S
C759 C343 1.105 . S
C753 C119 1.287 . S
C779 C355 1.128 . S
C773 C91 1.275 . S
C799 C352 1.141 . S
C793 C107 1.279 . S
C813 C121 1.250 . S
C819 C361 1.091 . S
C839 C360 1.137 . S
C833 C93 1.275 . S
C853 C105 1.285 . S
C859 C377 1.100 . S
C879 C382 1.092 . S
C873 C161 1.291 . S
C899 C398 1.090 . S
C893 C133 1.288 . S
C913 C149 1.269 . S
C919 C381 1.096 . S
C939 C406 1.085 . S
C933 C163 1.270 . S
C959 C415 1.165 . S
C953 C135 1.283 . S
C973 C147 1.281 . S
C979 C418 1.101 . S
C993 C203 1.281 . S
C999 C427 1.124 . S
C1019 C439 1.117 . S
C1013 C175 1.278 . S
C1039 C436 1.153 . S
C1033 C191 1.269 . S
C1053 C205 1.257 . S
C1059 C445 1.075 . S
C1079 C444 1.140 . S
C1073 C177 1.298 . S
C1093 C189 1.286 . S
C1099 C461 1.097 . S
C1119 C466 1.089 . S
C1113 C245 1.291 . S
C1139 C482 1.102 . S
C1133 C217 1.287 . S
C1153 C233 1.267 . S
C1159 C465 1.096 . S
C1179 C487 1.089 . S
C1173 C247 1.250 . S
C1199 C486 1.159 . S
C1193 C219 1.294 . S
C1219 C503 1.090 . S
C1213 C231 1.286 . S
C1239 C268 1.513 . S
C1233 C162 1.603 . S
C1253 C134 1.599 . S
C1259 C271 1.476 . S
C1279 C259 1.456 . S
C1273 C143 1.564 . S
C1293 C241 1.607 . S
C1299 C276 1.518 . S
C1313 C213 1.595 . S
C1319 C277 1.467 . S
C1339 C293 1.518 1_565 S
C1333 C232 1.615 . S
C1359 C310 1.497 1_565 S
C1353 C204 1.604 . S
C1379 C313 1.484 . S
C1373 C176 1.603 . S
C1393 C185 1.559 . S
C1399 C301 1.431 . S
C1419 C318 1.490 1_655 S
C1413 C115 1.602 . S
C1433 C87 1.601 . S
C1439 C319 1.500 . S
C1453 C106 1.615 . S
C1459 C335 1.522 . S
C1473 C246 1.603 . S
C1479 C339 1.490 . S
C1493 C218 1.597 . S
C1499 C356 1.478 . S
C1519 C340 1.457 . S
C1513 C227 1.564 . S
C1539 C373 1.519 . S
C1533 C73 1.607 . S
C1559 C364 1.502 . S
C1553 C45 1.602 . S
C1573 C64 1.608 . S
C1579 C376 1.519 . S
C1599 C394 1.505 . S
C1593 C36 1.604 . S
C1619 C397 1.487 . S
C1613 C8 1.596 . S
C1633 C17 1.560 . S
C1639 C385 1.436 . S
C1659 C402 1.510 . S
C1653 C199 1.606 . S
C1679 C403 1.489 . S
C1673 C171 1.600 1_655 S
C1699 C419 1.519 . S
C1693 C190 1.615 . S
C1719 C423 1.493 . S
C1713 C78 1.603 . S
C1739 C440 1.487 . S
C1733 C50 1.603 . S
C1753 C59 1.566 . S
C1759 C424 1.464 . S
C1773 C157 1.601 1_565 S
C1779 C457 1.487 . S
C1793 C129 1.595 . S
C1799 C448 1.468 . S
C1819 C460 1.496 . S
C1813 C148 1.609 . S
C1833 C120 1.604 . S
C1839 C478 1.498 . S
C1853 C92 1.602 . S
C1859 C481 1.481 . S
C1879 C469 1.438 . S
C1873 C101 1.561 1_565 S
C1899 C499 1.494 . S
C1893 C31 1.602 . S
C1919 C490 1.500 . S
C1913 C3 1.601 . S
C1933 C22 1.608 . S
C1939 C502 1.498 . S
