# Generated by pormake.
# Topology gar, (4,6)-cn, num edge types: 1
# Building blocks:
#     Node 0, Type 0, BuildingBlock: KUFVIS_clean_sbu_0, # of connection points: 4
#     Node 1, Type 0, BuildingBlock: KUFVIS_clean_sbu_0, # of connection points: 4
#     Node 2, Type 0, BuildingBlock: KUFVIS_clean_sbu_0, # of connection points: 4
#     Node 3, Type 0, BuildingBlock: KUFVIS_clean_sbu_0, # of connection points: 4
#     Node 4, Type 0, BuildingBlock: KUFVIS_clean_sbu_0, # of connection points: 4
#     Node 5, Type 0, BuildingBlock: KUFVIS_clean_sbu_0, # of connection points: 4
#     Node 6, Type 0, BuildingBlock: KUFVIS_clean_sbu_0, # of connection points: 4
#     Node 7, Type 0, BuildingBlock: KUFVIS_clean_sbu_0, # of connection points: 4
#     Node 8, Type 0, BuildingBlock: KUFVIS_clean_sbu_0, # of connection points: 4
#     Node 9, Type 0, BuildingBlock: KUFVIS_clean_sbu_0, # of connection points: 4
#     Node 10, Type 0, BuildingBlock: KUFVIS_clean_sbu_0, # of connection points: 4
#     Node 11, Type 0, BuildingBlock: KUFVIS_clean_sbu_0, # of connection points: 4
#     Node 12, Type 0, BuildingBlock: KUFVIS_clean_sbu_0, # of connection points: 4
#     Node 13, Type 0, BuildingBlock: KUFVIS_clean_sbu_0, # of connection points: 4
#     Node 14, Type 0, BuildingBlock: KUFVIS_clean_sbu_0, # of connection points: 4
#     Node 15, Type 0, BuildingBlock: KUFVIS_clean_sbu_0, # of connection points: 4
#     Node 16, Type 0, BuildingBlock: KUFVIS_clean_sbu_0, # of connection points: 4
#     Node 17, Type 0, BuildingBlock: KUFVIS_clean_sbu_0, # of connection points: 4
#     Node 18, Type 0, BuildingBlock: KUFVIS_clean_sbu_0, # of connection points: 4
#     Node 19, Type 0, BuildingBlock: KUFVIS_clean_sbu_0, # of connection points: 4
#     Node 20, Type 0, BuildingBlock: KUFVIS_clean_sbu_0, # of connection points: 4
#     Node 21, Type 0, BuildingBlock: KUFVIS_clean_sbu_0, # of connection points: 4
#     Node 22, Type 0, BuildingBlock: KUFVIS_clean_sbu_0, # of connection points: 4
#     Node 23, Type 0, BuildingBlock: KUFVIS_clean_sbu_0, # of connection points: 4
#     Node 24, Type 1, BuildingBlock: CUWYAW_clean_sbu_0, # of connection points: 6
#     Node 25, Type 1, BuildingBlock: CUWYAW_clean_sbu_0, # of connection points: 6
#     Node 26, Type 1, BuildingBlock: CUWYAW_clean_sbu_0, # of connection points: 6
#     Node 27, Type 1, BuildingBlock: CUWYAW_clean_sbu_0, # of connection points: 6
#     Node 28, Type 1, BuildingBlock: CUWYAW_clean_sbu_0, # of connection points: 6
#     Node 29, Type 1, BuildingBlock: CUWYAW_clean_sbu_0, # of connection points: 6
#     Node 30, Type 1, BuildingBlock: CUWYAW_clean_sbu_0, # of connection points: 6
#     Node 31, Type 1, BuildingBlock: CUWYAW_clean_sbu_0, # of connection points: 6
#     Node 32, Type 1, BuildingBlock: CUWYAW_clean_sbu_0, # of connection points: 6
#     Node 33, Type 1, BuildingBlock: CUWYAW_clean_sbu_0, # of connection points: 6
#     Node 34, Type 1, BuildingBlock: CUWYAW_clean_sbu_0, # of connection points: 6
#     Node 35, Type 1, BuildingBlock: CUWYAW_clean_sbu_0, # of connection points: 6
#     Node 36, Type 1, BuildingBlock: CUWYAW_clean_sbu_0, # of connection points: 6
#     Node 37, Type 1, BuildingBlock: CUWYAW_clean_sbu_0, # of connection points: 6
#     Node 38, Type 1, BuildingBlock: CUWYAW_clean_sbu_0, # of connection points: 6
#     Node 39, Type 1, BuildingBlock: CUWYAW_clean_sbu_0, # of connection points: 6
#     Edge 40, Type (0, 1), BuildingBlock: TEMPAE_clean_linker_10, # of connection points: 2
#     Edge 41, Type (0, 1), BuildingBlock: TEMPAE_clean_linker_10, # of connection points: 2
#     Edge 42, Type (0, 1), BuildingBlock: TEMPAE_clean_linker_10, # of connection points: 2
#     Edge 43, Type (0, 1), BuildingBlock: TEMPAE_clean_linker_10, # of connection points: 2
#     Edge 44, Type (0, 1), BuildingBlock: TEMPAE_clean_linker_10, # of connection points: 2
#     Edge 45, Type (0, 1), BuildingBlock: TEMPAE_clean_linker_10, # of connection points: 2
#     Edge 46, Type (0, 1), BuildingBlock: TEMPAE_clean_linker_10, # of connection points: 2
#     Edge 47, Type (0, 1), BuildingBlock: TEMPAE_clean_linker_10, # of connection points: 2
#     Edge 48, Type (0, 1), BuildingBlock: TEMPAE_clean_linker_10, # of connection points: 2
#     Edge 49, Type (0, 1), BuildingBlock: TEMPAE_clean_linker_10, # of connection points: 2
#     Edge 50, Type (0, 1), BuildingBlock: TEMPAE_clean_linker_10, # of connection points: 2
#     Edge 51, Type (0, 1), BuildingBlock: TEMPAE_clean_linker_10, # of connection points: 2
#     Edge 52, Type (0, 1), BuildingBlock: TEMPAE_clean_linker_10, # of connection points: 2
#     Edge 53, Type (0, 1), BuildingBlock: TEMPAE_clean_linker_10, # of connection points: 2
#     Edge 54, Type (0, 1), BuildingBlock: TEMPAE_clean_linker_10, # of connection points: 2
#     Edge 55, Type (0, 1), BuildingBlock: TEMPAE_clean_linker_10, # of connection points: 2
#     Edge 56, Type (0, 1), BuildingBlock: TEMPAE_clean_linker_10, # of connection points: 2
#     Edge 57, Type (0, 1), BuildingBlock: TEMPAE_clean_linker_10, # of connection points: 2
#     Edge 58, Type (0, 1), BuildingBlock: TEMPAE_clean_linker_10, # of connection points: 2
#     Edge 59, Type (0, 1), BuildingBlock: TEMPAE_clean_linker_10, # of connection points: 2
#     Edge 60, Type (0, 1), BuildingBlock: TEMPAE_clean_linker_10, # of connection points: 2
#     Edge 61, Type (0, 1), BuildingBlock: TEMPAE_clean_linker_10, # of connection points: 2
#     Edge 62, Type (0, 1), BuildingBlock: TEMPAE_clean_linker_10, # of connection points: 2
#     Edge 63, Type (0, 1), BuildingBlock: TEMPAE_clean_linker_10, # of connection points: 2
#     Edge 64, Type (0, 1), BuildingBlock: TEMPAE_clean_linker_10, # of connection points: 2
#     Edge 65, Type (0, 1), BuildingBlock: TEMPAE_clean_linker_10, # of connection points: 2
#     Edge 66, Type (0, 1), BuildingBlock: TEMPAE_clean_linker_10, # of connection points: 2
#     Edge 67, Type (0, 1), BuildingBlock: TEMPAE_clean_linker_10, # of connection points: 2
#     Edge 68, Type (0, 1), BuildingBlock: TEMPAE_clean_linker_10, # of connection points: 2
#     Edge 69, Type (0, 1), BuildingBlock: TEMPAE_clean_linker_10, # of connection points: 2
#     Edge 70, Type (0, 1), BuildingBlock: TEMPAE_clean_linker_10, # of connection points: 2
#     Edge 71, Type (0, 1), BuildingBlock: TEMPAE_clean_linker_10, # of connection points: 2
#     Edge 72, Type (0, 1), BuildingBlock: TEMPAE_clean_linker_10, # of connection points: 2
#     Edge 73, Type (0, 1), BuildingBlock: TEMPAE_clean_linker_10, # of connection points: 2
#     Edge 74, Type (0, 1), BuildingBlock: TEMPAE_clean_linker_10, # of connection points: 2
#     Edge 75, Type (0, 1), BuildingBlock: TEMPAE_clean_linker_10, # of connection points: 2
#     Edge 76, Type (0, 1), BuildingBlock: TEMPAE_clean_linker_10, # of connection points: 2
#     Edge 77, Type (0, 1), BuildingBlock: TEMPAE_clean_linker_10, # of connection points: 2
#     Edge 78, Type (0, 1), BuildingBlock: TEMPAE_clean_linker_10, # of connection points: 2
#     Edge 79, Type (0, 1), BuildingBlock: TEMPAE_clean_linker_10, # of connection points: 2
#     Edge 80, Type (0, 1), BuildingBlock: TEMPAE_clean_linker_10, # of connection points: 2
#     Edge 81, Type (0, 1), BuildingBlock: TEMPAE_clean_linker_10, # of connection points: 2
#     Edge 82, Type (0, 1), BuildingBlock: TEMPAE_clean_linker_10, # of connection points: 2
#     Edge 83, Type (0, 1), BuildingBlock: TEMPAE_clean_linker_10, # of connection points: 2
#     Edge 84, Type (0, 1), BuildingBlock: TEMPAE_clean_linker_10, # of connection points: 2
#     Edge 85, Type (0, 1), BuildingBlock: TEMPAE_clean_linker_10, # of connection points: 2
#     Edge 86, Type (0, 1), BuildingBlock: TEMPAE_clean_linker_10, # of connection points: 2
#     Edge 87, Type (0, 1), BuildingBlock: TEMPAE_clean_linker_10, # of connection points: 2
#     Edge 88, Type (0, 1), BuildingBlock: TEMPAE_clean_linker_10, # of connection points: 2
#     Edge 89, Type (0, 1), BuildingBlock: TEMPAE_clean_linker_10, # of connection points: 2
#     Edge 90, Type (0, 1), BuildingBlock: TEMPAE_clean_linker_10, # of connection points: 2
#     Edge 91, Type (0, 1), BuildingBlock: TEMPAE_clean_linker_10, # of connection points: 2
#     Edge 92, Type (0, 1), BuildingBlock: TEMPAE_clean_linker_10, # of connection points: 2
#     Edge 93, Type (0, 1), BuildingBlock: TEMPAE_clean_linker_10, # of connection points: 2
#     Edge 94, Type (0, 1), BuildingBlock: TEMPAE_clean_linker_10, # of connection points: 2
#     Edge 95, Type (0, 1), BuildingBlock: TEMPAE_clean_linker_10, # of connection points: 2
#     Edge 96, Type (0, 1), BuildingBlock: TEMPAE_clean_linker_10, # of connection points: 2
#     Edge 97, Type (0, 1), BuildingBlock: TEMPAE_clean_linker_10, # of connection points: 2
#     Edge 98, Type (0, 1), BuildingBlock: TEMPAE_clean_linker_10, # of connection points: 2
#     Edge 99, Type (0, 1), BuildingBlock: TEMPAE_clean_linker_10, # of connection points: 2
#     Edge 100, Type (0, 1), BuildingBlock: TEMPAE_clean_linker_10, # of connection points: 2
#     Edge 101, Type (0, 1), BuildingBlock: TEMPAE_clean_linker_10, # of connection points: 2
#     Edge 102, Type (0, 1), BuildingBlock: TEMPAE_clean_linker_10, # of connection points: 2
#     Edge 103, Type (0, 1), BuildingBlock: TEMPAE_clean_linker_10, # of connection points: 2
#     Edge 104, Type (0, 1), BuildingBlock: TEMPAE_clean_linker_10, # of connection points: 2
#     Edge 105, Type (0, 1), BuildingBlock: TEMPAE_clean_linker_10, # of connection points: 2
#     Edge 106, Type (0, 1), BuildingBlock: TEMPAE_clean_linker_10, # of connection points: 2
#     Edge 107, Type (0, 1), BuildingBlock: TEMPAE_clean_linker_10, # of connection points: 2
#     Edge 108, Type (0, 1), BuildingBlock: TEMPAE_clean_linker_10, # of connection points: 2
#     Edge 109, Type (0, 1), BuildingBlock: TEMPAE_clean_linker_10, # of connection points: 2
#     Edge 110, Type (0, 1), BuildingBlock: TEMPAE_clean_linker_10, # of connection points: 2
#     Edge 111, Type (0, 1), BuildingBlock: TEMPAE_clean_linker_10, # of connection points: 2
#     Edge 112, Type (0, 1), BuildingBlock: TEMPAE_clean_linker_10, # of connection points: 2
#     Edge 113, Type (0, 1), BuildingBlock: TEMPAE_clean_linker_10, # of connection points: 2
#     Edge 114, Type (0, 1), BuildingBlock: TEMPAE_clean_linker_10, # of connection points: 2
#     Edge 115, Type (0, 1), BuildingBlock: TEMPAE_clean_linker_10, # of connection points: 2
#     Edge 116, Type (0, 1), BuildingBlock: TEMPAE_clean_linker_10, # of connection points: 2
#     Edge 117, Type (0, 1), BuildingBlock: TEMPAE_clean_linker_10, # of connection points: 2
#     Edge 118, Type (0, 1), BuildingBlock: TEMPAE_clean_linker_10, # of connection points: 2
#     Edge 119, Type (0, 1), BuildingBlock: TEMPAE_clean_linker_10, # of connection points: 2
#     Edge 120, Type (0, 1), BuildingBlock: TEMPAE_clean_linker_10, # of connection points: 2
#     Edge 121, Type (0, 1), BuildingBlock: TEMPAE_clean_linker_10, # of connection points: 2
#     Edge 122, Type (0, 1), BuildingBlock: TEMPAE_clean_linker_10, # of connection points: 2
#     Edge 123, Type (0, 1), BuildingBlock: TEMPAE_clean_linker_10, # of connection points: 2
#     Edge 124, Type (0, 1), BuildingBlock: TEMPAE_clean_linker_10, # of connection points: 2
#     Edge 125, Type (0, 1), BuildingBlock: TEMPAE_clean_linker_10, # of connection points: 2
#     Edge 126, Type (0, 1), BuildingBlock: TEMPAE_clean_linker_10, # of connection points: 2
#     Edge 127, Type (0, 1), BuildingBlock: TEMPAE_clean_linker_10, # of connection points: 2
#     Edge 128, Type (0, 1), BuildingBlock: TEMPAE_clean_linker_10, # of connection points: 2
#     Edge 129, Type (0, 1), BuildingBlock: TEMPAE_clean_linker_10, # of connection points: 2
#     Edge 130, Type (0, 1), BuildingBlock: TEMPAE_clean_linker_10, # of connection points: 2
#     Edge 131, Type (0, 1), BuildingBlock: TEMPAE_clean_linker_10, # of connection points: 2
#     Edge 132, Type (0, 1), BuildingBlock: TEMPAE_clean_linker_10, # of connection points: 2
#     Edge 133, Type (0, 1), BuildingBlock: TEMPAE_clean_linker_10, # of connection points: 2
#     Edge 134, Type (0, 1), BuildingBlock: TEMPAE_clean_linker_10, # of connection points: 2
#     Edge 135, Type (0, 1), BuildingBlock: TEMPAE_clean_linker_10, # of connection points: 2
# Relax obj value: 0.197
# Max RMSD: 0.294
# Mean RMSD: 0.143
data_MOF--net-gar--node1-KUFVIS_clean_sbu_0--node2-CUWYAW_clean_sbu_0--edge1-TEMPAE_clean_linker_10
_symmetry_space_group_name_H-M    P1
_symmetry_Int_Tables_number       1
_symmetry_cell_setting            triclinic
loop_
_symmetry_equiv_pos_as_xyz
'x, y, z'
_cell_length_a     64.862392
_cell_length_b     54.873967
_cell_length_c     56.214996
_cell_angle_alpha  97.015582
_cell_angle_beta   95.943145
_cell_angle_gamma 98.809874
loop_
_atom_site_label
_atom_site_type_symbol
_atom_site_fract_x
_atom_site_fract_y
_atom_site_fract_z
_atom_type_partial_charge
Mn0 Mn 0.07834 0.34167 0.45378 0.0
Mn1 Mn 0.07341 0.38904 0.42204 0.0
C2 C 0.04641 0.35325 0.44479 0.0
C3 C 0.07499 0.30147 0.46031 0.0
C4 C 0.08994 0.39534 0.47469 0.0
O5 O 0.10301 0.34192 0.43666 0.0
O6 O 0.10035 0.37621 0.41829 0.0
C7 C 0.07342 0.36898 0.37073 0.0
N8 N 0.06269 0.37675 0.38897 0.0
C9 C 0.03165 0.3749 0.36084 0.0
C10 C 0.04169 0.36401 0.34242 0.0
C11 C 0.06283 0.36141 0.34731 0.0
C12 C 0.04274 0.38088 0.38412 0.0
H13 H 0.09015 0.36973 0.37379 0.0
C14 C 0.10928 0.35768 0.42317 0.0
O15 O 0.08738 0.31875 0.4752 0.0
O16 O 0.06668 0.3071 0.44015 0.0
N17 N 0.04718 0.40088 0.42365 0.0
C18 C 0.04121 0.41572 0.44203 0.0
C19 C 0.02139 0.4231 0.43928 0.0
C20 C 1.00806 0.41552 0.4175 0.0
C21 C 1.01481 0.40099 0.39852 0.0
C22 C 0.03459 0.39385 0.40244 0.0
H23 H 0.0516 0.42208 0.45854 0.0
O24 O 0.05066 0.34384 0.46445 0.0
O25 O 0.06165 0.35749 0.43187 0.0
O26 O 0.09311 0.37327 0.47437 0.0
O27 O 0.08285 0.40368 0.45593 0.0
C28 C 1.00306 0.39428 0.37554 0.0
C29 C 1.01156 0.38144 0.35665 0.0
H30 H 0.03372 0.3589 0.32417 0.0
H31 H 0.07118 0.35455 0.33288 0.0
H32 H 1.01645 0.43484 0.45375 0.0
H33 H 0.9929 0.42149 0.41535 0.0
H34 H 0.98773 0.39954 0.372 0.0
H35 H 1.00269 0.37714 0.33882 0.0
Mn36 Mn 1.01278 0.73505 0.66201 0.0
Mn37 Mn 0.03676 0.78684 0.69897 0.0
C38 C 0.04863 0.74318 0.67011 0.0
C39 C 1.0003 0.69353 0.65717 0.0
C40 C 1.01842 0.78537 0.64708 0.0
O41 O 0.98918 0.74623 0.67724 0.0
O42 O 1.00798 0.7768 0.70483 0.0
C43 C 0.03673 0.7693 0.74667 0.0
N44 N 0.04731 0.78042 0.7301 0.0
C45 C 0.07831 0.79382 0.75884 0.0
C46 C 0.06773 0.78265 0.77631 0.0
C47 C 0.04693 0.77007 0.7701 0.0
C48 C 0.0675 0.79191 0.73565 0.0
H49 H 0.02058 0.76018 0.7421 0.0
C50 C 0.99106 0.76213 0.69594 0.0
O51 O 0.99419 0.70711 0.64119 0.0
O52 O 1.0093 0.7052 0.67795 0.0
N53 N 0.06543 0.79851 0.69539 0.0
C54 C 0.07355 0.80742 0.67615 0.0
C55 C 0.09435 0.82018 0.67914 0.0
C56 C 0.10639 0.82405 0.70196 0.0
C57 C 0.09783 0.81425 0.72138 0.0
C58 C 0.07709 0.80157 0.71727 0.0
H59 H 0.06407 0.8053 0.65882 0.0
O60 O 0.03959 0.72782 0.65132 0.0
O61 O 0.03654 0.75291 0.68412 0.0
O62 O 1.01314 0.76207 0.64091 0.0
O63 O 0.02671 0.79577 0.66808 0.0
C64 C 0.10893 0.81688 0.74473 0.0
C65 C 0.09919 0.80663 0.76344 0.0
H66 H 0.07546 0.78348 0.79449 0.0
H67 H 0.03868 0.76134 0.78344 0.0
H68 H 0.10095 0.82747 0.66402 0.0
H69 H 0.12231 0.83424 0.70427 0.0
H70 H 0.12499 0.82665 0.74848 0.0
H71 H 0.10793 0.80857 0.78124 0.0
Mn72 Mn 0.57549 0.84036 0.95333 0.0
Mn73 Mn 0.57333 0.88649 0.92084 0.0
C74 C 0.54531 0.85582 0.94681 0.0
C75 C 0.56883 0.80043 0.96033 0.0
C76 C 0.59119 0.89368 0.97243 0.0
O77 O 0.59829 0.83593 0.93376 0.0
O78 O 0.59983 0.87263 0.91916 0.0
C79 C 0.57066 0.85557 0.87296 0.0
N80 N 0.56268 0.87195 0.88822 0.0
C81 C 0.53282 0.87115 0.85864 0.0
C82 C 0.54091 0.85455 0.84259 0.0
C83 C 0.55986 0.84664 0.84984 0.0
C84 C 0.54427 0.87942 0.88149 0.0
H85 H 0.58507 0.84914 0.87833 0.0
C86 C 0.60701 0.8526 0.92257 0.0
O87 O 0.58309 0.8165 0.97446 0.0
O88 O 0.56014 0.80705 0.94086 0.0
N89 N 0.548 0.90046 0.92063 0.0
C90 C 0.54127 0.91471 0.93889 0.0
C91 C 0.52222 0.92357 0.93468 0.0
C92 C 0.51032 0.91775 0.91185 0.0
C93 C 0.51741 0.90281 0.89344 0.0
C94 C 0.53658 0.89461 0.89859 0.0
H95 H 0.55036 0.91923 0.95651 0.0
O96 O 0.54998 0.84788 0.96717 0.0
O97 O 0.55969 0.8572 0.9324 0.0
O98 O 0.59397 0.87134 0.97159 0.0
O99 O 0.58296 0.9022 0.95429 0.0
C100 C 0.50599 0.89536 0.87032 0.0
C101 C 0.51361 0.87939 0.85299 0.0
H102 H 0.53256 0.84751 0.82479 0.0
H103 H 0.5661 0.83361 0.83765 0.0
H104 H 0.51666 0.93493 0.9489 0.0
H105 H 0.49558 0.92454 0.90876 0.0
H106 H 0.49115 0.90147 0.86581 0.0
H107 H 0.50445 0.87335 0.83545 0.0
Mn108 Mn 0.51657 0.23911 0.15413 0.0
Mn109 Mn 0.47455 0.22106 0.1136 0.0
C110 C 0.50537 0.19892 0.14389 0.0
C111 C 0.55114 0.24663 0.16802 0.0
C112 C 0.47296 0.24159 0.16407 0.0
O113 O 0.51879 0.26669 0.13558 0.0
O114 O 0.48645 0.25738 0.11369 0.0
C115 C 0.49495 0.22583 0.06913 0.0
N116 N 0.48378 0.21147 0.08303 0.0
C117 C 0.48318 0.17463 0.05472 0.0
C118 C 0.49463 0.18914 0.0401 0.0
C119 C 0.50053 0.21487 0.04735 0.0
C120 C 0.47793 0.18667 0.07615 0.0
H121 H 0.49967 0.2454 0.07468 0.0
C122 C 0.50399 0.27198 0.1217 0.0
O123 O 0.53791 0.25681 0.18006 0.0
O124 O 0.54455 0.23296 0.14742 0.0
N125 N 0.46313 0.18654 0.11209 0.0
C126 C 0.45277 0.175 0.12862 0.0
C127 C 0.44606 0.14913 0.12425 0.0
C128 C 0.45012 0.13536 0.10301 0.0
C129 C 0.46087 0.14762 0.08632 0.0
C130 C 0.46708 0.17347 0.09158 0.0
H131 H 0.44976 0.18541 0.14511 0.0
O132 O 0.51038 0.20737 0.16674 0.0
O133 O 0.50082 0.21503 0.12978 0.0
O134 O 0.49221 0.25039 0.1673 0.0
O135 O 0.46366 0.22899 0.14442 0.0
C136 C 0.46583 0.13515 0.06477 0.0
C137 C 0.47698 0.14865 0.04898 0.0
H138 H 0.49907 0.1807 0.02336 0.0
H139 H 0.50946 0.22623 0.03626 0.0
H140 H 0.43785 0.1398 0.13728 0.0
H141 H 0.445 0.11538 0.09976 0.0
H142 H 0.46124 0.11516 0.06023 0.0
H143 H 0.48082 0.13884 0.03253 0.0
Mn144 Mn 0.08285 0.80229 0.17709 0.0
Mn145 Mn 0.04386 0.78874 0.1299 0.0
C146 C 0.06982 0.76094 0.16026 0.0
C147 C 0.11907 0.8099 0.19311 0.0
C148 C 0.0365 0.8043 0.1814 0.0
O149 O 0.0828 0.83622 0.16407 0.0
O150 O 0.05958 0.82222 0.13064 0.0
C151 C 0.06976 0.78785 0.08959 0.0
N152 N 0.05415 0.77662 0.10096 0.0
C153 C 0.04383 0.74363 0.06766 0.0
C154 C 0.05968 0.75491 0.05544 0.0
C155 C 0.07289 0.77694 0.06661 0.0
C156 C 0.04208 0.75478 0.09094 0.0
H157 H 0.07964 0.80501 0.098 0.0
C158 C 0.07286 0.8393 0.14392 0.0
O159 O 0.10463 0.81639 0.20573 0.0
O160 O 0.11273 0.80103 0.17064 0.0
N161 N 0.02662 0.75667 0.12654 0.0
C162 C 1.01135 0.74883 0.1402 0.0
C163 C 0.997 0.72684 0.13179 0.0
C164 C 0.99787 0.71369 0.10897 0.0
C165 C 1.01312 0.72264 0.09479 0.0
C166 C 0.02735 0.74432 0.10437 0.0
H167 H 1.01001 0.75929 0.15734 0.0
O168 O 0.07987 0.76636 0.18188 0.0
O169 O 0.06788 0.7798 0.14899 0.0
O170 O 0.05519 0.80495 0.19151 0.0
O171 O 0.03136 0.80038 0.1586 0.0
C172 C 1.01422 0.71143 0.07114 0.0
C173 C 0.02948 0.72202 0.05752 0.0
H174 H 0.06185 0.74683 0.0375 0.0
H175 H 0.08521 0.78573 0.05735 0.0
H176 H 0.98502 0.72033 0.14266 0.0
H177 H 0.98654 0.69697 0.10237 0.0
H178 H 1.00338 0.6947 0.06321 0.0
H179 H 0.03026 0.71314 0.03941 0.0
Mn180 Mn 0.50665 0.76602 0.44192 0.0
Mn181 Mn 0.50893 0.80492 0.40055 0.0
C182 C 0.47496 0.76938 0.41879 0.0
C183 C 0.5128 0.7296 0.45743 0.0
C184 C 0.51526 0.82107 0.45431 0.0
O185 O 0.53814 0.77447 0.43724 0.0
O186 O 0.53535 0.79108 0.4025 0.0
C187 C 0.51001 0.77375 0.35424 0.0
N188 N 0.50076 0.79013 0.36793 0.0
C189 C 0.47879 0.7973 0.33324 0.0
C190 C 0.48797 0.78039 0.3187 0.0
C191 C 0.50354 0.76843 0.32928 0.0
C192 C 0.48564 0.80154 0.35801 0.0
H193 H 0.52241 0.76515 0.3623 0.0
C194 C 0.54597 0.78263 0.41912 0.0
O195 O 0.51414 0.75075 0.47078 0.0
O196 O 0.5073 0.72905 0.43434 0.0
N197 N 0.48439 0.81998 0.39719 0.0
C198 C 0.47619 0.83432 0.41411 0.0
C199 C 0.45995 0.84697 0.40678 0.0
C200 C 0.4526 0.84508 0.38213 0.0
C201 C 0.46098 0.82975 0.36511 0.0
C202 C 0.47693 0.81734 0.37355 0.0
H203 H 0.48211 0.83638 0.43299 0.0
O204 O 0.47504 0.76001 0.43897 0.0
O205 O 0.49359 0.77516 0.41195 0.0
O206 O 0.5072 0.80044 0.4599 0.0
O207 O 0.51845 0.82403 0.43289 0.0
C208 C 0.45424 0.82636 0.34011 0.0
C209 C 0.46311 0.81011 0.32419 0.0
H210 H 0.48318 0.77643 0.2994 0.0
H211 H 0.51078 0.75547 0.31816 0.0
H212 H 0.45339 0.85852 0.42005 0.0
H213 H 0.44045 0.85542 0.3765 0.0
H214 H 0.44212 0.83597 0.33294 0.0
H215 H 0.45759 0.8074 0.30506 0.0
Mn216 Mn 0.58395 0.30289 0.67597 0.0
Mn217 Mn 0.54392 0.28897 0.62939 0.0
C218 C 0.57397 0.26218 0.65688 0.0
C219 C 0.61997 0.31132 0.69306 0.0
C220 C 0.53698 0.29909 0.68167 0.0
O221 O 0.58276 0.33692 0.66462 0.0
O222 O 0.55651 0.32445 0.63358 0.0
C223 C 0.56447 0.2985 0.58601 0.0
N224 N 0.55173 0.28324 0.5977 0.0
C225 C 0.5378 0.2562 0.56063 0.0
C226 C 0.55095 0.27148 0.54819 0.0
C227 C 0.56447 0.29258 0.56097 0.0
C228 C 0.53878 0.26276 0.58558 0.0
H229 H 0.57423 0.31522 0.59571 0.0
C230 C 0.57038 0.34105 0.64676 0.0
O231 O 0.60494 0.31625 0.70543 0.0
O232 O 0.6144 0.30384 0.67017 0.0
N233 N 0.52983 0.25525 0.62328 0.0
C234 C 0.52005 0.2412 0.63852 0.0
C235 C 0.50693 0.21857 0.629 0.0
C236 C 0.50375 0.21091 0.60391 0.0
C237 C 0.51411 0.2257 0.58864 0.0
C238 C 0.52723 0.24783 0.59923 0.0
H239 H 0.52209 0.24738 0.65774 0.0
O240 O 0.58242 0.26742 0.67922 0.0
O241 O 0.57032 0.28105 0.64591 0.0
O242 O 0.55609 0.30356 0.69142 0.0
O243 O 0.53197 0.29407 0.65914 0.0
C244 C 0.51216 0.21926 0.56336 0.0
C245 C 0.52402 0.23448 0.54936 0.0
H246 H 0.55089 0.26712 0.52886 0.0
H247 H 0.57458 0.30449 0.55145 0.0
H248 H 0.49903 0.20726 0.64092 0.0
H249 H 0.49347 0.19355 0.59661 0.0
H250 H 0.50194 0.20238 0.55457 0.0
H251 H 0.52275 0.22903 0.53002 0.0
Mn252 Mn 1.00725 0.26807 0.94178 0.0
Mn253 Mn 1.00814 0.3059 0.89967 0.0
C254 C 0.97508 0.27142 0.91914 0.0
C255 C 1.01282 0.23141 0.95714 0.0
C256 C 1.01595 0.32314 0.95331 0.0
O257 O 0.03882 0.27675 0.93621 0.0
O258 O 0.03369 0.29097 0.90057 0.0
C259 C 1.0067 0.27274 0.85386 0.0
N260 N 0.99857 0.29023 0.86757 0.0
C261 C 0.97625 0.29759 0.83331 0.0
C262 C 0.98421 0.2795 0.81875 0.0
C263 C 0.99937 0.26684 0.82912 0.0
C264 C 0.98364 0.30203 0.85794 0.0
H265 H 1.01889 0.26369 0.86171 0.0
C266 C 0.04567 0.28459 0.91735 0.0
O267 O 1.01484 0.2526 0.97064 0.0
O268 O 1.00766 0.23113 0.93404 0.0
N269 N 0.98405 0.32183 0.89704 0.0
C270 C 0.97729 0.33778 0.9139 0.0
C271 C 0.96211 0.35191 0.90663 0.0
C272 C 0.95449 0.34998 0.88205 0.0
C273 C 0.96138 0.33304 0.86511 0.0
C274 C 0.9761 0.319 0.87353 0.0
H275 H 0.98365 0.34012 0.93265 0.0
O276 O 0.97535 0.26219 0.93938 0.0
O277 O 0.99352 0.27694 0.91214 0.0
O278 O 1.00808 0.30268 0.95944 0.0
O279 O 1.01891 0.32554 0.93166 0.0
C280 C 0.95458 0.32988 0.84014 0.0
C281 C 0.96167 0.31182 0.82432 0.0
H282 H 0.97893 0.27531 0.79956 0.0
H283 H 1.00571 0.253 0.81798 0.0
H284 H 0.95671 0.36472 0.91986 0.0
H285 H 0.94321 0.36143 0.87642 0.0
H286 H 0.94377 0.34113 0.83292 0.0
H287 H 0.95597 0.30923 0.80523 0.0
Mn288 Mn 0.4294 0.05493 0.29117 0.0
Mn289 Mn 0.39199 0.04795 0.32942 0.0
C290 C 0.4108 1.01346 0.29524 0.0
C291 C 0.44396 0.05854 0.25184 0.0
C292 C 0.43919 0.06014 0.34846 0.0
O293 O 0.41849 0.09079 0.29491 0.0
O294 O 0.39295 0.08128 0.31817 0.0
C295 C 0.35341 0.04722 0.29582 0.0
N296 N 0.36418 0.03729 0.31324 0.0
C297 C 0.33342 1.00851 0.31774 0.0
C298 C 0.32175 1.01896 0.3004 0.0
C299 C 0.33187 0.03814 0.28911 0.0
C300 C 0.35483 1.01811 0.32339 0.0
H301 H 0.36125 0.06184 0.2871 0.0
C302 C 0.40238 0.09632 0.30547 0.0
O303 O 0.45478 0.0654 0.27286 0.0
O304 O 0.42415 0.05106 0.25327 0.0
N305 N 0.38838 1.01687 0.34159 0.0
C306 C 0.40263 1.00634 0.35464 0.0
C307 C 0.39553 0.98614 0.36642 0.0
C308 C 0.37389 0.97701 0.36454 0.0
C309 C 0.35967 0.98717 0.34971 0.0
C310 C 0.36769 1.00739 0.33861 0.0
H311 H 0.41923 1.0134 0.35619 0.0
O312 O 0.42938 1.01702 0.28833 0.0
O313 O 0.40373 0.03424 0.30029 0.0
O314 O 0.44556 0.05984 0.32742 0.0
O315 O 0.41959 0.05813 0.35039 0.0
C316 C 0.3379 0.97806 0.34539 0.0
C317 C 0.3248 0.98857 0.32925 0.0
H318 H 0.30513 1.01206 0.29525 0.0
H319 H 0.32307 0.04598 0.27539 0.0
H320 H 0.40667 0.97786 0.37719 0.0
H321 H 0.36845 0.9618 0.37414 0.0
H322 H 0.33111 0.96264 0.35397 0.0
H323 H 0.30821 0.98088 0.32547 0.0
Mn324 Mn 0.26378 0.18082 0.5417 0.0
Mn325 Mn 0.25777 0.13211 0.4979 0.0
C326 C 0.22988 0.15829 0.52906 0.0
C327 C 0.2706 0.19833 0.58213 0.0
C328 C 0.26783 0.18588 0.48882 0.0
O329 O 0.29343 0.17197 0.54201 0.0
O330 O 0.28693 0.13672 0.51517 0.0
C331 C 0.26138 0.08979 0.52501 0.0
N332 N 0.25003 0.10104 0.50917 0.0
C333 C 0.22235 0.0655 0.50096 0.0
C334 C 0.23373 0.05347 0.51717 0.0
C335 C 0.2533 0.06571 0.5293 0.0
C336 C 0.23123 0.08943 0.49734 0.0
H337 H 0.27651 0.09907 0.53419 0.0
C338 C 0.29916 0.15285 0.53094 0.0
O339 O 0.27454 0.21154 0.56501 0.0
O340 O 0.26317 0.17482 0.57583 0.0
N341 N 0.23023 0.12589 0.48041 0.0
C342 C 0.22052 0.14104 0.46717 0.0
C343 C 0.20017 0.13234 0.45516 0.0
C344 C 0.19013 0.10811 0.45674 0.0
C345 C 0.20047 0.09292 0.47054 0.0
C346 C 0.22062 0.10272 0.48232 0.0
H347 H 0.22819 0.15965 0.46589 0.0
O348 O 0.23287 0.18142 0.53895 0.0
O349 O 0.24714 0.14924 0.52607 0.0
O350 O 0.26608 0.19581 0.51002 0.0
O351 O 0.26579 0.16242 0.48294 0.0
C352 C 0.19146 0.06857 0.47337 0.0
C353 C 0.20238 0.05487 0.48856 0.0
H354 H 0.22751 0.03494 0.5206 0.0
H355 H 0.26217 0.05657 0.54184 0.0
H356 H 0.19226 0.14425 0.44469 0.0
H357 H 0.17442 0.10146 0.44746 0.0
H358 H 0.17602 0.06029 0.46416 0.0
H359 H 0.19512 0.03633 0.49092 0.0
Mn360 Mn 0.16474 0.02569 0.81185 0.0
Mn361 Mn 0.20334 0.03601 0.85886 0.0
C362 C 0.18443 0.06762 0.82461 0.0
C363 C 0.14892 1.01961 0.76928 0.0
C364 C 0.15659 0.0249 0.86693 0.0
O365 O 0.17567 0.99015 0.81148 0.0
O366 O 0.20103 1.00001 0.84346 0.0
C367 C 0.24102 0.03025 0.83449 0.0
N368 N 0.23057 0.04435 0.84912 0.0
C369 C 0.26038 0.07745 0.85771 0.0
C370 C 0.2715 0.06323 0.84283 0.0
C371 C 0.26173 0.03959 0.83107 0.0
C372 C 0.23978 0.0672 0.8604 0.0
H373 H 0.23364 1.012 0.82553 0.0
C374 C 0.19108 0.98432 0.82543 0.0
O375 O 0.13869 1.01305 0.78666 0.0
O376 O 0.16881 0.02769 0.77605 0.0
N377 N 0.20764 0.06962 0.87462 0.0
C378 C 0.19388 0.08211 0.88578 0.0
C379 C 0.20062 0.1068 0.89686 0.0
C380 C 0.22147 0.11826 0.89656 0.0
C381 C 0.23527 0.10507 0.88479 0.0
C382 C 0.22756 0.08066 0.87374 0.0
H383 H 0.17783 0.07343 0.88608 0.0
O384 O 0.16494 0.06352 0.8149 0.0
O385 O 0.1912 0.04698 0.82857 0.0
O386 O 0.14969 0.02314 0.84429 0.0
O387 O 0.17641 0.02841 0.87344 0.0
C388 C 0.25628 0.11528 0.88328 0.0
C389 C 0.2688 0.10157 0.86963 0.0
H390 H 0.28745 0.07041 0.84009 0.0
H391 H 0.27017 0.02856 0.81947 0.0
H392 H 0.18979 0.11693 0.90565 0.0
H393 H 0.22664 0.13731 0.90514 0.0
H394 H 0.26294 0.13374 0.89246 0.0
H395 H 0.28477 0.1099 0.86811 0.0
Mn396 Mn 0.2637 0.87551 0.03089 0.0
Mn397 Mn 0.26756 0.90693 0.98362 0.0
C398 C 0.29567 0.88626 0.01823 0.0
C399 C 0.2675 0.87343 0.07069 0.0
C400 C 0.25111 0.8518 0.97981 0.0
O401 O 0.23737 0.88885 0.02924 0.0
O402 O 0.24125 0.91087 0.99795 0.0
C403 C 0.27076 0.95953 1.00587 0.0
N404 N 0.27908 0.9415 0.99313 0.0
C405 C 0.30843 0.97156 0.98659 0.0
C406 C 0.30038 0.99026 1.00015 0.0
C407 C 0.28144 0.98421 1.00981 0.0
C408 C 0.29708 0.94727 0.98329 0.0
H409 H 0.25592 0.9552 1.01259 0.0
C410 C 0.23129 0.90303 1.01486 0.0
O411 O 0.25577 0.85537 0.05588 0.0
O412 O 0.27349 0.89427 0.06275 0.0
N413 N 0.29305 0.90493 0.96975 0.0
C414 C 0.30076 0.88425 0.96144 0.0
C415 C 0.32018 0.88688 0.95224 0.0
C416 C 0.33127 0.91071 0.95138 0.0
C417 C 0.32375 0.93167 0.96165 0.0
C418 C 0.30447 0.92788 0.97089 0.0
H419 H 0.29241 0.86601 0.96273 0.0
O420 O 0.29184 0.86675 0.02894 0.0
O421 O 0.28008 0.89816 1.01385 0.0
O422 O 0.25212 0.85061 1.00212 0.0
O423 O 0.25625 0.87182 0.97094 0.0
C424 C 0.33517 0.95602 0.9642 0.0
C425 C 0.3275 0.97597 0.97665 0.0
H426 H 0.30863 1.0093 1.00331 0.0
H427 H 0.275 0.99859 0.0201 0.0
H428 H 0.32689 0.87069 0.94624 0.0
H429 H 0.34618 0.91261 0.94413 0.0
H430 H 0.35014 0.95952 0.95724 0.0
H431 H 0.33663 0.99454 0.97896 0.0
Mn432 Mn 0.33022 0.40091 0.07896 0.0
Mn433 Mn 0.33191 0.44496 0.04211 0.0
C434 C 0.36338 0.42323 0.07353 0.0
C435 C 0.32495 0.38602 0.11587 0.0
C436 C 0.32153 0.38958 0.02457 0.0
O437 O 0.29964 0.4078 0.07382 0.0
O438 O 0.30484 0.44229 0.05556 0.0
C439 C 0.33222 0.49118 0.07514 0.0
N440 N 0.34119 0.47796 0.05816 0.0
C441 C 0.36538 0.51422 0.05319 0.0
C442 C 0.35652 0.52831 0.07076 0.0
C443 C 0.33996 0.51669 0.08189 0.0
C444 C 0.35727 0.48883 0.04757 0.0
H445 H 0.31911 0.48235 0.08316 0.0
C446 C 0.29316 0.4262 0.06507 0.0
O447 O 0.3214 0.37166 0.09537 0.0
O448 O 0.33148 0.40957 0.11523 0.0
N449 N 0.35701 0.44928 0.02721 0.0
C450 C 0.36443 0.43259 1.01173 0.0
C451 C 0.3812 0.44094 0.99928 0.0
C452 C 0.3898 0.46639 1.00254 0.0
C453 C 0.38216 0.48311 0.019 0.0
C454 C 0.36559 0.47363 0.03105 0.0
H455 H 0.35743 0.41315 1.00863 0.0
O456 O 0.36167 0.40199 0.08179 0.0
O457 O 0.34558 0.43136 0.06953 0.0
O458 O 0.32679 0.38222 0.04453 0.0
O459 O 0.32184 0.41241 0.02247 0.0
C460 C 0.39017 0.50881 0.0238 0.0
C461 C 0.38188 0.52433 0.04099 0.0
H462 H 0.36229 0.54805 0.07581 0.0
H463 H 0.33297 0.52746 0.09535 0.0
H464 H 0.38716 0.4279 0.98681 0.0
H465 H 0.40229 0.47286 0.99231 0.0
H466 H 0.40284 0.51682 1.01455 0.0
H467 H 0.38838 0.54398 0.04478 0.0
Mn468 Mn 0.83637 0.20797 0.09443 0.0
Mn469 Mn 0.81817 0.16591 0.04554 0.0
C470 C 0.80089 0.19577 0.08368 0.0
C471 C 0.84381 0.21969 0.13398 0.0
C472 C 0.83602 0.21944 0.04375 0.0
O473 O 0.86184 0.1933 0.08884 0.0
O474 O 0.84763 0.16456 0.05663 0.0
C475 C 0.81874 0.11966 0.0676 0.0
N476 N 0.80825 0.1341 0.05434 0.0
C477 C 0.77752 0.10226 0.04548 0.0
C478 C 0.78799 0.08696 0.05898 0.0
C479 C 0.80862 0.09579 0.07027 0.0
C480 C 0.78825 0.12602 0.04388 0.0
H481 H 0.83469 0.12634 0.07597 0.0
C482 C 0.86289 0.17596 0.07221 0.0
O483 O 0.85211 0.23371 0.11923 0.0
O484 O 0.83573 0.19666 0.12577 0.0
N485 N 0.78966 0.16565 0.03293 0.0
C486 C 0.78098 0.1839 0.02331 0.0
C487 C 0.76015 0.1785 1.01201 0.0
C488 C 0.74873 0.15432 1.01018 0.0
C489 C 0.75786 0.13606 0.02083 0.0
C490 C 0.7785 0.14265 0.03224 0.0
H491 H 0.78995 0.20235 0.02423 0.0
O492 O 0.80812 0.21722 0.09647 0.0
O493 O 0.81465 0.18224 0.07721 0.0
O494 O 0.83985 0.22642 0.06623 0.0
O495 O 0.82757 0.19747 0.03424 0.0
C496 C 0.74706 0.1118 0.0212 0.0
C497 C 0.75679 0.09501 0.03377 0.0
H498 H 0.7803 0.06848 0.06095 0.0
H499 H 0.81676 0.08413 0.08082 0.0
H500 H 0.75286 0.19278 1.00456 0.0
H501 H 0.73273 0.1502 1.00124 0.0
H502 H 0.73106 0.10611 1.01246 0.0
H503 H 0.74813 0.07667 0.03451 0.0
Mn504 Mn 0.16467 0.52884 0.30942 0.0
Mn505 Mn 0.20348 0.53973 0.35683 0.0
C506 C 0.1849 0.57037 0.3226 0.0
C507 C 0.14801 0.52299 0.26667 0.0
C508 C 0.15691 0.52816 0.36443 0.0
O509 O 0.17552 0.49289 0.31 0.0
O510 O 0.20183 0.50471 0.34084 0.0
C511 C 0.2414 0.53612 0.33225 0.0
N512 N 0.23054 0.54944 0.34708 0.0
C513 C 0.25975 0.58322 0.35659 0.0
C514 C 0.27125 0.5699 0.3414 0.0
C515 C 0.26198 0.54632 0.32907 0.0
C516 C 0.23919 0.57232 0.35871 0.0
H517 H 0.23445 0.51784 0.32301 0.0
C518 C 0.19181 0.4882 0.32363 0.0
O519 O 0.13808 0.51759 0.2846 0.0
O520 O 0.16817 0.52956 0.27288 0.0
N521 N 0.20694 0.57308 0.37316 0.0
C522 C 0.19311 0.58445 0.38538 0.0
C523 C 0.19959 0.60868 0.39774 0.0
C524 C 0.2203 0.62079 0.39777 0.0
C525 C 0.23421 0.60869 0.38505 0.0
C526 C 0.22671 0.58481 0.37257 0.0
H527 H 0.17726 0.57518 0.38572 0.0
O528 O 0.1657 0.56693 0.31214 0.0
O529 O 0.19112 0.54962 0.32644 0.0
O530 O 0.15006 0.52763 0.34198 0.0
O531 O 0.17662 0.53055 0.37114 0.0
C532 C 0.25524 0.61937 0.3843 0.0
C533 C 0.26794 0.60678 0.36986 0.0
H534 H 0.28719 0.57762 0.33907 0.0
H535 H 0.27076 0.53591 0.31733 0.0
H536 H 0.18871 0.61791 0.4074 0.0
H537 H 0.22531 0.63941 0.40748 0.0
H538 H 0.26174 0.6374 0.39456 0.0
H539 H 0.28395 0.61547 0.36899 0.0
Mn540 Mn 0.83063 0.90112 0.58039 0.0
Mn541 Mn 0.83051 0.94595 0.54495 0.0
C542 C 0.86332 0.92434 0.57427 0.0
C543 C 0.82531 0.88583 0.61727 0.0
C544 C 0.82022 0.8908 0.52656 0.0
O545 O 0.79968 0.9074 0.5755 0.0
O546 O 0.80497 0.94428 0.56137 0.0
C547 C 0.83421 0.99168 0.57977 0.0
N548 N 0.84167 0.97836 0.56149 0.0
C549 C 0.86638 1.0139 0.556 0.0
C550 C 0.85911 0.02806 0.57489 0.0
C551 C 0.84309 1.01681 0.58699 0.0
C552 C 0.85751 0.98873 0.55026 0.0
H553 H 0.82141 0.98325 0.58851 0.0
C554 C 0.79328 0.92706 0.56945 0.0
O555 O 0.82175 0.87159 0.59669 0.0
O556 O 0.83229 0.9093 0.61674 0.0
N557 N 0.85436 0.9496 0.52763 0.0
C558 C 0.85956 0.93334 0.50979 0.0
C559 C 0.87559 0.94148 0.49622 0.0
C560 C 0.88546 0.96649 0.5004 0.0
C561 C 0.87948 0.983 0.51847 0.0
C562 C 0.8641 0.97356 0.53217 0.0
H563 H 0.85153 0.91435 0.50578 0.0
O564 O 0.86245 0.90325 0.58277 0.0
O565 O 0.8452 0.93165 0.57088 0.0
O566 O 0.82747 0.8835 0.54581 0.0
O567 O 0.81852 0.91343 0.52521 0.0
C568 C 0.8877 1.00863 0.52297 0.0
C569 C 0.88152 0.02397 0.54205 0.0
H570 H 0.86555 0.04762 0.58007 0.0
H571 H 0.83727 0.02764 0.60145 0.0
H572 H 0.87999 0.92863 0.4822 0.0
H573 H 0.89748 0.97287 0.48951 0.0
H574 H 0.89899 1.01672 0.51202 0.0
H575 H 0.88833 0.04354 0.54564 0.0
Mn576 Mn 0.92604 0.04868 0.2871 0.0
Mn577 Mn 0.89058 0.04711 0.32817 0.0
C578 C 0.90579 1.00856 0.29468 0.0
C579 C 0.9412 0.05053 0.24755 0.0
C580 C 0.93798 0.05685 0.34379 0.0
O581 O 0.91725 0.08607 0.29027 0.0
O582 O 0.89303 0.07975 0.31569 0.0
C583 C 0.85153 0.04882 0.29656 0.0
N584 N 0.86233 0.03774 0.31304 0.0
C585 C 0.83078 1.01161 0.31962 0.0
C586 C 0.81925 0.02261 0.30263 0.0
C587 C 0.82972 0.04109 0.29082 0.0
C588 C 0.85256 1.01924 0.32371 0.0
H589 H 0.85946 0.06363 0.28812 0.0
C590 C 0.90246 0.0937 0.30211 0.0
O591 O 0.95178 0.05745 0.26859 0.0
O592 O 0.92128 0.04353 0.24891 0.0
N593 N 0.88587 1.01711 0.34218 0.0
C594 C 0.89945 1.00761 0.35721 0.0
C595 C 0.89164 0.98873 0.37022 0.0
C596 C 0.86987 0.98059 0.36842 0.0
C597 C 0.8562 0.99072 0.35283 0.0
C598 C 0.86501 1.00861 0.33948 0.0
H599 H 0.91607 1.01455 0.35951 0.0
O600 O 0.92374 1.01012 0.28609 0.0
O601 O 0.90021 0.03037 0.29881 0.0
O602 O 0.94297 0.05396 0.32223 0.0
O603 O 0.91893 0.05661 0.3476 0.0
C604 C 0.83414 0.98419 0.3504 0.0
C605 C 0.82147 0.99403 0.33328 0.0
H606 H 0.80235 1.01719 0.29868 0.0
H607 H 0.82093 0.04978 0.27779 0.0
H608 H 0.90232 0.98098 0.38212 0.0
H609 H 0.86382 0.96654 0.37903 0.0
H610 H 0.82677 0.97114 0.36122 0.0
H611 H 0.80458 0.9882 0.33103 0.0
Mn612 Mn 0.33722 0.70368 0.59537 0.0
Mn613 Mn 0.31056 0.65865 0.55179 0.0
C614 C 0.3018 0.68995 0.59555 0.0
C615 C 0.35361 0.72075 0.63223 0.0
C616 C 0.32042 0.71221 0.54591 0.0
O617 O 0.36079 0.6899 0.5819 0.0
O618 O 0.34101 0.66136 0.55325 0.0
C619 C 0.32218 0.61358 0.56982 0.0
N620 N 0.3073 0.62625 0.56109 0.0
C621 C 0.28153 0.58885 0.55134 0.0
C622 C 0.29648 0.57535 0.56055 0.0
C623 C 0.31682 0.58782 0.57007 0.0
C624 C 0.28756 0.61454 0.55244 0.0
H625 H 0.33806 0.62303 0.576 0.0
C626 C 0.35867 0.6732 0.56378 0.0
O627 O 0.35719 0.73162 0.61353 0.0
O628 O 0.34561 0.69713 0.62836 0.0
N629 N 0.28066 0.65377 0.54691 0.0
C630 C 0.26776 0.66996 0.54081 0.0
C631 C 0.24735 0.66068 0.5294 0.0
C632 C 0.24003 0.63488 0.52567 0.0
C633 C 0.25313 0.61873 0.53384 0.0
C634 C 0.27357 0.6291 0.5443 0.0
H635 H 0.27305 0.68974 0.545 0.0
O636 O 0.31071 0.71187 0.606 0.0
O637 O 0.31368 0.6758 0.58527 0.0
O638 O 0.33172 0.72018 0.5658 0.0
O639 O 0.31211 0.68972 0.53939 0.0
C640 C 0.24687 0.59276 0.5318 0.0
C641 C 0.26099 0.57785 0.54077 0.0
H642 H 0.29257 0.5554 0.56024 0.0
H643 H 0.32849 0.57747 0.57698 0.0
H644 H 0.23731 0.67339 0.52349 0.0
H645 H 0.22426 0.62769 0.51681 0.0
H646 H 0.23118 0.58412 0.52363 0.0
H647 H 0.25593 0.55793 0.53935 0.0
Mn648 Mn 0.42692 0.54656 0.78638 0.0
Mn649 Mn 0.39023 0.54396 0.826 0.0
C650 C 0.40651 0.50602 0.79314 0.0
C651 C 0.44305 0.5486 0.74719 0.0
C652 C 0.43745 0.55478 0.84335 0.0
O653 O 0.41746 0.58362 0.78912 0.0
O654 O 0.39231 0.5764 0.8133 0.0
C655 C 0.35106 0.54466 0.7942 0.0
N656 N 0.36208 0.53395 0.8108 0.0
C657 C 0.33075 0.50811 0.81842 0.0
C658 C 0.31899 0.51866 0.80125 0.0
C659 C 0.32923 0.53683 0.7889 0.0
C660 C 0.35251 0.51589 0.82216 0.0
H661 H 0.35883 0.55928 0.78541 0.0
C662 C 0.40201 0.59066 0.80017 0.0
O663 O 0.45309 0.5555 0.76853 0.0
O664 O 0.42303 0.54161 0.74802 0.0
N665 N 0.38601 0.51405 0.84012 0.0
C666 C 0.39994 0.50446 0.85464 0.0
C667 C 0.3924 0.48624 0.8685 0.0
C668 C 0.37064 0.47858 0.86769 0.0
C669 C 0.35668 0.48813 0.85193 0.0
C670 C 0.36517 0.50568 0.83807 0.0
H671 H 0.41663 0.51086 0.85587 0.0
O672 O 0.42483 0.50795 0.78541 0.0
O673 O 0.4007 0.5277 0.79705 0.0
O674 O 0.44337 0.55236 0.82216 0.0
O675 O 0.4181 0.55407 0.84583 0.0
C676 C 0.33466 0.48128 0.84968 0.0
C677 C 0.32173 0.49072 0.83248 0.0
H678 H 0.30208 0.51313 0.79758 0.0
H679 H 0.32025 0.5452 0.77577 0.0
H680 H 0.40331 0.4786 0.88022 0.0
H681 H 0.36484 0.46501 0.87892 0.0
H682 H 0.32752 0.46837 0.86077 0.0
H683 H 0.30487 0.48473 0.83044 0.0
Mn684 Mn 0.66466 0.02833 0.80836 0.0
Mn685 Mn 0.70363 0.04015 0.85603 0.0
C686 C 0.68473 0.06964 0.8207 0.0
C687 C 0.64781 0.02236 0.7657 0.0
C688 C 0.65681 0.0296 0.86347 0.0
O689 O 0.67535 0.99301 0.80923 0.0
O690 O 0.70082 1.00392 0.8414 0.0
C691 C 0.74211 0.03253 0.8338 0.0
N692 N 0.73139 0.04746 0.84718 0.0
C693 C 0.76223 0.07911 0.85784 0.0
C694 C 0.77356 0.06404 0.84415 0.0
C695 C 0.76342 0.0407 0.83199 0.0
C696 C 0.74106 0.06995 0.85903 0.0
H697 H 0.73452 1.01445 0.82477 0.0
C698 C 0.69079 0.98784 0.82368 0.0
O699 O 0.63802 1.0168 0.7837 0.0
O700 O 0.66798 0.02904 0.77179 0.0
N701 N 0.70838 0.07424 0.87069 0.0
C702 C 0.69438 0.08812 0.87932 0.0
C703 C 0.7015 0.11265 0.89062 0.0
C704 C 0.72294 0.12279 0.89258 0.0
C705 C 0.73689 0.10855 0.88245 0.0
C706 C 0.72881 0.08422 0.87137 0.0
H707 H 0.67786 0.08076 0.87672 0.0
O708 O 0.66529 0.066 0.81092 0.0
O709 O 0.69144 0.04921 0.82494 0.0
O710 O 0.64998 0.02634 0.84077 0.0
O711 O 0.67653 0.03418 0.87044 0.0
C712 C 0.75835 0.11778 0.88223 0.0
C713 C 0.77102 0.10306 0.86996 0.0
H714 H 0.78997 0.0703 0.84264 0.0
H715 H 0.77206 0.02896 0.82138 0.0
H716 H 0.69047 0.12379 0.89757 0.0
H717 H 0.72839 0.14178 0.9012 0.0
H718 H 0.76515 0.1364 0.89096 0.0
H719 H 0.78738 0.11059 0.86945 0.0
Mn720 Mn 0.76448 0.68076 0.04396 0.0
Mn721 Mn 0.7564 0.63348 0.99828 0.0
C722 C 0.73004 0.65921 0.03162 0.0
C723 C 0.77198 0.69726 0.08451 0.0
C724 C 0.76716 0.68781 0.99143 0.0
O725 O 0.7938 0.6713 0.04287 0.0
O726 O 0.78589 0.63731 1.01456 0.0
C727 C 0.76039 0.58987 0.02349 0.0
N728 N 0.749 0.60164 1.0082 0.0
C729 C 0.72198 0.56551 0.99788 0.0
C730 C 0.73358 0.55284 1.01324 0.0
C731 C 0.7528 0.56513 0.02622 0.0
C732 C 0.73043 0.59005 0.99575 0.0
H733 H 0.77513 0.59929 0.0335 0.0
C734 C 0.79885 0.65235 0.03064 0.0
O735 O 0.7761 0.71079 0.06771 0.0
O736 O 0.76411 0.6739 0.07788 0.0
N737 N 0.72854 0.62782 0.98168 0.0
C738 C 0.71827 0.64374 0.9702 0.0
C739 C 0.69795 0.63523 0.95804 0.0
C740 C 0.68847 0.61039 0.95779 0.0
C741 C 0.69929 0.59443 0.97004 0.0
C742 C 0.71944 0.60406 0.98195 0.0
H743 H 0.72545 0.66282 0.97057 0.0
O744 O 0.73366 0.68215 0.04211 0.0
O745 O 0.74692 0.64976 0.02766 0.0
O746 O 0.76697 0.697 1.01321 0.0
O747 O 0.76376 0.66452 0.98424 0.0
C748 C 0.69072 0.56952 0.97134 0.0
C749 C 0.70211 0.55502 0.98514 0.0
H750 H 0.72771 0.53381 1.01551 0.0
H751 H 0.76174 0.55556 0.03828 0.0
H752 H 0.68964 0.64778 0.94891 0.0
H753 H 0.67276 0.60388 0.94845 0.0
H754 H 0.67523 0.56146 0.96215 0.0
H755 H 0.69518 0.53604 0.98639 0.0
Mn756 Mn 0.92899 0.55498 0.79314 0.0
Mn757 Mn 0.89151 0.54984 0.8313 0.0
C758 C 0.90995 0.5142 0.79838 0.0
C759 C 0.9438 0.55668 0.754 0.0
C760 C 0.93865 0.56035 0.85043 0.0
O761 O 0.91874 0.59123 0.79554 0.0
O762 O 0.89453 0.58348 0.82067 0.0
C763 C 0.85405 0.55283 0.79736 0.0
N764 N 0.86381 0.54133 0.81433 0.0
C765 C 0.83163 0.51428 0.81739 0.0
C766 C 0.82116 0.52581 0.79996 0.0
C767 C 0.83248 0.54499 0.7897 0.0
C768 C 0.85322 0.52235 0.82369 0.0
H769 H 0.86263 0.56795 0.78988 0.0
C770 C 0.90358 0.5979 0.80718 0.0
O771 O 0.95459 0.5641 0.77496 0.0
O772 O 0.92389 0.54978 0.75532 0.0
N773 N 0.88577 0.51873 0.84306 0.0
C774 C 0.89881 0.50724 0.85673 0.0
C775 C 0.89016 0.48804 0.86888 0.0
C776 C 0.86823 0.4809 0.86667 0.0
C777 C 0.85526 0.49172 0.85092 0.0
C778 C 0.86482 0.5108 0.83944 0.0
H779 H 0.91562 0.51274 0.85833 0.0
O780 O 0.92862 0.5171 0.79166 0.0
O781 O 0.90303 0.53518 0.80251 0.0
O782 O 0.94498 0.56087 0.82943 0.0
O783 O 0.91905 0.55773 0.8525 0.0
C784 C 0.83327 0.48431 0.84604 0.0
C785 C 0.82153 0.49518 0.82887 0.0
H786 H 0.80447 0.52007 0.79428 0.0
H787 H 0.82453 0.55397 0.77622 0.0
H788 H 0.90033 0.47905 0.88018 0.0
H789 H 0.86157 0.46656 0.87662 0.0
H790 H 0.82532 0.46976 0.85486 0.0
H791 H 0.80476 0.48874 0.82467 0.0
Mn792 Mn 0.76393 0.37001 0.52694 0.0
Mn793 Mn 0.77055 0.40861 0.48572 0.0
C794 C 0.79726 0.38384 0.51883 0.0
C795 C 0.76203 0.35978 0.56437 0.0
C796 C 0.75264 0.35403 0.47398 0.0
O797 O 0.73732 0.38333 0.52462 0.0
O798 O 0.74405 0.412 0.49966 0.0
C799 C 0.77639 0.45792 0.51588 0.0
N800 N 0.78355 0.4415 0.49988 0.0
C801 C 0.81391 0.47161 0.49666 0.0
C802 C 0.80678 0.48893 0.51296 0.0
C803 C 0.78804 0.48198 0.52277 0.0
C804 C 0.80174 0.44786 0.49064 0.0
H805 H 0.76192 0.45268 0.52332 0.0
C806 C 0.73251 0.40091 0.51365 0.0
O807 O 0.75246 0.34478 0.54557 0.0
O808 O 0.77031 0.38224 0.56155 0.0
N809 N 0.79595 0.40691 0.47163 0.0
C810 C 0.80159 0.38727 0.45803 0.0
C811 C 0.82037 0.39073 0.44757 0.0
C812 C 0.83301 0.41437 0.45102 0.0
C813 C 0.82705 0.43418 0.46551 0.0
C814 C 0.80828 0.42953 0.47563 0.0
H815 H 0.79182 0.36912 0.45509 0.0
O816 O 0.7928 0.36262 0.52663 0.0
O817 O 0.78165 0.39575 0.51477 0.0
O818 O 0.75521 0.34967 0.49534 0.0
O819 O 0.75738 0.37564 0.46806 0.0
C820 C 0.83922 0.45821 0.47069 0.0
C821 C 0.83274 0.47685 0.48641 0.0
H822 H 0.81572 0.50751 0.51831 0.0
H823 H 0.78255 0.49518 0.53553 0.0
H824 H 0.82501 0.37526 0.43674 0.0
H825 H 0.84746 0.41699 0.44287 0.0
H826 H 0.85375 0.46247 0.463 0.0
H827 H 0.84246 0.49509 0.49066 0.0
Mn828 Mn 0.66627 0.52763 0.31141 0.0
Mn829 Mn 0.70392 0.5398 0.35961 0.0
C830 C 0.68518 0.56999 0.32405 0.0
C831 C 0.65089 0.52069 0.26876 0.0
C832 C 0.65704 0.5271 0.36598 0.0
O833 O 0.67773 0.4925 0.31208 0.0
O834 O 0.7024 0.50412 0.34454 0.0
C835 C 0.74252 0.53463 0.33685 0.0
N836 N 0.73144 0.54859 0.35078 0.0
C837 C 0.76098 0.58194 0.3606 0.0
C838 C 0.77274 0.56788 0.34644 0.0
C839 C 0.76342 0.54419 0.3344 0.0
C840 C 0.74021 0.57148 0.36231 0.0
H841 H 0.73552 0.51631 0.32775 0.0
C842 C 0.69321 0.48773 0.32669 0.0
O843 O 0.64057 0.51411 0.28605 0.0
O844 O 0.67068 0.5293 0.27569 0.0
N845 N 0.70742 0.57347 0.37495 0.0
C846 C 0.69313 0.58575 0.38528 0.0
C847 C 0.6994 0.61047 0.39645 0.0
C848 C 0.72033 0.62217 0.39711 0.0
C849 C 0.73468 0.60918 0.38616 0.0
C850 C 0.72742 0.58475 0.37492 0.0
H851 H 0.67705 0.57684 0.38486 0.0
O852 O 0.66584 0.56535 0.31382 0.0
O853 O 0.6922 0.54972 0.32864 0.0
O854 O 0.65075 0.52499 0.34321 0.0
O855 O 0.67667 0.53161 0.3735 0.0
C856 C 0.75584 0.61959 0.3857 0.0
C857 C 0.76895 0.60607 0.37279 0.0
H858 H 0.78886 0.57522 0.34447 0.0
H859 H 0.77236 0.53327 0.32336 0.0
H860 H 0.68816 0.62044 0.4046 0.0
H861 H 0.72514 0.64123 0.40579 0.0
H862 H 0.76216 0.63807 0.39507 0.0
H863 H 0.78504 0.61455 0.37204 0.0
C864 C 0.09579 0.06119 0.09518 0.0
Eu865 Eu 0.05962 0.04888 0.06904 0.0
C866 C 0.11306 0.04879 0.0887 0.0
C867 C 0.12746 0.04269 0.10639 0.0
C868 C 0.13997 0.02493 0.10006 0.0
C869 C 0.13757 1.01272 0.07618 0.0
C870 C 0.12299 1.01893 0.05872 0.0
C871 C 0.11138 0.03725 0.06477 0.0
C872 C 0.02457 0.04963 0.09445 0.0
C873 C 0.0521 0.99078 0.06652 0.0
C874 C 0.99424 1.01095 1.01218 0.0
Eu875 Eu 0.03001 0.02553 0.03898 0.0
C876 C 0.97593 0.02217 0.0169 0.0
C877 C 0.96271 0.02767 0.99768 0.0
C878 C 0.95049 0.04621 1.00181 0.0
C879 C 0.95187 0.05941 0.02505 0.0
C880 C 0.96388 0.05265 0.04449 0.0
C881 C 0.97576 0.03404 0.04046 0.0
C882 C 0.06539 0.025 1.01412 0.0
C883 C 0.03733 0.08426 0.04212 0.0
O884 O 0.08917 0.07491 0.0796 0.0
O885 O 0.08044 0.04595 0.1012 0.0
O886 O 0.03934 0.0682 0.09383 0.0
O887 O 0.02801 0.03124 0.0798 0.0
O888 O 0.06703 1.00958 0.06605 0.0
O889 O 0.03302 0.9933 0.05903 0.0
O890 O 1.00105 0.99844 0.02873 0.0
O891 O 1.00928 0.0267 1.00626 0.0
O892 O 0.0515 1.00588 1.01586 0.0
O893 O 0.06122 0.04352 0.02802 0.0
O894 O 0.02249 0.06483 0.04086 0.0
O895 O 0.05625 0.0823 0.05099 0.0
H896 H 0.12839 0.05084 0.1251 0.0
H897 H 0.1512 0.02052 0.11384 0.0
H898 H 0.12007 1.00921 0.04041 0.0
H899 H 0.09987 0.04105 0.05097 0.0
H900 H 0.96314 1.01914 0.97936 0.0
H901 H 0.94111 0.05137 0.98673 0.0
H902 H 0.96488 0.06261 0.06257 0.0
H903 H 0.98634 0.03062 0.05541 0.0
C904 C 0.27008 0.81606 0.34768 0.0
Eu905 Eu 0.2901 0.79955 0.31364 0.0
C906 C 0.27158 0.80759 0.37074 0.0
C907 C 0.25384 0.8035 0.38274 0.0
C908 C 0.2548 0.79119 0.40286 0.0
C909 C 0.27357 0.78331 0.41087 0.0
C910 C 0.29094 0.78658 0.39802 0.0
C911 C 0.28987 0.79844 0.37799 0.0
C912 C 0.26759 0.80124 0.2701 0.0
C913 C 0.27619 0.7401 0.30768 0.0
C914 C 0.32371 0.75903 0.24608 0.0
Eu915 Eu 0.30709 0.77612 0.28331 0.0
C916 C 0.32851 0.77222 0.22615 0.0
C917 C 0.34483 0.76723 0.21289 0.0
C918 C 0.35049 0.78209 0.19542 0.0
C919 C 0.34004 0.80213 0.19169 0.0
C920 C 0.32382 0.80705 0.20531 0.0
C921 C 0.31808 0.79218 0.22236 0.0
C922 C 0.33006 0.77377 0.32667 0.0
C923 C 0.32363 0.83633 0.29465 0.0
O924 O 0.2875 0.82853 0.34271 0.0
O925 O 0.26147 0.79829 0.33053 0.0
O926 O 0.27711 0.82047 0.28473 0.0
O927 O 0.27355 0.78214 0.27708 0.0
O928 O 0.28147 0.75986 0.32443 0.0
O929 O 0.28258 0.74257 0.28663 0.0
O930 O 0.30375 0.75375 0.248 0.0
O931 O 0.33473 0.7692 0.26645 0.0
O932 O 0.32176 0.75478 0.31086 0.0
O933 O 0.3236 0.79303 0.32042 0.0
O934 O 0.31919 0.81727 0.27691 0.0
O935 O 0.31573 0.83269 0.31465 0.0
H936 H 0.23932 0.8094 0.37632 0.0
H937 H 0.24117 0.78837 0.41246 0.0
H938 H 0.30575 0.78101 0.40393 0.0
H939 H 0.30336 0.80023 0.36803 0.0
H940 H 0.35313 0.75203 0.2161 0.0
H941 H 0.36272 0.77783 0.18464 0.0
H942 H 0.31494 0.82182 0.20217 0.0
H943 H 0.30546 0.79631 0.23259 0.0
C944 C 0.48947 0.05238 0.57694 0.0
Eu945 Eu 0.52629 0.04321 0.56712 0.0
C946 C 0.47238 0.06667 0.57117 0.0
C947 C 0.4654 0.08103 0.5902 0.0
C948 C 0.44804 0.09295 0.58607 0.0
C949 C 0.4371 0.09075 0.56276 0.0
C950 C 0.44451 0.07697 0.54353 0.0
C951 C 0.46198 0.06507 0.54767 0.0
C952 C 0.55756 0.03498 0.60273 0.0
C953 C 0.56015 0.09162 0.56724 0.0
C954 C 0.6043 0.03 0.53257 0.0
Eu955 Eu 0.56771 0.0391 0.54325 0.0
C956 C 0.6216 1.01595 0.53772 0.0
C957 C 0.63147 1.00681 0.51828 0.0
C958 C 0.64828 0.99399 0.522 0.0
C959 C 0.65583 0.99003 0.54536 0.0
C960 C 0.64554 0.99872 0.56486 0.0
C961 C 0.62855 1.01154 0.56108 0.0
C962 C 0.53656 0.04765 0.50753 0.0
C963 C 0.53462 0.99023 0.54632 0.0
O964 O 0.49198 0.03363 0.56126 0.0
O965 O 0.5073 0.06508 0.58808 0.0
O966 O 0.53814 0.03598 0.60553 0.0
O967 O 0.55892 0.03685 0.58048 0.0
O968 O 0.54002 0.08209 0.56292 0.0
O969 O 0.5749 0.07831 0.56257 0.0
O970 O 0.60206 0.04881 0.54834 0.0
O971 O 0.58636 1.01696 0.52218 0.0
O972 O 0.55573 0.04535 0.50468 0.0
O973 O 0.53507 0.04589 0.52982 0.0
O974 O 0.5547 1.00004 0.54877 0.0
O975 O 0.5197 1.00373 0.54903 0.0
H976 H 0.47309 0.08249 0.6085 0.0
H977 H 0.44272 0.10317 0.60134 0.0
H978 H 0.43668 0.07522 0.52528 0.0
H979 H 0.46708 0.05429 0.53259 0.0
H980 H 0.62623 1.00976 0.50008 0.0
H981 H 0.65536 0.98714 0.50644 0.0
H982 H 0.65092 0.99616 0.58313 0.0
H983 H 0.62104 1.01822 0.57636 0.0
C984 C 0.35287 0.26593 0.80485 0.0
Eu985 Eu 0.31478 0.2743 0.80834 0.0
C986 C 0.37035 0.27151 0.79037 0.0
C987 C 0.3771 0.25164 0.77691 0.0
C988 C 0.39457 0.25579 0.7645 0.0
C989 C 0.40597 0.27994 0.76551 0.0
C990 C 0.39868 0.30002 0.77823 0.0
C991 C 0.381 0.29586 0.79051 0.0
C992 C 0.2811 0.23752 0.81416 0.0
C993 C 0.28768 0.27446 0.75667 0.0
C994 C 0.23648 0.30795 0.8106 0.0
Eu995 Eu 0.27423 0.29846 0.80618 0.0
C996 C 0.21961 0.30396 0.82628 0.0
C997 C 0.21213 0.32479 0.83709 0.0
C998 C 0.19565 0.32194 0.85124 0.0
C999 C 0.18616 0.29811 0.85493 0.0
C1000 C 0.19399 0.27723 0.84453 0.0
C1001 C 0.21057 0.28011 0.83038 0.0
C1002 C 0.30812 0.33523 0.80025 0.0
C1003 C 0.30111 0.29716 0.85767 0.0
O1004 O 0.34854 0.28396 0.82008 0.0
O1005 O 0.33605 0.25117 0.79356 0.0
O1006 O 0.3007 0.23506 0.81555 0.0
O1007 O 0.28059 0.26023 0.81121 0.0
O1008 O 0.30623 0.2744 0.76869 0.0
O1009 O 0.27187 0.28157 0.76718 0.0
O1010 O 0.24016 0.28889 0.79611 0.0
O1011 O 0.25369 0.32286 0.82056 0.0
O1012 O 0.28867 0.33802 0.80029 0.0
O1013 O 0.3085 0.31246 0.80309 0.0
O1014 O 0.28231 0.29624 0.84581 0.0
O1015 O 0.31731 0.29228 0.84675 0.0
H1016 H 0.36906 0.23271 0.77635 0.0
H1017 H 0.39928 0.23993 0.75433 0.0
H1018 H 0.40704 0.31888 0.77946 0.0
H1019 H 0.37603 0.31162 0.80053 0.0
H1020 H 0.21885 0.34338 0.83424 0.0
H1021 H 0.18992 0.33842 0.85865 0.0
H1022 H 0.18725 0.25862 0.84727 0.0
H1023 H 0.21615 0.2637 0.82251 0.0
C1024 C 0.06639 0.98197 0.5289 0.0
Eu1025 Eu 0.05472 0.02375 0.54299 0.0
C1026 C 0.07067 0.96295 0.54335 0.0
C1027 C 0.0819 0.94462 0.5349 0.0
C1028 C 0.08305 0.9244 0.54736 0.0
C1029 C 0.07317 0.923 0.56823 0.0
C1030 C 0.06402 0.94273 0.5781 0.0
C1031 C 0.0624 0.96246 0.56541 0.0
C1032 C 0.08146 0.06613 0.53955 0.0
C1033 C 0.06768 0.03487 0.60284 0.0
C1034 C 0.02925 0.10183 0.58094 0.0
Eu1035 Eu 0.03997 0.05951 0.56628 0.0
C1036 C 0.02626 0.122 0.56738 0.0
C1037 C 1.01455 0.13994 0.57558 0.0
C1038 C 1.01233 0.15956 0.56255 0.0
C1039 C 0.02172 0.16107 0.54126 0.0
C1040 C 0.03282 0.14248 0.53273 0.0
C1041 C 0.03511 0.12308 0.54575 0.0
C1042 C 1.01309 1.01604 0.56813 0.0
C1043 C 0.02663 0.04824 0.50667 0.0
O1044 O 0.04678 0.9851 0.5267 0.0
O1045 O 0.07951 1.00281 0.53443 0.0
O1046 O 0.07247 0.04984 0.52142 0.0
O1047 O 0.07379 0.06091 0.55866 0.0
O1048 O 0.06805 0.01997 0.5825 0.0
O1049 O 0.0572 0.05337 0.60165 0.0
O1050 O 0.04856 0.09772 0.58377 0.0
O1051 O 1.01565 0.08151 0.57404 0.0
O1052 O 0.02109 0.03239 0.58665 0.0
O1053 O 0.02102 0.02267 0.54973 0.0
O1054 O 0.02683 0.06371 0.52682 0.0
O1055 O 0.03666 0.02936 0.50791 0.0
H1056 H 0.08841 0.94507 0.51795 0.0
H1057 H 0.08974 0.90883 0.53951 0.0
H1058 H 0.05588 0.94137 0.59392 0.0
H1059 H 0.05313 0.97611 0.57181 0.0
H1060 H 1.00756 0.13901 0.5922 0.0
H1061 H 1.00381 0.17389 0.56936 0.0
H1062 H 0.04065 0.14362 0.51668 0.0
H1063 H 0.04437 0.10939 0.53933 0.0
C1064 C 0.25038 0.73469 0.77855 0.0
Eu1065 Eu 0.28006 0.77021 0.79817 0.0
C1066 C 0.23008 0.73557 0.76548 0.0
C1067 C 0.21247 0.73573 0.77804 0.0
C1068 C 0.19356 0.73905 0.76621 0.0
C1069 C 0.19226 0.74212 0.74185 0.0
C1070 C 0.20969 0.74232 0.72929 0.0
C1071 C 0.22855 0.73877 0.74102 0.0
C1072 C 0.2912 0.77436 0.84517 0.0
C1073 C 0.27055 0.82777 0.81028 0.0
C1074 C 0.34757 0.83807 0.83186 0.0
Eu1075 Eu 0.31563 0.80605 0.81269 0.0
C1076 C 0.36708 0.83121 0.84185 0.0
C1077 C 0.38456 0.83446 0.82918 0.0
C1078 C 0.40262 0.82569 0.83701 0.0
C1079 C 0.40352 0.81443 0.85807 0.0
C1080 C 0.38559 0.80917 0.86953 0.0
C1081 C 0.36737 0.81753 0.86144 0.0
C1082 C 0.30515 0.80028 0.7653 0.0
C1083 C 0.32529 0.74893 0.80078 0.0
O1084 O 0.2668 0.74193 0.76789 0.0
O1085 O 0.2526 0.74374 0.80142 0.0
O1086 O 0.27215 0.7741 0.83578 0.0
O1087 O 0.30394 0.77412 0.83003 0.0
O1088 O 0.2627 0.80507 0.79824 0.0
O1089 O 0.29054 0.83146 0.82013 0.0
O1090 O 0.3313 0.83269 0.84339 0.0
O1091 O 0.34335 0.83182 0.8085 0.0
O1092 O 0.32399 0.80072 0.7755 0.0
O1093 O 0.29206 0.8015 0.78009 0.0
O1094 O 0.33251 0.77109 0.814 0.0
O1095 O 0.3057 0.74563 0.78983 0.0
H1096 H 0.21332 0.73344 0.79698 0.0
H1097 H 0.17987 0.73869 0.7758 0.0
H1098 H 0.20847 0.74428 0.71026 0.0
H1099 H 0.24186 0.73858 0.73094 0.0
H1100 H 0.38432 0.84403 0.81341 0.0
H1101 H 0.41654 0.82992 0.82814 0.0
H1102 H 0.38623 0.80069 0.88597 0.0
H1103 H 0.35376 0.81372 0.8709 0.0
C1104 C 0.59669 0.06868 0.09981 0.0
Eu1105 Eu 0.56406 0.051 0.06872 0.0
C1106 C 0.61713 0.08304 0.09858 0.0
C1107 C 0.6341 0.08167 0.11551 0.0
C1108 C 0.65374 0.09543 0.11429 0.0
C1109 C 0.65637 0.111 0.09637 0.0
C1110 C 0.63926 0.11196 0.07924 0.0
C1111 C 0.61989 0.09761 0.08004 0.0
C1112 C 0.54336 1.0046 0.06217 0.0
C1113 C 0.56816 0.03751 1.01013 0.0
C1114 C 0.48865 0.02601 1.00739 0.0
Eu1115 Eu 0.52375 0.04258 0.03348 0.0
C1116 C 0.47021 1.01288 1.01571 0.0
C1117 C 0.45039 1.01811 1.0081 0.0
C1118 C 0.43282 1.00614 0.0167 0.0
C1119 C 0.43504 0.98871 0.03272 0.0
C1120 C 0.45499 0.98507 0.04192 0.0
C1121 C 0.47258 0.99739 0.03363 0.0
C1122 C 0.54471 0.0898 0.04058 0.0
C1123 C 0.5199 0.05288 0.0935 0.0
O1124 O 0.58073 0.08042 0.0963 0.0
O1125 O 0.59345 0.04601 0.08816 0.0
O1126 O 0.56369 1.01013 0.06584 0.0
O1127 O 0.53481 0.0235 0.06311 0.0
O1128 O 0.57822 0.04724 0.03208 0.0
O1129 O 0.54718 0.03169 1.00703 0.0
O1130 O 0.50473 1.0141 1.00651 0.0
O1131 O 0.49369 0.04925 0.01749 0.0
O1132 O 0.52514 0.08352 0.03157 0.0
O1133 O 0.55246 0.0703 0.03984 0.0
O1134 O 0.51007 0.04392 0.07117 0.0
O1135 O 0.54073 0.05945 0.09627 0.0
H1136 H 0.63218 0.06987 0.1295 0.0
H1137 H 0.66685 0.09377 0.12724 0.0
H1138 H 0.64077 0.12386 0.06528 0.0
H1139 H 0.60707 0.09788 0.06623 0.0
H1140 H 0.44849 0.03104 0.99524 0.0
H1141 H 0.41736 1.00919 1.00966 0.0
H1142 H 0.45687 0.97163 0.05426 0.0
H1143 H 0.48795 0.99443 0.0409 0.0
C1144 C 0.35208 0.33439 0.32858 0.0
Eu1145 Eu 0.31476 0.30874 0.3196 0.0
C1146 C 0.36889 0.32734 0.31553 0.0
C1147 C 0.38982 0.33217 0.32626 0.0
C1148 C 0.40493 0.32142 0.31468 0.0
C1149 C 0.39885 0.30577 0.29267 0.0
C1150 C 0.37803 0.30116 0.2819 0.0
C1151 C 0.36312 0.31183 0.2933 0.0
C1152 C 0.29136 0.28743 0.35131 0.0
C1153 C 0.32101 0.2496 0.30068 0.0
C1154 C 0.24235 0.24418 0.28651 0.0
Eu1155 Eu 0.27809 0.27382 0.2943 0.0
C1156 C 0.22438 0.24742 0.29912 0.0
C1157 C 0.20402 0.24213 0.28659 0.0
C1158 C 0.18766 0.25129 0.29705 0.0
C1159 C 0.19186 0.26555 0.31992 0.0
C1160 C 0.21197 0.27015 0.33269 0.0
C1161 C 0.22821 0.26143 0.3222 0.0
C1162 C 0.29549 0.29575 0.25878 0.0
C1163 C 0.27212 0.33275 0.312 0.0
O1164 O 0.33699 0.34137 0.31515 0.0
O1165 O 0.34505 0.31811 0.34216 0.0
O1166 O 0.30037 0.31065 0.3546 0.0
O1167 O 0.29509 0.27683 0.33131 0.0
O1168 O 0.32957 0.27242 0.31177 0.0
O1169 O 0.30096 0.24544 0.29111 0.0
O1170 O 0.25868 0.23932 0.29968 0.0
O1171 O 0.24726 0.26193 0.27365 0.0
O1172 O 0.28017 0.27724 0.25519 0.0
O1173 O 0.30252 0.30048 0.281 0.0
O1174 O 0.26294 0.30881 0.30763 0.0
O1175 O 0.29294 0.33781 0.31534 0.0
H1176 H 0.39429 0.34359 0.34369 0.0
H1177 H 0.42117 0.32507 0.32283 0.0
H1178 H 0.37334 0.28918 0.26475 0.0
H1179 H 0.3469 0.30717 0.28515 0.0
H1180 H 0.20109 0.23233 0.26833 0.0
H1181 H 0.17207 0.24817 0.28705 0.0
H1182 H 0.21531 0.28162 0.35022 0.0
H1183 H 0.24399 0.2673 0.33136 0.0
C1184 C 0.56567 0.47925 0.03081 0.0
Eu1185 Eu 0.55522 0.52221 0.04298 0.0
C1186 C 0.56931 0.46239 0.04804 0.0
C1187 C 0.58012 0.4426 0.04306 0.0
C1188 C 0.58124 0.42561 0.05951 0.0
C1189 C 0.57225 0.42926 0.0811 0.0
C1190 C 0.56428 0.45106 0.08734 0.0
C1191 C 0.56143 0.46644 0.0702 0.0
C1192 C 0.58202 0.56453 0.03945 0.0
C1193 C 0.56901 0.53497 0.10276 0.0
C1194 C 0.52842 0.59971 0.08075 0.0
Eu1195 Eu 0.54044 0.5583 0.06604 0.0
C1196 C 0.52728 0.6208 0.06788 0.0
C1197 C 0.5095 0.63234 0.06784 0.0
C1198 C 0.5069 0.64999 0.05251 0.0
C1199 C 0.52212 0.65609 0.03725 0.0
C1200 C 0.54005 0.64467 0.03765 0.0
C1201 C 0.5425 0.62694 0.05265 0.0
C1202 C 0.51353 0.51508 0.06825 0.0
C1203 C 0.52795 0.54729 1.00645 0.0
O1204 O 0.5463 0.48314 0.02796 0.0
O1205 O 0.57919 0.49985 0.03433 0.0
O1206 O 0.57358 0.5478 0.02134 0.0
O1207 O 0.57414 0.55956 0.05849 0.0
O1208 O 0.57022 0.52067 0.08239 0.0
O1209 O 0.55758 0.55257 0.10165 0.0
O1210 O 0.54736 0.59532 0.08664 0.0
O1211 O 0.51532 0.57974 0.071 0.0
O1212 O 0.52191 0.53119 0.08672 0.0
O1213 O 0.52147 0.52138 0.04977 0.0
O1214 O 0.53025 0.56425 0.02604 0.0
O1215 O 0.53586 0.52696 1.00858 0.0
H1216 H 0.58626 0.43936 0.02596 0.0
H1217 H 0.58721 0.40859 0.05437 0.0
H1218 H 0.55704 0.45392 0.1038 0.0
H1219 H 0.55155 0.4803 0.07364 0.0
H1220 H 0.49743 0.62718 0.07911 0.0
H1221 H 0.49298 0.65867 0.05239 0.0
H1222 H 0.5523 0.64956 0.0265 0.0
H1223 H 0.5561 0.61771 0.05196 0.0
C1224 C 0.75791 0.24631 0.26571 0.0
Eu1225 Eu 0.78489 0.27777 0.29534 0.0
C1226 C 0.73611 0.24766 0.25786 0.0
C1227 C 0.72018 0.23439 0.26866 0.0
C1228 C 0.69949 0.23728 0.26312 0.0
C1229 C 0.69468 0.25328 0.24668 0.0
C1230 C 0.71042 0.26704 0.2363 0.0
C1231 C 0.73114 0.26425 0.24186 0.0
C1232 C 0.78676 0.27717 0.34233 0.0
C1233 C 0.77446 0.33363 0.31251 0.0
C1234 C 0.84885 0.34159 0.35128 0.0
Eu1235 Eu 0.82019 0.31261 0.32211 0.0
C1236 C 0.86878 0.33377 0.35752 0.0
C1237 C 0.87643 0.31809 0.33999 0.0
C1238 C 0.89347 0.30687 0.34626 0.0
C1239 C 0.90319 0.31139 0.37006 0.0
C1240 C 0.89533 0.32663 0.38773 0.0
C1241 C 0.87805 0.33771 0.38146 0.0
C1242 C 0.81778 0.31067 0.27411 0.0
C1243 C 0.82941 0.25525 0.30568 0.0
O1244 O 0.77221 0.2623 0.25838 0.0
O1245 O 0.76168 0.2443 0.28858 0.0
O1246 O 0.76944 0.27728 0.32861 0.0
O1247 O 0.80253 0.27832 0.33115 0.0
O1248 O 0.76727 0.31186 0.29856 0.0
O1249 O 0.79372 0.33712 0.32469 0.0
O1250 O 0.833 0.32837 0.35899 0.0
O1251 O 0.84517 0.34475 0.32865 0.0
O1252 O 0.83526 0.31135 0.28787 0.0
O1253 O 0.80301 0.31148 0.28659 0.0
O1254 O 0.83614 0.27659 0.32066 0.0
O1255 O 0.81097 0.25304 0.29212 0.0
H1256 H 0.72372 0.22183 0.28139 0.0
H1257 H 0.68717 0.22635 0.27085 0.0
H1258 H 0.70655 0.27903 0.22313 0.0
H1259 H 0.74316 0.27497 0.23355 0.0
H1260 H 0.8691 0.31418 0.32143 0.0
H1261 H 0.89951 0.29536 0.33243 0.0
H1262 H 0.90307 0.33078 0.40613 0.0
H1263 H 0.87186 0.34912 0.39522 0.0
C1264 C 0.10269 0.55454 0.60051 0.0
Eu1265 Eu 0.06713 0.54508 0.57306 0.0
C1266 C 0.1216 0.57168 0.59854 0.0
C1267 C 0.14122 0.5655 0.60545 0.0
C1268 C 0.15934 0.58213 0.60409 0.0
C1269 C 0.15785 0.60506 0.59594 0.0
C1270 C 0.13823 0.61058 0.58767 0.0
C1271 C 0.12014 0.59385 0.58885 0.0
C1272 C 0.04324 0.50022 0.5654 0.0
C1273 C 0.07002 0.53588 0.51373 0.0
C1274 C 0.99119 0.52614 0.51298 0.0
Eu1275 Eu 0.02667 0.54154 0.53908 0.0
C1276 C 0.97265 0.51193 0.52044 0.0
C1277 C 0.95291 0.5184 0.51466 0.0
C1278 C 0.9353 0.50548 0.5225 0.0
C1279 C 0.93734 0.48598 0.53612 0.0
C1280 C 0.95721 0.4805 0.54319 0.0
C1281 C 0.97483 0.49359 0.53554 0.0
C1282 C 0.04971 0.58812 0.54615 0.0
C1283 C 0.02344 0.54937 0.59907 0.0
O1284 O 0.08662 0.56488 0.60579 0.0
O1285 O 0.09785 0.53566 0.58325 0.0
O1286 O 0.06352 0.50344 0.56742 0.0
O1287 O 0.03659 0.52027 0.56729 0.0
O1288 O 0.08013 0.54543 0.53567 0.0
O1289 O 0.04908 0.52969 0.51131 0.0
O1290 O 1.00731 0.5145 0.51104 0.0
O1291 O 0.99634 0.54892 0.52433 0.0
O1292 O 0.02947 0.58322 0.54067 0.0
O1293 O 0.05656 0.56784 0.54578 0.0
O1294 O 1.01331 0.54248 0.57662 0.0
O1295 O 0.04448 0.55365 0.60192 0.0
H1296 H 0.14248 0.54803 0.61217 0.0
H1297 H 0.1745 0.57738 0.60989 0.0
H1298 H 0.13686 0.62812 0.58114 0.0
H1299 H 0.10504 0.59845 0.58261 0.0
H1300 H 0.95111 0.53317 0.50386 0.0
H1301 H 0.91994 0.50987 0.51699 0.0
H1302 H 0.95896 0.46534 0.55351 0.0
H1303 H 0.99008 0.48915 0.54119 0.0
C1304 C 0.85369 0.7681 0.30558 0.0
Eu1305 Eu 0.81559 0.77653 0.30913 0.0
C1306 C 0.87107 0.77292 0.29091 0.0
C1307 C 0.88144 0.75321 0.2836 0.0
C1308 C 0.89862 0.75704 0.27068 0.0
C1309 C 0.90581 0.78073 0.26466 0.0
C1310 C 0.89495 0.80038 0.27136 0.0
C1311 C 0.87771 0.79651 0.28438 0.0
C1312 C 0.7821 0.73967 0.31531 0.0
C1313 C 0.7879 0.77599 0.25775 0.0
C1314 C 0.73619 0.80842 0.31093 0.0
Eu1315 Eu 0.77441 0.80003 0.30739 0.0
C1316 C 0.71886 0.80562 0.32602 0.0
C1317 C 0.70532 0.8232 0.32617 0.0
C1318 C 0.68849 0.82141 0.33982 0.0
C1319 C 0.68469 0.80189 0.35369 0.0
C1320 C 0.69871 0.78461 0.35414 0.0
C1321 C 0.71568 0.78645 0.34039 0.0
C1322 C 0.80777 0.83723 0.30114 0.0
C1323 C 0.80235 0.80043 0.35853 0.0
O1324 O 0.84942 0.78675 0.32007 0.0
O1325 O 0.83686 0.75309 0.29473 0.0
O1326 O 0.80169 0.73719 0.31652 0.0
O1327 O 0.78164 0.76234 0.31239 0.0
O1328 O 0.80656 0.77592 0.26947 0.0
O1329 O 0.77219 0.78323 0.26837 0.0
O1330 O 0.74039 0.7885 0.29824 0.0
O1331 O 0.75308 0.82416 0.32038 0.0
O1332 O 0.7882 0.83951 0.30115 0.0
O1333 O 0.80859 0.8145 0.30391 0.0
O1334 O 0.78332 0.79933 0.34716 0.0
O1335 O 0.81833 0.79509 0.34742 0.0
H1336 H 0.87647 0.73483 0.28831 0.0
H1337 H 0.90666 0.74154 0.26609 0.0
H1338 H 0.89981 0.81876 0.26663 0.0
H1339 H 0.86975 0.81196 0.28953 0.0
H1340 H 0.70769 0.83835 0.31553 0.0
H1341 H 0.67836 0.83536 0.33944 0.0
H1342 H 0.69624 0.76932 0.36459 0.0
H1343 H 0.72614 0.77284 0.34079 0.0
C1344 C 0.77287 0.31309 0.85814 0.0
Eu1345 Eu 0.79003 0.29924 0.82011 0.0
C1346 C 0.76425 0.30011 0.87671 0.0
C1347 C 0.75526 0.31318 0.89468 0.0
C1348 C 0.75311 0.30365 0.91626 0.0
C1349 C 0.76016 0.28129 0.91956 0.0
C1350 C 0.76523 0.26612 0.89992 0.0
C1351 C 0.76793 0.2759 0.87871 0.0
C1352 C 0.76602 0.30275 0.77814 0.0
C1353 C 0.77625 0.23874 0.80712 0.0
C1354 C 0.82179 0.26414 0.74545 0.0
Eu1355 Eu 0.80629 0.27743 0.78474 0.0
C1356 C 0.83319 0.27909 0.72995 0.0
C1357 C 0.84621 0.26856 0.71481 0.0
C1358 C 0.85325 0.28114 0.69633 0.0
C1359 C 0.84705 0.30407 0.69317 0.0
C1360 C 0.83732 0.31637 0.71106 0.0
C1361 C 0.82968 0.30351 0.7288 0.0
C1362 C 0.83059 0.27496 0.82703 0.0
C1363 C 0.82169 0.33826 0.79945 0.0
O1364 O 0.79312 0.31438 0.85805 0.0
O1365 O 0.76246 0.30692 0.83671 0.0
O1366 O 0.77496 0.32145 0.79398 0.0
O1367 O 0.77264 0.28325 0.78347 0.0
O1368 O 0.7805 0.25768 0.82478 0.0
O1369 O 0.78313 0.24241 0.78652 0.0
O1370 O 0.80221 0.26692 0.74589 0.0
O1371 O 0.83162 0.26443 0.76685 0.0
O1372 O 0.82243 0.25588 0.81115 0.0
O1373 O 0.82364 0.29401 0.8211 0.0
O1374 O 0.81922 0.31909 0.78202 0.0
O1375 O 0.81263 0.33472 0.81884 0.0
H1376 H 0.75219 0.33182 0.89313 0.0
H1377 H 0.74924 0.31548 0.93147 0.0
H1378 H 0.77099 0.24892 0.90238 0.0
H1379 H 0.77528 0.26576 0.86538 0.0
H1380 H 0.84924 0.24982 0.71581 0.0
H1381 H 0.86068 0.27143 0.68253 0.0
H1382 H 0.83214 0.33393 0.70882 0.0
H1383 H 0.81914 0.31172 0.73971 0.0
C1384 C 0.84979 0.8348 0.83878 0.0
Eu1385 Eu 0.81319 0.80952 0.82395 0.0
C1386 C 0.86613 0.82897 0.8243 0.0
C1387 C 0.88477 0.82284 0.83506 0.0
C1388 C 0.89626 0.80827 0.82123 0.0
C1389 C 0.88866 0.79922 0.79693 0.0
C1390 C 0.87018 0.80564 0.78636 0.0
C1391 C 0.85954 0.82112 0.79958 0.0
C1392 C 0.78832 0.78562 0.85254 0.0
C1393 C 0.82273 0.75212 0.80283 0.0
C1394 C 0.74464 0.74999 0.78058 0.0
Eu1395 Eu 0.78106 0.77687 0.79528 0.0
C1396 C 0.72537 0.75371 0.791 0.0
C1397 C 0.71037 0.76469 0.77817 0.0
C1398 C 0.69623 0.77649 0.79042 0.0
C1399 C 0.69705 0.77726 0.81548 0.0
C1400 C 0.71059 0.76428 0.82792 0.0
C1401 C 0.72461 0.75245 0.81577 0.0
C1402 C 0.80595 0.80105 0.76654 0.0
C1403 C 0.77173 0.83428 0.8161 0.0
O1404 O 0.83515 0.84463 0.82756 0.0
O1405 O 0.84202 0.81613 0.84924 0.0
O1406 O 0.79526 0.80935 0.85612 0.0
O1407 O 0.79406 0.77583 0.83333 0.0
O1408 O 0.83057 0.77539 0.81334 0.0
O1409 O 0.80265 0.74738 0.79392 0.0
O1410 O 0.75895 0.74276 0.79491 0.0
O1411 O 0.75258 0.76808 0.76944 0.0
O1412 O 0.79901 0.77729 0.76289 0.0
O1413 O 0.80011 0.81072 0.78579 0.0
O1414 O 0.76372 0.81098 0.80577 0.0
O1415 O 0.79183 0.83905 0.82484 0.0
H1416 H 0.88969 0.82804 0.85425 0.0
H1417 H 0.91077 0.80376 0.82955 0.0
H1418 H 0.86367 0.7984 0.76784 0.0
H1419 H 0.84495 0.82489 0.79082 0.0
H1420 H 0.71079 0.76605 0.75916 0.0
H1421 H 0.6857 0.78643 0.78066 0.0
H1422 H 0.71107 0.76439 0.84728 0.0
H1423 H 0.73593 0.74417 0.82629 0.0
C1424 C 0.59803 0.55797 0.5956 0.0
Eu1425 Eu 0.56221 0.54722 0.5686 0.0
C1426 C 0.61508 0.544 0.5913 0.0
C1427 C 0.62374 0.53229 0.60983 0.0
C1428 C 0.63443 0.51253 0.60425 0.0
C1429 C 0.63641 0.50428 0.5801 0.0
C1430 C 0.62872 0.51686 0.56175 0.0
C1431 C 0.61815 0.53652 0.56731 0.0
C1432 C 0.52692 0.54799 0.59358 0.0
C1433 C 0.55475 0.4886 0.56284 0.0
C1434 C 0.49565 0.51239 0.51241 0.0
Eu1435 Eu 0.53202 0.52492 0.53815 0.0
C1436 C 0.47802 0.52476 0.51747 0.0
C1437 C 0.46553 0.53171 0.49848 0.0
C1438 C 0.45371 0.5505 0.50322 0.0
C1439 C 0.45455 0.5625 0.52693 0.0
C1440 C 0.46617 0.55455 0.54601 0.0
C1441 C 0.47772 0.53571 0.54134 0.0
C1442 C 0.56714 0.52414 0.51283 0.0
C1443 C 0.54124 0.58359 0.54194 0.0
O1444 O 0.59277 0.57133 0.57902 0.0
O1445 O 0.58173 0.54443 0.60176 0.0
O1446 O 0.54122 0.56692 0.59233 0.0
O1447 O 0.53064 0.52956 0.57916 0.0
O1448 O 0.56948 0.50807 0.5647 0.0
O1449 O 0.53573 0.49058 0.55451 0.0
O1450 O 0.50206 0.49956 0.52889 0.0
O1451 O 0.51107 0.52719 0.50594 0.0
O1452 O 0.55203 0.50578 0.51283 0.0
O1453 O 0.56372 0.54235 0.52771 0.0
O1454 O 0.52582 0.56491 0.54119 0.0
O1455 O 0.56006 0.58062 0.55018 0.0
H1456 H 0.62095 0.53725 0.62833 0.0
H1457 H 0.64032 0.50302 0.61865 0.0
H1458 H 0.63045 0.51113 0.543 0.0
H1459 H 0.61111 0.54473 0.55261 0.0
H1460 H 0.4661 0.52392 0.47995 0.0
H1461 H 0.44462 0.55634 0.48832 0.0
H1462 H 0.46736 0.56387 0.56437 0.0
H1463 H 0.48781 0.53123 0.55622 0.0
C1464 C 0.99081 0.5554 0.07772 0.0
Eu1465 Eu 0.02743 0.54568 0.06774 0.0
C1466 C 0.97258 0.56751 0.07117 0.0
C1467 C 0.95435 0.5614 0.08201 0.0
C1468 C 0.93728 0.57381 0.07819 0.0
C1469 C 0.93801 0.59288 0.0635 0.0
C1470 C 0.95629 0.59872 0.05225 0.0
C1471 C 0.97344 0.58617 0.05609 0.0
C1472 C 0.05788 0.53704 0.10404 0.0
C1473 C 0.06247 0.59286 0.06784 0.0
C1474 C 0.10417 0.52966 0.03282 0.0
Eu1475 Eu 0.06811 0.53971 0.04424 0.0
C1476 C 0.1228 0.51832 0.03922 0.0
C1477 C 0.14048 0.52415 0.02736 0.0
C1478 C 0.15775 0.51203 0.03082 0.0
C1479 C 0.15785 0.49382 0.0464 0.0
C1480 C 0.14007 0.48808 0.05846 0.0
C1481 C 0.12266 0.50021 0.05486 0.0
C1482 C 0.03756 0.54823 1.0079 0.0
C1483 C 0.03464 0.49195 0.04735 0.0
O1484 O 0.99312 0.53502 0.06421 0.0
O1485 O 1.00867 0.56998 0.0859 0.0
O1486 O 0.03849 0.53869 0.10635 0.0
O1487 O 0.05975 0.5384 0.08181 0.0
O1488 O 0.04213 0.5845 0.06371 0.0
O1489 O 0.07649 0.5782 0.06482 0.0
O1490 O 0.10219 0.55086 0.04519 0.0
O1491 O 0.08629 0.51445 0.02661 0.0
O1492 O 0.05661 0.54524 1.00539 0.0
O1493 O 0.03574 0.54713 0.03017 0.0
O1494 O 0.0548 0.50128 0.05083 0.0
O1495 O 0.02009 0.50616 0.04907 0.0
H1496 H 0.9534 0.54717 0.09381 0.0
H1497 H 0.92343 0.56825 0.08672 0.0
H1498 H 0.95756 0.61335 0.04093 0.0
H1499 H 0.98746 0.59131 0.04766 0.0
H1500 H 0.14073 0.53773 1.01487 0.0
H1501 H 0.17088 0.51661 0.02082 0.0
H1502 H 0.13965 0.4743 0.07073 0.0
H1503 H 0.10903 0.49522 0.06399 0.0
C1504 C 0.0247 0.18969 0.95723 0.0
C1505 C 1.01582 0.20902 0.96858 0.0
C1506 C 0.02901 0.1697 0.96949 0.0
C1507 C 0.02374 0.16878 0.9933 0.0
C1508 C 1.01458 0.18818 1.00463 0.0
C1509 C 1.01096 0.20811 0.99226 0.0
C1510 C 0.03939 0.14972 0.95712 0.0
C1511 C 1.00863 0.18794 0.0299 0.0
C1512 C 1.01433 0.10624 0.01669 0.0
C1513 C 0.0333 0.10666 0.03128 0.0
C1514 C 1.01114 0.12622 1.0041 0.0
C1515 C 0.02723 0.14728 1.00628 0.0
C1516 C 0.04622 0.14811 0.02152 0.0
C1517 C 0.04908 0.12772 0.03369 0.0
C1518 C 0.99057 0.12467 0.98829 0.0
C1519 C 0.06366 0.17034 0.02473 0.0
H1520 H 0.02885 0.19057 0.93913 0.0
H1521 H 1.00414 0.22306 1.00116 0.0
H1522 H 0.05425 0.14838 0.96822 0.0
H1523 H 0.02902 0.13137 0.95541 0.0
H1524 H 0.04299 0.1534 0.93887 0.0
H1525 H 1.00143 0.20434 0.03606 0.0
H1526 H 0.99732 0.17079 0.03065 0.0
H1527 H 0.02275 0.18772 0.04277 0.0
H1528 H 1.00211 0.09 1.0146 0.0
H1529 H 0.06382 0.12817 0.04489 0.0
H1530 H 0.99356 0.12638 0.96944 0.0
H1531 H 0.98262 0.14035 0.99457 0.0
H1532 H 0.97975 0.1069 0.98836 0.0
H1533 H 0.07017 0.17188 1.00739 0.0
H1534 H 0.07666 0.16897 0.03877 0.0
H1535 H 0.0575 0.18777 0.02983 0.0
C1536 C 0.14627 0.81346 0.22967 0.0
C1537 C 0.1411 0.80967 0.20442 0.0
C1538 C 0.16638 0.81108 0.24063 0.0
C1539 C 0.18208 0.80516 0.22609 0.0
C1540 C 0.17697 0.80148 0.20059 0.0
C1541 C 0.15664 0.80359 0.19013 0.0
C1542 C 0.17074 0.81468 0.26783 0.0
C1543 C 0.19305 0.79527 0.18427 0.0
C1544 C 0.24025 0.82408 0.25234 0.0
C1545 C 0.2461 0.80141 0.25727 0.0
C1546 C 0.21963 0.8255 0.24242 0.0
C1547 C 0.20406 0.80376 0.23736 0.0
C1548 C 0.20977 0.78078 0.24254 0.0
C1549 C 0.23065 0.77985 0.2523 0.0
C1550 C 0.21451 0.85043 0.23736 0.0
C1551 C 0.19369 0.75721 0.23823 0.0
H1552 H 0.1344 0.81779 0.24099 0.0
H1553 H 0.15288 0.80034 0.17065 0.0
H1554 H 0.17647 0.79817 0.27398 0.0
H1555 H 0.18331 0.83099 0.27411 0.0
H1556 H 0.15657 0.81767 0.2766 0.0
H1557 H 0.18684 0.79327 0.16484 0.0
H1558 H 0.20716 0.81007 0.18797 0.0
H1559 H 0.19823 0.77761 0.18802 0.0
H1560 H 0.25187 0.84094 0.25647 0.0
H1561 H 0.23473 0.76233 0.2566 0.0
H1562 H 0.20171 0.85533 0.24771 0.0
H1563 H 0.20878 0.84944 0.21791 0.0
H1564 H 0.22831 0.8656 0.24218 0.0
H1565 H 0.18082 0.75944 0.24944 0.0
H1566 H 0.2006 0.74074 0.24265 0.0
H1567 H 0.18653 0.75355 0.21908 0.0
C1568 C 0.53699 0.86128 0.47295 0.0
C1569 C 0.51917 0.84322 0.47257 0.0
C1570 C 0.53953 0.88411 0.48793 0.0
C1571 C 0.52357 0.88902 0.50232 0.0
C1572 C 0.50599 0.87039 0.50275 0.0
C1573 C 0.50412 0.84747 0.48802 0.0
C1574 C 0.55869 0.90343 0.48734 0.0
C1575 C 0.48856 0.87522 0.51762 0.0
C1576 C 0.53751 0.94632 0.54938 0.0
C1577 C 0.52894 0.96381 0.53713 0.0
C1578 C 0.53496 0.92143 0.53875 0.0
C1579 C 0.52435 0.91442 0.51504 0.0
C1580 C 0.51539 0.93211 0.50279 0.0
C1581 C 0.51753 0.95663 0.51422 0.0
C1582 C 0.54437 0.90294 0.55244 0.0
C1583 C 0.5046 0.92549 0.47715 0.0
H1584 H 0.54868 0.85772 0.46108 0.0
H1585 H 0.49028 0.83346 0.48749 0.0
H1586 H 0.55389 0.91936 0.47906 0.0
H1587 H 0.56632 0.91078 0.50595 0.0
H1588 H 0.57045 0.89583 0.47684 0.0
H1589 H 0.477 0.85808 0.51773 0.0
H1590 H 0.49514 0.88298 0.53651 0.0
H1591 H 0.48013 0.88927 0.51011 0.0
H1592 H 0.54654 0.95226 0.56704 0.0
H1593 H 0.51141 0.97054 0.50468 0.0
H1594 H 0.55774 0.89721 0.54365 0.0
H1595 H 0.53257 0.88592 0.55208 0.0
H1596 H 0.55013 0.91079 0.57156 0.0
H1597 H 0.5161 0.92033 0.46493 0.0
H1598 H 0.49767 0.94115 0.47065 0.0
H1599 H 0.49195 0.90911 0.47574 0.0
C1600 C 0.52066 0.30718 0.72049 0.0
C1601 C 0.51885 0.29754 0.69598 0.0
C1602 C 0.50277 0.30551 0.73294 0.0
C1603 C 0.48286 0.29362 0.72065 0.0
C1604 C 0.48107 0.28364 0.69605 0.0
C1605 C 0.49891 0.2859 0.6841 0.0
C1606 C 0.50507 0.31642 0.75921 0.0
C1607 C 0.46028 0.27046 0.68222 0.0
C1608 C 0.43955 0.26637 0.75498 0.0
C1609 C 0.42584 0.28385 0.75425 0.0
C1610 C 0.45828 0.26952 0.74443 0.0
C1611 C 0.46378 0.29099 0.73334 0.0
C1612 C 0.45015 0.30881 0.73262 0.0
C1613 C 0.43131 0.30498 0.74298 0.0
C1614 C 0.47193 0.24955 0.74465 0.0
C1615 C 0.4553 0.33169 0.72049 0.0
H1616 H 0.53588 0.31622 0.7298 0.0
H1617 H 0.49707 0.27818 0.66517 0.0
H1618 H 0.49424 0.33006 0.76186 0.0
H1619 H 0.5006 0.30147 0.77025 0.0
H1620 H 0.52139 0.32585 0.766 0.0
H1621 H 0.4619 0.2624 0.66352 0.0
H1622 H 0.45329 0.25523 0.69169 0.0
H1623 H 0.44902 0.28371 0.68119 0.0
H1624 H 0.43573 0.25017 0.76394 0.0
H1625 H 0.42071 0.31837 0.7419 0.0
H1626 H 0.48802 0.2577 0.75345 0.0
H1627 H 0.47333 0.2417 0.72585 0.0
H1628 H 0.46553 0.23408 0.75424 0.0
H1629 H 0.47106 0.34212 0.72829 0.0
H1630 H 0.44355 0.34433 0.72243 0.0
H1631 H 0.45589 0.32612 0.70096 0.0
C1632 C 0.02678 0.79387 0.60718 0.0
C1633 C 1.01908 0.80151 0.6287 0.0
C1634 C 0.03595 0.81162 0.59403 0.0
C1635 C 0.03743 0.83703 0.60312 0.0
C1636 C 0.02822 0.84469 0.62385 0.0
C1637 C 1.01843 0.82661 0.63597 0.0
C1638 C 0.04529 0.80335 0.57149 0.0
C1639 C 0.02994 0.87183 0.63417 0.0
C1640 C 0.07826 0.88763 0.58998 0.0
C1641 C 0.06574 0.89883 0.57449 0.0
C1642 C 0.06956 0.86592 0.59833 0.0
C1643 C 0.04808 0.856 0.59079 0.0
C1644 C 0.03577 0.86676 0.57419 0.0
C1645 C 0.04487 0.88823 0.56613 0.0
C1646 C 0.08278 0.85474 0.61645 0.0
C1647 C 1.01266 0.85676 0.56651 0.0
H1648 H 0.02742 0.77435 0.60186 0.0
H1649 H 1.01228 0.83218 0.65267 0.0
H1650 H 0.03989 0.81313 0.55647 0.0
H1651 H 0.06268 0.80832 0.57487 0.0
H1652 H 0.04106 0.78294 0.56571 0.0
H1653 H 0.02245 0.8743 0.65102 0.0
H1654 H 0.04672 0.88064 0.63828 0.0
H1655 H 0.02239 0.88201 0.62077 0.0
H1656 H 0.09436 0.89641 0.59629 0.0
H1657 H 0.03542 0.89749 0.55417 0.0
H1658 H 0.08172 0.83449 0.61067 0.0
H1659 H 0.07674 0.85699 0.63422 0.0
H1660 H 0.09958 0.86367 0.61887 0.0
H1661 H 1.01022 0.83639 0.56048 0.0
H1662 H 1.00595 0.86598 0.5517 0.0
H1663 H 1.00373 0.85979 0.58211 0.0
C1664 C 0.50715 0.84975 0.95035 0.0
C1665 C 0.52347 0.84924 0.93599 0.0
C1666 C 0.48646 0.83986 0.94043 0.0
C1667 C 0.48237 0.82984 0.9157 0.0
C1668 C 0.49887 0.82884 0.90132 0.0
C1669 C 0.51928 0.83805 0.91185 0.0
C1670 C 0.46894 0.84103 0.956 0.0
C1671 C 0.49493 0.81955 0.87449 0.0
C1672 C 0.4308 0.7969 0.88174 0.0
C1673 C 0.42372 0.81703 0.87248 0.0
C1674 C 0.44961 0.80088 0.89733 0.0
C1675 C 0.46096 0.82541 0.90344 0.0
C1676 C 0.45314 0.84577 0.89488 0.0
C1677 C 0.43455 0.84125 0.87951 0.0
C1678 C 0.45747 0.77907 0.90704 0.0
C1679 C 0.46405 0.87247 0.90176 0.0
H1680 H 0.5106 0.85764 0.96926 0.0
H1681 H 0.53199 0.8361 0.90109 0.0
H1682 H 0.4602 0.85603 0.9514 0.0
H1683 H 0.45763 0.82325 0.95253 0.0
H1684 H 0.47498 0.84498 0.97554 0.0
H1685 H 0.50974 0.81836 0.86643 0.0
H1686 H 0.48493 0.8009 0.87088 0.0
H1687 H 0.4864 0.83242 0.86511 0.0
H1688 H 0.42172 0.77833 0.87675 0.0
H1689 H 0.42823 0.85687 0.8732 0.0
H1690 H 0.46125 0.78315 0.92698 0.0
H1691 H 0.47218 0.77594 0.89961 0.0
H1692 H 0.44577 0.76164 0.90234 0.0
H1693 H 0.45786 0.8808 0.91797 0.0
H1694 H 0.46084 0.88377 0.8871 0.0
H1695 H 0.48124 0.87403 0.90606 0.0
C1696 C 0.52667 0.18689 0.11187 0.0
C1697 C 0.52082 0.18426 0.13493 0.0
C1698 C 0.5437 0.17734 0.10407 0.0
C1699 C 0.55379 0.16249 0.11881 0.0
C1700 C 0.55097 0.16371 0.14336 0.0
C1701 C 0.53387 0.1738 0.15108 0.0
C1702 C 0.54765 0.17879 0.07817 0.0
C1703 C 0.56373 0.15073 0.16012 0.0
C1704 C 0.53318 0.10689 0.07744 0.0
C1705 C 0.54908 0.10701 0.06262 0.0
C1706 C 0.53624 0.12164 0.09947 0.0
C1707 C 0.55558 0.13832 0.1061 0.0
C1708 C 0.57262 0.13649 0.09257 0.0
C1709 C 0.56898 0.12101 0.07033 0.0
C1710 C 0.5171 0.12221 0.1128 0.0
C1711 C 0.59391 0.1523 0.10073 0.0
H1712 H 0.51819 0.19668 0.09972 0.0
H1713 H 0.53068 0.17322 0.16957 0.0
H1714 H 0.5646 0.18016 0.07629 0.0
H1715 H 0.539 0.1618 0.06642 0.0
H1716 H 0.54201 0.19511 0.0714 0.0
H1717 H 0.56455 0.15945 0.17917 0.0
H1718 H 0.55625 0.13093 0.15869 0.0
H1719 H 0.57991 0.15125 0.15514 0.0
H1720 H 0.51789 0.09549 0.07157 0.0
H1721 H 0.58125 0.12042 0.05872 0.0
H1722 H 0.50906 0.13767 0.10809 0.0
H1723 H 0.52134 0.12432 0.1326 0.0
H1724 H 0.50524 0.10503 0.10742 0.0
H1725 H 0.5927 0.17238 0.10286 0.0
H1726 H 0.6054 0.14886 0.08788 0.0
H1727 H 0.60001 0.14813 0.1187 0.0
C1728 C 0.14289 0.3472 0.41264 0.0
C1729 C 0.12181 0.34811 0.40595 0.0
C1730 C 0.1534 0.33251 0.39766 0.0
C1731 C 0.14239 0.31938 0.3756 0.0
C1732 C 0.12108 0.32042 0.3689 0.0
C1733 C 0.11079 0.33373 0.38495 0.0
C1734 C 0.17598 0.33059 0.40557 0.0
C1735 C 0.10894 0.30697 0.34531 0.0
C1736 C 0.17585 0.30269 0.32809 0.0
C1737 C 0.17599 0.27763 0.33029 0.0
C1738 C 0.1641 0.31635 0.34228 0.0
C1739 C 0.15315 0.30463 0.3593 0.0
C1740 C 0.15249 0.27902 0.36077 0.0
C1741 C 0.16407 0.26567 0.34604 0.0
C1742 C 0.16369 0.34334 0.33956 0.0
C1743 C 0.14043 0.26609 0.37858 0.0
H1744 H 0.15073 0.35697 0.42993 0.0
H1745 H 0.09383 0.33181 0.3816 0.0
H1746 H 0.17779 0.31074 0.40492 0.0
H1747 H 0.18621 0.33888 0.393 0.0
H1748 H 0.18154 0.34028 0.42419 0.0
H1749 H 0.09392 0.31387 0.3411 0.0
H1750 H 0.11835 0.30927 0.3301 0.0
H1751 H 0.10521 0.28677 0.34639 0.0
H1752 H 0.18557 0.31173 0.31604 0.0
H1753 H 0.16476 0.24631 0.3477 0.0
H1754 H 0.17194 0.35544 0.35612 0.0
H1755 H 0.14726 0.34691 0.33753 0.0
H1756 H 0.17112 0.34875 0.32364 0.0
H1757 H 0.14716 0.27443 0.39728 0.0
H1758 H 0.14085 0.24579 0.37651 0.0
H1759 H 0.12377 0.26875 0.37627 0.0
C1760 C 0.95409 0.06901 0.20995 0.0
C1761 C 0.952 0.04925 0.22399 0.0
C1762 C 0.96557 0.06879 0.18931 0.0
C1763 C 0.97578 0.04833 0.18165 0.0
C1764 C 0.97387 0.02845 0.19597 0.0
C1765 C 0.96234 0.02919 0.21656 0.0
C1766 C 0.96698 0.0909 0.17574 0.0
C1767 C 0.98459 1.00638 0.18992 0.0
C1768 C 0.99089 0.03621 0.11501 0.0
C1769 C 1.0121 0.04795 0.1167 0.0
C1770 C 0.97911 0.0365 0.13543 0.0
C1771 C 0.98848 0.0479 0.15918 0.0
C1772 C 1.01013 0.059 0.16107 0.0
C1773 C 0.02124 0.0594 0.1402 0.0
C1774 C 0.95623 0.02486 0.13139 0.0
C1775 C 0.02183 0.07071 0.18535 0.0
H1776 H 0.94693 0.08507 0.21535 0.0
H1777 H 0.96163 1.01391 0.22714 0.0
H1778 H 0.98359 0.10017 0.17726 0.0
H1779 H 0.96154 0.08466 0.15626 0.0
H1780 H 0.95747 0.10478 0.18269 0.0
H1781 H 0.98133 0.99198 0.20192 0.0
H1782 H 0.97939 0.99777 0.17092 0.0
H1783 H 1.00184 1.01267 0.19157 0.0
H1784 H 0.98315 0.02732 0.09744 0.0
H1785 H 0.03748 0.06858 0.14247 0.0
H1786 H 0.94655 0.03882 0.13767 0.0
H1787 H 0.95355 1.0093 0.14219 0.0
H1788 H 0.95072 1.01764 0.11209 0.0
H1789 H 1.01665 0.08867 0.19089 0.0
H1790 H 0.03911 0.07435 0.18496 0.0
H1791 H 1.01835 0.05855 0.19932 0.0
C1792 C 0.29319 0.72219 0.51753 0.0
C1793 C 0.31258 0.72996 0.53186 0.0
C1794 C 0.28358 0.73849 0.50555 0.0
C1795 C 0.29569 0.76161 0.50391 0.0
C1796 C 0.31497 0.77041 0.51882 0.0
C1797 C 0.32293 0.75452 0.53367 0.0
C1798 C 0.26258 0.72855 0.49038 0.0
C1799 C 0.32842 0.79473 0.51643 0.0
C1800 C 0.28983 0.75807 0.43791 0.0
C1801 C 0.27677 0.77565 0.4345 0.0
C1802 C 0.2987 0.75618 0.46085 0.0
C1803 C 0.29217 0.77012 0.48082 0.0
C1804 C 0.27786 0.78662 0.47761 0.0
C1805 C 0.27064 0.78968 0.45423 0.0
C1806 C 0.31388 0.73796 0.46355 0.0
C1807 C 0.26953 0.80003 0.49869 0.0
H1808 H 0.28567 0.70297 0.51449 0.0
H1809 H 0.33786 0.76055 0.54499 0.0
H1810 H 0.25347 0.74361 0.48721 0.0
H1811 H 0.26525 0.7191 0.47261 0.0
H1812 H 0.25297 0.71455 0.49921 0.0
H1813 H 0.34057 0.80113 0.53231 0.0
H1814 H 0.33651 0.79219 0.50006 0.0
H1815 H 0.31867 0.8094 0.51418 0.0
H1816 H 0.29402 0.74679 0.42248 0.0
H1817 H 0.2607 0.80352 0.45146 0.0
H1818 H 0.30533 0.72006 0.46746 0.0
H1819 H 0.32668 0.74516 0.47854 0.0
H1820 H 0.32112 0.73392 0.44675 0.0
H1821 H 0.26046 0.78627 0.50823 0.0
H1822 H 0.25912 0.8131 0.49294 0.0
H1823 H 0.28272 0.81055 0.51187 0.0
C1824 C 0.64433 1.01901 0.71866 0.0
C1825 C 0.63597 0.02387 0.74066 0.0
C1826 C 0.63289 0.02018 0.69561 0.0
C1827 C 0.61267 0.02772 0.6938 0.0
C1828 C 0.60456 0.0335 0.7161 0.0
C1829 C 0.61584 0.03093 0.7387 0.0
C1830 C 0.64247 1.01298 0.67303 0.0
C1831 C 0.58381 0.04268 0.71628 0.0
C1832 C 0.59027 0.05149 0.63437 0.0
C1833 C 0.5741 0.03184 0.62341 0.0
C1834 C 0.60282 0.05043 0.65675 0.0
C1835 C 0.59985 0.02897 0.66895 0.0
C1836 C 0.58383 1.00894 0.65756 0.0
C1837 C 0.57112 1.01084 0.63567 0.0
C1838 C 0.61868 0.07295 0.66799 0.0
C1839 C 0.57976 0.98534 0.66875 0.0
H1840 H 0.65974 1.0136 0.71935 0.0
H1841 H 0.60897 0.03517 0.75517 0.0
H1842 H 0.63073 1.00003 0.6597 0.0
H1843 H 0.64738 0.02982 0.66459 0.0
H1844 H 0.65644 1.00399 0.67683 0.0
H1845 H 0.58159 0.05118 0.73461 0.0
H1846 H 0.58261 0.05667 0.70372 0.0
H1847 H 0.57077 0.02688 0.71012 0.0
H1848 H 0.59246 0.06835 0.62604 0.0
H1849 H 0.55843 0.99573 0.62822 0.0
H1850 H 0.63465 0.06801 0.66988 0.0
H1851 H 0.61518 0.07938 0.68642 0.0
H1852 H 0.61876 0.08859 0.65715 0.0
H1853 H 0.59473 0.97842 0.67304 0.0
H1854 H 0.56859 0.97044 0.65669 0.0
H1855 H 0.5731 0.98917 0.68594 0.0
C1856 C 0.32238 0.34836 0.99987 0.0
C1857 C 0.31556 0.37149 1.00221 0.0
C1858 C 0.31901 0.33293 0.97744 0.0
C1859 C 0.3086 0.34088 0.95709 0.0
C1860 C 0.30054 0.36345 0.95979 0.0
C1861 C 0.30406 0.3784 0.9823 0.0
C1862 C 0.32743 0.3087 0.97522 0.0
C1863 C 0.28912 0.37251 0.93863 0.0
C1864 C 0.32244 0.32187 0.89442 0.0
C1865 C 0.30416 0.30559 0.88383 0.0
C1866 C 0.32431 0.33298 0.91853 0.0
C1867 C 0.30774 0.32701 0.93251 0.0
C1868 C 0.28967 0.3096 0.92216 0.0
C1869 C 0.28799 0.29932 0.8978 0.0
C1870 C 0.34346 0.35219 0.92863 0.0
C1871 C 0.27194 0.30227 0.93663 0.0
H1872 H 0.33112 0.34283 1.01523 0.0
H1873 H 0.2983 0.39599 0.98411 0.0
H1874 H 0.31506 0.2933 0.96584 0.0
H1875 H 0.34063 0.31006 0.96412 0.0
H1876 H 0.33316 0.30391 0.99309 0.0
H1877 H 0.28283 0.38979 0.9441 0.0
H1878 H 0.30002 0.37627 0.92504 0.0
H1879 H 0.27587 0.35798 0.92968 0.0
H1880 H 0.3348 0.32697 0.88346 0.0
H1881 H 0.2739 0.28659 0.88954 0.0
H1882 H 0.35105 0.34718 0.94554 0.0
H1883 H 0.33866 0.37059 0.93321 0.0
H1884 H 0.35524 0.35409 0.91568 0.0
H1885 H 0.27773 0.29263 0.95158 0.0
H1886 H 0.25842 0.28969 0.92545 0.0
H1887 H 0.26629 0.31902 0.94493 0.0
C1888 C 0.96141 0.07859 0.38264 0.0
C1889 C 0.95408 0.05705 0.36572 0.0
C1890 C 0.97417 0.07796 0.4048 0.0
C1891 C 0.97909 0.05502 0.41136 0.0
C1892 C 0.97156 0.03319 0.39433 0.0
C1893 C 0.95972 0.03458 0.37183 0.0
C1894 C 0.98217 0.10201 0.42142 0.0
C1895 C 0.97501 1.00798 0.40038 0.0
C1896 C 0.02464 0.05167 0.46148 0.0
C1897 C 1.01474 0.05135 0.48264 0.0
C1898 C 1.01355 0.05354 0.43866 0.0
C1899 C 0.99146 0.05373 0.43608 0.0
C1900 C 0.98132 0.05266 0.45738 0.0
C1901 C 0.99303 0.05212 0.4802 0.0
C1902 C 0.02565 0.05575 0.4173 0.0
C1903 C 0.95788 0.05178 0.45619 0.0
H1904 H 0.95703 0.09607 0.37862 0.0
H1905 H 0.95397 1.01764 0.35936 0.0
H1906 H 0.97354 0.10258 0.43744 0.0
H1907 H 0.9991 0.10326 0.42798 0.0
H1908 H 0.98009 0.11855 0.41242 0.0
H1909 H 0.96837 0.99276 0.3854 0.0
H1910 H 0.99203 1.00766 0.40464 0.0
H1911 H 0.96751 1.00417 0.41672 0.0
H1912 H 0.04131 0.05089 0.46286 0.0
H1913 H 0.98496 0.05139 0.49611 0.0
H1914 H 0.02283 0.07257 0.40916 0.0
H1915 H 0.02011 0.03943 0.40321 0.0
H1916 H 0.04284 0.05699 0.42236 0.0
H1917 H 0.95423 0.07077 0.45537 0.0
H1918 H 0.95168 0.04498 0.47231 0.0
H1919 H 0.94949 0.03954 0.43977 0.0
C1920 C 0.33186 0.75215 0.64249 0.0
C1921 C 0.34481 0.73568 0.65062 0.0
C1922 C 0.31798 0.76146 0.65685 0.0
C1923 C 0.31906 0.75694 0.68089 0.0
C1924 C 0.33225 0.74076 0.68964 0.0
C1925 C 0.34456 0.72953 0.67395 0.0
C1926 C 0.30228 0.77633 0.64648 0.0
C1927 C 0.3335 0.73559 0.71549 0.0
C1928 C 0.31638 0.80951 0.72783 0.0
C1929 C 0.30043 0.79814 0.73951 0.0
C1930 C 0.3219 0.79674 0.70729 0.0
C1931 C 0.30993 0.77314 0.69781 0.0
C1932 C 0.2909 0.76449 0.7066 0.0
C1933 C 0.28618 0.77754 0.72768 0.0
C1934 C 0.34228 0.8067 0.69824 0.0
C1935 C 0.27691 0.74026 0.69585 0.0
H1936 H 0.33129 0.75638 0.62411 0.0
H1937 H 0.35393 0.7161 0.67979 0.0
H1938 H 0.28659 0.77048 0.65218 0.0
H1939 H 0.30727 0.7964 0.65339 0.0
H1940 H 0.30068 0.77401 0.62643 0.0
H1941 H 0.3448 0.72286 0.71941 0.0
H1942 H 0.33836 0.7533 0.72801 0.0
H1943 H 0.31776 0.72706 0.71931 0.0
H1944 H 0.32683 0.82608 0.7371 0.0
H1945 H 0.2732 0.76974 0.73652 0.0
H1946 H 0.33957 0.80813 0.67872 0.0
H1947 H 0.35366 0.79374 0.70065 0.0
H1948 H 0.34959 0.82538 0.70794 0.0
H1949 H 0.26015 0.74252 0.69513 0.0
H1950 H 0.2793 0.72586 0.70765 0.0
H1951 H 0.28004 0.73347 0.67737 0.0
C1952 C 0.64401 0.05103 0.90135 0.0
C1953 C 0.64183 0.03012 0.88327 0.0
C1954 C 0.63145 0.05207 0.92078 0.0
C1955 C 0.61658 0.03111 0.92392 0.0
C1956 C 0.61447 1.00965 0.906 0.0
C1957 C 0.62657 1.00961 0.88592 0.0
C1958 C 0.63448 0.07594 0.93815 0.0
C1959 C 0.59985 0.9862 0.90848 0.0
C1960 C 0.60117 0.03002 0.98978 0.0
C1961 C 0.58038 0.03498 0.98801 0.0
C1962 C 0.61259 0.02779 0.96931 0.0
C1963 C 0.60376 0.03165 0.94596 0.0
C1964 C 0.5829 0.03722 0.94423 0.0
C1965 C 0.57151 0.03822 0.96477 0.0
C1966 C 0.63436 0.02136 0.97293 0.0
C1967 C 0.57283 0.04338 0.9208 0.0
H1968 H 0.65559 0.06709 0.90042 0.0
H1969 H 0.62465 0.99301 0.87276 0.0
H1970 H 0.61931 0.07984 0.9439 0.0
H1971 H 0.64501 0.07428 0.9545 0.0
H1972 H 0.64183 0.09212 0.93007 0.0
H1973 H 0.60121 0.97038 0.89472 0.0
H1974 H 0.60332 0.98091 0.92674 0.0
H1975 H 0.58335 0.98945 0.90658 0.0
H1976 H 0.60854 0.02745 1.00729 0.0
H1977 H 0.55571 0.04248 0.96274 0.0
H1978 H 0.64616 0.03844 0.97374 0.0
H1979 H 0.6369 1.00779 0.95763 0.0
H1980 H 0.6372 1.01344 0.99001 0.0
H1981 H 0.58226 0.06036 0.91607 0.0
H1982 H 0.55646 0.0467 0.92185 0.0
H1983 H 0.57267 0.02812 0.9059 0.0
C1984 C 0.32536 0.35058 0.13966 0.0
C1985 C 0.32213 0.37516 0.13857 0.0
C1986 C 0.3221 0.33901 0.16023 0.0
C1987 C 0.3147 0.35196 0.18011 0.0
C1988 C 0.31114 0.37674 0.17905 0.0
C1989 C 0.31529 0.38823 0.15847 0.0
C1990 C 0.32633 0.31272 0.16048 0.0
C1991 C 0.30224 0.39074 0.19929 0.0
C1992 C 0.28601 0.30936 0.2191 0.0
C1993 C 0.30088 0.31106 0.23951 0.0
C1994 C 0.28995 0.32337 0.20028 0.0
C1995 C 0.30965 0.33893 0.20128 0.0
C1996 C 0.32478 0.3408 0.22188 0.0
C1997 C 0.32003 0.32726 0.24102 0.0
C1998 C 0.273 0.32126 0.17921 0.0
C1999 C 0.34623 0.35647 0.22333 0.0
H2000 H 0.33061 0.34033 0.12433 0.0
H2001 H 0.31243 0.40707 0.15757 0.0
H2002 H 0.33634 0.31141 0.17738 0.0
H2003 H 0.31132 0.2998 0.15999 0.0
H2004 H 0.33422 0.30628 0.14482 0.0
H2005 H 0.29984 0.40959 0.19553 0.0
H2006 H 0.28693 0.3801 0.20217 0.0
H2007 H 0.31293 0.39268 0.21638 0.0
H2008 H 0.27099 0.29719 0.21792 0.0
H2009 H 0.33147 0.32893 0.2568 0.0
H2010 H 0.27779 0.31133 0.16284 0.0
H2011 H 0.27068 0.34003 0.17521 0.0
H2012 H 0.25772 0.31095 0.18265 0.0
H2013 H 0.35435 0.34952 0.20809 0.0
H2014 H 0.3562 0.35614 0.24056 0.0
H2015 H 0.34469 0.37604 0.22156 0.0
C2016 C 0.22307 0.93804 0.03981 0.0
C2017 C 0.21576 0.91652 0.02338 0.0
C2018 C 0.20908 0.9506 0.05118 0.0
C2019 C 0.18744 0.94062 0.04641 0.0
C2020 C 0.18016 0.91767 0.03136 0.0
C2021 C 0.19463 0.90573 0.0198 0.0
C2022 C 0.21736 0.97514 0.06715 0.0
C2023 C 0.15714 0.90648 0.02662 0.0
C2024 C 0.15475 0.97626 0.08415 0.0
C2025 C 0.15009 0.9936 0.0689 0.0
C2026 C 0.16602 0.95762 0.07657 0.0
C2027 C 0.17262 0.95669 0.05339 0.0
C2028 C 0.16769 0.97382 0.0378 0.0
C2029 C 0.15682 0.99237 0.04596 0.0
C2030 C 0.17151 0.93961 0.09356 0.0
C2031 C 0.17492 0.97347 1.01301 0.0
H2032 H 0.2398 0.94482 0.0441 0.0
H2033 H 0.18955 0.8881 1.00815 0.0
H2034 H 0.21148 0.9905 0.05885 0.0
H2035 H 0.21162 0.97499 0.08504 0.0
H2036 H 0.23482 0.97933 0.06991 0.0
H2037 H 0.15461 0.88677 0.01795 0.0
H2038 H 0.14993 0.90741 0.04369 0.0
H2039 H 0.14884 0.91732 1.01448 0.0
H2040 H 0.14954 0.97716 0.10189 0.0
H2041 H 0.15391 1.00623 0.03442 0.0
H2042 H 0.18839 0.94461 0.1009 0.0
H2043 H 0.16905 0.92033 0.08388 0.0
H2044 H 0.16208 0.93996 0.10897 0.0
H2045 H 0.19229 0.97874 1.01489 0.0
H2046 H 0.16788 0.98658 1.00233 0.0
H2047 H 0.17076 0.95449 1.00265 0.0
C2048 C 0.7057 0.61889 0.03474 0.0
C2049 C 0.70853 0.64407 0.03128 0.0
C2050 C 0.68556 0.60532 0.0363 0.0
C2051 C 0.66777 0.61755 0.03621 0.0
C2052 C 0.6708 0.64336 0.03427 0.0
C2053 C 0.69086 0.65605 0.03135 0.0
C2054 C 0.68334 0.57786 0.03807 0.0
C2055 C 0.65287 0.6578 0.0359 0.0
C2056 C 0.61145 0.58198 0.0171 0.0
C2057 C 0.60368 0.57916 0.03924 0.0
C2058 C 0.63218 0.59392 1.01597 0.0
C2059 C 0.6459 0.60354 0.0375 0.0
C2060 C 0.63825 0.60064 0.06001 0.0
C2061 C 0.61735 0.58852 0.0606 0.0
C2062 C 0.63948 0.59613 0.99157 0.0
C2063 C 0.6522 0.61008 0.08354 0.0
H2064 H 0.71934 0.60992 0.03701 0.0
H2065 H 0.69283 0.67575 0.0298 0.0
H2066 H 0.67527 0.57344 0.05382 0.0
H2067 H 0.67344 0.56718 0.02171 0.0
H2068 H 0.69876 0.5714 0.03974 0.0
H2069 H 0.65789 0.67798 0.03536 0.0
H2070 H 0.64022 0.65034 0.02079 0.0
H2071 H 0.64604 0.65555 0.05298 0.0
H2072 H 0.60127 0.57462 1.00043 0.0
H2073 H 0.61185 0.58603 0.07784 0.0
H2074 H 0.65383 0.58761 0.99021 0.0
H2075 H 0.64372 0.61605 0.98946 0.0
H2076 H 0.62732 0.58694 0.97646 0.0
H2077 H 0.66443 0.59819 0.0859 0.0
H2078 H 0.64322 0.60979 0.09931 0.0
H2079 H 0.66041 0.62936 0.08346 0.0
C2080 C 0.69854 0.44481 0.30267 0.0
C2081 C 0.70283 0.46314 0.32343 0.0
C2082 C 0.70937 0.42363 0.29994 0.0
C2083 C 0.72512 0.41969 0.31834 0.0
C2084 C 0.72923 0.43797 0.33932 0.0
C2085 C 0.71843 0.45889 0.34146 0.0
C2086 C 0.70406 0.40544 0.27699 0.0
C2087 C 0.74533 0.43554 0.3599 0.0
C2088 C 0.74123 0.35312 0.32118 0.0
C2089 C 0.76147 0.35529 0.31356 0.0
C2090 C 0.72956 0.37347 0.32294 0.0
C2091 C 0.7374 0.39704 0.31592 0.0
C2092 C 0.75767 0.39906 0.3077 0.0
C2093 C 0.76938 0.37878 0.30713 0.0
C2094 C 0.70878 0.36976 0.33286 0.0
C2095 C 0.76702 0.42277 0.29903 0.0
H2096 H 0.68696 0.4472 0.2882 0.0
H2097 H 0.72252 0.47229 0.35772 0.0
H2098 H 0.71864 0.40212 0.2693 0.0
H2099 H 0.69611 0.3873 0.28103 0.0
H2100 H 0.69354 0.41207 0.2632 0.0
H2101 H 0.74603 0.45012 0.37565 0.0
H2102 H 0.74165 0.41697 0.36584 0.0
H2103 H 0.76114 0.43697 0.35379 0.0
H2104 H 0.73465 0.33553 0.32651 0.0
H2105 H 0.78479 0.38123 0.30108 0.0
H2106 H 0.69594 0.37072 0.31855 0.0
H2107 H 0.70856 0.38488 0.34783 0.0
H2108 H 0.70551 0.35156 0.33965 0.0
H2109 H 0.75621 0.42677 0.2839 0.0
H2110 H 0.78259 0.42168 0.29277 0.0
H2111 H 0.76886 0.4387 0.31369 0.0
C2112 C 0.82282 0.42244 0.53374 0.0
C2113 C 0.81899 0.39704 0.52472 0.0
C2114 C 0.84331 0.43516 0.54075 0.0
C2115 C 0.86023 0.42173 0.54005 0.0
C2116 C 0.85625 0.39556 0.53388 0.0
C2117 C 0.83566 0.38353 0.52564 0.0
C2118 C 0.84687 0.46308 0.54775 0.0
C2119 C 0.87383 0.38049 0.53509 0.0
C2120 C 0.90687 0.4558 0.51698 0.0
C2121 C 0.91861 0.46835 0.53829 0.0
C2122 C 0.88845 0.4394 0.5175 0.0
C2123 C 0.88159 0.4355 0.54006 0.0
C2124 C 0.89427 0.4468 0.56186 0.0
C2125 C 0.91279 0.46336 0.5607 0.0
C2126 C 0.87671 0.42634 0.49365 0.0
C2127 C 0.88837 0.44193 0.58633 0.0
H2128 H 0.8098 0.4324 0.53551 0.0
H2129 H 0.83259 0.36355 0.5201 0.0
H2130 H 0.85684 0.46852 0.56537 0.0
H2131 H 0.85528 0.47221 0.53411 0.0
H2132 H 0.83193 0.47035 0.54917 0.0
H2133 H 0.86784 0.36059 0.53603 0.0
H2134 H 0.88193 0.38146 0.51872 0.0
H2135 H 0.88563 0.38806 0.55107 0.0
H2136 H 0.91212 0.45899 0.49973 0.0
H2137 H 0.92243 0.4727 0.57717 0.0
H2138 H 0.85963 0.42168 0.49434 0.0
H2139 H 0.88267 0.40873 0.48879 0.0
H2140 H 0.8794 0.43777 0.47892 0.0
H2141 H 0.8813 0.45766 0.59442 0.0
H2142 H 0.90262 0.44097 0.59874 0.0
H2143 H 0.87703 0.42441 0.58537 0.0
C2144 C 0.40212 0.14345 0.29919 0.0
C2145 C 0.39175 0.11973 0.3025 0.0
C2146 C 0.3914 0.16468 0.2987 0.0
C2147 C 0.36936 0.16287 0.30069 0.0
C2148 C 0.35884 0.13884 0.30342 0.0
C2149 C 0.36995 0.11834 0.30474 0.0
C2150 C 0.40382 0.18944 0.29636 0.0
C2151 C 0.33555 0.13464 0.30523 0.0
C2152 C 0.34453 0.22224 0.32169 0.0
C2153 C 0.33383 0.22782 0.30032 0.0
C2154 C 0.35568 0.20153 0.32208 0.0
C2155 C 0.35739 0.18573 0.30042 0.0
C2156 C 0.34678 0.19149 0.27871 0.0
C2157 C 0.33503 0.21175 0.27898 0.0
C2158 C 0.36537 0.19627 0.34605 0.0
C2159 C 0.34803 0.17629 0.25485 0.0
H2160 H 0.41881 0.14575 0.29776 0.0
H2161 H 0.36117 0.10083 0.3077 0.0
H2162 H 0.39637 0.19684 0.28075 0.0
H2163 H 0.40355 0.20291 0.31269 0.0
H2164 H 0.42042 0.18813 0.29398 0.0
H2165 H 0.32929 0.11494 0.30668 0.0
H2166 H 0.33225 0.14666 0.32126 0.0
H2167 H 0.32689 0.13994 0.2891 0.0
H2168 H 0.34367 0.23377 0.33853 0.0
H2169 H 0.32701 0.21529 0.26218 0.0
H2170 H 0.38254 0.1969 0.34597 0.0
H2171 H 0.35862 0.17722 0.34908 0.0
H2172 H 0.36271 0.20976 0.36137 0.0
H2173 H 0.3646 0.17873 0.25097 0.0
H2174 H 0.33819 0.1818 0.2397 0.0
H2175 H 0.34296 0.15619 0.25567 0.0
C2176 C 0.32473 0.1365 0.55844 0.0
C2177 C 0.32058 0.14778 0.53782 0.0
C2178 C 0.34416 0.12864 0.56381 0.0
C2179 C 0.35996 0.13257 0.54836 0.0
C2180 C 0.35608 0.14499 0.52806 0.0
C2181 C 0.33631 0.15213 0.52283 0.0
C2182 C 0.34747 0.11531 0.58549 0.0
C2183 C 0.37262 0.15009 0.51147 0.0
C2184 C 0.41631 0.12566 0.57045 0.0
C2185 C 0.41755 0.10184 0.55881 0.0
C2186 C 0.39776 0.13595 0.56728 0.0
C2187 C 0.37985 0.12203 0.5523 0.0
C2188 C 0.38097 0.09791 0.54071 0.0
C2189 C 0.39976 0.08821 0.54399 0.0
C2190 C 0.39737 0.16176 0.57988 0.0
C2191 C 0.3622 0.08219 0.52494 0.0
H2192 H 0.31245 0.133 0.56991 0.0
H2193 H 0.33304 0.16079 0.50684 0.0
H2194 H 0.35119 0.09657 0.57974 0.0
H2195 H 0.36106 0.12574 0.59818 0.0
H2196 H 0.33343 0.11314 0.59531 0.0
H2197 H 0.36786 0.16171 0.49769 0.0
H2198 H 0.38766 0.1597 0.52209 0.0
H2199 H 0.37561 0.13223 0.50205 0.0
H2200 H 0.42997 0.13641 0.58186 0.0
H2201 H 0.40038 0.06963 0.5353 0.0
H2202 H 0.38565 0.16086 0.59291 0.0
H2203 H 0.39248 0.17376 0.56654 0.0
H2204 H 0.41292 0.1707 0.5898 0.0
H2205 H 0.34859 0.07969 0.53536 0.0
H2206 H 0.36539 0.06353 0.5178 0.0
H2207 H 0.35758 0.09178 0.50945 0.0
C2208 C 0.72042 0.59825 0.32013 0.0
C2209 C 0.69907 0.59569 0.32416 0.0
C2210 C 0.73301 0.62189 0.31898 0.0
C2211 C 0.72426 0.6443 0.32072 0.0
C2212 C 0.70248 0.64166 0.32373 0.0
C2213 C 0.69043 0.61789 0.32553 0.0
C2214 C 0.75587 0.62284 0.31572 0.0
C2215 C 0.69164 0.66409 0.32447 0.0
C2216 C 0.76102 0.70947 0.33881 0.0
C2217 C 0.76432 0.718 0.31662 0.0
C2218 C 0.74784 0.6864 0.34036 0.0
C2219 C 0.73765 0.67019 0.31921 0.0
C2220 C 0.74075 0.6789 0.29667 0.0
C2221 C 0.75398 0.70218 0.29567 0.0
C2222 C 0.74601 0.67873 0.36493 0.0
C2223 C 0.7306 0.66323 0.27327 0.0
H2224 H 0.7273 0.58155 0.31727 0.0
H2225 H 0.67392 0.61668 0.32775 0.0
H2226 H 0.75916 0.63077 0.29903 0.0
H2227 H 0.76581 0.6353 0.33106 0.0
H2228 H 0.76059 0.60416 0.31455 0.0
H2229 H 0.67471 0.65939 0.32661 0.0
H2230 H 0.69943 0.67849 0.33964 0.0
H2231 H 0.69302 0.67238 0.30754 0.0
H2232 H 0.76938 0.7206 0.35521 0.0
H2233 H 0.75682 0.70759 0.27823 0.0
H2234 H 0.75609 0.66447 0.36728 0.0
H2235 H 0.72963 0.67036 0.3666 0.0
H2236 H 0.75136 0.6946 0.37964 0.0
H2237 H 0.73929 0.64764 0.26917 0.0
H2238 H 0.73075 0.67419 0.25791 0.0
H2239 H 0.71411 0.65504 0.27468 0.0
C2240 C 0.90642 0.46827 0.8051 0.0
C2241 C 0.89695 0.48826 0.79822 0.0
C2242 C 0.89473 0.44386 0.80455 0.0
C2243 C 0.87271 0.43846 0.7966 0.0
C2244 C 0.86314 0.45851 0.78921 0.0
C2245 C 0.87525 0.48271 0.78983 0.0
C2246 C 0.90608 0.42374 0.81269 0.0
C2247 C 0.8399 0.45444 0.78065 0.0
C2248 C 0.84402 0.36939 0.7772 0.0
C2249 C 0.83473 0.3636 0.79789 0.0
C2250 C 0.85627 0.39327 0.77642 0.0
C2251 C 0.8597 0.41231 0.79681 0.0
C2252 C 0.85053 0.40614 0.81768 0.0
C2253 C 0.83826 0.38245 0.81791 0.0
C2254 C 0.8657 0.39803 0.75369 0.0
C2255 C 0.85329 0.42486 0.83994 0.0
H2256 H 0.92313 0.4718 0.81126 0.0
H2257 H 0.86766 0.49735 0.78344 0.0
H2258 H 0.89945 0.41693 0.82854 0.0
H2259 H 0.90372 0.40765 0.79811 0.0
H2260 H 0.92322 0.43038 0.81768 0.0
H2261 H 0.83468 0.47151 0.77515 0.0
H2262 H 0.83595 0.4393 0.76511 0.0
H2263 H 0.8309 0.44844 0.79527 0.0
H2264 H 0.84173 0.35525 0.7615 0.0
H2265 H 0.83143 0.37867 0.83415 0.0
H2266 H 0.88306 0.40283 0.75776 0.0
H2267 H 0.86004 0.4142 0.7467 0.0
H2268 H 0.86169 0.38165 0.73933 0.0
H2269 H 0.87025 0.43179 0.84581 0.0
H2270 H 0.84601 0.41737 0.85516 0.0
H2271 H 0.84576 0.44061 0.83526 0.0
C2272 C 0.0719 0.86281 0.10912 0.0
C2273 C 0.07534 0.86348 0.13435 0.0
C2274 C 0.06866 0.88388 0.09859 0.0
C2275 C 0.06938 0.90668 0.11353 0.0
C2276 C 0.07397 0.90803 0.13897 0.0
C2277 C 0.07683 0.8863 0.14918 0.0
C2278 C 0.06356 0.88141 0.07143 0.0
C2279 C 0.07487 0.93217 0.15537 0.0
C2280 C 0.07713 0.9645 0.08237 0.0
C2281 C 0.05645 0.96874 0.0776 0.0
C2282 C 0.08156 0.94452 0.09431 0.0
C2283 C 0.06499 0.92881 0.10221 0.0
C2284 C 0.04405 0.93304 0.09745 0.0
C2285 C 0.04002 0.95282 0.085 0.0
C2286 C 0.10395 0.94005 0.09825 0.0
C2287 C 0.02587 0.91655 0.10529 0.0
H2288 H 0.07066 0.84529 0.09745 0.0
H2289 H 0.07907 0.8869 0.16863 0.0
H2290 H 0.04755 0.88557 0.06674 0.0
H2291 H 0.07471 0.89506 0.06402 0.0
H2292 H 0.06421 0.86243 0.06235 0.0
H2293 H 0.07983 0.9306 0.17456 0.0
H2294 H 0.08598 0.94718 0.14965 0.0
H2295 H 0.05915 0.93787 0.15395 0.0
H2296 H 0.08988 0.97677 0.07669 0.0
H2297 H 0.02399 0.95611 0.0815 0.0
H2298 H 0.10501 0.92075 0.09052 0.0
H2299 H 0.10935 0.94223 0.11789 0.0
H2300 H 0.11469 0.95311 0.08977 0.0
H2301 H 0.02405 0.89745 0.09534 0.0
H2302 H 1.01079 0.92356 0.10194 0.0
H2303 H 0.02898 0.91516 0.12482 0.0
C2304 C 0.93922 0.28411 0.91682 0.0
C2305 C 0.9547 0.27402 0.90505 0.0
C2306 C 0.91943 0.28553 0.90432 0.0
C2307 C 0.91454 0.27625 0.87931 0.0
C2308 C 0.9303 0.26629 0.86728 0.0
C2309 C 0.94996 0.26502 0.88029 0.0
C2310 C 0.90363 0.29692 0.91799 0.0
C2311 C 0.92643 0.257 0.84058 0.0
C2312 C 0.85648 0.25506 0.85189 0.0
C2313 C 0.85152 0.27591 0.8417 0.0
C2314 C 0.87664 0.25511 0.86437 0.0
C2315 C 0.89276 0.2762 0.86616 0.0
C2316 C 0.88771 0.29722 0.85571 0.0
C2317 C 0.8673 0.29691 0.84389 0.0
C2318 C 0.88069 0.2325 0.87572 0.0
C2319 C 0.90407 0.31971 0.85571 0.0
H2320 H 0.94265 0.29102 0.93596 0.0
H2321 H 0.96156 0.2566 0.87112 0.0
H2322 H 0.89934 0.31303 0.90959 0.0
H2323 H 0.88904 0.28311 0.91694 0.0
H2324 H 0.90972 0.30339 0.93729 0.0
H2325 H 0.94002 0.24941 0.83389 0.0
H2326 H 0.9123 0.24228 0.83644 0.0
H2327 H 0.92332 0.27252 0.83053 0.0
H2328 H 0.84448 0.23865 0.85019 0.0
H2329 H 0.86394 0.31291 0.83557 0.0
H2330 H 0.88603 0.23797 0.89532 0.0
H2331 H 0.89346 0.22447 0.86757 0.0
H2332 H 0.86648 0.21787 0.87341 0.0
H2333 H 0.9149 0.32372 0.87276 0.0
H2334 H 0.89698 0.33651 0.85298 0.0
H2335 H 0.91312 0.31569 0.84049 0.0
C2336 C 0.58246 0.21933 0.65649 0.0
C2337 C 0.57504 0.23744 0.64381 0.0
C2338 C 0.58498 0.19637 0.6443 0.0
C2339 C 0.57779 0.19046 0.61938 0.0
C2340 C 0.571 0.20882 0.60641 0.0
C2341 C 0.57136 0.23264 0.61867 0.0
C2342 C 0.59503 0.1784 0.65809 0.0
C2343 C 0.562 0.20303 0.58008 0.0
C2344 C 0.58459 0.1323 0.57922 0.0
C2345 C 0.56573 0.11673 0.58085 0.0
C2346 C 0.58929 0.1563 0.59248 0.0
C2347 C 0.57476 0.16447 0.60756 0.0
C2348 C 0.55614 0.14834 0.60991 0.0
C2349 C 0.55193 0.12465 0.59661 0.0
C2350 C 0.60936 0.17314 0.58975 0.0
C2351 C 0.54024 0.15634 0.62583 0.0
H2352 H 0.58688 0.22326 0.67587 0.0
H2353 H 0.56888 0.24743 0.60857 0.0
H2354 H 0.58272 0.16376 0.66229 0.0
H2355 H 0.60561 0.16909 0.64709 0.0
H2356 H 0.60426 0.18796 0.67535 0.0
H2357 H 0.56217 0.22016 0.57147 0.0
H2358 H 0.57055 0.1904 0.56957 0.0
H2359 H 0.54551 0.19334 0.5788 0.0
H2360 H 0.59536 0.12597 0.56727 0.0
H2361 H 0.53768 0.11226 0.59856 0.0
H2362 H 0.61716 0.18289 0.60762 0.0
H2363 H 0.60573 0.18762 0.57857 0.0
H2364 H 0.62053 0.16271 0.58087 0.0
H2365 H 0.54752 0.16097 0.64489 0.0
H2366 H 0.52623 0.14164 0.62495 0.0
H2367 H 0.53492 0.17335 0.62035 0.0
C2368 C 0.58191 0.807 0.42226 0.0
C2369 C 0.5686 0.78386 0.41708 0.0
C2370 C 0.60218 0.8103 0.41504 0.0
C2371 C 0.60914 0.79003 0.4019 0.0
C2372 C 0.59604 0.76632 0.39762 0.0
C2373 C 0.57591 0.76353 0.40525 0.0
C2374 C 0.61547 0.83592 0.42002 0.0
C2375 C 0.60275 0.74429 0.38352 0.0
C2376 C 0.64634 0.80316 0.35517 0.0
C2377 C 0.66562 0.79923 0.3666 0.0
C2378 C 0.62808 0.80076 0.36668 0.0
C2379 C 0.62891 0.79409 0.39028 0.0
C2380 C 0.64836 0.79048 0.40214 0.0
C2381 C 0.66646 0.79297 0.39014 0.0
C2382 C 0.60779 0.80506 0.35336 0.0
C2383 C 0.65001 0.78401 0.42752 0.0
H2384 H 0.57604 0.82287 0.43094 0.0
H2385 H 0.5654 0.7458 0.40072 0.0
H2386 H 0.63212 0.83482 0.4259 0.0
H2387 H 0.61503 0.8446 0.40319 0.0
H2388 H 0.60968 0.84828 0.43408 0.0
H2389 H 0.59157 0.72675 0.38329 0.0
H2390 H 0.60383 0.74774 0.3646 0.0
H2391 H 0.61859 0.7418 0.39132 0.0
H2392 H 0.64542 0.80771 0.33691 0.0
H2393 H 0.68133 0.79029 0.39927 0.0
H2394 H 0.60141 0.8199 0.36404 0.0
H2395 H 0.59588 0.78785 0.35102 0.0
H2396 H 0.60987 0.81057 0.33528 0.0
H2397 H 0.64476 0.79858 0.43983 0.0
H2398 H 0.6663 0.78222 0.43444 0.0
H2399 H 0.63946 0.7662 0.42806 0.0
C2400 C 0.07699 0.26447 0.48033 0.0
C2401 C 0.06492 0.28016 0.4699 0.0
C2402 C 0.06764 0.24622 0.49287 0.0
C2403 C 0.04605 0.24474 0.49567 0.0
C2404 C 0.03401 0.26133 0.48598 0.0
C2405 C 0.04357 0.27867 0.47267 0.0
C2406 C 0.08077 0.22843 0.50284 0.0
C2407 C 1.01125 0.26089 0.48994 0.0
C2408 C 0.02018 0.18139 0.50446 0.0
C2409 C 0.02282 0.18352 0.52967 0.0
C2410 C 0.02681 0.20179 0.49303 0.0
C2411 C 0.03579 0.22466 0.50735 0.0
C2412 C 0.0367 0.22749 0.53276 0.0
C2413 C 0.0303 0.20665 0.54372 0.0
C2414 C 0.02578 0.19836 0.46581 0.0
C2415 C 0.0459 0.25189 0.54842 0.0
H2416 H 0.09366 0.26655 0.47867 0.0
H2417 H 0.03462 0.29182 0.46537 0.0
H2418 H 0.08028 0.22913 0.52256 0.0
H2419 H 0.07421 0.20909 0.49432 0.0
H2420 H 0.09745 0.23268 0.49954 0.0
H2421 H 1.00468 0.27655 0.48294 0.0
H2422 H 1.0016 0.24311 0.48081 0.0
H2423 H 1.00967 0.26185 0.50949 0.0
H2424 H 1.01424 0.16338 0.49377 0.0
H2425 H 0.03259 0.20808 0.56326 0.0
H2426 H 0.04196 0.20115 0.46065 0.0
H2427 H 1.01752 0.21247 0.45822 0.0
H2428 H 1.0176 0.17954 0.45737 0.0
H2429 H 0.06326 0.25511 0.549 0.0
H2430 H 0.04206 0.252 0.56724 0.0
H2431 H 0.04006 0.26767 0.54087 0.0
C2432 C 0.57466 0.23619 0.20009 0.0
C2433 C 0.57206 0.24708 0.17909 0.0
C2434 C 0.59471 0.23552 0.21102 0.0
C2435 C 0.6121 0.24673 0.2008 0.0
C2436 C 0.60948 0.25727 0.17918 0.0
C2437 C 0.58918 0.25695 0.16822 0.0
C2438 C 0.59725 0.22333 0.23362 0.0
C2439 C 0.62801 0.26934 0.1681 0.0
C2440 C 0.66189 0.27045 0.24228 0.0
C2441 C 0.67321 0.25145 0.23637 0.0
C2442 C 0.64154 0.26896 0.23089 0.0
C2443 C 0.63307 0.24822 0.21325 0.0
C2444 C 0.64456 0.22895 0.20743 0.0
C2445 C 0.66469 0.23081 0.21928 0.0
C2446 C 0.62922 0.28954 0.23742 0.0
C2447 C 0.63574 0.20664 0.18865 0.0
H2448 H 0.56099 0.22795 0.20774 0.0
H2449 H 0.58665 0.26487 0.15162 0.0
H2450 H 0.60871 0.21031 0.23205 0.0
H2451 H 0.60352 0.2378 0.24933 0.0
H2452 H 0.58213 0.21288 0.23735 0.0
H2453 H 0.62314 0.27548 0.15056 0.0
H2454 H 0.63656 0.28579 0.18067 0.0
H2455 H 0.63922 0.25622 0.1652 0.0
H2456 H 0.66899 0.28634 0.25557 0.0
H2457 H 0.674 0.21643 0.2149 0.0
H2458 H 0.61435 0.28175 0.24391 0.0
H2459 H 0.62492 0.29819 0.22117 0.0
H2460 H 0.63819 0.30427 0.25166 0.0
H2461 H 0.62111 0.19652 0.19387 0.0
H2462 H 0.64703 0.19347 0.18631 0.0
H2463 H 0.63155 0.2128 0.17097 0.0
C2464 C 0.5925 0.93112 1.00204 0.0
C2465 C 0.58789 0.90535 0.99598 0.0
C2466 C 0.58191 0.94291 0.01926 0.0
C2467 C 0.56525 0.92848 0.02849 0.0
C2468 C 0.5616 0.90238 0.02354 0.0
C2469 C 0.57415 0.89102 1.00862 0.0
C2470 C 0.58709 0.97089 0.02561 0.0
C2471 C 0.54267 0.88674 0.03098 0.0
C2472 C 0.54191 0.96518 0.07559 0.0
C2473 C 0.53234 0.97939 0.06016 0.0
C2474 C 0.55224 0.94667 0.06558 0.0
C2475 C 0.54986 0.94085 0.04019 0.0
C2476 C 0.53453 0.95016 0.02571 0.0
C2477 C 0.52503 0.96901 0.03643 0.0
C2478 C 0.5684 0.93713 0.08164 0.0
C2479 C 0.53078 0.94346 0.99863 0.0
H2480 H 0.60326 0.94201 0.9923 0.0
H2481 H 0.57101 0.87095 1.00432 0.0
H2482 H 0.57491 0.97961 1.01609 0.0
H2483 H 0.58731 0.97635 0.04531 0.0
H2484 H 0.60259 0.97845 0.02032 0.0
H2485 H 0.54338 0.86652 0.02792 0.0
H2486 H 0.54102 0.89223 0.05023 0.0
H2487 H 0.52823 0.88988 0.02016 0.0
H2488 H 0.54607 0.97263 0.09456 0.0
H2489 H 0.51624 0.9792 0.02494 0.0
H2490 H 0.58409 0.9483 0.08109 0.0
H2491 H 0.56926 0.91741 0.07541 0.0
H2492 H 0.56499 0.93894 0.10068 0.0
H2493 H 0.54402 0.95326 0.99054 0.0
H2494 H 0.51604 0.94908 0.99093 0.0
H2495 H 0.52994 0.92315 0.99336 0.0
C2496 C 0.95702 0.74132 0.70532 0.0
C2497 C 0.97422 0.76075 0.71076 0.0
C2498 C 0.94176 0.73899 0.72087 0.0
C2499 C 0.94399 0.7567 0.74173 0.0
C2500 C 0.9621 0.77519 0.74814 0.0
C2501 C 0.97684 0.7772 0.73226 0.0
C2502 C 0.92254 0.71907 0.71403 0.0
C2503 C 0.96487 0.79482 0.77016 0.0
C2504 C 0.90228 0.79063 0.75835 0.0
C2505 C 0.90045 0.78466 0.78161 0.0
C2506 C 0.91437 0.77866 0.74353 0.0
C2507 C 0.92559 0.7611 0.75283 0.0
C2508 C 0.92307 0.75384 0.7757 0.0
C2509 C 0.91017 0.76568 0.78998 0.0
C2510 C 0.91742 0.78756 0.71942 0.0
C2511 C 0.93581 0.73577 0.78587 0.0
H2512 H 0.95534 0.72813 0.68894 0.0
H2513 H 0.99032 0.79204 0.73669 0.0
H2514 H 0.91771 0.71106 0.7302 0.0
H2515 H 0.90929 0.72739 0.70624 0.0
H2516 H 0.9253 0.70385 0.70039 0.0
H2517 H 0.98127 0.80507 0.77423 0.0
H2518 H 0.95434 0.80855 0.76693 0.0
H2519 H 0.9607 0.78651 0.78636 0.0
H2520 H 0.89521 0.80576 0.75214 0.0
H2521 H 0.90839 0.76089 0.80788 0.0
H2522 H 0.91665 0.77164 0.70502 0.0
H2523 H 0.93315 0.79931 0.72074 0.0
H2524 H 0.90542 0.79886 0.7138 0.0
H2525 H 0.93555 0.71941 0.77208 0.0
H2526 H 0.93007 0.72951 0.80242 0.0
H2527 H 0.9525 0.74472 0.79056 0.0
C2528 C 0.15029 0.0248 0.91186 0.0
C2529 C 0.14183 0.02415 0.8874 0.0
C2530 C 0.1379 0.02526 0.93163 0.0
C2531 C 0.11581 0.02536 0.92801 0.0
C2532 C 0.10701 0.02467 0.90337 0.0
C2533 C 0.11983 0.02405 0.88377 0.0
C2534 C 0.14871 0.02556 0.95676 0.0
C2535 C 0.08386 0.02502 0.89764 0.0
C2536 C 0.08097 1.00356 0.97788 0.0
C2537 C 0.07864 0.02579 0.99238 0.0
C2538 C 0.09249 1.00321 0.95733 0.0
C2539 C 0.10228 0.02567 0.94982 0.0
C2540 C 0.09974 0.04825 0.96416 0.0
C2541 C 0.08834 0.04805 0.98492 0.0
C2542 C 0.0943 0.97841 0.94361 0.0
C2543 C 0.10913 0.07296 0.95751 0.0
H2544 H 0.16702 0.02501 0.9158 0.0
H2545 H 0.11252 0.02381 0.8655 0.0
H2546 H 0.14666 0.04253 0.96855 0.0
H2547 H 0.1414 1.00926 0.96465 0.0
H2548 H 0.16579 0.02513 0.95703 0.0
H2549 H 0.07883 0.02289 0.87789 0.0
H2550 H 0.07451 1.00988 0.9053 0.0
H2551 H 0.08015 0.0429 0.90617 0.0
H2552 H 0.07373 0.98601 0.98271 0.0
H2553 H 0.08684 0.06558 0.99522 0.0
H2554 H 0.11111 0.97657 0.94378 0.0
H2555 H 0.08759 0.97725 0.92446 0.0
H2556 H 0.08605 0.9625 0.95133 0.0
H2557 H 0.12653 0.07513 0.96026 0.0
H2558 H 0.10427 0.08886 0.96847 0.0
H2559 H 0.10436 0.0737 0.9381 0.0
C2560 C 0.77005 0.35233 0.60654 0.0
C2561 C 0.77292 0.34835 0.58232 0.0
C2562 C 0.78294 0.34305 0.62349 0.0
C2563 C 0.79959 0.33133 0.61568 0.0
C2564 C 0.80233 0.32731 0.5911 0.0
C2565 C 0.78839 0.33516 0.57458 0.0
C2566 C 0.77904 0.34614 0.64959 0.0
C2567 C 0.82033 0.31555 0.58236 0.0
C2568 C 0.845 0.33306 0.66315 0.0
C2569 C 0.84084 0.30882 0.66877 0.0
C2570 C 0.83198 0.34049 0.64502 0.0
C2571 C 0.81439 0.32332 0.6331 0.0
C2572 C 0.81095 0.29841 0.63756 0.0
C2573 C 0.82459 0.29129 0.65511 0.0
C2574 C 0.83626 0.36697 0.63962 0.0
C2575 C 0.79187 0.27996 0.62547 0.0
H2576 H 0.75791 0.36257 0.61208 0.0
H2577 H 0.79022 0.33193 0.55558 0.0
H2578 H 0.77917 0.32833 0.65702 0.0
H2579 H 0.79176 0.36016 0.6604 0.0
H2580 H 0.76374 0.35234 0.65188 0.0
H2581 H 0.82052 0.31481 0.56255 0.0
H2582 H 0.83553 0.3263 0.59163 0.0
H2583 H 0.81928 0.29632 0.58687 0.0
H2584 H 0.85725 0.34661 0.67424 0.0
H2585 H 0.82098 0.27276 0.66008 0.0
H2586 H 0.82353 0.37699 0.64511 0.0
H2587 H 0.83642 0.36712 0.61991 0.0
H2588 H 0.85149 0.37734 0.64924 0.0
H2589 H 0.77743 0.28609 0.63133 0.0
H2590 H 0.7923 0.26087 0.62998 0.0
H2591 H 0.79053 0.27916 0.60556 0.0
C2592 C 0.47614 0.06794 0.37525 0.0
C2593 C 0.45409 0.06008 0.3721 0.0
C2594 C 0.48912 0.06721 0.39753 0.0
C2595 C 0.4805 0.0571 0.41745 0.0
C2596 C 0.45838 0.04851 0.41396 0.0
C2597 C 0.44573 0.0509 0.39226 0.0
C2598 C 0.51228 0.07723 0.39939 0.0
C2599 C 0.44785 0.03592 0.43301 0.0
C2600 C 0.51848 0.03222 0.46449 0.0
C2601 C 0.51992 0.04886 0.48613 0.0
C2602 C 0.50568 0.03433 0.44276 0.0
C2603 C 0.49426 0.05447 0.44132 0.0
C2604 C 0.49581 0.07157 0.46311 0.0
C2605 C 0.50818 0.06843 0.48499 0.0
C2606 C 0.50464 1.01484 0.42111 0.0
C2607 C 0.48535 0.09425 0.46303 0.0
H2608 H 0.48336 0.07512 0.36042 0.0
H2609 H 0.42894 0.0447 0.39095 0.0
H2610 H 0.51909 0.08474 0.41828 0.0
H2611 H 0.52063 0.06201 0.39288 0.0
H2612 H 0.51527 0.09217 0.38789 0.0
H2613 H 0.43159 0.02633 0.42615 0.0
H2614 H 0.45703 0.02203 0.43953 0.0
H2615 H 0.44707 0.04992 0.44872 0.0
H2616 H 0.52763 1.01725 0.46448 0.0
H2617 H 0.50947 0.08211 0.50092 0.0
H2618 H 0.51414 0.02276 0.40772 0.0
H2619 H 0.48821 1.00898 0.41227 0.0
H2620 H 0.51086 0.99811 0.42603 0.0
H2621 H 0.49265 0.1064 0.4507 0.0
H2622 H 0.48686 0.10516 0.48131 0.0
H2623 H 0.46844 0.08891 0.45606 0.0
C2624 C 0.7589 0.70182 0.12444 0.0
C2625 C 0.77449 0.70859 0.10992 0.0
C2626 C 0.7601 0.71373 0.14819 0.0
C2627 C 0.77767 0.73221 0.15779 0.0
C2628 C 0.79367 0.7388 0.14326 0.0
C2629 C 0.79167 0.72719 0.11926 0.0
C2630 C 0.74257 0.70653 0.163 0.0
C2631 C 0.81299 0.75779 0.15317 0.0
C2632 C 0.77384 0.77602 0.21453 0.0
C2633 C 0.78441 0.765 0.23219 0.0
C2634 C 0.77174 0.76575 0.19004 0.0
C2635 C 0.77985 0.74363 0.18345 0.0
C2636 C 0.79003 0.73217 0.20143 0.0
C2637 C 0.79236 0.74315 0.22555 0.0
C2638 C 0.76117 0.77868 0.17122 0.0
C2639 C 0.79855 0.70836 0.19523 0.0
H2640 H 0.74544 0.68771 0.11697 0.0
H2641 H 0.8037 0.73236 0.10791 0.0
H2642 H 0.74878 0.69868 0.179 0.0
H2643 H 0.73608 0.72327 0.16975 0.0
H2644 H 0.72958 0.69259 0.15248 0.0
H2645 H 0.8237 0.76132 0.13931 0.0
H2646 H 0.80838 0.77564 0.16035 0.0
H2647 H 0.8218 0.75118 0.16843 0.0
H2648 H 0.76778 0.79297 0.21978 0.0
H2649 H 0.80028 0.73447 0.23937 0.0
H2650 H 0.74757 0.76576 0.16065 0.0
H2651 H 0.77232 0.78417 0.15836 0.0
H2652 H 0.75559 0.79561 0.17932 0.0
H2653 H 0.78565 0.6934 0.18622 0.0
H2654 H 0.80611 0.70191 0.21143 0.0
H2655 H 0.81028 0.71112 0.18236 0.0
C2656 C 0.1427 0.04148 0.73196 0.0
C2657 C 0.13786 0.02064 0.74403 0.0
C2658 C 0.13123 0.04396 0.70951 0.0
C2659 C 0.11472 0.02475 0.69772 0.0
C2660 C 0.11006 1.00342 0.70963 0.0
C2661 C 0.12122 1.00189 0.73256 0.0
C2662 C 0.13656 0.06756 0.69861 0.0
C2663 C 0.09312 0.98207 0.69809 0.0
C2664 C 0.07276 0.04015 0.64921 0.0
C2665 C 0.07929 0.03136 0.62701 0.0
C2666 C 0.08372 0.03777 0.67196 0.0
C2667 C 0.10238 0.02697 0.67322 0.0
C2668 C 0.10914 1.01833 0.65082 0.0
C2669 C 0.09752 0.02026 0.62831 0.0
C2670 C 0.07522 0.0469 0.69478 0.0
C2671 C 0.12898 1.0072 0.65059 0.0
H2672 H 0.15508 0.05646 0.74057 0.0
H2673 H 0.11701 0.98573 0.74146 0.0
H2674 H 0.14099 0.06311 0.68023 0.0
H2675 H 0.12254 0.07684 0.6967 0.0
H2676 H 0.14965 0.08088 0.70974 0.0
H2677 H 0.09155 0.96649 0.70902 0.0
H2678 H 0.07779 0.98863 0.69561 0.0
H2679 H 0.09666 0.97491 0.67989 0.0
H2680 H 0.05879 0.04877 0.64884 0.0
H2681 H 0.10308 1.01361 0.61158 0.0
H2682 H 0.08708 0.06168 0.70601 0.0
H2683 H 0.07209 0.03144 0.70561 0.0
H2684 H 0.06045 0.05444 0.69103 0.0
H2685 H 0.14252 0.02099 0.66012 0.0
H2686 H 0.13233 1.00132 0.63197 0.0
H2687 H 0.12767 0.99081 0.66045 0.0
C2688 C 0.75097 0.30889 0.463 0.0
C2689 C 0.7489 0.33211 0.45557 0.0
C2690 C 0.75727 0.2905 0.44754 0.0
C2691 C 0.75983 0.29494 0.4239 0.0
C2692 C 0.75368 0.31622 0.41499 0.0
C2693 C 0.74858 0.33496 0.43124 0.0
C2694 C 0.76364 0.26789 0.45724 0.0
C2695 C 0.75488 0.32068 0.38911 0.0
C2696 C 0.80013 0.28524 0.38506 0.0
C2697 C 0.78669 0.27024 0.36621 0.0
C2698 C 0.79273 0.29027 0.40721 0.0
C2699 C 0.77179 0.27972 0.40946 0.0
C2700 C 0.76074 0.25978 0.39246 0.0
C2701 C 0.76877 0.25484 0.37077 0.0
C2702 C 0.80543 0.31066 0.42588 0.0
C2703 C 0.7391 0.24639 0.39502 0.0
H2704 H 0.75035 0.30615 0.4817 0.0
H2705 H 0.74629 0.35257 0.42535 0.0
H2706 H 0.75613 0.25066 0.4451 0.0
H2707 H 0.78092 0.26894 0.45785 0.0
H2708 H 0.75935 0.26644 0.47569 0.0
H2709 H 0.74549 0.33505 0.38418 0.0
H2710 H 0.77147 0.3273 0.38667 0.0
H2711 H 0.74913 0.30325 0.37644 0.0
H2712 H 0.81461 0.29605 0.38152 0.0
H2713 H 0.75926 0.24198 0.3561 0.0
H2714 H 0.80228 0.30759 0.4444 0.0
H2715 H 0.80102 0.32885 0.42258 0.0
H2716 H 0.82255 0.31188 0.42472 0.0
H2717 H 0.74059 0.22774 0.40006 0.0
H2718 H 0.72874 0.24341 0.37753 0.0
H2719 H 0.73128 0.25625 0.40896 0.0
C2720 C 0.44448 0.06262 0.20599 0.0
C2721 C 0.45432 0.05753 0.22806 0.0
C2722 C 0.45463 0.0625 0.18438 0.0
C2723 C 0.47507 0.05568 0.18354 0.0
C2724 C 0.48457 0.04937 0.20563 0.0
C2725 C 0.47461 0.0512 0.22727 0.0
C2726 C 0.44309 0.06992 0.16244 0.0
C2727 C 0.50545 0.04035 0.20684 0.0
C2728 C 0.48954 0.03683 0.11766 0.0
C2729 C 0.50803 0.05366 0.11619 0.0
C2730 C 0.4793 0.03666 0.13916 0.0
C2731 C 0.48637 0.05502 0.16006 0.0
C2732 C 0.50475 0.07255 0.15824 0.0
C2733 C 0.51566 0.07077 0.13731 0.0
C2734 C 0.46093 1.01615 0.13905 0.0
C2735 C 0.51236 0.09476 0.17745 0.0
H2736 H 0.42889 0.06747 0.2057 0.0
H2737 H 0.48267 0.04684 0.24369 0.0
H2738 H 0.454 0.07815 0.15048 0.0
H2739 H 0.43282 0.05319 0.15202 0.0
H2740 H 0.4328 0.08356 0.16775 0.0
H2741 H 0.50631 0.02688 0.22 0.0
H2742 H 0.50837 0.03129 0.18904 0.0
H2743 H 0.51828 0.05637 0.21321 0.0
H2744 H 0.48337 0.02291 0.10214 0.0
H2745 H 0.53003 0.08372 0.1372 0.0
H2746 H 0.44685 0.02074 0.12875 0.0
H2747 H 0.45736 1.01324 0.15747 0.0
H2748 H 0.46406 0.99832 0.12963 0.0
H2749 H 0.50398 0.11013 0.17303 0.0
H2750 H 0.52947 0.10145 0.17794 0.0
H2751 H 0.50913 0.09104 0.19572 0.0
C2752 C 0.75415 0.70798 0.95691 0.0
C2753 C 0.77094 0.70465 0.97321 0.0
C2754 C 0.75751 0.72176 0.93781 0.0
C2755 C 0.77823 0.73249 0.9349 0.0
C2756 C 0.79528 0.72965 0.95172 0.0
C2757 C 0.79141 0.71576 0.97077 0.0
C2758 C 0.73888 0.72443 0.92044 0.0
C2759 C 0.8176 0.74084 0.9493 0.0
C2760 C 0.78575 0.74619 0.87125 0.0
C2761 C 0.78488 0.77175 0.87325 0.0
C2762 C 0.78436 0.73336 0.89138 0.0
C2763 C 0.7818 0.74633 0.914 0.0
C2764 C 0.7811 0.77216 0.91615 0.0
C2765 C 0.78264 0.78453 0.89577 0.0
C2766 C 0.78553 0.7059 0.88842 0.0
C2767 C 0.77836 0.78668 0.93988 0.0
H2768 H 0.73832 0.69966 0.95896 0.0
H2769 H 0.8044 0.71303 0.98338 0.0
H2770 H 0.7383 0.74443 0.9197 0.0
H2771 H 0.74054 0.71582 0.90197 0.0
H2772 H 0.72374 0.71551 0.92558 0.0
H2773 H 0.8291 0.7367 0.96369 0.0
H2774 H 0.8218 0.73356 0.93147 0.0
H2775 H 0.81904 0.76134 0.95013 0.0
H2776 H 0.78783 0.73625 0.85401 0.0
H2777 H 0.7822 0.80434 0.89752 0.0
H2778 H 0.77046 0.69519 0.89189 0.0
H2779 H 0.79805 0.70219 0.90184 0.0
H2780 H 0.78878 0.69886 0.87004 0.0
H2781 H 0.76249 0.7802 0.94474 0.0
H2782 H 0.78015 0.80702 0.93914 0.0
H2783 H 0.78999 0.78339 0.95455 0.0
C2784 C 0.89114 0.15447 0.08521 0.0
C2785 C 0.88293 0.16911 0.06937 0.0
C2786 C 0.90574 0.1399 0.07796 0.0
C2787 C 0.91191 0.14063 0.05458 0.0
C2788 C 0.90534 0.1577 0.03979 0.0
C2789 C 0.89072 0.17192 0.04749 0.0
C2790 C 0.91248 0.12167 0.09402 0.0
C2791 C 0.9115 0.15869 1.0147 0.0
C2792 C 0.95404 0.10398 0.03973 0.0
C2793 C 0.94181 0.08118 0.02923 0.0
C2794 C 0.94445 0.12411 0.04728 0.0
C2795 C 0.92234 0.12093 0.04422 0.0
C2796 C 0.90996 0.09833 0.03244 0.0
C2797 C 0.91999 0.07856 0.02493 0.0
C2798 C 0.95778 0.14831 0.05949 0.0
C2799 C 0.88619 0.09459 0.02892 0.0
H2800 H 0.8846 0.15248 0.10201 0.0
H2801 H 0.8839 0.18343 0.03547 0.0
H2802 H 0.90438 0.10257 0.08643 0.0
H2803 H 0.92965 0.12176 0.09481 0.0
H2804 H 0.90854 0.12589 0.11269 0.0
H2805 H 0.90867 0.17621 1.00787 0.0
H2806 H 0.92829 0.15705 1.01427 0.0
H2807 H 0.90196 0.14282 1.00217 0.0
H2808 H 0.97103 0.10574 0.04269 0.0
H2809 H 0.9108 0.06073 0.01684 0.0
H2810 H 0.95475 0.15183 0.07857 0.0
H2811 H 0.95348 0.1641 0.05056 0.0
H2812 H 0.97485 0.14813 0.05918 0.0
H2813 H 0.88022 0.09539 0.04675 0.0
H2814 H 0.87912 0.0764 0.018 0.0
H2815 H 0.88068 0.10967 0.01983 0.0
C2816 C 0.3906 0.46294 0.07826 0.0
C2817 C 0.38483 0.43716 0.07095 0.0
C2818 C 0.4111 0.47569 0.07666 0.0
C2819 C 0.42688 0.46229 0.06883 0.0
C2820 C 0.42127 0.43606 0.06235 0.0
C2821 C 0.40048 0.42399 0.06331 0.0
C2822 C 0.41585 0.5036 0.08337 0.0
C2823 C 0.43743 0.42052 0.05499 0.0
C2824 C 0.4774 0.49471 0.04664 0.0
C2825 C 0.49186 0.50008 0.06776 0.0
C2826 C 0.4564 0.48271 0.04673 0.0
C2827 C 0.44938 0.47535 0.06837 0.0
C2828 C 0.46415 0.48023 0.08961 0.0
C2829 C 0.48489 0.49278 0.08912 0.0
C2830 C 0.44151 0.479 0.02376 0.0
C2831 C 0.45813 0.47204 0.11298 0.0
H2832 H 0.37914 0.47317 0.08557 0.0
H2833 H 0.3965 0.40397 0.05827 0.0
H2834 H 0.42843 0.50882 0.09886 0.0
H2835 H 0.42174 0.51229 0.06802 0.0
H2836 H 0.40184 0.51148 0.08831 0.0
H2837 H 0.43085 0.40033 0.05107 0.0
H2838 H 0.4438 0.4265 0.03868 0.0
H2839 H 0.4508 0.42337 0.06963 0.0
H2840 H 0.4823 0.50062 0.03009 0.0
H2841 H 0.49577 0.4969 0.10564 0.0
H2842 H 0.43057 0.49254 0.02568 0.0
H2843 H 0.43208 0.46001 0.02048 0.0
H2844 H 0.44979 0.48211 1.00778 0.0
H2845 H 0.44627 0.48274 0.11981 0.0
H2846 H 0.47185 0.47483 0.12718 0.0
H2847 H 0.45089 0.45206 0.10994 0.0
C2848 C 0.3735 0.61777 0.80807 0.0
C2849 C 0.39274 0.61541 0.79848 0.0
C2850 C 0.3636 0.63935 0.80808 0.0
C2851 C 0.37251 0.66062 0.79819 0.0
C2852 C 0.3919 0.65869 0.78833 0.0
C2853 C 0.40162 0.63655 0.78853 0.0
C2854 C 0.34328 0.63926 0.819 0.0
C2855 C 0.40251 0.6803 0.7775 0.0
C2856 C 0.33373 0.70669 0.78066 0.0
C2857 C 0.33819 0.72701 0.79963 0.0
C2858 C 0.34505 0.68602 0.77953 0.0
C2859 C 0.36133 0.68423 0.79816 0.0
C2860 C 0.36569 0.70455 0.81756 0.0
C2861 C 0.35454 0.72539 0.81786 0.0
C2862 C 0.33937 0.66579 0.75813 0.0
C2863 C 0.38183 0.70395 0.83868 0.0
H2864 H 0.36571 0.60231 0.81585 0.0
H2865 H 0.41628 0.636 0.78101 0.0
H2866 H 0.34487 0.65543 0.83338 0.0
H2867 H 0.33047 0.64112 0.80502 0.0
H2868 H 0.33853 0.62194 0.82687 0.0
H2869 H 0.41686 0.6762 0.7697 0.0
H2870 H 0.39143 0.68521 0.76315 0.0
H2871 H 0.40694 0.69687 0.79157 0.0
H2872 H 0.3213 0.70697 0.7663 0.0
H2873 H 0.35832 0.74024 0.83299 0.0
H2874 H 0.33213 0.64826 0.76407 0.0
H2875 H 0.35375 0.66208 0.7502 0.0
H2876 H 0.32817 0.67071 0.74389 0.0
H2877 H 0.37625 0.6884 0.84858 0.0
H2878 H 0.38486 0.72159 0.85146 0.0
H2879 H 0.39686 0.70044 0.83226 0.0
C2880 C 0.26613 0.69867 0.60092 0.0
C2881 C 0.27976 0.68139 0.59762 0.0
C2882 C 0.24488 0.6906 0.60245 0.0
C2883 C 0.23718 0.66478 0.59916 0.0
C2884 C 0.25107 0.64735 0.59642 0.0
C2885 C 0.27247 0.65608 0.5971 0.0
C2886 C 0.23074 0.70958 0.60744 0.0
C2887 C 0.24338 0.61953 0.59232 0.0
C2888 C 0.19015 0.62952 0.61933 0.0
C2889 C 0.17671 0.62373 0.5976 0.0
C2890 C 0.20912 0.64569 0.62089 0.0
C2891 C 0.21488 0.65545 0.59998 0.0
C2892 C 0.20025 0.65191 0.57881 0.0
C2893 C 0.18126 0.63578 0.57782 0.0
C2894 C 0.22346 0.65125 0.64454 0.0
C2895 C 0.20421 0.66446 0.55696 0.0
H2896 H 0.27206 0.71843 0.60228 0.0
H2897 H 0.2834 0.64303 0.59623 0.0
H2898 H 0.22042 0.71048 0.59067 0.0
H2899 H 0.22045 0.70416 0.62119 0.0
H2900 H 0.23987 0.72848 0.61391 0.0
H2901 H 0.25604 0.60881 0.58811 0.0
H2902 H 0.23722 0.61335 0.60862 0.0
H2903 H 0.23032 0.6147 0.57726 0.0
H2904 H 0.186 0.62096 0.63497 0.0
H2905 H 0.17037 0.6319 0.56128 0.0
H2906 H 0.23135 0.671 0.64768 0.0
H2907 H 0.23587 0.63944 0.6441 0.0
H2908 H 0.21471 0.64743 0.66003 0.0
H2909 H 0.19206 0.67629 0.5537 0.0
H2910 H 0.20236 0.65023 0.54074 0.0
H2911 H 0.21979 0.67639 0.55887 0.0
C2912 C 0.71707 0.96162 0.80624 0.0
C2913 C 0.69972 0.96317 0.81941 0.0
C2914 C 0.72854 0.94114 0.80575 0.0
C2915 C 0.72292 0.92069 0.81861 0.0
C2916 C 0.70549 0.92223 0.83204 0.0
C2917 C 0.69442 0.94308 0.83243 0.0
C2918 C 0.74727 0.94184 0.79192 0.0
C2919 C 0.69887 0.90194 0.84677 0.0
C2920 C 0.74037 0.85547 0.80101 0.0
C2921 C 0.75852 0.85575 0.81739 0.0
C2922 C 0.7291 0.87612 0.80104 0.0
C2923 C 0.73525 0.89814 0.81832 0.0
C2924 C 0.7533 0.89825 0.83528 0.0
C2925 C 0.76468 0.8777 0.83433 0.0
C2926 C 0.7106 0.87448 0.78204 0.0
C2927 C 0.76093 0.92036 0.85455 0.0
H2928 H 0.7222 0.977 0.79668 0.0
H2929 H 0.68179 0.94392 0.84354 0.0
H2930 H 0.76171 0.94236 0.80454 0.0
H2931 H 0.74544 0.92468 0.77868 0.0
H2932 H 0.74951 0.95832 0.7822 0.0
H2933 H 0.68593 0.90603 0.85727 0.0
H2934 H 0.69375 0.88405 0.83461 0.0
H2935 H 0.7124 0.89948 0.85951 0.0
H2936 H 0.73521 0.83921 0.78752 0.0
H2937 H 0.77854 0.87886 0.84723 0.0
H2938 H 0.71324 0.89026 0.77148 0.0
H2939 H 0.69621 0.87607 0.7908 0.0
H2940 H 0.70785 0.85675 0.76943 0.0
H2941 H 0.76869 0.9361 0.84626 0.0
H2942 H 0.7724 0.91613 0.86892 0.0
H2943 H 0.74757 0.92662 0.86301 0.0
C2944 C 0.75479 0.91542 0.55479 0.0
C2945 C 0.7712 0.93071 0.57051 0.0
C2946 C 0.73489 0.92267 0.55067 0.0
C2947 C 0.73129 0.94562 0.56276 0.0
C2948 C 0.74759 0.96046 0.5795 0.0
C2949 C 0.76733 0.95296 0.58294 0.0
C2950 C 0.71824 0.90661 0.53215 0.0
C2951 C 0.74454 0.98499 0.59285 0.0
C2952 C 0.69157 0.9823 0.53563 0.0
C2953 C 0.67471 0.97758 0.5492 0.0
C2954 C 0.7096 0.97119 0.53913 0.0
C2955 C 0.71115 0.95517 0.55695 0.0
C2956 C 0.69409 0.94993 0.57041 0.0
C2957 C 0.6761 0.96112 0.56636 0.0
C2958 C 0.72722 0.97712 0.52408 0.0
C2959 C 0.69501 0.93282 0.58941 0.0
H2960 H 0.75794 0.89865 0.54447 0.0
H2961 H 0.78013 0.9651 0.59463 0.0
H2962 H 0.70269 0.90458 0.53894 0.0
H2963 H 0.71674 0.91567 0.5156 0.0
H2964 H 0.72215 0.8878 0.52712 0.0
H2965 H 0.75816 0.99342 0.60654 0.0
H2966 H 0.74233 0.99831 0.57982 0.0
H2967 H 0.73017 0.98241 0.60202 0.0
H2968 H 0.69093 0.99521 0.52256 0.0
H2969 H 0.66309 0.95691 0.57664 0.0
H2970 H 0.7315 0.95966 0.51536 0.0
H2971 H 0.74139 0.98754 0.53585 0.0
H2972 H 0.72296 0.98844 0.50981 0.0
H2973 H 0.69795 0.9144 0.58129 0.0
H2974 H 0.68026 0.93007 0.59791 0.0
H2975 H 0.7083 0.94061 0.60371 0.0
C2976 C 0.37114 0.47461 0.78587 0.0
C2977 C 0.39278 0.48047 0.79494 0.0
C2978 C 0.35851 0.45075 0.78651 0.0
C2979 C 0.36709 0.4313 0.79686 0.0
C2980 C 0.38884 0.4374 0.80652 0.0
C2981 C 0.40126 0.46113 0.80491 0.0
C2982 C 0.33568 0.44666 0.77618 0.0
C2983 C 0.39905 0.41894 0.81934 0.0
C2984 C 0.32682 0.37898 0.81782 0.0
C2985 C 0.32597 0.35757 0.80089 0.0
C2986 C 0.3403 0.402 0.81719 0.0
C2987 C 0.35335 0.40534 0.79848 0.0
C2988 C 0.35259 0.38363 0.78115 0.0
C2989 C 0.33927 0.36035 0.78263 0.0
C2990 C 0.33958 0.42313 0.83637 0.0
C2991 C 0.36501 0.38532 0.76006 0.0
H2992 H 0.36398 0.48871 0.77779 0.0
H2993 H 0.41774 0.46479 0.81216 0.0
H2994 H 0.33045 0.4274 0.76669 0.0
H2995 H 0.326 0.44951 0.79111 0.0
H2996 H 0.3326 0.46 0.76341 0.0
H2997 H 0.41533 0.42682 0.82778 0.0
H2998 H 0.3896 0.41288 0.8336 0.0
H2999 H 0.39953 0.40215 0.8064 0.0
H3000 H 0.31641 0.3779 0.83171 0.0
H3001 H 0.33853 0.34465 0.76868 0.0
H3002 H 0.32766 0.43381 0.82945 0.0
H3003 H 0.35507 0.4353 0.84061 0.0
H3004 H 0.33483 0.41651 0.85322 0.0
H3005 H 0.35876 0.39816 0.74842 0.0
H3006 H 0.36418 0.3669 0.749 0.0
H3007 H 0.38173 0.39321 0.7664 0.0
C3008 C 0.21852 0.59644 0.31283 0.0
C3009 C 0.19979 0.59516 0.3237 0.0
C3010 C 0.23156 0.61956 0.31139 0.0
C3011 C 0.22633 0.64265 0.3214 0.0
C3012 C 0.20785 0.64133 0.33324 0.0
C3013 C 0.19474 0.61799 0.33376 0.0
C3014 C 0.25084 0.61922 0.29857 0.0
C3015 C 0.20163 0.66478 0.34511 0.0
C3016 C 0.26778 0.70429 0.33243 0.0
C3017 C 0.26331 0.71564 0.31182 0.0
C3018 C 0.25637 0.68075 0.33557 0.0
C3019 C 0.23927 0.668 0.31822 0.0
C3020 C 0.23449 0.67982 0.29761 0.0
C3021 C 0.24668 0.70289 0.29446 0.0
C3022 C 0.26302 0.66927 0.35736 0.0
C3023 C 0.21629 0.66811 0.27875 0.0
H3024 H 0.2227 0.57922 0.30469 0.0
H3025 H 0.18046 0.61761 0.34224 0.0
H3026 H 0.24962 0.62976 0.28299 0.0
H3027 H 0.26502 0.62855 0.31096 0.0
H3028 H 0.25303 0.59999 0.2919 0.0
H3029 H 0.18808 0.6608 0.35543 0.0
H3030 H 0.21507 0.6759 0.3576 0.0
H3031 H 0.19738 0.67641 0.33114 0.0
H3032 H 0.28071 0.71351 0.34586 0.0
H3033 H 0.24289 0.71126 0.27842 0.0
H3034 H 0.26837 0.65159 0.35128 0.0
H3035 H 0.24943 0.66503 0.3675 0.0
H3036 H 0.27605 0.68149 0.36966 0.0
H3037 H 0.21894 0.64958 0.27055 0.0
H3038 H 0.21398 0.67977 0.26419 0.0
H3039 H 0.2016 0.66513 0.28731 0.0
C3040 C 0.51492 0.68374 0.45626 0.0
C3041 C 0.51792 0.70789 0.46896 0.0
C3042 C 0.51944 0.66355 0.46809 0.0
C3043 C 0.52722 0.66772 0.49306 0.0
C3044 C 0.53051 0.69209 0.50578 0.0
C3045 C 0.52586 0.71176 0.49362 0.0
C3046 C 0.51559 0.6377 0.45405 0.0
C3047 C 0.53841 0.69735 0.53247 0.0
C3048 C 0.51811 0.61325 0.52884 0.0
C3049 C 0.53794 0.60611 0.53109 0.0
C3050 C 0.51467 0.63375 0.51716 0.0
C3051 C 0.53106 0.64654 0.5063 0.0
C3052 C 0.5512 0.63955 0.50877 0.0
C3053 C 0.55447 0.61963 0.52141 0.0
C3054 C 0.49333 0.64139 0.51612 0.0
C3055 C 0.5692 0.65286 0.49775 0.0
H3056 H 0.50881 0.68057 0.43726 0.0
H3057 H 0.52837 0.73034 0.50369 0.0
H3058 H 0.53013 0.62937 0.45587 0.0
H3059 H 0.5033 0.62562 0.4616 0.0
H3060 H 0.51045 0.63764 0.43457 0.0
H3061 H 0.54022 0.71742 0.53971 0.0
H3062 H 0.52733 0.68663 0.54269 0.0
H3063 H 0.55383 0.69121 0.53589 0.0
H3064 H 0.5053 0.60288 0.53632 0.0
H3065 H 0.56984 0.61407 0.52296 0.0
H3066 H 0.48453 0.63384 0.49812 0.0
H3067 H 0.49443 0.66193 0.51842 0.0
H3068 H 0.48447 0.63421 0.53037 0.0
H3069 H 0.56515 0.65081 0.47786 0.0
H3070 H 0.58404 0.64555 0.5018 0.0
H3071 H 0.57195 0.67308 0.50457 0.0
C3072 C 0.64417 0.30408 0.72863 0.0
C3073 C 0.64159 0.31046 0.70515 0.0
C3074 C 0.66399 0.30105 0.73985 0.0
C3075 C 0.68213 0.3054 0.72781 0.0
C3076 C 0.67962 0.31209 0.70415 0.0
C3077 C 0.65943 0.31403 0.69298 0.0
C3078 C 0.66544 0.29311 0.76466 0.0
C3079 C 0.69839 0.31746 0.69071 0.0
C3080 C 0.73598 0.3249 0.76643 0.0
C3081 C 0.74493 0.30305 0.76416 0.0
C3082 C 0.71572 0.32575 0.75498 0.0
C3083 C 0.70378 0.3043 0.74039 0.0
C3084 C 0.71267 0.2821 0.73794 0.0
C3085 C 0.733 0.28169 0.7499 0.0
C3086 C 0.70703 0.34976 0.75863 0.0
C3087 C 0.70055 0.25862 0.72297 0.0
H3088 H 0.63048 0.30071 0.73806 0.0
H3089 H 0.65765 0.31872 0.67478 0.0
H3090 H 0.67407 0.27716 0.76503 0.0
H3091 H 0.67438 0.30863 0.77805 0.0
H3092 H 0.6497 0.28763 0.7704 0.0
H3093 H 0.69401 0.32268 0.67261 0.0
H3094 H 0.71004 0.33288 0.70134 0.0
H3095 H 0.70623 0.30086 0.68844 0.0
H3096 H 0.74476 0.34149 0.7776 0.0
H3097 H 0.73949 0.26459 0.7482 0.0
H3098 H 0.69232 0.34673 0.76711 0.0
H3099 H 0.70302 0.35595 0.74091 0.0
H3100 H 0.71829 0.36491 0.77025 0.0
H3101 H 0.68607 0.2524 0.73104 0.0
H3102 H 0.70991 0.24327 0.72175 0.0
H3103 H 0.69554 0.26225 0.70444 0.0
C3104 C 0.03621 0.36505 0.9697 0.0
C3105 C 1.01986 0.34568 0.97125 0.0
C3106 C 0.03856 0.38784 0.98476 0.0
C3107 C 0.02391 0.39136 1.00135 0.0
C3108 C 1.00788 0.3715 1.00364 0.0
C3109 C 1.00617 0.34873 0.98868 0.0
C3110 C 0.05614 0.40847 0.98216 0.0
C3111 C 0.99192 0.37473 0.02101 0.0
C3112 C 0.03945 0.4483 0.04868 0.0
C3113 C 0.0288 0.46541 0.0382 0.0
C3114 C 0.03714 0.42363 0.0375 0.0
C3115 C 0.02449 0.41636 1.01495 0.0
C3116 C 1.01328 0.43351 1.0046 0.0
C3117 C 1.01534 0.45784 0.01661 0.0
C3118 C 0.04902 0.40574 0.04925 0.0
C3119 C 1.00015 0.42659 0.9802 0.0
H3120 H 0.04692 0.36251 0.95636 0.0
H3121 H 0.99344 0.33374 0.98975 0.0
H3122 H 0.04943 0.42403 0.97522 0.0
H3123 H 0.06533 0.41595 1.0 0.0
H3124 H 0.06702 0.4021 0.96964 0.0
H3125 H 0.98159 0.35688 0.02213 0.0
H3126 H 0.99994 0.38264 0.03933 0.0
H3127 H 0.9819 0.38808 1.01506 0.0
H3128 H 0.05003 0.45444 0.06529 0.0
H3129 H 1.00757 0.4714 1.0083 0.0
H3130 H 0.06173 0.40137 0.0385 0.0
H3131 H 0.03841 0.38795 0.04971 0.0
H3132 H 0.05619 0.4135 0.06798 0.0
H3133 H 1.01043 0.42248 0.96613 0.0
H3134 H 0.99167 0.44171 0.97522 0.0
H3135 H 0.9885 0.40949 0.98 0.0
C3136 C 1.01925 0.79381 0.21751 0.0
C3137 C 1.01892 0.80464 0.19618 0.0
C3138 C 1.00103 0.78948 0.22899 0.0
C3139 C 0.98219 0.79651 0.21906 0.0
C3140 C 0.98197 0.80808 0.19791 0.0
C3141 C 1.00029 0.81194 0.18672 0.0
C3142 C 1.00171 0.77652 0.25117 0.0
C3143 C 0.96222 0.81585 0.18675 0.0
C3144 C 0.92918 0.76682 0.23442 0.0
C3145 C 0.9251 0.78499 0.2524 0.0
C3146 C 0.94785 0.77007 0.22369 0.0
C3147 C 0.96271 0.79217 0.23088 0.0
C3148 C 0.95863 0.81065 0.2488 0.0
C3149 C 0.93995 0.80681 0.25941 0.0
C3150 C 0.95165 0.74985 0.20467 0.0
C3151 C 0.97403 0.83455 0.25675 0.0
H3152 H 0.03343 0.78752 0.22453 0.0
H3153 H 0.99989 0.8201 0.17009 0.0
H3154 H 0.99603 0.78768 0.26619 0.0
H3155 H 0.99106 0.75827 0.24724 0.0
H3156 H 1.01779 0.77329 0.25728 0.0
H3157 H 0.96479 0.82509 0.17053 0.0
H3158 H 0.94968 0.79932 0.18143 0.0
H3159 H 0.95635 0.82883 0.20016 0.0
H3160 H 0.9177 0.75004 0.22863 0.0
H3161 H 0.93717 0.82076 0.27356 0.0
H3162 H 0.96649 0.74325 0.21032 0.0
H3163 H 0.95347 0.75734 0.18741 0.0
H3164 H 0.93863 0.73366 0.20133 0.0
H3165 H 0.9895 0.83032 0.26383 0.0
H3166 H 0.96857 0.84707 0.27095 0.0
H3167 H 0.97649 0.84462 0.24104 0.0
C3168 C 0.51452 0.29976 0.09309 0.0
C3169 C 0.50842 0.29683 0.11575 0.0
C3170 C 0.52824 0.32091 0.09003 0.0
C3171 C 0.53543 0.33949 0.11011 0.0
C3172 C 0.52891 0.33696 0.13294 0.0
C3173 C 0.51504 0.31574 0.13538 0.0
C3174 C 0.53496 0.32343 0.06537 0.0
C3175 C 0.53654 0.35664 0.15462 0.0
C3176 C 0.57693 0.39125 0.09946 0.0
C3177 C 0.56405 0.40774 0.092 0.0
C3178 C 0.56797 0.36902 0.10677 0.0
C3179 C 0.54584 0.36362 0.10594 0.0
C3180 C 0.53292 0.38065 0.09913 0.0
C3181 C 0.54223 0.40251 0.09213 0.0
C3182 C 0.58197 0.351 0.11423 0.0
C3183 C 0.50917 0.37516 0.09783 0.0
H3184 H 0.50983 0.28498 0.07813 0.0
H3185 H 0.51079 0.31284 0.15313 0.0
H3186 H 0.52854 0.33903 0.05813 0.0
H3187 H 0.55234 0.32787 0.06668 0.0
H3188 H 0.52944 0.30621 0.05228 0.0
H3189 H 0.53319 0.3497 0.17181 0.0
H3190 H 0.55371 0.36319 0.15564 0.0
H3191 H 0.52861 0.37297 0.15283 0.0
H3192 H 0.59376 0.39547 0.09898 0.0
H3193 H 0.53223 0.41502 0.08557 0.0
H3194 H 0.58082 0.33546 0.0993 0.0
H3195 H 0.57693 0.34286 0.13024 0.0
H3196 H 0.59871 0.36008 0.11845 0.0
H3197 H 0.50279 0.35863 0.08418 0.0
H3198 H 0.50162 0.391 0.09289 0.0
H3199 H 0.5045 0.37077 0.11546 0.0
C3200 C 1.00853 0.35542 0.43708 0.0
C3201 C 0.0257 0.3442 0.43197 0.0
C3202 C 0.98865 0.34543 0.42472 0.0
C3203 C 0.98607 0.32265 0.4089 0.0
C3204 C 1.00332 0.31069 0.40482 0.0
C3205 C 0.02314 0.32222 0.41572 0.0
C3206 C 0.97066 0.35957 0.42792 0.0
C3207 C 1.00095 0.28623 0.38841 0.0
C3208 C 0.9291 0.29577 0.39697 0.0
C3209 C 0.92393 0.30504 0.37548 0.0
C3210 C 0.95005 0.29899 0.40703 0.0
C3211 C 0.96554 0.31225 0.3954 0.0
C3212 C 0.96057 0.3183 0.372 0.0
C3213 C 0.93964 0.31426 0.36213 0.0
C3214 C 0.9553 0.29039 0.43109 0.0
C3215 C 0.9765 0.33135 0.35803 0.0
H3216 H 1.01078 0.37216 0.45011 0.0
H3217 H 0.03662 0.31368 0.41188 0.0
H3218 H 0.96414 0.36379 0.41011 0.0
H3219 H 0.95782 0.34805 0.43514 0.0
H3220 H 0.9756 0.37737 0.44033 0.0
H3221 H 1.01525 0.27746 0.39051 0.0
H3222 H 0.9873 0.27301 0.39214 0.0
H3223 H 0.998 0.28942 0.36933 0.0
H3224 H 0.91673 0.28807 0.40683 0.0
H3225 H 0.93551 0.32115 0.34527 0.0
H3226 H 0.95742 0.30644 0.44568 0.0
H3227 H 0.97022 0.28278 0.43162 0.0
H3228 H 0.94258 0.27593 0.4349 0.0
H3229 H 0.9719 0.34935 0.3544 0.0
H3230 H 0.97617 0.32 0.34019 0.0
H3231 H 0.99281 0.33489 0.36722 0.0
C3232 C 0.03129 0.67415 0.65496 0.0
C3233 C 1.0096 0.67234 0.64779 0.0
C3234 C 0.04442 0.66719 0.6383 0.0
C3235 C 0.03528 0.65346 0.61597 0.0
C3236 C 1.01305 0.64706 0.61055 0.0
C3237 C 1.00042 0.6578 0.62609 0.0
C3238 C 0.06781 0.67696 0.64362 0.0
C3239 C 1.00251 0.63005 0.58797 0.0
C3240 C 0.0541 0.6334 0.55789 0.0
C3241 C 0.05861 0.61033 0.56292 0.0
C3242 C 0.04996 0.65055 0.5766 0.0
C3243 C 0.04884 0.64303 0.59968 0.0
C3244 C 0.05672 0.62162 0.60523 0.0
C3245 C 0.06263 0.60633 0.58663 0.0
C3246 C 0.04424 0.67499 0.57096 0.0
C3247 C 0.05461 0.61186 0.62904 0.0
H3248 H 0.03857 0.68502 0.67198 0.0
H3249 H 0.98368 0.65623 0.62061 0.0
H3250 H 0.07753 0.66284 0.63816 0.0
H3251 H 0.07163 0.69222 0.63274 0.0
H3252 H 0.07269 0.68433 0.66301 0.0
H3253 H 1.00152 0.64095 0.57266 0.0
H3254 H 1.01143 0.6148 0.58321 0.0
H3255 H 0.98624 0.62163 0.59017 0.0
H3256 H 0.05143 0.6368 0.53931 0.0
H3257 H 0.06553 0.58852 0.58976 0.0
H3258 H 0.04662 0.68903 0.58743 0.0
H3259 H 0.02752 0.67214 0.56308 0.0
H3260 H 0.05386 0.68237 0.55737 0.0
H3261 H 0.06227 0.59527 0.63045 0.0
H3262 H 0.03763 0.60703 0.63076 0.0
H3263 H 0.06163 0.6259 0.64469 0.0
C3264 C 0.63162 0.82424 0.91189 0.0
C3265 C 0.62423 0.84663 0.90959 0.0
C3266 C 0.6441 0.81506 0.89548 0.0
C3267 C 0.64945 0.82893 0.87679 0.0
C3268 C 0.6431 0.85219 0.87523 0.0
C3269 C 0.63066 0.86095 0.8919 0.0
C3270 C 0.65067 0.79001 0.89743 0.0
C3271 C 0.64797 0.867 0.85502 0.0
C3272 C 0.69525 0.81027 0.8487 0.0
C3273 C 0.68492 0.79292 0.82914 0.0
C3274 C 0.68377 0.8234 0.86373 0.0
C3275 C 0.66166 0.81875 0.85888 0.0
C3276 C 0.65123 0.80251 0.83827 0.0
C3277 C 0.66313 0.78967 0.82346 0.0
C3278 C 0.69509 0.84125 0.88541 0.0
C3279 C 0.62755 0.79759 0.83272 0.0
H3280 H 0.62676 0.81319 0.92569 0.0
H3281 H 0.62488 0.87822 0.89 0.0
H3282 H 0.64425 0.77685 0.8808 0.0
H3283 H 0.66806 0.79193 0.89908 0.0
H3284 H 0.64513 0.78173 0.91318 0.0
H3285 H 0.64778 0.88713 0.86037 0.0
H3286 H 0.6634 0.86468 0.8492 0.0
H3287 H 0.63583 0.86022 0.83924 0.0
H3288 H 0.71225 0.81302 0.85257 0.0
H3289 H 0.65538 0.77627 0.80816 0.0
H3290 H 0.69108 0.83404 0.90226 0.0
H3291 H 0.68988 0.85961 0.88554 0.0
H3292 H 0.71244 0.844 0.88565 0.0
H3293 H 0.62064 0.78719 0.84653 0.0
H3294 H 0.62214 0.78654 0.81464 0.0
H3295 H 0.62135 0.81539 0.83348 0.0
C3296 C 0.47629 0.54611 0.72521 0.0
C3297 C 0.45456 0.54768 0.72395 0.0
C3298 C 0.48756 0.54495 0.70443 0.0
C3299 C 0.47762 0.54639 0.68081 0.0
C3300 C 0.45575 0.54842 0.67946 0.0
C3301 C 0.44463 0.54851 0.70046 0.0
C3302 C 0.51042 0.54227 0.70808 0.0
C3303 C 0.44401 0.55106 0.65561 0.0
C3304 C 0.51331 0.56871 0.63173 0.0
C3305 C 0.51366 0.54697 0.61535 0.0
C3306 C 0.50188 0.56877 0.65238 0.0
C3307 C 0.49004 0.54648 0.65801 0.0
C3308 C 0.49051 0.52435 0.64172 0.0
C3309 C 0.50195 0.52486 0.62097 0.0
C3310 C 0.50268 0.5931 0.6684 0.0
C3311 C 0.47929 0.49969 0.64659 0.0
H3312 H 0.48467 0.54536 0.74275 0.0
H3313 H 0.42807 0.54989 0.69849 0.0
H3314 H 0.51442 0.5296 0.69294 0.0
H3315 H 0.52034 0.56075 0.70875 0.0
H3316 H 0.51451 0.53505 0.72527 0.0
H3317 H 0.42767 0.55414 0.65731 0.0
H3318 H 0.45241 0.56692 0.64798 0.0
H3319 H 0.44346 0.53404 0.64255 0.0
H3320 H 0.52219 0.58611 0.62845 0.0
H3321 H 0.50192 0.50765 0.60924 0.0
H3322 H 0.51166 0.59265 0.68618 0.0
H3323 H 0.48656 0.59594 0.67165 0.0
H3324 H 0.51031 0.60926 0.66053 0.0
H3325 H 0.48598 0.4957 0.66442 0.0
H3326 H 0.48065 0.48412 0.63254 0.0
H3327 H 0.4624 0.50045 0.6475 0.0
C3328 C 0.82955 0.2606 0.0362 0.0
C3329 C 0.83659 0.23853 0.02811 0.0
C3330 C 0.81938 0.27309 0.01968 0.0
C3331 C 0.81703 0.26333 0.99497 0.0
C3332 C 0.82736 0.24365 0.98664 0.0
C3333 C 0.83738 0.23153 1.00356 0.0
C3334 C 0.80848 0.29413 0.0289 0.0
C3335 C 0.82527 0.23305 0.96024 0.0
C3336 C 0.76618 0.26153 0.95609 0.0
C3337 C 0.77216 0.28029 0.94246 0.0
C3338 C 0.78045 0.25685 0.97457 0.0
C3339 C 0.80112 0.27074 0.97843 0.0
C3340 C 0.80697 0.29018 0.9651 0.0
C3341 C 0.79222 0.29495 0.9473 0.0
C3342 C 0.77384 0.23603 0.98878 0.0
C3343 C 0.82914 0.30459 0.96846 0.0
H3344 H 0.82921 0.2661 0.05534 0.0
H3345 H 0.84334 0.21467 0.99763 0.0
H3346 H 0.80983 0.30904 0.01722 0.0
H3347 H 0.79149 0.2869 0.0286 0.0
H3348 H 0.81498 0.30234 0.04773 0.0
H3349 H 0.83665 0.22024 0.95666 0.0
H3350 H 0.80915 0.22243 0.95457 0.0
H3351 H 0.82767 0.24814 0.94888 0.0
H3352 H 0.75083 0.24991 0.95152 0.0
H3353 H 0.79684 0.30888 0.93585 0.0
H3354 H 0.77802 0.24237 1.00844 0.0
H3355 H 0.78225 0.22034 0.9839 0.0
H3356 H 0.75665 0.22906 0.9851 0.0
H3357 H 0.83395 0.31251 0.98771 0.0
H3358 H 0.8308 0.31995 0.95727 0.0
H3359 H 0.84024 0.29187 0.96348 0.0
C3360 C 0.14145 0.5136 0.21961 0.0
C3361 C 0.13632 0.52491 0.24169 0.0
C3362 C 0.12975 0.51474 0.19671 0.0
C3363 C 0.11287 0.52871 0.19493 0.0
C3364 C 0.10819 0.54087 0.21719 0.0
C3365 C 0.11937 0.53829 0.23986 0.0
C3366 C 0.13527 0.50042 0.1743 0.0
C3367 C 0.09122 0.55685 0.21728 0.0
C3368 C 0.09344 0.54852 0.1322 0.0
C3369 C 0.0737 0.53308 0.12508 0.0
C3370 C 0.10616 0.5474 0.15448 0.0
C3371 C 0.09971 0.52987 0.17029 0.0
C3372 C 0.08004 0.51387 0.16266 0.0
C3373 C 0.06735 0.51605 0.14091 0.0
C3374 C 0.12618 0.56592 0.16164 0.0
C3375 C 0.0721 0.49432 0.1777 0.0
H3376 H 0.15428 0.50307 0.22025 0.0
H3377 H 0.11503 0.54737 0.25638 0.0
H3378 H 0.12086 0.48928 0.1635 0.0
H3379 H 0.14251 0.51359 0.16286 0.0
H3380 H 0.14647 0.48771 0.17863 0.0
H3381 H 0.09265 0.5695 0.23459 0.0
H3382 H 0.09179 0.56825 0.20227 0.0
H3383 H 0.07559 0.54478 0.21473 0.0
H3384 H 0.09851 0.56244 0.12097 0.0
H3385 H 0.05209 0.50426 0.13628 0.0
H3386 H 0.13982 0.556 0.16309 0.0
H3387 H 0.12582 0.57649 0.1797 0.0
H3388 H 0.12866 0.5793 0.14848 0.0
H3389 H 0.08455 0.48325 0.18226 0.0
H3390 H 0.0579 0.48147 0.16829 0.0
H3391 H 0.06806 0.5034 0.19492 0.0
C3392 C 0.79893 0.87494 0.48668 0.0
C3393 C 0.81556 0.87309 0.504 0.0
C3394 C 0.79606 0.86062 0.46378 0.0
C3395 C 0.8105 0.84458 0.45795 0.0
C3396 C 0.82687 0.84199 0.4757 0.0
C3397 C 0.82905 0.85609 0.49867 0.0
C3398 C 0.77818 0.86357 0.44547 0.0
C3399 C 0.84276 0.82538 0.47002 0.0
C3400 C 0.79515 0.79787 0.40075 0.0
C3401 C 0.80603 0.8102 0.3843 0.0
C3402 C 0.79705 0.8084 0.42509 0.0
C3403 C 0.80951 0.83217 0.43273 0.0
C3404 C 0.82058 0.84461 0.41602 0.0
C3405 C 0.81894 0.83324 0.39202 0.0
C3406 C 0.78537 0.79438 0.44245 0.0
C3407 C 0.83351 0.87029 0.42328 0.0
H3408 H 0.78842 0.888 0.49091 0.0
H3409 H 0.84206 0.85487 0.512 0.0
H3410 H 0.78458 0.87257 0.43055 0.0
H3411 H 0.76908 0.84509 0.43744 0.0
H3412 H 0.76728 0.87505 0.45352 0.0
H3413 H 0.85339 0.82373 0.48634 0.0
H3414 H 0.83467 0.80649 0.46174 0.0
H3415 H 0.85247 0.83307 0.45667 0.0
H3416 H 0.78507 0.78009 0.39451 0.0
H3417 H 0.827 0.84286 0.37899 0.0
H3418 H 0.77306 0.80467 0.44877 0.0
H3419 H 0.79628 0.79298 0.45859 0.0
H3420 H 0.77776 0.7753 0.43406 0.0
H3421 H 0.8232 0.88368 0.42914 0.0
H3422 H 0.84159 0.87709 0.40827 0.0
H3423 H 0.8455 0.87026 0.43885 0.0
C3424 C 0.47476 0.56013 0.86807 0.0
C3425 C 0.45259 0.55602 0.86673 0.0
C3426 C 0.48804 0.56025 0.8902 0.0
C3427 C 0.47931 0.55534 0.91182 0.0
C3428 C 0.45703 0.55091 0.91039 0.0
C3429 C 0.44426 0.55177 0.88847 0.0
C3430 C 0.51155 0.5655 0.89038 0.0
C3431 C 0.44646 0.54463 0.93209 0.0
C3432 C 0.51097 0.52976 0.96333 0.0
C3433 C 0.51627 0.5502 0.98204 0.0
C3434 C 0.49948 0.53129 0.94068 0.0
C3435 C 0.49306 0.55401 0.93568 0.0
C3436 C 0.49872 0.57487 0.95432 0.0
C3437 C 0.50995 0.5727 0.97705 0.0
C3438 C 0.49376 0.50818 0.92221 0.0
C3439 C 0.49289 0.59971 0.95027 0.0
H3440 H 0.48181 0.56339 0.85185 0.0
H3441 H 0.42735 0.54839 0.88836 0.0
H3442 H 0.51883 0.57971 0.90597 0.0
H3443 H 0.51814 0.54829 0.89251 0.0
H3444 H 0.51609 0.57216 0.87347 0.0
H3445 H 0.42904 0.54095 0.92814 0.0
H3446 H 0.45169 0.52789 0.93835 0.0
H3447 H 0.4511 0.56016 0.94719 0.0
H3448 H 0.51549 0.51212 0.96652 0.0
H3449 H 0.51384 0.58877 0.99094 0.0
H3450 H 0.5004 0.51159 0.90529 0.0
H3451 H 0.47642 0.50354 0.91769 0.0
H3452 H 0.4996 0.49185 0.92867 0.0
H3453 H 0.49975 0.60591 0.93429 0.0
H3454 H 0.49849 0.61426 0.96613 0.0
H3455 H 0.47557 0.59796 0.94635 0.0
C3456 C 0.84172 0.257 0.16187 0.0
C3457 C 0.8338 0.23215 0.15273 0.0
C3458 C 0.83019 0.2708 0.17619 0.0
C3459 C 0.81071 0.25896 0.18198 0.0
C3460 C 0.80149 0.23506 0.17042 0.0
C3461 C 0.8134 0.22156 0.15636 0.0
C3462 C 0.84001 0.29698 0.18747 0.0
C3463 C 0.77998 0.22282 0.17467 0.0
C3464 C 0.82275 0.27483 0.24683 0.0
C3465 C 0.81379 0.29626 0.25048 0.0
C3466 C 0.81792 0.25914 0.22515 0.0
C3467 C 0.80569 0.26682 0.206 0.0
C3468 C 0.79507 0.28724 0.21014 0.0
C3469 C 0.799 0.30169 0.23285 0.0
C3470 C 0.82816 0.23613 0.22192 0.0
C3471 C 0.78115 0.29521 0.19038 0.0
H3472 H 0.85694 0.26559 0.15787 0.0
H3473 H 0.80645 0.20289 0.14785 0.0
H3474 H 0.82814 0.30952 0.187 0.0
H3475 H 0.84612 0.29698 0.20667 0.0
H3476 H 0.85331 0.30467 0.17813 0.0
H3477 H 0.77182 0.21058 0.15809 0.0
H3478 H 0.78164 0.21097 0.18917 0.0
H3479 H 0.77006 0.23676 0.18026 0.0
H3480 H 0.83372 0.27038 0.26086 0.0
H3481 H 0.79132 0.31774 0.23646 0.0
H3482 H 0.84058 0.23875 0.20986 0.0
H3483 H 0.81636 0.21971 0.21359 0.0
H3484 H 0.83565 0.232 0.23928 0.0
H3485 H 0.78955 0.31221 0.18453 0.0
H3486 H 0.76669 0.30011 0.19737 0.0
H3487 H 0.7766 0.28059 0.17444 0.0
C3488 C 0.1281 0.54473 0.38786 0.0
C3489 C 0.14203 0.52748 0.3844 0.0
C3490 C 0.11642 0.54636 0.40829 0.0
C3491 C 0.11773 0.52987 0.42606 0.0
C3492 C 0.13138 0.51202 0.42222 0.0
C3493 C 0.14347 0.51147 0.40221 0.0
C3494 C 0.10316 0.56653 0.4113 0.0
C3495 C 0.13331 0.49327 0.43946 0.0
C3496 C 0.10322 0.54622 0.49206 0.0
C3497 C 0.08223 0.53401 0.49128 0.0
C3498 C 0.11456 0.54536 0.47139 0.0
C3499 C 0.10532 0.53147 0.44859 0.0
C3500 C 0.08419 0.51885 0.44777 0.0
C3501 C 0.07305 0.52049 0.4686 0.0
C3502 C 0.13659 0.55979 0.47399 0.0
C3503 C 0.0732 0.50331 0.42468 0.0
H3504 H 0.12696 0.55784 0.37505 0.0
H3505 H 0.15417 0.49819 0.40044 0.0
H3506 H 0.08667 0.55825 0.41257 0.0
H3507 H 0.10907 0.57913 0.42843 0.0
H3508 H 0.10331 0.57776 0.39614 0.0
H3509 H 0.14318 0.47943 0.4334 0.0
H3510 H 0.14035 0.50296 0.45762 0.0
H3511 H 0.11748 0.48322 0.44134 0.0
H3512 H 0.11088 0.55698 0.50897 0.0
H3513 H 0.057 0.51081 0.46708 0.0
H3514 H 0.13766 0.573 0.46052 0.0
H3515 H 0.14783 0.5469 0.47025 0.0
H3516 H 0.14153 0.57043 0.49233 0.0
H3517 H 0.07064 0.51554 0.41072 0.0
H3518 H 0.05775 0.49269 0.42716 0.0
H3519 H 0.08317 0.49001 0.41771 0.0
C3520 C 0.8058 0.85434 0.63927 0.0
C3521 C 0.82148 0.87524 0.63995 0.0
C3522 C 0.80253 0.84296 0.66006 0.0
C3523 C 0.81575 0.85209 0.68204 0.0
C3524 C 0.83155 0.87328 0.68283 0.0
C3525 C 0.83397 0.88485 0.66194 0.0
C3526 C 0.78489 0.82116 0.65844 0.0
C3527 C 0.84639 0.88325 0.7056 0.0
C3528 C 0.79959 0.83564 0.7426 0.0
C3529 C 0.80943 0.81495 0.74573 0.0
C3530 C 0.8011 0.84752 0.7218 0.0
C3531 C 0.81342 0.83917 0.70401 0.0
C3532 C 0.82361 0.81847 0.70732 0.0
C3533 C 0.82116 0.80637 0.72785 0.0
C3534 C 0.78908 0.86861 0.71857 0.0
C3535 C 0.8371 0.809 0.68911 0.0
H3536 H 0.79593 0.84691 0.6224 0.0
H3537 H 0.84621 0.90085 0.66257 0.0
H3538 H 0.79133 0.8043 0.6624 0.0
H3539 H 0.77427 0.82511 0.67216 0.0
H3540 H 0.77548 0.81695 0.64032 0.0
H3541 H 0.85809 0.89952 0.70324 0.0
H3542 H 0.83742 0.88887 0.72051 0.0
H3543 H 0.8549 0.86839 0.71119 0.0
H3544 H 0.79004 0.84201 0.75605 0.0
H3545 H 0.82856 0.79021 0.73003 0.0
H3546 H 0.77836 0.86415 0.70134 0.0
H3547 H 0.80011 0.88588 0.71745 0.0
H3548 H 0.77963 0.87235 0.7336 0.0
H3549 H 0.82715 0.80101 0.67186 0.0
H3550 H 0.8456 0.79442 0.69545 0.0
H3551 H 0.84878 0.82458 0.68528 0.0
C3552 C 0.71131 0.43468 0.51538 0.0
C3553 C 0.71415 0.41108 0.52055 0.0
C3554 C 0.69667 0.44684 0.52626 0.0
C3555 C 0.68471 0.43493 0.54254 0.0
C3556 C 0.68676 0.41064 0.54696 0.0
C3557 C 0.70131 0.39879 0.53558 0.0
C3558 C 0.69474 0.47288 0.52124 0.0
C3559 C 0.67422 0.39759 0.56434 0.0
C3560 C 0.66668 0.48215 0.58574 0.0
C3561 C 0.64689 0.48298 0.57371 0.0
C3562 C 0.67869 0.46491 0.57682 0.0
C3563 C 0.67056 0.4485 0.55539 0.0
C3564 C 0.64987 0.44774 0.54442 0.0
C3565 C 0.63814 0.46505 0.55385 0.0
C3566 C 0.70069 0.4657 0.58908 0.0
C3567 C 0.64091 0.43025 0.52155 0.0
H3568 H 0.72124 0.4442 0.50384 0.0
H3569 H 0.70332 0.38035 0.53942 0.0
H3570 H 0.67814 0.47391 0.51503 0.0
H3571 H 0.69963 0.48623 0.53808 0.0
H3572 H 0.70461 0.47894 0.50731 0.0
H3573 H 0.67955 0.3799 0.56782 0.0
H3574 H 0.67544 0.40983 0.58184 0.0
H3575 H 0.65737 0.3933 0.55685 0.0
H3576 H 0.67336 0.49603 0.60112 0.0
H3577 H 0.62257 0.46544 0.54494 0.0
H3578 H 0.71229 0.47402 0.5779 0.0
H3579 H 0.70372 0.44662 0.59091 0.0
H3580 H 0.70344 0.47696 0.60728 0.0
H3581 H 0.64908 0.4362 0.5063 0.0
H3582 H 0.6238 0.42995 0.51694 0.0
H3583 H 0.64358 0.41103 0.5233 0.0
C3584 C 0.1905 0.15417 0.52559 0.0
C3585 C 0.20846 0.14286 0.52843 0.0
C3586 C 0.17034 0.14183 0.52862 0.0
C3587 C 0.1676 0.11704 0.53406 0.0
C3588 C 0.18567 0.10539 0.53683 0.0
C3589 C 0.20583 0.11866 0.53475 0.0
C3590 C 0.15197 0.15563 0.52651 0.0
C3591 C 0.18376 0.0789 0.54212 0.0
C3592 C 0.11652 0.0921 0.55975 0.0
C3593 C 0.10333 0.08007 0.53883 0.0
C3594 C 0.13749 0.10379 0.55864 0.0
C3595 C 0.14573 0.10339 0.5361 0.0
C3596 C 0.13252 0.09096 0.51508 0.0
C3597 C 0.1117 0.0797 0.51667 0.0
C3598 C 0.15076 0.11685 0.58159 0.0
C3599 C 0.14047 0.08938 0.49075 0.0
H3600 H 0.1923 0.17317 0.5216 0.0
H3601 H 0.21962 0.11033 0.53885 0.0
H3602 H 0.13997 0.14585 0.51152 0.0
H3603 H 0.14442 0.15593 0.54336 0.0
H3604 H 0.15673 0.17512 0.52319 0.0
H3605 H 0.19928 0.07278 0.54479 0.0
H3606 H 0.1759 0.07684 0.55853 0.0
H3607 H 0.17381 0.06627 0.52692 0.0
H3608 H 0.11051 0.0923 0.57705 0.0
H3609 H 0.10195 0.07028 0.50033 0.0
H3610 H 0.15493 0.13699 0.58035 0.0
H3611 H 0.16571 0.10945 0.58405 0.0
H3612 H 0.14255 0.11469 0.59779 0.0
H3613 H 0.14476 0.10833 0.48587 0.0
H3614 H 0.12871 0.07816 0.47619 0.0
H3615 H 0.1549 0.08087 0.49166 0.0
C3616 C 0.20218 0.9443 0.83977 0.0
C3617 C 0.19937 0.95897 0.82095 0.0
C3618 C 0.21253 0.92281 0.83764 0.0
C3619 C 0.22174 0.91535 0.81643 0.0
C3620 C 0.21923 0.93029 0.79743 0.0
C3621 C 0.20809 0.95122 0.79973 0.0
C3622 C 0.2138 0.90815 0.85857 0.0
C3623 C 0.22899 0.92463 0.77464 0.0
C3624 C 0.26722 0.87455 0.82218 0.0
C3625 C 0.25774 0.84994 0.81183 0.0
C3626 C 0.25609 0.89542 0.82348 0.0
C3627 C 0.23425 0.89268 0.81452 0.0
C3628 C 0.22457 0.86787 0.80409 0.0
C3629 C 0.23616 0.84734 0.80278 0.0
C3630 C 0.26797 0.92077 0.83443 0.0
C3631 C 0.20154 0.86278 0.79454 0.0
H3632 H 0.19628 0.94979 0.85661 0.0
H3633 H 0.20707 0.96231 0.7851 0.0
H3634 H 0.20837 0.88801 0.85215 0.0
H3635 H 0.23037 0.91038 0.86686 0.0
H3636 H 0.20419 0.91425 0.8727 0.0
H3637 H 0.22696 0.93837 0.76199 0.0
H3638 H 0.24605 0.92454 0.77917 0.0
H3639 H 0.22181 0.90579 0.76532 0.0
H3640 H 0.28373 0.87772 0.82927 0.0
H3641 H 0.2281 0.82898 0.79467 0.0
H3642 H 0.26107 0.92772 0.85065 0.0
H3643 H 0.26654 0.93421 0.82135 0.0
H3644 H 0.28492 0.92054 0.83974 0.0
H3645 H 0.19218 0.86643 0.80965 0.0
H3646 H 0.19627 0.84327 0.78569 0.0
H3647 H 0.19812 0.87554 0.78134 0.0
C3648 C 0.33386 0.88556 0.02405 0.0
C3649 C 0.31738 0.89922 0.02176 0.0
C3650 C 0.3545 0.8977 0.03141 0.0
C3651 C 0.35866 0.92399 0.03528 0.0
C3652 C 0.342 0.93782 0.03353 0.0
C3653 C 0.32147 0.92512 0.02765 0.0
C3654 C 0.37188 0.88248 0.03412 0.0
C3655 C 0.34588 0.96597 0.0365 0.0
C3656 C 0.41007 0.96661 0.05707 0.0
C3657 C 0.41681 0.97045 0.03478 0.0
C3658 C 0.39169 0.94973 0.05787 0.0
C3659 C 0.38019 0.93711 0.03589 0.0
C3660 C 0.38807 0.93973 1.01365 0.0
C3661 C 0.40642 0.95626 1.01347 0.0
C3662 C 0.38433 0.94575 0.08193 0.0
C3663 C 0.37721 0.92566 0.98978 0.0
H3664 H 0.33055 0.86538 0.02055 0.0
H3665 H 0.30861 0.93553 0.02799 0.0
H3666 H 0.37984 0.88169 0.01758 0.0
H3667 H 0.38384 0.89109 0.04964 0.0
H3668 H 0.36572 0.86309 0.03676 0.0
H3669 H 0.33105 0.97376 0.03602 0.0
H3670 H 0.35573 0.97386 0.05381 0.0
H3671 H 0.35458 0.97234 0.02178 0.0
H3672 H 0.41879 0.97718 0.07356 0.0
H3673 H 0.41246 0.95855 0.99643 0.0
H3674 H 0.38049 0.92552 0.08297 0.0
H3675 H 0.36974 0.95363 0.08388 0.0
H3676 H 0.39634 0.95464 0.09731 0.0
H3677 H 0.38353 0.9081 0.98604 0.0
H3678 H 0.38019 0.93654 0.9747 0.0
H3679 H 0.36008 0.92085 0.98984 0.0
C3680 C 0.90041 0.6414 0.79163 0.0
C3681 C 0.89359 0.62201 0.80496 0.0
C3682 C 0.88976 0.66263 0.79007 0.0
C3683 C 0.87151 0.66542 0.80195 0.0
C3684 C 0.86444 0.64569 0.81493 0.0
C3685 C 0.87527 0.62496 0.81627 0.0
C3686 C 0.89777 0.68196 0.77498 0.0
C3687 C 0.845 0.64624 0.82747 0.0
C3688 C 0.85404 0.73097 0.81844 0.0
C3689 C 0.83614 0.73072 0.80165 0.0
C3690 C 0.86547 0.71042 0.81861 0.0
C3691 C 0.8598 0.6885 0.80111 0.0
C3692 C 0.84205 0.68843 0.78372 0.0
C3693 C 0.83051 0.7089 0.78441 0.0
C3694 C 0.88356 0.712 0.83812 0.0
C3695 C 0.83519 0.66658 0.76401 0.0
H3696 H 0.91404 0.64002 0.78224 0.0
H3697 H 0.8689 0.61058 0.82636 0.0
H3698 H 0.88658 0.68044 0.75835 0.0
H3699 H 0.89861 0.70088 0.78491 0.0
H3700 H 0.91345 0.67963 0.76967 0.0
H3701 H 0.84154 0.63005 0.83736 0.0
H3702 H 0.8469 0.66362 0.84043 0.0
H3703 H 0.83121 0.64621 0.81402 0.0
H3704 H 0.85886 0.74711 0.83214 0.0
H3705 H 0.81695 0.7078 0.7711 0.0
H3706 H 0.89817 0.71029 0.82984 0.0
H3707 H 0.88054 0.69627 0.84868 0.0
H3708 H 0.88613 0.72976 0.85068 0.0
H3709 H 0.84793 0.6651 0.75245 0.0
H3710 H 0.82068 0.66835 0.75245 0.0
H3711 H 0.83236 0.64897 0.77188 0.0
C3712 C 0.82359 0.62157 0.03177 0.0
C3713 C 0.82037 0.64636 0.03608 0.0
C3714 C 0.84341 0.61498 0.03746 0.0
C3715 C 0.86087 0.63371 0.04686 0.0
C3716 C 0.85789 0.65889 0.05102 0.0
C3717 C 0.83762 0.66488 0.04593 0.0
C3718 C 0.84559 0.5878 0.03359 0.0
C3719 C 0.87617 0.67952 0.06039 0.0
C3720 C 0.90746 0.61081 0.07881 0.0
C3721 C 0.91956 0.60613 0.0599 0.0
C3722 C 0.88878 0.62067 0.07512 0.0
C3723 C 0.88213 0.62661 0.05205 0.0
C3724 C 0.8949 0.62341 0.03328 0.0
C3725 C 0.91331 0.61304 0.03734 0.0
C3726 C 0.87567 0.62356 0.09565 0.0
C3727 C 0.88866 0.63001 1.00856 0.0
H3728 H 0.81046 0.60706 0.02432 0.0
H3729 H 0.83535 0.68411 0.04923 0.0
H3730 H 0.8566 0.58468 0.02012 0.0
H3731 H 0.8523 0.5823 0.05072 0.0
H3732 H 0.83031 0.57542 0.02718 0.0
H3733 H 0.87109 0.69789 0.06419 0.0
H3734 H 0.88478 0.67545 0.07714 0.0
H3735 H 0.88742 0.68075 0.04682 0.0
H3736 H 0.91238 0.60632 0.09654 0.0
H3737 H 0.92236 0.60951 0.02252 0.0
H3738 H 0.86053 0.61048 0.09112 0.0
H3739 H 0.87189 0.64266 0.09837 0.0
H3740 H 0.8837 0.61976 0.11291 0.0
H3741 H 0.87443 0.61694 0.99966 0.0
H3742 H 0.90133 0.62912 0.99678 0.0
H3743 H 0.88465 0.64904 1.01014 0.0
C3744 C 0.21957 0.09577 0.81966 0.0
C3745 C 0.19849 0.0933 0.82478 0.0
C3746 C 0.23213 0.11943 0.81832 0.0
C3747 C 0.22363 0.14201 0.82106 0.0
C3748 C 0.20215 0.1395 0.82541 0.0
C3749 C 0.19013 0.1157 0.82724 0.0
C3750 C 0.25468 0.12021 0.81375 0.0
C3751 C 0.19163 0.16217 0.82774 0.0
C3752 C 0.26148 0.20667 0.8383 0.0
C3753 C 0.26341 0.21589 0.81613 0.0
C3754 C 0.24841 0.18361 0.8402 0.0
C3755 C 0.23697 0.16794 0.81934 0.0
C3756 C 0.23875 0.17728 0.79682 0.0
C3757 C 0.2518 0.20064 0.7955 0.0
C3758 C 0.24807 0.17544 0.86474 0.0
C3759 C 0.22734 0.16213 0.77374 0.0
H3760 H 0.22624 0.079 0.81608 0.0
H3761 H 0.17384 0.11463 0.8304 0.0
H3762 H 0.25726 0.1283 0.79695 0.0
H3763 H 0.2652 0.13247 0.82877 0.0
H3764 H 0.25927 0.10145 0.81202 0.0
H3765 H 0.17495 0.15762 0.83096 0.0
H3766 H 0.20022 0.17611 0.84288 0.0
H3767 H 0.19222 0.17097 0.81101 0.0
H3768 H 0.27081 0.21729 0.8544 0.0
H3769 H 0.25355 0.20651 0.778 0.0
H3770 H 0.25957 0.16262 0.86659 0.0
H3771 H 0.23236 0.16541 0.86702 0.0
H3772 H 0.25275 0.19144 0.87943 0.0
H3773 H 0.23492 0.14565 0.76921 0.0
H3774 H 0.22757 0.17302 0.75833 0.0
H3775 H 0.21076 0.15519 0.77597 0.0
C3776 C 0.40805 0.96664 0.29814 0.0
C3777 C 0.39806 0.98716 0.2942 0.0
C3778 C 0.39666 0.94191 0.29655 0.0
C3779 C 0.37431 0.93684 0.2913 0.0
C3780 C 0.36419 0.95737 0.28661 0.0
C3781 C 0.37608 0.98174 0.28746 0.0
C3782 C 0.40867 0.92104 0.30057 0.0
C3783 C 0.34062 0.95355 0.28072 0.0
C3784 C 0.34258 0.86912 0.27104 0.0
C3785 C 0.33687 0.86158 0.29291 0.0
C3786 C 0.35456 0.89315 0.27013 0.0
C3787 C 0.36159 0.91054 0.29163 0.0
C3788 C 0.35627 0.90247 0.31371 0.0
C3789 C 0.34393 0.87878 0.31398 0.0
C3790 C 0.36032 0.89933 0.24601 0.0
C3791 C 0.36299 0.91884 0.33756 0.0
H3792 H 0.425 0.96991 0.30255 0.0
H3793 H 0.36807 0.99662 0.28254 0.0
H3794 H 0.40512 0.91397 0.31762 0.0
H3795 H 0.40366 0.90532 0.28566 0.0
H3796 H 0.42593 0.92708 0.3017 0.0
H3797 H 0.33487 0.97098 0.27727 0.0
H3798 H 0.33543 0.93943 0.2645 0.0
H3799 H 0.33312 0.94624 0.29587 0.0
H3800 H 0.33757 0.85628 0.25449 0.0
H3801 H 0.33993 0.87366 0.33117 0.0
H3802 H 0.3765 0.89572 0.24426 0.0
H3803 H 0.36017 0.91921 0.24429 0.0
H3804 H 0.34953 0.88764 0.23082 0.0
H3805 H 0.36582 0.90756 0.35233 0.0
H3806 H 0.35002 0.92897 0.34174 0.0
H3807 H 0.37743 0.93245 0.33743 0.0
C3808 C 0.58746 0.37536 0.62697 0.0
C3809 C 0.57134 0.36603 0.63979 0.0
C3810 C 0.58537 0.39518 0.61374 0.0
C3811 C 0.56681 0.40589 0.61363 0.0
C3812 C 0.5508 0.39695 0.62721 0.0
C3813 C 0.5532 0.37695 0.63994 0.0
C3814 C 0.60251 0.40388 0.59895 0.0
C3815 C 0.5308 0.40789 0.62764 0.0
C3816 C 0.57001 0.47128 0.59771 0.0
C3817 C 0.55883 0.46705 0.57452 0.0
C3818 C 0.57244 0.45152 0.6107 0.0
C3819 C 0.56432 0.42685 0.59977 0.0
C3820 C 0.55342 0.4224 0.57602 0.0
C3821 C 0.55037 0.44271 0.56384 0.0
C3822 C 0.58313 0.45712 0.63639 0.0
C3823 C 0.54517 0.39627 0.56345 0.0
H3824 H 0.60105 0.36613 0.62605 0.0
H3825 H 0.54044 0.36903 0.64918 0.0
H3826 H 0.59605 0.40123 0.57956 0.0
H3827 H 0.60841 0.42408 0.60433 0.0
H3828 H 0.61596 0.39367 0.60099 0.0
H3829 H 0.52053 0.39984 0.64034 0.0
H3830 H 0.53458 0.42838 0.63292 0.0
H3831 H 0.52182 0.40436 0.60932 0.0
H3832 H 0.57609 0.49023 0.60612 0.0
H3833 H 0.5416 0.43961 0.54593 0.0
H3834 H 0.59723 0.448 0.63815 0.0
H3835 H 0.57232 0.44942 0.64873 0.0
H3836 H 0.58804 0.47742 0.64242 0.0
H3837 H 0.55849 0.38599 0.5614 0.0
H3838 H 0.53652 0.39607 0.54528 0.0
H3839 H 0.53454 0.38601 0.57444 0.0
C3840 C 0.45036 0.76592 0.37957 0.0
C3841 C 0.45434 0.77165 0.40484 0.0
C3842 C 0.4306 0.76729 0.36678 0.0
C3843 C 0.41372 0.77311 0.37951 0.0
C3844 C 0.41741 0.77756 0.40515 0.0
C3845 C 0.43754 0.77711 0.41734 0.0
C3846 C 0.42775 0.76235 0.33958 0.0
C3847 C 0.3998 0.78197 0.41984 0.0
C3848 C 0.36518 0.79626 0.34946 0.0
C3849 C 0.35085 0.77407 0.34171 0.0
C3850 C 0.38553 0.7962 0.36148 0.0
C3851 C 0.392 0.77345 0.36632 0.0
C3852 C 0.37735 0.75104 0.35893 0.0
C3853 C 0.3573 0.75162 0.34652 0.0
C3854 C 0.40045 0.82055 0.36788 0.0
C3855 C 0.38271 0.72612 0.36372 0.0
H3856 H 0.46263 0.75994 0.36977 0.0
H3857 H 0.44008 0.78071 0.4369 0.0
H3858 H 0.41544 0.74586 0.33314 0.0
H3859 H 0.42237 0.77845 0.33214 0.0
H3860 H 0.44245 0.75891 0.33224 0.0
H3861 H 0.40482 0.78394 0.43958 0.0
H3862 H 0.39387 0.7991 0.41574 0.0
H3863 H 0.3865 0.76621 0.4149 0.0
H3864 H 0.36074 0.81372 0.34547 0.0
H3865 H 0.3466 0.73425 0.34044 0.0
H3866 H 0.41226 0.8211 0.35499 0.0
H3867 H 0.40893 0.82225 0.38633 0.0
H3868 H 0.39231 0.83684 0.3667 0.0
H3869 H 0.3907 0.7184 0.34872 0.0
H3870 H 0.36831 0.71256 0.36459 0.0
H3871 H 0.39333 0.72766 0.38082 0.0
C3872 C 0.08856 0.73203 0.1376 0.0
C3873 C 0.07003 0.73646 0.14678 0.0
C3874 C 0.08995 0.70863 0.12542 0.0
C3875 C 0.07196 0.68983 0.12117 0.0
C3876 C 0.05315 0.69433 0.1304 0.0
C3877 C 0.05279 0.71732 0.14416 0.0
C3878 C 0.11071 0.70389 0.11755 0.0
C3879 C 0.03332 0.67513 0.12529 0.0
C3880 C 0.06619 0.63831 0.06847 0.0
C3881 C 0.06905 0.61807 0.08044 0.0
C3882 C 0.06825 0.66215 0.08149 0.0
C3883 C 0.07268 0.66545 0.107 0.0
C3884 C 0.07639 0.64505 0.11901 0.0
C3885 C 0.07462 0.62148 0.10548 0.0
C3886 C 0.06433 0.68349 0.06819 0.0
C3887 C 0.08134 0.64793 0.14616 0.0
H3888 H 0.10214 0.74678 0.14047 0.0
H3889 H 0.03903 0.72036 0.15263 0.0
H3890 H 0.11521 0.68728 0.12484 0.0
H3891 H 0.10927 0.69986 0.09759 0.0
H3892 H 0.12353 0.71999 0.12376 0.0
H3893 H 0.02785 0.6721 0.10561 0.0
H3894 H 0.03636 0.65699 0.13035 0.0
H3895 H 0.02049 0.68093 0.13513 0.0
H3896 H 0.0616 0.6353 0.0491 0.0
H3897 H 0.07641 0.60545 0.11458 0.0
H3898 H 0.07872 0.69777 0.07048 0.0
H3899 H 0.05205 0.69231 0.0763 0.0
H3900 H 0.05926 0.67754 0.04858 0.0
H3901 H 0.09572 0.66201 0.15216 0.0
H3902 H 0.08377 0.63014 0.15267 0.0
H3903 H 0.06836 0.65479 0.15492 0.0
C3904 C 0.07536 0.30391 0.89757 0.0
C3905 C 0.06837 0.28775 0.9138 0.0
C3906 C 0.09572 0.30605 0.89109 0.0
C3907 C 0.10992 0.29197 0.90131 0.0
C3908 C 0.10361 0.27684 0.91893 0.0
C3909 C 0.08282 0.27482 0.92499 0.0
C3910 C 0.10163 0.32258 0.87236 0.0
C3911 C 0.11868 0.26228 0.93079 0.0
C3912 C 0.15019 0.27633 0.85988 0.0
C3913 C 0.1675 0.29511 0.86849 0.0
C3914 C 0.13178 0.27443 0.87117 0.0
C3915 C 0.13055 0.29165 0.89171 0.0
C3916 C 0.14819 0.31022 0.90097 0.0
C3917 C 0.16639 0.31177 0.88923 0.0
C3918 C 0.1132 0.25473 0.8603 0.0
C3919 C 0.14756 0.32922 0.92259 0.0
H3920 H 0.06466 0.31469 0.88928 0.0
H3921 H 0.07774 0.26261 0.9378 0.0
H3922 H 0.11615 0.33608 0.87936 0.0
H3923 H 0.10492 0.31108 0.85598 0.0
H3924 H 0.08901 0.33314 0.86696 0.0
H3925 H 0.11202 0.2528 0.94533 0.0
H3926 H 0.12271 0.24804 0.91706 0.0
H3927 H 0.13354 0.27487 0.93855 0.0
H3928 H 0.15067 0.26367 0.84365 0.0
H3929 H 0.17972 0.32625 0.89617 0.0
H3930 H 0.10009 0.26376 0.85327 0.0
H3931 H 0.10748 0.24374 0.87431 0.0
H3932 H 0.11708 0.24179 0.84526 0.0
H3933 H 0.13864 0.34368 0.91693 0.0
H3934 H 0.16359 0.33861 0.93069 0.0
H3935 H 0.13947 0.32048 0.93664 0.0
C3936 C 0.57024 0.76904 0.98789 0.0
C3937 C 0.55949 0.77786 0.96881 0.0
C3938 C 0.56027 0.74967 0.99858 0.0
C3939 C 0.53908 0.73933 0.98992 0.0
C3940 C 0.52797 0.74855 0.97107 0.0
C3941 C 0.53846 0.76761 0.96041 0.0
C3942 C 0.57246 0.74011 0.01885 0.0
C3943 C 0.50509 0.73834 0.96234 0.0
C3944 C 0.52694 0.67294 0.99916 0.0
C3945 C 0.52052 0.67573 0.0222 0.0
C3946 C 0.53194 0.69365 0.9876 0.0
C3947 C 0.52938 0.71718 0.99904 0.0
C3948 C 0.52027 0.71956 0.02077 0.0
C3949 C 0.5162 0.69866 0.0324 0.0
C3950 C 0.54209 0.69073 0.96461 0.0
C3951 C 0.51676 0.74441 0.03297 0.0
H3952 H 0.58636 0.77746 0.9946 0.0
H3953 H 0.52994 0.7751 0.94614 0.0
H3954 H 0.56422 0.74125 0.03518 0.0
H3955 H 0.57348 0.72023 1.01348 0.0
H3956 H 0.58866 0.75078 0.02372 0.0
H3957 H 0.49821 0.74929 0.94913 0.0
H3958 H 0.50344 0.71876 0.95366 0.0
H3959 H 0.49581 0.73829 0.97786 0.0
H3960 H 0.52975 0.65493 0.99115 0.0
H3961 H 0.51124 0.70075 0.05027 0.0
H3962 H 0.55877 0.70007 0.96821 0.0
H3963 H 0.53416 0.69981 0.95053 0.0
H3964 H 0.54168 0.67088 0.95734 0.0
H3965 H 0.53157 0.75421 0.04395 0.0
H3966 H 0.50446 0.74204 0.04526 0.0
H3967 H 0.51209 0.75644 0.01957 0.0
C3968 C 0.08449 0.73978 0.66144 0.0
C3969 C 0.07041 0.74317 0.67825 0.0
C3970 C 0.10486 0.73655 0.66919 0.0
C3971 C 0.1112 0.73864 0.69421 0.0
C3972 C 0.09696 0.74196 0.71118 0.0
C3973 C 0.07632 0.74285 0.70273 0.0
C3974 C 0.11949 0.7308 0.65085 0.0
C3975 C 0.10357 0.74527 0.73816 0.0
C3976 C 0.15816 0.71876 0.72439 0.0
C3977 C 0.17203 0.74131 0.72857 0.0
C3978 C 0.13862 0.71704 0.71117 0.0
C3979 C 0.13299 0.73873 0.70306 0.0
C3980 C 0.1474 0.76137 0.70651 0.0
C3981 C 0.16711 0.7623 0.71919 0.0
C3982 C 0.12383 0.69236 0.70664 0.0
C3983 C 0.1423 0.78463 0.6971 0.0
H3984 H 0.07938 0.73891 0.64233 0.0
H3985 H 0.06478 0.74309 0.71528 0.0
H3986 H 0.13191 0.74722 0.65131 0.0
H3987 H 0.12737 0.71505 0.65533 0.0
H3988 H 0.11107 0.72594 0.63223 0.0
H3989 H 0.0901 0.74646 0.74866 0.0
H3990 H 0.11115 0.72965 0.7434 0.0
H3991 H 0.11535 0.76253 0.74347 0.0
H3992 H 0.16268 0.70253 0.73144 0.0
H3993 H 0.17846 0.77944 0.72221 0.0
H3994 H 0.11594 0.68881 0.68777 0.0
H3995 H 0.1114 0.69268 0.71875 0.0
H3996 H 0.13216 0.67663 0.71003 0.0
H3997 H 0.14844 0.78575 0.67949 0.0
H3998 H 0.14998 0.80159 0.70961 0.0
H3999 H 0.12521 0.7847 0.6942 0.0
C4000 C 0.06274 0.39365 0.5008 0.0
C4001 C 0.08276 0.40471 0.49699 0.0
C4002 C 0.05418 0.40035 0.52149 0.0
C4003 C 0.06442 0.42185 0.5366 0.0
C4004 C 0.08555 0.43211 0.53444 0.0
C4005 C 0.09485 0.42285 0.51451 0.0
C4006 C 0.03204 0.3882 0.5238 0.0
C4007 C 0.09705 0.45491 0.5509 0.0
C4008 C 0.02738 0.46752 0.53665 0.0
C4009 C 0.03018 0.47611 0.56112 0.0
C4010 C 0.04002 0.45101 0.52835 0.0
C4011 C 0.05053 0.43841 0.54533 0.0
C4012 C 0.04674 0.44126 0.56968 0.0
C4013 C 0.03584 0.46025 0.57739 0.0
C4014 C 0.04326 0.44885 0.50199 0.0
C4015 C 0.05498 0.42556 0.58752 0.0
H4016 H 0.05276 0.38124 0.4868 0.0
H4017 H 0.1106 0.43092 0.51177 0.0
H4018 H 0.02916 0.38952 0.54299 0.0
H4019 H 0.02054 0.39764 0.51399 0.0
H4020 H 0.02908 0.36829 0.51566 0.0
H4021 H 0.11435 0.45611 0.55149 0.0
H4022 H 0.09262 0.47174 0.54398 0.0
H4023 H 0.09276 0.45499 0.5695 0.0
H4024 H 0.02079 0.47861 0.52419 0.0
H4025 H 0.03556 0.46566 0.59655 0.0
H4026 H 0.03458 0.43069 0.4927 0.0
H4027 H 0.06014 0.44986 0.49976 0.0
H4028 H 0.03735 0.46372 0.49284 0.0
H4029 H 0.0443 0.40737 0.58521 0.0
H4030 H 0.05559 0.43451 0.60645 0.0
H4031 H 0.07085 0.42171 0.5844 0.0
C4032 C 0.47432 0.25354 0.20767 0.0
C4033 C 0.46209 0.24534 0.18514 0.0
C4034 C 0.465 0.26011 0.22796 0.0
C4035 C 0.44302 0.25803 0.22554 0.0
C4036 C 0.43041 0.24719 0.20364 0.0
C4037 C 0.44022 0.24102 0.18334 0.0
C4038 C 0.47874 0.27105 0.2514 0.0
C4039 C 0.40674 0.2437 0.20132 0.0
C4040 C 0.41649 0.27058 0.28064 0.0
C4041 C 0.41404 0.29527 0.27944 0.0
C4042 C 0.42681 0.25829 0.26353 0.0
C4043 C 0.4337 0.27088 0.24469 0.0
C4044 C 0.43205 0.29618 0.2441 0.0
C4045 C 0.42223 0.3082 0.26176 0.0
C4046 C 0.42948 0.23171 0.26507 0.0
C4047 C 0.43996 0.3102 0.22439 0.0
H4048 H 0.49134 0.2558 0.20943 0.0
H4049 H 0.4309 0.23387 0.16607 0.0
H4050 H 0.4781 0.29122 0.25533 0.0
H4051 H 0.47292 0.26209 0.26664 0.0
H4052 H 0.49543 0.26886 0.25075 0.0
H4053 H 0.39933 0.23249 0.18388 0.0
H4054 H 0.40095 0.23434 0.21635 0.0
H4055 H 0.40165 0.26217 0.20257 0.0
H4056 H 0.40958 0.26068 0.29423 0.0
H4057 H 0.41975 0.32721 0.26093 0.0
H4058 H 0.4436 0.22685 0.2573 0.0
H4059 H 0.41556 0.2191 0.25481 0.0
H4060 H 0.4309 0.22839 0.28418 0.0
H4061 H 0.45701 0.31001 0.22411 0.0
H4062 H 0.43744 0.32988 0.2268 0.0
H4063 H 0.43178 0.30094 0.20651 0.0
C4064 C 0.63317 0.54703 0.39437 0.0
C4065 C 0.64145 0.52587 0.3852 0.0
C4066 C 0.6209 0.54729 0.4143 0.0
C4067 C 0.61631 0.52587 0.42623 0.0
C4068 C 0.62436 0.50432 0.41674 0.0
C4069 C 0.63674 0.50465 0.39692 0.0
C4070 C 0.61303 0.57089 0.42283 0.0
C4071 C 0.62016 0.4807 0.42787 0.0
C4072 C 0.6017 0.53443 0.49314 0.0
C4073 C 0.57975 0.52614 0.49079 0.0
C4074 C 0.61353 0.53408 0.47282 0.0
C4075 C 0.60356 0.52614 0.44858 0.0
C4076 C 0.58129 0.51835 0.44607 0.0
C4077 C 0.56998 0.51799 0.46678 0.0
C4078 C 0.63705 0.54184 0.47745 0.0
C4079 C 0.56915 0.51057 0.42125 0.0
H4080 H 0.63671 0.56385 0.38622 0.0
H4081 H 0.64303 0.48814 0.39071 0.0
H4082 H 0.5957 0.56703 0.4226 0.0
H4083 H 0.61993 0.57791 0.44177 0.0
H4084 H 0.61706 0.58575 0.41151 0.0
H4085 H 0.62766 0.46563 0.41916 0.0
H4086 H 0.62608 0.4844 0.44742 0.0
H4087 H 0.60297 0.47404 0.42623 0.0
H4088 H 0.60993 0.54055 0.5111 0.0
H4089 H 0.55316 0.51148 0.46406 0.0
H4090 H 0.64186 0.55836 0.46849 0.0
H4091 H 0.64482 0.52665 0.46952 0.0
H4092 H 0.64285 0.54642 0.49703 0.0
H4093 H 0.57084 0.52652 0.41082 0.0
H4094 H 0.55216 0.50415 0.42193 0.0
H4095 H 0.57565 0.49538 0.41125 0.0
C4096 C 0.27431 0.84915 0.10377 0.0
C4097 C 0.28173 0.86644 0.08919 0.0
C4098 C 0.28847 0.83845 0.11787 0.0
C4099 C 0.31029 0.84457 0.11615 0.0
C4100 C 0.31771 0.86099 0.10043 0.0
C4101 C 0.30335 0.87244 0.08769 0.0
C4102 C 0.28013 0.8209 0.13468 0.0
C4103 C 0.3407 0.86629 0.09697 0.0
C4104 C 0.34205 0.84096 0.17409 0.0
C4105 C 0.34285 0.81545 0.17105 0.0
C4106 C 0.33255 0.85142 0.15542 0.0
C4107 C 0.32541 0.83622 0.13305 0.0
C4108 C 0.33009 0.81191 0.12862 0.0
C4109 C 0.33868 0.80156 0.148 0.0
C4110 C 0.32729 0.8773 0.1608 0.0
C4111 C 0.32361 0.7957 0.1045 0.0
H4112 H 0.25751 0.8439 0.10391 0.0
H4113 H 0.30901 0.88499 0.07541 0.0
H4114 H 0.28485 0.80247 0.13023 0.0
H4115 H 0.28694 0.82829 0.15359 0.0
H4116 H 0.2627 0.81818 0.13362 0.0
H4117 H 0.34329 0.87619 0.08116 0.0
H4118 H 0.34981 0.87794 0.11331 0.0
H4119 H 0.34715 0.84866 0.09447 0.0
H4120 H 0.34569 0.85157 0.19203 0.0
H4121 H 0.3395 0.78183 0.1457 0.0
H4122 H 0.31 0.87606 0.16038 0.0
H4123 H 0.33224 0.88885 0.14689 0.0
H4124 H 0.33488 0.88698 0.17881 0.0
H4125 H 0.30735 0.78558 0.10393 0.0
H4126 H 0.33403 0.78157 0.10176 0.0
H4127 H 0.32393 0.80689 0.08934 0.0
C4128 C 0.94617 0.5484 0.89294 0.0
C4129 C 0.95376 0.56015 0.87372 0.0
C4130 C 0.95924 0.54588 0.91422 0.0
C4131 C 0.98077 0.55739 0.91854 0.0
C4132 C 0.98848 0.57042 0.89972 0.0
C4133 C 0.9753 0.57088 0.87757 0.0
C4134 C 0.94956 0.53021 0.93178 0.0
C4135 C 1.01072 0.58429 0.90265 0.0
C4136 C 1.00631 0.56569 0.98666 0.0
C4137 C 0.02134 0.54963 0.98624 0.0
C4138 C 0.9936 0.56889 0.96509 0.0
C4139 C 0.99496 0.55507 0.94209 0.0
C4140 C 1.00959 0.53816 0.94198 0.0
C4141 C 0.02268 0.53621 0.96347 0.0
C4142 C 0.97893 0.58763 0.96706 0.0
C4143 C 1.01134 0.52164 0.91904 0.0
H4144 H 0.92971 0.54037 0.89131 0.0
H4145 H 0.98185 0.58035 0.86354 0.0
H4146 H 0.96133 0.52176 0.94232 0.0
H4147 H 0.94198 0.542 0.94451 0.0
H4148 H 0.93711 0.51498 0.92216 0.0
H4149 H 1.01125 0.60192 0.89472 0.0
H4150 H 1.01777 0.58878 0.92183 0.0
H4151 H 0.02054 0.57282 0.89262 0.0
H4152 H 1.00504 0.5766 1.0037 0.0
H4153 H 0.03409 0.52373 0.96243 0.0
H4154 H 0.96278 0.57781 0.96764 0.0
H4155 H 0.97864 0.59788 0.9512 0.0
H4156 H 0.98347 0.60128 0.98378 0.0
H4157 H 0.99549 0.51234 0.91028 0.0
H4158 H 0.02109 0.50713 0.92235 0.0
H4159 H 1.01862 0.53306 0.90619 0.0
C4160 C 0.26041 0.19975 0.62366 0.0
C4161 C 0.27329 0.20987 0.60758 0.0
C4162 C 0.26195 0.21111 0.64765 0.0
C4163 C 0.27711 0.23274 0.65587 0.0
C4164 C 0.2904 0.24285 0.63978 0.0
C4165 C 0.28813 0.23145 0.61568 0.0
C4166 C 0.24739 0.19992 0.66423 0.0
C4167 C 0.30718 0.26543 0.64814 0.0
C4168 C 0.27058 0.2725 0.71414 0.0
C4169 C 0.28466 0.26435 0.73078 0.0
C4170 C 0.26821 0.26271 0.68951 0.0
C4171 C 0.27978 0.24396 0.68165 0.0
C4172 C 0.29376 0.23547 0.69852 0.0
C4173 C 0.29612 0.2459 0.72281 0.0
C4174 C 0.25345 0.27246 0.67186 0.0
C4175 C 0.3061 0.21521 0.691 0.0
H4176 H 0.24878 0.18321 0.61732 0.0
H4177 H 0.29817 0.23921 0.60325 0.0
H4178 H 0.25669 0.19397 0.67953 0.0
H4179 H 0.23852 0.21408 0.67199 0.0
H4180 H 0.23597 0.18357 0.65477 0.0
H4181 H 0.31582 0.27142 0.63322 0.0
H4182 H 0.30005 0.28118 0.65609 0.0
H4183 H 0.31866 0.26127 0.66251 0.0
H4184 H 0.26174 0.28678 0.72031 0.0
H4185 H 0.30676 0.23922 0.73573 0.0
H4186 H 0.2411 0.25701 0.66255 0.0
H4187 H 0.26221 0.28021 0.65778 0.0
H4188 H 0.24575 0.28721 0.68081 0.0
H4189 H 0.29514 0.19778 0.68341 0.0
H4190 H 0.31676 0.21126 0.70632 0.0
H4191 H 0.31564 0.22059 0.67662 0.0
C4192 C 0.64072 0.54449 0.23415 0.0
C4193 C 0.63983 0.52175 0.24358 0.0
C4194 C 0.62897 0.54659 0.21179 0.0
C4195 C 0.61625 0.5253 0.19746 0.0
C4196 C 0.61557 0.50217 0.20675 0.0
C4197 C 0.62685 0.5008 0.22966 0.0
C4198 C 0.62989 0.57189 0.20368 0.0
C4199 C 0.6028 0.47871 0.19241 0.0
C4200 C 0.57195 0.53506 0.14864 0.0
C4201 C 0.5808 0.53165 0.12682 0.0
C4202 C 0.58289 0.53245 0.17131 0.0
C4203 C 0.60383 0.52723 0.17295 0.0
C4204 C 0.61289 0.52413 0.15095 0.0
C4205 C 0.60128 0.52588 0.12841 0.0
C4206 C 0.57192 0.53524 0.19362 0.0
C4207 C 0.63515 0.51927 0.15123 0.0
H4208 H 0.65014 0.56102 0.24476 0.0
H4209 H 0.62567 0.48312 0.23658 0.0
H4210 H 0.63557 0.57154 0.18571 0.0
H4211 H 0.61389 0.5768 0.20171 0.0
H4212 H 0.64036 0.58671 0.2166 0.0
H4213 H 0.60399 0.46209 0.2016 0.0
H4214 H 0.58602 0.48081 0.18938 0.0
H4215 H 0.60821 0.47546 0.17438 0.0
H4216 H 0.55617 0.53942 0.14794 0.0
H4217 H 0.60855 0.52345 0.11196 0.0
H4218 H 0.58069 0.55111 0.20674 0.0
H4219 H 0.57167 0.51826 0.20255 0.0
H4220 H 0.55549 0.53838 0.18948 0.0
H4221 H 0.64603 0.53471 0.1629 0.0
H4222 H 0.64017 0.51747 0.13289 0.0
H4223 H 0.63668 0.50193 0.15906 0.0
C4224 C 0.24326 0.82347 0.94127 0.0
C4225 C 0.2528 0.82887 0.96508 0.0
C4226 C 0.2514 0.80766 0.92468 0.0
C4227 C 0.27011 0.79879 0.93221 0.0
C4228 C 0.27871 0.80266 0.95664 0.0
C4229 C 0.26931 0.8169 0.97307 0.0
C4230 C 0.24163 0.8032 0.89862 0.0
C4231 C 0.29973 0.79569 0.96473 0.0
C4232 C 0.28776 0.75866 0.88285 0.0
C4233 C 0.29697 0.77728 0.87063 0.0
C4234 C 0.28062 0.76514 0.90488 0.0
C4235 C 0.28294 0.79062 0.914 0.0
C4236 C 0.29517 0.80887 0.90323 0.0
C4237 C 0.3026 0.8017 0.88174 0.0
C4238 C 0.26776 0.74534 0.91609 0.0
C4239 C 0.2976 0.8363 0.91187 0.0
H4240 H 0.23064 0.83304 0.93531 0.0
H4241 H 0.27698 0.82169 0.99152 0.0
H4242 H 0.25056 0.81629 0.88831 0.0
H4243 H 0.24216 0.78396 0.89021 0.0
H4244 H 0.22504 0.80628 0.8969 0.0
H4245 H 0.30225 0.79575 0.98459 0.0
H4246 H 0.30132 0.77713 0.95556 0.0
H4247 H 0.31242 0.80953 0.95988 0.0
H4248 H 0.28346 0.73969 0.87368 0.0
H4249 H 0.30929 0.81593 0.87176 0.0
H4250 H 0.25082 0.74543 0.91073 0.0
H4251 H 0.27072 0.74901 0.93609 0.0
H4252 H 0.27118 0.72652 0.90992 0.0
H4253 H 0.28426 0.84389 0.9032 0.0
H4254 H 0.31237 0.84657 0.90701 0.0
H4255 H 0.29764 0.83952 0.93157 0.0
C4256 C 0.97277 0.54365 0.72952 0.0
C4257 C 0.9543 0.55424 0.7305 0.0
C4258 C 0.98302 0.54092 0.70819 0.0
C4259 C 0.97588 0.55055 0.68681 0.0
C4260 C 0.95723 0.56157 0.68788 0.0
C4261 C 0.94653 0.56253 0.70905 0.0
C4262 C 1.00147 0.52718 0.70911 0.0
C4263 C 0.94836 0.57286 0.66675 0.0
C4264 C 0.02034 0.56158 0.64454 0.0
C4265 C 1.0112 0.54938 0.62143 0.0
C4266 C 1.00893 0.56328 0.665 0.0
C4267 C 0.98806 0.54981 0.66407 0.0
C4268 C 0.97937 0.53547 0.64116 0.0
C4269 C 0.99048 0.53631 0.62035 0.0
C4270 C 1.0198 0.58005 0.68749 0.0
C4271 C 0.95857 0.51814 0.63807 0.0
H4272 H 0.9791 0.53671 0.7455 0.0
H4273 H 0.93235 0.57071 0.70903 0.0
H4274 H 1.0057 0.52102 0.69099 0.0
H4275 H 1.01527 0.53939 0.72007 0.0
H4276 H 0.99796 0.51051 0.71835 0.0
H4277 H 0.93954 0.58784 0.67279 0.0
H4278 H 0.96085 0.58072 0.65642 0.0
H4279 H 0.93715 0.55827 0.65447 0.0
H4280 H 0.03661 0.57035 0.64686 0.0
H4281 H 0.98305 0.5257 0.60327 0.0
H4282 H 0.03098 0.57019 0.69724 0.0
H4283 H 1.00865 0.58598 0.69982 0.0
H4284 H 0.02919 0.59702 0.68263 0.0
H4285 H 0.96027 0.49957 0.62888 0.0
H4286 H 0.94694 0.52537 0.62609 0.0
H4287 H 0.95231 0.51557 0.65537 0.0
C4288 C 0.2848 0.19497 0.45208 0.0
C4289 C 0.2722 0.20191 0.46976 0.0
C4290 C 0.28855 0.20919 0.43327 0.0
C4291 C 0.27894 0.23055 0.43153 0.0
C4292 C 0.26611 0.23757 0.44932 0.0
C4293 C 0.26321 0.22345 0.46843 0.0
C4294 C 0.3029 0.20138 0.41531 0.0
C4295 C 0.25495 0.25963 0.44776 0.0
C4296 C 0.30038 0.28072 0.39451 0.0
C4297 C 0.28789 0.27332 0.37204 0.0
C4298 C 0.29803 0.26664 0.41377 0.0
C4299 C 0.2821 0.24533 0.41099 0.0
C4300 C 0.26939 0.23796 0.3884 0.0
C4301 C 0.27303 0.25143 0.36902 0.0
C4302 C 0.31283 0.27428 0.43696 0.0
C4303 C 0.25177 0.21592 0.38467 0.0
H4304 H 0.29194 0.17845 0.45311 0.0
H4305 H 0.2533 0.22877 0.48189 0.0
H4306 H 0.29415 0.19688 0.39689 0.0
H4307 H 0.31591 0.21696 0.41492 0.0
H4308 H 0.30976 0.18486 0.41968 0.0
H4309 H 0.24526 0.26244 0.46272 0.0
H4310 H 0.26655 0.27682 0.44823 0.0
H4311 H 0.2446 0.25692 0.43031 0.0
H4312 H 0.3125 0.29708 0.3968 0.0
H4313 H 0.26405 0.24486 0.35153 0.0
H4314 H 0.32083 0.25853 0.44116 0.0
H4315 H 0.30388 0.27887 0.4522 0.0
H4316 H 0.32498 0.29063 0.43599 0.0
H4317 H 0.25829 0.19852 0.38589 0.0
H4318 H 0.24209 0.21408 0.36684 0.0
H4319 H 0.24139 0.21776 0.39906 0.0
C4320 C 0.37445 0.64756 0.53446 0.0
C4321 C 0.37726 0.66593 0.55462 0.0
C4322 C 0.39081 0.63552 0.52863 0.0
C4323 C 0.41064 0.64319 0.54261 0.0
C4324 C 0.41443 0.66429 0.56052 0.0
C4325 C 0.3974 0.67536 0.56671 0.0
C4326 C 0.38596 0.61252 0.50981 0.0
C4327 C 0.43588 0.67354 0.57459 0.0
C4328 C 0.43315 0.58634 0.55166 0.0
C4329 C 0.44441 0.58425 0.53184 0.0
C4330 C 0.42339 0.60688 0.55671 0.0
C4331 C 0.4254 0.62578 0.54168 0.0
C4332 C 0.43757 0.62444 0.52238 0.0
C4333 C 0.44667 0.60326 0.51734 0.0
C4334 C 0.40947 0.6072 0.57674 0.0
C4335 C 0.44004 0.64484 0.50655 0.0
H4336 H 0.35901 0.64094 0.5244 0.0
H4337 H 0.39967 0.69026 0.58178 0.0
H4338 H 0.39778 0.61281 0.49694 0.0
H4339 H 0.3864 0.5957 0.51888 0.0
H4340 H 0.37017 0.61061 0.49932 0.0
H4341 H 0.43713 0.69283 0.58398 0.0
H4342 H 0.43888 0.66127 0.58841 0.0
H4343 H 0.44831 0.673 0.56246 0.0
H4344 H 0.43128 0.5714 0.56265 0.0
H4345 H 0.45564 0.6016 0.50218 0.0
H4346 H 0.39283 0.60582 0.56892 0.0
H4347 H 0.41377 0.62494 0.58923 0.0
H4348 H 0.41057 0.59157 0.58739 0.0
H4349 H 0.42447 0.648 0.49856 0.0
H4350 H 0.44933 0.6405 0.49156 0.0
H4351 H 0.44785 0.66258 0.51771 0.0
C4352 C 0.89628 0.93125 0.55369 0.0
C4353 C 0.88409 0.93952 0.57129 0.0
C4354 C 0.91642 0.94454 0.55155 0.0
C4355 C 0.9257 0.96565 0.56866 0.0
C4356 C 0.91347 0.97381 0.58678 0.0
C4357 C 0.89278 0.96108 0.58749 0.0
C4358 C 0.92775 0.93598 0.5308 0.0
C4359 C 0.92237 0.99578 0.6058 0.0
C4360 C 0.98659 0.9816 0.57939 0.0
C4361 C 0.99101 1.00216 0.56702 0.0
C4362 C 0.96564 0.96952 0.57982 0.0
C4363 C 0.94833 0.97845 0.56813 0.0
C4364 C 0.95289 0.99956 0.556 0.0
C4365 C 0.97396 1.01084 0.55531 0.0
C4366 C 0.96202 0.94732 0.59314 0.0
C4367 C 0.93555 1.01026 0.54343 0.0
H4368 H 0.88988 0.91447 0.54125 0.0
H4369 H 0.88368 0.96748 0.6014 0.0
H4370 H 0.93219 0.95172 0.52065 0.0
H4371 H 0.94246 0.92986 0.53774 0.0
H4372 H 0.91796 0.92039 0.51811 0.0
H4373 H 0.91205 0.99802 0.62022 0.0
H4374 H 0.93813 0.99366 0.61419 0.0
H4375 H 0.92431 1.01309 0.59734 0.0
H4376 H 0.9996 0.97491 0.58878 0.0
H4377 H 0.97709 0.02698 0.54604 0.0
H4378 H 0.95376 0.93078 0.5805 0.0
H4379 H 0.95176 0.95095 0.60734 0.0
H4380 H 0.97694 0.94283 0.60169 0.0
H4381 H 0.92915 0.99776 0.5264 0.0
H4382 H 0.94107 0.02917 0.53899 0.0
H4383 H 0.92273 1.01138 0.55488 0.0
C4384 C 0.90255 0.13962 0.29029 0.0
C4385 C 0.89371 0.11886 0.30083 0.0
C4386 C 0.89336 0.16218 0.29046 0.0
C4387 C 0.87458 0.16499 0.30136 0.0
C4388 C 0.86568 0.14408 0.3118 0.0
C4389 C 0.87504 0.12205 0.31137 0.0
C4390 C 0.90387 0.18325 0.27884 0.0
C4391 C 0.84592 0.14482 0.3237 0.0
C4392 C 0.85876 0.23098 0.32169 0.0
C4393 C 0.84184 0.23284 0.30427 0.0
C4394 C 0.86939 0.20966 0.32092 0.0
C4395 C 0.86397 0.1891 0.30179 0.0
C4396 C 0.84713 0.19112 0.28397 0.0
C4397 C 0.83628 0.21218 0.28567 0.0
C4398 C 0.88628 0.20892 0.3412 0.0
C4399 C 0.84036 0.17076 0.26281 0.0
H4400 H 0.91676 0.13842 0.28197 0.0
H4401 H 0.86728 0.10689 0.31958 0.0
H4402 H 0.89239 0.18854 0.26515 0.0
H4403 H 0.90936 0.19983 0.29268 0.0
H4404 H 0.91753 0.17836 0.27003 0.0
H4405 H 0.84147 0.12802 0.33245 0.0
H4406 H 0.84804 0.16154 0.33755 0.0
H4407 H 0.83268 0.14621 0.31007 0.0
H4408 H 0.86345 0.24606 0.33651 0.0
H4409 H 0.8232 0.21237 0.2721 0.0
H4410 H 0.90131 0.20722 0.33388 0.0
H4411 H 0.88197 0.19226 0.35018 0.0
H4412 H 0.88878 0.22579 0.35495 0.0
H4413 H 0.8542 0.16689 0.25381 0.0
H4414 H 0.82851 0.17566 0.24927 0.0
H4415 H 0.83353 0.1533 0.2692 0.0
C4416 C 0.77464 0.16021 0.08911 0.0
C4417 C 0.77912 0.18474 0.08438 0.0
C4418 C 0.75426 0.14967 0.09192 0.0
C4419 C 0.73833 0.16458 0.09122 0.0
C4420 C 0.74295 0.18976 0.08756 0.0
C4421 C 0.76341 0.19958 0.08399 0.0
C4422 C 0.74972 0.12249 0.0951 0.0
C4423 C 0.72629 0.20617 0.08731 0.0
C4424 C 0.68392 0.12828 0.07274 0.0
C4425 C 0.67699 0.12587 0.09521 0.0
C4426 C 0.70348 0.14202 0.0712 0.0
C4427 C 0.7166 0.15307 0.09265 0.0
C4428 C 0.70955 0.15126 0.11541 0.0
C4429 C 0.68968 0.13767 0.11642 0.0
C4430 C 0.70995 0.14453 0.04656 0.0
C4431 C 0.72311 0.16323 0.1386 0.0
H4432 H 0.78716 0.14936 0.09106 0.0
H4433 H 0.76722 0.21887 0.08118 0.0
H4434 H 0.74225 0.12029 0.11174 0.0
H4435 H 0.73849 0.1121 0.07963 0.0
H4436 H 0.76415 0.11386 0.09616 0.0
H4437 H 0.73301 0.22601 0.08715 0.0
H4438 H 0.71461 0.19979 0.07104 0.0
H4439 H 0.71775 0.20477 0.10334 0.0
H4440 H 0.67423 0.11904 0.05628 0.0
H4441 H 0.68409 0.13628 0.1338 0.0
H4442 H 0.72699 0.14502 0.04694 0.0
H4443 H 0.70627 0.16229 0.04109 0.0
H4444 H 0.7016 0.12904 0.03268 0.0
H4445 H 0.73681 0.1536 0.14148 0.0
H4446 H 0.71436 0.16241 0.15454 0.0
H4447 H 0.72934 0.183 0.13748 0.0
C4448 C 0.19434 0.44249 0.30271 0.0
C4449 C 0.20165 0.46368 0.32032 0.0
C4450 C 0.20492 0.42101 0.30057 0.0
C4451 C 0.22368 0.41986 0.31614 0.0
C4452 C 0.231 0.44114 0.33381 0.0
C4453 C 0.22024 0.46208 0.33559 0.0
C4454 C 0.19592 0.39926 0.28144 0.0
C4455 C 0.25055 0.442 0.35119 0.0
C4456 C 0.24181 0.35547 0.32586 0.0
C4457 C 0.25919 0.35453 0.3127 0.0
C4458 C 0.23058 0.37624 0.32731 0.0
C4459 C 0.2356 0.39682 0.31433 0.0
C4460 C 0.25301 0.39574 0.30078 0.0
C4461 C 0.26459 0.37534 0.30056 0.0
C4462 C 0.2139 0.37667 0.34396 0.0
C4463 C 0.25956 0.41637 0.28632 0.0
H4464 H 0.18033 0.44259 0.29046 0.0
H4465 H 0.22684 0.47767 0.34937 0.0
H4466 H 0.20803 0.3952 0.26963 0.0
H4467 H 0.19145 0.38242 0.29012 0.0
H4468 H 0.18188 0.40271 0.27011 0.0
H4469 H 0.25369 0.45888 0.36497 0.0
H4470 H 0.24909 0.4253 0.36059 0.0
H4471 H 0.26436 0.4418 0.34112 0.0
H4472 H 0.23737 0.34024 0.3359 0.0
H4473 H 0.27787 0.37551 0.29033 0.0
H4474 H 0.19983 0.38277 0.33518 0.0
H4475 H 0.22001 0.3904 0.36029 0.0
H4476 H 0.20932 0.35821 0.34983 0.0
H4477 H 0.24597 0.41869 0.27358 0.0
H4478 H 0.27267 0.41271 0.27588 0.0
H4479 H 0.26459 0.43424 0.29851 0.0
C4480 C 0.26148 0.43633 0.08385 0.0
C4481 C 0.27069 0.4287 0.06337 0.0
C4482 C 0.24187 0.44454 0.08152 0.0
C4483 C 0.23129 0.44496 0.0582 0.0
C4484 C 0.24006 0.43586 0.03753 0.0
C4485 C 0.2597 0.42806 0.0404 0.0
C4486 C 0.23311 0.45426 0.10396 0.0
C4487 C 0.22944 0.43589 1.01232 0.0
C4488 C 0.17415 0.45544 0.05134 0.0
C4489 C 0.17652 0.48109 0.0499 0.0
C4490 C 0.19177 0.44337 0.05403 0.0
C4491 C 0.21227 0.45723 0.05535 0.0
C4492 C 0.21472 0.48306 0.05376 0.0
C4493 C 0.19691 0.49464 0.05122 0.0
C4494 C 0.18845 0.41574 0.05523 0.0
C4495 C 0.23622 0.49857 0.05467 0.0
H4496 H 0.27015 0.43732 0.10159 0.0
H4497 H 0.26699 0.42246 0.02454 0.0
H4498 H 0.23326 0.47459 0.10463 0.0
H4499 H 0.2165 0.4453 0.10349 0.0
H4500 H 0.24228 0.45095 0.12072 0.0
H4501 H 0.23674 0.42512 0.99841 0.0
H4502 H 0.21249 0.42796 1.01076 0.0
H4503 H 0.2306 0.45533 1.00835 0.0
H4504 H 0.1585 0.44468 0.04993 0.0
H4505 H 0.199 0.51449 0.05045 0.0
H4506 H 0.19642 0.41215 0.07257 0.0
H4507 H 0.19562 0.40604 0.04052 0.0
H4508 H 0.17153 0.40753 0.05363 0.0
H4509 H 0.2459 0.49775 0.07193 0.0
H4510 H 0.23543 0.51838 0.05302 0.0
H4511 H 0.24444 0.49095 0.03982 0.0
C4512 C 0.89962 0.96519 0.30966 0.0
C4513 C 0.892 0.98317 0.29668 0.0
C4514 C 0.88712 0.94157 0.31142 0.0
C4515 C 0.86651 0.93381 0.29833 0.0
C4516 C 0.85896 0.95184 0.2847 0.0
C4517 C 0.87132 0.97595 0.28457 0.0
C4518 C 0.89614 0.92517 0.32795 0.0
C4519 C 0.83765 0.94613 0.2698 0.0
C4520 C 0.84217 0.86146 0.28812 0.0
C4521 C 0.82512 0.86018 0.30198 0.0
C4522 C 0.85558 0.88472 0.28664 0.0
C4523 C 0.85269 0.90785 0.29982 0.0
C4524 C 0.83593 0.90598 0.31437 0.0
C4525 C 0.8225 0.88296 0.31487 0.0
C4526 C 0.87254 0.88444 0.27032 0.0
C4527 C 0.83203 0.92855 0.32981 0.0
H4528 H 0.91537 0.96993 0.31928 0.0
H4529 H 0.86484 0.98902 0.2742 0.0
H4530 H 0.88374 0.9148 0.33682 0.0
H4531 H 0.90371 0.91148 0.3173 0.0
H4532 H 0.9083 0.93623 0.34219 0.0
H4533 H 0.83853 0.95331 0.25222 0.0
H4534 H 0.83122 0.92593 0.26619 0.0
H4535 H 0.82652 0.95595 0.27938 0.0
H4536 H 0.84452 0.84448 0.27751 0.0
H4537 H 0.80953 0.88285 0.3256 0.0
H4538 H 0.88788 0.88529 0.28136 0.0
H4539 H 0.87368 0.90083 0.26043 0.0
H4540 H 0.86972 0.86719 0.25702 0.0
H4541 H 0.84701 0.93779 0.34066 0.0
H4542 H 0.82017 0.92411 0.34223 0.0
H4543 H 0.82639 0.94153 0.31802 0.0
C4544 C 0.69129 0.11721 0.82416 0.0
C4545 C 0.69909 0.09458 0.82131 0.0
C4546 C 0.704 0.14048 0.82279 0.0
C4547 C 0.72538 0.14175 0.81861 0.0
C4548 C 0.73344 0.11899 0.81609 0.0
C4549 C 0.72019 0.09592 0.8168 0.0
C4550 C 0.69435 0.16381 0.82539 0.0
C4551 C 0.75623 0.11902 0.81279 0.0
C4552 C 0.75373 0.19662 0.79013 0.0
C4553 C 0.7638 0.21371 0.81026 0.0
C4554 C 0.74122 0.17362 0.79264 0.0
C4555 C 0.73898 0.16656 0.81591 0.0
C4556 C 0.74951 0.1836 0.83631 0.0
C4557 C 0.76138 0.20683 0.83326 0.0
C4558 C 0.7298 0.15715 0.77022 0.0
C4559 C 0.74815 0.17794 0.86171 0.0
H4560 H 0.67502 0.11672 0.82723 0.0
H4561 H 0.72636 0.07876 0.81336 0.0
H4562 H 0.70264 0.17673 0.84141 0.0
H4563 H 0.69625 0.17348 0.80933 0.0
H4564 H 0.67736 0.15987 0.82747 0.0
H4565 H 0.76039 0.10007 0.81165 0.0
H4566 H 0.75983 0.12678 0.7961 0.0
H4567 H 0.76639 0.13123 0.82812 0.0
H4568 H 0.75516 0.20152 0.7722 0.0
H4569 H 0.76895 0.21955 0.8491 0.0
H4570 H 0.71268 0.15358 0.77161 0.0
H4571 H 0.73516 0.13886 0.76851 0.0
H4572 H 0.73229 0.16555 0.75353 0.0
H4573 H 0.73609 0.18766 0.86954 0.0
H4574 H 0.76336 0.18498 0.87328 0.0
H4575 H 0.74378 0.15778 0.86238 0.0
loop_
_geom_bond_atom_site_label_1
_geom_bond_atom_site_label_2
_geom_bond_distance
_geom_bond_site_symmetry_2
_ccdc_geom_bond_type
Mn0 O5 2.095 . S
Mn0 O15 2.162 . S
Mn0 O16 2.297 . S
Mn0 O24 2.385 . S
Mn0 O25 2.209 . S
Mn0 O26 2.094 . S
Mn1 O6 2.121 . S
Mn1 N8 2.257 . S
Mn1 N17 2.282 . S
Mn1 O25 2.215 . S
Mn1 O27 2.117 . S
C2 O24 1.234 . S
C2 O25 1.283 . S
C3 O15 1.281 . S
C3 O16 1.236 . S
C4 O26 1.240 . S
C4 O27 1.264 . S
O5 Mn0 2.095 . S
O5 C14 1.250 . S
O6 Mn1 2.121 . S
O6 C14 1.258 . S
C7 N8 1.326 . S
C7 C11 1.460 . S
C7 H13 0.929 . S
N8 Mn1 2.257 . S
N8 C7 1.326 . S
N8 C12 1.362 . S
C9 C10 1.258 . S
C9 C12 1.431 . S
C9 C29 1.449 1_455 S
C10 C9 1.258 . S
C10 C11 1.477 . S
C10 H30 0.931 . S
C11 C7 1.460 . S
C11 C10 1.477 . S
C11 H31 0.930 . S
C12 N8 1.362 . S
C12 C9 1.431 . S
C12 C22 1.476 . S
H13 C7 0.929 . S
C14 O5 1.250 . S
C14 O6 1.258 . S
O15 Mn0 2.162 . S
O15 C3 1.281 . S
O16 Mn0 2.297 . S
O16 C3 1.236 . S
N17 Mn1 2.282 . S
N17 C18 1.328 . S
N17 C22 1.318 . S
C18 N17 1.328 . S
C18 C19 1.457 1_455 S
C18 H23 0.929 . S
C19 C18 1.457 1_655 S
C19 C20 1.291 . S
C19 H32 0.931 . S
C20 C19 1.291 . S
C20 C21 1.373 . S
C20 H33 0.929 . S
C21 C20 1.373 . S
C21 C22 1.396 1_655 S
C21 C28 1.403 . S
C22 C12 1.476 . S
C22 N17 1.318 . S
C22 C21 1.396 1_455 S
H23 C18 0.929 . S
O24 Mn0 2.385 . S
O24 C2 1.234 . S
O25 Mn0 2.209 . S
O25 Mn1 2.215 . S
O25 C2 1.283 . S
O26 Mn0 2.094 . S
O26 C4 1.240 . S
O27 Mn1 2.117 . S
O27 C4 1.264 . S
C28 C21 1.403 . S
C28 C29 1.399 . S
C28 H34 0.929 . S
C29 C9 1.449 1_655 S
C29 C28 1.399 . S
C29 H35 0.930 . S
H30 C10 0.931 . S
H31 C11 0.930 . S
H32 C19 0.931 . S
H33 C20 0.929 . S
H34 C28 0.929 . S
H35 C29 0.930 . S
Mn36 O41 2.095 1_455 S
Mn36 O51 2.162 . S
Mn36 O52 2.297 . S
Mn36 O60 2.385 . S
Mn36 O61 2.209 . S
Mn36 O62 2.094 . S
Mn37 O42 2.121 1_455 S
Mn37 N44 2.257 . S
Mn37 N53 2.282 . S
Mn37 O61 2.215 . S
Mn37 O63 2.117 . S
C38 O60 1.234 . S
C38 O61 1.283 . S
C39 O51 1.281 . S
C39 O52 1.236 . S
C40 O62 1.240 . S
C40 O63 1.264 . S
O41 Mn36 2.095 1_655 S
O41 C50 1.250 . S
O42 Mn37 2.121 1_655 S
O42 C50 1.258 . S
C43 N44 1.326 . S
C43 C47 1.460 . S
C43 H49 0.929 . S
N44 Mn37 2.257 . S
N44 C43 1.326 . S
N44 C48 1.362 . S
C45 C46 1.258 . S
C45 C48 1.431 . S
C45 C65 1.449 . S
C46 C45 1.258 . S
C46 C47 1.477 . S
C46 H66 0.931 . S
C47 C43 1.460 . S
C47 C46 1.477 . S
C47 H67 0.930 . S
C48 N44 1.362 . S
C48 C45 1.431 . S
C48 C58 1.476 . S
H49 C43 0.929 . S
C50 O41 1.250 . S
C50 O42 1.258 . S
O51 Mn36 2.162 . S
O51 C39 1.281 . S
O52 Mn36 2.297 . S
O52 C39 1.236 . S
N53 Mn37 2.282 . S
N53 C54 1.328 . S
N53 C58 1.318 . S
C54 N53 1.328 . S
C54 C55 1.457 . S
C54 H59 0.929 . S
C55 C54 1.457 . S
C55 C56 1.291 . S
C55 H68 0.931 . S
C56 C55 1.291 . S
C56 C57 1.373 . S
C56 H69 0.929 . S
C57 C56 1.373 . S
C57 C58 1.396 . S
C57 C64 1.403 . S
C58 C48 1.476 . S
C58 N53 1.318 . S
C58 C57 1.396 . S
H59 C54 0.929 . S
O60 Mn36 2.385 . S
O60 C38 1.234 . S
O61 Mn36 2.209 . S
O61 Mn37 2.215 . S
O61 C38 1.283 . S
O62 Mn36 2.094 . S
O62 C40 1.240 . S
O63 Mn37 2.117 . S
O63 C40 1.264 . S
C64 C57 1.403 . S
C64 C65 1.399 . S
C64 H70 0.929 . S
C65 C45 1.449 . S
C65 C64 1.399 . S
C65 H71 0.930 . S
H66 C46 0.931 . S
H67 C47 0.930 . S
H68 C55 0.931 . S
H69 C56 0.929 . S
H70 C64 0.929 . S
H71 C65 0.930 . S
Mn72 O77 2.095 . S
Mn72 O87 2.162 . S
Mn72 O88 2.297 . S
Mn72 O96 2.385 . S
Mn72 O97 2.209 . S
Mn72 O98 2.094 . S
Mn73 O78 2.121 . S
Mn73 N80 2.257 . S
Mn73 N89 2.282 . S
Mn73 O97 2.215 . S
Mn73 O99 2.117 . S
C74 O96 1.234 . S
C74 O97 1.283 . S
C75 O87 1.281 . S
C75 O88 1.236 . S
C76 O98 1.240 . S
C76 O99 1.264 . S
O77 Mn72 2.095 . S
O77 C86 1.250 . S
O78 Mn73 2.121 . S
O78 C86 1.258 . S
C79 N80 1.326 . S
C79 C83 1.460 . S
C79 H85 0.929 . S
N80 Mn73 2.257 . S
N80 C79 1.326 . S
N80 C84 1.362 . S
C81 C82 1.258 . S
C81 C84 1.431 . S
C81 C101 1.449 . S
C82 C81 1.258 . S
C82 C83 1.477 . S
C82 H102 0.931 . S
C83 C79 1.460 . S
C83 C82 1.477 . S
C83 H103 0.930 . S
C84 N80 1.362 . S
C84 C81 1.431 . S
C84 C94 1.476 . S
H85 C79 0.929 . S
C86 O77 1.250 . S
C86 O78 1.258 . S
O87 Mn72 2.162 . S
O87 C75 1.281 . S
O88 Mn72 2.297 . S
O88 C75 1.236 . S
N89 Mn73 2.282 . S
N89 C90 1.328 . S
N89 C94 1.318 . S
C90 N89 1.328 . S
C90 C91 1.457 . S
C90 H95 0.929 . S
C91 C90 1.457 . S
C91 C92 1.291 . S
C91 H104 0.931 . S
C92 C91 1.291 . S
C92 C93 1.373 . S
C92 H105 0.929 . S
C93 C92 1.373 . S
C93 C94 1.396 . S
C93 C100 1.403 . S
C94 C84 1.476 . S
C94 N89 1.318 . S
C94 C93 1.396 . S
H95 C90 0.929 . S
O96 Mn72 2.385 . S
O96 C74 1.234 . S
O97 Mn72 2.209 . S
O97 Mn73 2.215 . S
O97 C74 1.283 . S
O98 Mn72 2.094 . S
O98 C76 1.240 . S
O99 Mn73 2.117 . S
O99 C76 1.264 . S
C100 C93 1.403 . S
C100 C101 1.399 . S
C100 H106 0.929 . S
C101 C81 1.449 . S
C101 C100 1.399 . S
C101 H107 0.930 . S
H102 C82 0.931 . S
H103 C83 0.930 . S
H104 C91 0.931 . S
H105 C92 0.929 . S
H106 C100 0.929 . S
H107 C101 0.930 . S
Mn108 O113 2.095 . S
Mn108 O123 2.162 . S
Mn108 O124 2.297 . S
Mn108 O132 2.385 . S
Mn108 O133 2.209 . S
Mn108 O134 2.094 . S
Mn109 O114 2.121 . S
Mn109 N116 2.257 . S
Mn109 N125 2.282 . S
Mn109 O133 2.215 . S
Mn109 O135 2.117 . S
C110 O132 1.234 . S
C110 O133 1.283 . S
C111 O123 1.281 . S
C111 O124 1.236 . S
C112 O134 1.240 . S
C112 O135 1.264 . S
O113 Mn108 2.095 . S
O113 C122 1.250 . S
O114 Mn109 2.121 . S
O114 C122 1.258 . S
C115 N116 1.326 . S
C115 C119 1.460 . S
C115 H121 0.929 . S
N116 Mn109 2.257 . S
N116 C115 1.326 . S
N116 C120 1.362 . S
C117 C118 1.258 . S
C117 C120 1.431 . S
C117 C137 1.449 . S
C118 C117 1.258 . S
C118 C119 1.477 . S
C118 H138 0.931 1_554 S
C119 C115 1.460 . S
C119 C118 1.477 . S
C119 H139 0.930 . S
C120 N116 1.362 . S
C120 C117 1.431 . S
C120 C130 1.476 . S
H121 C115 0.929 . S
C122 O113 1.250 . S
C122 O114 1.258 . S
O123 Mn108 2.162 . S
O123 C111 1.281 . S
O124 Mn108 2.297 . S
O124 C111 1.236 . S
N125 Mn109 2.282 . S
N125 C126 1.328 . S
N125 C130 1.318 . S
C126 N125 1.328 . S
C126 C127 1.457 . S
C126 H131 0.929 . S
C127 C126 1.457 . S
C127 C128 1.291 . S
C127 H140 0.931 . S
C128 C127 1.291 . S
C128 C129 1.373 . S
C128 H141 0.929 . S
C129 C128 1.373 . S
C129 C130 1.396 . S
C129 C136 1.403 . S
C130 C120 1.476 . S
C130 N125 1.318 . S
C130 C129 1.396 . S
H131 C126 0.929 . S
O132 Mn108 2.385 . S
O132 C110 1.234 . S
O133 Mn108 2.209 . S
O133 Mn109 2.215 . S
O133 C110 1.283 . S
O134 Mn108 2.094 . S
O134 C112 1.240 . S
O135 Mn109 2.117 . S
O135 C112 1.264 . S
C136 C129 1.403 . S
C136 C137 1.399 . S
C136 H142 0.929 . S
C137 C117 1.449 . S
C137 C136 1.399 . S
C137 H143 0.930 . S
H138 C118 0.931 1_556 S
H139 C119 0.930 . S
H140 C127 0.931 . S
H141 C128 0.929 . S
H142 C136 0.929 . S
H143 C137 0.930 . S
Mn144 O149 2.095 . S
Mn144 O159 2.162 . S
Mn144 O160 2.297 . S
Mn144 O168 2.385 . S
Mn144 O169 2.209 . S
Mn144 O170 2.094 . S
Mn145 O150 2.121 . S
Mn145 N152 2.257 . S
Mn145 N161 2.282 . S
Mn145 O169 2.215 . S
Mn145 O171 2.117 . S
C146 O168 1.234 . S
C146 O169 1.283 . S
C147 O159 1.281 . S
C147 O160 1.236 . S
C148 O170 1.240 . S
C148 O171 1.264 . S
O149 Mn144 2.095 . S
O149 C158 1.250 . S
O150 Mn145 2.121 . S
O150 C158 1.258 . S
C151 N152 1.326 . S
C151 C155 1.460 . S
C151 H157 0.929 . S
N152 Mn145 2.257 . S
N152 C151 1.326 . S
N152 C156 1.362 . S
C153 C154 1.258 . S
C153 C156 1.431 . S
C153 C173 1.449 1_455 S
C154 C153 1.258 . S
C154 C155 1.477 . S
C154 H174 0.931 . S
C155 C151 1.460 . S
C155 C154 1.477 . S
C155 H175 0.930 . S
C156 N152 1.362 . S
C156 C153 1.431 . S
C156 C166 1.468 1_455 S
H157 C151 0.929 . S
C158 O149 1.250 . S
C158 O150 1.258 . S
O159 Mn144 2.162 . S
O159 C147 1.281 . S
O160 Mn144 2.297 . S
O160 C147 1.236 . S
N161 Mn145 2.282 . S
N161 C162 1.328 1_455 S
N161 C166 1.320 1_455 S
C162 N161 1.328 1_655 S
C162 C163 1.457 . S
C162 H167 0.929 . S
C163 C162 1.457 . S
C163 C164 1.291 . S
C163 H176 0.931 . S
C164 C163 1.291 . S
C164 C165 1.373 . S
C164 H177 0.929 . S
C165 C164 1.373 . S
C165 C166 1.402 . S
C165 C172 1.403 . S
C166 C156 1.468 1_655 S
C166 N161 1.320 1_655 S
C166 C165 1.402 . S
H167 C162 0.929 . S
O168 Mn144 2.385 . S
O168 C146 1.234 . S
O169 Mn144 2.209 . S
O169 Mn145 2.215 . S
O169 C146 1.283 . S
O170 Mn144 2.094 . S
O170 C148 1.240 . S
O171 Mn145 2.117 . S
O171 C148 1.264 . S
C172 C165 1.403 . S
C172 C173 1.399 . S
C172 H178 0.929 . S
C173 C153 1.449 1_655 S
C173 C172 1.399 . S
C173 H179 0.930 . S
H174 C154 0.931 . S
H175 C155 0.930 . S
H176 C163 0.931 . S
H177 C164 0.929 . S
H178 C172 0.929 . S
H179 C173 0.930 . S
Mn180 O185 2.095 . S
Mn180 O195 2.162 . S
Mn180 O196 2.297 . S
Mn180 O204 2.385 . S
Mn180 O205 2.209 . S
Mn180 O206 2.094 . S
Mn181 O186 2.121 . S
Mn181 N188 2.257 . S
Mn181 N197 2.282 . S
Mn181 O205 2.215 . S
Mn181 O207 2.117 . S
C182 O204 1.234 . S
C182 O205 1.283 . S
C183 O195 1.281 . S
C183 O196 1.236 . S
C184 O206 1.240 . S
C184 O207 1.264 . S
O185 Mn180 2.095 . S
O185 C194 1.250 . S
O186 Mn181 2.121 . S
O186 C194 1.258 . S
C187 N188 1.326 . S
C187 C191 1.460 . S
C187 H193 0.929 . S
N188 Mn181 2.257 . S
N188 C187 1.326 . S
N188 C192 1.362 . S
C189 C190 1.258 . S
C189 C192 1.431 . S
C189 C209 1.449 . S
C190 C189 1.258 . S
C190 C191 1.477 . S
C190 H210 0.931 . S
C191 C187 1.460 . S
C191 C190 1.477 . S
C191 H211 0.930 . S
C192 N188 1.362 . S
C192 C189 1.431 . S
C192 C202 1.476 . S
H193 C187 0.929 . S
C194 O185 1.250 . S
C194 O186 1.258 . S
O195 Mn180 2.162 . S
O195 C183 1.281 . S
O196 Mn180 2.297 . S
O196 C183 1.236 . S
N197 Mn181 2.282 . S
N197 C198 1.328 . S
N197 C202 1.318 . S
C198 N197 1.328 . S
C198 C199 1.457 . S
C198 H203 0.929 . S
C199 C198 1.457 . S
C199 C200 1.291 . S
C199 H212 0.931 . S
C200 C199 1.291 . S
C200 C201 1.373 . S
C200 H213 0.929 . S
C201 C200 1.373 . S
C201 C202 1.396 . S
C201 C208 1.403 . S
C202 C192 1.476 . S
C202 N197 1.318 . S
C202 C201 1.396 . S
H203 C198 0.929 . S
O204 Mn180 2.385 . S
O204 C182 1.234 . S
O205 Mn180 2.209 . S
O205 Mn181 2.215 . S
O205 C182 1.283 . S
O206 Mn180 2.094 . S
O206 C184 1.240 . S
O207 Mn181 2.117 . S
O207 C184 1.264 . S
C208 C201 1.403 . S
C208 C209 1.399 . S
C208 H214 0.929 . S
C209 C189 1.449 . S
C209 C208 1.399 . S
C209 H215 0.930 . S
H210 C190 0.931 . S
H211 C191 0.930 . S
H212 C199 0.931 . S
H213 C200 0.929 . S
H214 C208 0.929 . S
H215 C209 0.930 . S
Mn216 O221 2.095 . S
Mn216 O231 2.162 . S
Mn216 O232 2.297 . S
Mn216 O240 2.385 . S
Mn216 O241 2.209 . S
Mn216 O242 2.094 . S
Mn217 O222 2.121 . S
Mn217 N224 2.257 . S
Mn217 N233 2.282 . S
Mn217 O241 2.215 . S
Mn217 O243 2.117 . S
C218 O240 1.234 . S
C218 O241 1.283 . S
C219 O231 1.281 . S
C219 O232 1.236 . S
C220 O242 1.240 . S
C220 O243 1.264 . S
O221 Mn216 2.095 . S
O221 C230 1.250 . S
O222 Mn217 2.121 . S
O222 C230 1.258 . S
C223 N224 1.326 . S
C223 C227 1.460 . S
C223 H229 0.929 . S
N224 Mn217 2.257 . S
N224 C223 1.326 . S
N224 C228 1.362 . S
C225 C226 1.258 . S
C225 C228 1.431 . S
C225 C245 1.449 . S
C226 C225 1.258 . S
C226 C227 1.477 . S
C226 H246 0.931 . S
C227 C223 1.460 . S
C227 C226 1.477 . S
C227 H247 0.930 . S
C228 N224 1.362 . S
C228 C225 1.431 . S
C228 C238 1.476 . S
H229 C223 0.929 . S
C230 O221 1.250 . S
C230 O222 1.258 . S
O231 Mn216 2.162 . S
O231 C219 1.281 . S
O232 Mn216 2.297 . S
O232 C219 1.236 . S
N233 Mn217 2.282 . S
N233 C234 1.328 . S
N233 C238 1.318 . S
C234 N233 1.328 . S
C234 C235 1.457 . S
C234 H239 0.929 . S
C235 C234 1.457 . S
C235 C236 1.291 . S
C235 H248 0.931 . S
C236 C235 1.291 . S
C236 C237 1.373 . S
C236 H249 0.929 . S
C237 C236 1.373 . S
C237 C238 1.396 . S
C237 C244 1.403 . S
C238 C228 1.476 . S
C238 N233 1.318 . S
C238 C237 1.396 . S
H239 C234 0.929 . S
O240 Mn216 2.385 . S
O240 C218 1.234 . S
O241 Mn216 2.209 . S
O241 Mn217 2.215 . S
O241 C218 1.283 . S
O242 Mn216 2.094 . S
O242 C220 1.240 . S
O243 Mn217 2.117 . S
O243 C220 1.264 . S
C244 C237 1.403 . S
C244 C245 1.399 . S
C244 H250 0.929 . S
C245 C225 1.449 . S
C245 C244 1.399 . S
C245 H251 0.930 . S
H246 C226 0.931 . S
H247 C227 0.930 . S
H248 C235 0.931 . S
H249 C236 0.929 . S
H250 C244 0.929 . S
H251 C245 0.930 . S
Mn252 O257 2.121 . S
Mn252 O267 2.164 . S
Mn252 O268 2.299 1_455 S
Mn252 O276 2.357 1_455 S
Mn252 O277 2.197 1_455 S
Mn252 O278 2.091 . S
Mn253 O258 2.085 1_655 S
Mn253 N260 2.265 . S
Mn253 N269 2.319 . S
Mn253 O277 2.229 . S
Mn253 O279 2.120 1_655 S
C254 O276 1.234 . S
C254 O277 1.283 . S
C255 O267 1.281 1_655 S
C255 O268 1.236 . S
C256 O278 1.240 . S
C256 O279 1.264 . S
O257 Mn252 2.121 . S
O257 C266 1.250 . S
O258 Mn253 2.085 1_455 S
O258 C266 1.258 . S
C259 N260 1.326 . S
C259 C263 1.460 . S
C259 H265 0.929 1_655 S
N260 Mn253 2.265 . S
N260 C259 1.326 . S
N260 C264 1.362 . S
C261 C262 1.258 . S
C261 C264 1.431 . S
C261 C281 1.449 . S
C262 C261 1.258 . S
C262 C263 1.477 . S
C262 H282 0.931 . S
C263 C259 1.460 . S
C263 C262 1.477 . S
C263 H283 0.930 . S
C264 N260 1.362 . S
C264 C261 1.431 . S
C264 C274 1.476 . S
H265 C259 0.929 1_455 S
C266 O257 1.250 . S
C266 O258 1.258 . S
O267 Mn252 2.164 . S
O267 C255 1.281 1_455 S
O268 Mn252 2.299 1_655 S
O268 C255 1.236 . S
N269 Mn253 2.319 . S
N269 C270 1.328 . S
N269 C274 1.318 . S
C270 N269 1.328 . S
C270 C271 1.457 . S
C270 H275 0.929 . S
C271 C270 1.457 . S
C271 C272 1.291 . S
C271 H284 0.931 . S
C272 C271 1.291 . S
C272 C273 1.373 . S
C272 H285 0.929 . S
C273 C272 1.373 . S
C273 C274 1.396 . S
C273 C280 1.403 . S
C274 C264 1.476 . S
C274 N269 1.318 . S
C274 C273 1.396 . S
H275 C270 0.929 . S
O276 Mn252 2.357 1_655 S
O276 C254 1.234 . S
O277 Mn252 2.197 1_655 S
O277 Mn253 2.229 . S
O277 C254 1.283 . S
O278 Mn252 2.091 . S
O278 C256 1.240 . S
O279 Mn253 2.120 1_455 S
O279 C256 1.264 . S
C280 C273 1.403 . S
C280 C281 1.399 . S
C280 H286 0.929 . S
C281 C261 1.449 . S
C281 C280 1.399 . S
C281 H287 0.930 . S
H282 C262 0.931 . S
H283 C263 0.930 . S
H284 C271 0.931 . S
H285 C272 0.929 . S
H286 C280 0.929 . S
H287 C281 0.930 . S
Mn288 O293 2.095 . S
Mn288 O303 2.162 . S
Mn288 O304 2.297 . S
Mn288 O312 2.385 1_545 S
Mn288 O313 2.209 . S
Mn288 O314 2.094 . S
Mn289 O294 2.121 . S
Mn289 N296 2.257 . S
Mn289 N305 2.282 1_545 S
Mn289 O313 2.215 . S
Mn289 O315 2.117 . S
C290 O312 1.234 . S
C290 O313 1.283 1_565 S
C291 O303 1.281 . S
C291 O304 1.236 . S
C292 O314 1.240 . S
C292 O315 1.264 . S
O293 Mn288 2.095 . S
O293 C302 1.250 . S
O294 Mn289 2.121 . S
O294 C302 1.258 . S
C295 N296 1.326 . S
C295 C299 1.460 . S
C295 H301 0.929 . S
N296 Mn289 2.257 . S
N296 C295 1.326 . S
N296 C300 1.362 1_545 S
C297 C298 1.258 . S
C297 C300 1.431 . S
C297 C317 1.449 . S
C298 C297 1.258 . S
C298 C299 1.477 1_565 S
C298 H318 0.931 . S
C299 C295 1.460 . S
C299 C298 1.477 1_545 S
C299 H319 0.930 . S
C300 N296 1.362 1_565 S
C300 C297 1.431 . S
C300 C310 1.476 . S
H301 C295 0.929 . S
C302 O293 1.250 . S
C302 O294 1.258 . S
O303 Mn288 2.162 . S
O303 C291 1.281 . S
O304 Mn288 2.297 . S
O304 C291 1.236 . S
N305 Mn289 2.282 1_565 S
N305 C306 1.328 . S
N305 C310 1.318 . S
C306 N305 1.328 . S
C306 C307 1.457 . S
C306 H311 0.929 . S
C307 C306 1.457 . S
C307 C308 1.291 . S
C307 H320 0.931 . S
C308 C307 1.291 . S
C308 C309 1.373 . S
C308 H321 0.929 . S
C309 C308 1.373 . S
C309 C310 1.396 . S
C309 C316 1.403 . S
C310 C300 1.476 . S
C310 N305 1.318 . S
C310 C309 1.396 . S
H311 C306 0.929 . S
O312 Mn288 2.385 1_565 S
O312 C290 1.234 . S
O313 Mn288 2.209 . S
O313 Mn289 2.215 . S
O313 C290 1.283 1_545 S
O314 Mn288 2.094 . S
O314 C292 1.240 . S
O315 Mn289 2.117 . S
O315 C292 1.264 . S
C316 C309 1.403 . S
C316 C317 1.399 . S
C316 H322 0.929 . S
C317 C297 1.449 . S
C317 C316 1.399 . S
C317 H323 0.930 . S
H318 C298 0.931 . S
H319 C299 0.930 . S
H320 C307 0.931 . S
H321 C308 0.929 . S
H322 C316 0.929 . S
H323 C317 0.930 . S
Mn324 O329 2.095 . S
Mn324 O339 2.162 . S
Mn324 O340 2.297 . S
Mn324 O348 2.385 . S
Mn324 O349 2.209 . S
Mn324 O350 2.094 . S
Mn325 O330 2.121 . S
Mn325 N332 2.257 . S
Mn325 N341 2.282 . S
Mn325 O349 2.215 . S
Mn325 O351 2.117 . S
C326 O348 1.234 . S
C326 O349 1.283 . S
C327 O339 1.281 . S
C327 O340 1.236 . S
C328 O350 1.240 . S
C328 O351 1.264 . S
O329 Mn324 2.095 . S
O329 C338 1.250 . S
O330 Mn325 2.121 . S
O330 C338 1.258 . S
C331 N332 1.326 . S
C331 C335 1.460 . S
C331 H337 0.929 . S
N332 Mn325 2.257 . S
N332 C331 1.326 . S
N332 C336 1.362 . S
C333 C334 1.258 . S
C333 C336 1.431 . S
C333 C353 1.449 . S
C334 C333 1.258 . S
C334 C335 1.477 . S
C334 H354 0.931 . S
C335 C331 1.460 . S
C335 C334 1.477 . S
C335 H355 0.930 . S
C336 N332 1.362 . S
C336 C333 1.431 . S
C336 C346 1.476 . S
H337 C331 0.929 . S
C338 O329 1.250 . S
C338 O330 1.258 . S
O339 Mn324 2.162 . S
O339 C327 1.281 . S
O340 Mn324 2.297 . S
O340 C327 1.236 . S
N341 Mn325 2.282 . S
N341 C342 1.328 . S
N341 C346 1.318 . S
C342 N341 1.328 . S
C342 C343 1.457 . S
C342 H347 0.929 . S
C343 C342 1.457 . S
C343 C344 1.291 . S
C343 H356 0.931 . S
C344 C343 1.291 . S
C344 C345 1.373 . S
C344 H357 0.929 . S
C345 C344 1.373 . S
C345 C346 1.396 . S
C345 C352 1.403 . S
C346 C336 1.476 . S
C346 N341 1.318 . S
C346 C345 1.396 . S
H347 C342 0.929 . S
O348 Mn324 2.385 . S
O348 C326 1.234 . S
O349 Mn324 2.209 . S
O349 Mn325 2.215 . S
O349 C326 1.283 . S
O350 Mn324 2.094 . S
O350 C328 1.240 . S
O351 Mn325 2.117 . S
O351 C328 1.264 . S
C352 C345 1.403 . S
C352 C353 1.399 . S
C352 H358 0.929 . S
C353 C333 1.449 . S
C353 C352 1.399 . S
C353 H359 0.930 . S
H354 C334 0.931 . S
H355 C335 0.930 . S
H356 C343 0.931 . S
H357 C344 0.929 . S
H358 C352 0.929 . S
H359 C353 0.930 . S
Mn360 O365 2.081 1_545 S
Mn360 O375 2.162 1_545 S
Mn360 O376 2.298 1_545 S
Mn360 O384 2.399 . S
Mn360 O385 2.214 . S
Mn360 O386 2.094 . S
Mn361 O366 2.121 1_545 S
Mn361 N368 2.257 . S
Mn361 N377 2.282 . S
Mn361 O385 2.215 . S
Mn361 O387 2.117 . S
C362 O384 1.234 . S
C362 O385 1.283 . S
C363 O375 1.281 . S
C363 O376 1.236 . S
C364 O386 1.238 . S
C364 O387 1.264 . S
O365 Mn360 2.081 1_565 S
O365 C374 1.250 . S
O366 Mn361 2.121 1_565 S
O366 C374 1.258 . S
C367 N368 1.326 . S
C367 C371 1.460 . S
C367 H373 0.929 1_545 S
N368 Mn361 2.257 . S
N368 C367 1.326 . S
N368 C372 1.362 . S
C369 C370 1.258 . S
C369 C372 1.431 . S
C369 C389 1.449 . S
C370 C369 1.258 . S
C370 C371 1.477 . S
C370 H390 0.931 . S
C371 C367 1.460 . S
C371 C370 1.477 . S
C371 H391 0.930 . S
C372 N368 1.362 . S
C372 C369 1.431 . S
C372 C382 1.476 . S
H373 C367 0.929 1_565 S
C374 O365 1.250 . S
C374 O366 1.258 . S
O375 Mn360 2.162 1_565 S
O375 C363 1.281 . S
O376 Mn360 2.298 1_565 S
O376 C363 1.236 . S
N377 Mn361 2.282 . S
N377 C378 1.328 . S
N377 C382 1.318 . S
C378 N377 1.328 . S
C378 C379 1.457 . S
C378 H383 0.929 . S
C379 C378 1.457 . S
C379 C380 1.291 . S
C379 H392 0.931 . S
C380 C379 1.291 . S
C380 C381 1.373 . S
C380 H393 0.929 . S
C381 C380 1.373 . S
C381 C382 1.396 . S
C381 C388 1.403 . S
C382 C372 1.476 . S
C382 N377 1.318 . S
C382 C381 1.396 . S
H383 C378 0.929 . S
O384 Mn360 2.399 . S
O384 C362 1.234 . S
O385 Mn360 2.214 . S
O385 Mn361 2.215 . S
O385 C362 1.283 . S
O386 Mn360 2.094 . S
O386 C364 1.238 . S
O387 Mn361 2.117 . S
O387 C364 1.264 . S
C388 C381 1.403 . S
C388 C389 1.399 . S
C388 H394 0.929 . S
C389 C369 1.449 . S
C389 C388 1.399 . S
C389 H395 0.930 . S
H390 C370 0.931 . S
H391 C371 0.930 . S
H392 C379 0.931 . S
H393 C380 0.929 . S
H394 C388 0.929 . S
H395 C389 0.930 . S
Mn396 O401 2.095 1_554 S
Mn396 O411 2.162 . S
Mn396 O412 2.297 . S
Mn396 O420 2.385 . S
Mn396 O421 2.216 . S
Mn396 O422 2.094 1_554 S
Mn397 O402 2.121 . S
Mn397 N404 2.257 . S
Mn397 N413 2.282 . S
Mn397 O421 2.189 1_556 S
Mn397 O423 2.117 . S
C398 O420 1.234 . S
C398 O421 1.288 . S
C399 O411 1.281 . S
C399 O412 1.236 . S
C400 O422 1.240 . S
C400 O423 1.264 . S
O401 Mn396 2.095 1_556 S
O401 C410 1.250 . S
O402 Mn397 2.121 . S
O402 C410 1.258 . S
C403 N404 1.326 . S
C403 C407 1.460 . S
C403 H409 0.929 . S
N404 Mn397 2.257 . S
N404 C403 1.326 . S
N404 C408 1.362 . S
C405 C406 1.258 . S
C405 C408 1.431 . S
C405 C425 1.449 . S
C406 C405 1.258 . S
C406 C407 1.477 . S
C406 H426 0.931 . S
C407 C403 1.460 . S
C407 C406 1.477 . S
C407 H427 0.930 1_556 S
C408 N404 1.362 . S
C408 C405 1.431 . S
C408 C418 1.476 . S
H409 C403 0.929 . S
C410 O401 1.250 . S
C410 O402 1.258 . S
O411 Mn396 2.162 . S
O411 C399 1.281 . S
O412 Mn396 2.297 . S
O412 C399 1.236 . S
N413 Mn397 2.282 . S
N413 C414 1.328 . S
N413 C418 1.318 . S
C414 N413 1.328 . S
C414 C415 1.457 . S
C414 H419 0.929 . S
C415 C414 1.457 . S
C415 C416 1.291 . S
C415 H428 0.931 . S
C416 C415 1.291 . S
C416 C417 1.373 . S
C416 H429 0.929 . S
C417 C416 1.373 . S
C417 C418 1.396 . S
C417 C424 1.403 . S
C418 C408 1.476 . S
C418 N413 1.318 . S
C418 C417 1.396 . S
H419 C414 0.929 . S
O420 Mn396 2.385 . S
O420 C398 1.234 . S
O421 Mn396 2.216 . S
O421 Mn397 2.189 1_554 S
O421 C398 1.288 . S
O422 Mn396 2.094 1_556 S
O422 C400 1.240 . S
O423 Mn397 2.117 . S
O423 C400 1.264 . S
C424 C417 1.403 . S
C424 C425 1.399 . S
C424 H430 0.929 . S
C425 C405 1.449 . S
C425 C424 1.399 . S
C425 H431 0.930 . S
H426 C406 0.931 . S
H427 C407 0.930 1_554 S
H428 C415 0.931 . S
H429 C416 0.929 . S
H430 C424 0.929 . S
H431 C425 0.930 . S
Mn432 O437 2.095 . S
Mn432 O447 2.162 . S
Mn432 O448 2.297 . S
Mn432 O456 2.385 . S
Mn432 O457 2.209 . S
Mn432 O458 2.094 . S
Mn433 O438 2.121 . S
Mn433 N440 2.257 . S
Mn433 N449 2.282 . S
Mn433 O457 2.215 . S
Mn433 O459 2.117 1_554 S
C434 O456 1.234 . S
C434 O457 1.283 . S
C435 O447 1.281 . S
C435 O448 1.236 . S
C436 O458 1.199 1_556 S
C436 O459 1.274 . S
O437 Mn432 2.095 . S
O437 C446 1.250 . S
O438 Mn433 2.121 . S
O438 C446 1.258 . S
C439 N440 1.326 . S
C439 C443 1.460 . S
C439 H445 0.929 . S
N440 Mn433 2.257 . S
N440 C439 1.326 . S
N440 C444 1.362 . S
C441 C442 1.258 . S
C441 C444 1.431 . S
C441 C461 1.449 . S
C442 C441 1.258 . S
C442 C443 1.477 . S
C442 H462 0.931 . S
C443 C439 1.460 . S
C443 C442 1.477 . S
C443 H463 0.930 . S
C444 N440 1.362 . S
C444 C441 1.431 . S
C444 C454 1.476 . S
H445 C439 0.929 . S
C446 O437 1.250 . S
C446 O438 1.258 . S
O447 Mn432 2.162 . S
O447 C435 1.281 . S
O448 Mn432 2.297 . S
O448 C435 1.236 . S
N449 Mn433 2.282 . S
N449 C450 1.328 1_554 S
N449 C454 1.318 . S
C450 N449 1.328 1_556 S
C450 C451 1.457 . S
C450 H455 0.929 . S
C451 C450 1.457 . S
C451 C452 1.291 . S
C451 H464 0.931 . S
C452 C451 1.291 . S
C452 C453 1.372 1_556 S
C452 H465 0.929 . S
C453 C452 1.372 1_554 S
C453 C454 1.396 . S
C453 C460 1.403 . S
C454 C444 1.476 . S
C454 N449 1.318 . S
C454 C453 1.396 . S
H455 C450 0.929 . S
O456 Mn432 2.385 . S
O456 C434 1.234 . S
O457 Mn432 2.209 . S
O457 Mn433 2.215 . S
O457 C434 1.283 . S
O458 Mn432 2.094 . S
O458 C436 1.199 1_554 S
O459 Mn433 2.117 1_556 S
O459 C436 1.274 . S
C460 C453 1.403 . S
C460 C461 1.399 . S
C460 H466 0.932 . S
C461 C441 1.449 . S
C461 C460 1.399 . S
C461 H467 0.930 . S
H462 C442 0.931 . S
H463 C443 0.930 . S
H464 C451 0.931 . S
H465 C452 0.929 . S
H466 C460 0.932 . S
H467 C461 0.930 . S
Mn468 O473 2.095 . S
Mn468 O483 2.162 . S
Mn468 O484 2.297 . S
Mn468 O492 2.385 . S
Mn468 O493 2.209 . S
Mn468 O494 2.094 . S
Mn469 O474 2.121 . S
Mn469 N476 2.257 . S
Mn469 N485 2.282 . S
Mn469 O493 2.215 . S
Mn469 O495 2.117 . S
C470 O492 1.234 . S
C470 O493 1.283 . S
C471 O483 1.281 . S
C471 O484 1.236 . S
C472 O494 1.240 . S
C472 O495 1.264 . S
O473 Mn468 2.095 . S
O473 C482 1.250 . S
O474 Mn469 2.121 . S
O474 C482 1.258 . S
C475 N476 1.326 . S
C475 C479 1.460 . S
C475 H481 0.929 . S
N476 Mn469 2.257 . S
N476 C475 1.326 . S
N476 C480 1.362 . S
C477 C478 1.258 . S
C477 C480 1.431 . S
C477 C497 1.449 . S
C478 C477 1.258 . S
C478 C479 1.477 . S
C478 H498 0.931 . S
C479 C475 1.460 . S
C479 C478 1.477 . S
C479 H499 0.930 . S
C480 N476 1.362 . S
C480 C477 1.431 . S
C480 C490 1.476 . S
H481 C475 0.929 . S
C482 O473 1.250 . S
C482 O474 1.258 . S
O483 Mn468 2.162 . S
O483 C471 1.281 . S
O484 Mn468 2.297 . S
O484 C471 1.236 . S
N485 Mn469 2.282 . S
N485 C486 1.328 . S
N485 C490 1.318 . S
C486 N485 1.328 . S
C486 C487 1.457 . S
C486 H491 0.929 . S
C487 C486 1.457 . S
C487 C488 1.291 . S
C487 H500 0.931 1_554 S
C488 C487 1.291 . S
C488 C489 1.371 . S
C488 H501 0.931 1_554 S
C489 C488 1.371 . S
C489 C490 1.396 . S
C489 C496 1.403 . S
C490 C480 1.476 . S
C490 N485 1.318 . S
C490 C489 1.396 . S
H491 C486 0.929 . S
O492 Mn468 2.385 . S
O492 C470 1.234 . S
O493 Mn468 2.209 . S
O493 Mn469 2.215 . S
O493 C470 1.283 . S
O494 Mn468 2.094 . S
O494 C472 1.240 . S
O495 Mn469 2.117 . S
O495 C472 1.264 . S
C496 C489 1.403 . S
C496 C497 1.399 . S
C496 H502 0.929 1_554 S
C497 C477 1.449 . S
C497 C496 1.399 . S
C497 H503 0.930 . S
H498 C478 0.931 . S
H499 C479 0.930 . S
H500 C487 0.931 1_556 S
H501 C488 0.931 1_556 S
H502 C496 0.929 1_556 S
H503 C497 0.930 . S
Mn504 O509 2.095 . S
Mn504 O519 2.162 . S
Mn504 O520 2.297 . S
Mn504 O528 2.385 . S
Mn504 O529 2.209 . S
Mn504 O530 2.094 . S
Mn505 O510 2.121 . S
Mn505 N512 2.257 . S
Mn505 N521 2.282 . S
Mn505 O529 2.215 . S
Mn505 O531 2.117 . S
C506 O528 1.234 . S
C506 O529 1.283 . S
C507 O519 1.281 . S
C507 O520 1.236 . S
C508 O530 1.240 . S
C508 O531 1.264 . S
O509 Mn504 2.095 . S
O509 C518 1.250 . S
O510 Mn505 2.121 . S
O510 C518 1.258 . S
C511 N512 1.326 . S
C511 C515 1.460 . S
C511 H517 0.929 . S
N512 Mn505 2.257 . S
N512 C511 1.326 . S
N512 C516 1.362 . S
C513 C514 1.258 . S
C513 C516 1.431 . S
C513 C533 1.449 . S
C514 C513 1.258 . S
C514 C515 1.477 . S
C514 H534 0.931 . S
C515 C511 1.460 . S
C515 C514 1.477 . S
C515 H535 0.930 . S
C516 N512 1.362 . S
C516 C513 1.431 . S
C516 C526 1.476 . S
H517 C511 0.929 . S
C518 O509 1.250 . S
C518 O510 1.258 . S
O519 Mn504 2.162 . S
O519 C507 1.281 . S
O520 Mn504 2.297 . S
O520 C507 1.236 . S
N521 Mn505 2.282 . S
N521 C522 1.328 . S
N521 C526 1.318 . S
C522 N521 1.328 . S
C522 C523 1.457 . S
C522 H527 0.929 . S
C523 C522 1.457 . S
C523 C524 1.291 . S
C523 H536 0.931 . S
C524 C523 1.291 . S
C524 C525 1.373 . S
C524 H537 0.929 . S
C525 C524 1.373 . S
C525 C526 1.396 . S
C525 C532 1.403 . S
C526 C516 1.476 . S
C526 N521 1.318 . S
C526 C525 1.396 . S
H527 C522 0.929 . S
O528 Mn504 2.385 . S
O528 C506 1.234 . S
O529 Mn504 2.209 . S
O529 Mn505 2.215 . S
O529 C506 1.283 . S
O530 Mn504 2.094 . S
O530 C508 1.240 . S
O531 Mn505 2.117 . S
O531 C508 1.264 . S
C532 C525 1.403 . S
C532 C533 1.399 . S
C532 H538 0.929 . S
C533 C513 1.449 . S
C533 C532 1.399 . S
C533 H539 0.930 . S
H534 C514 0.931 . S
H535 C515 0.930 . S
H536 C523 0.931 . S
H537 C524 0.929 . S
H538 C532 0.929 . S
H539 C533 0.930 . S
Mn540 O545 2.095 . S
Mn540 O555 2.162 . S
Mn540 O556 2.297 . S
Mn540 O564 2.385 . S
Mn540 O565 2.209 . S
Mn540 O566 2.094 . S
Mn541 O546 2.121 . S
Mn541 N548 2.257 . S
Mn541 N557 2.282 . S
Mn541 O565 2.215 . S
Mn541 O567 2.117 . S
C542 O564 1.234 . S
C542 O565 1.283 . S
C543 O555 1.281 . S
C543 O556 1.236 . S
C544 O566 1.240 . S
C544 O567 1.264 . S
O545 Mn540 2.095 . S
O545 C554 1.250 . S
O546 Mn541 2.121 . S
O546 C554 1.258 . S
C547 N548 1.326 . S
C547 C551 1.460 . S
C547 H553 0.929 . S
N548 Mn541 2.257 . S
N548 C547 1.326 . S
N548 C552 1.362 . S
C549 C550 1.258 1_565 S
C549 C552 1.431 . S
C549 C569 1.449 . S
C550 C549 1.258 1_545 S
C550 C551 1.477 1_545 S
C550 H570 0.931 . S
C551 C547 1.460 . S
C551 C550 1.477 1_565 S
C551 H571 0.930 1_565 S
C552 N548 1.362 . S
C552 C549 1.431 . S
C552 C562 1.476 . S
H553 C547 0.929 . S
C554 O545 1.250 . S
C554 O546 1.258 . S
O555 Mn540 2.162 . S
O555 C543 1.281 . S
O556 Mn540 2.297 . S
O556 C543 1.236 . S
N557 Mn541 2.282 . S
N557 C558 1.328 . S
N557 C562 1.318 . S
C558 N557 1.328 . S
C558 C559 1.457 . S
C558 H563 0.929 . S
C559 C558 1.457 . S
C559 C560 1.291 . S
C559 H572 0.931 . S
C560 C559 1.291 . S
C560 C561 1.373 . S
C560 H573 0.929 . S
C561 C560 1.373 . S
C561 C562 1.396 . S
C561 C568 1.403 . S
C562 C552 1.476 . S
C562 N557 1.318 . S
C562 C561 1.396 . S
H563 C558 0.929 . S
O564 Mn540 2.385 . S
O564 C542 1.234 . S
O565 Mn540 2.209 . S
O565 Mn541 2.215 . S
O565 C542 1.283 . S
O566 Mn540 2.094 . S
O566 C544 1.240 . S
O567 Mn541 2.117 . S
O567 C544 1.264 . S
C568 C561 1.403 . S
C568 C569 1.399 . S
C568 H574 0.929 . S
C569 C549 1.449 . S
C569 C568 1.399 . S
C569 H575 0.930 1_565 S
H570 C550 0.931 . S
H571 C551 0.930 1_545 S
H572 C559 0.931 . S
H573 C560 0.929 . S
H574 C568 0.929 . S
H575 C569 0.930 1_545 S
Mn576 O581 2.095 . S
Mn576 O591 2.162 . S
Mn576 O592 2.297 . S
Mn576 O600 2.385 1_545 S
Mn576 O601 2.209 . S
Mn576 O602 2.094 . S
Mn577 O582 2.121 . S
Mn577 N584 2.257 . S
Mn577 N593 2.282 1_545 S
Mn577 O601 2.215 . S
Mn577 O603 2.117 . S
C578 O600 1.234 . S
C578 O601 1.283 1_565 S
C579 O591 1.281 . S
C579 O592 1.236 . S
C580 O602 1.240 . S
C580 O603 1.264 . S
O581 Mn576 2.095 . S
O581 C590 1.250 . S
O582 Mn577 2.121 . S
O582 C590 1.258 . S
C583 N584 1.326 . S
C583 C587 1.460 . S
C583 H589 0.929 . S
N584 Mn577 2.257 . S
N584 C583 1.326 . S
N584 C588 1.362 1_545 S
C585 C586 1.258 . S
C585 C588 1.431 . S
C585 C605 1.449 . S
C586 C585 1.258 . S
C586 C587 1.477 1_565 S
C586 H606 0.931 . S
C587 C583 1.460 . S
C587 C586 1.477 1_545 S
C587 H607 0.930 . S
C588 N584 1.362 1_565 S
C588 C585 1.431 . S
C588 C598 1.476 . S
H589 C583 0.929 . S
C590 O581 1.250 . S
C590 O582 1.258 . S
O591 Mn576 2.162 . S
O591 C579 1.281 . S
O592 Mn576 2.297 . S
O592 C579 1.236 . S
N593 Mn577 2.282 1_565 S
N593 C594 1.328 . S
N593 C598 1.318 . S
C594 N593 1.328 . S
C594 C595 1.457 . S
C594 H599 0.929 . S
C595 C594 1.457 . S
C595 C596 1.291 . S
C595 H608 0.931 . S
C596 C595 1.291 . S
C596 C597 1.373 . S
C596 H609 0.929 . S
C597 C596 1.373 . S
C597 C598 1.396 . S
C597 C604 1.403 . S
C598 C588 1.476 . S
C598 N593 1.318 . S
C598 C597 1.396 . S
H599 C594 0.929 . S
O600 Mn576 2.385 1_565 S
O600 C578 1.234 . S
O601 Mn576 2.209 . S
O601 Mn577 2.215 . S
O601 C578 1.283 1_545 S
O602 Mn576 2.094 . S
O602 C580 1.240 . S
O603 Mn577 2.117 . S
O603 C580 1.264 . S
C604 C597 1.403 . S
C604 C605 1.399 . S
C604 H610 0.929 . S
C605 C585 1.449 . S
C605 C604 1.399 . S
C605 H611 0.930 . S
H606 C586 0.931 . S
H607 C587 0.930 . S
H608 C595 0.931 . S
H609 C596 0.929 . S
H610 C604 0.929 . S
H611 C605 0.930 . S
Mn612 O617 2.095 . S
Mn612 O627 2.162 . S
Mn612 O628 2.297 . S
Mn612 O636 2.385 . S
Mn612 O637 2.209 . S
Mn612 O638 2.094 . S
Mn613 O618 2.121 . S
Mn613 N620 2.257 . S
Mn613 N629 2.282 . S
Mn613 O637 2.215 . S
Mn613 O639 2.117 . S
C614 O636 1.234 . S
C614 O637 1.283 . S
C615 O627 1.281 . S
C615 O628 1.236 . S
C616 O638 1.240 . S
C616 O639 1.264 . S
O617 Mn612 2.095 . S
O617 C626 1.250 . S
O618 Mn613 2.121 . S
O618 C626 1.258 . S
C619 N620 1.326 . S
C619 C623 1.460 . S
C619 H625 0.929 . S
N620 Mn613 2.257 . S
N620 C619 1.326 . S
N620 C624 1.362 . S
C621 C622 1.258 . S
C621 C624 1.431 . S
C621 C641 1.449 . S
C622 C621 1.258 . S
C622 C623 1.477 . S
C622 H642 0.931 . S
C623 C619 1.460 . S
C623 C622 1.477 . S
C623 H643 0.930 . S
C624 N620 1.362 . S
C624 C621 1.431 . S
C624 C634 1.476 . S
H625 C619 0.929 . S
C626 O617 1.250 . S
C626 O618 1.258 . S
O627 Mn612 2.162 . S
O627 C615 1.281 . S
O628 Mn612 2.297 . S
O628 C615 1.236 . S
N629 Mn613 2.282 . S
N629 C630 1.328 . S
N629 C634 1.318 . S
C630 N629 1.328 . S
C630 C631 1.457 . S
C630 H635 0.929 . S
C631 C630 1.457 . S
C631 C632 1.291 . S
C631 H644 0.931 . S
C632 C631 1.291 . S
C632 C633 1.373 . S
C632 H645 0.929 . S
C633 C632 1.373 . S
C633 C634 1.396 . S
C633 C640 1.403 . S
C634 C624 1.476 . S
C634 N629 1.318 . S
C634 C633 1.396 . S
H635 C630 0.929 . S
O636 Mn612 2.385 . S
O636 C614 1.234 . S
O637 Mn612 2.209 . S
O637 Mn613 2.215 . S
O637 C614 1.283 . S
O638 Mn612 2.094 . S
O638 C616 1.240 . S
O639 Mn613 2.117 . S
O639 C616 1.264 . S
C640 C633 1.403 . S
C640 C641 1.399 . S
C640 H646 0.929 . S
C641 C621 1.449 . S
C641 C640 1.399 . S
C641 H647 0.930 . S
H642 C622 0.931 . S
H643 C623 0.930 . S
H644 C631 0.931 . S
H645 C632 0.929 . S
H646 C640 0.929 . S
H647 C641 0.930 . S
Mn648 O653 2.095 . S
Mn648 O663 2.162 . S
Mn648 O664 2.297 . S
Mn648 O672 2.385 . S
Mn648 O673 2.209 . S
Mn648 O674 2.094 . S
Mn649 O654 2.121 . S
Mn649 N656 2.257 . S
Mn649 N665 2.282 . S
Mn649 O673 2.215 . S
Mn649 O675 2.117 . S
C650 O672 1.234 . S
C650 O673 1.283 . S
C651 O663 1.281 . S
C651 O664 1.236 . S
C652 O674 1.240 . S
C652 O675 1.264 . S
O653 Mn648 2.095 . S
O653 C662 1.250 . S
O654 Mn649 2.121 . S
O654 C662 1.258 . S
C655 N656 1.326 . S
C655 C659 1.460 . S
C655 H661 0.929 . S
N656 Mn649 2.257 . S
N656 C655 1.326 . S
N656 C660 1.362 . S
C657 C658 1.258 . S
C657 C660 1.431 . S
C657 C677 1.449 . S
C658 C657 1.258 . S
C658 C659 1.477 . S
C658 H678 0.931 . S
C659 C655 1.460 . S
C659 C658 1.477 . S
C659 H679 0.930 . S
C660 N656 1.362 . S
C660 C657 1.431 . S
C660 C670 1.476 . S
H661 C655 0.929 . S
C662 O653 1.250 . S
C662 O654 1.258 . S
O663 Mn648 2.162 . S
O663 C651 1.281 . S
O664 Mn648 2.297 . S
O664 C651 1.236 . S
N665 Mn649 2.282 . S
N665 C666 1.328 . S
N665 C670 1.318 . S
C666 N665 1.328 . S
C666 C667 1.457 . S
C666 H671 0.929 . S
C667 C666 1.457 . S
C667 C668 1.291 . S
C667 H680 0.931 . S
C668 C667 1.291 . S
C668 C669 1.373 . S
C668 H681 0.929 . S
C669 C668 1.373 . S
C669 C670 1.396 . S
C669 C676 1.403 . S
C670 C660 1.476 . S
C670 N665 1.318 . S
C670 C669 1.396 . S
H671 C666 0.929 . S
O672 Mn648 2.385 . S
O672 C650 1.234 . S
O673 Mn648 2.209 . S
O673 Mn649 2.215 . S
O673 C650 1.283 . S
O674 Mn648 2.094 . S
O674 C652 1.240 . S
O675 Mn649 2.117 . S
O675 C652 1.264 . S
C676 C669 1.403 . S
C676 C677 1.399 . S
C676 H682 0.929 . S
C677 C657 1.449 . S
C677 C676 1.399 . S
C677 H683 0.930 . S
H678 C658 0.931 . S
H679 C659 0.930 . S
H680 C667 0.931 . S
H681 C668 0.929 . S
H682 C676 0.929 . S
H683 C677 0.930 . S
Mn684 O689 2.095 1_545 S
Mn684 O699 2.162 . S
Mn684 O700 2.297 . S
Mn684 O708 2.385 . S
Mn684 O709 2.209 . S
Mn684 O710 2.094 . S
Mn685 O690 2.121 1_545 S
Mn685 N692 2.257 . S
Mn685 N701 2.282 . S
Mn685 O709 2.215 . S
Mn685 O711 2.117 . S
C686 O708 1.234 . S
C686 O709 1.283 . S
C687 O699 1.281 . S
C687 O700 1.236 . S
C688 O710 1.240 . S
C688 O711 1.264 . S
O689 Mn684 2.095 1_565 S
O689 C698 1.250 . S
O690 Mn685 2.121 1_565 S
O690 C698 1.258 . S
C691 N692 1.326 . S
C691 C695 1.460 . S
C691 H697 0.929 . S
N692 Mn685 2.257 . S
N692 C691 1.326 . S
N692 C696 1.362 . S
C693 C694 1.258 . S
C693 C696 1.431 . S
C693 C713 1.449 . S
C694 C693 1.258 . S
C694 C695 1.477 . S
C694 H714 0.931 . S
C695 C691 1.460 . S
C695 C694 1.477 . S
C695 H715 0.930 . S
C696 N692 1.362 . S
C696 C693 1.431 . S
C696 C706 1.476 . S
H697 C691 0.929 . S
C698 O689 1.250 . S
C698 O690 1.258 . S
O699 Mn684 2.162 . S
O699 C687 1.281 . S
O700 Mn684 2.297 . S
O700 C687 1.236 . S
N701 Mn685 2.282 . S
N701 C702 1.328 . S
N701 C706 1.318 . S
C702 N701 1.328 . S
C702 C703 1.457 . S
C702 H707 0.929 . S
C703 C702 1.457 . S
C703 C704 1.291 . S
C703 H716 0.931 . S
C704 C703 1.291 . S
C704 C705 1.373 . S
C704 H717 0.929 . S
C705 C704 1.373 . S
C705 C706 1.396 . S
C705 C712 1.403 . S
C706 C696 1.476 . S
C706 N701 1.318 . S
C706 C705 1.396 . S
H707 C702 0.929 . S
O708 Mn684 2.385 . S
O708 C686 1.234 . S
O709 Mn684 2.209 . S
O709 Mn685 2.215 . S
O709 C686 1.283 . S
O710 Mn684 2.094 . S
O710 C688 1.240 . S
O711 Mn685 2.117 . S
O711 C688 1.264 . S
C712 C705 1.403 . S
C712 C713 1.399 . S
C712 H718 0.929 . S
C713 C693 1.449 . S
C713 C712 1.399 . S
C713 H719 0.930 . S
H714 C694 0.931 . S
H715 C695 0.930 . S
H716 C703 0.931 . S
H717 C704 0.929 . S
H718 C712 0.929 . S
H719 C713 0.930 . S
Mn720 O725 2.095 . S
Mn720 O735 2.162 . S
Mn720 O736 2.297 . S
Mn720 O744 2.385 . S
Mn720 O745 2.209 . S
Mn720 O746 2.094 . S
Mn721 O726 2.121 1_556 S
Mn721 N728 2.257 . S
Mn721 N737 2.282 . S
Mn721 O745 2.215 1_556 S
Mn721 O747 2.117 . S
C722 O744 1.234 . S
C722 O745 1.283 . S
C723 O735 1.281 . S
C723 O736 1.236 . S
C724 O746 1.240 1_556 S
C724 O747 1.264 . S
O725 Mn720 2.095 . S
O725 C734 1.250 . S
O726 Mn721 2.121 1_554 S
O726 C734 1.258 . S
C727 N728 1.314 1_554 S
C727 C731 1.462 1_554 S
C727 H733 0.939 . S
N728 Mn721 2.257 . S
N728 C727 1.314 1_556 S
N728 C732 1.362 . S
C729 C730 1.258 . S
C729 C732 1.431 . S
C729 C749 1.449 . S
C730 C729 1.258 . S
C730 C731 1.477 . S
C730 H750 0.931 . S
C731 C727 1.462 1_556 S
C731 C730 1.477 . S
C731 H751 0.930 1_556 S
C732 N728 1.362 . S
C732 C729 1.431 . S
C732 C742 1.476 . S
H733 C727 0.939 . S
C734 O725 1.250 . S
C734 O726 1.258 . S
O735 Mn720 2.162 . S
O735 C723 1.281 . S
O736 Mn720 2.297 . S
O736 C723 1.236 . S
N737 Mn721 2.282 . S
N737 C738 1.328 . S
N737 C742 1.318 . S
C738 N737 1.328 . S
C738 C739 1.457 . S
C738 H743 0.929 . S
C739 C738 1.457 . S
C739 C740 1.291 . S
C739 H752 0.931 . S
C740 C739 1.291 . S
C740 C741 1.373 . S
C740 H753 0.929 . S
C741 C740 1.373 . S
C741 C742 1.396 . S
C741 C748 1.403 . S
C742 C732 1.476 . S
C742 N737 1.318 . S
C742 C741 1.396 . S
H743 C738 0.929 . S
O744 Mn720 2.385 . S
O744 C722 1.234 . S
O745 Mn720 2.209 . S
O745 Mn721 2.215 1_554 S
O745 C722 1.283 . S
O746 Mn720 2.094 . S
O746 C724 1.240 1_554 S
O747 Mn721 2.117 . S
O747 C724 1.264 . S
C748 C741 1.403 . S
C748 C749 1.399 . S
C748 H754 0.929 . S
C749 C729 1.449 . S
C749 C748 1.399 . S
C749 H755 0.930 . S
H750 C730 0.931 . S
H751 C731 0.930 1_554 S
H752 C739 0.931 . S
H753 C740 0.929 . S
H754 C748 0.929 . S
H755 C749 0.930 . S
Mn756 O761 2.095 . S
Mn756 O771 2.162 . S
Mn756 O772 2.297 . S
Mn756 O780 2.385 . S
Mn756 O781 2.209 . S
Mn756 O782 2.094 . S
Mn757 O762 2.121 . S
Mn757 N764 2.257 . S
Mn757 N773 2.282 . S
Mn757 O781 2.215 . S
Mn757 O783 2.117 . S
C758 O780 1.234 . S
C758 O781 1.283 . S
C759 O771 1.281 . S
C759 O772 1.236 . S
C760 O782 1.240 . S
C760 O783 1.264 . S
O761 Mn756 2.095 . S
O761 C770 1.250 . S
O762 Mn757 2.121 . S
O762 C770 1.258 . S
C763 N764 1.326 . S
C763 C767 1.460 . S
C763 H769 0.929 . S
N764 Mn757 2.257 . S
N764 C763 1.326 . S
N764 C768 1.362 . S
C765 C766 1.258 . S
C765 C768 1.431 . S
C765 C785 1.449 . S
C766 C765 1.258 . S
C766 C767 1.477 . S
C766 H786 0.931 . S
C767 C763 1.460 . S
C767 C766 1.477 . S
C767 H787 0.930 . S
C768 N764 1.362 . S
C768 C765 1.431 . S
C768 C778 1.476 . S
H769 C763 0.929 . S
C770 O761 1.250 . S
C770 O762 1.258 . S
O771 Mn756 2.162 . S
O771 C759 1.281 . S
O772 Mn756 2.297 . S
O772 C759 1.236 . S
N773 Mn757 2.282 . S
N773 C774 1.328 . S
N773 C778 1.318 . S
C774 N773 1.328 . S
C774 C775 1.457 . S
C774 H779 0.929 . S
C775 C774 1.457 . S
C775 C776 1.291 . S
C775 H788 0.931 . S
C776 C775 1.291 . S
C776 C777 1.373 . S
C776 H789 0.929 . S
C777 C776 1.373 . S
C777 C778 1.396 . S
C777 C784 1.403 . S
C778 C768 1.476 . S
C778 N773 1.318 . S
C778 C777 1.396 . S
H779 C774 0.929 . S
O780 Mn756 2.385 . S
O780 C758 1.234 . S
O781 Mn756 2.209 . S
O781 Mn757 2.215 . S
O781 C758 1.283 . S
O782 Mn756 2.094 . S
O782 C760 1.240 . S
O783 Mn757 2.117 . S
O783 C760 1.264 . S
C784 C777 1.403 . S
C784 C785 1.399 . S
C784 H790 0.929 . S
C785 C765 1.449 . S
C785 C784 1.399 . S
C785 H791 0.930 . S
H786 C766 0.931 . S
H787 C767 0.930 . S
H788 C775 0.931 . S
H789 C776 0.929 . S
H790 C784 0.929 . S
H791 C785 0.930 . S
Mn792 O797 2.095 . S
Mn792 O807 2.162 . S
Mn792 O808 2.297 . S
Mn792 O816 2.385 . S
Mn792 O817 2.209 . S
Mn792 O818 2.094 . S
Mn793 O798 2.121 . S
Mn793 N800 2.257 . S
Mn793 N809 2.282 . S
Mn793 O817 2.215 . S
Mn793 O819 2.117 . S
C794 O816 1.234 . S
C794 O817 1.283 . S
C795 O807 1.281 . S
C795 O808 1.236 . S
C796 O818 1.240 . S
C796 O819 1.264 . S
O797 Mn792 2.095 . S
O797 C806 1.250 . S
O798 Mn793 2.121 . S
O798 C806 1.258 . S
C799 N800 1.326 . S
C799 C803 1.460 . S
C799 H805 0.929 . S
N800 Mn793 2.257 . S
N800 C799 1.326 . S
N800 C804 1.362 . S
C801 C802 1.258 . S
C801 C804 1.431 . S
C801 C821 1.449 . S
C802 C801 1.258 . S
C802 C803 1.477 . S
C802 H822 0.931 . S
C803 C799 1.460 . S
C803 C802 1.477 . S
C803 H823 0.930 . S
C804 N800 1.362 . S
C804 C801 1.431 . S
C804 C814 1.476 . S
H805 C799 0.929 . S
C806 O797 1.250 . S
C806 O798 1.258 . S
O807 Mn792 2.162 . S
O807 C795 1.281 . S
O808 Mn792 2.297 . S
O808 C795 1.236 . S
N809 Mn793 2.282 . S
N809 C810 1.328 . S
N809 C814 1.318 . S
C810 N809 1.328 . S
C810 C811 1.457 . S
C810 H815 0.929 . S
C811 C810 1.457 . S
C811 C812 1.291 . S
C811 H824 0.931 . S
C812 C811 1.291 . S
C812 C813 1.373 . S
C812 H825 0.929 . S
C813 C812 1.373 . S
C813 C814 1.396 . S
C813 C820 1.403 . S
C814 C804 1.476 . S
C814 N809 1.318 . S
C814 C813 1.396 . S
H815 C810 0.929 . S
O816 Mn792 2.385 . S
O816 C794 1.234 . S
O817 Mn792 2.209 . S
O817 Mn793 2.215 . S
O817 C794 1.283 . S
O818 Mn792 2.094 . S
O818 C796 1.240 . S
O819 Mn793 2.117 . S
O819 C796 1.264 . S
C820 C813 1.403 . S
C820 C821 1.399 . S
C820 H826 0.929 . S
C821 C801 1.449 . S
C821 C820 1.399 . S
C821 H827 0.930 . S
H822 C802 0.931 . S
H823 C803 0.930 . S
H824 C811 0.931 . S
H825 C812 0.929 . S
H826 C820 0.929 . S
H827 C821 0.930 . S
Mn828 O833 2.095 . S
Mn828 O843 2.162 . S
Mn828 O844 2.297 . S
Mn828 O852 2.385 . S
Mn828 O853 2.209 . S
Mn828 O854 2.094 . S
Mn829 O834 2.121 . S
Mn829 N836 2.257 . S
Mn829 N845 2.282 . S
Mn829 O853 2.215 . S
Mn829 O855 2.117 . S
C830 O852 1.234 . S
C830 O853 1.283 . S
C831 O843 1.281 . S
C831 O844 1.236 . S
C832 O854 1.240 . S
C832 O855 1.264 . S
O833 Mn828 2.095 . S
O833 C842 1.250 . S
O834 Mn829 2.121 . S
O834 C842 1.258 . S
C835 N836 1.326 . S
C835 C839 1.460 . S
C835 H841 0.929 . S
N836 Mn829 2.257 . S
N836 C835 1.326 . S
N836 C840 1.362 . S
C837 C838 1.258 . S
C837 C840 1.431 . S
C837 C857 1.449 . S
C838 C837 1.258 . S
C838 C839 1.477 . S
C838 H858 0.931 . S
C839 C835 1.460 . S
C839 C838 1.477 . S
C839 H859 0.930 . S
C840 N836 1.362 . S
C840 C837 1.431 . S
C840 C850 1.476 . S
H841 C835 0.929 . S
C842 O833 1.250 . S
C842 O834 1.258 . S
O843 Mn828 2.162 . S
O843 C831 1.281 . S
O844 Mn828 2.297 . S
O844 C831 1.236 . S
N845 Mn829 2.282 . S
N845 C846 1.328 . S
N845 C850 1.318 . S
C846 N845 1.328 . S
C846 C847 1.457 . S
C846 H851 0.929 . S
C847 C846 1.457 . S
C847 C848 1.291 . S
C847 H860 0.931 . S
C848 C847 1.291 . S
C848 C849 1.373 . S
C848 H861 0.929 . S
C849 C848 1.373 . S
C849 C850 1.396 . S
C849 C856 1.403 . S
C850 C840 1.476 . S
C850 N845 1.318 . S
C850 C849 1.396 . S
H851 C846 0.929 . S
O852 Mn828 2.385 . S
O852 C830 1.234 . S
O853 Mn828 2.209 . S
O853 Mn829 2.215 . S
O853 C830 1.283 . S
O854 Mn828 2.094 . S
O854 C832 1.240 . S
O855 Mn829 2.117 . S
O855 C832 1.264 . S
C856 C849 1.403 . S
C856 C857 1.399 . S
C856 H862 0.929 . S
C857 C837 1.449 . S
C857 C856 1.399 . S
C857 H863 0.930 . S
H858 C838 0.931 . S
H859 C839 0.930 . S
H860 C847 0.931 . S
H861 C848 0.929 . S
H862 C856 0.929 . S
H863 C857 0.930 . S
C864 Eu865 2.835 1_565 S
C864 C866 1.500 . S
C864 O884 1.257 . S
C864 O885 1.260 1_565 S
Eu865 C864 2.835 1_545 S
Eu865 O884 2.473 1_545 S
Eu865 O885 2.480 . S
Eu865 O886 2.430 . S
Eu865 O887 2.670 . S
Eu865 O888 2.394 1_545 S
Eu865 O893 2.355 . S
Eu865 O895 2.374 . S
C866 C864 1.500 . S
C866 C867 1.377 . S
C866 C871 1.377 . S
C867 C866 1.377 . S
C867 C868 1.395 . S
C867 H896 0.931 . S
C868 C867 1.395 . S
C868 C869 1.383 . S
C868 H897 0.931 . S
C869 C868 1.383 . S
C869 C870 1.394 . S
C870 C869 1.394 . S
C870 C871 1.378 . S
C870 H898 0.931 . S
C871 C866 1.377 . S
C871 C870 1.378 . S
C871 H899 0.931 . S
C872 O886 1.259 . S
C872 O887 1.270 . S
C873 O888 1.251 . S
C873 O889 1.251 . S
C874 Eu875 2.835 . S
C874 C876 1.500 . S
C874 O890 1.257 . S
C874 O891 1.260 1_554 S
Eu875 C874 2.835 . S
Eu875 O887 2.355 1_655 S
Eu875 O889 2.374 1_645 S
Eu875 O890 2.473 . S
Eu875 O891 2.480 1_554 S
Eu875 O892 2.430 1_644 S
Eu875 O893 2.670 1_655 S
Eu875 O894 2.394 1_655 S
C876 C874 1.500 . S
C876 C877 1.377 1_554 S
C876 C881 1.377 . S
C877 C876 1.377 1_556 S
C877 C878 1.395 . S
C877 H900 0.931 . S
C878 C877 1.395 . S
C878 C879 1.383 1_556 S
C878 H901 0.931 . S
C879 C878 1.383 1_554 S
C879 C880 1.394 . S
C880 C879 1.394 . S
C880 C881 1.378 . S
C880 H902 0.931 . S
C881 C876 1.377 . S
C881 C880 1.378 . S
C881 H903 0.931 . S
C882 O892 1.259 1_545 S
C882 O893 1.270 1_556 S
C883 O894 1.251 . S
C883 O895 1.251 . S
O884 C864 1.257 . S
O884 Eu865 2.473 1_565 S
O885 C864 1.260 1_545 S
O885 Eu865 2.480 . S
O886 Eu865 2.430 . S
O886 C872 1.259 . S
O887 Eu865 2.670 . S
O887 C872 1.270 . S
O887 Eu875 2.355 1_455 S
O888 Eu865 2.394 1_565 S
O888 C873 1.251 . S
O889 C873 1.251 . S
O889 Eu875 2.374 1_465 S
O890 C874 1.257 . S
O890 Eu875 2.473 . S
O891 C874 1.260 1_556 S
O891 Eu875 2.480 1_556 S
O892 Eu875 2.430 1_466 S
O892 C882 1.259 1_565 S
O893 Eu865 2.355 . S
O893 Eu875 2.670 1_455 S
O893 C882 1.270 1_554 S
O894 Eu875 2.394 1_455 S
O894 C883 1.251 . S
O895 Eu865 2.374 . S
O895 C883 1.251 . S
H896 C867 0.931 . S
H897 C868 0.931 . S
H898 C870 0.931 . S
H899 C871 0.931 . S
H900 C877 0.931 . S
H901 C878 0.931 . S
H902 C880 0.931 . S
H903 C881 0.931 . S
C904 Eu905 2.835 . S
C904 C906 1.500 . S
C904 O924 1.257 . S
C904 O925 1.260 . S
Eu905 C904 2.835 . S
Eu905 O924 2.473 . S
Eu905 O925 2.480 . S
Eu905 O926 2.430 . S
Eu905 O927 2.670 . S
Eu905 O928 2.394 . S
Eu905 O933 2.355 . S
Eu905 O935 2.374 . S
C906 C904 1.500 . S
C906 C907 1.377 . S
C906 C911 1.377 . S
C907 C906 1.377 . S
C907 C908 1.395 . S
C907 H936 0.931 . S
C908 C907 1.395 . S
C908 C909 1.383 . S
C908 H937 0.931 . S
C909 C908 1.383 . S
C909 C910 1.394 . S
C910 C909 1.394 . S
C910 C911 1.378 . S
C910 H938 0.931 . S
C911 C906 1.377 . S
C911 C910 1.378 . S
C911 H939 0.931 . S
C912 O926 1.259 . S
C912 O927 1.270 . S
C913 O928 1.251 . S
C913 O929 1.251 . S
C914 Eu915 2.835 . S
C914 C916 1.500 . S
C914 O930 1.257 . S
C914 O931 1.260 . S
Eu915 C914 2.835 . S
Eu915 O927 2.355 . S
Eu915 O929 2.374 . S
Eu915 O930 2.473 . S
Eu915 O931 2.480 . S
Eu915 O932 2.430 . S
Eu915 O933 2.670 . S
Eu915 O934 2.394 . S
C916 C914 1.500 . S
C916 C917 1.377 . S
C916 C921 1.377 . S
C917 C916 1.377 . S
C917 C918 1.395 . S
C917 H940 0.931 . S
C918 C917 1.395 . S
C918 C919 1.383 . S
C918 H941 0.931 . S
C919 C918 1.383 . S
C919 C920 1.394 . S
C920 C919 1.394 . S
C920 C921 1.378 . S
C920 H942 0.931 . S
C921 C916 1.377 . S
C921 C920 1.378 . S
C921 H943 0.931 . S
C922 O932 1.259 . S
C922 O933 1.270 . S
C923 O934 1.251 . S
C923 O935 1.251 . S
O924 C904 1.257 . S
O924 Eu905 2.473 . S
O925 C904 1.260 . S
O925 Eu905 2.480 . S
O926 Eu905 2.430 . S
O926 C912 1.259 . S
O927 Eu905 2.670 . S
O927 C912 1.270 . S
O927 Eu915 2.355 . S
O928 Eu905 2.394 . S
O928 C913 1.251 . S
O929 C913 1.251 . S
O929 Eu915 2.374 . S
O930 C914 1.257 . S
O930 Eu915 2.473 . S
O931 C914 1.260 . S
O931 Eu915 2.480 . S
O932 Eu915 2.430 . S
O932 C922 1.259 . S
O933 Eu905 2.355 . S
O933 Eu915 2.670 . S
O933 C922 1.270 . S
O934 Eu915 2.394 . S
O934 C923 1.251 . S
O935 Eu905 2.374 . S
O935 C923 1.251 . S
H936 C907 0.931 . S
H937 C908 0.931 . S
H938 C910 0.931 . S
H939 C911 0.931 . S
H940 C917 0.931 . S
H941 C918 0.931 . S
H942 C920 0.931 . S
H943 C921 0.931 . S
C944 Eu945 2.835 . S
C944 C946 1.500 . S
C944 O964 1.257 . S
C944 O965 1.260 . S
Eu945 C944 2.835 . S
Eu945 O964 2.473 . S
Eu945 O965 2.480 . S
Eu945 O966 2.430 . S
Eu945 O967 2.670 . S
Eu945 O968 2.394 . S
Eu945 O973 2.355 . S
Eu945 O975 2.374 1_545 S
C946 C944 1.500 . S
C946 C947 1.377 . S
C946 C951 1.377 . S
C947 C946 1.377 . S
C947 C948 1.395 . S
C947 H976 0.931 . S
C948 C947 1.395 . S
C948 C949 1.383 . S
C948 H977 0.931 . S
C949 C948 1.383 . S
C949 C950 1.394 . S
C950 C949 1.394 . S
C950 C951 1.378 . S
C950 H978 0.931 . S
C951 C946 1.377 . S
C951 C950 1.378 . S
C951 H979 0.931 . S
C952 O966 1.259 . S
C952 O967 1.270 . S
C953 O968 1.251 . S
C953 O969 1.251 . S
C954 Eu955 2.835 . S
C954 C956 1.500 1_545 S
C954 O970 1.257 . S
C954 O971 1.260 . S
Eu955 C954 2.835 . S
Eu955 O967 2.355 . S
Eu955 O969 2.374 . S
Eu955 O970 2.473 . S
Eu955 O971 2.480 . S
Eu955 O972 2.430 . S
Eu955 O973 2.670 . S
Eu955 O974 2.394 1_545 S
C956 C954 1.500 1_565 S
C956 C957 1.377 . S
C956 C961 1.377 . S
C957 C956 1.377 . S
C957 C958 1.395 . S
C957 H980 0.931 . S
C958 C957 1.395 . S
C958 C959 1.383 . S
C958 H981 0.931 . S
C959 C958 1.383 . S
C959 C960 1.394 . S
C960 C959 1.394 . S
C960 C961 1.378 . S
C960 H982 0.931 . S
C961 C956 1.377 . S
C961 C960 1.378 . S
C961 H983 0.931 . S
C962 O972 1.259 . S
C962 O973 1.270 . S
C963 O974 1.251 . S
C963 O975 1.251 . S
O964 C944 1.257 . S
O964 Eu945 2.473 . S
O965 C944 1.260 . S
O965 Eu945 2.480 . S
O966 Eu945 2.430 . S
O966 C952 1.259 . S
O967 Eu945 2.670 . S
O967 C952 1.270 . S
O967 Eu955 2.355 . S
O968 Eu945 2.394 . S
O968 C953 1.251 . S
O969 C953 1.251 . S
O969 Eu955 2.374 . S
O970 C954 1.257 . S
O970 Eu955 2.473 . S
O971 C954 1.260 . S
O971 Eu955 2.480 . S
O972 Eu955 2.430 . S
O972 C962 1.259 . S
O973 Eu945 2.355 . S
O973 Eu955 2.670 . S
O973 C962 1.270 . S
O974 Eu955 2.394 1_565 S
O974 C963 1.251 . S
O975 Eu945 2.374 1_565 S
O975 C963 1.251 . S
H976 C947 0.931 . S
H977 C948 0.931 . S
H978 C950 0.931 . S
H979 C951 0.931 . S
H980 C957 0.931 . S
H981 C958 0.931 . S
H982 C960 0.931 . S
H983 C961 0.931 . S
C984 Eu985 2.835 . S
C984 C986 1.500 . S
C984 O1004 1.257 . S
C984 O1005 1.260 . S
Eu985 C984 2.835 . S
Eu985 O1004 2.473 . S
Eu985 O1005 2.480 . S
Eu985 O1006 2.430 . S
Eu985 O1007 2.670 . S
Eu985 O1008 2.394 . S
Eu985 O1013 2.355 . S
Eu985 O1015 2.374 . S
C986 C984 1.500 . S
C986 C987 1.377 . S
C986 C991 1.377 . S
C987 C986 1.377 . S
C987 C988 1.395 . S
C987 H1016 0.931 . S
C988 C987 1.395 . S
C988 C989 1.383 . S
C988 H1017 0.931 . S
C989 C988 1.383 . S
C989 C990 1.394 . S
C990 C989 1.394 . S
C990 C991 1.378 . S
C990 H1018 0.931 . S
C991 C986 1.377 . S
C991 C990 1.378 . S
C991 H1019 0.931 . S
C992 O1006 1.259 . S
C992 O1007 1.270 . S
C993 O1008 1.251 . S
C993 O1009 1.251 . S
C994 Eu995 2.835 . S
C994 C996 1.500 . S
C994 O1010 1.257 . S
C994 O1011 1.260 . S
Eu995 C994 2.835 . S
Eu995 O1007 2.355 . S
Eu995 O1009 2.374 . S
Eu995 O1010 2.473 . S
Eu995 O1011 2.480 . S
Eu995 O1012 2.430 . S
Eu995 O1013 2.670 . S
Eu995 O1014 2.394 . S
C996 C994 1.500 . S
C996 C997 1.377 . S
C996 C1001 1.377 . S
C997 C996 1.377 . S
C997 C998 1.395 . S
C997 H1020 0.931 . S
C998 C997 1.395 . S
C998 C999 1.383 . S
C998 H1021 0.931 . S
C999 C998 1.383 . S
C999 C1000 1.394 . S
C1000 C999 1.394 . S
C1000 C1001 1.378 . S
C1000 H1022 0.931 . S
C1001 C996 1.377 . S
C1001 C1000 1.378 . S
C1001 H1023 0.931 . S
C1002 O1012 1.259 . S
C1002 O1013 1.270 . S
C1003 O1014 1.251 . S
C1003 O1015 1.251 . S
O1004 C984 1.257 . S
O1004 Eu985 2.473 . S
O1005 C984 1.260 . S
O1005 Eu985 2.480 . S
O1006 Eu985 2.430 . S
O1006 C992 1.259 . S
O1007 Eu985 2.670 . S
O1007 C992 1.270 . S
O1007 Eu995 2.355 . S
O1008 Eu985 2.394 . S
O1008 C993 1.251 . S
O1009 C993 1.251 . S
O1009 Eu995 2.374 . S
O1010 C994 1.257 . S
O1010 Eu995 2.473 . S
O1011 C994 1.260 . S
O1011 Eu995 2.480 . S
O1012 Eu995 2.430 . S
O1012 C1002 1.259 . S
O1013 Eu985 2.355 . S
O1013 Eu995 2.670 . S
O1013 C1002 1.270 . S
O1014 Eu995 2.394 . S
O1014 C1003 1.251 . S
O1015 Eu985 2.374 . S
O1015 C1003 1.251 . S
H1016 C987 0.931 . S
H1017 C988 0.931 . S
H1018 C990 0.931 . S
H1019 C991 0.931 . S
H1020 C997 0.931 . S
H1021 C998 0.931 . S
H1022 C1000 0.931 . S
H1023 C1001 0.931 . S
C1024 Eu1025 2.835 . S
C1024 C1026 1.500 . S
C1024 O1044 1.257 . S
C1024 O1045 1.260 . S
Eu1025 C1024 2.835 . S
Eu1025 O1044 2.473 . S
Eu1025 O1045 2.480 . S
Eu1025 O1046 2.430 1_565 S
Eu1025 O1047 2.670 1_565 S
Eu1025 O1048 2.394 1_565 S
Eu1025 O1053 2.355 1_565 S
Eu1025 O1055 2.374 1_565 S
C1026 C1024 1.500 . S
C1026 C1027 1.377 . S
C1026 C1031 1.377 . S
C1027 C1026 1.377 . S
C1027 C1028 1.395 . S
C1027 H1056 0.931 . S
C1028 C1027 1.395 . S
C1028 C1029 1.383 . S
C1028 H1057 0.931 . S
C1029 C1028 1.383 . S
C1029 C1030 1.394 . S
C1030 C1029 1.394 . S
C1030 C1031 1.378 . S
C1030 H1058 0.931 . S
C1031 C1026 1.377 . S
C1031 C1030 1.378 . S
C1031 H1059 0.931 . S
C1032 O1046 1.259 . S
C1032 O1047 1.270 . S
C1033 O1048 1.251 . S
C1033 O1049 1.251 . S
C1034 Eu1035 2.835 . S
C1034 C1036 1.500 . S
C1034 O1050 1.257 . S
C1034 O1051 1.295 . S
Eu1035 C1034 2.835 . S
Eu1035 O1047 2.355 . S
Eu1035 O1049 2.374 . S
Eu1035 O1050 2.473 . S
Eu1035 O1051 2.510 . S
Eu1035 O1052 2.430 1_455 S
Eu1035 O1053 2.670 . S
Eu1035 O1054 2.394 . S
C1036 C1034 1.500 . S
C1036 C1037 1.377 1_455 S
C1036 C1041 1.377 . S
C1037 C1036 1.377 1_655 S
C1037 C1038 1.395 . S
C1037 H1060 0.931 . S
C1038 C1037 1.395 . S
C1038 C1039 1.383 1_655 S
C1038 H1061 0.931 . S
C1039 C1038 1.383 1_455 S
C1039 C1040 1.394 . S
C1040 C1039 1.394 . S
C1040 C1041 1.378 . S
C1040 H1062 0.931 . S
C1041 C1036 1.377 . S
C1041 C1040 1.378 . S
C1041 H1063 0.931 . S
C1042 O1052 1.259 . S
C1042 O1053 1.270 1_655 S
C1043 O1054 1.251 . S
C1043 O1055 1.251 . S
O1044 C1024 1.257 . S
O1044 Eu1025 2.473 . S
O1045 C1024 1.260 . S
O1045 Eu1025 2.480 . S
O1046 Eu1025 2.430 1_545 S
O1046 C1032 1.259 . S
O1047 Eu1025 2.670 1_545 S
O1047 C1032 1.270 . S
O1047 Eu1035 2.355 . S
O1048 Eu1025 2.394 1_545 S
O1048 C1033 1.251 . S
O1049 C1033 1.251 . S
O1049 Eu1035 2.374 . S
O1050 C1034 1.257 . S
O1050 Eu1035 2.473 . S
O1051 C1034 1.295 . S
O1051 Eu1035 2.510 . S
O1052 Eu1035 2.430 1_655 S
O1052 C1042 1.259 . S
O1053 Eu1025 2.355 1_545 S
O1053 Eu1035 2.670 . S
O1053 C1042 1.270 1_455 S
O1054 Eu1035 2.394 . S
O1054 C1043 1.251 . S
O1055 Eu1025 2.374 1_545 S
O1055 C1043 1.251 . S
H1056 C1027 0.931 . S
H1057 C1028 0.931 . S
H1058 C1030 0.931 . S
H1059 C1031 0.931 . S
H1060 C1037 0.931 . S
H1061 C1038 0.931 . S
H1062 C1040 0.931 . S
H1063 C1041 0.931 . S
C1064 Eu1065 2.835 . S
C1064 C1066 1.500 . S
C1064 O1084 1.257 . S
C1064 O1085 1.260 . S
Eu1065 C1064 2.835 . S
Eu1065 O1084 2.473 . S
Eu1065 O1085 2.480 . S
Eu1065 O1086 2.430 . S
Eu1065 O1087 2.670 . S
Eu1065 O1088 2.394 . S
Eu1065 O1093 2.355 . S
Eu1065 O1095 2.374 . S
C1066 C1064 1.500 . S
C1066 C1067 1.377 . S
C1066 C1071 1.377 . S
C1067 C1066 1.377 . S
C1067 C1068 1.395 . S
C1067 H1096 0.931 . S
C1068 C1067 1.395 . S
C1068 C1069 1.383 . S
C1068 H1097 0.931 . S
C1069 C1068 1.383 . S
C1069 C1070 1.394 . S
C1070 C1069 1.394 . S
C1070 C1071 1.378 . S
C1070 H1098 0.931 . S
C1071 C1066 1.377 . S
C1071 C1070 1.378 . S
C1071 H1099 0.931 . S
C1072 O1086 1.259 . S
C1072 O1087 1.270 . S
C1073 O1088 1.251 . S
C1073 O1089 1.251 . S
C1074 Eu1075 2.835 . S
C1074 C1076 1.500 . S
C1074 O1090 1.257 . S
C1074 O1091 1.260 . S
Eu1075 C1074 2.835 . S
Eu1075 O1087 2.355 . S
Eu1075 O1089 2.374 . S
Eu1075 O1090 2.473 . S
Eu1075 O1091 2.480 . S
Eu1075 O1092 2.430 . S
Eu1075 O1093 2.670 . S
Eu1075 O1094 2.394 . S
C1076 C1074 1.500 . S
C1076 C1077 1.377 . S
C1076 C1081 1.377 . S
C1077 C1076 1.377 . S
C1077 C1078 1.395 . S
C1077 H1100 0.931 . S
C1078 C1077 1.395 . S
C1078 C1079 1.383 . S
C1078 H1101 0.931 . S
C1079 C1078 1.383 . S
C1079 C1080 1.394 . S
C1080 C1079 1.394 . S
C1080 C1081 1.378 . S
C1080 H1102 0.931 . S
C1081 C1076 1.377 . S
C1081 C1080 1.378 . S
C1081 H1103 0.931 . S
C1082 O1092 1.259 . S
C1082 O1093 1.270 . S
C1083 O1094 1.251 . S
C1083 O1095 1.251 . S
O1084 C1064 1.257 . S
O1084 Eu1065 2.473 . S
O1085 C1064 1.260 . S
O1085 Eu1065 2.480 . S
O1086 Eu1065 2.430 . S
O1086 C1072 1.259 . S
O1087 Eu1065 2.670 . S
O1087 C1072 1.270 . S
O1087 Eu1075 2.355 . S
O1088 Eu1065 2.394 . S
O1088 C1073 1.251 . S
O1089 C1073 1.251 . S
O1089 Eu1075 2.374 . S
O1090 C1074 1.257 . S
O1090 Eu1075 2.473 . S
O1091 C1074 1.260 . S
O1091 Eu1075 2.480 . S
O1092 Eu1075 2.430 . S
O1092 C1082 1.259 . S
O1093 Eu1065 2.355 . S
O1093 Eu1075 2.670 . S
O1093 C1082 1.270 . S
O1094 Eu1075 2.394 . S
O1094 C1083 1.251 . S
O1095 Eu1065 2.374 . S
O1095 C1083 1.251 . S
H1096 C1067 0.931 . S
H1097 C1068 0.931 . S
H1098 C1070 0.931 . S
H1099 C1071 0.931 . S
H1100 C1077 0.931 . S
H1101 C1078 0.931 . S
H1102 C1080 0.931 . S
H1103 C1081 0.931 . S
C1104 Eu1105 2.835 . S
C1104 C1106 1.500 . S
C1104 O1124 1.257 . S
C1104 O1125 1.260 . S
Eu1105 C1104 2.835 . S
Eu1105 O1124 2.473 . S
Eu1105 O1125 2.480 . S
Eu1105 O1126 2.430 1_545 S
Eu1105 O1127 2.670 . S
Eu1105 O1128 2.394 . S
Eu1105 O1133 2.355 . S
Eu1105 O1135 2.374 . S
C1106 C1104 1.500 . S
C1106 C1107 1.377 . S
C1106 C1111 1.377 . S
C1107 C1106 1.377 . S
C1107 C1108 1.395 . S
C1107 H1136 0.931 . S
C1108 C1107 1.395 . S
C1108 C1109 1.383 . S
C1108 H1137 0.931 . S
C1109 C1108 1.383 . S
C1109 C1110 1.394 . S
C1110 C1109 1.394 . S
C1110 C1111 1.378 . S
C1110 H1138 0.931 . S
C1111 C1106 1.377 . S
C1111 C1110 1.378 . S
C1111 H1139 0.931 . S
C1112 O1126 1.259 . S
C1112 O1127 1.269 1_565 S
C1113 O1128 1.251 . S
C1113 O1129 1.250 1_554 S
C1114 Eu1115 2.834 1_565 S
C1114 C1116 1.501 . S
C1114 O1130 1.258 . S
C1114 O1131 1.259 1_565 S
Eu1115 C1114 2.834 1_545 S
Eu1115 O1127 2.356 . S
Eu1115 O1129 2.350 1_554 S
Eu1115 O1130 2.473 1_545 S
Eu1115 O1131 2.480 . S
Eu1115 O1132 2.430 . S
Eu1115 O1133 2.670 . S
Eu1115 O1134 2.394 . S
C1116 C1114 1.501 . S
C1116 C1117 1.380 1_565 S
C1116 C1121 1.377 . S
C1117 C1116 1.380 1_545 S
C1117 C1118 1.397 1_545 S
C1117 H1140 0.925 . S
C1118 C1117 1.397 1_565 S
C1118 C1119 1.383 . S
C1118 H1141 0.931 . S
C1119 C1118 1.383 . S
C1119 C1120 1.394 . S
C1120 C1119 1.394 . S
C1120 C1121 1.378 . S
C1120 H1142 0.931 . S
C1121 C1116 1.377 . S
C1121 C1120 1.378 . S
C1121 H1143 0.931 . S
C1122 O1132 1.259 . S
C1122 O1133 1.270 . S
C1123 O1134 1.251 . S
C1123 O1135 1.251 . S
O1124 C1104 1.257 . S
O1124 Eu1105 2.473 . S
O1125 C1104 1.260 . S
O1125 Eu1105 2.480 . S
O1126 Eu1105 2.430 1_565 S
O1126 C1112 1.259 . S
O1127 Eu1105 2.670 . S
O1127 C1112 1.269 1_545 S
O1127 Eu1115 2.356 . S
O1128 Eu1105 2.394 . S
O1128 C1113 1.251 . S
O1129 C1113 1.250 1_556 S
O1129 Eu1115 2.350 1_556 S
O1130 C1114 1.258 . S
O1130 Eu1115 2.473 1_565 S
O1131 C1114 1.259 1_545 S
O1131 Eu1115 2.480 . S
O1132 Eu1115 2.430 . S
O1132 C1122 1.259 . S
O1133 Eu1105 2.355 . S
O1133 Eu1115 2.670 . S
O1133 C1122 1.270 . S
O1134 Eu1115 2.394 . S
O1134 C1123 1.251 . S
O1135 Eu1105 2.374 . S
O1135 C1123 1.251 . S
H1136 C1107 0.931 . S
H1137 C1108 0.931 . S
H1138 C1110 0.931 . S
H1139 C1111 0.931 . S
H1140 C1117 0.925 . S
H1141 C1118 0.931 . S
H1142 C1120 0.931 . S
H1143 C1121 0.931 . S
C1144 Eu1145 2.835 . S
C1144 C1146 1.500 . S
C1144 O1164 1.257 . S
C1144 O1165 1.260 . S
Eu1145 C1144 2.835 . S
Eu1145 O1164 2.473 . S
Eu1145 O1165 2.480 . S
Eu1145 O1166 2.430 . S
Eu1145 O1167 2.670 . S
Eu1145 O1168 2.394 . S
Eu1145 O1173 2.355 . S
Eu1145 O1175 2.374 . S
C1146 C1144 1.500 . S
C1146 C1147 1.377 . S
C1146 C1151 1.377 . S
C1147 C1146 1.377 . S
C1147 C1148 1.395 . S
C1147 H1176 0.931 . S
C1148 C1147 1.395 . S
C1148 C1149 1.383 . S
C1148 H1177 0.931 . S
C1149 C1148 1.383 . S
C1149 C1150 1.394 . S
C1150 C1149 1.394 . S
C1150 C1151 1.378 . S
C1150 H1178 0.931 . S
C1151 C1146 1.377 . S
C1151 C1150 1.378 . S
C1151 H1179 0.931 . S
C1152 O1166 1.259 . S
C1152 O1167 1.270 . S
C1153 O1168 1.251 . S
C1153 O1169 1.251 . S
C1154 Eu1155 2.835 . S
C1154 C1156 1.500 . S
C1154 O1170 1.257 . S
C1154 O1171 1.260 . S
Eu1155 C1154 2.835 . S
Eu1155 O1167 2.355 . S
Eu1155 O1169 2.374 . S
Eu1155 O1170 2.473 . S
Eu1155 O1171 2.480 . S
Eu1155 O1172 2.430 . S
Eu1155 O1173 2.670 . S
Eu1155 O1174 2.394 . S
C1156 C1154 1.500 . S
C1156 C1157 1.377 . S
C1156 C1161 1.377 . S
C1157 C1156 1.377 . S
C1157 C1158 1.395 . S
C1157 H1180 0.931 . S
C1158 C1157 1.395 . S
C1158 C1159 1.383 . S
C1158 H1181 0.931 . S
C1159 C1158 1.383 . S
C1159 C1160 1.394 . S
C1160 C1159 1.394 . S
C1160 C1161 1.378 . S
C1160 H1182 0.931 . S
C1161 C1156 1.377 . S
C1161 C1160 1.378 . S
C1161 H1183 0.931 . S
C1162 O1172 1.259 . S
C1162 O1173 1.270 . S
C1163 O1174 1.251 . S
C1163 O1175 1.251 . S
O1164 C1144 1.257 . S
O1164 Eu1145 2.473 . S
O1165 C1144 1.260 . S
O1165 Eu1145 2.480 . S
O1166 Eu1145 2.430 . S
O1166 C1152 1.259 . S
O1167 Eu1145 2.670 . S
O1167 C1152 1.270 . S
O1167 Eu1155 2.355 . S
O1168 Eu1145 2.394 . S
O1168 C1153 1.251 . S
O1169 C1153 1.251 . S
O1169 Eu1155 2.374 . S
O1170 C1154 1.257 . S
O1170 Eu1155 2.473 . S
O1171 C1154 1.260 . S
O1171 Eu1155 2.480 . S
O1172 Eu1155 2.430 . S
O1172 C1162 1.259 . S
O1173 Eu1145 2.355 . S
O1173 Eu1155 2.670 . S
O1173 C1162 1.270 . S
O1174 Eu1155 2.394 . S
O1174 C1163 1.251 . S
O1175 Eu1145 2.374 . S
O1175 C1163 1.251 . S
H1176 C1147 0.931 . S
H1177 C1148 0.931 . S
H1178 C1150 0.931 . S
H1179 C1151 0.931 . S
H1180 C1157 0.931 . S
H1181 C1158 0.931 . S
H1182 C1160 0.931 . S
H1183 C1161 0.931 . S
C1184 Eu1185 2.835 . S
C1184 C1186 1.500 . S
C1184 O1204 1.257 . S
C1184 O1205 1.260 . S
Eu1185 C1184 2.835 . S
Eu1185 O1204 2.473 . S
Eu1185 O1205 2.480 . S
Eu1185 O1206 2.430 . S
Eu1185 O1207 2.670 . S
Eu1185 O1208 2.394 . S
Eu1185 O1213 2.355 . S
Eu1185 O1215 2.374 1_554 S
C1186 C1184 1.500 . S
C1186 C1187 1.377 . S
C1186 C1191 1.377 . S
C1187 C1186 1.377 . S
C1187 C1188 1.395 . S
C1187 H1216 0.931 . S
C1188 C1187 1.395 . S
C1188 C1189 1.383 . S
C1188 H1217 0.931 . S
C1189 C1188 1.383 . S
C1189 C1190 1.394 . S
C1190 C1189 1.394 . S
C1190 C1191 1.378 . S
C1190 H1218 0.931 . S
C1191 C1186 1.377 . S
C1191 C1190 1.378 . S
C1191 H1219 0.931 . S
C1192 O1206 1.259 . S
C1192 O1207 1.270 . S
C1193 O1208 1.251 . S
C1193 O1209 1.251 . S
C1194 Eu1195 2.835 . S
C1194 C1196 1.500 . S
C1194 O1210 1.257 . S
C1194 O1211 1.260 . S
Eu1195 C1194 2.835 . S
Eu1195 O1207 2.355 . S
Eu1195 O1209 2.374 . S
Eu1195 O1210 2.473 . S
Eu1195 O1211 2.480 . S
Eu1195 O1212 2.430 . S
Eu1195 O1213 2.670 . S
Eu1195 O1214 2.394 . S
C1196 C1194 1.500 . S
C1196 C1197 1.377 . S
C1196 C1201 1.377 . S
C1197 C1196 1.377 . S
C1197 C1198 1.395 . S
C1197 H1220 0.931 . S
C1198 C1197 1.395 . S
C1198 C1199 1.383 . S
C1198 H1221 0.931 . S
C1199 C1198 1.383 . S
C1199 C1200 1.394 1_554 S
C1200 C1199 1.394 1_556 S
C1200 C1201 1.378 1_556 S
C1200 H1222 0.931 . S
C1201 C1196 1.377 . S
C1201 C1200 1.378 1_554 S
C1201 H1223 0.931 . S
C1202 O1212 1.259 . S
C1202 O1213 1.270 . S
C1203 O1214 1.251 1_556 S
C1203 O1215 1.251 . S
O1204 C1184 1.257 . S
O1204 Eu1185 2.473 . S
O1205 C1184 1.260 . S
O1205 Eu1185 2.480 . S
O1206 Eu1185 2.430 . S
O1206 C1192 1.259 . S
O1207 Eu1185 2.670 . S
O1207 C1192 1.270 . S
O1207 Eu1195 2.355 . S
O1208 Eu1185 2.394 . S
O1208 C1193 1.251 . S
O1209 C1193 1.251 . S
O1209 Eu1195 2.374 . S
O1210 C1194 1.257 . S
O1210 Eu1195 2.473 . S
O1211 C1194 1.260 . S
O1211 Eu1195 2.480 . S
O1212 Eu1195 2.430 . S
O1212 C1202 1.259 . S
O1213 Eu1185 2.355 . S
O1213 Eu1195 2.670 . S
O1213 C1202 1.270 . S
O1214 Eu1195 2.394 . S
O1214 C1203 1.251 1_554 S
O1215 Eu1185 2.374 1_556 S
O1215 C1203 1.251 . S
H1216 C1187 0.931 . S
H1217 C1188 0.931 . S
H1218 C1190 0.931 . S
H1219 C1191 0.931 . S
H1220 C1197 0.931 . S
H1221 C1198 0.931 . S
H1222 C1200 0.931 . S
H1223 C1201 0.931 . S
C1224 Eu1225 2.835 . S
C1224 C1226 1.500 . S
C1224 O1244 1.257 . S
C1224 O1245 1.260 . S
Eu1225 C1224 2.835 . S
Eu1225 O1244 2.473 . S
Eu1225 O1245 2.480 . S
Eu1225 O1246 2.430 . S
Eu1225 O1247 2.670 . S
Eu1225 O1248 2.394 . S
Eu1225 O1253 2.355 . S
Eu1225 O1255 2.374 . S
C1226 C1224 1.500 . S
C1226 C1227 1.377 . S
C1226 C1231 1.377 . S
C1227 C1226 1.377 . S
C1227 C1228 1.395 . S
C1227 H1256 0.931 . S
C1228 C1227 1.395 . S
C1228 C1229 1.383 . S
C1228 H1257 0.931 . S
C1229 C1228 1.383 . S
C1229 C1230 1.394 . S
C1230 C1229 1.394 . S
C1230 C1231 1.378 . S
C1230 H1258 0.931 . S
C1231 C1226 1.377 . S
C1231 C1230 1.378 . S
C1231 H1259 0.931 . S
C1232 O1246 1.259 . S
C1232 O1247 1.270 . S
C1233 O1248 1.251 . S
C1233 O1249 1.251 . S
C1234 Eu1235 2.835 . S
C1234 C1236 1.500 . S
C1234 O1250 1.257 . S
C1234 O1251 1.260 . S
Eu1235 C1234 2.835 . S
Eu1235 O1247 2.355 . S
Eu1235 O1249 2.374 . S
Eu1235 O1250 2.473 . S
Eu1235 O1251 2.480 . S
Eu1235 O1252 2.430 . S
Eu1235 O1253 2.670 . S
Eu1235 O1254 2.394 . S
C1236 C1234 1.500 . S
C1236 C1237 1.377 . S
C1236 C1241 1.377 . S
C1237 C1236 1.377 . S
C1237 C1238 1.395 . S
C1237 H1260 0.931 . S
C1238 C1237 1.395 . S
C1238 C1239 1.383 . S
C1238 H1261 0.931 . S
C1239 C1238 1.383 . S
C1239 C1240 1.394 . S
C1240 C1239 1.394 . S
C1240 C1241 1.378 . S
C1240 H1262 0.931 . S
C1241 C1236 1.377 . S
C1241 C1240 1.378 . S
C1241 H1263 0.931 . S
C1242 O1252 1.259 . S
C1242 O1253 1.270 . S
C1243 O1254 1.251 . S
C1243 O1255 1.251 . S
O1244 C1224 1.257 . S
O1244 Eu1225 2.473 . S
O1245 C1224 1.260 . S
O1245 Eu1225 2.480 . S
O1246 Eu1225 2.430 . S
O1246 C1232 1.259 . S
O1247 Eu1225 2.670 . S
O1247 C1232 1.270 . S
O1247 Eu1235 2.355 . S
O1248 Eu1225 2.394 . S
O1248 C1233 1.251 . S
O1249 C1233 1.251 . S
O1249 Eu1235 2.374 . S
O1250 C1234 1.257 . S
O1250 Eu1235 2.473 . S
O1251 C1234 1.260 . S
O1251 Eu1235 2.480 . S
O1252 Eu1235 2.430 . S
O1252 C1242 1.259 . S
O1253 Eu1225 2.355 . S
O1253 Eu1235 2.670 . S
O1253 C1242 1.270 . S
O1254 Eu1235 2.394 . S
O1254 C1243 1.251 . S
O1255 Eu1225 2.374 . S
O1255 C1243 1.251 . S
H1256 C1227 0.931 . S
H1257 C1228 0.931 . S
H1258 C1230 0.931 . S
H1259 C1231 0.931 . S
H1260 C1237 0.931 . S
H1261 C1238 0.931 . S
H1262 C1240 0.931 . S
H1263 C1241 0.931 . S
C1264 Eu1265 2.835 . S
C1264 C1266 1.500 . S
C1264 O1284 1.257 . S
C1264 O1285 1.260 . S
Eu1265 C1264 2.835 . S
Eu1265 O1284 2.473 . S
Eu1265 O1285 2.480 . S
Eu1265 O1286 2.430 . S
Eu1265 O1287 2.670 . S
Eu1265 O1288 2.394 . S
Eu1265 O1293 2.355 . S
Eu1265 O1295 2.374 . S
C1266 C1264 1.500 . S
C1266 C1267 1.377 . S
C1266 C1271 1.377 . S
C1267 C1266 1.377 . S
C1267 C1268 1.395 . S
C1267 H1296 0.931 . S
C1268 C1267 1.395 . S
C1268 C1269 1.383 . S
C1268 H1297 0.931 . S
C1269 C1268 1.383 . S
C1269 C1270 1.394 . S
C1270 C1269 1.394 . S
C1270 C1271 1.378 . S
C1270 H1298 0.931 . S
C1271 C1266 1.377 . S
C1271 C1270 1.378 . S
C1271 H1299 0.931 . S
C1272 O1286 1.259 . S
C1272 O1287 1.270 . S
C1273 O1288 1.251 . S
C1273 O1289 1.251 . S
C1274 Eu1275 2.835 1_655 S
C1274 C1276 1.500 . S
C1274 O1290 1.257 . S
C1274 O1291 1.260 . S
Eu1275 C1274 2.835 1_455 S
Eu1275 O1287 2.355 . S
Eu1275 O1289 2.374 . S
Eu1275 O1290 2.473 1_455 S
Eu1275 O1291 2.480 1_455 S
Eu1275 O1292 2.430 . S
Eu1275 O1293 2.670 . S
Eu1275 O1294 2.390 1_455 S
C1276 C1274 1.500 . S
C1276 C1277 1.377 . S
C1276 C1281 1.377 . S
C1277 C1276 1.377 . S
C1277 C1278 1.395 . S
C1277 H1300 0.931 . S
C1278 C1277 1.395 . S
C1278 C1279 1.383 . S
C1278 H1301 0.931 . S
C1279 C1278 1.383 . S
C1279 C1280 1.394 . S
C1280 C1279 1.394 . S
C1280 C1281 1.378 . S
C1280 H1302 0.931 . S
C1281 C1276 1.377 . S
C1281 C1280 1.378 . S
C1281 H1303 0.931 . S
C1282 O1292 1.259 . S
C1282 O1293 1.270 . S
C1283 O1294 1.238 1_455 S
C1283 O1295 1.251 . S
O1284 C1264 1.257 . S
O1284 Eu1265 2.473 . S
O1285 C1264 1.260 . S
O1285 Eu1265 2.480 . S
O1286 Eu1265 2.430 . S
O1286 C1272 1.259 . S
O1287 Eu1265 2.670 . S
O1287 C1272 1.270 . S
O1287 Eu1275 2.355 . S
O1288 Eu1265 2.394 . S
O1288 C1273 1.251 . S
O1289 C1273 1.251 . S
O1289 Eu1275 2.374 . S
O1290 C1274 1.257 . S
O1290 Eu1275 2.473 1_655 S
O1291 C1274 1.260 . S
O1291 Eu1275 2.480 1_655 S
O1292 Eu1275 2.430 . S
O1292 C1282 1.259 . S
O1293 Eu1265 2.355 . S
O1293 Eu1275 2.670 . S
O1293 C1282 1.270 . S
O1294 Eu1275 2.390 1_655 S
O1294 C1283 1.238 1_655 S
O1295 Eu1265 2.374 . S
O1295 C1283 1.251 . S
H1296 C1267 0.931 . S
H1297 C1268 0.931 . S
H1298 C1270 0.931 . S
H1299 C1271 0.931 . S
H1300 C1277 0.931 . S
H1301 C1278 0.931 . S
H1302 C1280 0.931 . S
H1303 C1281 0.931 . S
C1304 Eu1305 2.835 . S
C1304 C1306 1.500 . S
C1304 O1324 1.257 . S
C1304 O1325 1.260 . S
Eu1305 C1304 2.835 . S
Eu1305 O1324 2.473 . S
Eu1305 O1325 2.480 . S
Eu1305 O1326 2.430 . S
Eu1305 O1327 2.670 . S
Eu1305 O1328 2.394 . S
Eu1305 O1333 2.355 . S
Eu1305 O1335 2.374 . S
C1306 C1304 1.500 . S
C1306 C1307 1.377 . S
C1306 C1311 1.377 . S
C1307 C1306 1.377 . S
C1307 C1308 1.395 . S
C1307 H1336 0.931 . S
C1308 C1307 1.395 . S
C1308 C1309 1.383 . S
C1308 H1337 0.931 . S
C1309 C1308 1.383 . S
C1309 C1310 1.394 . S
C1310 C1309 1.394 . S
C1310 C1311 1.378 . S
C1310 H1338 0.931 . S
C1311 C1306 1.377 . S
C1311 C1310 1.378 . S
C1311 H1339 0.931 . S
C1312 O1326 1.259 . S
C1312 O1327 1.270 . S
C1313 O1328 1.251 . S
C1313 O1329 1.251 . S
C1314 Eu1315 2.835 . S
C1314 C1316 1.500 . S
C1314 O1330 1.257 . S
C1314 O1331 1.260 . S
Eu1315 C1314 2.835 . S
Eu1315 O1327 2.355 . S
Eu1315 O1329 2.374 . S
Eu1315 O1330 2.473 . S
Eu1315 O1331 2.480 . S
Eu1315 O1332 2.430 . S
Eu1315 O1333 2.670 . S
Eu1315 O1334 2.394 . S
C1316 C1314 1.500 . S
C1316 C1317 1.377 . S
C1316 C1321 1.377 . S
C1317 C1316 1.377 . S
C1317 C1318 1.395 . S
C1317 H1340 0.931 . S
C1318 C1317 1.395 . S
C1318 C1319 1.383 . S
C1318 H1341 0.931 . S
C1319 C1318 1.383 . S
C1319 C1320 1.394 . S
C1320 C1319 1.394 . S
C1320 C1321 1.378 . S
C1320 H1342 0.931 . S
C1321 C1316 1.377 . S
C1321 C1320 1.378 . S
C1321 H1343 0.931 . S
C1322 O1332 1.259 . S
C1322 O1333 1.270 . S
C1323 O1334 1.251 . S
C1323 O1335 1.251 . S
O1324 C1304 1.257 . S
O1324 Eu1305 2.473 . S
O1325 C1304 1.260 . S
O1325 Eu1305 2.480 . S
O1326 Eu1305 2.430 . S
O1326 C1312 1.259 . S
O1327 Eu1305 2.670 . S
O1327 C1312 1.270 . S
O1327 Eu1315 2.355 . S
O1328 Eu1305 2.394 . S
O1328 C1313 1.251 . S
O1329 C1313 1.251 . S
O1329 Eu1315 2.374 . S
O1330 C1314 1.257 . S
O1330 Eu1315 2.473 . S
O1331 C1314 1.260 . S
O1331 Eu1315 2.480 . S
O1332 Eu1315 2.430 . S
O1332 C1322 1.259 . S
O1333 Eu1305 2.355 . S
O1333 Eu1315 2.670 . S
O1333 C1322 1.270 . S
O1334 Eu1315 2.394 . S
O1334 C1323 1.251 . S
O1335 Eu1305 2.374 . S
O1335 C1323 1.251 . S
H1336 C1307 0.931 . S
H1337 C1308 0.931 . S
H1338 C1310 0.931 . S
H1339 C1311 0.931 . S
H1340 C1317 0.931 . S
H1341 C1318 0.931 . S
H1342 C1320 0.931 . S
H1343 C1321 0.931 . S
C1344 Eu1345 2.835 . S
C1344 C1346 1.500 . S
C1344 O1364 1.257 . S
C1344 O1365 1.260 . S
Eu1345 C1344 2.835 . S
Eu1345 O1364 2.473 . S
Eu1345 O1365 2.480 . S
Eu1345 O1366 2.430 . S
Eu1345 O1367 2.670 . S
Eu1345 O1368 2.394 . S
Eu1345 O1373 2.355 . S
Eu1345 O1375 2.374 . S
C1346 C1344 1.500 . S
C1346 C1347 1.377 . S
C1346 C1351 1.377 . S
C1347 C1346 1.377 . S
C1347 C1348 1.395 . S
C1347 H1376 0.931 . S
C1348 C1347 1.395 . S
C1348 C1349 1.383 . S
C1348 H1377 0.931 . S
C1349 C1348 1.383 . S
C1349 C1350 1.394 . S
C1350 C1349 1.394 . S
C1350 C1351 1.378 . S
C1350 H1378 0.931 . S
C1351 C1346 1.377 . S
C1351 C1350 1.378 . S
C1351 H1379 0.931 . S
C1352 O1366 1.259 . S
C1352 O1367 1.270 . S
C1353 O1368 1.251 . S
C1353 O1369 1.251 . S
C1354 Eu1355 2.835 . S
C1354 C1356 1.500 . S
C1354 O1370 1.257 . S
C1354 O1371 1.260 . S
Eu1355 C1354 2.835 . S
Eu1355 O1367 2.355 . S
Eu1355 O1369 2.374 . S
Eu1355 O1370 2.473 . S
Eu1355 O1371 2.480 . S
Eu1355 O1372 2.430 . S
Eu1355 O1373 2.670 . S
Eu1355 O1374 2.394 . S
C1356 C1354 1.500 . S
C1356 C1357 1.377 . S
C1356 C1361 1.377 . S
C1357 C1356 1.377 . S
C1357 C1358 1.395 . S
C1357 H1380 0.931 . S
C1358 C1357 1.395 . S
C1358 C1359 1.383 . S
C1358 H1381 0.931 . S
C1359 C1358 1.383 . S
C1359 C1360 1.394 . S
C1360 C1359 1.394 . S
C1360 C1361 1.378 . S
C1360 H1382 0.931 . S
C1361 C1356 1.377 . S
C1361 C1360 1.378 . S
C1361 H1383 0.931 . S
C1362 O1372 1.259 . S
C1362 O1373 1.270 . S
C1363 O1374 1.251 . S
C1363 O1375 1.251 . S
O1364 C1344 1.257 . S
O1364 Eu1345 2.473 . S
O1365 C1344 1.260 . S
O1365 Eu1345 2.480 . S
O1366 Eu1345 2.430 . S
O1366 C1352 1.259 . S
O1367 Eu1345 2.670 . S
O1367 C1352 1.270 . S
O1367 Eu1355 2.355 . S
O1368 Eu1345 2.394 . S
O1368 C1353 1.251 . S
O1369 C1353 1.251 . S
O1369 Eu1355 2.374 . S
O1370 C1354 1.257 . S
O1370 Eu1355 2.473 . S
O1371 C1354 1.260 . S
O1371 Eu1355 2.480 . S
O1372 Eu1355 2.430 . S
O1372 C1362 1.259 . S
O1373 Eu1345 2.355 . S
O1373 Eu1355 2.670 . S
O1373 C1362 1.270 . S
O1374 Eu1355 2.394 . S
O1374 C1363 1.251 . S
O1375 Eu1345 2.374 . S
O1375 C1363 1.251 . S
H1376 C1347 0.931 . S
H1377 C1348 0.931 . S
H1378 C1350 0.931 . S
H1379 C1351 0.931 . S
H1380 C1357 0.931 . S
H1381 C1358 0.931 . S
H1382 C1360 0.931 . S
H1383 C1361 0.931 . S
C1384 Eu1385 2.835 . S
C1384 C1386 1.500 . S
C1384 O1404 1.257 . S
C1384 O1405 1.260 . S
Eu1385 C1384 2.835 . S
Eu1385 O1404 2.473 . S
Eu1385 O1405 2.480 . S
Eu1385 O1406 2.430 . S
Eu1385 O1407 2.670 . S
Eu1385 O1408 2.394 . S
Eu1385 O1413 2.355 . S
Eu1385 O1415 2.374 . S
C1386 C1384 1.500 . S
C1386 C1387 1.377 . S
C1386 C1391 1.377 . S
C1387 C1386 1.377 . S
C1387 C1388 1.395 . S
C1387 H1416 0.931 . S
C1388 C1387 1.395 . S
C1388 C1389 1.383 . S
C1388 H1417 0.931 . S
C1389 C1388 1.383 . S
C1389 C1390 1.394 . S
C1390 C1389 1.394 . S
C1390 C1391 1.378 . S
C1390 H1418 0.931 . S
C1391 C1386 1.377 . S
C1391 C1390 1.378 . S
C1391 H1419 0.931 . S
C1392 O1406 1.259 . S
C1392 O1407 1.270 . S
C1393 O1408 1.251 . S
C1393 O1409 1.251 . S
C1394 Eu1395 2.835 . S
C1394 C1396 1.500 . S
C1394 O1410 1.257 . S
C1394 O1411 1.260 . S
Eu1395 C1394 2.835 . S
Eu1395 O1407 2.355 . S
Eu1395 O1409 2.374 . S
Eu1395 O1410 2.473 . S
Eu1395 O1411 2.480 . S
Eu1395 O1412 2.430 . S
Eu1395 O1413 2.670 . S
Eu1395 O1414 2.394 . S
C1396 C1394 1.500 . S
C1396 C1397 1.377 . S
C1396 C1401 1.377 . S
C1397 C1396 1.377 . S
C1397 C1398 1.395 . S
C1397 H1420 0.931 . S
C1398 C1397 1.395 . S
C1398 C1399 1.383 . S
C1398 H1421 0.931 . S
C1399 C1398 1.383 . S
C1399 C1400 1.394 . S
C1400 C1399 1.394 . S
C1400 C1401 1.378 . S
C1400 H1422 0.931 . S
C1401 C1396 1.377 . S
C1401 C1400 1.378 . S
C1401 H1423 0.931 . S
C1402 O1412 1.259 . S
C1402 O1413 1.270 . S
C1403 O1414 1.251 . S
C1403 O1415 1.251 . S
O1404 C1384 1.257 . S
O1404 Eu1385 2.473 . S
O1405 C1384 1.260 . S
O1405 Eu1385 2.480 . S
O1406 Eu1385 2.430 . S
O1406 C1392 1.259 . S
O1407 Eu1385 2.670 . S
O1407 C1392 1.270 . S
O1407 Eu1395 2.355 . S
O1408 Eu1385 2.394 . S
O1408 C1393 1.251 . S
O1409 C1393 1.251 . S
O1409 Eu1395 2.374 . S
O1410 C1394 1.257 . S
O1410 Eu1395 2.473 . S
O1411 C1394 1.260 . S
O1411 Eu1395 2.480 . S
O1412 Eu1395 2.430 . S
O1412 C1402 1.259 . S
O1413 Eu1385 2.355 . S
O1413 Eu1395 2.670 . S
O1413 C1402 1.270 . S
O1414 Eu1395 2.394 . S
O1414 C1403 1.251 . S
O1415 Eu1385 2.374 . S
O1415 C1403 1.251 . S
H1416 C1387 0.931 . S
H1417 C1388 0.931 . S
H1418 C1390 0.931 . S
H1419 C1391 0.931 . S
H1420 C1397 0.931 . S
H1421 C1398 0.931 . S
H1422 C1400 0.931 . S
H1423 C1401 0.931 . S
C1424 Eu1425 2.835 . S
C1424 C1426 1.500 . S
C1424 O1444 1.257 . S
C1424 O1445 1.260 . S
Eu1425 C1424 2.835 . S
Eu1425 O1444 2.473 . S
Eu1425 O1445 2.480 . S
Eu1425 O1446 2.430 . S
Eu1425 O1447 2.670 . S
Eu1425 O1448 2.394 . S
Eu1425 O1453 2.355 . S
Eu1425 O1455 2.374 . S
C1426 C1424 1.500 . S
C1426 C1427 1.377 . S
C1426 C1431 1.377 . S
C1427 C1426 1.377 . S
C1427 C1428 1.395 . S
C1427 H1456 0.931 . S
C1428 C1427 1.395 . S
C1428 C1429 1.383 . S
C1428 H1457 0.931 . S
C1429 C1428 1.383 . S
C1429 C1430 1.394 . S
C1430 C1429 1.394 . S
C1430 C1431 1.378 . S
C1430 H1458 0.931 . S
C1431 C1426 1.377 . S
C1431 C1430 1.378 . S
C1431 H1459 0.931 . S
C1432 O1446 1.259 . S
C1432 O1447 1.270 . S
C1433 O1448 1.251 . S
C1433 O1449 1.251 . S
C1434 Eu1435 2.835 . S
C1434 C1436 1.500 . S
C1434 O1450 1.257 . S
C1434 O1451 1.260 . S
Eu1435 C1434 2.835 . S
Eu1435 O1447 2.355 . S
Eu1435 O1449 2.374 . S
Eu1435 O1450 2.473 . S
Eu1435 O1451 2.480 . S
Eu1435 O1452 2.430 . S
Eu1435 O1453 2.670 . S
Eu1435 O1454 2.394 . S
C1436 C1434 1.500 . S
C1436 C1437 1.377 . S
C1436 C1441 1.377 . S
C1437 C1436 1.377 . S
C1437 C1438 1.395 . S
C1437 H1460 0.931 . S
C1438 C1437 1.395 . S
C1438 C1439 1.383 . S
C1438 H1461 0.931 . S
C1439 C1438 1.383 . S
C1439 C1440 1.394 . S
C1440 C1439 1.394 . S
C1440 C1441 1.378 . S
C1440 H1462 0.931 . S
C1441 C1436 1.377 . S
C1441 C1440 1.378 . S
C1441 H1463 0.931 . S
C1442 O1452 1.259 . S
C1442 O1453 1.270 . S
C1443 O1454 1.251 . S
C1443 O1455 1.251 . S
O1444 C1424 1.257 . S
O1444 Eu1425 2.473 . S
O1445 C1424 1.260 . S
O1445 Eu1425 2.480 . S
O1446 Eu1425 2.430 . S
O1446 C1432 1.259 . S
O1447 Eu1425 2.670 . S
O1447 C1432 1.270 . S
O1447 Eu1435 2.355 . S
O1448 Eu1425 2.394 . S
O1448 C1433 1.251 . S
O1449 C1433 1.251 . S
O1449 Eu1435 2.374 . S
O1450 C1434 1.257 . S
O1450 Eu1435 2.473 . S
O1451 C1434 1.260 . S
O1451 Eu1435 2.480 . S
O1452 Eu1435 2.430 . S
O1452 C1442 1.259 . S
O1453 Eu1425 2.355 . S
O1453 Eu1435 2.670 . S
O1453 C1442 1.270 . S
O1454 Eu1435 2.394 . S
O1454 C1443 1.251 . S
O1455 Eu1425 2.374 . S
O1455 C1443 1.251 . S
H1456 C1427 0.931 . S
H1457 C1428 0.931 . S
H1458 C1430 0.931 . S
H1459 C1431 0.931 . S
H1460 C1437 0.931 . S
H1461 C1438 0.931 . S
H1462 C1440 0.931 . S
H1463 C1441 0.931 . S
C1464 Eu1465 2.853 . S
C1464 C1466 1.500 . S
C1464 O1484 1.257 . S
C1464 O1485 1.260 . S
Eu1465 C1464 2.853 . S
Eu1465 O1484 2.488 . S
Eu1465 O1485 2.496 . S
Eu1465 O1486 2.422 1_655 S
Eu1465 O1487 2.649 1_655 S
Eu1465 O1488 2.387 1_655 S
Eu1465 O1493 2.344 1_655 S
Eu1465 O1495 2.364 1_655 S
C1466 C1464 1.500 . S
C1466 C1467 1.377 . S
C1466 C1471 1.377 . S
C1467 C1466 1.377 . S
C1467 C1468 1.395 . S
C1467 H1496 0.931 . S
C1468 C1467 1.395 . S
C1468 C1469 1.383 . S
C1468 H1497 0.931 . S
C1469 C1468 1.383 . S
C1469 C1470 1.394 . S
C1470 C1469 1.394 . S
C1470 C1471 1.378 . S
C1470 H1498 0.931 . S
C1471 C1466 1.377 . S
C1471 C1470 1.378 . S
C1471 H1499 0.931 . S
C1472 O1486 1.259 . S
C1472 O1487 1.270 . S
C1473 O1488 1.251 . S
C1473 O1489 1.251 . S
C1474 Eu1475 2.835 . S
C1474 C1476 1.500 . S
C1474 O1490 1.257 . S
C1474 O1491 1.260 . S
Eu1475 C1474 2.835 . S
Eu1475 O1487 2.355 . S
Eu1475 O1489 2.374 . S
Eu1475 O1490 2.473 . S
Eu1475 O1491 2.480 . S
Eu1475 O1492 2.430 1_554 S
Eu1475 O1493 2.670 . S
Eu1475 O1494 2.394 . S
C1476 C1474 1.500 . S
C1476 C1477 1.377 1_554 S
C1476 C1481 1.377 . S
C1477 C1476 1.377 1_556 S
C1477 C1478 1.395 . S
C1477 H1500 0.931 . S
C1478 C1477 1.395 . S
C1478 C1479 1.383 1_556 S
C1478 H1501 0.931 . S
C1479 C1478 1.383 1_554 S
C1479 C1480 1.394 . S
C1480 C1479 1.394 . S
C1480 C1481 1.378 . S
C1480 H1502 0.931 . S
C1481 C1476 1.377 . S
C1481 C1480 1.378 . S
C1481 H1503 0.931 . S
C1482 O1492 1.259 . S
C1482 O1493 1.270 1_556 S
C1483 O1494 1.251 . S
C1483 O1495 1.251 . S
O1484 C1464 1.257 . S
O1484 Eu1465 2.488 . S
O1485 C1464 1.260 . S
O1485 Eu1465 2.496 . S
O1486 Eu1465 2.422 1_455 S
O1486 C1472 1.259 . S
O1487 Eu1465 2.649 1_455 S
O1487 C1472 1.270 . S
O1487 Eu1475 2.355 . S
O1488 Eu1465 2.387 1_455 S
O1488 C1473 1.251 . S
O1489 C1473 1.251 . S
O1489 Eu1475 2.374 . S
O1490 C1474 1.257 . S
O1490 Eu1475 2.473 . S
O1491 C1474 1.260 . S
O1491 Eu1475 2.480 . S
O1492 Eu1475 2.430 1_556 S
O1492 C1482 1.259 . S
O1493 Eu1465 2.344 1_455 S
O1493 Eu1475 2.670 . S
O1493 C1482 1.270 1_554 S
O1494 Eu1475 2.394 . S
O1494 C1483 1.251 . S
O1495 Eu1465 2.364 1_455 S
O1495 C1483 1.251 . S
H1496 C1467 0.931 . S
H1497 C1468 0.931 . S
H1498 C1470 0.931 . S
H1499 C1471 0.931 . S
H1500 C1477 0.931 . S
H1501 C1478 0.931 . S
H1502 C1480 0.931 . S
H1503 C1481 0.931 . S
C1504 C1505 1.391 . S
C1504 C1506 1.394 . S
C1504 H1520 0.931 . S
C1505 C1504 1.391 . S
C1505 C1509 1.376 1_455 S
C1506 C1504 1.394 . S
C1506 C1507 1.369 . S
C1506 C1510 1.531 . S
C1507 C1506 1.369 . S
C1507 C1508 1.417 1_455 S
C1507 C1515 1.506 1_556 S
C1508 C1507 1.417 1_655 S
C1508 C1509 1.405 . S
C1508 C1511 1.492 1_556 S
C1509 C1505 1.376 1_655 S
C1509 C1508 1.405 . S
C1509 H1521 0.929 . S
C1510 C1506 1.531 . S
C1510 H1522 0.960 . S
C1510 H1523 0.962 . S
C1510 H1524 0.960 . S
C1511 C1508 1.492 1_554 S
C1511 H1525 0.961 . S
C1511 H1526 0.961 . S
C1511 H1527 0.961 1_655 S
C1512 C1513 1.370 . S
C1512 C1514 1.372 1_554 S
C1512 H1528 0.931 1_454 S
C1513 C1512 1.370 . S
C1513 C1517 1.408 . S
C1514 C1512 1.372 1_556 S
C1514 C1515 1.390 1_556 S
C1514 C1518 1.497 1_455 S
C1515 C1507 1.506 1_554 S
C1515 C1514 1.390 1_554 S
C1515 C1516 1.399 . S
C1516 C1515 1.399 . S
C1516 C1517 1.404 . S
C1516 C1519 1.539 . S
C1517 C1513 1.408 . S
C1517 C1516 1.404 . S
C1517 H1529 0.930 . S
C1518 C1514 1.497 1_655 S
C1518 H1530 0.956 . S
C1518 H1531 0.961 . S
C1518 H1532 0.961 . S
C1519 C1516 1.539 . S
C1519 H1533 0.958 . S
C1519 H1534 0.961 . S
C1519 H1535 0.960 . S
H1520 C1504 0.931 . S
H1521 C1509 0.929 . S
H1522 C1510 0.960 . S
H1523 C1510 0.962 . S
H1524 C1510 0.960 . S
H1525 C1511 0.961 . S
H1526 C1511 0.961 . S
H1527 C1511 0.961 1_455 S
H1528 C1512 0.931 1_656 S
H1529 C1517 0.930 . S
H1530 C1518 0.956 . S
H1531 C1518 0.961 . S
H1532 C1518 0.961 . S
H1533 C1519 0.958 . S
H1534 C1519 0.961 . S
H1535 C1519 0.960 . S
C1536 C1537 1.391 . S
C1536 C1538 1.394 . S
C1536 H1552 0.931 . S
C1537 C1536 1.391 . S
C1537 C1541 1.376 . S
C1538 C1536 1.394 . S
C1538 C1539 1.369 . S
C1538 C1542 1.531 . S
C1539 C1538 1.369 . S
C1539 C1540 1.410 . S
C1539 C1547 1.503 . S
C1540 C1539 1.410 . S
C1540 C1541 1.392 . S
C1540 C1543 1.511 . S
C1541 C1537 1.376 . S
C1541 C1540 1.392 . S
C1541 H1553 0.929 . S
C1542 C1538 1.531 . S
C1542 H1554 0.960 . S
C1542 H1555 0.962 . S
C1542 H1556 0.960 . S
C1543 C1540 1.511 . S
C1543 H1557 0.961 . S
C1543 H1558 0.961 . S
C1543 H1559 0.961 . S
C1544 C1545 1.370 . S
C1544 C1546 1.363 . S
C1544 H1560 0.931 . S
C1545 C1544 1.370 . S
C1545 C1549 1.408 . S
C1546 C1544 1.363 . S
C1546 C1547 1.370 . S
C1546 C1550 1.524 . S
C1547 C1539 1.503 . S
C1547 C1546 1.370 . S
C1547 C1548 1.403 . S
C1548 C1547 1.403 . S
C1548 C1549 1.404 . S
C1548 C1551 1.539 . S
C1549 C1545 1.408 . S
C1549 C1548 1.404 . S
C1549 H1561 0.930 . S
C1550 C1546 1.524 . S
C1550 H1562 0.956 . S
C1550 H1563 0.961 . S
C1550 H1564 0.961 . S
C1551 C1548 1.539 . S
C1551 H1565 0.958 . S
C1551 H1566 0.961 . S
C1551 H1567 0.960 . S
H1552 C1536 0.931 . S
H1553 C1541 0.929 . S
H1554 C1542 0.960 . S
H1555 C1542 0.962 . S
H1556 C1542 0.960 . S
H1557 C1543 0.961 . S
H1558 C1543 0.961 . S
H1559 C1543 0.961 . S
H1560 C1544 0.931 . S
H1561 C1549 0.930 . S
H1562 C1550 0.956 . S
H1563 C1550 0.961 . S
H1564 C1550 0.961 . S
H1565 C1551 0.958 . S
H1566 C1551 0.961 . S
H1567 C1551 0.960 . S
C1568 C1569 1.391 . S
C1568 C1570 1.394 . S
C1568 H1584 0.931 . S
C1569 C1568 1.391 . S
C1569 C1573 1.376 . S
C1570 C1568 1.394 . S
C1570 C1571 1.369 . S
C1570 C1574 1.531 . S
C1571 C1570 1.369 . S
C1571 C1572 1.410 . S
C1571 C1579 1.503 . S
C1572 C1571 1.410 . S
C1572 C1573 1.392 . S
C1572 C1575 1.511 . S
C1573 C1569 1.376 . S
C1573 C1572 1.392 . S
C1573 H1585 0.929 . S
C1574 C1570 1.531 . S
C1574 H1586 0.960 . S
C1574 H1587 0.962 . S
C1574 H1588 0.960 . S
C1575 C1572 1.511 . S
C1575 H1589 0.961 . S
C1575 H1590 0.961 . S
C1575 H1591 0.961 . S
C1576 C1577 1.370 . S
C1576 C1578 1.363 . S
C1576 H1592 0.931 . S
C1577 C1576 1.370 . S
C1577 C1581 1.408 . S
C1578 C1576 1.363 . S
C1578 C1579 1.370 . S
C1578 C1582 1.524 . S
C1579 C1571 1.503 . S
C1579 C1578 1.370 . S
C1579 C1580 1.403 . S
C1580 C1579 1.403 . S
C1580 C1581 1.404 . S
C1580 C1583 1.539 . S
C1581 C1577 1.408 . S
C1581 C1580 1.404 . S
C1581 H1593 0.930 . S
C1582 C1578 1.524 . S
C1582 H1594 0.956 . S
C1582 H1595 0.961 . S
C1582 H1596 0.961 . S
C1583 C1580 1.539 . S
C1583 H1597 0.958 . S
C1583 H1598 0.961 . S
C1583 H1599 0.960 . S
H1584 C1568 0.931 . S
H1585 C1573 0.929 . S
H1586 C1574 0.960 . S
H1587 C1574 0.962 . S
H1588 C1574 0.960 . S
H1589 C1575 0.961 . S
H1590 C1575 0.961 . S
H1591 C1575 0.961 . S
H1592 C1576 0.931 . S
H1593 C1581 0.930 . S
H1594 C1582 0.956 . S
H1595 C1582 0.961 . S
H1596 C1582 0.961 . S
H1597 C1583 0.958 . S
H1598 C1583 0.961 . S
H1599 C1583 0.960 . S
C1600 C1601 1.391 . S
C1600 C1602 1.394 . S
C1600 H1616 0.931 . S
C1601 C1600 1.391 . S
C1601 C1605 1.376 . S
C1602 C1600 1.394 . S
C1602 C1603 1.369 . S
C1602 C1606 1.531 . S
C1603 C1602 1.369 . S
C1603 C1604 1.410 . S
C1603 C1611 1.503 . S
C1604 C1603 1.410 . S
C1604 C1605 1.392 . S
C1604 C1607 1.511 . S
C1605 C1601 1.376 . S
C1605 C1604 1.392 . S
C1605 H1617 0.929 . S
C1606 C1602 1.531 . S
C1606 H1618 0.960 . S
C1606 H1619 0.962 . S
C1606 H1620 0.960 . S
C1607 C1604 1.511 . S
C1607 H1621 0.961 . S
C1607 H1622 0.961 . S
C1607 H1623 0.961 . S
C1608 C1609 1.370 . S
C1608 C1610 1.363 . S
C1608 H1624 0.931 . S
C1609 C1608 1.370 . S
C1609 C1613 1.408 . S
C1610 C1608 1.363 . S
C1610 C1611 1.370 . S
C1610 C1614 1.524 . S
C1611 C1603 1.503 . S
C1611 C1610 1.370 . S
C1611 C1612 1.403 . S
C1612 C1611 1.403 . S
C1612 C1613 1.404 . S
C1612 C1615 1.539 . S
C1613 C1609 1.408 . S
C1613 C1612 1.404 . S
C1613 H1625 0.930 . S
C1614 C1610 1.524 . S
C1614 H1626 0.956 . S
C1614 H1627 0.961 . S
C1614 H1628 0.961 . S
C1615 C1612 1.539 . S
C1615 H1629 0.958 . S
C1615 H1630 0.961 . S
C1615 H1631 0.960 . S
H1616 C1600 0.931 . S
H1617 C1605 0.929 . S
H1618 C1606 0.960 . S
H1619 C1606 0.962 . S
H1620 C1606 0.960 . S
H1621 C1607 0.961 . S
H1622 C1607 0.961 . S
H1623 C1607 0.961 . S
H1624 C1608 0.931 . S
H1625 C1613 0.930 . S
H1626 C1614 0.956 . S
H1627 C1614 0.961 . S
H1628 C1614 0.961 . S
H1629 C1615 0.958 . S
H1630 C1615 0.961 . S
H1631 C1615 0.960 . S
C1632 C1633 1.391 . S
C1632 C1634 1.394 . S
C1632 H1648 0.931 . S
C1633 C1632 1.391 . S
C1633 C1637 1.376 . S
C1634 C1632 1.394 . S
C1634 C1635 1.369 . S
C1634 C1638 1.531 . S
C1635 C1634 1.369 . S
C1635 C1636 1.410 . S
C1635 C1643 1.503 . S
C1636 C1635 1.410 . S
C1636 C1637 1.392 . S
C1636 C1639 1.511 . S
C1637 C1633 1.376 . S
C1637 C1636 1.392 . S
C1637 H1649 0.929 . S
C1638 C1634 1.531 . S
C1638 H1650 0.960 . S
C1638 H1651 0.962 . S
C1638 H1652 0.960 . S
C1639 C1636 1.511 . S
C1639 H1653 0.961 . S
C1639 H1654 0.961 . S
C1639 H1655 0.961 . S
C1640 C1641 1.370 . S
C1640 C1642 1.363 . S
C1640 H1656 0.931 . S
C1641 C1640 1.370 . S
C1641 C1645 1.408 . S
C1642 C1640 1.363 . S
C1642 C1643 1.370 . S
C1642 C1646 1.524 . S
C1643 C1635 1.503 . S
C1643 C1642 1.370 . S
C1643 C1644 1.403 . S
C1644 C1643 1.403 . S
C1644 C1645 1.404 . S
C1644 C1647 1.539 1_455 S
C1645 C1641 1.408 . S
C1645 C1644 1.404 . S
C1645 H1657 0.930 . S
C1646 C1642 1.524 . S
C1646 H1658 0.956 . S
C1646 H1659 0.961 . S
C1646 H1660 0.961 . S
C1647 C1644 1.539 1_655 S
C1647 H1661 0.958 . S
C1647 H1662 0.961 . S
C1647 H1663 0.960 . S
H1648 C1632 0.931 . S
H1649 C1637 0.929 . S
H1650 C1638 0.960 . S
H1651 C1638 0.962 . S
H1652 C1638 0.960 . S
H1653 C1639 0.961 . S
H1654 C1639 0.961 . S
H1655 C1639 0.961 . S
H1656 C1640 0.931 . S
H1657 C1645 0.930 . S
H1658 C1646 0.956 . S
H1659 C1646 0.961 . S
H1660 C1646 0.961 . S
H1661 C1647 0.958 . S
H1662 C1647 0.961 . S
H1663 C1647 0.960 . S
C1664 C1665 1.391 . S
C1664 C1666 1.394 . S
C1664 H1680 0.931 . S
C1665 C1664 1.391 . S
C1665 C1669 1.376 . S
C1666 C1664 1.394 . S
C1666 C1667 1.369 . S
C1666 C1670 1.531 . S
C1667 C1666 1.369 . S
C1667 C1668 1.410 . S
C1667 C1675 1.503 . S
C1668 C1667 1.410 . S
C1668 C1669 1.392 . S
C1668 C1671 1.511 . S
C1669 C1665 1.376 . S
C1669 C1668 1.392 . S
C1669 H1681 0.929 . S
C1670 C1666 1.531 . S
C1670 H1682 0.960 . S
C1670 H1683 0.962 . S
C1670 H1684 0.960 . S
C1671 C1668 1.511 . S
C1671 H1685 0.961 . S
C1671 H1686 0.961 . S
C1671 H1687 0.961 . S
C1672 C1673 1.370 . S
C1672 C1674 1.363 . S
C1672 H1688 0.931 . S
C1673 C1672 1.370 . S
C1673 C1677 1.408 . S
C1674 C1672 1.363 . S
C1674 C1675 1.370 . S
C1674 C1678 1.524 . S
C1675 C1667 1.503 . S
C1675 C1674 1.370 . S
C1675 C1676 1.403 . S
C1676 C1675 1.403 . S
C1676 C1677 1.404 . S
C1676 C1679 1.539 . S
C1677 C1673 1.408 . S
C1677 C1676 1.404 . S
C1677 H1689 0.930 . S
C1678 C1674 1.524 . S
C1678 H1690 0.956 . S
C1678 H1691 0.961 . S
C1678 H1692 0.961 . S
C1679 C1676 1.539 . S
C1679 H1693 0.958 . S
C1679 H1694 0.961 . S
C1679 H1695 0.960 . S
H1680 C1664 0.931 . S
H1681 C1669 0.929 . S
H1682 C1670 0.960 . S
H1683 C1670 0.962 . S
H1684 C1670 0.960 . S
H1685 C1671 0.961 . S
H1686 C1671 0.961 . S
H1687 C1671 0.961 . S
H1688 C1672 0.931 . S
H1689 C1677 0.930 . S
H1690 C1678 0.956 . S
H1691 C1678 0.961 . S
H1692 C1678 0.961 . S
H1693 C1679 0.958 . S
H1694 C1679 0.961 . S
H1695 C1679 0.960 . S
C1696 C1697 1.391 . S
C1696 C1698 1.394 . S
C1696 H1712 0.931 . S
C1697 C1696 1.391 . S
C1697 C1701 1.376 . S
C1698 C1696 1.394 . S
C1698 C1699 1.369 . S
C1698 C1702 1.531 . S
C1699 C1698 1.369 . S
C1699 C1700 1.410 . S
C1699 C1707 1.503 . S
C1700 C1699 1.410 . S
C1700 C1701 1.392 . S
C1700 C1703 1.511 . S
C1701 C1697 1.376 . S
C1701 C1700 1.392 . S
C1701 H1713 0.929 . S
C1702 C1698 1.531 . S
C1702 H1714 0.960 . S
C1702 H1715 0.962 . S
C1702 H1716 0.960 . S
C1703 C1700 1.511 . S
C1703 H1717 0.961 . S
C1703 H1718 0.961 . S
C1703 H1719 0.961 . S
C1704 C1705 1.370 . S
C1704 C1706 1.363 . S
C1704 H1720 0.931 . S
C1705 C1704 1.370 . S
C1705 C1709 1.408 . S
C1706 C1704 1.363 . S
C1706 C1707 1.370 . S
C1706 C1710 1.524 . S
C1707 C1699 1.503 . S
C1707 C1706 1.370 . S
C1707 C1708 1.403 . S
C1708 C1707 1.403 . S
C1708 C1709 1.404 . S
C1708 C1711 1.539 . S
C1709 C1705 1.408 . S
C1709 C1708 1.404 . S
C1709 H1721 0.930 . S
C1710 C1706 1.524 . S
C1710 H1722 0.956 . S
C1710 H1723 0.961 . S
C1710 H1724 0.961 . S
C1711 C1708 1.539 . S
C1711 H1725 0.958 . S
C1711 H1726 0.961 . S
C1711 H1727 0.960 . S
H1712 C1696 0.931 . S
H1713 C1701 0.929 . S
H1714 C1702 0.960 . S
H1715 C1702 0.962 . S
H1716 C1702 0.960 . S
H1717 C1703 0.961 . S
H1718 C1703 0.961 . S
H1719 C1703 0.961 . S
H1720 C1704 0.931 . S
H1721 C1709 0.930 . S
H1722 C1710 0.956 . S
H1723 C1710 0.961 . S
H1724 C1710 0.961 . S
H1725 C1711 0.958 . S
H1726 C1711 0.961 . S
H1727 C1711 0.960 . S
C1728 C1729 1.391 . S
C1728 C1730 1.394 . S
C1728 H1744 0.931 . S
C1729 C1728 1.391 . S
C1729 C1733 1.376 . S
C1730 C1728 1.394 . S
C1730 C1731 1.369 . S
C1730 C1734 1.531 . S
C1731 C1730 1.369 . S
C1731 C1732 1.410 . S
C1731 C1739 1.503 . S
C1732 C1731 1.410 . S
C1732 C1733 1.392 . S
C1732 C1735 1.511 . S
C1733 C1729 1.376 . S
C1733 C1732 1.392 . S
C1733 H1745 0.929 . S
C1734 C1730 1.531 . S
C1734 H1746 0.960 . S
C1734 H1747 0.962 . S
C1734 H1748 0.960 . S
C1735 C1732 1.511 . S
C1735 H1749 0.961 . S
C1735 H1750 0.961 . S
C1735 H1751 0.961 . S
C1736 C1737 1.370 . S
C1736 C1738 1.363 . S
C1736 H1752 0.931 . S
C1737 C1736 1.370 . S
C1737 C1741 1.408 . S
C1738 C1736 1.363 . S
C1738 C1739 1.370 . S
C1738 C1742 1.524 . S
C1739 C1731 1.503 . S
C1739 C1738 1.370 . S
C1739 C1740 1.403 . S
C1740 C1739 1.403 . S
C1740 C1741 1.404 . S
C1740 C1743 1.539 . S
C1741 C1737 1.408 . S
C1741 C1740 1.404 . S
C1741 H1753 0.930 . S
C1742 C1738 1.524 . S
C1742 H1754 0.956 . S
C1742 H1755 0.961 . S
C1742 H1756 0.961 . S
C1743 C1740 1.539 . S
C1743 H1757 0.958 . S
C1743 H1758 0.961 . S
C1743 H1759 0.960 . S
H1744 C1728 0.931 . S
H1745 C1733 0.929 . S
H1746 C1734 0.960 . S
H1747 C1734 0.962 . S
H1748 C1734 0.960 . S
H1749 C1735 0.961 . S
H1750 C1735 0.961 . S
H1751 C1735 0.961 . S
H1752 C1736 0.931 . S
H1753 C1741 0.930 . S
H1754 C1742 0.956 . S
H1755 C1742 0.961 . S
H1756 C1742 0.961 . S
H1757 C1743 0.958 . S
H1758 C1743 0.961 . S
H1759 C1743 0.960 . S
C1760 C1761 1.391 . S
C1760 C1762 1.394 . S
C1760 H1776 0.931 . S
C1761 C1760 1.391 . S
C1761 C1765 1.376 . S
C1762 C1760 1.394 . S
C1762 C1763 1.369 . S
C1762 C1766 1.531 . S
C1763 C1762 1.369 . S
C1763 C1764 1.410 . S
C1763 C1771 1.503 . S
C1764 C1763 1.410 . S
C1764 C1765 1.392 . S
C1764 C1767 1.511 1_545 S
C1765 C1761 1.376 . S
C1765 C1764 1.392 . S
C1765 H1777 0.929 1_545 S
C1766 C1762 1.531 . S
C1766 H1778 0.960 . S
C1766 H1779 0.962 . S
C1766 H1780 0.960 . S
C1767 C1764 1.511 1_565 S
C1767 H1781 0.961 . S
C1767 H1782 0.961 . S
C1767 H1783 0.961 . S
C1768 C1769 1.370 1_655 S
C1768 C1770 1.363 . S
C1768 H1784 0.931 . S
C1769 C1768 1.370 1_455 S
C1769 C1773 1.408 . S
C1770 C1768 1.363 . S
C1770 C1771 1.370 . S
C1770 C1774 1.524 . S
C1771 C1763 1.503 . S
C1771 C1770 1.370 . S
C1771 C1772 1.403 1_655 S
C1772 C1771 1.403 1_455 S
C1772 C1773 1.404 . S
C1772 C1775 1.539 . S
C1773 C1769 1.408 . S
C1773 C1772 1.404 . S
C1773 H1785 0.930 . S
C1774 C1770 1.524 . S
C1774 H1786 0.956 . S
C1774 H1787 0.959 1_545 S
C1774 H1788 0.961 . S
C1775 C1772 1.539 . S
C1775 H1789 0.958 . S
C1775 H1790 0.961 . S
C1775 H1791 0.960 . S
H1776 C1760 0.931 . S
H1777 C1765 0.929 1_565 S
H1778 C1766 0.960 . S
H1779 C1766 0.962 . S
H1780 C1766 0.960 . S
H1781 C1767 0.961 . S
H1782 C1767 0.961 . S
H1783 C1767 0.961 . S
H1784 C1768 0.931 . S
H1785 C1773 0.930 . S
H1786 C1774 0.956 . S
H1787 C1774 0.959 1_565 S
H1788 C1774 0.961 . S
H1789 C1775 0.958 . S
H1790 C1775 0.961 . S
H1791 C1775 0.960 . S
C1792 C1793 1.391 . S
C1792 C1794 1.394 . S
C1792 H1808 0.931 . S
C1793 C1792 1.391 . S
C1793 C1797 1.376 . S
C1794 C1792 1.394 . S
C1794 C1795 1.369 . S
C1794 C1798 1.531 . S
C1795 C1794 1.369 . S
C1795 C1796 1.410 . S
C1795 C1803 1.503 . S
C1796 C1795 1.410 . S
C1796 C1797 1.392 . S
C1796 C1799 1.511 . S
C1797 C1793 1.376 . S
C1797 C1796 1.392 . S
C1797 H1809 0.929 . S
C1798 C1794 1.531 . S
C1798 H1810 0.960 . S
C1798 H1811 0.962 . S
C1798 H1812 0.960 . S
C1799 C1796 1.511 . S
C1799 H1813 0.961 . S
C1799 H1814 0.961 . S
C1799 H1815 0.961 . S
C1800 C1801 1.370 . S
C1800 C1802 1.363 . S
C1800 H1816 0.931 . S
C1801 C1800 1.370 . S
C1801 C1805 1.408 . S
C1802 C1800 1.363 . S
C1802 C1803 1.370 . S
C1802 C1806 1.524 . S
C1803 C1795 1.503 . S
C1803 C1802 1.370 . S
C1803 C1804 1.403 . S
C1804 C1803 1.403 . S
C1804 C1805 1.404 . S
C1804 C1807 1.539 . S
C1805 C1801 1.408 . S
C1805 C1804 1.404 . S
C1805 H1817 0.930 . S
C1806 C1802 1.524 . S
C1806 H1818 0.956 . S
C1806 H1819 0.961 . S
C1806 H1820 0.961 . S
C1807 C1804 1.539 . S
C1807 H1821 0.958 . S
C1807 H1822 0.961 . S
C1807 H1823 0.960 . S
H1808 C1792 0.931 . S
H1809 C1797 0.929 . S
H1810 C1798 0.960 . S
H1811 C1798 0.962 . S
H1812 C1798 0.960 . S
H1813 C1799 0.961 . S
H1814 C1799 0.961 . S
H1815 C1799 0.961 . S
H1816 C1800 0.931 . S
H1817 C1805 0.930 . S
H1818 C1806 0.956 . S
H1819 C1806 0.961 . S
H1820 C1806 0.961 . S
H1821 C1807 0.958 . S
H1822 C1807 0.961 . S
H1823 C1807 0.960 . S
C1824 C1825 1.391 . S
C1824 C1826 1.394 . S
C1824 H1840 0.931 1_545 S
C1825 C1824 1.391 . S
C1825 C1829 1.376 . S
C1826 C1824 1.394 . S
C1826 C1827 1.369 . S
C1826 C1830 1.531 1_545 S
C1827 C1826 1.369 . S
C1827 C1828 1.410 . S
C1827 C1835 1.503 . S
C1828 C1827 1.410 . S
C1828 C1829 1.392 . S
C1828 C1831 1.511 . S
C1829 C1825 1.376 . S
C1829 C1828 1.392 . S
C1829 H1841 0.929 . S
C1830 C1826 1.531 1_565 S
C1830 H1842 0.960 . S
C1830 H1843 0.962 1_565 S
C1830 H1844 0.960 . S
C1831 C1828 1.511 . S
C1831 H1845 0.961 . S
C1831 H1846 0.961 . S
C1831 H1847 0.961 . S
C1832 C1833 1.370 . S
C1832 C1834 1.363 . S
C1832 H1848 0.931 . S
C1833 C1832 1.370 . S
C1833 C1837 1.408 1_545 S
C1834 C1832 1.363 . S
C1834 C1835 1.370 . S
C1834 C1838 1.524 . S
C1835 C1827 1.503 . S
C1835 C1834 1.370 . S
C1835 C1836 1.403 1_545 S
C1836 C1835 1.403 1_565 S
C1836 C1837 1.404 . S
C1836 C1839 1.539 . S
C1837 C1833 1.408 1_565 S
C1837 C1836 1.404 . S
C1837 H1849 0.930 . S
C1838 C1834 1.524 . S
C1838 H1850 0.956 . S
C1838 H1851 0.961 . S
C1838 H1852 0.961 . S
C1839 C1836 1.539 . S
C1839 H1853 0.958 . S
C1839 H1854 0.961 . S
C1839 H1855 0.960 . S
H1840 C1824 0.931 1_565 S
H1841 C1829 0.929 . S
H1842 C1830 0.960 . S
H1843 C1830 0.962 1_545 S
H1844 C1830 0.960 . S
H1845 C1831 0.961 . S
H1846 C1831 0.961 . S
H1847 C1831 0.961 . S
H1848 C1832 0.931 . S
H1849 C1837 0.930 . S
H1850 C1838 0.956 . S
H1851 C1838 0.961 . S
H1852 C1838 0.961 . S
H1853 C1839 0.958 . S
H1854 C1839 0.961 . S
H1855 C1839 0.960 . S
C1856 C1857 1.391 . S
C1856 C1858 1.394 . S
C1856 H1872 0.931 . S
C1857 C1856 1.391 . S
C1857 C1861 1.376 . S
C1858 C1856 1.394 . S
C1858 C1859 1.369 . S
C1858 C1862 1.531 . S
C1859 C1858 1.369 . S
C1859 C1860 1.410 . S
C1859 C1867 1.503 . S
C1860 C1859 1.410 . S
C1860 C1861 1.392 . S
C1860 C1863 1.511 . S
C1861 C1857 1.376 . S
C1861 C1860 1.392 . S
C1861 H1873 0.929 . S
C1862 C1858 1.531 . S
C1862 H1874 0.960 . S
C1862 H1875 0.962 . S
C1862 H1876 0.960 . S
C1863 C1860 1.511 . S
C1863 H1877 0.961 . S
C1863 H1878 0.961 . S
C1863 H1879 0.961 . S
C1864 C1865 1.370 . S
C1864 C1866 1.363 . S
C1864 H1880 0.931 . S
C1865 C1864 1.370 . S
C1865 C1869 1.408 . S
C1866 C1864 1.363 . S
C1866 C1867 1.370 . S
C1866 C1870 1.524 . S
C1867 C1859 1.503 . S
C1867 C1866 1.370 . S
C1867 C1868 1.403 . S
C1868 C1867 1.403 . S
C1868 C1869 1.404 . S
C1868 C1871 1.539 . S
C1869 C1865 1.408 . S
C1869 C1868 1.404 . S
C1869 H1881 0.930 . S
C1870 C1866 1.524 . S
C1870 H1882 0.956 . S
C1870 H1883 0.961 . S
C1870 H1884 0.961 . S
C1871 C1868 1.539 . S
C1871 H1885 0.958 . S
C1871 H1886 0.961 . S
C1871 H1887 0.960 . S
H1872 C1856 0.931 . S
H1873 C1861 0.929 . S
H1874 C1862 0.960 . S
H1875 C1862 0.962 . S
H1876 C1862 0.960 . S
H1877 C1863 0.961 . S
H1878 C1863 0.961 . S
H1879 C1863 0.961 . S
H1880 C1864 0.931 . S
H1881 C1869 0.930 . S
H1882 C1870 0.956 . S
H1883 C1870 0.961 . S
H1884 C1870 0.961 . S
H1885 C1871 0.958 . S
H1886 C1871 0.961 . S
H1887 C1871 0.960 . S
C1888 C1889 1.391 . S
C1888 C1890 1.394 . S
C1888 H1904 0.931 . S
C1889 C1888 1.391 . S
C1889 C1893 1.376 . S
C1890 C1888 1.394 . S
C1890 C1891 1.369 . S
C1890 C1894 1.531 . S
C1891 C1890 1.369 . S
C1891 C1892 1.410 . S
C1891 C1899 1.503 . S
C1892 C1891 1.410 . S
C1892 C1893 1.392 . S
C1892 C1895 1.511 1_545 S
C1893 C1889 1.376 . S
C1893 C1892 1.392 . S
C1893 H1905 0.929 . S
C1894 C1890 1.531 . S
C1894 H1906 0.960 . S
C1894 H1907 0.962 . S
C1894 H1908 0.960 . S
C1895 C1892 1.511 1_565 S
C1895 H1909 0.961 . S
C1895 H1910 0.961 . S
C1895 H1911 0.961 . S
C1896 C1897 1.370 1_455 S
C1896 C1898 1.363 1_455 S
C1896 H1912 0.931 . S
C1897 C1896 1.370 1_655 S
C1897 C1901 1.408 . S
C1898 C1896 1.363 1_655 S
C1898 C1899 1.370 . S
C1898 C1902 1.524 1_655 S
C1899 C1891 1.503 . S
C1899 C1898 1.370 . S
C1899 C1900 1.403 . S
C1900 C1899 1.403 . S
C1900 C1901 1.404 . S
C1900 C1903 1.539 . S
C1901 C1897 1.408 . S
C1901 C1900 1.404 . S
C1901 H1913 0.930 . S
C1902 C1898 1.524 1_455 S
C1902 H1914 0.956 . S
C1902 H1915 0.961 1_455 S
C1902 H1916 0.961 . S
C1903 C1900 1.539 . S
C1903 H1917 0.958 . S
C1903 H1918 0.961 . S
C1903 H1919 0.960 . S
H1904 C1888 0.931 . S
H1905 C1893 0.929 . S
H1906 C1894 0.960 . S
H1907 C1894 0.962 . S
H1908 C1894 0.960 . S
H1909 C1895 0.961 . S
H1910 C1895 0.961 . S
H1911 C1895 0.961 . S
H1912 C1896 0.931 . S
H1913 C1901 0.930 . S
H1914 C1902 0.956 . S
H1915 C1902 0.961 1_655 S
H1916 C1902 0.961 . S
H1917 C1903 0.958 . S
H1918 C1903 0.961 . S
H1919 C1903 0.960 . S
C1920 C1921 1.391 . S
C1920 C1922 1.394 . S
C1920 H1936 0.931 . S
C1921 C1920 1.391 . S
C1921 C1925 1.376 . S
C1922 C1920 1.394 . S
C1922 C1923 1.369 . S
C1922 C1926 1.531 . S
C1923 C1922 1.369 . S
C1923 C1924 1.410 . S
C1923 C1931 1.503 . S
C1924 C1923 1.410 . S
C1924 C1925 1.392 . S
C1924 C1927 1.511 . S
C1925 C1921 1.376 . S
C1925 C1924 1.392 . S
C1925 H1937 0.929 . S
C1926 C1922 1.531 . S
C1926 H1938 0.960 . S
C1926 H1939 0.962 . S
C1926 H1940 0.960 . S
C1927 C1924 1.511 . S
C1927 H1941 0.961 . S
C1927 H1942 0.961 . S
C1927 H1943 0.961 . S
C1928 C1929 1.370 . S
C1928 C1930 1.363 . S
C1928 H1944 0.931 . S
C1929 C1928 1.370 . S
C1929 C1933 1.408 . S
C1930 C1928 1.363 . S
C1930 C1931 1.370 . S
C1930 C1934 1.524 . S
C1931 C1923 1.503 . S
C1931 C1930 1.370 . S
C1931 C1932 1.403 . S
C1932 C1931 1.403 . S
C1932 C1933 1.404 . S
C1932 C1935 1.539 . S
C1933 C1929 1.408 . S
C1933 C1932 1.404 . S
C1933 H1945 0.930 . S
C1934 C1930 1.524 . S
C1934 H1946 0.956 . S
C1934 H1947 0.961 . S
C1934 H1948 0.961 . S
C1935 C1932 1.539 . S
C1935 H1949 0.958 . S
C1935 H1950 0.961 . S
C1935 H1951 0.960 . S
H1936 C1920 0.931 . S
H1937 C1925 0.929 . S
H1938 C1926 0.960 . S
H1939 C1926 0.962 . S
H1940 C1926 0.960 . S
H1941 C1927 0.961 . S
H1942 C1927 0.961 . S
H1943 C1927 0.961 . S
H1944 C1928 0.931 . S
H1945 C1933 0.930 . S
H1946 C1934 0.956 . S
H1947 C1934 0.961 . S
H1948 C1934 0.961 . S
H1949 C1935 0.958 . S
H1950 C1935 0.961 . S
H1951 C1935 0.960 . S
C1952 C1953 1.391 . S
C1952 C1954 1.394 . S
C1952 H1968 0.931 . S
C1953 C1952 1.391 . S
C1953 C1957 1.376 . S
C1954 C1952 1.394 . S
C1954 C1955 1.369 . S
C1954 C1958 1.531 . S
C1955 C1954 1.369 . S
C1955 C1956 1.410 . S
C1955 C1963 1.503 . S
C1956 C1955 1.410 . S
C1956 C1957 1.392 . S
C1956 C1959 1.511 1_545 S
C1957 C1953 1.376 . S
C1957 C1956 1.392 . S
C1957 H1969 0.929 1_545 S
C1958 C1954 1.531 . S
C1958 H1970 0.960 . S
C1958 H1971 0.962 . S
C1958 H1972 0.960 . S
C1959 C1956 1.511 1_565 S
C1959 H1973 0.961 . S
C1959 H1974 0.961 . S
C1959 H1975 0.961 . S
C1960 C1961 1.370 . S
C1960 C1962 1.363 . S
C1960 H1976 0.931 . S
C1961 C1960 1.370 . S
C1961 C1965 1.408 . S
C1962 C1960 1.363 . S
C1962 C1963 1.370 . S
C1962 C1966 1.524 . S
C1963 C1955 1.503 . S
C1963 C1962 1.370 . S
C1963 C1964 1.403 . S
C1964 C1963 1.403 . S
C1964 C1965 1.404 . S
C1964 C1967 1.539 . S
C1965 C1961 1.408 . S
C1965 C1964 1.404 . S
C1965 H1977 0.930 . S
C1966 C1962 1.524 . S
C1966 H1978 0.956 . S
C1966 H1979 0.961 . S
C1966 H1980 0.961 . S
C1967 C1964 1.539 . S
C1967 H1981 0.958 . S
C1967 H1982 0.961 . S
C1967 H1983 0.960 . S
H1968 C1952 0.931 . S
H1969 C1957 0.929 1_565 S
H1970 C1958 0.960 . S
H1971 C1958 0.962 . S
H1972 C1958 0.960 . S
H1973 C1959 0.961 . S
H1974 C1959 0.961 . S
H1975 C1959 0.961 . S
H1976 C1960 0.931 . S
H1977 C1965 0.930 . S
H1978 C1966 0.956 . S
H1979 C1966 0.961 . S
H1980 C1966 0.961 . S
H1981 C1967 0.958 . S
H1982 C1967 0.961 . S
H1983 C1967 0.960 . S
C1984 C1985 1.391 . S
C1984 C1986 1.394 . S
C1984 H2000 0.931 . S
C1985 C1984 1.391 . S
C1985 C1989 1.376 . S
C1986 C1984 1.394 . S
C1986 C1987 1.369 . S
C1986 C1990 1.531 . S
C1987 C1986 1.369 . S
C1987 C1988 1.410 . S
C1987 C1995 1.503 . S
C1988 C1987 1.410 . S
C1988 C1989 1.392 . S
C1988 C1991 1.511 . S
C1989 C1985 1.376 . S
C1989 C1988 1.392 . S
C1989 H2001 0.929 . S
C1990 C1986 1.531 . S
C1990 H2002 0.960 . S
C1990 H2003 0.962 . S
C1990 H2004 0.960 . S
C1991 C1988 1.511 . S
C1991 H2005 0.961 . S
C1991 H2006 0.961 . S
C1991 H2007 0.961 . S
C1992 C1993 1.370 . S
C1992 C1994 1.363 . S
C1992 H2008 0.931 . S
C1993 C1992 1.370 . S
C1993 C1997 1.408 . S
C1994 C1992 1.363 . S
C1994 C1995 1.370 . S
C1994 C1998 1.524 . S
C1995 C1987 1.503 . S
C1995 C1994 1.370 . S
C1995 C1996 1.403 . S
C1996 C1995 1.403 . S
C1996 C1997 1.404 . S
C1996 C1999 1.539 . S
C1997 C1993 1.408 . S
C1997 C1996 1.404 . S
C1997 H2009 0.930 . S
C1998 C1994 1.524 . S
C1998 H2010 0.956 . S
C1998 H2011 0.961 . S
C1998 H2012 0.961 . S
C1999 C1996 1.539 . S
C1999 H2013 0.958 . S
C1999 H2014 0.961 . S
C1999 H2015 0.960 . S
H2000 C1984 0.931 . S
H2001 C1989 0.929 . S
H2002 C1990 0.960 . S
H2003 C1990 0.962 . S
H2004 C1990 0.960 . S
H2005 C1991 0.961 . S
H2006 C1991 0.961 . S
H2007 C1991 0.961 . S
H2008 C1992 0.931 . S
H2009 C1997 0.930 . S
H2010 C1998 0.956 . S
H2011 C1998 0.961 . S
H2012 C1998 0.961 . S
H2013 C1999 0.958 . S
H2014 C1999 0.961 . S
H2015 C1999 0.960 . S
C2016 C2017 1.391 . S
C2016 C2018 1.394 . S
C2016 H2032 0.931 . S
C2017 C2016 1.391 . S
C2017 C2021 1.376 . S
C2018 C2016 1.394 . S
C2018 C2019 1.369 . S
C2018 C2022 1.531 . S
C2019 C2018 1.369 . S
C2019 C2020 1.410 . S
C2019 C2027 1.503 . S
C2020 C2019 1.410 . S
C2020 C2021 1.392 . S
C2020 C2023 1.511 . S
C2021 C2017 1.376 . S
C2021 C2020 1.392 . S
C2021 H2033 0.929 1_554 S
C2022 C2018 1.531 . S
C2022 H2034 0.960 . S
C2022 H2035 0.962 . S
C2022 H2036 0.960 . S
C2023 C2020 1.511 . S
C2023 H2037 0.961 . S
C2023 H2038 0.961 . S
C2023 H2039 0.961 1_554 S
C2024 C2025 1.370 . S
C2024 C2026 1.363 . S
C2024 H2040 0.931 . S
C2025 C2024 1.370 . S
C2025 C2029 1.408 . S
C2026 C2024 1.363 . S
C2026 C2027 1.370 . S
C2026 C2030 1.524 . S
C2027 C2019 1.503 . S
C2027 C2026 1.370 . S
C2027 C2028 1.403 . S
C2028 C2027 1.403 . S
C2028 C2029 1.404 . S
C2028 C2031 1.564 . S
C2029 C2025 1.408 . S
C2029 C2028 1.404 . S
C2029 H2041 0.930 . S
C2030 C2026 1.524 . S
C2030 H2042 0.956 . S
C2030 H2043 0.961 . S
C2030 H2044 0.961 . S
C2031 C2028 1.564 . S
C2031 H2045 0.951 1_554 S
C2031 H2046 0.954 1_554 S
C2031 H2047 0.950 1_554 S
H2032 C2016 0.931 . S
H2033 C2021 0.929 1_556 S
H2034 C2022 0.960 . S
H2035 C2022 0.962 . S
H2036 C2022 0.960 . S
H2037 C2023 0.961 . S
H2038 C2023 0.961 . S
H2039 C2023 0.961 1_556 S
H2040 C2024 0.931 . S
H2041 C2029 0.930 . S
H2042 C2030 0.956 . S
H2043 C2030 0.961 . S
H2044 C2030 0.961 . S
H2045 C2031 0.951 1_556 S
H2046 C2031 0.954 1_556 S
H2047 C2031 0.950 1_556 S
C2048 C2049 1.391 . S
C2048 C2050 1.394 . S
C2048 H2064 0.931 . S
C2049 C2048 1.391 . S
C2049 C2053 1.376 . S
C2050 C2048 1.394 . S
C2050 C2051 1.369 . S
C2050 C2054 1.531 . S
C2051 C2050 1.369 . S
C2051 C2052 1.410 . S
C2051 C2059 1.503 . S
C2052 C2051 1.410 . S
C2052 C2053 1.392 . S
C2052 C2055 1.511 . S
C2053 C2049 1.376 . S
C2053 C2052 1.392 . S
C2053 H2065 0.929 . S
C2054 C2050 1.531 . S
C2054 H2066 0.960 . S
C2054 H2067 0.962 . S
C2054 H2068 0.960 . S
C2055 C2052 1.511 . S
C2055 H2069 0.961 . S
C2055 H2070 0.961 . S
C2055 H2071 0.961 . S
C2056 C2057 1.370 . S
C2056 C2058 1.363 . S
C2056 H2072 0.956 . S
C2057 C2056 1.370 . S
C2057 C2061 1.408 . S
C2058 C2056 1.363 . S
C2058 C2059 1.370 . S
C2058 C2062 1.524 1_554 S
C2059 C2051 1.503 . S
C2059 C2058 1.370 . S
C2059 C2060 1.403 . S
C2060 C2059 1.403 . S
C2060 C2061 1.404 . S
C2060 C2063 1.539 . S
C2061 C2057 1.408 . S
C2061 C2060 1.404 . S
C2061 H2073 0.930 . S
C2062 C2058 1.524 1_556 S
C2062 H2074 0.956 . S
C2062 H2075 0.961 . S
C2062 H2076 0.961 . S
C2063 C2060 1.539 . S
C2063 H2077 0.958 . S
C2063 H2078 0.961 . S
C2063 H2079 0.960 . S
H2064 C2048 0.931 . S
H2065 C2053 0.929 . S
H2066 C2054 0.960 . S
H2067 C2054 0.962 . S
H2068 C2054 0.960 . S
H2069 C2055 0.961 . S
H2070 C2055 0.961 . S
H2071 C2055 0.961 . S
H2072 C2056 0.956 . S
H2073 C2061 0.930 . S
H2074 C2062 0.956 . S
H2075 C2062 0.961 . S
H2076 C2062 0.961 . S
H2077 C2063 0.958 . S
H2078 C2063 0.961 . S
H2079 C2063 0.960 . S
C2080 C2081 1.391 . S
C2080 C2082 1.394 . S
C2080 H2096 0.931 . S
C2081 C2080 1.391 . S
C2081 C2085 1.376 . S
C2082 C2080 1.394 . S
C2082 C2083 1.369 . S
C2082 C2086 1.531 . S
C2083 C2082 1.369 . S
C2083 C2084 1.410 . S
C2083 C2091 1.503 . S
C2084 C2083 1.410 . S
C2084 C2085 1.392 . S
C2084 C2087 1.511 . S
C2085 C2081 1.376 . S
C2085 C2084 1.392 . S
C2085 H2097 0.929 . S
C2086 C2082 1.531 . S
C2086 H2098 0.960 . S
C2086 H2099 0.962 . S
C2086 H2100 0.960 . S
C2087 C2084 1.511 . S
C2087 H2101 0.961 . S
C2087 H2102 0.961 . S
C2087 H2103 0.961 . S
C2088 C2089 1.370 . S
C2088 C2090 1.363 . S
C2088 H2104 0.931 . S
C2089 C2088 1.370 . S
C2089 C2093 1.408 . S
C2090 C2088 1.363 . S
C2090 C2091 1.370 . S
C2090 C2094 1.524 . S
C2091 C2083 1.503 . S
C2091 C2090 1.370 . S
C2091 C2092 1.403 . S
C2092 C2091 1.403 . S
C2092 C2093 1.404 . S
C2092 C2095 1.539 . S
C2093 C2089 1.408 . S
C2093 C2092 1.404 . S
C2093 H2105 0.930 . S
C2094 C2090 1.524 . S
C2094 H2106 0.956 . S
C2094 H2107 0.961 . S
C2094 H2108 0.961 . S
C2095 C2092 1.539 . S
C2095 H2109 0.958 . S
C2095 H2110 0.961 . S
C2095 H2111 0.960 . S
H2096 C2080 0.931 . S
H2097 C2085 0.929 . S
H2098 C2086 0.960 . S
H2099 C2086 0.962 . S
H2100 C2086 0.960 . S
H2101 C2087 0.961 . S
H2102 C2087 0.961 . S
H2103 C2087 0.961 . S
H2104 C2088 0.931 . S
H2105 C2093 0.930 . S
H2106 C2094 0.956 . S
H2107 C2094 0.961 . S
H2108 C2094 0.961 . S
H2109 C2095 0.958 . S
H2110 C2095 0.961 . S
H2111 C2095 0.960 . S
C2112 C2113 1.391 . S
C2112 C2114 1.394 . S
C2112 H2128 0.931 . S
C2113 C2112 1.391 . S
C2113 C2117 1.376 . S
C2114 C2112 1.394 . S
C2114 C2115 1.369 . S
C2114 C2118 1.531 . S
C2115 C2114 1.369 . S
C2115 C2116 1.410 . S
C2115 C2123 1.503 . S
C2116 C2115 1.410 . S
C2116 C2117 1.392 . S
C2116 C2119 1.511 . S
C2117 C2113 1.376 . S
C2117 C2116 1.392 . S
C2117 H2129 0.929 . S
C2118 C2114 1.531 . S
C2118 H2130 0.960 . S
C2118 H2131 0.962 . S
C2118 H2132 0.960 . S
C2119 C2116 1.511 . S
C2119 H2133 0.961 . S
C2119 H2134 0.961 . S
C2119 H2135 0.961 . S
C2120 C2121 1.370 . S
C2120 C2122 1.363 . S
C2120 H2136 0.931 . S
C2121 C2120 1.370 . S
C2121 C2125 1.408 . S
C2122 C2120 1.363 . S
C2122 C2123 1.370 . S
C2122 C2126 1.524 . S
C2123 C2115 1.503 . S
C2123 C2122 1.370 . S
C2123 C2124 1.403 . S
C2124 C2123 1.403 . S
C2124 C2125 1.404 . S
C2124 C2127 1.539 . S
C2125 C2121 1.408 . S
C2125 C2124 1.404 . S
C2125 H2137 0.930 . S
C2126 C2122 1.524 . S
C2126 H2138 0.956 . S
C2126 H2139 0.961 . S
C2126 H2140 0.961 . S
C2127 C2124 1.539 . S
C2127 H2141 0.958 . S
C2127 H2142 0.961 . S
C2127 H2143 0.960 . S
H2128 C2112 0.931 . S
H2129 C2117 0.929 . S
H2130 C2118 0.960 . S
H2131 C2118 0.962 . S
H2132 C2118 0.960 . S
H2133 C2119 0.961 . S
H2134 C2119 0.961 . S
H2135 C2119 0.961 . S
H2136 C2120 0.931 . S
H2137 C2125 0.930 . S
H2138 C2126 0.956 . S
H2139 C2126 0.961 . S
H2140 C2126 0.961 . S
H2141 C2127 0.958 . S
H2142 C2127 0.961 . S
H2143 C2127 0.960 . S
C2144 C2145 1.391 . S
C2144 C2146 1.394 . S
C2144 H2160 0.931 . S
C2145 C2144 1.391 . S
C2145 C2149 1.376 . S
C2146 C2144 1.394 . S
C2146 C2147 1.369 . S
C2146 C2150 1.531 . S
C2147 C2146 1.369 . S
C2147 C2148 1.410 . S
C2147 C2155 1.503 . S
C2148 C2147 1.410 . S
C2148 C2149 1.392 . S
C2148 C2151 1.511 . S
C2149 C2145 1.376 . S
C2149 C2148 1.392 . S
C2149 H2161 0.929 . S
C2150 C2146 1.531 . S
C2150 H2162 0.960 . S
C2150 H2163 0.962 . S
C2150 H2164 0.960 . S
C2151 C2148 1.511 . S
C2151 H2165 0.961 . S
C2151 H2166 0.961 . S
C2151 H2167 0.961 . S
C2152 C2153 1.370 . S
C2152 C2154 1.363 . S
C2152 H2168 0.931 . S
C2153 C2152 1.370 . S
C2153 C2157 1.408 . S
C2154 C2152 1.363 . S
C2154 C2155 1.370 . S
C2154 C2158 1.524 . S
C2155 C2147 1.503 . S
C2155 C2154 1.370 . S
C2155 C2156 1.403 . S
C2156 C2155 1.403 . S
C2156 C2157 1.404 . S
C2156 C2159 1.539 . S
C2157 C2153 1.408 . S
C2157 C2156 1.404 . S
C2157 H2169 0.930 . S
C2158 C2154 1.524 . S
C2158 H2170 0.956 . S
C2158 H2171 0.961 . S
C2158 H2172 0.961 . S
C2159 C2156 1.539 . S
C2159 H2173 0.958 . S
C2159 H2174 0.961 . S
C2159 H2175 0.960 . S
H2160 C2144 0.931 . S
H2161 C2149 0.929 . S
H2162 C2150 0.960 . S
H2163 C2150 0.962 . S
H2164 C2150 0.960 . S
H2165 C2151 0.961 . S
H2166 C2151 0.961 . S
H2167 C2151 0.961 . S
H2168 C2152 0.931 . S
H2169 C2157 0.930 . S
H2170 C2158 0.956 . S
H2171 C2158 0.961 . S
H2172 C2158 0.961 . S
H2173 C2159 0.958 . S
H2174 C2159 0.961 . S
H2175 C2159 0.960 . S
C2176 C2177 1.391 . S
C2176 C2178 1.394 . S
C2176 H2192 0.931 . S
C2177 C2176 1.391 . S
C2177 C2181 1.376 . S
C2178 C2176 1.394 . S
C2178 C2179 1.369 . S
C2178 C2182 1.531 . S
C2179 C2178 1.369 . S
C2179 C2180 1.410 . S
C2179 C2187 1.503 . S
C2180 C2179 1.410 . S
C2180 C2181 1.392 . S
C2180 C2183 1.511 . S
C2181 C2177 1.376 . S
C2181 C2180 1.392 . S
C2181 H2193 0.929 . S
C2182 C2178 1.531 . S
C2182 H2194 0.960 . S
C2182 H2195 0.962 . S
C2182 H2196 0.960 . S
C2183 C2180 1.511 . S
C2183 H2197 0.961 . S
C2183 H2198 0.961 . S
C2183 H2199 0.961 . S
C2184 C2185 1.370 . S
C2184 C2186 1.363 . S
C2184 H2200 0.931 . S
C2185 C2184 1.370 . S
C2185 C2189 1.408 . S
C2186 C2184 1.363 . S
C2186 C2187 1.370 . S
C2186 C2190 1.524 . S
C2187 C2179 1.503 . S
C2187 C2186 1.370 . S
C2187 C2188 1.403 . S
C2188 C2187 1.403 . S
C2188 C2189 1.404 . S
C2188 C2191 1.539 . S
C2189 C2185 1.408 . S
C2189 C2188 1.404 . S
C2189 H2201 0.930 . S
C2190 C2186 1.524 . S
C2190 H2202 0.956 . S
C2190 H2203 0.961 . S
C2190 H2204 0.961 . S
C2191 C2188 1.539 . S
C2191 H2205 0.958 . S
C2191 H2206 0.961 . S
C2191 H2207 0.960 . S
H2192 C2176 0.931 . S
H2193 C2181 0.929 . S
H2194 C2182 0.960 . S
H2195 C2182 0.962 . S
H2196 C2182 0.960 . S
H2197 C2183 0.961 . S
H2198 C2183 0.961 . S
H2199 C2183 0.961 . S
H2200 C2184 0.931 . S
H2201 C2189 0.930 . S
H2202 C2190 0.956 . S
H2203 C2190 0.961 . S
H2204 C2190 0.961 . S
H2205 C2191 0.958 . S
H2206 C2191 0.961 . S
H2207 C2191 0.960 . S
C2208 C2209 1.391 . S
C2208 C2210 1.394 . S
C2208 H2224 0.931 . S
C2209 C2208 1.391 . S
C2209 C2213 1.376 . S
C2210 C2208 1.394 . S
C2210 C2211 1.369 . S
C2210 C2214 1.531 . S
C2211 C2210 1.369 . S
C2211 C2212 1.410 . S
C2211 C2219 1.503 . S
C2212 C2211 1.410 . S
C2212 C2213 1.392 . S
C2212 C2215 1.511 . S
C2213 C2209 1.376 . S
C2213 C2212 1.392 . S
C2213 H2225 0.929 . S
C2214 C2210 1.531 . S
C2214 H2226 0.960 . S
C2214 H2227 0.962 . S
C2214 H2228 0.960 . S
C2215 C2212 1.511 . S
C2215 H2229 0.961 . S
C2215 H2230 0.961 . S
C2215 H2231 0.961 . S
C2216 C2217 1.370 . S
C2216 C2218 1.363 . S
C2216 H2232 0.931 . S
C2217 C2216 1.370 . S
C2217 C2221 1.408 . S
C2218 C2216 1.363 . S
C2218 C2219 1.370 . S
C2218 C2222 1.524 . S
C2219 C2211 1.503 . S
C2219 C2218 1.370 . S
C2219 C2220 1.403 . S
C2220 C2219 1.403 . S
C2220 C2221 1.404 . S
C2220 C2223 1.539 . S
C2221 C2217 1.408 . S
C2221 C2220 1.404 . S
C2221 H2233 0.930 . S
C2222 C2218 1.524 . S
C2222 H2234 0.956 . S
C2222 H2235 0.961 . S
C2222 H2236 0.961 . S
C2223 C2220 1.539 . S
C2223 H2237 0.958 . S
C2223 H2238 0.961 . S
C2223 H2239 0.960 . S
H2224 C2208 0.931 . S
H2225 C2213 0.929 . S
H2226 C2214 0.960 . S
H2227 C2214 0.962 . S
H2228 C2214 0.960 . S
H2229 C2215 0.961 . S
H2230 C2215 0.961 . S
H2231 C2215 0.961 . S
H2232 C2216 0.931 . S
H2233 C2221 0.930 . S
H2234 C2222 0.956 . S
H2235 C2222 0.961 . S
H2236 C2222 0.961 . S
H2237 C2223 0.958 . S
H2238 C2223 0.961 . S
H2239 C2223 0.960 . S
C2240 C2241 1.391 . S
C2240 C2242 1.394 . S
C2240 H2256 0.931 . S
C2241 C2240 1.391 . S
C2241 C2245 1.376 . S
C2242 C2240 1.394 . S
C2242 C2243 1.369 . S
C2242 C2246 1.531 . S
C2243 C2242 1.369 . S
C2243 C2244 1.410 . S
C2243 C2251 1.503 . S
C2244 C2243 1.410 . S
C2244 C2245 1.392 . S
C2244 C2247 1.511 . S
C2245 C2241 1.376 . S
C2245 C2244 1.392 . S
C2245 H2257 0.929 . S
C2246 C2242 1.531 . S
C2246 H2258 0.960 . S
C2246 H2259 0.962 . S
C2246 H2260 0.960 . S
C2247 C2244 1.511 . S
C2247 H2261 0.961 . S
C2247 H2262 0.961 . S
C2247 H2263 0.961 . S
C2248 C2249 1.370 . S
C2248 C2250 1.363 . S
C2248 H2264 0.931 . S
C2249 C2248 1.370 . S
C2249 C2253 1.408 . S
C2250 C2248 1.363 . S
C2250 C2251 1.370 . S
C2250 C2254 1.524 . S
C2251 C2243 1.503 . S
C2251 C2250 1.370 . S
C2251 C2252 1.403 . S
C2252 C2251 1.403 . S
C2252 C2253 1.404 . S
C2252 C2255 1.539 . S
C2253 C2249 1.408 . S
C2253 C2252 1.404 . S
C2253 H2265 0.930 . S
C2254 C2250 1.524 . S
C2254 H2266 0.956 . S
C2254 H2267 0.961 . S
C2254 H2268 0.961 . S
C2255 C2252 1.539 . S
C2255 H2269 0.958 . S
C2255 H2270 0.961 . S
C2255 H2271 0.960 . S
H2256 C2240 0.931 . S
H2257 C2245 0.929 . S
H2258 C2246 0.960 . S
H2259 C2246 0.962 . S
H2260 C2246 0.960 . S
H2261 C2247 0.961 . S
H2262 C2247 0.961 . S
H2263 C2247 0.961 . S
H2264 C2248 0.931 . S
H2265 C2253 0.930 . S
H2266 C2254 0.956 . S
H2267 C2254 0.961 . S
H2268 C2254 0.961 . S
H2269 C2255 0.958 . S
H2270 C2255 0.961 . S
H2271 C2255 0.960 . S
C2272 C2273 1.391 . S
C2272 C2274 1.394 . S
C2272 H2288 0.931 . S
C2273 C2272 1.391 . S
C2273 C2277 1.376 . S
C2274 C2272 1.394 . S
C2274 C2275 1.369 . S
C2274 C2278 1.531 . S
C2275 C2274 1.369 . S
C2275 C2276 1.410 . S
C2275 C2283 1.503 . S
C2276 C2275 1.410 . S
C2276 C2277 1.392 . S
C2276 C2279 1.511 . S
C2277 C2273 1.376 . S
C2277 C2276 1.392 . S
C2277 H2289 0.929 . S
C2278 C2274 1.531 . S
C2278 H2290 0.960 . S
C2278 H2291 0.962 . S
C2278 H2292 0.960 . S
C2279 C2276 1.511 . S
C2279 H2293 0.961 . S
C2279 H2294 0.961 . S
C2279 H2295 0.961 . S
C2280 C2281 1.370 . S
C2280 C2282 1.363 . S
C2280 H2296 0.931 . S
C2281 C2280 1.370 . S
C2281 C2285 1.408 . S
C2282 C2280 1.363 . S
C2282 C2283 1.370 . S
C2282 C2286 1.524 . S
C2283 C2275 1.503 . S
C2283 C2282 1.370 . S
C2283 C2284 1.403 . S
C2284 C2283 1.403 . S
C2284 C2285 1.404 . S
C2284 C2287 1.539 1_455 S
C2285 C2281 1.408 . S
C2285 C2284 1.404 . S
C2285 H2297 0.930 1_455 S
C2286 C2282 1.524 . S
C2286 H2298 0.956 . S
C2286 H2299 0.961 . S
C2286 H2300 0.961 . S
C2287 C2284 1.539 1_655 S
C2287 H2301 0.958 . S
C2287 H2302 0.961 . S
C2287 H2303 0.960 1_655 S
H2288 C2272 0.931 . S
H2289 C2277 0.929 . S
H2290 C2278 0.960 . S
H2291 C2278 0.962 . S
H2292 C2278 0.960 . S
H2293 C2279 0.961 . S
H2294 C2279 0.961 . S
H2295 C2279 0.961 . S
H2296 C2280 0.931 . S
H2297 C2285 0.930 1_655 S
H2298 C2286 0.956 . S
H2299 C2286 0.961 . S
H2300 C2286 0.961 . S
H2301 C2287 0.958 . S
H2302 C2287 0.961 . S
H2303 C2287 0.960 1_455 S
C2304 C2305 1.391 . S
C2304 C2306 1.394 . S
C2304 H2320 0.931 . S
C2305 C2304 1.391 . S
C2305 C2309 1.376 . S
C2306 C2304 1.394 . S
C2306 C2307 1.369 . S
C2306 C2310 1.531 . S
C2307 C2306 1.369 . S
C2307 C2308 1.410 . S
C2307 C2315 1.503 . S
C2308 C2307 1.410 . S
C2308 C2309 1.392 . S
C2308 C2311 1.511 . S
C2309 C2305 1.376 . S
C2309 C2308 1.392 . S
C2309 H2321 0.929 . S
C2310 C2306 1.531 . S
C2310 H2322 0.960 . S
C2310 H2323 0.962 . S
C2310 H2324 0.960 . S
C2311 C2308 1.511 . S
C2311 H2325 0.961 . S
C2311 H2326 0.961 . S
C2311 H2327 0.961 . S
C2312 C2313 1.370 . S
C2312 C2314 1.363 . S
C2312 H2328 0.931 . S
C2313 C2312 1.370 . S
C2313 C2317 1.408 . S
C2314 C2312 1.363 . S
C2314 C2315 1.370 . S
C2314 C2318 1.524 . S
C2315 C2307 1.503 . S
C2315 C2314 1.370 . S
C2315 C2316 1.403 . S
C2316 C2315 1.403 . S
C2316 C2317 1.404 . S
C2316 C2319 1.539 . S
C2317 C2313 1.408 . S
C2317 C2316 1.404 . S
C2317 H2329 0.930 . S
C2318 C2314 1.524 . S
C2318 H2330 0.956 . S
C2318 H2331 0.961 . S
C2318 H2332 0.961 . S
C2319 C2316 1.539 . S
C2319 H2333 0.958 . S
C2319 H2334 0.961 . S
C2319 H2335 0.960 . S
H2320 C2304 0.931 . S
H2321 C2309 0.929 . S
H2322 C2310 0.960 . S
H2323 C2310 0.962 . S
H2324 C2310 0.960 . S
H2325 C2311 0.961 . S
H2326 C2311 0.961 . S
H2327 C2311 0.961 . S
H2328 C2312 0.931 . S
H2329 C2317 0.930 . S
H2330 C2318 0.956 . S
H2331 C2318 0.961 . S
H2332 C2318 0.961 . S
H2333 C2319 0.958 . S
H2334 C2319 0.961 . S
H2335 C2319 0.960 . S
C2336 C2337 1.391 . S
C2336 C2338 1.394 . S
C2336 H2352 0.931 . S
C2337 C2336 1.391 . S
C2337 C2341 1.376 . S
C2338 C2336 1.394 . S
C2338 C2339 1.369 . S
C2338 C2342 1.531 . S
C2339 C2338 1.369 . S
C2339 C2340 1.410 . S
C2339 C2347 1.503 . S
C2340 C2339 1.410 . S
C2340 C2341 1.392 . S
C2340 C2343 1.511 . S
C2341 C2337 1.376 . S
C2341 C2340 1.392 . S
C2341 H2353 0.929 . S
C2342 C2338 1.531 . S
C2342 H2354 0.960 . S
C2342 H2355 0.962 . S
C2342 H2356 0.960 . S
C2343 C2340 1.511 . S
C2343 H2357 0.961 . S
C2343 H2358 0.961 . S
C2343 H2359 0.961 . S
C2344 C2345 1.370 . S
C2344 C2346 1.363 . S
C2344 H2360 0.931 . S
C2345 C2344 1.370 . S
C2345 C2349 1.408 . S
C2346 C2344 1.363 . S
C2346 C2347 1.370 . S
C2346 C2350 1.524 . S
C2347 C2339 1.503 . S
C2347 C2346 1.370 . S
C2347 C2348 1.403 . S
C2348 C2347 1.403 . S
C2348 C2349 1.404 . S
C2348 C2351 1.539 . S
C2349 C2345 1.408 . S
C2349 C2348 1.404 . S
C2349 H2361 0.930 . S
C2350 C2346 1.524 . S
C2350 H2362 0.956 . S
C2350 H2363 0.961 . S
C2350 H2364 0.961 . S
C2351 C2348 1.539 . S
C2351 H2365 0.958 . S
C2351 H2366 0.961 . S
C2351 H2367 0.960 . S
H2352 C2336 0.931 . S
H2353 C2341 0.929 . S
H2354 C2342 0.960 . S
H2355 C2342 0.962 . S
H2356 C2342 0.960 . S
H2357 C2343 0.961 . S
H2358 C2343 0.961 . S
H2359 C2343 0.961 . S
H2360 C2344 0.931 . S
H2361 C2349 0.930 . S
H2362 C2350 0.956 . S
H2363 C2350 0.961 . S
H2364 C2350 0.961 . S
H2365 C2351 0.958 . S
H2366 C2351 0.961 . S
H2367 C2351 0.960 . S
C2368 C2369 1.391 . S
C2368 C2370 1.394 . S
C2368 H2384 0.931 . S
C2369 C2368 1.391 . S
C2369 C2373 1.376 . S
C2370 C2368 1.394 . S
C2370 C2371 1.369 . S
C2370 C2374 1.531 . S
C2371 C2370 1.369 . S
C2371 C2372 1.410 . S
C2371 C2379 1.503 . S
C2372 C2371 1.410 . S
C2372 C2373 1.392 . S
C2372 C2375 1.511 . S
C2373 C2369 1.376 . S
C2373 C2372 1.392 . S
C2373 H2385 0.929 . S
C2374 C2370 1.531 . S
C2374 H2386 0.960 . S
C2374 H2387 0.962 . S
C2374 H2388 0.960 . S
C2375 C2372 1.511 . S
C2375 H2389 0.961 . S
C2375 H2390 0.961 . S
C2375 H2391 0.961 . S
C2376 C2377 1.370 . S
C2376 C2378 1.363 . S
C2376 H2392 0.931 . S
C2377 C2376 1.370 . S
C2377 C2381 1.408 . S
C2378 C2376 1.363 . S
C2378 C2379 1.370 . S
C2378 C2382 1.524 . S
C2379 C2371 1.503 . S
C2379 C2378 1.370 . S
C2379 C2380 1.403 . S
C2380 C2379 1.403 . S
C2380 C2381 1.404 . S
C2380 C2383 1.539 . S
C2381 C2377 1.408 . S
C2381 C2380 1.404 . S
C2381 H2393 0.930 . S
C2382 C2378 1.524 . S
C2382 H2394 0.956 . S
C2382 H2395 0.961 . S
C2382 H2396 0.961 . S
C2383 C2380 1.539 . S
C2383 H2397 0.958 . S
C2383 H2398 0.961 . S
C2383 H2399 0.960 . S
H2384 C2368 0.931 . S
H2385 C2373 0.929 . S
H2386 C2374 0.960 . S
H2387 C2374 0.962 . S
H2388 C2374 0.960 . S
H2389 C2375 0.961 . S
H2390 C2375 0.961 . S
H2391 C2375 0.961 . S
H2392 C2376 0.931 . S
H2393 C2381 0.930 . S
H2394 C2382 0.956 . S
H2395 C2382 0.961 . S
H2396 C2382 0.961 . S
H2397 C2383 0.958 . S
H2398 C2383 0.961 . S
H2399 C2383 0.960 . S
C2400 C2401 1.391 . S
C2400 C2402 1.394 . S
C2400 H2416 0.931 . S
C2401 C2400 1.391 . S
C2401 C2405 1.376 . S
C2402 C2400 1.394 . S
C2402 C2403 1.369 . S
C2402 C2406 1.531 . S
C2403 C2402 1.369 . S
C2403 C2404 1.410 . S
C2403 C2411 1.503 . S
C2404 C2403 1.410 . S
C2404 C2405 1.392 . S
C2404 C2407 1.511 1_455 S
C2405 C2401 1.376 . S
C2405 C2404 1.392 . S
C2405 H2417 0.929 . S
C2406 C2402 1.531 . S
C2406 H2418 0.960 . S
C2406 H2419 0.962 . S
C2406 H2420 0.960 . S
C2407 C2404 1.511 1_655 S
C2407 H2421 0.961 . S
C2407 H2422 0.961 . S
C2407 H2423 0.961 . S
C2408 C2409 1.370 . S
C2408 C2410 1.363 . S
C2408 H2424 0.931 1_455 S
C2409 C2408 1.370 . S
C2409 C2413 1.408 . S
C2410 C2408 1.363 . S
C2410 C2411 1.370 . S
C2410 C2414 1.524 . S
C2411 C2403 1.503 . S
C2411 C2410 1.370 . S
C2411 C2412 1.403 . S
C2412 C2411 1.403 . S
C2412 C2413 1.404 . S
C2412 C2415 1.539 . S
C2413 C2409 1.408 . S
C2413 C2412 1.404 . S
C2413 H2425 0.930 . S
C2414 C2410 1.524 . S
C2414 H2426 0.956 . S
C2414 H2427 0.961 . S
C2414 H2428 0.965 . S
C2415 C2412 1.539 . S
C2415 H2429 0.958 . S
C2415 H2430 0.961 . S
C2415 H2431 0.960 . S
H2416 C2400 0.931 . S
H2417 C2405 0.929 . S
H2418 C2406 0.960 . S
H2419 C2406 0.962 . S
H2420 C2406 0.960 . S
H2421 C2407 0.961 . S
H2422 C2407 0.961 . S
H2423 C2407 0.961 . S
H2424 C2408 0.931 1_655 S
H2425 C2413 0.930 . S
H2426 C2414 0.956 . S
H2427 C2414 0.961 . S
H2428 C2414 0.965 . S
H2429 C2415 0.958 . S
H2430 C2415 0.961 . S
H2431 C2415 0.960 . S
C2432 C2433 1.391 . S
C2432 C2434 1.394 . S
C2432 H2448 0.931 . S
C2433 C2432 1.391 . S
C2433 C2437 1.376 . S
C2434 C2432 1.394 . S
C2434 C2435 1.369 . S
C2434 C2438 1.531 . S
C2435 C2434 1.369 . S
C2435 C2436 1.410 . S
C2435 C2443 1.503 . S
C2436 C2435 1.410 . S
C2436 C2437 1.392 . S
C2436 C2439 1.511 . S
C2437 C2433 1.376 . S
C2437 C2436 1.392 . S
C2437 H2449 0.929 . S
C2438 C2434 1.531 . S
C2438 H2450 0.960 . S
C2438 H2451 0.962 . S
C2438 H2452 0.960 . S
C2439 C2436 1.511 . S
C2439 H2453 0.961 . S
C2439 H2454 0.961 . S
C2439 H2455 0.961 . S
C2440 C2441 1.370 . S
C2440 C2442 1.363 . S
C2440 H2456 0.931 . S
C2441 C2440 1.370 . S
C2441 C2445 1.408 . S
C2442 C2440 1.363 . S
C2442 C2443 1.370 . S
C2442 C2446 1.524 . S
C2443 C2435 1.503 . S
C2443 C2442 1.370 . S
C2443 C2444 1.403 . S
C2444 C2443 1.403 . S
C2444 C2445 1.404 . S
C2444 C2447 1.539 . S
C2445 C2441 1.408 . S
C2445 C2444 1.404 . S
C2445 H2457 0.930 . S
C2446 C2442 1.524 . S
C2446 H2458 0.956 . S
C2446 H2459 0.961 . S
C2446 H2460 0.961 . S
C2447 C2444 1.539 . S
C2447 H2461 0.958 . S
C2447 H2462 0.961 . S
C2447 H2463 0.960 . S
H2448 C2432 0.931 . S
H2449 C2437 0.929 . S
H2450 C2438 0.960 . S
H2451 C2438 0.962 . S
H2452 C2438 0.960 . S
H2453 C2439 0.961 . S
H2454 C2439 0.961 . S
H2455 C2439 0.961 . S
H2456 C2440 0.931 . S
H2457 C2445 0.930 . S
H2458 C2446 0.956 . S
H2459 C2446 0.961 . S
H2460 C2446 0.961 . S
H2461 C2447 0.958 . S
H2462 C2447 0.961 . S
H2463 C2447 0.960 . S
C2464 C2465 1.391 . S
C2464 C2466 1.394 . S
C2464 H2480 0.931 . S
C2465 C2464 1.391 . S
C2465 C2469 1.376 . S
C2466 C2464 1.394 . S
C2466 C2467 1.369 . S
C2466 C2470 1.531 . S
C2467 C2466 1.369 . S
C2467 C2468 1.410 . S
C2467 C2475 1.503 1_556 S
C2468 C2467 1.410 . S
C2468 C2469 1.392 . S
C2468 C2471 1.511 . S
C2469 C2465 1.376 . S
C2469 C2468 1.392 . S
C2469 H2481 0.929 . S
C2470 C2466 1.531 . S
C2470 H2482 0.960 . S
C2470 H2483 0.962 1_556 S
C2470 H2484 0.960 . S
C2471 C2468 1.511 . S
C2471 H2485 0.961 . S
C2471 H2486 0.961 . S
C2471 H2487 0.961 . S
C2472 C2473 1.370 . S
C2472 C2474 1.363 . S
C2472 H2488 0.931 . S
C2473 C2472 1.370 . S
C2473 C2477 1.408 . S
C2474 C2472 1.363 . S
C2474 C2475 1.370 . S
C2474 C2478 1.524 . S
C2475 C2467 1.503 1_554 S
C2475 C2474 1.370 . S
C2475 C2476 1.403 1_554 S
C2476 C2475 1.403 1_556 S
C2476 C2477 1.404 1_556 S
C2476 C2479 1.539 . S
C2477 C2473 1.408 . S
C2477 C2476 1.404 1_554 S
C2477 H2489 0.975 . S
C2478 C2474 1.524 . S
C2478 H2490 0.956 . S
C2478 H2491 0.961 . S
C2478 H2492 0.961 . S
C2479 C2476 1.539 . S
C2479 H2493 0.958 . S
C2479 H2494 0.961 . S
C2479 H2495 0.960 . S
H2480 C2464 0.931 . S
H2481 C2469 0.929 . S
H2482 C2470 0.960 . S
H2483 C2470 0.962 1_554 S
H2484 C2470 0.960 . S
H2485 C2471 0.961 . S
H2486 C2471 0.961 . S
H2487 C2471 0.961 . S
H2488 C2472 0.931 . S
H2489 C2477 0.975 . S
H2490 C2478 0.956 . S
H2491 C2478 0.961 . S
H2492 C2478 0.961 . S
H2493 C2479 0.958 . S
H2494 C2479 0.961 . S
H2495 C2479 0.960 . S
C2496 C2497 1.391 . S
C2496 C2498 1.394 . S
C2496 H2512 0.931 . S
C2497 C2496 1.391 . S
C2497 C2501 1.376 . S
C2498 C2496 1.394 . S
C2498 C2499 1.369 . S
C2498 C2502 1.531 . S
C2499 C2498 1.369 . S
C2499 C2500 1.410 . S
C2499 C2507 1.503 . S
C2500 C2499 1.410 . S
C2500 C2501 1.392 . S
C2500 C2503 1.511 . S
C2501 C2497 1.376 . S
C2501 C2500 1.392 . S
C2501 H2513 0.929 . S
C2502 C2498 1.531 . S
C2502 H2514 0.960 . S
C2502 H2515 0.962 . S
C2502 H2516 0.960 . S
C2503 C2500 1.511 . S
C2503 H2517 0.961 . S
C2503 H2518 0.961 . S
C2503 H2519 0.961 . S
C2504 C2505 1.370 . S
C2504 C2506 1.363 . S
C2504 H2520 0.931 . S
C2505 C2504 1.370 . S
C2505 C2509 1.408 . S
C2506 C2504 1.363 . S
C2506 C2507 1.370 . S
C2506 C2510 1.524 . S
C2507 C2499 1.503 . S
C2507 C2506 1.370 . S
C2507 C2508 1.403 . S
C2508 C2507 1.403 . S
C2508 C2509 1.404 . S
C2508 C2511 1.539 . S
C2509 C2505 1.408 . S
C2509 C2508 1.404 . S
C2509 H2521 0.930 . S
C2510 C2506 1.524 . S
C2510 H2522 0.956 . S
C2510 H2523 0.961 . S
C2510 H2524 0.961 . S
C2511 C2508 1.539 . S
C2511 H2525 0.958 . S
C2511 H2526 0.961 . S
C2511 H2527 0.960 . S
H2512 C2496 0.931 . S
H2513 C2501 0.929 . S
H2514 C2502 0.960 . S
H2515 C2502 0.962 . S
H2516 C2502 0.960 . S
H2517 C2503 0.961 . S
H2518 C2503 0.961 . S
H2519 C2503 0.961 . S
H2520 C2504 0.931 . S
H2521 C2509 0.930 . S
H2522 C2510 0.956 . S
H2523 C2510 0.961 . S
H2524 C2510 0.961 . S
H2525 C2511 0.958 . S
H2526 C2511 0.961 . S
H2527 C2511 0.960 . S
C2528 C2529 1.391 . S
C2528 C2530 1.394 . S
C2528 H2544 0.931 . S
C2529 C2528 1.391 . S
C2529 C2533 1.376 . S
C2530 C2528 1.394 . S
C2530 C2531 1.369 . S
C2530 C2534 1.531 . S
C2531 C2530 1.369 . S
C2531 C2532 1.410 . S
C2531 C2539 1.503 . S
C2532 C2531 1.410 . S
C2532 C2533 1.392 . S
C2532 C2535 1.511 . S
C2533 C2529 1.376 . S
C2533 C2532 1.392 . S
C2533 H2545 0.929 . S
C2534 C2530 1.531 . S
C2534 H2546 0.960 . S
C2534 H2547 0.962 1_545 S
C2534 H2548 0.960 . S
C2535 C2532 1.511 . S
C2535 H2549 0.961 1_545 S
C2535 H2550 0.961 1_545 S
C2535 H2551 0.961 . S
C2536 C2537 1.370 1_565 S
C2536 C2538 1.363 . S
C2536 H2552 0.931 . S
C2537 C2536 1.370 1_545 S
C2537 C2541 1.408 . S
C2538 C2536 1.363 . S
C2538 C2539 1.370 1_565 S
C2538 C2542 1.524 . S
C2539 C2531 1.503 . S
C2539 C2538 1.370 1_545 S
C2539 C2540 1.403 . S
C2540 C2539 1.403 . S
C2540 C2541 1.404 . S
C2540 C2543 1.539 . S
C2541 C2537 1.408 . S
C2541 C2540 1.404 . S
C2541 H2553 0.930 . S
C2542 C2538 1.524 . S
C2542 H2554 0.956 . S
C2542 H2555 0.961 . S
C2542 H2556 0.961 . S
C2543 C2540 1.539 . S
C2543 H2557 0.958 . S
C2543 H2558 0.961 . S
C2543 H2559 0.960 . S
H2544 C2528 0.931 . S
H2545 C2533 0.929 . S
H2546 C2534 0.960 . S
H2547 C2534 0.962 1_565 S
H2548 C2534 0.960 . S
H2549 C2535 0.961 1_565 S
H2550 C2535 0.961 1_565 S
H2551 C2535 0.961 . S
H2552 C2536 0.931 . S
H2553 C2541 0.930 . S
H2554 C2542 0.956 . S
H2555 C2542 0.961 . S
H2556 C2542 0.961 . S
H2557 C2543 0.958 . S
H2558 C2543 0.961 . S
H2559 C2543 0.960 . S
C2560 C2561 1.391 . S
C2560 C2562 1.394 . S
C2560 H2576 0.931 . S
C2561 C2560 1.391 . S
C2561 C2565 1.376 . S
C2562 C2560 1.394 . S
C2562 C2563 1.369 . S
C2562 C2566 1.531 . S
C2563 C2562 1.369 . S
C2563 C2564 1.410 . S
C2563 C2571 1.503 . S
C2564 C2563 1.410 . S
C2564 C2565 1.392 . S
C2564 C2567 1.511 . S
C2565 C2561 1.376 . S
C2565 C2564 1.392 . S
C2565 H2577 0.929 . S
C2566 C2562 1.531 . S
C2566 H2578 0.960 . S
C2566 H2579 0.962 . S
C2566 H2580 0.960 . S
C2567 C2564 1.511 . S
C2567 H2581 0.961 . S
C2567 H2582 0.961 . S
C2567 H2583 0.961 . S
C2568 C2569 1.370 . S
C2568 C2570 1.363 . S
C2568 H2584 0.931 . S
C2569 C2568 1.370 . S
C2569 C2573 1.408 . S
C2570 C2568 1.363 . S
C2570 C2571 1.370 . S
C2570 C2574 1.524 . S
C2571 C2563 1.503 . S
C2571 C2570 1.370 . S
C2571 C2572 1.403 . S
C2572 C2571 1.403 . S
C2572 C2573 1.404 . S
C2572 C2575 1.539 . S
C2573 C2569 1.408 . S
C2573 C2572 1.404 . S
C2573 H2585 0.930 . S
C2574 C2570 1.524 . S
C2574 H2586 0.956 . S
C2574 H2587 0.961 . S
C2574 H2588 0.961 . S
C2575 C2572 1.539 . S
C2575 H2589 0.958 . S
C2575 H2590 0.961 . S
C2575 H2591 0.960 . S
H2576 C2560 0.931 . S
H2577 C2565 0.929 . S
H2578 C2566 0.960 . S
H2579 C2566 0.962 . S
H2580 C2566 0.960 . S
H2581 C2567 0.961 . S
H2582 C2567 0.961 . S
H2583 C2567 0.961 . S
H2584 C2568 0.931 . S
H2585 C2573 0.930 . S
H2586 C2574 0.956 . S
H2587 C2574 0.961 . S
H2588 C2574 0.961 . S
H2589 C2575 0.958 . S
H2590 C2575 0.961 . S
H2591 C2575 0.960 . S
C2592 C2593 1.391 . S
C2592 C2594 1.394 . S
C2592 H2608 0.931 . S
C2593 C2592 1.391 . S
C2593 C2597 1.376 . S
C2594 C2592 1.394 . S
C2594 C2595 1.369 . S
C2594 C2598 1.531 . S
C2595 C2594 1.369 . S
C2595 C2596 1.410 . S
C2595 C2603 1.503 . S
C2596 C2595 1.410 . S
C2596 C2597 1.392 . S
C2596 C2599 1.511 . S
C2597 C2593 1.376 . S
C2597 C2596 1.392 . S
C2597 H2609 0.929 . S
C2598 C2594 1.531 . S
C2598 H2610 0.960 . S
C2598 H2611 0.962 . S
C2598 H2612 0.960 . S
C2599 C2596 1.511 . S
C2599 H2613 0.961 . S
C2599 H2614 0.961 . S
C2599 H2615 0.961 . S
C2600 C2601 1.370 . S
C2600 C2602 1.363 . S
C2600 H2616 0.931 . S
C2601 C2600 1.370 . S
C2601 C2605 1.408 . S
C2602 C2600 1.363 . S
C2602 C2603 1.370 . S
C2602 C2606 1.524 1_545 S
C2603 C2595 1.503 . S
C2603 C2602 1.370 . S
C2603 C2604 1.403 . S
C2604 C2603 1.403 . S
C2604 C2605 1.404 . S
C2604 C2607 1.539 . S
C2605 C2601 1.408 . S
C2605 C2604 1.404 . S
C2605 H2617 0.930 . S
C2606 C2602 1.524 1_565 S
C2606 H2618 0.956 1_565 S
C2606 H2619 0.961 . S
C2606 H2620 0.961 . S
C2607 C2604 1.539 . S
C2607 H2621 0.958 . S
C2607 H2622 0.961 . S
C2607 H2623 0.960 . S
H2608 C2592 0.931 . S
H2609 C2597 0.929 . S
H2610 C2598 0.960 . S
H2611 C2598 0.962 . S
H2612 C2598 0.960 . S
H2613 C2599 0.961 . S
H2614 C2599 0.961 . S
H2615 C2599 0.961 . S
H2616 C2600 0.931 . S
H2617 C2605 0.930 . S
H2618 C2606 0.956 1_545 S
H2619 C2606 0.961 . S
H2620 C2606 0.961 . S
H2621 C2607 0.958 . S
H2622 C2607 0.961 . S
H2623 C2607 0.960 . S
C2624 C2625 1.391 . S
C2624 C2626 1.394 . S
C2624 H2640 0.931 . S
C2625 C2624 1.391 . S
C2625 C2629 1.376 . S
C2626 C2624 1.394 . S
C2626 C2627 1.369 . S
C2626 C2630 1.531 . S
C2627 C2626 1.369 . S
C2627 C2628 1.410 . S
C2627 C2635 1.503 . S
C2628 C2627 1.410 . S
C2628 C2629 1.392 . S
C2628 C2631 1.511 . S
C2629 C2625 1.376 . S
C2629 C2628 1.392 . S
C2629 H2641 0.929 . S
C2630 C2626 1.531 . S
C2630 H2642 0.960 . S
C2630 H2643 0.962 . S
C2630 H2644 0.960 . S
C2631 C2628 1.511 . S
C2631 H2645 0.961 . S
C2631 H2646 0.961 . S
C2631 H2647 0.961 . S
C2632 C2633 1.370 . S
C2632 C2634 1.363 . S
C2632 H2648 0.931 . S
C2633 C2632 1.370 . S
C2633 C2637 1.408 . S
C2634 C2632 1.363 . S
C2634 C2635 1.370 . S
C2634 C2638 1.524 . S
C2635 C2627 1.503 . S
C2635 C2634 1.370 . S
C2635 C2636 1.403 . S
C2636 C2635 1.403 . S
C2636 C2637 1.404 . S
C2636 C2639 1.539 . S
C2637 C2633 1.408 . S
C2637 C2636 1.404 . S
C2637 H2649 0.930 . S
C2638 C2634 1.524 . S
C2638 H2650 0.956 . S
C2638 H2651 0.961 . S
C2638 H2652 0.961 . S
C2639 C2636 1.539 . S
C2639 H2653 0.958 . S
C2639 H2654 0.961 . S
C2639 H2655 0.960 . S
H2640 C2624 0.931 . S
H2641 C2629 0.929 . S
H2642 C2630 0.960 . S
H2643 C2630 0.962 . S
H2644 C2630 0.960 . S
H2645 C2631 0.961 . S
H2646 C2631 0.961 . S
H2647 C2631 0.961 . S
H2648 C2632 0.931 . S
H2649 C2637 0.930 . S
H2650 C2638 0.956 . S
H2651 C2638 0.961 . S
H2652 C2638 0.961 . S
H2653 C2639 0.958 . S
H2654 C2639 0.961 . S
H2655 C2639 0.960 . S
C2656 C2657 1.391 1_545 S
C2656 C2658 1.394 . S
C2656 H2672 0.931 . S
C2657 C2656 1.391 1_565 S
C2657 C2661 1.376 . S
C2658 C2656 1.394 . S
C2658 C2659 1.369 . S
C2658 C2662 1.531 . S
C2659 C2658 1.369 . S
C2659 C2660 1.410 1_545 S
C2659 C2667 1.503 . S
C2660 C2659 1.410 1_565 S
C2660 C2661 1.392 . S
C2660 C2663 1.511 . S
C2661 C2657 1.376 . S
C2661 C2660 1.392 . S
C2661 H2673 0.929 . S
C2662 C2658 1.531 . S
C2662 H2674 0.960 . S
C2662 H2675 0.962 . S
C2662 H2676 0.960 . S
C2663 C2660 1.511 . S
C2663 H2677 0.961 . S
C2663 H2678 0.961 . S
C2663 H2679 0.961 . S
C2664 C2665 1.370 . S
C2664 C2666 1.363 . S
C2664 H2680 0.931 . S
C2665 C2664 1.370 . S
C2665 C2669 1.408 . S
C2666 C2664 1.363 . S
C2666 C2667 1.370 . S
C2666 C2670 1.524 . S
C2667 C2659 1.503 . S
C2667 C2666 1.370 . S
C2667 C2668 1.403 . S
C2668 C2667 1.403 . S
C2668 C2669 1.404 . S
C2668 C2671 1.523 1_545 S
C2669 C2665 1.408 . S
C2669 C2668 1.404 . S
C2669 H2681 0.930 . S
C2670 C2666 1.524 . S
C2670 H2682 0.956 . S
C2670 H2683 0.961 1_545 S
C2670 H2684 0.961 . S
C2671 C2668 1.523 1_565 S
C2671 H2685 0.924 1_565 S
C2671 H2686 0.980 . S
C2671 H2687 0.994 . S
H2672 C2656 0.931 . S
H2673 C2661 0.929 . S
H2674 C2662 0.960 . S
H2675 C2662 0.962 . S
H2676 C2662 0.960 . S
H2677 C2663 0.961 . S
H2678 C2663 0.961 . S
H2679 C2663 0.961 . S
H2680 C2664 0.931 . S
H2681 C2669 0.930 . S
H2682 C2670 0.956 . S
H2683 C2670 0.961 1_565 S
H2684 C2670 0.961 . S
H2685 C2671 0.924 1_545 S
H2686 C2671 0.980 . S
H2687 C2671 0.994 . S
C2688 C2689 1.391 . S
C2688 C2690 1.394 . S
C2688 H2704 0.931 . S
C2689 C2688 1.391 . S
C2689 C2693 1.376 . S
C2690 C2688 1.394 . S
C2690 C2691 1.369 . S
C2690 C2694 1.531 . S
C2691 C2690 1.369 . S
C2691 C2692 1.410 . S
C2691 C2699 1.503 . S
C2692 C2691 1.410 . S
C2692 C2693 1.392 . S
C2692 C2695 1.511 . S
C2693 C2689 1.376 . S
C2693 C2692 1.392 . S
C2693 H2705 0.929 . S
C2694 C2690 1.531 . S
C2694 H2706 0.960 . S
C2694 H2707 0.962 . S
C2694 H2708 0.960 . S
C2695 C2692 1.511 . S
C2695 H2709 0.961 . S
C2695 H2710 0.961 . S
C2695 H2711 0.961 . S
C2696 C2697 1.370 . S
C2696 C2698 1.363 . S
C2696 H2712 0.931 . S
C2697 C2696 1.370 . S
C2697 C2701 1.408 . S
C2698 C2696 1.363 . S
C2698 C2699 1.370 . S
C2698 C2702 1.524 . S
C2699 C2691 1.503 . S
C2699 C2698 1.370 . S
C2699 C2700 1.403 . S
C2700 C2699 1.403 . S
C2700 C2701 1.404 . S
C2700 C2703 1.539 . S
C2701 C2697 1.408 . S
C2701 C2700 1.404 . S
C2701 H2713 0.930 . S
C2702 C2698 1.524 . S
C2702 H2714 0.956 . S
C2702 H2715 0.961 . S
C2702 H2716 0.961 . S
C2703 C2700 1.539 . S
C2703 H2717 0.958 . S
C2703 H2718 0.961 . S
C2703 H2719 0.960 . S
H2704 C2688 0.931 . S
H2705 C2693 0.929 . S
H2706 C2694 0.960 . S
H2707 C2694 0.962 . S
H2708 C2694 0.960 . S
H2709 C2695 0.961 . S
H2710 C2695 0.961 . S
H2711 C2695 0.961 . S
H2712 C2696 0.931 . S
H2713 C2701 0.930 . S
H2714 C2702 0.956 . S
H2715 C2702 0.961 . S
H2716 C2702 0.961 . S
H2717 C2703 0.958 . S
H2718 C2703 0.961 . S
H2719 C2703 0.960 . S
C2720 C2721 1.391 . S
C2720 C2722 1.394 . S
C2720 H2736 0.931 . S
C2721 C2720 1.391 . S
C2721 C2725 1.376 . S
C2722 C2720 1.394 . S
C2722 C2723 1.369 . S
C2722 C2726 1.531 . S
C2723 C2722 1.369 . S
C2723 C2724 1.410 . S
C2723 C2731 1.503 . S
C2724 C2723 1.410 . S
C2724 C2725 1.392 . S
C2724 C2727 1.511 . S
C2725 C2721 1.376 . S
C2725 C2724 1.392 . S
C2725 H2737 0.929 . S
C2726 C2722 1.531 . S
C2726 H2738 0.960 . S
C2726 H2739 0.962 . S
C2726 H2740 0.960 . S
C2727 C2724 1.511 . S
C2727 H2741 0.961 . S
C2727 H2742 0.961 . S
C2727 H2743 0.961 . S
C2728 C2729 1.370 1_565 S
C2728 C2730 1.363 1_565 S
C2728 H2744 0.931 . S
C2729 C2728 1.370 1_545 S
C2729 C2733 1.408 . S
C2730 C2728 1.363 1_545 S
C2730 C2731 1.370 . S
C2730 C2734 1.524 1_545 S
C2731 C2723 1.503 . S
C2731 C2730 1.370 . S
C2731 C2732 1.403 . S
C2732 C2731 1.403 . S
C2732 C2733 1.404 . S
C2732 C2735 1.539 . S
C2733 C2729 1.408 . S
C2733 C2732 1.404 . S
C2733 H2745 0.930 . S
C2734 C2730 1.524 1_565 S
C2734 H2746 0.956 . S
C2734 H2747 0.961 . S
C2734 H2748 0.961 . S
C2735 C2732 1.539 . S
C2735 H2749 0.958 . S
C2735 H2750 0.961 . S
C2735 H2751 0.960 . S
H2736 C2720 0.931 . S
H2737 C2725 0.929 . S
H2738 C2726 0.960 . S
H2739 C2726 0.962 . S
H2740 C2726 0.960 . S
H2741 C2727 0.961 . S
H2742 C2727 0.961 . S
H2743 C2727 0.961 . S
H2744 C2728 0.931 . S
H2745 C2733 0.930 . S
H2746 C2734 0.956 . S
H2747 C2734 0.961 . S
H2748 C2734 0.961 . S
H2749 C2735 0.958 . S
H2750 C2735 0.961 . S
H2751 C2735 0.960 . S
C2752 C2753 1.391 . S
C2752 C2754 1.394 . S
C2752 H2768 0.931 . S
C2753 C2752 1.391 . S
C2753 C2757 1.376 . S
C2754 C2752 1.394 . S
C2754 C2755 1.369 . S
C2754 C2758 1.531 . S
C2755 C2754 1.369 . S
C2755 C2756 1.410 . S
C2755 C2763 1.503 . S
C2756 C2755 1.410 . S
C2756 C2757 1.392 . S
C2756 C2759 1.511 . S
C2757 C2753 1.376 . S
C2757 C2756 1.392 . S
C2757 H2769 0.929 . S
C2758 C2754 1.531 . S
C2758 H2770 0.960 . S
C2758 H2771 0.962 . S
C2758 H2772 0.960 . S
C2759 C2756 1.511 . S
C2759 H2773 0.961 . S
C2759 H2774 0.961 . S
C2759 H2775 0.961 . S
C2760 C2761 1.370 . S
C2760 C2762 1.363 . S
C2760 H2776 0.931 . S
C2761 C2760 1.370 . S
C2761 C2765 1.408 . S
C2762 C2760 1.363 . S
C2762 C2763 1.370 . S
C2762 C2766 1.524 . S
C2763 C2755 1.503 . S
C2763 C2762 1.370 . S
C2763 C2764 1.403 . S
C2764 C2763 1.403 . S
C2764 C2765 1.404 . S
C2764 C2767 1.539 . S
C2765 C2761 1.408 . S
C2765 C2764 1.404 . S
C2765 H2777 0.930 . S
C2766 C2762 1.524 . S
C2766 H2778 0.956 . S
C2766 H2779 0.961 . S
C2766 H2780 0.961 . S
C2767 C2764 1.539 . S
C2767 H2781 0.958 . S
C2767 H2782 0.961 . S
C2767 H2783 0.960 . S
H2768 C2752 0.931 . S
H2769 C2757 0.929 . S
H2770 C2758 0.960 . S
H2771 C2758 0.962 . S
H2772 C2758 0.960 . S
H2773 C2759 0.961 . S
H2774 C2759 0.961 . S
H2775 C2759 0.961 . S
H2776 C2760 0.931 . S
H2777 C2765 0.930 . S
H2778 C2766 0.956 . S
H2779 C2766 0.961 . S
H2780 C2766 0.961 . S
H2781 C2767 0.958 . S
H2782 C2767 0.961 . S
H2783 C2767 0.960 . S
C2784 C2785 1.391 . S
C2784 C2786 1.394 . S
C2784 H2800 0.931 . S
C2785 C2784 1.391 . S
C2785 C2789 1.376 . S
C2786 C2784 1.394 . S
C2786 C2787 1.369 . S
C2786 C2790 1.531 . S
C2787 C2786 1.369 . S
C2787 C2788 1.410 . S
C2787 C2795 1.503 . S
C2788 C2787 1.410 . S
C2788 C2789 1.392 . S
C2788 C2791 1.511 . S
C2789 C2785 1.376 . S
C2789 C2788 1.392 . S
C2789 H2801 0.929 . S
C2790 C2786 1.531 . S
C2790 H2802 0.960 . S
C2790 H2803 0.962 . S
C2790 H2804 0.960 . S
C2791 C2788 1.511 . S
C2791 H2805 0.961 . S
C2791 H2806 0.961 . S
C2791 H2807 0.961 . S
C2792 C2793 1.370 . S
C2792 C2794 1.363 . S
C2792 H2808 0.931 . S
C2793 C2792 1.370 . S
C2793 C2797 1.408 . S
C2794 C2792 1.363 . S
C2794 C2795 1.370 . S
C2794 C2798 1.524 . S
C2795 C2787 1.503 . S
C2795 C2794 1.370 . S
C2795 C2796 1.403 . S
C2796 C2795 1.403 . S
C2796 C2797 1.404 . S
C2796 C2799 1.539 . S
C2797 C2793 1.408 . S
C2797 C2796 1.404 . S
C2797 H2809 0.921 1_554 S
C2798 C2794 1.524 . S
C2798 H2810 0.956 . S
C2798 H2811 0.961 . S
C2798 H2812 0.961 . S
C2799 C2796 1.539 . S
C2799 H2813 0.958 . S
C2799 H2814 0.961 . S
C2799 H2815 0.960 . S
H2800 C2784 0.931 . S
H2801 C2789 0.929 . S
H2802 C2790 0.960 . S
H2803 C2790 0.962 . S
H2804 C2790 0.960 . S
H2805 C2791 0.961 . S
H2806 C2791 0.961 . S
H2807 C2791 0.961 . S
H2808 C2792 0.931 . S
H2809 C2797 0.921 1_556 S
H2810 C2798 0.956 . S
H2811 C2798 0.961 . S
H2812 C2798 0.961 . S
H2813 C2799 0.958 . S
H2814 C2799 0.961 . S
H2815 C2799 0.960 . S
C2816 C2817 1.391 . S
C2816 C2818 1.394 . S
C2816 H2832 0.931 . S
C2817 C2816 1.391 . S
C2817 C2821 1.376 . S
C2818 C2816 1.394 . S
C2818 C2819 1.369 . S
C2818 C2822 1.531 . S
C2819 C2818 1.369 . S
C2819 C2820 1.410 . S
C2819 C2827 1.503 . S
C2820 C2819 1.410 . S
C2820 C2821 1.392 . S
C2820 C2823 1.511 . S
C2821 C2817 1.376 . S
C2821 C2820 1.392 . S
C2821 H2833 0.929 . S
C2822 C2818 1.531 . S
C2822 H2834 0.960 . S
C2822 H2835 0.962 . S
C2822 H2836 0.960 . S
C2823 C2820 1.511 . S
C2823 H2837 0.961 . S
C2823 H2838 0.961 . S
C2823 H2839 0.961 . S
C2824 C2825 1.370 . S
C2824 C2826 1.363 . S
C2824 H2840 0.931 . S
C2825 C2824 1.370 . S
C2825 C2829 1.408 . S
C2826 C2824 1.363 . S
C2826 C2827 1.370 . S
C2826 C2830 1.524 . S
C2827 C2819 1.503 . S
C2827 C2826 1.370 . S
C2827 C2828 1.403 . S
C2828 C2827 1.403 . S
C2828 C2829 1.404 . S
C2828 C2831 1.539 . S
C2829 C2825 1.408 . S
C2829 C2828 1.404 . S
C2829 H2841 0.930 . S
C2830 C2826 1.524 . S
C2830 H2842 0.956 . S
C2830 H2843 0.961 . S
C2830 H2844 0.942 1_554 S
C2831 C2828 1.539 . S
C2831 H2845 0.958 . S
C2831 H2846 0.961 . S
C2831 H2847 0.960 . S
H2832 C2816 0.931 . S
H2833 C2821 0.929 . S
H2834 C2822 0.960 . S
H2835 C2822 0.962 . S
H2836 C2822 0.960 . S
H2837 C2823 0.961 . S
H2838 C2823 0.961 . S
H2839 C2823 0.961 . S
H2840 C2824 0.931 . S
H2841 C2829 0.930 . S
H2842 C2830 0.956 . S
H2843 C2830 0.961 . S
H2844 C2830 0.942 1_556 S
H2845 C2831 0.958 . S
H2846 C2831 0.961 . S
H2847 C2831 0.960 . S
C2848 C2849 1.391 . S
C2848 C2850 1.394 . S
C2848 H2864 0.931 . S
C2849 C2848 1.391 . S
C2849 C2853 1.376 . S
C2850 C2848 1.394 . S
C2850 C2851 1.369 . S
C2850 C2854 1.531 . S
C2851 C2850 1.369 . S
C2851 C2852 1.410 . S
C2851 C2859 1.503 . S
C2852 C2851 1.410 . S
C2852 C2853 1.392 . S
C2852 C2855 1.511 . S
C2853 C2849 1.376 . S
C2853 C2852 1.392 . S
C2853 H2865 0.929 . S
C2854 C2850 1.531 . S
C2854 H2866 0.960 . S
C2854 H2867 0.962 . S
C2854 H2868 0.960 . S
C2855 C2852 1.511 . S
C2855 H2869 0.961 . S
C2855 H2870 0.961 . S
C2855 H2871 0.961 . S
C2856 C2857 1.370 . S
C2856 C2858 1.363 . S
C2856 H2872 0.931 . S
C2857 C2856 1.370 . S
C2857 C2861 1.408 . S
C2858 C2856 1.363 . S
C2858 C2859 1.370 . S
C2858 C2862 1.524 . S
C2859 C2851 1.503 . S
C2859 C2858 1.370 . S
C2859 C2860 1.403 . S
C2860 C2859 1.403 . S
C2860 C2861 1.404 . S
C2860 C2863 1.539 . S
C2861 C2857 1.408 . S
C2861 C2860 1.404 . S
C2861 H2873 0.930 . S
C2862 C2858 1.524 . S
C2862 H2874 0.956 . S
C2862 H2875 0.961 . S
C2862 H2876 0.961 . S
C2863 C2860 1.539 . S
C2863 H2877 0.958 . S
C2863 H2878 0.961 . S
C2863 H2879 0.960 . S
H2864 C2848 0.931 . S
H2865 C2853 0.929 . S
H2866 C2854 0.960 . S
H2867 C2854 0.962 . S
H2868 C2854 0.960 . S
H2869 C2855 0.961 . S
H2870 C2855 0.961 . S
H2871 C2855 0.961 . S
H2872 C2856 0.931 . S
H2873 C2861 0.930 . S
H2874 C2862 0.956 . S
H2875 C2862 0.961 . S
H2876 C2862 0.961 . S
H2877 C2863 0.958 . S
H2878 C2863 0.961 . S
H2879 C2863 0.960 . S
C2880 C2881 1.391 . S
C2880 C2882 1.394 . S
C2880 H2896 0.931 . S
C2881 C2880 1.391 . S
C2881 C2885 1.376 . S
C2882 C2880 1.394 . S
C2882 C2883 1.369 . S
C2882 C2886 1.531 . S
C2883 C2882 1.369 . S
C2883 C2884 1.410 . S
C2883 C2891 1.503 . S
C2884 C2883 1.410 . S
C2884 C2885 1.392 . S
C2884 C2887 1.511 . S
C2885 C2881 1.376 . S
C2885 C2884 1.392 . S
C2885 H2897 0.929 . S
C2886 C2882 1.531 . S
C2886 H2898 0.960 . S
C2886 H2899 0.962 . S
C2886 H2900 0.960 . S
C2887 C2884 1.511 . S
C2887 H2901 0.961 . S
C2887 H2902 0.961 . S
C2887 H2903 0.961 . S
C2888 C2889 1.370 . S
C2888 C2890 1.363 . S
C2888 H2904 0.931 . S
C2889 C2888 1.370 . S
C2889 C2893 1.408 . S
C2890 C2888 1.363 . S
C2890 C2891 1.370 . S
C2890 C2894 1.524 . S
C2891 C2883 1.503 . S
C2891 C2890 1.370 . S
C2891 C2892 1.403 . S
C2892 C2891 1.403 . S
C2892 C2893 1.404 . S
C2892 C2895 1.539 . S
C2893 C2889 1.408 . S
C2893 C2892 1.404 . S
C2893 H2905 0.930 . S
C2894 C2890 1.524 . S
C2894 H2906 0.956 . S
C2894 H2907 0.961 . S
C2894 H2908 0.961 . S
C2895 C2892 1.539 . S
C2895 H2909 0.958 . S
C2895 H2910 0.961 . S
C2895 H2911 0.960 . S
H2896 C2880 0.931 . S
H2897 C2885 0.929 . S
H2898 C2886 0.960 . S
H2899 C2886 0.962 . S
H2900 C2886 0.960 . S
H2901 C2887 0.961 . S
H2902 C2887 0.961 . S
H2903 C2887 0.961 . S
H2904 C2888 0.931 . S
H2905 C2893 0.930 . S
H2906 C2894 0.956 . S
H2907 C2894 0.961 . S
H2908 C2894 0.961 . S
H2909 C2895 0.958 . S
H2910 C2895 0.961 . S
H2911 C2895 0.960 . S
C2912 C2913 1.391 . S
C2912 C2914 1.394 . S
C2912 H2928 0.931 . S
C2913 C2912 1.391 . S
C2913 C2917 1.376 . S
C2914 C2912 1.394 . S
C2914 C2915 1.369 . S
C2914 C2918 1.531 . S
C2915 C2914 1.369 . S
C2915 C2916 1.410 . S
C2915 C2923 1.503 . S
C2916 C2915 1.410 . S
C2916 C2917 1.392 . S
C2916 C2919 1.511 . S
C2917 C2913 1.376 . S
C2917 C2916 1.392 . S
C2917 H2929 0.929 . S
C2918 C2914 1.531 . S
C2918 H2930 0.960 . S
C2918 H2931 0.962 . S
C2918 H2932 0.960 . S
C2919 C2916 1.511 . S
C2919 H2933 0.961 . S
C2919 H2934 0.961 . S
C2919 H2935 0.961 . S
C2920 C2921 1.370 . S
C2920 C2922 1.363 . S
C2920 H2936 0.931 . S
C2921 C2920 1.370 . S
C2921 C2925 1.408 . S
C2922 C2920 1.363 . S
C2922 C2923 1.370 . S
C2922 C2926 1.524 . S
C2923 C2915 1.503 . S
C2923 C2922 1.370 . S
C2923 C2924 1.403 . S
C2924 C2923 1.403 . S
C2924 C2925 1.404 . S
C2924 C2927 1.539 . S
C2925 C2921 1.408 . S
C2925 C2924 1.404 . S
C2925 H2937 0.930 . S
C2926 C2922 1.524 . S
C2926 H2938 0.956 . S
C2926 H2939 0.961 . S
C2926 H2940 0.961 . S
C2927 C2924 1.539 . S
C2927 H2941 0.958 . S
C2927 H2942 0.961 . S
C2927 H2943 0.960 . S
H2928 C2912 0.931 . S
H2929 C2917 0.929 . S
H2930 C2918 0.960 . S
H2931 C2918 0.962 . S
H2932 C2918 0.960 . S
H2933 C2919 0.961 . S
H2934 C2919 0.961 . S
H2935 C2919 0.961 . S
H2936 C2920 0.931 . S
H2937 C2925 0.930 . S
H2938 C2926 0.956 . S
H2939 C2926 0.961 . S
H2940 C2926 0.961 . S
H2941 C2927 0.958 . S
H2942 C2927 0.961 . S
H2943 C2927 0.960 . S
C2944 C2945 1.391 . S
C2944 C2946 1.394 . S
C2944 H2960 0.931 . S
C2945 C2944 1.391 . S
C2945 C2949 1.376 . S
C2946 C2944 1.394 . S
C2946 C2947 1.369 . S
C2946 C2950 1.531 . S
C2947 C2946 1.369 . S
C2947 C2948 1.410 . S
C2947 C2955 1.503 . S
C2948 C2947 1.410 . S
C2948 C2949 1.392 . S
C2948 C2951 1.511 . S
C2949 C2945 1.376 . S
C2949 C2948 1.392 . S
C2949 H2961 0.929 . S
C2950 C2946 1.531 . S
C2950 H2962 0.960 . S
C2950 H2963 0.962 . S
C2950 H2964 0.960 . S
C2951 C2948 1.511 . S
C2951 H2965 0.961 . S
C2951 H2966 0.961 . S
C2951 H2967 0.961 . S
C2952 C2953 1.370 . S
C2952 C2954 1.363 . S
C2952 H2968 0.931 . S
C2953 C2952 1.370 . S
C2953 C2957 1.408 . S
C2954 C2952 1.363 . S
C2954 C2955 1.370 . S
C2954 C2958 1.524 . S
C2955 C2947 1.503 . S
C2955 C2954 1.370 . S
C2955 C2956 1.403 . S
C2956 C2955 1.403 . S
C2956 C2957 1.404 . S
C2956 C2959 1.539 . S
C2957 C2953 1.408 . S
C2957 C2956 1.404 . S
C2957 H2969 0.930 . S
C2958 C2954 1.524 . S
C2958 H2970 0.956 . S
C2958 H2971 0.961 . S
C2958 H2972 0.961 . S
C2959 C2956 1.539 . S
C2959 H2973 0.958 . S
C2959 H2974 0.961 . S
C2959 H2975 0.960 . S
H2960 C2944 0.931 . S
H2961 C2949 0.929 . S
H2962 C2950 0.960 . S
H2963 C2950 0.962 . S
H2964 C2950 0.960 . S
H2965 C2951 0.961 . S
H2966 C2951 0.961 . S
H2967 C2951 0.961 . S
H2968 C2952 0.931 . S
H2969 C2957 0.930 . S
H2970 C2958 0.956 . S
H2971 C2958 0.961 . S
H2972 C2958 0.961 . S
H2973 C2959 0.958 . S
H2974 C2959 0.961 . S
H2975 C2959 0.960 . S
C2976 C2977 1.391 . S
C2976 C2978 1.394 . S
C2976 H2992 0.931 . S
C2977 C2976 1.391 . S
C2977 C2981 1.376 . S
C2978 C2976 1.394 . S
C2978 C2979 1.369 . S
C2978 C2982 1.531 . S
C2979 C2978 1.369 . S
C2979 C2980 1.410 . S
C2979 C2987 1.503 . S
C2980 C2979 1.410 . S
C2980 C2981 1.392 . S
C2980 C2983 1.511 . S
C2981 C2977 1.376 . S
C2981 C2980 1.392 . S
C2981 H2993 0.929 . S
C2982 C2978 1.531 . S
C2982 H2994 0.960 . S
C2982 H2995 0.962 . S
C2982 H2996 0.960 . S
C2983 C2980 1.511 . S
C2983 H2997 0.961 . S
C2983 H2998 0.961 . S
C2983 H2999 0.961 . S
C2984 C2985 1.370 . S
C2984 C2986 1.363 . S
C2984 H3000 0.931 . S
C2985 C2984 1.370 . S
C2985 C2989 1.408 . S
C2986 C2984 1.363 . S
C2986 C2987 1.370 . S
C2986 C2990 1.524 . S
C2987 C2979 1.503 . S
C2987 C2986 1.370 . S
C2987 C2988 1.403 . S
C2988 C2987 1.403 . S
C2988 C2989 1.404 . S
C2988 C2991 1.539 . S
C2989 C2985 1.408 . S
C2989 C2988 1.404 . S
C2989 H3001 0.930 . S
C2990 C2986 1.524 . S
C2990 H3002 0.956 . S
C2990 H3003 0.961 . S
C2990 H3004 0.961 . S
C2991 C2988 1.539 . S
C2991 H3005 0.958 . S
C2991 H3006 0.961 . S
C2991 H3007 0.960 . S
H2992 C2976 0.931 . S
H2993 C2981 0.929 . S
H2994 C2982 0.960 . S
H2995 C2982 0.962 . S
H2996 C2982 0.960 . S
H2997 C2983 0.961 . S
H2998 C2983 0.961 . S
H2999 C2983 0.961 . S
H3000 C2984 0.931 . S
H3001 C2989 0.930 . S
H3002 C2990 0.956 . S
H3003 C2990 0.961 . S
H3004 C2990 0.961 . S
H3005 C2991 0.958 . S
H3006 C2991 0.961 . S
H3007 C2991 0.960 . S
C3008 C3009 1.391 . S
C3008 C3010 1.394 . S
C3008 H3024 0.931 . S
C3009 C3008 1.391 . S
C3009 C3013 1.376 . S
C3010 C3008 1.394 . S
C3010 C3011 1.369 . S
C3010 C3014 1.531 . S
C3011 C3010 1.369 . S
C3011 C3012 1.410 . S
C3011 C3019 1.503 . S
C3012 C3011 1.410 . S
C3012 C3013 1.392 . S
C3012 C3015 1.511 . S
C3013 C3009 1.376 . S
C3013 C3012 1.392 . S
C3013 H3025 0.929 . S
C3014 C3010 1.531 . S
C3014 H3026 0.960 . S
C3014 H3027 0.962 . S
C3014 H3028 0.960 . S
C3015 C3012 1.511 . S
C3015 H3029 0.961 . S
C3015 H3030 0.961 . S
C3015 H3031 0.961 . S
C3016 C3017 1.370 . S
C3016 C3018 1.363 . S
C3016 H3032 0.931 . S
C3017 C3016 1.370 . S
C3017 C3021 1.408 . S
C3018 C3016 1.363 . S
C3018 C3019 1.370 . S
C3018 C3022 1.524 . S
C3019 C3011 1.503 . S
C3019 C3018 1.370 . S
C3019 C3020 1.403 . S
C3020 C3019 1.403 . S
C3020 C3021 1.404 . S
C3020 C3023 1.539 . S
C3021 C3017 1.408 . S
C3021 C3020 1.404 . S
C3021 H3033 0.930 . S
C3022 C3018 1.524 . S
C3022 H3034 0.956 . S
C3022 H3035 0.961 . S
C3022 H3036 0.961 . S
C3023 C3020 1.539 . S
C3023 H3037 0.958 . S
C3023 H3038 0.961 . S
C3023 H3039 0.960 . S
H3024 C3008 0.931 . S
H3025 C3013 0.929 . S
H3026 C3014 0.960 . S
H3027 C3014 0.962 . S
H3028 C3014 0.960 . S
H3029 C3015 0.961 . S
H3030 C3015 0.961 . S
H3031 C3015 0.961 . S
H3032 C3016 0.931 . S
H3033 C3021 0.930 . S
H3034 C3022 0.956 . S
H3035 C3022 0.961 . S
H3036 C3022 0.961 . S
H3037 C3023 0.958 . S
H3038 C3023 0.961 . S
H3039 C3023 0.960 . S
C3040 C3041 1.391 . S
C3040 C3042 1.394 . S
C3040 H3056 0.931 . S
C3041 C3040 1.391 . S
C3041 C3045 1.376 . S
C3042 C3040 1.394 . S
C3042 C3043 1.369 . S
C3042 C3046 1.531 . S
C3043 C3042 1.369 . S
C3043 C3044 1.410 . S
C3043 C3051 1.503 . S
C3044 C3043 1.410 . S
C3044 C3045 1.392 . S
C3044 C3047 1.511 . S
C3045 C3041 1.376 . S
C3045 C3044 1.392 . S
C3045 H3057 0.929 . S
C3046 C3042 1.531 . S
C3046 H3058 0.960 . S
C3046 H3059 0.962 . S
C3046 H3060 0.960 . S
C3047 C3044 1.511 . S
C3047 H3061 0.961 . S
C3047 H3062 0.961 . S
C3047 H3063 0.961 . S
C3048 C3049 1.370 . S
C3048 C3050 1.363 . S
C3048 H3064 0.931 . S
C3049 C3048 1.370 . S
C3049 C3053 1.408 . S
C3050 C3048 1.363 . S
C3050 C3051 1.370 . S
C3050 C3054 1.524 . S
C3051 C3043 1.503 . S
C3051 C3050 1.370 . S
C3051 C3052 1.403 . S
C3052 C3051 1.403 . S
C3052 C3053 1.404 . S
C3052 C3055 1.539 . S
C3053 C3049 1.408 . S
C3053 C3052 1.404 . S
C3053 H3065 0.930 . S
C3054 C3050 1.524 . S
C3054 H3066 0.956 . S
C3054 H3067 0.961 . S
C3054 H3068 0.961 . S
C3055 C3052 1.539 . S
C3055 H3069 0.958 . S
C3055 H3070 0.961 . S
C3055 H3071 0.960 . S
H3056 C3040 0.931 . S
H3057 C3045 0.929 . S
H3058 C3046 0.960 . S
H3059 C3046 0.962 . S
H3060 C3046 0.960 . S
H3061 C3047 0.961 . S
H3062 C3047 0.961 . S
H3063 C3047 0.961 . S
H3064 C3048 0.931 . S
H3065 C3053 0.930 . S
H3066 C3054 0.956 . S
H3067 C3054 0.961 . S
H3068 C3054 0.961 . S
H3069 C3055 0.958 . S
H3070 C3055 0.961 . S
H3071 C3055 0.960 . S
C3072 C3073 1.391 . S
C3072 C3074 1.394 . S
C3072 H3088 0.931 . S
C3073 C3072 1.391 . S
C3073 C3077 1.376 . S
C3074 C3072 1.394 . S
C3074 C3075 1.369 . S
C3074 C3078 1.531 . S
C3075 C3074 1.369 . S
C3075 C3076 1.410 . S
C3075 C3083 1.503 . S
C3076 C3075 1.410 . S
C3076 C3077 1.392 . S
C3076 C3079 1.511 . S
C3077 C3073 1.376 . S
C3077 C3076 1.392 . S
C3077 H3089 0.929 . S
C3078 C3074 1.531 . S
C3078 H3090 0.960 . S
C3078 H3091 0.962 . S
C3078 H3092 0.960 . S
C3079 C3076 1.511 . S
C3079 H3093 0.961 . S
C3079 H3094 0.961 . S
C3079 H3095 0.961 . S
C3080 C3081 1.370 . S
C3080 C3082 1.363 . S
C3080 H3096 0.931 . S
C3081 C3080 1.370 . S
C3081 C3085 1.408 . S
C3082 C3080 1.363 . S
C3082 C3083 1.370 . S
C3082 C3086 1.524 . S
C3083 C3075 1.503 . S
C3083 C3082 1.370 . S
C3083 C3084 1.403 . S
C3084 C3083 1.403 . S
C3084 C3085 1.404 . S
C3084 C3087 1.539 . S
C3085 C3081 1.408 . S
C3085 C3084 1.404 . S
C3085 H3097 0.930 . S
C3086 C3082 1.524 . S
C3086 H3098 0.956 . S
C3086 H3099 0.961 . S
C3086 H3100 0.961 . S
C3087 C3084 1.539 . S
C3087 H3101 0.958 . S
C3087 H3102 0.961 . S
C3087 H3103 0.960 . S
H3088 C3072 0.931 . S
H3089 C3077 0.929 . S
H3090 C3078 0.960 . S
H3091 C3078 0.962 . S
H3092 C3078 0.960 . S
H3093 C3079 0.961 . S
H3094 C3079 0.961 . S
H3095 C3079 0.961 . S
H3096 C3080 0.931 . S
H3097 C3085 0.930 . S
H3098 C3086 0.956 . S
H3099 C3086 0.961 . S
H3100 C3086 0.961 . S
H3101 C3087 0.958 . S
H3102 C3087 0.961 . S
H3103 C3087 0.960 . S
C3104 C3105 1.391 . S
C3104 C3106 1.394 . S
C3104 H3120 0.931 . S
C3105 C3104 1.391 . S
C3105 C3109 1.376 1_455 S
C3106 C3104 1.394 . S
C3106 C3107 1.369 . S
C3106 C3110 1.531 . S
C3107 C3106 1.369 . S
C3107 C3108 1.410 1_455 S
C3107 C3115 1.503 . S
C3108 C3107 1.410 1_655 S
C3108 C3109 1.392 . S
C3108 C3111 1.511 . S
C3109 C3105 1.376 1_655 S
C3109 C3108 1.392 . S
C3109 H3121 0.929 . S
C3110 C3106 1.531 . S
C3110 H3122 0.960 . S
C3110 H3123 0.962 . S
C3110 H3124 0.960 . S
C3111 C3108 1.511 . S
C3111 H3125 0.961 1_556 S
C3111 H3126 0.961 1_556 S
C3111 H3127 0.961 . S
C3112 C3113 1.370 . S
C3112 C3114 1.363 . S
C3112 H3128 0.931 . S
C3113 C3112 1.370 . S
C3113 C3117 1.408 1_554 S
C3114 C3112 1.363 . S
C3114 C3115 1.370 1_554 S
C3114 C3118 1.524 . S
C3115 C3107 1.503 . S
C3115 C3114 1.370 1_556 S
C3115 C3116 1.403 . S
C3116 C3115 1.403 . S
C3116 C3117 1.404 . S
C3116 C3119 1.539 1_455 S
C3117 C3113 1.408 1_556 S
C3117 C3116 1.404 . S
C3117 H3129 0.930 . S
C3118 C3114 1.524 . S
C3118 H3130 0.956 . S
C3118 H3131 0.961 . S
C3118 H3132 0.961 . S
C3119 C3116 1.539 1_655 S
C3119 H3133 0.958 1_655 S
C3119 H3134 0.961 . S
C3119 H3135 0.960 . S
H3120 C3104 0.931 . S
H3121 C3109 0.929 . S
H3122 C3110 0.960 . S
H3123 C3110 0.962 . S
H3124 C3110 0.960 . S
H3125 C3111 0.961 1_554 S
H3126 C3111 0.961 1_554 S
H3127 C3111 0.961 . S
H3128 C3112 0.931 . S
H3129 C3117 0.930 . S
H3130 C3118 0.956 . S
H3131 C3118 0.961 . S
H3132 C3118 0.961 . S
H3133 C3119 0.958 1_455 S
H3134 C3119 0.961 . S
H3135 C3119 0.960 . S
C3136 C3137 1.391 . S
C3136 C3138 1.394 . S
C3136 H3152 0.931 1_655 S
C3137 C3136 1.391 . S
C3137 C3141 1.376 . S
C3138 C3136 1.394 . S
C3138 C3139 1.369 . S
C3138 C3142 1.531 . S
C3139 C3138 1.369 . S
C3139 C3140 1.410 . S
C3139 C3147 1.503 . S
C3140 C3139 1.410 . S
C3140 C3141 1.392 . S
C3140 C3143 1.511 . S
C3141 C3137 1.376 . S
C3141 C3140 1.392 . S
C3141 H3153 0.929 . S
C3142 C3138 1.531 . S
C3142 H3154 0.960 . S
C3142 H3155 0.962 . S
C3142 H3156 0.960 . S
C3143 C3140 1.511 . S
C3143 H3157 0.961 . S
C3143 H3158 0.961 . S
C3143 H3159 0.961 . S
C3144 C3145 1.370 . S
C3144 C3146 1.363 . S
C3144 H3160 0.931 . S
C3145 C3144 1.370 . S
C3145 C3149 1.408 . S
C3146 C3144 1.363 . S
C3146 C3147 1.370 . S
C3146 C3150 1.524 . S
C3147 C3139 1.503 . S
C3147 C3146 1.370 . S
C3147 C3148 1.403 . S
C3148 C3147 1.403 . S
C3148 C3149 1.404 . S
C3148 C3151 1.539 . S
C3149 C3145 1.408 . S
C3149 C3148 1.404 . S
C3149 H3161 0.930 . S
C3150 C3146 1.524 . S
C3150 H3162 0.956 . S
C3150 H3163 0.961 . S
C3150 H3164 0.961 . S
C3151 C3148 1.539 . S
C3151 H3165 0.958 . S
C3151 H3166 0.961 . S
C3151 H3167 0.960 . S
H3152 C3136 0.931 1_455 S
H3153 C3141 0.929 . S
H3154 C3142 0.960 . S
H3155 C3142 0.962 . S
H3156 C3142 0.960 . S
H3157 C3143 0.961 . S
H3158 C3143 0.961 . S
H3159 C3143 0.961 . S
H3160 C3144 0.931 . S
H3161 C3149 0.930 . S
H3162 C3150 0.956 . S
H3163 C3150 0.961 . S
H3164 C3150 0.961 . S
H3165 C3151 0.958 . S
H3166 C3151 0.961 . S
H3167 C3151 0.960 . S
C3168 C3169 1.391 . S
C3168 C3170 1.394 . S
C3168 H3184 0.931 . S
C3169 C3168 1.391 . S
C3169 C3173 1.376 . S
C3170 C3168 1.394 . S
C3170 C3171 1.369 . S
C3170 C3174 1.531 . S
C3171 C3170 1.369 . S
C3171 C3172 1.410 . S
C3171 C3179 1.503 . S
C3172 C3171 1.410 . S
C3172 C3173 1.392 . S
C3172 C3175 1.511 . S
C3173 C3169 1.376 . S
C3173 C3172 1.392 . S
C3173 H3185 0.929 . S
C3174 C3170 1.531 . S
C3174 H3186 0.960 . S
C3174 H3187 0.962 . S
C3174 H3188 0.960 . S
C3175 C3172 1.511 . S
C3175 H3189 0.961 . S
C3175 H3190 0.961 . S
C3175 H3191 0.961 . S
C3176 C3177 1.370 . S
C3176 C3178 1.363 . S
C3176 H3192 0.931 . S
C3177 C3176 1.370 . S
C3177 C3181 1.408 . S
C3178 C3176 1.363 . S
C3178 C3179 1.370 . S
C3178 C3182 1.524 . S
C3179 C3171 1.503 . S
C3179 C3178 1.370 . S
C3179 C3180 1.403 . S
C3180 C3179 1.403 . S
C3180 C3181 1.404 . S
C3180 C3183 1.539 . S
C3181 C3177 1.408 . S
C3181 C3180 1.404 . S
C3181 H3193 0.930 . S
C3182 C3178 1.524 . S
C3182 H3194 0.956 . S
C3182 H3195 0.961 . S
C3182 H3196 0.961 . S
C3183 C3180 1.539 . S
C3183 H3197 0.958 . S
C3183 H3198 0.961 . S
C3183 H3199 0.960 . S
H3184 C3168 0.931 . S
H3185 C3173 0.929 . S
H3186 C3174 0.960 . S
H3187 C3174 0.962 . S
H3188 C3174 0.960 . S
H3189 C3175 0.961 . S
H3190 C3175 0.961 . S
H3191 C3175 0.961 . S
H3192 C3176 0.931 . S
H3193 C3181 0.930 . S
H3194 C3182 0.956 . S
H3195 C3182 0.961 . S
H3196 C3182 0.961 . S
H3197 C3183 0.958 . S
H3198 C3183 0.961 . S
H3199 C3183 0.960 . S
C3200 C3201 1.391 1_655 S
C3200 C3202 1.394 . S
C3200 H3216 0.931 . S
C3201 C3200 1.391 1_455 S
C3201 C3205 1.376 . S
C3202 C3200 1.394 . S
C3202 C3203 1.369 . S
C3202 C3206 1.531 . S
C3203 C3202 1.369 . S
C3203 C3204 1.410 . S
C3203 C3211 1.503 . S
C3204 C3203 1.410 . S
C3204 C3205 1.392 1_655 S
C3204 C3207 1.511 . S
C3205 C3201 1.376 . S
C3205 C3204 1.392 1_455 S
C3205 H3217 0.929 . S
C3206 C3202 1.531 . S
C3206 H3218 0.960 . S
C3206 H3219 0.962 . S
C3206 H3220 0.960 . S
C3207 C3204 1.511 . S
C3207 H3221 0.961 . S
C3207 H3222 0.961 . S
C3207 H3223 0.961 . S
C3208 C3209 1.370 . S
C3208 C3210 1.363 . S
C3208 H3224 0.931 . S
C3209 C3208 1.370 . S
C3209 C3213 1.408 . S
C3210 C3208 1.363 . S
C3210 C3211 1.370 . S
C3210 C3214 1.524 . S
C3211 C3203 1.503 . S
C3211 C3210 1.370 . S
C3211 C3212 1.403 . S
C3212 C3211 1.403 . S
C3212 C3213 1.404 . S
C3212 C3215 1.539 . S
C3213 C3209 1.408 . S
C3213 C3212 1.404 . S
C3213 H3225 0.930 . S
C3214 C3210 1.524 . S
C3214 H3226 0.956 . S
C3214 H3227 0.961 . S
C3214 H3228 0.961 . S
C3215 C3212 1.539 . S
C3215 H3229 0.958 . S
C3215 H3230 0.961 . S
C3215 H3231 0.960 . S
H3216 C3200 0.931 . S
H3217 C3205 0.929 . S
H3218 C3206 0.960 . S
H3219 C3206 0.962 . S
H3220 C3206 0.960 . S
H3221 C3207 0.961 . S
H3222 C3207 0.961 . S
H3223 C3207 0.961 . S
H3224 C3208 0.931 . S
H3225 C3213 0.930 . S
H3226 C3214 0.956 . S
H3227 C3214 0.961 . S
H3228 C3214 0.961 . S
H3229 C3215 0.958 . S
H3230 C3215 0.961 . S
H3231 C3215 0.960 . S
C3232 C3233 1.391 . S
C3232 C3234 1.394 . S
C3232 H3248 0.931 . S
C3233 C3232 1.391 . S
C3233 C3237 1.376 1_455 S
C3234 C3232 1.394 . S
C3234 C3235 1.369 . S
C3234 C3238 1.531 . S
C3235 C3234 1.369 . S
C3235 C3236 1.410 1_455 S
C3235 C3243 1.503 . S
C3236 C3235 1.410 1_655 S
C3236 C3237 1.392 . S
C3236 C3239 1.511 . S
C3237 C3233 1.376 1_655 S
C3237 C3236 1.392 . S
C3237 H3249 0.929 . S
C3238 C3234 1.531 . S
C3238 H3250 0.960 . S
C3238 H3251 0.962 . S
C3238 H3252 0.960 . S
C3239 C3236 1.511 . S
C3239 H3253 0.961 . S
C3239 H3254 0.961 . S
C3239 H3255 0.961 . S
C3240 C3241 1.370 . S
C3240 C3242 1.363 . S
C3240 H3256 0.931 . S
C3241 C3240 1.370 . S
C3241 C3245 1.408 . S
C3242 C3240 1.363 . S
C3242 C3243 1.370 . S
C3242 C3246 1.524 . S
C3243 C3235 1.503 . S
C3243 C3242 1.370 . S
C3243 C3244 1.403 . S
C3244 C3243 1.403 . S
C3244 C3245 1.404 . S
C3244 C3247 1.551 . S
C3245 C3241 1.408 . S
C3245 C3244 1.404 . S
C3245 H3257 0.930 . S
C3246 C3242 1.524 . S
C3246 H3258 0.956 . S
C3246 H3259 0.961 . S
C3246 H3260 0.961 . S
C3247 C3244 1.551 . S
C3247 H3261 0.969 . S
C3247 H3262 0.954 1_455 S
C3247 H3263 0.945 1_455 S
H3248 C3232 0.931 . S
H3249 C3237 0.929 . S
H3250 C3238 0.960 . S
H3251 C3238 0.962 . S
H3252 C3238 0.960 . S
H3253 C3239 0.961 . S
H3254 C3239 0.961 . S
H3255 C3239 0.961 . S
H3256 C3240 0.931 . S
H3257 C3245 0.930 . S
H3258 C3246 0.956 . S
H3259 C3246 0.961 . S
H3260 C3246 0.961 . S
H3261 C3247 0.969 . S
H3262 C3247 0.954 1_655 S
H3263 C3247 0.945 1_655 S
C3264 C3265 1.391 . S
C3264 C3266 1.394 . S
C3264 H3280 0.931 . S
C3265 C3264 1.391 . S
C3265 C3269 1.376 . S
C3266 C3264 1.394 . S
C3266 C3267 1.369 . S
C3266 C3270 1.531 . S
C3267 C3266 1.369 . S
C3267 C3268 1.410 . S
C3267 C3275 1.503 . S
C3268 C3267 1.410 . S
C3268 C3269 1.392 . S
C3268 C3271 1.511 . S
C3269 C3265 1.376 . S
C3269 C3268 1.392 . S
C3269 H3281 0.929 . S
C3270 C3266 1.531 . S
C3270 H3282 0.960 . S
C3270 H3283 0.962 . S
C3270 H3284 0.960 . S
C3271 C3268 1.511 . S
C3271 H3285 0.961 . S
C3271 H3286 0.961 . S
C3271 H3287 0.961 . S
C3272 C3273 1.370 . S
C3272 C3274 1.363 . S
C3272 H3288 0.931 . S
C3273 C3272 1.370 . S
C3273 C3277 1.408 . S
C3274 C3272 1.363 . S
C3274 C3275 1.370 . S
C3274 C3278 1.524 . S
C3275 C3267 1.503 . S
C3275 C3274 1.370 . S
C3275 C3276 1.403 . S
C3276 C3275 1.403 . S
C3276 C3277 1.404 . S
C3276 C3279 1.539 . S
C3277 C3273 1.408 . S
C3277 C3276 1.404 . S
C3277 H3289 0.930 . S
C3278 C3274 1.524 . S
C3278 H3290 0.956 . S
C3278 H3291 0.961 . S
C3278 H3292 0.961 . S
C3279 C3276 1.539 . S
C3279 H3293 0.958 . S
C3279 H3294 0.961 . S
C3279 H3295 0.960 . S
H3280 C3264 0.931 . S
H3281 C3269 0.929 . S
H3282 C3270 0.960 . S
H3283 C3270 0.962 . S
H3284 C3270 0.960 . S
H3285 C3271 0.961 . S
H3286 C3271 0.961 . S
H3287 C3271 0.961 . S
H3288 C3272 0.931 . S
H3289 C3277 0.930 . S
H3290 C3278 0.956 . S
H3291 C3278 0.961 . S
H3292 C3278 0.961 . S
H3293 C3279 0.958 . S
H3294 C3279 0.961 . S
H3295 C3279 0.960 . S
C3296 C3297 1.391 . S
C3296 C3298 1.394 . S
C3296 H3312 0.931 . S
C3297 C3296 1.391 . S
C3297 C3301 1.376 . S
C3298 C3296 1.394 . S
C3298 C3299 1.369 . S
C3298 C3302 1.531 . S
C3299 C3298 1.369 . S
C3299 C3300 1.410 . S
C3299 C3307 1.503 . S
C3300 C3299 1.410 . S
C3300 C3301 1.392 . S
C3300 C3303 1.511 . S
C3301 C3297 1.376 . S
C3301 C3300 1.392 . S
C3301 H3313 0.929 . S
C3302 C3298 1.531 . S
C3302 H3314 0.960 . S
C3302 H3315 0.962 . S
C3302 H3316 0.960 . S
C3303 C3300 1.511 . S
C3303 H3317 0.961 . S
C3303 H3318 0.961 . S
C3303 H3319 0.961 . S
C3304 C3305 1.370 . S
C3304 C3306 1.363 . S
C3304 H3320 0.931 . S
C3305 C3304 1.370 . S
C3305 C3309 1.408 . S
C3306 C3304 1.363 . S
C3306 C3307 1.370 . S
C3306 C3310 1.524 . S
C3307 C3299 1.503 . S
C3307 C3306 1.370 . S
C3307 C3308 1.403 . S
C3308 C3307 1.403 . S
C3308 C3309 1.404 . S
C3308 C3311 1.539 . S
C3309 C3305 1.408 . S
C3309 C3308 1.404 . S
C3309 H3321 0.930 . S
C3310 C3306 1.524 . S
C3310 H3322 0.956 . S
C3310 H3323 0.961 . S
C3310 H3324 0.961 . S
C3311 C3308 1.539 . S
C3311 H3325 0.958 . S
C3311 H3326 0.961 . S
C3311 H3327 0.960 . S
H3312 C3296 0.931 . S
H3313 C3301 0.929 . S
H3314 C3302 0.960 . S
H3315 C3302 0.962 . S
H3316 C3302 0.960 . S
H3317 C3303 0.961 . S
H3318 C3303 0.961 . S
H3319 C3303 0.961 . S
H3320 C3304 0.931 . S
H3321 C3309 0.930 . S
H3322 C3310 0.956 . S
H3323 C3310 0.961 . S
H3324 C3310 0.961 . S
H3325 C3311 0.958 . S
H3326 C3311 0.961 . S
H3327 C3311 0.960 . S
C3328 C3329 1.391 . S
C3328 C3330 1.394 . S
C3328 H3344 0.931 . S
C3329 C3328 1.391 . S
C3329 C3333 1.376 . S
C3330 C3328 1.394 . S
C3330 C3331 1.369 1_554 S
C3330 C3334 1.531 . S
C3331 C3330 1.369 1_556 S
C3331 C3332 1.410 . S
C3331 C3339 1.503 . S
C3332 C3331 1.410 . S
C3332 C3333 1.392 1_556 S
C3332 C3335 1.511 . S
C3333 C3329 1.376 . S
C3333 C3332 1.392 1_554 S
C3333 H3345 0.929 . S
C3334 C3330 1.531 . S
C3334 H3346 0.960 1_554 S
C3334 H3347 0.962 . S
C3334 H3348 0.960 . S
C3335 C3332 1.511 . S
C3335 H3349 0.961 . S
C3335 H3350 0.961 . S
C3335 H3351 0.961 . S
C3336 C3337 1.370 . S
C3336 C3338 1.363 . S
C3336 H3352 0.931 . S
C3337 C3336 1.370 . S
C3337 C3341 1.408 . S
C3338 C3336 1.363 . S
C3338 C3339 1.370 . S
C3338 C3342 1.524 . S
C3339 C3331 1.503 . S
C3339 C3338 1.370 . S
C3339 C3340 1.403 . S
C3340 C3339 1.403 . S
C3340 C3341 1.404 . S
C3340 C3343 1.539 . S
C3341 C3337 1.408 . S
C3341 C3340 1.404 . S
C3341 H3353 0.930 . S
C3342 C3338 1.524 . S
C3342 H3354 0.956 . S
C3342 H3355 0.961 . S
C3342 H3356 0.961 . S
C3343 C3340 1.539 . S
C3343 H3357 0.958 . S
C3343 H3358 0.961 . S
C3343 H3359 0.960 . S
H3344 C3328 0.931 . S
H3345 C3333 0.929 . S
H3346 C3334 0.960 1_556 S
H3347 C3334 0.962 . S
H3348 C3334 0.960 . S
H3349 C3335 0.961 . S
H3350 C3335 0.961 . S
H3351 C3335 0.961 . S
H3352 C3336 0.931 . S
H3353 C3341 0.930 . S
H3354 C3342 0.956 . S
H3355 C3342 0.961 . S
H3356 C3342 0.961 . S
H3357 C3343 0.958 . S
H3358 C3343 0.961 . S
H3359 C3343 0.960 . S
C3360 C3361 1.391 . S
C3360 C3362 1.394 . S
C3360 H3376 0.931 . S
C3361 C3360 1.391 . S
C3361 C3365 1.376 . S
C3362 C3360 1.394 . S
C3362 C3363 1.369 . S
C3362 C3366 1.531 . S
C3363 C3362 1.369 . S
C3363 C3364 1.410 . S
C3363 C3371 1.503 . S
C3364 C3363 1.410 . S
C3364 C3365 1.392 . S
C3364 C3367 1.511 . S
C3365 C3361 1.376 . S
C3365 C3364 1.392 . S
C3365 H3377 0.929 . S
C3366 C3362 1.531 . S
C3366 H3378 0.960 . S
C3366 H3379 0.962 . S
C3366 H3380 0.960 . S
C3367 C3364 1.511 . S
C3367 H3381 0.961 . S
C3367 H3382 0.961 . S
C3367 H3383 0.961 . S
C3368 C3369 1.370 . S
C3368 C3370 1.363 . S
C3368 H3384 0.931 . S
C3369 C3368 1.370 . S
C3369 C3373 1.408 . S
C3370 C3368 1.363 . S
C3370 C3371 1.370 . S
C3370 C3374 1.524 . S
C3371 C3363 1.503 . S
C3371 C3370 1.370 . S
C3371 C3372 1.403 . S
C3372 C3371 1.403 . S
C3372 C3373 1.404 . S
C3372 C3375 1.539 . S
C3373 C3369 1.408 . S
C3373 C3372 1.404 . S
C3373 H3385 0.930 . S
C3374 C3370 1.524 . S
C3374 H3386 0.956 . S
C3374 H3387 0.961 . S
C3374 H3388 0.961 . S
C3375 C3372 1.539 . S
C3375 H3389 0.958 . S
C3375 H3390 0.961 . S
C3375 H3391 0.960 . S
H3376 C3360 0.931 . S
H3377 C3365 0.929 . S
H3378 C3366 0.960 . S
H3379 C3366 0.962 . S
H3380 C3366 0.960 . S
H3381 C3367 0.961 . S
H3382 C3367 0.961 . S
H3383 C3367 0.961 . S
H3384 C3368 0.931 . S
H3385 C3373 0.930 . S
H3386 C3374 0.956 . S
H3387 C3374 0.961 . S
H3388 C3374 0.961 . S
H3389 C3375 0.958 . S
H3390 C3375 0.961 . S
H3391 C3375 0.960 . S
C3392 C3393 1.391 . S
C3392 C3394 1.394 . S
C3392 H3408 0.931 . S
C3393 C3392 1.391 . S
C3393 C3397 1.376 . S
C3394 C3392 1.394 . S
C3394 C3395 1.369 . S
C3394 C3398 1.531 . S
C3395 C3394 1.369 . S
C3395 C3396 1.410 . S
C3395 C3403 1.503 . S
C3396 C3395 1.410 . S
C3396 C3397 1.392 . S
C3396 C3399 1.511 . S
C3397 C3393 1.376 . S
C3397 C3396 1.392 . S
C3397 H3409 0.929 . S
C3398 C3394 1.531 . S
C3398 H3410 0.960 . S
C3398 H3411 0.962 . S
C3398 H3412 0.960 . S
C3399 C3396 1.511 . S
C3399 H3413 0.961 . S
C3399 H3414 0.961 . S
C3399 H3415 0.961 . S
C3400 C3401 1.370 . S
C3400 C3402 1.363 . S
C3400 H3416 0.931 . S
C3401 C3400 1.370 . S
C3401 C3405 1.408 . S
C3402 C3400 1.363 . S
C3402 C3403 1.370 . S
C3402 C3406 1.524 . S
C3403 C3395 1.503 . S
C3403 C3402 1.370 . S
C3403 C3404 1.403 . S
C3404 C3403 1.403 . S
C3404 C3405 1.404 . S
C3404 C3407 1.539 . S
C3405 C3401 1.408 . S
C3405 C3404 1.404 . S
C3405 H3417 0.930 . S
C3406 C3402 1.524 . S
C3406 H3418 0.956 . S
C3406 H3419 0.961 . S
C3406 H3420 0.961 . S
C3407 C3404 1.539 . S
C3407 H3421 0.958 . S
C3407 H3422 0.961 . S
C3407 H3423 0.960 . S
H3408 C3392 0.931 . S
H3409 C3397 0.929 . S
H3410 C3398 0.960 . S
H3411 C3398 0.962 . S
H3412 C3398 0.960 . S
H3413 C3399 0.961 . S
H3414 C3399 0.961 . S
H3415 C3399 0.961 . S
H3416 C3400 0.931 . S
H3417 C3405 0.930 . S
H3418 C3406 0.956 . S
H3419 C3406 0.961 . S
H3420 C3406 0.961 . S
H3421 C3407 0.958 . S
H3422 C3407 0.961 . S
H3423 C3407 0.960 . S
C3424 C3425 1.391 . S
C3424 C3426 1.394 . S
C3424 H3440 0.931 . S
C3425 C3424 1.391 . S
C3425 C3429 1.376 . S
C3426 C3424 1.394 . S
C3426 C3427 1.369 . S
C3426 C3430 1.531 . S
C3427 C3426 1.369 . S
C3427 C3428 1.410 . S
C3427 C3435 1.503 . S
C3428 C3427 1.410 . S
C3428 C3429 1.392 . S
C3428 C3431 1.511 . S
C3429 C3425 1.376 . S
C3429 C3428 1.392 . S
C3429 H3441 0.929 . S
C3430 C3426 1.531 . S
C3430 H3442 0.960 . S
C3430 H3443 0.962 . S
C3430 H3444 0.960 . S
C3431 C3428 1.511 . S
C3431 H3445 0.961 . S
C3431 H3446 0.961 . S
C3431 H3447 0.961 . S
C3432 C3433 1.370 . S
C3432 C3434 1.363 . S
C3432 H3448 0.931 . S
C3433 C3432 1.370 . S
C3433 C3437 1.408 . S
C3434 C3432 1.363 . S
C3434 C3435 1.370 . S
C3434 C3438 1.524 . S
C3435 C3427 1.503 . S
C3435 C3434 1.370 . S
C3435 C3436 1.403 . S
C3436 C3435 1.403 . S
C3436 C3437 1.404 . S
C3436 C3439 1.539 . S
C3437 C3433 1.408 . S
C3437 C3436 1.404 . S
C3437 H3449 0.930 . S
C3438 C3434 1.524 . S
C3438 H3450 0.956 . S
C3438 H3451 0.961 . S
C3438 H3452 0.961 . S
C3439 C3436 1.539 . S
C3439 H3453 0.958 . S
C3439 H3454 0.961 . S
C3439 H3455 0.960 . S
H3440 C3424 0.931 . S
H3441 C3429 0.929 . S
H3442 C3430 0.960 . S
H3443 C3430 0.962 . S
H3444 C3430 0.960 . S
H3445 C3431 0.961 . S
H3446 C3431 0.961 . S
H3447 C3431 0.961 . S
H3448 C3432 0.931 . S
H3449 C3437 0.930 . S
H3450 C3438 0.956 . S
H3451 C3438 0.961 . S
H3452 C3438 0.961 . S
H3453 C3439 0.958 . S
H3454 C3439 0.961 . S
H3455 C3439 0.960 . S
C3456 C3457 1.391 . S
C3456 C3458 1.394 . S
C3456 H3472 0.931 . S
C3457 C3456 1.391 . S
C3457 C3461 1.376 . S
C3458 C3456 1.394 . S
C3458 C3459 1.369 . S
C3458 C3462 1.531 . S
C3459 C3458 1.369 . S
C3459 C3460 1.410 . S
C3459 C3467 1.503 . S
C3460 C3459 1.410 . S
C3460 C3461 1.392 . S
C3460 C3463 1.511 . S
C3461 C3457 1.376 . S
C3461 C3460 1.392 . S
C3461 H3473 0.929 . S
C3462 C3458 1.531 . S
C3462 H3474 0.960 . S
C3462 H3475 0.962 . S
C3462 H3476 0.960 . S
C3463 C3460 1.511 . S
C3463 H3477 0.961 . S
C3463 H3478 0.961 . S
C3463 H3479 0.961 . S
C3464 C3465 1.370 . S
C3464 C3466 1.363 . S
C3464 H3480 0.931 . S
C3465 C3464 1.370 . S
C3465 C3469 1.408 . S
C3466 C3464 1.363 . S
C3466 C3467 1.370 . S
C3466 C3470 1.524 . S
C3467 C3459 1.503 . S
C3467 C3466 1.370 . S
C3467 C3468 1.403 . S
C3468 C3467 1.403 . S
C3468 C3469 1.404 . S
C3468 C3471 1.539 . S
C3469 C3465 1.408 . S
C3469 C3468 1.404 . S
C3469 H3481 0.930 . S
C3470 C3466 1.524 . S
C3470 H3482 0.956 . S
C3470 H3483 0.961 . S
C3470 H3484 0.961 . S
C3471 C3468 1.539 . S
C3471 H3485 0.958 . S
C3471 H3486 0.961 . S
C3471 H3487 0.960 . S
H3472 C3456 0.931 . S
H3473 C3461 0.929 . S
H3474 C3462 0.960 . S
H3475 C3462 0.962 . S
H3476 C3462 0.960 . S
H3477 C3463 0.961 . S
H3478 C3463 0.961 . S
H3479 C3463 0.961 . S
H3480 C3464 0.931 . S
H3481 C3469 0.930 . S
H3482 C3470 0.956 . S
H3483 C3470 0.961 . S
H3484 C3470 0.961 . S
H3485 C3471 0.958 . S
H3486 C3471 0.961 . S
H3487 C3471 0.960 . S
C3488 C3489 1.391 . S
C3488 C3490 1.394 . S
C3488 H3504 0.931 . S
C3489 C3488 1.391 . S
C3489 C3493 1.376 . S
C3490 C3488 1.394 . S
C3490 C3491 1.369 . S
C3490 C3494 1.531 . S
C3491 C3490 1.369 . S
C3491 C3492 1.410 . S
C3491 C3499 1.503 . S
C3492 C3491 1.410 . S
C3492 C3493 1.392 . S
C3492 C3495 1.511 . S
C3493 C3489 1.376 . S
C3493 C3492 1.392 . S
C3493 H3505 0.929 . S
C3494 C3490 1.531 . S
C3494 H3506 0.960 . S
C3494 H3507 0.962 . S
C3494 H3508 0.960 . S
C3495 C3492 1.511 . S
C3495 H3509 0.961 . S
C3495 H3510 0.961 . S
C3495 H3511 0.961 . S
C3496 C3497 1.370 . S
C3496 C3498 1.363 . S
C3496 H3512 0.931 . S
C3497 C3496 1.370 . S
C3497 C3501 1.408 . S
C3498 C3496 1.363 . S
C3498 C3499 1.370 . S
C3498 C3502 1.524 . S
C3499 C3491 1.503 . S
C3499 C3498 1.370 . S
C3499 C3500 1.403 . S
C3500 C3499 1.403 . S
C3500 C3501 1.404 . S
C3500 C3503 1.539 . S
C3501 C3497 1.408 . S
C3501 C3500 1.404 . S
C3501 H3513 0.930 . S
C3502 C3498 1.524 . S
C3502 H3514 0.956 . S
C3502 H3515 0.961 . S
C3502 H3516 0.961 . S
C3503 C3500 1.539 . S
C3503 H3517 0.958 . S
C3503 H3518 0.961 . S
C3503 H3519 0.960 . S
H3504 C3488 0.931 . S
H3505 C3493 0.929 . S
H3506 C3494 0.960 . S
H3507 C3494 0.962 . S
H3508 C3494 0.960 . S
H3509 C3495 0.961 . S
H3510 C3495 0.961 . S
H3511 C3495 0.961 . S
H3512 C3496 0.931 . S
H3513 C3501 0.930 . S
H3514 C3502 0.956 . S
H3515 C3502 0.961 . S
H3516 C3502 0.961 . S
H3517 C3503 0.958 . S
H3518 C3503 0.961 . S
H3519 C3503 0.960 . S
C3520 C3521 1.391 . S
C3520 C3522 1.394 . S
C3520 H3536 0.931 . S
C3521 C3520 1.391 . S
C3521 C3525 1.376 . S
C3522 C3520 1.394 . S
C3522 C3523 1.369 . S
C3522 C3526 1.531 . S
C3523 C3522 1.369 . S
C3523 C3524 1.410 . S
C3523 C3531 1.503 . S
C3524 C3523 1.410 . S
C3524 C3525 1.392 . S
C3524 C3527 1.511 . S
C3525 C3521 1.376 . S
C3525 C3524 1.392 . S
C3525 H3537 0.929 . S
C3526 C3522 1.531 . S
C3526 H3538 0.960 . S
C3526 H3539 0.962 . S
C3526 H3540 0.960 . S
C3527 C3524 1.511 . S
C3527 H3541 0.961 . S
C3527 H3542 0.961 . S
C3527 H3543 0.961 . S
C3528 C3529 1.370 . S
C3528 C3530 1.363 . S
C3528 H3544 0.931 . S
C3529 C3528 1.370 . S
C3529 C3533 1.408 . S
C3530 C3528 1.363 . S
C3530 C3531 1.370 . S
C3530 C3534 1.524 . S
C3531 C3523 1.503 . S
C3531 C3530 1.370 . S
C3531 C3532 1.403 . S
C3532 C3531 1.403 . S
C3532 C3533 1.404 . S
C3532 C3535 1.539 . S
C3533 C3529 1.408 . S
C3533 C3532 1.404 . S
C3533 H3545 0.930 . S
C3534 C3530 1.524 . S
C3534 H3546 0.956 . S
C3534 H3547 0.961 . S
C3534 H3548 0.961 . S
C3535 C3532 1.539 . S
C3535 H3549 0.958 . S
C3535 H3550 0.961 . S
C3535 H3551 0.960 . S
H3536 C3520 0.931 . S
H3537 C3525 0.929 . S
H3538 C3526 0.960 . S
H3539 C3526 0.962 . S
H3540 C3526 0.960 . S
H3541 C3527 0.961 . S
H3542 C3527 0.961 . S
H3543 C3527 0.961 . S
H3544 C3528 0.931 . S
H3545 C3533 0.930 . S
H3546 C3534 0.956 . S
H3547 C3534 0.961 . S
H3548 C3534 0.961 . S
H3549 C3535 0.958 . S
H3550 C3535 0.961 . S
H3551 C3535 0.960 . S
C3552 C3553 1.391 . S
C3552 C3554 1.394 . S
C3552 H3568 0.931 . S
C3553 C3552 1.391 . S
C3553 C3557 1.376 . S
C3554 C3552 1.394 . S
C3554 C3555 1.369 . S
C3554 C3558 1.531 . S
C3555 C3554 1.369 . S
C3555 C3556 1.410 . S
C3555 C3563 1.503 . S
C3556 C3555 1.410 . S
C3556 C3557 1.392 . S
C3556 C3559 1.511 . S
C3557 C3553 1.376 . S
C3557 C3556 1.392 . S
C3557 H3569 0.929 . S
C3558 C3554 1.531 . S
C3558 H3570 0.960 . S
C3558 H3571 0.962 . S
C3558 H3572 0.960 . S
C3559 C3556 1.511 . S
C3559 H3573 0.961 . S
C3559 H3574 0.961 . S
C3559 H3575 0.961 . S
C3560 C3561 1.370 . S
C3560 C3562 1.363 . S
C3560 H3576 0.931 . S
C3561 C3560 1.370 . S
C3561 C3565 1.408 . S
C3562 C3560 1.363 . S
C3562 C3563 1.370 . S
C3562 C3566 1.524 . S
C3563 C3555 1.503 . S
C3563 C3562 1.370 . S
C3563 C3564 1.403 . S
C3564 C3563 1.403 . S
C3564 C3565 1.404 . S
C3564 C3567 1.539 . S
C3565 C3561 1.408 . S
C3565 C3564 1.404 . S
C3565 H3577 0.930 . S
C3566 C3562 1.524 . S
C3566 H3578 0.956 . S
C3566 H3579 0.961 . S
C3566 H3580 0.961 . S
C3567 C3564 1.539 . S
C3567 H3581 0.958 . S
C3567 H3582 0.961 . S
C3567 H3583 0.960 . S
H3568 C3552 0.931 . S
H3569 C3557 0.929 . S
H3570 C3558 0.960 . S
H3571 C3558 0.962 . S
H3572 C3558 0.960 . S
H3573 C3559 0.961 . S
H3574 C3559 0.961 . S
H3575 C3559 0.961 . S
H3576 C3560 0.931 . S
H3577 C3565 0.930 . S
H3578 C3566 0.956 . S
H3579 C3566 0.961 . S
H3580 C3566 0.961 . S
H3581 C3567 0.958 . S
H3582 C3567 0.961 . S
H3583 C3567 0.960 . S
C3584 C3585 1.391 . S
C3584 C3586 1.394 . S
C3584 H3600 0.931 . S
C3585 C3584 1.391 . S
C3585 C3589 1.376 . S
C3586 C3584 1.394 . S
C3586 C3587 1.369 . S
C3586 C3590 1.531 . S
C3587 C3586 1.369 . S
C3587 C3588 1.410 . S
C3587 C3595 1.503 . S
C3588 C3587 1.410 . S
C3588 C3589 1.392 . S
C3588 C3591 1.511 . S
C3589 C3585 1.376 . S
C3589 C3588 1.392 . S
C3589 H3601 0.929 . S
C3590 C3586 1.531 . S
C3590 H3602 0.960 . S
C3590 H3603 0.962 . S
C3590 H3604 0.960 . S
C3591 C3588 1.511 . S
C3591 H3605 0.961 . S
C3591 H3606 0.961 . S
C3591 H3607 0.961 . S
C3592 C3593 1.370 . S
C3592 C3594 1.363 . S
C3592 H3608 0.931 . S
C3593 C3592 1.370 . S
C3593 C3597 1.408 . S
C3594 C3592 1.363 . S
C3594 C3595 1.370 . S
C3594 C3598 1.524 . S
C3595 C3587 1.503 . S
C3595 C3594 1.370 . S
C3595 C3596 1.403 . S
C3596 C3595 1.403 . S
C3596 C3597 1.404 . S
C3596 C3599 1.539 . S
C3597 C3593 1.408 . S
C3597 C3596 1.404 . S
C3597 H3609 0.930 . S
C3598 C3594 1.524 . S
C3598 H3610 0.956 . S
C3598 H3611 0.961 . S
C3598 H3612 0.961 . S
C3599 C3596 1.539 . S
C3599 H3613 0.958 . S
C3599 H3614 0.961 . S
C3599 H3615 0.960 . S
H3600 C3584 0.931 . S
H3601 C3589 0.929 . S
H3602 C3590 0.960 . S
H3603 C3590 0.962 . S
H3604 C3590 0.960 . S
H3605 C3591 0.961 . S
H3606 C3591 0.961 . S
H3607 C3591 0.961 . S
H3608 C3592 0.931 . S
H3609 C3597 0.930 . S
H3610 C3598 0.956 . S
H3611 C3598 0.961 . S
H3612 C3598 0.961 . S
H3613 C3599 0.958 . S
H3614 C3599 0.961 . S
H3615 C3599 0.960 . S
C3616 C3617 1.391 . S
C3616 C3618 1.394 . S
C3616 H3632 0.931 . S
C3617 C3616 1.391 . S
C3617 C3621 1.376 . S
C3618 C3616 1.394 . S
C3618 C3619 1.369 . S
C3618 C3622 1.531 . S
C3619 C3618 1.369 . S
C3619 C3620 1.410 . S
C3619 C3627 1.503 . S
C3620 C3619 1.410 . S
C3620 C3621 1.392 . S
C3620 C3623 1.511 . S
C3621 C3617 1.376 . S
C3621 C3620 1.392 . S
C3621 H3633 0.929 . S
C3622 C3618 1.531 . S
C3622 H3634 0.960 . S
C3622 H3635 0.962 . S
C3622 H3636 0.960 . S
C3623 C3620 1.511 . S
C3623 H3637 0.961 . S
C3623 H3638 0.961 . S
C3623 H3639 0.961 . S
C3624 C3625 1.370 . S
C3624 C3626 1.363 . S
C3624 H3640 0.931 . S
C3625 C3624 1.370 . S
C3625 C3629 1.408 . S
C3626 C3624 1.363 . S
C3626 C3627 1.370 . S
C3626 C3630 1.524 . S
C3627 C3619 1.503 . S
C3627 C3626 1.370 . S
C3627 C3628 1.403 . S
C3628 C3627 1.403 . S
C3628 C3629 1.404 . S
C3628 C3631 1.539 . S
C3629 C3625 1.408 . S
C3629 C3628 1.404 . S
C3629 H3641 0.930 . S
C3630 C3626 1.524 . S
C3630 H3642 0.956 . S
C3630 H3643 0.961 . S
C3630 H3644 0.961 . S
C3631 C3628 1.539 . S
C3631 H3645 0.958 . S
C3631 H3646 0.961 . S
C3631 H3647 0.960 . S
H3632 C3616 0.931 . S
H3633 C3621 0.929 . S
H3634 C3622 0.960 . S
H3635 C3622 0.962 . S
H3636 C3622 0.960 . S
H3637 C3623 0.961 . S
H3638 C3623 0.961 . S
H3639 C3623 0.961 . S
H3640 C3624 0.931 . S
H3641 C3629 0.930 . S
H3642 C3630 0.956 . S
H3643 C3630 0.961 . S
H3644 C3630 0.961 . S
H3645 C3631 0.958 . S
H3646 C3631 0.961 . S
H3647 C3631 0.960 . S
C3648 C3649 1.391 . S
C3648 C3650 1.394 . S
C3648 H3664 0.931 . S
C3649 C3648 1.391 . S
C3649 C3653 1.376 1_554 S
C3650 C3648 1.394 . S
C3650 C3651 1.369 . S
C3650 C3654 1.531 . S
C3651 C3650 1.369 . S
C3651 C3652 1.395 1_554 S
C3651 C3659 1.503 . S
C3652 C3651 1.395 1_556 S
C3652 C3653 1.387 . S
C3652 C3655 1.532 . S
C3653 C3649 1.376 1_556 S
C3653 C3652 1.387 . S
C3653 H3665 0.929 . S
C3654 C3650 1.531 . S
C3654 H3666 0.960 . S
C3654 H3667 0.962 . S
C3654 H3668 0.960 . S
C3655 C3652 1.532 . S
C3655 H3669 0.961 . S
C3655 H3670 0.947 1_556 S
C3655 H3671 0.961 . S
C3656 C3657 1.370 . S
C3656 C3658 1.363 . S
C3656 H3672 0.931 . S
C3657 C3656 1.370 . S
C3657 C3661 1.408 . S
C3658 C3656 1.363 . S
C3658 C3659 1.370 . S
C3658 C3662 1.524 . S
C3659 C3651 1.503 . S
C3659 C3658 1.370 . S
C3659 C3660 1.403 1_554 S
C3660 C3659 1.403 1_556 S
C3660 C3661 1.404 1_556 S
C3660 C3663 1.539 . S
C3661 C3657 1.408 . S
C3661 C3660 1.404 1_554 S
C3661 H3673 0.930 1_554 S
C3662 C3658 1.524 . S
C3662 H3674 0.956 . S
C3662 H3675 0.961 . S
C3662 H3676 0.961 . S
C3663 C3660 1.539 . S
C3663 H3677 0.958 . S
C3663 H3678 0.961 . S
C3663 H3679 0.960 . S
H3664 C3648 0.931 . S
H3665 C3653 0.929 . S
H3666 C3654 0.960 . S
H3667 C3654 0.962 . S
H3668 C3654 0.960 . S
H3669 C3655 0.961 . S
H3670 C3655 0.947 1_554 S
H3671 C3655 0.961 . S
H3672 C3656 0.931 . S
H3673 C3661 0.930 1_556 S
H3674 C3662 0.956 . S
H3675 C3662 0.961 . S
H3676 C3662 0.961 . S
H3677 C3663 0.958 . S
H3678 C3663 0.961 . S
H3679 C3663 0.960 . S
C3680 C3681 1.391 . S
C3680 C3682 1.394 . S
C3680 H3696 0.931 . S
C3681 C3680 1.391 . S
C3681 C3685 1.376 . S
C3682 C3680 1.394 . S
C3682 C3683 1.369 . S
C3682 C3686 1.531 . S
C3683 C3682 1.369 . S
C3683 C3684 1.410 . S
C3683 C3691 1.503 . S
C3684 C3683 1.410 . S
C3684 C3685 1.392 . S
C3684 C3687 1.511 . S
C3685 C3681 1.376 . S
C3685 C3684 1.392 . S
C3685 H3697 0.929 . S
C3686 C3682 1.531 . S
C3686 H3698 0.960 . S
C3686 H3699 0.962 . S
C3686 H3700 0.960 . S
C3687 C3684 1.511 . S
C3687 H3701 0.961 . S
C3687 H3702 0.961 . S
C3687 H3703 0.961 . S
C3688 C3689 1.370 . S
C3688 C3690 1.363 . S
C3688 H3704 0.931 . S
C3689 C3688 1.370 . S
C3689 C3693 1.408 . S
C3690 C3688 1.363 . S
C3690 C3691 1.370 . S
C3690 C3694 1.524 . S
C3691 C3683 1.503 . S
C3691 C3690 1.370 . S
C3691 C3692 1.403 . S
C3692 C3691 1.403 . S
C3692 C3693 1.404 . S
C3692 C3695 1.539 . S
C3693 C3689 1.408 . S
C3693 C3692 1.404 . S
C3693 H3705 0.930 . S
C3694 C3690 1.524 . S
C3694 H3706 0.956 . S
C3694 H3707 0.961 . S
C3694 H3708 0.961 . S
C3695 C3692 1.539 . S
C3695 H3709 0.958 . S
C3695 H3710 0.961 . S
C3695 H3711 0.960 . S
H3696 C3680 0.931 . S
H3697 C3685 0.929 . S
H3698 C3686 0.960 . S
H3699 C3686 0.962 . S
H3700 C3686 0.960 . S
H3701 C3687 0.961 . S
H3702 C3687 0.961 . S
H3703 C3687 0.961 . S
H3704 C3688 0.931 . S
H3705 C3693 0.930 . S
H3706 C3694 0.956 . S
H3707 C3694 0.961 . S
H3708 C3694 0.961 . S
H3709 C3695 0.958 . S
H3710 C3695 0.961 . S
H3711 C3695 0.960 . S
C3712 C3713 1.391 . S
C3712 C3714 1.394 . S
C3712 H3728 0.931 . S
C3713 C3712 1.391 . S
C3713 C3717 1.376 . S
C3714 C3712 1.394 . S
C3714 C3715 1.369 . S
C3714 C3718 1.531 . S
C3715 C3714 1.369 . S
C3715 C3716 1.410 . S
C3715 C3723 1.503 . S
C3716 C3715 1.410 . S
C3716 C3717 1.392 . S
C3716 C3719 1.511 . S
C3717 C3713 1.376 . S
C3717 C3716 1.392 . S
C3717 H3729 0.929 . S
C3718 C3714 1.531 . S
C3718 H3730 0.960 . S
C3718 H3731 0.962 . S
C3718 H3732 0.960 . S
C3719 C3716 1.511 . S
C3719 H3733 0.961 . S
C3719 H3734 0.961 . S
C3719 H3735 0.961 . S
C3720 C3721 1.370 . S
C3720 C3722 1.363 . S
C3720 H3736 0.931 . S
C3721 C3720 1.370 . S
C3721 C3725 1.408 . S
C3722 C3720 1.363 . S
C3722 C3723 1.370 . S
C3722 C3726 1.524 . S
C3723 C3715 1.503 . S
C3723 C3722 1.370 . S
C3723 C3724 1.403 . S
C3724 C3723 1.403 . S
C3724 C3725 1.404 . S
C3724 C3727 1.539 . S
C3725 C3721 1.408 . S
C3725 C3724 1.404 . S
C3725 H3737 0.930 . S
C3726 C3722 1.524 . S
C3726 H3738 0.956 . S
C3726 H3739 0.961 . S
C3726 H3740 0.961 . S
C3727 C3724 1.539 . S
C3727 H3741 0.941 1_554 S
C3727 H3742 0.961 . S
C3727 H3743 0.960 . S
H3728 C3712 0.931 . S
H3729 C3717 0.929 . S
H3730 C3718 0.960 . S
H3731 C3718 0.962 . S
H3732 C3718 0.960 . S
H3733 C3719 0.961 . S
H3734 C3719 0.961 . S
H3735 C3719 0.961 . S
H3736 C3720 0.931 . S
H3737 C3725 0.930 . S
H3738 C3726 0.956 . S
H3739 C3726 0.961 . S
H3740 C3726 0.961 . S
H3741 C3727 0.941 1_556 S
H3742 C3727 0.961 . S
H3743 C3727 0.960 . S
C3744 C3745 1.391 . S
C3744 C3746 1.394 . S
C3744 H3760 0.931 . S
C3745 C3744 1.391 . S
C3745 C3749 1.376 . S
C3746 C3744 1.394 . S
C3746 C3747 1.369 . S
C3746 C3750 1.531 . S
C3747 C3746 1.369 . S
C3747 C3748 1.410 . S
C3747 C3755 1.503 . S
C3748 C3747 1.410 . S
C3748 C3749 1.392 . S
C3748 C3751 1.511 . S
C3749 C3745 1.376 . S
C3749 C3748 1.392 . S
C3749 H3761 0.929 . S
C3750 C3746 1.531 . S
C3750 H3762 0.960 . S
C3750 H3763 0.962 . S
C3750 H3764 0.960 . S
C3751 C3748 1.511 . S
C3751 H3765 0.961 . S
C3751 H3766 0.961 . S
C3751 H3767 0.961 . S
C3752 C3753 1.370 . S
C3752 C3754 1.363 . S
C3752 H3768 0.931 . S
C3753 C3752 1.370 . S
C3753 C3757 1.408 . S
C3754 C3752 1.363 . S
C3754 C3755 1.370 . S
C3754 C3758 1.524 . S
C3755 C3747 1.503 . S
C3755 C3754 1.370 . S
C3755 C3756 1.403 . S
C3756 C3755 1.403 . S
C3756 C3757 1.404 . S
C3756 C3759 1.539 . S
C3757 C3753 1.408 . S
C3757 C3756 1.404 . S
C3757 H3769 0.930 . S
C3758 C3754 1.524 . S
C3758 H3770 0.956 . S
C3758 H3771 0.961 . S
C3758 H3772 0.961 . S
C3759 C3756 1.539 . S
C3759 H3773 0.958 . S
C3759 H3774 0.961 . S
C3759 H3775 0.960 . S
H3760 C3744 0.931 . S
H3761 C3749 0.929 . S
H3762 C3750 0.960 . S
H3763 C3750 0.962 . S
H3764 C3750 0.960 . S
H3765 C3751 0.961 . S
H3766 C3751 0.961 . S
H3767 C3751 0.961 . S
H3768 C3752 0.931 . S
H3769 C3757 0.930 . S
H3770 C3758 0.956 . S
H3771 C3758 0.961 . S
H3772 C3758 0.961 . S
H3773 C3759 0.958 . S
H3774 C3759 0.961 . S
H3775 C3759 0.960 . S
C3776 C3777 1.391 . S
C3776 C3778 1.394 . S
C3776 H3792 0.931 . S
C3777 C3776 1.391 . S
C3777 C3781 1.376 . S
C3778 C3776 1.394 . S
C3778 C3779 1.369 . S
C3778 C3782 1.531 . S
C3779 C3778 1.369 . S
C3779 C3780 1.410 . S
C3779 C3787 1.503 . S
C3780 C3779 1.410 . S
C3780 C3781 1.392 . S
C3780 C3783 1.511 . S
C3781 C3777 1.376 . S
C3781 C3780 1.392 . S
C3781 H3793 0.929 . S
C3782 C3778 1.531 . S
C3782 H3794 0.960 . S
C3782 H3795 0.962 . S
C3782 H3796 0.960 . S
C3783 C3780 1.511 . S
C3783 H3797 0.961 . S
C3783 H3798 0.961 . S
C3783 H3799 0.961 . S
C3784 C3785 1.370 . S
C3784 C3786 1.363 . S
C3784 H3800 0.931 . S
C3785 C3784 1.370 . S
C3785 C3789 1.408 . S
C3786 C3784 1.363 . S
C3786 C3787 1.370 . S
C3786 C3790 1.524 . S
C3787 C3779 1.503 . S
C3787 C3786 1.370 . S
C3787 C3788 1.403 . S
C3788 C3787 1.403 . S
C3788 C3789 1.404 . S
C3788 C3791 1.539 . S
C3789 C3785 1.408 . S
C3789 C3788 1.404 . S
C3789 H3801 0.930 . S
C3790 C3786 1.524 . S
C3790 H3802 0.956 . S
C3790 H3803 0.961 . S
C3790 H3804 0.961 . S
C3791 C3788 1.539 . S
C3791 H3805 0.958 . S
C3791 H3806 0.961 . S
C3791 H3807 0.960 . S
H3792 C3776 0.931 . S
H3793 C3781 0.929 . S
H3794 C3782 0.960 . S
H3795 C3782 0.962 . S
H3796 C3782 0.960 . S
H3797 C3783 0.961 . S
H3798 C3783 0.961 . S
H3799 C3783 0.961 . S
H3800 C3784 0.931 . S
H3801 C3789 0.930 . S
H3802 C3790 0.956 . S
H3803 C3790 0.961 . S
H3804 C3790 0.961 . S
H3805 C3791 0.958 . S
H3806 C3791 0.961 . S
H3807 C3791 0.960 . S
C3808 C3809 1.391 . S
C3808 C3810 1.394 . S
C3808 H3824 0.931 . S
C3809 C3808 1.391 . S
C3809 C3813 1.376 . S
C3810 C3808 1.394 . S
C3810 C3811 1.369 . S
C3810 C3814 1.531 . S
C3811 C3810 1.369 . S
C3811 C3812 1.410 . S
C3811 C3819 1.503 . S
C3812 C3811 1.410 . S
C3812 C3813 1.392 . S
C3812 C3815 1.511 . S
C3813 C3809 1.376 . S
C3813 C3812 1.392 . S
C3813 H3825 0.929 . S
C3814 C3810 1.531 . S
C3814 H3826 0.960 . S
C3814 H3827 0.962 . S
C3814 H3828 0.960 . S
C3815 C3812 1.511 . S
C3815 H3829 0.961 . S
C3815 H3830 0.961 . S
C3815 H3831 0.961 . S
C3816 C3817 1.370 . S
C3816 C3818 1.363 . S
C3816 H3832 0.931 . S
C3817 C3816 1.370 . S
C3817 C3821 1.408 . S
C3818 C3816 1.363 . S
C3818 C3819 1.370 . S
C3818 C3822 1.524 . S
C3819 C3811 1.503 . S
C3819 C3818 1.370 . S
C3819 C3820 1.403 . S
C3820 C3819 1.403 . S
C3820 C3821 1.404 . S
C3820 C3823 1.539 . S
C3821 C3817 1.408 . S
C3821 C3820 1.404 . S
C3821 H3833 0.930 . S
C3822 C3818 1.524 . S
C3822 H3834 0.956 . S
C3822 H3835 0.961 . S
C3822 H3836 0.961 . S
C3823 C3820 1.539 . S
C3823 H3837 0.958 . S
C3823 H3838 0.961 . S
C3823 H3839 0.960 . S
H3824 C3808 0.931 . S
H3825 C3813 0.929 . S
H3826 C3814 0.960 . S
H3827 C3814 0.962 . S
H3828 C3814 0.960 . S
H3829 C3815 0.961 . S
H3830 C3815 0.961 . S
H3831 C3815 0.961 . S
H3832 C3816 0.931 . S
H3833 C3821 0.930 . S
H3834 C3822 0.956 . S
H3835 C3822 0.961 . S
H3836 C3822 0.961 . S
H3837 C3823 0.958 . S
H3838 C3823 0.961 . S
H3839 C3823 0.960 . S
C3840 C3841 1.391 . S
C3840 C3842 1.394 . S
C3840 H3856 0.931 . S
C3841 C3840 1.391 . S
C3841 C3845 1.376 . S
C3842 C3840 1.394 . S
C3842 C3843 1.369 . S
C3842 C3846 1.531 . S
C3843 C3842 1.369 . S
C3843 C3844 1.410 . S
C3843 C3851 1.503 . S
C3844 C3843 1.410 . S
C3844 C3845 1.392 . S
C3844 C3847 1.511 . S
C3845 C3841 1.376 . S
C3845 C3844 1.392 . S
C3845 H3857 0.929 . S
C3846 C3842 1.531 . S
C3846 H3858 0.960 . S
C3846 H3859 0.962 . S
C3846 H3860 0.960 . S
C3847 C3844 1.511 . S
C3847 H3861 0.961 . S
C3847 H3862 0.961 . S
C3847 H3863 0.961 . S
C3848 C3849 1.370 . S
C3848 C3850 1.363 . S
C3848 H3864 0.931 . S
C3849 C3848 1.370 . S
C3849 C3853 1.408 . S
C3850 C3848 1.363 . S
C3850 C3851 1.370 . S
C3850 C3854 1.524 . S
C3851 C3843 1.503 . S
C3851 C3850 1.370 . S
C3851 C3852 1.403 . S
C3852 C3851 1.403 . S
C3852 C3853 1.404 . S
C3852 C3855 1.539 . S
C3853 C3849 1.408 . S
C3853 C3852 1.404 . S
C3853 H3865 0.930 . S
C3854 C3850 1.524 . S
C3854 H3866 0.956 . S
C3854 H3867 0.961 . S
C3854 H3868 0.961 . S
C3855 C3852 1.539 . S
C3855 H3869 0.958 . S
C3855 H3870 0.961 . S
C3855 H3871 0.960 . S
H3856 C3840 0.931 . S
H3857 C3845 0.929 . S
H3858 C3846 0.960 . S
H3859 C3846 0.962 . S
H3860 C3846 0.960 . S
H3861 C3847 0.961 . S
H3862 C3847 0.961 . S
H3863 C3847 0.961 . S
H3864 C3848 0.931 . S
H3865 C3853 0.930 . S
H3866 C3854 0.956 . S
H3867 C3854 0.961 . S
H3868 C3854 0.961 . S
H3869 C3855 0.958 . S
H3870 C3855 0.961 . S
H3871 C3855 0.960 . S
C3872 C3873 1.391 . S
C3872 C3874 1.394 . S
C3872 H3888 0.931 . S
C3873 C3872 1.391 . S
C3873 C3877 1.376 . S
C3874 C3872 1.394 . S
C3874 C3875 1.369 . S
C3874 C3878 1.531 . S
C3875 C3874 1.369 . S
C3875 C3876 1.410 . S
C3875 C3883 1.503 . S
C3876 C3875 1.410 . S
C3876 C3877 1.392 . S
C3876 C3879 1.511 . S
C3877 C3873 1.376 . S
C3877 C3876 1.392 . S
C3877 H3889 0.929 . S
C3878 C3874 1.531 . S
C3878 H3890 0.960 . S
C3878 H3891 0.962 . S
C3878 H3892 0.960 . S
C3879 C3876 1.511 . S
C3879 H3893 0.961 1_455 S
C3879 H3894 0.961 . S
C3879 H3895 0.961 1_455 S
C3880 C3881 1.370 . S
C3880 C3882 1.363 . S
C3880 H3896 0.931 . S
C3881 C3880 1.370 . S
C3881 C3885 1.408 . S
C3882 C3880 1.363 . S
C3882 C3883 1.370 . S
C3882 C3886 1.524 . S
C3883 C3875 1.503 . S
C3883 C3882 1.370 . S
C3883 C3884 1.403 . S
C3884 C3883 1.403 . S
C3884 C3885 1.404 . S
C3884 C3887 1.539 . S
C3885 C3881 1.408 . S
C3885 C3884 1.404 . S
C3885 H3897 0.930 . S
C3886 C3882 1.524 . S
C3886 H3898 0.956 . S
C3886 H3899 0.961 . S
C3886 H3900 0.961 . S
C3887 C3884 1.539 . S
C3887 H3901 0.958 . S
C3887 H3902 0.961 . S
C3887 H3903 0.960 . S
H3888 C3872 0.931 . S
H3889 C3877 0.929 . S
H3890 C3878 0.960 . S
H3891 C3878 0.962 . S
H3892 C3878 0.960 . S
H3893 C3879 0.961 1_655 S
H3894 C3879 0.961 . S
H3895 C3879 0.961 1_655 S
H3896 C3880 0.931 . S
H3897 C3885 0.930 . S
H3898 C3886 0.956 . S
H3899 C3886 0.961 . S
H3900 C3886 0.961 . S
H3901 C3887 0.958 . S
H3902 C3887 0.961 . S
H3903 C3887 0.960 . S
C3904 C3905 1.391 . S
C3904 C3906 1.394 . S
C3904 H3920 0.931 . S
C3905 C3904 1.391 . S
C3905 C3909 1.376 . S
C3906 C3904 1.394 . S
C3906 C3907 1.369 . S
C3906 C3910 1.531 . S
C3907 C3906 1.369 . S
C3907 C3908 1.410 . S
C3907 C3915 1.503 . S
C3908 C3907 1.410 . S
C3908 C3909 1.392 . S
C3908 C3911 1.511 . S
C3909 C3905 1.376 . S
C3909 C3908 1.392 . S
C3909 H3921 0.929 . S
C3910 C3906 1.531 . S
C3910 H3922 0.960 . S
C3910 H3923 0.962 . S
C3910 H3924 0.960 . S
C3911 C3908 1.511 . S
C3911 H3925 0.961 . S
C3911 H3926 0.961 . S
C3911 H3927 0.961 . S
C3912 C3913 1.370 . S
C3912 C3914 1.363 . S
C3912 H3928 0.931 . S
C3913 C3912 1.370 . S
C3913 C3917 1.408 . S
C3914 C3912 1.363 . S
C3914 C3915 1.370 . S
C3914 C3918 1.524 . S
C3915 C3907 1.503 . S
C3915 C3914 1.370 . S
C3915 C3916 1.403 . S
C3916 C3915 1.403 . S
C3916 C3917 1.404 . S
C3916 C3919 1.539 . S
C3917 C3913 1.408 . S
C3917 C3916 1.404 . S
C3917 H3929 0.930 . S
C3918 C3914 1.524 . S
C3918 H3930 0.956 . S
C3918 H3931 0.961 . S
C3918 H3932 0.961 . S
C3919 C3916 1.539 . S
C3919 H3933 0.958 . S
C3919 H3934 0.961 . S
C3919 H3935 0.960 . S
H3920 C3904 0.931 . S
H3921 C3909 0.929 . S
H3922 C3910 0.960 . S
H3923 C3910 0.962 . S
H3924 C3910 0.960 . S
H3925 C3911 0.961 . S
H3926 C3911 0.961 . S
H3927 C3911 0.961 . S
H3928 C3912 0.931 . S
H3929 C3917 0.930 . S
H3930 C3918 0.956 . S
H3931 C3918 0.961 . S
H3932 C3918 0.961 . S
H3933 C3919 0.958 . S
H3934 C3919 0.961 . S
H3935 C3919 0.960 . S
C3936 C3937 1.391 . S
C3936 C3938 1.394 . S
C3936 H3952 0.931 . S
C3937 C3936 1.391 . S
C3937 C3941 1.376 . S
C3938 C3936 1.394 . S
C3938 C3939 1.369 . S
C3938 C3942 1.531 1_556 S
C3939 C3938 1.369 . S
C3939 C3940 1.410 . S
C3939 C3947 1.503 . S
C3940 C3939 1.410 . S
C3940 C3941 1.392 . S
C3940 C3943 1.511 . S
C3941 C3937 1.376 . S
C3941 C3940 1.392 . S
C3941 H3953 0.929 . S
C3942 C3938 1.531 1_554 S
C3942 H3954 0.960 . S
C3942 H3955 0.962 . S
C3942 H3956 0.960 . S
C3943 C3940 1.511 . S
C3943 H3957 0.961 . S
C3943 H3958 0.961 . S
C3943 H3959 0.961 . S
C3944 C3945 1.377 . S
C3944 C3946 1.363 . S
C3944 H3960 0.931 . S
C3945 C3944 1.377 . S
C3945 C3949 1.404 1_556 S
C3946 C3944 1.363 . S
C3946 C3947 1.370 . S
C3946 C3950 1.524 . S
C3947 C3939 1.503 . S
C3947 C3946 1.370 . S
C3947 C3948 1.403 1_556 S
C3948 C3947 1.403 1_554 S
C3948 C3949 1.404 . S
C3948 C3951 1.539 . S
C3949 C3945 1.404 1_554 S
C3949 C3948 1.404 . S
C3949 H3961 0.930 . S
C3950 C3946 1.524 . S
C3950 H3962 0.956 . S
C3950 H3963 0.961 . S
C3950 H3964 0.961 . S
C3951 C3948 1.539 . S
C3951 H3965 0.958 . S
C3951 H3966 0.961 . S
C3951 H3967 0.960 . S
H3952 C3936 0.931 . S
H3953 C3941 0.929 . S
H3954 C3942 0.960 . S
H3955 C3942 0.962 . S
H3956 C3942 0.960 . S
H3957 C3943 0.961 . S
H3958 C3943 0.961 . S
H3959 C3943 0.961 . S
H3960 C3944 0.931 . S
H3961 C3949 0.930 . S
H3962 C3950 0.956 . S
H3963 C3950 0.961 . S
H3964 C3950 0.961 . S
H3965 C3951 0.958 . S
H3966 C3951 0.961 . S
H3967 C3951 0.960 . S
C3968 C3969 1.391 . S
C3968 C3970 1.394 . S
C3968 H3984 0.931 . S
C3969 C3968 1.391 . S
C3969 C3973 1.376 . S
C3970 C3968 1.394 . S
C3970 C3971 1.369 . S
C3970 C3974 1.531 . S
C3971 C3970 1.369 . S
C3971 C3972 1.410 . S
C3971 C3979 1.503 . S
C3972 C3971 1.410 . S
C3972 C3973 1.392 . S
C3972 C3975 1.511 . S
C3973 C3969 1.376 . S
C3973 C3972 1.392 . S
C3973 H3985 0.929 . S
C3974 C3970 1.531 . S
C3974 H3986 0.960 . S
C3974 H3987 0.962 . S
C3974 H3988 0.960 . S
C3975 C3972 1.511 . S
C3975 H3989 0.961 . S
C3975 H3990 0.961 . S
C3975 H3991 0.961 . S
C3976 C3977 1.370 . S
C3976 C3978 1.363 . S
C3976 H3992 0.931 . S
C3977 C3976 1.370 . S
C3977 C3981 1.408 . S
C3978 C3976 1.363 . S
C3978 C3979 1.370 . S
C3978 C3982 1.524 . S
C3979 C3971 1.503 . S
C3979 C3978 1.370 . S
C3979 C3980 1.403 . S
C3980 C3979 1.403 . S
C3980 C3981 1.404 . S
C3980 C3983 1.539 . S
C3981 C3977 1.408 . S
C3981 C3980 1.404 . S
C3981 H3993 0.930 . S
C3982 C3978 1.524 . S
C3982 H3994 0.956 . S
C3982 H3995 0.961 . S
C3982 H3996 0.961 . S
C3983 C3980 1.539 . S
C3983 H3997 0.958 . S
C3983 H3998 0.961 . S
C3983 H3999 0.960 . S
H3984 C3968 0.931 . S
H3985 C3973 0.929 . S
H3986 C3974 0.960 . S
H3987 C3974 0.962 . S
H3988 C3974 0.960 . S
H3989 C3975 0.961 . S
H3990 C3975 0.961 . S
H3991 C3975 0.961 . S
H3992 C3976 0.931 . S
H3993 C3981 0.930 . S
H3994 C3982 0.956 . S
H3995 C3982 0.961 . S
H3996 C3982 0.961 . S
H3997 C3983 0.958 . S
H3998 C3983 0.961 . S
H3999 C3983 0.960 . S
C4000 C4001 1.391 . S
C4000 C4002 1.394 . S
C4000 H4016 0.931 . S
C4001 C4000 1.391 . S
C4001 C4005 1.376 . S
C4002 C4000 1.394 . S
C4002 C4003 1.369 . S
C4002 C4006 1.531 . S
C4003 C4002 1.369 . S
C4003 C4004 1.410 . S
C4003 C4011 1.503 . S
C4004 C4003 1.410 . S
C4004 C4005 1.392 . S
C4004 C4007 1.511 . S
C4005 C4001 1.376 . S
C4005 C4004 1.392 . S
C4005 H4017 0.929 . S
C4006 C4002 1.531 . S
C4006 H4018 0.960 . S
C4006 H4019 0.962 . S
C4006 H4020 0.960 1_455 S
C4007 C4004 1.511 . S
C4007 H4021 0.961 . S
C4007 H4022 0.961 . S
C4007 H4023 0.961 . S
C4008 C4009 1.370 . S
C4008 C4010 1.363 . S
C4008 H4024 0.931 . S
C4009 C4008 1.370 . S
C4009 C4013 1.408 . S
C4010 C4008 1.363 . S
C4010 C4011 1.370 . S
C4010 C4014 1.524 . S
C4011 C4003 1.503 . S
C4011 C4010 1.370 . S
C4011 C4012 1.403 . S
C4012 C4011 1.403 . S
C4012 C4013 1.404 . S
C4012 C4015 1.539 . S
C4013 C4009 1.408 . S
C4013 C4012 1.404 . S
C4013 H4025 0.930 . S
C4014 C4010 1.524 . S
C4014 H4026 0.956 . S
C4014 H4027 0.961 . S
C4014 H4028 0.961 . S
C4015 C4012 1.539 . S
C4015 H4029 0.958 . S
C4015 H4030 0.961 . S
C4015 H4031 0.960 . S
H4016 C4000 0.931 . S
H4017 C4005 0.929 . S
H4018 C4006 0.960 . S
H4019 C4006 0.962 . S
H4020 C4006 0.960 1_655 S
H4021 C4007 0.961 . S
H4022 C4007 0.961 . S
H4023 C4007 0.961 . S
H4024 C4008 0.931 . S
H4025 C4013 0.930 . S
H4026 C4014 0.956 . S
H4027 C4014 0.961 . S
H4028 C4014 0.961 . S
H4029 C4015 0.958 . S
H4030 C4015 0.961 . S
H4031 C4015 0.960 . S
C4032 C4033 1.391 . S
C4032 C4034 1.394 . S
C4032 H4048 0.931 . S
C4033 C4032 1.391 . S
C4033 C4037 1.376 . S
C4034 C4032 1.394 . S
C4034 C4035 1.369 . S
C4034 C4038 1.531 . S
C4035 C4034 1.369 . S
C4035 C4036 1.410 . S
C4035 C4043 1.503 . S
C4036 C4035 1.410 . S
C4036 C4037 1.392 . S
C4036 C4039 1.511 . S
C4037 C4033 1.376 . S
C4037 C4036 1.392 . S
C4037 H4049 0.929 . S
C4038 C4034 1.531 . S
C4038 H4050 0.960 . S
C4038 H4051 0.962 . S
C4038 H4052 0.960 . S
C4039 C4036 1.511 . S
C4039 H4053 0.961 . S
C4039 H4054 0.961 . S
C4039 H4055 0.961 . S
C4040 C4041 1.370 . S
C4040 C4042 1.363 . S
C4040 H4056 0.931 . S
C4041 C4040 1.370 . S
C4041 C4045 1.408 . S
C4042 C4040 1.363 . S
C4042 C4043 1.370 . S
C4042 C4046 1.524 . S
C4043 C4035 1.503 . S
C4043 C4042 1.370 . S
C4043 C4044 1.403 . S
C4044 C4043 1.403 . S
C4044 C4045 1.404 . S
C4044 C4047 1.539 . S
C4045 C4041 1.408 . S
C4045 C4044 1.404 . S
C4045 H4057 0.930 . S
C4046 C4042 1.524 . S
C4046 H4058 0.956 . S
C4046 H4059 0.961 . S
C4046 H4060 0.961 . S
C4047 C4044 1.539 . S
C4047 H4061 0.958 . S
C4047 H4062 0.961 . S
C4047 H4063 0.960 . S
H4048 C4032 0.931 . S
H4049 C4037 0.929 . S
H4050 C4038 0.960 . S
H4051 C4038 0.962 . S
H4052 C4038 0.960 . S
H4053 C4039 0.961 . S
H4054 C4039 0.961 . S
H4055 C4039 0.961 . S
H4056 C4040 0.931 . S
H4057 C4045 0.930 . S
H4058 C4046 0.956 . S
H4059 C4046 0.961 . S
H4060 C4046 0.961 . S
H4061 C4047 0.958 . S
H4062 C4047 0.961 . S
H4063 C4047 0.960 . S
C4064 C4065 1.391 . S
C4064 C4066 1.394 . S
C4064 H4080 0.931 . S
C4065 C4064 1.391 . S
C4065 C4069 1.376 . S
C4066 C4064 1.394 . S
C4066 C4067 1.369 . S
C4066 C4070 1.531 . S
C4067 C4066 1.369 . S
C4067 C4068 1.410 . S
C4067 C4075 1.503 . S
C4068 C4067 1.410 . S
C4068 C4069 1.392 . S
C4068 C4071 1.511 . S
C4069 C4065 1.376 . S
C4069 C4068 1.392 . S
C4069 H4081 0.929 . S
C4070 C4066 1.531 . S
C4070 H4082 0.960 . S
C4070 H4083 0.962 . S
C4070 H4084 0.960 . S
C4071 C4068 1.511 . S
C4071 H4085 0.961 . S
C4071 H4086 0.961 . S
C4071 H4087 0.961 . S
C4072 C4073 1.370 . S
C4072 C4074 1.363 . S
C4072 H4088 0.931 . S
C4073 C4072 1.370 . S
C4073 C4077 1.408 . S
C4074 C4072 1.363 . S
C4074 C4075 1.370 . S
C4074 C4078 1.524 . S
C4075 C4067 1.503 . S
C4075 C4074 1.370 . S
C4075 C4076 1.403 . S
C4076 C4075 1.403 . S
C4076 C4077 1.404 . S
C4076 C4079 1.539 . S
C4077 C4073 1.408 . S
C4077 C4076 1.404 . S
C4077 H4089 0.930 . S
C4078 C4074 1.524 . S
C4078 H4090 0.956 . S
C4078 H4091 0.961 . S
C4078 H4092 0.961 . S
C4079 C4076 1.539 . S
C4079 H4093 0.958 . S
C4079 H4094 0.961 . S
C4079 H4095 0.960 . S
H4080 C4064 0.931 . S
H4081 C4069 0.929 . S
H4082 C4070 0.960 . S
H4083 C4070 0.962 . S
H4084 C4070 0.960 . S
H4085 C4071 0.961 . S
H4086 C4071 0.961 . S
H4087 C4071 0.961 . S
H4088 C4072 0.931 . S
H4089 C4077 0.930 . S
H4090 C4078 0.956 . S
H4091 C4078 0.961 . S
H4092 C4078 0.961 . S
H4093 C4079 0.958 . S
H4094 C4079 0.961 . S
H4095 C4079 0.960 . S
C4096 C4097 1.391 . S
C4096 C4098 1.394 . S
C4096 H4112 0.931 . S
C4097 C4096 1.391 . S
C4097 C4101 1.376 . S
C4098 C4096 1.394 . S
C4098 C4099 1.369 . S
C4098 C4102 1.531 . S
C4099 C4098 1.369 . S
C4099 C4100 1.410 . S
C4099 C4107 1.503 . S
C4100 C4099 1.410 . S
C4100 C4101 1.392 . S
C4100 C4103 1.511 . S
C4101 C4097 1.376 . S
C4101 C4100 1.392 . S
C4101 H4113 0.929 . S
C4102 C4098 1.531 . S
C4102 H4114 0.960 . S
C4102 H4115 0.962 . S
C4102 H4116 0.960 . S
C4103 C4100 1.511 . S
C4103 H4117 0.961 . S
C4103 H4118 0.961 . S
C4103 H4119 0.961 . S
C4104 C4105 1.370 . S
C4104 C4106 1.363 . S
C4104 H4120 0.931 . S
C4105 C4104 1.370 . S
C4105 C4109 1.408 . S
C4106 C4104 1.363 . S
C4106 C4107 1.370 . S
C4106 C4110 1.524 . S
C4107 C4099 1.503 . S
C4107 C4106 1.370 . S
C4107 C4108 1.403 . S
C4108 C4107 1.403 . S
C4108 C4109 1.404 . S
C4108 C4111 1.539 . S
C4109 C4105 1.408 . S
C4109 C4108 1.404 . S
C4109 H4121 0.930 . S
C4110 C4106 1.524 . S
C4110 H4122 0.956 . S
C4110 H4123 0.961 . S
C4110 H4124 0.961 . S
C4111 C4108 1.539 . S
C4111 H4125 0.958 . S
C4111 H4126 0.961 . S
C4111 H4127 0.960 . S
H4112 C4096 0.931 . S
H4113 C4101 0.929 . S
H4114 C4102 0.960 . S
H4115 C4102 0.962 . S
H4116 C4102 0.960 . S
H4117 C4103 0.961 . S
H4118 C4103 0.961 . S
H4119 C4103 0.961 . S
H4120 C4104 0.931 . S
H4121 C4109 0.930 . S
H4122 C4110 0.956 . S
H4123 C4110 0.961 . S
H4124 C4110 0.961 . S
H4125 C4111 0.958 . S
H4126 C4111 0.961 . S
H4127 C4111 0.960 . S
C4128 C4129 1.391 . S
C4128 C4130 1.394 . S
C4128 H4144 0.931 . S
C4129 C4128 1.391 . S
C4129 C4133 1.376 . S
C4130 C4128 1.394 . S
C4130 C4131 1.369 . S
C4130 C4134 1.531 . S
C4131 C4130 1.369 . S
C4131 C4132 1.410 . S
C4131 C4139 1.503 . S
C4132 C4131 1.410 . S
C4132 C4133 1.392 . S
C4132 C4135 1.511 . S
C4133 C4129 1.376 . S
C4133 C4132 1.392 . S
C4133 H4145 0.929 . S
C4134 C4130 1.531 . S
C4134 H4146 0.960 . S
C4134 H4147 0.962 . S
C4134 H4148 0.960 . S
C4135 C4132 1.511 . S
C4135 H4149 0.961 . S
C4135 H4150 0.961 1_655 S
C4135 H4151 0.961 1_655 S
C4136 C4137 1.371 1_655 S
C4136 C4138 1.363 . S
C4136 H4152 0.931 . S
C4137 C4136 1.371 1_455 S
C4137 C4141 1.408 . S
C4138 C4136 1.363 . S
C4138 C4139 1.370 . S
C4138 C4142 1.524 . S
C4139 C4131 1.503 . S
C4139 C4138 1.370 . S
C4139 C4140 1.403 . S
C4140 C4139 1.403 . S
C4140 C4141 1.404 1_655 S
C4140 C4143 1.564 . S
C4141 C4137 1.408 . S
C4141 C4140 1.404 1_455 S
C4141 H4153 0.930 . S
C4142 C4138 1.524 . S
C4142 H4154 0.956 . S
C4142 H4155 0.961 . S
C4142 H4156 0.961 . S
C4143 C4140 1.564 . S
C4143 H4157 0.983 . S
C4143 H4158 0.906 1_655 S
C4143 H4159 0.969 . S
H4144 C4128 0.931 . S
H4145 C4133 0.929 . S
H4146 C4134 0.960 . S
H4147 C4134 0.962 . S
H4148 C4134 0.960 . S
H4149 C4135 0.961 . S
H4150 C4135 0.961 1_455 S
H4151 C4135 0.961 1_455 S
H4152 C4136 0.931 . S
H4153 C4141 0.930 . S
H4154 C4142 0.956 . S
H4155 C4142 0.961 . S
H4156 C4142 0.961 . S
H4157 C4143 0.983 . S
H4158 C4143 0.906 1_455 S
H4159 C4143 0.969 . S
C4160 C4161 1.391 . S
C4160 C4162 1.394 . S
C4160 H4176 0.931 . S
C4161 C4160 1.391 . S
C4161 C4165 1.376 . S
C4162 C4160 1.394 . S
C4162 C4163 1.369 . S
C4162 C4166 1.531 . S
C4163 C4162 1.369 . S
C4163 C4164 1.410 . S
C4163 C4171 1.503 . S
C4164 C4163 1.410 . S
C4164 C4165 1.392 . S
C4164 C4167 1.511 . S
C4165 C4161 1.376 . S
C4165 C4164 1.392 . S
C4165 H4177 0.929 . S
C4166 C4162 1.531 . S
C4166 H4178 0.960 . S
C4166 H4179 0.962 . S
C4166 H4180 0.960 . S
C4167 C4164 1.511 . S
C4167 H4181 0.961 . S
C4167 H4182 0.961 . S
C4167 H4183 0.961 . S
C4168 C4169 1.370 . S
C4168 C4170 1.363 . S
C4168 H4184 0.931 . S
C4169 C4168 1.370 . S
C4169 C4173 1.408 . S
C4170 C4168 1.363 . S
C4170 C4171 1.370 . S
C4170 C4174 1.524 . S
C4171 C4163 1.503 . S
C4171 C4170 1.370 . S
C4171 C4172 1.403 . S
C4172 C4171 1.403 . S
C4172 C4173 1.404 . S
C4172 C4175 1.539 . S
C4173 C4169 1.408 . S
C4173 C4172 1.404 . S
C4173 H4185 0.930 . S
C4174 C4170 1.524 . S
C4174 H4186 0.956 . S
C4174 H4187 0.961 . S
C4174 H4188 0.961 . S
C4175 C4172 1.539 . S
C4175 H4189 0.958 . S
C4175 H4190 0.961 . S
C4175 H4191 0.960 . S
H4176 C4160 0.931 . S
H4177 C4165 0.929 . S
H4178 C4166 0.960 . S
H4179 C4166 0.962 . S
H4180 C4166 0.960 . S
H4181 C4167 0.961 . S
H4182 C4167 0.961 . S
H4183 C4167 0.961 . S
H4184 C4168 0.931 . S
H4185 C4173 0.930 . S
H4186 C4174 0.956 . S
H4187 C4174 0.961 . S
H4188 C4174 0.961 . S
H4189 C4175 0.958 . S
H4190 C4175 0.961 . S
H4191 C4175 0.960 . S
C4192 C4193 1.391 . S
C4192 C4194 1.394 . S
C4192 H4208 0.931 . S
C4193 C4192 1.391 . S
C4193 C4197 1.376 . S
C4194 C4192 1.394 . S
C4194 C4195 1.369 . S
C4194 C4198 1.531 . S
C4195 C4194 1.369 . S
C4195 C4196 1.410 . S
C4195 C4203 1.503 . S
C4196 C4195 1.410 . S
C4196 C4197 1.392 . S
C4196 C4199 1.511 . S
C4197 C4193 1.376 . S
C4197 C4196 1.392 . S
C4197 H4209 0.929 . S
C4198 C4194 1.531 . S
C4198 H4210 0.960 . S
C4198 H4211 0.962 . S
C4198 H4212 0.960 . S
C4199 C4196 1.511 . S
C4199 H4213 0.961 . S
C4199 H4214 0.961 . S
C4199 H4215 0.961 . S
C4200 C4201 1.370 . S
C4200 C4202 1.363 . S
C4200 H4216 0.931 . S
C4201 C4200 1.370 . S
C4201 C4205 1.408 . S
C4202 C4200 1.363 . S
C4202 C4203 1.370 . S
C4202 C4206 1.524 . S
C4203 C4195 1.503 . S
C4203 C4202 1.370 . S
C4203 C4204 1.403 . S
C4204 C4203 1.403 . S
C4204 C4205 1.404 . S
C4204 C4207 1.539 . S
C4205 C4201 1.408 . S
C4205 C4204 1.404 . S
C4205 H4217 0.930 . S
C4206 C4202 1.524 . S
C4206 H4218 0.956 . S
C4206 H4219 0.961 . S
C4206 H4220 0.961 . S
C4207 C4204 1.539 . S
C4207 H4221 0.958 . S
C4207 H4222 0.961 . S
C4207 H4223 0.960 . S
H4208 C4192 0.931 . S
H4209 C4197 0.929 . S
H4210 C4198 0.960 . S
H4211 C4198 0.962 . S
H4212 C4198 0.960 . S
H4213 C4199 0.961 . S
H4214 C4199 0.961 . S
H4215 C4199 0.961 . S
H4216 C4200 0.931 . S
H4217 C4205 0.930 . S
H4218 C4206 0.956 . S
H4219 C4206 0.961 . S
H4220 C4206 0.961 . S
H4221 C4207 0.958 . S
H4222 C4207 0.961 . S
H4223 C4207 0.960 . S
C4224 C4225 1.391 . S
C4224 C4226 1.394 . S
C4224 H4240 0.931 . S
C4225 C4224 1.391 . S
C4225 C4229 1.376 . S
C4226 C4224 1.394 . S
C4226 C4227 1.369 . S
C4226 C4230 1.531 . S
C4227 C4226 1.369 . S
C4227 C4228 1.410 . S
C4227 C4235 1.503 . S
C4228 C4227 1.410 . S
C4228 C4229 1.392 . S
C4228 C4231 1.511 . S
C4229 C4225 1.376 . S
C4229 C4228 1.392 . S
C4229 H4241 0.929 . S
C4230 C4226 1.531 . S
C4230 H4242 0.960 . S
C4230 H4243 0.962 . S
C4230 H4244 0.960 . S
C4231 C4228 1.511 . S
C4231 H4245 0.961 . S
C4231 H4246 0.961 . S
C4231 H4247 0.961 . S
C4232 C4233 1.370 . S
C4232 C4234 1.363 . S
C4232 H4248 0.931 . S
C4233 C4232 1.370 . S
C4233 C4237 1.408 . S
C4234 C4232 1.363 . S
C4234 C4235 1.370 . S
C4234 C4238 1.524 . S
C4235 C4227 1.503 . S
C4235 C4234 1.370 . S
C4235 C4236 1.403 . S
C4236 C4235 1.403 . S
C4236 C4237 1.404 . S
C4236 C4239 1.539 . S
C4237 C4233 1.408 . S
C4237 C4236 1.404 . S
C4237 H4249 0.930 . S
C4238 C4234 1.524 . S
C4238 H4250 0.956 . S
C4238 H4251 0.961 . S
C4238 H4252 0.961 . S
C4239 C4236 1.539 . S
C4239 H4253 0.958 . S
C4239 H4254 0.961 . S
C4239 H4255 0.960 . S
H4240 C4224 0.931 . S
H4241 C4229 0.929 . S
H4242 C4230 0.960 . S
H4243 C4230 0.962 . S
H4244 C4230 0.960 . S
H4245 C4231 0.961 . S
H4246 C4231 0.961 . S
H4247 C4231 0.961 . S
H4248 C4232 0.931 . S
H4249 C4237 0.930 . S
H4250 C4238 0.956 . S
H4251 C4238 0.961 . S
H4252 C4238 0.961 . S
H4253 C4239 0.958 . S
H4254 C4239 0.961 . S
H4255 C4239 0.960 . S
C4256 C4257 1.391 . S
C4256 C4258 1.394 . S
C4256 H4272 0.931 . S
C4257 C4256 1.391 . S
C4257 C4261 1.376 . S
C4258 C4256 1.394 . S
C4258 C4259 1.369 . S
C4258 C4262 1.531 . S
C4259 C4258 1.369 . S
C4259 C4260 1.410 . S
C4259 C4267 1.503 . S
C4260 C4259 1.410 . S
C4260 C4261 1.392 . S
C4260 C4263 1.511 . S
C4261 C4257 1.376 . S
C4261 C4260 1.392 . S
C4261 H4273 0.929 . S
C4262 C4258 1.531 . S
C4262 H4274 0.960 . S
C4262 H4275 0.962 . S
C4262 H4276 0.960 . S
C4263 C4260 1.511 . S
C4263 H4277 0.961 . S
C4263 H4278 0.961 . S
C4263 H4279 0.961 . S
C4264 C4265 1.370 . S
C4264 C4266 1.363 . S
C4264 H4280 0.931 1_655 S
C4265 C4264 1.370 . S
C4265 C4269 1.408 . S
C4266 C4264 1.363 . S
C4266 C4267 1.370 . S
C4266 C4270 1.524 . S
C4267 C4259 1.503 . S
C4267 C4266 1.370 . S
C4267 C4268 1.403 . S
C4268 C4267 1.403 . S
C4268 C4269 1.404 . S
C4268 C4271 1.539 . S
C4269 C4265 1.408 . S
C4269 C4268 1.404 . S
C4269 H4281 0.930 . S
C4270 C4266 1.524 . S
C4270 H4282 0.956 . S
C4270 H4283 0.961 . S
C4270 H4284 0.999 . S
C4271 C4268 1.539 . S
C4271 H4285 0.958 . S
C4271 H4286 0.961 . S
C4271 H4287 0.960 . S
H4272 C4256 0.931 . S
H4273 C4261 0.929 . S
H4274 C4262 0.960 . S
H4275 C4262 0.962 . S
H4276 C4262 0.960 . S
H4277 C4263 0.961 . S
H4278 C4263 0.961 . S
H4279 C4263 0.961 . S
H4280 C4264 0.931 1_455 S
H4281 C4269 0.930 . S
H4282 C4270 0.956 . S
H4283 C4270 0.961 . S
H4284 C4270 0.999 . S
H4285 C4271 0.958 . S
H4286 C4271 0.961 . S
H4287 C4271 0.960 . S
C4288 C4289 1.391 . S
C4288 C4290 1.394 . S
C4288 H4304 0.931 . S
C4289 C4288 1.391 . S
C4289 C4293 1.376 . S
C4290 C4288 1.394 . S
C4290 C4291 1.369 . S
C4290 C4294 1.531 . S
C4291 C4290 1.369 . S
C4291 C4292 1.410 . S
C4291 C4299 1.503 . S
C4292 C4291 1.410 . S
C4292 C4293 1.392 . S
C4292 C4295 1.511 . S
C4293 C4289 1.376 . S
C4293 C4292 1.392 . S
C4293 H4305 0.929 . S
C4294 C4290 1.531 . S
C4294 H4306 0.960 . S
C4294 H4307 0.962 . S
C4294 H4308 0.960 . S
C4295 C4292 1.511 . S
C4295 H4309 0.961 . S
C4295 H4310 0.961 . S
C4295 H4311 0.961 . S
C4296 C4297 1.370 . S
C4296 C4298 1.363 . S
C4296 H4312 0.931 . S
C4297 C4296 1.370 . S
C4297 C4301 1.408 . S
C4298 C4296 1.363 . S
C4298 C4299 1.370 . S
C4298 C4302 1.524 . S
C4299 C4291 1.503 . S
C4299 C4298 1.370 . S
C4299 C4300 1.403 . S
C4300 C4299 1.403 . S
C4300 C4301 1.404 . S
C4300 C4303 1.539 . S
C4301 C4297 1.408 . S
C4301 C4300 1.404 . S
C4301 H4313 0.930 . S
C4302 C4298 1.524 . S
C4302 H4314 0.956 . S
C4302 H4315 0.961 . S
C4302 H4316 0.961 . S
C4303 C4300 1.539 . S
C4303 H4317 0.958 . S
C4303 H4318 0.961 . S
C4303 H4319 0.960 . S
H4304 C4288 0.931 . S
H4305 C4293 0.929 . S
H4306 C4294 0.960 . S
H4307 C4294 0.962 . S
H4308 C4294 0.960 . S
H4309 C4295 0.961 . S
H4310 C4295 0.961 . S
H4311 C4295 0.961 . S
H4312 C4296 0.931 . S
H4313 C4301 0.930 . S
H4314 C4302 0.956 . S
H4315 C4302 0.961 . S
H4316 C4302 0.961 . S
H4317 C4303 0.958 . S
H4318 C4303 0.961 . S
H4319 C4303 0.960 . S
C4320 C4321 1.391 . S
C4320 C4322 1.394 . S
C4320 H4336 0.931 . S
C4321 C4320 1.391 . S
C4321 C4325 1.376 . S
C4322 C4320 1.394 . S
C4322 C4323 1.369 . S
C4322 C4326 1.531 . S
C4323 C4322 1.369 . S
C4323 C4324 1.410 . S
C4323 C4331 1.503 . S
C4324 C4323 1.410 . S
C4324 C4325 1.392 . S
C4324 C4327 1.511 . S
C4325 C4321 1.376 . S
C4325 C4324 1.392 . S
C4325 H4337 0.929 . S
C4326 C4322 1.531 . S
C4326 H4338 0.960 . S
C4326 H4339 0.962 . S
C4326 H4340 0.960 . S
C4327 C4324 1.511 . S
C4327 H4341 0.961 . S
C4327 H4342 0.961 . S
C4327 H4343 0.961 . S
C4328 C4329 1.370 . S
C4328 C4330 1.363 . S
C4328 H4344 0.931 . S
C4329 C4328 1.370 . S
C4329 C4333 1.408 . S
C4330 C4328 1.363 . S
C4330 C4331 1.370 . S
C4330 C4334 1.524 . S
C4331 C4323 1.503 . S
C4331 C4330 1.370 . S
C4331 C4332 1.403 . S
C4332 C4331 1.403 . S
C4332 C4333 1.404 . S
C4332 C4335 1.539 . S
C4333 C4329 1.408 . S
C4333 C4332 1.404 . S
C4333 H4345 0.930 . S
C4334 C4330 1.524 . S
C4334 H4346 0.956 . S
C4334 H4347 0.961 . S
C4334 H4348 0.961 . S
C4335 C4332 1.539 . S
C4335 H4349 0.958 . S
C4335 H4350 0.961 . S
C4335 H4351 0.960 . S
H4336 C4320 0.931 . S
H4337 C4325 0.929 . S
H4338 C4326 0.960 . S
H4339 C4326 0.962 . S
H4340 C4326 0.960 . S
H4341 C4327 0.961 . S
H4342 C4327 0.961 . S
H4343 C4327 0.961 . S
H4344 C4328 0.931 . S
H4345 C4333 0.930 . S
H4346 C4334 0.956 . S
H4347 C4334 0.961 . S
H4348 C4334 0.961 . S
H4349 C4335 0.958 . S
H4350 C4335 0.961 . S
H4351 C4335 0.960 . S
C4352 C4353 1.391 . S
C4352 C4354 1.394 . S
C4352 H4368 0.931 . S
C4353 C4352 1.391 . S
C4353 C4357 1.376 . S
C4354 C4352 1.394 . S
C4354 C4355 1.369 . S
C4354 C4358 1.531 . S
C4355 C4354 1.369 . S
C4355 C4356 1.410 . S
C4355 C4363 1.503 . S
C4356 C4355 1.410 . S
C4356 C4357 1.392 . S
C4356 C4359 1.511 . S
C4357 C4353 1.376 . S
C4357 C4356 1.392 . S
C4357 H4369 0.929 . S
C4358 C4354 1.531 . S
C4358 H4370 0.960 . S
C4358 H4371 0.962 . S
C4358 H4372 0.960 . S
C4359 C4356 1.511 . S
C4359 H4373 0.961 . S
C4359 H4374 0.961 . S
C4359 H4375 0.961 . S
C4360 C4361 1.370 . S
C4360 C4362 1.363 . S
C4360 H4376 0.931 . S
C4361 C4360 1.370 . S
C4361 C4365 1.408 . S
C4362 C4360 1.363 . S
C4362 C4363 1.370 . S
C4362 C4366 1.524 . S
C4363 C4355 1.503 . S
C4363 C4362 1.370 . S
C4363 C4364 1.403 . S
C4364 C4363 1.403 . S
C4364 C4365 1.404 . S
C4364 C4367 1.563 . S
C4365 C4361 1.408 . S
C4365 C4364 1.404 . S
C4365 H4377 0.930 1_565 S
C4366 C4362 1.524 . S
C4366 H4378 0.956 . S
C4366 H4379 0.961 . S
C4366 H4380 0.961 . S
C4367 C4364 1.563 . S
C4367 H4381 0.959 . S
C4367 H4382 0.929 1_565 S
C4367 H4383 0.969 . S
H4368 C4352 0.931 . S
H4369 C4357 0.929 . S
H4370 C4358 0.960 . S
H4371 C4358 0.962 . S
H4372 C4358 0.960 . S
H4373 C4359 0.961 . S
H4374 C4359 0.961 . S
H4375 C4359 0.961 . S
H4376 C4360 0.931 . S
H4377 C4365 0.930 1_545 S
H4378 C4366 0.956 . S
H4379 C4366 0.961 . S
H4380 C4366 0.961 . S
H4381 C4367 0.959 . S
H4382 C4367 0.929 1_545 S
H4383 C4367 0.969 . S
C4384 C4385 1.391 . S
C4384 C4386 1.394 . S
C4384 H4400 0.931 . S
C4385 C4384 1.391 . S
C4385 C4389 1.376 . S
C4386 C4384 1.394 . S
C4386 C4387 1.369 . S
C4386 C4390 1.531 . S
C4387 C4386 1.369 . S
C4387 C4388 1.410 . S
C4387 C4395 1.503 . S
C4388 C4387 1.410 . S
C4388 C4389 1.392 . S
C4388 C4391 1.511 . S
C4389 C4385 1.376 . S
C4389 C4388 1.392 . S
C4389 H4401 0.929 . S
C4390 C4386 1.531 . S
C4390 H4402 0.960 . S
C4390 H4403 0.962 . S
C4390 H4404 0.960 . S
C4391 C4388 1.511 . S
C4391 H4405 0.961 . S
C4391 H4406 0.961 . S
C4391 H4407 0.961 . S
C4392 C4393 1.370 . S
C4392 C4394 1.363 . S
C4392 H4408 0.931 . S
C4393 C4392 1.370 . S
C4393 C4397 1.408 . S
C4394 C4392 1.363 . S
C4394 C4395 1.370 . S
C4394 C4398 1.524 . S
C4395 C4387 1.503 . S
C4395 C4394 1.370 . S
C4395 C4396 1.403 . S
C4396 C4395 1.403 . S
C4396 C4397 1.404 . S
C4396 C4399 1.539 . S
C4397 C4393 1.408 . S
C4397 C4396 1.404 . S
C4397 H4409 0.930 . S
C4398 C4394 1.524 . S
C4398 H4410 0.956 . S
C4398 H4411 0.961 . S
C4398 H4412 0.961 . S
C4399 C4396 1.539 . S
C4399 H4413 0.958 . S
C4399 H4414 0.961 . S
C4399 H4415 0.960 . S
H4400 C4384 0.931 . S
H4401 C4389 0.929 . S
H4402 C4390 0.960 . S
H4403 C4390 0.962 . S
H4404 C4390 0.960 . S
H4405 C4391 0.961 . S
H4406 C4391 0.961 . S
H4407 C4391 0.961 . S
H4408 C4392 0.931 . S
H4409 C4397 0.930 . S
H4410 C4398 0.956 . S
H4411 C4398 0.961 . S
H4412 C4398 0.961 . S
H4413 C4399 0.958 . S
H4414 C4399 0.961 . S
H4415 C4399 0.960 . S
C4416 C4417 1.391 . S
C4416 C4418 1.394 . S
C4416 H4432 0.931 . S
C4417 C4416 1.391 . S
C4417 C4421 1.376 . S
C4418 C4416 1.394 . S
C4418 C4419 1.369 . S
C4418 C4422 1.531 . S
C4419 C4418 1.369 . S
C4419 C4420 1.410 . S
C4419 C4427 1.503 . S
C4420 C4419 1.410 . S
C4420 C4421 1.392 . S
C4420 C4423 1.511 . S
C4421 C4417 1.376 . S
C4421 C4420 1.392 . S
C4421 H4433 0.929 . S
C4422 C4418 1.531 . S
C4422 H4434 0.960 . S
C4422 H4435 0.962 . S
C4422 H4436 0.960 . S
C4423 C4420 1.511 . S
C4423 H4437 0.961 . S
C4423 H4438 0.961 . S
C4423 H4439 0.961 . S
C4424 C4425 1.370 . S
C4424 C4426 1.363 . S
C4424 H4440 0.931 . S
C4425 C4424 1.370 . S
C4425 C4429 1.408 . S
C4426 C4424 1.363 . S
C4426 C4427 1.370 . S
C4426 C4430 1.524 . S
C4427 C4419 1.503 . S
C4427 C4426 1.370 . S
C4427 C4428 1.403 . S
C4428 C4427 1.403 . S
C4428 C4429 1.404 . S
C4428 C4431 1.539 . S
C4429 C4425 1.408 . S
C4429 C4428 1.404 . S
C4429 H4441 0.930 . S
C4430 C4426 1.524 . S
C4430 H4442 0.956 . S
C4430 H4443 0.961 . S
C4430 H4444 0.961 . S
C4431 C4428 1.539 . S
C4431 H4445 0.958 . S
C4431 H4446 0.961 . S
C4431 H4447 0.960 . S
H4432 C4416 0.931 . S
H4433 C4421 0.929 . S
H4434 C4422 0.960 . S
H4435 C4422 0.962 . S
H4436 C4422 0.960 . S
H4437 C4423 0.961 . S
H4438 C4423 0.961 . S
H4439 C4423 0.961 . S
H4440 C4424 0.931 . S
H4441 C4429 0.930 . S
H4442 C4430 0.956 . S
H4443 C4430 0.961 . S
H4444 C4430 0.961 . S
H4445 C4431 0.958 . S
H4446 C4431 0.961 . S
H4447 C4431 0.960 . S
C4448 C4449 1.391 . S
C4448 C4450 1.394 . S
C4448 H4464 0.931 . S
C4449 C4448 1.391 . S
C4449 C4453 1.376 . S
C4450 C4448 1.394 . S
C4450 C4451 1.369 . S
C4450 C4454 1.531 . S
C4451 C4450 1.369 . S
C4451 C4452 1.410 . S
C4451 C4459 1.503 . S
C4452 C4451 1.410 . S
C4452 C4453 1.392 . S
C4452 C4455 1.511 . S
C4453 C4449 1.376 . S
C4453 C4452 1.392 . S
C4453 H4465 0.929 . S
C4454 C4450 1.531 . S
C4454 H4466 0.960 . S
C4454 H4467 0.962 . S
C4454 H4468 0.960 . S
C4455 C4452 1.511 . S
C4455 H4469 0.961 . S
C4455 H4470 0.961 . S
C4455 H4471 0.961 . S
C4456 C4457 1.370 . S
C4456 C4458 1.363 . S
C4456 H4472 0.931 . S
C4457 C4456 1.370 . S
C4457 C4461 1.408 . S
C4458 C4456 1.363 . S
C4458 C4459 1.370 . S
C4458 C4462 1.524 . S
C4459 C4451 1.503 . S
C4459 C4458 1.370 . S
C4459 C4460 1.403 . S
C4460 C4459 1.403 . S
C4460 C4461 1.404 . S
C4460 C4463 1.539 . S
C4461 C4457 1.408 . S
C4461 C4460 1.404 . S
C4461 H4473 0.930 . S
C4462 C4458 1.524 . S
C4462 H4474 0.956 . S
C4462 H4475 0.961 . S
C4462 H4476 0.961 . S
C4463 C4460 1.539 . S
C4463 H4477 0.958 . S
C4463 H4478 0.961 . S
C4463 H4479 0.960 . S
H4464 C4448 0.931 . S
H4465 C4453 0.929 . S
H4466 C4454 0.960 . S
H4467 C4454 0.962 . S
H4468 C4454 0.960 . S
H4469 C4455 0.961 . S
H4470 C4455 0.961 . S
H4471 C4455 0.961 . S
H4472 C4456 0.931 . S
H4473 C4461 0.930 . S
H4474 C4462 0.956 . S
H4475 C4462 0.961 . S
H4476 C4462 0.961 . S
H4477 C4463 0.958 . S
H4478 C4463 0.961 . S
H4479 C4463 0.960 . S
C4480 C4481 1.391 . S
C4480 C4482 1.394 . S
C4480 H4496 0.931 . S
C4481 C4480 1.391 . S
C4481 C4485 1.376 . S
C4482 C4480 1.394 . S
C4482 C4483 1.369 . S
C4482 C4486 1.531 . S
C4483 C4482 1.369 . S
C4483 C4484 1.410 . S
C4483 C4491 1.503 . S
C4484 C4483 1.410 . S
C4484 C4485 1.392 . S
C4484 C4487 1.511 1_554 S
C4485 C4481 1.376 . S
C4485 C4484 1.392 . S
C4485 H4497 0.929 . S
C4486 C4482 1.531 . S
C4486 H4498 0.960 . S
C4486 H4499 0.962 . S
C4486 H4500 0.960 . S
C4487 C4484 1.511 1_556 S
C4487 H4501 0.961 . S
C4487 H4502 0.961 . S
C4487 H4503 0.961 . S
C4488 C4489 1.370 . S
C4488 C4490 1.363 . S
C4488 H4504 0.931 . S
C4489 C4488 1.370 . S
C4489 C4493 1.408 . S
C4490 C4488 1.363 . S
C4490 C4491 1.370 . S
C4490 C4494 1.524 . S
C4491 C4483 1.503 . S
C4491 C4490 1.370 . S
C4491 C4492 1.403 . S
C4492 C4491 1.403 . S
C4492 C4493 1.404 . S
C4492 C4495 1.539 . S
C4493 C4489 1.408 . S
C4493 C4492 1.404 . S
C4493 H4505 0.930 . S
C4494 C4490 1.524 . S
C4494 H4506 0.956 . S
C4494 H4507 0.961 . S
C4494 H4508 0.961 . S
C4495 C4492 1.539 . S
C4495 H4509 0.958 . S
C4495 H4510 0.961 . S
C4495 H4511 0.960 . S
H4496 C4480 0.931 . S
H4497 C4485 0.929 . S
H4498 C4486 0.960 . S
H4499 C4486 0.962 . S
H4500 C4486 0.960 . S
H4501 C4487 0.961 . S
H4502 C4487 0.961 . S
H4503 C4487 0.961 . S
H4504 C4488 0.931 . S
H4505 C4493 0.930 . S
H4506 C4494 0.956 . S
H4507 C4494 0.961 . S
H4508 C4494 0.961 . S
H4509 C4495 0.958 . S
H4510 C4495 0.961 . S
H4511 C4495 0.960 . S
C4512 C4513 1.391 . S
C4512 C4514 1.394 . S
C4512 H4528 0.931 . S
C4513 C4512 1.391 . S
C4513 C4517 1.376 . S
C4514 C4512 1.394 . S
C4514 C4515 1.369 . S
C4514 C4518 1.531 . S
C4515 C4514 1.369 . S
C4515 C4516 1.410 . S
C4515 C4523 1.503 . S
C4516 C4515 1.410 . S
C4516 C4517 1.392 . S
C4516 C4519 1.511 . S
C4517 C4513 1.376 . S
C4517 C4516 1.392 . S
C4517 H4529 0.929 . S
C4518 C4514 1.531 . S
C4518 H4530 0.960 . S
C4518 H4531 0.962 . S
C4518 H4532 0.960 . S
C4519 C4516 1.511 . S
C4519 H4533 0.961 . S
C4519 H4534 0.961 . S
C4519 H4535 0.961 . S
C4520 C4521 1.370 . S
C4520 C4522 1.363 . S
C4520 H4536 0.931 . S
C4521 C4520 1.370 . S
C4521 C4525 1.408 . S
C4522 C4520 1.363 . S
C4522 C4523 1.370 . S
C4522 C4526 1.524 . S
C4523 C4515 1.503 . S
C4523 C4522 1.370 . S
C4523 C4524 1.403 . S
C4524 C4523 1.403 . S
C4524 C4525 1.404 . S
C4524 C4527 1.539 . S
C4525 C4521 1.408 . S
C4525 C4524 1.404 . S
C4525 H4537 0.930 . S
C4526 C4522 1.524 . S
C4526 H4538 0.956 . S
C4526 H4539 0.961 . S
C4526 H4540 0.961 . S
C4527 C4524 1.539 . S
C4527 H4541 0.958 . S
C4527 H4542 0.961 . S
C4527 H4543 0.960 . S
H4528 C4512 0.931 . S
H4529 C4517 0.929 . S
H4530 C4518 0.960 . S
H4531 C4518 0.962 . S
H4532 C4518 0.960 . S
H4533 C4519 0.961 . S
H4534 C4519 0.961 . S
H4535 C4519 0.961 . S
H4536 C4520 0.931 . S
H4537 C4525 0.930 . S
H4538 C4526 0.956 . S
H4539 C4526 0.961 . S
H4540 C4526 0.961 . S
H4541 C4527 0.958 . S
H4542 C4527 0.961 . S
H4543 C4527 0.960 . S
C4544 C4545 1.391 . S
C4544 C4546 1.394 . S
C4544 H4560 0.931 . S
C4545 C4544 1.391 . S
C4545 C4549 1.376 . S
C4546 C4544 1.394 . S
C4546 C4547 1.369 . S
C4546 C4550 1.531 . S
C4547 C4546 1.369 . S
C4547 C4548 1.410 . S
C4547 C4555 1.503 . S
C4548 C4547 1.410 . S
C4548 C4549 1.392 . S
C4548 C4551 1.511 . S
C4549 C4545 1.376 . S
C4549 C4548 1.392 . S
C4549 H4561 0.929 . S
C4550 C4546 1.531 . S
C4550 H4562 0.960 . S
C4550 H4563 0.962 . S
C4550 H4564 0.960 . S
C4551 C4548 1.511 . S
C4551 H4565 0.961 . S
C4551 H4566 0.961 . S
C4551 H4567 0.961 . S
C4552 C4553 1.370 . S
C4552 C4554 1.363 . S
C4552 H4568 0.931 . S
C4553 C4552 1.370 . S
C4553 C4557 1.408 . S
C4554 C4552 1.363 . S
C4554 C4555 1.370 . S
C4554 C4558 1.524 . S
C4555 C4547 1.503 . S
C4555 C4554 1.370 . S
C4555 C4556 1.403 . S
C4556 C4555 1.403 . S
C4556 C4557 1.404 . S
C4556 C4559 1.539 . S
C4557 C4553 1.408 . S
C4557 C4556 1.404 . S
C4557 H4569 0.930 . S
C4558 C4554 1.524 . S
C4558 H4570 0.956 . S
C4558 H4571 0.961 . S
C4558 H4572 0.961 . S
C4559 C4556 1.539 . S
C4559 H4573 0.958 . S
C4559 H4574 0.961 . S
C4559 H4575 0.960 . S
H4560 C4544 0.931 . S
H4561 C4549 0.929 . S
H4562 C4550 0.960 . S
H4563 C4550 0.962 . S
H4564 C4550 0.960 . S
H4565 C4551 0.961 . S
H4566 C4551 0.961 . S
H4567 C4551 0.961 . S
H4568 C4552 0.931 . S
H4569 C4557 0.930 . S
H4570 C4558 0.956 . S
H4571 C4558 0.961 . S
H4572 C4558 0.961 . S
H4573 C4559 0.958 . S
H4574 C4559 0.961 . S
H4575 C4559 0.960 . S
C1505 C255 2.050 1_455 S
C1513 C883 2.032 . S
C1537 C147 2.195 . S
C1545 C912 2.198 . S
C1569 C184 1.155 . S
C1577 C963 1.151 . S
C1609 C989 1.499 . S
C1601 C220 1.510 . S
C1633 C40 0.606 . S
C1641 C1029 0.520 . S
C1673 C1079 0.335 . S
C1665 C74 0.361 . S
C1705 C1122 0.516 . S
C1697 C110 0.321 . S
C1729 C14 1.130 . S
C1737 C1159 1.131 . S
C1769 C872 2.414 . S
C1761 C579 2.397 . S
C1793 C616 0.467 . S
C1801 C909 0.461 . S
C1833 C952 2.416 . S
C1825 C687 2.435 . S
C1865 C1003 1.332 . S
C1857 C436 1.380 . S
C1889 C580 1.859 . S
C1897 C1043 1.846 1_655 S
C1929 C1082 0.472 . S
C1921 C615 0.244 . S
C1961 C1113 1.973 1_556 S
C1953 C688 2.042 . S
C1993 C1162 2.023 . S
C1985 C435 2.018 . S
C2025 C869 1.311 . S
C2017 C410 1.360 1_554 S
C2049 C722 2.369 . S
C2057 C1192 2.371 . S
C2089 C1233 2.493 . S
C2081 C842 2.461 . S
C2121 C1279 0.576 . S
C2113 C794 0.569 . S
C2145 C302 2.584 . S
C2153 C1153 2.583 . S
C2177 C338 1.500 . S
C2185 C949 1.486 . S
C2209 C830 2.305 . S
C2217 C1312 2.302 . S
C2249 C1363 1.927 . S
C2241 C758 1.933 . S
C2281 C873 2.018 . S
C2273 C158 1.939 . S
C2313 C1362 2.185 . S
C2305 C254 2.177 . S
C2337 C218 1.130 . S
C2345 C953 1.139 . S
C2369 C194 1.438 . S
C2377 C1319 1.475 . S
C2409 C1039 0.559 . S
C2401 C3 0.565 . S
C2433 C111 0.342 . S
C2441 C1229 0.198 . S
C2473 C1112 0.434 . S
C2465 C76 0.328 . S
C2505 C1389 1.141 . S
C2497 C50 1.071 . S
C2537 C882 2.393 . S
C2529 C364 2.387 . S
C2569 C1359 0.448 . S
C2561 C795 0.460 . S
C2593 C292 2.369 . S
C2601 C962 2.365 . S
C2625 C723 1.265 . S
C2633 C1313 1.247 . S
C2657 C363 1.864 . S
C2665 C1033 1.823 . S
C2697 C1232 0.354 . S
C2689 C796 0.509 . S
C2721 C291 1.988 . S
C2729 C1123 1.927 . S
C2753 C724 2.042 . S
C2761 C1392 2.039 . S
C2785 C482 1.252 . S
C2793 C879 1.424 . S
C2817 C434 2.331 . S
C2825 C1202 2.325 . S
C2849 C662 2.365 . S
C2857 C1083 2.430 . S
C2881 C614 0.527 . S
C2889 C1269 0.535 . S
C2921 C1403 2.575 . S
C2913 C698 2.521 . S
C2945 C554 1.429 . S
C2953 C959 1.453 . S
C2985 C1002 2.247 . S
C2977 C650 2.253 . S
C3017 C913 1.884 . S
C3009 C506 1.915 . S
C3041 C183 2.053 . S
C3049 C1443 2.024 . S
C3081 C1352 2.198 . S
C3073 C219 2.198 . S
C3105 C256 1.150 . S
C3113 C1483 1.146 . S
C3137 C148 1.515 1_655 S
C3145 C1309 1.490 . S
C3169 C122 0.564 . S
C3177 C1189 0.579 . S
C3209 C1239 0.317 . S
C3201 C2 0.330 . S
C3241 C1282 0.522 . S
C3233 C39 0.481 . S
C3273 C1399 1.131 . S
C3265 C86 1.079 . S
C3305 C1432 2.439 . S
C3297 C651 2.428 . S
C3329 C472 0.598 . S
C3337 C1349 0.390 . S
C3369 C1472 2.398 . S
C3361 C507 2.416 . S
C3401 C1323 1.315 . S
C3393 C544 1.310 . S
C3433 C1203 1.862 . S
C3425 C652 1.885 . S
C3457 C471 0.289 . S
C3465 C1242 0.417 . S
C3497 C1273 1.959 . S
C3489 C508 2.037 . S
C3521 C543 2.032 . S
C3529 C1402 2.037 . S
C3561 C1429 1.352 . S
C3553 C806 1.426 . S
C3585 C326 2.341 . S
C3593 C1032 2.329 . S
C3625 C1073 2.457 . S
C3617 C374 2.444 . S
C3657 C1119 0.606 . S
C3649 C398 0.608 . S
C3689 C1393 2.584 . S
C3681 C770 2.572 . S
C3713 C734 1.490 . S
C3721 C1469 1.476 . S
C3753 C992 2.295 . S
C3745 C362 2.296 . S
C3785 C923 1.941 . S
C3777 C290 1.947 . S
C3809 C230 1.944 . S
C3817 C1433 2.026 . S
C3849 C922 2.195 . S
C3841 C182 2.202 . S
C3873 C146 1.129 . S
C3881 C1473 1.138 . S
C3905 C266 1.397 . S
C3913 C999 1.482 . S
C3937 C75 0.585 . S
C3945 C1199 0.615 1_556 S
C3977 C1069 0.286 . S
C3969 C38 0.257 . S
C4001 C4 0.470 . S
C4009 C1272 0.538 . S
C4033 C112 1.091 . S
C4041 C1149 1.073 . S
C4073 C1442 2.397 . S
C4065 C832 2.395 . S
C4097 C399 0.382 . S
C4105 C919 0.484 . S
C4137 C1482 2.352 . S
C4129 C760 2.349 . S
C4161 C327 1.255 . S
C4169 C993 1.242 . S
C4193 C831 1.898 . S
C4201 C1193 1.856 . S
C4233 C1072 0.409 . S
C4225 C400 0.286 . S
C4257 C759 2.002 . S
C4265 C1283 1.942 1_655 S
C4297 C1152 2.040 . S
C4289 C328 2.031 . S
C4329 C1439 1.419 . S
C4321 C626 1.259 . S
C4361 C1042 2.318 1_565 S
C4353 C542 2.328 . S
C4385 C590 2.349 . S
C4393 C1243 2.378 . S
C4425 C1109 0.524 . S
C4417 C470 0.538 . S
C4449 C518 2.525 . S
C4457 C1163 2.542 . S
C4481 C446 1.368 . S
C4489 C1479 1.450 . S
C4521 C1322 2.261 . S
C4513 C578 2.265 . S
C4553 C1353 1.871 . S
C4545 C686 1.908 . S
