# Generated by pormake.
# Topology soc, (4,6)-cn, num edge types: 1
# Building blocks:
#     Node 0, Type 0, BuildingBlock: ESEHIV_clean_sbu_0, # of connection points: 4
#     Node 1, Type 0, BuildingBlock: ESEHIV_clean_sbu_0, # of connection points: 4
#     Node 2, Type 0, BuildingBlock: ESEHIV_clean_sbu_0, # of connection points: 4
#     Node 3, Type 0, BuildingBlock: ESEHIV_clean_sbu_0, # of connection points: 4
#     Node 4, Type 0, BuildingBlock: ESEHIV_clean_sbu_0, # of connection points: 4
#     Node 5, Type 0, BuildingBlock: ESEHIV_clean_sbu_0, # of connection points: 4
#     Node 6, Type 0, BuildingBlock: ESEHIV_clean_sbu_0, # of connection points: 4
#     Node 7, Type 0, BuildingBlock: ESEHIV_clean_sbu_0, # of connection points: 4
#     Node 8, Type 0, BuildingBlock: ESEHIV_clean_sbu_0, # of connection points: 4
#     Node 9, Type 0, BuildingBlock: ESEHIV_clean_sbu_0, # of connection points: 4
#     Node 10, Type 0, BuildingBlock: ESEHIV_clean_sbu_0, # of connection points: 4
#     Node 11, Type 0, BuildingBlock: ESEHIV_clean_sbu_0, # of connection points: 4
#     Node 12, Type 1, BuildingBlock: KUMJIN_clean_sbu_0, # of connection points: 6
#     Node 13, Type 1, BuildingBlock: KUMJIN_clean_sbu_0, # of connection points: 6
#     Node 14, Type 1, BuildingBlock: KUMJIN_clean_sbu_0, # of connection points: 6
#     Node 15, Type 1, BuildingBlock: KUMJIN_clean_sbu_0, # of connection points: 6
#     Node 16, Type 1, BuildingBlock: KUMJIN_clean_sbu_0, # of connection points: 6
#     Node 17, Type 1, BuildingBlock: KUMJIN_clean_sbu_0, # of connection points: 6
#     Node 18, Type 1, BuildingBlock: KUMJIN_clean_sbu_0, # of connection points: 6
#     Node 19, Type 1, BuildingBlock: KUMJIN_clean_sbu_0, # of connection points: 6
#     Edge 20, Type (0, 1), BuildingBlock: TEMPAE_clean_linker_10, # of connection points: 2
#     Edge 21, Type (0, 1), BuildingBlock: TEMPAE_clean_linker_10, # of connection points: 2
#     Edge 22, Type (0, 1), BuildingBlock: TEMPAE_clean_linker_10, # of connection points: 2
#     Edge 23, Type (0, 1), BuildingBlock: TEMPAE_clean_linker_10, # of connection points: 2
#     Edge 24, Type (0, 1), BuildingBlock: TEMPAE_clean_linker_10, # of connection points: 2
#     Edge 25, Type (0, 1), BuildingBlock: TEMPAE_clean_linker_10, # of connection points: 2
#     Edge 26, Type (0, 1), BuildingBlock: TEMPAE_clean_linker_10, # of connection points: 2
#     Edge 27, Type (0, 1), BuildingBlock: TEMPAE_clean_linker_10, # of connection points: 2
#     Edge 28, Type (0, 1), BuildingBlock: TEMPAE_clean_linker_10, # of connection points: 2
#     Edge 29, Type (0, 1), BuildingBlock: TEMPAE_clean_linker_10, # of connection points: 2
#     Edge 30, Type (0, 1), BuildingBlock: TEMPAE_clean_linker_10, # of connection points: 2
#     Edge 31, Type (0, 1), BuildingBlock: TEMPAE_clean_linker_10, # of connection points: 2
#     Edge 32, Type (0, 1), BuildingBlock: TEMPAE_clean_linker_10, # of connection points: 2
#     Edge 33, Type (0, 1), BuildingBlock: TEMPAE_clean_linker_10, # of connection points: 2
#     Edge 34, Type (0, 1), BuildingBlock: TEMPAE_clean_linker_10, # of connection points: 2
#     Edge 35, Type (0, 1), BuildingBlock: TEMPAE_clean_linker_10, # of connection points: 2
#     Edge 36, Type (0, 1), BuildingBlock: TEMPAE_clean_linker_10, # of connection points: 2
#     Edge 37, Type (0, 1), BuildingBlock: TEMPAE_clean_linker_10, # of connection points: 2
#     Edge 38, Type (0, 1), BuildingBlock: TEMPAE_clean_linker_10, # of connection points: 2
#     Edge 39, Type (0, 1), BuildingBlock: TEMPAE_clean_linker_10, # of connection points: 2
#     Edge 40, Type (0, 1), BuildingBlock: TEMPAE_clean_linker_10, # of connection points: 2
#     Edge 41, Type (0, 1), BuildingBlock: TEMPAE_clean_linker_10, # of connection points: 2
#     Edge 42, Type (0, 1), BuildingBlock: TEMPAE_clean_linker_10, # of connection points: 2
#     Edge 43, Type (0, 1), BuildingBlock: TEMPAE_clean_linker_10, # of connection points: 2
#     Edge 44, Type (0, 1), BuildingBlock: TEMPAE_clean_linker_10, # of connection points: 2
#     Edge 45, Type (0, 1), BuildingBlock: TEMPAE_clean_linker_10, # of connection points: 2
#     Edge 46, Type (0, 1), BuildingBlock: TEMPAE_clean_linker_10, # of connection points: 2
#     Edge 47, Type (0, 1), BuildingBlock: TEMPAE_clean_linker_10, # of connection points: 2
#     Edge 48, Type (0, 1), BuildingBlock: TEMPAE_clean_linker_10, # of connection points: 2
#     Edge 49, Type (0, 1), BuildingBlock: TEMPAE_clean_linker_10, # of connection points: 2
#     Edge 50, Type (0, 1), BuildingBlock: TEMPAE_clean_linker_10, # of connection points: 2
#     Edge 51, Type (0, 1), BuildingBlock: TEMPAE_clean_linker_10, # of connection points: 2
#     Edge 52, Type (0, 1), BuildingBlock: TEMPAE_clean_linker_10, # of connection points: 2
#     Edge 53, Type (0, 1), BuildingBlock: TEMPAE_clean_linker_10, # of connection points: 2
#     Edge 54, Type (0, 1), BuildingBlock: TEMPAE_clean_linker_10, # of connection points: 2
#     Edge 55, Type (0, 1), BuildingBlock: TEMPAE_clean_linker_10, # of connection points: 2
#     Edge 56, Type (0, 1), BuildingBlock: TEMPAE_clean_linker_10, # of connection points: 2
#     Edge 57, Type (0, 1), BuildingBlock: TEMPAE_clean_linker_10, # of connection points: 2
#     Edge 58, Type (0, 1), BuildingBlock: TEMPAE_clean_linker_10, # of connection points: 2
#     Edge 59, Type (0, 1), BuildingBlock: TEMPAE_clean_linker_10, # of connection points: 2
#     Edge 60, Type (0, 1), BuildingBlock: TEMPAE_clean_linker_10, # of connection points: 2
#     Edge 61, Type (0, 1), BuildingBlock: TEMPAE_clean_linker_10, # of connection points: 2
#     Edge 62, Type (0, 1), BuildingBlock: TEMPAE_clean_linker_10, # of connection points: 2
#     Edge 63, Type (0, 1), BuildingBlock: TEMPAE_clean_linker_10, # of connection points: 2
#     Edge 64, Type (0, 1), BuildingBlock: TEMPAE_clean_linker_10, # of connection points: 2
#     Edge 65, Type (0, 1), BuildingBlock: TEMPAE_clean_linker_10, # of connection points: 2
#     Edge 66, Type (0, 1), BuildingBlock: TEMPAE_clean_linker_10, # of connection points: 2
#     Edge 67, Type (0, 1), BuildingBlock: TEMPAE_clean_linker_10, # of connection points: 2
# Relax obj value: 0.068
# Max RMSD: 0.199
# Mean RMSD: 0.141
data_MOF--net-soc--node1-ESEHIV_clean_sbu_0--node2-KUMJIN_clean_sbu_0--edge1-TEMPAE_clean_linker_10
_symmetry_space_group_name_H-M    P1
_symmetry_Int_Tables_number       1
_symmetry_cell_setting            triclinic
loop_
_symmetry_equiv_pos_as_xyz
'x, y, z'
_cell_length_a     52.494328
_cell_length_b     50.558071
_cell_length_c     41.974865
_cell_angle_alpha  83.238879
_cell_angle_beta   81.95213
_cell_angle_gamma 73.004691
loop_
_atom_site_label
_atom_site_type_symbol
_atom_site_fract_x
_atom_site_fract_y
_atom_site_fract_z
_atom_type_partial_charge
Cu0 Cu 0.04825 0.04424 0.35168 0.0
N1 N 0.06218 0.06233 0.3785 0.0
N2 N 0.08264 0.09076 0.39405 0.0
C3 C 0.07863 0.07855 0.36913 0.0
C4 C 0.06799 0.08244 0.42009 0.0
C5 C 0.05529 0.0649 0.4104 0.0
O6 O 0.07609 0.01627 0.32806 0.0
C7 C 1.00259 0.08608 0.34454 0.0
O8 O 1.00087 0.08006 0.37592 0.0
H9 H 0.08668 0.0823 0.34441 0.0
H10 H 0.04136 0.05539 0.42541 0.0
N11 N 0.02807 0.02264 0.37574 0.0
N12 N 1.00118 0.99494 0.38285 0.0
C13 C 1.00886 0.01532 0.36388 0.0
C14 C 0.03287 0.00639 0.40324 0.0
C15 C 1.0161 0.98942 0.40786 0.0
C16 C 0.10075 0.01486 0.32028 0.0
O17 O 0.10928 0.03639 0.32272 0.0
H18 H 1.00173 0.0239 0.34085 0.0
H19 H 0.0487 0.00552 0.41761 0.0
O20 O 0.02306 0.07272 0.32692 0.0
H21 H 0.06661 0.08864 0.44425 0.0
H22 H 1.0163 0.97296 0.42689 0.0
Cu23 Cu 0.04482 0.03674 0.76062 0.0
N24 N 0.03129 0.01907 0.73343 0.0
N25 N 1.00498 0.99703 0.71687 0.0
C26 C 1.00775 0.01292 0.73917 0.0
C27 C 0.02776 0.99326 0.6963 0.0
C28 C 0.04393 0.00682 0.70663 0.0
O29 O 1.01473 0.06171 0.78526 0.0
C30 C 0.09364 0.99808 0.76795 0.0
O31 O 0.09767 0.00818 0.73801 0.0
H32 H 0.99334 0.01953 0.75977 0.0
H33 H 0.06392 0.00682 0.69602 0.0
N34 N 0.06334 0.06005 0.73691 0.0
N35 N 0.08842 0.08938 0.72774 0.0
C36 C 0.07657 0.07419 0.75021 0.0
C37 C 0.06671 0.06657 0.70486 0.0
C38 C 0.08237 0.08465 0.6991 0.0
C39 C 1.00093 0.08148 0.76748 0.0
O40 O 1.00703 0.08201 0.73603 0.0
H41 H 0.0779 0.07285 0.77589 0.0
H42 H 0.05834 0.05883 0.68703 0.0
O43 O 0.07092 0.00771 0.78422 0.0
H44 H 0.03305 0.98057 0.67605 0.0
H45 H 0.0886 0.09378 0.67577 0.0
Cu46 Cu 0.30534 0.06081 0.11368 0.0
N47 N 0.33425 0.03953 0.08874 0.0
N48 N 0.34055 0.01315 0.04779 0.0
C49 C 0.33203 0.01596 0.07926 0.0
C50 C 0.35046 0.03477 0.03746 0.0
C51 C 0.34676 0.05093 0.06292 0.0
O52 O 0.29177 0.03388 0.1444 0.0
C53 C 0.27114 0.108 0.0747 0.0
O54 O 0.26036 0.12178 0.10016 0.0
H55 H 0.31927 0.00433 0.09283 0.0
H56 H 0.34782 0.07214 0.06066 0.0
N57 N 0.31838 0.08142 0.13818 0.0
N58 N 0.32439 0.11466 0.16423 0.0
C59 C 0.3124 0.10901 0.14051 0.0
C60 C 0.33463 0.06955 0.16115 0.0
C61 C 0.33822 0.09001 0.17743 0.0
C62 C 0.27898 0.01681 0.14029 0.0
O63 O 0.26834 0.01914 0.1132 0.0
H64 H 0.29886 0.12457 0.12625 0.0
H65 H 0.34231 0.0474 0.16658 0.0
O66 O 0.28557 0.08295 0.07834 0.0
H67 H 0.35555 0.04099 1.01236 0.0
H68 H 0.34913 0.08708 0.19823 0.0
Cu69 Cu 0.06842 0.30136 0.10476 0.0
N70 N 0.09618 0.28047 0.07671 0.0
N71 N 0.12954 0.27319 0.03609 0.0
C72 C 0.11166 0.29209 0.05435 0.0
C73 C 0.1251 0.24862 0.04759 0.0
C74 C 0.10456 0.25317 0.07254 0.0
O75 O 0.08682 0.31924 0.13037 0.0
C76 C 0.03335 0.31043 0.05977 0.0
O77 O 0.04299 0.2833 0.06225 0.0
H78 H 0.10921 0.31421 0.05103 0.0
H79 H 0.09615 0.23762 0.08604 0.0
N80 N 0.04766 0.28137 0.13243 0.0
N81 N 1.01067 0.27447 0.16183 0.0
C82 C 0.02261 0.29331 0.14603 0.0
C83 C 0.05177 0.25394 0.14028 0.0
C84 C 0.02894 0.24964 0.15823 0.0
C85 C 0.09341 0.3079 0.15809 0.0
O86 O 0.08492 0.28655 0.1706 0.0
H87 H 1.01293 0.31539 0.14327 0.0
H88 H 0.06985 0.23807 0.13329 0.0
O89 O 0.04221 0.32472 0.07653 0.0
H90 H 0.13586 0.2287 0.03868 0.0
H91 H 0.02599 0.22979 0.16785 0.0
Cu92 Cu 0.81616 0.00779 0.99167 0.0
N93 N 0.8356 0.02543 0.96013 0.0
N94 N 0.84078 0.06337 0.9301 0.0
C95 C 0.8233 0.05009 0.94574 0.0
C96 C 0.8653 0.04607 0.9345 0.0
C97 C 0.86204 0.02258 0.95315 0.0
O98 O 0.79915 0.03667 0.02154 0.0
C99 C 0.80835 0.97479 0.94922 0.0
O100 O 0.83419 0.97226 0.94376 0.0
H101 H 0.80183 0.05929 0.94955 0.0
H102 H 0.8777 0.00587 0.96301 0.0
N103 N 0.83625 0.97913 0.01743 0.0
N104 N 0.84179 0.95037 0.06199 0.0
C105 C 0.82501 0.9717 0.04644 0.0
C106 C 0.86129 0.96198 1.01415 0.0
C107 C 0.86482 0.94413 0.0419 0.0
C108 C 0.81701 0.04377 0.03369 0.0
O109 O 0.84231 0.03095 0.02535 0.0
H110 H 0.8047 0.982 0.0559 0.0
H111 H 0.87572 0.96208 0.9931 0.0
O112 O 0.79439 0.99104 0.97033 0.0
H113 H 0.88415 0.05069 0.92638 0.0
H114 H 0.88258 0.92741 0.04647 0.0
Cu115 Cu 0.02881 0.78139 0.02299 0.0
N116 N 1.00508 0.7946 0.99138 0.0
N117 N 0.97378 0.798 0.95897 0.0
C118 C 0.98795 0.78223 0.9823 0.0
C119 C 0.98217 0.82101 0.95304 0.0
C120 C 1.00147 0.81888 0.97309 0.0
O121 O 1.01136 0.76115 0.05983 0.0
C122 C 0.07747 0.78222 0.98332 0.0
O123 O 0.06361 0.80845 0.98088 0.0
H124 H 0.98572 0.7623 0.99276 0.0
H125 H 1.01199 0.83412 0.97443 0.0
N126 N 0.03261 0.81081 0.04275 0.0
N127 N 0.05298 0.83175 0.07072 0.0
C128 C 0.05512 0.80923 0.05534 0.0
C129 C 1.01525 0.83519 0.05071 0.0
C130 C 0.02787 0.84823 0.06825 0.0
C131 C 0.987 0.77323 0.07073 0.0
O132 O 0.9744 0.79664 0.05564 0.0
H133 H 0.07261 0.7914 0.05401 0.0
H134 H 0.99484 0.84268 0.04476 0.0
O135 O 0.06613 0.76492 1.00041 0.0
H136 H 0.97473 0.83813 0.93558 0.0
H137 H 1.01936 0.86809 0.07832 0.0
Cu138 Cu 0.54569 0.5343 0.85167 0.0
N139 N 0.55889 0.55311 0.87798 0.0
N140 N 0.58154 0.57995 0.8925 0.0
C141 C 0.57469 0.56978 0.86769 0.0
C142 C 0.5695 0.56933 0.91944 0.0
C143 C 0.55544 0.55283 0.91038 0.0
O144 O 0.57693 0.51185 0.82626 0.0
C145 C 0.49805 0.57361 0.84834 0.0
O146 O 0.49877 0.567 0.87949 0.0
H147 H 0.58138 0.57395 0.84251 0.0
H148 H 0.5435 0.54151 0.92629 0.0
N149 N 0.52899 0.50996 0.87687 0.0
N150 N 0.50151 0.4831 0.89015 0.0
C151 C 0.507 0.50413 0.87018 0.0
C152 C 0.53778 0.49214 0.90199 0.0
C153 C 0.52078 0.47559 0.91035 0.0
C154 C 0.57825 0.48744 0.81984 0.0
O155 O 0.55637 0.47932 0.82425 0.0
H156 H 0.49594 0.51448 0.85019 0.0
H157 H 0.55599 0.49038 0.91237 0.0
O158 O 0.51812 0.56178 0.82906 0.0
H159 H 0.57049 0.57349 0.94388 0.0
H160 H 0.52338 0.45831 0.92861 0.0
Cu161 Cu 0.55232 0.54766 0.26088 0.0
N162 N 0.53769 0.5277 0.23744 0.0
N163 N 0.51142 0.50347 0.22572 0.0
C164 C 0.51918 0.51439 0.24923 0.0
C165 C 0.52576 0.50987 0.19818 0.0
C166 C 0.54213 0.52466 0.20553 0.0
O167 O 0.52358 0.57355 0.28594 0.0
C168 C 0.60046 0.50858 0.26739 0.0
O169 O 0.60239 0.51508 0.23609 0.0
H170 H 0.5109 0.51356 0.27432 0.0
H171 H 0.55608 0.53284 0.18873 0.0
N172 N 0.56964 0.57026 0.23347 0.0
N173 N 0.59667 0.59726 0.21772 0.0
C174 C 0.59021 0.57849 0.24054 0.0
C175 C 0.56266 0.58442 0.20536 0.0
C176 C 0.5794 0.60104 0.19548 0.0
C177 C 0.50263 0.58595 0.27212 0.0
O178 O 0.50058 0.57934 0.24347 0.0
H179 H 0.59932 0.57185 0.2628 0.0
H180 H 0.54593 0.58354 0.19353 0.0
O181 O 0.5792 0.5206 0.28481 0.0
H182 H 0.52448 0.50422 0.17449 0.0
H183 H 0.57851 0.61527 0.17401 0.0
Cu184 Cu 0.77621 0.57788 0.60844 0.0
N185 N 0.75311 0.60028 0.58004 0.0
N186 N 0.74881 0.62543 0.53273 0.0
C187 C 0.75922 0.62137 0.56111 0.0
C188 C 0.73381 0.60755 0.535 0.0
C189 C 0.73661 0.59194 0.5642 0.0
O190 O 0.78779 0.60107 0.63464 0.0
C191 C 0.80658 0.55047 0.55298 0.0
O192 O 0.79871 0.57439 0.53633 0.0
H193 H 0.77452 0.63034 0.56576 0.0
H194 H 0.73056 0.57317 0.57094 0.0
N195 N 0.75858 0.5565 0.63681 0.0
N196 N 0.75526 0.518 0.66675 0.0
C197 C 0.7719 0.53235 0.65132 0.0
C198 C 0.73243 0.5578 0.64332 0.0
C199 C 0.73031 0.53388 0.66185 0.0
C200 C 0.80351 0.61629 0.626 0.0
O201 O 0.81635 0.61537 0.59676 0.0
H202 H 0.79355 0.52466 0.64875 0.0
H203 H 0.71622 0.57425 0.63405 0.0
O204 O 0.80323 0.54952 0.58377 0.0
H205 H 0.72485 0.60317 0.51522 0.0
H206 H 0.71197 0.5283 0.6703 0.0
Cu207 Cu 0.56649 0.8001 0.58821 0.0
N208 N 0.59623 0.78132 0.55891 0.0
N209 N 0.63071 0.77522 0.51848 0.0
C210 C 0.6105 0.79372 0.53525 0.0
C211 C 0.62884 0.75023 0.53263 0.0
C212 C 0.60788 0.75401 0.5571 0.0
O213 O 0.58287 0.8165 0.61701 0.0
C214 C 0.53659 0.81182 0.53917 0.0
O215 O 0.54836 0.78506 0.53887 0.0
H216 H 0.60593 0.816 0.53045 0.0
H217 H 0.60183 0.73782 0.57265 0.0
N218 N 0.54414 0.77984 0.61453 0.0
N219 N 0.50747 0.77189 0.6455 0.0
C220 C 0.51963 0.79123 0.63076 0.0
C221 C 0.54756 0.7523 0.6195 0.0
C222 C 0.52526 0.7474 0.63831 0.0
C223 C 0.60182 0.79861 0.63033 0.0
O224 O 0.6065 0.77237 0.62528 0.0
H225 H 0.51054 0.81339 0.63093 0.0
H226 H 0.56486 0.7367 0.60983 0.0
O227 O 0.54184 0.8251 0.56028 0.0
H228 H 0.6418 0.73022 0.52628 0.0
H229 H 0.52245 0.72717 0.64615 0.0
Cu230 Cu 0.30784 0.51089 0.51646 0.0
N231 N 0.32584 0.53257 0.48703 0.0
N232 N 0.33061 0.5707 0.45633 0.0
C233 C 0.31348 0.55857 0.47523 0.0
C234 C 0.35475 0.55167 0.45597 0.0
C235 C 0.35177 0.52812 0.47486 0.0
O236 O 0.28796 0.53687 0.54739 0.0
C237 C 0.3001 0.48127 0.47067 0.0
O238 O 0.32585 0.47912 0.46475 0.0
H239 H 0.29236 0.56866 0.48103 0.0
H240 H 0.36745 0.50927 0.47953 0.0
N241 N 0.32832 0.48027 0.54079 0.0
N242 N 0.33559 0.44686 0.58161 0.0
C243 C 0.31735 0.46795 0.56726 0.0
C244 C 0.35455 0.46645 0.53802 0.0
C245 C 0.35909 0.44589 0.56318 0.0
C246 C 0.30315 0.54247 0.56521 0.0
O247 O 0.32877 0.52897 0.56234 0.0
H248 H 0.29632 0.47489 0.57615 0.0
H249 H 0.36936 0.47095 0.51924 0.0
O250 O 0.28644 0.49593 0.49318 0.0
H251 H 0.37316 0.55458 0.4429 0.0
H252 H 0.37822 0.43123 0.5673 0.0
Cu253 Cu 0.5184 0.28687 0.52598 0.0
N254 N 0.54946 0.26775 0.50061 0.0
N255 N 0.59014 0.25938 0.47197 0.0
C256 C 0.56932 0.27861 0.48632 0.0
C257 C 0.5829 0.23553 0.47753 0.0
C258 C 0.55798 0.24073 0.49513 0.0
O259 O 0.53104 0.31252 0.54741 0.0
C260 C 0.48421 0.28496 0.48164 0.0
O261 O 0.49892 0.25905 0.48429 0.0
H262 H 0.56855 0.30017 0.48684 0.0
H263 H 0.54711 0.22568 0.50388 0.0
N264 N 0.50628 0.26362 0.55939 0.0
N265 N 0.48239 0.25165 0.60435 0.0
C266 C 0.48332 0.27098 0.57944 0.0
C267 C 0.52008 0.23864 0.57205 0.0
C268 C 0.50548 0.23133 0.59989 0.0
C269 C 0.55037 0.29966 0.56392 0.0
O270 O 0.55854 0.27248 0.56516 0.0
H271 H 0.46836 0.29083 0.57691 0.0
H272 H 0.54007 0.22725 0.56285 0.0
O273 O 0.4891 0.30235 0.49809 0.0
H274 H 0.59504 0.21544 0.4703 0.0
H275 H 0.51168 0.21296 0.61619 0.0
Eu276 Eu 0.27141 0.2893 0.35153 0.0
C277 C 0.30923 0.31347 0.20895 0.0
C278 C 0.34999 0.27569 0.20274 0.0
C279 C 0.32403 0.29327 0.15735 0.0
C280 C 0.33111 0.29515 0.22195 0.0
C281 C 0.30587 0.31325 0.17621 0.0
C282 C 0.34608 0.27456 0.17058 0.0
C283 C 0.26876 0.35458 0.182 0.0
N284 N 0.29216 0.33267 0.2277 0.0
C285 C 0.27307 0.35409 0.2142 0.0
C286 C 0.28494 0.33378 0.16305 0.0
Eu287 Eu 0.29994 0.32964 0.28275 0.0
N288 N 0.33439 0.29684 0.25309 0.0
C289 C 0.35707 0.28077 0.2658 0.0
C290 C 0.37251 0.25828 0.2162 0.0
C291 C 0.37622 0.26109 0.24774 0.0
H292 H 0.26055 0.37035 0.22875 0.0
H293 H 0.39379 0.248 0.25826 0.0
H294 H 0.36034 0.25974 0.15551 0.0
H295 H 0.25305 0.37107 0.1718 0.0
H296 H 0.3603 0.28232 0.29018 0.0
H297 H 0.17984 0.37345 0.37749 0.0
H298 H 0.38737 0.24298 0.20229 0.0
H299 H 0.30997 0.24596 0.4037 0.0
H300 H 0.21224 0.33897 0.34455 0.0
H301 H 0.31665 0.24192 0.46152 0.0
H302 H 0.32162 0.2926 0.13226 0.0
H303 H 0.18643 0.37602 0.4341 0.0
H304 H 0.21314 0.35667 0.48086 0.0
H305 H 0.2817 0.3343 0.13802 0.0
H306 H 0.25038 0.321 0.50373 0.0
N307 N 0.23743 0.32182 0.3819 0.0
C308 C 0.21536 0.33937 0.36928 0.0
C309 C 0.20071 0.36059 0.4198 0.0
C310 C 0.22258 0.34168 0.4331 0.0
C311 C 0.1969 0.35916 0.38788 0.0
C312 C 0.2407 0.3221 0.41337 0.0
H313 H 0.28871 0.27783 0.49693 0.0
N314 N 0.27882 0.28372 0.40659 0.0
C315 C 0.30134 0.25919 0.45184 0.0
C316 C 0.26199 0.30244 0.42609 0.0
C317 C 0.29744 0.26145 0.41924 0.0
C318 C 0.28557 0.27952 0.47171 0.0
C319 C 0.26531 0.30126 0.45906 0.0
O320 O 0.27553 0.24504 0.35655 0.0
O321 O 0.29083 0.28999 0.30106 0.0
O322 O 0.26028 0.32781 0.26893 0.0
O323 O 0.24191 0.30368 0.31307 0.0
O324 O 0.30655 0.25533 0.33126 0.0
O325 O 0.23582 0.27369 0.36253 0.0
O326 O 0.29909 0.37223 0.26478 0.0
O327 O 0.27985 0.32932 0.33266 0.0
O328 O 0.30957 0.29359 0.36767 0.0
O329 O 0.32882 0.31529 0.32203 0.0
O330 O 0.26651 0.36505 0.30355 0.0
O331 O 0.33497 0.3445 0.28273 0.0
C332 C 0.3073 0.26622 0.30179 0.0
C333 C 0.24229 0.22787 0.38897 0.0
C334 C 0.21401 0.19702 0.40826 0.0
C335 C 0.2195 0.21909 0.38712 0.0
C336 C 0.23148 0.18456 0.43186 0.0
C337 C 0.25919 0.21501 0.41282 0.0
C338 C 0.25361 0.19377 0.43431 0.0
C339 C 0.24114 0.31728 0.28394 0.0
C340 C 0.24999 0.24772 0.36341 0.0
C341 C 0.24791 0.32131 0.47848 0.0
C342 C 0.22666 0.34157 0.46548 0.0
C343 C 0.26448 0.35368 0.33266 0.0
C344 C 0.34098 0.3782 0.24117 0.0
C345 C 0.35978 0.39132 0.24715 0.0
C346 C 0.37718 0.39915 0.22162 0.0
C347 C 0.37537 0.39388 0.18998 0.0
C348 C 0.33945 0.37314 0.20943 0.0
C349 C 0.35654 0.38102 0.18399 0.0
C350 C 0.32913 0.3035 0.35214 0.0
C351 C 0.32415 0.36874 0.26849 0.0
H352 H 0.20654 0.22904 0.36863 0.0
H353 H 0.22871 0.16699 0.44791 0.0
H354 H 0.2773 0.22051 0.41419 0.0
H355 H 0.26703 0.18374 0.45228 0.0
H356 H 0.36123 0.39492 0.27172 0.0
H357 H 0.38833 0.39998 0.16983 0.0
H358 H 0.32521 0.36304 0.20422 0.0
H359 H 0.35523 0.37708 0.15955 0.0
Eu360 Eu 0.80783 0.30519 0.34499 0.0
C361 C 0.72102 0.27007 0.29058 0.0
C362 C 0.72108 0.22691 0.32264 0.0
C363 C 0.68115 0.25366 0.29823 0.0
C364 C 0.73427 0.24701 0.30933 0.0
C365 C 0.69426 0.27358 0.28491 0.0
C366 C 0.6947 0.23016 0.31649 0.0
C367 C 0.69673 0.31341 0.24827 0.0
N368 N 0.73473 0.28809 0.27615 0.0
C369 C 0.72353 0.30824 0.25334 0.0
C370 C 0.68188 0.29619 0.26448 0.0
Eu371 Eu 0.781 0.27604 0.2835 0.0
N372 N 0.76013 0.24385 0.31405 0.0
C373 C 0.77355 0.22138 0.33264 0.0
C374 C 0.73486 0.20387 0.34144 0.0
C375 C 0.76107 0.20131 0.34681 0.0
H376 H 0.73576 0.3195 0.2379 0.0
H377 H 0.77183 0.18369 0.36159 0.0
H378 H 0.68465 0.21444 0.32559 0.0
H379 H 0.68794 0.32987 0.23077 0.0
H380 H 0.79385 0.21867 0.33706 0.0
H381 H 0.82336 0.39182 0.26002 0.0
H382 H 0.72538 0.18804 0.3521 0.0
H383 H 0.85029 0.26236 0.39433 0.0
H384 H 0.79803 0.36132 0.2894 0.0
H385 H 0.89756 0.25187 0.40457 0.0
H386 H 0.66077 0.25584 0.29375 0.0
H387 H 0.87086 0.38408 0.26768 0.0
H388 H 0.91045 0.35718 0.29585 0.0
H389 H 0.66135 0.29961 0.25971 0.0
H390 H 0.93102 0.3184 0.33358 0.0
N391 N 0.83064 0.33562 0.31393 0.0
C392 C 0.81858 0.35743 0.29351 0.0
C393 C 0.85977 0.37044 0.28085 0.0
C394 C 0.87191 0.34857 0.30228 0.0
C395 C 0.83298 0.3749 0.2765 0.0
C396 C 0.85671 0.33119 0.31868 0.0
H397 H 0.92658 0.27887 0.37366 0.0
N398 N 0.85323 0.29306 0.35583 0.0
C399 C 0.88973 0.26786 0.38609 0.0
C400 C 0.86832 0.30929 0.34006 0.0
C401 C 0.8631 0.27363 0.37995 0.0
C402 C 0.906 0.28317 0.36865 0.0
C403 C 0.89523 0.30457 0.34585 0.0
O404 O 0.79984 0.30627 0.39722 0.0
O405 O 0.77388 0.29051 0.33355 0.0
O406 O 0.75691 0.32148 0.28539 0.0
O407 O 0.77181 0.33824 0.32691 0.0
O408 O 0.78737 0.27713 0.37848 0.0
O409 O 0.79932 0.34442 0.36787 0.0
O410 O 0.78117 0.2751 0.23142 0.0
O411 O 0.81416 0.29102 0.29518 0.0
O412 O 0.83417 0.26097 0.34111 0.0
O413 O 0.81832 0.24379 0.3006 0.0
O414 O 0.80413 0.30131 0.24877 0.0
O415 O 0.79491 0.23667 0.26056 0.0
C416 C 0.76942 0.27723 0.36025 0.0
C417 C 0.81353 0.33991 0.42063 0.0
C418 C 0.8209 0.3737 0.45339 0.0
C419 C 0.80769 0.36753 0.42919 0.0
C420 C 0.84073 0.35232 0.46762 0.0
C421 C 0.83274 0.31896 0.4365 0.0
C422 C 0.84658 0.32523 0.45919 0.0
C423 C 0.75573 0.3412 0.30423 0.0
C424 C 0.79841 0.33248 0.39715 0.0
C425 C 0.91036 0.32173 0.32943 0.0
C426 C 0.89866 0.34378 0.3079 0.0
C427 C 0.8209 0.30229 0.26812 0.0
C428 C 0.77408 0.23456 0.21438 0.0
C429 C 0.78742 0.21112 0.19698 0.0
C430 C 0.77271 0.19907 0.18007 0.0
C431 C 0.74484 0.21007 0.18125 0.0
C432 C 0.74621 0.24526 0.21437 0.0
C433 C 0.7317 0.233 0.19836 0.0
C434 C 0.8352 0.24126 0.32236 0.0
C435 C 0.78907 0.24803 0.23197 0.0
H436 H 0.79231 0.38383 0.41807 0.0
H437 H 0.85149 0.35653 0.48578 0.0
H438 H 0.83675 0.29747 0.4321 0.0
H439 H 0.8615 0.30887 0.47088 0.0
H440 H 0.80898 0.20266 0.19614 0.0
H441 H 0.73326 0.20103 0.16851 0.0
H442 H 0.73544 0.26336 0.22627 0.0
H443 H 0.71019 0.24159 0.19887 0.0
Eu444 Eu 0.79868 0.7609 0.26826 0.0
C445 C 0.81416 0.799 0.39889 0.0
C446 C 0.77618 0.83903 0.40998 0.0
C447 C 0.80071 0.81263 0.45382 0.0
C448 C 0.79391 0.82131 0.38796 0.0
C449 C 0.81785 0.79454 0.43196 0.0
C450 C 0.77986 0.83475 0.44288 0.0
C451 C 0.85632 0.75571 0.41917 0.0
N452 N 0.83061 0.78198 0.37711 0.0
C453 C 0.85227 0.76129 0.38655 0.0
C454 C 0.83896 0.77232 0.442 0.0
Eu455 Eu 0.82469 0.79619 0.32215 0.0
N456 N 0.79081 0.82494 0.35602 0.0
C457 C 0.77023 0.84566 0.34449 0.0
C458 C 0.75505 0.86034 0.39832 0.0
C459 C 0.75197 0.86353 0.36546 0.0
H460 H 0.86623 0.74906 0.36872 0.0
H461 H 0.73561 0.87984 0.35624 0.0
H462 H 0.76656 0.84828 0.4601 0.0
H463 H 0.8731 0.73893 0.42662 0.0
H464 H 0.76764 0.84841 0.31915 0.0
H465 H 0.88335 0.66612 0.28952 0.0
H466 H 0.74091 0.87427 0.41449 0.0
H467 H 0.78203 0.79478 0.19701 0.0
H468 H 0.84935 0.70738 0.3048 0.0
H469 H 0.79553 0.79036 0.13925 0.0
H470 H 0.8033 0.80959 0.47928 0.0
H471 H 0.8951 0.65649 0.23236 0.0
H472 H 0.88919 0.67188 0.17491 0.0
H473 H 0.84237 0.76817 0.4672 0.0
H474 H 0.86649 0.70615 0.1342 0.0
N475 N 0.8368 0.72079 0.25743 0.0
C476 C 0.85168 0.70329 0.27998 0.0
C477 C 0.87889 0.67453 0.23903 0.0
C478 C 0.86555 0.69335 0.21565 0.0
C479 C 0.87218 0.67978 0.27128 0.0
C480 C 0.84451 0.7167 0.22553 0.0
H481 H 0.83271 0.75068 0.12068 0.0
N482 N 0.81267 0.75905 0.21206 0.0
C483 C 0.80622 0.77513 0.15666 0.0
C484 C 0.83231 0.73643 0.20237 0.0
C485 C 0.79885 0.77762 0.18966 0.0
C486 C 0.82712 0.75271 0.14632 0.0
C487 C 0.84014 0.7328 0.16914 0.0
O488 O 0.76039 0.77939 0.24912 0.0
O489 O 0.78694 0.79044 0.30801 0.0
O490 O 0.81785 0.75655 0.34918 0.0
O491 O 0.80515 0.73153 0.31323 0.0
O492 O 0.76473 0.76254 0.30844 0.0
O493 O 0.77809 0.73394 0.25141 0.0
O494 O 0.86486 0.80047 0.32264 0.0
O495 O 0.83196 0.77781 0.27447 0.0
O496 O 0.80096 0.8029 0.24417 0.0
O497 O 0.80731 0.82901 0.28295 0.0
O498 O 0.86376 0.76597 0.30097 0.0
O499 O 0.83128 0.83721 0.32158 0.0
C500 C 0.7671 0.78241 0.32331 0.0
C501 C 0.73547 0.75292 0.22841 0.0
C502 C 0.70656 0.72589 0.21771 0.0
C503 C 0.72771 0.72824 0.23324 0.0
C504 C 0.69326 0.74818 0.19736 0.0
C505 C 0.72177 0.77517 0.20823 0.0
C506 C 0.7008 0.77273 0.19275 0.0
C507 C 0.81146 0.73459 0.34189 0.0
C508 C 0.75843 0.75531 0.24315 0.0
C509 C 0.86039 0.70927 0.15955 0.0
C510 C 0.87319 0.6897 0.18272 0.0
C511 C 0.85637 0.7644 0.27334 0.0
C512 C 0.86821 0.83875 0.34753 0.0
C513 C 0.88066 0.86004 0.33794 0.0
C514 C 0.89236 0.8698 0.36067 0.0
C515 C 0.89099 0.85883 0.39292 0.0
C516 C 0.86782 0.82765 0.37979 0.0
C517 C 0.87873 0.83784 0.4024 0.0
C518 C 0.80256 0.82642 0.25353 0.0
C519 C 0.85693 0.82733 0.32367 0.0
H520 H 0.73805 0.71095 0.24886 0.0
H521 H 0.67688 0.74662 0.18527 0.0
H522 H 0.72754 0.79428 0.204 0.0
H523 H 0.69043 0.78988 0.17707 0.0
H524 H 0.88185 0.86842 0.31296 0.0
H525 H 0.89992 0.86619 0.41063 0.0
H526 H 0.85971 0.8107 0.38762 0.0
H527 H 0.87813 0.82904 0.4272 0.0
Eu528 Eu 0.29063 0.78245 0.27621 0.0
C529 C 0.31008 0.87691 0.33485 0.0
C530 C 0.34796 0.88277 0.29731 0.0
C531 C 0.31744 0.92259 0.32261 0.0
C532 C 0.33277 0.86556 0.31423 0.0
C533 C 0.30259 0.90547 0.33976 0.0
C534 C 0.34008 0.91126 0.30148 0.0
C535 C 0.26786 0.89777 0.38077 0.0
N536 N 0.29587 0.85999 0.351 0.0
C537 C 0.27612 0.86967 0.37519 0.0
C538 C 0.28083 0.91588 0.36253 0.0
Eu539 Eu 0.3113 0.81246 0.34041 0.0
N540 N 0.34014 0.83782 0.31084 0.0
C541 C 0.363 0.82607 0.29153 0.0
C542 C 0.37079 0.87086 0.27682 0.0
C543 C 0.37841 0.84237 0.27407 0.0
H544 H 0.26634 0.85562 0.38987 0.0
H545 H 0.39616 0.8329 0.25841 0.0
H546 H 0.35161 0.92467 0.28879 0.0
H547 H 0.25164 0.90537 0.39929 0.0
H548 H 0.36942 0.80426 0.28854 0.0
H549 H 0.20416 0.76434 0.35677 0.0
H550 H 0.3828 0.88343 0.26324 0.0
H551 H 0.33625 0.73801 0.22841 0.0
H552 H 0.233 0.79165 0.32871 0.0
H553 H 0.35004 0.68832 0.21934 0.0
H554 H 0.31185 0.94457 0.32592 0.0
H555 H 0.21512 0.71427 0.34995 0.0
H556 H 0.24497 0.67281 0.3235 0.0
H557 H 0.27449 0.93765 0.36697 0.0
H558 H 0.28506 0.65194 0.28736 0.0
N559 N 0.26101 0.75781 0.30544 0.0
C560 C 0.23837 0.77004 0.32484 0.0
C561 C 0.22808 0.72625 0.33733 0.0
C562 C 0.2509 0.71382 0.31712 0.0
C563 C 0.2218 0.75449 0.34117 0.0
C564 C 0.26733 0.73026 0.30144 0.0
H565 H 0.32472 0.65727 0.24941 0.0
N566 N 0.3052 0.73475 0.26597 0.0
C567 C 0.33332 0.6964 0.23709 0.0
C568 C 0.2901 0.7184 0.2813 0.0
C569 C 0.32562 0.72449 0.24265 0.0
C570 C 0.31897 0.67898 0.25407 0.0
C571 C 0.29667 0.69001 0.27584 0.0
O572 O 0.29543 0.78326 0.22382 0.0
O573 O 0.29934 0.81983 0.29023 0.0
O574 O 0.26736 0.83597 0.3371 0.0
O575 O 0.25569 0.8191 0.29331 0.0
O576 O 0.3157 0.80747 0.24493 0.0
O577 O 0.25497 0.79345 0.25015 0.0
O578 O 0.3077 0.80819 0.3929 0.0
O579 O 0.30295 0.77513 0.32592 0.0
O580 O 0.33479 0.76031 0.27823 0.0
O581 O 0.3465 0.77619 0.32277 0.0
O582 O 0.2874 0.78584 0.37183 0.0
O583 O 0.34653 0.80615 0.36602 0.0
C584 C 0.31192 0.82675 0.26413 0.0
C585 C 0.25841 0.79546 0.19117 0.0
C586 C 0.22014 0.81033 0.16012 0.0
C587 C 0.23052 0.80391 0.19 0.0
C588 C 0.23765 0.80784 0.13143 0.0
C589 C 0.27568 0.79283 0.16219 0.0
C590 C 0.26529 0.79895 0.13252 0.0
C591 C 0.25012 0.83619 0.31672 0.0
C592 C 0.26965 0.79084 0.22225 0.0
C593 C 0.28036 0.67372 0.29136 0.0
C594 C 0.25752 0.68561 0.31191 0.0
C595 C 0.2908 0.76729 0.35174 0.0
C596 C 0.33713 0.82613 0.4165 0.0
C597 C 0.36342 0.82491 0.42151 0.0
C598 C 0.36783 0.84225 0.44274 0.0
C599 C 0.34599 0.8611 0.45858 0.0
C600 C 0.31546 0.84441 0.43375 0.0
C601 C 0.31992 0.86208 0.45414 0.0
C602 C 0.35209 0.75995 0.29849 0.0
C603 C 0.33252 0.80762 0.39439 0.0
H604 H 0.21692 0.80604 0.21211 0.0
H605 H 0.22988 0.81252 0.10819 0.0
H606 H 0.29723 0.78636 0.1624 0.0
H607 H 0.27871 0.79694 0.11032 0.0
H608 H 0.38037 0.81021 0.40945 0.0
H609 H 0.34914 0.87442 0.47519 0.0
H610 H 0.295 0.84491 0.43193 0.0
H611 H 0.30309 0.8762 0.46705 0.0
Eu612 Eu 0.30279 0.79653 0.84154 0.0
C613 C 0.22182 0.74655 0.79823 0.0
C614 C 0.22758 0.70579 0.83604 0.0
C615 C 0.18524 0.72536 0.81374 0.0
C616 C 0.23808 0.72631 0.81751 0.0
C617 C 0.19526 0.74616 0.79608 0.0
C618 C 0.20134 0.70526 0.83371 0.0
C619 C 0.19007 0.78698 0.7589 0.0
N620 N 0.23157 0.76703 0.78215 0.0
C621 C 0.21635 0.78656 0.76178 0.0
C622 C 0.17939 0.76678 0.77629 0.0
Eu623 Eu 0.27713 0.76432 0.78529 0.0
N624 N 0.26336 0.72763 0.81978 0.0
C625 C 0.27788 0.70999 0.84254 0.0
C626 C 0.24333 0.68685 0.85732 0.0
C627 C 0.2684 0.68926 0.86092 0.0
H628 H 0.2245 0.80175 0.74707 0.0
H629 H 0.28026 0.67556 0.87856 0.0
H630 H 0.19314 0.68962 0.84771 0.0
H631 H 0.17819 0.80273 0.74297 0.0
H632 H 0.29619 0.71224 0.84869 0.0
H633 H 0.33496 0.87233 0.75412 0.0
H634 H 0.23591 0.67097 0.872 0.0
H635 H 0.33534 0.75351 0.89908 0.0
H636 H 0.30342 0.84727 0.78243 0.0
H637 H 0.38021 0.74035 0.9186 0.0
H638 H 0.16493 0.72483 0.81239 0.0
H639 H 0.38139 0.85999 0.76833 0.0
H640 H 0.41625 0.8308 0.803 0.0
H641 H 0.15898 0.76712 0.77403 0.0
H642 H 0.42882 0.79432 0.84676 0.0
N643 N 0.33184 0.82065 0.81198 0.0
C644 C 0.32361 0.84168 0.78887 0.0
C645 C 0.36766 0.84883 0.78076 0.0
C646 C 0.37577 0.82763 0.80497 0.0
C647 C 0.34145 0.85591 0.77273 0.0
C648 C 0.35715 0.81368 0.82036 0.0
H649 H 0.41548 0.76072 0.89013 0.0
N650 N 0.34587 0.77992 0.85928 0.0
C651 C 0.37611 0.75482 0.89756 0.0
C652 C 0.3644 0.79267 0.8446 0.0
C653 C 0.35087 0.76212 0.88638 0.0
C654 C 0.39597 0.76638 0.88141 0.0
C655 C 0.39015 0.78584 0.8549 0.0
O656 O 0.29289 0.80398 0.89261 0.0
O657 O 0.26784 0.78208 0.83311 0.0
O658 O 0.25049 0.80886 0.7879 0.0
O659 O 0.26956 0.83077 0.81997 0.0
O660 O 0.28227 0.76935 0.87724 0.0
O661 O 0.29309 0.83852 0.85717 0.0
O662 O 0.27406 0.78296 0.73574 0.0
O663 O 0.30489 0.79041 0.78917 0.0
O664 O 0.3318 0.7532 0.83446 0.0
O665 O 0.31374 0.73083 0.80093 0.0
O666 O 0.3191 0.75804 0.75916 0.0
O667 O 0.2765 0.73862 0.74732 0.0
C668 C 0.26332 0.76973 0.86044 0.0
C669 C 0.30364 0.84216 0.90909 0.0
C670 C 0.3019 0.8768 0.94545 0.0
C671 C 0.28948 0.8664 0.92419 0.0
C672 C 0.3285 0.86317 0.95116 0.0
C673 C 0.33029 0.82918 0.91488 0.0
C674 C 0.34263 0.83954 0.93578 0.0
C675 C 0.25117 0.83102 0.80132 0.0
C676 C 0.29042 0.8305 0.88777 0.0
C677 C 0.40889 0.79939 0.83931 0.0
C678 C 0.40172 0.82021 0.8144 0.0
C679 C 0.32488 0.77831 0.76958 0.0
C680 C 0.27363 0.75649 0.69101 0.0
C681 C 0.27597 0.73035 0.6809 0.0
C682 C 0.27496 0.72708 0.64838 0.0
C683 C 0.27188 0.75038 0.62585 0.0
C684 C 0.2705 0.77956 0.66823 0.0
C685 C 0.26969 0.77644 0.6358 0.0
C686 C 0.33257 0.73146 0.81883 0.0
C687 C 0.27489 0.75939 0.72517 0.0
H688 H 0.26902 0.877 0.91956 0.0
H689 H 0.33856 0.87128 0.96696 0.0
H690 H 0.34175 0.81106 0.90345 0.0
H691 H 0.36323 0.8293 0.93991 0.0
H692 H 0.27895 0.7124 0.69831 0.0
H693 H 0.27083 0.74852 0.60066 0.0
H694 H 0.26874 0.79996 0.67542 0.0
H695 H 0.26725 0.79429 0.61833 0.0
Eu696 Eu 0.2887 0.25697 0.79586 0.0
C697 C 0.29971 0.30298 0.9222 0.0
C698 C 0.26257 0.34482 0.92056 0.0
C699 C 0.27645 0.32243 0.9722 0.0
C700 C 0.28303 0.32427 0.9045 0.0
C701 C 0.29695 0.30223 0.95623 0.0
C702 C 0.25923 0.34361 0.95441 0.0
C703 C 0.33579 0.26234 0.95631 0.0
N704 N 0.31883 0.28316 0.90624 0.0
C705 C 0.33751 0.26376 0.92265 0.0
C706 C 0.31514 0.28139 0.97323 0.0
Eu707 Eu 0.32143 0.28758 0.84908 0.0
N708 N 0.28653 0.32476 0.87173 0.0
C709 C 0.27066 0.34593 0.85373 0.0
C710 C 0.24599 0.36604 0.90216 0.0
C711 C 0.25016 0.36665 0.86861 0.0
H712 H 0.35357 0.24892 0.9096 0.0
H713 H 0.23743 0.383 0.85413 0.0
H714 H 0.24353 0.35912 0.96707 0.0
H715 H 0.35036 0.24651 0.96913 0.0
H716 H 0.27278 0.34671 0.82783 0.0
H717 H 0.36325 0.15515 0.79602 0.0
H718 H 0.22999 0.38208 0.9136 0.0
H719 H 0.26069 0.29553 0.73172 0.0
H720 H 0.32951 0.19414 0.82009 0.0
H721 H 0.26989 0.2994 0.67232 0.0
H722 H 0.27386 0.32199 0.99831 0.0
H723 H 0.37688 0.15732 0.73724 0.0
H724 H 0.37156 0.18334 0.68312 0.0
H725 H 0.31373 0.28017 0.99934 0.0
H726 H 0.3468 0.22308 0.64965 0.0
N727 N 0.32357 0.21906 0.77555 0.0
C728 C 0.33502 0.19583 0.79445 0.0
C729 C 0.36196 0.17476 0.7477 0.0
C730 C 0.35009 0.19841 0.72835 0.0
C731 C 0.35428 0.17343 0.78086 0.0
C732 C 0.33063 0.22057 0.74308 0.0
H733 H 0.30942 0.26666 0.64537 0.0
N734 N 0.29634 0.26284 0.73857 0.0
C735 C 0.28349 0.28376 0.68658 0.0
C736 C 0.3171 0.24341 0.72417 0.0
C737 C 0.27847 0.28159 0.7202 0.0
C738 C 0.30588 0.26532 0.67149 0.0
C739 C 0.32237 0.24418 0.69015 0.0
O740 O 0.24914 0.26103 0.78174 0.0
O741 O 0.28448 0.2772 0.84101 0.0
O742 O 0.31591 0.24761 0.87716 0.0
O743 O 0.29443 0.22914 0.84358 0.0
O744 O 0.25188 0.29009 0.81526 0.0
O745 O 0.27303 0.22101 0.80045 0.0
O746 O 0.36346 0.28193 0.85338 0.0
O747 O 0.3254 0.2677 0.80353 0.0
O748 O 0.29413 0.29702 0.76929 0.0
O749 O 0.31238 0.31791 0.80391 0.0
O750 O 0.35731 0.25328 0.82975 0.0
O751 O 0.33723 0.32365 0.84641 0.0
C752 C 0.26053 0.29208 0.84198 0.0
C753 C 0.24379 0.22107 0.76254 0.0
C754 C 0.21453 0.19756 0.74509 0.0
C755 C 0.22178 0.2101 0.76918 0.0
C756 C 0.22915 0.19609 0.71441 0.0
C757 C 0.25861 0.21873 0.73197 0.0
C758 C 0.25123 0.20656 0.70797 0.0
C759 C 0.30472 0.22852 0.87107 0.0
C760 C 0.25116 0.2346 0.78764 0.0
C761 C 0.34255 0.22278 0.67569 0.0
C762 C 0.3565 0.20004 0.69473 0.0
C763 C 0.34906 0.25212 0.80251 0.0
C764 C 0.37486 0.3174 0.87546 0.0
C765 C 0.38193 0.34243 0.86881 0.0
C766 C 0.39719 0.34971 0.88951 0.0
C767 C 0.40427 0.33265 0.91759 0.0
C768 C 0.3833 0.30001 0.90299 0.0
C769 C 0.39726 0.30794 0.9243 0.0
C770 C 0.30296 0.31742 0.7762 0.0
C771 C 0.36123 0.3084 0.85198 0.0
H772 H 0.21041 0.21125 0.79288 0.0
H773 H 0.22375 0.18636 0.69569 0.0
H774 H 0.27595 0.22603 0.72651 0.0
H775 H 0.26279 0.20504 0.68444 0.0
H776 H 0.37679 0.35544 0.84687 0.0
H777 H 0.41607 0.33803 0.93371 0.0
H778 H 0.38012 0.27978 0.90762 0.0
H779 H 0.4035 0.29441 0.94546 0.0
Eu780 Eu 0.78436 0.27904 0.77705 0.0
C781 C 0.81341 0.37194 0.83467 0.0
C782 C 0.84843 0.37902 0.79303 0.0
C783 C 0.8218 0.41723 0.82414 0.0
C784 C 0.83396 0.3615 0.81076 0.0
C785 C 0.80758 0.39979 0.84199 0.0
C786 C 0.84216 0.40687 0.79977 0.0
C787 C 0.77538 0.39077 0.88582 0.0
N788 N 0.79957 0.35483 0.8513 0.0
C789 C 0.78181 0.36339 0.87771 0.0
C790 C 0.78802 0.40918 0.86756 0.0
Eu791 Eu 0.81342 0.30837 0.83722 0.0
N792 N 0.83989 0.33435 0.80483 0.0
C793 C 0.8605 0.32334 0.78216 0.0
C794 C 0.86896 0.36801 0.76913 0.0
C795 C 0.87508 0.34004 0.76378 0.0
H796 H 0.772 0.34914 0.89194 0.0
H797 H 0.89102 0.3313 0.74545 0.0
H798 H 0.85317 0.42052 0.78647 0.0
H799 H 0.76071 0.39762 0.90615 0.0
H800 H 0.86543 0.30189 0.77733 0.0
H801 H 0.71217 0.24127 0.8637 0.0
H802 H 0.88034 0.38088 0.75486 0.0
H803 H 0.82692 0.24695 0.71685 0.0
H804 H 0.73531 0.2752 0.83759 0.0
H805 H 0.84174 0.20083 0.69499 0.0
H806 H 0.81744 0.43871 0.82929 0.0
H807 H 0.72477 0.19403 0.84527 0.0
H808 H 0.75279 0.15997 0.80658 0.0
H809 H 0.783 0.43041 0.87389 0.0
H810 H 0.78849 0.14869 0.76162 0.0
N811 N 0.76168 0.24741 0.80501 0.0
C812 C 0.74122 0.25473 0.82918 0.0
C813 C 0.73516 0.20886 0.8337 0.0
C814 C 0.75544 0.20175 0.8082 0.0
C815 C 0.72799 0.23549 0.84416 0.0
C816 C 0.76854 0.22172 0.79414 0.0
H817 H 0.822 0.16356 0.7203 0.0
N818 N 0.80078 0.23505 0.75563 0.0
C819 C 0.82702 0.20452 0.71596 0.0
C820 C 0.78874 0.21532 0.76885 0.0
C821 C 0.8188 0.23046 0.72855 0.0
C822 C 0.81579 0.18357 0.73028 0.0
C823 C 0.79607 0.18896 0.75667 0.0
O824 O 0.77661 0.29126 0.7268 0.0
O825 O 0.79757 0.31415 0.78923 0.0
O826 O 0.77027 0.33435 0.83636 0.0
O827 O 0.7513 0.31065 0.80565 0.0
O828 O 0.80745 0.30365 0.74204 0.0
O829 O 0.74339 0.2905 0.76321 0.0
O830 O 0.81675 0.29705 0.88835 0.0
O831 O 0.79994 0.27358 0.82486 0.0
O832 O 0.82821 0.25383 0.777 0.0
O833 O 0.84593 0.27223 0.81501 0.0
O834 O 0.79049 0.28306 0.87213 0.0
O835 O 0.85095 0.30474 0.85784 0.0
C836 C 0.80771 0.32136 0.76175 0.0
C837 C 0.73935 0.28062 0.71027 0.0
C838 C 0.70256 0.27979 0.68025 0.0
C839 C 0.71302 0.29269 0.70158 0.0
C840 C 0.71895 0.25508 0.66762 0.0
C841 C 0.75488 0.25597 0.69704 0.0
C842 C 0.74479 0.24332 0.67602 0.0
C843 C 0.74966 0.33096 0.82395 0.0
C844 C 0.75092 0.2938 0.73239 0.0
C845 C 0.78313 0.16903 0.77066 0.0
C846 C 0.7628 0.17546 0.79626 0.0
C847 C 0.7902 0.26557 0.85213 0.0
C848 C 0.84437 0.31679 0.91291 0.0
C849 C 0.87018 0.31736 0.91885 0.0
C850 C 0.8731 0.33233 0.9441 0.0
C851 C 0.84989 0.3466 0.96294 0.0
C852 C 0.8219 0.33077 0.93308 0.0
C853 C 0.82465 0.3458 0.95743 0.0
C854 C 0.84799 0.25414 0.79348 0.0
C855 C 0.8406 0.30033 0.88747 0.0
H856 H 0.70077 0.31178 0.71148 0.0
H857 H 0.71191 0.24495 0.65069 0.0
H858 H 0.77507 0.24654 0.70245 0.0
H859 H 0.75717 0.22439 0.66594 0.0
H860 H 0.88778 0.30611 0.90415 0.0
H861 H 0.85125 0.35773 0.98288 0.0
H862 H 0.80201 0.32976 0.93063 0.0
H863 H 0.80709 0.35643 0.97263 0.0
Eu864 Eu 0.76766 0.78232 0.83416 0.0
C865 C 0.80823 0.80121 0.69045 0.0
C866 C 0.84653 0.7607 0.68452 0.0
C867 C 0.8224 0.78174 0.63838 0.0
C868 C 0.82868 0.78081 0.70382 0.0
C869 C 0.80527 0.80226 0.65738 0.0
C870 C 0.8431 0.76114 0.65187 0.0
C871 C 0.77126 0.846 0.66308 0.0
N872 N 0.79244 0.82118 0.70915 0.0
C873 C 0.77531 0.84427 0.69555 0.0
C874 C 0.78599 0.82464 0.64401 0.0
Eu875 Eu 0.8002 0.81686 0.76402 0.0
N876 N 0.83189 0.78133 0.73527 0.0
C877 C 0.8532 0.76288 0.7485 0.0
C878 C 0.86775 0.74117 0.69833 0.0
C879 C 0.87121 0.74243 0.73039 0.0
H880 H 0.76432 0.86111 0.71016 0.0
H881 H 0.88773 0.72759 0.74122 0.0
H882 H 0.85676 0.74601 0.63665 0.0
H883 H 0.757 0.8639 0.65273 0.0
H884 H 0.85621 0.76323 0.77326 0.0
H885 H 0.68745 0.87436 0.86963 0.0
H886 H 0.8818 0.72535 0.68433 0.0
H887 H 0.80371 0.73194 0.88286 0.0
H888 H 0.71253 0.83782 0.83422 0.0
H889 H 0.81617 0.72507 0.93865 0.0
H890 H 0.82037 0.78215 0.61298 0.0
H891 H 0.70081 0.87419 0.92388 0.0
H892 H 0.73049 0.85018 0.96675 0.0
H893 H 0.78309 0.82616 0.61873 0.0
H894 H 0.76574 0.80962 0.98551 0.0
N895 N 0.74033 0.81696 0.86771 0.0
C896 C 0.71853 0.83711 0.85789 0.0
C897 C 0.71186 0.85791 0.90847 0.0
C898 C 0.73317 0.8363 0.91915 0.0
C899 C 0.70423 0.85803 0.87791 0.0
C900 C 0.74702 0.81571 0.89805 0.0
H901 H 0.79746 0.76262 0.97541 0.0
N902 N 0.77899 0.77316 0.88797 0.0
C903 C 0.80247 0.7444 0.93041 0.0
C904 C 0.76709 0.79317 0.90845 0.0
C905 C 0.79529 0.74828 0.89898 0.0
C906 C 0.79195 0.76569 0.95104 0.0
C907 C 0.77354 0.79021 0.94042 0.0
O908 O 0.76251 0.74088 0.84683 0.0
O909 O 0.78647 0.77975 0.78327 0.0
O910 O 0.76007 0.81736 0.74982 0.0
O911 O 0.73739 0.80366 0.79815 0.0
O912 O 0.79714 0.744 0.81336 0.0
O913 O 0.72793 0.77598 0.83941 0.0
O914 O 0.80135 0.85938 0.74983 0.0
O915 O 0.78128 0.81947 0.81464 0.0
O916 O 0.80805 0.78065 0.84853 0.0
O917 O 0.82896 0.80039 0.80274 0.0
O918 O 0.76954 0.85467 0.78413 0.0
O919 O 0.83828 0.82729 0.75757 0.0
C920 C 0.79974 0.75453 0.78396 0.0
C921 C 0.72126 0.73912 0.87613 0.0
C922 C 0.69118 0.71124 0.8984 0.0
C923 C 0.70672 0.72075 0.872 0.0
C924 C 0.69072 0.72005 0.92909 0.0
C925 C 0.72048 0.74782 0.90684 0.0
C926 C 0.70537 0.73818 0.93323 0.0
C927 C 0.73829 0.81338 0.76732 0.0
C928 C 0.73648 0.74954 0.84799 0.0
C929 C 0.76076 0.81131 0.96102 0.0
C930 C 0.74065 0.83436 0.95037 0.0
C931 C 0.76788 0.84466 0.81388 0.0
C932 C 0.84131 0.86617 0.72152 0.0
C933 C 0.85766 0.88204 0.72771 0.0
C934 C 0.86989 0.89611 0.70216 0.0
C935 C 0.86582 0.89416 0.6703 0.0
C936 C 0.83789 0.86376 0.68953 0.0
C937 C 0.85004 0.87782 0.66404 0.0
C938 C 0.82865 0.78828 0.8326 0.0
C939 C 0.82733 0.85335 0.74892 0.0
H940 H 0.70703 0.71437 0.84813 0.0
H941 H 0.67914 0.71278 0.9499 0.0
H942 H 0.73132 0.76218 0.9104 0.0
H943 H 0.70489 0.7449 0.95691 0.0
H944 H 0.86054 0.8838 0.75239 0.0
H945 H 0.87521 0.90488 0.65031 0.0
H946 H 0.82581 0.85125 0.68417 0.0
H947 H 0.84719 0.87606 0.63942 0.0
C948 C 0.08921 0.13603 0.39966 0.0
C949 C 0.09989 0.1082 0.3932 0.0
C950 C 0.10608 0.15309 0.39967 0.0
C951 C 0.13424 0.14158 0.39431 0.0
C952 C 0.14499 0.1134 0.38753 0.0
C953 C 0.12758 0.09717 0.38653 0.0
C954 C 0.09383 0.18326 0.40574 0.0
C955 C 0.17486 0.1001 0.38255 0.0
C956 C 0.1834 0.18504 0.3743 0.0
C957 C 0.19132 0.18563 0.40481 0.0
C958 C 0.1638 0.17204 0.37069 0.0
C959 C 0.15258 0.15833 0.39799 0.0
C960 C 0.15995 0.15935 0.42886 0.0
C961 C 0.17864 0.17355 0.43197 0.0
C962 C 0.1557 0.17229 0.3375 0.0
C963 C 0.14895 0.14445 0.45853 0.0
H964 H 0.06768 0.14437 0.40449 0.0
H965 H 0.13554 0.07553 0.38164 0.0
H966 H 0.09901 0.18724 0.42911 0.0
H967 H 0.10211 0.19659 0.38664 0.0
H968 H 0.07165 0.18956 0.40638 0.0
H969 H 0.17991 0.078 0.37734 0.0
H970 H 0.18419 0.11149 0.36227 0.0
H971 H 0.18397 0.10123 0.4045 0.0
H972 H 0.19307 0.19392 0.35297 0.0
H973 H 0.18374 0.1746 0.45583 0.0
H974 H 0.13354 0.17803 0.33837 0.0
H975 H 0.16369 0.15123 0.32881 0.0
H976 H 0.16336 0.18702 0.31971 0.0
H977 H 0.12678 0.15225 0.46206 0.0
H978 H 0.15693 0.14706 0.48076 0.0
H979 H 0.15414 0.12195 0.45528 0.0
C980 C 0.98112 0.13263 0.31799 0.0
C981 C 0.97949 0.10634 0.3311 0.0
C982 C 0.95769 0.15433 0.31311 0.0
C983 C 0.93223 0.14935 0.32131 0.0
C984 C 0.93077 0.12226 0.3326 0.0
C985 C 0.9544 0.10119 0.33769 0.0
C986 C 0.96007 0.18297 0.30127 0.0
C987 C 0.90416 0.1159 0.34133 0.0
C988 C 0.87264 0.20827 0.35008 0.0
C989 C 0.85887 0.2165 0.32268 0.0
C990 C 0.89668 0.1868 0.34973 0.0
C991 C 0.90714 0.17282 0.32135 0.0
C992 C 0.89309 0.18066 0.29373 0.0
C993 C 0.86913 0.20241 0.29471 0.0
C994 C 0.91095 0.17916 0.37979 0.0
C995 C 0.90351 0.16626 0.26306 0.0
H996 H 1.00053 0.1367 0.31361 0.0
H997 H 0.95323 0.08088 0.34827 0.0
H998 H 0.94804 0.19157 0.2808 0.0
H999 H 0.95194 0.19711 0.32087 0.0
H1000 H 0.98118 0.18298 0.29343 0.0
H1001 H 0.90655 0.09328 0.34622 0.0
H1002 H 0.89358 0.12633 0.36322 0.0
H1003 H 0.89122 0.12403 0.32159 0.0
H1004 H 0.86459 0.2186 0.37195 0.0
H1005 H 0.85881 0.20884 0.27326 0.0
H1006 H 0.93174 0.18083 0.37415 0.0
H1007 H 0.91227 0.15729 0.38866 0.0
H1008 H 0.90061 0.19265 0.39949 0.0
H1009 H 0.92352 0.16897 0.2538 0.0
H1010 H 0.88993 0.17439 0.24391 0.0
H1011 H 0.90605 0.14365 0.26803 0.0
C1012 C 0.9803 0.97776 0.34326 0.0
C1013 C 0.98383 0.97955 0.37544 0.0
C1014 C 0.96455 0.96174 0.33564 0.0
C1015 C 0.95219 0.94698 0.36077 0.0
C1016 C 0.95526 0.94905 0.39331 0.0
C1017 C 0.97098 0.96537 0.40023 0.0
C1018 C 0.96174 0.96001 0.30069 0.0
C1019 C 0.94241 0.93355 0.42083 0.0
C1020 C 0.89439 0.9186 0.35237 0.0
C1021 C 0.90755 0.89028 0.35156 0.0
C1022 C 0.90893 0.9378 0.35306 0.0
C1023 C 0.93711 0.92819 0.35331 0.0
C1024 C 0.95056 0.89979 0.35008 0.0
C1025 C 0.93554 0.88113 0.34933 0.0
C1026 C 0.89395 0.96797 0.35607 0.0
C1027 C 0.98057 0.8887 0.35016 0.0
H1028 H 0.99046 0.9882 0.32382 0.0
H1029 H 0.97332 0.96693 0.42511 0.0
H1030 H 0.97153 0.93854 0.29386 0.0
H1031 H 0.94027 0.96491 0.29705 0.0
H1032 H 0.97092 0.97439 0.28417 0.0
H1033 H 0.94616 0.93797 0.44479 0.0
H1034 H 0.92044 0.9392 0.41986 0.0
H1035 H 0.95033 0.91088 0.41855 0.0
H1036 H 0.87266 0.92544 0.35462 0.0
H1037 H 0.94551 0.85907 0.3492 0.0
H1038 H 0.90397 0.9815 0.33935 0.0
H1039 H 0.89398 0.97329 0.38097 0.0
H1040 H 0.87282 0.97268 0.35093 0.0
H1041 H 0.99094 0.90164 0.33303 0.0
H1042 H 0.98818 0.86688 0.34363 0.0
H1043 H 0.98596 0.88955 0.37458 0.0
C1044 C 0.14693 0.98608 0.3016 0.0
C1045 C 0.12046 0.98755 0.31434 0.0
C1046 C 0.16671 0.96044 0.29997 0.0
C1047 C 0.16005 0.93558 0.3118 0.0
C1048 C 0.13312 0.93685 0.32359 0.0
C1049 C 0.11363 0.96276 0.32451 0.0
C1050 C 0.19498 0.96011 0.28672 0.0
C1051 C 0.12512 0.91094 0.3366 0.0
C1052 C 0.21089 0.86721 0.28966 0.0
C1053 C 0.22491 0.85948 0.31701 0.0
C1054 C 0.18925 0.89144 0.28793 0.0
C1055 C 0.1816 0.90864 0.31397 0.0
C1056 C 0.19511 0.90045 0.34201 0.0
C1057 C 0.21621 0.87583 0.34334 0.0
C1058 C 0.17517 0.89912 0.25777 0.0
C1059 C 0.18788 0.91815 0.3703 0.0
H1060 H 0.15238 0.00507 0.29357 0.0
H1061 H 0.09326 0.96363 0.33463 0.0
H1062 H 0.20803 0.95365 0.30651 0.0
H1063 H 0.20271 0.9448 0.26833 0.0
H1064 H 0.19644 0.98073 0.27555 0.0
H1065 H 0.10308 0.91512 0.34258 0.0
H1066 H 0.13213 0.89507 0.31877 0.0
H1067 H 0.13484 0.90195 0.35877 0.0
H1068 H 0.21732 0.85482 0.26907 0.0
H1069 H 0.22614 0.86964 0.36498 0.0
H1070 H 0.17908 0.9183 0.24509 0.0
H1071 H 0.15317 0.90353 0.2641 0.0
H1072 H 0.18193 0.88244 0.24088 0.0
H1073 H 0.19172 0.93854 0.36261 0.0
H1074 H 0.19957 0.90834 0.39081 0.0
H1075 H 0.16622 0.9222 0.37885 0.0
C1076 C 0.14213 0.9759 0.77067 0.0
C1077 C 0.11564 0.9754 0.78079 0.0
C1078 C 0.16388 0.95281 0.7768 0.0
C1079 C 0.15914 0.92828 0.79312 0.0
C1080 C 0.13245 0.92799 0.80469 0.0
C1081 C 0.11095 0.9517 0.79857 0.0
C1082 C 0.1919 0.95428 0.76435 0.0
C1083 C 0.12654 0.90219 0.82201 0.0
C1084 C 0.21301 0.86168 0.77251 0.0
C1085 C 0.22819 0.85637 0.79869 0.0
C1086 C 0.19012 0.88454 0.77085 0.0
C1087 C 0.1821 0.90265 0.79603 0.0
C1088 C 0.19727 0.89733 0.82263 0.0
C1089 C 0.22018 0.87437 0.82357 0.0
C1090 C 0.17475 0.88954 0.74185 0.0
C1091 C 0.18937 0.91598 0.85004 0.0
H1092 H 0.14581 0.99423 0.75693 0.0
H1093 H 0.09048 0.95112 0.806 0.0
H1094 H 0.20509 0.94773 0.78399 0.0
H1095 H 0.20048 0.93981 0.74516 0.0
H1096 H 0.19232 0.97549 0.75423 0.0
H1097 H 0.10515 0.90599 0.83196 0.0
H1098 H 0.1315 0.88572 0.80501 0.0
H1099 H 0.13923 0.89417 0.842 0.0
H1100 H 0.21922 0.84816 0.75301 0.0
H1101 H 0.23153 0.87021 0.84417 0.0
H1102 H 0.17574 0.90949 0.7283 0.0
H1103 H 0.15331 0.8912 0.74973 0.0
H1104 H 0.18273 0.87273 0.72522 0.0
H1105 H 0.19022 0.93724 0.84089 0.0
H1106 H 0.20261 0.9084 0.8696 0.0
H1107 H 0.1684 0.9175 0.8604 0.0
C1108 C 0.09951 0.11986 0.76198 0.0
C1109 C 0.10477 0.10629 0.73348 0.0
C1110 C 0.11571 0.13585 0.7683 0.0
C1111 C 0.13768 0.13815 0.7456 0.0
C1112 C 0.14314 0.12442 0.71684 0.0
C1113 C 0.1265 0.10874 0.71107 0.0
C1114 C 0.10924 0.1504 0.79908 0.0
C1115 C 0.16664 0.12618 0.69222 0.0
C1116 C 0.16854 0.19757 0.73814 0.0
C1117 C 0.19244 0.18479 0.75162 0.0
C1118 C 0.14945 0.18318 0.73814 0.0
C1119 C 0.1549 0.15527 0.75134 0.0
C1120 C 0.1784 0.14289 0.76669 0.0
C1121 C 0.19696 0.15794 0.76672 0.0
C1122 C 0.12441 0.19717 0.72202 0.0
C1123 C 0.18494 0.11313 0.78085 0.0
H1124 H 0.0825 0.11821 0.77917 0.0
H1125 H 0.13081 0.09791 0.6893 0.0
H1126 H 0.12674 0.14381 0.81315 0.0
H1127 H 0.10498 0.17315 0.79324 0.0
H1128 H 0.09168 0.14607 0.8145 0.0
H1129 H 0.16839 0.11379 0.67144 0.0
H1130 H 0.16453 0.1481 0.68296 0.0
H1131 H 0.18555 0.11863 0.70368 0.0
H1132 H 0.16539 0.21835 0.72629 0.0
H1133 H 0.21575 0.14817 0.77675 0.0
H1134 H 0.10648 0.19385 0.73748 0.0
H1135 H 0.12567 0.18789 0.69897 0.0
H1136 H 0.12158 0.21983 0.71673 0.0
H1137 H 0.16739 0.10908 0.79647 0.0
H1138 H 0.20224 0.10777 0.79524 0.0
H1139 H 0.1899 0.0991 0.76106 0.0
C1140 C 0.98442 0.13205 0.77213 0.0
C1141 C 0.98061 0.10573 0.78066 0.0
C1142 C 0.96349 0.15629 0.77753 0.0
C1143 C 0.93782 0.15421 0.79113 0.0
C1144 C 0.93417 0.12759 0.8011 0.0
C1145 C 0.95573 0.10359 0.7959 0.0
C1146 C 0.96848 0.18411 0.76694 0.0
C1147 C 0.90716 0.12444 0.81562 0.0
C1148 C 0.88649 0.22038 0.81893 0.0
C1149 C 0.87223 0.22984 0.79192 0.0
C1150 C 0.90754 0.19559 0.81933 0.0
C1151 C 0.91455 0.17977 0.79211 0.0
C1152 C 0.90026 0.18928 0.76478 0.0
C1153 C 0.87951 0.21424 0.76495 0.0
C1154 C 0.92223 0.1863 0.84892 0.0
C1155 C 0.90685 0.17305 0.73527 0.0
H1156 H 1.00363 0.13363 0.75998 0.0
H1157 H 0.95268 0.0832 0.80188 0.0
H1158 H 0.95731 0.19389 0.74603 0.0
H1159 H 0.96105 0.19823 0.78663 0.0
H1160 H 0.99008 0.18229 0.75979 0.0
H1161 H 0.90762 0.1024 0.82233 0.0
H1162 H 0.90021 0.13606 0.83749 0.0
H1163 H 0.89222 0.13342 0.79817 0.0
H1164 H 0.88076 0.23198 0.84017 0.0
H1165 H 0.86903 0.22156 0.74383 0.0
H1166 H 0.94388 0.18439 0.84233 0.0
H1167 H 0.92049 0.16552 0.85889 0.0
H1168 H 0.91437 0.20093 0.8681 0.0
H1169 H 0.92762 0.17188 0.72435 0.0
H1170 H 0.89298 0.18251 0.7167 0.0
H1171 H 0.90585 0.15147 0.74219 0.0
C1172 C 0.96596 0.98211 0.74461 0.0
C1173 C 0.98345 0.98467 0.71655 0.0
C1174 C 0.94571 0.96908 0.74482 0.0
C1175 C 0.94319 0.95789 0.71649 0.0
C1176 C 0.96048 0.96065 0.68804 0.0
C1177 C 0.98015 0.97425 0.68833 0.0
C1178 C 0.9273 0.96691 0.77548 0.0
C1179 C 0.95852 0.94876 0.65737 0.0
C1180 C 0.9118 0.8988 0.72088 0.0
C1181 C 0.88745 0.91235 0.70865 0.0
C1182 C 0.92986 0.91357 0.72459 0.0
C1183 C 0.923 0.9426 0.7165 0.0
C1184 C 0.89772 0.95654 0.70579 0.0
C1185 C 0.88035 0.94111 0.70151 0.0
C1186 C 0.95678 0.89793 0.73564 0.0
C1187 C 0.88939 0.98757 0.69792 0.0
H1188 H 0.96831 0.98974 0.76672 0.0
H1189 H 0.99305 0.97657 0.66633 0.0
H1190 H 0.90607 0.97512 0.77057 0.0
H1191 H 0.9305 0.94483 0.78462 0.0
H1192 H 0.93066 0.97843 0.79474 0.0
H1193 H 0.97365 0.95247 0.63738 0.0
H1194 H 0.96138 0.92606 0.66189 0.0
H1195 H 0.93828 0.95809 0.64946 0.0
H1196 H 0.9171 0.87649 0.72634 0.0
H1197 H 0.86129 0.95145 0.69237 0.0
H1198 H 0.96051 0.90744 0.75638 0.0
H1199 H 0.97287 0.89919 0.71582 0.0
H1200 H 0.95831 0.8757 0.74284 0.0
H1201 H 0.8926 0.99829 0.71798 0.0
H1202 H 0.86801 0.99554 0.69342 0.0
H1203 H 0.90195 0.99308 0.67608 0.0
C1204 C 0.33473 0.15884 0.16479 0.0
C1205 C 0.31949 0.14075 0.17738 0.0
C1206 C 0.3331 0.18234 0.1807 0.0
C1207 C 0.31566 0.1877 0.20965 0.0
C1208 C 0.29915 0.17013 0.22134 0.0
C1209 C 0.30144 0.14671 0.20511 0.0
C1210 C 0.35046 0.20096 0.16701 0.0
C1211 C 0.2801 0.17522 0.25192 0.0
C1212 C 0.33157 0.22227 0.2767 0.0
C1213 C 0.31247 0.24816 0.27501 0.0
C1214 C 0.33387 0.20299 0.25426 0.0
C1215 C 0.31646 0.20974 0.22973 0.0
C1216 C 0.29805 0.23643 0.22694 0.0
C1217 C 0.29608 0.2552 0.24985 0.0
C1218 C 0.35399 0.17484 0.25784 0.0
C1219 C 0.27946 0.24469 0.20086 0.0
H1220 H 0.34864 0.15391 0.14325 0.0
H1221 H 0.28982 0.13242 0.21461 0.0
H1222 H 0.33752 0.22133 0.15827 0.0
H1223 H 0.36154 0.2047 0.1859 0.0
H1224 H 0.36512 0.19216 0.14653 0.0
H1225 H 0.29168 0.1724 0.27285 0.0
H1226 H 0.267 0.19688 0.25075 0.0
H1227 H 0.26724 0.16089 0.2563 0.0
H1228 H 0.34416 0.21679 0.29622 0.0
H1229 H 0.28109 0.2751 0.2486 0.0
H1230 H 0.36645 0.16991 0.23452 0.0
H1231 H 0.34327 0.1587 0.26462 0.0
H1232 H 0.36741 0.17363 0.27653 0.0
H1233 H 0.29087 0.23987 0.17695 0.0
H1234 H 0.2685 0.26715 0.19988 0.0
H1235 H 0.26456 0.23261 0.20538 0.0
C1236 C 0.96787 0.26223 0.17517 0.0
C1237 C 0.98365 0.27977 0.17791 0.0
C1238 C 0.9414 0.26738 0.19036 0.0
C1239 C 0.93055 0.29027 0.2095 0.0
C1240 C 0.94654 0.30796 0.21241 0.0
C1241 C 0.97275 0.30261 0.19641 0.0
C1242 C 0.92494 0.24842 0.18569 0.0
C1243 C 0.93671 0.33189 0.23347 0.0
C1244 C 0.85418 0.31633 0.22567 0.0
C1245 C 0.84901 0.30186 0.25533 0.0
C1246 C 0.88059 0.31334 0.21092 0.0
C1247 C 0.90251 0.2955 0.2262 0.0
C1248 C 0.89742 0.28158 0.25669 0.0
C1249 C 0.87082 0.28455 0.27051 0.0
C1250 C 0.88505 0.32874 0.17854 0.0
C1251 C 0.92006 0.2632 0.27457 0.0
H1252 H 0.97611 0.24475 0.16057 0.0
H1253 H 0.98503 0.31598 0.19896 0.0
H1254 H 0.91941 0.2379 0.20924 0.0
H1255 H 0.90601 0.26074 0.176 0.0
H1256 H 0.93582 0.23233 0.16892 0.0
H1257 H 0.947 0.34823 0.22527 0.0
H1258 H 0.91477 0.34143 0.23417 0.0
H1259 H 0.94141 0.32397 0.25837 0.0
H1260 H 0.83746 0.32954 0.2136 0.0
H1261 H 0.8672 0.27292 0.29306 0.0
H1262 H 0.89546 0.31371 0.1604 0.0
H1263 H 0.89817 0.34211 0.18013 0.0
H1264 H 0.86598 0.34194 0.16986 0.0
H1265 H 0.9318 0.24578 0.26008 0.0
H1266 H 0.91279 0.25447 0.29849 0.0
H1267 H 0.93387 0.27526 0.2782 0.0
C1268 C 0.85492 0.92336 0.11303 0.0
C1269 C 0.83516 0.93651 0.09265 0.0
C1270 C 0.84856 0.90913 0.14247 0.0
C1271 C 0.82187 0.90778 0.15143 0.0
C1272 C 0.80168 0.92199 0.13156 0.0
C1273 C 0.80859 0.93605 0.10241 0.0
C1274 C 0.87091 0.89415 0.16268 0.0
C1275 C 0.77303 0.92092 0.14007 0.0
C1276 C 0.81303 0.84135 0.19594 0.0
C1277 C 0.80492 0.84857 0.2278 0.0
C1278 C 0.81847 0.86044 0.17112 0.0
C1279 C 0.81589 0.88777 0.17815 0.0
C1280 C 0.80747 0.8956 0.21012 0.0
C1281 C 0.8022 0.87579 0.23475 0.0
C1282 C 0.82762 0.85104 0.13744 0.0
C1283 C 0.80459 0.92467 0.21828 0.0
H1284 H 0.87539 0.92396 0.10582 0.0
H1285 H 0.79322 0.94579 0.08664 0.0
H1286 H 0.8636 0.89181 0.18867 0.0
H1287 H 0.88041 0.87316 0.15423 0.0
H1288 H 0.88662 0.90521 0.15988 0.0
H1289 H 0.75916 0.93605 0.12446 0.0
H1290 H 0.77181 0.8998 0.13719 0.0
H1291 H 0.7661 0.9252 0.16564 0.0
H1292 H 0.81669 0.82021 0.19043 0.0
H1293 H 0.79632 0.88148 0.25937 0.0
H1294 H 0.84727 0.85482 0.12852 0.0
H1295 H 0.81308 0.86317 0.12065 0.0
H1296 H 0.82965 0.82864 0.1364 0.0
H1297 H 0.82426 0.92922 0.21285 0.0
H1298 H 0.7972 0.92771 0.24408 0.0
H1299 H 0.7905 0.9399 0.20306 0.0
C1300 C 0.06826 0.84548 0.11764 0.0
C1301 C 0.07376 0.83583 0.08677 0.0
C1302 C 0.08928 0.84512 0.13529 0.0
C1303 C 0.11616 0.83493 0.12149 0.0
C1304 C 0.12159 0.82649 0.08965 0.0
C1305 C 0.10032 0.82714 0.07274 0.0
C1306 C 0.08276 0.8544 0.16907 0.0
C1307 C 0.14992 0.81565 0.07382 0.0
C1308 C 0.1789 0.84561 0.14452 0.0
C1309 C 0.19105 0.81908 0.15819 0.0
C1310 C 0.15281 0.8523 0.13582 0.0
C1311 C 0.13906 0.83165 0.14015 0.0
C1312 C 0.15045 0.80561 0.15661 0.0
C1313 C 0.1764 0.79966 0.16562 0.0
C1314 C 0.14108 0.88052 0.11915 0.0
C1315 C 0.13647 0.78301 0.16166 0.0
H1316 H 0.04766 0.85198 0.12849 0.0
H1317 H 0.10441 0.82004 0.04867 0.0
H1318 H 0.08752 0.836 0.18673 0.0
H1319 H 0.09511 0.86796 0.1729 0.0
H1320 H 0.06123 0.86573 0.17428 0.0
H1321 H 0.15055 0.81072 0.04856 0.0
H1322 H 0.16114 0.83117 0.07367 0.0
H1323 H 0.16054 0.79653 0.08779 0.0
H1324 H 0.19036 0.8606 0.13906 0.0
H1325 H 0.186 0.77914 0.1762 0.0
H1326 H 0.11942 0.88855 0.12741 0.0
H1327 H 0.14309 0.87882 0.09275 0.0
H1328 H 0.15151 0.89575 0.12354 0.0
H1329 H 0.11496 0.79145 0.17032 0.0
H1330 H 0.14578 0.7659 0.17924 0.0
H1331 H 0.13764 0.77422 0.1383 0.0
C1332 C 0.34358 0.97848 1.01031 0.0
C1333 C 0.32817 1.00027 0.0282 0.0
C1334 C 0.33118 0.96306 0.99518 0.0
C1335 C 0.30272 0.96985 0.99816 0.0
C1336 C 0.28714 0.99311 1.0145 0.0
C1337 C 0.30012 0.00805 0.0294 0.0
C1338 C 0.34855 0.93849 0.97762 0.0
C1339 C 0.25689 1.00132 0.01818 0.0
C1340 C 0.286 0.92796 0.94081 0.0
C1341 C 0.28887 0.90303 0.96022 0.0
C1342 C 0.28639 0.95203 0.95404 0.0
C1343 C 0.29002 0.95053 0.98703 0.0
C1344 C 0.28801 0.92674 1.00752 0.0
C1345 C 0.28748 0.90308 0.99374 0.0
C1346 C 0.2867 0.97771 0.93193 0.0
C1347 C 0.29053 0.92479 0.04317 0.0
H1348 H 0.36521 0.97279 1.00952 0.0
H1349 H 0.28835 0.02527 0.04312 0.0
H1350 H 0.34538 0.91903 0.99046 0.0
H1351 H 0.34291 0.93987 0.95285 0.0
H1352 H 0.3702 0.93709 0.97591 0.0
H1353 H 0.24845 0.02392 0.02081 0.0
H1354 H 0.24895 0.99596 0.99741 0.0
H1355 H 0.24966 0.99017 0.04036 0.0
H1356 H 0.28676 0.92787 0.91486 0.0
H1357 H 0.28932 0.88372 1.00866 0.0
H1358 H 0.30776 0.97815 0.92483 0.0
H1359 H 0.27597 0.99674 0.9443 0.0
H1360 H 0.27739 0.97802 0.90964 0.0
H1361 H 0.31179 0.92184 0.04668 0.0
H1362 H 0.28403 0.90708 0.05638 0.0
H1363 H 0.27842 0.94419 0.05392 0.0
C1364 C 0.15782 0.25989 0.98483 0.0
C1365 C 0.14851 0.27835 1.00916 0.0
C1366 C 0.17596 0.26473 0.95836 0.0
C1367 C 0.18508 0.28873 0.9559 0.0
C1368 C 0.17596 0.30741 0.9804 0.0
C1369 C 0.15782 0.30202 1.00668 0.0
C1370 C 0.18538 0.24409 0.93296 0.0
C1371 C 0.18571 0.33285 0.97911 0.0
C1372 C 0.25044 0.28204 0.90167 0.0
C1373 C 0.24184 0.29565 0.87238 0.0
C1374 C 0.23247 0.2813 0.92955 0.0
C1375 C 0.20474 0.29362 0.92804 0.0
C1376 C 0.19582 0.3083 0.89888 0.0
C1377 C 0.2145 0.30927 0.87145 0.0
C1378 C 0.24312 0.26596 0.96015 0.0
C1379 C 0.16641 0.32172 0.89618 0.0
H1380 H 0.15065 0.24174 0.98615 0.0
H1381 H 0.15122 0.31619 0.02554 0.0
H1382 H 0.18006 0.25458 0.90907 0.0
H1383 H 0.20752 0.23569 0.93097 0.0
H1384 H 0.17645 0.22645 0.9384 0.0
H1385 H 0.17545 0.34626 0.99891 0.0
H1386 H 0.20757 0.32647 0.98096 0.0
H1387 H 0.1825 0.34526 0.95565 0.0
H1388 H 0.27121 0.27114 0.90282 0.0
H1389 H 0.20754 0.31967 0.84888 0.0
H1390 H 0.2352 0.24778 0.9665 0.0
H1391 H 0.23611 0.27948 0.98043 0.0
H1392 H 0.26537 0.25861 0.95778 0.0
H1393 H 0.15582 0.30542 0.89842 0.0
H1394 H 0.16287 0.33424 0.8728 0.0
H1395 H 0.15741 0.33529 0.91612 0.0
C1396 C 0.85037 0.10889 0.91914 0.0
C1397 C 0.8338 0.09196 0.91722 0.0
C1398 C 0.8423 0.1374 0.90945 0.0
C1399 C 0.81708 0.14919 0.89759 0.0
C1400 C 0.80046 0.13213 0.89526 0.0
C1401 C 0.8091 0.10375 0.90486 0.0
C1402 C 0.8607 0.15493 0.91195 0.0
C1403 C 0.77385 0.1436 0.88182 0.0
C1404 C 0.78614 0.22753 0.89501 0.0
C1405 C 0.79448 0.23572 0.86313 0.0
C1406 C 0.79325 0.19937 0.90668 0.0
C1407 C 0.8088 0.17903 0.88584 0.0
C1408 C 0.81674 0.18717 0.85356 0.0
C1409 C 0.80984 0.21531 0.84294 0.0
C1410 C 0.78461 0.19139 0.9414 0.0
C1411 C 0.83262 0.16623 0.83011 0.0
H1412 H 0.86931 0.10003 0.92901 0.0
H1413 H 0.79644 0.09068 0.90276 0.0
H1414 H 0.86655 0.16401 0.88762 0.0
H1415 H 0.85008 0.17245 0.92687 0.0
H1416 H 0.87921 0.14282 0.92273 0.0
H1417 H 0.76133 0.12895 0.88695 0.0
H1418 H 0.76238 0.16363 0.89166 0.0
H1419 H 0.77759 0.14751 0.85532 0.0
H1420 H 0.77462 0.24319 0.911 0.0
H1421 H 0.81673 0.22116 0.81863 0.0
H1422 H 0.80251 0.18067 0.95403 0.0
H1423 H 0.77243 0.17662 0.94251 0.0
H1424 H 0.77267 0.20966 0.95453 0.0
H1425 H 0.85044 0.15221 0.8406 0.0
H1426 H 0.83938 0.1762 0.80671 0.0
H1427 H 0.82007 0.15318 0.82538 0.0
C1428 C 0.96014 0.77824 0.91569 0.0
C1429 C 0.95333 0.7923 0.94378 0.0
C1430 C 0.94016 0.77542 0.89831 0.0
C1431 C 0.91277 0.78709 0.90931 0.0
C1432 C 0.90589 0.80057 0.93838 0.0
C1433 C 0.92633 0.80308 0.95521 0.0
C1434 C 0.94837 0.76088 0.86753 0.0
C1435 C 0.877 0.81331 0.951 0.0
C1436 C 0.86366 0.80823 0.846 0.0
C1437 C 0.85128 0.78677 0.85086 0.0
C1438 C 0.88344 0.8087 0.86509 0.0
C1439 C 0.89146 0.78687 0.88927 0.0
C1440 C 0.8792 0.76497 0.89405 0.0
C1441 C 0.85911 0.76529 0.87492 0.0
C1442 C 0.89543 0.83283 0.85972 0.0
C1443 C 0.88723 0.74126 0.9194 0.0
H1444 H 0.98113 0.77022 0.9069 0.0
H1445 H 0.92132 0.81413 0.97687 0.0
H1446 H 0.93799 0.74458 0.86807 0.0
H1447 H 0.94226 0.77598 0.84666 0.0
H1448 H 0.97035 0.75119 0.86354 0.0
H1449 H 0.875 0.82098 0.97522 0.0
H1450 H 0.86779 0.83097 0.93405 0.0
H1451 H 0.8654 0.79796 0.95251 0.0
H1452 H 0.85724 0.82521 0.82791 0.0
H1453 H 0.84966 0.74863 0.87865 0.0
H1454 H 0.91741 0.82524 0.85323 0.0
H1455 H 0.89207 0.84335 0.88232 0.0
H1456 H 0.8867 0.84836 0.84029 0.0
H1457 H 0.90883 0.73031 0.91433 0.0
H1458 H 0.87549 0.72605 0.9204 0.0
H1459 H 0.88433 0.74931 0.94351 0.0
C1460 C 0.11076 0.31277 0.20895 0.0
C1461 C 0.11296 0.31574 0.17508 0.0
C1462 C 0.13105 0.31536 0.22602 0.0
C1463 C 0.15472 0.32027 0.20894 0.0
C1464 C 0.1568 0.32403 0.17468 0.0
C1465 C 0.13577 0.32205 0.15818 0.0
C1466 C 0.1275 0.31184 0.26245 0.0
C1467 C 0.18186 0.32862 0.15537 0.0
C1468 C 0.20101 0.34367 0.25575 0.0
C1469 C 0.2188 0.31829 0.26534 0.0
C1470 C 0.18015 0.34471 0.23732 0.0
C1471 C 0.17766 0.31987 0.2271 0.0
C1472 C 0.19633 0.29429 0.23587 0.0
C1473 C 0.21633 0.29378 0.25531 0.0
C1474 C 0.16044 0.37234 0.22933 0.0
C1475 C 0.19528 0.26738 0.22464 0.0
H1476 H 0.09327 0.30777 0.2222 0.0
H1477 H 0.13789 0.32384 0.13201 0.0
H1478 H 0.14207 0.29245 0.27099 0.0
H1479 H 0.13159 0.3293 0.2726 0.0
H1480 H 0.10698 0.31083 0.27219 0.0
H1481 H 0.17971 0.3331 0.12917 0.0
H1482 H 0.18706 0.34604 0.16409 0.0
H1483 H 0.19892 0.3098 0.1587 0.0
H1484 H 0.20314 0.36266 0.2632 0.0
H1485 H 0.23047 0.2742 0.26212 0.0
H1486 H 0.13991 0.37188 0.23969 0.0
H1487 H 0.16029 0.37645 0.20281 0.0
H1488 H 0.16518 0.38975 0.23884 0.0
H1489 H 0.17617 0.26291 0.23487 0.0
H1490 H 0.21217 0.24955 0.23188 0.0
H1491 H 0.19586 0.26916 0.19796 0.0
C1492 C 0.11851 0.75127 0.95098 0.0
C1493 C 0.1062 0.7751 0.96774 0.0
C1494 C 0.14406 0.74778 0.93242 0.0
C1495 C 0.15803 0.76833 0.93075 0.0
C1496 C 0.14596 0.79183 0.94861 0.0
C1497 C 0.12047 0.79496 0.9664 0.0
C1498 C 0.15567 0.72257 0.91355 0.0
C1499 C 0.1598 0.81417 0.94856 0.0
C1500 C 0.23446 0.75292 0.90724 0.0
C1501 C 0.23644 0.76675 0.87627 0.0
C1502 C 0.20939 0.75243 0.92461 0.0
C1503 C 0.18518 0.76566 0.91075 0.0
C1504 C 0.18713 0.7788 0.87893 0.0
C1505 C 0.21248 0.77972 0.86252 0.0
C1506 C 0.20879 0.7388 0.95857 0.0
C1507 C 0.1623 0.79255 0.86242 0.0
H1508 H 0.10772 0.73595 0.95122 0.0
H1509 H 0.11141 0.81346 0.97918 0.0
H1510 H 0.15613 0.72911 0.88735 0.0
H1511 H 0.17664 0.71218 0.91846 0.0
H1512 H 0.1438 0.70734 0.91928 0.0
H1513 H 0.14849 0.8305 0.96485 0.0
H1514 H 0.18015 0.80492 0.9562 0.0
H1515 H 0.16222 0.82412 0.92375 0.0
H1516 H 0.25266 0.74306 0.91846 0.0
H1517 H 0.21343 0.79122 0.83915 0.0
H1518 H 0.197 0.72355 0.96124 0.0
H1519 H 0.19875 0.75473 0.9758 0.0
H1520 H 0.22921 0.72804 0.96537 0.0
H1521 H 0.15072 0.77744 0.86197 0.0
H1522 H 0.16709 0.80075 0.83725 0.0
H1523 H 0.14921 0.80993 0.87612 0.0
C1524 C 0.25434 0.14965 0.03563 0.0
C1525 C 0.27173 0.12308 0.04175 0.0
C1526 C 0.25745 0.16556 1.00609 0.0
C1527 C 0.27901 0.15513 0.98225 0.0
C1528 C 0.29589 0.12784 0.98778 0.0
C1529 C 0.29187 0.11212 0.01712 0.0
C1530 C 0.23844 0.19416 1.00135 0.0
C1531 C 0.31924 0.11573 0.96343 0.0
C1532 C 0.28225 0.19174 0.89663 0.0
C1533 C 0.29966 0.20793 0.89843 0.0
C1534 C 0.27531 0.17449 0.9235 0.0
C1535 C 0.28569 0.17351 0.95322 0.0
C1536 C 0.3033 0.18967 0.95508 0.0
C1537 C 0.31032 0.20614 0.92774 0.0
C1538 C 0.25648 0.15768 0.92027 0.0
C1539 C 0.31458 0.18987 0.9862 0.0
H1540 H 0.23864 0.15837 0.05429 0.0
H1541 H 0.30554 0.09167 0.02137 0.0
H1542 H 0.24795 0.20962 1.00728 0.0
H1543 H 0.23384 0.19906 0.97596 0.0
H1544 H 0.21932 0.19638 0.01735 0.0
H1545 H 0.32917 0.09352 0.97003 0.0
H1546 H 0.31248 0.11769 0.93916 0.0
H1547 H 0.33429 0.12749 0.96169 0.0
H1548 H 0.2736 0.19285 0.87437 0.0
H1549 H 0.32414 0.21778 0.92959 0.0
H1550 H 0.23797 0.16442 0.93712 0.0
H1551 H 0.26588 0.1354 0.92703 0.0
H1552 H 0.25084 0.15987 0.89534 0.0
H1553 H 0.29796 0.19724 1.00536 0.0
H1554 H 0.32808 0.20348 0.98376 0.0
H1555 H 0.32591 0.16851 0.99434 0.0
C1556 C 0.98491 0.31939 0.05584 0.0
C1557 C 1.00983 0.32231 0.04167 0.0
C1558 C 0.9637 0.32288 0.03718 0.0
C1559 C 0.96752 0.32925 1.00332 0.0
C1560 C 0.99241 0.33329 0.98909 0.0
C1561 C 1.01335 0.32953 1.00841 0.0
C1562 C 0.93761 0.31841 0.05355 0.0
C1563 C 0.9974 0.34014 0.95322 0.0
C1564 C 0.92043 0.30756 0.95638 0.0
C1565 C 0.89979 0.33232 0.95302 0.0
C1566 C 0.94332 0.30656 0.97113 0.0
C1567 C 0.94561 0.33084 0.98303 0.0
C1568 C 0.92566 0.3562 0.97781 0.0
C1569 C 0.90323 0.35667 0.96269 0.0
C1570 C 0.96432 0.27914 0.97561 0.0
C1571 C 0.92715 0.38261 0.98994 0.0
H1572 H 0.98247 0.3129 0.08139 0.0
H1573 H 0.0329 0.33085 0.99725 0.0
H1574 H 0.9206 0.33655 0.04759 0.0
H1575 H 0.9343 0.30003 0.04457 0.0
H1576 H 0.93732 0.31507 0.08022 0.0
H1577 H 1.01677 0.34518 0.94632 0.0
H1578 H 0.99766 0.32217 0.94021 0.0
H1579 H 0.981 0.35798 0.94497 0.0
H1580 H 0.91802 0.28862 0.94916 0.0
H1581 H 0.88769 0.37606 0.95966 0.0
H1582 H 0.96362 0.27175 1.0016 0.0
H1583 H 0.98464 0.28159 0.96775 0.0
H1584 H 0.96128 0.26301 0.96191 0.0
H1585 H 0.92472 0.38073 0.01673 0.0
H1586 H 0.91138 0.40105 0.98148 0.0
H1587 H 0.94705 0.38609 0.98192 0.0
C1588 C 0.77422 0.94936 0.94412 0.0
C1589 C 0.79705 0.95783 0.93142 0.0
C1590 C 0.76586 0.9306 0.92836 0.0
C1591 C 0.78041 0.92054 0.89902 0.0
C1592 C 0.803 0.92969 0.8858 0.0
C1593 C 0.81105 0.94799 0.90218 0.0
C1594 C 0.74205 0.92084 0.94355 0.0
C1595 C 0.8191 0.91974 0.85453 0.0
C1596 C 0.78298 0.85331 0.86501 0.0
C1597 C 0.76684 0.86288 0.83974 0.0
C1598 C 0.78567 0.87147 0.88641 0.0
C1599 C 0.77263 0.90023 0.88182 0.0
C1600 C 0.75534 0.90984 0.85724 0.0
C1601 C 0.7526 0.89105 0.83661 0.0
C1602 C 0.80394 0.86 0.91255 0.0
C1603 C 0.74133 0.9403 0.85109 0.0
H1604 H 0.76351 0.95656 0.9669 0.0
H1605 H 0.82867 0.95445 0.89209 0.0
H1606 H 0.72704 0.92473 0.92615 0.0
H1607 H 0.74856 0.8981 0.94981 0.0
H1608 H 0.73227 0.93127 0.96576 0.0
H1609 H 0.83532 0.92989 0.84668 0.0
H1610 H 0.82832 0.89698 0.85742 0.0
H1611 H 0.80581 0.92391 0.83508 0.0
H1612 H 0.79438 0.83174 0.86748 0.0
H1613 H 0.74025 0.89864 0.81698 0.0
H1614 H 0.79488 0.86938 0.93555 0.0
H1615 H 0.82318 0.86517 0.90536 0.0
H1616 H 0.80837 0.83706 0.91681 0.0
H1617 H 0.73138 0.94938 0.87398 0.0
H1618 H 0.72612 0.94403 0.83392 0.0
H1619 H 0.75635 0.95145 0.84086 0.0
C1620 C 0.94958 0.75497 0.09983 0.0
C1621 C 0.97256 0.76349 0.10126 0.0
C1622 C 0.93146 0.75246 0.12764 0.0
C1623 C 0.93573 0.75932 0.15797 0.0
C1624 C 0.95923 0.76749 0.15961 0.0
C1625 C 0.9773 0.76934 0.13145 0.0
C1626 C 0.90744 0.7428 0.12443 0.0
C1627 C 0.96445 0.77604 0.19077 0.0
C1628 C 0.87338 0.78435 0.21927 0.0
C1629 C 0.87573 0.76199 0.24296 0.0
C1630 C 0.89275 0.78387 0.19205 0.0
C1631 C 0.91479 0.7599 0.1872 0.0
C1632 C 0.91684 0.73691 0.21071 0.0
C1633 C 0.89795 0.73862 0.23868 0.0
C1634 C 0.88973 0.80939 0.16873 0.0
C1635 C 0.93903 0.71041 0.20635 0.0
H1636 H 0.94528 0.75114 0.07655 0.0
H1637 H 0.99434 0.77704 0.13269 0.0
H1638 H 0.90903 0.72278 0.13911 0.0
H1639 H 0.88869 0.75787 0.13389 0.0
H1640 H 0.90593 0.73978 0.09904 0.0
H1641 H 0.98409 0.78061 0.18871 0.0
H1642 H 0.94838 0.79486 0.19786 0.0
H1643 H 0.96395 0.75946 0.21046 0.0
H1644 H 0.85698 0.80289 0.22281 0.0
H1645 H 0.90048 0.72149 0.25713 0.0
H1646 H 0.88388 0.80529 0.14581 0.0
H1647 H 0.90901 0.81473 0.16302 0.0
H1648 H 0.8743 0.82758 0.17852 0.0
H1649 H 0.93925 0.70301 0.18242 0.0
H1650 H 0.9368 0.69372 0.22535 0.0
H1651 H 0.95869 0.71427 0.20695 0.0
C1652 C 0.26753 0.97178 0.15923 0.0
C1653 C 0.28119 0.99116 0.16297 0.0
C1654 C 0.27198 0.94609 0.17805 0.0
C1655 C 0.29095 0.93915 0.20089 0.0
C1656 C 0.30422 0.95894 0.20536 0.0
C1657 C 0.29899 0.98466 0.18672 0.0
C1658 C 0.25672 0.9261 0.17307 0.0
C1659 C 0.32419 0.95296 0.22966 0.0
C1660 C 0.28901 0.87824 0.26426 0.0
C1661 C 0.30868 0.85608 0.25039 0.0
C1662 C 0.28363 0.90543 0.24912 0.0
C1663 C 0.29775 0.91073 0.21881 0.0
C1664 C 0.31804 0.8885 0.20503 0.0
C1665 C 0.32322 0.86158 0.22091 0.0
C1666 C 0.26267 0.9284 0.26563 0.0
C1667 C 0.33402 0.89306 0.17312 0.0
H1668 H 0.25365 0.97646 0.14115 0.0
H1669 H 0.30966 0.99935 0.19007 0.0
H1670 H 0.2709 0.90685 0.16397 0.0
H1671 H 0.24621 0.92015 0.19643 0.0
H1672 H 0.24172 0.93501 0.15564 0.0
H1673 H 0.33625 0.96804 0.22626 0.0
H1674 H 0.31323 0.95425 0.25424 0.0
H1675 H 0.33804 0.93172 0.22821 0.0
H1676 H 0.27739 0.87432 0.28675 0.0
H1677 H 0.33835 0.84461 0.20984 0.0
H1678 H 0.24911 0.94142 0.24827 0.0
H1679 H 0.27262 0.94198 0.275 0.0
H1680 H 0.25064 0.92022 0.28624 0.0
H1681 H 0.32044 0.90005 0.15387 0.0
H1682 H 0.34979 0.87397 0.16616 0.0
H1683 H 0.34366 0.90969 0.17433 0.0
C1684 C 0.83221 0.07348 0.06597 0.0
C1685 C 0.81083 0.06607 0.05614 0.0
C1686 C 0.82781 0.09447 0.08679 0.0
C1687 C 0.80131 0.10858 0.0984 0.0
C1688 C 0.77954 0.10117 0.0889 0.0
C1689 C 0.78455 0.08001 0.06778 0.0
C1690 C 0.85161 0.10174 0.09604 0.0
C1691 C 0.75098 0.11575 0.1009 0.0
C1692 C 0.78965 0.14833 0.17342 0.0
C1693 C 0.78545 0.17568 0.15981 0.0
C1694 C 0.79528 0.12616 0.15373 0.0
C1695 C 0.79652 0.13163 0.1197 0.0
C1696 C 0.79334 0.15921 0.10592 0.0
C1697 C 0.78771 0.18091 0.12617 0.0
C1698 C 0.79883 0.09705 0.16936 0.0
C1699 C 0.79489 0.16595 0.0698 0.0
H1700 H 0.85268 0.06297 0.05718 0.0
H1701 H 0.76795 0.07443 0.06041 0.0
H1702 H 0.85046 0.1237 0.08783 0.0
H1703 H 0.85136 0.09961 0.12268 0.0
H1704 H 0.87101 0.08839 0.08541 0.0
H1705 H 0.73633 0.10717 0.09198 0.0
H1706 H 0.74822 0.1139 0.12769 0.0
H1707 H 0.74647 0.1382 0.09296 0.0
H1708 H 0.78723 0.14445 0.19947 0.0
H1709 H 0.78385 0.20219 0.11577 0.0
H1710 H 0.81807 0.08308 0.15932 0.0
H1711 H 0.78255 0.08895 0.16393 0.0
H1712 H 0.79855 0.09611 0.19598 0.0
H1713 H 0.81415 0.15339 0.05795 0.0
H1714 H 0.79314 0.18826 0.06291 0.0
H1715 H 0.77856 0.16053 0.06022 0.0
C1716 C 0.61463 0.5962 0.91498 0.0
C1717 C 0.59827 0.59824 0.89064 0.0
C1718 C 0.6306 0.61424 0.91393 0.0
C1719 C 0.62995 0.63503 0.88808 0.0
C1720 C 0.61379 0.63693 0.86312 0.0
C1721 C 0.59821 0.6184 0.86464 0.0
C1722 C 0.64787 0.61132 0.94077 0.0
C1723 C 0.61244 0.65896 0.8353 0.0
C1724 C 0.64841 0.69787 0.90764 0.0
C1725 C 0.67516 0.69247 0.89398 0.0
C1726 C 0.63319 0.67981 0.90486 0.0
C1727 C 0.64512 0.65561 0.88828 0.0
C1728 C 0.67193 0.6504 0.87368 0.0
C1729 C 0.68663 0.66899 0.87661 0.0
C1730 C 0.60453 0.6863 0.92032 0.0
C1731 C 0.68532 0.62477 0.85587 0.0
H1732 H 0.61504 0.58033 0.93479 0.0
H1733 H 0.58541 0.62015 0.84592 0.0
H1734 H 0.66902 0.60892 0.93058 0.0
H1735 H 0.6412 0.63038 0.95394 0.0
H1736 H 0.64705 0.59325 0.95831 0.0
H1737 H 0.59982 0.65685 0.81713 0.0
H1738 H 0.60404 0.67982 0.84447 0.0
H1739 H 0.63285 0.6579 0.82318 0.0
H1740 H 0.63937 0.71629 0.92057 0.0
H1741 H 0.70735 0.66474 0.86611 0.0
H1742 H 0.60248 0.67013 0.94001 0.0
H1743 H 0.59098 0.68608 0.90236 0.0
H1744 H 0.59775 0.70684 0.93053 0.0
H1745 H 0.68712 0.60601 0.87299 0.0
H1746 H 0.70564 0.62472 0.84406 0.0
H1747 H 0.67296 0.62316 0.8372 0.0
C1748 C 0.47456 0.61217 0.80966 0.0
C1749 C 0.47361 0.59378 0.83724 0.0
C1750 C 0.45161 0.6338 0.80246 0.0
C1751 C 0.42729 0.63673 0.82316 0.0
C1752 C 0.42602 0.61716 0.8499 0.0
C1753 C 0.44915 0.59606 0.85662 0.0
C1754 C 0.45371 0.65428 0.7737 0.0
C1755 C 0.40061 0.61941 0.87265 0.0
C1756 C 0.37886 0.70797 0.83439 0.0
C1757 C 0.35697 0.70718 0.81921 0.0
C1758 C 0.402 0.68551 0.83522 0.0
C1759 C 0.40394 0.66172 0.81935 0.0
C1760 C 0.38256 0.66112 0.80253 0.0
C1761 C 0.35921 0.68368 0.80297 0.0
C1762 C 0.42408 0.68702 0.85389 0.0
C1763 C 0.38421 0.63646 0.78447 0.0
H1764 H 0.49345 0.61051 0.79469 0.0
H1765 H 0.44823 0.58164 0.87775 0.0
H1766 H 0.43675 0.65752 0.75923 0.0
H1767 H 0.45249 0.67467 0.78207 0.0
H1768 H 0.47285 0.64734 0.7579 0.0
H1769 H 0.40236 0.60128 0.89079 0.0
H1770 H 0.39583 0.63847 0.88562 0.0
H1771 H 0.38349 0.62118 0.85898 0.0
H1772 H 0.37822 0.72629 0.84544 0.0
H1773 H 0.34277 0.68287 0.79047 0.0
H1774 H 0.44336 0.6834 0.83809 0.0
H1775 H 0.42674 0.67051 0.87405 0.0
H1776 H 0.41982 0.70736 0.86408 0.0
H1777 H 0.40312 0.63137 0.76796 0.0
H1778 H 0.36705 0.64022 0.77015 0.0
H1779 H 0.38453 0.61804 0.80177 0.0
C1780 C 0.47248 0.46913 0.85766 0.0
C1781 C 0.48173 0.46904 0.88753 0.0
C1782 C 0.45533 0.45322 0.85414 0.0
C1783 C 0.44745 0.43665 0.88106 0.0
C1784 C 0.45561 0.43754 0.91159 0.0
C1785 C 0.47257 0.45378 0.91445 0.0
C1786 C 0.4469 0.45296 0.82126 0.0
C1787 C 0.44757 0.42017 0.94093 0.0
C1788 C 0.39305 0.40043 0.88486 0.0
C1789 C 0.40866 0.37319 0.88072 0.0
C1790 C 0.40524 0.422 0.88291 0.0
C1791 C 0.43352 0.41583 0.87687 0.0
C1792 C 0.44902 0.38859 0.87041 0.0
C1793 C 0.43636 0.36756 0.87252 0.0
C1794 C 0.38808 0.4509 0.88939 0.0
C1795 C 0.4792 0.38115 0.86359 0.0
H1796 H 0.47955 0.48063 0.83659 0.0
H1797 H 0.47916 0.45407 0.93769 0.0
H1798 H 0.45786 0.43294 0.81108 0.0
H1799 H 0.42518 0.45477 0.82307 0.0
H1800 H 0.4512 0.47004 0.80416 0.0
H1801 H 0.45388 0.42482 0.96333 0.0
H1802 H 0.42552 0.42372 0.94425 0.0
H1803 H 0.45687 0.39784 0.9374 0.0
H1804 H 0.3716 0.40456 0.89134 0.0
H1805 H 0.44826 0.34635 0.86935 0.0
H1806 H 0.39426 0.4665 0.87155 0.0
H1807 H 0.39077 0.45562 0.91365 0.0
H1808 H 0.36646 0.45318 0.88861 0.0
H1809 H 0.48531 0.39583 0.84437 0.0
H1810 H 0.48794 0.35973 0.85601 0.0
H1811 H 0.48791 0.38278 0.88565 0.0
C1812 C 0.62248 0.46076 0.79266 0.0
C1813 C 0.60415 0.46592 0.82036 0.0
C1814 C 0.64647 0.43902 0.79347 0.0
C1815 C 0.65214 0.42237 0.82272 0.0
C1816 C 0.63383 0.42813 0.85087 0.0
C1817 C 0.60999 0.44971 0.84926 0.0
C1818 C 0.66555 0.43359 0.76299 0.0
C1819 C 0.63931 0.41137 0.88266 0.0
C1820 C 0.70028 0.34956 0.81904 0.0
C1821 C 0.72405 0.35355 0.82654 0.0
C1822 C 0.67673 0.37173 0.81784 0.0
C1823 C 0.67697 0.39865 0.82396 0.0
C1824 C 0.70079 0.40272 0.83192 0.0
C1825 C 0.72391 0.38018 0.83317 0.0
C1826 C 0.65164 0.36643 0.80968 0.0
C1827 C 0.7021 0.43104 0.83839 0.0
H1828 H 0.61783 0.47336 0.77035 0.0
H1829 H 0.59574 0.45391 0.87068 0.0
H1830 H 0.68568 0.43451 0.76711 0.0
H1831 H 0.66785 0.41238 0.7562 0.0
H1832 H 0.65855 0.44874 0.74245 0.0
H1833 H 0.62336 0.419 0.9025 0.0
H1834 H 0.64092 0.38929 0.88029 0.0
H1835 H 0.65874 0.41212 0.88949 0.0
H1836 H 0.70012 0.32914 0.81374 0.0
H1837 H 0.74218 0.38377 0.83819 0.0
H1838 H 0.64491 0.37951 0.78761 0.0
H1839 H 0.63525 0.37231 0.82954 0.0
H1840 H 0.6547 0.34434 0.80562 0.0
H1841 H 0.69941 0.44514 0.81601 0.0
H1842 H 0.72151 0.43031 0.84666 0.0
H1843 H 0.68566 0.4402 0.85696 0.0
C1844 C 0.6492 0.48767 0.2693 0.0
C1845 C 0.62295 0.48726 0.28089 0.0
C1846 C 0.67121 0.4653 0.27673 0.0
C1847 C 0.66684 0.44151 0.29542 0.0
C1848 C 0.64037 0.44148 0.30838 0.0
C1849 C 0.61868 0.4646 0.30127 0.0
C1850 C 0.69905 0.46656 0.263 0.0
C1851 C 0.63481 0.41628 0.32777 0.0
C1852 C 0.71902 0.37418 0.27487 0.0
C1853 C 0.7338 0.36761 0.30148 0.0
C1854 C 0.69666 0.39749 0.2733 0.0
C1855 C 0.68959 0.41578 0.29819 0.0
C1856 C 0.70507 0.41008 0.32453 0.0
C1857 C 0.72677 0.3859 0.32608 0.0
C1858 C 0.68061 0.40249 0.24487 0.0
C1859 C 0.69878 0.42958 0.35097 0.0
H1860 H 0.65245 0.50525 0.25352 0.0
H1861 H 0.59833 0.46414 0.30982 0.0
H1862 H 0.71299 0.45963 0.28185 0.0
H1863 H 0.70676 0.45234 0.24344 0.0
H1864 H 0.69935 0.4878 0.2529 0.0
H1865 H 0.61361 0.42044 0.33866 0.0
H1866 H 0.63921 0.39908 0.31186 0.0
H1867 H 0.64806 0.40909 0.3473 0.0
H1868 H 0.72496 0.3613 0.25495 0.0
H1869 H 0.73809 0.3813 0.34672 0.0
H1870 H 0.6821 0.42192 0.23045 0.0
H1871 H 0.65911 0.40507 0.25349 0.0
H1872 H 0.68759 0.38521 0.22881 0.0
H1873 H 0.6994 0.45061 0.34048 0.0
H1874 H 0.71306 0.4225 0.36947 0.0
H1875 H 0.6782 0.43146 0.36301 0.0
C1876 C 0.6391 0.59994 0.23437 0.0
C1877 C 0.61591 0.61229 0.21896 0.0
C1878 C 0.65747 0.61482 0.23678 0.0
C1879 C 0.65234 0.64272 0.22365 0.0
C1880 C 0.62901 0.6552 0.20797 0.0
C1881 C 0.61117 0.6398 0.20574 0.0
C1882 C 0.68223 0.60076 0.25339 0.0
C1883 C 0.62269 0.685 0.19387 0.0
C1884 C 0.6799 0.69684 0.25003 0.0
C1885 C 0.69758 0.70059 0.22284 0.0
C1886 C 0.66646 0.67635 0.25193 0.0
C1887 C 0.67105 0.65931 0.22602 0.0
C1888 C 0.6907 0.66155 0.19984 0.0
C1889 C 0.70355 0.68246 0.19839 0.0
C1890 C 0.64569 0.67464 0.28025 0.0
C1891 C 0.69658 0.64339 0.17212 0.0
H1892 H 0.64295 0.57857 0.24436 0.0
H1893 H 0.59309 0.64958 0.19431 0.0
H1894 H 0.70044 0.60147 0.23674 0.0
H1895 H 0.6823 0.61196 0.27455 0.0
H1896 H 0.68354 0.57876 0.26171 0.0
H1897 H 0.6036 0.69163 0.18269 0.0
H1898 H 0.62121 0.69893 0.21301 0.0
H1899 H 0.63909 0.6878 0.17522 0.0
H1900 H 0.67532 0.71109 0.26879 0.0
H1901 H 0.71729 0.68554 0.1774 0.0
H1902 H 0.64746 0.65274 0.28929 0.0
H1903 H 0.62538 0.68366 0.27241 0.0
H1904 H 0.64745 0.68615 0.30044 0.0
H1905 H 0.69844 0.62146 0.18114 0.0
H1906 H 0.71529 0.64448 0.15662 0.0
H1907 H 0.67974 0.65022 0.15699 0.0
C1908 C 0.45536 0.61074 0.2892 0.0
C1909 C 0.48236 0.61034 0.2849 0.0
C1910 C 0.43498 0.63551 0.29419 0.0
C1911 C 0.4418 0.66068 0.2941 0.0
C1912 C 0.46921 0.66017 0.29064 0.0
C1913 C 0.48921 0.6349 0.2864 0.0
C1914 C 0.4062 0.63461 0.29912 0.0
C1915 C 0.47737 0.68657 0.28932 0.0
C1916 C 0.3887 0.72581 0.26749 0.0
C1917 C 0.37729 0.73696 0.29694 0.0
C1918 C 0.41017 0.70149 0.26619 0.0
C1919 C 0.42032 0.68768 0.29513 0.0
C1920 C 0.4092 0.69915 0.32489 0.0
C1921 C 0.38802 0.72382 0.3254 0.0
C1922 C 0.42127 0.68994 0.23393 0.0
C1923 C 0.4188 0.68466 0.35634 0.0
H1924 H 0.45017 0.59171 0.28768 0.0
H1925 H 0.51013 0.63466 0.28211 0.0
H1926 H 0.39872 0.63649 0.32502 0.0
H1927 H 0.39325 0.65204 0.28499 0.0
H1928 H 0.4041 0.61482 0.29236 0.0
H1929 H 0.49943 0.68251 0.28843 0.0
H1930 H 0.47059 0.7001 0.26754 0.0
H1931 H 0.46756 0.69821 0.31064 0.0
H1932 H 0.3805 0.73588 0.24543 0.0
H1933 H 0.37893 0.732 0.34833 0.0
H1934 H 0.41692 0.6698 0.23344 0.0
H1935 H 0.44337 0.68599 0.23027 0.0
H1936 H 0.41251 0.70414 0.21351 0.0
H1937 H 0.41476 0.66409 0.36021 0.0
H1938 H 0.40878 0.69675 0.3773 0.0
H1939 H 0.44077 0.68095 0.35543 0.0
C1940 C 0.47341 0.4941 0.20568 0.0
C1941 C 0.49124 0.48901 0.22901 0.0
C1942 C 0.45407 0.47966 0.20793 0.0
C1943 C 0.45296 0.45918 0.23378 0.0
C1944 C 0.47066 0.45427 0.25775 0.0
C1945 C 0.48946 0.4695 0.25524 0.0
C1946 C 0.43515 0.48594 0.18227 0.0
C1947 C 0.47033 0.43234 0.2854 0.0
C1948 C 0.38963 0.43564 0.24654 0.0
C1949 C 0.3972 0.41288 0.2277 0.0
C1950 C 0.4079 0.45035 0.24991 0.0
C1951 C 0.43436 0.44187 0.23429 0.0
C1952 C 0.44244 0.41803 0.21664 0.0
C1953 C 0.42371 0.40392 0.21342 0.0
C1954 C 0.39852 0.47571 0.26883 0.0
C1955 C 0.4706 0.40805 0.2001 0.0
H1956 H 0.47455 0.50954 0.18573 0.0
H1957 H 0.50337 0.46556 0.27318 0.0
H1958 H 0.43889 0.46747 0.16853 0.0
H1959 H 0.41409 0.49072 0.19361 0.0
H1960 H 0.43746 0.50374 0.16501 0.0
H1961 H 0.48435 0.43219 0.30299 0.0
H1962 H 0.44984 0.43569 0.29827 0.0
H1963 H 0.47606 0.41158 0.27589 0.0
H1964 H 0.3691 0.44263 0.25754 0.0
H1965 H 0.42971 0.38602 0.19932 0.0
H1966 H 0.39776 0.49455 0.25208 0.0
H1967 H 0.41281 0.47492 0.28628 0.0
H1968 H 0.3783 0.47785 0.28223 0.0
H1969 H 0.47408 0.4235 0.18016 0.0
H1970 H 0.47435 0.38776 0.18993 0.0
H1971 H 0.48543 0.40597 0.21731 0.0
C1972 C 0.79007 0.63914 0.67838 0.0
C1973 C 0.80537 0.6367 0.64803 0.0
C1974 C 0.79038 0.65932 0.69867 0.0
C1975 C 0.80651 0.67757 0.68868 0.0
C1976 C 0.82228 0.67496 0.65828 0.0
C1977 C 0.82141 0.65475 0.63831 0.0
C1978 C 0.77321 0.66124 0.7308 0.0
C1979 C 0.83963 0.69394 0.64634 0.0
C1980 C 0.78728 0.74433 0.73191 0.0
C1981 C 0.804 0.73676 0.75675 0.0
C1982 C 0.78852 0.72574 0.70884 0.0
C1983 C 0.80704 0.69892 0.71046 0.0
C1984 C 0.82484 0.69178 0.73459 0.0
C1985 C 0.82278 0.71056 0.75771 0.0
C1986 C 0.76914 0.7344 0.68365 0.0
C1987 C 0.84559 0.66394 0.73656 0.0
H1988 H 0.77751 0.62545 0.68622 0.0
H1989 H 0.83317 0.6533 0.61488 0.0
H1990 H 0.78602 0.65771 0.75066 0.0
H1991 H 0.75914 0.68237 0.73221 0.0
H1992 H 0.76142 0.64589 0.73486 0.0
H1993 H 0.85456 0.68586 0.62576 0.0
H1994 H 0.82665 0.71445 0.63805 0.0
H1995 H 0.85038 0.69703 0.66591 0.0
H1996 H 0.77246 0.76438 0.73126 0.0
H1997 H 0.83569 0.70462 0.77691 0.0
H1998 H 0.75526 0.72116 0.68746 0.0
H1999 H 0.78015 0.73139 0.6592 0.0
H2000 H 0.75709 0.75646 0.68444 0.0
H2001 H 0.8355 0.64726 0.74288 0.0
H2002 H 0.8594 0.66247 0.75489 0.0
H2003 H 0.85759 0.66009 0.71275 0.0
C2004 C 0.46638 0.75641 0.66452 0.0
C2005 C 0.48096 0.77587 0.6641 0.0
C2006 C 0.44103 0.75932 0.68287 0.0
C2007 C 0.42957 0.78208 0.70217 0.0
C2008 C 0.44414 0.80187 0.70183 0.0
C2009 C 0.46935 0.79868 0.68278 0.0
C2010 C 0.42641 0.73791 0.68141 0.0
C2011 C 0.43353 0.82603 0.72248 0.0
C2012 C 0.35296 0.80006 0.72689 0.0
C2013 C 0.3509 0.78485 0.75695 0.0
C2014 C 0.37817 0.80022 0.7095 0.0
C2015 C 0.40241 0.78492 0.72229 0.0
C2016 C 0.40039 0.77036 0.75324 0.0
C2017 C 0.37494 0.76978 0.76944 0.0
C2018 C 0.3788 0.81546 0.67641 0.0
C2019 C 0.42517 0.75448 0.76891 0.0
H2020 H 0.47467 0.73888 0.65003 0.0
H2021 H 0.48031 0.81374 0.68317 0.0
H2022 H 0.424 0.7269 0.70561 0.0
H2023 H 0.40602 0.74822 0.67433 0.0
H2024 H 0.43714 0.72231 0.664 0.0
H2025 H 0.44519 0.84146 0.71672 0.0
H2026 H 0.41219 0.83661 0.71955 0.0
H2027 H 0.43466 0.81818 0.74819 0.0
H2028 H 0.33473 0.8107 0.71606 0.0
H2029 H 0.37396 0.75701 0.79181 0.0
H2030 H 0.38803 0.80035 0.65801 0.0
H2031 H 0.39136 0.8299 0.6748 0.0
H2032 H 0.35845 0.82746 0.67035 0.0
H2033 H 0.4361 0.73612 0.75549 0.0
H2034 H 0.42031 0.74724 0.79447 0.0
H2035 H 0.43887 0.76769 0.76808 0.0
C2036 C 0.30516 0.42574 0.62016 0.0
C2037 C 0.33075 0.42942 0.61057 0.0
C2038 C 0.30011 0.40886 0.6481 0.0
C2039 C 0.3211 0.39513 0.6672 0.0
C2040 C 0.34691 0.39894 0.6579 0.0
C2041 C 0.35142 0.4159 0.62976 0.0
C2042 C 0.27234 0.40532 0.65688 0.0
C2043 C 0.37009 0.38441 0.67705 0.0
C2044 C 0.3038 0.36586 0.75348 0.0
C2045 C 0.30696 0.33801 0.74892 0.0
C2046 C 0.30818 0.38478 0.72713 0.0
C2047 C 0.3164 0.3755 0.69566 0.0
C2048 C 0.32016 0.34723 0.69124 0.0
C2049 C 0.31544 0.32899 0.7178 0.0
C2050 C 0.30409 0.41469 0.73293 0.0
C2051 C 0.32931 0.33611 0.65844 0.0
H2052 H 0.28907 0.43561 0.60544 0.0
H2053 H 0.37119 0.41867 0.62293 0.0
H2054 H 0.27302 0.38331 0.65573 0.0
H2055 H 0.26482 0.41065 0.68203 0.0
H2056 H 0.25785 0.41847 0.64054 0.0
H2057 H 0.38706 0.39371 0.67078 0.0
H2058 H 0.36382 0.38504 0.70338 0.0
H2059 H 0.37738 0.36231 0.67176 0.0
H2060 H 0.29764 0.37289 0.77752 0.0
H2061 H 0.31935 0.30724 0.7143 0.0
H2062 H 0.28897 0.42841 0.71776 0.0
H2063 H 0.32309 0.42036 0.72571 0.0
H2064 H 0.29732 0.41878 0.75862 0.0
H2065 H 0.31384 0.34598 0.64189 0.0
H2066 H 0.33307 0.31324 0.65949 0.0
H2067 H 0.34799 0.34132 0.64781 0.0
C2068 C 0.55946 0.32154 0.60969 0.0
C2069 C 0.56676 0.31349 0.57811 0.0
C2070 C 0.57894 0.32354 0.6286 0.0
C2071 C 0.60636 0.3166 0.61581 0.0
C2072 C 0.61325 0.31116 0.58285 0.0
C2073 C 0.59337 0.30971 0.56447 0.0
C2074 C 0.57049 0.33032 0.66321 0.0
C2075 C 0.64208 0.30351 0.56795 0.0
C2076 C 0.66561 0.31923 0.65801 0.0
C2077 C 0.67504 0.2914 0.66995 0.0
C2078 C 0.64212 0.32846 0.64217 0.0
C2079 C 0.62804 0.30933 0.63779 0.0
C2080 C 0.63653 0.28174 0.65183 0.0
C2081 C 0.65959 0.2733 0.66799 0.0
C2082 C 0.63332 0.35826 0.62859 0.0
C2083 C 0.62235 0.26044 0.64792 0.0
H2084 H 0.53901 0.32387 0.62055 0.0
H2085 H 0.59912 0.3029 0.54028 0.0
H2086 H 0.57431 0.31081 0.67923 0.0
H2087 H 0.5822 0.34326 0.67041 0.0
H2088 H 0.54879 0.34138 0.6672 0.0
H2089 H 0.64375 0.30356 0.54125 0.0
H2090 H 0.65256 0.31807 0.57399 0.0
H2091 H 0.65261 0.28241 0.57787 0.0
H2092 H 0.67733 0.33342 0.65944 0.0
H2093 H 0.66639 0.25192 0.67778 0.0
H2094 H 0.61117 0.36659 0.63241 0.0
H2095 H 0.63943 0.3595 0.6022 0.0
H2096 H 0.64251 0.37163 0.6397 0.0
H2097 H 0.60072 0.26803 0.65647 0.0
H2098 H 0.63082 0.24019 0.66142 0.0
H2099 H 0.62403 0.25698 0.62198 0.0
C2100 C 0.78464 0.52272 0.52699 0.0
C2101 C 0.80803 0.52537 0.53717 0.0
C2102 C 0.78482 0.49938 0.51169 0.0
C2103 C 0.80918 0.47835 0.50579 0.0
C2104 C 0.83304 0.48128 0.51545 0.0
C2105 C 0.83213 0.50467 0.53136 0.0
C2106 C 0.75883 0.49699 0.5025 0.0
C2107 C 0.85948 0.45957 0.50919 0.0
C2108 C 0.80837 0.40423 0.499 0.0
C2109 C 0.81391 0.40174 0.46561 0.0
C2110 C 0.80599 0.42922 0.51218 0.0
C2111 C 0.8094 0.45246 0.49152 0.0
C2112 C 0.81374 0.45052 0.4576 0.0
C2113 C 0.81586 0.42516 0.44501 0.0
C2114 C 0.80072 0.43042 0.54837 0.0
C2115 C 0.81728 0.47485 0.43472 0.0
H2116 H 0.766 0.53885 0.53145 0.0
H2117 H 0.85024 0.50692 0.53897 0.0
H2118 H 0.76085 0.494 0.47641 0.0
H2119 H 0.75396 0.47852 0.51596 0.0
H2120 H 0.74181 0.5156 0.50775 0.0
H2121 H 0.87642 0.46561 0.51646 0.0
H2122 H 0.85852 0.4396 0.52273 0.0
H2123 H 0.86361 0.45596 0.48316 0.0
H2124 H 0.80663 0.38621 0.515 0.0
H2125 H 0.8203 0.42328 0.41923 0.0
H2126 H 0.78322 0.44824 0.5547 0.0
H2127 H 0.81827 0.43363 0.55769 0.0
H2128 H 0.79684 0.41113 0.56091 0.0
H2129 H 0.80042 0.49361 0.43968 0.0
H2130 H 0.81847 0.47073 0.40905 0.0
H2131 H 0.83594 0.47958 0.43848 0.0
C2132 C 0.65275 0.80718 0.48109 0.0
C2133 C 0.65016 0.78035 0.49131 0.0
C2134 C 0.67167 0.81184 0.45477 0.0
C2135 C 0.68853 0.78932 0.4376 0.0
C2136 C 0.68634 0.76231 0.44827 0.0
C2137 C 0.6673 0.75827 0.47431 0.0
C2138 C 0.67364 0.84097 0.44545 0.0
C2139 C 0.70374 0.73713 0.43201 0.0
C2140 C 0.71996 0.7985 0.3496 0.0
C2141 C 0.74758 0.79185 0.35259 0.0
C2142 C 0.70049 0.79885 0.3768 0.0
C2143 C 0.70833 0.79349 0.40849 0.0
C2144 C 0.73594 0.78833 0.41175 0.0
C2145 C 0.75505 0.78612 0.384 0.0
C2146 C 0.67176 0.80286 0.37142 0.0
C2147 C 0.74542 0.78359 0.44474 0.0
H2148 H 0.64013 0.82467 0.49367 0.0
H2149 H 0.66591 0.73741 0.48098 0.0
H2150 H 0.69492 0.84122 0.44103 0.0
H2151 H 0.66449 0.84899 0.4227 0.0
H2152 H 0.66309 0.85526 0.46431 0.0
H2153 H 0.70574 0.71824 0.44893 0.0
H2154 H 0.69431 0.73448 0.41098 0.0
H2155 H 0.72414 0.73885 0.42324 0.0
H2156 H 0.71368 0.80146 0.32559 0.0
H2157 H 0.7759 0.77834 0.38698 0.0
H2158 H 0.65829 0.81993 0.38528 0.0
H2159 H 0.66589 0.78369 0.38043 0.0
H2160 H 0.66852 0.80765 0.34554 0.0
H2161 H 0.73539 0.80203 0.45845 0.0
H2162 H 0.76739 0.77981 0.4434 0.0
H2163 H 0.73988 0.76561 0.45851 0.0
C2164 C 0.33332 0.61909 0.45047 0.0
C2165 C 0.3243 0.59833 0.44025 0.0
C2166 C 0.32676 0.64633 0.43534 0.0
C2167 C 0.31119 0.65291 0.40888 0.0
C2168 C 0.30232 0.63172 0.39844 0.0
C2169 C 0.30874 0.60485 0.41442 0.0
C2170 C 0.33645 0.66809 0.44772 0.0
C2171 C 0.28625 0.63734 0.37015 0.0
C2172 C 0.27664 0.73024 0.38948 0.0
C2173 C 0.29394 0.73751 0.36356 0.0
C2174 C 0.28126 0.70262 0.40339 0.0
C2175 C 0.30443 0.68182 0.39213 0.0
C2176 C 0.32165 0.68904 0.36553 0.0
C2177 C 0.31599 0.71654 0.35139 0.0
C2178 C 0.26163 0.69585 0.43068 0.0
C2179 C 0.34684 0.66809 0.3528 0.0
H2180 H 0.34519 0.61402 0.47064 0.0
H2181 H 0.30191 0.58869 0.40651 0.0
H2182 H 0.34924 0.67644 0.42816 0.0
H2183 H 0.31911 0.68569 0.45518 0.0
H2184 H 0.34811 0.6598 0.46863 0.0
H2185 H 0.28005 0.61904 0.36559 0.0
H2186 H 0.2681 0.65501 0.37438 0.0
H2187 H 0.29846 0.64322 0.34823 0.0
H2188 H 0.25952 0.74626 0.39904 0.0
H2189 H 0.32952 0.72177 0.33149 0.0
H2190 H 0.27137 0.69017 0.4533 0.0
H2191 H 0.25545 0.6777 0.42562 0.0
H2192 H 0.24342 0.71357 0.43465 0.0
H2193 H 0.3425 0.64871 0.34849 0.0
H2194 H 0.36135 0.66268 0.37103 0.0
H2195 H 0.35646 0.67621 0.32997 0.0
C2196 C 0.43888 0.31445 0.46573 0.0
C2197 C 0.46216 0.29242 0.4603 0.0
C2198 C 0.41693 0.31875 0.44768 0.0
C2199 C 0.41842 0.30087 0.42333 0.0
C2200 C 0.44236 0.27941 0.41695 0.0
C2201 C 0.4637 0.2754 0.43552 0.0
C2202 C 0.39175 0.34171 0.45554 0.0
C2203 C 0.44516 0.25996 0.39117 0.0
C2204 C 0.35581 0.28732 0.39997 0.0
C2205 C 0.352 0.30309 0.37028 0.0
C2206 C 0.3766 0.28724 0.41788 0.0
C2207 C 0.3946 0.30313 0.40584 0.0
C2208 C 0.39089 0.3193 0.37596 0.0
C2209 C 0.36973 0.3191 0.35861 0.0
C2210 C 0.37961 0.26957 0.4495 0.0
C2211 C 0.40955 0.3365 0.36203 0.0
H2212 H 0.43737 0.32759 0.48493 0.0
H2213 H 0.48162 0.25843 0.43087 0.0
H2214 H 0.38559 0.35485 0.43329 0.0
H2215 H 0.37516 0.33263 0.46556 0.0
H2216 H 0.39433 0.35507 0.47335 0.0
H2217 H 0.46567 0.24556 0.38762 0.0
H2218 H 0.43073 0.24745 0.39788 0.0
H2219 H 0.44032 0.27195 0.36784 0.0
H2220 H 0.3428 0.27456 0.40918 0.0
H2221 H 0.36709 0.33161 0.33587 0.0
H2222 H 0.38056 0.28221 0.46896 0.0
H2223 H 0.39866 0.25268 0.44742 0.0
H2224 H 0.36283 0.2601 0.45677 0.0
H2225 H 0.41055 0.35057 0.37991 0.0
H2226 H 0.40318 0.34915 0.33952 0.0
H2227 H 0.43011 0.32271 0.35662 0.0
C2228 C 0.64699 0.79046 0.6476 0.0
C2229 C 0.62004 0.80626 0.64925 0.0
C2230 C 0.66465 0.79495 0.66715 0.0
C2231 C 0.65506 0.81541 0.68959 0.0
C2232 C 0.62801 0.83198 0.69086 0.0
C2233 C 0.61082 0.82742 0.67036 0.0
C2234 C 0.69347 0.77726 0.66429 0.0
C2235 C 0.61702 0.85381 0.71467 0.0
C2236 C 0.69679 0.80077 0.76018 0.0
C2237 C 0.71428 0.81724 0.75036 0.0
C2238 C 0.67641 0.80113 0.74151 0.0
C2239 C 0.67339 0.8184 0.71232 0.0
C2240 C 0.69005 0.83619 0.70327 0.0
C2241 C 0.71014 0.83548 0.72248 0.0
C2242 C 0.65913 0.7818 0.75209 0.0
C2243 C 0.68771 0.85484 0.67233 0.0
H2244 H 0.65429 0.77429 0.63102 0.0
H2245 H 0.58998 0.83955 0.67181 0.0
H2246 H 0.70725 0.79061 0.66012 0.0
H2247 H 0.69771 0.76422 0.68716 0.0
H2248 H 0.69813 0.76343 0.64429 0.0
H2249 H 0.59608 0.86604 0.71141 0.0
H2250 H 0.61748 0.84373 0.73962 0.0
H2251 H 0.62972 0.86819 0.71219 0.0
H2252 H 0.69983 0.78653 0.78163 0.0
H2253 H 0.72294 0.8489 0.71528 0.0
H2254 H 0.66425 0.7651 0.73537 0.0
H2255 H 0.63765 0.79314 0.7511 0.0
H2256 H 0.66193 0.77202 0.77696 0.0
H2257 H 0.69444 0.84199 0.65141 0.0
H2258 H 0.70008 0.86955 0.67053 0.0
H2259 H 0.66654 0.86688 0.67041 0.0
C2260 C 0.63051 0.2441 0.43307 0.0
C2261 C 0.61516 0.263 0.45508 0.0
C2262 C 0.65531 0.24632 0.41732 0.0
C2263 C 0.66519 0.26847 0.42286 0.0
C2264 C 0.64981 0.28774 0.44512 0.0
C2265 C 0.62503 0.28485 0.46083 0.0
C2266 C 0.67048 0.22425 0.39517 0.0
C2267 C 0.65999 0.31086 0.45324 0.0
C2268 C 0.74086 0.25707 0.4034 0.0
C2269 C 0.7427 0.27416 0.37482 0.0
C2270 C 0.71587 0.25543 0.41945 0.0
C2271 C 0.69191 0.27091 0.40643 0.0
C2272 C 0.69367 0.28798 0.37729 0.0
C2273 C 0.71894 0.29 0.36239 0.0
C2274 C 0.71512 0.23692 0.45029 0.0
C2275 C 0.66889 0.30377 0.36156 0.0
H2276 H 0.62319 0.22731 0.42792 0.0
H2277 H 0.61373 0.29936 0.47817 0.0
H2278 H 0.69048 0.2262 0.3851 0.0
H2279 H 0.67302 0.20345 0.40842 0.0
H2280 H 0.65839 0.22512 0.37521 0.0
H2281 H 0.6459 0.3239 0.47134 0.0
H2282 H 0.67962 0.30198 0.46293 0.0
H2283 H 0.66327 0.32433 0.43113 0.0
H2284 H 0.7591 0.24508 0.41345 0.0
H2285 H 0.7201 0.30398 0.34095 0.0
H2286 H 0.70731 0.21954 0.44634 0.0
H2287 H 0.70132 0.24869 0.46959 0.0
H2288 H 0.73523 0.22811 0.4588 0.0
H2289 H 0.65801 0.28909 0.35675 0.0
H2290 H 0.67366 0.31544 0.33846 0.0
H2291 H 0.65515 0.31862 0.37806 0.0
C2292 C 0.74434 0.64804 0.47761 0.0
C2293 C 0.75998 0.63711 0.50302 0.0
C2294 C 0.75531 0.65919 0.44851 0.0
C2295 C 0.78251 0.65945 0.44501 0.0
C2296 C 0.799 0.64575 0.46926 0.0
C2297 C 0.78742 0.63543 0.49822 0.0
C2298 C 0.738 0.66963 0.4213 0.0
C2299 C 0.82888 0.64205 0.46527 0.0
C2300 C 0.80668 0.68745 0.36182 0.0
C2301 C 0.80806 0.71352 0.36843 0.0
C2302 C 0.7998 0.6688 0.38665 0.0
C2303 C 0.79274 0.67711 0.41853 0.0
C2304 C 0.79507 0.70301 0.42544 0.0
C2305 C 0.80355 0.72042 0.40048 0.0
C2306 C 0.79973 0.64068 0.37805 0.0
C2307 C 0.78731 0.71312 0.45891 0.0
H2308 H 0.72348 0.64812 0.48069 0.0
H2309 H 0.8002 0.62563 0.51688 0.0
H2310 H 0.74179 0.68861 0.40789 0.0
H2311 H 0.74283 0.65341 0.40405 0.0
H2312 H 0.71634 0.67377 0.43003 0.0
H2313 H 0.83953 0.62069 0.47436 0.0
H2314 H 0.83705 0.64569 0.43981 0.0
H2315 H 0.83348 0.65647 0.48012 0.0
H2316 H 0.81076 0.68162 0.33717 0.0
H2317 H 0.80532 0.74007 0.4061 0.0
H2318 H 0.78222 0.64307 0.3648 0.0
H2319 H 0.79897 0.62566 0.39943 0.0
H2320 H 0.81795 0.63187 0.36149 0.0
H2321 H 0.79006 0.73391 0.46 0.0
H2322 H 0.79967 0.69873 0.47643 0.0
H2323 H 0.76604 0.71392 0.46694 0.0
C2324 C 0.49188 0.84429 0.52876 0.0
C2325 C 0.51511 0.82404 0.51819 0.0
C2326 C 0.46877 0.85029 0.51278 0.0
C2327 C 0.46918 0.83577 0.48569 0.0
C2328 C 0.49338 0.8172 0.47332 0.0
C2329 C 0.51603 0.81156 0.48977 0.0
C2330 C 0.44333 0.87036 0.52654 0.0
C2331 C 0.49481 0.80142 0.44442 0.0
C2332 C 0.40506 0.81914 0.47546 0.0
C2333 C 0.3949 0.83917 0.45106 0.0
C2334 C 0.42929 0.81783 0.48682 0.0
C2335 C 0.44372 0.83693 0.47317 0.0
C2336 C 0.43384 0.85671 0.44778 0.0
C2337 C 0.40929 0.85778 0.43719 0.0
C2338 C 0.43916 0.79635 0.51388 0.0
C2339 C 0.44895 0.87698 0.43226 0.0
H2340 H 0.49111 0.85384 0.55081 0.0
H2341 H 0.53412 0.79604 0.48139 0.0
H2342 H 0.43336 0.88478 0.50706 0.0
H2343 H 0.4292 0.85866 0.53839 0.0
H2344 H 0.44715 0.8827 0.54466 0.0
H2345 H 0.51582 0.79123 0.43492 0.0
H2346 H 0.48431 0.78513 0.45144 0.0
H2347 H 0.48464 0.81539 0.42477 0.0
H2348 H 0.39359 0.80502 0.48627 0.0
H2349 H 0.4011 0.87337 0.41844 0.0
H2350 H 0.44095 0.80675 0.53498 0.0
H2351 H 0.45939 0.78287 0.5061 0.0
H2352 H 0.42557 0.78302 0.52172 0.0
H2353 H 0.4501 0.89077 0.45038 0.0
H2354 H 0.4393 0.89002 0.41163 0.0
H2355 H 0.46981 0.8657 0.42355 0.0
C2356 C 0.30174 0.45607 0.4228 0.0
C2357 C 0.2884 0.46512 0.45257 0.0
C2358 C 0.29313 0.43835 0.40628 0.0
C2359 C 0.27068 0.42912 0.41998 0.0
C2360 C 0.25667 0.43863 0.44972 0.0
C2361 C 0.2656 0.45675 0.46563 0.0
C2362 C 0.30864 0.42885 0.37454 0.0
C2363 C 0.23298 0.42879 0.46527 0.0
C2364 C 0.24472 0.3988 0.35728 0.0
C2365 C 0.26037 0.37112 0.35998 0.0
C2366 C 0.24595 0.4177 0.37865 0.0
C2367 C 0.26309 0.40856 0.40338 0.0
C2368 C 0.27691 0.38006 0.40803 0.0
C2369 C 0.27574 0.36186 0.38595 0.0
C2370 C 0.23094 0.4479 0.37274 0.0
C2371 C 0.29501 0.36913 0.43444 0.0
H2372 H 0.3193 0.46255 0.41252 0.0
H2373 H 0.25539 0.46347 0.48881 0.0
H2374 H 0.31813 0.40612 0.37705 0.0
H2375 H 0.29492 0.43305 0.35555 0.0
H2376 H 0.32461 0.43928 0.36629 0.0
H2377 H 0.22306 0.43962 0.48718 0.0
H2378 H 0.21803 0.43206 0.44791 0.0
H2379 H 0.2397 0.40617 0.47218 0.0
H2380 H 0.23286 0.4061 0.33717 0.0
H2381 H 0.28808 0.3407 0.38818 0.0
H2382 H 0.24524 0.45957 0.36135 0.0
H2383 H 0.22153 0.45699 0.3958 0.0
H2384 H 0.21516 0.45089 0.3565 0.0
H2385 H 0.31403 0.37483 0.42746 0.0
H2386 H 0.29995 0.34616 0.43872 0.0
H2387 H 0.28556 0.37842 0.45738 0.0
C2388 C 0.47003 0.25196 0.66309 0.0
C2389 C 0.46257 0.25359 0.63204 0.0
C2390 C 0.4511 0.25303 0.69052 0.0
C2391 C 0.42425 0.25444 0.68691 0.0
C2392 C 0.41656 0.25673 0.65533 0.0
C2393 C 0.4358 0.25652 0.62831 0.0
C2394 C 0.45978 0.25309 0.72332 0.0
C2395 C 0.38842 0.25857 0.6493 0.0
C2396 C 0.38646 0.22768 0.76251 0.0
C2397 C 0.36803 0.25213 0.77268 0.0
C2398 C 0.40388 0.22794 0.73373 0.0
C2399 C 0.40453 0.25358 0.71625 0.0
C2400 C 0.38709 0.27851 0.72769 0.0
C2401 C 0.36897 0.27742 0.75548 0.0
C2402 C 0.42117 0.20076 0.72163 0.0
C2403 C 0.38781 0.30638 0.7108 0.0
H2404 H 0.49071 0.25023 0.66578 0.0
H2405 H 0.4301 0.25782 0.6042 0.0
H2406 H 0.44604 0.27071 0.73616 0.0
H2407 H 0.45875 0.23374 0.73821 0.0
H2408 H 0.48056 0.25479 0.72167 0.0
H2409 H 0.38838 0.23844 0.64131 0.0
H2410 H 0.37351 0.26338 0.67076 0.0
H2411 H 0.382 0.27466 0.62936 0.0
H2412 H 0.38691 0.2083 0.77672 0.0
H2413 H 0.35626 0.29657 0.76448 0.0
H2414 H 0.44267 0.19966 0.72057 0.0
H2415 H 0.41713 0.19934 0.69671 0.0
H2416 H 0.41749 0.1826 0.73716 0.0
H2417 H 0.40846 0.3085 0.70857 0.0
H2418 H 0.374 0.32392 0.72373 0.0
H2419 H 0.38218 0.30796 0.68601 0.0
C2420 C 0.74863 0.47147 0.68047 0.0
C2421 C 0.76341 0.49024 0.68181 0.0
C2422 C 0.75762 0.44381 0.69316 0.0
C2423 C 0.78187 0.43487 0.70761 0.0
C2424 C 0.79674 0.45382 0.7092 0.0
C2425 C 0.78725 0.48127 0.69641 0.0
C2426 C 0.7412 0.42415 0.69106 0.0
C2427 C 0.82203 0.44567 0.72563 0.0
C2428 C 0.78745 0.37207 0.76747 0.0
C2429 C 0.80446 0.35072 0.74964 0.0
C2430 C 0.78111 0.39972 0.75469 0.0
C2431 C 0.79089 0.40607 0.7225 0.0
C2432 C 0.80842 0.38477 0.70432 0.0
C2433 C 0.81518 0.35731 0.71824 0.0
C2434 C 0.763 0.42187 0.7753 0.0
C2435 C 0.81932 0.39091 0.66992 0.0
H2436 H 0.73038 0.47823 0.66885 0.0
H2437 H 0.79846 0.49588 0.69807 0.0
H2438 H 0.75386 0.40549 0.67919 0.0
H2439 H 0.73381 0.41705 0.7157 0.0
H2440 H 0.72368 0.43393 0.6774 0.0
H2441 H 0.83489 0.45962 0.7169 0.0
H2442 H 0.81635 0.44745 0.7519 0.0
H2443 H 0.83397 0.42397 0.72201 0.0
H2444 H 0.77849 0.36727 0.79125 0.0
H2445 H 0.82807 0.34082 0.70417 0.0
H2446 H 0.74239 0.42754 0.76817 0.0
H2447 H 0.76987 0.44087 0.77196 0.0
H2448 H 0.76215 0.41465 0.80131 0.0
H2449 H 0.80251 0.3996 0.65491 0.0
H2450 H 0.83308 0.37212 0.65922 0.0
H2451 H 0.83027 0.40679 0.66888 0.0
C2452 C 0.31051 0.57014 0.60621 0.0
C2453 C 0.2942 0.56702 0.58397 0.0
C2454 C 0.30598 0.59549 0.61936 0.0
C2455 C 0.28458 0.6182 0.61002 0.0
C2456 C 0.26693 0.61465 0.5893 0.0
C2457 C 0.27192 0.58897 0.57652 0.0
C2458 C 0.32514 0.59839 0.64158 0.0
C2459 C 0.24382 0.63846 0.57901 0.0
C2460 C 0.26369 0.6818 0.65745 0.0
C2461 C 0.27715 0.69932 0.63826 0.0
C2462 C 0.26603 0.65524 0.64868 0.0
C2463 C 0.28194 0.64615 0.61985 0.0
C2464 C 0.29558 0.66369 0.60033 0.0
C2465 C 0.29304 0.69009 0.60982 0.0
C2466 C 0.25153 0.6369 0.67024 0.0
C2467 C 0.313 0.65449 0.56955 0.0
H2468 H 0.32766 0.55308 0.61224 0.0
H2469 H 0.25935 0.58664 0.55924 0.0
H2470 H 0.33759 0.61161 0.62891 0.0
H2471 H 0.31399 0.60871 0.6633 0.0
H2472 H 0.33871 0.57801 0.64944 0.0
H2473 H 0.23056 0.63168 0.56527 0.0
H2474 H 0.23169 0.64859 0.60038 0.0
H2475 H 0.2517 0.65432 0.56353 0.0
H2476 H 0.25113 0.68896 0.67928 0.0
H2477 H 0.30385 0.70335 0.59522 0.0
H2478 H 0.26604 0.61708 0.67778 0.0
H2479 H 0.23715 0.63168 0.65677 0.0
H2480 H 0.24041 0.64689 0.69223 0.0
H2481 H 0.32938 0.63555 0.57499 0.0
H2482 H 0.32205 0.67074 0.55699 0.0
H2483 H 0.301 0.64911 0.55285 0.0
loop_
_geom_bond_atom_site_label_1
_geom_bond_atom_site_label_2
_geom_bond_distance
_geom_bond_site_symmetry_2
_ccdc_geom_bond_type
Cu0 N1 1.999 . S
Cu0 O6 1.974 . S
Cu0 N11 1.985 . S
Cu0 O20 1.959 1_455 S
N1 Cu0 1.999 . S
N1 C3 1.263 . S
N1 C5 1.389 . S
N2 C3 1.358 . S
N2 C4 1.400 . S
C3 N1 1.263 . S
C3 N2 1.358 . S
C3 H9 0.930 . S
C4 N2 1.400 . S
C4 C5 1.351 . S
C4 H21 0.930 . S
C5 N1 1.389 . S
C5 C4 1.351 . S
C5 H10 0.930 . S
O6 Cu0 1.974 . S
O6 C16 1.282 1_545 S
C7 O8 1.261 . S
C7 O20 1.251 . S
O8 C7 1.261 . S
H9 C3 0.930 . S
H10 C5 0.930 . S
N11 Cu0 1.985 . S
N11 C13 1.335 1_455 S
N11 C14 1.390 1_545 S
N12 C13 1.345 1_565 S
N12 C15 1.336 . S
C13 N11 1.335 1_655 S
C13 N12 1.345 1_545 S
C13 H18 0.930 . S
C14 N11 1.390 1_565 S
C14 C15 1.346 1_455 S
C14 H19 0.930 . S
C15 N12 1.336 . S
C15 C14 1.346 1_655 S
C15 H22 0.922 . S
C16 O6 1.282 1_565 S
C16 O17 1.216 1_565 S
O17 C16 1.216 1_545 S
H18 C13 0.930 . S
H19 C14 0.930 . S
O20 Cu0 1.959 1_655 S
O20 C7 1.251 . S
H21 C4 0.930 . S
H22 C15 0.922 . S
Cu23 N24 1.999 . S
Cu23 O29 1.974 1_455 S
Cu23 N34 1.985 . S
Cu23 O43 1.959 . S
N24 Cu23 1.999 . S
N24 C26 1.263 1_455 S
N24 C28 1.389 1_545 S
N25 C26 1.358 1_565 S
N25 C27 1.400 . S
C26 N24 1.263 1_655 S
C26 N25 1.358 1_545 S
C26 H32 0.930 . S
C27 N25 1.400 . S
C27 C28 1.351 1_655 S
C27 H44 0.930 . S
C28 N24 1.389 1_565 S
C28 C27 1.351 1_455 S
C28 H33 0.930 . S
O29 Cu23 1.974 1_655 S
O29 C39 1.282 . S
C30 O31 1.261 . S
C30 O43 1.251 . S
O31 C30 1.261 . S
H32 C26 0.930 . S
H33 C28 0.930 . S
N34 Cu23 1.985 . S
N34 C36 1.335 . S
N34 C37 1.390 . S
N35 C36 1.345 . S
N35 C38 1.336 . S
C36 N34 1.335 . S
C36 N35 1.345 . S
C36 H41 0.930 . S
C37 N34 1.390 . S
C37 C38 1.346 . S
C37 H42 0.930 . S
C38 N35 1.336 . S
C38 C37 1.346 . S
C38 H45 0.929 . S
C39 O29 1.282 . S
C39 O40 1.216 . S
O40 C39 1.216 . S
H41 C36 0.930 . S
H42 C37 0.930 . S
O43 Cu23 1.959 . S
O43 C30 1.251 . S
H44 C27 0.930 . S
H45 C38 0.929 . S
Cu46 N47 1.999 . S
Cu46 O52 1.974 . S
Cu46 N57 1.985 . S
Cu46 O66 1.959 . S
N47 Cu46 1.999 . S
N47 C49 1.263 . S
N47 C51 1.389 . S
N48 C49 1.358 . S
N48 C50 1.400 . S
C49 N47 1.263 . S
C49 N48 1.358 . S
C49 H55 0.930 . S
C50 N48 1.400 . S
C50 C51 1.351 . S
C50 H67 0.930 1_554 S
C51 N47 1.389 . S
C51 C50 1.351 . S
C51 H56 0.930 . S
O52 Cu46 1.974 . S
O52 C62 1.282 . S
C53 O54 1.261 . S
C53 O66 1.251 . S
O54 C53 1.261 . S
H55 C49 0.930 . S
H56 C51 0.930 . S
N57 Cu46 1.985 . S
N57 C59 1.335 . S
N57 C60 1.390 . S
N58 C59 1.345 . S
N58 C61 1.336 . S
C59 N57 1.335 . S
C59 N58 1.345 . S
C59 H64 0.930 . S
C60 N57 1.390 . S
C60 C61 1.346 . S
C60 H65 0.930 . S
C61 N58 1.336 . S
C61 C60 1.346 . S
C61 H68 0.929 . S
C62 O52 1.282 . S
C62 O63 1.216 . S
O63 C62 1.216 . S
H64 C59 0.930 . S
H65 C60 0.930 . S
O66 Cu46 1.959 . S
O66 C53 1.251 . S
H67 C50 0.930 1_556 S
H68 C61 0.929 . S
Cu69 N70 1.999 . S
Cu69 O75 1.974 . S
Cu69 N80 1.985 . S
Cu69 O89 1.959 . S
N70 Cu69 1.999 . S
N70 C72 1.263 . S
N70 C74 1.389 . S
N71 C72 1.358 . S
N71 C73 1.400 1_554 S
C72 N70 1.263 . S
C72 N71 1.358 . S
C72 H78 0.930 . S
C73 N71 1.400 1_556 S
C73 C74 1.351 1_556 S
C73 H90 0.930 . S
C74 N70 1.389 . S
C74 C73 1.351 1_554 S
C74 H79 0.930 . S
O75 Cu69 1.974 . S
O75 C85 1.282 . S
C76 O77 1.261 . S
C76 O89 1.251 . S
O77 C76 1.261 . S
H78 C72 0.930 . S
H79 C74 0.930 . S
N80 Cu69 1.985 . S
N80 C82 1.335 1_455 S
N80 C83 1.390 . S
N81 C82 1.345 . S
N81 C84 1.336 1_655 S
C82 N80 1.335 1_655 S
C82 N81 1.345 . S
C82 H87 0.930 . S
C83 N80 1.390 . S
C83 C84 1.346 . S
C83 H88 0.930 . S
C84 N81 1.336 1_455 S
C84 C83 1.346 . S
C84 H91 0.929 . S
C85 O75 1.282 . S
C85 O86 1.216 . S
O86 C85 1.216 . S
H87 C82 0.930 . S
H88 C83 0.930 . S
O89 Cu69 1.959 . S
O89 C76 1.251 . S
H90 C73 0.930 . S
H91 C84 0.929 . S
Cu92 N93 1.999 1_554 S
Cu92 O98 1.974 . S
Cu92 N103 1.985 1_545 S
Cu92 O112 1.959 1_544 S
N93 Cu92 1.999 1_556 S
N93 C95 1.263 . S
N93 C97 1.389 . S
N94 C95 1.358 . S
N94 C96 1.400 . S
C95 N93 1.263 . S
C95 N94 1.358 . S
C95 H101 0.930 . S
C96 N94 1.400 . S
C96 C97 1.351 . S
C96 H113 0.930 . S
C97 N93 1.389 . S
C97 C96 1.351 . S
C97 H102 0.930 . S
O98 Cu92 1.974 . S
O98 C108 1.282 . S
C99 O100 1.261 . S
C99 O112 1.251 . S
O100 C99 1.261 . S
H101 C95 0.930 . S
H102 C97 0.930 . S
N103 Cu92 1.985 1_565 S
N103 C105 1.335 . S
N103 C106 1.390 . S
N104 C105 1.345 . S
N104 C107 1.336 . S
C105 N103 1.335 . S
C105 N104 1.345 . S
C105 H110 0.930 . S
C106 N103 1.390 . S
C106 C107 1.346 . S
C106 H111 0.930 . S
C107 N104 1.336 . S
C107 C106 1.346 . S
C107 H114 0.929 . S
C108 O98 1.282 . S
C108 O109 1.216 . S
O109 C108 1.216 . S
H110 C105 0.930 . S
H111 C106 0.930 . S
O112 Cu92 1.959 1_566 S
O112 C99 1.251 . S
H113 C96 0.930 . S
H114 C107 0.929 . S
Cu115 N116 1.999 1_454 S
Cu115 O121 1.974 1_455 S
Cu115 N126 1.985 . S
Cu115 O135 1.959 1_554 S
N116 Cu115 1.999 1_656 S
N116 C118 1.263 . S
N116 C120 1.389 . S
N117 C118 1.358 . S
N117 C119 1.400 . S
C118 N116 1.263 . S
C118 N117 1.358 . S
C118 H124 0.930 . S
C119 N117 1.400 . S
C119 C120 1.351 . S
C119 H136 0.930 . S
C120 N116 1.389 . S
C120 C119 1.351 . S
C120 H125 0.930 1_655 S
O121 Cu115 1.974 1_655 S
O121 C131 1.282 . S
C122 O123 1.261 . S
C122 O135 1.251 . S
O123 C122 1.261 . S
H124 C118 0.930 . S
H125 C120 0.930 1_455 S
N126 Cu115 1.985 . S
N126 C128 1.335 . S
N126 C129 1.390 . S
N127 C128 1.345 . S
N127 C130 1.336 . S
C128 N126 1.335 . S
C128 N127 1.345 . S
C128 H133 0.930 . S
C129 N126 1.390 . S
C129 C130 1.346 . S
C129 H134 0.930 1_455 S
C130 N127 1.336 . S
C130 C129 1.346 . S
C130 H137 0.929 . S
C131 O121 1.282 . S
C131 O132 1.216 . S
O132 C131 1.216 . S
H133 C128 0.930 . S
H134 C129 0.930 1_655 S
O135 Cu115 1.959 1_556 S
O135 C122 1.251 . S
H136 C119 0.930 . S
H137 C130 0.929 . S
Cu138 N139 1.999 . S
Cu138 O144 1.974 . S
Cu138 N149 1.985 . S
Cu138 O158 1.959 . S
N139 Cu138 1.999 . S
N139 C141 1.263 . S
N139 C143 1.389 . S
N140 C141 1.358 . S
N140 C142 1.400 . S
C141 N139 1.263 . S
C141 N140 1.358 . S
C141 H147 0.930 . S
C142 N140 1.400 . S
C142 C143 1.351 . S
C142 H159 0.930 . S
C143 N139 1.389 . S
C143 C142 1.351 . S
C143 H148 0.930 . S
O144 Cu138 1.974 . S
O144 C154 1.282 . S
C145 O146 1.261 . S
C145 O158 1.251 . S
O146 C145 1.261 . S
H147 C141 0.930 . S
H148 C143 0.930 . S
N149 Cu138 1.985 . S
N149 C151 1.335 . S
N149 C152 1.390 . S
N150 C151 1.345 . S
N150 C153 1.336 . S
C151 N149 1.335 . S
C151 N150 1.345 . S
C151 H156 0.930 . S
C152 N149 1.390 . S
C152 C153 1.346 . S
C152 H157 0.930 . S
C153 N150 1.336 . S
C153 C152 1.346 . S
C153 H160 0.929 . S
C154 O144 1.282 . S
C154 O155 1.216 . S
O155 C154 1.216 . S
H156 C151 0.930 . S
H157 C152 0.930 . S
O158 Cu138 1.959 . S
O158 C145 1.251 . S
H159 C142 0.930 . S
H160 C153 0.929 . S
Cu161 N162 1.999 . S
Cu161 O167 1.974 . S
Cu161 N172 1.985 . S
Cu161 O181 1.959 . S
N162 Cu161 1.999 . S
N162 C164 1.263 . S
N162 C166 1.389 . S
N163 C164 1.358 . S
N163 C165 1.400 . S
C164 N162 1.263 . S
C164 N163 1.358 . S
C164 H170 0.930 . S
C165 N163 1.400 . S
C165 C166 1.351 . S
C165 H182 0.930 . S
C166 N162 1.389 . S
C166 C165 1.351 . S
C166 H171 0.930 . S
O167 Cu161 1.974 . S
O167 C177 1.282 . S
C168 O169 1.261 . S
C168 O181 1.251 . S
O169 C168 1.261 . S
H170 C164 0.930 . S
H171 C166 0.930 . S
N172 Cu161 1.985 . S
N172 C174 1.335 . S
N172 C175 1.390 . S
N173 C174 1.345 . S
N173 C176 1.336 . S
C174 N172 1.335 . S
C174 N173 1.345 . S
C174 H179 0.930 . S
C175 N172 1.390 . S
C175 C176 1.346 . S
C175 H180 0.930 . S
C176 N173 1.336 . S
C176 C175 1.346 . S
C176 H183 0.929 . S
C177 O167 1.282 . S
C177 O178 1.216 . S
O178 C177 1.216 . S
H179 C174 0.930 . S
H180 C175 0.930 . S
O181 Cu161 1.959 . S
O181 C168 1.251 . S
H182 C165 0.930 . S
H183 C176 0.929 . S
Cu184 N185 1.999 . S
Cu184 O190 1.974 . S
Cu184 N195 1.985 . S
Cu184 O204 1.959 . S
N185 Cu184 1.999 . S
N185 C187 1.263 . S
N185 C189 1.389 . S
N186 C187 1.358 . S
N186 C188 1.400 . S
C187 N185 1.263 . S
C187 N186 1.358 . S
C187 H193 0.930 . S
C188 N186 1.400 . S
C188 C189 1.351 . S
C188 H205 0.930 . S
C189 N185 1.389 . S
C189 C188 1.351 . S
C189 H194 0.930 . S
O190 Cu184 1.974 . S
O190 C200 1.282 . S
C191 O192 1.261 . S
C191 O204 1.251 . S
O192 C191 1.261 . S
H193 C187 0.930 . S
H194 C189 0.930 . S
N195 Cu184 1.985 . S
N195 C197 1.335 . S
N195 C198 1.390 . S
N196 C197 1.345 . S
N196 C199 1.336 . S
C197 N195 1.335 . S
C197 N196 1.345 . S
C197 H202 0.930 . S
C198 N195 1.390 . S
C198 C199 1.346 . S
C198 H203 0.930 . S
C199 N196 1.336 . S
C199 C198 1.346 . S
C199 H206 0.929 . S
C200 O190 1.282 . S
C200 O201 1.216 . S
O201 C200 1.216 . S
H202 C197 0.930 . S
H203 C198 0.930 . S
O204 Cu184 1.959 . S
O204 C191 1.251 . S
H205 C188 0.930 . S
H206 C199 0.929 . S
Cu207 N208 1.999 . S
Cu207 O213 1.974 . S
Cu207 N218 1.985 . S
Cu207 O227 1.959 . S
N208 Cu207 1.999 . S
N208 C210 1.263 . S
N208 C212 1.389 . S
N209 C210 1.358 . S
N209 C211 1.400 . S
C210 N208 1.263 . S
C210 N209 1.358 . S
C210 H216 0.930 . S
C211 N209 1.400 . S
C211 C212 1.351 . S
C211 H228 0.930 . S
C212 N208 1.389 . S
C212 C211 1.351 . S
C212 H217 0.930 . S
O213 Cu207 1.974 . S
O213 C223 1.282 . S
C214 O215 1.261 . S
C214 O227 1.251 . S
O215 C214 1.261 . S
H216 C210 0.930 . S
H217 C212 0.930 . S
N218 Cu207 1.985 . S
N218 C220 1.335 . S
N218 C221 1.390 . S
N219 C220 1.345 . S
N219 C222 1.336 . S
C220 N218 1.335 . S
C220 N219 1.345 . S
C220 H225 0.930 . S
C221 N218 1.390 . S
C221 C222 1.346 . S
C221 H226 0.930 . S
C222 N219 1.336 . S
C222 C221 1.346 . S
C222 H229 0.929 . S
C223 O213 1.282 . S
C223 O224 1.216 . S
O224 C223 1.216 . S
H225 C220 0.930 . S
H226 C221 0.930 . S
O227 Cu207 1.959 . S
O227 C214 1.251 . S
H228 C211 0.930 . S
H229 C222 0.929 . S
Cu230 N231 1.999 . S
Cu230 O236 1.974 . S
Cu230 N241 1.985 . S
Cu230 O250 1.959 . S
N231 Cu230 1.999 . S
N231 C233 1.263 . S
N231 C235 1.389 . S
N232 C233 1.358 . S
N232 C234 1.400 . S
C233 N231 1.263 . S
C233 N232 1.358 . S
C233 H239 0.930 . S
C234 N232 1.400 . S
C234 C235 1.351 . S
C234 H251 0.930 . S
C235 N231 1.389 . S
C235 C234 1.351 . S
C235 H240 0.930 . S
O236 Cu230 1.974 . S
O236 C246 1.282 . S
C237 O238 1.261 . S
C237 O250 1.251 . S
O238 C237 1.261 . S
H239 C233 0.930 . S
H240 C235 0.930 . S
N241 Cu230 1.985 . S
N241 C243 1.335 . S
N241 C244 1.390 . S
N242 C243 1.345 . S
N242 C245 1.336 . S
C243 N241 1.335 . S
C243 N242 1.345 . S
C243 H248 0.930 . S
C244 N241 1.390 . S
C244 C245 1.346 . S
C244 H249 0.930 . S
C245 N242 1.336 . S
C245 C244 1.346 . S
C245 H252 0.929 . S
C246 O236 1.282 . S
C246 O247 1.216 . S
O247 C246 1.216 . S
H248 C243 0.930 . S
H249 C244 0.930 . S
O250 Cu230 1.959 . S
O250 C237 1.251 . S
H251 C234 0.930 . S
H252 C245 0.929 . S
Cu253 N254 1.999 . S
Cu253 O259 1.974 . S
Cu253 N264 1.985 . S
Cu253 O273 1.959 . S
N254 Cu253 1.999 . S
N254 C256 1.263 . S
N254 C258 1.389 . S
N255 C256 1.358 . S
N255 C257 1.400 . S
C256 N254 1.263 . S
C256 N255 1.358 . S
C256 H262 0.930 . S
C257 N255 1.400 . S
C257 C258 1.351 . S
C257 H274 0.930 . S
C258 N254 1.389 . S
C258 C257 1.351 . S
C258 H263 0.930 . S
O259 Cu253 1.974 . S
O259 C269 1.282 . S
C260 O261 1.261 . S
C260 O273 1.251 . S
O261 C260 1.261 . S
H262 C256 0.930 . S
H263 C258 0.930 . S
N264 Cu253 1.985 . S
N264 C266 1.335 . S
N264 C267 1.390 . S
N265 C266 1.345 . S
N265 C268 1.336 . S
C266 N264 1.335 . S
C266 N265 1.345 . S
C266 H271 0.930 . S
C267 N264 1.390 . S
C267 C268 1.346 . S
C267 H272 0.930 . S
C268 N265 1.336 . S
C268 C267 1.346 . S
C268 H275 0.929 . S
C269 O259 1.282 . S
C269 O270 1.216 . S
O270 C269 1.216 . S
H271 C266 0.930 . S
H272 C267 0.930 . S
O273 Cu253 1.959 . S
O273 C260 1.251 . S
H274 C257 0.930 . S
H275 C268 0.929 . S
Eu276 N307 2.657 . S
Eu276 N314 2.609 . S
Eu276 O320 2.558 . S
Eu276 O321 2.612 . S
Eu276 O323 2.339 . S
Eu276 O324 2.563 . S
Eu276 O325 2.419 . S
Eu276 O327 2.380 . S
Eu276 O328 2.432 . S
Eu276 C340 2.848 . S
C277 C280 1.429 . S
C277 C281 1.411 . S
C277 N284 1.377 . S
C278 C280 1.420 . S
C278 C282 1.423 . S
C278 C290 1.392 . S
C279 C281 1.420 . S
C279 C282 1.351 . S
C279 H302 0.931 . S
C280 C277 1.429 . S
C280 C278 1.420 . S
C280 N288 1.362 . S
C281 C277 1.411 . S
C281 C279 1.420 . S
C281 C286 1.395 . S
C282 C278 1.423 . S
C282 C279 1.351 . S
C282 H294 0.930 . S
C283 C285 1.400 . S
C283 C286 1.386 . S
C283 H295 0.930 . S
N284 C277 1.377 . S
N284 C285 1.321 . S
N284 Eu287 2.609 . S
C285 C283 1.400 . S
C285 N284 1.321 . S
C285 H292 0.930 . S
C286 C281 1.395 . S
C286 C283 1.386 . S
C286 H305 0.930 . S
Eu287 N284 2.609 . S
Eu287 N288 2.657 . S
Eu287 O321 2.380 . S
Eu287 O322 2.432 . S
Eu287 O326 2.558 . S
Eu287 O327 2.612 . S
Eu287 O329 2.339 . S
Eu287 O330 2.563 . S
Eu287 O331 2.419 . S
Eu287 C351 2.848 . S
N288 C280 1.362 . S
N288 Eu287 2.657 . S
N288 C289 1.334 . S
C289 N288 1.334 . S
C289 C291 1.413 . S
C289 H296 0.929 . S
C290 C278 1.392 . S
C290 C291 1.367 . S
C290 H298 0.930 . S
C291 C289 1.413 . S
C291 C290 1.367 . S
C291 H293 0.930 . S
H292 C285 0.930 . S
H293 C291 0.930 . S
H294 C282 0.930 . S
H295 C283 0.930 . S
H296 C289 0.929 . S
H297 C311 0.930 . S
H298 C290 0.930 . S
H299 C317 0.930 . S
H300 C308 0.929 . S
H301 C315 0.930 . S
H302 C279 0.931 . S
H303 C309 0.930 . S
H304 C342 0.930 . S
H305 C286 0.930 . S
H306 C341 0.931 . S
N307 Eu276 2.657 . S
N307 C308 1.334 . S
N307 C312 1.362 . S
C308 H300 0.929 . S
C308 N307 1.334 . S
C308 C311 1.413 . S
C309 H303 0.930 . S
C309 C310 1.392 . S
C309 C311 1.367 . S
C310 C309 1.392 . S
C310 C312 1.420 . S
C310 C342 1.423 . S
C311 H297 0.930 . S
C311 C308 1.413 . S
C311 C309 1.367 . S
C312 N307 1.362 . S
C312 C310 1.420 . S
C312 C316 1.429 . S
H313 C318 0.930 . S
N314 Eu276 2.609 . S
N314 C316 1.377 . S
N314 C317 1.321 . S
C315 H301 0.930 . S
C315 C317 1.400 . S
C315 C318 1.386 . S
C316 C312 1.429 . S
C316 N314 1.377 . S
C316 C319 1.411 . S
C317 H299 0.930 . S
C317 N314 1.321 . S
C317 C315 1.400 . S
C318 H313 0.930 . S
C318 C315 1.386 . S
C318 C319 1.395 . S
C319 C316 1.411 . S
C319 C318 1.395 . S
C319 C341 1.420 . S
O320 Eu276 2.558 . S
O320 C340 1.257 . S
O321 Eu276 2.612 . S
O321 Eu287 2.380 . S
O321 C332 1.276 . S
O322 Eu287 2.432 . S
O322 C339 1.264 . S
O323 Eu276 2.339 . S
O323 C339 1.254 . S
O324 Eu276 2.563 . S
O324 C332 1.235 . S
O325 Eu276 2.419 . S
O325 C340 1.249 . S
O326 Eu287 2.558 . S
O326 C351 1.257 . S
O327 Eu276 2.380 . S
O327 Eu287 2.612 . S
O327 C343 1.276 . S
O328 Eu276 2.432 . S
O328 C350 1.264 . S
O329 Eu287 2.339 . S
O329 C350 1.254 . S
O330 Eu287 2.563 . S
O330 C343 1.235 . S
O331 Eu287 2.419 . S
O331 C351 1.249 . S
C332 O321 1.276 . S
C332 O324 1.235 . S
C333 C335 1.393 . S
C333 C337 1.395 . S
C333 C340 1.492 . S
C334 C335 1.392 . S
C334 C336 1.386 . S
C335 C333 1.393 . S
C335 C334 1.392 . S
C335 H352 0.930 . S
C336 C334 1.386 . S
C336 C338 1.395 . S
C336 H353 0.930 . S
C337 C333 1.395 . S
C337 C338 1.379 . S
C337 H354 0.930 . S
C338 C336 1.395 . S
C338 C337 1.379 . S
C338 H355 0.930 . S
C339 O322 1.264 . S
C339 O323 1.254 . S
C340 Eu276 2.848 . S
C340 O320 1.257 . S
C340 O325 1.249 . S
C340 C333 1.492 . S
C341 H306 0.931 . S
C341 C319 1.420 . S
C341 C342 1.351 . S
C342 H304 0.930 . S
C342 C310 1.423 . S
C342 C341 1.351 . S
C343 O327 1.276 . S
C343 O330 1.235 . S
C344 C345 1.393 . S
C344 C348 1.395 . S
C344 C351 1.492 . S
C345 C344 1.393 . S
C345 C346 1.392 . S
C345 H356 0.930 . S
C346 C345 1.392 . S
C346 C347 1.386 . S
C347 C346 1.386 . S
C347 C349 1.395 . S
C347 H357 0.930 . S
C348 C344 1.395 . S
C348 C349 1.379 . S
C348 H358 0.930 . S
C349 C347 1.395 . S
C349 C348 1.379 . S
C349 H359 0.930 . S
C350 O328 1.264 . S
C350 O329 1.254 . S
C351 Eu287 2.848 . S
C351 O326 1.257 . S
C351 O331 1.249 . S
C351 C344 1.492 . S
H352 C335 0.930 . S
H353 C336 0.930 . S
H354 C337 0.930 . S
H355 C338 0.930 . S
H356 C345 0.930 . S
H357 C347 0.930 . S
H358 C348 0.930 . S
H359 C349 0.930 . S
Eu360 N391 2.657 . S
Eu360 N398 2.609 . S
Eu360 O404 2.558 . S
Eu360 O405 2.612 . S
Eu360 O407 2.339 . S
Eu360 O408 2.563 . S
Eu360 O409 2.419 . S
Eu360 O411 2.380 . S
Eu360 O412 2.432 . S
Eu360 C424 2.848 . S
C361 C364 1.429 . S
C361 C365 1.411 . S
C361 N368 1.377 . S
C362 C364 1.420 . S
C362 C366 1.423 . S
C362 C374 1.392 . S
C363 C365 1.420 . S
C363 C366 1.351 . S
C363 H386 0.931 . S
C364 C361 1.429 . S
C364 C362 1.420 . S
C364 N372 1.362 . S
C365 C361 1.411 . S
C365 C363 1.420 . S
C365 C370 1.395 . S
C366 C362 1.423 . S
C366 C363 1.351 . S
C366 H378 0.930 . S
C367 C369 1.400 . S
C367 C370 1.386 . S
C367 H379 0.930 . S
N368 C361 1.377 . S
N368 C369 1.321 . S
N368 Eu371 2.609 . S
C369 C367 1.400 . S
C369 N368 1.321 . S
C369 H376 0.930 . S
C370 C365 1.395 . S
C370 C367 1.386 . S
C370 H389 0.930 . S
Eu371 N368 2.609 . S
Eu371 N372 2.657 . S
Eu371 O405 2.380 . S
Eu371 O406 2.432 . S
Eu371 O410 2.558 . S
Eu371 O411 2.612 . S
Eu371 O413 2.339 . S
Eu371 O414 2.563 . S
Eu371 O415 2.419 . S
Eu371 C435 2.848 . S
N372 C364 1.362 . S
N372 Eu371 2.657 . S
N372 C373 1.334 . S
C373 N372 1.334 . S
C373 C375 1.413 . S
C373 H380 0.929 . S
C374 C362 1.392 . S
C374 C375 1.367 . S
C374 H382 0.930 . S
C375 C373 1.413 . S
C375 C374 1.367 . S
C375 H377 0.930 . S
H376 C369 0.930 . S
H377 C375 0.930 . S
H378 C366 0.930 . S
H379 C367 0.930 . S
H380 C373 0.929 . S
H381 C395 0.930 . S
H382 C374 0.930 . S
H383 C401 0.930 . S
H384 C392 0.929 . S
H385 C399 0.930 . S
H386 C363 0.931 . S
H387 C393 0.930 . S
H388 C426 0.930 . S
H389 C370 0.930 . S
H390 C425 0.931 . S
N391 Eu360 2.657 . S
N391 C392 1.334 . S
N391 C396 1.362 . S
C392 H384 0.929 . S
C392 N391 1.334 . S
C392 C395 1.413 . S
C393 H387 0.930 . S
C393 C394 1.392 . S
C393 C395 1.367 . S
C394 C393 1.392 . S
C394 C396 1.420 . S
C394 C426 1.423 . S
C395 H381 0.930 . S
C395 C392 1.413 . S
C395 C393 1.367 . S
C396 N391 1.362 . S
C396 C394 1.420 . S
C396 C400 1.429 . S
H397 C402 0.930 . S
N398 Eu360 2.609 . S
N398 C400 1.377 . S
N398 C401 1.321 . S
C399 H385 0.930 . S
C399 C401 1.400 . S
C399 C402 1.386 . S
C400 C396 1.429 . S
C400 N398 1.377 . S
C400 C403 1.411 . S
C401 H383 0.930 . S
C401 N398 1.321 . S
C401 C399 1.400 . S
C402 H397 0.930 . S
C402 C399 1.386 . S
C402 C403 1.395 . S
C403 C400 1.411 . S
C403 C402 1.395 . S
C403 C425 1.420 . S
O404 Eu360 2.558 . S
O404 C424 1.257 . S
O405 Eu360 2.612 . S
O405 Eu371 2.380 . S
O405 C416 1.276 . S
O406 Eu371 2.432 . S
O406 C423 1.264 . S
O407 Eu360 2.339 . S
O407 C423 1.254 . S
O408 Eu360 2.563 . S
O408 C416 1.235 . S
O409 Eu360 2.419 . S
O409 C424 1.249 . S
O410 Eu371 2.558 . S
O410 C435 1.257 . S
O411 Eu360 2.380 . S
O411 Eu371 2.612 . S
O411 C427 1.276 . S
O412 Eu360 2.432 . S
O412 C434 1.264 . S
O413 Eu371 2.339 . S
O413 C434 1.254 . S
O414 Eu371 2.563 . S
O414 C427 1.235 . S
O415 Eu371 2.419 . S
O415 C435 1.249 . S
C416 O405 1.276 . S
C416 O408 1.235 . S
C417 C419 1.393 . S
C417 C421 1.395 . S
C417 C424 1.492 . S
C418 C419 1.392 . S
C418 C420 1.386 . S
C419 C417 1.393 . S
C419 C418 1.392 . S
C419 H436 0.930 . S
C420 C418 1.386 . S
C420 C422 1.395 . S
C420 H437 0.930 . S
C421 C417 1.395 . S
C421 C422 1.379 . S
C421 H438 0.930 . S
C422 C420 1.395 . S
C422 C421 1.379 . S
C422 H439 0.930 . S
C423 O406 1.264 . S
C423 O407 1.254 . S
C424 Eu360 2.848 . S
C424 O404 1.257 . S
C424 O409 1.249 . S
C424 C417 1.492 . S
C425 H390 0.931 . S
C425 C403 1.420 . S
C425 C426 1.351 . S
C426 H388 0.930 . S
C426 C394 1.423 . S
C426 C425 1.351 . S
C427 O411 1.276 . S
C427 O414 1.235 . S
C428 C429 1.393 . S
C428 C432 1.395 . S
C428 C435 1.492 . S
C429 C428 1.393 . S
C429 C430 1.392 . S
C429 H440 0.930 . S
C430 C429 1.392 . S
C430 C431 1.386 . S
C431 C430 1.386 . S
C431 C433 1.395 . S
C431 H441 0.930 . S
C432 C428 1.395 . S
C432 C433 1.379 . S
C432 H442 0.930 . S
C433 C431 1.395 . S
C433 C432 1.379 . S
C433 H443 0.930 . S
C434 O412 1.264 . S
C434 O413 1.254 . S
C435 Eu371 2.848 . S
C435 O410 1.257 . S
C435 O415 1.249 . S
C435 C428 1.492 . S
H436 C419 0.930 . S
H437 C420 0.930 . S
H438 C421 0.930 . S
H439 C422 0.930 . S
H440 C429 0.930 . S
H441 C431 0.930 . S
H442 C432 0.930 . S
H443 C433 0.930 . S
Eu444 N475 2.657 . S
Eu444 N482 2.609 . S
Eu444 O488 2.558 . S
Eu444 O489 2.612 . S
Eu444 O491 2.339 . S
Eu444 O492 2.563 . S
Eu444 O493 2.419 . S
Eu444 O495 2.380 . S
Eu444 O496 2.432 . S
Eu444 C508 2.848 . S
C445 C448 1.429 . S
C445 C449 1.411 . S
C445 N452 1.377 . S
C446 C448 1.420 . S
C446 C450 1.423 . S
C446 C458 1.392 . S
C447 C449 1.420 . S
C447 C450 1.351 . S
C447 H470 0.931 . S
C448 C445 1.429 . S
C448 C446 1.420 . S
C448 N456 1.362 . S
C449 C445 1.411 . S
C449 C447 1.420 . S
C449 C454 1.395 . S
C450 C446 1.423 . S
C450 C447 1.351 . S
C450 H462 0.930 . S
C451 C453 1.400 . S
C451 C454 1.386 . S
C451 H463 0.930 . S
N452 C445 1.377 . S
N452 C453 1.321 . S
N452 Eu455 2.609 . S
C453 C451 1.400 . S
C453 N452 1.321 . S
C453 H460 0.930 . S
C454 C449 1.395 . S
C454 C451 1.386 . S
C454 H473 0.930 . S
Eu455 N452 2.609 . S
Eu455 N456 2.657 . S
Eu455 O489 2.380 . S
Eu455 O490 2.432 . S
Eu455 O494 2.558 . S
Eu455 O495 2.612 . S
Eu455 O497 2.339 . S
Eu455 O498 2.563 . S
Eu455 O499 2.419 . S
Eu455 C519 2.848 . S
N456 C448 1.362 . S
N456 Eu455 2.657 . S
N456 C457 1.334 . S
C457 N456 1.334 . S
C457 C459 1.413 . S
C457 H464 0.929 . S
C458 C446 1.392 . S
C458 C459 1.367 . S
C458 H466 0.930 . S
C459 C457 1.413 . S
C459 C458 1.367 . S
C459 H461 0.930 . S
H460 C453 0.930 . S
H461 C459 0.930 . S
H462 C450 0.930 . S
H463 C451 0.930 . S
H464 C457 0.929 . S
H465 C479 0.930 . S
H466 C458 0.930 . S
H467 C485 0.930 . S
H468 C476 0.929 . S
H469 C483 0.930 . S
H470 C447 0.931 . S
H471 C477 0.930 . S
H472 C510 0.930 . S
H473 C454 0.930 . S
H474 C509 0.931 . S
N475 Eu444 2.657 . S
N475 C476 1.334 . S
N475 C480 1.362 . S
C476 H468 0.929 . S
C476 N475 1.334 . S
C476 C479 1.413 . S
C477 H471 0.930 . S
C477 C478 1.392 . S
C477 C479 1.367 . S
C478 C477 1.392 . S
C478 C480 1.420 . S
C478 C510 1.423 . S
C479 H465 0.930 . S
C479 C476 1.413 . S
C479 C477 1.367 . S
C480 N475 1.362 . S
C480 C478 1.420 . S
C480 C484 1.429 . S
H481 C486 0.930 . S
N482 Eu444 2.609 . S
N482 C484 1.377 . S
N482 C485 1.321 . S
C483 H469 0.930 . S
C483 C485 1.400 . S
C483 C486 1.386 . S
C484 C480 1.429 . S
C484 N482 1.377 . S
C484 C487 1.411 . S
C485 H467 0.930 . S
C485 N482 1.321 . S
C485 C483 1.400 . S
C486 H481 0.930 . S
C486 C483 1.386 . S
C486 C487 1.395 . S
C487 C484 1.411 . S
C487 C486 1.395 . S
C487 C509 1.420 . S
O488 Eu444 2.558 . S
O488 C508 1.257 . S
O489 Eu444 2.612 . S
O489 Eu455 2.380 . S
O489 C500 1.276 . S
O490 Eu455 2.432 . S
O490 C507 1.264 . S
O491 Eu444 2.339 . S
O491 C507 1.254 . S
O492 Eu444 2.563 . S
O492 C500 1.235 . S
O493 Eu444 2.419 . S
O493 C508 1.249 . S
O494 Eu455 2.558 . S
O494 C519 1.257 . S
O495 Eu444 2.380 . S
O495 Eu455 2.612 . S
O495 C511 1.276 . S
O496 Eu444 2.432 . S
O496 C518 1.264 . S
O497 Eu455 2.339 . S
O497 C518 1.254 . S
O498 Eu455 2.563 . S
O498 C511 1.235 . S
O499 Eu455 2.419 . S
O499 C519 1.249 . S
C500 O489 1.276 . S
C500 O492 1.235 . S
C501 C503 1.393 . S
C501 C505 1.395 . S
C501 C508 1.492 . S
C502 C503 1.392 . S
C502 C504 1.386 . S
C503 C501 1.393 . S
C503 C502 1.392 . S
C503 H520 0.930 . S
C504 C502 1.386 . S
C504 C506 1.395 . S
C504 H521 0.930 . S
C505 C501 1.395 . S
C505 C506 1.379 . S
C505 H522 0.930 . S
C506 C504 1.395 . S
C506 C505 1.379 . S
C506 H523 0.930 . S
C507 O490 1.264 . S
C507 O491 1.254 . S
C508 Eu444 2.848 . S
C508 O488 1.257 . S
C508 O493 1.249 . S
C508 C501 1.492 . S
C509 H474 0.931 . S
C509 C487 1.420 . S
C509 C510 1.351 . S
C510 H472 0.930 . S
C510 C478 1.423 . S
C510 C509 1.351 . S
C511 O495 1.276 . S
C511 O498 1.235 . S
C512 C513 1.393 . S
C512 C516 1.395 . S
C512 C519 1.492 . S
C513 C512 1.393 . S
C513 C514 1.392 . S
C513 H524 0.930 . S
C514 C513 1.392 . S
C514 C515 1.386 . S
C515 C514 1.386 . S
C515 C517 1.395 . S
C515 H525 0.930 . S
C516 C512 1.395 . S
C516 C517 1.379 . S
C516 H526 0.930 . S
C517 C515 1.395 . S
C517 C516 1.379 . S
C517 H527 0.930 . S
C518 O496 1.264 . S
C518 O497 1.254 . S
C519 Eu455 2.848 . S
C519 O494 1.257 . S
C519 O499 1.249 . S
C519 C512 1.492 . S
H520 C503 0.930 . S
H521 C504 0.930 . S
H522 C505 0.930 . S
H523 C506 0.930 . S
H524 C513 0.930 . S
H525 C515 0.930 . S
H526 C516 0.930 . S
H527 C517 0.930 . S
Eu528 N559 2.657 . S
Eu528 N566 2.609 . S
Eu528 O572 2.558 . S
Eu528 O573 2.612 . S
Eu528 O575 2.339 . S
Eu528 O576 2.563 . S
Eu528 O577 2.419 . S
Eu528 O579 2.380 . S
Eu528 O580 2.432 . S
Eu528 C592 2.848 . S
C529 C532 1.429 . S
C529 C533 1.411 . S
C529 N536 1.377 . S
C530 C532 1.420 . S
C530 C534 1.423 . S
C530 C542 1.392 . S
C531 C533 1.420 . S
C531 C534 1.351 . S
C531 H554 0.931 . S
C532 C529 1.429 . S
C532 C530 1.420 . S
C532 N540 1.362 . S
C533 C529 1.411 . S
C533 C531 1.420 . S
C533 C538 1.395 . S
C534 C530 1.423 . S
C534 C531 1.351 . S
C534 H546 0.930 . S
C535 C537 1.400 . S
C535 C538 1.386 . S
C535 H547 0.930 . S
N536 C529 1.377 . S
N536 C537 1.321 . S
N536 Eu539 2.609 . S
C537 C535 1.400 . S
C537 N536 1.321 . S
C537 H544 0.930 . S
C538 C533 1.395 . S
C538 C535 1.386 . S
C538 H557 0.930 . S
Eu539 N536 2.609 . S
Eu539 N540 2.657 . S
Eu539 O573 2.380 . S
Eu539 O574 2.432 . S
Eu539 O578 2.558 . S
Eu539 O579 2.612 . S
Eu539 O581 2.339 . S
Eu539 O582 2.563 . S
Eu539 O583 2.419 . S
Eu539 C603 2.848 . S
N540 C532 1.362 . S
N540 Eu539 2.657 . S
N540 C541 1.334 . S
C541 N540 1.334 . S
C541 C543 1.413 . S
C541 H548 0.929 . S
C542 C530 1.392 . S
C542 C543 1.367 . S
C542 H550 0.930 . S
C543 C541 1.413 . S
C543 C542 1.367 . S
C543 H545 0.930 . S
H544 C537 0.930 . S
H545 C543 0.930 . S
H546 C534 0.930 . S
H547 C535 0.930 . S
H548 C541 0.929 . S
H549 C563 0.930 . S
H550 C542 0.930 . S
H551 C569 0.930 . S
H552 C560 0.929 . S
H553 C567 0.930 . S
H554 C531 0.931 . S
H555 C561 0.930 . S
H556 C594 0.930 . S
H557 C538 0.930 . S
H558 C593 0.931 . S
N559 Eu528 2.657 . S
N559 C560 1.334 . S
N559 C564 1.362 . S
C560 H552 0.929 . S
C560 N559 1.334 . S
C560 C563 1.413 . S
C561 H555 0.930 . S
C561 C562 1.392 . S
C561 C563 1.367 . S
C562 C561 1.392 . S
C562 C564 1.420 . S
C562 C594 1.423 . S
C563 H549 0.930 . S
C563 C560 1.413 . S
C563 C561 1.367 . S
C564 N559 1.362 . S
C564 C562 1.420 . S
C564 C568 1.429 . S
H565 C570 0.930 . S
N566 Eu528 2.609 . S
N566 C568 1.377 . S
N566 C569 1.321 . S
C567 H553 0.930 . S
C567 C569 1.400 . S
C567 C570 1.386 . S
C568 C564 1.429 . S
C568 N566 1.377 . S
C568 C571 1.411 . S
C569 H551 0.930 . S
C569 N566 1.321 . S
C569 C567 1.400 . S
C570 H565 0.930 . S
C570 C567 1.386 . S
C570 C571 1.395 . S
C571 C568 1.411 . S
C571 C570 1.395 . S
C571 C593 1.420 . S
O572 Eu528 2.558 . S
O572 C592 1.257 . S
O573 Eu528 2.612 . S
O573 Eu539 2.380 . S
O573 C584 1.276 . S
O574 Eu539 2.432 . S
O574 C591 1.264 . S
O575 Eu528 2.339 . S
O575 C591 1.254 . S
O576 Eu528 2.563 . S
O576 C584 1.235 . S
O577 Eu528 2.419 . S
O577 C592 1.249 . S
O578 Eu539 2.558 . S
O578 C603 1.257 . S
O579 Eu528 2.380 . S
O579 Eu539 2.612 . S
O579 C595 1.276 . S
O580 Eu528 2.432 . S
O580 C602 1.264 . S
O581 Eu539 2.339 . S
O581 C602 1.254 . S
O582 Eu539 2.563 . S
O582 C595 1.235 . S
O583 Eu539 2.419 . S
O583 C603 1.249 . S
C584 O573 1.276 . S
C584 O576 1.235 . S
C585 C587 1.393 . S
C585 C589 1.395 . S
C585 C592 1.492 . S
C586 C587 1.392 . S
C586 C588 1.386 . S
C587 C585 1.393 . S
C587 C586 1.392 . S
C587 H604 0.930 . S
C588 C586 1.386 . S
C588 C590 1.395 . S
C588 H605 0.930 . S
C589 C585 1.395 . S
C589 C590 1.379 . S
C589 H606 0.930 . S
C590 C588 1.395 . S
C590 C589 1.379 . S
C590 H607 0.930 . S
C591 O574 1.264 . S
C591 O575 1.254 . S
C592 Eu528 2.848 . S
C592 O572 1.257 . S
C592 O577 1.249 . S
C592 C585 1.492 . S
C593 H558 0.931 . S
C593 C571 1.420 . S
C593 C594 1.351 . S
C594 H556 0.930 . S
C594 C562 1.423 . S
C594 C593 1.351 . S
C595 O579 1.276 . S
C595 O582 1.235 . S
C596 C597 1.393 . S
C596 C600 1.395 . S
C596 C603 1.492 . S
C597 C596 1.393 . S
C597 C598 1.392 . S
C597 H608 0.930 . S
C598 C597 1.392 . S
C598 C599 1.386 . S
C599 C598 1.386 . S
C599 C601 1.395 . S
C599 H609 0.930 . S
C600 C596 1.395 . S
C600 C601 1.379 . S
C600 H610 0.930 . S
C601 C599 1.395 . S
C601 C600 1.379 . S
C601 H611 0.930 . S
C602 O580 1.264 . S
C602 O581 1.254 . S
C603 Eu539 2.848 . S
C603 O578 1.257 . S
C603 O583 1.249 . S
C603 C596 1.492 . S
H604 C587 0.930 . S
H605 C588 0.930 . S
H606 C589 0.930 . S
H607 C590 0.930 . S
H608 C597 0.930 . S
H609 C599 0.930 . S
H610 C600 0.930 . S
H611 C601 0.930 . S
Eu612 N643 2.657 . S
Eu612 N650 2.609 . S
Eu612 O656 2.558 . S
Eu612 O657 2.612 . S
Eu612 O659 2.339 . S
Eu612 O660 2.563 . S
Eu612 O661 2.419 . S
Eu612 O663 2.380 . S
Eu612 O664 2.432 . S
Eu612 C676 2.848 . S
C613 C616 1.429 . S
C613 C617 1.411 . S
C613 N620 1.377 . S
C614 C616 1.420 . S
C614 C618 1.423 . S
C614 C626 1.392 . S
C615 C617 1.420 . S
C615 C618 1.351 . S
C615 H638 0.931 . S
C616 C613 1.429 . S
C616 C614 1.420 . S
C616 N624 1.362 . S
C617 C613 1.411 . S
C617 C615 1.420 . S
C617 C622 1.395 . S
C618 C614 1.423 . S
C618 C615 1.351 . S
C618 H630 0.930 . S
C619 C621 1.400 . S
C619 C622 1.386 . S
C619 H631 0.930 . S
N620 C613 1.377 . S
N620 C621 1.321 . S
N620 Eu623 2.609 . S
C621 C619 1.400 . S
C621 N620 1.321 . S
C621 H628 0.930 . S
C622 C617 1.395 . S
C622 C619 1.386 . S
C622 H641 0.930 . S
Eu623 N620 2.609 . S
Eu623 N624 2.657 . S
Eu623 O657 2.380 . S
Eu623 O658 2.432 . S
Eu623 O662 2.558 . S
Eu623 O663 2.612 . S
Eu623 O665 2.339 . S
Eu623 O666 2.563 . S
Eu623 O667 2.419 . S
Eu623 C687 2.848 . S
N624 C616 1.362 . S
N624 Eu623 2.657 . S
N624 C625 1.334 . S
C625 N624 1.334 . S
C625 C627 1.413 . S
C625 H632 0.929 . S
C626 C614 1.392 . S
C626 C627 1.367 . S
C626 H634 0.930 . S
C627 C625 1.413 . S
C627 C626 1.367 . S
C627 H629 0.930 . S
H628 C621 0.930 . S
H629 C627 0.930 . S
H630 C618 0.930 . S
H631 C619 0.930 . S
H632 C625 0.929 . S
H633 C647 0.930 . S
H634 C626 0.930 . S
H635 C653 0.930 . S
H636 C644 0.929 . S
H637 C651 0.930 . S
H638 C615 0.931 . S
H639 C645 0.930 . S
H640 C678 0.930 . S
H641 C622 0.930 . S
H642 C677 0.931 . S
N643 Eu612 2.657 . S
N643 C644 1.334 . S
N643 C648 1.362 . S
C644 H636 0.929 . S
C644 N643 1.334 . S
C644 C647 1.413 . S
C645 H639 0.930 . S
C645 C646 1.392 . S
C645 C647 1.367 . S
C646 C645 1.392 . S
C646 C648 1.420 . S
C646 C678 1.423 . S
C647 H633 0.930 . S
C647 C644 1.413 . S
C647 C645 1.367 . S
C648 N643 1.362 . S
C648 C646 1.420 . S
C648 C652 1.429 . S
H649 C654 0.930 . S
N650 Eu612 2.609 . S
N650 C652 1.377 . S
N650 C653 1.321 . S
C651 H637 0.930 . S
C651 C653 1.400 . S
C651 C654 1.386 . S
C652 C648 1.429 . S
C652 N650 1.377 . S
C652 C655 1.411 . S
C653 H635 0.930 . S
C653 N650 1.321 . S
C653 C651 1.400 . S
C654 H649 0.930 . S
C654 C651 1.386 . S
C654 C655 1.395 . S
C655 C652 1.411 . S
C655 C654 1.395 . S
C655 C677 1.420 . S
O656 Eu612 2.558 . S
O656 C676 1.257 . S
O657 Eu612 2.612 . S
O657 Eu623 2.380 . S
O657 C668 1.276 . S
O658 Eu623 2.432 . S
O658 C675 1.264 . S
O659 Eu612 2.339 . S
O659 C675 1.254 . S
O660 Eu612 2.563 . S
O660 C668 1.235 . S
O661 Eu612 2.419 . S
O661 C676 1.249 . S
O662 Eu623 2.558 . S
O662 C687 1.257 . S
O663 Eu612 2.380 . S
O663 Eu623 2.612 . S
O663 C679 1.276 . S
O664 Eu612 2.432 . S
O664 C686 1.264 . S
O665 Eu623 2.339 . S
O665 C686 1.254 . S
O666 Eu623 2.563 . S
O666 C679 1.235 . S
O667 Eu623 2.419 . S
O667 C687 1.249 . S
C668 O657 1.276 . S
C668 O660 1.235 . S
C669 C671 1.393 . S
C669 C673 1.395 . S
C669 C676 1.492 . S
C670 C671 1.392 . S
C670 C672 1.386 . S
C671 C669 1.393 . S
C671 C670 1.392 . S
C671 H688 0.930 . S
C672 C670 1.386 . S
C672 C674 1.395 . S
C672 H689 0.930 . S
C673 C669 1.395 . S
C673 C674 1.379 . S
C673 H690 0.930 . S
C674 C672 1.395 . S
C674 C673 1.379 . S
C674 H691 0.930 . S
C675 O658 1.264 . S
C675 O659 1.254 . S
C676 Eu612 2.848 . S
C676 O656 1.257 . S
C676 O661 1.249 . S
C676 C669 1.492 . S
C677 H642 0.931 . S
C677 C655 1.420 . S
C677 C678 1.351 . S
C678 H640 0.930 . S
C678 C646 1.423 . S
C678 C677 1.351 . S
C679 O663 1.276 . S
C679 O666 1.235 . S
C680 C681 1.393 . S
C680 C684 1.395 . S
C680 C687 1.492 . S
C681 C680 1.393 . S
C681 C682 1.392 . S
C681 H692 0.930 . S
C682 C681 1.392 . S
C682 C683 1.386 . S
C683 C682 1.386 . S
C683 C685 1.395 . S
C683 H693 0.930 . S
C684 C680 1.395 . S
C684 C685 1.379 . S
C684 H694 0.930 . S
C685 C683 1.395 . S
C685 C684 1.379 . S
C685 H695 0.930 . S
C686 O664 1.264 . S
C686 O665 1.254 . S
C687 Eu623 2.848 . S
C687 O662 1.257 . S
C687 O667 1.249 . S
C687 C680 1.492 . S
H688 C671 0.930 . S
H689 C672 0.930 . S
H690 C673 0.930 . S
H691 C674 0.930 . S
H692 C681 0.930 . S
H693 C683 0.930 . S
H694 C684 0.930 . S
H695 C685 0.930 . S
Eu696 N727 2.657 . S
Eu696 N734 2.609 . S
Eu696 O740 2.558 . S
Eu696 O741 2.612 . S
Eu696 O743 2.339 . S
Eu696 O744 2.563 . S
Eu696 O745 2.419 . S
Eu696 O747 2.380 . S
Eu696 O748 2.432 . S
Eu696 C760 2.848 . S
C697 C700 1.429 . S
C697 C701 1.411 . S
C697 N704 1.377 . S
C698 C700 1.420 . S
C698 C702 1.423 . S
C698 C710 1.392 . S
C699 C701 1.420 . S
C699 C702 1.351 . S
C699 H722 0.931 . S
C700 C697 1.429 . S
C700 C698 1.420 . S
C700 N708 1.362 . S
C701 C697 1.411 . S
C701 C699 1.420 . S
C701 C706 1.395 . S
C702 C698 1.423 . S
C702 C699 1.351 . S
C702 H714 0.930 . S
C703 C705 1.400 . S
C703 C706 1.386 . S
C703 H715 0.930 . S
N704 C697 1.377 . S
N704 C705 1.321 . S
N704 Eu707 2.609 . S
C705 C703 1.400 . S
C705 N704 1.321 . S
C705 H712 0.930 . S
C706 C701 1.395 . S
C706 C703 1.386 . S
C706 H725 0.930 . S
Eu707 N704 2.609 . S
Eu707 N708 2.657 . S
Eu707 O741 2.380 . S
Eu707 O742 2.432 . S
Eu707 O746 2.558 . S
Eu707 O747 2.612 . S
Eu707 O749 2.339 . S
Eu707 O750 2.563 . S
Eu707 O751 2.419 . S
Eu707 C771 2.848 . S
N708 C700 1.362 . S
N708 Eu707 2.657 . S
N708 C709 1.334 . S
C709 N708 1.334 . S
C709 C711 1.413 . S
C709 H716 0.929 . S
C710 C698 1.392 . S
C710 C711 1.367 . S
C710 H718 0.930 . S
C711 C709 1.413 . S
C711 C710 1.367 . S
C711 H713 0.930 . S
H712 C705 0.930 . S
H713 C711 0.930 . S
H714 C702 0.930 . S
H715 C703 0.930 . S
H716 C709 0.929 . S
H717 C731 0.930 . S
H718 C710 0.930 . S
H719 C737 0.930 . S
H720 C728 0.929 . S
H721 C735 0.930 . S
H722 C699 0.931 . S
H723 C729 0.930 . S
H724 C762 0.930 . S
H725 C706 0.930 . S
H726 C761 0.931 . S
N727 Eu696 2.657 . S
N727 C728 1.334 . S
N727 C732 1.362 . S
C728 H720 0.929 . S
C728 N727 1.334 . S
C728 C731 1.413 . S
C729 H723 0.930 . S
C729 C730 1.392 . S
C729 C731 1.367 . S
C730 C729 1.392 . S
C730 C732 1.420 . S
C730 C762 1.423 . S
C731 H717 0.930 . S
C731 C728 1.413 . S
C731 C729 1.367 . S
C732 N727 1.362 . S
C732 C730 1.420 . S
C732 C736 1.429 . S
H733 C738 0.930 . S
N734 Eu696 2.609 . S
N734 C736 1.377 . S
N734 C737 1.321 . S
C735 H721 0.930 . S
C735 C737 1.400 . S
C735 C738 1.386 . S
C736 C732 1.429 . S
C736 N734 1.377 . S
C736 C739 1.411 . S
C737 H719 0.930 . S
C737 N734 1.321 . S
C737 C735 1.400 . S
C738 H733 0.930 . S
C738 C735 1.386 . S
C738 C739 1.395 . S
C739 C736 1.411 . S
C739 C738 1.395 . S
C739 C761 1.420 . S
O740 Eu696 2.558 . S
O740 C760 1.257 . S
O741 Eu696 2.612 . S
O741 Eu707 2.380 . S
O741 C752 1.276 . S
O742 Eu707 2.432 . S
O742 C759 1.264 . S
O743 Eu696 2.339 . S
O743 C759 1.254 . S
O744 Eu696 2.563 . S
O744 C752 1.235 . S
O745 Eu696 2.419 . S
O745 C760 1.249 . S
O746 Eu707 2.558 . S
O746 C771 1.257 . S
O747 Eu696 2.380 . S
O747 Eu707 2.612 . S
O747 C763 1.276 . S
O748 Eu696 2.432 . S
O748 C770 1.264 . S
O749 Eu707 2.339 . S
O749 C770 1.254 . S
O750 Eu707 2.563 . S
O750 C763 1.235 . S
O751 Eu707 2.419 . S
O751 C771 1.249 . S
C752 O741 1.276 . S
C752 O744 1.235 . S
C753 C755 1.393 . S
C753 C757 1.395 . S
C753 C760 1.492 . S
C754 C755 1.392 . S
C754 C756 1.386 . S
C755 C753 1.393 . S
C755 C754 1.392 . S
C755 H772 0.930 . S
C756 C754 1.386 . S
C756 C758 1.395 . S
C756 H773 0.930 . S
C757 C753 1.395 . S
C757 C758 1.379 . S
C757 H774 0.930 . S
C758 C756 1.395 . S
C758 C757 1.379 . S
C758 H775 0.930 . S
C759 O742 1.264 . S
C759 O743 1.254 . S
C760 Eu696 2.848 . S
C760 O740 1.257 . S
C760 O745 1.249 . S
C760 C753 1.492 . S
C761 H726 0.931 . S
C761 C739 1.420 . S
C761 C762 1.351 . S
C762 H724 0.930 . S
C762 C730 1.423 . S
C762 C761 1.351 . S
C763 O747 1.276 . S
C763 O750 1.235 . S
C764 C765 1.393 . S
C764 C768 1.395 . S
C764 C771 1.492 . S
C765 C764 1.393 . S
C765 C766 1.392 . S
C765 H776 0.930 . S
C766 C765 1.392 . S
C766 C767 1.386 . S
C767 C766 1.386 . S
C767 C769 1.395 . S
C767 H777 0.930 . S
C768 C764 1.395 . S
C768 C769 1.379 . S
C768 H778 0.930 . S
C769 C767 1.395 . S
C769 C768 1.379 . S
C769 H779 0.930 . S
C770 O748 1.264 . S
C770 O749 1.254 . S
C771 Eu707 2.848 . S
C771 O746 1.257 . S
C771 O751 1.249 . S
C771 C764 1.492 . S
H772 C755 0.930 . S
H773 C756 0.930 . S
H774 C757 0.930 . S
H775 C758 0.930 . S
H776 C765 0.930 . S
H777 C767 0.930 . S
H778 C768 0.930 . S
H779 C769 0.930 . S
Eu780 N811 2.657 . S
Eu780 N818 2.609 . S
Eu780 O824 2.558 . S
Eu780 O825 2.612 . S
Eu780 O827 2.339 . S
Eu780 O828 2.563 . S
Eu780 O829 2.419 . S
Eu780 O831 2.380 . S
Eu780 O832 2.432 . S
Eu780 C844 2.848 . S
C781 C784 1.429 . S
C781 C785 1.411 . S
C781 N788 1.377 . S
C782 C784 1.420 . S
C782 C786 1.423 . S
C782 C794 1.392 . S
C783 C785 1.420 . S
C783 C786 1.351 . S
C783 H806 0.931 . S
C784 C781 1.429 . S
C784 C782 1.420 . S
C784 N792 1.362 . S
C785 C781 1.411 . S
C785 C783 1.420 . S
C785 C790 1.395 . S
C786 C782 1.423 . S
C786 C783 1.351 . S
C786 H798 0.930 . S
C787 C789 1.400 . S
C787 C790 1.386 . S
C787 H799 0.930 . S
N788 C781 1.377 . S
N788 C789 1.321 . S
N788 Eu791 2.609 . S
C789 C787 1.400 . S
C789 N788 1.321 . S
C789 H796 0.930 . S
C790 C785 1.395 . S
C790 C787 1.386 . S
C790 H809 0.930 . S
Eu791 N788 2.609 . S
Eu791 N792 2.657 . S
Eu791 O825 2.380 . S
Eu791 O826 2.432 . S
Eu791 O830 2.558 . S
Eu791 O831 2.612 . S
Eu791 O833 2.339 . S
Eu791 O834 2.563 . S
Eu791 O835 2.419 . S
Eu791 C855 2.848 . S
N792 C784 1.362 . S
N792 Eu791 2.657 . S
N792 C793 1.334 . S
C793 N792 1.334 . S
C793 C795 1.413 . S
C793 H800 0.929 . S
C794 C782 1.392 . S
C794 C795 1.367 . S
C794 H802 0.930 . S
C795 C793 1.413 . S
C795 C794 1.367 . S
C795 H797 0.930 . S
H796 C789 0.930 . S
H797 C795 0.930 . S
H798 C786 0.930 . S
H799 C787 0.930 . S
H800 C793 0.929 . S
H801 C815 0.930 . S
H802 C794 0.930 . S
H803 C821 0.930 . S
H804 C812 0.929 . S
H805 C819 0.930 . S
H806 C783 0.931 . S
H807 C813 0.930 . S
H808 C846 0.930 . S
H809 C790 0.930 . S
H810 C845 0.931 . S
N811 Eu780 2.657 . S
N811 C812 1.334 . S
N811 C816 1.362 . S
C812 H804 0.929 . S
C812 N811 1.334 . S
C812 C815 1.413 . S
C813 H807 0.930 . S
C813 C814 1.392 . S
C813 C815 1.367 . S
C814 C813 1.392 . S
C814 C816 1.420 . S
C814 C846 1.423 . S
C815 H801 0.930 . S
C815 C812 1.413 . S
C815 C813 1.367 . S
C816 N811 1.362 . S
C816 C814 1.420 . S
C816 C820 1.429 . S
H817 C822 0.930 . S
N818 Eu780 2.609 . S
N818 C820 1.377 . S
N818 C821 1.321 . S
C819 H805 0.930 . S
C819 C821 1.400 . S
C819 C822 1.386 . S
C820 C816 1.429 . S
C820 N818 1.377 . S
C820 C823 1.411 . S
C821 H803 0.930 . S
C821 N818 1.321 . S
C821 C819 1.400 . S
C822 H817 0.930 . S
C822 C819 1.386 . S
C822 C823 1.395 . S
C823 C820 1.411 . S
C823 C822 1.395 . S
C823 C845 1.420 . S
O824 Eu780 2.558 . S
O824 C844 1.257 . S
O825 Eu780 2.612 . S
O825 Eu791 2.380 . S
O825 C836 1.276 . S
O826 Eu791 2.432 . S
O826 C843 1.264 . S
O827 Eu780 2.339 . S
O827 C843 1.254 . S
O828 Eu780 2.563 . S
O828 C836 1.235 . S
O829 Eu780 2.419 . S
O829 C844 1.249 . S
O830 Eu791 2.558 . S
O830 C855 1.257 . S
O831 Eu780 2.380 . S
O831 Eu791 2.612 . S
O831 C847 1.276 . S
O832 Eu780 2.432 . S
O832 C854 1.264 . S
O833 Eu791 2.339 . S
O833 C854 1.254 . S
O834 Eu791 2.563 . S
O834 C847 1.235 . S
O835 Eu791 2.419 . S
O835 C855 1.249 . S
C836 O825 1.276 . S
C836 O828 1.235 . S
C837 C839 1.393 . S
C837 C841 1.395 . S
C837 C844 1.492 . S
C838 C839 1.392 . S
C838 C840 1.386 . S
C839 C837 1.393 . S
C839 C838 1.392 . S
C839 H856 0.930 . S
C840 C838 1.386 . S
C840 C842 1.395 . S
C840 H857 0.930 . S
C841 C837 1.395 . S
C841 C842 1.379 . S
C841 H858 0.930 . S
C842 C840 1.395 . S
C842 C841 1.379 . S
C842 H859 0.930 . S
C843 O826 1.264 . S
C843 O827 1.254 . S
C844 Eu780 2.848 . S
C844 O824 1.257 . S
C844 O829 1.249 . S
C844 C837 1.492 . S
C845 H810 0.931 . S
C845 C823 1.420 . S
C845 C846 1.351 . S
C846 H808 0.930 . S
C846 C814 1.423 . S
C846 C845 1.351 . S
C847 O831 1.276 . S
C847 O834 1.235 . S
C848 C849 1.393 . S
C848 C852 1.395 . S
C848 C855 1.492 . S
C849 C848 1.393 . S
C849 C850 1.392 . S
C849 H860 0.930 . S
C850 C849 1.392 . S
C850 C851 1.386 . S
C851 C850 1.386 . S
C851 C853 1.395 . S
C851 H861 0.930 . S
C852 C848 1.395 . S
C852 C853 1.379 . S
C852 H862 0.930 . S
C853 C851 1.395 . S
C853 C852 1.379 . S
C853 H863 0.930 . S
C854 O832 1.264 . S
C854 O833 1.254 . S
C855 Eu791 2.848 . S
C855 O830 1.257 . S
C855 O835 1.249 . S
C855 C848 1.492 . S
H856 C839 0.930 . S
H857 C840 0.930 . S
H858 C841 0.930 . S
H859 C842 0.930 . S
H860 C849 0.930 . S
H861 C851 0.930 . S
H862 C852 0.930 . S
H863 C853 0.930 . S
Eu864 N895 2.657 . S
Eu864 N902 2.609 . S
Eu864 O908 2.558 . S
Eu864 O909 2.612 . S
Eu864 O911 2.339 . S
Eu864 O912 2.563 . S
Eu864 O913 2.419 . S
Eu864 O915 2.380 . S
Eu864 O916 2.432 . S
Eu864 C928 2.848 . S
C865 C868 1.429 . S
C865 C869 1.411 . S
C865 N872 1.377 . S
C866 C868 1.420 . S
C866 C870 1.423 . S
C866 C878 1.392 . S
C867 C869 1.420 . S
C867 C870 1.351 . S
C867 H890 0.931 . S
C868 C865 1.429 . S
C868 C866 1.420 . S
C868 N876 1.362 . S
C869 C865 1.411 . S
C869 C867 1.420 . S
C869 C874 1.395 . S
C870 C866 1.423 . S
C870 C867 1.351 . S
C870 H882 0.930 . S
C871 C873 1.400 . S
C871 C874 1.386 . S
C871 H883 0.930 . S
N872 C865 1.377 . S
N872 C873 1.321 . S
N872 Eu875 2.609 . S
C873 C871 1.400 . S
C873 N872 1.321 . S
C873 H880 0.930 . S
C874 C869 1.395 . S
C874 C871 1.386 . S
C874 H893 0.930 . S
Eu875 N872 2.609 . S
Eu875 N876 2.657 . S
Eu875 O909 2.380 . S
Eu875 O910 2.432 . S
Eu875 O914 2.558 . S
Eu875 O915 2.612 . S
Eu875 O917 2.339 . S
Eu875 O918 2.563 . S
Eu875 O919 2.419 . S
Eu875 C939 2.848 . S
N876 C868 1.362 . S
N876 Eu875 2.657 . S
N876 C877 1.334 . S
C877 N876 1.334 . S
C877 C879 1.413 . S
C877 H884 0.929 . S
C878 C866 1.392 . S
C878 C879 1.367 . S
C878 H886 0.930 . S
C879 C877 1.413 . S
C879 C878 1.367 . S
C879 H881 0.930 . S
H880 C873 0.930 . S
H881 C879 0.930 . S
H882 C870 0.930 . S
H883 C871 0.930 . S
H884 C877 0.929 . S
H885 C899 0.930 . S
H886 C878 0.930 . S
H887 C905 0.930 . S
H888 C896 0.929 . S
H889 C903 0.930 . S
H890 C867 0.931 . S
H891 C897 0.930 . S
H892 C930 0.930 . S
H893 C874 0.930 . S
H894 C929 0.931 . S
N895 Eu864 2.657 . S
N895 C896 1.334 . S
N895 C900 1.362 . S
C896 H888 0.929 . S
C896 N895 1.334 . S
C896 C899 1.413 . S
C897 H891 0.930 . S
C897 C898 1.392 . S
C897 C899 1.367 . S
C898 C897 1.392 . S
C898 C900 1.420 . S
C898 C930 1.423 . S
C899 H885 0.930 . S
C899 C896 1.413 . S
C899 C897 1.367 . S
C900 N895 1.362 . S
C900 C898 1.420 . S
C900 C904 1.429 . S
H901 C906 0.930 . S
N902 Eu864 2.609 . S
N902 C904 1.377 . S
N902 C905 1.321 . S
C903 H889 0.930 . S
C903 C905 1.400 . S
C903 C906 1.386 . S
C904 C900 1.429 . S
C904 N902 1.377 . S
C904 C907 1.411 . S
C905 H887 0.930 . S
C905 N902 1.321 . S
C905 C903 1.400 . S
C906 H901 0.930 . S
C906 C903 1.386 . S
C906 C907 1.395 . S
C907 C904 1.411 . S
C907 C906 1.395 . S
C907 C929 1.420 . S
O908 Eu864 2.558 . S
O908 C928 1.257 . S
O909 Eu864 2.612 . S
O909 Eu875 2.380 . S
O909 C920 1.276 . S
O910 Eu875 2.432 . S
O910 C927 1.264 . S
O911 Eu864 2.339 . S
O911 C927 1.254 . S
O912 Eu864 2.563 . S
O912 C920 1.235 . S
O913 Eu864 2.419 . S
O913 C928 1.249 . S
O914 Eu875 2.558 . S
O914 C939 1.257 . S
O915 Eu864 2.380 . S
O915 Eu875 2.612 . S
O915 C931 1.276 . S
O916 Eu864 2.432 . S
O916 C938 1.264 . S
O917 Eu875 2.339 . S
O917 C938 1.254 . S
O918 Eu875 2.563 . S
O918 C931 1.235 . S
O919 Eu875 2.419 . S
O919 C939 1.249 . S
C920 O909 1.276 . S
C920 O912 1.235 . S
C921 C923 1.393 . S
C921 C925 1.395 . S
C921 C928 1.492 . S
C922 C923 1.392 . S
C922 C924 1.386 . S
C923 C921 1.393 . S
C923 C922 1.392 . S
C923 H940 0.930 . S
C924 C922 1.386 . S
C924 C926 1.395 . S
C924 H941 0.930 . S
C925 C921 1.395 . S
C925 C926 1.379 . S
C925 H942 0.930 . S
C926 C924 1.395 . S
C926 C925 1.379 . S
C926 H943 0.930 . S
C927 O910 1.264 . S
C927 O911 1.254 . S
C928 Eu864 2.848 . S
C928 O908 1.257 . S
C928 O913 1.249 . S
C928 C921 1.492 . S
C929 H894 0.931 . S
C929 C907 1.420 . S
C929 C930 1.351 . S
C930 H892 0.930 . S
C930 C898 1.423 . S
C930 C929 1.351 . S
C931 O915 1.276 . S
C931 O918 1.235 . S
C932 C933 1.393 . S
C932 C936 1.395 . S
C932 C939 1.492 . S
C933 C932 1.393 . S
C933 C934 1.392 . S
C933 H944 0.930 . S
C934 C933 1.392 . S
C934 C935 1.386 . S
C935 C934 1.386 . S
C935 C937 1.395 . S
C935 H945 0.930 . S
C936 C932 1.395 . S
C936 C937 1.379 . S
C936 H946 0.930 . S
C937 C935 1.395 . S
C937 C936 1.379 . S
C937 H947 0.930 . S
C938 O916 1.264 . S
C938 O917 1.254 . S
C939 Eu875 2.848 . S
C939 O914 1.257 . S
C939 O919 1.249 . S
C939 C932 1.492 . S
H940 C923 0.930 . S
H941 C924 0.930 . S
H942 C925 0.930 . S
H943 C926 0.930 . S
H944 C933 0.930 . S
H945 C935 0.930 . S
H946 C936 0.930 . S
H947 C937 0.930 . S
C948 C949 1.391 . S
C948 C950 1.394 . S
C948 H964 0.931 . S
C949 C948 1.391 . S
C949 C953 1.376 . S
C950 C948 1.394 . S
C950 C951 1.369 . S
C950 C954 1.531 . S
C951 C950 1.369 . S
C951 C952 1.410 . S
C951 C959 1.503 . S
C952 C951 1.410 . S
C952 C953 1.392 . S
C952 C955 1.511 . S
C953 C949 1.376 . S
C953 C952 1.392 . S
C953 H965 0.929 . S
C954 C950 1.531 . S
C954 H966 0.960 . S
C954 H967 0.962 . S
C954 H968 0.960 . S
C955 C952 1.511 . S
C955 H969 0.961 . S
C955 H970 0.961 . S
C955 H971 0.961 . S
C956 C957 1.370 . S
C956 C958 1.363 . S
C956 H972 0.931 . S
C957 C956 1.370 . S
C957 C961 1.408 . S
C958 C956 1.363 . S
C958 C959 1.370 . S
C958 C962 1.524 . S
C959 C951 1.503 . S
C959 C958 1.370 . S
C959 C960 1.403 . S
C960 C959 1.403 . S
C960 C961 1.404 . S
C960 C963 1.539 . S
C961 C957 1.408 . S
C961 C960 1.404 . S
C961 H973 0.930 . S
C962 C958 1.524 . S
C962 H974 0.956 . S
C962 H975 0.961 . S
C962 H976 0.961 . S
C963 C960 1.539 . S
C963 H977 0.958 . S
C963 H978 0.961 . S
C963 H979 0.960 . S
H964 C948 0.931 . S
H965 C953 0.929 . S
H966 C954 0.960 . S
H967 C954 0.962 . S
H968 C954 0.960 . S
H969 C955 0.961 . S
H970 C955 0.961 . S
H971 C955 0.961 . S
H972 C956 0.931 . S
H973 C961 0.930 . S
H974 C962 0.956 . S
H975 C962 0.961 . S
H976 C962 0.961 . S
H977 C963 0.958 . S
H978 C963 0.961 . S
H979 C963 0.960 . S
C980 C981 1.391 . S
C980 C982 1.394 . S
C980 H996 0.931 . S
C981 C980 1.391 . S
C981 C985 1.376 . S
C982 C980 1.394 . S
C982 C983 1.369 . S
C982 C986 1.531 . S
C983 C982 1.369 . S
C983 C984 1.410 . S
C983 C991 1.503 . S
C984 C983 1.410 . S
C984 C985 1.392 . S
C984 C987 1.511 . S
C985 C981 1.376 . S
C985 C984 1.392 . S
C985 H997 0.929 . S
C986 C982 1.531 . S
C986 H998 0.960 . S
C986 H999 0.962 . S
C986 H1000 0.960 . S
C987 C984 1.511 . S
C987 H1001 0.961 . S
C987 H1002 0.961 . S
C987 H1003 0.961 . S
C988 C989 1.370 . S
C988 C990 1.363 . S
C988 H1004 0.931 . S
C989 C988 1.370 . S
C989 C993 1.408 . S
C990 C988 1.363 . S
C990 C991 1.370 . S
C990 C994 1.524 . S
C991 C983 1.503 . S
C991 C990 1.370 . S
C991 C992 1.403 . S
C992 C991 1.403 . S
C992 C993 1.404 . S
C992 C995 1.539 . S
C993 C989 1.408 . S
C993 C992 1.404 . S
C993 H1005 0.930 . S
C994 C990 1.524 . S
C994 H1006 0.956 . S
C994 H1007 0.961 . S
C994 H1008 0.961 . S
C995 C992 1.539 . S
C995 H1009 0.958 . S
C995 H1010 0.961 . S
C995 H1011 0.960 . S
H996 C980 0.931 . S
H997 C985 0.929 . S
H998 C986 0.960 . S
H999 C986 0.962 . S
H1000 C986 0.960 . S
H1001 C987 0.961 . S
H1002 C987 0.961 . S
H1003 C987 0.961 . S
H1004 C988 0.931 . S
H1005 C993 0.930 . S
H1006 C994 0.956 . S
H1007 C994 0.961 . S
H1008 C994 0.961 . S
H1009 C995 0.958 . S
H1010 C995 0.961 . S
H1011 C995 0.960 . S
C1012 C1013 1.391 . S
C1012 C1014 1.394 . S
C1012 H1028 0.931 . S
C1013 C1012 1.391 . S
C1013 C1017 1.376 . S
C1014 C1012 1.394 . S
C1014 C1015 1.369 . S
C1014 C1018 1.531 . S
C1015 C1014 1.369 . S
C1015 C1016 1.410 . S
C1015 C1023 1.503 . S
C1016 C1015 1.410 . S
C1016 C1017 1.392 . S
C1016 C1019 1.511 . S
C1017 C1013 1.376 . S
C1017 C1016 1.392 . S
C1017 H1029 0.929 . S
C1018 C1014 1.531 . S
C1018 H1030 0.960 . S
C1018 H1031 0.962 . S
C1018 H1032 0.960 . S
C1019 C1016 1.511 . S
C1019 H1033 0.961 . S
C1019 H1034 0.961 . S
C1019 H1035 0.961 . S
C1020 C1021 1.370 . S
C1020 C1022 1.363 . S
C1020 H1036 0.931 . S
C1021 C1020 1.370 . S
C1021 C1025 1.408 . S
C1022 C1020 1.363 . S
C1022 C1023 1.370 . S
C1022 C1026 1.524 . S
C1023 C1015 1.503 . S
C1023 C1022 1.370 . S
C1023 C1024 1.403 . S
C1024 C1023 1.403 . S
C1024 C1025 1.404 . S
C1024 C1027 1.539 . S
C1025 C1021 1.408 . S
C1025 C1024 1.404 . S
C1025 H1037 0.930 . S
C1026 C1022 1.524 . S
C1026 H1038 0.956 . S
C1026 H1039 0.961 . S
C1026 H1040 0.961 . S
C1027 C1024 1.539 . S
C1027 H1041 0.958 . S
C1027 H1042 0.961 . S
C1027 H1043 0.960 . S
H1028 C1012 0.931 . S
H1029 C1017 0.929 . S
H1030 C1018 0.960 . S
H1031 C1018 0.962 . S
H1032 C1018 0.960 . S
H1033 C1019 0.961 . S
H1034 C1019 0.961 . S
H1035 C1019 0.961 . S
H1036 C1020 0.931 . S
H1037 C1025 0.930 . S
H1038 C1026 0.956 . S
H1039 C1026 0.961 . S
H1040 C1026 0.961 . S
H1041 C1027 0.958 . S
H1042 C1027 0.961 . S
H1043 C1027 0.960 . S
C1044 C1045 1.391 . S
C1044 C1046 1.394 . S
C1044 H1060 0.931 . S
C1045 C1044 1.391 . S
C1045 C1049 1.376 . S
C1046 C1044 1.394 . S
C1046 C1047 1.369 . S
C1046 C1050 1.531 . S
C1047 C1046 1.369 . S
C1047 C1048 1.410 . S
C1047 C1055 1.503 . S
C1048 C1047 1.410 . S
C1048 C1049 1.392 . S
C1048 C1051 1.511 . S
C1049 C1045 1.376 . S
C1049 C1048 1.392 . S
C1049 H1061 0.929 . S
C1050 C1046 1.531 . S
C1050 H1062 0.960 . S
C1050 H1063 0.962 . S
C1050 H1064 0.960 . S
C1051 C1048 1.511 . S
C1051 H1065 0.961 . S
C1051 H1066 0.961 . S
C1051 H1067 0.961 . S
C1052 C1053 1.370 . S
C1052 C1054 1.363 . S
C1052 H1068 0.931 . S
C1053 C1052 1.370 . S
C1053 C1057 1.408 . S
C1054 C1052 1.363 . S
C1054 C1055 1.370 . S
C1054 C1058 1.524 . S
C1055 C1047 1.503 . S
C1055 C1054 1.370 . S
C1055 C1056 1.403 . S
C1056 C1055 1.403 . S
C1056 C1057 1.404 . S
C1056 C1059 1.539 . S
C1057 C1053 1.408 . S
C1057 C1056 1.404 . S
C1057 H1069 0.930 . S
C1058 C1054 1.524 . S
C1058 H1070 0.956 . S
C1058 H1071 0.961 . S
C1058 H1072 0.961 . S
C1059 C1056 1.539 . S
C1059 H1073 0.958 . S
C1059 H1074 0.961 . S
C1059 H1075 0.960 . S
H1060 C1044 0.931 . S
H1061 C1049 0.929 . S
H1062 C1050 0.960 . S
H1063 C1050 0.962 . S
H1064 C1050 0.960 . S
H1065 C1051 0.961 . S
H1066 C1051 0.961 . S
H1067 C1051 0.961 . S
H1068 C1052 0.931 . S
H1069 C1057 0.930 . S
H1070 C1058 0.956 . S
H1071 C1058 0.961 . S
H1072 C1058 0.961 . S
H1073 C1059 0.958 . S
H1074 C1059 0.961 . S
H1075 C1059 0.960 . S
C1076 C1077 1.391 . S
C1076 C1078 1.394 . S
C1076 H1092 0.931 . S
C1077 C1076 1.391 . S
C1077 C1081 1.376 . S
C1078 C1076 1.394 . S
C1078 C1079 1.369 . S
C1078 C1082 1.531 . S
C1079 C1078 1.369 . S
C1079 C1080 1.410 . S
C1079 C1087 1.503 . S
C1080 C1079 1.410 . S
C1080 C1081 1.392 . S
C1080 C1083 1.511 . S
C1081 C1077 1.376 . S
C1081 C1080 1.392 . S
C1081 H1093 0.929 . S
C1082 C1078 1.531 . S
C1082 H1094 0.960 . S
C1082 H1095 0.962 . S
C1082 H1096 0.960 . S
C1083 C1080 1.511 . S
C1083 H1097 0.961 . S
C1083 H1098 0.961 . S
C1083 H1099 0.961 . S
C1084 C1085 1.370 . S
C1084 C1086 1.363 . S
C1084 H1100 0.931 . S
C1085 C1084 1.370 . S
C1085 C1089 1.408 . S
C1086 C1084 1.363 . S
C1086 C1087 1.370 . S
C1086 C1090 1.524 . S
C1087 C1079 1.503 . S
C1087 C1086 1.370 . S
C1087 C1088 1.403 . S
C1088 C1087 1.403 . S
C1088 C1089 1.404 . S
C1088 C1091 1.539 . S
C1089 C1085 1.408 . S
C1089 C1088 1.404 . S
C1089 H1101 0.930 . S
C1090 C1086 1.524 . S
C1090 H1102 0.956 . S
C1090 H1103 0.961 . S
C1090 H1104 0.961 . S
C1091 C1088 1.539 . S
C1091 H1105 0.958 . S
C1091 H1106 0.961 . S
C1091 H1107 0.960 . S
H1092 C1076 0.931 . S
H1093 C1081 0.929 . S
H1094 C1082 0.960 . S
H1095 C1082 0.962 . S
H1096 C1082 0.960 . S
H1097 C1083 0.961 . S
H1098 C1083 0.961 . S
H1099 C1083 0.961 . S
H1100 C1084 0.931 . S
H1101 C1089 0.930 . S
H1102 C1090 0.956 . S
H1103 C1090 0.961 . S
H1104 C1090 0.961 . S
H1105 C1091 0.958 . S
H1106 C1091 0.961 . S
H1107 C1091 0.960 . S
C1108 C1109 1.391 . S
C1108 C1110 1.394 . S
C1108 H1124 0.931 . S
C1109 C1108 1.391 . S
C1109 C1113 1.376 . S
C1110 C1108 1.394 . S
C1110 C1111 1.369 . S
C1110 C1114 1.531 . S
C1111 C1110 1.369 . S
C1111 C1112 1.410 . S
C1111 C1119 1.503 . S
C1112 C1111 1.410 . S
C1112 C1113 1.392 . S
C1112 C1115 1.511 . S
C1113 C1109 1.376 . S
C1113 C1112 1.392 . S
C1113 H1125 0.929 . S
C1114 C1110 1.531 . S
C1114 H1126 0.960 . S
C1114 H1127 0.962 . S
C1114 H1128 0.960 . S
C1115 C1112 1.511 . S
C1115 H1129 0.961 . S
C1115 H1130 0.961 . S
C1115 H1131 0.961 . S
C1116 C1117 1.370 . S
C1116 C1118 1.363 . S
C1116 H1132 0.931 . S
C1117 C1116 1.370 . S
C1117 C1121 1.408 . S
C1118 C1116 1.363 . S
C1118 C1119 1.370 . S
C1118 C1122 1.524 . S
C1119 C1111 1.503 . S
C1119 C1118 1.370 . S
C1119 C1120 1.403 . S
C1120 C1119 1.403 . S
C1120 C1121 1.404 . S
C1120 C1123 1.539 . S
C1121 C1117 1.408 . S
C1121 C1120 1.404 . S
C1121 H1133 0.930 . S
C1122 C1118 1.524 . S
C1122 H1134 0.956 . S
C1122 H1135 0.961 . S
C1122 H1136 0.961 . S
C1123 C1120 1.539 . S
C1123 H1137 0.958 . S
C1123 H1138 0.961 . S
C1123 H1139 0.960 . S
H1124 C1108 0.931 . S
H1125 C1113 0.929 . S
H1126 C1114 0.960 . S
H1127 C1114 0.962 . S
H1128 C1114 0.960 . S
H1129 C1115 0.961 . S
H1130 C1115 0.961 . S
H1131 C1115 0.961 . S
H1132 C1116 0.931 . S
H1133 C1121 0.930 . S
H1134 C1122 0.956 . S
H1135 C1122 0.961 . S
H1136 C1122 0.961 . S
H1137 C1123 0.958 . S
H1138 C1123 0.961 . S
H1139 C1123 0.960 . S
C1140 C1141 1.391 . S
C1140 C1142 1.394 . S
C1140 H1156 0.931 . S
C1141 C1140 1.391 . S
C1141 C1145 1.376 . S
C1142 C1140 1.394 . S
C1142 C1143 1.369 . S
C1142 C1146 1.531 . S
C1143 C1142 1.369 . S
C1143 C1144 1.410 . S
C1143 C1151 1.503 . S
C1144 C1143 1.410 . S
C1144 C1145 1.392 . S
C1144 C1147 1.511 . S
C1145 C1141 1.376 . S
C1145 C1144 1.392 . S
C1145 H1157 0.929 . S
C1146 C1142 1.531 . S
C1146 H1158 0.960 . S
C1146 H1159 0.962 . S
C1146 H1160 0.960 . S
C1147 C1144 1.511 . S
C1147 H1161 0.961 . S
C1147 H1162 0.961 . S
C1147 H1163 0.961 . S
C1148 C1149 1.370 . S
C1148 C1150 1.363 . S
C1148 H1164 0.931 . S
C1149 C1148 1.370 . S
C1149 C1153 1.408 . S
C1150 C1148 1.363 . S
C1150 C1151 1.370 . S
C1150 C1154 1.524 . S
C1151 C1143 1.503 . S
C1151 C1150 1.370 . S
C1151 C1152 1.403 . S
C1152 C1151 1.403 . S
C1152 C1153 1.404 . S
C1152 C1155 1.539 . S
C1153 C1149 1.408 . S
C1153 C1152 1.404 . S
C1153 H1165 0.930 . S
C1154 C1150 1.524 . S
C1154 H1166 0.956 . S
C1154 H1167 0.961 . S
C1154 H1168 0.961 . S
C1155 C1152 1.539 . S
C1155 H1169 0.958 . S
C1155 H1170 0.961 . S
C1155 H1171 0.960 . S
H1156 C1140 0.931 . S
H1157 C1145 0.929 . S
H1158 C1146 0.960 . S
H1159 C1146 0.962 . S
H1160 C1146 0.960 . S
H1161 C1147 0.961 . S
H1162 C1147 0.961 . S
H1163 C1147 0.961 . S
H1164 C1148 0.931 . S
H1165 C1153 0.930 . S
H1166 C1154 0.956 . S
H1167 C1154 0.961 . S
H1168 C1154 0.961 . S
H1169 C1155 0.958 . S
H1170 C1155 0.961 . S
H1171 C1155 0.960 . S
C1172 C1173 1.391 . S
C1172 C1174 1.394 . S
C1172 H1188 0.931 . S
C1173 C1172 1.391 . S
C1173 C1177 1.376 . S
C1174 C1172 1.394 . S
C1174 C1175 1.369 . S
C1174 C1178 1.531 . S
C1175 C1174 1.369 . S
C1175 C1176 1.410 . S
C1175 C1183 1.503 . S
C1176 C1175 1.410 . S
C1176 C1177 1.392 . S
C1176 C1179 1.511 . S
C1177 C1173 1.376 . S
C1177 C1176 1.392 . S
C1177 H1189 0.929 . S
C1178 C1174 1.531 . S
C1178 H1190 0.960 . S
C1178 H1191 0.962 . S
C1178 H1192 0.960 . S
C1179 C1176 1.511 . S
C1179 H1193 0.961 . S
C1179 H1194 0.961 . S
C1179 H1195 0.961 . S
C1180 C1181 1.370 . S
C1180 C1182 1.363 . S
C1180 H1196 0.931 . S
C1181 C1180 1.370 . S
C1181 C1185 1.408 . S
C1182 C1180 1.363 . S
C1182 C1183 1.370 . S
C1182 C1186 1.524 . S
C1183 C1175 1.503 . S
C1183 C1182 1.370 . S
C1183 C1184 1.403 . S
C1184 C1183 1.403 . S
C1184 C1185 1.404 . S
C1184 C1187 1.539 . S
C1185 C1181 1.408 . S
C1185 C1184 1.404 . S
C1185 H1197 0.930 . S
C1186 C1182 1.524 . S
C1186 H1198 0.956 . S
C1186 H1199 0.961 . S
C1186 H1200 0.961 . S
C1187 C1184 1.539 . S
C1187 H1201 0.958 . S
C1187 H1202 0.961 . S
C1187 H1203 0.960 . S
H1188 C1172 0.931 . S
H1189 C1177 0.929 . S
H1190 C1178 0.960 . S
H1191 C1178 0.962 . S
H1192 C1178 0.960 . S
H1193 C1179 0.961 . S
H1194 C1179 0.961 . S
H1195 C1179 0.961 . S
H1196 C1180 0.931 . S
H1197 C1185 0.930 . S
H1198 C1186 0.956 . S
H1199 C1186 0.961 . S
H1200 C1186 0.961 . S
H1201 C1187 0.958 . S
H1202 C1187 0.961 . S
H1203 C1187 0.960 . S
C1204 C1205 1.391 . S
C1204 C1206 1.394 . S
C1204 H1220 0.931 . S
C1205 C1204 1.391 . S
C1205 C1209 1.376 . S
C1206 C1204 1.394 . S
C1206 C1207 1.369 . S
C1206 C1210 1.531 . S
C1207 C1206 1.369 . S
C1207 C1208 1.410 . S
C1207 C1215 1.503 . S
C1208 C1207 1.410 . S
C1208 C1209 1.392 . S
C1208 C1211 1.511 . S
C1209 C1205 1.376 . S
C1209 C1208 1.392 . S
C1209 H1221 0.929 . S
C1210 C1206 1.531 . S
C1210 H1222 0.960 . S
C1210 H1223 0.962 . S
C1210 H1224 0.960 . S
C1211 C1208 1.511 . S
C1211 H1225 0.961 . S
C1211 H1226 0.961 . S
C1211 H1227 0.961 . S
C1212 C1213 1.370 . S
C1212 C1214 1.363 . S
C1212 H1228 0.931 . S
C1213 C1212 1.370 . S
C1213 C1217 1.408 . S
C1214 C1212 1.363 . S
C1214 C1215 1.370 . S
C1214 C1218 1.524 . S
C1215 C1207 1.503 . S
C1215 C1214 1.370 . S
C1215 C1216 1.403 . S
C1216 C1215 1.403 . S
C1216 C1217 1.404 . S
C1216 C1219 1.539 . S
C1217 C1213 1.408 . S
C1217 C1216 1.404 . S
C1217 H1229 0.930 . S
C1218 C1214 1.524 . S
C1218 H1230 0.956 . S
C1218 H1231 0.961 . S
C1218 H1232 0.961 . S
C1219 C1216 1.539 . S
C1219 H1233 0.958 . S
C1219 H1234 0.961 . S
C1219 H1235 0.960 . S
H1220 C1204 0.931 . S
H1221 C1209 0.929 . S
H1222 C1210 0.960 . S
H1223 C1210 0.962 . S
H1224 C1210 0.960 . S
H1225 C1211 0.961 . S
H1226 C1211 0.961 . S
H1227 C1211 0.961 . S
H1228 C1212 0.931 . S
H1229 C1217 0.930 . S
H1230 C1218 0.956 . S
H1231 C1218 0.961 . S
H1232 C1218 0.961 . S
H1233 C1219 0.958 . S
H1234 C1219 0.961 . S
H1235 C1219 0.960 . S
C1236 C1237 1.391 . S
C1236 C1238 1.394 . S
C1236 H1252 0.931 . S
C1237 C1236 1.391 . S
C1237 C1241 1.376 . S
C1238 C1236 1.394 . S
C1238 C1239 1.369 . S
C1238 C1242 1.531 . S
C1239 C1238 1.369 . S
C1239 C1240 1.410 . S
C1239 C1247 1.503 . S
C1240 C1239 1.410 . S
C1240 C1241 1.392 . S
C1240 C1243 1.511 . S
C1241 C1237 1.376 . S
C1241 C1240 1.392 . S
C1241 H1253 0.929 . S
C1242 C1238 1.531 . S
C1242 H1254 0.960 . S
C1242 H1255 0.962 . S
C1242 H1256 0.960 . S
C1243 C1240 1.511 . S
C1243 H1257 0.961 . S
C1243 H1258 0.961 . S
C1243 H1259 0.961 . S
C1244 C1245 1.370 . S
C1244 C1246 1.363 . S
C1244 H1260 0.931 . S
C1245 C1244 1.370 . S
C1245 C1249 1.408 . S
C1246 C1244 1.363 . S
C1246 C1247 1.370 . S
C1246 C1250 1.524 . S
C1247 C1239 1.503 . S
C1247 C1246 1.370 . S
C1247 C1248 1.403 . S
C1248 C1247 1.403 . S
C1248 C1249 1.404 . S
C1248 C1251 1.539 . S
C1249 C1245 1.408 . S
C1249 C1248 1.404 . S
C1249 H1261 0.930 . S
C1250 C1246 1.524 . S
C1250 H1262 0.956 . S
C1250 H1263 0.961 . S
C1250 H1264 0.961 . S
C1251 C1248 1.539 . S
C1251 H1265 0.958 . S
C1251 H1266 0.961 . S
C1251 H1267 0.960 . S
H1252 C1236 0.931 . S
H1253 C1241 0.929 . S
H1254 C1242 0.960 . S
H1255 C1242 0.962 . S
H1256 C1242 0.960 . S
H1257 C1243 0.961 . S
H1258 C1243 0.961 . S
H1259 C1243 0.961 . S
H1260 C1244 0.931 . S
H1261 C1249 0.930 . S
H1262 C1250 0.956 . S
H1263 C1250 0.961 . S
H1264 C1250 0.961 . S
H1265 C1251 0.958 . S
H1266 C1251 0.961 . S
H1267 C1251 0.960 . S
C1268 C1269 1.391 . S
C1268 C1270 1.394 . S
C1268 H1284 0.931 . S
C1269 C1268 1.391 . S
C1269 C1273 1.376 . S
C1270 C1268 1.394 . S
C1270 C1271 1.369 . S
C1270 C1274 1.531 . S
C1271 C1270 1.369 . S
C1271 C1272 1.410 . S
C1271 C1279 1.503 . S
C1272 C1271 1.410 . S
C1272 C1273 1.392 . S
C1272 C1275 1.511 . S
C1273 C1269 1.376 . S
C1273 C1272 1.392 . S
C1273 H1285 0.929 . S
C1274 C1270 1.531 . S
C1274 H1286 0.960 . S
C1274 H1287 0.962 . S
C1274 H1288 0.960 . S
C1275 C1272 1.511 . S
C1275 H1289 0.961 . S
C1275 H1290 0.961 . S
C1275 H1291 0.961 . S
C1276 C1277 1.370 . S
C1276 C1278 1.363 . S
C1276 H1292 0.931 . S
C1277 C1276 1.370 . S
C1277 C1281 1.408 . S
C1278 C1276 1.363 . S
C1278 C1279 1.370 . S
C1278 C1282 1.524 . S
C1279 C1271 1.503 . S
C1279 C1278 1.370 . S
C1279 C1280 1.403 . S
C1280 C1279 1.403 . S
C1280 C1281 1.404 . S
C1280 C1283 1.539 . S
C1281 C1277 1.408 . S
C1281 C1280 1.404 . S
C1281 H1293 0.930 . S
C1282 C1278 1.524 . S
C1282 H1294 0.956 . S
C1282 H1295 0.961 . S
C1282 H1296 0.961 . S
C1283 C1280 1.539 . S
C1283 H1297 0.958 . S
C1283 H1298 0.961 . S
C1283 H1299 0.960 . S
H1284 C1268 0.931 . S
H1285 C1273 0.929 . S
H1286 C1274 0.960 . S
H1287 C1274 0.962 . S
H1288 C1274 0.960 . S
H1289 C1275 0.961 . S
H1290 C1275 0.961 . S
H1291 C1275 0.961 . S
H1292 C1276 0.931 . S
H1293 C1281 0.930 . S
H1294 C1282 0.956 . S
H1295 C1282 0.961 . S
H1296 C1282 0.961 . S
H1297 C1283 0.958 . S
H1298 C1283 0.961 . S
H1299 C1283 0.960 . S
C1300 C1301 1.391 . S
C1300 C1302 1.394 . S
C1300 H1316 0.931 . S
C1301 C1300 1.391 . S
C1301 C1305 1.376 . S
C1302 C1300 1.394 . S
C1302 C1303 1.369 . S
C1302 C1306 1.531 . S
C1303 C1302 1.369 . S
C1303 C1304 1.410 . S
C1303 C1311 1.503 . S
C1304 C1303 1.410 . S
C1304 C1305 1.392 . S
C1304 C1307 1.511 . S
C1305 C1301 1.376 . S
C1305 C1304 1.392 . S
C1305 H1317 0.929 . S
C1306 C1302 1.531 . S
C1306 H1318 0.960 . S
C1306 H1319 0.962 . S
C1306 H1320 0.960 . S
C1307 C1304 1.511 . S
C1307 H1321 0.961 . S
C1307 H1322 0.961 . S
C1307 H1323 0.961 . S
C1308 C1309 1.370 . S
C1308 C1310 1.363 . S
C1308 H1324 0.931 . S
C1309 C1308 1.370 . S
C1309 C1313 1.408 . S
C1310 C1308 1.363 . S
C1310 C1311 1.370 . S
C1310 C1314 1.524 . S
C1311 C1303 1.503 . S
C1311 C1310 1.370 . S
C1311 C1312 1.403 . S
C1312 C1311 1.403 . S
C1312 C1313 1.404 . S
C1312 C1315 1.539 . S
C1313 C1309 1.408 . S
C1313 C1312 1.404 . S
C1313 H1325 0.930 . S
C1314 C1310 1.524 . S
C1314 H1326 0.956 . S
C1314 H1327 0.961 . S
C1314 H1328 0.961 . S
C1315 C1312 1.539 . S
C1315 H1329 0.958 . S
C1315 H1330 0.961 . S
C1315 H1331 0.960 . S
H1316 C1300 0.931 . S
H1317 C1305 0.929 . S
H1318 C1306 0.960 . S
H1319 C1306 0.962 . S
H1320 C1306 0.960 . S
H1321 C1307 0.961 . S
H1322 C1307 0.961 . S
H1323 C1307 0.961 . S
H1324 C1308 0.931 . S
H1325 C1313 0.930 . S
H1326 C1314 0.956 . S
H1327 C1314 0.961 . S
H1328 C1314 0.961 . S
H1329 C1315 0.958 . S
H1330 C1315 0.961 . S
H1331 C1315 0.960 . S
C1332 C1333 1.390 1_566 S
C1332 C1334 1.394 . S
C1332 H1348 0.931 . S
C1333 C1332 1.390 1_544 S
C1333 C1337 1.372 1_545 S
C1334 C1332 1.394 . S
C1334 C1335 1.369 . S
C1334 C1338 1.531 . S
C1335 C1334 1.369 . S
C1335 C1336 1.410 1_556 S
C1335 C1343 1.503 . S
C1336 C1335 1.410 1_554 S
C1336 C1337 1.392 . S
C1336 C1339 1.511 . S
C1337 C1333 1.372 1_565 S
C1337 C1336 1.392 . S
C1337 H1349 0.929 . S
C1338 C1334 1.531 . S
C1338 H1350 0.960 . S
C1338 H1351 0.962 . S
C1338 H1352 0.960 . S
C1339 C1336 1.511 . S
C1339 H1353 0.961 . S
C1339 H1354 0.961 . S
C1339 H1355 0.961 . S
C1340 C1341 1.370 . S
C1340 C1342 1.363 . S
C1340 H1356 0.931 . S
C1341 C1340 1.370 . S
C1341 C1345 1.408 . S
C1342 C1340 1.363 . S
C1342 C1343 1.370 . S
C1342 C1346 1.524 . S
C1343 C1335 1.503 . S
C1343 C1342 1.370 . S
C1343 C1344 1.403 . S
C1344 C1343 1.403 . S
C1344 C1345 1.404 . S
C1344 C1347 1.539 1_556 S
C1345 C1341 1.408 . S
C1345 C1344 1.404 . S
C1345 H1357 0.930 . S
C1346 C1342 1.524 . S
C1346 H1358 0.956 . S
C1346 H1359 0.961 . S
C1346 H1360 0.961 . S
C1347 C1344 1.539 1_554 S
C1347 H1361 0.958 1_554 S
C1347 H1362 0.961 . S
C1347 H1363 0.960 . S
H1348 C1332 0.931 . S
H1349 C1337 0.929 . S
H1350 C1338 0.960 . S
H1351 C1338 0.962 . S
H1352 C1338 0.960 . S
H1353 C1339 0.961 . S
H1354 C1339 0.961 . S
H1355 C1339 0.961 . S
H1356 C1340 0.931 . S
H1357 C1345 0.930 . S
H1358 C1346 0.956 . S
H1359 C1346 0.961 . S
H1360 C1346 0.961 . S
H1361 C1347 0.958 1_556 S
H1362 C1347 0.961 . S
H1363 C1347 0.960 . S
C1364 C1365 1.391 . S
C1364 C1366 1.394 . S
C1364 H1380 0.931 . S
C1365 C1364 1.391 . S
C1365 C1369 1.376 . S
C1366 C1364 1.394 . S
C1366 C1367 1.369 . S
C1366 C1370 1.531 . S
C1367 C1366 1.369 . S
C1367 C1368 1.410 . S
C1367 C1375 1.503 . S
C1368 C1367 1.410 . S
C1368 C1369 1.392 . S
C1368 C1371 1.511 . S
C1369 C1365 1.376 . S
C1369 C1368 1.392 . S
C1369 H1381 0.929 . S
C1370 C1366 1.531 . S
C1370 H1382 0.960 . S
C1370 H1383 0.962 . S
C1370 H1384 0.960 . S
C1371 C1368 1.511 . S
C1371 H1385 0.961 . S
C1371 H1386 0.961 . S
C1371 H1387 0.961 . S
C1372 C1373 1.370 . S
C1372 C1374 1.363 . S
C1372 H1388 0.931 . S
C1373 C1372 1.370 . S
C1373 C1377 1.408 . S
C1374 C1372 1.363 . S
C1374 C1375 1.370 . S
C1374 C1378 1.524 . S
C1375 C1367 1.503 . S
C1375 C1374 1.370 . S
C1375 C1376 1.403 . S
C1376 C1375 1.403 . S
C1376 C1377 1.404 . S
C1376 C1379 1.539 . S
C1377 C1373 1.408 . S
C1377 C1376 1.404 . S
C1377 H1389 0.930 . S
C1378 C1374 1.524 . S
C1378 H1390 0.956 . S
C1378 H1391 0.961 . S
C1378 H1392 0.961 . S
C1379 C1376 1.539 . S
C1379 H1393 0.958 . S
C1379 H1394 0.961 . S
C1379 H1395 0.960 . S
H1380 C1364 0.931 . S
H1381 C1369 0.929 . S
H1382 C1370 0.960 . S
H1383 C1370 0.962 . S
H1384 C1370 0.960 . S
H1385 C1371 0.961 . S
H1386 C1371 0.961 . S
H1387 C1371 0.961 . S
H1388 C1372 0.931 . S
H1389 C1377 0.930 . S
H1390 C1378 0.956 . S
H1391 C1378 0.961 . S
H1392 C1378 0.961 . S
H1393 C1379 0.958 . S
H1394 C1379 0.961 . S
H1395 C1379 0.960 . S
C1396 C1397 1.391 . S
C1396 C1398 1.394 . S
C1396 H1412 0.931 . S
C1397 C1396 1.391 . S
C1397 C1401 1.376 . S
C1398 C1396 1.394 . S
C1398 C1399 1.369 . S
C1398 C1402 1.531 . S
C1399 C1398 1.369 . S
C1399 C1400 1.410 . S
C1399 C1407 1.503 . S
C1400 C1399 1.410 . S
C1400 C1401 1.392 . S
C1400 C1403 1.511 . S
C1401 C1397 1.376 . S
C1401 C1400 1.392 . S
C1401 H1413 0.929 . S
C1402 C1398 1.531 . S
C1402 H1414 0.960 . S
C1402 H1415 0.962 . S
C1402 H1416 0.960 . S
C1403 C1400 1.511 . S
C1403 H1417 0.961 . S
C1403 H1418 0.961 . S
C1403 H1419 0.961 . S
C1404 C1405 1.370 . S
C1404 C1406 1.363 . S
C1404 H1420 0.931 . S
C1405 C1404 1.370 . S
C1405 C1409 1.408 . S
C1406 C1404 1.363 . S
C1406 C1407 1.370 . S
C1406 C1410 1.524 . S
C1407 C1399 1.503 . S
C1407 C1406 1.370 . S
C1407 C1408 1.403 . S
C1408 C1407 1.403 . S
C1408 C1409 1.404 . S
C1408 C1411 1.539 . S
C1409 C1405 1.408 . S
C1409 C1408 1.404 . S
C1409 H1421 0.930 . S
C1410 C1406 1.524 . S
C1410 H1422 0.956 . S
C1410 H1423 0.961 . S
C1410 H1424 0.961 . S
C1411 C1408 1.539 . S
C1411 H1425 0.958 . S
C1411 H1426 0.961 . S
C1411 H1427 0.960 . S
H1412 C1396 0.931 . S
H1413 C1401 0.929 . S
H1414 C1402 0.960 . S
H1415 C1402 0.962 . S
H1416 C1402 0.960 . S
H1417 C1403 0.961 . S
H1418 C1403 0.961 . S
H1419 C1403 0.961 . S
H1420 C1404 0.931 . S
H1421 C1409 0.930 . S
H1422 C1410 0.956 . S
H1423 C1410 0.961 . S
H1424 C1410 0.961 . S
H1425 C1411 0.958 . S
H1426 C1411 0.961 . S
H1427 C1411 0.960 . S
C1428 C1429 1.391 . S
C1428 C1430 1.394 . S
C1428 H1444 0.931 . S
C1429 C1428 1.391 . S
C1429 C1433 1.376 . S
C1430 C1428 1.394 . S
C1430 C1431 1.369 . S
C1430 C1434 1.531 . S
C1431 C1430 1.369 . S
C1431 C1432 1.410 . S
C1431 C1439 1.503 . S
C1432 C1431 1.410 . S
C1432 C1433 1.392 . S
C1432 C1435 1.511 . S
C1433 C1429 1.376 . S
C1433 C1432 1.392 . S
C1433 H1445 0.929 . S
C1434 C1430 1.531 . S
C1434 H1446 0.960 . S
C1434 H1447 0.962 . S
C1434 H1448 0.960 . S
C1435 C1432 1.511 . S
C1435 H1449 0.961 . S
C1435 H1450 0.961 . S
C1435 H1451 0.961 . S
C1436 C1437 1.370 . S
C1436 C1438 1.363 . S
C1436 H1452 0.931 . S
C1437 C1436 1.370 . S
C1437 C1441 1.408 . S
C1438 C1436 1.363 . S
C1438 C1439 1.370 . S
C1438 C1442 1.524 . S
C1439 C1431 1.503 . S
C1439 C1438 1.370 . S
C1439 C1440 1.403 . S
C1440 C1439 1.403 . S
C1440 C1441 1.404 . S
C1440 C1443 1.539 . S
C1441 C1437 1.408 . S
C1441 C1440 1.404 . S
C1441 H1453 0.930 . S
C1442 C1438 1.524 . S
C1442 H1454 0.956 . S
C1442 H1455 0.961 . S
C1442 H1456 0.961 . S
C1443 C1440 1.539 . S
C1443 H1457 0.958 . S
C1443 H1458 0.961 . S
C1443 H1459 0.960 . S
H1444 C1428 0.931 . S
H1445 C1433 0.929 . S
H1446 C1434 0.960 . S
H1447 C1434 0.962 . S
H1448 C1434 0.960 . S
H1449 C1435 0.961 . S
H1450 C1435 0.961 . S
H1451 C1435 0.961 . S
H1452 C1436 0.931 . S
H1453 C1441 0.930 . S
H1454 C1442 0.956 . S
H1455 C1442 0.961 . S
H1456 C1442 0.961 . S
H1457 C1443 0.958 . S
H1458 C1443 0.961 . S
H1459 C1443 0.960 . S
C1460 C1461 1.391 . S
C1460 C1462 1.394 . S
C1460 H1476 0.931 . S
C1461 C1460 1.391 . S
C1461 C1465 1.376 . S
C1462 C1460 1.394 . S
C1462 C1463 1.369 . S
C1462 C1466 1.531 . S
C1463 C1462 1.369 . S
C1463 C1464 1.410 . S
C1463 C1471 1.503 . S
C1464 C1463 1.410 . S
C1464 C1465 1.392 . S
C1464 C1467 1.511 . S
C1465 C1461 1.376 . S
C1465 C1464 1.392 . S
C1465 H1477 0.929 . S
C1466 C1462 1.531 . S
C1466 H1478 0.960 . S
C1466 H1479 0.962 . S
C1466 H1480 0.960 . S
C1467 C1464 1.511 . S
C1467 H1481 0.961 . S
C1467 H1482 0.961 . S
C1467 H1483 0.961 . S
C1468 C1469 1.370 . S
C1468 C1470 1.363 . S
C1468 H1484 0.931 . S
C1469 C1468 1.370 . S
C1469 C1473 1.408 . S
C1470 C1468 1.363 . S
C1470 C1471 1.370 . S
C1470 C1474 1.524 . S
C1471 C1463 1.503 . S
C1471 C1470 1.370 . S
C1471 C1472 1.403 . S
C1472 C1471 1.403 . S
C1472 C1473 1.404 . S
C1472 C1475 1.539 . S
C1473 C1469 1.408 . S
C1473 C1472 1.404 . S
C1473 H1485 0.930 . S
C1474 C1470 1.524 . S
C1474 H1486 0.956 . S
C1474 H1487 0.961 . S
C1474 H1488 0.961 . S
C1475 C1472 1.539 . S
C1475 H1489 0.958 . S
C1475 H1490 0.961 . S
C1475 H1491 0.960 . S
H1476 C1460 0.931 . S
H1477 C1465 0.929 . S
H1478 C1466 0.960 . S
H1479 C1466 0.962 . S
H1480 C1466 0.960 . S
H1481 C1467 0.961 . S
H1482 C1467 0.961 . S
H1483 C1467 0.961 . S
H1484 C1468 0.931 . S
H1485 C1473 0.930 . S
H1486 C1474 0.956 . S
H1487 C1474 0.961 . S
H1488 C1474 0.961 . S
H1489 C1475 0.958 . S
H1490 C1475 0.961 . S
H1491 C1475 0.960 . S
C1492 C1493 1.391 . S
C1492 C1494 1.394 . S
C1492 H1508 0.931 . S
C1493 C1492 1.391 . S
C1493 C1497 1.376 . S
C1494 C1492 1.394 . S
C1494 C1495 1.369 . S
C1494 C1498 1.531 . S
C1495 C1494 1.369 . S
C1495 C1496 1.410 . S
C1495 C1503 1.503 . S
C1496 C1495 1.410 . S
C1496 C1497 1.392 . S
C1496 C1499 1.511 . S
C1497 C1493 1.376 . S
C1497 C1496 1.392 . S
C1497 H1509 0.929 . S
C1498 C1494 1.531 . S
C1498 H1510 0.960 . S
C1498 H1511 0.962 . S
C1498 H1512 0.960 . S
C1499 C1496 1.511 . S
C1499 H1513 0.961 . S
C1499 H1514 0.961 . S
C1499 H1515 0.961 . S
C1500 C1501 1.370 . S
C1500 C1502 1.363 . S
C1500 H1516 0.931 . S
C1501 C1500 1.370 . S
C1501 C1505 1.408 . S
C1502 C1500 1.363 . S
C1502 C1503 1.370 . S
C1502 C1506 1.524 . S
C1503 C1495 1.503 . S
C1503 C1502 1.370 . S
C1503 C1504 1.403 . S
C1504 C1503 1.403 . S
C1504 C1505 1.404 . S
C1504 C1507 1.539 . S
C1505 C1501 1.408 . S
C1505 C1504 1.404 . S
C1505 H1517 0.930 . S
C1506 C1502 1.524 . S
C1506 H1518 0.956 . S
C1506 H1519 0.961 . S
C1506 H1520 0.961 . S
C1507 C1504 1.539 . S
C1507 H1521 0.958 . S
C1507 H1522 0.961 . S
C1507 H1523 0.960 . S
H1508 C1492 0.931 . S
H1509 C1497 0.929 . S
H1510 C1498 0.960 . S
H1511 C1498 0.962 . S
H1512 C1498 0.960 . S
H1513 C1499 0.961 . S
H1514 C1499 0.961 . S
H1515 C1499 0.961 . S
H1516 C1500 0.931 . S
H1517 C1505 0.930 . S
H1518 C1506 0.956 . S
H1519 C1506 0.961 . S
H1520 C1506 0.961 . S
H1521 C1507 0.958 . S
H1522 C1507 0.961 . S
H1523 C1507 0.960 . S
C1524 C1525 1.391 . S
C1524 C1526 1.394 1_554 S
C1524 H1540 0.931 . S
C1525 C1524 1.391 . S
C1525 C1529 1.376 . S
C1526 C1524 1.394 1_556 S
C1526 C1527 1.369 . S
C1526 C1530 1.531 . S
C1527 C1526 1.369 . S
C1527 C1528 1.410 . S
C1527 C1535 1.503 . S
C1528 C1527 1.410 . S
C1528 C1529 1.392 1_556 S
C1528 C1531 1.511 . S
C1529 C1525 1.376 . S
C1529 C1528 1.392 1_554 S
C1529 H1541 0.929 . S
C1530 C1526 1.531 . S
C1530 H1542 0.960 . S
C1530 H1543 0.962 . S
C1530 H1544 0.960 . S
C1531 C1528 1.511 . S
C1531 H1545 0.961 . S
C1531 H1546 0.961 . S
C1531 H1547 0.961 . S
C1532 C1533 1.370 . S
C1532 C1534 1.363 . S
C1532 H1548 0.931 . S
C1533 C1532 1.370 . S
C1533 C1537 1.408 . S
C1534 C1532 1.363 . S
C1534 C1535 1.370 . S
C1534 C1538 1.524 . S
C1535 C1527 1.503 . S
C1535 C1534 1.370 . S
C1535 C1536 1.403 . S
C1536 C1535 1.403 . S
C1536 C1537 1.404 . S
C1536 C1539 1.539 . S
C1537 C1533 1.408 . S
C1537 C1536 1.404 . S
C1537 H1549 0.930 . S
C1538 C1534 1.524 . S
C1538 H1550 0.956 . S
C1538 H1551 0.961 . S
C1538 H1552 0.961 . S
C1539 C1536 1.539 . S
C1539 H1553 0.958 . S
C1539 H1554 0.961 . S
C1539 H1555 0.960 . S
H1540 C1524 0.931 . S
H1541 C1529 0.929 . S
H1542 C1530 0.960 . S
H1543 C1530 0.962 . S
H1544 C1530 0.960 . S
H1545 C1531 0.961 . S
H1546 C1531 0.961 . S
H1547 C1531 0.961 . S
H1548 C1532 0.931 . S
H1549 C1537 0.930 . S
H1550 C1538 0.956 . S
H1551 C1538 0.961 . S
H1552 C1538 0.961 . S
H1553 C1539 0.958 . S
H1554 C1539 0.961 . S
H1555 C1539 0.960 . S
C1556 C1557 1.391 . S
C1556 C1558 1.394 . S
C1556 H1572 0.931 . S
C1557 C1556 1.391 . S
C1557 C1561 1.376 1_554 S
C1558 C1556 1.394 . S
C1558 C1559 1.369 1_554 S
C1558 C1562 1.531 . S
C1559 C1558 1.369 1_556 S
C1559 C1560 1.410 . S
C1559 C1567 1.503 . S
C1560 C1559 1.410 . S
C1560 C1561 1.392 . S
C1560 C1563 1.511 . S
C1561 C1557 1.376 1_556 S
C1561 C1560 1.392 . S
C1561 H1573 0.929 1_655 S
C1562 C1558 1.531 . S
C1562 H1574 0.960 . S
C1562 H1575 0.962 . S
C1562 H1576 0.960 . S
C1563 C1560 1.511 . S
C1563 H1577 0.961 . S
C1563 H1578 0.961 . S
C1563 H1579 0.961 . S
C1564 C1565 1.370 . S
C1564 C1566 1.363 . S
C1564 H1580 0.931 . S
C1565 C1564 1.370 . S
C1565 C1569 1.408 . S
C1566 C1564 1.363 . S
C1566 C1567 1.370 . S
C1566 C1570 1.524 . S
C1567 C1559 1.503 . S
C1567 C1566 1.370 . S
C1567 C1568 1.403 . S
C1568 C1567 1.403 . S
C1568 C1569 1.404 . S
C1568 C1571 1.539 . S
C1569 C1565 1.408 . S
C1569 C1568 1.404 . S
C1569 H1581 0.930 . S
C1570 C1566 1.524 . S
C1570 H1582 0.956 . S
C1570 H1583 0.961 . S
C1570 H1584 0.961 . S
C1571 C1568 1.539 . S
C1571 H1585 0.958 1_556 S
C1571 H1586 0.961 . S
C1571 H1587 0.960 . S
H1572 C1556 0.931 . S
H1573 C1561 0.929 1_455 S
H1574 C1562 0.960 . S
H1575 C1562 0.962 . S
H1576 C1562 0.960 . S
H1577 C1563 0.961 . S
H1578 C1563 0.961 . S
H1579 C1563 0.961 . S
H1580 C1564 0.931 . S
H1581 C1569 0.930 . S
H1582 C1570 0.956 . S
H1583 C1570 0.961 . S
H1584 C1570 0.961 . S
H1585 C1571 0.958 1_554 S
H1586 C1571 0.961 . S
H1587 C1571 0.960 . S
C1588 C1589 1.391 . S
C1588 C1590 1.394 . S
C1588 H1604 0.931 . S
C1589 C1588 1.391 . S
C1589 C1593 1.376 . S
C1590 C1588 1.394 . S
C1590 C1591 1.369 . S
C1590 C1594 1.531 . S
C1591 C1590 1.369 . S
C1591 C1592 1.410 . S
C1591 C1599 1.503 . S
C1592 C1591 1.410 . S
C1592 C1593 1.392 . S
C1592 C1595 1.511 . S
C1593 C1589 1.376 . S
C1593 C1592 1.392 . S
C1593 H1605 0.929 . S
C1594 C1590 1.531 . S
C1594 H1606 0.960 . S
C1594 H1607 0.962 . S
C1594 H1608 0.960 . S
C1595 C1592 1.511 . S
C1595 H1609 0.961 . S
C1595 H1610 0.961 . S
C1595 H1611 0.961 . S
C1596 C1597 1.370 . S
C1596 C1598 1.363 . S
C1596 H1612 0.931 . S
C1597 C1596 1.370 . S
C1597 C1601 1.408 . S
C1598 C1596 1.363 . S
C1598 C1599 1.370 . S
C1598 C1602 1.524 . S
C1599 C1591 1.503 . S
C1599 C1598 1.370 . S
C1599 C1600 1.403 . S
C1600 C1599 1.403 . S
C1600 C1601 1.404 . S
C1600 C1603 1.539 . S
C1601 C1597 1.408 . S
C1601 C1600 1.404 . S
C1601 H1613 0.930 . S
C1602 C1598 1.524 . S
C1602 H1614 0.956 . S
C1602 H1615 0.961 . S
C1602 H1616 0.961 . S
C1603 C1600 1.539 . S
C1603 H1617 0.958 . S
C1603 H1618 0.961 . S
C1603 H1619 0.960 . S
H1604 C1588 0.931 . S
H1605 C1593 0.929 . S
H1606 C1594 0.960 . S
H1607 C1594 0.962 . S
H1608 C1594 0.960 . S
H1609 C1595 0.961 . S
H1610 C1595 0.961 . S
H1611 C1595 0.961 . S
H1612 C1596 0.931 . S
H1613 C1601 0.930 . S
H1614 C1602 0.956 . S
H1615 C1602 0.961 . S
H1616 C1602 0.961 . S
H1617 C1603 0.958 . S
H1618 C1603 0.961 . S
H1619 C1603 0.960 . S
C1620 C1621 1.391 . S
C1620 C1622 1.394 . S
C1620 H1636 0.931 . S
C1621 C1620 1.391 . S
C1621 C1625 1.376 . S
C1622 C1620 1.394 . S
C1622 C1623 1.369 . S
C1622 C1626 1.531 . S
C1623 C1622 1.369 . S
C1623 C1624 1.410 . S
C1623 C1631 1.503 . S
C1624 C1623 1.410 . S
C1624 C1625 1.392 . S
C1624 C1627 1.511 . S
C1625 C1621 1.376 . S
C1625 C1624 1.392 . S
C1625 H1637 0.929 . S
C1626 C1622 1.531 . S
C1626 H1638 0.960 . S
C1626 H1639 0.962 . S
C1626 H1640 0.960 . S
C1627 C1624 1.511 . S
C1627 H1641 0.961 . S
C1627 H1642 0.961 . S
C1627 H1643 0.961 . S
C1628 C1629 1.370 . S
C1628 C1630 1.363 . S
C1628 H1644 0.931 . S
C1629 C1628 1.370 . S
C1629 C1633 1.408 . S
C1630 C1628 1.363 . S
C1630 C1631 1.370 . S
C1630 C1634 1.524 . S
C1631 C1623 1.503 . S
C1631 C1630 1.370 . S
C1631 C1632 1.403 . S
C1632 C1631 1.403 . S
C1632 C1633 1.404 . S
C1632 C1635 1.539 . S
C1633 C1629 1.408 . S
C1633 C1632 1.404 . S
C1633 H1645 0.930 . S
C1634 C1630 1.524 . S
C1634 H1646 0.956 . S
C1634 H1647 0.961 . S
C1634 H1648 0.961 . S
C1635 C1632 1.539 . S
C1635 H1649 0.958 . S
C1635 H1650 0.961 . S
C1635 H1651 0.960 . S
H1636 C1620 0.931 . S
H1637 C1625 0.929 . S
H1638 C1626 0.960 . S
H1639 C1626 0.962 . S
H1640 C1626 0.960 . S
H1641 C1627 0.961 . S
H1642 C1627 0.961 . S
H1643 C1627 0.961 . S
H1644 C1628 0.931 . S
H1645 C1633 0.930 . S
H1646 C1634 0.956 . S
H1647 C1634 0.961 . S
H1648 C1634 0.961 . S
H1649 C1635 0.958 . S
H1650 C1635 0.961 . S
H1651 C1635 0.960 . S
C1652 C1653 1.391 . S
C1652 C1654 1.394 . S
C1652 H1668 0.931 . S
C1653 C1652 1.391 . S
C1653 C1657 1.376 . S
C1654 C1652 1.394 . S
C1654 C1655 1.369 . S
C1654 C1658 1.531 . S
C1655 C1654 1.369 . S
C1655 C1656 1.410 . S
C1655 C1663 1.503 . S
C1656 C1655 1.410 . S
C1656 C1657 1.392 . S
C1656 C1659 1.511 . S
C1657 C1653 1.376 . S
C1657 C1656 1.392 . S
C1657 H1669 0.929 1_565 S
C1658 C1654 1.531 . S
C1658 H1670 0.960 . S
C1658 H1671 0.962 . S
C1658 H1672 0.960 . S
C1659 C1656 1.511 . S
C1659 H1673 0.961 . S
C1659 H1674 0.961 . S
C1659 H1675 0.961 . S
C1660 C1661 1.370 . S
C1660 C1662 1.363 . S
C1660 H1676 0.931 . S
C1661 C1660 1.370 . S
C1661 C1665 1.408 . S
C1662 C1660 1.363 . S
C1662 C1663 1.370 . S
C1662 C1666 1.524 . S
C1663 C1655 1.503 . S
C1663 C1662 1.370 . S
C1663 C1664 1.403 . S
C1664 C1663 1.403 . S
C1664 C1665 1.404 . S
C1664 C1667 1.539 . S
C1665 C1661 1.408 . S
C1665 C1664 1.404 . S
C1665 H1677 0.930 . S
C1666 C1662 1.524 . S
C1666 H1678 0.956 . S
C1666 H1679 0.961 . S
C1666 H1680 0.961 . S
C1667 C1664 1.539 . S
C1667 H1681 0.958 . S
C1667 H1682 0.961 . S
C1667 H1683 0.960 . S
H1668 C1652 0.931 . S
H1669 C1657 0.929 1_545 S
H1670 C1658 0.960 . S
H1671 C1658 0.962 . S
H1672 C1658 0.960 . S
H1673 C1659 0.961 . S
H1674 C1659 0.961 . S
H1675 C1659 0.961 . S
H1676 C1660 0.931 . S
H1677 C1665 0.930 . S
H1678 C1666 0.956 . S
H1679 C1666 0.961 . S
H1680 C1666 0.961 . S
H1681 C1667 0.958 . S
H1682 C1667 0.961 . S
H1683 C1667 0.960 . S
C1684 C1685 1.391 . S
C1684 C1686 1.394 . S
C1684 H1700 0.931 . S
C1685 C1684 1.391 . S
C1685 C1689 1.376 . S
C1686 C1684 1.394 . S
C1686 C1687 1.369 . S
C1686 C1690 1.531 . S
C1687 C1686 1.369 . S
C1687 C1688 1.410 . S
C1687 C1695 1.503 . S
C1688 C1687 1.410 . S
C1688 C1689 1.392 . S
C1688 C1691 1.511 . S
C1689 C1685 1.376 . S
C1689 C1688 1.392 . S
C1689 H1701 0.929 . S
C1690 C1686 1.531 . S
C1690 H1702 0.960 . S
C1690 H1703 0.962 . S
C1690 H1704 0.960 . S
C1691 C1688 1.511 . S
C1691 H1705 0.961 . S
C1691 H1706 0.961 . S
C1691 H1707 0.961 . S
C1692 C1693 1.370 . S
C1692 C1694 1.363 . S
C1692 H1708 0.931 . S
C1693 C1692 1.370 . S
C1693 C1697 1.408 . S
C1694 C1692 1.363 . S
C1694 C1695 1.370 . S
C1694 C1698 1.524 . S
C1695 C1687 1.503 . S
C1695 C1694 1.370 . S
C1695 C1696 1.403 . S
C1696 C1695 1.403 . S
C1696 C1697 1.404 . S
C1696 C1699 1.539 . S
C1697 C1693 1.408 . S
C1697 C1696 1.404 . S
C1697 H1709 0.930 . S
C1698 C1694 1.524 . S
C1698 H1710 0.956 . S
C1698 H1711 0.961 . S
C1698 H1712 0.961 . S
C1699 C1696 1.539 . S
C1699 H1713 0.958 . S
C1699 H1714 0.961 . S
C1699 H1715 0.960 . S
H1700 C1684 0.931 . S
H1701 C1689 0.929 . S
H1702 C1690 0.960 . S
H1703 C1690 0.962 . S
H1704 C1690 0.960 . S
H1705 C1691 0.961 . S
H1706 C1691 0.961 . S
H1707 C1691 0.961 . S
H1708 C1692 0.931 . S
H1709 C1697 0.930 . S
H1710 C1698 0.956 . S
H1711 C1698 0.961 . S
H1712 C1698 0.961 . S
H1713 C1699 0.958 . S
H1714 C1699 0.961 . S
H1715 C1699 0.960 . S
C1716 C1717 1.391 . S
C1716 C1718 1.394 . S
C1716 H1732 0.931 . S
C1717 C1716 1.391 . S
C1717 C1721 1.376 . S
C1718 C1716 1.394 . S
C1718 C1719 1.369 . S
C1718 C1722 1.531 . S
C1719 C1718 1.369 . S
C1719 C1720 1.410 . S
C1719 C1727 1.503 . S
C1720 C1719 1.410 . S
C1720 C1721 1.392 . S
C1720 C1723 1.511 . S
C1721 C1717 1.376 . S
C1721 C1720 1.392 . S
C1721 H1733 0.929 . S
C1722 C1718 1.531 . S
C1722 H1734 0.960 . S
C1722 H1735 0.962 . S
C1722 H1736 0.960 . S
C1723 C1720 1.511 . S
C1723 H1737 0.961 . S
C1723 H1738 0.961 . S
C1723 H1739 0.961 . S
C1724 C1725 1.370 . S
C1724 C1726 1.363 . S
C1724 H1740 0.931 . S
C1725 C1724 1.370 . S
C1725 C1729 1.408 . S
C1726 C1724 1.363 . S
C1726 C1727 1.370 . S
C1726 C1730 1.524 . S
C1727 C1719 1.503 . S
C1727 C1726 1.370 . S
C1727 C1728 1.403 . S
C1728 C1727 1.403 . S
C1728 C1729 1.404 . S
C1728 C1731 1.539 . S
C1729 C1725 1.408 . S
C1729 C1728 1.404 . S
C1729 H1741 0.930 . S
C1730 C1726 1.524 . S
C1730 H1742 0.956 . S
C1730 H1743 0.961 . S
C1730 H1744 0.961 . S
C1731 C1728 1.539 . S
C1731 H1745 0.958 . S
C1731 H1746 0.961 . S
C1731 H1747 0.960 . S
H1732 C1716 0.931 . S
H1733 C1721 0.929 . S
H1734 C1722 0.960 . S
H1735 C1722 0.962 . S
H1736 C1722 0.960 . S
H1737 C1723 0.961 . S
H1738 C1723 0.961 . S
H1739 C1723 0.961 . S
H1740 C1724 0.931 . S
H1741 C1729 0.930 . S
H1742 C1730 0.956 . S
H1743 C1730 0.961 . S
H1744 C1730 0.961 . S
H1745 C1731 0.958 . S
H1746 C1731 0.961 . S
H1747 C1731 0.960 . S
C1748 C1749 1.391 . S
C1748 C1750 1.394 . S
C1748 H1764 0.931 . S
C1749 C1748 1.391 . S
C1749 C1753 1.376 . S
C1750 C1748 1.394 . S
C1750 C1751 1.369 . S
C1750 C1754 1.531 . S
C1751 C1750 1.369 . S
C1751 C1752 1.410 . S
C1751 C1759 1.503 . S
C1752 C1751 1.410 . S
C1752 C1753 1.392 . S
C1752 C1755 1.511 . S
C1753 C1749 1.376 . S
C1753 C1752 1.392 . S
C1753 H1765 0.929 . S
C1754 C1750 1.531 . S
C1754 H1766 0.960 . S
C1754 H1767 0.962 . S
C1754 H1768 0.960 . S
C1755 C1752 1.511 . S
C1755 H1769 0.961 . S
C1755 H1770 0.961 . S
C1755 H1771 0.961 . S
C1756 C1757 1.370 . S
C1756 C1758 1.363 . S
C1756 H1772 0.931 . S
C1757 C1756 1.370 . S
C1757 C1761 1.408 . S
C1758 C1756 1.363 . S
C1758 C1759 1.370 . S
C1758 C1762 1.524 . S
C1759 C1751 1.503 . S
C1759 C1758 1.370 . S
C1759 C1760 1.403 . S
C1760 C1759 1.403 . S
C1760 C1761 1.404 . S
C1760 C1763 1.539 . S
C1761 C1757 1.408 . S
C1761 C1760 1.404 . S
C1761 H1773 0.930 . S
C1762 C1758 1.524 . S
C1762 H1774 0.956 . S
C1762 H1775 0.961 . S
C1762 H1776 0.961 . S
C1763 C1760 1.539 . S
C1763 H1777 0.958 . S
C1763 H1778 0.961 . S
C1763 H1779 0.960 . S
H1764 C1748 0.931 . S
H1765 C1753 0.929 . S
H1766 C1754 0.960 . S
H1767 C1754 0.962 . S
H1768 C1754 0.960 . S
H1769 C1755 0.961 . S
H1770 C1755 0.961 . S
H1771 C1755 0.961 . S
H1772 C1756 0.931 . S
H1773 C1761 0.930 . S
H1774 C1762 0.956 . S
H1775 C1762 0.961 . S
H1776 C1762 0.961 . S
H1777 C1763 0.958 . S
H1778 C1763 0.961 . S
H1779 C1763 0.960 . S
C1780 C1781 1.391 . S
C1780 C1782 1.394 . S
C1780 H1796 0.931 . S
C1781 C1780 1.391 . S
C1781 C1785 1.376 . S
C1782 C1780 1.394 . S
C1782 C1783 1.369 . S
C1782 C1786 1.531 . S
C1783 C1782 1.369 . S
C1783 C1784 1.410 . S
C1783 C1791 1.503 . S
C1784 C1783 1.410 . S
C1784 C1785 1.392 . S
C1784 C1787 1.511 . S
C1785 C1781 1.376 . S
C1785 C1784 1.392 . S
C1785 H1797 0.929 . S
C1786 C1782 1.531 . S
C1786 H1798 0.960 . S
C1786 H1799 0.962 . S
C1786 H1800 0.960 . S
C1787 C1784 1.511 . S
C1787 H1801 0.961 . S
C1787 H1802 0.961 . S
C1787 H1803 0.961 . S
C1788 C1789 1.370 . S
C1788 C1790 1.363 . S
C1788 H1804 0.931 . S
C1789 C1788 1.370 . S
C1789 C1793 1.408 . S
C1790 C1788 1.363 . S
C1790 C1791 1.370 . S
C1790 C1794 1.524 . S
C1791 C1783 1.503 . S
C1791 C1790 1.370 . S
C1791 C1792 1.403 . S
C1792 C1791 1.403 . S
C1792 C1793 1.404 . S
C1792 C1795 1.539 . S
C1793 C1789 1.408 . S
C1793 C1792 1.404 . S
C1793 H1805 0.930 . S
C1794 C1790 1.524 . S
C1794 H1806 0.956 . S
C1794 H1807 0.961 . S
C1794 H1808 0.961 . S
C1795 C1792 1.539 . S
C1795 H1809 0.958 . S
C1795 H1810 0.961 . S
C1795 H1811 0.960 . S
H1796 C1780 0.931 . S
H1797 C1785 0.929 . S
H1798 C1786 0.960 . S
H1799 C1786 0.962 . S
H1800 C1786 0.960 . S
H1801 C1787 0.961 . S
H1802 C1787 0.961 . S
H1803 C1787 0.961 . S
H1804 C1788 0.931 . S
H1805 C1793 0.930 . S
H1806 C1794 0.956 . S
H1807 C1794 0.961 . S
H1808 C1794 0.961 . S
H1809 C1795 0.958 . S
H1810 C1795 0.961 . S
H1811 C1795 0.960 . S
C1812 C1813 1.391 . S
C1812 C1814 1.394 . S
C1812 H1828 0.931 . S
C1813 C1812 1.391 . S
C1813 C1817 1.376 . S
C1814 C1812 1.394 . S
C1814 C1815 1.369 . S
C1814 C1818 1.531 . S
C1815 C1814 1.369 . S
C1815 C1816 1.410 . S
C1815 C1823 1.503 . S
C1816 C1815 1.410 . S
C1816 C1817 1.392 . S
C1816 C1819 1.511 . S
C1817 C1813 1.376 . S
C1817 C1816 1.392 . S
C1817 H1829 0.929 . S
C1818 C1814 1.531 . S
C1818 H1830 0.960 . S
C1818 H1831 0.962 . S
C1818 H1832 0.960 . S
C1819 C1816 1.511 . S
C1819 H1833 0.961 . S
C1819 H1834 0.961 . S
C1819 H1835 0.961 . S
C1820 C1821 1.370 . S
C1820 C1822 1.363 . S
C1820 H1836 0.931 . S
C1821 C1820 1.370 . S
C1821 C1825 1.408 . S
C1822 C1820 1.363 . S
C1822 C1823 1.370 . S
C1822 C1826 1.524 . S
C1823 C1815 1.503 . S
C1823 C1822 1.370 . S
C1823 C1824 1.403 . S
C1824 C1823 1.403 . S
C1824 C1825 1.404 . S
C1824 C1827 1.539 . S
C1825 C1821 1.408 . S
C1825 C1824 1.404 . S
C1825 H1837 0.930 . S
C1826 C1822 1.524 . S
C1826 H1838 0.956 . S
C1826 H1839 0.961 . S
C1826 H1840 0.961 . S
C1827 C1824 1.539 . S
C1827 H1841 0.958 . S
C1827 H1842 0.961 . S
C1827 H1843 0.960 . S
H1828 C1812 0.931 . S
H1829 C1817 0.929 . S
H1830 C1818 0.960 . S
H1831 C1818 0.962 . S
H1832 C1818 0.960 . S
H1833 C1819 0.961 . S
H1834 C1819 0.961 . S
H1835 C1819 0.961 . S
H1836 C1820 0.931 . S
H1837 C1825 0.930 . S
H1838 C1826 0.956 . S
H1839 C1826 0.961 . S
H1840 C1826 0.961 . S
H1841 C1827 0.958 . S
H1842 C1827 0.961 . S
H1843 C1827 0.960 . S
C1844 C1845 1.391 . S
C1844 C1846 1.394 . S
C1844 H1860 0.931 . S
C1845 C1844 1.391 . S
C1845 C1849 1.376 . S
C1846 C1844 1.394 . S
C1846 C1847 1.369 . S
C1846 C1850 1.531 . S
C1847 C1846 1.369 . S
C1847 C1848 1.410 . S
C1847 C1855 1.503 . S
C1848 C1847 1.410 . S
C1848 C1849 1.392 . S
C1848 C1851 1.511 . S
C1849 C1845 1.376 . S
C1849 C1848 1.392 . S
C1849 H1861 0.929 . S
C1850 C1846 1.531 . S
C1850 H1862 0.960 . S
C1850 H1863 0.962 . S
C1850 H1864 0.960 . S
C1851 C1848 1.511 . S
C1851 H1865 0.961 . S
C1851 H1866 0.961 . S
C1851 H1867 0.961 . S
C1852 C1853 1.370 . S
C1852 C1854 1.363 . S
C1852 H1868 0.931 . S
C1853 C1852 1.370 . S
C1853 C1857 1.408 . S
C1854 C1852 1.363 . S
C1854 C1855 1.370 . S
C1854 C1858 1.524 . S
C1855 C1847 1.503 . S
C1855 C1854 1.370 . S
C1855 C1856 1.403 . S
C1856 C1855 1.403 . S
C1856 C1857 1.404 . S
C1856 C1859 1.539 . S
C1857 C1853 1.408 . S
C1857 C1856 1.404 . S
C1857 H1869 0.930 . S
C1858 C1854 1.524 . S
C1858 H1870 0.956 . S
C1858 H1871 0.961 . S
C1858 H1872 0.961 . S
C1859 C1856 1.539 . S
C1859 H1873 0.958 . S
C1859 H1874 0.961 . S
C1859 H1875 0.960 . S
H1860 C1844 0.931 . S
H1861 C1849 0.929 . S
H1862 C1850 0.960 . S
H1863 C1850 0.962 . S
H1864 C1850 0.960 . S
H1865 C1851 0.961 . S
H1866 C1851 0.961 . S
H1867 C1851 0.961 . S
H1868 C1852 0.931 . S
H1869 C1857 0.930 . S
H1870 C1858 0.956 . S
H1871 C1858 0.961 . S
H1872 C1858 0.961 . S
H1873 C1859 0.958 . S
H1874 C1859 0.961 . S
H1875 C1859 0.960 . S
C1876 C1877 1.391 . S
C1876 C1878 1.394 . S
C1876 H1892 0.931 . S
C1877 C1876 1.391 . S
C1877 C1881 1.376 . S
C1878 C1876 1.394 . S
C1878 C1879 1.369 . S
C1878 C1882 1.531 . S
C1879 C1878 1.369 . S
C1879 C1880 1.410 . S
C1879 C1887 1.503 . S
C1880 C1879 1.410 . S
C1880 C1881 1.392 . S
C1880 C1883 1.511 . S
C1881 C1877 1.376 . S
C1881 C1880 1.392 . S
C1881 H1893 0.929 . S
C1882 C1878 1.531 . S
C1882 H1894 0.960 . S
C1882 H1895 0.962 . S
C1882 H1896 0.960 . S
C1883 C1880 1.511 . S
C1883 H1897 0.961 . S
C1883 H1898 0.961 . S
C1883 H1899 0.961 . S
C1884 C1885 1.370 . S
C1884 C1886 1.363 . S
C1884 H1900 0.931 . S
C1885 C1884 1.370 . S
C1885 C1889 1.408 . S
C1886 C1884 1.363 . S
C1886 C1887 1.370 . S
C1886 C1890 1.524 . S
C1887 C1879 1.503 . S
C1887 C1886 1.370 . S
C1887 C1888 1.403 . S
C1888 C1887 1.403 . S
C1888 C1889 1.404 . S
C1888 C1891 1.539 . S
C1889 C1885 1.408 . S
C1889 C1888 1.404 . S
C1889 H1901 0.930 . S
C1890 C1886 1.524 . S
C1890 H1902 0.956 . S
C1890 H1903 0.961 . S
C1890 H1904 0.961 . S
C1891 C1888 1.539 . S
C1891 H1905 0.958 . S
C1891 H1906 0.961 . S
C1891 H1907 0.960 . S
H1892 C1876 0.931 . S
H1893 C1881 0.929 . S
H1894 C1882 0.960 . S
H1895 C1882 0.962 . S
H1896 C1882 0.960 . S
H1897 C1883 0.961 . S
H1898 C1883 0.961 . S
H1899 C1883 0.961 . S
H1900 C1884 0.931 . S
H1901 C1889 0.930 . S
H1902 C1890 0.956 . S
H1903 C1890 0.961 . S
H1904 C1890 0.961 . S
H1905 C1891 0.958 . S
H1906 C1891 0.961 . S
H1907 C1891 0.960 . S
C1908 C1909 1.391 . S
C1908 C1910 1.394 . S
C1908 H1924 0.931 . S
C1909 C1908 1.391 . S
C1909 C1913 1.376 . S
C1910 C1908 1.394 . S
C1910 C1911 1.369 . S
C1910 C1914 1.531 . S
C1911 C1910 1.369 . S
C1911 C1912 1.410 . S
C1911 C1919 1.503 . S
C1912 C1911 1.410 . S
C1912 C1913 1.392 . S
C1912 C1915 1.511 . S
C1913 C1909 1.376 . S
C1913 C1912 1.392 . S
C1913 H1925 0.929 . S
C1914 C1910 1.531 . S
C1914 H1926 0.960 . S
C1914 H1927 0.962 . S
C1914 H1928 0.960 . S
C1915 C1912 1.511 . S
C1915 H1929 0.961 . S
C1915 H1930 0.961 . S
C1915 H1931 0.961 . S
C1916 C1917 1.370 . S
C1916 C1918 1.363 . S
C1916 H1932 0.931 . S
C1917 C1916 1.370 . S
C1917 C1921 1.408 . S
C1918 C1916 1.363 . S
C1918 C1919 1.370 . S
C1918 C1922 1.524 . S
C1919 C1911 1.503 . S
C1919 C1918 1.370 . S
C1919 C1920 1.403 . S
C1920 C1919 1.403 . S
C1920 C1921 1.404 . S
C1920 C1923 1.539 . S
C1921 C1917 1.408 . S
C1921 C1920 1.404 . S
C1921 H1933 0.930 . S
C1922 C1918 1.524 . S
C1922 H1934 0.956 . S
C1922 H1935 0.961 . S
C1922 H1936 0.961 . S
C1923 C1920 1.539 . S
C1923 H1937 0.958 . S
C1923 H1938 0.961 . S
C1923 H1939 0.960 . S
H1924 C1908 0.931 . S
H1925 C1913 0.929 . S
H1926 C1914 0.960 . S
H1927 C1914 0.962 . S
H1928 C1914 0.960 . S
H1929 C1915 0.961 . S
H1930 C1915 0.961 . S
H1931 C1915 0.961 . S
H1932 C1916 0.931 . S
H1933 C1921 0.930 . S
H1934 C1922 0.956 . S
H1935 C1922 0.961 . S
H1936 C1922 0.961 . S
H1937 C1923 0.958 . S
H1938 C1923 0.961 . S
H1939 C1923 0.960 . S
C1940 C1941 1.391 . S
C1940 C1942 1.394 . S
C1940 H1956 0.931 . S
C1941 C1940 1.391 . S
C1941 C1945 1.376 . S
C1942 C1940 1.394 . S
C1942 C1943 1.369 . S
C1942 C1946 1.531 . S
C1943 C1942 1.369 . S
C1943 C1944 1.410 . S
C1943 C1951 1.503 . S
C1944 C1943 1.410 . S
C1944 C1945 1.392 . S
C1944 C1947 1.511 . S
C1945 C1941 1.376 . S
C1945 C1944 1.392 . S
C1945 H1957 0.929 . S
C1946 C1942 1.531 . S
C1946 H1958 0.960 . S
C1946 H1959 0.962 . S
C1946 H1960 0.960 . S
C1947 C1944 1.511 . S
C1947 H1961 0.961 . S
C1947 H1962 0.961 . S
C1947 H1963 0.961 . S
C1948 C1949 1.370 . S
C1948 C1950 1.363 . S
C1948 H1964 0.931 . S
C1949 C1948 1.370 . S
C1949 C1953 1.408 . S
C1950 C1948 1.363 . S
C1950 C1951 1.370 . S
C1950 C1954 1.524 . S
C1951 C1943 1.503 . S
C1951 C1950 1.370 . S
C1951 C1952 1.403 . S
C1952 C1951 1.403 . S
C1952 C1953 1.404 . S
C1952 C1955 1.539 . S
C1953 C1949 1.408 . S
C1953 C1952 1.404 . S
C1953 H1965 0.930 . S
C1954 C1950 1.524 . S
C1954 H1966 0.956 . S
C1954 H1967 0.961 . S
C1954 H1968 0.961 . S
C1955 C1952 1.539 . S
C1955 H1969 0.958 . S
C1955 H1970 0.961 . S
C1955 H1971 0.960 . S
H1956 C1940 0.931 . S
H1957 C1945 0.929 . S
H1958 C1946 0.960 . S
H1959 C1946 0.962 . S
H1960 C1946 0.960 . S
H1961 C1947 0.961 . S
H1962 C1947 0.961 . S
H1963 C1947 0.961 . S
H1964 C1948 0.931 . S
H1965 C1953 0.930 . S
H1966 C1954 0.956 . S
H1967 C1954 0.961 . S
H1968 C1954 0.961 . S
H1969 C1955 0.958 . S
H1970 C1955 0.961 . S
H1971 C1955 0.960 . S
C1972 C1973 1.391 . S
C1972 C1974 1.394 . S
C1972 H1988 0.931 . S
C1973 C1972 1.391 . S
C1973 C1977 1.376 . S
C1974 C1972 1.394 . S
C1974 C1975 1.369 . S
C1974 C1978 1.531 . S
C1975 C1974 1.369 . S
C1975 C1976 1.410 . S
C1975 C1983 1.503 . S
C1976 C1975 1.410 . S
C1976 C1977 1.392 . S
C1976 C1979 1.511 . S
C1977 C1973 1.376 . S
C1977 C1976 1.392 . S
C1977 H1989 0.929 . S
C1978 C1974 1.531 . S
C1978 H1990 0.960 . S
C1978 H1991 0.962 . S
C1978 H1992 0.960 . S
C1979 C1976 1.511 . S
C1979 H1993 0.961 . S
C1979 H1994 0.961 . S
C1979 H1995 0.961 . S
C1980 C1981 1.370 . S
C1980 C1982 1.363 . S
C1980 H1996 0.931 . S
C1981 C1980 1.370 . S
C1981 C1985 1.408 . S
C1982 C1980 1.363 . S
C1982 C1983 1.370 . S
C1982 C1986 1.524 . S
C1983 C1975 1.503 . S
C1983 C1982 1.370 . S
C1983 C1984 1.403 . S
C1984 C1983 1.403 . S
C1984 C1985 1.404 . S
C1984 C1987 1.539 . S
C1985 C1981 1.408 . S
C1985 C1984 1.404 . S
C1985 H1997 0.930 . S
C1986 C1982 1.524 . S
C1986 H1998 0.956 . S
C1986 H1999 0.961 . S
C1986 H2000 0.961 . S
C1987 C1984 1.539 . S
C1987 H2001 0.958 . S
C1987 H2002 0.961 . S
C1987 H2003 0.960 . S
H1988 C1972 0.931 . S
H1989 C1977 0.929 . S
H1990 C1978 0.960 . S
H1991 C1978 0.962 . S
H1992 C1978 0.960 . S
H1993 C1979 0.961 . S
H1994 C1979 0.961 . S
H1995 C1979 0.961 . S
H1996 C1980 0.931 . S
H1997 C1985 0.930 . S
H1998 C1986 0.956 . S
H1999 C1986 0.961 . S
H2000 C1986 0.961 . S
H2001 C1987 0.958 . S
H2002 C1987 0.961 . S
H2003 C1987 0.960 . S
C2004 C2005 1.391 . S
C2004 C2006 1.394 . S
C2004 H2020 0.931 . S
C2005 C2004 1.391 . S
C2005 C2009 1.376 . S
C2006 C2004 1.394 . S
C2006 C2007 1.369 . S
C2006 C2010 1.531 . S
C2007 C2006 1.369 . S
C2007 C2008 1.410 . S
C2007 C2015 1.503 . S
C2008 C2007 1.410 . S
C2008 C2009 1.392 . S
C2008 C2011 1.511 . S
C2009 C2005 1.376 . S
C2009 C2008 1.392 . S
C2009 H2021 0.929 . S
C2010 C2006 1.531 . S
C2010 H2022 0.960 . S
C2010 H2023 0.962 . S
C2010 H2024 0.960 . S
C2011 C2008 1.511 . S
C2011 H2025 0.961 . S
C2011 H2026 0.961 . S
C2011 H2027 0.961 . S
C2012 C2013 1.370 . S
C2012 C2014 1.363 . S
C2012 H2028 0.931 . S
C2013 C2012 1.370 . S
C2013 C2017 1.408 . S
C2014 C2012 1.363 . S
C2014 C2015 1.370 . S
C2014 C2018 1.524 . S
C2015 C2007 1.503 . S
C2015 C2014 1.370 . S
C2015 C2016 1.403 . S
C2016 C2015 1.403 . S
C2016 C2017 1.404 . S
C2016 C2019 1.539 . S
C2017 C2013 1.408 . S
C2017 C2016 1.404 . S
C2017 H2029 0.930 . S
C2018 C2014 1.524 . S
C2018 H2030 0.956 . S
C2018 H2031 0.961 . S
C2018 H2032 0.961 . S
C2019 C2016 1.539 . S
C2019 H2033 0.958 . S
C2019 H2034 0.961 . S
C2019 H2035 0.960 . S
H2020 C2004 0.931 . S
H2021 C2009 0.929 . S
H2022 C2010 0.960 . S
H2023 C2010 0.962 . S
H2024 C2010 0.960 . S
H2025 C2011 0.961 . S
H2026 C2011 0.961 . S
H2027 C2011 0.961 . S
H2028 C2012 0.931 . S
H2029 C2017 0.930 . S
H2030 C2018 0.956 . S
H2031 C2018 0.961 . S
H2032 C2018 0.961 . S
H2033 C2019 0.958 . S
H2034 C2019 0.961 . S
H2035 C2019 0.960 . S
C2036 C2037 1.391 . S
C2036 C2038 1.394 . S
C2036 H2052 0.931 . S
C2037 C2036 1.391 . S
C2037 C2041 1.376 . S
C2038 C2036 1.394 . S
C2038 C2039 1.369 . S
C2038 C2042 1.531 . S
C2039 C2038 1.369 . S
C2039 C2040 1.410 . S
C2039 C2047 1.503 . S
C2040 C2039 1.410 . S
C2040 C2041 1.392 . S
C2040 C2043 1.511 . S
C2041 C2037 1.376 . S
C2041 C2040 1.392 . S
C2041 H2053 0.929 . S
C2042 C2038 1.531 . S
C2042 H2054 0.960 . S
C2042 H2055 0.962 . S
C2042 H2056 0.960 . S
C2043 C2040 1.511 . S
C2043 H2057 0.961 . S
C2043 H2058 0.961 . S
C2043 H2059 0.961 . S
C2044 C2045 1.370 . S
C2044 C2046 1.363 . S
C2044 H2060 0.931 . S
C2045 C2044 1.370 . S
C2045 C2049 1.408 . S
C2046 C2044 1.363 . S
C2046 C2047 1.370 . S
C2046 C2050 1.524 . S
C2047 C2039 1.503 . S
C2047 C2046 1.370 . S
C2047 C2048 1.403 . S
C2048 C2047 1.403 . S
C2048 C2049 1.404 . S
C2048 C2051 1.539 . S
C2049 C2045 1.408 . S
C2049 C2048 1.404 . S
C2049 H2061 0.930 . S
C2050 C2046 1.524 . S
C2050 H2062 0.956 . S
C2050 H2063 0.961 . S
C2050 H2064 0.961 . S
C2051 C2048 1.539 . S
C2051 H2065 0.958 . S
C2051 H2066 0.961 . S
C2051 H2067 0.960 . S
H2052 C2036 0.931 . S
H2053 C2041 0.929 . S
H2054 C2042 0.960 . S
H2055 C2042 0.962 . S
H2056 C2042 0.960 . S
H2057 C2043 0.961 . S
H2058 C2043 0.961 . S
H2059 C2043 0.961 . S
H2060 C2044 0.931 . S
H2061 C2049 0.930 . S
H2062 C2050 0.956 . S
H2063 C2050 0.961 . S
H2064 C2050 0.961 . S
H2065 C2051 0.958 . S
H2066 C2051 0.961 . S
H2067 C2051 0.960 . S
C2068 C2069 1.391 . S
C2068 C2070 1.394 . S
C2068 H2084 0.931 . S
C2069 C2068 1.391 . S
C2069 C2073 1.376 . S
C2070 C2068 1.394 . S
C2070 C2071 1.369 . S
C2070 C2074 1.531 . S
C2071 C2070 1.369 . S
C2071 C2072 1.410 . S
C2071 C2079 1.503 . S
C2072 C2071 1.410 . S
C2072 C2073 1.392 . S
C2072 C2075 1.511 . S
C2073 C2069 1.376 . S
C2073 C2072 1.392 . S
C2073 H2085 0.929 . S
C2074 C2070 1.531 . S
C2074 H2086 0.960 . S
C2074 H2087 0.962 . S
C2074 H2088 0.960 . S
C2075 C2072 1.511 . S
C2075 H2089 0.961 . S
C2075 H2090 0.961 . S
C2075 H2091 0.961 . S
C2076 C2077 1.370 . S
C2076 C2078 1.363 . S
C2076 H2092 0.931 . S
C2077 C2076 1.370 . S
C2077 C2081 1.408 . S
C2078 C2076 1.363 . S
C2078 C2079 1.370 . S
C2078 C2082 1.524 . S
C2079 C2071 1.503 . S
C2079 C2078 1.370 . S
C2079 C2080 1.403 . S
C2080 C2079 1.403 . S
C2080 C2081 1.404 . S
C2080 C2083 1.539 . S
C2081 C2077 1.408 . S
C2081 C2080 1.404 . S
C2081 H2093 0.930 . S
C2082 C2078 1.524 . S
C2082 H2094 0.956 . S
C2082 H2095 0.961 . S
C2082 H2096 0.961 . S
C2083 C2080 1.539 . S
C2083 H2097 0.958 . S
C2083 H2098 0.961 . S
C2083 H2099 0.960 . S
H2084 C2068 0.931 . S
H2085 C2073 0.929 . S
H2086 C2074 0.960 . S
H2087 C2074 0.962 . S
H2088 C2074 0.960 . S
H2089 C2075 0.961 . S
H2090 C2075 0.961 . S
H2091 C2075 0.961 . S
H2092 C2076 0.931 . S
H2093 C2081 0.930 . S
H2094 C2082 0.956 . S
H2095 C2082 0.961 . S
H2096 C2082 0.961 . S
H2097 C2083 0.958 . S
H2098 C2083 0.961 . S
H2099 C2083 0.960 . S
C2100 C2101 1.391 . S
C2100 C2102 1.394 . S
C2100 H2116 0.931 . S
C2101 C2100 1.391 . S
C2101 C2105 1.376 . S
C2102 C2100 1.394 . S
C2102 C2103 1.369 . S
C2102 C2106 1.531 . S
C2103 C2102 1.369 . S
C2103 C2104 1.410 . S
C2103 C2111 1.503 . S
C2104 C2103 1.410 . S
C2104 C2105 1.392 . S
C2104 C2107 1.511 . S
C2105 C2101 1.376 . S
C2105 C2104 1.392 . S
C2105 H2117 0.929 . S
C2106 C2102 1.531 . S
C2106 H2118 0.960 . S
C2106 H2119 0.962 . S
C2106 H2120 0.960 . S
C2107 C2104 1.511 . S
C2107 H2121 0.961 . S
C2107 H2122 0.961 . S
C2107 H2123 0.961 . S
C2108 C2109 1.370 . S
C2108 C2110 1.363 . S
C2108 H2124 0.931 . S
C2109 C2108 1.370 . S
C2109 C2113 1.408 . S
C2110 C2108 1.363 . S
C2110 C2111 1.370 . S
C2110 C2114 1.524 . S
C2111 C2103 1.503 . S
C2111 C2110 1.370 . S
C2111 C2112 1.403 . S
C2112 C2111 1.403 . S
C2112 C2113 1.404 . S
C2112 C2115 1.539 . S
C2113 C2109 1.408 . S
C2113 C2112 1.404 . S
C2113 H2125 0.930 . S
C2114 C2110 1.524 . S
C2114 H2126 0.956 . S
C2114 H2127 0.961 . S
C2114 H2128 0.961 . S
C2115 C2112 1.539 . S
C2115 H2129 0.958 . S
C2115 H2130 0.961 . S
C2115 H2131 0.960 . S
H2116 C2100 0.931 . S
H2117 C2105 0.929 . S
H2118 C2106 0.960 . S
H2119 C2106 0.962 . S
H2120 C2106 0.960 . S
H2121 C2107 0.961 . S
H2122 C2107 0.961 . S
H2123 C2107 0.961 . S
H2124 C2108 0.931 . S
H2125 C2113 0.930 . S
H2126 C2114 0.956 . S
H2127 C2114 0.961 . S
H2128 C2114 0.961 . S
H2129 C2115 0.958 . S
H2130 C2115 0.961 . S
H2131 C2115 0.960 . S
C2132 C2133 1.391 . S
C2132 C2134 1.394 . S
C2132 H2148 0.931 . S
C2133 C2132 1.391 . S
C2133 C2137 1.376 . S
C2134 C2132 1.394 . S
C2134 C2135 1.369 . S
C2134 C2138 1.531 . S
C2135 C2134 1.369 . S
C2135 C2136 1.410 . S
C2135 C2143 1.503 . S
C2136 C2135 1.410 . S
C2136 C2137 1.392 . S
C2136 C2139 1.511 . S
C2137 C2133 1.376 . S
C2137 C2136 1.392 . S
C2137 H2149 0.929 . S
C2138 C2134 1.531 . S
C2138 H2150 0.960 . S
C2138 H2151 0.962 . S
C2138 H2152 0.960 . S
C2139 C2136 1.511 . S
C2139 H2153 0.961 . S
C2139 H2154 0.961 . S
C2139 H2155 0.961 . S
C2140 C2141 1.370 . S
C2140 C2142 1.363 . S
C2140 H2156 0.931 . S
C2141 C2140 1.370 . S
C2141 C2145 1.408 . S
C2142 C2140 1.363 . S
C2142 C2143 1.370 . S
C2142 C2146 1.524 . S
C2143 C2135 1.503 . S
C2143 C2142 1.370 . S
C2143 C2144 1.403 . S
C2144 C2143 1.403 . S
C2144 C2145 1.404 . S
C2144 C2147 1.539 . S
C2145 C2141 1.408 . S
C2145 C2144 1.404 . S
C2145 H2157 0.930 . S
C2146 C2142 1.524 . S
C2146 H2158 0.956 . S
C2146 H2159 0.961 . S
C2146 H2160 0.961 . S
C2147 C2144 1.539 . S
C2147 H2161 0.958 . S
C2147 H2162 0.961 . S
C2147 H2163 0.960 . S
H2148 C2132 0.931 . S
H2149 C2137 0.929 . S
H2150 C2138 0.960 . S
H2151 C2138 0.962 . S
H2152 C2138 0.960 . S
H2153 C2139 0.961 . S
H2154 C2139 0.961 . S
H2155 C2139 0.961 . S
H2156 C2140 0.931 . S
H2157 C2145 0.930 . S
H2158 C2146 0.956 . S
H2159 C2146 0.961 . S
H2160 C2146 0.961 . S
H2161 C2147 0.958 . S
H2162 C2147 0.961 . S
H2163 C2147 0.960 . S
C2164 C2165 1.391 . S
C2164 C2166 1.394 . S
C2164 H2180 0.931 . S
C2165 C2164 1.391 . S
C2165 C2169 1.376 . S
C2166 C2164 1.394 . S
C2166 C2167 1.369 . S
C2166 C2170 1.531 . S
C2167 C2166 1.369 . S
C2167 C2168 1.410 . S
C2167 C2175 1.503 . S
C2168 C2167 1.410 . S
C2168 C2169 1.392 . S
C2168 C2171 1.511 . S
C2169 C2165 1.376 . S
C2169 C2168 1.392 . S
C2169 H2181 0.929 . S
C2170 C2166 1.531 . S
C2170 H2182 0.960 . S
C2170 H2183 0.962 . S
C2170 H2184 0.960 . S
C2171 C2168 1.511 . S
C2171 H2185 0.961 . S
C2171 H2186 0.961 . S
C2171 H2187 0.961 . S
C2172 C2173 1.370 . S
C2172 C2174 1.363 . S
C2172 H2188 0.931 . S
C2173 C2172 1.370 . S
C2173 C2177 1.408 . S
C2174 C2172 1.363 . S
C2174 C2175 1.370 . S
C2174 C2178 1.524 . S
C2175 C2167 1.503 . S
C2175 C2174 1.370 . S
C2175 C2176 1.403 . S
C2176 C2175 1.403 . S
C2176 C2177 1.404 . S
C2176 C2179 1.539 . S
C2177 C2173 1.408 . S
C2177 C2176 1.404 . S
C2177 H2189 0.930 . S
C2178 C2174 1.524 . S
C2178 H2190 0.956 . S
C2178 H2191 0.961 . S
C2178 H2192 0.961 . S
C2179 C2176 1.539 . S
C2179 H2193 0.958 . S
C2179 H2194 0.961 . S
C2179 H2195 0.960 . S
H2180 C2164 0.931 . S
H2181 C2169 0.929 . S
H2182 C2170 0.960 . S
H2183 C2170 0.962 . S
H2184 C2170 0.960 . S
H2185 C2171 0.961 . S
H2186 C2171 0.961 . S
H2187 C2171 0.961 . S
H2188 C2172 0.931 . S
H2189 C2177 0.930 . S
H2190 C2178 0.956 . S
H2191 C2178 0.961 . S
H2192 C2178 0.961 . S
H2193 C2179 0.958 . S
H2194 C2179 0.961 . S
H2195 C2179 0.960 . S
C2196 C2197 1.391 . S
C2196 C2198 1.394 . S
C2196 H2212 0.931 . S
C2197 C2196 1.391 . S
C2197 C2201 1.376 . S
C2198 C2196 1.394 . S
C2198 C2199 1.369 . S
C2198 C2202 1.531 . S
C2199 C2198 1.369 . S
C2199 C2200 1.410 . S
C2199 C2207 1.503 . S
C2200 C2199 1.410 . S
C2200 C2201 1.392 . S
C2200 C2203 1.511 . S
C2201 C2197 1.376 . S
C2201 C2200 1.392 . S
C2201 H2213 0.929 . S
C2202 C2198 1.531 . S
C2202 H2214 0.960 . S
C2202 H2215 0.962 . S
C2202 H2216 0.960 . S
C2203 C2200 1.511 . S
C2203 H2217 0.961 . S
C2203 H2218 0.961 . S
C2203 H2219 0.961 . S
C2204 C2205 1.370 . S
C2204 C2206 1.363 . S
C2204 H2220 0.931 . S
C2205 C2204 1.370 . S
C2205 C2209 1.408 . S
C2206 C2204 1.363 . S
C2206 C2207 1.370 . S
C2206 C2210 1.524 . S
C2207 C2199 1.503 . S
C2207 C2206 1.370 . S
C2207 C2208 1.403 . S
C2208 C2207 1.403 . S
C2208 C2209 1.404 . S
C2208 C2211 1.539 . S
C2209 C2205 1.408 . S
C2209 C2208 1.404 . S
C2209 H2221 0.930 . S
C2210 C2206 1.524 . S
C2210 H2222 0.956 . S
C2210 H2223 0.961 . S
C2210 H2224 0.961 . S
C2211 C2208 1.539 . S
C2211 H2225 0.958 . S
C2211 H2226 0.961 . S
C2211 H2227 0.960 . S
H2212 C2196 0.931 . S
H2213 C2201 0.929 . S
H2214 C2202 0.960 . S
H2215 C2202 0.962 . S
H2216 C2202 0.960 . S
H2217 C2203 0.961 . S
H2218 C2203 0.961 . S
H2219 C2203 0.961 . S
H2220 C2204 0.931 . S
H2221 C2209 0.930 . S
H2222 C2210 0.956 . S
H2223 C2210 0.961 . S
H2224 C2210 0.961 . S
H2225 C2211 0.958 . S
H2226 C2211 0.961 . S
H2227 C2211 0.960 . S
C2228 C2229 1.391 . S
C2228 C2230 1.394 . S
C2228 H2244 0.931 . S
C2229 C2228 1.391 . S
C2229 C2233 1.376 . S
C2230 C2228 1.394 . S
C2230 C2231 1.369 . S
C2230 C2234 1.531 . S
C2231 C2230 1.369 . S
C2231 C2232 1.410 . S
C2231 C2239 1.503 . S
C2232 C2231 1.410 . S
C2232 C2233 1.392 . S
C2232 C2235 1.511 . S
C2233 C2229 1.376 . S
C2233 C2232 1.392 . S
C2233 H2245 0.929 . S
C2234 C2230 1.531 . S
C2234 H2246 0.960 . S
C2234 H2247 0.962 . S
C2234 H2248 0.960 . S
C2235 C2232 1.511 . S
C2235 H2249 0.961 . S
C2235 H2250 0.961 . S
C2235 H2251 0.961 . S
C2236 C2237 1.370 . S
C2236 C2238 1.363 . S
C2236 H2252 0.931 . S
C2237 C2236 1.370 . S
C2237 C2241 1.408 . S
C2238 C2236 1.363 . S
C2238 C2239 1.370 . S
C2238 C2242 1.524 . S
C2239 C2231 1.503 . S
C2239 C2238 1.370 . S
C2239 C2240 1.403 . S
C2240 C2239 1.403 . S
C2240 C2241 1.404 . S
C2240 C2243 1.539 . S
C2241 C2237 1.408 . S
C2241 C2240 1.404 . S
C2241 H2253 0.930 . S
C2242 C2238 1.524 . S
C2242 H2254 0.956 . S
C2242 H2255 0.961 . S
C2242 H2256 0.961 . S
C2243 C2240 1.539 . S
C2243 H2257 0.958 . S
C2243 H2258 0.961 . S
C2243 H2259 0.960 . S
H2244 C2228 0.931 . S
H2245 C2233 0.929 . S
H2246 C2234 0.960 . S
H2247 C2234 0.962 . S
H2248 C2234 0.960 . S
H2249 C2235 0.961 . S
H2250 C2235 0.961 . S
H2251 C2235 0.961 . S
H2252 C2236 0.931 . S
H2253 C2241 0.930 . S
H2254 C2242 0.956 . S
H2255 C2242 0.961 . S
H2256 C2242 0.961 . S
H2257 C2243 0.958 . S
H2258 C2243 0.961 . S
H2259 C2243 0.960 . S
C2260 C2261 1.391 . S
C2260 C2262 1.394 . S
C2260 H2276 0.931 . S
C2261 C2260 1.391 . S
C2261 C2265 1.376 . S
C2262 C2260 1.394 . S
C2262 C2263 1.369 . S
C2262 C2266 1.531 . S
C2263 C2262 1.369 . S
C2263 C2264 1.410 . S
C2263 C2271 1.503 . S
C2264 C2263 1.410 . S
C2264 C2265 1.392 . S
C2264 C2267 1.511 . S
C2265 C2261 1.376 . S
C2265 C2264 1.392 . S
C2265 H2277 0.929 . S
C2266 C2262 1.531 . S
C2266 H2278 0.960 . S
C2266 H2279 0.962 . S
C2266 H2280 0.960 . S
C2267 C2264 1.511 . S
C2267 H2281 0.961 . S
C2267 H2282 0.961 . S
C2267 H2283 0.961 . S
C2268 C2269 1.370 . S
C2268 C2270 1.363 . S
C2268 H2284 0.931 . S
C2269 C2268 1.370 . S
C2269 C2273 1.408 . S
C2270 C2268 1.363 . S
C2270 C2271 1.370 . S
C2270 C2274 1.524 . S
C2271 C2263 1.503 . S
C2271 C2270 1.370 . S
C2271 C2272 1.403 . S
C2272 C2271 1.403 . S
C2272 C2273 1.404 . S
C2272 C2275 1.539 . S
C2273 C2269 1.408 . S
C2273 C2272 1.404 . S
C2273 H2285 0.930 . S
C2274 C2270 1.524 . S
C2274 H2286 0.956 . S
C2274 H2287 0.961 . S
C2274 H2288 0.961 . S
C2275 C2272 1.539 . S
C2275 H2289 0.958 . S
C2275 H2290 0.961 . S
C2275 H2291 0.960 . S
H2276 C2260 0.931 . S
H2277 C2265 0.929 . S
H2278 C2266 0.960 . S
H2279 C2266 0.962 . S
H2280 C2266 0.960 . S
H2281 C2267 0.961 . S
H2282 C2267 0.961 . S
H2283 C2267 0.961 . S
H2284 C2268 0.931 . S
H2285 C2273 0.930 . S
H2286 C2274 0.956 . S
H2287 C2274 0.961 . S
H2288 C2274 0.961 . S
H2289 C2275 0.958 . S
H2290 C2275 0.961 . S
H2291 C2275 0.960 . S
C2292 C2293 1.391 . S
C2292 C2294 1.394 . S
C2292 H2308 0.931 . S
C2293 C2292 1.391 . S
C2293 C2297 1.376 . S
C2294 C2292 1.394 . S
C2294 C2295 1.369 . S
C2294 C2298 1.531 . S
C2295 C2294 1.369 . S
C2295 C2296 1.410 . S
C2295 C2303 1.503 . S
C2296 C2295 1.410 . S
C2296 C2297 1.392 . S
C2296 C2299 1.511 . S
C2297 C2293 1.376 . S
C2297 C2296 1.392 . S
C2297 H2309 0.929 . S
C2298 C2294 1.531 . S
C2298 H2310 0.960 . S
C2298 H2311 0.962 . S
C2298 H2312 0.960 . S
C2299 C2296 1.511 . S
C2299 H2313 0.961 . S
C2299 H2314 0.961 . S
C2299 H2315 0.961 . S
C2300 C2301 1.370 . S
C2300 C2302 1.363 . S
C2300 H2316 0.931 . S
C2301 C2300 1.370 . S
C2301 C2305 1.408 . S
C2302 C2300 1.363 . S
C2302 C2303 1.370 . S
C2302 C2306 1.524 . S
C2303 C2295 1.503 . S
C2303 C2302 1.370 . S
C2303 C2304 1.403 . S
C2304 C2303 1.403 . S
C2304 C2305 1.404 . S
C2304 C2307 1.539 . S
C2305 C2301 1.408 . S
C2305 C2304 1.404 . S
C2305 H2317 0.930 . S
C2306 C2302 1.524 . S
C2306 H2318 0.956 . S
C2306 H2319 0.961 . S
C2306 H2320 0.961 . S
C2307 C2304 1.539 . S
C2307 H2321 0.958 . S
C2307 H2322 0.961 . S
C2307 H2323 0.960 . S
H2308 C2292 0.931 . S
H2309 C2297 0.929 . S
H2310 C2298 0.960 . S
H2311 C2298 0.962 . S
H2312 C2298 0.960 . S
H2313 C2299 0.961 . S
H2314 C2299 0.961 . S
H2315 C2299 0.961 . S
H2316 C2300 0.931 . S
H2317 C2305 0.930 . S
H2318 C2306 0.956 . S
H2319 C2306 0.961 . S
H2320 C2306 0.961 . S
H2321 C2307 0.958 . S
H2322 C2307 0.961 . S
H2323 C2307 0.960 . S
C2324 C2325 1.391 . S
C2324 C2326 1.394 . S
C2324 H2340 0.931 . S
C2325 C2324 1.391 . S
C2325 C2329 1.376 . S
C2326 C2324 1.394 . S
C2326 C2327 1.369 . S
C2326 C2330 1.531 . S
C2327 C2326 1.369 . S
C2327 C2328 1.410 . S
C2327 C2335 1.503 . S
C2328 C2327 1.410 . S
C2328 C2329 1.392 . S
C2328 C2331 1.511 . S
C2329 C2325 1.376 . S
C2329 C2328 1.392 . S
C2329 H2341 0.929 . S
C2330 C2326 1.531 . S
C2330 H2342 0.960 . S
C2330 H2343 0.962 . S
C2330 H2344 0.960 . S
C2331 C2328 1.511 . S
C2331 H2345 0.961 . S
C2331 H2346 0.961 . S
C2331 H2347 0.961 . S
C2332 C2333 1.370 . S
C2332 C2334 1.363 . S
C2332 H2348 0.931 . S
C2333 C2332 1.370 . S
C2333 C2337 1.408 . S
C2334 C2332 1.363 . S
C2334 C2335 1.370 . S
C2334 C2338 1.524 . S
C2335 C2327 1.503 . S
C2335 C2334 1.370 . S
C2335 C2336 1.403 . S
C2336 C2335 1.403 . S
C2336 C2337 1.404 . S
C2336 C2339 1.539 . S
C2337 C2333 1.408 . S
C2337 C2336 1.404 . S
C2337 H2349 0.930 . S
C2338 C2334 1.524 . S
C2338 H2350 0.956 . S
C2338 H2351 0.961 . S
C2338 H2352 0.961 . S
C2339 C2336 1.539 . S
C2339 H2353 0.958 . S
C2339 H2354 0.961 . S
C2339 H2355 0.960 . S
H2340 C2324 0.931 . S
H2341 C2329 0.929 . S
H2342 C2330 0.960 . S
H2343 C2330 0.962 . S
H2344 C2330 0.960 . S
H2345 C2331 0.961 . S
H2346 C2331 0.961 . S
H2347 C2331 0.961 . S
H2348 C2332 0.931 . S
H2349 C2337 0.930 . S
H2350 C2338 0.956 . S
H2351 C2338 0.961 . S
H2352 C2338 0.961 . S
H2353 C2339 0.958 . S
H2354 C2339 0.961 . S
H2355 C2339 0.960 . S
C2356 C2357 1.391 . S
C2356 C2358 1.394 . S
C2356 H2372 0.931 . S
C2357 C2356 1.391 . S
C2357 C2361 1.376 . S
C2358 C2356 1.394 . S
C2358 C2359 1.369 . S
C2358 C2362 1.531 . S
C2359 C2358 1.369 . S
C2359 C2360 1.410 . S
C2359 C2367 1.503 . S
C2360 C2359 1.410 . S
C2360 C2361 1.392 . S
C2360 C2363 1.511 . S
C2361 C2357 1.376 . S
C2361 C2360 1.392 . S
C2361 H2373 0.929 . S
C2362 C2358 1.531 . S
C2362 H2374 0.960 . S
C2362 H2375 0.962 . S
C2362 H2376 0.960 . S
C2363 C2360 1.511 . S
C2363 H2377 0.961 . S
C2363 H2378 0.961 . S
C2363 H2379 0.961 . S
C2364 C2365 1.370 . S
C2364 C2366 1.363 . S
C2364 H2380 0.931 . S
C2365 C2364 1.370 . S
C2365 C2369 1.408 . S
C2366 C2364 1.363 . S
C2366 C2367 1.370 . S
C2366 C2370 1.524 . S
C2367 C2359 1.503 . S
C2367 C2366 1.370 . S
C2367 C2368 1.403 . S
C2368 C2367 1.403 . S
C2368 C2369 1.404 . S
C2368 C2371 1.539 . S
C2369 C2365 1.408 . S
C2369 C2368 1.404 . S
C2369 H2381 0.930 . S
C2370 C2366 1.524 . S
C2370 H2382 0.956 . S
C2370 H2383 0.961 . S
C2370 H2384 0.961 . S
C2371 C2368 1.539 . S
C2371 H2385 0.958 . S
C2371 H2386 0.961 . S
C2371 H2387 0.960 . S
H2372 C2356 0.931 . S
H2373 C2361 0.929 . S
H2374 C2362 0.960 . S
H2375 C2362 0.962 . S
H2376 C2362 0.960 . S
H2377 C2363 0.961 . S
H2378 C2363 0.961 . S
H2379 C2363 0.961 . S
H2380 C2364 0.931 . S
H2381 C2369 0.930 . S
H2382 C2370 0.956 . S
H2383 C2370 0.961 . S
H2384 C2370 0.961 . S
H2385 C2371 0.958 . S
H2386 C2371 0.961 . S
H2387 C2371 0.960 . S
C2388 C2389 1.391 . S
C2388 C2390 1.394 . S
C2388 H2404 0.931 . S
C2389 C2388 1.391 . S
C2389 C2393 1.376 . S
C2390 C2388 1.394 . S
C2390 C2391 1.369 . S
C2390 C2394 1.531 . S
C2391 C2390 1.369 . S
C2391 C2392 1.410 . S
C2391 C2399 1.503 . S
C2392 C2391 1.410 . S
C2392 C2393 1.392 . S
C2392 C2395 1.511 . S
C2393 C2389 1.376 . S
C2393 C2392 1.392 . S
C2393 H2405 0.929 . S
C2394 C2390 1.531 . S
C2394 H2406 0.960 . S
C2394 H2407 0.962 . S
C2394 H2408 0.960 . S
C2395 C2392 1.511 . S
C2395 H2409 0.961 . S
C2395 H2410 0.961 . S
C2395 H2411 0.961 . S
C2396 C2397 1.370 . S
C2396 C2398 1.363 . S
C2396 H2412 0.931 . S
C2397 C2396 1.370 . S
C2397 C2401 1.408 . S
C2398 C2396 1.363 . S
C2398 C2399 1.370 . S
C2398 C2402 1.524 . S
C2399 C2391 1.503 . S
C2399 C2398 1.370 . S
C2399 C2400 1.403 . S
C2400 C2399 1.403 . S
C2400 C2401 1.404 . S
C2400 C2403 1.539 . S
C2401 C2397 1.408 . S
C2401 C2400 1.404 . S
C2401 H2413 0.930 . S
C2402 C2398 1.524 . S
C2402 H2414 0.956 . S
C2402 H2415 0.961 . S
C2402 H2416 0.961 . S
C2403 C2400 1.539 . S
C2403 H2417 0.958 . S
C2403 H2418 0.961 . S
C2403 H2419 0.960 . S
H2404 C2388 0.931 . S
H2405 C2393 0.929 . S
H2406 C2394 0.960 . S
H2407 C2394 0.962 . S
H2408 C2394 0.960 . S
H2409 C2395 0.961 . S
H2410 C2395 0.961 . S
H2411 C2395 0.961 . S
H2412 C2396 0.931 . S
H2413 C2401 0.930 . S
H2414 C2402 0.956 . S
H2415 C2402 0.961 . S
H2416 C2402 0.961 . S
H2417 C2403 0.958 . S
H2418 C2403 0.961 . S
H2419 C2403 0.960 . S
C2420 C2421 1.391 . S
C2420 C2422 1.394 . S
C2420 H2436 0.931 . S
C2421 C2420 1.391 . S
C2421 C2425 1.376 . S
C2422 C2420 1.394 . S
C2422 C2423 1.369 . S
C2422 C2426 1.531 . S
C2423 C2422 1.369 . S
C2423 C2424 1.410 . S
C2423 C2431 1.503 . S
C2424 C2423 1.410 . S
C2424 C2425 1.392 . S
C2424 C2427 1.511 . S
C2425 C2421 1.376 . S
C2425 C2424 1.392 . S
C2425 H2437 0.929 . S
C2426 C2422 1.531 . S
C2426 H2438 0.960 . S
C2426 H2439 0.962 . S
C2426 H2440 0.960 . S
C2427 C2424 1.511 . S
C2427 H2441 0.961 . S
C2427 H2442 0.961 . S
C2427 H2443 0.961 . S
C2428 C2429 1.370 . S
C2428 C2430 1.363 . S
C2428 H2444 0.931 . S
C2429 C2428 1.370 . S
C2429 C2433 1.408 . S
C2430 C2428 1.363 . S
C2430 C2431 1.370 . S
C2430 C2434 1.524 . S
C2431 C2423 1.503 . S
C2431 C2430 1.370 . S
C2431 C2432 1.403 . S
C2432 C2431 1.403 . S
C2432 C2433 1.404 . S
C2432 C2435 1.539 . S
C2433 C2429 1.408 . S
C2433 C2432 1.404 . S
C2433 H2445 0.930 . S
C2434 C2430 1.524 . S
C2434 H2446 0.956 . S
C2434 H2447 0.961 . S
C2434 H2448 0.961 . S
C2435 C2432 1.539 . S
C2435 H2449 0.958 . S
C2435 H2450 0.961 . S
C2435 H2451 0.960 . S
H2436 C2420 0.931 . S
H2437 C2425 0.929 . S
H2438 C2426 0.960 . S
H2439 C2426 0.962 . S
H2440 C2426 0.960 . S
H2441 C2427 0.961 . S
H2442 C2427 0.961 . S
H2443 C2427 0.961 . S
H2444 C2428 0.931 . S
H2445 C2433 0.930 . S
H2446 C2434 0.956 . S
H2447 C2434 0.961 . S
H2448 C2434 0.961 . S
H2449 C2435 0.958 . S
H2450 C2435 0.961 . S
H2451 C2435 0.960 . S
C2452 C2453 1.391 . S
C2452 C2454 1.394 . S
C2452 H2468 0.931 . S
C2453 C2452 1.391 . S
C2453 C2457 1.376 . S
C2454 C2452 1.394 . S
C2454 C2455 1.369 . S
C2454 C2458 1.531 . S
C2455 C2454 1.369 . S
C2455 C2456 1.410 . S
C2455 C2463 1.503 . S
C2456 C2455 1.410 . S
C2456 C2457 1.392 . S
C2456 C2459 1.511 . S
C2457 C2453 1.376 . S
C2457 C2456 1.392 . S
C2457 H2469 0.929 . S
C2458 C2454 1.531 . S
C2458 H2470 0.960 . S
C2458 H2471 0.962 . S
C2458 H2472 0.960 . S
C2459 C2456 1.511 . S
C2459 H2473 0.961 . S
C2459 H2474 0.961 . S
C2459 H2475 0.961 . S
C2460 C2461 1.370 . S
C2460 C2462 1.363 . S
C2460 H2476 0.931 . S
C2461 C2460 1.370 . S
C2461 C2465 1.408 . S
C2462 C2460 1.363 . S
C2462 C2463 1.370 . S
C2462 C2466 1.524 . S
C2463 C2455 1.503 . S
C2463 C2462 1.370 . S
C2463 C2464 1.403 . S
C2464 C2463 1.403 . S
C2464 C2465 1.404 . S
C2464 C2467 1.539 . S
C2465 C2461 1.408 . S
C2465 C2464 1.404 . S
C2465 H2477 0.930 . S
C2466 C2462 1.524 . S
C2466 H2478 0.956 . S
C2466 H2479 0.961 . S
C2466 H2480 0.961 . S
C2467 C2464 1.539 . S
C2467 H2481 0.958 . S
C2467 H2482 0.961 . S
C2467 H2483 0.960 . S
H2468 C2452 0.931 . S
H2469 C2457 0.929 . S
H2470 C2458 0.960 . S
H2471 C2458 0.962 . S
H2472 C2458 0.960 . S
H2473 C2459 0.961 . S
H2474 C2459 0.961 . S
H2475 C2459 0.961 . S
H2476 C2460 0.931 . S
H2477 C2465 0.930 . S
H2478 C2466 0.956 . S
H2479 C2466 0.961 . S
H2480 C2466 0.961 . S
H2481 C2467 0.958 . S
H2482 C2467 0.961 . S
H2483 C2467 0.960 . S
C957 C334 1.181 . S
C949 N2 1.336 . S
C989 C434 2.156 . S
C981 C7 2.146 . S
C1021 C514 1.186 . S
C1013 N12 1.348 . S
C1045 C16 1.944 . S
C1053 C591 1.959 . S
C1085 C675 2.192 . S
C1077 C30 2.179 1_565 S
C1117 C754 1.095 . S
C1109 N35 1.281 . S
C1141 C39 2.043 . S
C1149 C854 2.023 . S
C1181 C934 1.129 . S
C1173 N25 1.234 . S
C1213 C332 1.107 . S
C1205 N58 1.151 . S
C1237 N81 1.848 . S
C1245 C427 1.871 . S
C1277 C518 1.177 . S
C1269 N104 1.080 . S
C1301 N127 1.179 . S
C1309 C586 0.921 . S
C1341 C670 0.758 . S
C1333 N48 0.879 . S
C1373 C752 1.451 . S
C1365 N71 1.371 1_556 S
C1397 N94 1.412 . S
C1405 C847 1.437 . S
C1437 C938 1.539 . S
C1429 N117 1.501 . S
C1461 C85 2.112 . S
C1469 C339 2.122 . S
C1493 C122 2.375 . S
C1501 C668 2.351 . S
C1525 C53 1.772 . S
C1533 C759 1.804 . S
C1565 C850 1.203 . S
C1557 C76 1.489 1_655 S
C1597 C931 1.733 . S
C1589 C99 1.812 . S
C1629 C511 1.921 . S
C1621 C131 1.935 . S
C1661 C584 1.910 . S
C1653 C62 1.938 1_565 S
C1685 C108 1.176 . S
C1693 C430 0.968 . S
C1725 C922 1.227 . S
C1717 N140 1.400 . S
C1749 C145 2.142 . S
C1757 C686 2.145 . S
C1789 C766 1.130 . S
C1781 N150 1.233 . S
C1813 C154 1.926 . S
C1821 C843 1.966 . S
C1853 C423 2.190 . S
C1845 C168 2.185 . S
C1877 N173 1.175 . S
C1885 C502 0.983 . S
C1917 C602 2.039 . S
C1909 C177 2.042 . S
C1949 C346 1.142 . S
C1941 N163 1.232 . S
C1981 C920 1.541 . S
C1973 C200 1.551 . S
C2013 C679 2.170 . S
C2005 N219 2.153 . S
C2037 N242 1.380 . S
C2045 C770 1.466 . S
C2077 C838 1.143 . S
C2069 C269 1.464 . S
C2109 C418 0.950 . S
C2101 C191 1.126 . S
C2133 N209 1.690 . S
C2141 C500 1.730 . S
C2165 N232 1.740 . S
C2173 C595 1.743 . S
C2197 C260 2.017 . S
C2205 C350 2.022 . S
C2229 C223 1.793 . S
C2237 C927 1.799 . S
C2261 N255 1.948 . S
C2269 C416 1.954 . S
C2293 N186 1.386 . S
C2301 C507 1.409 . S
C2333 C598 0.980 . S
C2325 C214 1.165 . S
C2365 C343 1.433 . S
C2357 C237 1.514 . S
C2397 C763 1.501 . S
C2389 N265 1.473 . S
C2429 C836 1.527 . S
C2421 N196 1.520 . S
C2461 C682 0.814 . S
C2453 C246 0.847 . S
