# Generated by pormake.
# Topology anh, (6,3)-cn, num edge types: 1
# Building blocks:
#     Node 0, Type 0, BuildingBlock: NUHQIS_clean_sbu_0, # of connection points: 6
#     Node 1, Type 0, BuildingBlock: NUHQIS_clean_sbu_0, # of connection points: 6
#     Node 2, Type 0, BuildingBlock: NUHQIS_clean_sbu_0, # of connection points: 6
#     Node 3, Type 1, BuildingBlock: WUSLED_clean_sbu_0, # of connection points: 3
#     Node 4, Type 1, BuildingBlock: WUSLED_clean_sbu_0, # of connection points: 3
#     Node 5, Type 1, BuildingBlock: WUSLED_clean_sbu_0, # of connection points: 3
#     Node 6, Type 1, BuildingBlock: WUSLED_clean_sbu_0, # of connection points: 3
#     Node 7, Type 1, BuildingBlock: WUSLED_clean_sbu_0, # of connection points: 3
#     Node 8, Type 1, BuildingBlock: WUSLED_clean_sbu_0, # of connection points: 3
#     Edge 9, Type (0, 1), BuildingBlock: UVAHIK_clean_linker_0, # of connection points: 2
#     Edge 10, Type (0, 1), BuildingBlock: UVAHIK_clean_linker_0, # of connection points: 2
#     Edge 11, Type (0, 1), BuildingBlock: UVAHIK_clean_linker_0, # of connection points: 2
#     Edge 12, Type (0, 1), BuildingBlock: UVAHIK_clean_linker_0, # of connection points: 2
#     Edge 13, Type (0, 1), BuildingBlock: UVAHIK_clean_linker_0, # of connection points: 2
#     Edge 14, Type (0, 1), BuildingBlock: UVAHIK_clean_linker_0, # of connection points: 2
#     Edge 15, Type (0, 1), BuildingBlock: UVAHIK_clean_linker_0, # of connection points: 2
#     Edge 16, Type (0, 1), BuildingBlock: UVAHIK_clean_linker_0, # of connection points: 2
#     Edge 17, Type (0, 1), BuildingBlock: UVAHIK_clean_linker_0, # of connection points: 2
#     Edge 18, Type (0, 1), BuildingBlock: UVAHIK_clean_linker_0, # of connection points: 2
#     Edge 19, Type (0, 1), BuildingBlock: UVAHIK_clean_linker_0, # of connection points: 2
#     Edge 20, Type (0, 1), BuildingBlock: UVAHIK_clean_linker_0, # of connection points: 2
#     Edge 21, Type (0, 1), BuildingBlock: UVAHIK_clean_linker_0, # of connection points: 2
#     Edge 22, Type (0, 1), BuildingBlock: UVAHIK_clean_linker_0, # of connection points: 2
#     Edge 23, Type (0, 1), BuildingBlock: UVAHIK_clean_linker_0, # of connection points: 2
#     Edge 24, Type (0, 1), BuildingBlock: UVAHIK_clean_linker_0, # of connection points: 2
#     Edge 25, Type (0, 1), BuildingBlock: UVAHIK_clean_linker_0, # of connection points: 2
#     Edge 26, Type (0, 1), BuildingBlock: UVAHIK_clean_linker_0, # of connection points: 2
# Relax obj value: 0.189
# Max RMSD: 0.178
# Mean RMSD: 0.143
data_MOF--net-anh--node1-NUHQIS_clean_sbu_0--node2-WUSLED_clean_sbu_0--edge1-UVAHIK_clean_linker_0
_symmetry_space_group_name_H-M    P1
_symmetry_Int_Tables_number       1
_symmetry_cell_setting            triclinic
loop_
_symmetry_equiv_pos_as_xyz
'x, y, z'
_cell_length_a     48.326358
_cell_length_b     48.381997
_cell_length_c     85.418364
_cell_angle_alpha  90.448092
_cell_angle_beta   92.873108
_cell_angle_gamma 119.86834
loop_
_atom_site_label
_atom_site_type_symbol
_atom_site_fract_x
_atom_site_fract_y
_atom_site_fract_z
_atom_type_partial_charge
Tb0 Tb 0.10148 0.52795 0.16884 0.0
Eu1 Eu 0.06691 0.56905 0.16572 0.0
C2 C 0.08217 0.54911 0.19891 0.0
C3 C 1.02559 0.49198 0.16992 0.0
C4 C 0.1669 0.51198 0.1718 0.0
C5 C 0.21399 0.51346 0.18376 0.0
C6 C 0.18092 0.49785 0.18094 0.0
C7 C 0.18621 0.54155 0.16518 0.0
C8 C 0.21932 0.55712 0.16794 0.0
C9 C 0.23339 0.54346 0.17751 0.0
C10 C 0.13249 0.49909 0.17174 0.0
O11 O 0.10782 0.54386 0.14459 0.0
O12 O 0.06414 0.54982 0.14133 0.0
O13 O 0.11922 0.60465 0.16203 0.0
O14 O 0.14008 0.57754 0.17508 0.0
C15 C 0.08635 0.54584 0.13536 0.0
O16 O 1.03018 0.57754 0.15489 0.0
O17 O 0.06352 0.6105 0.17297 0.0
O18 O 0.08237 0.57232 0.19113 0.0
O19 O 0.08222 0.52533 0.19157 0.0
O20 O 1.0505 0.49089 0.16486 0.0
O21 O 1.02807 0.51991 0.17323 0.0
C22 C 0.14373 0.60448 0.16946 0.0
O23 O 0.12411 0.50985 0.1835 0.0
O24 O 0.1181 0.49974 0.15854 0.0
C25 C 1.00981 0.59615 0.17368 0.0
C26 C 0.95151 0.57579 0.18724 0.0
C27 C 0.96056 0.59726 0.17496 0.0
C28 C 0.98957 0.6073 0.16817 0.0
C29 C 1.0018 0.57638 0.18659 0.0
C30 C 0.97284 0.5663 0.19335 0.0
C31 C 1.03668 0.60097 0.16476 0.0
H32 H 0.22439 0.50211 0.19088 0.0
H33 H 0.16623 0.47534 0.18636 0.0
H34 H 0.17561 0.55315 0.1584 0.0
H35 H 0.23381 0.58017 0.16297 0.0
H36 H 0.94428 0.60451 0.16988 0.0
H37 H 0.99535 0.62225 0.1581 0.0
H38 H 1.01715 0.56734 0.19088 0.0
H39 H 0.9664 0.54982 0.20281 0.0
Tb40 Tb 0.61303 0.08314 0.5021 0.0
Eu41 Eu 0.53718 0.05027 0.49889 0.0
C42 C 0.57483 0.06557 0.53175 0.0
C43 C 0.57235 1.00768 0.50316 0.0
C44 C 0.69632 0.14505 0.50437 0.0
C45 C 0.74317 0.19263 0.51509 0.0
C46 C 0.72369 0.15961 0.5146 0.0
C47 C 0.68886 0.16359 0.49436 0.0
C48 C 0.70843 0.19655 0.49477 0.0
C49 C 0.73539 0.21131 0.50534 0.0
C50 C 0.67288 0.11167 0.50615 0.0
O51 O 0.60385 0.08943 0.47735 0.0
O52 O 0.55119 0.05087 0.47413 0.0
O53 O 0.55311 0.10239 0.49496 0.0
O54 O 0.6035 0.12298 0.50667 0.0
C55 C 0.57832 0.07075 0.46821 0.0
O56 O 0.49133 1.01441 0.48785 0.0
O57 O 0.49265 0.04492 0.50688 0.0
O58 O 0.5528 0.06854 0.5238 0.0
O59 O 0.59607 0.06207 0.52448 0.0
O60 O 0.59814 1.0324 0.49817 0.0
O61 O 0.54755 1.01068 0.50648 0.0
C62 C 0.57931 0.12678 0.50152 0.0
O63 O 0.65387 0.10723 0.51729 0.0
O64 O 0.65738 0.09531 0.49333 0.0
C65 C 0.45478 0.99004 0.50701 0.0
C66 C 0.42348 0.93172 0.52177 0.0
C67 C 0.41612 0.9336 0.50587 0.0
C68 C 0.43164 0.96262 0.49853 0.0
C69 C 0.46151 0.98822 0.52309 0.0
C70 C 0.44578 0.95915 0.53046 0.0
C71 C 0.47522 1.01866 0.49846 0.0
H72 H 0.76409 0.20361 0.52321 0.0
H73 H 0.72927 0.14556 0.52262 0.0
H74 H 0.66725 0.15271 0.4867 0.0
H75 H 0.70188 0.21058 0.48724 0.0
H76 H 0.39887 0.91242 0.49906 0.0
H77 H 0.42658 0.9634 0.48609 0.0
H78 H 0.47973 1.00892 0.52985 0.0
H79 H 0.45153 0.9579 0.54276 0.0
Tb80 Tb 0.59484 0.58799 0.83405 0.0
Eu81 Eu 0.55529 0.51208 0.83044 0.0
C82 C 0.57522 0.54736 0.86355 0.0
C83 C 0.63341 0.55 0.83589 0.0
C84 C 0.61243 0.66954 0.84124 0.0
C85 C 0.61243 0.7064 0.86071 0.0
C86 C 0.62462 0.68742 0.85545 0.0
C87 C 0.58803 0.67107 0.83234 0.0
C88 C 0.57593 0.68992 0.83757 0.0
C89 C 0.58784 0.70761 0.85183 0.0
C90 C 0.62357 0.64776 0.83628 0.0
O91 O 0.59835 0.57472 0.80991 0.0
O92 O 0.55007 0.52968 0.80683 0.0
O93 O 0.51736 0.5248 0.83622 0.0
O94 O 0.5448 0.57858 0.83226 0.0
C95 C 0.5742 0.55376 0.80071 0.0
O96 O 0.54615 0.46748 0.81913 0.0
O97 O 0.51759 0.46674 0.83813 0.0
O98 O 0.57569 0.52487 0.85522 0.0
O99 O 0.57521 0.57145 0.85668 0.0
O100 O 0.63217 0.57562 0.84014 0.0
O101 O 0.60764 0.52467 0.82959 0.0
C102 C 0.51798 0.55226 0.83516 0.0
O103 O 0.62586 0.63016 0.84717 0.0
O104 O 0.61023 0.63137 0.82317 0.0
C105 C 0.53561 0.42977 0.83832 0.0
C106 C 0.56024 0.39507 0.85372 0.0
C107 C 0.54805 0.38717 0.83806 0.0
C108 C 0.53583 0.40448 0.83039 0.0
C109 C 0.5475 0.43736 0.8541 0.0
C110 C 0.55975 0.42005 0.86177 0.0
C111 C 0.52654 0.45038 0.82965 0.0
H112 H 0.62204 0.71995 0.87172 0.0
H113 H 0.6433 0.68642 0.86255 0.0
H114 H 0.578 0.65757 0.82134 0.0
H115 H 0.55758 0.69109 0.83026 0.0
H116 H 0.54855 0.36796 0.83172 0.0
H117 H 0.52736 0.3987 0.81817 0.0
H118 H 0.54804 0.45714 0.86041 0.0
H119 H 0.56913 0.42633 0.87385 0.0
C120 C 0.66777 0.12929 0.20068 0.0
C121 C 0.67274 0.15819 0.20758 0.0
C122 C 0.72639 0.18917 0.19707 0.0
C123 C 0.70152 0.18746 0.20589 0.0
C124 C 0.72138 0.16002 0.19046 0.0
C125 C 0.69281 0.13088 0.19223 0.0
U126 U 0.58977 0.05547 0.21745 0.0
O127 O 0.54033 1.03123 0.20618 0.0
O128 O 0.56545 1.00441 0.20951 0.0
C129 C 0.53898 1.00356 0.20422 0.0
C130 C 0.63604 0.09814 0.20045 0.0
C131 C 0.507 0.97271 0.20435 0.0
C132 C 0.45242 0.93935 0.19218 0.0
C133 C 0.48115 0.96894 0.19432 0.0
C134 C 0.47363 0.91585 0.21038 0.0
C135 C 0.44799 0.9119 0.19998 0.0
C136 C 0.50264 0.94555 0.21241 0.0
C137 C 0.59096 0.0652 0.26483 0.0
C138 C 0.57247 1.03464 0.28846 0.0
C139 C 0.60288 0.09226 0.29055 0.0
C140 C 0.60467 0.09332 0.27425 0.0
C141 C 0.5871 0.06295 0.29796 0.0
C142 C 0.57462 1.03573 0.27204 0.0
C143 C 0.59698 0.06823 0.24788 0.0
O144 O 0.63562 0.07262 0.20593 0.0
O145 O 0.61005 0.099 0.20344 0.0
O146 O 0.58149 0.07761 0.23822 0.0
O147 O 0.60685 0.05045 0.24113 0.0
H148 H 0.6541 0.15836 0.21403 0.0
H149 H 0.70379 0.20898 0.21115 0.0
H150 H 0.73964 0.15954 0.18382 0.0
H151 H 0.69002 0.10942 0.18659 0.0
H152 H 0.43358 0.93809 0.18426 0.0
H153 H 0.48348 0.9889 0.18768 0.0
H154 H 0.47179 0.89566 0.2166 0.0
H155 H 0.52192 0.94698 0.22004 0.0
H156 H 0.5602 1.01164 0.29376 0.0
H157 H 0.614 0.11454 0.29738 0.0
H158 H 0.61756 0.11634 0.269 0.0
H159 H 0.56405 1.01367 0.26505 0.0
C160 C 0.58046 0.64963 0.53439 0.0
C161 C 0.55749 0.65439 0.54168 0.0
C162 C 0.5784 0.70811 0.53088 0.0
C163 C 0.55665 0.68318 0.54006 0.0
C164 C 0.60164 0.70331 0.52389 0.0
C165 C 0.60262 0.6748 0.52561 0.0
U166 U 0.57985 0.56988 0.54902 0.0
O167 O 0.55402 0.52253 0.5364 0.0
O168 O 0.60618 0.54787 0.53895 0.0
C169 C 0.58017 0.52174 0.53369 0.0
C170 C 0.57987 0.61796 0.53389 0.0
C171 C 0.57935 0.48995 0.53398 0.0
C172 C 0.55704 0.4357 0.52227 0.0
C173 C 0.55638 0.4644 0.52415 0.0
C174 C 0.60337 0.45641 0.54034 0.0
C175 C 0.58076 0.43107 0.53014 0.0
C176 C 0.60285 0.48537 0.54213 0.0
C177 C 0.57886 0.56961 0.59707 0.0
C178 C 0.55802 0.54127 0.62101 0.0
C179 C 0.59856 0.59706 0.62272 0.0
C180 C 0.59915 0.59724 0.60629 0.0
C181 C 0.5781 0.569 0.63041 0.0
C182 C 0.55818 0.54169 0.60459 0.0
C183 C 0.57931 0.56983 0.57969 0.0
O184 O 0.60597 0.6173 0.53835 0.0
O185 O 0.55377 0.59178 0.53729 0.0
O186 O 0.55295 0.55558 0.57051 0.0
O187 O 0.606 0.58415 0.57239 0.0
H188 H 0.53967 0.6356 0.54837 0.0
H189 H 0.53816 0.6854 0.54561 0.0
H190 H 0.61928 0.72169 0.51696 0.0
H191 H 0.62044 0.6721 0.51965 0.0
H192 H 0.53875 0.41704 0.51452 0.0
H193 H 0.53813 0.46692 0.5175 0.0
H194 H 0.62226 0.45434 0.5466 0.0
H195 H 0.62131 0.50444 0.54964 0.0
H196 H 0.5424 0.51894 0.6263 0.0
H197 H 0.61394 0.61916 0.62932 0.0
H198 H 0.61517 0.61919 0.60078 0.0
H199 H 0.54246 0.51996 0.59775 0.0
C200 C 0.99885 0.5513 0.86827 0.0
C201 C 0.97255 0.53037 0.8768 0.0
C202 C 0.93826 0.54987 0.86445 0.0
C203 C 0.94289 0.52986 0.87501 0.0
C204 C 0.96489 0.57101 0.85616 0.0
C205 C 0.99442 0.5717 0.85806 0.0
U206 U 0.07904 0.55005 0.88363 0.0
O207 O 0.10057 0.52517 0.87147 0.0
O208 O 0.12619 0.57724 0.87326 0.0
C209 C 0.1263 0.55165 0.86805 0.0
C210 C 1.02986 0.55058 0.86824 0.0
C211 C 0.15776 0.55214 0.86733 0.0
C212 C 0.19915 0.55443 0.85083 0.0
C213 C 0.16996 0.55379 0.85253 0.0
C214 C 0.20541 0.55176 0.87883 0.0
C215 C 0.21785 0.55365 0.8639 0.0
C216 C 0.1759 0.55104 0.88052 0.0
C217 C 0.08209 0.54778 0.93168 0.0
C218 C 0.10094 0.53511 0.95613 0.0
C219 C 0.06597 0.55742 0.95682 0.0
C220 C 0.06529 0.55865 0.94039 0.0
C221 C 0.08391 0.54573 0.96496 0.0
C222 C 0.09982 0.53589 0.93968 0.0
C223 C 0.08095 0.54862 0.91431 0.0
O224 O 1.05676 0.57647 0.87274 0.0
O225 O 1.03021 0.52439 0.87188 0.0
O226 O 0.06831 0.52255 0.90529 0.0
O227 O 0.09265 0.57549 0.90688 0.0
H228 H 0.97467 0.51397 0.88465 0.0
H229 H 0.92325 0.51301 0.8816 0.0
H230 H 0.96304 0.58726 0.84811 0.0
H231 H 1.01385 0.58794 0.85116 0.0
H232 H 0.20671 0.55507 0.83907 0.0
H233 H 0.15668 0.55448 0.84209 0.0
H234 H 0.21867 0.55132 0.88932 0.0
H235 H 0.16737 0.54975 0.89212 0.0
H236 H 0.11477 0.52569 0.96192 0.0
H237 H 1.05278 0.56607 0.96318 0.0
H238 H 1.05137 0.56785 0.93447 0.0
H239 H 0.11299 0.52737 0.93321 0.0
C240 C 1.02965 0.57256 0.47136 0.0
C241 C 1.00184 0.55128 0.4624 0.0
C242 C 0.98227 0.51795 0.4848 0.0
C243 C 0.97824 0.52432 0.46909 0.0
C244 C 1.00991 0.53963 0.49388 0.0
C245 C 1.0336 0.56685 0.48714 0.0
U246 U 0.06765 0.60765 0.43414 0.0
O247 O 0.11759 0.62953 0.42809 0.0
O248 O 0.09291 0.65734 0.42671 0.0
C249 C 0.1205 0.65796 0.42737 0.0
C250 C 1.0555 0.59894 0.46374 0.0
C251 C 0.14488 0.6808 0.43883 0.0
C252 C 0.15832 0.69721 0.46637 0.0
C253 C 0.13574 0.68447 0.45372 0.0
C254 C 0.1998 0.7048 0.44917 0.0
C255 C 0.19029 0.70618 0.46431 0.0
C256 C 0.17718 0.69212 0.43649 0.0
C257 C 1.03391 0.56276 0.39583 0.0
C258 C 0.06438 0.58614 0.37314 0.0
C259 C 1.01847 0.53265 0.37106 0.0
C260 C 1.01349 0.5349 0.38689 0.0
C261 C 1.044 0.55828 0.36405 0.0
C262 C 1.05939 0.58834 0.3889 0.0
C263 C 1.03032 0.56462 0.41262 0.0
O264 O 0.07475 0.59123 0.45708 0.0
O265 O 1.04669 0.61553 0.45476 0.0
O266 O 1.02583 0.58804 0.41726 0.0
O267 O 1.05193 0.56214 0.42148 0.0
H268 H 0.99865 0.55522 0.45013 0.0
H269 H 0.95688 0.50831 0.46191 0.0
H270 H 1.01356 0.5351 0.50599 0.0
H271 H 1.05523 0.58299 0.49411 0.0
H272 H 0.15037 0.69796 0.47792 0.0
H273 H 0.11079 0.67521 0.45588 0.0
H274 H 0.22449 0.71219 0.44726 0.0
H275 H 0.18453 0.68898 0.42515 0.0
H276 H 0.08451 0.60607 0.36812 0.0
H277 H 1.00223 0.51101 0.36429 0.0
H278 H 0.99392 0.51486 0.39217 0.0
H279 H 0.07568 0.60985 0.39577 0.0
C280 C 0.51302 0.99606 0.80338 0.0
C281 C 0.50658 0.96873 0.79455 0.0
C282 C 0.51859 0.9471 0.81773 0.0
C283 C 0.5092 0.94431 0.8017 0.0
C284 C 0.52525 0.97462 0.82651 0.0
C285 C 0.52239 0.99897 0.81936 0.0
U286 U 0.51148 1.03672 0.76631 0.0
O287 O 0.48718 0.06373 0.76 0.0
O288 O 0.53959 0.08709 0.76063 0.0
C289 C 0.51449 0.09086 0.76053 0.0
C290 C 0.5119 1.02232 0.79572 0.0
C291 C 0.51807 0.11481 0.77227 0.0
C292 C 0.51746 0.12697 0.79984 0.0
C293 C 0.50649 0.10504 0.78718 0.0
C294 C 0.55041 0.16906 0.78268 0.0
C295 C 0.54047 0.15892 0.79781 0.0
C296 C 0.53927 0.14711 0.76999 0.0
C297 C 0.51683 1.00413 0.72715 0.0
C298 C 0.51067 1.02694 0.70295 0.0
C299 C 0.54309 1.00155 0.7042 0.0
C300 C 0.53611 0.99455 0.71982 0.0
C301 C 0.53069 1.0181 0.69561 0.0
C302 C 0.50403 1.02027 0.71862 0.0
C303 C 0.51334 1.00038 0.74407 0.0
O304 O 0.53796 0.04146 0.78873 0.0
O305 O 0.48543 1.01435 0.78716 0.0
O306 O 0.48636 0.9963 0.74922 0.0
O307 O 0.53878 1.02104 0.75267 0.0
H308 H 0.49988 0.96648 0.78211 0.0
H309 H 0.50446 0.92352 0.79466 0.0
H310 H 0.53245 0.97716 0.8389 0.0
H311 H 0.52777 1.02017 0.82624 0.0
H312 H 0.5095 0.11854 0.81138 0.0
H313 H 0.49067 0.08007 0.78931 0.0
H314 H 0.56774 0.19374 0.7808 0.0
H315 H 0.54883 0.15495 0.75863 0.0
H316 H 0.50027 1.03922 0.69663 0.0
H317 H 0.559 0.99483 0.69903 0.0
H318 H 0.54662 0.98256 0.72633 0.0
H319 H 0.48947 1.02833 0.72415 0.0
C320 C 0.57977 0.46725 0.13615 0.0
C321 C 0.60104 0.46284 0.12736 0.0
C322 C 0.63489 0.47147 0.15096 0.0
C323 C 0.62826 0.46467 0.13472 0.0
C324 C 0.61316 0.47538 0.15976 0.0
C325 C 0.5857 0.47324 0.15237 0.0
U326 U 0.53923 0.47537 0.09913 0.0
O327 O 0.48824 0.45036 0.09119 0.0
O328 O 0.51457 0.50251 0.0947 0.0
C329 C 0.48648 0.47646 0.09303 0.0
C330 C 0.55252 0.46762 0.12827 0.0
C331 C 0.46488 0.47501 0.10474 0.0
C332 C 0.45641 0.47458 0.13249 0.0
C333 C 0.47009 0.46788 0.12015 0.0
C334 C 0.42975 0.4929 0.11401 0.0
C335 C 0.43697 0.48798 0.12951 0.0
C336 C 0.44395 0.48669 0.10163 0.0
C337 C 0.57819 0.49179 0.06094 0.0
C338 C 0.55297 0.50389 0.03888 0.0
C339 C 0.60056 0.50012 0.03554 0.0
C340 C 0.60157 0.49346 0.05136 0.0
C341 C 0.57619 0.50531 0.02915 0.0
C342 C 0.55392 0.49709 0.05466 0.0
C343 C 0.57912 0.48486 0.0775 0.0
O344 O 0.55906 0.49544 0.12287 0.0
O345 O 0.53525 0.44365 0.11819 0.0
O346 O 0.55698 0.4562 0.08123 0.0
O347 O 0.58227 0.50763 0.08719 0.0
H348 H 0.59683 0.45845 0.11477 0.0
H349 H 0.64426 0.46104 0.12766 0.0
H350 H 0.61784 0.48108 0.17224 0.0
H351 H 0.56953 0.47698 0.15925 0.0
H352 H 0.46221 0.47077 0.14441 0.0
H353 H 0.48655 0.45924 0.12276 0.0
H354 H 0.4149 0.50352 0.11162 0.0
H355 H 0.44018 0.49281 0.08985 0.0
H356 H 0.53372 0.50741 0.03422 0.0
H357 H 0.61892 0.50139 0.02831 0.0
H358 H 0.62053 0.48959 0.05611 0.0
H359 H 0.53567 0.49585 0.06197 0.0
C360 C 0.28817 0.57059 0.16787 0.0
C361 C 0.26834 0.55944 0.18046 0.0
C362 C 0.32004 0.57842 0.16992 0.0
C363 C 0.35748 0.54254 0.19137 0.0
H364 H 0.42296 0.58994 0.16246 0.0
C365 C 0.45099 0.52718 0.15154 0.0
C366 C 0.42758 0.50049 0.14262 0.0
C367 C 0.44203 0.54162 0.16288 0.0
C368 C 0.40558 0.57711 0.17102 0.0
H369 H 0.26694 0.55217 0.20548 0.0
H370 H 0.32279 0.56559 0.20905 0.0
H371 H 0.38947 0.61107 0.17107 0.0
H372 H 0.37708 0.46684 0.13872 0.0
H373 H 0.36123 0.49161 0.15884 0.0
H374 H 0.37136 0.50699 0.18996 0.0
C375 C 0.31365 0.56788 0.19759 0.0
C376 C 0.38637 0.58912 0.17589 0.0
C377 C 0.28172 0.55995 0.19552 0.0
C378 C 0.39533 0.48736 0.14558 0.0
C379 C 0.38643 0.50134 0.15713 0.0
C380 C 0.37651 0.53047 0.18642 0.0
C381 C 0.33248 0.57515 0.1846 0.0
C382 C 0.3606 0.57071 0.18513 0.0
C383 C 0.40966 0.52897 0.1656 0.0
C384 C 0.39908 0.54663 0.17536 0.0
H385 H 0.2784 0.57047 0.15615 0.0
H386 H 0.33378 0.58364 0.15962 0.0
H387 H 0.33782 0.52769 0.19849 0.0
H388 H 0.47603 0.53763 0.14925 0.0
H389 H 0.46016 0.56311 0.16916 0.0
C390 C 0.76537 0.26303 0.49248 0.0
C391 C 0.75529 0.24619 0.50625 0.0
C392 C 0.78584 0.29583 0.49333 0.0
C393 C 0.84798 0.3572 0.51942 0.0
H394 H 0.84696 0.41126 0.48637 0.0
C395 C 0.94621 0.48889 0.50618 0.0
C396 C 0.95752 0.48844 0.49139 0.0
C397 C 0.9198 0.46161 0.51131 0.0
C398 C 0.84715 0.39654 0.49584 0.0
H399 H 0.75692 0.25011 0.53162 0.0
H400 H 0.79286 0.30786 0.53313 0.0
H401 H 0.79984 0.35912 0.48925 0.0
H402 H 0.95219 0.4587 0.471 0.0
H403 H 0.90563 0.41144 0.47982 0.0
H404 H 0.89595 0.39452 0.52553 0.0
C405 C 0.78531 0.29561 0.52173 0.0
C406 C 0.82042 0.36678 0.49743 0.0
C407 C 0.76493 0.2627 0.52087 0.0
C408 C 0.94337 0.45991 0.48226 0.0
C409 C 0.91694 0.43294 0.48728 0.0
C410 C 0.87465 0.38722 0.51792 0.0
C411 C 0.79635 0.31234 0.50797 0.0
C412 C 0.82118 0.34627 0.50875 0.0
C413 C 0.90455 0.43396 0.5016 0.0
C414 C 0.8747 0.40632 0.5057 0.0
H415 H 0.75839 0.25068 0.4811 0.0
H416 H 0.79451 0.30799 0.48254 0.0
H417 H 0.84929 0.34175 0.52817 0.0
H418 H 0.95679 0.51064 0.51342 0.0
H419 H 0.91045 0.46247 0.52245 0.0
C420 C 0.54316 0.71868 0.85439 0.0
C421 C 0.57592 0.72895 0.85653 0.0
C422 C 0.53269 0.74072 0.85479 0.0
C423 C 0.55485 0.824 0.86337 0.0
H424 H 0.51272 0.81625 0.82237 0.0
C425 C 0.54929 0.92838 0.8345 0.0
C426 C 0.5217 0.92138 0.82516 0.0
C427 C 0.55286 0.90379 0.84084 0.0
C428 C 0.52378 0.81847 0.834 0.0
H429 H 0.62295 0.7695 0.86249 0.0
H430 H 0.60451 0.80811 0.86332 0.0
H431 H 0.52288 0.77426 0.83086 0.0
H432 H 0.47573 0.88368 0.81555 0.0
H433 H 0.48155 0.8407 0.8269 0.0
H434 H 0.5561 0.86856 0.86639 0.0
C435 C 0.58703 0.78307 0.8613 0.0
C436 C 0.52958 0.7944 0.83886 0.0
C437 C 0.59757 0.761 0.86082 0.0
C438 C 0.49739 0.88957 0.82258 0.0
C439 C 0.50078 0.86504 0.82904 0.0
C440 C 0.54869 0.84803 0.85857 0.0
C441 C 0.5548 0.77326 0.85745 0.0
C442 C 0.54544 0.79711 0.8535 0.0
C443 C 0.52874 0.87185 0.83805 0.0
C444 C 0.53343 0.84564 0.84375 0.0
H445 H 0.52593 0.69392 0.85138 0.0
H446 H 0.50763 0.73265 0.852 0.0
H447 H 0.56724 0.82654 0.87467 0.0
H448 H 0.56851 0.95277 0.83649 0.0
H449 H 0.57492 0.90977 0.8475 0.0
C450 C 0.90085 0.52619 0.19195 0.0
C451 C 0.91821 0.55967 0.19185 0.0
C452 C 0.86779 0.51023 0.19277 0.0
C453 C 0.80344 0.49142 0.17668 0.0
H454 H 0.75202 0.51597 0.20028 0.0
C455 C 0.69348 0.49191 0.15063 0.0
C456 C 0.66509 0.47587 0.15848 0.0
C457 C 0.72203 0.49614 0.15754 0.0
C458 C 0.76602 0.50847 0.19382 0.0
H459 H 0.91532 0.6028 0.19392 0.0
H460 H 0.85729 0.57482 0.19527 0.0
H461 H 0.80766 0.5345 0.20946 0.0
H462 H 0.64443 0.45191 0.17979 0.0
H463 H 0.69514 0.46049 0.19214 0.0
H464 H 0.76266 0.46731 0.16047 0.0
C465 C 0.86928 0.56098 0.19482 0.0
C466 C 0.79769 0.5191 0.19901 0.0
C467 C 0.90236 0.57697 0.1939 0.0
C468 C 0.66599 0.46459 0.17352 0.0
C469 C 0.69479 0.46928 0.18055 0.0
C470 C 0.77203 0.4812 0.17141 0.0
C471 C 0.85166 0.52752 0.19357 0.0
C472 C 0.81684 0.51135 0.19022 0.0
C473 C 0.72285 0.48484 0.17251 0.0
C474 C 0.75349 0.49046 0.17969 0.0
H475 H 0.91244 0.51225 0.1902 0.0
H476 H 0.85461 0.48441 0.19179 0.0
H477 H 0.81786 0.48552 0.16957 0.0
H478 H 0.69379 0.50166 0.13923 0.0
H479 H 0.74366 0.50881 0.1513 0.0
C480 C 0.41988 0.87992 0.52729 0.0
C481 C 0.40772 0.90063 0.52894 0.0
C482 C 0.40039 0.84739 0.52956 0.0
C483 C 0.31522 0.78642 0.53655 0.0
H484 H 0.32076 0.75522 0.49558 0.0
C485 C 0.2148 0.73591 0.48992 0.0
C486 C 0.21319 0.71488 0.47805 0.0
C487 C 0.23797 0.74568 0.50231 0.0
C488 C 0.31891 0.76271 0.50729 0.0
H489 H 0.36769 0.90519 0.53568 0.0
H490 H 0.33322 0.84863 0.53919 0.0
H491 H 0.36788 0.79847 0.50862 0.0
H492 H 0.23223 0.68506 0.47056 0.0
H493 H 0.27312 0.70256 0.49213 0.0
H494 H 0.26508 0.75249 0.53416 0.0
C495 C 0.35775 0.85688 0.53657 0.0
C496 C 0.34619 0.78767 0.51488 0.0
C497 C 0.37734 0.88936 0.53445 0.0
C498 C 0.23366 0.70209 0.47934 0.0
C499 C 0.25675 0.71176 0.49175 0.0
C500 C 0.28776 0.76157 0.52884 0.0
C501 C 0.3683 0.83525 0.53308 0.0
C502 C 0.3441 0.80151 0.529 0.0
C503 C 0.25984 0.73448 0.50307 0.0
C504 C 0.28905 0.75118 0.51364 0.0
H505 H 0.44342 0.88845 0.523 0.0
H506 H 0.40945 0.83146 0.52709 0.0
H507 H 0.31306 0.79592 0.54766 0.0
H508 H 0.19918 0.74599 0.48923 0.0
H509 H 0.24007 0.76365 0.51069 0.0
C510 C 0.55315 0.34624 0.86603 0.0
C511 C 0.57379 0.37708 0.8613 0.0
C512 C 0.56455 0.32525 0.8687 0.0
C513 C 0.6208 0.31237 0.84898 0.0
H514 H 0.57178 0.23009 0.86741 0.0
C515 C 0.58888 0.20105 0.81308 0.0
C516 C 0.55553 0.18115 0.81155 0.0
C517 C 0.6031 0.22343 0.82553 0.0
C518 C 0.58616 0.25303 0.86232 0.0
H519 H 0.62276 0.4119 0.8573 0.0
H520 H 0.64308 0.3752 0.86212 0.0
H521 H 0.57832 0.2779 0.88084 0.0
H522 H 0.51104 0.16754 0.82228 0.0
H523 H 0.53563 0.20728 0.84375 0.0
H524 H 0.62644 0.28753 0.82986 0.0
C525 C 0.61809 0.36702 0.86369 0.0
C526 C 0.58999 0.2804 0.87002 0.0
C527 C 0.60658 0.38803 0.86097 0.0
C528 C 0.5368 0.18271 0.82317 0.0
C529 C 0.55099 0.20522 0.83557 0.0
C530 C 0.61714 0.28513 0.84135 0.0
C531 C 0.59674 0.33478 0.86647 0.0
C532 C 0.60501 0.30989 0.86273 0.0
C533 C 0.5842 0.22646 0.83662 0.0
C534 C 0.59768 0.25495 0.84735 0.0
H535 H 0.52773 0.33756 0.86629 0.0
H536 H 0.54727 0.30064 0.87072 0.0
H537 H 0.6326 0.33459 0.84296 0.0
H538 H 0.60393 0.19967 0.80448 0.0
H539 H 0.62876 0.23925 0.82613 0.0
C540 C 0.54491 0.94917 0.5109 0.0
C541 C 0.5721 0.9765 0.50586 0.0
C542 C 0.54511 0.92043 0.5137 0.0
C543 C 0.59306 0.87859 0.50663 0.0
H544 H 0.53799 0.81976 0.53659 0.0
C545 C 0.58416 0.75386 0.51379 0.0
C546 C 0.5767 0.73851 0.52824 0.0
C547 C 0.58305 0.78215 0.51123 0.0
C548 C 0.55392 0.83584 0.52826 0.0
H549 H 0.62116 0.99417 0.50016 0.0
H550 H 0.62184 0.94511 0.50527 0.0
H551 H 0.53781 0.86931 0.53228 0.0
H552 H 0.56213 0.74229 0.55137 0.0
H553 H 0.56075 0.79144 0.54712 0.0
H554 H 0.61012 0.8459 0.50304 0.0
C555 C 0.59981 0.94525 0.50672 0.0
C556 C 0.55344 0.86449 0.52557 0.0
C557 C 0.59952 0.97386 0.50385 0.0
C558 C 0.56781 0.75278 0.54 0.0
C559 C 0.56694 0.7813 0.53749 0.0
C560 C 0.59371 0.85012 0.5094 0.0
C561 C 0.57259 0.9177 0.51168 0.0
C562 C 0.57298 0.88662 0.51466 0.0
C563 C 0.57465 0.79682 0.52304 0.0
C564 C 0.57407 0.82787 0.52024 0.0
H565 H 0.52324 0.94989 0.51267 0.0
H566 H 0.52333 0.90017 0.51726 0.0
H567 H 0.60829 0.89415 0.49795 0.0
H568 H 0.59043 0.74372 0.50419 0.0
H569 H 0.58839 0.79216 0.49976 0.0
C570 C 0.66803 0.52396 0.8331 0.0
C571 C 0.66447 0.54945 0.83876 0.0
C572 C 0.69689 0.52343 0.83596 0.0
C573 C 0.77338 0.55987 0.86213 0.0
H574 H 0.80278 0.52489 0.83027 0.0
C575 C 0.88562 0.5432 0.87405 0.0
C576 C 0.90608 0.54858 0.86176 0.0
C577 C 0.85621 0.54284 0.87148 0.0
C578 C 0.79525 0.53498 0.83935 0.0
H579 H 0.68953 0.59436 0.85216 0.0
H580 H 0.73927 0.59342 0.85713 0.0
H581 H 0.75299 0.52565 0.82538 0.0
H582 H 0.90993 0.55693 0.83684 0.0
H583 H 0.85953 0.5565 0.83246 0.0
H584 H 0.81583 0.56947 0.87604 0.0
C585 C 0.7197 0.57359 0.85048 0.0
C586 C 0.76617 0.53508 0.83658 0.0
C587 C 0.69096 0.57427 0.8475 0.0
C588 C 0.89552 0.55313 0.84677 0.0
C589 C 0.86607 0.5525 0.84418 0.0
C590 C 0.80234 0.55952 0.86495 0.0
C591 C 0.7234 0.54821 0.84475 0.0
C592 C 0.75459 0.54766 0.84787 0.0
C593 C 0.84573 0.54748 0.85647 0.0
C594 C 0.81408 0.54722 0.8536 0.0
H595 H 0.64842 0.50424 0.8264 0.0
H596 H 0.69815 0.50316 0.83144 0.0
H597 H 0.76556 0.5695 0.87129 0.0
H598 H 0.89253 0.53975 0.8858 0.0
H599 H 0.8415 0.53855 0.88132 0.0
C600 C 0.17873 0.66521 0.16828 0.0
C601 C 0.17555 0.63551 0.17221 0.0
C602 C 0.20785 0.69422 0.17132 0.0
C603 C 0.28988 0.73053 0.19379 0.0
H604 H 0.30788 0.80296 0.16853 0.0
C605 C 0.40379 0.85729 0.20884 0.0
C606 C 0.41722 0.8796 0.19696 0.0
C607 C 0.37497 0.82777 0.20597 0.0
C608 C 0.30389 0.78315 0.17571 0.0
H609 H 0.20195 0.61408 0.18249 0.0
H610 H 0.25245 0.66392 0.18736 0.0
H611 H 0.25909 0.7527 0.16298 0.0
H612 H 0.41001 0.8863 0.17234 0.0
H613 H 0.36117 0.83562 0.16731 0.0
H614 H 0.33536 0.76072 0.20612 0.0
C615 C 0.23223 0.66519 0.18219 0.0
C616 C 0.27504 0.75388 0.17264 0.0
C617 C 0.20298 0.63616 0.17925 0.0
C618 C 0.40063 0.87062 0.18203 0.0
C619 C 0.37205 0.84107 0.17912 0.0
C620 C 0.31891 0.75977 0.19678 0.0
C621 C 0.23548 0.69509 0.17835 0.0
C622 C 0.2671 0.72673 0.18162 0.0
C623 C 0.35821 0.81884 0.19102 0.0
C624 C 0.32675 0.78697 0.18783 0.0
H625 H 0.15842 0.66621 0.163 0.0
H626 H 0.20829 0.71611 0.16835 0.0
H627 H 0.28528 0.71095 0.20128 0.0
H628 H 0.41519 0.86288 0.22056 0.0
H629 H 0.36562 0.81224 0.2157 0.0
C630 C 0.60847 0.18595 0.51055 0.0
C631 C 0.58072 0.15872 0.50405 0.0
C632 C 0.60917 0.21524 0.51339 0.0
C633 C 0.56236 0.25851 0.50416 0.0
H634 H 0.61981 0.31813 0.53692 0.0
C635 C 0.57324 0.38429 0.51251 0.0
C636 C 0.58202 0.40038 0.52737 0.0
C637 C 0.57385 0.35571 0.50982 0.0
C638 C 0.60322 0.30186 0.52779 0.0
H639 H 0.53166 0.14197 0.4957 0.0
H640 H 0.53253 0.19191 0.50085 0.0
H641 H 0.61879 0.26794 0.53236 0.0
H642 H 0.59846 0.39763 0.55106 0.0
H643 H 0.59894 0.34799 0.54656 0.0
H644 H 0.54582 0.29165 0.49997 0.0
C645 C 0.55433 0.19128 0.50346 0.0
C646 C 0.603 0.2728 0.52496 0.0
C647 C 0.55372 0.16213 0.50055 0.0
C648 C 0.59173 0.38655 0.53939 0.0
C649 C 0.59208 0.35773 0.53674 0.0
C650 C 0.56241 0.28739 0.50706 0.0
C651 C 0.58207 0.21869 0.50995 0.0
C652 C 0.58255 0.25031 0.51305 0.0
C653 C 0.58301 0.34143 0.52188 0.0
C654 C 0.58291 0.30996 0.51891 0.0
H655 H 0.62988 0.1847 0.51349 0.0
H656 H 0.63133 0.23532 0.51815 0.0
H657 H 0.54645 0.24275 0.4947 0.0
H658 H 0.5663 0.39406 0.50272 0.0
H659 H 0.56747 0.34515 0.49806 0.0
C660 C 0.4583 0.52512 0.8397 0.0
C661 C 0.48761 0.55338 0.83788 0.0
C662 C 0.43011 0.52576 0.84274 0.0
C663 C 0.39377 0.58018 0.8428 0.0
H664 H 0.32779 0.51092 0.86482 0.0
C665 C 0.2686 0.5705 0.84905 0.0
C666 C 0.24976 0.55479 0.86174 0.0
C667 C 0.29744 0.57075 0.84657 0.0
C668 C 0.34588 0.53081 0.85879 0.0
H669 H 0.50928 0.60481 0.83809 0.0
H670 H 0.46082 0.6061 0.84366 0.0
H671 H 0.37705 0.51112 0.86022 0.0
H672 H 0.24837 0.52721 0.88188 0.0
H673 H 0.29864 0.52857 0.87794 0.0
H674 H 0.36315 0.60051 0.84191 0.0
C675 C 0.4592 0.58307 0.8424 0.0
C676 C 0.37441 0.53067 0.85587 0.0
C677 C 0.48742 0.58239 0.83924 0.0
C678 C 0.2617 0.53984 0.87201 0.0
C679 C 0.29074 0.54024 0.86957 0.0
C680 C 0.36534 0.58044 0.84582 0.0
C681 C 0.42976 0.55473 0.84426 0.0
C682 C 0.39908 0.55525 0.8477 0.0
C683 C 0.30932 0.55558 0.85672 0.0
C684 C 0.3405 0.55566 0.85381 0.0
H685 H 0.457 0.50217 0.83876 0.0
H686 H 0.4084 0.50317 0.8437 0.0
H687 H 0.41143 0.59958 0.83635 0.0
H688 H 0.26128 0.58301 0.84091 0.0
H689 H 0.31011 0.58259 0.8364 0.0
C690 C 0.96715 0.46123 0.17741 0.0
C691 C 0.99461 0.46111 0.17254 0.0
C692 C 0.9386 0.43254 0.18014 0.0
C693 C 0.89733 0.34169 0.17357 0.0
H694 H 0.83798 0.34209 0.20223 0.0
C695 C 0.77275 0.22625 0.18037 0.0
C696 C 0.75695 0.22083 0.19447 0.0
C697 C 0.80106 0.25522 0.17787 0.0
C698 C 0.85418 0.34104 0.19427 0.0
H699 H 1.01262 0.42939 0.16707 0.0
H700 H 0.96392 0.38011 0.17206 0.0
H701 H 0.88729 0.39117 0.19808 0.0
H702 H 0.76018 0.24331 0.21706 0.0
H703 H 0.80922 0.29304 0.21291 0.0
H704 H 0.86495 0.29141 0.17022 0.0
C705 C 0.96378 0.40228 0.17344 0.0
C706 C 0.88275 0.36982 0.19166 0.0
C707 C 0.99223 0.43095 0.17062 0.0
C708 C 0.77092 0.24608 0.20594 0.0
C709 C 0.79944 0.27506 0.20349 0.0
C710 C 0.86892 0.31291 0.17627 0.0
C711 C 0.93609 0.40221 0.17824 0.0
C712 C 0.90512 0.37099 0.18119 0.0
C713 C 0.81537 0.28043 0.18938 0.0
C714 C 0.84643 0.31174 0.18665 0.0
H715 H 0.9676 0.48366 0.17911 0.0
H716 H 0.9183 0.43436 0.18356 0.0
H717 H 0.913 0.34075 0.16524 0.0
H718 H 0.76292 0.20818 0.17097 0.0
H719 H 0.81135 0.25785 0.16665 0.0
C720 C 0.11469 0.54909 0.11068 0.0
C721 C 0.08713 0.54415 0.11792 0.0
C722 C 0.1152 0.54834 0.09423 0.0
C723 C 0.06195 0.51806 0.05778 0.0
H724 H 0.13421 0.58431 0.03749 0.0
C725 C 1.05701 0.53511 0.99066 0.0
C726 C 0.08482 0.54462 0.98254 0.0
C727 C 1.05784 0.53415 0.0071 0.0
C728 C 0.11399 0.56529 0.04291 0.0
H729 H 1.03828 0.53386 0.11339 0.0
H730 H 1.03905 0.5321 0.08491 0.0
H731 H 0.13497 0.58366 0.06609 0.0
H732 H 0.13548 0.56082 0.98559 0.0
H733 H 0.13691 0.55876 0.01414 0.0
H734 H 1.04097 0.49948 0.03469 0.0
C735 C 1.06035 0.53668 0.09189 0.0
C736 C 0.11444 0.56497 0.05937 0.0
C737 C 1.06 0.53791 0.10828 0.0
C738 C 0.1135 0.5531 0.99138 0.0
C739 C 0.11438 0.55226 0.00783 0.0
C740 C 0.06157 0.51823 0.04134 0.0
C741 C 0.08799 0.54207 0.0846 0.0
C742 C 0.0883 0.54153 0.06704 0.0
C743 C 0.08656 0.54276 0.01598 0.0
C744 C 0.08745 0.54202 0.0336 0.0
H745 H 0.13602 0.55399 0.11772 0.0
H746 H 0.13684 0.55239 0.08903 0.0
H747 H 1.04158 0.49932 0.06325 0.0
H748 H 1.03439 0.52808 0.9843 0.0
H749 H 1.03594 0.52705 0.01285 0.0
C750 C 0.55232 0.0521 0.44096 0.0
C751 C 0.57991 0.07143 0.45074 0.0
C752 C 0.55364 0.0514 0.42461 0.0
C753 C 0.60276 0.09609 0.39163 0.0
H754 H 0.5526 1.01496 0.36875 0.0
C755 C 0.61431 0.08308 0.32497 0.0
C756 C 0.58666 0.06242 0.31553 0.0
C757 C 0.61389 0.08383 0.34137 0.0
C758 C 0.56646 1.03794 0.37486 0.0
H759 H 0.63061 0.10554 0.45072 0.0
H760 H 0.63295 0.10421 0.42219 0.0
H761 H 0.55135 1.01749 0.39717 0.0
H762 H 0.53683 1.02615 0.31616 0.0
H763 H 0.53583 1.02771 0.34473 0.0
H764 H 0.61769 0.11662 0.36933 0.0
C765 C 0.61014 0.08973 0.4272 0.0
C766 C 0.56578 1.0394 0.39125 0.0
C767 C 0.60883 0.09042 0.44362 0.0
C768 C 0.55865 0.04214 0.32303 0.0
C769 C 0.55815 0.04305 0.33947 0.0
C770 C 0.60336 0.09466 0.37522 0.0
C771 C 0.58258 0.06999 0.41744 0.0
C772 C 0.58384 0.0685 0.39992 0.0
C773 C 0.58573 0.06406 0.34893 0.0
C774 C 0.58518 0.06556 0.36653 0.0
H775 H 0.52952 1.03724 0.44592 0.0
H776 H 0.53176 1.03635 0.41756 0.0
H777 H 0.61666 0.11902 0.39779 0.0
H778 H 0.63651 0.09865 0.31966 0.0
H779 H 0.63586 0.09981 0.34813 0.0
C780 C 0.54856 0.53453 0.77341 0.0
C781 C 0.5748 0.55642 0.78329 0.0
C782 C 0.54903 0.53687 0.75706 0.0
C783 C 0.60408 0.57011 0.72486 0.0
H784 H 0.52816 0.55615 0.70042 0.0
C785 C 0.60555 0.58845 0.65766 0.0
C786 C 0.57777 0.56858 0.64807 0.0
C787 C 0.60525 0.58793 0.67408 0.0
C788 C 0.54951 0.55966 0.70696 0.0
H789 H 0.62215 0.5981 0.78352 0.0
H790 H 0.62299 0.6021 0.75502 0.0
H791 H 0.52752 0.55317 0.72885 0.0
H792 H 0.52756 0.53281 0.64879 0.0
H793 H 0.52753 0.53067 0.67713 0.0
H794 H 0.62595 0.57591 0.70304 0.0
C795 C 0.60208 0.58295 0.75994 0.0
C796 C 0.54913 0.55805 0.72335 0.0
C797 C 0.60153 0.58074 0.77632 0.0
C798 C 0.5497 0.54816 0.65557 0.0
C799 C 0.54952 0.54733 0.67198 0.0
C800 C 0.60438 0.57142 0.70845 0.0
C801 C 0.57583 0.56105 0.75006 0.0
C802 C 0.5764 0.56321 0.73255 0.0
C803 C 0.57728 0.56722 0.68156 0.0
C804 C 0.57708 0.56618 0.69918 0.0
H805 H 0.52754 0.51546 0.7783 0.0
H806 H 0.52852 0.51934 0.74986 0.0
H807 H 0.62541 0.57381 0.7315 0.0
H808 H 0.62787 0.60426 0.65253 0.0
H809 H 0.62707 0.60405 0.6809 0.0
C810 C 0.58483 0.04635 0.55722 0.0
C811 C 0.57498 0.06516 0.54894 0.0
C812 C 0.58337 0.04478 0.5735 0.0
C813 C 0.54446 0.06117 0.60599 0.0
H814 H 0.60223 0.04401 0.63173 0.0
C815 C 0.54407 0.05596 0.67358 0.0
C816 C 0.53912 1.02665 0.67918 0.0
C817 C 0.55142 0.06373 0.65806 0.0
C818 C 0.58605 0.04889 0.62463 0.0
H819 H 0.55744 0.09832 0.55101 0.0
H820 H 0.55658 0.09712 0.57947 0.0
H821 H 0.61068 0.05343 0.6039 0.0
H822 H 0.53824 0.98266 0.67279 0.0
H823 H 0.55215 0.99687 0.64583 0.0
H824 H 0.52042 0.05733 0.62695 0.0
C825 C 0.56404 0.08237 0.57347 0.0
C826 C 0.59066 0.05404 0.60868 0.0
C827 C 0.56471 0.08325 0.55717 0.0
C828 C 0.54238 1.00562 0.66897 0.0
C829 C 0.55026 1.01366 0.65354 0.0
C830 C 0.54031 0.0567 0.62199 0.0
C831 C 0.57278 0.06264 0.58184 0.0
C832 C 0.56955 0.05966 0.59907 0.0
C833 C 0.55452 0.04261 0.64794 0.0
C834 C 0.56073 0.04999 0.63135 0.0
H835 H 0.59266 1.03204 0.55107 0.0
H836 H 0.58971 1.02883 0.57943 0.0
H837 H 0.52729 0.06478 0.599 0.0
H838 H 0.54249 0.07306 0.68119 0.0
H839 H 0.55483 0.0863 0.65396 0.0
C840 C 0.56925 0.56633 0.8899 0.0
C841 C 0.57356 0.5447 0.88071 0.0
C842 C 0.56684 0.56297 0.9061 0.0
C843 C 0.54917 0.50352 0.93654 0.0
H844 H 0.59653 0.57726 0.96499 0.0
C845 C 0.57846 0.49235 1.00108 0.0
C846 C 0.57438 0.51119 0.01228 0.0
C847 C 0.57591 0.49714 0.98513 0.0
C848 C 0.58283 0.55654 0.95717 0.0
H849 H 0.57925 0.50293 0.88132 0.0
H850 H 0.57551 0.4974 0.90945 0.0
H851 H 0.59633 0.58449 0.9367 0.0
H852 H 0.56491 0.55012 0.01565 0.0
H853 H 0.56045 0.55853 0.98762 0.0
H854 H 0.53634 0.47551 0.95696 0.0
C855 C 0.57331 0.51655 0.90416 0.0
C856 C 0.58268 0.56066 0.941 0.0
C857 C 0.57568 0.51987 0.88803 0.0
C858 C 0.56794 0.53512 0.00723 0.0
C859 C 0.5656 0.54007 0.99125 0.0
C860 C 0.54944 0.49941 0.95266 0.0
C861 C 0.56869 0.53792 0.91337 0.0
C862 C 0.56638 0.5341 0.93052 0.0
C863 C 0.56936 0.52096 0.98006 0.0
C864 C 0.56679 0.5258 0.96311 0.0
H865 H 0.56743 0.58566 0.88458 0.0
H866 H 0.5631 0.57969 0.9129 0.0
H867 H 0.53578 0.48267 0.92877 0.0
H868 H 0.58313 0.47354 0.00463 0.0
H869 H 0.57932 0.48234 0.97675 0.0
C870 C 0.07605 0.52294 0.22473 0.0
C871 C 0.08061 0.54938 0.21612 0.0
C872 C 0.0733 0.52301 0.24095 0.0
C873 C 1.05166 0.5615 0.2715 0.0
H874 H 0.09185 0.52888 0.30053 0.0
C875 C 1.05679 0.58243 0.33779 0.0
C876 C 1.04923 0.55629 0.34725 0.0
C877 C 0.06143 0.58068 0.32193 0.0
C878 C 0.08025 0.53777 0.29252 0.0
H879 H 0.08708 0.59707 0.21783 0.0
H880 H 0.08274 0.59732 0.24601 0.0
H881 H 0.09897 0.52761 0.27241 0.0
H882 H 1.04134 0.50807 0.34764 0.0
H883 H 1.04902 0.50486 0.31972 0.0
H884 H 1.03306 0.5718 0.29149 0.0
C885 C 0.08057 0.57626 0.24023 0.0
C886 C 0.08431 0.53703 0.27645 0.0
C887 C 0.0832 0.57615 0.22407 0.0
C888 C 1.04676 0.52845 0.34056 0.0
C889 C 1.0515 0.52673 0.32466 0.0
C890 C 1.04768 0.56229 0.28749 0.0
C891 C 0.0751 0.54953 0.24881 0.0
C892 C 0.07029 0.54921 0.26581 0.0
C893 C 1.05858 0.55275 0.31518 0.0
C894 C 0.06217 0.55074 0.29818 0.0
H895 H 0.07402 0.50196 0.21892 0.0
H896 H 0.06892 0.502 0.24725 0.0
H897 H 1.03993 0.57037 0.26356 0.0
H898 H 1.05863 0.60411 0.34259 0.0
H899 H 0.06727 0.60126 0.31494 0.0
loop_
_geom_bond_atom_site_label_1
_geom_bond_atom_site_label_2
_geom_bond_distance
_geom_bond_site_symmetry_2
_ccdc_geom_bond_type
Tb0 C10 2.825 . S
Tb0 O11 2.347 . S
Tb0 O14 2.366 . S
Tb0 O19 2.418 . S
Tb0 O20 2.384 1_455 S
Tb0 O23 2.479 . S
Tb0 O24 2.471 . S
Eu1 O12 2.410 1_655 S
Eu1 O13 2.361 1_655 S
Eu1 O16 2.505 . S
Eu1 O17 2.495 . S
Eu1 O18 2.334 1_655 S
Eu1 O21 2.370 . S
Eu1 C31 2.853 . S
C2 O18 1.259 . S
C2 O19 1.265 . S
C3 O20 1.255 . S
C3 O21 1.265 . S
C4 C6 1.380 . S
C4 C7 1.374 . S
C4 C10 1.507 . S
C5 C6 1.384 . S
C5 C9 1.387 . S
C5 H32 0.930 . S
C6 C4 1.380 . S
C6 C5 1.384 . S
C6 H33 0.931 . S
C7 C4 1.374 . S
C7 C8 1.390 . S
C7 H34 0.930 . S
C8 C7 1.390 . S
C8 C9 1.391 . S
C8 H35 0.930 . S
C9 C5 1.387 . S
C9 C8 1.391 . S
C10 Tb0 2.825 . S
C10 C4 1.507 . S
C10 O23 1.238 . S
C10 O24 1.247 . S
O11 Tb0 2.347 . S
O11 C15 1.259 . S
O12 Eu1 2.410 1_455 S
O12 C15 1.274 . S
O13 Eu1 2.361 1_455 S
O13 C22 1.255 . S
O14 Tb0 2.366 . S
O14 C22 1.265 . S
C15 O11 1.259 . S
C15 O12 1.274 . S
O16 Eu1 2.505 . S
O16 C31 1.238 . S
O17 Eu1 2.495 . S
O17 C31 1.247 . S
O18 Eu1 2.334 1_455 S
O18 C2 1.259 . S
O19 Tb0 2.418 . S
O19 C2 1.265 . S
O20 Tb0 2.384 1_655 S
O20 C3 1.255 . S
O21 Eu1 2.370 . S
O21 C3 1.265 . S
C22 O13 1.255 . S
C22 O14 1.265 . S
O23 Tb0 2.479 . S
O23 C10 1.238 . S
O24 Tb0 2.471 . S
O24 C10 1.247 . S
C25 C28 1.380 . S
C25 C29 1.374 . S
C25 C31 1.507 . S
C26 C27 1.387 . S
C26 C30 1.391 . S
C27 C26 1.387 . S
C27 C28 1.384 . S
C27 H36 0.930 . S
C28 C25 1.380 . S
C28 C27 1.384 . S
C28 H37 0.931 . S
C29 C25 1.374 . S
C29 C30 1.390 . S
C29 H38 0.930 . S
C30 C26 1.391 . S
C30 C29 1.390 . S
C30 H39 0.930 . S
C31 Eu1 2.853 . S
C31 O16 1.238 . S
C31 O17 1.247 . S
C31 C25 1.507 . S
H32 C5 0.930 . S
H33 C6 0.931 . S
H34 C7 0.930 . S
H35 C8 0.930 . S
H36 C27 0.930 . S
H37 C28 0.931 . S
H38 C29 0.930 . S
H39 C30 0.930 . S
Tb40 C50 2.825 . S
Tb40 O51 2.347 . S
Tb40 O54 2.366 . S
Tb40 O59 2.418 . S
Tb40 O60 2.384 . S
Tb40 O63 2.479 . S
Tb40 O64 2.471 . S
Eu41 O52 2.418 . S
Eu41 O53 2.384 . S
Eu41 O56 2.479 1_545 S
Eu41 O57 2.471 1_545 S
Eu41 O58 2.347 . S
Eu41 O61 2.366 1_545 S
Eu41 C71 2.825 1_545 S
C42 O58 1.259 . S
C42 O59 1.265 . S
C43 O60 1.255 1_565 S
C43 O61 1.265 . S
C44 C46 1.380 . S
C44 C47 1.374 . S
C44 C50 1.507 . S
C45 C46 1.384 . S
C45 C49 1.387 . S
C45 H72 0.930 . S
C46 C44 1.380 . S
C46 C45 1.384 . S
C46 H73 0.931 . S
C47 C44 1.374 . S
C47 C48 1.390 . S
C47 H74 0.930 . S
C48 C47 1.390 . S
C48 C49 1.391 . S
C48 H75 0.930 . S
C49 C45 1.387 . S
C49 C48 1.391 . S
C50 Tb40 2.825 . S
C50 C44 1.507 . S
C50 O63 1.238 . S
C50 O64 1.247 . S
O51 Tb40 2.347 . S
O51 C55 1.259 . S
O52 Eu41 2.418 . S
O52 C55 1.265 . S
O53 Eu41 2.384 . S
O53 C62 1.255 . S
O54 Tb40 2.366 . S
O54 C62 1.265 . S
C55 O51 1.259 . S
C55 O52 1.265 . S
O56 Eu41 2.479 1_565 S
O56 C71 1.238 . S
O57 Eu41 2.471 1_565 S
O57 C71 1.247 . S
O58 Eu41 2.347 . S
O58 C42 1.259 . S
O59 Tb40 2.418 . S
O59 C42 1.265 . S
O60 Tb40 2.384 . S
O60 C43 1.255 1_545 S
O61 Eu41 2.366 1_565 S
O61 C43 1.265 . S
C62 O53 1.255 . S
C62 O54 1.265 . S
O63 Tb40 2.479 . S
O63 C50 1.238 . S
O64 Tb40 2.471 . S
O64 C50 1.247 . S
C65 C68 1.380 . S
C65 C69 1.374 . S
C65 C71 1.507 . S
C66 C67 1.387 . S
C66 C70 1.391 . S
C67 C66 1.387 . S
C67 C68 1.384 . S
C67 H76 0.930 . S
C68 C65 1.380 . S
C68 C67 1.384 . S
C68 H77 0.931 . S
C69 C65 1.374 . S
C69 C70 1.390 . S
C69 H78 0.930 . S
C70 C66 1.391 . S
C70 C69 1.390 . S
C70 H79 0.930 . S
C71 Eu41 2.825 1_565 S
C71 O56 1.238 . S
C71 O57 1.247 . S
C71 C65 1.507 . S
H72 C45 0.930 . S
H73 C46 0.931 . S
H74 C47 0.930 . S
H75 C48 0.930 . S
H76 C67 0.930 . S
H77 C68 0.931 . S
H78 C69 0.930 . S
H79 C70 0.930 . S
Tb80 C90 2.825 . S
Tb80 O91 2.347 . S
Tb80 O94 2.366 . S
Tb80 O99 2.418 . S
Tb80 O100 2.384 . S
Tb80 O103 2.479 . S
Tb80 O104 2.471 . S
Eu81 O92 2.418 . S
Eu81 O93 2.384 . S
Eu81 O96 2.479 . S
Eu81 O97 2.471 . S
Eu81 O98 2.347 . S
Eu81 O101 2.366 . S
Eu81 C111 2.825 . S
C82 O98 1.259 . S
C82 O99 1.265 . S
C83 O100 1.255 . S
C83 O101 1.265 . S
C84 C86 1.380 . S
C84 C87 1.374 . S
C84 C90 1.507 . S
C85 C86 1.384 . S
C85 C89 1.387 . S
C85 H112 0.930 . S
C86 C84 1.380 . S
C86 C85 1.384 . S
C86 H113 0.931 . S
C87 C84 1.374 . S
C87 C88 1.390 . S
C87 H114 0.930 . S
C88 C87 1.390 . S
C88 C89 1.391 . S
C88 H115 0.930 . S
C89 C85 1.387 . S
C89 C88 1.391 . S
C90 Tb80 2.825 . S
C90 C84 1.507 . S
C90 O103 1.238 . S
C90 O104 1.247 . S
O91 Tb80 2.347 . S
O91 C95 1.259 . S
O92 Eu81 2.418 . S
O92 C95 1.265 . S
O93 Eu81 2.384 . S
O93 C102 1.255 . S
O94 Tb80 2.366 . S
O94 C102 1.265 . S
C95 O91 1.259 . S
C95 O92 1.265 . S
O96 Eu81 2.479 . S
O96 C111 1.238 . S
O97 Eu81 2.471 . S
O97 C111 1.247 . S
O98 Eu81 2.347 . S
O98 C82 1.259 . S
O99 Tb80 2.418 . S
O99 C82 1.265 . S
O100 Tb80 2.384 . S
O100 C83 1.255 . S
O101 Eu81 2.366 . S
O101 C83 1.265 . S
C102 O93 1.255 . S
C102 O94 1.265 . S
O103 Tb80 2.479 . S
O103 C90 1.238 . S
O104 Tb80 2.471 . S
O104 C90 1.247 . S
C105 C108 1.380 . S
C105 C109 1.374 . S
C105 C111 1.507 . S
C106 C107 1.387 . S
C106 C110 1.391 . S
C107 C106 1.387 . S
C107 C108 1.384 . S
C107 H116 0.930 . S
C108 C105 1.380 . S
C108 C107 1.384 . S
C108 H117 0.931 . S
C109 C105 1.374 . S
C109 C110 1.390 . S
C109 H118 0.930 . S
C110 C106 1.391 . S
C110 C109 1.390 . S
C110 H119 0.930 . S
C111 Eu81 2.825 . S
C111 O96 1.238 . S
C111 O97 1.247 . S
C111 C105 1.507 . S
H112 C85 0.930 . S
H113 C86 0.931 . S
H114 C87 0.930 . S
H115 C88 0.930 . S
H116 C107 0.930 . S
H117 C108 0.931 . S
H118 C109 0.930 . S
H119 C110 0.930 . S
C120 C121 1.264 . S
C120 C125 1.479 . S
C120 C130 1.465 . S
C121 C120 1.264 . S
C121 C123 1.339 . S
C121 H148 0.931 . S
C122 C123 1.395 . S
C122 C124 1.320 . S
C123 C121 1.339 . S
C123 C122 1.395 . S
C123 H149 0.929 . S
C124 C122 1.320 . S
C124 C125 1.405 . S
C124 H150 0.930 . S
C125 C120 1.479 . S
C125 C124 1.405 . S
C125 H151 0.931 . S
U126 O127 2.454 1_545 S
U126 O128 2.458 1_545 S
U126 C129 2.984 1_545 S
U126 C130 2.847 . S
U126 C143 2.882 . S
U126 O144 2.441 . S
U126 O145 2.420 . S
U126 O146 2.455 . S
U126 O147 2.449 . S
O127 U126 2.454 1_565 S
O127 C129 1.353 . S
O128 U126 2.458 1_565 S
O128 C129 1.286 . S
C129 U126 2.984 1_565 S
C129 O127 1.353 . S
C129 O128 1.286 . S
C129 C131 1.363 . S
C130 C120 1.465 . S
C130 U126 2.847 . S
C130 O144 1.249 . S
C130 O145 1.202 . S
C131 C129 1.363 . S
C131 C133 1.408 . S
C131 C136 1.342 . S
C132 C133 1.310 . S
C132 C135 1.461 . S
C132 H152 0.932 . S
C133 C131 1.408 . S
C133 C132 1.310 . S
C133 H153 0.930 . S
C134 C135 1.474 . S
C134 C136 1.285 . S
C134 H154 0.929 . S
C135 C132 1.461 . S
C135 C134 1.474 . S
C136 C131 1.342 . S
C136 C134 1.285 . S
C136 H155 0.930 . S
C137 C140 1.424 . S
C137 C142 1.245 . S
C137 C143 1.428 . S
C138 C141 1.260 . S
C138 C142 1.477 . S
C138 H156 0.932 1_545 S
C139 C140 1.384 . S
C139 C141 1.479 . S
C139 H157 0.929 . S
C140 C137 1.424 . S
C140 C139 1.384 . S
C140 H158 0.928 . S
C141 C138 1.260 . S
C141 C139 1.479 . S
C142 C137 1.245 . S
C142 C138 1.477 . S
C142 H159 0.932 1_545 S
C143 U126 2.882 . S
C143 C137 1.428 . S
C143 O146 1.301 . S
C143 O147 1.282 . S
O144 U126 2.441 . S
O144 C130 1.249 . S
O145 U126 2.420 . S
O145 C130 1.202 . S
O146 U126 2.455 . S
O146 C143 1.301 . S
O147 U126 2.449 . S
O147 C143 1.282 . S
H148 C121 0.931 . S
H149 C123 0.929 . S
H150 C124 0.930 . S
H151 C125 0.931 . S
H152 C132 0.932 . S
H153 C133 0.930 . S
H154 C134 0.929 . S
H155 C136 0.930 . S
H156 C138 0.932 1_565 S
H157 C139 0.929 . S
H158 C140 0.928 . S
H159 C142 0.932 1_565 S
C160 C161 1.264 . S
C160 C165 1.479 . S
C160 C170 1.465 . S
C161 C160 1.264 . S
C161 C163 1.339 . S
C161 H188 0.931 . S
C162 C163 1.395 . S
C162 C164 1.320 . S
C163 C161 1.339 . S
C163 C162 1.395 . S
C163 H189 0.929 . S
C164 C162 1.320 . S
C164 C165 1.405 . S
C164 H190 0.930 . S
C165 C160 1.479 . S
C165 C164 1.405 . S
C165 H191 0.931 . S
U166 O167 2.454 . S
U166 O168 2.458 . S
U166 C169 2.984 . S
U166 C170 2.847 . S
U166 C183 2.882 . S
U166 O184 2.441 . S
U166 O185 2.420 . S
U166 O186 2.455 . S
U166 O187 2.449 . S
O167 U166 2.454 . S
O167 C169 1.353 . S
O168 U166 2.458 . S
O168 C169 1.286 . S
C169 U166 2.984 . S
C169 O167 1.353 . S
C169 O168 1.286 . S
C169 C171 1.363 . S
C170 C160 1.465 . S
C170 U166 2.847 . S
C170 O184 1.249 . S
C170 O185 1.202 . S
C171 C169 1.363 . S
C171 C173 1.408 . S
C171 C176 1.342 . S
C172 C173 1.310 . S
C172 C175 1.461 . S
C172 H192 0.932 . S
C173 C171 1.408 . S
C173 C172 1.310 . S
C173 H193 0.930 . S
C174 C175 1.474 . S
C174 C176 1.285 . S
C174 H194 0.929 . S
C175 C172 1.461 . S
C175 C174 1.474 . S
C176 C171 1.342 . S
C176 C174 1.285 . S
C176 H195 0.930 . S
C177 C180 1.424 . S
C177 C182 1.245 . S
C177 C183 1.428 . S
C178 C181 1.260 . S
C178 C182 1.477 . S
C178 H196 0.932 . S
C179 C180 1.384 . S
C179 C181 1.479 . S
C179 H197 0.929 . S
C180 C177 1.424 . S
C180 C179 1.384 . S
C180 H198 0.928 . S
C181 C178 1.260 . S
C181 C179 1.479 . S
C182 C177 1.245 . S
C182 C178 1.477 . S
C182 H199 0.932 . S
C183 U166 2.882 . S
C183 C177 1.428 . S
C183 O186 1.301 . S
C183 O187 1.282 . S
O184 U166 2.441 . S
O184 C170 1.249 . S
O185 U166 2.420 . S
O185 C170 1.202 . S
O186 U166 2.455 . S
O186 C183 1.301 . S
O187 U166 2.449 . S
O187 C183 1.282 . S
H188 C161 0.931 . S
H189 C163 0.929 . S
H190 C164 0.930 . S
H191 C165 0.931 . S
H192 C172 0.932 . S
H193 C173 0.930 . S
H194 C174 0.929 . S
H195 C176 0.930 . S
H196 C178 0.932 . S
H197 C179 0.929 . S
H198 C180 0.928 . S
H199 C182 0.932 . S
C200 C201 1.264 . S
C200 C205 1.479 . S
C200 C210 1.465 . S
C201 C200 1.264 . S
C201 C203 1.339 . S
C201 H228 0.931 . S
C202 C203 1.395 . S
C202 C204 1.320 . S
C203 C201 1.339 . S
C203 C202 1.395 . S
C203 H229 0.929 . S
C204 C202 1.320 . S
C204 C205 1.405 . S
C204 H230 0.930 . S
C205 C200 1.479 . S
C205 C204 1.405 . S
C205 H231 0.931 . S
U206 O207 2.454 . S
U206 O208 2.458 . S
U206 C209 2.984 . S
U206 C210 2.847 1_455 S
U206 C223 2.882 . S
U206 O224 2.441 1_455 S
U206 O225 2.420 1_455 S
U206 O226 2.455 . S
U206 O227 2.449 1_455 S
O207 U206 2.454 . S
O207 C209 1.353 . S
O208 U206 2.458 . S
O208 C209 1.286 . S
C209 U206 2.984 . S
C209 O207 1.353 . S
C209 O208 1.286 . S
C209 C211 1.363 . S
C210 C200 1.465 . S
C210 U206 2.847 1_655 S
C210 O224 1.249 . S
C210 O225 1.202 . S
C211 C209 1.363 . S
C211 C213 1.408 . S
C211 C216 1.342 . S
C212 C213 1.310 . S
C212 C215 1.461 . S
C212 H232 0.932 . S
C213 C211 1.408 . S
C213 C212 1.310 . S
C213 H233 0.930 . S
C214 C215 1.474 . S
C214 C216 1.285 . S
C214 H234 0.929 . S
C215 C212 1.461 . S
C215 C214 1.474 . S
C216 C211 1.342 . S
C216 C214 1.285 . S
C216 H235 0.930 . S
C217 C220 1.424 1_455 S
C217 C222 1.245 . S
C217 C223 1.428 . S
C218 C221 1.260 . S
C218 C222 1.477 . S
C218 H236 0.932 . S
C219 C220 1.384 . S
C219 C221 1.479 1_655 S
C219 H237 0.929 . S
C220 C217 1.424 1_655 S
C220 C219 1.384 . S
C220 H238 0.928 . S
C221 C218 1.260 . S
C221 C219 1.479 1_455 S
C222 C217 1.245 . S
C222 C218 1.477 . S
C222 H239 0.932 . S
C223 U206 2.882 . S
C223 C217 1.428 . S
C223 O226 1.301 . S
C223 O227 1.282 1_455 S
O224 U206 2.441 1_655 S
O224 C210 1.249 . S
O225 U206 2.420 1_655 S
O225 C210 1.202 . S
O226 U206 2.455 . S
O226 C223 1.301 . S
O227 U206 2.449 1_655 S
O227 C223 1.282 1_655 S
H228 C201 0.931 . S
H229 C203 0.929 . S
H230 C204 0.930 . S
H231 C205 0.931 . S
H232 C212 0.932 . S
H233 C213 0.930 . S
H234 C214 0.929 . S
H235 C216 0.930 . S
H236 C218 0.932 . S
H237 C219 0.929 . S
H238 C220 0.928 . S
H239 C222 0.932 . S
C240 C241 1.264 . S
C240 C245 1.479 . S
C240 C250 1.465 . S
C241 C240 1.264 . S
C241 C243 1.339 . S
C241 H268 0.931 . S
C242 C243 1.395 . S
C242 C244 1.320 . S
C243 C241 1.339 . S
C243 C242 1.395 . S
C243 H269 0.929 . S
C244 C242 1.320 . S
C244 C245 1.405 . S
C244 H270 0.930 . S
C245 C240 1.479 . S
C245 C244 1.405 . S
C245 H271 0.931 . S
U246 O247 2.454 1_655 S
U246 O248 2.458 1_655 S
U246 C249 2.984 1_655 S
U246 C250 2.847 . S
U246 C263 2.882 . S
U246 O264 2.441 . S
U246 O265 2.420 . S
U246 O266 2.455 1_655 S
U246 O267 2.449 . S
O247 U246 2.454 1_455 S
O247 C249 1.353 . S
O248 U246 2.458 1_455 S
O248 C249 1.286 . S
C249 U246 2.984 1_455 S
C249 O247 1.353 . S
C249 O248 1.286 . S
C249 C251 1.363 . S
C250 C240 1.465 . S
C250 U246 2.847 . S
C250 O264 1.249 . S
C250 O265 1.202 . S
C251 C249 1.363 . S
C251 C253 1.408 . S
C251 C256 1.342 . S
C252 C253 1.310 . S
C252 C255 1.461 . S
C252 H272 0.932 . S
C253 C251 1.408 . S
C253 C252 1.310 . S
C253 H273 0.930 . S
C254 C255 1.474 . S
C254 C256 1.285 . S
C254 H274 0.929 . S
C255 C252 1.461 . S
C255 C254 1.474 . S
C256 C251 1.342 . S
C256 C254 1.285 . S
C256 H275 0.930 . S
C257 C260 1.424 . S
C257 C262 1.245 1_655 S
C257 C263 1.428 . S
C258 C261 1.263 . S
C258 C262 1.477 . S
C258 H276 0.932 . S
C259 C260 1.384 . S
C259 C261 1.471 1_655 S
C259 H277 0.929 . S
C260 C257 1.424 . S
C260 C259 1.384 . S
C260 H278 0.928 . S
C261 C258 1.263 . S
C261 C259 1.471 1_455 S
C262 C257 1.245 1_455 S
C262 C258 1.477 . S
C262 H279 0.932 . S
C263 U246 2.882 . S
C263 C257 1.428 . S
C263 O266 1.301 1_655 S
C263 O267 1.282 . S
O264 U246 2.441 . S
O264 C250 1.249 . S
O265 U246 2.420 . S
O265 C250 1.202 . S
O266 U246 2.455 1_455 S
O266 C263 1.301 1_455 S
O267 U246 2.449 . S
O267 C263 1.282 . S
H268 C241 0.931 . S
H269 C243 0.929 . S
H270 C244 0.930 . S
H271 C245 0.931 . S
H272 C252 0.932 . S
H273 C253 0.930 . S
H274 C254 0.929 . S
H275 C256 0.930 . S
H276 C258 0.932 . S
H277 C259 0.929 . S
H278 C260 0.928 . S
H279 C262 0.932 . S
C280 C281 1.264 . S
C280 C285 1.479 . S
C280 C290 1.465 . S
C281 C280 1.264 . S
C281 C283 1.339 . S
C281 H308 0.931 . S
C282 C283 1.395 . S
C282 C284 1.320 . S
C283 C281 1.339 . S
C283 C282 1.395 . S
C283 H309 0.929 . S
C284 C282 1.320 . S
C284 C285 1.405 . S
C284 H310 0.930 . S
C285 C280 1.479 . S
C285 C284 1.405 . S
C285 H311 0.931 . S
U286 O287 2.454 1_565 S
U286 O288 2.458 1_565 S
U286 C289 2.984 1_565 S
U286 C290 2.847 . S
U286 C303 2.882 . S
U286 O304 2.441 . S
U286 O305 2.420 . S
U286 O306 2.455 1_565 S
U286 O307 2.449 . S
O287 U286 2.454 1_545 S
O287 C289 1.353 . S
O288 U286 2.458 1_545 S
O288 C289 1.286 . S
C289 U286 2.984 1_545 S
C289 O287 1.353 . S
C289 O288 1.286 . S
C289 C291 1.363 . S
C290 C280 1.465 . S
C290 U286 2.847 . S
C290 O304 1.249 . S
C290 O305 1.202 . S
C291 C289 1.363 . S
C291 C293 1.408 . S
C291 C296 1.342 . S
C292 C293 1.310 . S
C292 C295 1.461 . S
C292 H312 0.932 . S
C293 C291 1.408 . S
C293 C292 1.310 . S
C293 H313 0.930 . S
C294 C295 1.474 . S
C294 C296 1.285 . S
C294 H314 0.929 . S
C295 C292 1.461 . S
C295 C294 1.474 . S
C296 C291 1.342 . S
C296 C294 1.285 . S
C296 H315 0.930 . S
C297 C300 1.424 . S
C297 C302 1.245 1_565 S
C297 C303 1.428 . S
C298 C301 1.260 . S
C298 C302 1.477 . S
C298 H316 0.932 . S
C299 C300 1.384 . S
C299 C301 1.479 1_565 S
C299 H317 0.929 . S
C300 C297 1.424 . S
C300 C299 1.384 . S
C300 H318 0.928 . S
C301 C298 1.260 . S
C301 C299 1.479 1_545 S
C302 C297 1.245 1_545 S
C302 C298 1.477 . S
C302 H319 0.932 . S
C303 U286 2.882 . S
C303 C297 1.428 . S
C303 O306 1.301 1_565 S
C303 O307 1.282 . S
O304 U286 2.441 . S
O304 C290 1.249 . S
O305 U286 2.420 . S
O305 C290 1.202 . S
O306 U286 2.455 1_545 S
O306 C303 1.301 1_545 S
O307 U286 2.449 . S
O307 C303 1.282 . S
H308 C281 0.931 . S
H309 C283 0.929 . S
H310 C284 0.930 . S
H311 C285 0.931 . S
H312 C292 0.932 . S
H313 C293 0.930 . S
H314 C294 0.929 . S
H315 C296 0.930 . S
H316 C298 0.932 . S
H317 C299 0.929 . S
H318 C300 0.928 . S
H319 C302 0.932 . S
C320 C321 1.264 . S
C320 C325 1.479 . S
C320 C330 1.465 . S
C321 C320 1.264 . S
C321 C323 1.339 . S
C321 H348 0.931 . S
C322 C323 1.395 . S
C322 C324 1.320 . S
C323 C321 1.339 . S
C323 C322 1.395 . S
C323 H349 0.929 . S
C324 C322 1.320 . S
C324 C325 1.405 . S
C324 H350 0.930 . S
C325 C320 1.479 . S
C325 C324 1.405 . S
C325 H351 0.931 . S
U326 O327 2.454 . S
U326 O328 2.458 . S
U326 C329 2.984 . S
U326 C330 2.847 . S
U326 C343 2.882 . S
U326 O344 2.441 . S
U326 O345 2.420 . S
U326 O346 2.455 . S
U326 O347 2.449 . S
O327 U326 2.454 . S
O327 C329 1.353 . S
O328 U326 2.458 . S
O328 C329 1.286 . S
C329 U326 2.984 . S
C329 O327 1.353 . S
C329 O328 1.286 . S
C329 C331 1.363 . S
C330 C320 1.465 . S
C330 U326 2.847 . S
C330 O344 1.249 . S
C330 O345 1.202 . S
C331 C329 1.363 . S
C331 C333 1.408 . S
C331 C336 1.342 . S
C332 C333 1.310 . S
C332 C335 1.461 . S
C332 H352 0.932 . S
C333 C331 1.408 . S
C333 C332 1.310 . S
C333 H353 0.930 . S
C334 C335 1.474 . S
C334 C336 1.285 . S
C334 H354 0.929 . S
C335 C332 1.461 . S
C335 C334 1.474 . S
C336 C331 1.342 . S
C336 C334 1.285 . S
C336 H355 0.930 . S
C337 C340 1.424 . S
C337 C342 1.245 . S
C337 C343 1.428 . S
C338 C341 1.260 . S
C338 C342 1.477 . S
C338 H356 0.932 . S
C339 C340 1.384 . S
C339 C341 1.479 . S
C339 H357 0.929 . S
C340 C337 1.424 . S
C340 C339 1.384 . S
C340 H358 0.928 . S
C341 C338 1.260 . S
C341 C339 1.479 . S
C342 C337 1.245 . S
C342 C338 1.477 . S
C342 H359 0.932 . S
C343 U326 2.882 . S
C343 C337 1.428 . S
C343 O346 1.301 . S
C343 O347 1.282 . S
O344 U326 2.441 . S
O344 C330 1.249 . S
O345 U326 2.420 . S
O345 C330 1.202 . S
O346 U326 2.455 . S
O346 C343 1.301 . S
O347 U326 2.449 . S
O347 C343 1.282 . S
H348 C321 0.931 . S
H349 C323 0.929 . S
H350 C324 0.930 . S
H351 C325 0.931 . S
H352 C332 0.932 . S
H353 C333 0.930 . S
H354 C334 0.929 . S
H355 C336 0.930 . S
H356 C338 0.932 . S
H357 C339 0.929 . S
H358 C340 0.928 . S
H359 C342 0.932 . S
C360 C361 1.349 . S
C360 C362 1.327 . S
C360 H385 0.950 . S
C361 C360 1.349 . S
C361 C377 1.349 . S
C362 C360 1.327 . S
C362 C381 1.429 . S
C362 H386 0.950 . S
C363 C380 1.574 . S
C363 C382 1.368 . S
C363 H387 0.949 . S
H364 C368 0.949 . S
C365 C366 1.349 . S
C365 C367 1.327 . S
C365 H388 0.950 . S
C366 C365 1.349 . S
C366 C378 1.349 . S
C367 C365 1.327 . S
C367 C383 1.429 . S
C367 H389 0.950 . S
C368 H364 0.949 . S
C368 C376 1.574 . S
C368 C384 1.368 . S
H369 C377 0.950 . S
H370 C375 0.950 . S
H371 C376 0.949 . S
H372 C378 0.950 . S
H373 C379 0.950 . S
H374 C380 0.949 . S
C375 H370 0.950 . S
C375 C377 1.327 . S
C375 C381 1.429 . S
C376 C368 1.574 . S
C376 H371 0.949 . S
C376 C382 1.368 . S
C377 C361 1.349 . S
C377 H369 0.950 . S
C377 C375 1.327 . S
C378 C366 1.349 . S
C378 H372 0.950 . S
C378 C379 1.327 . S
C379 H373 0.950 . S
C379 C378 1.327 . S
C379 C383 1.429 . S
C380 C363 1.574 . S
C380 H374 0.949 . S
C380 C384 1.368 . S
C381 C362 1.429 . S
C381 C375 1.429 . S
C381 C382 1.523 . S
C382 C363 1.368 . S
C382 C376 1.368 . S
C382 C381 1.523 . S
C383 C367 1.429 . S
C383 C379 1.429 . S
C383 C384 1.523 . S
C384 C368 1.368 . S
C384 C380 1.368 . S
C384 C383 1.523 . S
H385 C360 0.950 . S
H386 C362 0.950 . S
H387 C363 0.949 . S
H388 C365 0.950 . S
H389 C367 0.950 . S
C390 C391 1.349 . S
C390 C392 1.327 . S
C390 H415 0.950 . S
C391 C390 1.349 . S
C391 C407 1.349 . S
C392 C390 1.327 . S
C392 C411 1.429 . S
C392 H416 0.950 . S
C393 C410 1.574 . S
C393 C412 1.368 . S
C393 H417 0.949 . S
H394 C398 0.949 . S
C395 C396 1.349 . S
C395 C397 1.327 . S
C395 H418 0.950 . S
C396 C395 1.349 . S
C396 C408 1.349 . S
C397 C395 1.327 . S
C397 C413 1.429 . S
C397 H419 0.950 . S
C398 H394 0.949 . S
C398 C406 1.574 . S
C398 C414 1.368 . S
H399 C407 0.950 . S
H400 C405 0.950 . S
H401 C406 0.949 . S
H402 C408 0.950 . S
H403 C409 0.950 . S
H404 C410 0.949 . S
C405 H400 0.950 . S
C405 C407 1.327 . S
C405 C411 1.429 . S
C406 C398 1.574 . S
C406 H401 0.949 . S
C406 C412 1.368 . S
C407 C391 1.349 . S
C407 H399 0.950 . S
C407 C405 1.327 . S
C408 C396 1.349 . S
C408 H402 0.950 . S
C408 C409 1.327 . S
C409 H403 0.950 . S
C409 C408 1.327 . S
C409 C413 1.429 . S
C410 C393 1.574 . S
C410 H404 0.949 . S
C410 C414 1.368 . S
C411 C392 1.429 . S
C411 C405 1.429 . S
C411 C412 1.523 . S
C412 C393 1.368 . S
C412 C406 1.368 . S
C412 C411 1.523 . S
C413 C397 1.429 . S
C413 C409 1.429 . S
C413 C414 1.523 . S
C414 C398 1.368 . S
C414 C410 1.368 . S
C414 C413 1.523 . S
H415 C390 0.950 . S
H416 C392 0.950 . S
H417 C393 0.949 . S
H418 C395 0.950 . S
H419 C397 0.950 . S
C420 C421 1.349 . S
C420 C422 1.327 . S
C420 H445 0.950 . S
C421 C420 1.349 . S
C421 C437 1.349 . S
C422 C420 1.327 . S
C422 C441 1.429 . S
C422 H446 0.950 . S
C423 C440 1.574 . S
C423 C442 1.368 . S
C423 H447 0.949 . S
H424 C428 0.949 . S
C425 C426 1.349 . S
C425 C427 1.327 . S
C425 H448 0.950 . S
C426 C425 1.349 . S
C426 C438 1.349 . S
C427 C425 1.327 . S
C427 C443 1.429 . S
C427 H449 0.950 . S
C428 H424 0.949 . S
C428 C436 1.574 . S
C428 C444 1.368 . S
H429 C437 0.950 . S
H430 C435 0.950 . S
H431 C436 0.949 . S
H432 C438 0.950 . S
H433 C439 0.950 . S
H434 C440 0.949 . S
C435 H430 0.950 . S
C435 C437 1.327 . S
C435 C441 1.429 . S
C436 C428 1.574 . S
C436 H431 0.949 . S
C436 C442 1.368 . S
C437 C421 1.349 . S
C437 H429 0.950 . S
C437 C435 1.327 . S
C438 C426 1.349 . S
C438 H432 0.950 . S
C438 C439 1.327 . S
C439 H433 0.950 . S
C439 C438 1.327 . S
C439 C443 1.429 . S
C440 C423 1.574 . S
C440 H434 0.949 . S
C440 C444 1.368 . S
C441 C422 1.429 . S
C441 C435 1.429 . S
C441 C442 1.523 . S
C442 C423 1.368 . S
C442 C436 1.368 . S
C442 C441 1.523 . S
C443 C427 1.429 . S
C443 C439 1.429 . S
C443 C444 1.523 . S
C444 C428 1.368 . S
C444 C440 1.368 . S
C444 C443 1.523 . S
H445 C420 0.950 . S
H446 C422 0.950 . S
H447 C423 0.949 . S
H448 C425 0.950 . S
H449 C427 0.950 . S
C450 C451 1.349 . S
C450 C452 1.327 . S
C450 H475 0.950 . S
C451 C450 1.349 . S
C451 C467 1.349 . S
C452 C450 1.327 . S
C452 C471 1.429 . S
C452 H476 0.950 . S
C453 C470 1.574 . S
C453 C472 1.368 . S
C453 H477 0.949 . S
H454 C458 0.949 . S
C455 C456 1.349 . S
C455 C457 1.327 . S
C455 H478 0.950 . S
C456 C455 1.349 . S
C456 C468 1.349 . S
C457 C455 1.327 . S
C457 C473 1.429 . S
C457 H479 0.950 . S
C458 H454 0.949 . S
C458 C466 1.574 . S
C458 C474 1.368 . S
H459 C467 0.950 . S
H460 C465 0.950 . S
H461 C466 0.949 . S
H462 C468 0.950 . S
H463 C469 0.950 . S
H464 C470 0.949 . S
C465 H460 0.950 . S
C465 C467 1.327 . S
C465 C471 1.429 . S
C466 C458 1.574 . S
C466 H461 0.949 . S
C466 C472 1.368 . S
C467 C451 1.349 . S
C467 H459 0.950 . S
C467 C465 1.327 . S
C468 C456 1.349 . S
C468 H462 0.950 . S
C468 C469 1.327 . S
C469 H463 0.950 . S
C469 C468 1.327 . S
C469 C473 1.429 . S
C470 C453 1.574 . S
C470 H464 0.949 . S
C470 C474 1.368 . S
C471 C452 1.429 . S
C471 C465 1.429 . S
C471 C472 1.523 . S
C472 C453 1.368 . S
C472 C466 1.368 . S
C472 C471 1.523 . S
C473 C457 1.429 . S
C473 C469 1.429 . S
C473 C474 1.523 . S
C474 C458 1.368 . S
C474 C470 1.368 . S
C474 C473 1.523 . S
H475 C450 0.950 . S
H476 C452 0.950 . S
H477 C453 0.949 . S
H478 C455 0.950 . S
H479 C457 0.950 . S
C480 C481 1.349 . S
C480 C482 1.327 . S
C480 H505 0.950 . S
C481 C480 1.349 . S
C481 C497 1.349 . S
C482 C480 1.327 . S
C482 C501 1.429 . S
C482 H506 0.950 . S
C483 C500 1.574 . S
C483 C502 1.368 . S
C483 H507 0.949 . S
H484 C488 0.949 . S
C485 C486 1.349 . S
C485 C487 1.327 . S
C485 H508 0.950 . S
C486 C485 1.349 . S
C486 C498 1.349 . S
C487 C485 1.327 . S
C487 C503 1.429 . S
C487 H509 0.950 . S
C488 H484 0.949 . S
C488 C496 1.574 . S
C488 C504 1.368 . S
H489 C497 0.950 . S
H490 C495 0.950 . S
H491 C496 0.949 . S
H492 C498 0.950 . S
H493 C499 0.950 . S
H494 C500 0.949 . S
C495 H490 0.950 . S
C495 C497 1.327 . S
C495 C501 1.429 . S
C496 C488 1.574 . S
C496 H491 0.949 . S
C496 C502 1.368 . S
C497 C481 1.349 . S
C497 H489 0.950 . S
C497 C495 1.327 . S
C498 C486 1.349 . S
C498 H492 0.950 . S
C498 C499 1.327 . S
C499 H493 0.950 . S
C499 C498 1.327 . S
C499 C503 1.429 . S
C500 C483 1.574 . S
C500 H494 0.949 . S
C500 C504 1.368 . S
C501 C482 1.429 . S
C501 C495 1.429 . S
C501 C502 1.523 . S
C502 C483 1.368 . S
C502 C496 1.368 . S
C502 C501 1.523 . S
C503 C487 1.429 . S
C503 C499 1.429 . S
C503 C504 1.523 . S
C504 C488 1.368 . S
C504 C500 1.368 . S
C504 C503 1.523 . S
H505 C480 0.950 . S
H506 C482 0.950 . S
H507 C483 0.949 . S
H508 C485 0.950 . S
H509 C487 0.950 . S
C510 C511 1.349 . S
C510 C512 1.327 . S
C510 H535 0.950 . S
C511 C510 1.349 . S
C511 C527 1.349 . S
C512 C510 1.327 . S
C512 C531 1.429 . S
C512 H536 0.950 . S
C513 C530 1.574 . S
C513 C532 1.368 . S
C513 H537 0.949 . S
H514 C518 0.949 . S
C515 C516 1.349 . S
C515 C517 1.327 . S
C515 H538 0.950 . S
C516 C515 1.349 . S
C516 C528 1.349 . S
C517 C515 1.327 . S
C517 C533 1.429 . S
C517 H539 0.950 . S
C518 H514 0.949 . S
C518 C526 1.574 . S
C518 C534 1.368 . S
H519 C527 0.950 . S
H520 C525 0.950 . S
H521 C526 0.949 . S
H522 C528 0.950 . S
H523 C529 0.950 . S
H524 C530 0.949 . S
C525 H520 0.950 . S
C525 C527 1.327 . S
C525 C531 1.429 . S
C526 C518 1.574 . S
C526 H521 0.949 . S
C526 C532 1.368 . S
C527 C511 1.349 . S
C527 H519 0.950 . S
C527 C525 1.327 . S
C528 C516 1.349 . S
C528 H522 0.950 . S
C528 C529 1.327 . S
C529 H523 0.950 . S
C529 C528 1.327 . S
C529 C533 1.429 . S
C530 C513 1.574 . S
C530 H524 0.949 . S
C530 C534 1.368 . S
C531 C512 1.429 . S
C531 C525 1.429 . S
C531 C532 1.523 . S
C532 C513 1.368 . S
C532 C526 1.368 . S
C532 C531 1.523 . S
C533 C517 1.429 . S
C533 C529 1.429 . S
C533 C534 1.523 . S
C534 C518 1.368 . S
C534 C530 1.368 . S
C534 C533 1.523 . S
H535 C510 0.950 . S
H536 C512 0.950 . S
H537 C513 0.949 . S
H538 C515 0.950 . S
H539 C517 0.950 . S
C540 C541 1.349 . S
C540 C542 1.327 . S
C540 H565 0.950 . S
C541 C540 1.349 . S
C541 C557 1.349 . S
C542 C540 1.327 . S
C542 C561 1.429 . S
C542 H566 0.950 . S
C543 C560 1.574 . S
C543 C562 1.368 . S
C543 H567 0.949 . S
H544 C548 0.949 . S
C545 C546 1.349 . S
C545 C547 1.327 . S
C545 H568 0.950 . S
C546 C545 1.349 . S
C546 C558 1.349 . S
C547 C545 1.327 . S
C547 C563 1.429 . S
C547 H569 0.950 . S
C548 H544 0.949 . S
C548 C556 1.574 . S
C548 C564 1.368 . S
H549 C557 0.950 . S
H550 C555 0.950 . S
H551 C556 0.949 . S
H552 C558 0.950 . S
H553 C559 0.950 . S
H554 C560 0.949 . S
C555 H550 0.950 . S
C555 C557 1.327 . S
C555 C561 1.429 . S
C556 C548 1.574 . S
C556 H551 0.949 . S
C556 C562 1.368 . S
C557 C541 1.349 . S
C557 H549 0.950 . S
C557 C555 1.327 . S
C558 C546 1.349 . S
C558 H552 0.950 . S
C558 C559 1.327 . S
C559 H553 0.950 . S
C559 C558 1.327 . S
C559 C563 1.429 . S
C560 C543 1.574 . S
C560 H554 0.949 . S
C560 C564 1.368 . S
C561 C542 1.429 . S
C561 C555 1.429 . S
C561 C562 1.523 . S
C562 C543 1.368 . S
C562 C556 1.368 . S
C562 C561 1.523 . S
C563 C547 1.429 . S
C563 C559 1.429 . S
C563 C564 1.523 . S
C564 C548 1.368 . S
C564 C560 1.368 . S
C564 C563 1.523 . S
H565 C540 0.950 . S
H566 C542 0.950 . S
H567 C543 0.949 . S
H568 C545 0.950 . S
H569 C547 0.950 . S
C570 C571 1.349 . S
C570 C572 1.327 . S
C570 H595 0.950 . S
C571 C570 1.349 . S
C571 C587 1.349 . S
C572 C570 1.327 . S
C572 C591 1.429 . S
C572 H596 0.950 . S
C573 C590 1.574 . S
C573 C592 1.368 . S
C573 H597 0.949 . S
H574 C578 0.949 . S
C575 C576 1.349 . S
C575 C577 1.327 . S
C575 H598 0.950 . S
C576 C575 1.349 . S
C576 C588 1.349 . S
C577 C575 1.327 . S
C577 C593 1.429 . S
C577 H599 0.950 . S
C578 H574 0.949 . S
C578 C586 1.574 . S
C578 C594 1.368 . S
H579 C587 0.950 . S
H580 C585 0.950 . S
H581 C586 0.949 . S
H582 C588 0.950 . S
H583 C589 0.950 . S
H584 C590 0.949 . S
C585 H580 0.950 . S
C585 C587 1.327 . S
C585 C591 1.429 . S
C586 C578 1.574 . S
C586 H581 0.949 . S
C586 C592 1.368 . S
C587 C571 1.349 . S
C587 H579 0.950 . S
C587 C585 1.327 . S
C588 C576 1.349 . S
C588 H582 0.950 . S
C588 C589 1.327 . S
C589 H583 0.950 . S
C589 C588 1.327 . S
C589 C593 1.429 . S
C590 C573 1.574 . S
C590 H584 0.949 . S
C590 C594 1.368 . S
C591 C572 1.429 . S
C591 C585 1.429 . S
C591 C592 1.523 . S
C592 C573 1.368 . S
C592 C586 1.368 . S
C592 C591 1.523 . S
C593 C577 1.429 . S
C593 C589 1.429 . S
C593 C594 1.523 . S
C594 C578 1.368 . S
C594 C590 1.368 . S
C594 C593 1.523 . S
H595 C570 0.950 . S
H596 C572 0.950 . S
H597 C573 0.949 . S
H598 C575 0.950 . S
H599 C577 0.950 . S
C600 C601 1.349 . S
C600 C602 1.327 . S
C600 H625 0.950 . S
C601 C600 1.349 . S
C601 C617 1.349 . S
C602 C600 1.327 . S
C602 C621 1.429 . S
C602 H626 0.950 . S
C603 C620 1.574 . S
C603 C622 1.368 . S
C603 H627 0.949 . S
H604 C608 0.949 . S
C605 C606 1.349 . S
C605 C607 1.327 . S
C605 H628 0.950 . S
C606 C605 1.349 . S
C606 C618 1.349 . S
C607 C605 1.327 . S
C607 C623 1.429 . S
C607 H629 0.950 . S
C608 H604 0.949 . S
C608 C616 1.574 . S
C608 C624 1.368 . S
H609 C617 0.950 . S
H610 C615 0.950 . S
H611 C616 0.949 . S
H612 C618 0.950 . S
H613 C619 0.950 . S
H614 C620 0.949 . S
C615 H610 0.950 . S
C615 C617 1.327 . S
C615 C621 1.429 . S
C616 C608 1.574 . S
C616 H611 0.949 . S
C616 C622 1.368 . S
C617 C601 1.349 . S
C617 H609 0.950 . S
C617 C615 1.327 . S
C618 C606 1.349 . S
C618 H612 0.950 . S
C618 C619 1.327 . S
C619 H613 0.950 . S
C619 C618 1.327 . S
C619 C623 1.429 . S
C620 C603 1.574 . S
C620 H614 0.949 . S
C620 C624 1.368 . S
C621 C602 1.429 . S
C621 C615 1.429 . S
C621 C622 1.523 . S
C622 C603 1.368 . S
C622 C616 1.368 . S
C622 C621 1.523 . S
C623 C607 1.429 . S
C623 C619 1.429 . S
C623 C624 1.523 . S
C624 C608 1.368 . S
C624 C620 1.368 . S
C624 C623 1.523 . S
H625 C600 0.950 . S
H626 C602 0.950 . S
H627 C603 0.949 . S
H628 C605 0.950 . S
H629 C607 0.950 . S
C630 C631 1.349 . S
C630 C632 1.327 . S
C630 H655 0.950 . S
C631 C630 1.349 . S
C631 C647 1.349 . S
C632 C630 1.327 . S
C632 C651 1.429 . S
C632 H656 0.950 . S
C633 C650 1.574 . S
C633 C652 1.368 . S
C633 H657 0.949 . S
H634 C638 0.949 . S
C635 C636 1.349 . S
C635 C637 1.327 . S
C635 H658 0.950 . S
C636 C635 1.349 . S
C636 C648 1.349 . S
C637 C635 1.327 . S
C637 C653 1.429 . S
C637 H659 0.950 . S
C638 H634 0.949 . S
C638 C646 1.574 . S
C638 C654 1.368 . S
H639 C647 0.950 . S
H640 C645 0.950 . S
H641 C646 0.949 . S
H642 C648 0.950 . S
H643 C649 0.950 . S
H644 C650 0.949 . S
C645 H640 0.950 . S
C645 C647 1.327 . S
C645 C651 1.429 . S
C646 C638 1.574 . S
C646 H641 0.949 . S
C646 C652 1.368 . S
C647 C631 1.349 . S
C647 H639 0.950 . S
C647 C645 1.327 . S
C648 C636 1.349 . S
C648 H642 0.950 . S
C648 C649 1.327 . S
C649 H643 0.950 . S
C649 C648 1.327 . S
C649 C653 1.429 . S
C650 C633 1.574 . S
C650 H644 0.949 . S
C650 C654 1.368 . S
C651 C632 1.429 . S
C651 C645 1.429 . S
C651 C652 1.523 . S
C652 C633 1.368 . S
C652 C646 1.368 . S
C652 C651 1.523 . S
C653 C637 1.429 . S
C653 C649 1.429 . S
C653 C654 1.523 . S
C654 C638 1.368 . S
C654 C650 1.368 . S
C654 C653 1.523 . S
H655 C630 0.950 . S
H656 C632 0.950 . S
H657 C633 0.949 . S
H658 C635 0.950 . S
H659 C637 0.950 . S
C660 C661 1.349 . S
C660 C662 1.327 . S
C660 H685 0.950 . S
C661 C660 1.349 . S
C661 C677 1.349 . S
C662 C660 1.327 . S
C662 C681 1.429 . S
C662 H686 0.950 . S
C663 C680 1.574 . S
C663 C682 1.368 . S
C663 H687 0.949 . S
H664 C668 0.949 . S
C665 C666 1.349 . S
C665 C667 1.327 . S
C665 H688 0.950 . S
C666 C665 1.349 . S
C666 C678 1.349 . S
C667 C665 1.327 . S
C667 C683 1.429 . S
C667 H689 0.950 . S
C668 H664 0.949 . S
C668 C676 1.574 . S
C668 C684 1.368 . S
H669 C677 0.950 . S
H670 C675 0.950 . S
H671 C676 0.949 . S
H672 C678 0.950 . S
H673 C679 0.950 . S
H674 C680 0.949 . S
C675 H670 0.950 . S
C675 C677 1.327 . S
C675 C681 1.429 . S
C676 C668 1.574 . S
C676 H671 0.949 . S
C676 C682 1.368 . S
C677 C661 1.349 . S
C677 H669 0.950 . S
C677 C675 1.327 . S
C678 C666 1.349 . S
C678 H672 0.950 . S
C678 C679 1.327 . S
C679 H673 0.950 . S
C679 C678 1.327 . S
C679 C683 1.429 . S
C680 C663 1.574 . S
C680 H674 0.949 . S
C680 C684 1.368 . S
C681 C662 1.429 . S
C681 C675 1.429 . S
C681 C682 1.523 . S
C682 C663 1.368 . S
C682 C676 1.368 . S
C682 C681 1.523 . S
C683 C667 1.429 . S
C683 C679 1.429 . S
C683 C684 1.523 . S
C684 C668 1.368 . S
C684 C680 1.368 . S
C684 C683 1.523 . S
H685 C660 0.950 . S
H686 C662 0.950 . S
H687 C663 0.949 . S
H688 C665 0.950 . S
H689 C667 0.950 . S
C690 C691 1.349 . S
C690 C692 1.327 . S
C690 H715 0.950 . S
C691 C690 1.349 . S
C691 C707 1.349 . S
C692 C690 1.327 . S
C692 C711 1.429 . S
C692 H716 0.950 . S
C693 C710 1.574 . S
C693 C712 1.368 . S
C693 H717 0.949 . S
H694 C698 0.949 . S
C695 C696 1.349 . S
C695 C697 1.327 . S
C695 H718 0.950 . S
C696 C695 1.349 . S
C696 C708 1.349 . S
C697 C695 1.327 . S
C697 C713 1.429 . S
C697 H719 0.950 . S
C698 H694 0.949 . S
C698 C706 1.574 . S
C698 C714 1.368 . S
H699 C707 0.950 . S
H700 C705 0.950 . S
H701 C706 0.949 . S
H702 C708 0.950 . S
H703 C709 0.950 . S
H704 C710 0.949 . S
C705 H700 0.950 . S
C705 C707 1.327 . S
C705 C711 1.429 . S
C706 C698 1.574 . S
C706 H701 0.949 . S
C706 C712 1.368 . S
C707 C691 1.349 . S
C707 H699 0.950 . S
C707 C705 1.327 . S
C708 C696 1.349 . S
C708 H702 0.950 . S
C708 C709 1.327 . S
C709 H703 0.950 . S
C709 C708 1.327 . S
C709 C713 1.429 . S
C710 C693 1.574 . S
C710 H704 0.949 . S
C710 C714 1.368 . S
C711 C692 1.429 . S
C711 C705 1.429 . S
C711 C712 1.523 . S
C712 C693 1.368 . S
C712 C706 1.368 . S
C712 C711 1.523 . S
C713 C697 1.429 . S
C713 C709 1.429 . S
C713 C714 1.523 . S
C714 C698 1.368 . S
C714 C710 1.368 . S
C714 C713 1.523 . S
H715 C690 0.950 . S
H716 C692 0.950 . S
H717 C693 0.949 . S
H718 C695 0.950 . S
H719 C697 0.950 . S
C720 C721 1.349 . S
C720 C722 1.327 . S
C720 H745 0.950 . S
C721 C720 1.349 . S
C721 C737 1.349 1_455 S
C722 C720 1.327 . S
C722 C741 1.429 . S
C722 H746 0.950 . S
C723 C740 1.574 . S
C723 C742 1.368 1_655 S
C723 H747 0.949 . S
H724 C728 0.949 . S
C725 C726 1.349 1_655 S
C725 C727 1.327 1_556 S
C725 H748 0.950 . S
C726 C725 1.349 1_455 S
C726 C738 1.313 1_556 S
C727 C725 1.327 1_554 S
C727 C743 1.429 1_655 S
C727 H749 0.950 . S
C728 H724 0.949 . S
C728 C736 1.574 . S
C728 C744 1.368 . S
H729 C737 0.950 . S
H730 C735 0.950 . S
H731 C736 0.949 . S
H732 C738 0.915 1_556 S
H733 C739 0.950 . S
H734 C740 0.949 . S
C735 H730 0.950 . S
C735 C737 1.327 . S
C735 C741 1.429 1_655 S
C736 C728 1.574 . S
C736 H731 0.949 . S
C736 C742 1.368 . S
C737 C721 1.349 1_655 S
C737 H729 0.950 . S
C737 C735 1.327 . S
C738 C726 1.313 1_554 S
C738 H732 0.915 1_554 S
C738 C739 1.402 . S
C739 H733 0.950 . S
C739 C738 1.402 . S
C739 C743 1.429 . S
C740 C723 1.574 . S
C740 H734 0.949 . S
C740 C744 1.368 1_655 S
C741 C722 1.429 . S
C741 C735 1.429 1_455 S
C741 C742 1.523 . S
C742 C723 1.368 1_455 S
C742 C736 1.368 . S
C742 C741 1.523 . S
C743 C727 1.429 1_455 S
C743 C739 1.429 . S
C743 C744 1.523 . S
C744 C728 1.368 . S
C744 C740 1.368 1_455 S
C744 C743 1.523 . S
H745 C720 0.950 . S
H746 C722 0.950 . S
H747 C723 0.949 . S
H748 C725 0.950 . S
H749 C727 0.950 . S
C750 C751 1.349 . S
C750 C752 1.327 . S
C750 H775 0.950 . S
C751 C750 1.349 . S
C751 C767 1.349 . S
C752 C750 1.327 . S
C752 C771 1.429 . S
C752 H776 0.950 1_545 S
C753 C770 1.574 . S
C753 C772 1.368 . S
C753 H777 0.949 . S
H754 C758 0.949 1_565 S
C755 C756 1.349 . S
C755 C757 1.327 . S
C755 H778 0.950 . S
C756 C755 1.349 . S
C756 C768 1.349 . S
C757 C755 1.327 . S
C757 C773 1.429 . S
C757 H779 0.950 . S
C758 H754 0.949 1_545 S
C758 C766 1.574 . S
C758 C774 1.368 . S
H759 C767 0.950 . S
H760 C765 0.950 . S
H761 C766 0.949 1_565 S
H762 C768 0.950 1_565 S
H763 C769 0.950 1_565 S
H764 C770 0.949 . S
C765 H760 0.950 . S
C765 C767 1.327 . S
C765 C771 1.429 . S
C766 C758 1.574 . S
C766 H761 0.949 1_545 S
C766 C772 1.368 . S
C767 C751 1.349 . S
C767 H759 0.950 . S
C767 C765 1.327 . S
C768 C756 1.349 . S
C768 H762 0.950 1_545 S
C768 C769 1.327 . S
C769 H763 0.950 1_545 S
C769 C768 1.327 . S
C769 C773 1.429 . S
C770 C753 1.574 . S
C770 H764 0.949 . S
C770 C774 1.368 . S
C771 C752 1.429 . S
C771 C765 1.429 . S
C771 C772 1.523 . S
C772 C753 1.368 . S
C772 C766 1.368 . S
C772 C771 1.523 . S
C773 C757 1.429 . S
C773 C769 1.429 . S
C773 C774 1.523 . S
C774 C758 1.368 . S
C774 C770 1.368 . S
C774 C773 1.523 . S
H775 C750 0.950 . S
H776 C752 0.950 1_565 S
H777 C753 0.949 . S
H778 C755 0.950 . S
H779 C757 0.950 . S
C780 C781 1.349 . S
C780 C782 1.327 . S
C780 H805 0.950 . S
C781 C780 1.349 . S
C781 C797 1.349 . S
C782 C780 1.327 . S
C782 C801 1.429 . S
C782 H806 0.950 . S
C783 C800 1.574 . S
C783 C802 1.368 . S
C783 H807 0.949 . S
H784 C788 0.949 . S
C785 C786 1.349 . S
C785 C787 1.327 . S
C785 H808 0.950 . S
C786 C785 1.349 . S
C786 C798 1.349 . S
C787 C785 1.327 . S
C787 C803 1.429 . S
C787 H809 0.950 . S
C788 H784 0.949 . S
C788 C796 1.574 . S
C788 C804 1.368 . S
H789 C797 0.950 . S
H790 C795 0.950 . S
H791 C796 0.949 . S
H792 C798 0.950 . S
H793 C799 0.950 . S
H794 C800 0.949 . S
C795 H790 0.950 . S
C795 C797 1.327 . S
C795 C801 1.429 . S
C796 C788 1.574 . S
C796 H791 0.949 . S
C796 C802 1.368 . S
C797 C781 1.349 . S
C797 H789 0.950 . S
C797 C795 1.327 . S
C798 C786 1.349 . S
C798 H792 0.950 . S
C798 C799 1.327 . S
C799 H793 0.950 . S
C799 C798 1.327 . S
C799 C803 1.429 . S
C800 C783 1.574 . S
C800 H794 0.949 . S
C800 C804 1.368 . S
C801 C782 1.429 . S
C801 C795 1.429 . S
C801 C802 1.523 . S
C802 C783 1.368 . S
C802 C796 1.368 . S
C802 C801 1.523 . S
C803 C787 1.429 . S
C803 C799 1.429 . S
C803 C804 1.523 . S
C804 C788 1.368 . S
C804 C800 1.368 . S
C804 C803 1.523 . S
H805 C780 0.950 . S
H806 C782 0.950 . S
H807 C783 0.949 . S
H808 C785 0.950 . S
H809 C787 0.950 . S
C810 C811 1.349 . S
C810 C812 1.327 . S
C810 H835 0.950 1_545 S
C811 C810 1.349 . S
C811 C827 1.349 . S
C812 C810 1.327 . S
C812 C831 1.429 . S
C812 H836 0.950 1_545 S
C813 C830 1.574 . S
C813 C832 1.368 . S
C813 H837 0.949 . S
H814 C818 0.949 . S
C815 C816 1.349 . S
C815 C817 1.327 . S
C815 H838 0.950 . S
C816 C815 1.349 . S
C816 C828 1.349 1_545 S
C817 C815 1.327 . S
C817 C833 1.429 . S
C817 H839 0.950 . S
C818 H814 0.949 . S
C818 C826 1.574 . S
C818 C834 1.368 1_565 S
H819 C827 0.950 . S
H820 C825 0.950 . S
H821 C826 0.949 . S
H822 C828 0.950 . S
H823 C829 0.950 . S
H824 C830 0.949 . S
C825 H820 0.950 . S
C825 C827 1.327 . S
C825 C831 1.429 . S
C826 C818 1.574 . S
C826 H821 0.949 . S
C826 C832 1.368 1_565 S
C827 C811 1.349 . S
C827 H819 0.950 . S
C827 C825 1.327 . S
C828 C816 1.349 1_565 S
C828 H822 0.950 . S
C828 C829 1.327 . S
C829 H823 0.950 . S
C829 C828 1.327 . S
C829 C833 1.429 1_565 S
C830 C813 1.574 . S
C830 H824 0.949 . S
C830 C834 1.368 . S
C831 C812 1.429 . S
C831 C825 1.429 . S
C831 C832 1.523 . S
C832 C813 1.368 . S
C832 C826 1.368 1_545 S
C832 C831 1.523 . S
C833 C817 1.429 . S
C833 C829 1.429 1_545 S
C833 C834 1.523 . S
C834 C818 1.368 1_545 S
C834 C830 1.368 . S
C834 C833 1.523 . S
H835 C810 0.950 1_565 S
H836 C812 0.950 1_565 S
H837 C813 0.949 . S
H838 C815 0.950 . S
H839 C817 0.950 . S
C840 C841 1.349 . S
C840 C842 1.327 . S
C840 H865 0.950 . S
C841 C840 1.349 . S
C841 C857 1.349 . S
C842 C840 1.327 . S
C842 C861 1.429 . S
C842 H866 0.950 . S
C843 C860 1.574 . S
C843 C862 1.368 . S
C843 H867 0.949 . S
H844 C848 0.949 . S
C845 C846 1.365 . S
C845 C847 1.301 1_554 S
C845 H868 0.960 . S
C846 C845 1.365 . S
C846 C858 1.349 . S
C847 C845 1.301 1_556 S
C847 C863 1.429 . S
C847 H869 0.950 . S
C848 H844 0.949 . S
C848 C856 1.574 . S
C848 C864 1.368 . S
H849 C857 0.950 . S
H850 C855 0.950 . S
H851 C856 0.949 . S
H852 C858 0.950 . S
H853 C859 0.950 . S
H854 C860 0.949 . S
C855 H850 0.950 . S
C855 C857 1.327 . S
C855 C861 1.429 . S
C856 C848 1.574 . S
C856 H851 0.949 . S
C856 C862 1.368 . S
C857 C841 1.349 . S
C857 H849 0.950 . S
C857 C855 1.327 . S
C858 C846 1.349 . S
C858 H852 0.950 . S
C858 C859 1.327 1_554 S
C859 H853 0.950 . S
C859 C858 1.327 1_556 S
C859 C863 1.429 . S
C860 C843 1.574 . S
C860 H854 0.949 . S
C860 C864 1.368 . S
C861 C842 1.429 . S
C861 C855 1.429 . S
C861 C862 1.523 . S
C862 C843 1.368 . S
C862 C856 1.368 . S
C862 C861 1.523 . S
C863 C847 1.429 . S
C863 C859 1.429 . S
C863 C864 1.523 . S
C864 C848 1.368 . S
C864 C860 1.368 . S
C864 C863 1.523 . S
H865 C840 0.950 . S
H866 C842 0.950 . S
H867 C843 0.949 . S
H868 C845 0.960 . S
H869 C847 0.950 . S
C870 C871 1.349 . S
C870 C872 1.327 . S
C870 H895 0.950 . S
C871 C870 1.349 . S
C871 C887 1.349 . S
C872 C870 1.327 . S
C872 C891 1.429 . S
C872 H896 0.950 . S
C873 C890 1.574 . S
C873 C892 1.368 . S
C873 H897 0.949 . S
H874 C878 0.949 . S
C875 C876 1.349 . S
C875 C877 1.327 . S
C875 H898 0.940 1_455 S
C876 C875 1.349 . S
C876 C888 1.349 . S
C877 C875 1.327 . S
C877 C893 1.429 . S
C877 H899 0.950 . S
C878 H874 0.949 . S
C878 C886 1.574 . S
C878 C894 1.368 . S
H879 C887 0.950 . S
H880 C885 0.950 . S
H881 C886 0.949 . S
H882 C888 0.950 . S
H883 C889 0.950 . S
H884 C890 0.949 . S
C885 H880 0.950 . S
C885 C887 1.327 . S
C885 C891 1.429 . S
C886 C878 1.574 . S
C886 H881 0.949 . S
C886 C892 1.368 . S
C887 C871 1.349 . S
C887 H879 0.950 . S
C887 C885 1.327 . S
C888 C876 1.349 . S
C888 H882 0.950 . S
C888 C889 1.327 . S
C889 H883 0.950 . S
C889 C888 1.327 . S
C889 C893 1.429 . S
C890 C873 1.574 . S
C890 H884 0.949 . S
C890 C894 1.368 . S
C891 C872 1.429 . S
C891 C885 1.429 . S
C891 C892 1.523 . S
C892 C873 1.368 . S
C892 C886 1.368 . S
C892 C891 1.523 . S
C893 C877 1.429 . S
C893 C889 1.429 . S
C893 C894 1.523 . S
C894 C878 1.368 . S
C894 C890 1.368 . S
C894 C893 1.523 . S
H895 C870 0.950 . S
H896 C872 0.950 . S
H897 C873 0.949 . S
H898 C875 0.940 1_655 S
H899 C877 0.950 . S
C361 C9 0.418 . S
C366 C335 0.405 . S
C391 C49 0.233 . S
C396 C242 0.241 . S
C421 C89 0.233 . S
C426 C282 0.247 . S
C451 C26 0.308 . S
C456 C322 0.218 . S
C486 C255 0.341 . S
C481 C66 0.400 . S
C516 C295 0.358 . S
C511 C106 0.423 . S
C541 C43 2.908 . S
C546 C162 2.872 . S
C571 C83 3.088 . S
C576 C202 3.046 . S
C601 C22 3.186 . S
C606 C135 3.122 . S
C636 C175 3.111 . S
C631 C62 3.173 . S
C666 C215 2.938 . S
C661 C102 2.988 . S
C691 C3 2.895 . S
C696 C122 2.864 . S
C726 C221 1.756 . S
C721 C15 1.713 . S
C751 C55 1.727 . S
C756 C141 1.760 . S
C781 C95 1.722 . S
C786 C181 1.754 . S
C816 C301 1.118 . S
C811 C42 1.105 . S
C846 C341 1.123 . S
C841 C82 1.108 . S
C871 C2 1.104 . S
C876 C261 1.119 . S
