# Generated by pormake.
# Topology cor, (4,6)-cn, num edge types: 1
# Building blocks:
#     Node 0, Type 0, BuildingBlock: NAHDIM_clean_sbu_0, # of connection points: 4
#     Node 1, Type 0, BuildingBlock: NAHDIM_clean_sbu_0, # of connection points: 4
#     Node 2, Type 0, BuildingBlock: NAHDIM_clean_sbu_0, # of connection points: 4
#     Node 3, Type 0, BuildingBlock: NAHDIM_clean_sbu_0, # of connection points: 4
#     Node 4, Type 0, BuildingBlock: NAHDIM_clean_sbu_0, # of connection points: 4
#     Node 5, Type 0, BuildingBlock: NAHDIM_clean_sbu_0, # of connection points: 4
#     Node 6, Type 0, BuildingBlock: NAHDIM_clean_sbu_0, # of connection points: 4
#     Node 7, Type 0, BuildingBlock: NAHDIM_clean_sbu_0, # of connection points: 4
#     Node 8, Type 0, BuildingBlock: NAHDIM_clean_sbu_0, # of connection points: 4
#     Node 9, Type 0, BuildingBlock: NAHDIM_clean_sbu_0, # of connection points: 4
#     Node 10, Type 0, BuildingBlock: NAHDIM_clean_sbu_0, # of connection points: 4
#     Node 11, Type 0, BuildingBlock: NAHDIM_clean_sbu_0, # of connection points: 4
#     Node 12, Type 0, BuildingBlock: NAHDIM_clean_sbu_0, # of connection points: 4
#     Node 13, Type 0, BuildingBlock: NAHDIM_clean_sbu_0, # of connection points: 4
#     Node 14, Type 0, BuildingBlock: NAHDIM_clean_sbu_0, # of connection points: 4
#     Node 15, Type 0, BuildingBlock: NAHDIM_clean_sbu_0, # of connection points: 4
#     Node 16, Type 0, BuildingBlock: NAHDIM_clean_sbu_0, # of connection points: 4
#     Node 17, Type 0, BuildingBlock: NAHDIM_clean_sbu_0, # of connection points: 4
#     Node 18, Type 1, BuildingBlock: MIDCAF_clean_sbu_0, # of connection points: 6
#     Node 19, Type 1, BuildingBlock: MIDCAF_clean_sbu_0, # of connection points: 6
#     Node 20, Type 1, BuildingBlock: MIDCAF_clean_sbu_0, # of connection points: 6
#     Node 21, Type 1, BuildingBlock: MIDCAF_clean_sbu_0, # of connection points: 6
#     Node 22, Type 1, BuildingBlock: MIDCAF_clean_sbu_0, # of connection points: 6
#     Node 23, Type 1, BuildingBlock: MIDCAF_clean_sbu_0, # of connection points: 6
#     Node 24, Type 1, BuildingBlock: MIDCAF_clean_sbu_0, # of connection points: 6
#     Node 25, Type 1, BuildingBlock: MIDCAF_clean_sbu_0, # of connection points: 6
#     Node 26, Type 1, BuildingBlock: MIDCAF_clean_sbu_0, # of connection points: 6
#     Node 27, Type 1, BuildingBlock: MIDCAF_clean_sbu_0, # of connection points: 6
#     Node 28, Type 1, BuildingBlock: MIDCAF_clean_sbu_0, # of connection points: 6
#     Node 29, Type 1, BuildingBlock: MIDCAF_clean_sbu_0, # of connection points: 6
#     Edge 30, Type (0, 1), BuildingBlock: XIVTED_clean_linker_0, # of connection points: 2
#     Edge 31, Type (0, 1), BuildingBlock: XIVTED_clean_linker_0, # of connection points: 2
#     Edge 32, Type (0, 1), BuildingBlock: XIVTED_clean_linker_0, # of connection points: 2
#     Edge 33, Type (0, 1), BuildingBlock: XIVTED_clean_linker_0, # of connection points: 2
#     Edge 34, Type (0, 1), BuildingBlock: XIVTED_clean_linker_0, # of connection points: 2
#     Edge 35, Type (0, 1), BuildingBlock: XIVTED_clean_linker_0, # of connection points: 2
#     Edge 36, Type (0, 1), BuildingBlock: XIVTED_clean_linker_0, # of connection points: 2
#     Edge 37, Type (0, 1), BuildingBlock: XIVTED_clean_linker_0, # of connection points: 2
#     Edge 38, Type (0, 1), BuildingBlock: XIVTED_clean_linker_0, # of connection points: 2
#     Edge 39, Type (0, 1), BuildingBlock: XIVTED_clean_linker_0, # of connection points: 2
#     Edge 40, Type (0, 1), BuildingBlock: XIVTED_clean_linker_0, # of connection points: 2
#     Edge 41, Type (0, 1), BuildingBlock: XIVTED_clean_linker_0, # of connection points: 2
#     Edge 42, Type (0, 1), BuildingBlock: XIVTED_clean_linker_0, # of connection points: 2
#     Edge 43, Type (0, 1), BuildingBlock: XIVTED_clean_linker_0, # of connection points: 2
#     Edge 44, Type (0, 1), BuildingBlock: XIVTED_clean_linker_0, # of connection points: 2
#     Edge 45, Type (0, 1), BuildingBlock: XIVTED_clean_linker_0, # of connection points: 2
#     Edge 46, Type (0, 1), BuildingBlock: XIVTED_clean_linker_0, # of connection points: 2
#     Edge 47, Type (0, 1), BuildingBlock: XIVTED_clean_linker_0, # of connection points: 2
#     Edge 48, Type (0, 1), BuildingBlock: XIVTED_clean_linker_0, # of connection points: 2
#     Edge 49, Type (0, 1), BuildingBlock: XIVTED_clean_linker_0, # of connection points: 2
#     Edge 50, Type (0, 1), BuildingBlock: XIVTED_clean_linker_0, # of connection points: 2
#     Edge 51, Type (0, 1), BuildingBlock: XIVTED_clean_linker_0, # of connection points: 2
#     Edge 52, Type (0, 1), BuildingBlock: XIVTED_clean_linker_0, # of connection points: 2
#     Edge 53, Type (0, 1), BuildingBlock: XIVTED_clean_linker_0, # of connection points: 2
#     Edge 54, Type (0, 1), BuildingBlock: XIVTED_clean_linker_0, # of connection points: 2
#     Edge 55, Type (0, 1), BuildingBlock: XIVTED_clean_linker_0, # of connection points: 2
#     Edge 56, Type (0, 1), BuildingBlock: XIVTED_clean_linker_0, # of connection points: 2
#     Edge 57, Type (0, 1), BuildingBlock: XIVTED_clean_linker_0, # of connection points: 2
#     Edge 58, Type (0, 1), BuildingBlock: XIVTED_clean_linker_0, # of connection points: 2
#     Edge 59, Type (0, 1), BuildingBlock: XIVTED_clean_linker_0, # of connection points: 2
#     Edge 60, Type (0, 1), BuildingBlock: XIVTED_clean_linker_0, # of connection points: 2
#     Edge 61, Type (0, 1), BuildingBlock: XIVTED_clean_linker_0, # of connection points: 2
#     Edge 62, Type (0, 1), BuildingBlock: XIVTED_clean_linker_0, # of connection points: 2
#     Edge 63, Type (0, 1), BuildingBlock: XIVTED_clean_linker_0, # of connection points: 2
#     Edge 64, Type (0, 1), BuildingBlock: XIVTED_clean_linker_0, # of connection points: 2
#     Edge 65, Type (0, 1), BuildingBlock: XIVTED_clean_linker_0, # of connection points: 2
#     Edge 66, Type (0, 1), BuildingBlock: XIVTED_clean_linker_0, # of connection points: 2
#     Edge 67, Type (0, 1), BuildingBlock: XIVTED_clean_linker_0, # of connection points: 2
#     Edge 68, Type (0, 1), BuildingBlock: XIVTED_clean_linker_0, # of connection points: 2
#     Edge 69, Type (0, 1), BuildingBlock: XIVTED_clean_linker_0, # of connection points: 2
#     Edge 70, Type (0, 1), BuildingBlock: XIVTED_clean_linker_0, # of connection points: 2
#     Edge 71, Type (0, 1), BuildingBlock: XIVTED_clean_linker_0, # of connection points: 2
#     Edge 72, Type (0, 1), BuildingBlock: XIVTED_clean_linker_0, # of connection points: 2
#     Edge 73, Type (0, 1), BuildingBlock: XIVTED_clean_linker_0, # of connection points: 2
#     Edge 74, Type (0, 1), BuildingBlock: XIVTED_clean_linker_0, # of connection points: 2
#     Edge 75, Type (0, 1), BuildingBlock: XIVTED_clean_linker_0, # of connection points: 2
#     Edge 76, Type (0, 1), BuildingBlock: XIVTED_clean_linker_0, # of connection points: 2
#     Edge 77, Type (0, 1), BuildingBlock: XIVTED_clean_linker_0, # of connection points: 2
#     Edge 78, Type (0, 1), BuildingBlock: XIVTED_clean_linker_0, # of connection points: 2
#     Edge 79, Type (0, 1), BuildingBlock: XIVTED_clean_linker_0, # of connection points: 2
#     Edge 80, Type (0, 1), BuildingBlock: XIVTED_clean_linker_0, # of connection points: 2
#     Edge 81, Type (0, 1), BuildingBlock: XIVTED_clean_linker_0, # of connection points: 2
#     Edge 82, Type (0, 1), BuildingBlock: XIVTED_clean_linker_0, # of connection points: 2
#     Edge 83, Type (0, 1), BuildingBlock: XIVTED_clean_linker_0, # of connection points: 2
#     Edge 84, Type (0, 1), BuildingBlock: XIVTED_clean_linker_0, # of connection points: 2
#     Edge 85, Type (0, 1), BuildingBlock: XIVTED_clean_linker_0, # of connection points: 2
#     Edge 86, Type (0, 1), BuildingBlock: XIVTED_clean_linker_0, # of connection points: 2
#     Edge 87, Type (0, 1), BuildingBlock: XIVTED_clean_linker_0, # of connection points: 2
#     Edge 88, Type (0, 1), BuildingBlock: XIVTED_clean_linker_0, # of connection points: 2
#     Edge 89, Type (0, 1), BuildingBlock: XIVTED_clean_linker_0, # of connection points: 2
#     Edge 90, Type (0, 1), BuildingBlock: XIVTED_clean_linker_0, # of connection points: 2
#     Edge 91, Type (0, 1), BuildingBlock: XIVTED_clean_linker_0, # of connection points: 2
#     Edge 92, Type (0, 1), BuildingBlock: XIVTED_clean_linker_0, # of connection points: 2
#     Edge 93, Type (0, 1), BuildingBlock: XIVTED_clean_linker_0, # of connection points: 2
#     Edge 94, Type (0, 1), BuildingBlock: XIVTED_clean_linker_0, # of connection points: 2
#     Edge 95, Type (0, 1), BuildingBlock: XIVTED_clean_linker_0, # of connection points: 2
#     Edge 96, Type (0, 1), BuildingBlock: XIVTED_clean_linker_0, # of connection points: 2
#     Edge 97, Type (0, 1), BuildingBlock: XIVTED_clean_linker_0, # of connection points: 2
#     Edge 98, Type (0, 1), BuildingBlock: XIVTED_clean_linker_0, # of connection points: 2
#     Edge 99, Type (0, 1), BuildingBlock: XIVTED_clean_linker_0, # of connection points: 2
#     Edge 100, Type (0, 1), BuildingBlock: XIVTED_clean_linker_0, # of connection points: 2
#     Edge 101, Type (0, 1), BuildingBlock: XIVTED_clean_linker_0, # of connection points: 2
# Relax obj value: 0.160
# Max RMSD: 0.189
# Mean RMSD: 0.174
data_MOF--net-cor--node1-NAHDIM_clean_sbu_0--node2-MIDCAF_clean_sbu_0--edge1-XIVTED_clean_linker_0
_symmetry_space_group_name_H-M    P1
_symmetry_Int_Tables_number       1
_symmetry_cell_setting            triclinic
loop_
_symmetry_equiv_pos_as_xyz
'x, y, z'
_cell_length_a     39.06309
_cell_length_b     38.648124
_cell_length_c     97.467432
_cell_angle_alpha  91.626056
_cell_angle_beta   89.094607
_cell_angle_gamma 121.08632
loop_
_atom_site_label
_atom_site_type_symbol
_atom_site_fract_x
_atom_site_fract_y
_atom_site_fract_z
_atom_type_partial_charge
C0 C 0.72065 0.05844 0.25506 0.0
O1 O 0.70708 0.026 0.24712 0.0
O2 O 0.67219 0.96333 0.27351 0.0
Zn3 Zn 0.7303 0.0065 0.2714 0.0
O4 O 0.76015 -0.00226 0.25581 0.0
C5 C 0.74222 0.97762 0.2961 0.0
O6 O 0.71585 0.94353 0.29 0.0
O7 O 0.73329 0.05829 0.26698 0.0
C8 C 0.7452 0.97452 0.24531 0.0
O9 O 0.7065 0.94868 0.2448 0.0
C10 C 0.64816 0.9741 0.27794 0.0
O11 O 0.66049 0.0127 0.27919 0.0
O12 O 0.75537 0.01055 0.28979 0.0
C13 C 0.07081 0.71327 0.27663 0.0
O14 O 0.03833 0.70556 0.28339 0.0
O15 O 0.98907 0.69209 0.25421 0.0
Zn16 Zn 0.03699 0.74505 0.26005 0.0
O17 O 0.02672 0.77032 0.27689 0.0
C18 C 0.01935 0.78146 0.2393 0.0
O19 O 0.98562 0.76117 0.24609 0.0
O20 O 0.07867 0.73174 0.26533 0.0
C21 C 0.05736 0.79808 0.28319 0.0
O22 O 0.09298 0.80981 0.27811 0.0
C23 C 0.95324 0.67834 0.25807 0.0
O24 O 0.94534 0.69852 0.26738 0.0
O25 O 0.05001 0.78156 0.24366 0.0
C26 C 0.36483 0.31509 0.24808 0.0
O27 O 0.3521 0.33935 0.24486 0.0
O28 O 0.31685 0.34686 0.27155 0.0
Zn29 Zn 0.2985 0.2909 0.26409 0.0
O30 O 0.26477 0.27671 0.24695 0.0
C31 C 0.27613 0.25479 0.29132 0.0
O32 O 0.3126 0.28271 0.29495 0.0
O33 O 0.34731 0.29024 0.25769 0.0
C34 C 0.26352 0.24795 0.23981 0.0
O35 O 0.28087 0.22934 0.2446 0.0
C36 C 0.29752 0.35324 0.28087 0.0
O37 O 0.26273 0.32325 0.28488 0.0
O38 O 0.2658 0.25125 0.2788 0.0
C39 C 0.29891 0.97369 0.7774 0.0
O40 O 0.3056 0.00206 0.78657 0.0
O41 O 0.34231 0.07094 0.75064 0.0
Zn42 Zn 0.29055 0.02656 0.75891 0.0
O43 O 0.27464 0.04701 0.77577 0.0
C44 C 0.2554 0.0016 0.73196 0.0
O45 O 0.29249 0.0141 0.72838 0.0
O46 O 0.29419 0.97883 0.76488 0.0
C47 C 0.25151 0.06105 0.77623 0.0
O48 O 0.23653 0.06475 0.76477 0.0
C49 C 0.34691 0.10573 0.74921 0.0
O50 O 0.31877 0.11227 0.75363 0.0
O51 O 0.2474 0.00482 0.74448 0.0
C52 C 0.94439 0.27992 0.74035 0.0
O53 O 0.97566 0.29175 0.73233 0.0
O54 O 0.03196 0.31038 0.76869 0.0
Zn55 Zn 0.99142 0.26127 0.75764 0.0
O56 O 0.01769 0.25535 0.74043 0.0
C57 C 0.96891 0.21117 0.78176 0.0
O58 O 0.97321 0.24362 0.78811 0.0
O59 O 0.94422 0.26607 0.75207 0.0
C60 C 0.05163 0.25829 0.74046 0.0
O61 O 0.07069 0.26518 0.75214 0.0
C62 C 0.05937 0.3407 0.76245 0.0
O63 O 0.05912 0.34044 0.74897 0.0
O64 O 0.97386 0.21154 0.76883 0.0
C65 C 0.6502 0.72987 0.77101 0.0
O66 O 0.67028 0.71995 0.77907 0.0
O67 O 0.71737 0.705 0.74498 0.0
Zn68 Zn 0.71811 0.754 0.7533 0.0
O69 O 0.75293 0.77511 0.77024 0.0
C70 C 0.7319 0.78867 0.72648 0.0
O71 O 0.70948 0.75066 0.72249 0.0
O72 O 0.66363 0.74254 0.75907 0.0
C73 C 0.7537 0.80421 0.77697 0.0
O74 O 0.73373 0.8202 0.77225 0.0
C75 C 0.75048 0.70646 0.74336 0.0
O76 O 0.78348 0.73874 0.74774 0.0
O77 O 0.73953 0.79731 0.73918 0.0
C78 C 0.39864 0.39655 0.57295 0.0
O79 O 0.38521 0.36694 0.56375 0.0
O80 O 0.33686 0.30124 0.59634 0.0
Zn81 Zn 0.39378 0.33477 0.59002 0.0
O82 O 0.40583 0.31005 0.57341 0.0
C83 C 0.41407 0.30532 0.61305 0.0
O84 O 0.38176 0.2722 0.60876 0.0
O85 O 0.40525 0.39021 0.58511 0.0
C86 C 0.39385 0.27291 0.57122 0.0
O87 O 0.37086 0.2462 0.5803 0.0
C88 C 0.31075 0.31149 0.5965 0.0
O89 O 0.31859 0.34522 0.5908 0.0
O90 O 0.42683 0.33761 0.60636 0.0
C91 C 0.74025 0.02337 0.59716 0.0
O92 O 0.70952 -0.00036 0.58927 0.0
O93 O 0.66638 0.04441 0.58626 0.0
Zn94 Zn 0.72271 0.08685 0.59159 0.0
O95 O 0.72485 0.12419 0.60687 0.0
C96 C 0.73975 0.10929 0.56284 0.0
O97 O 0.71181 0.07143 0.56045 0.0
O98 O 0.7513 0.06045 0.59873 0.0
C99 C 0.72474 0.11693 0.61954 0.0
O100 O 0.71968 0.08209 0.62315 0.0
C101 C 0.63729 0.02648 0.59455 0.0
O102 O 0.64287 0.03639 0.60767 0.0
O103 O 0.75036 0.1215 0.57517 0.0
C104 C 0.01481 0.6438 0.5652 0.0
O105 O 0.00323 0.66344 0.5576 0.0
O106 O 0.98027 0.7004 0.59033 0.0
Zn107 Zn 0.95565 0.64379 0.58253 0.0
O108 O 0.9213 0.63384 0.56587 0.0
C109 C 0.92837 0.61593 0.61021 0.0
O110 O 0.96426 0.64553 0.61368 0.0
O111 O -0.00154 0.63155 0.57688 0.0
C112 C 0.88775 0.63171 0.56652 0.0
O113 O 0.87606 0.63952 0.57831 0.0
C114 C 0.01754 0.72515 0.59184 0.0
O115 O 0.04336 0.71603 0.58681 0.0
O116 O 0.91929 0.60805 0.59755 0.0
C117 C 0.93324 0.28539 0.1121 0.0
O118 O 0.95079 0.31737 0.12032 0.0
O119 O -0.00655 0.3783 0.08887 0.0
Zn120 Zn 0.93593 0.34532 0.09496 0.0
O121 O 0.92766 0.37108 0.11208 0.0
C122 C 0.90679 0.33602 0.06701 0.0
O123 O 0.93188 0.32351 0.06456 0.0
O124 O 0.92342 0.28923 0.10008 0.0
C125 C 0.91751 0.39749 0.1129 0.0
O126 O 0.91173 0.41153 0.10161 0.0
C127 C 0.00409 0.40743 0.08078 0.0
O128 O 0.97775 0.41678 0.07704 0.0
O129 O 0.90171 0.34442 0.07933 0.0
C130 C 0.65346 0.6599 0.08963 0.0
O131 O 0.68603 0.67582 0.08208 0.0
O132 O 0.73985 0.65662 0.10064 0.0
Zn133 Zn 0.68472 0.61179 0.0952 0.0
O134 O 0.68014 0.59409 0.07536 0.0
C135 C 0.64668 0.5508 0.11682 0.0
O136 O 0.62911 0.57039 0.12107 0.0
O137 O 0.6462 0.63113 0.09746 0.0
C138 C 0.70268 0.6115 0.06516 0.0
O139 O 0.73644 0.64598 0.06698 0.0
C140 C 0.74535 0.66684 0.11331 0.0
O141 O 0.71543 0.64774 0.1219 0.0
O142 O 0.6699 0.56328 0.1065 0.0
C143 C 0.32762 0.07453 0.10287 0.0
O144 O 0.34162 0.05722 0.11055 0.0
O145 O 0.37426 0.02448 0.08112 0.0
Zn146 Zn 0.39127 0.08198 0.08658 0.0
O147 O 0.42635 0.10042 0.10351 0.0
C148 C 0.41064 0.10853 0.05838 0.0
O149 O 0.37309 0.08094 0.05597 0.0
O150 O 0.34333 0.08713 0.09114 0.0
C151 C 0.43258 0.13281 0.10954 0.0
O152 O 0.4176 0.153 0.1042 0.0
C153 C 0.39946 0.01906 0.07445 0.0
O154 O 0.43546 0.0502 0.07233 0.0
O155 O 0.42353 0.11599 0.07066 0.0
C156 C 0.04615 0.73274 0.92864 0.0
O157 O 0.03169 0.69814 0.92184 0.0
O158 O 0.04258 0.64828 0.94527 0.0
Zn159 Zn 0.08931 0.70074 0.93873 0.0
O160 O 0.10658 0.6973 0.91925 0.0
C161 C 0.15752 0.70289 0.94895 0.0
O162 O 0.14938 0.67932 0.938 0.0
O163 O 0.07198 0.74138 0.93796 0.0
C164 C 0.13034 0.73148 0.91404 0.0
O165 O 0.14201 0.76434 0.92162 0.0
C166 C 0.03399 0.61316 0.94123 0.0
O167 O 0.05613 0.60927 0.93175 0.0
O168 O 0.13565 0.71771 0.95167 0.0
C169 C 0.40597 0.41843 0.94157 0.0
O170 O 0.37614 0.40114 0.9503 0.0
O171 O 0.30735 0.36183 0.91972 0.0
Zn172 Zn 0.34398 0.4185 0.92702 0.0
O173 O 0.32395 0.42697 0.9454 0.0
C174 C 0.34486 0.44701 0.90009 0.0
O175 O 0.35556 0.42076 0.89673 0.0
O176 O 0.3999 0.42885 0.93 0.0
C177 C 0.30149 0.44132 0.94771 0.0
O178 O 0.28776 0.45156 0.93734 0.0
C179 C 0.27419 0.35562 0.91525 0.0
O180 O 0.26569 0.38422 0.91695 0.0
O181 O 0.34173 0.45419 0.91274 0.0
C182 C 0.68689 0.98794 0.91154 0.0
O183 O 0.66843 0.00338 0.90529 0.0
O184 O 0.61835 0.00888 0.93219 0.0
Zn185 Zn 0.6169 0.95704 0.92771 0.0
O186 O 0.58265 0.92648 0.91131 0.0
C187 C 0.56281 0.91819 0.94947 0.0
O188 O 0.54387 0.93197 0.94258 0.0
O189 O 0.67175 0.96837 0.92247 0.0
C190 C 0.58698 0.89752 0.90706 0.0
O191 O 0.60991 0.88883 0.91409 0.0
C192 C 0.59291 0.01753 0.9282 0.0
O193 O 0.56487 0.99307 0.91951 0.0
O194 O 0.59581 0.92365 0.94478 0.0
C195 C 0.65105 0.62402 0.44734 0.0
O196 O 0.64514 0.64593 0.45653 0.0
O197 O 0.65955 0.7118 0.42277 0.0
Zn198 Zn 0.61688 0.65676 0.42961 0.0
O199 O 0.58761 0.66103 0.4464 0.0
C200 C 0.582 0.63482 0.402 0.0
O201 O 0.61858 0.66068 0.39795 0.0
O202 O 0.64177 0.62406 0.43487 0.0
C203 C 0.60029 0.69165 0.45446 0.0
O204 O 0.63418 0.7248 0.4517 0.0
C205 C 0.69281 0.73316 0.42891 0.0
O206 O 0.69978 0.71953 0.44007 0.0
O207 O 0.57514 0.62776 0.41473 0.0
C208 C 0.27117 0.94142 0.41252 0.0
O209 O 0.30178 0.95201 0.40428 0.0
O210 O 0.36036 0.99121 0.44153 0.0
Zn211 Zn 0.32323 0.93723 0.43225 0.0
O212 O 0.35064 0.92716 0.41625 0.0
C213 C 0.29575 0.90069 0.45818 0.0
O214 O 0.29468 0.93384 0.46032 0.0
O215 O 0.27382 0.93445 0.42502 0.0
C216 C 0.38754 0.93887 0.41532 0.0
O217 O 0.41144 0.9586 0.42569 0.0
C218 C 0.35617 0.02167 0.44116 0.0
O219 O 0.32694 0.01937 0.43393 0.0
O220 O 0.30674 0.89444 0.44648 0.0
C221 C 0.97715 0.35424 0.43631 0.0
O222 O 0.98017 0.33092 0.42691 0.0
O223 O 0.06608 0.36805 0.42032 0.0
Zn224 Zn 0.06001 0.413 0.42894 0.0
O225 O 0.1022 0.44593 0.44335 0.0
C226 C 0.05916 0.44008 0.40136 0.0
O227 O 0.04692 0.40242 0.39779 0.0
O228 O 0.00666 0.38975 0.43851 0.0
C229 C 0.13555 0.47693 0.44028 0.0
O230 O 0.14398 0.48631 0.42732 0.0
C231 C 0.0978 0.3665 0.42041 0.0
O232 O 0.12951 0.39501 0.4269 0.0
O233 O 0.065 0.45064 0.414 0.0
Zn234 Zn -0.00075 0.01633 0.12836 0.0
Zn235 Zn 0.0095 0.02911 0.17701 0.0
Zn236 Zn 0.0042 0.02117 0.15441 0.0
C237 C 0.01879 0.96695 0.17275 0.0
C238 C 0.06906 0.09769 0.16961 0.0
O239 O 0.96509 0.04496 0.14884 0.0
O240 O 0.96866 0.04375 0.1262 0.0
C241 C 0.96672 0.93732 0.13802 0.0
O242 O -0.00501 0.96435 0.16321 0.0
O243 O 0.03867 -7e-05 0.17937 0.0
O244 O 0.04007 0.08935 0.17752 0.0
O245 O 0.06493 0.0713 0.16036 0.0
O246 O 0.9711 0.95648 0.12721 0.0
O247 O 0.97898 0.95643 0.14962 0.0
O248 O 0.06622 0.05812 0.14668 0.0
O249 O 0.0573 0.04678 0.1243 0.0
C250 C 0.08058 0.06228 0.13443 0.0
O251 O 0.9568 0.03224 0.16249 0.0
O252 O 0.95176 0.00031 0.18141 0.0
C253 C 0.95691 0.0532 0.13703 0.0
C254 C 0.93711 0.01416 0.17335 0.0
Zn255 Zn 0.98841 0.00696 0.34835 0.0
Zn256 Zn 0.01645 0.02466 0.40017 0.0
Zn257 Zn 0.00474 0.01582 0.37342 0.0
C258 C 0.05414 0.10234 0.38975 0.0
C259 C 0.93423 0.9801 0.39673 0.0
O260 O 0.02338 0.97411 0.36456 0.0
O261 O 0.99301 0.95946 0.34444 0.0
C262 C 0.0511 0.08551 0.35149 0.0
O263 O 0.04153 0.08169 0.3784 0.0
O264 O 0.04745 0.08452 0.40101 0.0
O265 O 0.95992 0.99509 0.4062 0.0
O266 O 0.94556 0.98634 0.38406 0.0
O267 O 0.03164 0.05959 0.34218 0.0
O268 O 0.04371 0.07597 0.36422 0.0
O269 O 0.93965 0.99321 0.37058 0.0
O270 O 0.93515 -0.00135 0.34824 0.0
C271 C 0.91936 0.99122 0.35997 0.0
O272 O 0.03533 0.98315 0.37839 0.0
O273 O 0.04502 0.99488 0.40078 0.0
C274 C 0.01271 0.95347 0.35318 0.0
C275 C 0.04903 0.97918 0.3898 0.0
Zn276 Zn 0.00253 0.02094 0.89242 0.0
Zn277 Zn 0.01668 0.96876 0.85189 0.0
Zn278 Zn 0.0086 0.00272 0.86923 0.0
C279 C 0.98824 0.01724 0.84135 0.0
C280 C 0.93858 0.92695 0.85544 0.0
O281 O 0.00849 0.95522 0.87979 0.0
O282 O 0.01094 0.97866 0.90076 0.0
C283 C 0.06829 0.08886 0.88001 0.0
O284 O 0.97203 0.00757 0.85338 0.0
O285 O 0.01329 0.00692 0.83797 0.0
O286 O 0.96429 0.91622 0.8552 0.0
O287 O 0.95021 0.96381 0.85896 0.0
O288 O 0.04763 0.07812 0.89088 0.0
O289 O 0.05987 0.06367 0.86997 0.0
O290 O 0.95154 0.00067 0.86729 0.0
O291 O 0.94717 0.01016 0.88963 0.0
C292 C 0.93254 0.00396 0.8777 0.0
O293 O 0.06776 0.03831 0.85963 0.0
O294 O 0.07244 0.9842 0.85742 0.0
C295 C 0.01098 0.95244 0.89269 0.0
C296 C 0.08894 0.02227 0.85681 0.0
Zn297 Zn 0.0203 0.01605 0.6793 0.0
Zn298 Zn 0.02125 0.01485 0.62742 0.0
Zn299 Zn 0.02111 0.01602 0.65431 0.0
C300 C 0.05495 0.97047 0.63521 0.0
C301 C 0.06636 0.09545 0.63568 0.0
O302 O 0.05706 0.0796 0.662 0.0
O303 O 0.06642 0.07046 0.68351 0.0
C304 C 0.94383 0.99068 0.67338 0.0
O305 O 0.04518 0.97808 0.64711 0.0
O306 O 0.04995 0.98539 0.62462 0.0
O307 O 0.05121 0.07405 0.62494 0.0
O308 O 0.05901 0.0788 0.64747 0.0
O309 O 0.96707 0.0077 0.68342 0.0
O310 O 0.95824 0.9887 0.66159 0.0
O311 O 0.04835 0.98141 0.66169 0.0
O312 O 0.02759 0.97056 0.68313 0.0
C313 C 0.04594 0.96524 0.67333 0.0
O314 O 0.95907 0.9906 0.64709 0.0
O315 O 0.96266 0.98509 0.62455 0.0
C316 C 0.0733 0.0941 0.67381 0.0
C317 C 0.9421 0.9803 0.63523 0.0
Zn318 Zn 0.67221 0.32978 0.52 0.0
Zn319 Zn 0.66681 0.32414 0.46659 0.0
Zn320 Zn 0.66999 0.32845 0.49366 0.0
C321 C 0.72083 0.30175 0.47385 0.0
C322 C 0.58948 0.27227 0.47564 0.0
O323 O 0.60803 0.29008 0.5017 0.0
O324 O 0.61631 0.28799 0.52397 0.0
C325 C 0.69847 0.40837 0.51282 0.0
O326 O 0.71173 0.30951 0.48587 0.0
O327 O 0.70381 0.30411 0.46333 0.0
O328 O 0.60875 0.28592 0.46464 0.0
O329 O 0.60739 0.28455 0.48733 0.0
O330 O 0.68768 0.38662 0.52327 0.0
O331 O 0.69503 0.39229 0.50076 0.0
O332 O 0.70894 0.30533 0.50024 0.0
O333 O 0.71351 0.31592 0.52271 0.0
C334 C 0.72289 0.30374 0.51196 0.0
O335 O 0.68865 0.38967 0.48638 0.0
O336 O 0.6868 0.38201 0.46378 0.0
C337 C 0.5934 0.27745 0.51374 0.0
C338 C 0.69302 0.40428 0.47431 0.0
Zn339 Zn 0.68886 0.37275 0.72223 0.0
Zn340 Zn 0.68036 0.35564 0.6701 0.0
Zn341 Zn 0.68609 0.36465 0.69503 0.0
C342 C 0.60386 0.31497 0.67716 0.0
C343 C 0.71891 0.43693 0.67345 0.0
O344 O 0.71944 0.33687 0.7029 0.0
O345 O 0.71837 0.34463 0.72546 0.0
C346 C 0.60825 0.32658 0.71502 0.0
O347 O 0.62189 0.33317 0.68843 0.0
O348 O 0.62392 0.31483 0.66694 0.0
O349 O 0.69768 0.41073 0.66445 0.0
O350 O 0.71979 0.42577 0.68573 0.0
O351 O 0.63015 0.34268 0.72546 0.0
O352 O 0.624 0.33197 0.70297 0.0
O353 O 0.71634 0.43013 0.70023 0.0
O354 O 0.71853 0.43267 0.72293 0.0
C355 C 0.72597 0.45053 0.71166 0.0
O356 O 0.71521 0.33 0.68856 0.0
O357 O 0.71864 0.33836 0.66618 0.0
C358 C 0.72894 0.33222 0.71505 0.0
C359 C 0.72664 0.32513 0.67655 0.0
Zn360 Zn 0.66655 0.34432 0.22722 0.0
Zn361 Zn 0.69917 0.31166 0.18622 0.0
Zn362 Zn 0.68315 0.33878 0.20399 0.0
C363 C 0.66738 0.35733 0.17609 0.0
C364 C 0.62054 0.2636 0.18739 0.0
O365 O 0.68649 0.29119 0.21277 0.0
O366 O 0.67825 0.30317 0.23434 0.0
C367 C 0.7313 0.42085 0.2191 0.0
O368 O 0.64847 0.34347 0.18751 0.0
O369 O 0.69557 0.3512 0.17311 0.0
O370 O 0.64851 0.25601 0.18718 0.0
O371 O 0.62843 0.29868 0.19187 0.0
O372 O 0.70715 0.40316 0.22883 0.0
O373 O 0.7292 0.40116 0.20804 0.0
O374 O 0.62418 0.33154 0.20078 0.0
O375 O 0.61073 0.32939 0.22302 0.0
C376 C 0.60037 0.32785 0.21069 0.0
O377 O 0.74319 0.38158 0.19652 0.0
O378 O 0.75371 0.33122 0.19426 0.0
C379 C 0.68519 0.28317 0.22541 0.0
C380 C 0.7675 0.36898 0.19423 0.0
Zn381 Zn 0.67084 0.36008 1.00643 0.0
Zn382 Zn 0.68455 0.36332 0.95327 0.0
Zn383 Zn 0.67916 0.35985 0.98074 0.0
C384 C 0.63696 0.28162 0.96035 0.0
C385 C 0.76222 0.39596 0.96414 0.0
O386 O 0.66075 0.40385 0.98724 0.0
O387 O 0.64802 0.39423 1.00943 0.0
C388 C 0.62308 0.28064 0.99858 0.0
O389 O 0.64349 0.2972 0.9726 0.0
O390 O 0.6514 0.30401 0.95009 0.0
O391 O 0.74369 0.38938 0.95295 0.0
O392 O 0.74302 0.3862 0.97561 0.0
O393 O 0.63578 0.30231 1.00934 0.0
O394 O 0.6352 0.2965 0.98671 0.0
O395 O 0.73868 0.37903 0.98994 0.0
O396 O 0.72666 0.38346 0.01194 0.0
C397 C 0.75059 0.38672 1.00253 0.0
O398 O 0.65347 0.39519 0.97293 0.0
O399 O 0.65886 0.39542 0.9503 0.0
C400 C 0.64981 0.4126 0.99874 0.0
C401 C 0.6467 0.40462 0.96109 0.0
Zn402 Zn 0.31949 0.67648 0.84649 0.0
Zn403 Zn 0.31986 0.67633 0.79477 0.0
Zn404 Zn 0.3203 0.67586 0.82141 0.0
C405 C 0.39951 0.7132 0.80235 0.0
C406 C 0.27777 0.59547 0.80204 0.0
O407 O 0.28668 0.70497 0.82915 0.0
O408 O 0.30299 0.71536 0.85109 0.0
C409 C 0.39815 0.7121 0.84067 0.0
O410 O 0.38321 0.70547 0.81434 0.0
O411 O 0.37811 0.70437 0.79176 0.0
O412 O 0.28927 0.6174 0.79163 0.0
O413 O 0.28649 0.6117 0.81418 0.0
O414 O 0.37538 0.69433 0.85063 0.0
O415 O 0.38322 0.71036 0.82879 0.0
O416 O 0.29167 0.6124 0.82865 0.0
O417 O 0.28028 0.61985 0.85042 0.0
C418 C 0.27761 0.59705 0.84048 0.0
O419 O 0.29283 0.71091 0.81477 0.0
O420 O 0.29344 0.70735 0.79211 0.0
C421 C 0.28524 0.71927 0.84113 0.0
C422 C 0.28578 0.72047 0.80301 0.0
Zn423 Zn 0.34795 0.68326 0.06776 0.0
Zn424 Zn 0.39324 0.66741 0.02662 0.0
Zn425 Zn 0.36032 0.6762 0.04385 0.0
C426 C 0.34261 0.69161 0.01545 0.0
C427 C 0.43142 0.74725 0.02977 0.0
O428 O 0.41138 0.68125 0.05336 0.0
O429 O 0.39976 0.69083 0.07481 0.0
C430 C 0.28321 0.60902 0.05777 0.0
O431 O 0.35147 0.70897 0.02746 0.0
O432 O 0.35438 0.66732 0.01238 0.0
O433 O 0.44347 0.72239 0.02987 0.0
O434 O 0.39487 0.73465 0.0333 0.0
O435 O 0.29837 0.6286 0.06885 0.0
O436 O 0.3015 0.62263 0.04636 0.0
O437 O 0.35735 0.73048 0.04171 0.0
O438 O 0.34203 0.73092 0.06366 0.0
C439 C 0.34792 0.74599 0.05186 0.0
O440 O 0.32569 0.61553 0.03457 0.0
O441 O 0.37986 0.61208 0.03244 0.0
C442 C 0.42188 0.68748 0.06591 0.0
C443 C 0.34208 0.59465 0.03172 0.0
Zn444 Zn 0.34369 0.68497 0.56452 0.0
Zn445 Zn 0.39475 0.73754 0.52337 0.0
Zn446 Zn 0.35998 0.69697 0.54057 0.0
C447 C 0.33457 0.75083 0.52775 0.0
C448 C 0.32635 0.66914 0.512 0.0
O449 O 0.37296 0.64938 0.54358 0.0
O450 O 0.36463 0.64744 0.566 0.0
C451 C 0.40012 0.76773 0.56216 0.0
O452 O 0.31994 0.71322 0.53042 0.0
O453 O 0.37226 0.77406 0.52757 0.0
O454 O 0.36298 0.69167 0.50897 0.0
O455 O 0.31482 0.67351 0.52409 0.0
O456 O 0.37799 0.74312 0.5712 0.0
O457 O 0.39775 0.75525 0.54979 0.0
O458 O 0.29567 0.67271 0.53852 0.0
O459 O 0.28491 0.66016 0.56067 0.0
C460 C 0.27142 0.65847 0.54877 0.0
O461 O 0.40016 0.67895 0.53159 0.0
O462 O 0.44619 0.74306 0.5298 0.0
C463 C 0.37393 0.63519 0.5552 0.0
C464 C 0.43672 0.70634 0.52928 0.0
Zn465 Zn 0.34794 0.67499 0.30667 0.0
Zn466 Zn 0.33787 0.67419 0.35947 0.0
Zn467 Zn 0.34188 0.67571 0.33331 0.0
C468 C 0.36639 0.62481 0.35316 0.0
C469 C 0.2611 0.64766 0.35074 0.0
O470 O 0.28221 0.65741 0.32468 0.0
O471 O 0.29172 0.65516 0.30234 0.0
C472 C 0.39829 0.75417 0.31518 0.0
O473 O 0.36522 0.63797 0.34125 0.0
O474 O 0.35201 0.63343 0.36345 0.0
O475 O 0.28155 0.65881 0.36161 0.0
O476 O 0.27822 0.65091 0.33904 0.0
O477 O 0.38556 0.73306 0.30428 0.0
O478 O 0.3857 0.73791 0.32696 0.0
O479 O 0.36018 0.63224 0.32683 0.0
O480 O 0.36754 0.63735 0.30431 0.0
C481 C 0.36854 0.62127 0.31526 0.0
O482 O 0.38029 0.73881 0.34123 0.0
O483 O 0.37921 0.73079 0.36361 0.0
C484 C 0.26904 0.65159 0.31226 0.0
C485 C 0.39175 0.75367 0.35345 0.0
H486 H 0.26784 0.19758 0.22069 0.0
H487 H 0.0847 0.17154 0.17853 0.0
H488 H 0.21412 0.26991 0.22804 0.0
H489 H 0.14095 0.10212 0.17054 0.0
H490 H 0.14147 0.21868 0.19283 0.0
H491 H 0.23071 0.17217 0.1993 0.0
C492 C 0.24833 0.2083 0.21777 0.0
C493 C 0.24341 0.23528 0.22632 0.0
C494 C 0.14207 0.19385 0.18764 0.0
C495 C 0.20072 0.20623 0.20173 0.0
C496 C 0.10984 0.16717 0.17936 0.0
C497 C 0.10817 0.13285 0.17342 0.0
C498 C 0.17241 0.18562 0.19018 0.0
C499 C 0.14128 0.12838 0.17484 0.0
C500 C 0.22731 0.19394 0.20548 0.0
C501 C 0.21837 0.24871 0.22185 0.0
N502 N 0.17167 0.15393 0.18336 0.0
N503 N 0.19748 0.23356 0.20996 0.0
H504 H 0.81871 0.04027 0.24003 0.0
H505 H 0.86274 0.94817 0.17403 0.0
H506 H 0.72856 0.92602 0.22216 0.0
H507 H 0.92999 0.07525 0.18439 0.0
H508 H 0.81038 0.93976 0.19015 0.0
H509 H 0.85884 0.05351 0.21928 0.0
C510 C 0.80741 0.01779 0.23177 0.0
C511 C 0.77035 0.98169 0.23292 0.0
C512 C 0.8359 0.96976 0.18859 0.0
C513 C 0.81625 -0.00304 0.20899 0.0
C514 C 0.86547 0.97464 0.17924 0.0
C515 C 0.90028 0.01255 0.17778 0.0
C516 C 0.84194 0.00286 0.19681 0.0
C517 C 0.90319 0.04569 0.18508 0.0
C518 C 0.83017 0.02564 0.21983 0.0
C519 C 0.75707 0.95408 0.22176 0.0
N520 N 0.87482 0.03994 0.19453 0.0
N521 N 0.78021 0.96207 0.21031 0.0
H522 H 0.95576 0.77223 0.22501 0.0
H523 H 0.08477 0.96691 0.18073 0.0
H524 H 0.08476 0.8393 0.22501 0.0
H525 H 0.9573 0.88904 0.17634 0.0
H526 H 0.08638 0.91602 0.19453 0.0
H527 H 0.95636 0.81032 0.20546 0.0
C528 C 0.98432 0.79492 0.22086 0.0
C529 C 0.02033 0.80297 0.22681 0.0
C530 C 0.05813 0.90951 0.19031 0.0
C531 C 0.02115 0.84691 0.20429 0.0
C532 C 0.05723 0.93846 0.18236 0.0
C533 C 0.02081 0.93208 0.17741 0.0
C534 C 0.02219 0.8742 0.1936 0.0
C535 C 0.986 0.89491 0.17984 0.0
C536 C 0.98459 0.81652 0.20961 0.0
C537 C 0.05632 0.83231 0.22083 0.0
N538 N 0.98742 0.86765 0.18801 0.0
N539 N 0.05581 0.8536 0.21 0.0
H540 H 0.28571 0.24816 0.31893 0.0
H541 H 0.04995 0.133 0.33202 0.0
H542 H 0.19536 0.21414 0.28791 0.0
H543 H 0.12892 0.12416 0.36015 0.0
H544 H 0.10762 0.18108 0.31868 0.0
H545 H 0.23246 0.21657 0.33631 0.0
C546 C 0.25479 0.23396 0.31576 0.0
C547 C 0.24499 0.23348 0.30191 0.0
C548 C 0.11255 0.16937 0.32793 0.0
C549 C 0.18443 0.1987 0.32172 0.0
C550 C 0.07967 0.14242 0.33565 0.0
C551 C 0.08483 0.12457 0.34712 0.0
C552 C 0.15088 0.17812 0.33158 0.0
C553 C 0.12388 0.13751 0.35137 0.0
C554 C 0.22454 0.21621 0.32568 0.0
C555 C 0.20446 0.21494 0.29841 0.0
N556 N 0.1556 0.16299 0.34341 0.0
N557 N 0.17584 0.19853 0.30823 0.0
H558 H 0.72356 0.91174 0.31129 0.0
H559 H 0.89607 0.0451 0.36456 0.0
H560 H 0.79315 0.04217 0.3127 0.0
H561 H 0.8514 0.91937 0.35533 0.0
H562 H 0.83892 0.03964 0.35253 0.0
H563 H 0.75248 0.91094 0.33322 0.0
C564 C 0.74463 0.94027 0.31627 0.0
C565 C 0.75676 0.97711 0.30997 0.0
C566 C 0.84066 0.01278 0.35364 0.0
C567 C 0.78951 0.97627 0.33517 0.0
C568 C 0.87284 0.0157 0.36074 0.0
C569 C 0.87834 0.98265 0.36083 0.0
C570 C 0.8142 0.97657 0.3466 0.0
C571 C 0.848 0.94547 0.35548 0.0
C572 C 0.76092 0.93972 0.32883 0.0
C573 C 0.7836 0.01307 0.31704 0.0
N574 N 0.81766 0.94362 0.34824 0.0
N575 N 0.79948 0.01174 0.32918 0.0
H576 H 0.11667 0.86089 0.29818 0.0
H577 H 0.963 0.87311 0.34988 0.0
H578 H 0.98922 0.77688 0.298 0.0
H579 H 0.08649 0.96735 0.34638 0.0
H580 H 0.97614 0.82908 0.3351 0.0
H581 H 0.10941 0.89266 0.31917 0.0
C582 C 0.08715 0.84897 0.30258 0.0
C583 C 0.05339 0.81651 0.29619 0.0
C584 C 0.00072 0.85894 0.33786 0.0
C585 C 0.045 0.85258 0.32033 0.0
C586 C -0.00667 0.8838 0.34647 0.0
C587 C 0.02387 0.92357 0.34945 0.0
C588 C 0.03877 0.87434 0.33198 0.0
C589 C 0.06241 0.93654 0.34452 0.0
C590 C 0.08309 0.86706 0.3146 0.0
C591 C 0.016 0.80215 0.30246 0.0
N592 N 0.06867 0.91221 0.3358 0.0
N593 N 0.0128 0.82045 0.31412 0.0
H594 H 0.76259 0.86698 0.79339 0.0
H595 H 0.90573 0.84848 0.84646 0.0
H596 H 0.79345 0.77462 0.79083 0.0
H597 H 0.88576 0.94844 0.8467 0.0
H598 H 0.85449 0.81438 0.82884 0.0
H599 H 0.79909 0.89151 0.81503 0.0
C600 C 0.77696 0.85177 0.79738 0.0
C601 C 0.7753 0.81893 0.79019 0.0
C602 C 0.86087 0.8435 0.83289 0.0
C603 C 0.81688 0.84672 0.81507 0.0
C604 C 0.88993 0.86289 0.84304 0.0
C605 C 0.9006 0.90173 0.8479 0.0
C606 C 0.84238 0.86311 0.8275 0.0
C607 C 0.87882 0.91869 0.84317 0.0
C608 C 0.79769 0.86574 0.80978 0.0
C609 C 0.79425 0.80027 0.79594 0.0
N610 N 0.8512 0.89957 0.83306 0.0
N611 N 0.81439 0.81455 0.808 0.0
H612 H 0.20507 0.09432 0.78145 0.0
H613 H 0.14969 0.00699 0.85549 0.0
H614 H 0.26757 0.04524 0.80178 0.0
H615 H 0.11305 0.08639 0.84007 0.0
H616 H 0.19981 0.02838 0.83731 0.0
H617 H 0.17665 0.09843 0.80356 0.0
C618 C 0.21323 0.08488 0.79058 0.0
C619 C 0.23824 0.06878 0.7897 0.0
C620 C 0.18156 0.04197 0.83808 0.0
C621 C 0.20563 0.0732 0.81504 0.0
C622 C 0.1531 0.02993 0.84852 0.0
C623 C 0.12693 0.04461 0.84919 0.0
C624 C 0.18317 0.06811 0.82802 0.0
C625 C 0.1326 0.07425 0.8399 0.0
C626 C 0.19712 0.08741 0.80322 0.0
C627 C 0.24807 0.05741 0.80191 0.0
N628 N 0.15941 0.08425 0.82946 0.0
N629 N 0.23125 0.05922 0.81401 0.0
H630 H 0.96217 0.14073 0.77197 0.0
H631 H 0.00612 0.02797 0.81406 0.0
H632 H 0.96174 0.20185 0.80968 0.0
H633 H 0.94643 0.05562 0.84633 0.0
H634 H -0.00481 0.06957 0.79859 0.0
H635 H 0.95917 0.0868 0.78532 0.0
C636 C 0.96142 0.14283 0.78307 0.0
C637 C 0.96293 0.1763 0.78971 0.0
C638 C 0.98341 0.06577 0.80892 0.0
C639 C 0.96066 0.11504 0.80511 0.0
C640 C 0.99 0.04222 0.81783 0.0
C641 C 0.97719 0.03831 0.83152 0.0
C642 C 0.96401 0.08588 0.81373 0.0
C643 C 0.95669 0.05771 0.83584 0.0
C644 C 0.96012 0.11215 0.7907 0.0
C645 C 0.96117 0.17692 0.80412 0.0
N646 N 0.95124 0.08117 0.82702 0.0
N647 N 0.96039 0.1469 0.81134 0.0
H648 H 0.76662 0.87004 0.73086 0.0
H649 H 0.88668 0.91929 0.66138 0.0
H650 H 0.74111 0.78052 0.69885 0.0
H651 H 0.90326 0.00838 0.6924 0.0
H652 H 0.82278 0.87111 0.67202 0.0
H653 H 0.80637 0.92309 0.71463 0.0
C654 C 0.76907 0.86157 0.72036 0.0
C655 C 0.75125 0.82083 0.71627 0.0
C656 C 0.83984 0.90156 0.67627 0.0
C657 C 0.79718 0.88146 0.69761 0.0
C658 C 0.87614 0.92919 0.67011 0.0
C659 C 0.90058 0.96745 0.67624 0.0
C660 C 0.82837 0.91247 0.68864 0.0
C661 C 0.8856 0.97878 0.68755 0.0
C662 C 0.79165 0.89189 0.71105 0.0
C663 C 0.7548 0.81159 0.70247 0.0
N664 N 0.85088 0.95115 0.69356 0.0
N665 N 0.77804 0.84168 0.69369 0.0
H666 H 0.17491 0.95518 0.7362 0.0
H667 H 0.11954 0.98724 0.66268 0.0
H668 H 0.26287 0.00811 0.70398 0.0
H669 H 0.03262 0.90963 0.6924 0.0
H670 H 0.17165 0.9849 0.67552 0.0
H671 H 0.1221 0.93042 0.71908 0.0
C672 C 0.18311 0.96144 0.7255 0.0
C673 C 0.22331 0.98428 0.72154 0.0
C674 C 0.14097 0.96731 0.679 0.0
C675 C 0.16289 0.95612 0.70179 0.0
C676 C 0.11109 0.96822 0.67156 0.0
C677 C 0.07196 0.94948 0.67673 0.0
C678 C 0.13136 0.9477 0.69165 0.0
C679 C 0.06267 0.92526 0.68826 0.0
C680 C 0.15292 0.947 0.71568 0.0
C681 C 0.23219 0.99092 0.70749 0.0
N682 N 0.09232 0.92595 0.69554 0.0
N683 N 0.20221 0.97752 0.69813 0.0
H684 H 0.02233 0.24776 0.71434 0.0
H685 H 0.1359 0.13921 0.69099 0.0
H686 H 0.11805 0.252 0.7373 0.0
H687 H 0.0502 0.14583 0.66565 0.0
H688 H 0.144 0.19668 0.70471 0.0
H689 H 0.04358 0.22536 0.694 0.0
C690 C 0.04815 0.24447 0.71507 0.0
C691 C 0.06779 0.2507 0.72764 0.0
C692 C 0.12429 0.18652 0.6959 0.0
C693 C 0.09225 0.22497 0.70438 0.0
C694 C 0.12004 0.15396 0.68797 0.0
C695 C 0.09166 0.1373 0.67741 0.0
C696 C 0.09917 0.20168 0.69344 0.0
C697 C 0.07204 0.15754 0.67384 0.0
C698 C 0.06043 0.23189 0.70341 0.0
C699 C 0.10152 0.24678 0.7279 0.0
N700 N 0.0751 0.18789 0.68215 0.0
N701 N 0.11221 0.23342 0.71651 0.0
H702 H 0.80928 0.61104 0.56565 0.0
H703 H 0.76696 0.46608 0.50041 0.0
H704 H 0.90113 0.60935 0.54094 0.0
H705 H 0.67984 0.45018 0.53117 0.0
H706 H 0.81317 0.53356 0.51029 0.0
H707 H 0.75979 0.56768 0.54841 0.0
C708 C 0.81923 0.60226 0.55648 0.0
C709 C 0.8593 0.61303 0.55492 0.0
C710 C 0.78348 0.51576 0.51461 0.0
C711 C 0.80267 0.56318 0.53517 0.0
C712 C 0.75701 0.47748 0.50889 0.0
C713 C 0.71994 0.45249 0.51517 0.0
C714 C 0.77245 0.52888 0.52659 0.0
C715 C 0.70847 0.46845 0.52618 0.0
C716 C 0.7909 0.57744 0.54664 0.0
C717 C 0.87042 0.60112 0.54271 0.0
N718 N 0.73486 0.50536 0.53168 0.0
N719 N 0.84216 0.57625 0.53342 0.0
H720 H 0.39821 0.20465 0.56771 0.0
H721 H 0.53971 0.29295 0.50217 0.0
H722 H 0.42553 0.31402 0.54753 0.0
H723 H 0.54986 0.219 0.5322 0.0
H724 H 0.47756 0.28036 0.51323 0.0
H725 H 0.4343 0.1913 0.54953 0.0
C726 C 0.41105 0.2254 0.55931 0.0
C727 C 0.40959 0.26093 0.55927 0.0
C728 C 0.49274 0.26582 0.5171 0.0
C729 C 0.45036 0.24556 0.53842 0.0
C730 C 0.52791 0.27259 0.5107 0.0
C731 C 0.55015 0.25752 0.51646 0.0
C732 C 0.47976 0.24348 0.52919 0.0
C733 C 0.53374 0.23158 0.52759 0.0
C734 C 0.43161 0.21775 0.54896 0.0
C735 C 0.42661 0.28666 0.5481 0.0
N736 N 0.49986 0.22591 0.53375 0.0
N737 N 0.44664 0.27869 0.5382 0.0
H738 H 0.79802 0.18951 0.56398 0.0
H739 H 0.70976 0.2345 0.49874 0.0
H740 H 0.71154 0.09731 0.53644 0.0
H741 H 0.78318 0.3227 0.52974 0.0
H742 H 0.72752 0.18738 0.50797 0.0
H743 H 0.80948 0.24059 0.54741 0.0
C744 C 0.78192 0.17989 0.55434 0.0
C745 C 0.75303 0.13913 0.55176 0.0
C746 C 0.74071 0.21749 0.51249 0.0
C747 C 0.7657 0.19765 0.53277 0.0
C748 C 0.73092 0.24453 0.50712 0.0
C749 C 0.74447 0.28215 0.51368 0.0
C750 C 0.76421 0.22845 0.52443 0.0
C751 C 0.77162 0.29364 0.52454 0.0
C752 C 0.78849 0.20912 0.54487 0.0
C753 C 0.73361 0.12845 0.53898 0.0
N754 N 0.78 0.26664 0.52974 0.0
N755 N 0.73969 0.15761 0.53008 0.0
H756 H 0.84752 0.57057 0.60674 0.0
H757 H 0.79624 0.4876 0.68194 0.0
H758 H 0.93856 0.6145 0.638 0.0
H759 H 0.70851 0.47731 0.65321 0.0
H760 H 0.84922 0.539 0.66749 0.0
H761 H 0.79653 0.53801 0.62436 0.0
C762 C 0.85683 0.57321 0.61732 0.0
C763 C 0.89742 0.59498 0.62087 0.0
C764 C 0.8183 0.52632 0.66456 0.0
C765 C 0.83892 0.55781 0.64123 0.0
C766 C 0.78803 0.4974 0.67291 0.0
C767 C 0.74804 0.47776 0.66862 0.0
C768 C 0.80821 0.53519 0.65188 0.0
C769 C 0.73906 0.49133 0.65677 0.0
C770 C 0.82763 0.55495 0.62743 0.0
C771 C 0.90759 0.59781 0.63481 0.0
N772 N 0.7689 0.51849 0.64867 0.0
N773 N 0.87854 0.57904 0.64448 0.0
H774 H 0.47038 0.36932 0.62868 0.0
H775 H 0.54572 0.24521 0.66516 0.0
H776 H 0.40489 0.23901 0.62575 0.0
H777 H 0.56979 0.35998 0.68187 0.0
H778 H 0.49019 0.23958 0.65202 0.0
H779 H 0.50587 0.36626 0.6487 0.0
C780 C 0.46337 0.3401 0.63227 0.0
C781 C 0.435 0.3044 0.62544 0.0
C782 C 0.50671 0.26541 0.6589 0.0
C783 C 0.47535 0.30066 0.64831 0.0
C784 C 0.53806 0.26833 0.66652 0.0
C785 C 0.56219 0.30306 0.67458 0.0
C786 C 0.50046 0.29809 0.65901 0.0
C787 C 0.55161 0.33259 0.67583 0.0
C788 C 0.4833 0.33834 0.64378 0.0
C789 C 0.42674 0.26732 0.63065 0.0
N790 N 0.52227 0.33009 0.66776 0.0
N791 N 0.44725 0.26643 0.64163 0.0
H792 H 0.76245 0.19796 0.61584 0.0
H793 H 0.70076 0.25029 0.68671 0.0
H794 H 0.70709 0.10834 0.64711 0.0
H795 H 0.78772 0.33956 0.65959 0.0
H796 H 0.70871 0.19832 0.67453 0.0
H797 H 0.77573 0.25044 0.63294 0.0
C798 C 0.75302 0.18933 0.62633 0.0
C799 C 0.73316 0.1487 0.63002 0.0
C800 C 0.72706 0.22951 0.67155 0.0
C801 C 0.7483 0.20884 0.64978 0.0
C802 C 0.72289 0.25922 0.67862 0.0
C803 C 0.74319 0.29897 0.67395 0.0
C804 C 0.75143 0.24 0.65978 0.0
C805 C 0.77118 0.30904 0.66336 0.0
C806 C 0.761 0.21938 0.63616 0.0
C807 C 0.72224 0.13935 0.64383 0.0
N808 N 0.77381 0.27961 0.65642 0.0
N809 N 0.72937 0.16918 0.6532 0.0
H810 H 0.4709 0.10104 0.12315 0.0
H811 H 0.56187 0.27868 0.1803 0.0
H812 H 0.44558 0.19735 0.12575 0.0
H813 H 0.5961 0.18912 0.17572 0.0
H814 H 0.51056 0.24237 0.16282 0.0
H815 H 0.50961 0.12707 0.14439 0.0
C816 C 0.47336 0.12756 0.12819 0.0
C817 C 0.45532 0.14728 0.12256 0.0
C818 C 0.52892 0.23033 0.16577 0.0
C819 C 0.49933 0.17707 0.14693 0.0
C820 C 0.55805 0.25089 0.17586 0.0
C821 C 0.58375 0.23725 0.17937 0.0
C822 C 0.52547 0.1959 0.15913 0.0
C823 C 0.57729 0.20102 0.17323 0.0
C824 C 0.49538 0.14235 0.14034 0.0
C825 C 0.45929 0.18136 0.12962 0.0
N826 N 0.54916 0.18191 0.16329 0.0
N827 N 0.48098 0.19526 0.14138 0.0
H828 H 0.88245 0.44232 0.11881 0.0
H829 H 0.83368 0.3626 0.19457 0.0
H830 H 0.93144 0.37821 0.13815 0.0
H831 H 0.7866 0.43011 0.17659 0.0
H832 H 0.88295 0.38367 0.17615 0.0
H833 H 0.85902 0.45169 0.14128 0.0
C834 C 0.88884 0.43076 0.12779 0.0
C835 C 0.90823 0.40871 0.12654 0.0
C836 C 0.86259 0.39483 0.17637 0.0
C837 C 0.88152 0.41935 0.15229 0.0
C838 C 0.83473 0.38314 0.187 0.0
C839 C 0.8057 0.39414 0.18698 0.0
C840 C 0.86081 0.41694 0.16549 0.0
C841 C 0.80838 0.4208 0.17695 0.0
C842 C 0.8755 0.43618 0.14063 0.0
C843 C 0.91597 0.39476 0.13856 0.0
N844 N 0.83469 0.43037 0.16636 0.0
N845 N 0.90216 0.39984 0.15087 0.0
H846 H 0.67422 0.50089 0.10946 0.0
H847 H 0.61532 0.38431 0.18042 0.0
H848 H 0.60897 0.52163 0.14156 0.0
H849 H 0.69382 0.37886 0.14991 0.0
H850 H 0.60348 0.42638 0.1651 0.0
H851 H 0.67222 0.44784 0.1229 0.0
C852 C 0.65924 0.49415 0.11932 0.0
C853 C 0.64218 0.51615 0.12446 0.0
C854 C 0.62297 0.41561 0.16174 0.0
C855 C 0.63995 0.45528 0.14 0.0
C856 C 0.62963 0.39152 0.17044 0.0
C857 C 0.65592 0.37844 0.16648 0.0
C858 C 0.64258 0.4264 0.14899 0.0
C859 C 0.67362 0.38857 0.15345 0.0
C860 C 0.65811 0.46377 0.12701 0.0
C861 C 0.62277 0.50563 0.13725 0.0
N862 N 0.66681 0.4121 0.14522 0.0
N863 N 0.62249 0.47615 0.14465 0.0
H864 H 0.39544 0.11679 0.03156 0.0
H865 H 0.62686 0.22326 0.01237 0.0
H866 H 0.4908 0.139 0.05895 0.0
H867 H 0.54586 0.24529 0.99015 0.0
H868 H 0.57031 0.17002 0.02486 0.0
H869 H 0.44455 0.1459 0.01278 0.0
C870 C 0.4266 0.12765 0.03361 0.0
C871 C 0.43922 0.12619 0.04688 0.0
C872 C 0.56465 0.18556 0.01694 0.0
C873 C 0.49487 0.15792 0.02547 0.0
C874 C 0.59684 0.2154 1.00964 0.0
C875 C 0.59084 0.23863 1.00031 0.0
C876 C 0.52635 0.17945 0.01502 0.0
C877 C 0.55151 0.22779 0.99726 0.0
C878 C 0.45445 0.14397 0.0229 0.0
C879 C 0.47983 0.14024 0.04896 0.0
N880 N 0.52063 0.19958 1.00489 0.0
N881 N 0.5061 0.15546 0.03838 0.0
H882 H 0.90826 0.31924 0.03946 0.0
H883 H 0.78678 0.34567 0.99351 0.0
H884 H 0.8664 0.37644 0.06817 0.0
H885 H 0.79928 0.43776 0.02247 0.0
H886 H 0.83194 0.3351 1.00752 0.0
H887 H 0.88182 0.33903 0.02057 0.0
C888 C 0.89318 0.33562 0.0418 0.0
C889 C 0.88908 0.34569 0.05546 0.0
C890 C 0.82621 0.35878 1.01057 0.0
C891 C 0.8588 0.36857 0.03387 0.0
C892 C 0.80068 0.36509 1.00245 0.0
C893 C 0.78915 0.39241 1.00692 0.0
C894 C 0.84007 0.38008 0.02318 0.0
C895 C 0.8073 0.41622 0.01872 0.0
C896 C 0.87802 0.34688 0.03099 0.0
C897 C 0.86982 0.36748 0.05785 0.0
N898 N 0.83108 0.40887 0.02659 0.0
N899 N 0.85555 0.3782 0.04719 0.0
H900 H 0.74892 0.6267 0.04191 0.0
H901 H 0.58795 0.41665 1.00986 0.0
H902 H 0.62859 0.55173 0.05704 0.0
H903 H 0.70592 0.48991 0.99294 0.0
H904 H 0.59592 0.47568 0.02252 0.0
H905 H 0.72915 0.58669 0.02039 0.0
C906 C 0.71824 0.60226 0.04063 0.0
C907 C 0.69065 0.59179 0.05142 0.0
C908 C 0.61975 0.47939 0.01573 0.0
C909 C 0.66777 0.54621 0.02686 0.0
C910 C 0.61486 0.44574 1.00835 0.0
C911 C 0.6465 0.44856 1.00052 0.0
C912 C 0.65707 0.51562 0.01562 0.0
C913 C 0.6809 0.4867 0.99893 0.0
C914 C 0.70692 0.57952 0.02833 0.0
C915 C 0.65117 0.56021 0.04914 0.0
N916 N 0.6859 0.51861 1.00681 0.0
N917 N 0.6411 0.53827 0.03722 0.0
H918 H 0.54566 0.91264 0.88792 0.0
H919 H 0.44908 0.69699 0.8541 0.0
H920 H 0.58482 0.82981 0.89703 0.0
H921 H 0.44069 0.79233 0.83571 0.0
H922 H 0.50581 0.74736 0.86773 0.0
H923 H 0.51171 0.87155 0.86742 0.0
C924 C 0.54726 0.88594 0.88559 0.0
C925 C 0.56752 0.87426 0.89433 0.0
C926 C 0.4925 0.75754 0.86042 0.0
C927 C 0.52904 0.82732 0.87088 0.0
C928 C 0.46043 0.72876 0.85252 0.0
C929 C 0.44034 0.7407 0.84385 0.0
C930 C 0.50354 0.79833 0.85993 0.0
C931 C 0.45567 0.78209 0.84227 0.0
C932 C 0.52823 0.86272 0.87381 0.0
C933 C 0.56913 0.83971 0.89069 0.0
N934 N 0.48568 0.8095 0.85057 0.0
N935 N 0.5497 0.8172 0.87936 0.0
H936 H 0.18658 0.79977 0.90129 0.0
H937 H 0.20504 0.67685 0.83757 0.0
H938 H 0.11003 0.67102 0.89456 0.0
H939 H 0.30175 0.7899 0.85353 0.0
H940 H 0.15863 0.68423 0.85289 0.0
H941 H 0.21741 0.80439 0.87891 0.0
C942 C 0.1759 0.77248 0.89505 0.0
C943 C 0.14623 0.73476 0.89994 0.0
C944 C 0.18976 0.70816 0.85265 0.0
C945 C 0.18118 0.7401 0.87422 0.0
C946 C 0.21608 0.70433 0.84374 0.0
C947 C 0.25714 0.73275 0.84441 0.0
C948 C 0.20484 0.74085 0.86209 0.0
C949 C 0.27021 0.76737 0.85277 0.0
C950 C 0.19345 0.77524 0.88225 0.0
C951 C 0.13329 0.70059 0.8913 0.0
N952 N 0.24424 0.77014 0.86149 0.0
N953 N 0.15117 0.70401 0.8789 0.0
H954 H 0.35803 0.44944 0.87229 0.0
H955 H 0.22424 0.54643 0.85919 0.0
H956 H 0.29647 0.47823 0.90352 0.0
H957 H 0.31442 0.55758 0.83056 0.0
H958 H 0.23454 0.5001 0.87253 0.0
H959 H 0.33012 0.47241 0.85475 0.0
C960 C 0.33872 0.46063 0.87546 0.0
C961 C 0.33007 0.46253 0.88941 0.0
C962 C 0.25135 0.51178 0.86313 0.0
C963 C 0.29714 0.48748 0.86942 0.0
C964 C 0.24497 0.53766 0.85538 0.0
C965 C 0.2691 0.55646 0.84393 0.0
C966 C 0.28215 0.50477 0.85941 0.0
C967 C 0.29542 0.54396 0.8394 0.0
C968 C 0.32264 0.47343 0.86545 0.0
C969 C 0.30454 0.47686 0.89292 0.0
N970 N 0.30214 0.5197 0.84739 0.0
N971 N 0.289 0.48872 0.88301 0.0
H972 H 0.59611 0.89064 0.9676 0.0
H973 H 0.40375 0.78885 0.01602 0.0
H974 H 0.49233 0.90071 0.96167 0.0
H975 H 0.51131 0.78744 0.0241 0.0
H976 H 0.43866 0.83671 0.99776 0.0
H977 H 0.56786 0.85763 0.98941 0.0
C978 C 0.56741 0.88593 0.97088 0.0
C979 C 0.54642 0.89815 0.96272 0.0
C980 C 0.45493 0.82661 1.00371 0.0
C981 C 0.51397 0.8606 0.98772 0.0
C982 C 0.43512 0.79967 0.01429 0.0
C983 C 0.45464 0.78409 0.02162 0.0
C984 C 0.49438 0.83771 1.00032 0.0
C985 C 0.49507 0.79855 0.01866 0.0
C986 C 0.55138 0.86728 0.98337 0.0
C987 C 0.50949 0.89157 0.96756 0.0
N988 N 0.51342 0.82405 1.00812 0.0
N989 N 0.49437 0.87305 0.97968 0.0
H990 H 0.17602 0.73937 0.97469 0.0
H991 H 0.33396 0.67143 0.98823 0.0
H992 H 0.21255 0.68056 0.94461 0.0
H993 H 0.30315 0.73312 0.0191 0.0
H994 H 0.29384 0.68076 0.97164 0.0
H995 H 0.2261 0.74332 0.9906 0.0
C996 C 0.19479 0.72767 0.97138 0.0
C997 C 0.18979 0.70923 0.95834 0.0
C998 C 0.29594 0.69256 0.982 0.0
C999 C 0.24693 0.71359 0.97646 0.0
C1000 C 0.31893 0.68723 0.9915 0.0
C1001 C 0.32159 0.70115 1.00511 0.0
C1002 C 0.27495 0.71163 0.9861 0.0
C1003 C 0.30171 0.72174 1.00871 0.0
C1004 C 0.22332 0.7299 0.98047 0.0
C1005 C 0.21498 0.69466 0.95459 0.0
N1006 N 0.27881 0.72599 0.99929 0.0
N1007 N 0.24218 0.69694 0.96362 0.0
H1008 H 0.32855 0.42701 0.97138 0.0
H1009 H 0.27293 0.56544 0.01704 0.0
H1010 H 0.25965 0.47698 0.95678 0.0
H1011 H 0.36274 0.53755 0.02762 0.0
H1012 H 0.25167 0.516 0.99801 0.0
H1013 H 0.3257 0.45103 0.99454 0.0
C1014 C 0.31237 0.44258 0.97305 0.0
C1015 C 0.29499 0.45068 0.96204 0.0
C1016 C 0.27535 0.51998 1.00471 0.0
C1017 C 0.29165 0.4783 0.98862 0.0
C1018 C 0.28724 0.54789 0.01568 0.0
C1019 C 0.32022 0.55618 0.02376 0.0
C1020 C 0.29643 0.50013 1.0019 0.0
C1021 C 0.3376 0.53254 0.0215 0.0
C1022 C 0.31073 0.45626 0.98631 0.0
C1023 C 0.27399 0.47056 0.96491 0.0
N1024 N 0.32597 0.50611 1.01064 0.0
N1025 N 0.27335 0.48416 0.9779 0.0
H1026 H 0.12285 0.47414 0.46816 0.0
H1027 H 0.34124 0.66217 0.48494 0.0
H1028 H 0.21168 0.5412 0.4373 0.0
H1029 H 0.24628 0.61272 0.51497 0.0
H1030 H 0.29492 0.61504 0.46772 0.0
H1031 H 0.16852 0.52106 0.4858 0.0
C1032 C 0.15201 0.49856 0.46509 0.0
C1033 C 0.16343 0.50371 0.4512 0.0
C1034 C 0.28408 0.61448 0.47805 0.0
C1035 C 0.21575 0.55752 0.47135 0.0
C1036 C 0.31056 0.64144 0.48792 0.0
C1037 C 0.29766 0.64142 0.50145 0.0
C1038 C 0.24431 0.5869 0.48169 0.0
C1039 C 0.2575 0.61379 0.50467 0.0
C1040 C 0.17797 0.52544 0.47517 0.0
C1041 C 0.20153 0.53602 0.44785 0.0
N1042 N 0.23226 0.58749 0.49487 0.0
N1043 N 0.22627 0.56159 0.45784 0.0
H1044 H 0.52843 0.62838 0.46322 0.0
H1045 H 0.51775 0.75405 0.52776 0.0
H1046 H 0.62197 0.74907 0.47493 0.0
H1047 H 0.41967 0.63689 0.51516 0.0
H1048 H 0.56085 0.74625 0.5112 0.0
H1049 H 0.49206 0.62583 0.48421 0.0
C1050 C 0.54139 0.65431 0.47021 0.0
C1051 C 0.57811 0.68922 0.46721 0.0
C1052 C 0.5301 0.72187 0.5122 0.0
C1053 C 0.53679 0.68628 0.49133 0.0
C1054 C 0.50555 0.72617 0.52175 0.0
C1055 C 0.46493 0.69634 0.52269 0.0
C1056 C 0.51383 0.68767 0.5034 0.0
C1057 C 0.45078 0.66072 0.51472 0.0
C1058 C 0.52067 0.65274 0.48223 0.0
C1059 C 0.59359 0.72171 0.47672 0.0
N1060 N 0.47502 0.65771 0.50519 0.0
N1061 N 0.57276 0.71951 0.48829 0.0
H1062 H 0.29182 0.91538 0.48558 0.0
H1063 H 0.27752 0.71119 0.50812 0.0
H1064 H 0.28248 0.82365 0.45693 0.0
H1065 H 0.34001 0.82348 0.5313 0.0
H1066 H 0.25595 0.74345 0.49184 0.0
H1067 H 0.28722 0.87308 0.50457 0.0
C1068 C 0.28817 0.88608 0.48327 0.0
C1069 C 0.28817 0.87328 0.46964 0.0
C1070 C 0.27338 0.7606 0.50073 0.0
C1071 C 0.28237 0.82466 0.49133 0.0
C1072 C 0.28525 0.74211 0.5101 0.0
C1073 C 0.3106 0.76485 0.52102 0.0
C1074 C 0.2866 0.80184 0.50244 0.0
C1075 C 0.32046 0.80503 0.52299 0.0
C1076 C 0.28556 0.86202 0.49411 0.0
C1077 C 0.28319 0.83493 0.46728 0.0
N1078 N 0.30877 0.82242 0.5137 0.0
N1079 N 0.28075 0.81205 0.47803 0.0
H1080 H 0.07907 0.51884 0.40478 0.0
H1081 H 0.20696 0.57863 0.33688 0.0
H1082 H 0.0708 0.43272 0.37385 0.0
H1083 H 0.2164 0.66254 0.3688 0.0
H1084 H 0.14237 0.52751 0.34638 0.0
H1085 H 0.11417 0.5728 0.3884 0.0
C1086 C 0.08405 0.51117 0.39446 0.0
C1087 C 0.07287 0.47135 0.39079 0.0
C1088 C 0.15792 0.55752 0.35105 0.0
C1089 C 0.11369 0.53317 0.37199 0.0
C1090 C 0.19457 0.58685 0.34551 0.0
C1091 C 0.2173 0.62441 0.3523 0.0
C1092 C 0.14431 0.56611 0.3634 0.0
C1093 C 0.20002 0.63357 0.36345 0.0
C1094 C 0.10408 0.54203 0.38508 0.0
C1095 C 0.07948 0.46312 0.37719 0.0
N1096 N 0.16501 0.60433 0.36885 0.0
N1097 N 0.10026 0.49389 0.36838 0.0
H1098 H 0.50301 0.57929 0.40671 0.0
H1099 H 0.43363 0.63759 0.33945 0.0
H1100 H 0.58372 0.6536 0.37492 0.0
H1101 H 0.3562 0.57268 0.37321 0.0
H1102 H 0.48529 0.62733 0.34902 0.0
H1103 H 0.44666 0.56155 0.39166 0.0
C1104 C 0.50896 0.59147 0.39649 0.0
C1105 C 0.54819 0.61866 0.39219 0.0
C1106 C 0.4566 0.61439 0.35414 0.0
C1107 C 0.48358 0.59866 0.3749 0.0
C1108 C 0.42691 0.61983 0.34858 0.0
C1109 C 0.3909 0.60662 0.3557 0.0
C1110 C 0.45002 0.5956 0.36686 0.0
C1111 C 0.38385 0.58395 0.36752 0.0
C1112 C 0.4767 0.58127 0.38788 0.0
C1113 C 0.55398 0.63297 0.37875 0.0
N1114 N 0.4134 0.57984 0.37287 0.0
N1115 N 0.52201 0.62335 0.37067 0.0
H1116 H 0.45617 0.9362 0.4125 0.0
H1117 H 0.37763 0.80923 0.34254 0.0
H1118 H 0.35258 0.91533 0.39005 0.0
H1119 H 0.4516 0.79633 0.3718 0.0
H1120 H 0.38993 0.87075 0.35491 0.0
H1121 H 0.4739 0.90656 0.39312 0.0
C1122 C 0.4376 0.92613 0.4034 0.0
C1123 C 0.4023 0.92725 0.40301 0.0
C1124 C 0.40466 0.85526 0.35832 0.0
C1125 C 0.42264 0.89388 0.38082 0.0
C1126 C 0.39809 0.82049 0.35116 0.0
C1127 C 0.413 0.79744 0.35638 0.0
C1128 C 0.42648 0.86685 0.37065 0.0
C1129 C 0.43911 0.81311 0.36762 0.0
C1130 C 0.44777 0.9093 0.39235 0.0
C1131 C 0.37955 0.91414 0.39091 0.0
N1132 N 0.44434 0.8464 0.37458 0.0
N1133 N 0.38983 0.89754 0.38037 0.0
H1134 H 0.28896 0.10665 0.08968 0.0
H1135 H 0.13455 0.06009 0.1513 0.0
H1136 H 0.29314 0.05691 0.12829 0.0
H1137 H 0.12344 0.09958 0.11157 0.0
H1138 H 0.20015 0.07158 0.14458 0.0
H1139 H 0.23462 0.11475 0.09874 0.0
C1140 C 0.27855 0.09753 0.10006 0.0
C1141 C 0.2953 0.08059 0.10817 0.0
C1142 C 0.18377 0.07858 0.13743 0.0
C1143 C 0.23338 0.09009 0.11865 0.0
C1144 C 0.14662 0.07271 0.14137 0.0
C1145 C 0.12368 0.07912 0.13201 0.0
C1146 C 0.19785 0.09065 0.124 0.0
C1147 C 0.14017 0.09413 0.11908 0.0
C1148 C 0.24762 0.10229 0.10525 0.0
C1149 C 0.28084 0.06966 0.1216 0.0
N1150 N 0.17602 0.09891 0.11539 0.0
N1151 N 0.25062 0.07439 0.12638 0.0
H1152 H 0.90246 0.21345 0.09753 0.0
H1153 H 0.95585 0.10709 0.15586 0.0
H1154 H 0.94932 0.26796 0.13735 0.0
H1155 H 0.91792 0.05775 0.1149 0.0
H1156 H 0.9413 0.16008 0.15086 0.0
H1157 H 0.89703 0.15096 0.10511 0.0
C1158 C 0.91134 0.21222 0.10789 0.0
C1159 C 0.92686 0.24622 0.11674 0.0
C1160 C 0.9355 0.1372 0.14306 0.0
C1161 C 0.9207 0.17471 0.12552 0.0
C1162 C 0.94343 0.10671 0.14597 0.0
C1163 C 0.93864 0.07832 0.13572 0.0
C1164 C 0.92262 0.13912 0.12984 0.0
C1165 C 0.92261 0.0794 0.12304 0.0
C1166 C 0.90819 0.1765 0.11223 0.0
C1167 C 0.9376 0.24269 0.13011 0.0
N1168 N 0.9157 0.10957 0.1204 0.0
N1169 N 0.93464 0.20777 0.13404 0.0
H1170 H 0.81459 0.71119 0.09872 0.0
H1171 H 0.91528 0.88347 0.15686 0.0
H1172 H 0.76379 0.7014 0.13911 0.0
H1173 H 0.9652 0.89047 0.11654 0.0
H1174 H 0.86612 0.81183 0.15225 0.0
H1175 H 0.87555 0.77207 0.10651 0.0
C1176 C 0.81636 0.72167 0.10926 0.0
C1177 C 0.7838 0.70151 0.11821 0.0
C1178 C 0.8884 0.82883 0.14453 0.0
C1179 C 0.85352 0.77142 0.12721 0.0
C1180 C 0.91673 0.86956 0.14724 0.0
C1181 C 0.94406 0.89282 0.13703 0.0
C1182 C 0.88751 0.8116 0.13152 0.0
C1183 C 0.94425 0.87361 0.12463 0.0
C1184 C 0.85125 0.75642 0.11372 0.0
C1185 C 0.788 0.71623 0.13181 0.0
N1186 N 0.91607 0.83431 0.12215 0.0
N1187 N 0.82201 0.75058 0.13584 0.0
H1188 H 0.15252 0.34308 0.42343 0.0
H1189 H 0.03726 0.14839 0.37353 0.0
H1190 H 0.045 0.31223 0.40143 0.0
H1191 H 0.11049 0.15646 0.40755 0.0
H1192 H 0.05429 0.21814 0.37873 0.0
H1193 H 0.15053 0.28369 0.41295 0.0
C1194 C 0.12872 0.32407 0.4163 0.0
C1195 C 0.09855 0.3323 0.41346 0.0
C1196 C 0.06725 0.20482 0.38485 0.0
C1197 C 0.09647 0.26472 0.40131 0.0
C1198 C 0.05791 0.16527 0.3818 0.0
C1199 C 0.07221 0.14664 0.39022 0.0
C1200 C 0.09151 0.22585 0.39624 0.0
C1201 C 0.09855 0.16967 0.4009 0.0
C1202 C 0.12763 0.29022 0.41033 0.0
C1203 C 0.06854 0.30669 0.40407 0.0
N1204 N 0.10711 0.20795 0.40368 0.0
N1205 N 0.06816 0.27396 0.39837 0.0
H1206 H 0.70083 0.76162 0.40282 0.0
H1207 H 0.8987 0.97208 0.42168 0.0
H1208 H 0.75445 0.7954 0.44306 0.0
H1209 H 0.87438 0.92076 0.38057 0.0
H1210 H 0.83512 0.91506 0.42922 0.0
H1211 H 0.7547 0.8267 0.39425 0.0
C1212 C 0.72368 0.78286 0.40987 0.0
C1213 C 0.72343 0.77298 0.42364 0.0
C1214 C 0.84338 0.91663 0.41849 0.0
C1215 C 0.78442 0.84736 0.41398 0.0
C1216 C 0.87959 0.94929 0.41415 0.0
C1217 C 0.89209 0.95114 0.40047 0.0
C1218 C 0.81931 0.88546 0.40911 0.0
C1219 C 0.86585 0.92079 0.39117 0.0
C1220 C 0.75435 0.81986 0.40496 0.0
C1221 C 0.75372 0.80156 0.43233 0.0
N1222 N 0.83084 0.88887 0.39569 0.0
N1223 N 0.78293 0.83739 0.42736 0.0
H1224 H 0.25729 0.96008 0.38704 0.0
H1225 H 0.04804 0.93215 0.40999 0.0
H1226 H 0.20077 0.91531 0.42626 0.0
H1227 H 0.10439 0.98289 0.37136 0.0
H1228 H 0.09781 0.91351 0.41396 0.0
H1229 H 0.19704 0.95826 0.37933 0.0
C1230 C 0.23214 0.94962 0.394 0.0
C1231 C 0.23428 0.93837 0.40739 0.0
C1232 C 0.09904 0.92807 0.40448 0.0
C1233 C 0.16526 0.93597 0.39859 0.0
C1234 C 0.07048 0.93849 0.40219 0.0
C1235 C 0.07238 0.95921 0.39037 0.0
C1236 C 0.13027 0.93919 0.39501 0.0
C1237 C 0.10185 0.96665 0.38055 0.0
C1238 C 0.19773 0.94848 0.38957 0.0
C1239 C 0.20069 0.92475 0.41591 0.0
N1240 N 0.13023 0.95731 0.3832 0.0
N1241 N 0.16774 0.92422 0.4114 0.0
H1242 H 0.71766 0.94035 0.91688 0.0
H1243 H 0.90888 0.05555 0.86981 0.0
H1244 H 0.73463 0.0368 0.89099 0.0
H1245 H 0.86518 0.93593 0.88465 0.0
H1246 H 0.84494 0.04952 0.87631 0.0
H1247 H 0.77286 0.93965 0.9051 0.0
C1248 C 0.7332 0.9616 0.90878 0.0
C1249 C 0.72174 0.98889 0.90499 0.0
C1250 C 0.8489 0.02413 0.87776 0.0
C1251 C 0.78487 0.98806 0.89135 0.0
C1252 C 0.8851 0.02739 0.87389 0.0
C1253 C 0.89175 0.99595 0.87659 0.0
C1254 C 0.81993 0.98957 0.88463 0.0
C1255 C 0.86075 0.96057 0.8823 0.0
C1256 C 0.76444 0.96088 0.90194 0.0
C1257 C 0.74263 0.01536 0.89427 0.0
N1258 N 0.8264 0.95856 0.88635 0.0
N1259 N 0.77347 0.01456 0.88789 0.0
H1260 H 0.00377 0.7285 0.90602 0.0
H1261 H 0.02983 0.94563 0.91893 0.0
H1262 H 0.06743 0.80612 0.94078 0.0
H1263 H -0.00041 0.88365 0.87944 0.0
H1264 H 0.03563 0.89094 0.92824 0.0
H1265 H -0.00669 0.78105 0.89745 0.0
C1266 C 0.01523 0.75645 0.91193 0.0
C1267 C 0.03664 0.76299 0.92413 0.0
C1268 C 0.02772 0.88931 0.91755 0.0
C1269 C 0.02481 0.82327 0.91432 0.0
C1270 C 0.0243 0.92045 0.91221 0.0
C1271 C 0.01428 0.91924 0.89836 0.0
C1272 C 0.02068 0.85645 0.90902 0.0
C1273 C 0.00754 0.88589 0.89015 0.0
C1274 C 0.00943 0.78651 0.90698 0.0
C1275 C 0.05086 0.79985 0.93132 0.0
N1276 N 0.01077 0.85572 0.89562 0.0
N1277 N 0.04471 0.82866 0.92629 0.0
H1278 H 0.20402 0.33691 0.90329 0.0
H1279 H 0.14784 0.11509 0.87799 0.0
H1280 H 0.28177 0.28989 0.90904 0.0
H1281 H 0.06445 0.15619 0.88194 0.0
H1282 H 0.20264 0.18388 0.88409 0.0
H1283 H 0.15788 0.27543 0.8906 0.0
C1284 C 0.21142 0.31361 0.9019 0.0
C1285 C 0.24653 0.31829 0.90744 0.0
C1286 C 0.17245 0.17799 0.88329 0.0
C1287 C 0.19368 0.24764 0.89279 0.0
C1288 C 0.14142 0.13902 0.87966 0.0
C1289 C 0.10196 0.13048 0.87947 0.0
C1290 C 0.16354 0.20814 0.88663 0.0
C1291 C 0.09468 0.16193 0.88196 0.0
C1292 C 0.18508 0.27853 0.89458 0.0
C1293 C 0.25475 0.28727 0.90509 0.0
N1294 N 0.12514 0.19931 0.88554 0.0
N1295 N 0.22831 0.25302 0.89802 0.0
H1296 H 0.08972 0.79627 0.59089 0.0
H1297 H 0.02696 0.90146 0.64963 0.0
H1298 H 0.97687 0.73758 0.61239 0.0
H1299 H 0.10395 0.96676 0.61581 0.0
H1300 H 0.02593 0.84053 0.6413 0.0
H1301 H 0.11024 0.85806 0.60478 0.0
C1302 C 0.06946 0.79633 0.59859 0.0
C1303 C 0.03128 0.76218 0.60033 0.0
C1304 C 0.04395 0.86854 0.63595 0.0
C1305 C 0.05492 0.83179 0.61643 0.0
C1306 C 0.04496 0.90341 0.64079 0.0
C1307 C 0.06513 0.93891 0.63326 0.0
C1308 C 0.06361 0.86958 0.62364 0.0
C1309 C 0.08762 0.9397 0.62178 0.0
C1310 C 0.08122 0.8314 0.60652 0.0
C1311 C 0.00625 0.76358 0.61053 0.0
N1312 N 0.08582 0.90531 0.61718 0.0
N1313 N 0.01848 0.79786 0.61818 0.0
H1314 H 0.23888 0.30717 0.59342 0.0
H1315 H 0.13387 0.14051 0.65098 0.0
H1316 H 0.2982 0.26152 0.61751 0.0
H1317 H 0.07051 0.14652 0.61615 0.0
H1318 H 0.19366 0.2027 0.6437 0.0
H1319 H 0.17672 0.26395 0.60613 0.0
C1320 C 0.23887 0.28834 0.60144 0.0
C1321 C 0.27339 0.28723 0.60425 0.0
C1322 C 0.16631 0.19093 0.63787 0.0
C1323 C 0.20327 0.23902 0.61899 0.0
C1324 C 0.13206 0.15576 0.64212 0.0
C1325 C 0.09744 0.13821 0.63405 0.0
C1326 C 0.16567 0.20857 0.62554 0.0
C1327 C 0.0969 0.15893 0.62253 0.0
C1328 C 0.20358 0.2639 0.6087 0.0
C1329 C 0.272 0.26263 0.61483 0.0
N1330 N 0.13077 0.19278 0.61848 0.0
N1331 N 0.2375 0.23944 0.62178 0.0
H1332 H 0.74187 0.95414 0.59162 0.0
H1333 H 0.90109 0.00644 0.65095 0.0
H1334 H 0.78528 0.05538 0.62021 0.0
H1335 H 0.88976 0.93355 0.61501 0.0
H1336 H 0.8415 0.00663 0.64393 0.0
H1337 H 0.78075 0.931 0.60382 0.0
C1338 C 0.75923 0.97123 0.60053 0.0
C1339 C 0.76107 0.00715 0.60476 0.0
C1340 C 0.85146 0.98971 0.63777 0.0
C1341 C 0.80464 0.98053 0.61884 0.0
C1342 C 0.88515 0.98907 0.64188 0.0
C1343 C 0.90048 0.97015 0.6335 0.0
C1344 C 0.83322 0.97147 0.62516 0.0
C1345 C 0.87906 0.94887 0.62167 0.0
C1346 C 0.78126 0.95798 0.60749 0.0
C1347 C 0.7837 0.02798 0.61643 0.0
N1348 N 0.84682 0.95064 0.61772 0.0
N1349 N 0.80475 0.01448 0.62302 0.0
H1350 H 0.96462 0.38909 0.45918 0.0
H1351 H 0.72998 0.25646 0.45393 0.0
H1352 H 0.90405 0.28623 0.43136 0.0
H1353 H 0.79022 0.33579 0.48862 0.0
H1354 H 0.79279 0.26202 0.44679 0.0
H1355 H 0.90138 0.36706 0.47108 0.0
C1356 C 0.93805 0.36174 0.45561 0.0
C1357 C 0.93954 0.33976 0.44413 0.0
C1358 C 0.7922 0.27752 0.45614 0.0
C1359 C 0.86697 0.31438 0.45773 0.0
C1360 C 0.75629 0.2742 0.46024 0.0
C1361 C 0.75504 0.29592 0.47182 0.0
C1362 C 0.82732 0.30353 0.46349 0.0
C1363 C 0.7899 0.31846 0.47965 0.0
C1364 C 0.90198 0.34902 0.46248 0.0
C1365 C 0.90425 0.3043 0.44009 0.0
N1366 N 0.8249 0.32243 0.47517 0.0
N1367 N 0.86932 0.29301 0.44676 0.0
H1368 H 0.67647 0.58229 0.43119 0.0
H1369 H 0.67602 0.4503 0.49191 0.0
H1370 H 0.65985 0.60631 0.47354 0.0
H1371 H 0.72398 0.45042 0.45172 0.0
H1372 H 0.67449 0.51059 0.48607 0.0
H1373 H 0.69686 0.53584 0.4388 0.0
C1374 C 0.67734 0.57798 0.44209 0.0
C1375 C 0.6661 0.59793 0.45173 0.0
C1376 C 0.68616 0.49793 0.47864 0.0
C1377 C 0.6892 0.54466 0.46053 0.0
C1378 C 0.68753 0.46376 0.48205 0.0
C1379 C 0.70022 0.4453 0.47231 0.0
C1380 C 0.69691 0.51321 0.46533 0.0
C1381 C 0.71363 0.46346 0.45951 0.0
C1382 C 0.68917 0.55161 0.44644 0.0
C1383 C 0.66809 0.59142 0.46573 0.0
N1384 N 0.71105 0.49599 0.45632 0.0
N1385 N 0.67892 0.56499 0.46971 0.0
H1386 H 0.36673 0.09691 0.43841 0.0
H1387 H 0.55002 0.20438 0.49108 0.0
H1388 H 0.40964 0.03255 0.46113 0.0
H1389 H 0.5343 0.26453 0.45731 0.0
H1390 H 0.4864 0.14287 0.48501 0.0
H1391 H 0.41678 0.15989 0.44987 0.0
C1392 C 0.38641 0.09594 0.44589 0.0
C1393 C 0.38443 0.05952 0.44866 0.0
C1394 C 0.49654 0.16986 0.47913 0.0
C1395 C 0.44131 0.13132 0.46192 0.0
C1396 C 0.53253 0.20501 0.48268 0.0
C1397 C 0.5474 0.2393 0.4746 0.0
C1398 C 0.47531 0.16945 0.46755 0.0
C1399 C 0.52392 0.23849 0.46371 0.0
C1400 C 0.41491 0.13187 0.45243 0.0
C1401 C 0.41054 0.06006 0.45853 0.0
N1402 N 0.4892 0.204 0.46043 0.0
N1403 N 0.43804 0.09543 0.46476 0.0
H1404 H 0.81083 0.69048 0.74438 0.0
H1405 H 0.70153 0.49171 0.69617 0.0
H1406 H 0.69432 0.64577 0.7267 0.0
H1407 H 0.78163 0.50756 0.72893 0.0
H1408 H 0.71203 0.55894 0.70189 0.0
H1409 H 0.81238 0.6332 0.73368 0.0
C1410 C 0.78569 0.66878 0.73817 0.0
C1411 C 0.75215 0.6726 0.73657 0.0
C1412 C 0.72795 0.54796 0.7076 0.0
C1413 C 0.75418 0.60755 0.7241 0.0
C1414 C 0.7224 0.50993 0.70423 0.0
C1415 C 0.74065 0.49418 0.71215 0.0
C1416 C 0.75248 0.57042 0.71876 0.0
C1417 C 0.76692 0.51868 0.72263 0.0
C1418 C 0.78666 0.63618 0.73206 0.0
C1419 C 0.72051 0.64365 0.72836 0.0
N1420 N 0.77187 0.55549 0.72569 0.0
N1421 N 0.72227 0.61229 0.72242 0.0
H1422 H 0.40128 0.09956 0.73271 0.0
H1423 H 0.5599 0.33293 0.73398 0.0
H1424 H 0.37475 0.18664 0.7505 0.0
H1425 H 0.55964 0.25451 0.70158 0.0
H1426 H 0.49302 0.27952 0.7408 0.0
H1427 H 0.46129 0.15503 0.72205 0.0
C1428 C 0.40808 0.1303 0.73438 0.0
C1429 C 0.38314 0.13853 0.74258 0.0
C1430 C 0.50725 0.2742 0.73204 0.0
C1431 C 0.45158 0.20191 0.73048 0.0
C1432 C 0.54533 0.30469 0.72813 0.0
C1433 C 0.56517 0.29808 0.71719 0.0
C1434 C 0.48934 0.2364 0.72522 0.0
C1435 C 0.54514 0.26089 0.70999 0.0
C1436 C 0.44209 0.16185 0.7282 0.0
C1437 C 0.39316 0.1789 0.74429 0.0
N1438 N 0.50855 0.23106 0.7143 0.0
N1439 N 0.42682 0.20909 0.73843 0.0
H1440 H 0.93513 0.3062 0.71567 0.0
H1441 H 0.72954 0.29096 0.73706 0.0
H1442 H 0.87507 0.25978 0.75427 0.0
H1443 H 0.78841 0.3369 0.69832 0.0
H1444 H 0.77914 0.27305 0.74249 0.0
H1445 H 0.87905 0.31226 0.70827 0.0
C1446 C 0.91011 0.29718 0.7226 0.0
C1447 C 0.91 0.28273 0.73567 0.0
C1448 C 0.78097 0.28649 0.7327 0.0
C1449 C 0.84551 0.28953 0.72721 0.0
C1450 C 0.75256 0.29662 0.72958 0.0
C1451 C 0.75473 0.31525 0.71718 0.0
C1452 C 0.81221 0.2955 0.72344 0.0
C1453 C 0.78517 0.32191 0.70787 0.0
C1454 C 0.87802 0.30056 0.71833 0.0
C1455 C 0.8766 0.27129 0.74414 0.0
N1456 N 0.81301 0.31244 0.71126 0.0
N1457 N 0.84584 0.27513 0.73979 0.0
H1458 H 0.41317 0.36964 0.22906 0.0
H1459 H 0.53224 0.2564 0.21372 0.0
H1460 H 0.38677 0.25818 0.24749 0.0
H1461 H 0.57764 0.38067 0.20395 0.0
H1462 H 0.46789 0.24905 0.21987 0.0
H1463 H 0.46407 0.3675 0.21478 0.0
C1464 C 0.41805 0.34468 0.2301 0.0
C1465 C 0.39614 0.31434 0.23964 0.0
C1466 C 0.49148 0.27761 0.21599 0.0
C1467 C 0.45378 0.31141 0.22314 0.0
C1468 C 0.52789 0.28158 0.21228 0.0
C1469 C 0.55985 0.31911 0.20831 0.0
C1470 C 0.48746 0.31166 0.2159 0.0
C1471 C 0.55335 0.35116 0.20684 0.0
C1472 C 0.44694 0.34341 0.22189 0.0
C1473 C 0.40343 0.28254 0.24044 0.0
N1474 N 0.51798 0.34697 0.21091 0.0
N1475 N 0.43177 0.282 0.23233 0.0
H1476 H 0.70543 0.07187 0.22919 0.0
H1477 H 0.69418 0.26553 0.25152 0.0
H1478 H 0.73192 0.12429 0.27019 0.0
H1479 H 0.69278 0.22839 0.20921 0.0
H1480 H 0.70586 0.21257 0.25863 0.0
H1481 H 0.69901 0.12794 0.22172 0.0
C1482 C 0.71003 0.09528 0.23662 0.0
C1483 C 0.71902 0.09338 0.25035 0.0
C1484 C 0.70315 0.21609 0.24779 0.0
C1485 C 0.71153 0.15744 0.24188 0.0
C1486 C 0.6963 0.2462 0.24372 0.0
C1487 C 0.69234 0.25125 0.22975 0.0
C1488 C 0.70575 0.19061 0.23784 0.0
C1489 C 0.69559 0.22549 0.22009 0.0
C1490 C 0.70646 0.12732 0.23233 0.0
C1491 C 0.72493 0.12462 0.25951 0.0
N1492 N 0.70193 0.1961 0.22433 0.0
N1493 N 0.7208 0.15528 0.25512 0.0
H1494 H 0.95982 0.6309 0.23806 0.0
H1495 H 0.72451 0.47707 0.23389 0.0
H1496 H 0.87252 0.64372 0.26177 0.0
H1497 H 0.80919 0.46082 0.20994 0.0
H1498 H 0.77845 0.54275 0.2419 0.0
H1499 H 0.9056 0.5722 0.22606 0.0
C1500 C 0.92925 0.62136 0.24077 0.0
C1501 C 0.92069 0.64211 0.25103 0.0
C1502 C 0.78538 0.52519 0.23478 0.0
C1503 C 0.85854 0.57516 0.23721 0.0
C1504 C 0.75455 0.48775 0.23015 0.0
C1505 C 0.7626 0.46344 0.22137 0.0
C1506 C 0.8248 0.53832 0.23077 0.0
C1507 C 0.80186 0.47876 0.21672 0.0
C1508 C 0.89833 0.58795 0.23385 0.0
C1509 C 0.88055 0.62852 0.25402 0.0
N1510 N 0.83176 0.51511 0.22167 0.0
N1511 N 0.85101 0.59585 0.24717 0.0
H1512 H 0.6332 0.06214 0.95095 0.0
H1513 H 0.59219 0.23793 0.93831 0.0
H1514 H 0.5527 0.05368 0.9194 0.0
H1515 H 0.63823 0.22578 0.97664 0.0
H1516 H 0.57395 0.16906 0.93172 0.0
H1517 H 0.63397 0.12131 0.96077 0.0
C1518 C 0.61569 0.07276 0.94607 0.0
C1519 C 0.59322 0.05323 0.93422 0.0
C1520 C 0.58725 0.18108 0.9417 0.0
C1521 C 0.59388 0.12095 0.94548 0.0
C1522 C 0.59757 0.22033 0.94548 0.0
C1523 C 0.61697 0.23757 0.958 0.0
C1524 C 0.59728 0.15927 0.95036 0.0
C1525 C 0.6232 0.21354 0.96692 0.0
C1526 C 0.61585 0.10633 0.95177 0.0
C1527 C 0.57066 0.06799 0.92848 0.0
N1528 N 0.61414 0.17582 0.96281 0.0
N1529 N 0.57194 0.10129 0.93407 0.0
H1530 H 0.98949 0.60971 0.96369 0.0
H1531 H 0.80976 0.39218 0.94428 0.0
H1532 H -0.00277 0.53465 0.93164 0.0
H1533 H 0.81454 0.45308 0.98259 0.0
H1534 H 0.88053 0.44105 0.94061 0.0
H1535 H 0.92764 0.55121 0.97174 0.0
C1536 C 0.97833 0.58085 0.95839 0.0
C1537 C -0.00169 0.5772 0.94684 0.0
C1538 C 0.86644 0.44334 0.94997 0.0
C1539 C 0.92737 0.51007 0.95602 0.0
C1540 C 0.82605 0.41537 0.95208 0.0
C1541 C 0.80629 0.41883 0.96371 0.0
C1542 C 0.88705 0.47562 0.9594 0.0
C1543 C 0.82872 0.44932 0.97351 0.0
C1544 C 0.94311 0.54739 0.96306 0.0
C1545 C 0.98268 0.53894 0.94051 0.0
N1546 N 0.86779 0.47712 0.971 0.0
N1547 N 0.94785 0.507 0.94506 0.0
H1548 H 0.42897 0.40636 0.96636 0.0
H1549 H 0.63897 0.44329 0.9393 0.0
H1550 H 0.47316 0.44525 0.92538 0.0
H1551 H 0.58976 0.39832 0.9793 0.0
H1552 H 0.58388 0.45456 0.93516 0.0
H1553 H 0.4924 0.41295 0.97226 0.0
C1554 C 0.45208 0.41643 0.95858 0.0
C1555 C 0.44548 0.42477 0.94528 0.0
C1556 C 0.58563 0.44303 0.94496 0.0
C1557 C 0.51857 0.4324 0.95202 0.0
C1558 C 0.61719 0.43676 0.94736 0.0
C1559 C 0.61924 0.42008 0.95973 0.0
C1560 C 0.5557 0.43222 0.95495 0.0
C1561 C 0.59007 0.41205 0.96976 0.0
C1562 C 0.48843 0.4203 0.96199 0.0
C1563 C 0.47683 0.4382 0.93572 0.0
N1564 N 0.55932 0.41776 0.96708 0.0
N1565 N 0.51191 0.44124 0.93924 0.0
H1566 H 0.60725 0.75713 0.75813 0.0
H1567 H 0.44829 0.70036 0.81872 0.0
H1568 H 0.61382 0.70613 0.79614 0.0
H1569 H 0.44703 0.75589 0.78111 0.0
H1570 H 0.51314 0.70939 0.8121 0.0
H1571 H 0.55136 0.76161 0.76737 0.0
C1572 C 0.59682 0.74667 0.76841 0.0
C1573 C 0.61506 0.7309 0.77632 0.0
C1574 C 0.49899 0.72026 0.80542 0.0
C1575 C 0.55107 0.73627 0.78707 0.0
C1576 C 0.46224 0.71563 0.8093 0.0
C1577 C 0.44224 0.72728 0.80042 0.0
C1578 C 0.51555 0.73647 0.79258 0.0
C1579 C 0.46129 0.74614 0.78819 0.0
C1580 C 0.56502 0.7495 0.77373 0.0
C1581 C 0.60046 0.71823 0.78964 0.0
N1582 N 0.4966 0.7497 0.78456 0.0
N1583 N 0.56918 0.72101 0.79458 0.0
H1584 H 0.27299 0.90435 0.76196 0.0
H1585 H 0.3021 0.78325 0.82096 0.0
H1586 H 0.3107 0.95366 0.80297 0.0
H1587 H 0.24793 0.73067 0.78173 0.0
H1588 H 0.30027 0.84378 0.81561 0.0
H1589 H 0.26113 0.83951 0.76958 0.0
C1590 C 0.27896 0.90162 0.77256 0.0
C1591 C 0.29315 0.93464 0.78181 0.0
C1592 C 0.28804 0.81865 0.8083 0.0
C1593 C 0.2793 0.86014 0.79068 0.0
C1594 C 0.28851 0.78379 0.81145 0.0
C1595 C 0.27516 0.75184 0.80178 0.0
C1596 C 0.27445 0.82158 0.79535 0.0
C1597 C 0.25882 0.75473 0.78944 0.0
C1598 C 0.27187 0.86443 0.77695 0.0
C1599 C 0.29993 0.92909 0.79547 0.0
N1600 N 0.25944 0.78915 0.78651 0.0
N1601 N 0.29317 0.89262 0.79948 0.0
H1602 H 0.06399 0.36067 0.79002 0.0
H1603 H 0.28539 0.55077 0.78185 0.0
H1604 H 0.13163 0.39719 0.7523 0.0
H1605 H 0.21089 0.54098 0.81641 0.0
H1606 H 0.23403 0.48374 0.77379 0.0
H1607 H 0.12096 0.41771 0.80209 0.0
C1608 C 0.0908 0.38055 0.7843 0.0
C1609 C 0.09294 0.37447 0.7701 0.0
C1610 C 0.22898 0.49585 0.78325 0.0
C1611 C 0.1581 0.43882 0.78384 0.0
C1612 C 0.25845 0.53397 0.78791 0.0
C1613 C 0.25205 0.55151 0.79969 0.0
C1614 C 0.19246 0.47517 0.7903 0.0
C1615 C 0.21682 0.5284 0.80725 0.0
C1616 C 0.12322 0.41295 0.7912 0.0
C1617 C 0.12839 0.40096 0.7632 0.0
N1618 N 0.18781 0.49152 0.80227 0.0
N1619 N 0.15945 0.43183 0.77013 0.0
H1620 H 0.44407 -0.00034 0.05764 0.0
H1621 H 0.29407 0.76286 0.06291 0.0
H1622 H 0.32963 0.94665 0.07806 0.0
H1623 H 0.40257 0.81518 0.0391 0.0
H1624 H 0.3025 0.82973 0.06608 0.0
H1625 H 0.42649 0.9328 0.04879 0.0
C1626 C 0.41518 0.97396 0.06026 0.0
C1627 C 0.38847 0.97872 0.06877 0.0
C1628 C 0.32407 0.82662 0.05989 0.0
C1629 C 0.36808 0.90196 0.05858 0.0
C1630 C 0.31911 0.78843 0.05802 0.0
C1631 C 0.34756 0.78364 0.05065 0.0
C1632 C 0.35825 0.86045 0.05461 0.0
C1633 C 0.37962 0.81758 0.04461 0.0
C1634 C 0.40508 0.93578 0.05512 0.0
C1635 C 0.35129 0.94437 0.07165 0.0
N1636 N 0.38452 0.85477 0.04692 0.0
N1637 N 0.34235 0.90741 0.06667 0.0
H1638 H 0.06969 0.40693 0.08997 0.0
H1639 H 0.22247 0.57735 0.03886 0.0
H1640 H 0.03272 0.46038 0.05966 0.0
H1641 H 0.25518 0.55546 0.07833 0.0
H1642 H 0.15352 0.52137 0.04265 0.0
H1643 H 0.13876 0.44885 0.08208 0.0
C1644 C 0.07604 0.42724 0.08159 0.0
C1645 C 0.04555 0.43067 0.07561 0.0
C1646 C 0.17607 0.52854 0.05035 0.0
C1647 C 0.12428 0.47827 0.06645 0.0
C1648 C 0.21531 0.56017 0.04815 0.0
C1649 C 0.24416 0.57122 0.0584 0.0
C1650 C 0.16619 0.50767 0.06274 0.0
C1651 C 0.23355 0.54818 0.07027 0.0
C1652 C 0.11542 0.4511 0.07709 0.0
C1653 C 0.05545 0.45727 0.06471 0.0
N1654 N 0.19537 0.51765 0.07216 0.0
N1655 N 0.09404 0.48023 0.06051 0.0
H1656 H 0.65122 0.70504 0.06905 0.0
H1657 H 0.44291 0.68035 0.09181 0.0
H1658 H 0.58652 0.63984 0.10498 0.0
H1659 H 0.48455 0.69804 0.04984 0.0
H1660 H 0.50223 0.67901 0.09859 0.0
H1661 H 0.5971 0.71674 0.06387 0.0
C1662 C 0.62589 0.69363 0.07596 0.0
C1663 C 0.62319 0.67113 0.08742 0.0
C1664 C 0.49841 0.6834 0.08792 0.0
C1665 C 0.56133 0.68451 0.08153 0.0
C1666 C 0.4647 0.68432 0.08404 0.0
C1667 C 0.45871 0.68908 0.07022 0.0
C1668 C 0.52658 0.68787 0.07794 0.0
C1669 C 0.48786 0.694 0.06059 0.0
C1670 C 0.59496 0.70015 0.07294 0.0
C1671 C 0.58964 0.65708 0.09599 0.0
N1672 N 0.52061 0.6933 0.06464 0.0
N1673 N 0.55989 0.66393 0.09285 0.0
H1674 H 0.06043 0.67278 0.54197 0.0
H1675 H 0.21098 0.60345 0.56449 0.0
H1676 H 0.04506 0.60257 0.5777 0.0
H1677 H 0.23451 0.68254 0.53074 0.0
H1678 H 0.14386 0.59234 0.56649 0.0
H1679 H 0.1183 0.66771 0.53526 0.0
C1680 C 0.06899 0.656 0.54836 0.0
C1681 C 0.04808 0.63844 0.56052 0.0
C1682 C 0.16338 0.61173 0.55851 0.0
C1683 C 0.11424 0.63241 0.55282 0.0
C1684 C 0.20168 0.61792 0.55731 0.0
C1685 C 0.22852 0.64446 0.54756 0.0
C1686 C 0.15182 0.6326 0.55 0.0
C1687 C 0.21479 0.66202 0.53843 0.0
C1688 C 0.10203 0.6531 0.54449 0.0
C1689 C 0.06045 0.61692 0.56832 0.0
N1690 N 0.17753 0.65637 0.54003 0.0
N1691 N 0.09283 0.61475 0.56438 0.0
H1692 H 0.42273 0.46312 0.58973 0.0
H1693 H 0.37642 0.58482 0.53506 0.0
H1694 H 0.38377 0.41893 0.54832 0.0
H1695 H 0.39787 0.61579 0.57824 0.0
H1696 H 0.38903 0.52951 0.53849 0.0
H1697 H 0.42388 0.52497 0.58443 0.0
C1698 C 0.41467 0.46652 0.57949 0.0
C1699 C 0.40272 0.43557 0.56951 0.0
C1700 C 0.39126 0.54871 0.54716 0.0
C1701 C 0.40378 0.50642 0.56335 0.0
C1702 C 0.38423 0.58031 0.5452 0.0
C1703 C 0.38555 0.60455 0.55641 0.0
C1704 C 0.39999 0.54175 0.56039 0.0
C1705 C 0.3959 0.59749 0.56932 0.0
C1706 C 0.41529 0.50187 0.57646 0.0
C1707 C 0.39287 0.44187 0.55637 0.0
N1708 N 0.40249 0.5667 0.57096 0.0
N1709 N 0.39333 0.47646 0.5537 0.0
H1710 H 0.56995 0.97756 0.60951 0.0
H1711 H 0.45664 0.82718 0.54591 0.0
H1712 H 0.61643 -0.00244 0.56815 0.0
H1713 H 0.4134 0.80392 0.58766 0.0
H1714 H 0.51126 0.89372 0.55338 0.0
H1715 H 0.5085 0.91787 0.60122 0.0
C1716 C 0.56714 0.96962 0.59867 0.0
C1717 C 0.59857 0.9924 0.58954 0.0
C1718 C 0.48963 0.87419 0.56089 0.0
C1719 C 0.52834 0.92401 0.57998 0.0
C1720 C 0.45836 0.8362 0.55662 0.0
C1721 C 0.4306 0.80973 0.5662 0.0
C1722 C 0.49322 0.88579 0.57484 0.0
C1723 C 0.43428 0.82316 0.57993 0.0
C1724 C 0.53204 0.93549 0.59394 0.0
C1725 C 0.59313 0.98074 0.57559 0.0
N1726 N 0.46518 0.8601 0.58386 0.0
N1727 N 0.55884 0.94722 0.57126 0.0
H1728 H 0.36586 0.42324 0.27392 0.0
H1729 H 0.33456 0.55524 0.33159 0.0
H1730 H 0.27003 0.37442 0.30366 0.0
H1731 H 0.40963 0.60499 0.29593 0.0
H1732 H 0.32449 0.48891 0.32524 0.0
H1733 H 0.39385 0.48962 0.28522 0.0
C1734 C 0.35075 0.42644 0.28285 0.0
C1735 C 0.31516 0.3934 0.28771 0.0
C1736 C 0.34391 0.51457 0.31899 0.0
C1737 C 0.34734 0.46911 0.30078 0.0
C1738 C 0.3501 0.55254 0.32271 0.0
C1739 C 0.37253 0.58544 0.31415 0.0
C1740 C 0.36038 0.50975 0.30668 0.0
C1741 C 0.39165 0.58016 0.30269 0.0
C1742 C 0.36685 0.46429 0.28932 0.0
C1743 C 0.29715 0.39921 0.29942 0.0
N1744 N 0.38465 0.54286 0.29916 0.0
N1745 N 0.31331 0.43642 0.30551 0.0
H1746 H 0.58012 0.97734 0.27952 0.0
H1747 H 0.46858 0.79017 0.32909 0.0
H1748 H 0.62955 0.90488 0.29084 0.0
H1749 H 0.40482 0.81074 0.29776 0.0
H1750 H 0.53111 0.84922 0.32122 0.0
H1751 H 0.5179 0.93034 0.29154 0.0
C1752 C 0.57775 0.95146 0.28449 0.0
C1753 C 0.60959 0.94446 0.28403 0.0
C1754 C 0.50317 0.84133 0.31636 0.0
C1755 C 0.53984 0.89223 0.29821 0.0
C1756 C 0.46758 0.80816 0.32095 0.0
C1757 C 0.43185 0.79578 0.31397 0.0
C1758 C 0.5025 0.8624 0.30496 0.0
C1759 C 0.43199 0.81951 0.30333 0.0
C1760 C 0.54254 0.925 0.29139 0.0
C1761 C 0.60537 0.91086 0.29075 0.0
N1762 N 0.46694 0.85165 0.29905 0.0
N1763 N 0.57116 0.88607 0.29766 0.0
H1764 H 0.12564 0.70129 0.26286 0.0
H1765 H 0.22292 0.67181 0.32834 0.0
H1766 H 0.07525 0.69476 0.30311 0.0
H1767 H 0.22804 0.62424 0.28826 0.0
H1768 H 0.16981 0.68188 0.32004 0.0
H1769 H 0.16735 0.67757 0.27241 0.0
C1770 C 0.12347 0.69499 0.2737 0.0
C1771 C 0.09703 0.70001 0.2822 0.0
C1772 C 0.18208 0.66846 0.31318 0.0
C1773 C 0.14457 0.67299 0.2932 0.0
C1774 C 0.21206 0.66225 0.31796 0.0
C1775 C 0.23022 0.64745 0.30896 0.0
C1776 C 0.17088 0.66045 0.29928 0.0
C1777 C 0.21531 0.63627 0.29551 0.0
C1778 C 0.14697 0.68112 0.27913 0.0
C1779 C 0.0952 0.69115 0.29618 0.0
N1780 N 0.18713 0.64373 0.29101 0.0
N1781 N 0.11894 0.67843 0.30129 0.0
loop_
_geom_bond_atom_site_label_1
_geom_bond_atom_site_label_2
_geom_bond_distance
_geom_bond_site_symmetry_2
_ccdc_geom_bond_type
C0 O1 1.160 . S
C0 O7 1.185 . S
O1 C0 1.160 . S
O2 Zn3 1.899 1_565 S
O2 C10 1.284 . S
Zn3 O2 1.899 1_545 S
Zn3 O4 2.032 . S
Zn3 O7 2.086 . S
Zn3 O12 1.977 . S
O4 Zn3 2.032 . S
O4 C8 1.278 . S
C5 O6 1.203 1_545 S
C5 O12 1.267 . S
O6 C5 1.203 1_565 S
O7 C0 1.185 . S
O7 Zn3 2.086 . S
C8 O4 1.278 . S
C8 O9 1.211 1_545 S
O9 C8 1.211 1_565 S
C10 O2 1.284 . S
C10 O11 1.273 . S
O11 C10 1.273 . S
O12 Zn3 1.977 . S
O12 C5 1.267 . S
C13 O14 1.160 . S
C13 O20 1.185 . S
O14 C13 1.160 . S
O15 Zn16 1.899 1_655 S
O15 C23 1.284 . S
Zn16 O15 1.899 1_455 S
Zn16 O17 2.032 . S
Zn16 O20 2.086 . S
Zn16 O25 1.977 . S
O17 Zn16 2.032 . S
O17 C21 1.278 . S
C18 O19 1.203 1_455 S
C18 O25 1.267 . S
O19 C18 1.203 1_655 S
O20 C13 1.185 . S
O20 Zn16 2.086 . S
C21 O17 1.278 . S
C21 O22 1.211 1_455 S
O22 C21 1.211 1_655 S
C23 O15 1.284 . S
C23 O24 1.273 . S
O24 C23 1.273 . S
O25 Zn16 1.977 . S
O25 C18 1.267 . S
C26 O27 1.160 . S
C26 O33 1.185 . S
O27 C26 1.160 . S
O28 Zn29 1.899 . S
O28 C36 1.284 . S
Zn29 O28 1.899 . S
Zn29 O30 2.032 . S
Zn29 O33 2.086 . S
Zn29 O38 1.977 . S
O30 Zn29 2.032 . S
O30 C34 1.278 . S
C31 O32 1.203 . S
C31 O38 1.267 . S
O32 C31 1.203 . S
O33 C26 1.185 . S
O33 Zn29 2.086 . S
C34 O30 1.278 . S
C34 O35 1.211 . S
O35 C34 1.211 . S
C36 O28 1.284 . S
C36 O37 1.273 . S
O37 C36 1.273 . S
O38 Zn29 1.977 . S
O38 C31 1.267 . S
C39 O40 1.160 . S
C39 O46 1.185 . S
O40 C39 1.160 . S
O41 Zn42 1.899 . S
O41 C49 1.284 . S
Zn42 O41 1.899 . S
Zn42 O43 2.032 . S
Zn42 O46 2.086 1_545 S
Zn42 O51 1.977 1_545 S
O43 Zn42 2.032 . S
O43 C47 1.278 . S
C44 O45 1.203 . S
C44 O51 1.267 1_545 S
O45 C44 1.203 . S
O46 C39 1.185 . S
O46 Zn42 2.086 1_565 S
C47 O43 1.278 . S
C47 O48 1.211 . S
O48 C47 1.211 . S
C49 O41 1.284 . S
C49 O50 1.273 . S
O50 C49 1.273 . S
O51 Zn42 1.977 1_565 S
O51 C44 1.267 1_565 S
C52 O53 1.160 . S
C52 O59 1.185 . S
O53 C52 1.160 . S
O54 Zn55 1.899 . S
O54 C62 1.284 . S
Zn55 O54 1.899 . S
Zn55 O56 2.032 . S
Zn55 O59 2.086 1_455 S
Zn55 O64 1.977 1_455 S
O56 Zn55 2.032 . S
O56 C60 1.278 . S
C57 O58 1.203 . S
C57 O64 1.267 1_455 S
O58 C57 1.203 . S
O59 C52 1.185 . S
O59 Zn55 2.086 1_655 S
C60 O56 1.278 . S
C60 O61 1.211 . S
O61 C60 1.211 . S
C62 O54 1.284 . S
C62 O63 1.273 . S
O63 C62 1.273 . S
O64 Zn55 1.977 1_655 S
O64 C57 1.267 1_655 S
C65 O66 1.160 . S
C65 O72 1.185 . S
O66 C65 1.160 . S
O67 Zn68 1.899 . S
O67 C75 1.284 . S
Zn68 O67 1.899 . S
Zn68 O69 2.032 . S
Zn68 O72 2.086 . S
Zn68 O77 1.977 . S
O69 Zn68 2.032 . S
O69 C73 1.278 . S
C70 O71 1.203 . S
C70 O77 1.267 . S
O71 C70 1.203 . S
O72 C65 1.185 . S
O72 Zn68 2.086 . S
C73 O69 1.278 . S
C73 O74 1.211 . S
O74 C73 1.211 . S
C75 O67 1.284 . S
C75 O76 1.273 . S
O76 C75 1.273 . S
O77 Zn68 1.977 . S
O77 C70 1.267 . S
C78 O79 1.160 . S
C78 O85 1.185 . S
O79 C78 1.160 . S
O80 Zn81 1.899 . S
O80 C88 1.284 . S
Zn81 O80 1.899 . S
Zn81 O82 2.032 . S
Zn81 O85 2.086 . S
Zn81 O90 1.977 . S
O82 Zn81 2.032 . S
O82 C86 1.278 . S
C83 O84 1.203 . S
C83 O90 1.267 . S
O84 C83 1.203 . S
O85 C78 1.185 . S
O85 Zn81 2.086 . S
C86 O82 1.278 . S
C86 O87 1.211 . S
O87 C86 1.211 . S
C88 O80 1.284 . S
C88 O89 1.273 . S
O89 C88 1.273 . S
O90 Zn81 1.977 . S
O90 C83 1.267 . S
C91 O92 1.160 . S
C91 O98 1.185 . S
O92 C91 1.160 . S
O93 Zn94 1.899 . S
O93 C101 1.284 . S
Zn94 O93 1.899 . S
Zn94 O95 2.032 . S
Zn94 O98 2.086 . S
Zn94 O103 1.977 . S
O95 Zn94 2.032 . S
O95 C99 1.278 . S
C96 O97 1.203 . S
C96 O103 1.267 . S
O97 C96 1.203 . S
O98 C91 1.185 . S
O98 Zn94 2.086 . S
C99 O95 1.278 . S
C99 O100 1.211 . S
O100 C99 1.211 . S
C101 O93 1.284 . S
C101 O102 1.273 . S
O102 C101 1.273 . S
O103 Zn94 1.977 . S
O103 C96 1.267 . S
C104 O105 1.160 . S
C104 O111 1.185 . S
O105 C104 1.160 . S
O106 Zn107 1.899 . S
O106 C114 1.284 . S
Zn107 O106 1.899 . S
Zn107 O108 2.032 . S
Zn107 O111 2.086 1_655 S
Zn107 O116 1.977 . S
O108 Zn107 2.032 . S
O108 C112 1.278 . S
C109 O110 1.203 . S
C109 O116 1.267 . S
O110 C109 1.203 . S
O111 C104 1.185 . S
O111 Zn107 2.086 1_455 S
C112 O108 1.278 . S
C112 O113 1.211 . S
O113 C112 1.211 . S
C114 O106 1.284 . S
C114 O115 1.273 . S
O115 C114 1.273 . S
O116 Zn107 1.977 . S
O116 C109 1.267 . S
C117 O118 1.160 1_655 S
C117 O124 1.185 . S
O118 C117 1.160 1_455 S
O119 Zn120 1.899 1_455 S
O119 C127 1.284 . S
Zn120 O119 1.899 1_655 S
Zn120 O121 2.032 . S
Zn120 O124 2.086 . S
Zn120 O129 1.977 . S
O121 Zn120 2.032 . S
O121 C125 1.278 . S
C122 O123 1.203 . S
C122 O129 1.267 . S
O123 C122 1.203 . S
O124 C117 1.185 . S
O124 Zn120 2.086 . S
C125 O121 1.278 . S
C125 O126 1.211 . S
O126 C125 1.211 . S
C127 O119 1.284 . S
C127 O128 1.273 . S
O128 C127 1.273 . S
O129 Zn120 1.977 . S
O129 C122 1.267 . S
C130 O131 1.160 . S
C130 O137 1.185 . S
O131 C130 1.160 . S
O132 Zn133 1.899 . S
O132 C140 1.284 . S
Zn133 O132 1.899 . S
Zn133 O134 2.032 . S
Zn133 O137 2.086 . S
Zn133 O142 1.977 . S
O134 Zn133 2.032 . S
O134 C138 1.278 . S
C135 O136 1.203 . S
C135 O142 1.267 . S
O136 C135 1.203 . S
O137 C130 1.185 . S
O137 Zn133 2.086 . S
C138 O134 1.278 . S
C138 O139 1.211 . S
O139 C138 1.211 . S
C140 O132 1.284 . S
C140 O141 1.273 . S
O141 C140 1.273 . S
O142 Zn133 1.977 . S
O142 C135 1.267 . S
C143 O144 1.160 . S
C143 O150 1.185 . S
O144 C143 1.160 . S
O145 Zn146 1.899 . S
O145 C153 1.284 . S
Zn146 O145 1.899 . S
Zn146 O147 2.032 . S
Zn146 O150 2.086 . S
Zn146 O155 1.977 . S
O147 Zn146 2.032 . S
O147 C151 1.278 . S
C148 O149 1.203 . S
C148 O155 1.267 . S
O149 C148 1.203 . S
O150 C143 1.185 . S
O150 Zn146 2.086 . S
C151 O147 1.278 . S
C151 O152 1.211 . S
O152 C151 1.211 . S
C153 O145 1.284 . S
C153 O154 1.273 . S
O154 C153 1.273 . S
O155 Zn146 1.977 . S
O155 C148 1.267 . S
C156 O157 1.160 . S
C156 O163 1.185 . S
O157 C156 1.160 . S
O158 Zn159 1.899 . S
O158 C166 1.284 . S
Zn159 O158 1.899 . S
Zn159 O160 2.032 . S
Zn159 O163 2.086 . S
Zn159 O168 1.977 . S
O160 Zn159 2.032 . S
O160 C164 1.278 . S
C161 O162 1.203 . S
C161 O168 1.267 . S
O162 C161 1.203 . S
O163 C156 1.185 . S
O163 Zn159 2.086 . S
C164 O160 1.278 . S
C164 O165 1.211 . S
O165 C164 1.211 . S
C166 O158 1.284 . S
C166 O167 1.273 . S
O167 C166 1.273 . S
O168 Zn159 1.977 . S
O168 C161 1.267 . S
C169 O170 1.160 . S
C169 O176 1.185 . S
O170 C169 1.160 . S
O171 Zn172 1.899 . S
O171 C179 1.284 . S
Zn172 O171 1.899 . S
Zn172 O173 2.032 . S
Zn172 O176 2.086 . S
Zn172 O181 1.977 . S
O173 Zn172 2.032 . S
O173 C177 1.278 . S
C174 O175 1.203 . S
C174 O181 1.267 . S
O175 C174 1.203 . S
O176 C169 1.185 . S
O176 Zn172 2.086 . S
C177 O173 1.278 . S
C177 O178 1.211 . S
O178 C177 1.211 . S
C179 O171 1.284 . S
C179 O180 1.273 . S
O180 C179 1.273 . S
O181 Zn172 1.977 . S
O181 C174 1.267 . S
C182 O183 1.160 1_565 S
C182 O189 1.185 . S
O183 C182 1.160 1_545 S
O184 Zn185 1.899 1_545 S
O184 C192 1.284 . S
Zn185 O184 1.899 1_565 S
Zn185 O186 2.032 . S
Zn185 O189 2.086 . S
Zn185 O194 1.977 . S
O186 Zn185 2.032 . S
O186 C190 1.278 . S
C187 O188 1.203 . S
C187 O194 1.267 . S
O188 C187 1.203 . S
O189 C182 1.185 . S
O189 Zn185 2.086 . S
C190 O186 1.278 . S
C190 O191 1.211 . S
O191 C190 1.211 . S
C192 O184 1.284 . S
C192 O193 1.273 . S
O193 C192 1.273 . S
O194 Zn185 1.977 . S
O194 C187 1.267 . S
C195 O196 1.160 . S
C195 O202 1.185 . S
O196 C195 1.160 . S
O197 Zn198 1.899 . S
O197 C205 1.284 . S
Zn198 O197 1.899 . S
Zn198 O199 2.032 . S
Zn198 O202 2.086 . S
Zn198 O207 1.977 . S
O199 Zn198 2.032 . S
O199 C203 1.278 . S
C200 O201 1.203 . S
C200 O207 1.267 . S
O201 C200 1.203 . S
O202 C195 1.185 . S
O202 Zn198 2.086 . S
C203 O199 1.278 . S
C203 O204 1.211 . S
O204 C203 1.211 . S
C205 O197 1.284 . S
C205 O206 1.273 . S
O206 C205 1.273 . S
O207 Zn198 1.977 . S
O207 C200 1.267 . S
C208 O209 1.160 1_565 S
C208 O215 1.185 . S
O209 C208 1.160 1_545 S
O210 Zn211 1.899 1_545 S
O210 C218 1.284 . S
Zn211 O210 1.899 1_565 S
Zn211 O212 2.032 . S
Zn211 O215 2.086 . S
Zn211 O220 1.977 . S
O212 Zn211 2.032 . S
O212 C216 1.278 . S
C213 O214 1.203 . S
C213 O220 1.267 . S
O214 C213 1.203 . S
O215 C208 1.185 . S
O215 Zn211 2.086 . S
C216 O212 1.278 . S
C216 O217 1.211 . S
O217 C216 1.211 . S
C218 O210 1.284 . S
C218 O219 1.273 . S
O219 C218 1.273 . S
O220 Zn211 1.977 . S
O220 C213 1.267 . S
C221 O222 1.160 . S
C221 O228 1.185 1_655 S
O222 C221 1.160 . S
O223 Zn224 1.899 . S
O223 C231 1.284 . S
Zn224 O223 1.899 . S
Zn224 O225 2.032 . S
Zn224 O228 2.086 . S
Zn224 O233 1.977 . S
O225 Zn224 2.032 . S
O225 C229 1.278 . S
C226 O227 1.203 . S
C226 O233 1.267 . S
O227 C226 1.203 . S
O228 C221 1.185 1_455 S
O228 Zn224 2.086 . S
C229 O225 1.278 . S
C229 O230 1.211 . S
O230 C229 1.211 . S
C231 O223 1.284 . S
C231 O232 1.273 . S
O232 C231 1.273 . S
O233 Zn224 1.977 . S
O233 C226 1.267 . S
Zn234 O240 1.920 1_455 S
Zn234 O246 1.898 1_445 S
Zn234 O249 1.905 . S
Zn235 O243 1.905 1_445 S
Zn235 O244 1.898 . S
Zn235 O252 1.920 1_455 S
Zn236 O239 2.080 . S
Zn236 O242 2.114 1_545 S
Zn236 O245 2.120 . S
Zn236 O247 2.120 1_445 S
Zn236 O248 2.114 . S
Zn236 O251 2.080 1_455 S
C237 O242 1.166 . S
C237 O243 1.182 1_455 S
C238 O244 1.167 . S
C238 O245 1.299 . S
O239 Zn236 2.080 . S
O239 C253 1.305 1_455 S
O240 Zn234 1.920 1_655 S
O240 C253 1.234 . S
C241 O246 1.167 . S
C241 O247 1.299 . S
O242 Zn236 2.114 1_565 S
O242 C237 1.166 . S
O243 Zn235 1.905 1_665 S
O243 C237 1.182 1_655 S
O244 Zn235 1.898 . S
O244 C238 1.167 . S
O245 Zn236 2.120 . S
O245 C238 1.299 . S
O246 Zn234 1.898 1_665 S
O246 C241 1.167 . S
O247 Zn236 2.120 1_665 S
O247 C241 1.299 . S
O248 Zn236 2.114 . S
O248 C250 1.166 . S
O249 Zn234 1.905 . S
O249 C250 1.182 . S
C250 O248 1.166 . S
C250 O249 1.182 . S
O251 Zn236 2.080 1_655 S
O251 C254 1.305 . S
O252 Zn235 1.920 1_655 S
O252 C254 1.234 . S
C253 O239 1.305 1_655 S
C253 O240 1.234 . S
C254 O251 1.305 . S
C254 O252 1.234 . S
Zn255 O261 1.920 1_545 S
Zn255 O267 1.898 . S
Zn255 O270 1.905 1_455 S
Zn256 O264 1.905 . S
Zn256 O265 1.898 1_445 S
Zn256 O273 1.920 1_545 S
Zn257 O260 2.080 1_545 S
Zn257 O263 2.114 . S
Zn257 O266 2.120 1_445 S
Zn257 O268 2.120 . S
Zn257 O269 2.114 1_455 S
Zn257 O272 2.080 . S
C258 O263 1.166 . S
C258 O264 1.182 . S
C259 O265 1.167 . S
C259 O266 1.299 . S
O260 Zn257 2.080 1_565 S
O260 C274 1.305 . S
O261 Zn255 1.920 1_565 S
O261 C274 1.234 . S
C262 O267 1.167 . S
C262 O268 1.299 . S
O263 Zn257 2.114 . S
O263 C258 1.166 . S
O264 Zn256 1.905 . S
O264 C258 1.182 . S
O265 Zn256 1.898 1_665 S
O265 C259 1.167 . S
O266 Zn257 2.120 1_665 S
O266 C259 1.299 . S
O267 Zn255 1.898 . S
O267 C262 1.167 . S
O268 Zn257 2.120 . S
O268 C262 1.299 . S
O269 Zn257 2.114 1_655 S
O269 C271 1.166 . S
O270 Zn255 1.905 1_655 S
O270 C271 1.182 . S
C271 O269 1.166 . S
C271 O270 1.182 . S
O272 Zn257 2.080 . S
O272 C275 1.316 . S
O273 Zn256 1.920 1_565 S
O273 C275 1.236 1_565 S
C274 O260 1.305 . S
C274 O261 1.234 . S
C275 O272 1.316 . S
C275 O273 1.236 1_545 S
Zn276 O282 1.920 1_545 S
Zn276 O288 1.898 . S
Zn276 O291 1.904 1_455 S
Zn277 O285 1.905 . S
Zn277 O286 1.898 1_445 S
Zn277 O294 1.920 . S
Zn278 O281 2.080 1_545 S
Zn278 O284 2.114 . S
Zn278 O287 2.120 1_445 S
Zn278 O289 2.120 . S
Zn278 O290 2.114 1_455 S
Zn278 O293 2.080 . S
C279 O284 1.166 . S
C279 O285 1.182 . S
C280 O286 1.167 . S
C280 O287 1.299 . S
O281 Zn278 2.080 1_565 S
O281 C295 1.305 . S
O282 Zn276 1.920 1_565 S
O282 C295 1.234 . S
C283 O288 1.167 . S
C283 O289 1.299 . S
O284 Zn278 2.114 . S
O284 C279 1.166 . S
O285 Zn277 1.905 . S
O285 C279 1.182 . S
O286 Zn277 1.898 1_665 S
O286 C280 1.167 . S
O287 Zn278 2.120 1_665 S
O287 C280 1.299 . S
O288 Zn276 1.898 . S
O288 C283 1.167 . S
O289 Zn278 2.120 . S
O289 C283 1.299 . S
O290 Zn278 2.114 1_655 S
O290 C292 1.166 . S
O291 Zn276 1.904 1_655 S
O291 C292 1.185 . S
C292 O290 1.166 . S
C292 O291 1.185 . S
O293 Zn278 2.080 . S
O293 C296 1.305 . S
O294 Zn277 1.920 . S
O294 C296 1.234 . S
C295 O281 1.305 . S
C295 O282 1.234 . S
C296 O293 1.305 . S
C296 O294 1.234 . S
Zn297 O303 1.920 . S
Zn297 O309 1.898 1_445 S
Zn297 O312 1.905 . S
Zn298 O306 1.905 1_445 S
Zn298 O307 1.898 . S
Zn298 O315 1.920 1_455 S
Zn299 O302 2.080 . S
Zn299 O305 2.114 1_545 S
Zn299 O308 2.120 . S
Zn299 O310 2.120 1_445 S
Zn299 O311 2.114 . S
Zn299 O314 2.080 1_455 S
C300 O305 1.166 . S
C300 O306 1.182 1_455 S
C301 O307 1.167 . S
C301 O308 1.299 . S
O302 Zn299 2.080 . S
O302 C316 1.305 . S
O303 Zn297 1.920 . S
O303 C316 1.234 . S
C304 O309 1.167 . S
C304 O310 1.299 . S
O305 Zn299 2.114 1_565 S
O305 C300 1.166 . S
O306 Zn298 1.905 1_665 S
O306 C300 1.182 1_655 S
O307 Zn298 1.898 . S
O307 C301 1.167 . S
O308 Zn299 2.120 . S
O308 C301 1.299 . S
O309 Zn297 1.898 1_665 S
O309 C304 1.167 . S
O310 Zn299 2.120 1_665 S
O310 C304 1.299 . S
O311 Zn299 2.114 . S
O311 C313 1.166 . S
O312 Zn297 1.905 . S
O312 C313 1.182 . S
C313 O311 1.166 . S
C313 O312 1.182 . S
O314 Zn299 2.080 1_655 S
O314 C317 1.305 . S
O315 Zn298 1.920 1_655 S
O315 C317 1.234 . S
C316 O302 1.305 . S
C316 O303 1.234 . S
C317 O314 1.305 . S
C317 O315 1.234 . S
Zn318 O324 1.920 . S
Zn318 O330 1.898 . S
Zn318 O333 1.905 . S
Zn319 O327 1.905 . S
Zn319 O328 1.898 . S
Zn319 O336 1.920 . S
Zn320 O323 2.080 . S
Zn320 O326 2.114 . S
Zn320 O329 2.120 . S
Zn320 O331 2.120 . S
Zn320 O332 2.114 . S
Zn320 O335 2.080 . S
C321 O326 1.166 . S
C321 O327 1.182 . S
C322 O328 1.167 . S
C322 O329 1.299 . S
O323 Zn320 2.080 . S
O323 C337 1.305 . S
O324 Zn318 1.920 . S
O324 C337 1.234 . S
C325 O330 1.167 . S
C325 O331 1.299 . S
O326 Zn320 2.114 . S
O326 C321 1.166 . S
O327 Zn319 1.905 . S
O327 C321 1.182 . S
O328 Zn319 1.898 . S
O328 C322 1.167 . S
O329 Zn320 2.120 . S
O329 C322 1.299 . S
O330 Zn318 1.898 . S
O330 C325 1.167 . S
O331 Zn320 2.120 . S
O331 C325 1.299 . S
O332 Zn320 2.114 . S
O332 C334 1.166 . S
O333 Zn318 1.905 . S
O333 C334 1.182 . S
C334 O332 1.166 . S
C334 O333 1.182 . S
O335 Zn320 2.080 . S
O335 C338 1.305 . S
O336 Zn319 1.920 . S
O336 C338 1.234 . S
C337 O323 1.305 . S
C337 O324 1.234 . S
C338 O335 1.305 . S
C338 O336 1.234 . S
Zn339 O345 1.920 . S
Zn339 O351 1.898 . S
Zn339 O354 1.905 . S
Zn340 O348 1.905 . S
Zn340 O349 1.898 . S
Zn340 O357 1.920 . S
Zn341 O344 2.080 . S
Zn341 O347 2.114 . S
Zn341 O350 2.120 . S
Zn341 O352 2.120 . S
Zn341 O353 2.114 . S
Zn341 O356 2.080 . S
C342 O347 1.166 . S
C342 O348 1.182 . S
C343 O349 1.167 . S
C343 O350 1.299 . S
O344 Zn341 2.080 . S
O344 C358 1.305 . S
O345 Zn339 1.920 . S
O345 C358 1.234 . S
C346 O351 1.167 . S
C346 O352 1.299 . S
O347 Zn341 2.114 . S
O347 C342 1.166 . S
O348 Zn340 1.905 . S
O348 C342 1.182 . S
O349 Zn340 1.898 . S
O349 C343 1.167 . S
O350 Zn341 2.120 . S
O350 C343 1.299 . S
O351 Zn339 1.898 . S
O351 C346 1.167 . S
O352 Zn341 2.120 . S
O352 C346 1.299 . S
O353 Zn341 2.114 . S
O353 C355 1.166 . S
O354 Zn339 1.905 . S
O354 C355 1.182 . S
C355 O353 1.166 . S
C355 O354 1.182 . S
O356 Zn341 2.080 . S
O356 C359 1.305 . S
O357 Zn340 1.920 . S
O357 C359 1.234 . S
C358 O344 1.305 . S
C358 O345 1.234 . S
C359 O356 1.305 . S
C359 O357 1.234 . S
Zn360 O366 1.920 . S
Zn360 O372 1.898 . S
Zn360 O375 1.905 . S
Zn361 O369 1.905 . S
Zn361 O370 1.898 . S
Zn361 O378 1.920 . S
Zn362 O365 2.080 . S
Zn362 O368 2.114 . S
Zn362 O371 2.120 . S
Zn362 O373 2.120 . S
Zn362 O374 2.114 . S
Zn362 O377 2.080 . S
C363 O368 1.166 . S
C363 O369 1.182 . S
C364 O370 1.167 . S
C364 O371 1.299 . S
O365 Zn362 2.080 . S
O365 C379 1.305 . S
O366 Zn360 1.920 . S
O366 C379 1.234 . S
C367 O372 1.167 . S
C367 O373 1.299 . S
O368 Zn362 2.114 . S
O368 C363 1.166 . S
O369 Zn361 1.905 . S
O369 C363 1.182 . S
O370 Zn361 1.898 . S
O370 C364 1.167 . S
O371 Zn362 2.120 . S
O371 C364 1.299 . S
O372 Zn360 1.898 . S
O372 C367 1.167 . S
O373 Zn362 2.120 . S
O373 C367 1.299 . S
O374 Zn362 2.114 . S
O374 C376 1.166 . S
O375 Zn360 1.905 . S
O375 C376 1.182 . S
C376 O374 1.166 . S
C376 O375 1.182 . S
O377 Zn362 2.080 . S
O377 C380 1.305 . S
O378 Zn361 1.920 . S
O378 C380 1.234 . S
C379 O365 1.305 . S
C379 O366 1.234 . S
C380 O377 1.305 . S
C380 O378 1.234 . S
Zn381 O387 1.920 . S
Zn381 O393 1.898 . S
Zn381 O396 1.905 . S
Zn382 O390 1.905 . S
Zn382 O391 1.898 . S
Zn382 O399 1.920 . S
Zn383 O386 2.080 . S
Zn383 O389 2.114 . S
Zn383 O392 2.120 . S
Zn383 O394 2.120 . S
Zn383 O395 2.114 . S
Zn383 O398 2.080 . S
C384 O389 1.166 . S
C384 O390 1.182 . S
C385 O391 1.167 . S
C385 O392 1.299 . S
O386 Zn383 2.080 . S
O386 C400 1.305 1_556 S
O387 Zn381 1.920 . S
O387 C400 1.234 . S
C388 O393 1.167 . S
C388 O394 1.299 1_554 S
O389 Zn383 2.114 . S
O389 C384 1.166 . S
O390 Zn382 1.905 . S
O390 C384 1.182 . S
O391 Zn382 1.898 . S
O391 C385 1.167 . S
O392 Zn383 2.120 . S
O392 C385 1.299 . S
O393 Zn381 1.898 . S
O393 C388 1.167 . S
O394 Zn383 2.120 . S
O394 C388 1.299 1_556 S
O395 Zn383 2.114 . S
O395 C397 1.166 1_556 S
O396 Zn381 1.905 . S
O396 C397 1.182 . S
C397 O395 1.166 1_554 S
C397 O396 1.182 . S
O398 Zn383 2.080 . S
O398 C401 1.305 . S
O399 Zn382 1.920 . S
O399 C401 1.234 . S
C400 O386 1.305 1_554 S
C400 O387 1.234 . S
C401 O398 1.305 . S
C401 O399 1.234 . S
Zn402 O408 1.920 . S
Zn402 O414 1.898 . S
Zn402 O417 1.905 . S
Zn403 O411 1.905 . S
Zn403 O412 1.898 . S
Zn403 O420 1.920 . S
Zn404 O407 2.080 . S
Zn404 O410 2.114 . S
Zn404 O413 2.120 . S
Zn404 O415 2.120 . S
Zn404 O416 2.114 . S
Zn404 O419 2.080 . S
C405 O410 1.166 . S
C405 O411 1.182 . S
C406 O412 1.167 . S
C406 O413 1.299 . S
O407 Zn404 2.080 . S
O407 C421 1.305 . S
O408 Zn402 1.920 . S
O408 C421 1.234 . S
C409 O414 1.167 . S
C409 O415 1.299 . S
O410 Zn404 2.114 . S
O410 C405 1.166 . S
O411 Zn403 1.905 . S
O411 C405 1.182 . S
O412 Zn403 1.898 . S
O412 C406 1.167 . S
O413 Zn404 2.120 . S
O413 C406 1.299 . S
O414 Zn402 1.898 . S
O414 C409 1.167 . S
O415 Zn404 2.120 . S
O415 C409 1.299 . S
O416 Zn404 2.114 . S
O416 C418 1.166 . S
O417 Zn402 1.905 . S
O417 C418 1.182 . S
C418 O416 1.166 . S
C418 O417 1.182 . S
O419 Zn404 2.080 . S
O419 C422 1.305 . S
O420 Zn403 1.920 . S
O420 C422 1.234 . S
C421 O407 1.305 . S
C421 O408 1.234 . S
C422 O419 1.305 . S
C422 O420 1.234 . S
Zn423 O429 1.920 . S
Zn423 O435 1.898 . S
Zn423 O438 1.905 . S
Zn424 O432 1.905 . S
Zn424 O433 1.898 . S
Zn424 O441 1.920 . S
Zn425 O428 2.080 . S
Zn425 O431 2.114 . S
Zn425 O434 2.120 . S
Zn425 O436 2.120 . S
Zn425 O437 2.114 . S
Zn425 O440 2.080 . S
C426 O431 1.166 1_556 S
C426 O432 1.182 . S
C427 O433 1.167 . S
C427 O434 1.299 1_556 S
O428 Zn425 2.080 . S
O428 C442 1.305 . S
O429 Zn423 1.920 . S
O429 C442 1.234 . S
C430 O435 1.167 . S
C430 O436 1.299 . S
O431 Zn425 2.114 . S
O431 C426 1.166 1_554 S
O432 Zn424 1.905 . S
O432 C426 1.182 . S
O433 Zn424 1.898 . S
O433 C427 1.167 . S
O434 Zn425 2.120 . S
O434 C427 1.299 1_554 S
O435 Zn423 1.898 . S
O435 C430 1.167 . S
O436 Zn425 2.120 . S
O436 C430 1.299 . S
O437 Zn425 2.114 . S
O437 C439 1.166 . S
O438 Zn423 1.905 . S
O438 C439 1.182 . S
C439 O437 1.166 . S
C439 O438 1.182 . S
O440 Zn425 2.080 . S
O440 C443 1.305 1_554 S
O441 Zn424 1.920 . S
O441 C443 1.234 . S
C442 O428 1.305 . S
C442 O429 1.234 . S
C443 O440 1.305 1_556 S
C443 O441 1.234 . S
Zn444 O450 1.920 . S
Zn444 O456 1.898 . S
Zn444 O459 1.905 . S
Zn445 O453 1.905 . S
Zn445 O454 1.898 . S
Zn445 O462 1.920 . S
Zn446 O449 2.080 . S
Zn446 O452 2.114 . S
Zn446 O455 2.120 . S
Zn446 O457 2.120 . S
Zn446 O458 2.114 . S
Zn446 O461 2.080 . S
C447 O452 1.166 . S
C447 O453 1.182 . S
C448 O454 1.167 . S
C448 O455 1.299 . S
O449 Zn446 2.080 . S
O449 C463 1.305 . S
O450 Zn444 1.920 . S
O450 C463 1.234 . S
C451 O456 1.167 . S
C451 O457 1.299 . S
O452 Zn446 2.114 . S
O452 C447 1.166 . S
O453 Zn445 1.905 . S
O453 C447 1.182 . S
O454 Zn445 1.898 . S
O454 C448 1.167 . S
O455 Zn446 2.120 . S
O455 C448 1.299 . S
O456 Zn444 1.898 . S
O456 C451 1.167 . S
O457 Zn446 2.120 . S
O457 C451 1.299 . S
O458 Zn446 2.114 . S
O458 C460 1.166 . S
O459 Zn444 1.905 . S
O459 C460 1.182 . S
C460 O458 1.166 . S
C460 O459 1.182 . S
O461 Zn446 2.080 . S
O461 C464 1.305 . S
O462 Zn445 1.920 . S
O462 C464 1.234 . S
C463 O449 1.305 . S
C463 O450 1.234 . S
C464 O461 1.305 . S
C464 O462 1.234 . S
Zn465 O471 1.920 . S
Zn465 O477 1.898 . S
Zn465 O480 1.905 . S
Zn466 O474 1.905 . S
Zn466 O475 1.898 . S
Zn466 O483 1.920 . S
Zn467 O470 2.080 . S
Zn467 O473 2.114 . S
Zn467 O476 2.120 . S
Zn467 O478 2.120 . S
Zn467 O479 2.114 . S
Zn467 O482 2.080 . S
C468 O473 1.166 . S
C468 O474 1.182 . S
C469 O475 1.167 . S
C469 O476 1.299 . S
O470 Zn467 2.080 . S
O470 C484 1.305 . S
O471 Zn465 1.920 . S
O471 C484 1.234 . S
C472 O477 1.167 . S
C472 O478 1.299 . S
O473 Zn467 2.114 . S
O473 C468 1.166 . S
O474 Zn466 1.905 . S
O474 C468 1.182 . S
O475 Zn466 1.898 . S
O475 C469 1.167 . S
O476 Zn467 2.120 . S
O476 C469 1.299 . S
O477 Zn465 1.898 . S
O477 C472 1.167 . S
O478 Zn467 2.120 . S
O478 C472 1.299 . S
O479 Zn467 2.114 . S
O479 C481 1.166 . S
O480 Zn465 1.905 . S
O480 C481 1.182 . S
C481 O479 1.166 . S
C481 O480 1.182 . S
O482 Zn467 2.080 . S
O482 C485 1.305 . S
O483 Zn466 1.920 . S
O483 C485 1.234 . S
C484 O470 1.305 . S
C484 O471 1.234 . S
C485 O482 1.305 . S
C485 O483 1.234 . S
H486 C492 0.930 . S
H487 C496 0.930 . S
H488 C501 0.929 . S
H489 C499 0.929 . S
H490 C494 0.929 . S
H491 C500 0.929 . S
C492 H486 0.930 . S
C492 C493 1.367 . S
C492 C500 1.378 . S
C493 C492 1.367 . S
C493 C501 1.433 . S
C494 H490 0.929 . S
C494 C496 1.378 . S
C494 C498 1.350 . S
C495 C498 1.463 . S
C495 C500 1.350 . S
C495 N503 1.427 . S
C496 H487 0.930 . S
C496 C494 1.378 . S
C496 C497 1.367 . S
C497 C496 1.367 . S
C497 C499 1.433 . S
C498 C494 1.350 . S
C498 C495 1.463 . S
C498 N502 1.427 . S
C499 H489 0.929 . S
C499 C497 1.433 . S
C499 N502 1.384 . S
C500 H491 0.929 . S
C500 C492 1.378 . S
C500 C495 1.350 . S
C501 H488 0.929 . S
C501 C493 1.433 . S
C501 N503 1.384 . S
N502 C498 1.427 . S
N502 C499 1.384 . S
N503 C495 1.427 . S
N503 C501 1.384 . S
H504 C510 0.930 . S
H505 C514 0.930 . S
H506 C519 0.929 . S
H507 C517 0.929 . S
H508 C512 0.929 . S
H509 C518 0.929 . S
C510 H504 0.930 . S
C510 C511 1.367 . S
C510 C518 1.378 . S
C511 C510 1.367 . S
C511 C519 1.433 1_545 S
C512 H508 0.929 . S
C512 C514 1.378 . S
C512 C516 1.350 1_565 S
C513 C516 1.463 . S
C513 C518 1.350 . S
C513 N521 1.427 1_545 S
C514 H505 0.930 . S
C514 C512 1.378 . S
C514 C515 1.367 1_565 S
C515 C514 1.367 1_545 S
C515 C517 1.433 . S
C516 C512 1.350 1_545 S
C516 C513 1.463 . S
C516 N520 1.427 . S
C517 H507 0.929 . S
C517 C515 1.433 . S
C517 N520 1.384 . S
C518 H509 0.929 . S
C518 C510 1.378 . S
C518 C513 1.350 . S
C519 H506 0.929 . S
C519 C511 1.433 1_565 S
C519 N521 1.384 . S
N520 C516 1.427 . S
N520 C517 1.384 . S
N521 C513 1.427 1_565 S
N521 C519 1.384 . S
H522 C528 0.930 . S
H523 C532 0.930 . S
H524 C537 0.929 . S
H525 C535 0.929 . S
H526 C530 0.929 . S
H527 C536 0.929 . S
C528 H522 0.930 . S
C528 C529 1.367 1_655 S
C528 C536 1.378 . S
C529 C528 1.367 1_455 S
C529 C537 1.433 . S
C530 H526 0.929 . S
C530 C532 1.378 . S
C530 C534 1.350 . S
C531 C534 1.463 . S
C531 C536 1.350 1_455 S
C531 N539 1.427 . S
C532 H523 0.930 . S
C532 C530 1.378 . S
C532 C533 1.366 . S
C533 C532 1.366 . S
C533 C535 1.434 1_455 S
C534 C530 1.350 . S
C534 C531 1.463 . S
C534 N538 1.427 1_455 S
C535 H525 0.929 . S
C535 C533 1.434 1_655 S
C535 N538 1.384 . S
C536 H527 0.929 . S
C536 C528 1.378 . S
C536 C531 1.350 1_655 S
C537 H524 0.929 . S
C537 C529 1.433 . S
C537 N539 1.384 . S
N538 C534 1.427 1_655 S
N538 C535 1.384 . S
N539 C531 1.427 . S
N539 C537 1.384 . S
H540 C546 0.930 . S
H541 C550 0.930 . S
H542 C555 0.929 . S
H543 C553 0.929 . S
H544 C548 0.929 . S
H545 C554 0.929 . S
C546 H540 0.930 . S
C546 C547 1.367 . S
C546 C554 1.378 . S
C547 C546 1.367 . S
C547 C555 1.433 . S
C548 H544 0.929 . S
C548 C550 1.378 . S
C548 C552 1.350 . S
C549 C552 1.463 . S
C549 C554 1.350 . S
C549 N557 1.427 . S
C550 H541 0.930 . S
C550 C548 1.378 . S
C550 C551 1.367 . S
C551 C550 1.367 . S
C551 C553 1.433 . S
C552 C548 1.350 . S
C552 C549 1.463 . S
C552 N556 1.427 . S
C553 H543 0.929 . S
C553 C551 1.433 . S
C553 N556 1.384 . S
C554 H545 0.929 . S
C554 C546 1.378 . S
C554 C549 1.350 . S
C555 H542 0.929 . S
C555 C547 1.433 . S
C555 N557 1.384 . S
N556 C552 1.427 . S
N556 C553 1.384 . S
N557 C549 1.427 . S
N557 C555 1.384 . S
H558 C564 0.930 1_565 S
H559 C568 0.930 . S
H560 C573 0.929 . S
H561 C571 0.929 . S
H562 C566 0.929 . S
H563 C572 0.944 . S
C564 H558 0.930 1_545 S
C564 C565 1.367 . S
C564 C572 1.369 1_545 S
C565 C564 1.367 . S
C565 C573 1.433 . S
C566 H562 0.929 . S
C566 C568 1.378 . S
C566 C570 1.350 . S
C567 C570 1.463 . S
C567 C572 1.343 1_545 S
C567 N575 1.427 . S
C568 H559 0.930 . S
C568 C566 1.378 . S
C568 C569 1.367 . S
C569 C568 1.367 . S
C569 C571 1.433 1_545 S
C570 C566 1.350 . S
C570 C567 1.463 . S
C570 N574 1.427 1_545 S
C571 H561 0.929 . S
C571 C569 1.433 1_565 S
C571 N574 1.384 . S
C572 H563 0.944 . S
C572 C564 1.369 1_565 S
C572 C567 1.343 1_565 S
C573 H560 0.929 . S
C573 C565 1.433 . S
C573 N575 1.384 . S
N574 C570 1.427 1_565 S
N574 C571 1.384 . S
N575 C567 1.427 . S
N575 C573 1.384 . S
H576 C582 0.930 . S
H577 C586 0.930 1_655 S
H578 C591 0.929 . S
H579 C589 0.929 . S
H580 C584 0.929 . S
H581 C590 0.929 . S
C582 H576 0.930 . S
C582 C583 1.368 . S
C582 C590 1.378 . S
C583 C582 1.368 . S
C583 C591 1.429 1_455 S
C584 H580 0.929 . S
C584 C586 1.378 1_655 S
C584 C588 1.350 1_655 S
C585 C588 1.463 . S
C585 C590 1.350 . S
C585 N593 1.427 1_455 S
C586 H577 0.930 1_455 S
C586 C584 1.378 1_455 S
C586 C587 1.367 . S
C587 C586 1.367 . S
C587 C589 1.433 . S
C588 C584 1.350 1_455 S
C588 C585 1.463 . S
C588 N592 1.427 . S
C589 H579 0.929 . S
C589 C587 1.433 . S
C589 N592 1.384 . S
C590 H581 0.929 . S
C590 C582 1.378 . S
C590 C585 1.350 . S
C591 H578 0.929 . S
C591 C583 1.429 1_655 S
C591 N593 1.384 . S
N592 C588 1.427 . S
N592 C589 1.384 . S
N593 C585 1.427 1_655 S
N593 C591 1.384 . S
H594 C600 0.930 . S
H595 C604 0.930 . S
H596 C609 0.929 . S
H597 C607 0.929 . S
H598 C602 0.929 . S
H599 C608 0.929 . S
C600 H594 0.930 . S
C600 C601 1.367 . S
C600 C608 1.378 . S
C601 C600 1.367 . S
C601 C609 1.433 . S
C602 H598 0.929 . S
C602 C604 1.378 . S
C602 C606 1.350 . S
C603 C606 1.463 . S
C603 C608 1.350 . S
C603 N611 1.427 . S
C604 H595 0.930 . S
C604 C602 1.378 . S
C604 C605 1.367 . S
C605 C604 1.367 . S
C605 C607 1.433 . S
C606 C602 1.350 . S
C606 C603 1.463 . S
C606 N610 1.427 . S
C607 H597 0.929 . S
C607 C605 1.433 . S
C607 N610 1.384 . S
C608 H599 0.929 . S
C608 C600 1.378 . S
C608 C603 1.350 . S
C609 H596 0.929 . S
C609 C601 1.433 . S
C609 N611 1.384 . S
N610 C606 1.427 . S
N610 C607 1.384 . S
N611 C603 1.427 . S
N611 C609 1.384 . S
H612 C618 0.930 . S
H613 C622 0.930 . S
H614 C627 0.929 1_565 S
H615 C625 0.929 . S
H616 C620 0.929 . S
H617 C626 0.929 . S
C618 H612 0.930 . S
C618 C619 1.367 . S
C618 C626 1.378 . S
C619 C618 1.367 . S
C619 C627 1.433 . S
C620 H616 0.929 . S
C620 C622 1.378 . S
C620 C624 1.350 1_565 S
C621 C624 1.463 . S
C621 C626 1.350 . S
C621 N629 1.413 1_545 S
C622 H613 0.930 . S
C622 C620 1.378 . S
C622 C623 1.367 1_565 S
C623 C622 1.367 1_545 S
C623 C625 1.433 . S
C624 C620 1.350 1_545 S
C624 C621 1.463 . S
C624 N628 1.427 . S
C625 H615 0.929 . S
C625 C623 1.433 . S
C625 N628 1.384 . S
C626 H617 0.929 . S
C626 C618 1.378 . S
C626 C621 1.350 . S
C627 H614 0.929 1_545 S
C627 C619 1.433 . S
C627 N629 1.391 1_545 S
N628 C624 1.427 . S
N628 C625 1.384 . S
N629 C621 1.413 1_565 S
N629 C627 1.391 1_565 S
H630 C636 0.930 . S
H631 C640 0.930 . S
H632 C645 0.929 . S
H633 C643 0.929 . S
H634 C638 0.929 . S
H635 C644 0.929 . S
C636 H630 0.930 . S
C636 C637 1.367 1_655 S
C636 C644 1.378 . S
C637 C636 1.367 1_455 S
C637 C645 1.433 . S
C638 H634 0.929 . S
C638 C640 1.378 . S
C638 C642 1.350 . S
C639 C642 1.463 . S
C639 C644 1.350 1_455 S
C639 N647 1.427 . S
C640 H631 0.930 . S
C640 C638 1.378 . S
C640 C641 1.367 . S
C641 C640 1.367 . S
C641 C643 1.433 . S
C642 C638 1.350 . S
C642 C639 1.463 . S
C642 N646 1.427 . S
C643 H633 0.929 . S
C643 C641 1.433 . S
C643 N646 1.384 . S
C644 H635 0.929 . S
C644 C636 1.378 . S
C644 C639 1.350 1_655 S
C645 H632 0.929 . S
C645 C637 1.433 . S
C645 N647 1.384 . S
N646 C642 1.427 . S
N646 C643 1.384 . S
N647 C639 1.427 . S
N647 C645 1.384 . S
H648 C654 0.930 . S
H649 C658 0.930 . S
H650 C663 0.929 . S
H651 C661 0.929 . S
H652 C656 0.929 . S
H653 C662 0.929 . S
C654 H648 0.930 . S
C654 C655 1.367 . S
C654 C662 1.378 . S
C655 C654 1.367 . S
C655 C663 1.433 . S
C656 H652 0.929 . S
C656 C658 1.378 . S
C656 C660 1.350 . S
C657 C660 1.463 . S
C657 C662 1.350 . S
C657 N665 1.427 . S
C658 H649 0.930 . S
C658 C656 1.378 . S
C658 C659 1.367 . S
C659 C658 1.367 . S
C659 C661 1.433 . S
C660 C656 1.350 . S
C660 C657 1.463 . S
C660 N664 1.427 . S
C661 H651 0.929 . S
C661 C659 1.433 . S
C661 N664 1.384 . S
C662 H653 0.929 . S
C662 C654 1.378 . S
C662 C657 1.350 . S
C663 H650 0.929 . S
C663 C655 1.433 . S
C663 N665 1.384 . S
N664 C660 1.427 . S
N664 C661 1.384 . S
N665 C657 1.427 . S
N665 C663 1.384 . S
H666 C672 0.930 . S
H667 C676 0.930 . S
H668 C681 0.929 . S
H669 C679 0.929 . S
H670 C674 0.929 . S
H671 C680 0.929 . S
C672 H666 0.930 . S
C672 C673 1.367 1_565 S
C672 C680 1.378 . S
C673 C672 1.367 1_545 S
C673 C681 1.433 . S
C674 H670 0.929 . S
C674 C676 1.378 . S
C674 C678 1.350 . S
C675 C678 1.463 . S
C675 C680 1.350 1_545 S
C675 N683 1.427 . S
C676 H667 0.930 . S
C676 C674 1.378 . S
C676 C677 1.367 . S
C677 C676 1.367 . S
C677 C679 1.433 1_545 S
C678 C674 1.350 . S
C678 C675 1.463 . S
C678 N682 1.427 1_545 S
C679 H669 0.929 . S
C679 C677 1.433 1_565 S
C679 N682 1.384 . S
C680 H671 0.929 . S
C680 C672 1.378 . S
C680 C675 1.350 1_565 S
C681 H668 0.929 . S
C681 C673 1.433 . S
C681 N683 1.384 . S
N682 C678 1.427 1_565 S
N682 C679 1.384 . S
N683 C675 1.427 . S
N683 C681 1.384 . S
H684 C690 0.932 1_655 S
H685 C694 0.930 . S
H686 C699 0.929 . S
H687 C697 0.929 . S
H688 C692 0.929 . S
H689 C698 0.929 . S
C690 H684 0.932 1_455 S
C690 C691 1.366 . S
C690 C698 1.377 1_455 S
C691 C690 1.366 . S
C691 C699 1.433 . S
C692 H688 0.929 . S
C692 C694 1.378 . S
C692 C696 1.350 . S
C693 C696 1.463 . S
C693 C698 1.350 1_455 S
C693 N701 1.427 . S
C694 H685 0.930 . S
C694 C692 1.378 . S
C694 C695 1.367 . S
C695 C694 1.367 . S
C695 C697 1.433 1_455 S
C696 C692 1.350 . S
C696 C693 1.463 . S
C696 N700 1.427 1_455 S
C697 H687 0.929 . S
C697 C695 1.433 1_655 S
C697 N700 1.384 . S
C698 H689 0.929 . S
C698 C690 1.377 1_655 S
C698 C693 1.350 1_655 S
C699 H686 0.929 . S
C699 C691 1.433 . S
C699 N701 1.384 . S
N700 C696 1.427 1_655 S
N700 C697 1.384 . S
N701 C693 1.427 . S
N701 C699 1.384 . S
H702 C708 0.930 . S
H703 C712 0.930 . S
H704 C717 0.929 . S
H705 C715 0.929 . S
H706 C710 0.929 . S
H707 C716 0.929 . S
C708 H702 0.930 . S
C708 C709 1.367 . S
C708 C716 1.378 . S
C709 C708 1.367 . S
C709 C717 1.433 . S
C710 H706 0.929 . S
C710 C712 1.378 . S
C710 C714 1.350 . S
C711 C714 1.463 . S
C711 C716 1.350 . S
C711 N719 1.427 . S
C712 H703 0.930 . S
C712 C710 1.378 . S
C712 C713 1.367 . S
C713 C712 1.367 . S
C713 C715 1.433 . S
C714 C710 1.350 . S
C714 C711 1.463 . S
C714 N718 1.427 . S
C715 H705 0.929 . S
C715 C713 1.433 . S
C715 N718 1.384 . S
C716 H707 0.929 . S
C716 C708 1.378 . S
C716 C711 1.350 . S
C717 H704 0.929 . S
C717 C709 1.433 . S
C717 N719 1.384 . S
N718 C714 1.427 . S
N718 C715 1.384 . S
N719 C711 1.427 . S
N719 C717 1.384 . S
H720 C726 0.930 . S
H721 C730 0.930 . S
H722 C735 0.929 . S
H723 C733 0.929 . S
H724 C728 0.929 . S
H725 C734 0.929 . S
C726 H720 0.930 . S
C726 C727 1.367 . S
C726 C734 1.378 . S
C727 C726 1.367 . S
C727 C735 1.433 . S
C728 H724 0.929 . S
C728 C730 1.378 . S
C728 C732 1.350 . S
C729 C732 1.463 . S
C729 C734 1.350 . S
C729 N737 1.427 . S
C730 H721 0.930 . S
C730 C728 1.378 . S
C730 C731 1.367 . S
C731 C730 1.367 . S
C731 C733 1.433 . S
C732 C728 1.350 . S
C732 C729 1.463 . S
C732 N736 1.427 . S
C733 H723 0.929 . S
C733 C731 1.433 . S
C733 N736 1.384 . S
C734 H725 0.929 . S
C734 C726 1.378 . S
C734 C729 1.350 . S
C735 H722 0.929 . S
C735 C727 1.433 . S
C735 N737 1.384 . S
N736 C732 1.427 . S
N736 C733 1.384 . S
N737 C729 1.427 . S
N737 C735 1.384 . S
H738 C744 0.930 . S
H739 C748 0.930 . S
H740 C753 0.929 . S
H741 C751 0.929 . S
H742 C746 0.929 . S
H743 C752 0.929 . S
C744 H738 0.930 . S
C744 C745 1.367 . S
C744 C752 1.378 . S
C745 C744 1.367 . S
C745 C753 1.433 . S
C746 H742 0.929 . S
C746 C748 1.378 . S
C746 C750 1.350 . S
C747 C750 1.463 . S
C747 C752 1.350 . S
C747 N755 1.427 . S
C748 H739 0.930 . S
C748 C746 1.378 . S
C748 C749 1.367 . S
C749 C748 1.367 . S
C749 C751 1.433 . S
C750 C746 1.350 . S
C750 C747 1.463 . S
C750 N754 1.427 . S
C751 H741 0.929 . S
C751 C749 1.433 . S
C751 N754 1.384 . S
C752 H743 0.929 . S
C752 C744 1.378 . S
C752 C747 1.350 . S
C753 H740 0.929 . S
C753 C745 1.433 . S
C753 N755 1.384 . S
N754 C750 1.427 . S
N754 C751 1.384 . S
N755 C747 1.427 . S
N755 C753 1.384 . S
H756 C762 0.930 . S
H757 C766 0.930 . S
H758 C771 0.929 . S
H759 C769 0.929 . S
H760 C764 0.929 . S
H761 C770 0.929 . S
C762 H756 0.930 . S
C762 C763 1.367 . S
C762 C770 1.378 . S
C763 C762 1.367 . S
C763 C771 1.433 . S
C764 H760 0.929 . S
C764 C766 1.378 . S
C764 C768 1.350 . S
C765 C768 1.463 . S
C765 C770 1.350 . S
C765 N773 1.427 . S
C766 H757 0.930 . S
C766 C764 1.378 . S
C766 C767 1.367 . S
C767 C766 1.367 . S
C767 C769 1.433 . S
C768 C764 1.350 . S
C768 C765 1.463 . S
C768 N772 1.427 . S
C769 H759 0.929 . S
C769 C767 1.433 . S
C769 N772 1.384 . S
C770 H761 0.929 . S
C770 C762 1.378 . S
C770 C765 1.350 . S
C771 H758 0.929 . S
C771 C763 1.433 . S
C771 N773 1.384 . S
N772 C768 1.427 . S
N772 C769 1.384 . S
N773 C765 1.427 . S
N773 C771 1.384 . S
H774 C780 0.930 . S
H775 C784 0.930 . S
H776 C789 0.929 . S
H777 C787 0.929 . S
H778 C782 0.929 . S
H779 C788 0.929 . S
C780 H774 0.930 . S
C780 C781 1.367 . S
C780 C788 1.378 . S
C781 C780 1.367 . S
C781 C789 1.433 . S
C782 H778 0.929 . S
C782 C784 1.378 . S
C782 C786 1.350 . S
C783 C786 1.463 . S
C783 C788 1.350 . S
C783 N791 1.427 . S
C784 H775 0.930 . S
C784 C782 1.378 . S
C784 C785 1.367 . S
C785 C784 1.367 . S
C785 C787 1.433 . S
C786 C782 1.350 . S
C786 C783 1.463 . S
C786 N790 1.427 . S
C787 H777 0.929 . S
C787 C785 1.433 . S
C787 N790 1.384 . S
C788 H779 0.929 . S
C788 C780 1.378 . S
C788 C783 1.350 . S
C789 H776 0.929 . S
C789 C781 1.433 . S
C789 N791 1.384 . S
N790 C786 1.427 . S
N790 C787 1.384 . S
N791 C783 1.427 . S
N791 C789 1.384 . S
H792 C798 0.930 . S
H793 C802 0.930 . S
H794 C807 0.929 . S
H795 C805 0.929 . S
H796 C800 0.929 . S
H797 C806 0.929 . S
C798 H792 0.930 . S
C798 C799 1.367 . S
C798 C806 1.378 . S
C799 C798 1.367 . S
C799 C807 1.433 . S
C800 H796 0.929 . S
C800 C802 1.378 . S
C800 C804 1.350 . S
C801 C804 1.463 . S
C801 C806 1.350 . S
C801 N809 1.427 . S
C802 H793 0.930 . S
C802 C800 1.378 . S
C802 C803 1.367 . S
C803 C802 1.367 . S
C803 C805 1.433 . S
C804 C800 1.350 . S
C804 C801 1.463 . S
C804 N808 1.427 . S
C805 H795 0.929 . S
C805 C803 1.433 . S
C805 N808 1.384 . S
C806 H797 0.929 . S
C806 C798 1.378 . S
C806 C801 1.350 . S
C807 H794 0.929 . S
C807 C799 1.433 . S
C807 N809 1.384 . S
N808 C804 1.427 . S
N808 C805 1.384 . S
N809 C801 1.427 . S
N809 C807 1.384 . S
H810 C816 0.930 . S
H811 C820 0.930 . S
H812 C825 0.929 . S
H813 C823 0.929 . S
H814 C818 0.929 . S
H815 C824 0.929 . S
C816 H810 0.930 . S
C816 C817 1.367 . S
C816 C824 1.378 . S
C817 C816 1.367 . S
C817 C825 1.433 . S
C818 H814 0.929 . S
C818 C820 1.378 . S
C818 C822 1.350 . S
C819 C822 1.463 . S
C819 C824 1.350 . S
C819 N827 1.427 . S
C820 H811 0.930 . S
C820 C818 1.378 . S
C820 C821 1.367 . S
C821 C820 1.367 . S
C821 C823 1.433 . S
C822 C818 1.350 . S
C822 C819 1.463 . S
C822 N826 1.427 . S
C823 H813 0.929 . S
C823 C821 1.433 . S
C823 N826 1.384 . S
C824 H815 0.929 . S
C824 C816 1.378 . S
C824 C819 1.350 . S
C825 H812 0.929 . S
C825 C817 1.433 . S
C825 N827 1.384 . S
N826 C822 1.427 . S
N826 C823 1.384 . S
N827 C819 1.427 . S
N827 C825 1.384 . S
H828 C834 0.930 . S
H829 C838 0.930 . S
H830 C843 0.929 . S
H831 C841 0.929 . S
H832 C836 0.929 . S
H833 C842 0.929 . S
C834 H828 0.930 . S
C834 C835 1.367 . S
C834 C842 1.378 . S
C835 C834 1.367 . S
C835 C843 1.433 . S
C836 H832 0.929 . S
C836 C838 1.378 . S
C836 C840 1.350 . S
C837 C840 1.463 . S
C837 C842 1.350 . S
C837 N845 1.427 . S
C838 H829 0.930 . S
C838 C836 1.378 . S
C838 C839 1.367 . S
C839 C838 1.367 . S
C839 C841 1.433 . S
C840 C836 1.350 . S
C840 C837 1.463 . S
C840 N844 1.427 . S
C841 H831 0.929 . S
C841 C839 1.433 . S
C841 N844 1.384 . S
C842 H833 0.929 . S
C842 C834 1.378 . S
C842 C837 1.350 . S
C843 H830 0.929 . S
C843 C835 1.433 . S
C843 N845 1.384 . S
N844 C840 1.427 . S
N844 C841 1.384 . S
N845 C837 1.427 . S
N845 C843 1.384 . S
H846 C852 0.930 . S
H847 C856 0.930 . S
H848 C861 0.929 . S
H849 C859 0.929 . S
H850 C854 0.929 . S
H851 C860 0.929 . S
C852 H846 0.930 . S
C852 C853 1.367 . S
C852 C860 1.378 . S
C853 C852 1.367 . S
C853 C861 1.433 . S
C854 H850 0.929 . S
C854 C856 1.378 . S
C854 C858 1.350 . S
C855 C858 1.463 . S
C855 C860 1.350 . S
C855 N863 1.427 . S
C856 H847 0.930 . S
C856 C854 1.378 . S
C856 C857 1.367 . S
C857 C856 1.367 . S
C857 C859 1.433 . S
C858 C854 1.350 . S
C858 C855 1.463 . S
C858 N862 1.427 . S
C859 H849 0.929 . S
C859 C857 1.433 . S
C859 N862 1.384 . S
C860 H851 0.929 . S
C860 C852 1.378 . S
C860 C855 1.350 . S
C861 H848 0.929 . S
C861 C853 1.433 . S
C861 N863 1.384 . S
N862 C858 1.427 . S
N862 C859 1.384 . S
N863 C855 1.427 . S
N863 C861 1.384 . S
H864 C870 0.930 . S
H865 C874 0.930 . S
H866 C879 0.929 . S
H867 C877 0.997 . S
H868 C872 0.929 . S
H869 C878 0.929 . S
C870 H864 0.930 . S
C870 C871 1.367 . S
C870 C878 1.378 . S
C871 C870 1.367 . S
C871 C879 1.433 . S
C872 H868 0.929 . S
C872 C874 1.378 . S
C872 C876 1.350 . S
C873 C876 1.463 . S
C873 C878 1.350 . S
C873 N881 1.427 . S
C874 H865 0.930 . S
C874 C872 1.378 . S
C874 C875 1.367 . S
C875 C874 1.367 . S
C875 C877 1.413 1_554 S
C876 C872 1.350 . S
C876 C873 1.463 . S
C876 N880 1.427 . S
C877 H867 0.997 . S
C877 C875 1.413 1_556 S
C877 N880 1.336 1_556 S
C878 H869 0.929 . S
C878 C870 1.378 . S
C878 C873 1.350 . S
C879 H866 0.929 . S
C879 C871 1.433 . S
C879 N881 1.384 . S
N880 C876 1.427 . S
N880 C877 1.336 1_554 S
N881 C873 1.427 . S
N881 C879 1.384 . S
H882 C888 0.930 . S
H883 C892 0.930 . S
H884 C897 0.929 . S
H885 C895 0.929 . S
H886 C890 0.929 . S
H887 C896 0.929 . S
C888 H882 0.930 . S
C888 C889 1.367 . S
C888 C896 1.378 . S
C889 C888 1.367 . S
C889 C897 1.433 . S
C890 H886 0.929 . S
C890 C892 1.378 . S
C890 C894 1.350 . S
C891 C894 1.463 . S
C891 C896 1.350 . S
C891 N899 1.427 . S
C892 H883 0.930 . S
C892 C890 1.378 . S
C892 C893 1.367 . S
C893 C892 1.367 . S
C893 C895 1.433 . S
C894 C890 1.350 . S
C894 C891 1.463 . S
C894 N898 1.427 . S
C895 H885 0.929 . S
C895 C893 1.433 . S
C895 N898 1.384 . S
C896 H887 0.929 . S
C896 C888 1.378 . S
C896 C891 1.350 . S
C897 H884 0.929 . S
C897 C889 1.433 . S
C897 N899 1.384 . S
N898 C894 1.427 . S
N898 C895 1.384 . S
N899 C891 1.427 . S
N899 C897 1.384 . S
H900 C906 0.930 . S
H901 C910 0.930 . S
H902 C915 0.929 . S
H903 C913 0.929 . S
H904 C908 0.929 . S
H905 C914 0.929 . S
C906 H900 0.930 . S
C906 C907 1.367 . S
C906 C914 1.378 . S
C907 C906 1.367 . S
C907 C915 1.433 . S
C908 H904 0.929 . S
C908 C910 1.378 . S
C908 C912 1.350 . S
C909 C912 1.463 . S
C909 C914 1.350 . S
C909 N917 1.427 . S
C910 H901 0.930 . S
C910 C908 1.378 . S
C910 C911 1.367 . S
C911 C910 1.367 . S
C911 C913 1.433 . S
C912 C908 1.350 . S
C912 C909 1.463 . S
C912 N916 1.427 . S
C913 H903 0.929 . S
C913 C911 1.433 . S
C913 N916 1.384 . S
C914 H905 0.929 . S
C914 C906 1.378 . S
C914 C909 1.350 . S
C915 H902 0.929 . S
C915 C907 1.433 . S
C915 N917 1.384 . S
N916 C912 1.427 . S
N916 C913 1.384 . S
N917 C909 1.427 . S
N917 C915 1.384 . S
H918 C924 0.930 . S
H919 C928 0.930 . S
H920 C933 0.929 . S
H921 C931 0.929 . S
H922 C926 0.929 . S
H923 C932 0.929 . S
C924 H918 0.930 . S
C924 C925 1.367 . S
C924 C932 1.378 . S
C925 C924 1.367 . S
C925 C933 1.433 . S
C926 H922 0.929 . S
C926 C928 1.378 . S
C926 C930 1.350 . S
C927 C930 1.463 . S
C927 C932 1.350 . S
C927 N935 1.427 . S
C928 H919 0.930 . S
C928 C926 1.378 . S
C928 C929 1.367 . S
C929 C928 1.367 . S
C929 C931 1.433 . S
C930 C926 1.350 . S
C930 C927 1.463 . S
C930 N934 1.427 . S
C931 H921 0.929 . S
C931 C929 1.433 . S
C931 N934 1.384 . S
C932 H923 0.929 . S
C932 C924 1.378 . S
C932 C927 1.350 . S
C933 H920 0.929 . S
C933 C925 1.433 . S
C933 N935 1.384 . S
N934 C930 1.427 . S
N934 C931 1.384 . S
N935 C927 1.427 . S
N935 C933 1.384 . S
H936 C942 0.930 . S
H937 C946 0.930 . S
H938 C951 0.929 . S
H939 C949 0.929 . S
H940 C944 0.929 . S
H941 C950 0.929 . S
C942 H936 0.930 . S
C942 C943 1.367 . S
C942 C950 1.378 . S
C943 C942 1.367 . S
C943 C951 1.433 . S
C944 H940 0.929 . S
C944 C946 1.378 . S
C944 C948 1.350 . S
C945 C948 1.463 . S
C945 C950 1.350 . S
C945 N953 1.427 . S
C946 H937 0.930 . S
C946 C944 1.378 . S
C946 C947 1.367 . S
C947 C946 1.367 . S
C947 C949 1.433 . S
C948 C944 1.350 . S
C948 C945 1.463 . S
C948 N952 1.427 . S
C949 H939 0.929 . S
C949 C947 1.433 . S
C949 N952 1.384 . S
C950 H941 0.929 . S
C950 C942 1.378 . S
C950 C945 1.350 . S
C951 H938 0.929 . S
C951 C943 1.433 . S
C951 N953 1.384 . S
N952 C948 1.427 . S
N952 C949 1.384 . S
N953 C945 1.427 . S
N953 C951 1.384 . S
H954 C960 0.930 . S
H955 C964 0.930 . S
H956 C969 0.929 . S
H957 C967 0.929 . S
H958 C962 0.929 . S
H959 C968 0.929 . S
C960 H954 0.930 . S
C960 C961 1.367 . S
C960 C968 1.378 . S
C961 C960 1.367 . S
C961 C969 1.433 . S
C962 H958 0.929 . S
C962 C964 1.378 . S
C962 C966 1.350 . S
C963 C966 1.463 . S
C963 C968 1.350 . S
C963 N971 1.427 . S
C964 H955 0.930 . S
C964 C962 1.378 . S
C964 C965 1.367 . S
C965 C964 1.367 . S
C965 C967 1.433 . S
C966 C962 1.350 . S
C966 C963 1.463 . S
C966 N970 1.427 . S
C967 H957 0.929 . S
C967 C965 1.433 . S
C967 N970 1.384 . S
C968 H959 0.929 . S
C968 C960 1.378 . S
C968 C963 1.350 . S
C969 H956 0.929 . S
C969 C961 1.433 . S
C969 N971 1.384 . S
N970 C966 1.427 . S
N970 C967 1.384 . S
N971 C963 1.427 . S
N971 C969 1.384 . S
H972 C978 0.930 . S
H973 C982 0.930 . S
H974 C987 0.929 . S
H975 C985 0.929 . S
H976 C980 0.929 . S
H977 C986 0.929 . S
C978 H972 0.930 . S
C978 C979 1.367 . S
C978 C986 1.378 . S
C979 C978 1.367 . S
C979 C987 1.433 . S
C980 H976 0.929 . S
C980 C982 1.378 . S
C980 C984 1.350 . S
C981 C984 1.463 . S
C981 C986 1.350 . S
C981 N989 1.427 . S
C982 H973 0.930 . S
C982 C980 1.378 . S
C982 C983 1.367 . S
C983 C982 1.367 . S
C983 C985 1.433 . S
C984 C980 1.350 . S
C984 C981 1.463 . S
C984 N988 1.427 . S
C985 H975 0.929 . S
C985 C983 1.433 . S
C985 N988 1.384 . S
C986 H977 0.929 . S
C986 C978 1.378 . S
C986 C981 1.350 . S
C987 H974 0.929 . S
C987 C979 1.433 . S
C987 N989 1.384 . S
N988 C984 1.427 . S
N988 C985 1.384 . S
N989 C981 1.427 . S
N989 C987 1.384 . S
H990 C996 0.930 . S
H991 C1000 0.930 . S
H992 C1005 0.929 . S
H993 C1003 0.929 . S
H994 C998 0.929 . S
H995 C1004 0.929 . S
C996 H990 0.930 . S
C996 C997 1.367 . S
C996 C1004 1.378 . S
C997 C996 1.367 . S
C997 C1005 1.433 . S
C998 H994 0.929 . S
C998 C1000 1.378 . S
C998 C1002 1.350 . S
C999 C1002 1.463 . S
C999 C1004 1.350 . S
C999 N1007 1.427 . S
C1000 H991 0.930 . S
C1000 C998 1.378 . S
C1000 C1001 1.367 . S
C1001 C1000 1.367 . S
C1001 C1003 1.433 . S
C1002 C998 1.350 . S
C1002 C999 1.463 . S
C1002 N1006 1.427 . S
C1003 H993 0.929 . S
C1003 C1001 1.433 . S
C1003 N1006 1.384 . S
C1004 H995 0.929 . S
C1004 C996 1.378 . S
C1004 C999 1.350 . S
C1005 H992 0.929 . S
C1005 C997 1.433 . S
C1005 N1007 1.384 . S
N1006 C1002 1.427 . S
N1006 C1003 1.384 . S
N1007 C999 1.427 . S
N1007 C1005 1.384 . S
H1008 C1014 0.930 . S
H1009 C1018 0.930 . S
H1010 C1023 0.929 . S
H1011 C1021 0.929 1_554 S
H1012 C1016 0.929 . S
H1013 C1022 0.929 . S
C1014 H1008 0.930 . S
C1014 C1015 1.367 . S
C1014 C1022 1.378 . S
C1015 C1014 1.367 . S
C1015 C1023 1.433 . S
C1016 H1012 0.929 . S
C1016 C1018 1.378 . S
C1016 C1020 1.350 . S
C1017 C1020 1.463 . S
C1017 C1022 1.350 . S
C1017 N1025 1.427 . S
C1018 H1009 0.930 . S
C1018 C1016 1.378 . S
C1018 C1019 1.367 . S
C1019 C1018 1.367 . S
C1019 C1021 1.433 . S
C1020 C1016 1.350 . S
C1020 C1017 1.463 . S
C1020 N1024 1.427 . S
C1021 H1011 0.929 1_556 S
C1021 C1019 1.433 . S
C1021 N1024 1.384 . S
C1022 H1013 0.929 . S
C1022 C1014 1.378 . S
C1022 C1017 1.350 . S
C1023 H1010 0.929 . S
C1023 C1015 1.433 . S
C1023 N1025 1.384 . S
N1024 C1020 1.427 . S
N1024 C1021 1.384 . S
N1025 C1017 1.427 . S
N1025 C1023 1.384 . S
H1026 C1032 0.930 . S
H1027 C1036 0.930 . S
H1028 C1041 0.929 . S
H1029 C1039 0.929 . S
H1030 C1034 0.929 . S
H1031 C1040 0.929 . S
C1032 H1026 0.930 . S
C1032 C1033 1.367 . S
C1032 C1040 1.378 . S
C1033 C1032 1.367 . S
C1033 C1041 1.433 . S
C1034 H1030 0.929 . S
C1034 C1036 1.378 . S
C1034 C1038 1.350 . S
C1035 C1038 1.463 . S
C1035 C1040 1.350 . S
C1035 N1043 1.427 . S
C1036 H1027 0.930 . S
C1036 C1034 1.378 . S
C1036 C1037 1.367 . S
C1037 C1036 1.367 . S
C1037 C1039 1.433 . S
C1038 C1034 1.350 . S
C1038 C1035 1.463 . S
C1038 N1042 1.427 . S
C1039 H1029 0.929 . S
C1039 C1037 1.433 . S
C1039 N1042 1.384 . S
C1040 H1031 0.929 . S
C1040 C1032 1.378 . S
C1040 C1035 1.350 . S
C1041 H1028 0.929 . S
C1041 C1033 1.433 . S
C1041 N1043 1.384 . S
N1042 C1038 1.427 . S
N1042 C1039 1.384 . S
N1043 C1035 1.427 . S
N1043 C1041 1.384 . S
H1044 C1050 0.930 . S
H1045 C1054 0.930 . S
H1046 C1059 0.929 . S
H1047 C1057 0.929 . S
H1048 C1052 0.929 . S
H1049 C1058 0.929 . S
C1050 H1044 0.930 . S
C1050 C1051 1.367 . S
C1050 C1058 1.378 . S
C1051 C1050 1.367 . S
C1051 C1059 1.433 . S
C1052 H1048 0.929 . S
C1052 C1054 1.378 . S
C1052 C1056 1.350 . S
C1053 C1056 1.463 . S
C1053 C1058 1.350 . S
C1053 N1061 1.427 . S
C1054 H1045 0.930 . S
C1054 C1052 1.378 . S
C1054 C1055 1.367 . S
C1055 C1054 1.367 . S
C1055 C1057 1.433 . S
C1056 C1052 1.350 . S
C1056 C1053 1.463 . S
C1056 N1060 1.427 . S
C1057 H1047 0.929 . S
C1057 C1055 1.433 . S
C1057 N1060 1.384 . S
C1058 H1049 0.929 . S
C1058 C1050 1.378 . S
C1058 C1053 1.350 . S
C1059 H1046 0.929 . S
C1059 C1051 1.433 . S
C1059 N1061 1.384 . S
N1060 C1056 1.427 . S
N1060 C1057 1.384 . S
N1061 C1053 1.427 . S
N1061 C1059 1.384 . S
H1062 C1068 0.930 . S
H1063 C1072 0.930 . S
H1064 C1077 0.929 . S
H1065 C1075 0.929 . S
H1066 C1070 0.929 . S
H1067 C1076 0.929 . S
C1068 H1062 0.930 . S
C1068 C1069 1.367 . S
C1068 C1076 1.378 . S
C1069 C1068 1.367 . S
C1069 C1077 1.433 . S
C1070 H1066 0.929 . S
C1070 C1072 1.378 . S
C1070 C1074 1.350 . S
C1071 C1074 1.463 . S
C1071 C1076 1.350 . S
C1071 N1079 1.427 . S
C1072 H1063 0.930 . S
C1072 C1070 1.378 . S
C1072 C1073 1.367 . S
C1073 C1072 1.367 . S
C1073 C1075 1.433 . S
C1074 C1070 1.350 . S
C1074 C1071 1.463 . S
C1074 N1078 1.427 . S
C1075 H1065 0.929 . S
C1075 C1073 1.433 . S
C1075 N1078 1.384 . S
C1076 H1067 0.929 . S
C1076 C1068 1.378 . S
C1076 C1071 1.350 . S
C1077 H1064 0.929 . S
C1077 C1069 1.433 . S
C1077 N1079 1.384 . S
N1078 C1074 1.427 . S
N1078 C1075 1.384 . S
N1079 C1071 1.427 . S
N1079 C1077 1.384 . S
H1080 C1086 0.930 . S
H1081 C1090 0.930 . S
H1082 C1095 0.929 . S
H1083 C1093 0.929 . S
H1084 C1088 0.929 . S
H1085 C1094 0.929 . S
C1086 H1080 0.930 . S
C1086 C1087 1.367 . S
C1086 C1094 1.378 . S
C1087 C1086 1.367 . S
C1087 C1095 1.433 . S
C1088 H1084 0.929 . S
C1088 C1090 1.378 . S
C1088 C1092 1.350 . S
C1089 C1092 1.463 . S
C1089 C1094 1.350 . S
C1089 N1097 1.427 . S
C1090 H1081 0.930 . S
C1090 C1088 1.378 . S
C1090 C1091 1.367 . S
C1091 C1090 1.367 . S
C1091 C1093 1.433 . S
C1092 C1088 1.350 . S
C1092 C1089 1.463 . S
C1092 N1096 1.427 . S
C1093 H1083 0.929 . S
C1093 C1091 1.433 . S
C1093 N1096 1.384 . S
C1094 H1085 0.929 . S
C1094 C1086 1.378 . S
C1094 C1089 1.350 . S
C1095 H1082 0.929 . S
C1095 C1087 1.433 . S
C1095 N1097 1.384 . S
N1096 C1092 1.427 . S
N1096 C1093 1.384 . S
N1097 C1089 1.427 . S
N1097 C1095 1.384 . S
H1098 C1104 0.930 . S
H1099 C1108 0.930 . S
H1100 C1113 0.929 . S
H1101 C1111 0.929 . S
H1102 C1106 0.929 . S
H1103 C1112 0.929 . S
C1104 H1098 0.930 . S
C1104 C1105 1.367 . S
C1104 C1112 1.378 . S
C1105 C1104 1.367 . S
C1105 C1113 1.433 . S
C1106 H1102 0.929 . S
C1106 C1108 1.378 . S
C1106 C1110 1.350 . S
C1107 C1110 1.463 . S
C1107 C1112 1.350 . S
C1107 N1115 1.427 . S
C1108 H1099 0.930 . S
C1108 C1106 1.378 . S
C1108 C1109 1.367 . S
C1109 C1108 1.367 . S
C1109 C1111 1.433 . S
C1110 C1106 1.350 . S
C1110 C1107 1.463 . S
C1110 N1114 1.427 . S
C1111 H1101 0.929 . S
C1111 C1109 1.433 . S
C1111 N1114 1.384 . S
C1112 H1103 0.929 . S
C1112 C1104 1.378 . S
C1112 C1107 1.350 . S
C1113 H1100 0.929 . S
C1113 C1105 1.433 . S
C1113 N1115 1.384 . S
N1114 C1110 1.427 . S
N1114 C1111 1.384 . S
N1115 C1107 1.427 . S
N1115 C1113 1.384 . S
H1116 C1122 0.930 . S
H1117 C1126 0.930 . S
H1118 C1131 0.929 . S
H1119 C1129 0.929 . S
H1120 C1124 0.929 . S
H1121 C1130 0.929 . S
C1122 H1116 0.930 . S
C1122 C1123 1.367 . S
C1122 C1130 1.378 . S
C1123 C1122 1.367 . S
C1123 C1131 1.433 . S
C1124 H1120 0.929 . S
C1124 C1126 1.378 . S
C1124 C1128 1.350 . S
C1125 C1128 1.463 . S
C1125 C1130 1.350 . S
C1125 N1133 1.427 . S
C1126 H1117 0.930 . S
C1126 C1124 1.378 . S
C1126 C1127 1.367 . S
C1127 C1126 1.367 . S
C1127 C1129 1.433 . S
C1128 C1124 1.350 . S
C1128 C1125 1.463 . S
C1128 N1132 1.427 . S
C1129 H1119 0.929 . S
C1129 C1127 1.433 . S
C1129 N1132 1.384 . S
C1130 H1121 0.929 . S
C1130 C1122 1.378 . S
C1130 C1125 1.350 . S
C1131 H1118 0.929 . S
C1131 C1123 1.433 . S
C1131 N1133 1.384 . S
N1132 C1128 1.427 . S
N1132 C1129 1.384 . S
N1133 C1125 1.427 . S
N1133 C1131 1.384 . S
H1134 C1140 0.930 . S
H1135 C1144 0.930 1_565 S
H1136 C1149 0.929 1_565 S
H1137 C1147 0.929 . S
H1138 C1142 0.929 1_565 S
H1139 C1148 0.929 . S
C1140 H1134 0.930 . S
C1140 C1141 1.367 . S
C1140 C1148 1.378 . S
C1141 C1140 1.367 . S
C1141 C1149 1.433 . S
C1142 H1138 0.929 1_545 S
C1142 C1144 1.378 . S
C1142 C1146 1.350 . S
C1143 C1146 1.463 . S
C1143 C1148 1.350 . S
C1143 N1151 1.427 . S
C1144 H1135 0.930 1_545 S
C1144 C1142 1.378 . S
C1144 C1145 1.367 . S
C1145 C1144 1.367 . S
C1145 C1147 1.433 . S
C1146 C1142 1.350 . S
C1146 C1143 1.463 . S
C1146 N1150 1.427 . S
C1147 H1137 0.929 . S
C1147 C1145 1.433 . S
C1147 N1150 1.384 . S
C1148 H1139 0.929 . S
C1148 C1140 1.378 . S
C1148 C1143 1.350 . S
C1149 H1136 0.929 1_545 S
C1149 C1141 1.433 . S
C1149 N1151 1.384 . S
N1150 C1146 1.427 . S
N1150 C1147 1.384 . S
N1151 C1143 1.427 . S
N1151 C1149 1.384 . S
H1152 C1158 0.930 . S
H1153 C1162 0.930 1_455 S
H1154 C1167 0.929 . S
H1155 C1165 0.929 . S
H1156 C1160 0.924 . S
H1157 C1166 0.929 . S
C1158 H1152 0.930 . S
C1158 C1159 1.367 . S
C1158 C1166 1.378 . S
C1159 C1158 1.367 . S
C1159 C1167 1.433 . S
C1160 H1156 0.924 . S
C1160 C1162 1.378 . S
C1160 C1164 1.350 . S
C1161 C1164 1.463 . S
C1161 C1166 1.350 . S
C1161 N1169 1.427 . S
C1162 H1153 0.930 1_655 S
C1162 C1160 1.378 . S
C1162 C1163 1.367 . S
C1163 C1162 1.367 . S
C1163 C1165 1.433 . S
C1164 C1160 1.350 . S
C1164 C1161 1.463 . S
C1164 N1168 1.427 . S
C1165 H1155 0.929 . S
C1165 C1163 1.433 . S
C1165 N1168 1.384 . S
C1166 H1157 0.929 . S
C1166 C1158 1.378 . S
C1166 C1161 1.350 . S
C1167 H1154 0.929 . S
C1167 C1159 1.433 . S
C1167 N1169 1.384 . S
N1168 C1164 1.427 . S
N1168 C1165 1.384 . S
N1169 C1161 1.427 . S
N1169 C1167 1.384 . S
H1170 C1176 0.930 . S
H1171 C1180 0.930 . S
H1172 C1185 0.929 . S
H1173 C1183 0.929 . S
H1174 C1178 0.929 . S
H1175 C1184 0.929 . S
C1176 H1170 0.930 . S
C1176 C1177 1.367 . S
C1176 C1184 1.378 . S
C1177 C1176 1.367 . S
C1177 C1185 1.433 . S
C1178 H1174 0.929 . S
C1178 C1180 1.378 . S
C1178 C1182 1.350 . S
C1179 C1182 1.463 . S
C1179 C1184 1.350 . S
C1179 N1187 1.427 . S
C1180 H1171 0.930 . S
C1180 C1178 1.378 . S
C1180 C1181 1.367 . S
C1181 C1180 1.367 . S
C1181 C1183 1.433 . S
C1182 C1178 1.350 . S
C1182 C1179 1.463 . S
C1182 N1186 1.427 . S
C1183 H1173 0.929 . S
C1183 C1181 1.433 . S
C1183 N1186 1.384 . S
C1184 H1175 0.929 . S
C1184 C1176 1.378 . S
C1184 C1179 1.350 . S
C1185 H1172 0.929 . S
C1185 C1177 1.433 . S
C1185 N1187 1.384 . S
N1186 C1182 1.427 . S
N1186 C1183 1.384 . S
N1187 C1179 1.427 . S
N1187 C1185 1.384 . S
H1188 C1194 0.930 . S
H1189 C1198 0.930 . S
H1190 C1203 0.929 . S
H1191 C1201 0.929 . S
H1192 C1196 0.929 . S
H1193 C1202 0.929 . S
C1194 H1188 0.930 . S
C1194 C1195 1.367 . S
C1194 C1202 1.378 . S
C1195 C1194 1.367 . S
C1195 C1203 1.433 . S
C1196 H1192 0.929 . S
C1196 C1198 1.378 . S
C1196 C1200 1.350 . S
C1197 C1200 1.463 . S
C1197 C1202 1.350 . S
C1197 N1205 1.427 . S
C1198 H1189 0.930 . S
C1198 C1196 1.378 . S
C1198 C1199 1.367 . S
C1199 C1198 1.367 . S
C1199 C1201 1.433 . S
C1200 C1196 1.350 . S
C1200 C1197 1.463 . S
C1200 N1204 1.427 . S
C1201 H1191 0.929 . S
C1201 C1199 1.433 . S
C1201 N1204 1.384 . S
C1202 H1193 0.929 . S
C1202 C1194 1.378 . S
C1202 C1197 1.350 . S
C1203 H1190 0.929 . S
C1203 C1195 1.433 . S
C1203 N1205 1.384 . S
N1204 C1200 1.427 . S
N1204 C1201 1.384 . S
N1205 C1197 1.427 . S
N1205 C1203 1.384 . S
H1206 C1212 0.930 . S
H1207 C1216 0.930 . S
H1208 C1221 0.929 . S
H1209 C1219 0.929 . S
H1210 C1214 0.929 . S
H1211 C1220 0.929 . S
C1212 H1206 0.930 . S
C1212 C1213 1.367 . S
C1212 C1220 1.378 . S
C1213 C1212 1.367 . S
C1213 C1221 1.433 . S
C1214 H1210 0.929 . S
C1214 C1216 1.378 . S
C1214 C1218 1.350 . S
C1215 C1218 1.463 . S
C1215 C1220 1.350 . S
C1215 N1223 1.427 . S
C1216 H1207 0.930 . S
C1216 C1214 1.378 . S
C1216 C1217 1.367 . S
C1217 C1216 1.367 . S
C1217 C1219 1.433 . S
C1218 C1214 1.350 . S
C1218 C1215 1.463 . S
C1218 N1222 1.427 . S
C1219 H1209 0.929 . S
C1219 C1217 1.433 . S
C1219 N1222 1.384 . S
C1220 H1211 0.929 . S
C1220 C1212 1.378 . S
C1220 C1215 1.350 . S
C1221 H1208 0.929 . S
C1221 C1213 1.433 . S
C1221 N1223 1.384 . S
N1222 C1218 1.427 . S
N1222 C1219 1.384 . S
N1223 C1215 1.427 . S
N1223 C1221 1.384 . S
H1224 C1230 0.930 . S
H1225 C1234 0.930 . S
H1226 C1239 0.929 . S
H1227 C1237 0.929 . S
H1228 C1232 0.929 . S
H1229 C1238 0.929 1_545 S
C1230 H1224 0.930 . S
C1230 C1231 1.367 . S
C1230 C1238 1.378 . S
C1231 C1230 1.367 . S
C1231 C1239 1.433 . S
C1232 H1228 0.929 . S
C1232 C1234 1.378 . S
C1232 C1236 1.350 . S
C1233 C1236 1.463 . S
C1233 C1238 1.350 . S
C1233 N1241 1.427 . S
C1234 H1225 0.930 . S
C1234 C1232 1.378 . S
C1234 C1235 1.367 . S
C1235 C1234 1.367 . S
C1235 C1237 1.433 1_565 S
C1236 C1232 1.350 . S
C1236 C1233 1.463 . S
C1236 N1240 1.433 . S
C1237 H1227 0.929 . S
C1237 C1235 1.433 1_545 S
C1237 N1240 1.375 1_545 S
C1238 H1229 0.929 1_565 S
C1238 C1230 1.378 . S
C1238 C1233 1.350 . S
C1239 H1226 0.929 . S
C1239 C1231 1.433 . S
C1239 N1241 1.384 . S
N1240 C1236 1.433 . S
N1240 C1237 1.375 1_565 S
N1241 C1233 1.427 . S
N1241 C1239 1.384 . S
H1242 C1248 0.930 . S
H1243 C1252 0.930 . S
H1244 C1257 0.929 . S
H1245 C1255 0.929 . S
H1246 C1250 0.929 . S
H1247 C1256 0.929 . S
C1248 H1242 0.930 . S
C1248 C1249 1.367 . S
C1248 C1256 1.378 . S
C1249 C1248 1.367 . S
C1249 C1257 1.433 1_565 S
C1250 H1246 0.929 . S
C1250 C1252 1.378 . S
C1250 C1254 1.350 1_545 S
C1251 C1254 1.463 . S
C1251 C1256 1.350 . S
C1251 N1259 1.427 1_565 S
C1252 H1243 0.930 . S
C1252 C1250 1.378 . S
C1252 C1253 1.367 1_545 S
C1253 C1252 1.367 1_565 S
C1253 C1255 1.433 . S
C1254 C1250 1.350 1_565 S
C1254 C1251 1.463 . S
C1254 N1258 1.427 . S
C1255 H1245 0.929 . S
C1255 C1253 1.433 . S
C1255 N1258 1.384 . S
C1256 H1247 0.929 . S
C1256 C1248 1.378 . S
C1256 C1251 1.350 . S
C1257 H1244 0.929 . S
C1257 C1249 1.433 1_545 S
C1257 N1259 1.384 . S
N1258 C1254 1.427 . S
N1258 C1255 1.384 . S
N1259 C1251 1.427 1_545 S
N1259 C1257 1.384 . S
H1260 C1266 0.930 . S
H1261 C1270 0.930 . S
H1262 C1275 0.929 . S
H1263 C1273 0.929 . S
H1264 C1268 0.929 . S
H1265 C1274 0.929 . S
C1266 H1260 0.930 . S
C1266 C1267 1.367 . S
C1266 C1274 1.378 . S
C1267 C1266 1.367 . S
C1267 C1275 1.433 . S
C1268 H1264 0.929 . S
C1268 C1270 1.378 . S
C1268 C1272 1.350 . S
C1269 C1272 1.463 . S
C1269 C1274 1.350 . S
C1269 N1277 1.427 . S
C1270 H1261 0.930 . S
C1270 C1268 1.378 . S
C1270 C1271 1.367 . S
C1271 C1270 1.367 . S
C1271 C1273 1.433 . S
C1272 C1268 1.350 . S
C1272 C1269 1.463 . S
C1272 N1276 1.427 . S
C1273 H1263 0.929 . S
C1273 C1271 1.433 . S
C1273 N1276 1.384 . S
C1274 H1265 0.929 . S
C1274 C1266 1.378 . S
C1274 C1269 1.350 . S
C1275 H1262 0.929 . S
C1275 C1267 1.433 . S
C1275 N1277 1.384 . S
N1276 C1272 1.427 . S
N1276 C1273 1.384 . S
N1277 C1269 1.427 . S
N1277 C1275 1.384 . S
H1278 C1284 0.930 . S
H1279 C1288 0.930 . S
H1280 C1293 0.929 . S
H1281 C1291 0.929 . S
H1282 C1286 0.929 . S
H1283 C1292 0.929 . S
C1284 H1278 0.930 . S
C1284 C1285 1.367 . S
C1284 C1292 1.378 . S
C1285 C1284 1.367 . S
C1285 C1293 1.433 . S
C1286 H1282 0.929 . S
C1286 C1288 1.378 . S
C1286 C1290 1.350 . S
C1287 C1290 1.463 . S
C1287 C1292 1.350 . S
C1287 N1295 1.427 . S
C1288 H1279 0.930 . S
C1288 C1286 1.378 . S
C1288 C1289 1.367 . S
C1289 C1288 1.367 . S
C1289 C1291 1.433 . S
C1290 C1286 1.350 . S
C1290 C1287 1.463 . S
C1290 N1294 1.427 . S
C1291 H1281 0.929 . S
C1291 C1289 1.433 . S
C1291 N1294 1.384 . S
C1292 H1283 0.929 . S
C1292 C1284 1.378 . S
C1292 C1287 1.350 . S
C1293 H1280 0.929 . S
C1293 C1285 1.433 . S
C1293 N1295 1.384 . S
N1294 C1290 1.427 . S
N1294 C1291 1.384 . S
N1295 C1287 1.427 . S
N1295 C1293 1.384 . S
H1296 C1302 0.930 . S
H1297 C1306 0.930 . S
H1298 C1311 0.929 . S
H1299 C1309 0.929 . S
H1300 C1304 0.929 . S
H1301 C1310 0.929 . S
C1302 H1296 0.930 . S
C1302 C1303 1.367 . S
C1302 C1310 1.378 . S
C1303 C1302 1.367 . S
C1303 C1311 1.433 . S
C1304 H1300 0.929 . S
C1304 C1306 1.378 . S
C1304 C1308 1.350 . S
C1305 C1308 1.463 . S
C1305 C1310 1.350 . S
C1305 N1313 1.427 . S
C1306 H1297 0.930 . S
C1306 C1304 1.378 . S
C1306 C1307 1.367 . S
C1307 C1306 1.367 . S
C1307 C1309 1.433 . S
C1308 C1304 1.350 . S
C1308 C1305 1.463 . S
C1308 N1312 1.427 . S
C1309 H1299 0.929 . S
C1309 C1307 1.433 . S
C1309 N1312 1.384 . S
C1310 H1301 0.929 . S
C1310 C1302 1.378 . S
C1310 C1305 1.350 . S
C1311 H1298 0.929 . S
C1311 C1303 1.433 . S
C1311 N1313 1.384 . S
N1312 C1308 1.427 . S
N1312 C1309 1.384 . S
N1313 C1305 1.427 . S
N1313 C1311 1.384 . S
H1314 C1320 0.930 . S
H1315 C1324 0.930 . S
H1316 C1329 0.929 . S
H1317 C1327 0.929 . S
H1318 C1322 0.929 . S
H1319 C1328 0.929 . S
C1320 H1314 0.930 . S
C1320 C1321 1.367 . S
C1320 C1328 1.378 . S
C1321 C1320 1.367 . S
C1321 C1329 1.433 . S
C1322 H1318 0.929 . S
C1322 C1324 1.378 . S
C1322 C1326 1.350 . S
C1323 C1326 1.463 . S
C1323 C1328 1.350 . S
C1323 N1331 1.427 . S
C1324 H1315 0.930 . S
C1324 C1322 1.378 . S
C1324 C1325 1.367 . S
C1325 C1324 1.367 . S
C1325 C1327 1.433 . S
C1326 C1322 1.350 . S
C1326 C1323 1.463 . S
C1326 N1330 1.427 . S
C1327 H1317 0.929 . S
C1327 C1325 1.433 . S
C1327 N1330 1.384 . S
C1328 H1319 0.929 . S
C1328 C1320 1.378 . S
C1328 C1323 1.350 . S
C1329 H1316 0.929 . S
C1329 C1321 1.433 . S
C1329 N1331 1.384 . S
N1330 C1326 1.427 . S
N1330 C1327 1.384 . S
N1331 C1323 1.427 . S
N1331 C1329 1.384 . S
H1332 C1338 0.930 1_565 S
H1333 C1342 0.930 . S
H1334 C1347 0.929 . S
H1335 C1345 0.929 1_565 S
H1336 C1340 0.929 . S
H1337 C1346 0.929 1_565 S
C1338 H1332 0.930 1_545 S
C1338 C1339 1.367 . S
C1338 C1346 1.378 . S
C1339 C1338 1.367 . S
C1339 C1347 1.433 . S
C1340 H1336 0.929 . S
C1340 C1342 1.378 . S
C1340 C1344 1.350 . S
C1341 C1344 1.463 . S
C1341 C1346 1.350 . S
C1341 N1349 1.427 . S
C1342 H1333 0.930 . S
C1342 C1340 1.378 . S
C1342 C1343 1.367 . S
C1343 C1342 1.367 . S
C1343 C1345 1.433 . S
C1344 C1340 1.350 . S
C1344 C1341 1.463 . S
C1344 N1348 1.427 . S
C1345 H1335 0.929 1_545 S
C1345 C1343 1.433 . S
C1345 N1348 1.384 . S
C1346 H1337 0.929 1_545 S
C1346 C1338 1.378 . S
C1346 C1341 1.350 . S
C1347 H1334 0.929 . S
C1347 C1339 1.433 . S
C1347 N1349 1.384 . S
N1348 C1344 1.427 . S
N1348 C1345 1.384 . S
N1349 C1341 1.427 . S
N1349 C1347 1.384 . S
H1350 C1356 0.930 . S
H1351 C1360 0.930 . S
H1352 C1365 0.929 . S
H1353 C1363 0.929 . S
H1354 C1358 0.929 . S
H1355 C1364 0.929 . S
C1356 H1350 0.930 . S
C1356 C1357 1.367 . S
C1356 C1364 1.378 . S
C1357 C1356 1.367 . S
C1357 C1365 1.433 . S
C1358 H1354 0.929 . S
C1358 C1360 1.378 . S
C1358 C1362 1.350 . S
C1359 C1362 1.463 . S
C1359 C1364 1.350 . S
C1359 N1367 1.427 . S
C1360 H1351 0.930 . S
C1360 C1358 1.378 . S
C1360 C1361 1.367 . S
C1361 C1360 1.367 . S
C1361 C1363 1.433 . S
C1362 C1358 1.350 . S
C1362 C1359 1.463 . S
C1362 N1366 1.427 . S
C1363 H1353 0.929 . S
C1363 C1361 1.433 . S
C1363 N1366 1.384 . S
C1364 H1355 0.929 . S
C1364 C1356 1.378 . S
C1364 C1359 1.350 . S
C1365 H1352 0.929 . S
C1365 C1357 1.433 . S
C1365 N1367 1.384 . S
N1366 C1362 1.427 . S
N1366 C1363 1.384 . S
N1367 C1359 1.427 . S
N1367 C1365 1.384 . S
H1368 C1374 0.930 . S
H1369 C1378 0.930 . S
H1370 C1383 0.929 . S
H1371 C1381 0.929 . S
H1372 C1376 0.929 . S
H1373 C1382 0.929 . S
C1374 H1368 0.930 . S
C1374 C1375 1.367 . S
C1374 C1382 1.378 . S
C1375 C1374 1.367 . S
C1375 C1383 1.433 . S
C1376 H1372 0.929 . S
C1376 C1378 1.378 . S
C1376 C1380 1.350 . S
C1377 C1380 1.463 . S
C1377 C1382 1.350 . S
C1377 N1385 1.427 . S
C1378 H1369 0.930 . S
C1378 C1376 1.378 . S
C1378 C1379 1.367 . S
C1379 C1378 1.367 . S
C1379 C1381 1.433 . S
C1380 C1376 1.350 . S
C1380 C1377 1.463 . S
C1380 N1384 1.427 . S
C1381 H1371 0.929 . S
C1381 C1379 1.433 . S
C1381 N1384 1.384 . S
C1382 H1373 0.929 . S
C1382 C1374 1.378 . S
C1382 C1377 1.350 . S
C1383 H1370 0.929 . S
C1383 C1375 1.433 . S
C1383 N1385 1.384 . S
N1384 C1380 1.427 . S
N1384 C1381 1.384 . S
N1385 C1377 1.427 . S
N1385 C1383 1.384 . S
H1386 C1392 0.930 . S
H1387 C1396 0.930 . S
H1388 C1401 0.929 . S
H1389 C1399 0.929 . S
H1390 C1394 0.929 . S
H1391 C1400 0.929 . S
C1392 H1386 0.930 . S
C1392 C1393 1.367 . S
C1392 C1400 1.378 . S
C1393 C1392 1.367 . S
C1393 C1401 1.433 . S
C1394 H1390 0.929 . S
C1394 C1396 1.378 . S
C1394 C1398 1.350 . S
C1395 C1398 1.463 . S
C1395 C1400 1.350 . S
C1395 N1403 1.427 . S
C1396 H1387 0.930 . S
C1396 C1394 1.378 . S
C1396 C1397 1.367 . S
C1397 C1396 1.367 . S
C1397 C1399 1.433 . S
C1398 C1394 1.350 . S
C1398 C1395 1.463 . S
C1398 N1402 1.427 . S
C1399 H1389 0.929 . S
C1399 C1397 1.433 . S
C1399 N1402 1.384 . S
C1400 H1391 0.929 . S
C1400 C1392 1.378 . S
C1400 C1395 1.350 . S
C1401 H1388 0.929 . S
C1401 C1393 1.433 . S
C1401 N1403 1.384 . S
N1402 C1398 1.427 . S
N1402 C1399 1.384 . S
N1403 C1395 1.427 . S
N1403 C1401 1.384 . S
H1404 C1410 0.930 . S
H1405 C1414 0.930 . S
H1406 C1419 0.929 . S
H1407 C1417 0.929 . S
H1408 C1412 0.929 . S
H1409 C1418 0.929 . S
C1410 H1404 0.930 . S
C1410 C1411 1.367 . S
C1410 C1418 1.378 . S
C1411 C1410 1.367 . S
C1411 C1419 1.433 . S
C1412 H1408 0.929 . S
C1412 C1414 1.378 . S
C1412 C1416 1.350 . S
C1413 C1416 1.463 . S
C1413 C1418 1.350 . S
C1413 N1421 1.427 . S
C1414 H1405 0.930 . S
C1414 C1412 1.378 . S
C1414 C1415 1.367 . S
C1415 C1414 1.367 . S
C1415 C1417 1.433 . S
C1416 C1412 1.350 . S
C1416 C1413 1.463 . S
C1416 N1420 1.427 . S
C1417 H1407 0.929 . S
C1417 C1415 1.433 . S
C1417 N1420 1.384 . S
C1418 H1409 0.929 . S
C1418 C1410 1.378 . S
C1418 C1413 1.350 . S
C1419 H1406 0.929 . S
C1419 C1411 1.433 . S
C1419 N1421 1.384 . S
N1420 C1416 1.427 . S
N1420 C1417 1.384 . S
N1421 C1413 1.427 . S
N1421 C1419 1.384 . S
H1422 C1428 0.930 . S
H1423 C1432 0.930 . S
H1424 C1437 0.929 . S
H1425 C1435 0.929 . S
H1426 C1430 0.929 . S
H1427 C1436 0.929 . S
C1428 H1422 0.930 . S
C1428 C1429 1.367 . S
C1428 C1436 1.378 . S
C1429 C1428 1.367 . S
C1429 C1437 1.433 . S
C1430 H1426 0.929 . S
C1430 C1432 1.378 . S
C1430 C1434 1.350 . S
C1431 C1434 1.463 . S
C1431 C1436 1.350 . S
C1431 N1439 1.427 . S
C1432 H1423 0.930 . S
C1432 C1430 1.378 . S
C1432 C1433 1.367 . S
C1433 C1432 1.367 . S
C1433 C1435 1.433 . S
C1434 C1430 1.350 . S
C1434 C1431 1.463 . S
C1434 N1438 1.427 . S
C1435 H1425 0.929 . S
C1435 C1433 1.433 . S
C1435 N1438 1.384 . S
C1436 H1427 0.929 . S
C1436 C1428 1.378 . S
C1436 C1431 1.350 . S
C1437 H1424 0.929 . S
C1437 C1429 1.433 . S
C1437 N1439 1.384 . S
N1438 C1434 1.427 . S
N1438 C1435 1.384 . S
N1439 C1431 1.427 . S
N1439 C1437 1.384 . S
H1440 C1446 0.930 . S
H1441 C1450 0.930 . S
H1442 C1455 0.929 . S
H1443 C1453 0.929 . S
H1444 C1448 0.929 . S
H1445 C1454 0.929 . S
C1446 H1440 0.930 . S
C1446 C1447 1.367 . S
C1446 C1454 1.378 . S
C1447 C1446 1.367 . S
C1447 C1455 1.433 . S
C1448 H1444 0.929 . S
C1448 C1450 1.378 . S
C1448 C1452 1.350 . S
C1449 C1452 1.463 . S
C1449 C1454 1.350 . S
C1449 N1457 1.427 . S
C1450 H1441 0.930 . S
C1450 C1448 1.378 . S
C1450 C1451 1.367 . S
C1451 C1450 1.367 . S
C1451 C1453 1.433 . S
C1452 C1448 1.350 . S
C1452 C1449 1.463 . S
C1452 N1456 1.427 . S
C1453 H1443 0.929 . S
C1453 C1451 1.433 . S
C1453 N1456 1.384 . S
C1454 H1445 0.929 . S
C1454 C1446 1.378 . S
C1454 C1449 1.350 . S
C1455 H1442 0.929 . S
C1455 C1447 1.433 . S
C1455 N1457 1.384 . S
N1456 C1452 1.427 . S
N1456 C1453 1.384 . S
N1457 C1449 1.427 . S
N1457 C1455 1.384 . S
H1458 C1464 0.930 . S
H1459 C1468 0.930 . S
H1460 C1473 0.929 . S
H1461 C1471 0.929 . S
H1462 C1466 0.929 . S
H1463 C1472 0.929 . S
C1464 H1458 0.930 . S
C1464 C1465 1.367 . S
C1464 C1472 1.378 . S
C1465 C1464 1.367 . S
C1465 C1473 1.433 . S
C1466 H1462 0.929 . S
C1466 C1468 1.378 . S
C1466 C1470 1.350 . S
C1467 C1470 1.463 . S
C1467 C1472 1.350 . S
C1467 N1475 1.427 . S
C1468 H1459 0.930 . S
C1468 C1466 1.378 . S
C1468 C1469 1.367 . S
C1469 C1468 1.367 . S
C1469 C1471 1.433 . S
C1470 C1466 1.350 . S
C1470 C1467 1.463 . S
C1470 N1474 1.427 . S
C1471 H1461 0.929 . S
C1471 C1469 1.433 . S
C1471 N1474 1.384 . S
C1472 H1463 0.929 . S
C1472 C1464 1.378 . S
C1472 C1467 1.350 . S
C1473 H1460 0.929 . S
C1473 C1465 1.433 . S
C1473 N1475 1.384 . S
N1474 C1470 1.427 . S
N1474 C1471 1.384 . S
N1475 C1467 1.427 . S
N1475 C1473 1.384 . S
H1476 C1482 0.930 . S
H1477 C1486 0.930 . S
H1478 C1491 0.929 . S
H1479 C1489 0.929 . S
H1480 C1484 0.929 . S
H1481 C1490 0.929 . S
C1482 H1476 0.930 . S
C1482 C1483 1.367 . S
C1482 C1490 1.378 . S
C1483 C1482 1.367 . S
C1483 C1491 1.433 . S
C1484 H1480 0.929 . S
C1484 C1486 1.378 . S
C1484 C1488 1.350 . S
C1485 C1488 1.463 . S
C1485 C1490 1.350 . S
C1485 N1493 1.427 . S
C1486 H1477 0.930 . S
C1486 C1484 1.378 . S
C1486 C1487 1.367 . S
C1487 C1486 1.367 . S
C1487 C1489 1.433 . S
C1488 C1484 1.350 . S
C1488 C1485 1.463 . S
C1488 N1492 1.427 . S
C1489 H1479 0.929 . S
C1489 C1487 1.433 . S
C1489 N1492 1.384 . S
C1490 H1481 0.929 . S
C1490 C1482 1.378 . S
C1490 C1485 1.350 . S
C1491 H1478 0.929 . S
C1491 C1483 1.433 . S
C1491 N1493 1.384 . S
N1492 C1488 1.427 . S
N1492 C1489 1.384 . S
N1493 C1485 1.427 . S
N1493 C1491 1.384 . S
H1494 C1500 0.930 . S
H1495 C1504 0.930 . S
H1496 C1509 0.929 . S
H1497 C1507 0.929 . S
H1498 C1502 0.929 . S
H1499 C1508 0.929 . S
C1500 H1494 0.930 . S
C1500 C1501 1.367 . S
C1500 C1508 1.378 . S
C1501 C1500 1.367 . S
C1501 C1509 1.433 . S
C1502 H1498 0.929 . S
C1502 C1504 1.378 . S
C1502 C1506 1.350 . S
C1503 C1506 1.463 . S
C1503 C1508 1.350 . S
C1503 N1511 1.427 . S
C1504 H1495 0.930 . S
C1504 C1502 1.378 . S
C1504 C1505 1.367 . S
C1505 C1504 1.367 . S
C1505 C1507 1.433 . S
C1506 C1502 1.350 . S
C1506 C1503 1.463 . S
C1506 N1510 1.427 . S
C1507 H1497 0.929 . S
C1507 C1505 1.433 . S
C1507 N1510 1.384 . S
C1508 H1499 0.929 . S
C1508 C1500 1.378 . S
C1508 C1503 1.350 . S
C1509 H1496 0.929 . S
C1509 C1501 1.433 . S
C1509 N1511 1.384 . S
N1510 C1506 1.427 . S
N1510 C1507 1.384 . S
N1511 C1503 1.427 . S
N1511 C1509 1.384 . S
H1512 C1518 0.930 . S
H1513 C1522 0.930 . S
H1514 C1527 0.929 . S
H1515 C1525 0.929 . S
H1516 C1520 0.929 . S
H1517 C1526 0.929 . S
C1518 H1512 0.930 . S
C1518 C1519 1.367 . S
C1518 C1526 1.378 . S
C1519 C1518 1.367 . S
C1519 C1527 1.433 . S
C1520 H1516 0.929 . S
C1520 C1522 1.378 . S
C1520 C1524 1.350 . S
C1521 C1524 1.463 . S
C1521 C1526 1.350 . S
C1521 N1529 1.427 . S
C1522 H1513 0.930 . S
C1522 C1520 1.378 . S
C1522 C1523 1.367 . S
C1523 C1522 1.367 . S
C1523 C1525 1.433 . S
C1524 C1520 1.350 . S
C1524 C1521 1.463 . S
C1524 N1528 1.427 . S
C1525 H1515 0.929 . S
C1525 C1523 1.433 . S
C1525 N1528 1.384 . S
C1526 H1517 0.929 . S
C1526 C1518 1.378 . S
C1526 C1521 1.350 . S
C1527 H1514 0.929 . S
C1527 C1519 1.433 . S
C1527 N1529 1.384 . S
N1528 C1524 1.427 . S
N1528 C1525 1.384 . S
N1529 C1521 1.427 . S
N1529 C1527 1.384 . S
H1530 C1536 0.930 . S
H1531 C1540 0.930 . S
H1532 C1545 0.929 . S
H1533 C1543 0.929 . S
H1534 C1538 0.929 . S
H1535 C1544 0.929 . S
C1536 H1530 0.930 . S
C1536 C1537 1.367 . S
C1536 C1544 1.378 . S
C1537 C1536 1.367 . S
C1537 C1545 1.433 . S
C1538 H1534 0.929 . S
C1538 C1540 1.378 . S
C1538 C1542 1.350 . S
C1539 C1542 1.463 . S
C1539 C1544 1.350 . S
C1539 N1547 1.427 . S
C1540 H1531 0.930 . S
C1540 C1538 1.378 . S
C1540 C1541 1.367 . S
C1541 C1540 1.367 . S
C1541 C1543 1.433 . S
C1542 C1538 1.350 . S
C1542 C1539 1.463 . S
C1542 N1546 1.427 . S
C1543 H1533 0.929 . S
C1543 C1541 1.433 . S
C1543 N1546 1.384 . S
C1544 H1535 0.929 . S
C1544 C1536 1.378 . S
C1544 C1539 1.350 . S
C1545 H1532 0.929 . S
C1545 C1537 1.433 . S
C1545 N1547 1.384 . S
N1546 C1542 1.427 . S
N1546 C1543 1.384 . S
N1547 C1539 1.427 . S
N1547 C1545 1.384 . S
H1548 C1554 0.930 . S
H1549 C1558 0.930 . S
H1550 C1563 0.929 . S
H1551 C1561 0.929 . S
H1552 C1556 0.929 . S
H1553 C1562 0.929 . S
C1554 H1548 0.930 . S
C1554 C1555 1.367 . S
C1554 C1562 1.378 . S
C1555 C1554 1.367 . S
C1555 C1563 1.433 . S
C1556 H1552 0.929 . S
C1556 C1558 1.378 . S
C1556 C1560 1.350 . S
C1557 C1560 1.463 . S
C1557 C1562 1.350 . S
C1557 N1565 1.427 . S
C1558 H1549 0.930 . S
C1558 C1556 1.378 . S
C1558 C1559 1.367 . S
C1559 C1558 1.367 . S
C1559 C1561 1.433 . S
C1560 C1556 1.350 . S
C1560 C1557 1.463 . S
C1560 N1564 1.427 . S
C1561 H1551 0.929 . S
C1561 C1559 1.433 . S
C1561 N1564 1.384 . S
C1562 H1553 0.929 . S
C1562 C1554 1.378 . S
C1562 C1557 1.350 . S
C1563 H1550 0.929 . S
C1563 C1555 1.433 . S
C1563 N1565 1.384 . S
N1564 C1560 1.427 . S
N1564 C1561 1.384 . S
N1565 C1557 1.427 . S
N1565 C1563 1.384 . S
H1566 C1572 0.930 . S
H1567 C1576 0.930 . S
H1568 C1581 0.929 . S
H1569 C1579 0.929 . S
H1570 C1574 0.929 . S
H1571 C1580 0.929 . S
C1572 H1566 0.930 . S
C1572 C1573 1.367 . S
C1572 C1580 1.378 . S
C1573 C1572 1.367 . S
C1573 C1581 1.433 . S
C1574 H1570 0.929 . S
C1574 C1576 1.378 . S
C1574 C1578 1.350 . S
C1575 C1578 1.463 . S
C1575 C1580 1.350 . S
C1575 N1583 1.427 . S
C1576 H1567 0.930 . S
C1576 C1574 1.378 . S
C1576 C1577 1.367 . S
C1577 C1576 1.367 . S
C1577 C1579 1.433 . S
C1578 C1574 1.350 . S
C1578 C1575 1.463 . S
C1578 N1582 1.427 . S
C1579 H1569 0.929 . S
C1579 C1577 1.433 . S
C1579 N1582 1.384 . S
C1580 H1571 0.929 . S
C1580 C1572 1.378 . S
C1580 C1575 1.350 . S
C1581 H1568 0.929 . S
C1581 C1573 1.433 . S
C1581 N1583 1.384 . S
N1582 C1578 1.427 . S
N1582 C1579 1.384 . S
N1583 C1575 1.427 . S
N1583 C1581 1.384 . S
H1584 C1590 0.930 . S
H1585 C1594 0.930 . S
H1586 C1599 0.929 . S
H1587 C1597 0.929 . S
H1588 C1592 0.929 . S
H1589 C1598 0.929 . S
C1590 H1584 0.930 . S
C1590 C1591 1.367 . S
C1590 C1598 1.378 . S
C1591 C1590 1.367 . S
C1591 C1599 1.433 . S
C1592 H1588 0.929 . S
C1592 C1594 1.378 . S
C1592 C1596 1.350 . S
C1593 C1596 1.463 . S
C1593 C1598 1.350 . S
C1593 N1601 1.427 . S
C1594 H1585 0.930 . S
C1594 C1592 1.378 . S
C1594 C1595 1.367 . S
C1595 C1594 1.367 . S
C1595 C1597 1.433 . S
C1596 C1592 1.350 . S
C1596 C1593 1.463 . S
C1596 N1600 1.427 . S
C1597 H1587 0.929 . S
C1597 C1595 1.433 . S
C1597 N1600 1.384 . S
C1598 H1589 0.929 . S
C1598 C1590 1.378 . S
C1598 C1593 1.350 . S
C1599 H1586 0.929 . S
C1599 C1591 1.433 . S
C1599 N1601 1.384 . S
N1600 C1596 1.427 . S
N1600 C1597 1.384 . S
N1601 C1593 1.427 . S
N1601 C1599 1.384 . S
H1602 C1608 0.930 . S
H1603 C1612 0.930 . S
H1604 C1617 0.929 . S
H1605 C1615 0.929 . S
H1606 C1610 0.929 . S
H1607 C1616 0.929 . S
C1608 H1602 0.930 . S
C1608 C1609 1.367 . S
C1608 C1616 1.378 . S
C1609 C1608 1.367 . S
C1609 C1617 1.433 . S
C1610 H1606 0.929 . S
C1610 C1612 1.378 . S
C1610 C1614 1.350 . S
C1611 C1614 1.463 . S
C1611 C1616 1.350 . S
C1611 N1619 1.427 . S
C1612 H1603 0.930 . S
C1612 C1610 1.378 . S
C1612 C1613 1.367 . S
C1613 C1612 1.367 . S
C1613 C1615 1.433 . S
C1614 C1610 1.350 . S
C1614 C1611 1.463 . S
C1614 N1618 1.427 . S
C1615 H1605 0.929 . S
C1615 C1613 1.433 . S
C1615 N1618 1.384 . S
C1616 H1607 0.929 . S
C1616 C1608 1.378 . S
C1616 C1611 1.350 . S
C1617 H1604 0.929 . S
C1617 C1609 1.433 . S
C1617 N1619 1.384 . S
N1618 C1614 1.427 . S
N1618 C1615 1.384 . S
N1619 C1611 1.427 . S
N1619 C1617 1.384 . S
H1620 C1626 0.930 . S
H1621 C1630 0.930 . S
H1622 C1635 0.929 . S
H1623 C1633 0.929 . S
H1624 C1628 0.929 . S
H1625 C1634 0.929 . S
C1626 H1620 0.930 . S
C1626 C1627 1.367 . S
C1626 C1634 1.378 . S
C1627 C1626 1.367 . S
C1627 C1635 1.433 . S
C1628 H1624 0.929 . S
C1628 C1630 1.378 . S
C1628 C1632 1.350 . S
C1629 C1632 1.463 . S
C1629 C1634 1.350 . S
C1629 N1637 1.427 . S
C1630 H1621 0.930 . S
C1630 C1628 1.378 . S
C1630 C1631 1.367 . S
C1631 C1630 1.367 . S
C1631 C1633 1.433 . S
C1632 C1628 1.350 . S
C1632 C1629 1.463 . S
C1632 N1636 1.427 . S
C1633 H1623 0.929 . S
C1633 C1631 1.433 . S
C1633 N1636 1.384 . S
C1634 H1625 0.929 . S
C1634 C1626 1.378 . S
C1634 C1629 1.350 . S
C1635 H1622 0.929 . S
C1635 C1627 1.433 . S
C1635 N1637 1.384 . S
N1636 C1632 1.427 . S
N1636 C1633 1.384 . S
N1637 C1629 1.427 . S
N1637 C1635 1.384 . S
H1638 C1644 0.930 . S
H1639 C1648 0.930 . S
H1640 C1653 0.929 . S
H1641 C1651 0.929 . S
H1642 C1646 0.929 . S
H1643 C1652 0.929 . S
C1644 H1638 0.930 . S
C1644 C1645 1.367 . S
C1644 C1652 1.378 . S
C1645 C1644 1.367 . S
C1645 C1653 1.433 . S
C1646 H1642 0.929 . S
C1646 C1648 1.378 . S
C1646 C1650 1.350 . S
C1647 C1650 1.463 . S
C1647 C1652 1.350 . S
C1647 N1655 1.427 . S
C1648 H1639 0.930 . S
C1648 C1646 1.378 . S
C1648 C1649 1.367 . S
C1649 C1648 1.367 . S
C1649 C1651 1.433 . S
C1650 C1646 1.350 . S
C1650 C1647 1.463 . S
C1650 N1654 1.427 . S
C1651 H1641 0.929 . S
C1651 C1649 1.433 . S
C1651 N1654 1.384 . S
C1652 H1643 0.929 . S
C1652 C1644 1.378 . S
C1652 C1647 1.350 . S
C1653 H1640 0.929 . S
C1653 C1645 1.433 . S
C1653 N1655 1.384 . S
N1654 C1650 1.427 . S
N1654 C1651 1.384 . S
N1655 C1647 1.427 . S
N1655 C1653 1.384 . S
H1656 C1662 0.930 . S
H1657 C1666 0.930 . S
H1658 C1671 0.929 . S
H1659 C1669 0.929 . S
H1660 C1664 0.929 . S
H1661 C1670 0.929 . S
C1662 H1656 0.930 . S
C1662 C1663 1.367 . S
C1662 C1670 1.378 . S
C1663 C1662 1.367 . S
C1663 C1671 1.433 . S
C1664 H1660 0.929 . S
C1664 C1666 1.378 . S
C1664 C1668 1.350 . S
C1665 C1668 1.463 . S
C1665 C1670 1.350 . S
C1665 N1673 1.427 . S
C1666 H1657 0.930 . S
C1666 C1664 1.378 . S
C1666 C1667 1.367 . S
C1667 C1666 1.367 . S
C1667 C1669 1.433 . S
C1668 C1664 1.350 . S
C1668 C1665 1.463 . S
C1668 N1672 1.427 . S
C1669 H1659 0.929 . S
C1669 C1667 1.433 . S
C1669 N1672 1.384 . S
C1670 H1661 0.929 . S
C1670 C1662 1.378 . S
C1670 C1665 1.350 . S
C1671 H1658 0.929 . S
C1671 C1663 1.433 . S
C1671 N1673 1.384 . S
N1672 C1668 1.427 . S
N1672 C1669 1.384 . S
N1673 C1665 1.427 . S
N1673 C1671 1.384 . S
H1674 C1680 0.930 . S
H1675 C1684 0.930 . S
H1676 C1689 0.929 . S
H1677 C1687 0.929 . S
H1678 C1682 0.929 . S
H1679 C1688 0.929 . S
C1680 H1674 0.930 . S
C1680 C1681 1.367 . S
C1680 C1688 1.378 . S
C1681 C1680 1.367 . S
C1681 C1689 1.433 . S
C1682 H1678 0.929 . S
C1682 C1684 1.378 . S
C1682 C1686 1.350 . S
C1683 C1686 1.463 . S
C1683 C1688 1.350 . S
C1683 N1691 1.427 . S
C1684 H1675 0.930 . S
C1684 C1682 1.378 . S
C1684 C1685 1.367 . S
C1685 C1684 1.367 . S
C1685 C1687 1.433 . S
C1686 C1682 1.350 . S
C1686 C1683 1.463 . S
C1686 N1690 1.427 . S
C1687 H1677 0.929 . S
C1687 C1685 1.433 . S
C1687 N1690 1.384 . S
C1688 H1679 0.929 . S
C1688 C1680 1.378 . S
C1688 C1683 1.350 . S
C1689 H1676 0.929 . S
C1689 C1681 1.433 . S
C1689 N1691 1.384 . S
N1690 C1686 1.427 . S
N1690 C1687 1.384 . S
N1691 C1683 1.427 . S
N1691 C1689 1.384 . S
H1692 C1698 0.930 . S
H1693 C1702 0.930 . S
H1694 C1707 0.929 . S
H1695 C1705 0.929 . S
H1696 C1700 0.929 . S
H1697 C1706 0.929 . S
C1698 H1692 0.930 . S
C1698 C1699 1.367 . S
C1698 C1706 1.378 . S
C1699 C1698 1.367 . S
C1699 C1707 1.433 . S
C1700 H1696 0.929 . S
C1700 C1702 1.378 . S
C1700 C1704 1.350 . S
C1701 C1704 1.463 . S
C1701 C1706 1.350 . S
C1701 N1709 1.427 . S
C1702 H1693 0.930 . S
C1702 C1700 1.378 . S
C1702 C1703 1.367 . S
C1703 C1702 1.367 . S
C1703 C1705 1.433 . S
C1704 C1700 1.350 . S
C1704 C1701 1.463 . S
C1704 N1708 1.427 . S
C1705 H1695 0.929 . S
C1705 C1703 1.433 . S
C1705 N1708 1.384 . S
C1706 H1697 0.929 . S
C1706 C1698 1.378 . S
C1706 C1701 1.350 . S
C1707 H1694 0.929 . S
C1707 C1699 1.433 . S
C1707 N1709 1.384 . S
N1708 C1704 1.427 . S
N1708 C1705 1.384 . S
N1709 C1701 1.427 . S
N1709 C1707 1.384 . S
H1710 C1716 0.930 . S
H1711 C1720 0.930 . S
H1712 C1725 0.929 . S
H1713 C1723 0.929 . S
H1714 C1718 0.929 . S
H1715 C1724 0.929 . S
C1716 H1710 0.930 . S
C1716 C1717 1.367 . S
C1716 C1724 1.378 . S
C1717 C1716 1.367 . S
C1717 C1725 1.433 . S
C1718 H1714 0.929 . S
C1718 C1720 1.378 . S
C1718 C1722 1.350 . S
C1719 C1722 1.463 . S
C1719 C1724 1.350 . S
C1719 N1727 1.427 . S
C1720 H1711 0.930 . S
C1720 C1718 1.378 . S
C1720 C1721 1.367 . S
C1721 C1720 1.367 . S
C1721 C1723 1.433 . S
C1722 C1718 1.350 . S
C1722 C1719 1.463 . S
C1722 N1726 1.427 . S
C1723 H1713 0.929 . S
C1723 C1721 1.433 . S
C1723 N1726 1.384 . S
C1724 H1715 0.929 . S
C1724 C1716 1.378 . S
C1724 C1719 1.350 . S
C1725 H1712 0.929 . S
C1725 C1717 1.433 . S
C1725 N1727 1.384 . S
N1726 C1722 1.427 . S
N1726 C1723 1.384 . S
N1727 C1719 1.427 . S
N1727 C1725 1.384 . S
H1728 C1734 0.930 . S
H1729 C1738 0.930 . S
H1730 C1743 0.929 . S
H1731 C1741 0.929 . S
H1732 C1736 0.929 . S
H1733 C1742 0.929 . S
C1734 H1728 0.930 . S
C1734 C1735 1.367 . S
C1734 C1742 1.378 . S
C1735 C1734 1.367 . S
C1735 C1743 1.433 . S
C1736 H1732 0.929 . S
C1736 C1738 1.378 . S
C1736 C1740 1.350 . S
C1737 C1740 1.463 . S
C1737 C1742 1.350 . S
C1737 N1745 1.427 . S
C1738 H1729 0.930 . S
C1738 C1736 1.378 . S
C1738 C1739 1.367 . S
C1739 C1738 1.367 . S
C1739 C1741 1.433 . S
C1740 C1736 1.350 . S
C1740 C1737 1.463 . S
C1740 N1744 1.427 . S
C1741 H1731 0.929 . S
C1741 C1739 1.433 . S
C1741 N1744 1.384 . S
C1742 H1733 0.929 . S
C1742 C1734 1.378 . S
C1742 C1737 1.350 . S
C1743 H1730 0.929 . S
C1743 C1735 1.433 . S
C1743 N1745 1.384 . S
N1744 C1740 1.427 . S
N1744 C1741 1.384 . S
N1745 C1737 1.427 . S
N1745 C1743 1.384 . S
H1746 C1752 0.930 . S
H1747 C1756 0.930 . S
H1748 C1761 0.929 . S
H1749 C1759 0.929 . S
H1750 C1754 0.929 . S
H1751 C1760 0.929 . S
C1752 H1746 0.930 . S
C1752 C1753 1.367 . S
C1752 C1760 1.378 . S
C1753 C1752 1.367 . S
C1753 C1761 1.433 . S
C1754 H1750 0.929 . S
C1754 C1756 1.378 . S
C1754 C1758 1.350 . S
C1755 C1758 1.463 . S
C1755 C1760 1.350 . S
C1755 N1763 1.427 . S
C1756 H1747 0.930 . S
C1756 C1754 1.378 . S
C1756 C1757 1.367 . S
C1757 C1756 1.367 . S
C1757 C1759 1.433 . S
C1758 C1754 1.350 . S
C1758 C1755 1.463 . S
C1758 N1762 1.427 . S
C1759 H1749 0.929 . S
C1759 C1757 1.433 . S
C1759 N1762 1.384 . S
C1760 H1751 0.929 . S
C1760 C1752 1.378 . S
C1760 C1755 1.350 . S
C1761 H1748 0.929 . S
C1761 C1753 1.433 . S
C1761 N1763 1.384 . S
N1762 C1758 1.427 . S
N1762 C1759 1.384 . S
N1763 C1755 1.427 . S
N1763 C1761 1.384 . S
H1764 C1770 0.930 . S
H1765 C1774 0.930 . S
H1766 C1779 0.929 . S
H1767 C1777 0.929 . S
H1768 C1772 0.929 . S
H1769 C1778 0.929 . S
C1770 H1764 0.930 . S
C1770 C1771 1.367 . S
C1770 C1778 1.378 . S
C1771 C1770 1.367 . S
C1771 C1779 1.433 . S
C1772 H1768 0.929 . S
C1772 C1774 1.378 . S
C1772 C1776 1.350 . S
C1773 C1776 1.463 . S
C1773 C1778 1.350 . S
C1773 N1781 1.427 . S
C1774 H1765 0.930 . S
C1774 C1772 1.378 . S
C1774 C1775 1.367 . S
C1775 C1774 1.367 . S
C1775 C1777 1.433 . S
C1776 C1772 1.350 . S
C1776 C1773 1.463 . S
C1776 N1780 1.427 . S
C1777 H1767 0.929 . S
C1777 C1775 1.433 . S
C1777 N1780 1.384 . S
C1778 H1769 0.929 . S
C1778 C1770 1.378 . S
C1778 C1773 1.350 . S
C1779 H1766 0.929 . S
C1779 C1771 1.433 . S
C1779 N1781 1.384 . S
N1780 C1776 1.427 . S
N1780 C1777 1.384 . S
N1781 C1773 1.427 . S
N1781 C1779 1.384 . S
C493 C34 1.265 . S
C497 C238 1.163 . S
C511 C8 1.277 . S
C515 C254 1.146 . S
C533 C237 1.134 . S
C529 C18 1.244 . S
C551 C262 1.111 . S
C547 C31 1.252 . S
C565 C5 1.269 . S
C569 C271 1.172 . S
C587 C274 1.164 . S
C583 C21 1.271 . S
C601 C73 1.265 . S
C605 C280 1.150 . S
C623 C296 1.152 . S
C619 C47 1.287 . S
C641 C279 1.160 . S
C637 C57 1.256 . S
C655 C70 1.248 . S
C659 C304 1.139 . S
C677 C313 1.171 . S
C673 C44 1.287 . S
C695 C316 1.158 . S
C691 C60 1.268 . S
C713 C325 1.163 . S
C709 C112 1.267 . S
C731 C337 1.151 . S
C727 C86 1.287 . S
C749 C334 1.160 . S
C745 C96 1.256 . S
C763 C109 1.239 . S
C767 C343 1.132 . S
C785 C342 1.169 . S
C781 C83 1.287 . S
C799 C99 1.267 . S
C803 C359 1.159 . S
C821 C364 1.138 . S
C817 C151 1.283 . S
C839 C380 1.173 . S
C835 C125 1.272 . S
C853 C135 1.255 . S
C857 C363 1.160 . S
C875 C388 1.107 . S
C871 C148 1.248 . S
C893 C397 1.157 . S
C889 C122 1.268 . S
C907 C138 1.280 . S
C911 C400 1.160 . S
C925 C190 1.282 . S
C929 C409 1.132 . S
C947 C421 1.171 . S
C943 C164 1.268 . S
C965 C418 1.130 . S
C961 C174 1.246 . S
C979 C187 1.256 . S
C983 C427 1.128 . S
C1001 C426 1.176 . S
C997 C161 1.286 . S
C1015 C177 1.282 . S
C1019 C443 1.138 . S
C1037 C448 1.135 . S
C1033 C229 1.283 . S
C1055 C464 1.142 . S
C1051 C203 1.281 . S
C1069 C213 1.248 . S
C1073 C447 1.128 . S
C1091 C469 1.123 . S
C1087 C226 1.256 . S
C1109 C468 1.165 . S
C1105 C200 1.287 . S
C1127 C485 1.155 . S
C1123 C216 1.282 . S
C1145 C250 1.364 . S
C1141 C143 1.444 . S
C1159 C117 1.465 . S
C1163 C253 1.388 . S
C1181 C241 1.333 . S
C1177 C140 1.423 . S
C1195 C231 1.460 . S
C1199 C258 1.385 . S
C1213 C205 1.481 . S
C1217 C259 1.373 . S
C1235 C275 1.384 1_565 S
C1231 C208 1.472 . S
C1253 C292 1.370 1_565 S
C1249 C182 1.443 . S
C1271 C295 1.370 . S
C1267 C156 1.464 . S
C1285 C179 1.418 . S
C1289 C283 1.322 . S
C1307 C300 1.389 1_655 S
C1303 C114 1.461 . S
C1321 C88 1.482 . S
C1325 C301 1.393 . S
C1339 C91 1.470 . S
C1343 C317 1.407 . S
C1357 C221 1.443 . S
C1361 C321 1.359 . S
C1375 C195 1.464 . S
C1379 C338 1.390 . S
C1397 C322 1.331 . S
C1393 C218 1.419 . S
C1415 C355 1.375 . S
C1411 C75 1.459 . S
C1433 C346 1.378 . S
C1429 C49 1.484 . S
C1447 C52 1.470 . S
C1451 C358 1.400 . S
C1469 C376 1.370 . S
C1465 C26 1.435 . S
C1487 C379 1.372 . S
C1483 C0 1.460 . S
C1501 C23 1.422 . S
C1505 C367 1.316 . S
C1523 C384 1.376 . S
C1519 C192 1.464 . S
C1541 C385 1.375 . S
C1537 C166 1.483 1_655 S
C1559 C401 1.399 . S
C1555 C169 1.471 . S
C1577 C405 1.359 . S
C1573 C65 1.443 . S
C1595 C422 1.390 . S
C1591 C39 1.461 . S
C1609 C62 1.420 . S
C1613 C406 1.313 . S
C1627 C153 1.459 1_565 S
C1631 C439 1.373 . S
C1645 C127 1.484 . S
C1649 C430 1.392 . S
C1667 C442 1.400 . S
C1663 C130 1.470 . S
C1681 C104 1.435 . S
C1685 C460 1.370 . S
C1699 C78 1.467 . S
C1703 C463 1.381 . S
C1721 C451 1.334 . S
C1717 C101 1.422 1_565 S
C1739 C481 1.378 . S
C1735 C36 1.464 . S
C1757 C472 1.388 . S
C1753 C10 1.480 . S
C1771 C13 1.475 . S
C1775 C484 1.412 . S
