# Generated by pormake.
# Topology pyr, (3,6)-cn, num edge types: 1
# Building blocks:
#     Node 0, Type 0, BuildingBlock: WUSLED_clean_sbu_0, # of connection points: 3
#     Node 1, Type 0, BuildingBlock: WUSLED_clean_sbu_0, # of connection points: 3
#     Node 2, Type 0, BuildingBlock: WUSLED_clean_sbu_0, # of connection points: 3
#     Node 3, Type 0, BuildingBlock: WUSLED_clean_sbu_0, # of connection points: 3
#     Node 4, Type 0, BuildingBlock: WUSLED_clean_sbu_0, # of connection points: 3
#     Node 5, Type 0, BuildingBlock: WUSLED_clean_sbu_0, # of connection points: 3
#     Node 6, Type 0, BuildingBlock: WUSLED_clean_sbu_0, # of connection points: 3
#     Node 7, Type 0, BuildingBlock: WUSLED_clean_sbu_0, # of connection points: 3
#     Node 8, Type 1, BuildingBlock: LEVNOQ01_clean_sbu_1, # of connection points: 6
#     Node 9, Type 1, BuildingBlock: LEVNOQ01_clean_sbu_1, # of connection points: 6
#     Node 10, Type 1, BuildingBlock: LEVNOQ01_clean_sbu_1, # of connection points: 6
#     Node 11, Type 1, BuildingBlock: LEVNOQ01_clean_sbu_1, # of connection points: 6
#     Edge 12, Type (0, 1), BuildingBlock: XUDNAN_clean_linker_2, # of connection points: 2
#     Edge 13, Type (0, 1), BuildingBlock: XUDNAN_clean_linker_2, # of connection points: 2
#     Edge 14, Type (0, 1), BuildingBlock: XUDNAN_clean_linker_2, # of connection points: 2
#     Edge 15, Type (0, 1), BuildingBlock: XUDNAN_clean_linker_2, # of connection points: 2
#     Edge 16, Type (0, 1), BuildingBlock: XUDNAN_clean_linker_2, # of connection points: 2
#     Edge 17, Type (0, 1), BuildingBlock: XUDNAN_clean_linker_2, # of connection points: 2
#     Edge 18, Type (0, 1), BuildingBlock: XUDNAN_clean_linker_2, # of connection points: 2
#     Edge 19, Type (0, 1), BuildingBlock: XUDNAN_clean_linker_2, # of connection points: 2
#     Edge 20, Type (0, 1), BuildingBlock: XUDNAN_clean_linker_2, # of connection points: 2
#     Edge 21, Type (0, 1), BuildingBlock: XUDNAN_clean_linker_2, # of connection points: 2
#     Edge 22, Type (0, 1), BuildingBlock: XUDNAN_clean_linker_2, # of connection points: 2
#     Edge 23, Type (0, 1), BuildingBlock: XUDNAN_clean_linker_2, # of connection points: 2
#     Edge 24, Type (0, 1), BuildingBlock: XUDNAN_clean_linker_2, # of connection points: 2
#     Edge 25, Type (0, 1), BuildingBlock: XUDNAN_clean_linker_2, # of connection points: 2
#     Edge 26, Type (0, 1), BuildingBlock: XUDNAN_clean_linker_2, # of connection points: 2
#     Edge 27, Type (0, 1), BuildingBlock: XUDNAN_clean_linker_2, # of connection points: 2
#     Edge 28, Type (0, 1), BuildingBlock: XUDNAN_clean_linker_2, # of connection points: 2
#     Edge 29, Type (0, 1), BuildingBlock: XUDNAN_clean_linker_2, # of connection points: 2
#     Edge 30, Type (0, 1), BuildingBlock: XUDNAN_clean_linker_2, # of connection points: 2
#     Edge 31, Type (0, 1), BuildingBlock: XUDNAN_clean_linker_2, # of connection points: 2
#     Edge 32, Type (0, 1), BuildingBlock: XUDNAN_clean_linker_2, # of connection points: 2
#     Edge 33, Type (0, 1), BuildingBlock: XUDNAN_clean_linker_2, # of connection points: 2
#     Edge 34, Type (0, 1), BuildingBlock: XUDNAN_clean_linker_2, # of connection points: 2
#     Edge 35, Type (0, 1), BuildingBlock: XUDNAN_clean_linker_2, # of connection points: 2
# Relax obj value: 0.034
# Max RMSD: 0.109
# Mean RMSD: 0.044
data_MOF--net-pry--node1-WUSLED_clean_sbu_0--node2-LEVNOQ01_clean_sbu_1--edge1-XUDNAN_clean_linker_2
_symmetry_space_group_name_H-M    P1
_symmetry_Int_Tables_number       1
_symmetry_cell_setting            triclinic
loop_
_symmetry_equiv_pos_as_xyz
'x, y, z'
_cell_length_a     48.199202
_cell_length_b     46.797539
_cell_length_c     46.45301
_cell_angle_alpha  91.896732
_cell_angle_beta   91.225837
_cell_angle_gamma 93.565971
loop_
_atom_site_label
_atom_site_type_symbol
_atom_site_fract_x
_atom_site_fract_y
_atom_site_fract_z
_atom_type_partial_charge
C0 C 0.14744 0.23728 0.1139 0.0
C1 C 0.13554 0.23687 0.08606 0.0
C2 C 0.11607 0.28306 0.09568 0.0
C3 C 0.12006 0.2594 0.07705 0.0
C4 C 0.12776 0.28329 0.12378 0.0
C5 C 0.14325 0.26064 0.13282 0.0
U6 U 0.17191 0.17745 0.16293 0.0
O7 O 0.18359 0.1342 0.14997 0.0
O8 O 0.21436 0.1645 0.17171 0.0
C9 C 0.2097 0.13936 0.15837 0.0
C10 C 0.16525 0.21385 0.12172 0.0
C11 C 0.23125 0.12966 0.1384 0.0
C12 C 0.24729 0.09273 0.10549 0.0
C13 C 0.22616 0.10422 0.12162 0.0
C14 C 0.27909 0.13217 0.12199 0.0
C15 C 0.27421 0.10626 0.10583 0.0
C16 C 0.25794 0.14366 0.13814 0.0
C17 C 0.13528 0.16248 0.23521 0.0
C18 C 0.14817 0.15232 0.28479 0.0
C19 C 0.10352 0.13418 0.26479 0.0
C20 C 0.10983 0.14678 0.23864 0.0
C21 C 0.12243 0.13706 0.28838 0.0
C22 C 0.15452 0.1649 0.25853 0.0
C23 C 0.14003 0.17809 0.20821 0.0
O24 O 0.18298 0.2188 0.14351 0.0
O25 O 0.15309 0.18791 0.12121 0.0
O26 O 0.1329 0.164 0.18395 0.0
O27 O 0.16332 0.19412 0.20651 0.0
H28 H 0.13864 0.21925 0.07098 0.0
H29 H 0.11184 0.25858 0.05515 0.0
H30 H 0.12487 0.30095 0.13885 0.0
H31 H 0.15215 0.26156 0.15446 0.0
H32 H 0.24276 0.0726 0.09366 0.0
H33 H 0.206 0.09262 0.12167 0.0
H34 H 0.29939 0.14349 0.12243 0.0
H35 H 0.26276 0.16315 0.15096 0.0
H36 H 0.16338 0.15467 0.30233 0.0
H37 H 0.08334 0.12298 0.26679 0.0
H38 H 0.09442 0.14485 0.22124 0.0
H39 H 0.1743 0.17692 0.25674 0.0
C40 C 0.29413 0.88232 0.60315 0.0
C41 C 0.29024 0.9093 0.61594 0.0
C42 C 0.24785 0.91267 0.58704 0.0
C43 C 0.26732 0.92439 0.6079 0.0
C44 C 0.25143 0.88523 0.57498 0.0
C45 C 0.27444 0.87023 0.58293 0.0
U46 U 0.35836 0.87097 0.65004 0.0
O47 O 0.37684 0.83117 0.6621 0.0
O48 O 0.40079 0.86257 0.63688 0.0
C49 C 0.39957 0.83694 0.64766 0.0
C50 C 0.31911 0.86708 0.60979 0.0
C51 C 0.40864 0.81374 0.62861 0.0
C52 C 0.39893 0.77342 0.59471 0.0
C53 C 0.38968 0.79635 0.61134 0.0
C54 C 0.44616 0.78583 0.61168 0.0
C55 C 0.42725 0.76761 0.59512 0.0
C56 C 0.43692 0.80859 0.62828 0.0
C57 C 0.37543 0.91729 0.71777 0.0
C58 C 0.41457 0.90827 0.74927 0.0
C59 C 0.38868 0.95035 0.75787 0.0
C60 C 0.37124 0.94229 0.73412 0.0
C61 C 0.41067 0.93351 0.76568 0.0
C62 C 0.39717 0.90029 0.7255 0.0
C63 C 0.35726 0.9093 0.69254 0.0
O64 O 0.34285 0.88212 0.60735 0.0
O65 O 0.31814 0.85181 0.63304 0.0
O66 O 0.34421 0.88381 0.693 0.0
O67 O 0.36806 0.91487 0.66745 0.0
H68 H 0.30517 0.91888 0.63177 0.0
H69 H 0.2649 0.94531 0.61789 0.0
H70 H 0.23692 0.87573 0.55873 0.0
H71 H 0.27715 0.8494 0.57286 0.0
H72 H 0.38381 0.7597 0.58234 0.0
H73 H 0.36774 0.80014 0.61116 0.0
H74 H 0.46816 0.7823 0.61207 0.0
H75 H 0.45188 0.82196 0.64126 0.0
H76 H 0.43098 0.89453 0.75489 0.0
H77 H 0.38527 0.97007 0.76977 0.0
H78 H 0.3546 0.95571 0.72837 0.0
H79 H 0.40068 0.88086 0.71312 0.0
C80 C 0.6417 0.36796 0.77537 0.0
C81 C 0.66 0.3694 0.75217 0.0
C82 C 0.62773 0.39683 0.7251 0.0
C83 C 0.65311 0.38376 0.72733 0.0
C84 C 0.60979 0.39598 0.74859 0.0
C85 C 0.61661 0.38156 0.77333 0.0
U86 U 0.67829 0.35676 0.84816 0.0
O87 O 0.6624 0.33645 0.88701 0.0
O88 O 0.69685 0.31831 0.86393 0.0
C89 C 0.67837 0.31478 0.88415 0.0
C90 C 0.64759 0.35089 0.80081 0.0
C91 C 0.66423 0.28589 0.88586 0.0
C92 C 0.62899 0.25444 0.90735 0.0
C93 C 0.64216 0.2816 0.90479 0.0
C94 C 0.65989 0.23498 0.87237 0.0
C95 C 0.6377 0.23082 0.89121 0.0
C96 C 0.67302 0.26227 0.86967 0.0
C97 C 0.72954 0.41344 0.88283 0.0
C98 C 0.7772 0.42779 0.89724 0.0
C99 C 0.7423 0.42154 0.93365 0.0
C100 C 0.72217 0.41418 0.91202 0.0
C101 C 0.77008 0.42782 0.92642 0.0
C102 C 0.75711 0.42083 0.87569 0.0
C103 C 0.70942 0.40384 0.85955 0.0
O104 O 0.67268 0.34152 0.80307 0.0
O105 O 0.63813 0.36021 0.82554 0.0
O106 O 0.68309 0.40082 0.86647 0.0
O107 O 0.71724 0.3828 0.84274 0.0
H108 H 0.67941 0.35895 0.75288 0.0
H109 H 0.66727 0.38384 0.70953 0.0
H110 H 0.59029 0.40629 0.7478 0.0
H111 H 0.60199 0.3807 0.79073 0.0
H112 H 0.61235 0.25184 0.92254 0.0
H113 H 0.63521 0.29923 0.9179 0.0
H114 H 0.66701 0.21718 0.85964 0.0
H115 H 0.69012 0.26476 0.85504 0.0
H116 H 0.79843 0.433 0.89109 0.0
H117 H 0.73635 0.42145 0.95601 0.0
H118 H 0.70105 0.40857 0.91821 0.0
H119 H 0.76326 0.42061 0.85338 0.0
C120 C 0.80067 0.60893 0.39583 0.0
C121 C 0.80053 0.61819 0.42488 0.0
C122 C 0.75373 0.59624 0.42941 0.0
C123 C 0.77725 0.61185 0.44158 0.0
C124 C 0.75406 0.58723 0.40019 0.0
C125 C 0.77734 0.59346 0.38361 0.0
U126 U 0.86759 0.65314 0.38221 0.0
O127 O 0.90659 0.64096 0.36269 0.0
O128 O 0.882 0.67334 0.34275 0.0
C129 C 0.90307 0.65694 0.34031 0.0
C130 C 0.82453 0.61608 0.37771 0.0
C131 C 0.90598 0.64255 0.31198 0.0
C132 C 0.88612 0.62 0.2676 0.0
C133 C 0.88267 0.6333 0.29462 0.0
C134 C 0.93611 0.6246 0.27529 0.0
C135 C 0.9129 0.61544 0.25772 0.0
C136 C 0.93266 0.63804 0.30213 0.0
C137 C 0.89373 0.71105 0.4391 0.0
C138 C 0.93693 0.7289 0.46358 0.0
C139 C 0.90308 0.7621 0.44924 0.0
C140 C 0.88572 0.73933 0.43789 0.0
C141 C 0.92879 0.75719 0.46249 0.0
C142 C 0.91955 0.70604 0.45209 0.0
C143 C 0.87426 0.68716 0.42823 0.0
O144 O 0.82482 0.64159 0.36671 0.0
O145 O 0.84891 0.60971 0.38805 0.0
O146 O 0.88383 0.66145 0.42655 0.0
O147 O 0.85833 0.69262 0.40599 0.0
H148 H 0.81838 0.63038 0.43459 0.0
H149 H 0.77776 0.61894 0.46402 0.0
H150 H 0.73612 0.57573 0.3899 0.0
H151 H 0.777 0.58645 0.36113 0.0
H152 H 0.86789 0.61294 0.25462 0.0
H153 H 0.86183 0.63636 0.30193 0.0
H154 H 0.95703 0.62172 0.26812 0.0
H155 H 0.95087 0.64503 0.31519 0.0
H156 H 0.95652 0.72435 0.47376 0.0
H157 H 0.89637 0.78364 0.4474 0.0
H158 H 0.86589 0.74392 0.42826 0.0
H159 H 0.92625 0.68448 0.45368 0.0
C160 C 0.8714 0.80201 0.9159 0.0
C161 C 0.87975 0.78085 0.8963 0.0
C162 C 0.90346 0.75718 0.93515 0.0
C163 C 0.89558 0.75864 0.90584 0.0
C164 C 0.89531 0.77871 0.95451 0.0
C165 C 0.87951 0.8008 0.94498 0.0
U166 U 0.84527 0.85772 0.86319 0.0
O167 O 0.80225 0.86929 0.85448 0.0
O168 O 0.83324 0.90159 0.87258 0.0
C169 C 0.80691 0.89542 0.86558 0.0
C170 C 0.85334 0.82484 0.90713 0.0
C171 C 0.78582 0.90612 0.88561 0.0
C172 C 0.77335 0.93735 0.9258 0.0
C173 C 0.79355 0.92525 0.90881 0.0
C174 C 0.73709 0.91136 0.89706 0.0
C175 C 0.7448 0.93073 0.92011 0.0
C176 C 0.75733 0.89931 0.88 0.0
C177 C 0.88028 0.86527 0.78882 0.0
C178 C 0.88184 0.90548 0.75676 0.0
C179 C 0.89688 0.85956 0.73997 0.0
C180 C 0.89067 0.84816 0.76671 0.0
C181 C 0.89282 0.88846 0.73464 0.0
C182 C 0.87562 0.894 0.78359 0.0
C183 C 0.87609 0.85283 0.81738 0.0
O184 O 0.86548 0.85062 0.90521 0.0
O185 O 0.83499 0.81825 0.88623 0.0
O186 O 0.85274 0.83737 0.82074 0.0
O187 O 0.8834 0.86943 0.84 0.0
H188 H 0.87386 0.78134 0.8737 0.0
H189 H 0.90172 0.74267 0.89024 0.0
H190 H 0.90055 0.77816 0.97726 0.0
H191 H 0.8732 0.81678 0.96052 0.0
H192 H 0.78018 0.95249 0.94302 0.0
H193 H 0.81523 0.93142 0.91358 0.0
H194 H 0.71539 0.90539 0.8922 0.0
H195 H 0.75062 0.88494 0.86209 0.0
H196 H 0.87813 0.92772 0.75338 0.0
H197 H 0.9057 0.84587 0.72379 0.0
H198 H 0.89459 0.82599 0.77033 0.0
H199 H 0.86756 0.90763 0.80033 0.0
C200 C 0.61194 0.14165 0.32435 0.0
C201 C 0.63108 0.12316 0.31288 0.0
C202 C 0.59952 0.11061 0.27205 0.0
C203 C 0.6249 0.10769 0.28691 0.0
C204 C 0.5802 0.12857 0.2842 0.0
C205 C 0.58638 0.14395 0.31004 0.0
U206 U 0.65682 0.16186 0.3918 0.0
O207 O 0.67017 0.20437 0.4107 0.0
O208 O 0.64443 0.17418 0.43554 0.0
C209 C 0.65609 0.20024 0.43428 0.0
C210 C 0.61834 0.1592 0.3508 0.0
C211 C 0.63875 0.22353 0.44326 0.0
C212 C 0.59763 0.25058 0.43772 0.0
C213 C 0.61378 0.22824 0.4286 0.0
C214 C 0.63137 0.26362 0.47608 0.0
C215 C 0.60623 0.26851 0.46164 0.0
C216 C 0.64742 0.24133 0.46697 0.0
C217 C 0.72087 0.11978 0.40833 0.0
C218 C 0.76296 0.13522 0.43596 0.0
C219 C 0.75114 0.08466 0.42655 0.0
C220 C 0.72705 0.09123 0.41164 0.0
C221 C 0.76975 0.10657 0.4383 0.0
C222 C 0.73868 0.14179 0.4211 0.0
C223 C 0.69633 0.12581 0.39061 0.0
O224 O 0.61545 0.14586 0.3751 0.0
O225 O 0.64102 0.17629 0.35035 0.0
O226 O 0.6977 0.15006 0.37703 0.0
O227 O 0.67208 0.11992 0.40215 0.0
H228 H 0.65093 0.12107 0.32375 0.0
H229 H 0.64027 0.09418 0.27804 0.0
H230 H 0.56027 0.13092 0.2736 0.0
H231 H 0.5713 0.15796 0.31869 0.0
H232 H 0.57831 0.2536 0.42623 0.0
H233 H 0.60679 0.21465 0.41019 0.0
H234 H 0.63893 0.27732 0.49418 0.0
H235 H 0.66672 0.23806 0.47843 0.0
H236 H 0.77689 0.15259 0.44466 0.0
H237 H 0.75541 0.06235 0.42848 0.0
H238 H 0.71346 0.07394 0.4022 0.0
H239 H 0.73418 0.16404 0.41904 0.0
C240 C 0.29098 0.62465 0.15148 0.0
C241 C 0.28245 0.64512 0.1323 0.0
C242 C 0.25354 0.60849 0.10561 0.0
C243 C 0.26379 0.63713 0.10965 0.0
C244 C 0.26296 0.58782 0.12421 0.0
C245 C 0.28151 0.5959 0.14707 0.0
U246 U 0.33883 0.68184 0.18703 0.0
O247 O 0.34359 0.69868 0.23167 0.0
O248 O 0.379 0.68052 0.21022 0.0
C249 C 0.36895 0.69009 0.23458 0.0
C250 C 0.30943 0.63361 0.17613 0.0
C251 C 0.37487 0.67358 0.26042 0.0
C252 C 0.36179 0.65548 0.30715 0.0
C253 C 0.35536 0.67014 0.28236 0.0
C254 C 0.40722 0.64722 0.28848 0.0
C255 C 0.38788 0.64404 0.3106 0.0
C256 C 0.40085 0.66197 0.2638 0.0
C257 C 0.34956 0.74998 0.14323 0.0
C258 C 0.37967 0.79186 0.15755 0.0
C259 C 0.35872 0.78762 0.10955 0.0
C260 C 0.34546 0.76143 0.11615 0.0
C261 C 0.37633 0.80287 0.12996 0.0
C262 C 0.36644 0.76542 0.16411 0.0
C263 C 0.33715 0.72127 0.1483 0.0
O264 O 0.33589 0.63723 0.17007 0.0
O265 O 0.30064 0.65458 0.1924 0.0
O266 O 0.31955 0.71916 0.16946 0.0
O267 O 0.35444 0.70066 0.14738 0.0
H268 H 0.28983 0.6674 0.13521 0.0
H269 H 0.25704 0.65344 0.09553 0.0
H270 H 0.25516 0.56565 0.12176 0.0
H271 H 0.28804 0.57983 0.1616 0.0
H272 H 0.34653 0.65365 0.32388 0.0
H273 H 0.33519 0.67901 0.2806 0.0
H274 H 0.42733 0.6382 0.29014 0.0
H275 H 0.41637 0.6644 0.24737 0.0
H276 H 0.3933 0.80312 0.17356 0.0
H277 H 0.35557 0.79576 0.08823 0.0
H278 H 0.33247 0.74977 0.09982 0.0
H279 H 0.36987 0.75672 0.18513 0.0
C280 C 0.08574 0.33358 0.63419 0.0
C281 C 0.09515 0.32786 0.60629 0.0
C282 C 0.06502 0.28418 0.60262 0.0
C283 C 0.08472 0.30336 0.5905 0.0
C284 C 0.05467 0.29087 0.62995 0.0
C285 C 0.06496 0.31536 0.6456 0.0
U286 U 0.14526 0.38928 0.64924 0.0
O287 O 0.14634 0.43216 0.67055 0.0
O288 O 0.17082 0.39862 0.6885 0.0
C289 C 0.16167 0.42433 0.69234 0.0
C290 C 0.09943 0.35649 0.65276 0.0
C291 C 0.1516 0.43149 0.72135 0.0
C292 C 0.13652 0.41766 0.7689 0.0
C293 C 0.14546 0.4102 0.74136 0.0
C294 C 0.1393 0.46768 0.75676 0.0
C295 C 0.13329 0.44647 0.77684 0.0
C296 C 0.14847 0.46026 0.72934 0.0
C297 C 0.20164 0.39828 0.59284 0.0
C298 C 0.24932 0.41688 0.60185 0.0
C299 C 0.23058 0.4125 0.55298 0.0
C300 C 0.20512 0.40175 0.56328 0.0
C301 C 0.25313 0.41984 0.57209 0.0
C302 C 0.22377 0.4063 0.61214 0.0
C303 C 0.17513 0.38543 0.60292 0.0
O304 O 0.12338 0.35014 0.66409 0.0
O305 O 0.0999 0.38245 0.64272 0.0
O306 O 0.15485 0.40281 0.60537 0.0
O307 O 0.17696 0.36818 0.62456 0.0
H308 H 0.11139 0.34165 0.59727 0.0
H309 H 0.09323 0.29852 0.56963 0.0
H310 H 0.03939 0.27647 0.6397 0.0
H311 H 0.05755 0.31941 0.66712 0.0
H312 H 0.13165 0.40084 0.78379 0.0
H313 H 0.14751 0.38779 0.73578 0.0
H314 H 0.13716 0.49008 0.76235 0.0
H315 H 0.15316 0.47703 0.71433 0.0
H316 H 0.26627 0.42203 0.6172 0.0
H317 H 0.23259 0.41502 0.53001 0.0
H318 H 0.18819 0.39585 0.54809 0.0
H319 H 0.22146 0.40392 0.6351 0.0
O320 O 0.99828 0.01374 0.59307 0.0
Mg321 Mg 0.02935 0.02914 0.56701 0.0
O322 O 0.98762 0.99015 0.55264 0.0
Mg323 Mg 0.01181 0.01534 0.51472 0.0
O324 O 0.02251 0.06157 0.53859 0.0
O325 O 0.03956 0.06778 0.58385 0.0
O326 O 0.03391 0.03832 0.47508 0.0
O327 O 0.96816 0.03315 0.50349 0.0
Mg328 Mg 0.98925 0.99049 0.45462 0.0
O329 O 1.00185 0.97165 0.49092 0.0
O330 O 0.0216 0.01344 0.43499 0.0
O331 O 0.95303 0.01175 0.46231 0.0
O332 O 0.98712 0.94681 0.45098 0.0
C333 C 0.07267 0.99719 0.5448 0.0
C334 C 0.98405 0.99399 0.5797 0.0
C335 C 0.03177 0.07848 0.5601 0.0
C336 C 0.03598 0.03374 0.44783 0.0
C337 C 0.9495 0.0288 0.48351 0.0
C338 C 0.99619 0.94723 0.47733 0.0
O339 O 0.06666 0.00909 0.5683 0.0
O340 O 0.05597 0.99735 0.5232 0.0
O341 O 0.46256 0.07572 0.0302 0.0
Mg342 Mg 0.5053 0.07912 0.02635 0.0
O343 O 0.46524 0.02899 0.02528 0.0
Mg344 Mg 0.51198 0.01923 0.01304 0.0
O345 O 0.52428 0.06277 0.9909 0.0
O346 O 0.51766 0.10951 0.99938 0.0
O347 O 0.55964 0.01133 0.99917 0.0
O348 O 0.49404 1.0045 0.96752 0.0
Mg349 Mg 0.52816 0.97009 1.00757 0.0
O350 O 0.49604 0.97542 0.03478 0.0
O351 O 0.56834 0.97523 0.02562 0.0
O352 O 0.52285 0.97048 0.96187 0.0
O353 O 0.51045 0.93274 0.01977 0.0
C354 C 0.53558 0.05658 0.07446 0.0
C355 C 0.45109 0.05081 0.03022 0.0
C356 C 0.52756 0.08946 0.98367 0.0
C357 C 0.57725 0.9953 1.01032 0.0
C358 C 0.50476 0.98586 0.95138 0.0
C359 C 0.49436 0.94753 0.03531 0.0
O360 O 0.52841 0.07985 0.06446 0.0
O361 O 0.53082 0.03307 0.05979 0.0
O362 O 0.49839 0.57268 0.57106 0.0
Mg363 Mg 0.49101 0.52902 0.5757 0.0
O364 O 0.49575 0.56404 0.52413 0.0
Mg365 Mg 0.50607 0.51561 0.51433 0.0
O366 O 0.52138 0.5047 0.56037 0.0
O367 O 0.51308 0.51172 0.60738 0.0
O368 O 0.51641 0.46744 0.50423 0.0
O369 O 0.55213 0.53251 0.50633 0.0
Mg370 Mg 0.52045 0.5012 0.45106 0.0
O371 O 0.49123 0.5257 0.46841 0.0
O372 O 0.51357 0.45756 0.45746 0.0
O373 O 0.56069 0.5192 0.46121 0.0
O374 O 0.49661 0.5195 0.42094 0.0
C375 C 0.44315 0.49923 0.54269 0.0
C376 C 0.49587 0.58159 0.54585 0.0
C377 C 0.52745 0.50057 0.58726 0.0
C378 C 0.51666 0.4494 0.48292 0.0
C379 C 0.56862 0.531 0.48521 0.0
C380 C 0.48367 0.53064 0.44215 0.0
O381 O 0.45068 0.51085 0.56685 0.0
O382 O 0.46003 0.49853 0.52186 0.0
O383 O 0.05477 0.48672 0.06016 0.0
Mg384 Mg 0.03726 0.52726 0.062 0.0
O385 O 0.02338 0.4742 0.02668 0.0
Mg386 Mg 0.01102 0.52042 0.01514 0.0
O387 O 0.99536 0.53227 0.0627 0.0
O388 O 0.02329 0.53085 0.10194 0.0
O389 O 0.99836 0.56676 1.00357 0.0
O390 O 0.96351 0.50105 0.0145 0.0
Mg391 Mg 0.98526 0.51404 0.96642 0.0
O392 O 0.02695 0.50865 0.96792 0.0
O393 O 0.96863 0.55482 0.96826 0.0
O394 O 0.96012 0.47749 0.97324 0.0
O395 O 1.00101 0.51 0.9272 0.0
C396 C 0.072 0.55817 0.03144 0.0
C397 C 0.04247 0.46739 0.04411 0.0
C398 C 0.99918 0.53429 0.09059 0.0
C399 C 0.9801 0.57384 0.98527 0.0
C400 C 0.95051 0.48237 0.99772 0.0
C401 C 0.02451 0.50654 0.93991 0.0
O402 O 0.06214 0.56437 0.05549 0.0
O403 O 0.05873 0.53915 0.01531 0.0
H404 H 0.0942 0.08557 0.29827 0.0
H405 H 0.13286 0.16126 0.34278 0.0
H406 H 0.11753 0.14235 0.38935 0.0
H407 H 0.03406 0.08043 0.3407 0.0
H408 H 0.03157 0.04182 0.3399 0.0
H409 H 0.04736 0.06058 0.31064 0.0
H410 H 0.09212 0.03336 0.31772 0.0
H411 H 0.07644 0.01452 0.34704 0.0
H412 H 0.10938 0.03457 0.3526 0.0
H413 H 0.09477 0.11559 0.43149 0.0
H414 H 0.06769 0.08366 0.46382 0.0
H415 H 0.04471 0.02662 0.3904 0.0
C416 C 0.09953 0.09823 0.31776 0.0
C417 C 0.1148 0.12494 0.31672 0.0
C418 C 0.12154 0.14055 0.34293 0.0
C419 C 0.11277 0.13004 0.36953 0.0
C420 C 0.09738 0.10381 0.36967 0.0
C421 C 0.09097 0.08811 0.34437 0.0
C422 C 0.07346 0.06103 0.34994 0.0
C423 C 0.04493 0.06099 0.33438 0.0
C424 C 0.08877 0.0343 0.34132 0.0
C425 C 0.07076 0.06397 0.38226 0.0
C426 C 0.08465 0.08868 0.39347 0.0
C427 C 0.08403 0.09606 0.42289 0.0
C428 C 0.06864 0.0778 0.44113 0.0
C429 C 0.05408 0.05252 0.42983 0.0
C430 C 0.0556 0.04565 0.40001 0.0
H431 H 0.39756 0.95755 0.81843 0.0
H432 H 0.46715 0.92973 0.76912 0.0
H433 H 0.49883 0.943 0.81037 0.0
H434 H 0.43553 0.01918 0.85518 0.0
H435 H 0.4177 0.01418 0.88853 0.0
H436 H 0.40041 1.00346 0.85475 0.0
H437 H 0.39094 0.9521 0.87292 0.0
H438 H 0.40813 0.96268 0.90673 0.0
H439 H 0.41963 0.9327 0.88581 0.0
H440 H 0.52253 0.9563 0.85739 0.0
H441 H 0.537 0.96912 0.90765 0.0
H442 H 0.45294 0.99091 0.92642 0.0
C443 C 0.41952 0.95466 0.81612 0.0
C444 C 0.42978 0.94243 0.79046 0.0
C445 C 0.45864 0.93858 0.78862 0.0
C446 C 0.47688 0.9463 0.81187 0.0
C447 C 0.46606 0.95811 0.83681 0.0
C448 C 0.4381 0.96241 0.83911 0.0
C449 C 0.43182 0.9747 0.86876 0.0
C450 C 0.42071 1.00466 0.86667 0.0
C451 C 0.41143 0.95432 0.88448 0.0
C452 C 0.46058 0.97618 0.88288 0.0
C453 C 0.47998 0.96654 0.86395 0.0
C454 C 0.50763 0.96421 0.87231 0.0
C455 C 0.51563 0.97149 0.9009 0.0
C456 C 0.49615 0.98123 0.92078 0.0
C457 C 0.46836 0.98407 0.91149 0.0
H458 H 0.57626 0.39355 0.69916 0.0
H459 H 0.66007 0.43109 0.69018 0.0
H460 H 0.64479 0.45554 0.64669 0.0
H461 H 0.55706 0.38547 0.62173 0.0
H462 H 0.52211 0.39541 0.62799 0.0
H463 H 0.54072 0.37726 0.65528 0.0
H464 H 0.53268 0.41838 0.69249 0.0
H465 H 0.51377 0.43627 0.66548 0.0
H466 H 0.54321 0.45473 0.68405 0.0
H467 H 0.61868 0.48056 0.60763 0.0
H468 H 0.58375 0.50626 0.5801 0.0
H469 H 0.51773 0.45277 0.61615 0.0
C470 C 0.59152 0.40671 0.68795 0.0
C471 C 0.61936 0.4104 0.69807 0.0
C472 C 0.63869 0.42764 0.6826 0.0
C473 C 0.63021 0.44158 0.65786 0.0
C474 C 0.60241 0.43779 0.64874 0.0
C475 C 0.58341 0.42076 0.66345 0.0
C476 C 0.55422 0.4225 0.6515 0.0
C477 C 0.54287 0.39342 0.63834 0.0
C478 C 0.53486 0.43365 0.67475 0.0
C479 C 0.5595 0.44405 0.62846 0.0
C480 C 0.58747 0.45222 0.6266 0.0
C481 C 0.59683 0.47387 0.60847 0.0
C482 C 0.57697 0.48821 0.59277 0.0
C483 C 0.54834 0.48092 0.5958 0.0
C484 C 0.53965 0.45807 0.61305 0.0
H485 H 0.9483 0.57383 0.24523 0.0
H486 H 0.8872 0.62543 0.20588 0.0
H487 H 0.89789 0.60484 0.15783 0.0
H488 H 0.99812 0.58402 0.19373 0.0
H489 H 0.01044 0.5485 0.19517 0.0
H490 H 0.99484 0.56415 0.22621 0.0
H491 H 0.95903 0.52044 0.22726 0.0
H492 H 0.97453 0.50471 0.19604 0.0
H493 H 0.9379 0.51049 0.19558 0.0
H494 H 0.92 0.58265 0.11337 0.0
H495 H 0.95171 0.56207 0.07786 0.0
H496 H 0.99724 0.52539 0.14767 0.0
C497 C 0.93687 0.58052 0.22656 0.0
C498 C 0.91696 0.6012 0.22923 0.0
C499 C 0.90235 0.60933 0.20431 0.0
C500 C 0.9083 0.59778 0.17695 0.0
C501 C 0.92862 0.57787 0.17502 0.0
C502 C 0.94249 0.56921 0.1993 0.0
C503 C 0.96502 0.54951 0.19162 0.0
C504 C 0.99379 0.56233 0.2023 0.0
C505 C 0.95873 0.51951 0.20332 0.0
C506 C 0.96235 0.54909 0.15919 0.0
C507 C 0.94108 0.56521 0.1498 0.0
C508 C 0.93638 0.56957 0.12051 0.0
C509 C 0.95439 0.55775 0.10048 0.0
C510 C 0.97687 0.54216 0.11005 0.0
C511 C 0.98018 0.53714 0.13966 0.0
H512 H 0.32887 0.10454 0.12376 0.0
H513 H 0.27208 0.07741 0.05292 0.0
H514 H 0.31024 0.05448 0.02816 0.0
H515 H 0.38638 0.12353 0.08078 0.0
H516 H 0.41173 0.11152 0.10601 0.0
H517 H 0.37928 0.12346 0.11873 0.0
H518 H 0.36995 0.07499 0.14339 0.0
H519 H 0.40221 0.06274 0.13024 0.0
H520 H 0.37004 0.04202 0.12219 0.0
H521 H 0.35598 0.03623 1.00995 0.0
H522 H 0.40531 0.0289 0.99859 0.0
H523 H 0.43136 0.06944 0.08066 0.0
C524 C 0.32436 0.09392 0.10298 0.0
C525 C 0.29729 0.09278 0.09043 0.0
C526 C 0.29245 0.07826 0.0633 0.0
C527 C 0.31404 0.06516 0.04902 0.0
C528 C 0.34042 0.06662 0.06212 0.0
C529 C 0.34562 0.08084 0.08844 0.0
C530 C 0.37601 0.08087 0.0973 0.0
C531 C 0.38911 0.11167 0.10089 0.0
C532 C 0.37976 0.06416 0.12492 0.0
C533 C 0.38731 0.06516 0.07152 0.0
C534 C 0.36648 0.05655 0.05162 0.0
C535 C 0.37238 0.04261 0.02555 0.0
C536 C 0.40035 0.03827 0.01934 0.0
C537 C 0.42187 0.04815 0.03901 0.0
C538 C 0.41512 0.06118 0.06556 0.0
H539 H 0.19302 0.89406 0.5773 0.0
H540 H 0.2501 0.96933 0.57424 0.0
H541 H 0.21173 0.99758 0.55749 0.0
H542 H 0.15039 0.90951 0.51365 0.0
H543 H 0.1184 0.89648 0.52944 0.0
H544 H 0.15066 0.88139 0.53924 0.0
H545 H 0.14241 0.89334 0.59316 0.0
H546 H 0.11004 0.9081 0.58352 0.0
H547 H 0.13611 0.92959 0.60431 0.0
H548 H 0.16736 0.01822 0.54347 0.0
H549 H 0.11867 0.031 0.53711 0.0
H550 H 0.08986 0.94279 0.54912 0.0
C551 C 0.1975 0.91639 0.57269 0.0
C552 C 0.22458 0.92949 0.57702 0.0
C553 C 0.22949 0.95891 0.57134 0.0
C554 C 0.2079 0.97505 0.56152 0.0
C555 C 0.18151 0.96147 0.55738 0.0
C556 C 0.17613 0.93287 0.56296 0.0
C557 C 0.14548 0.92402 0.55853 0.0
C558 C 0.14098 0.90151 0.53374 0.0
C559 C 0.13277 0.91313 0.58655 0.0
C560 C 0.13437 0.95232 0.55039 0.0
C561 C 0.15565 0.97349 0.54933 0.0
C562 C 0.15057 1.00177 0.54378 0.0
C563 C 0.12295 0.0088 0.54004 0.0
C564 C 0.10088 0.98768 0.54191 0.0
C565 C 0.10658 0.95902 0.54668 0.0
H566 H 0.81892 0.40251 0.93063 0.0
H567 H 0.77113 0.4669 0.97193 0.0
H568 H 0.81148 0.48141 1.00434 0.0
H569 H 0.86229 0.38556 0.99638 0.0
H570 H 0.89228 0.38141 0.97446 0.0
H571 H 0.8579 0.37197 0.95969 0.0
H572 H 0.86727 0.40609 0.91762 0.0
H573 H 0.90151 0.41544 0.93211 0.0
H574 H 0.87799 0.44315 0.92566 0.0
H575 H 0.85981 0.49505 0.02484 0.0
H576 H 0.91048 0.50723 0.02965 0.0
H577 H 0.92584 0.43296 0.97561 0.0
C578 C 0.81675 0.4191 0.9471 0.0
C579 C 0.7921 0.43364 0.9489 0.0
C580 C 0.78987 0.45536 0.97049 0.0
C581 C 0.81265 0.46364 0.989 0.0
C582 C 0.83718 0.44953 0.98594 0.0
C583 C 0.83913 0.42742 0.96569 0.0
C584 C 0.86849 0.41811 0.96381 0.0
C585 C 0.87034 0.38744 0.97422 0.0
C586 C 0.87944 0.4209 0.933 0.0
C587 C 0.88324 0.43967 0.98471 0.0
C588 C 0.86486 0.4572 0.99792 0.0
C589 C 0.87429 0.48096 0.01527 0.0
C590 C 0.90312 0.48767 0.01803 0.0
C591 C 0.92196 0.47089 1.00312 0.0
C592 C 0.91185 0.44588 0.98757 0.0
H593 H 0.72078 0.54649 0.42787 0.0
H594 H 0.72965 0.63094 0.46968 0.0
H595 H 0.68553 0.62081 0.49477 0.0
H596 H 0.65068 0.54794 0.41201 0.0
H597 H 0.6427 0.51038 0.41737 0.0
H598 H 0.67697 0.52259 0.40692 0.0
H599 H 0.69812 0.49912 0.45149 0.0
H600 H 0.66378 0.48688 0.46215 0.0
H601 H 0.68629 0.50837 0.48695 0.0
H602 H 0.63729 0.60283 0.51124 0.0
H603 H 0.5896 0.57993 0.51491 0.0
H604 H 0.61285 0.50891 0.46026 0.0
C605 C 0.71365 0.56282 0.44251 0.0
C606 C 0.72871 0.58951 0.44676 0.0
C607 C 0.7187 0.61014 0.46635 0.0
C608 C 0.69361 0.6046 0.48067 0.0
C609 C 0.67891 0.57827 0.47532 0.0
C610 C 0.68871 0.55773 0.4567 0.0
C611 C 0.66804 0.53232 0.45222 0.0
C612 C 0.65907 0.52809 0.42025 0.0
C613 C 0.67976 0.50506 0.46391 0.0
C614 C 0.64459 0.5421 0.47038 0.0
C615 C 0.65129 0.56835 0.48412 0.0
C616 C 0.632 0.58211 0.50086 0.0
C617 C 0.60504 0.56897 0.50293 0.0
C618 C 0.5977 0.54275 0.48784 0.0
C619 C 0.61798 0.52898 0.47205 0.0
H620 H 0.1274 0.34098 0.10707 0.0
H621 H 0.06898 0.28066 0.0609 0.0
H622 H 0.0445 0.32094 0.04163 0.0
H623 H 0.07691 0.39202 0.1269 0.0
H624 H 0.10081 0.42269 0.12269 0.0
H625 H 0.1137 0.38902 0.13272 0.0
H626 H 0.1463 0.39027 0.08907 0.0
H627 H 0.13335 0.42383 0.07878 0.0
H628 H 0.13175 0.39379 0.05337 0.0
H629 H 0.02669 0.36832 0.0265 0.0
H630 H 0.0159 0.41865 0.01906 0.0
H631 H 0.08521 0.44756 0.07614 0.0
C632 C 0.10925 0.33615 0.09322 0.0
C633 C 0.10032 0.30749 0.08543 0.0
C634 C 0.07662 0.30234 0.06686 0.0
C635 C 0.06245 0.32511 0.05588 0.0
C636 C 0.07206 0.35305 0.06369 0.0
C637 C 0.0948 0.35862 0.08212 0.0
C638 C 0.10083 0.39058 0.08729 0.0
C639 C 0.09788 0.39907 0.1193 0.0
C640 C 0.12977 0.40017 0.07648 0.0
C641 C 0.07798 0.40209 0.0689 0.0
C642 C 0.06164 0.38015 0.05533 0.0
C643 C 0.03933 0.38567 0.0371 0.0
C644 C 0.0334 0.41433 0.03291 0.0
C645 C 0.04963 0.43713 0.047 0.0
C646 C 0.07231 0.43071 0.06505 0.0
H647 H 0.58221 0.21666 0.89497 0.0
H648 H 0.66261 0.18008 0.89741 0.0
H649 H 0.64016 0.13381 0.91144 0.0
H650 H 0.55967 0.18908 0.95675 0.0
H651 H 0.52367 0.18286 0.94564 0.0
H652 H 0.54503 0.21012 0.92908 0.0
H653 H 0.53288 0.18631 0.87879 0.0
H654 H 0.51153 0.15873 0.89536 0.0
H655 H 0.53916 0.14913 0.87207 0.0
H656 H 0.61018 0.09481 0.9342 0.0
H657 H 0.57657 0.06898 0.96536 0.0
H658 H 0.51638 0.1315 0.94809 0.0
C659 C 0.595 0.19868 0.89772 0.0
C660 C 0.6241 0.20191 0.89504 0.0
C661 C 0.64019 0.17795 0.89893 0.0
C662 C 0.6276 0.15157 0.90688 0.0
C663 C 0.59888 0.14941 0.91043 0.0
C664 C 0.58279 0.17238 0.90571 0.0
C665 C 0.55319 0.16623 0.91482 0.0
C666 C 0.54494 0.18836 0.93795 0.0
C667 C 0.533 0.16502 0.88869 0.0
C668 C 0.55544 0.13691 0.927 0.0
C669 C 0.58168 0.12707 0.92363 0.0
C670 C 0.58936 0.10193 0.93627 0.0
C671 C 0.57014 0.08726 0.95378 0.0
C672 C 0.54393 0.09823 0.95874 0.0
C673 C 0.53617 0.1225 0.94413 0.0
H674 H 0.91306 0.8049 0.49212 0.0
H675 H 0.98558 0.76554 0.4591 0.0
H676 H 0.0146 0.80925 0.47314 0.0
H677 H 0.92628 0.8684 0.46262 0.0
H678 H 0.91346 0.89022 0.49154 0.0
H679 H 0.90043 0.85367 0.48641 0.0
H680 H 0.91474 0.844 0.53923 0.0
H681 H 0.92813 0.88072 0.54421 0.0
H682 H 0.95022 0.85198 0.55144 0.0
H683 H 0.03333 0.85968 0.48028 0.0
H684 H 0.03884 0.91225 0.47646 0.0
H685 H 0.95465 0.91961 0.50458 0.0
C686 C 0.93518 0.80522 0.48845 0.0
C687 C 0.94702 0.78174 0.47455 0.0
C688 C 0.97605 0.78302 0.47015 0.0
C689 C 0.99274 0.8078 0.47813 0.0
C690 C 0.98019 0.831 0.49082 0.0
C691 C 0.95202 0.82982 0.49611 0.0
C692 C 0.94264 0.85889 0.50553 0.0
C693 C 0.91937 0.86834 0.48531 0.0
C694 C 0.93339 0.85888 0.53698 0.0
C695 C 0.96946 0.8771 0.50264 0.0
C696 C 0.99115 0.86048 0.49512 0.0
C697 C 0.01685 0.87283 0.48716 0.0
C698 C 0.01993 0.90272 0.48526 0.0
C699 C 0.99746 0.91976 0.49128 0.0
C700 C 0.97246 0.90695 0.50132 0.0
H701 H 0.46405 0.73085 0.61553 0.0
H702 H 0.41193 0.74533 0.54082 0.0
H703 H 0.42798 0.70138 0.51684 0.0
H704 H 0.52221 0.7028 0.57704 0.0
H705 H 0.52833 0.67702 0.60409 0.0
H706 H 0.51406 0.71052 0.61408 0.0
H707 H 0.47191 0.68314 0.63675 0.0
H708 H 0.4862 0.64967 0.62709 0.0
H709 H 0.45146 0.6565 0.61521 0.0
H710 H 0.44855 0.65365 0.50238 0.0
H711 H 0.46821 0.60585 0.50101 0.0
H712 H 0.50719 0.62508 0.58503 0.0
C713 C 0.45645 0.72524 0.59384 0.0
C714 C 0.43703 0.74177 0.5799 0.0
C715 C 0.42684 0.73299 0.55193 0.0
C716 C 0.43602 0.7082 0.53806 0.0
C717 C 0.45539 0.69252 0.55245 0.0
C718 C 0.46534 0.70076 0.57981 0.0
C719 C 0.48449 0.67949 0.59171 0.0
C720 C 0.51403 0.69329 0.59703 0.0
C721 C 0.47281 0.66643 0.6193 0.0
C722 C 0.4836 0.65769 0.56697 0.0
C723 C 0.46697 0.66551 0.54431 0.0
C724 C 0.46186 0.64752 0.51989 0.0
C725 C 0.47326 0.62051 0.51918 0.0
C726 C 0.48929 0.61181 0.54287 0.0
C727 C 0.49517 0.63115 0.56649 0.0
H728 H 0.91784 0.94179 0.72544 0.0
H729 H 0.8873 0.8631 0.68015 0.0
H730 H 0.90477 0.88216 0.63452 0.0
H731 H 0.90135 0.99005 0.66751 0.0
H732 H 0.93212 0.01319 0.67511 0.0
H733 H 0.91568 0.99385 0.70371 0.0
H734 H 0.96222 0.97153 0.71589 0.0
H735 H 0.97875 0.99073 0.68735 0.0
H736 H 0.97962 0.95231 0.68802 0.0
H737 H 0.92871 0.90938 0.59373 0.0
H738 H 0.95645 0.9421 0.56275 0.0
H739 H 0.96922 1.0027 0.6353 0.0
C740 C 0.91419 0.92874 0.70588 0.0
C741 C 0.90115 0.90086 0.70658 0.0
C742 C 0.89751 0.88438 0.68039 0.0
C743 C 0.9072 0.8951 0.65426 0.0
C744 C 0.92032 0.92251 0.65447 0.0
C745 C 0.92361 0.93914 0.67964 0.0
C746 C 0.93932 0.96743 0.67448 0.0
C747 C 0.92102 0.99262 0.68056 0.0
C748 C 0.96659 0.97066 0.6925 0.0
C749 C 0.94484 0.96393 0.64265 0.0
C750 C 0.93365 0.93802 0.63127 0.0
C751 C 0.93728 0.92987 0.6024 0.0
C752 C 0.95301 0.94859 0.58491 0.0
C753 C 0.96499 0.97503 0.59647 0.0
C754 C 0.96035 0.98272 0.62562 0.0
H755 H 0.57674 0.1339 0.22482 0.0
H756 H 0.6089 0.05512 0.25414 0.0
H757 H 0.59716 0.03178 0.20626 0.0
H758 H 0.5188 0.10155 0.18442 0.0
H759 H 0.52121 0.1275 0.15662 0.0
H760 H 0.53302 0.13748 0.19279 0.0
H761 H 0.58153 0.15376 0.1738 0.0
H762 H 0.56985 0.1438 0.13758 0.0
H763 H 0.60041 0.12894 0.1525 0.0
H764 H 0.57938 0.01692 0.15419 0.0
H765 H 0.55936 0.01324 0.10426 0.0
H766 H 0.53996 0.10249 0.11176 0.0
C767 C 0.58118 0.11166 0.22135 0.0
C768 C 0.59349 0.09627 0.24332 0.0
C769 C 0.59954 0.06738 0.23756 0.0
C770 C 0.59283 0.05393 0.21048 0.0
C771 C 0.58029 0.06974 0.1894 0.0
C772 C 0.57472 0.09806 0.19467 0.0
C773 C 0.56105 0.11066 0.16894 0.0
C774 C 0.53179 0.11982 0.17613 0.0
C775 C 0.57931 0.13576 0.15753 0.0
C776 C 0.55969 0.08509 0.14821 0.0
C777 C 0.57072 0.06153 0.16014 0.0
C778 C 0.57086 0.03536 0.14467 0.0
C779 C 0.55945 0.03343 0.11636 0.0
C780 C 0.54823 0.05757 0.10393 0.0
C781 C 0.54855 0.08359 0.1203 0.0
H782 H 0.43788 0.64735 0.33988 0.0
H783 H 0.35469 0.60635 0.34109 0.0
H784 H 0.36837 0.57901 0.38318 0.0
H785 H 0.47179 0.58624 0.35136 0.0
H786 H 0.49988 0.60365 0.3729 0.0
H787 H 0.48181 0.62356 0.34685 0.0
H788 H 0.47086 0.66078 0.38706 0.0
H789 H 0.48864 0.64058 0.41333 0.0
H790 H 0.45309 0.64896 0.41872 0.0
H791 H 0.39309 0.55118 0.42063 0.0
H792 H 0.42732 0.52332 0.4466 0.0
H793 H 0.49396 0.58187 0.41963 0.0
C794 C 0.42238 0.63289 0.34916 0.0
C795 C 0.39519 0.62908 0.3372 0.0
C796 C 0.37554 0.61001 0.35015 0.0
C797 C 0.38312 0.59439 0.37409 0.0
C798 C 0.41033 0.59829 0.38499 0.0
C799 C 0.42963 0.6171 0.37284 0.0
C800 C 0.45833 0.61497 0.38599 0.0
C801 C 0.47915 0.60659 0.36291 0.0
C802 C 0.46831 0.643 0.40224 0.0
C803 C 0.45249 0.59115 0.4066 0.0
C804 C 0.42458 0.58219 0.40634 0.0
C805 C 0.41485 0.55848 0.42156 0.0
C806 C 0.4343 0.5429 0.43641 0.0
C807 C 0.46294 0.55111 0.43553 0.0
C808 C 0.47197 0.57594 0.42129 0.0
H809 H 0.09304 0.48313 0.78904 0.0
H810 H 0.14949 0.42713 0.8295 0.0
H811 H 0.13096 0.43992 0.87727 0.0
H812 H 0.09568 0.53895 0.84593 0.0
H813 H 0.05925 0.54489 0.84164 0.0
H814 H 0.07853 0.53289 0.8112 0.0
H815 H 0.04308 0.48919 0.80286 0.0
H816 H 0.02364 0.50121 0.83306 0.0
H817 H 0.03587 0.46558 0.83204 0.0
H818 H 0.10441 0.45801 0.92074 0.0
H819 H 0.06977 0.47629 0.95447 0.0
H820 H 0.03146 0.51957 0.88422 0.0
C821 C 0.1019 0.47397 0.808 0.0
C822 C 0.12288 0.4544 0.80565 0.0
C823 C 0.13336 0.44219 0.83088 0.0
C824 C 0.12312 0.44949 0.85808 0.0
C825 C 0.10241 0.46896 0.85961 0.0
C826 C 0.09185 0.48087 0.83514 0.0
C827 C 0.06837 0.49965 0.84207 0.0
C828 C 0.07592 0.53095 0.83478 0.0
C829 C 0.04114 0.48821 0.8266 0.0
C830 C 0.06703 0.49619 0.8742 0.0
C831 C 0.087 0.47877 0.88417 0.0
C832 C 0.08882 0.47182 0.91316 0.0
C833 C 0.06921 0.48237 0.93218 0.0
C834 C 0.04799 0.49922 0.92186 0.0
C835 C 0.04745 0.50667 0.8927 0.0
H836 H 0.69356 0.9491 0.90286 0.0
H837 H 0.74691 0.94215 0.97853 0.0
H838 H 0.712 0.96423 1.00853 0.0
H839 H 0.6646 0.01693 0.92399 0.0
H840 H 0.63024 1.00609 0.91004 0.0
H841 H 0.66026 0.99177 0.89375 0.0
H842 H 0.6401 0.94009 0.90174 0.0
H843 H 0.6099 0.95429 0.91763 0.0
H844 H 0.63017 0.93009 0.93741 0.0
H845 H 0.67009 0.98317 0.03119 0.0
H846 H 0.62299 0.99558 0.04509 0.0
H847 H 0.59638 0.99135 0.95533 0.0
C848 C 0.69796 0.9522 0.92573 0.0
C849 C 0.72332 0.94405 0.93815 0.0
C850 C 0.72808 0.94869 0.96824 0.0
C851 C 0.70828 0.96119 0.98554 0.0
C852 C 0.6837 0.96908 0.97259 0.0
C853 C 0.67837 0.96468 0.94339 0.0
C854 C 0.64954 0.97363 0.93523 0.0
C855 C 0.65128 0.99859 0.91452 0.0
C856 C 0.63135 0.948 0.92225 0.0
C857 C 0.63931 0.98321 0.9645 0.0
C858 C 0.6595 0.9806 0.98569 0.0
C859 C 0.65432 0.98586 0.01474 0.0
C860 C 0.62759 0.99308 0.02245 0.0
C861 C 0.60643 0.99533 1.00124 0.0
C862 C 0.61256 0.99099 0.97183 0.0
H863 H 0.80398 0.06682 0.41793 0.0
H864 H 0.79718 0.13024 0.48722 0.0
H865 H 0.84256 0.11735 0.50765 0.0
H866 H 0.83381 0.01342 0.46025 0.0
H867 H 0.85589 1.00207 0.43177 0.0
H868 H 0.8232 0.01674 0.42313 0.0
H869 H 0.84867 0.05505 0.39237 0.0
H870 H 0.88141 0.04046 0.40089 0.0
H871 H 0.87671 0.07784 0.40851 0.0
H872 H 0.88978 0.09639 0.52014 0.0
H873 H 0.93334 0.07067 0.52237 0.0
H874 H 0.90631 0.02127 0.44494 0.0
C875 C 0.81173 0.07779 0.43765 0.0
C876 C 0.79685 0.09932 0.45114 0.0
C877 C 0.80827 0.1137 0.47646 0.0
C878 C 0.83394 0.10642 0.48827 0.0
C879 C 0.84791 0.08481 0.47445 0.0
C880 C 0.83708 0.07082 0.44963 0.0
C881 C 0.85589 0.04864 0.43842 0.0
C882 C 0.84133 0.01843 0.43841 0.0
C883 C 0.86629 0.05595 0.40827 0.0
C884 C 0.87911 0.05216 0.46078 0.0
C885 C 0.87439 0.07304 0.48148 0.0
C886 C 0.89359 0.07996 0.50402 0.0
C887 C 0.91823 0.06523 0.50516 0.0
C888 C 0.92334 0.04392 0.48387 0.0
C889 C 0.90326 0.03739 0.46165 0.0
H890 H 0.20638 0.63604 0.09659 0.0
H891 H 0.24965 0.56264 0.06678 0.0
H892 H 0.20946 0.54732 0.03457 0.0
H893 H 0.1442 0.60033 0.10378 0.0
H894 H 0.12318 0.62884 0.09293 0.0
H895 H 0.15739 0.63718 0.10802 0.0
H896 H 0.17064 0.66538 0.06267 0.0
H897 H 0.13633 0.65687 0.04729 0.0
H898 H 0.16656 0.64793 0.02752 0.0
H899 H 0.16211 0.53637 0.01136 0.0
H900 H 0.11123 0.52783 1.00432 0.0
H901 H 0.09899 0.6079 0.05033 0.0
C902 C 0.20782 0.61736 0.08243 0.0
C903 C 0.23122 0.60075 0.08377 0.0
C904 C 0.23192 0.57574 0.06589 0.0
C905 C 0.20931 0.56706 0.04735 0.0
C906 C 0.18623 0.58366 0.04697 0.0
C907 C 0.18538 0.6083 0.06415 0.0
C908 C 0.15683 0.61996 0.0634 0.0
C909 C 0.1447 0.62164 0.09382 0.0
C910 C 0.15765 0.64927 0.04937 0.0
C911 C 0.14127 0.59724 0.04436 0.0
C912 C 0.15871 0.57696 0.03425 0.0
C913 C 0.14838 0.55243 0.01863 0.0
C914 C 0.11945 0.54781 0.01454 0.0
C915 C 0.10131 0.56735 0.02664 0.0
C916 C 0.11249 0.59292 0.04047 0.0
H917 H 0.29009 0.4617 0.59576 0.0
H918 H 0.2788 0.40042 0.52358 0.0
H919 H 0.32506 0.41617 0.50602 0.0
H920 H 0.32828 0.51774 0.55823 0.0
H921 H 0.35109 0.52744 0.58871 0.0
H922 H 0.31624 0.51281 0.59432 0.0
H923 H 0.33571 0.47277 0.62472 0.0
H924 H 0.37057 0.48729 0.61927 0.0
H925 H 0.36108 0.45035 0.6094 0.0
H926 H 0.3739 0.43756 0.49744 0.0
H927 H 0.42127 0.4616 0.49987 0.0
H928 H 0.40018 0.50709 0.57859 0.0
C929 C 0.29728 0.45152 0.57627 0.0
C930 C 0.28065 0.42991 0.56101 0.0
C931 C 0.29088 0.4174 0.53541 0.0
C932 C 0.31722 0.4261 0.52532 0.0
C933 C 0.33312 0.44731 0.54104 0.0
C934 C 0.32351 0.4598 0.566 0.0
C935 C 0.34502 0.48122 0.57967 0.0
C936 C 0.33452 0.5116 0.58025 0.0
C937 C 0.3536 0.47236 0.61005 0.0
C938 C 0.36839 0.47852 0.55877 0.0
C939 C 0.36115 0.45912 0.53643 0.0
C940 C 0.37975 0.45289 0.5148 0.0
C941 C 0.40656 0.46665 0.51631 0.0
C942 C 0.41447 0.48612 0.53945 0.0
C943 C 0.39489 0.49223 0.56066 0.0
H944 H 0.89768 0.69993 0.91834 0.0
H945 H 0.94563 0.7597 0.97628 0.0
H946 H 0.97028 0.71966 0.9959 0.0
H947 H 0.88953 0.64284 0.96667 0.0
H948 H 0.89326 0.615 0.93953 0.0
H949 H 0.87974 0.64843 0.92969 0.0
H950 H 0.91811 0.65525 0.89183 0.0
H951 H 0.93162 0.62173 0.90144 0.0
H952 H 0.95409 0.65403 0.90286 0.0
H953 H 0.98925 0.67223 1.01005 0.0
H954 H 1.00151 0.62206 0.01607 0.0
H955 H 0.94158 0.59412 0.94825 0.0
C956 C 0.91363 0.70474 0.93485 0.0
C957 C 0.91953 0.73311 0.94579 0.0
C958 C 0.94033 0.73819 0.96778 0.0
C959 C 0.95459 0.71557 0.97899 0.0
C960 C 0.94799 0.68786 0.96798 0.0
C961 C 0.9281 0.68243 0.94626 0.0
C962 C 0.92475 0.65074 0.93823 0.0
C963 C 0.89506 0.63855 0.94388 0.0
C964 C 0.93262 0.64512 0.90672 0.0
C965 C 0.94568 0.63917 0.95894 0.0
C966 C 0.95894 0.66084 0.97595 0.0
C967 C 0.97902 0.65512 0.99676 0.0
C968 C 0.98582 0.62654 1.00009 0.0
C969 C 0.97257 0.60404 0.9827 0.0
C970 C 0.95218 0.61069 0.96196 0.0
H971 H 0.40662 0.80888 0.08185 0.0
H972 H 0.38304 0.85538 0.15883 0.0
H973 H 0.40936 0.89906 0.14254 0.0
H974 H 0.47571 0.84027 0.07919 0.0
H975 H 0.47555 0.84046 0.04039 0.0
H976 H 0.45442 0.81377 0.05832 0.0
H977 H 0.41074 0.82914 0.0307 0.0
H978 H 0.43171 0.85605 0.01285 0.0
H979 H 0.40203 0.86605 0.03295 0.0
H980 H 0.438 0.93818 0.11602 0.0
H981 H 0.46924 0.96692 0.08456 0.0
H982 H 0.47368 0.89281 0.02664 0.0
C983 C 0.40679 0.82832 0.0952 0.0
C984 C 0.39257 0.82898 0.12137 0.0
C985 C 0.39383 0.85456 0.13864 0.0
C986 C 0.40856 0.87943 0.12948 0.0
C987 C 0.42205 0.87812 0.1032 0.0
C988 C 0.42145 0.85303 0.08654 0.0
C989 C 0.43818 0.85653 0.05969 0.0
C990 C 0.4624 0.83658 0.0594 0.0
C991 C 0.41955 0.85166 0.03244 0.0
C992 C 0.44848 0.88753 0.06373 0.0
C993 C 0.43883 0.8999 0.0887 0.0
C994 C 0.44574 0.92861 0.0965 0.0
C995 C 0.46336 0.94479 0.0785 0.0
C996 C 0.47404 0.93198 0.05337 0.0
C997 C 0.46612 0.90314 0.0459 0.0
H998 H 0.06811 0.23343 0.62786 0.0
H999 H 0.04728 0.27033 0.54651 0.0
H1000 H 0.03594 0.22137 0.52511 0.0
H1001 H 0.10083 0.17307 0.59766 0.0
H1002 H 0.08854 0.14968 0.62534 0.0
H1003 H 0.09461 0.18749 0.63324 0.0
H1004 H 0.04386 0.18991 0.65038 0.0
H1005 H 0.03766 0.15212 0.64255 0.0
H1006 H 0.01548 0.17712 0.62648 0.0
H1007 H 0.02591 0.16625 0.51379 0.0
H1008 H 0.02032 0.11293 0.51386 0.0
H1009 H 0.049 0.11592 0.60321 0.0
C1010 C 0.06088 0.23128 0.60561 0.0
C1011 C 0.05806 0.25553 0.58894 0.0
C1012 C 0.04936 0.25186 0.55965 0.0
C1013 C 0.04287 0.2242 0.54739 0.0
C1014 C 0.04564 0.20062 0.56469 0.0
C1015 C 0.05469 0.20414 0.59314 0.0
C1016 C 0.05669 0.17594 0.60742 0.0
C1017 C 0.08696 0.17128 0.61643 0.0
C1018 C 0.03726 0.17365 0.63322 0.0
C1019 C 0.04678 0.15578 0.58288 0.0
C1020 C 0.04051 0.17001 0.55823 0.0
C1021 C 0.03085 0.155 0.53304 0.0
C1022 C 0.02768 0.12477 0.53324 0.0
C1023 C 0.03417 0.11013 0.5585 0.0
C1024 C 0.04378 0.12615 0.58341 0.0
H1025 H 0.57893 0.30545 0.4279 0.0
H1026 H 0.5961 0.28658 0.51714 0.0
H1027 H 0.57143 0.32885 0.53296 0.0
H1028 H 0.58916 0.37989 0.4358 0.0
H1029 H 0.56167 0.38752 0.41085 0.0
H1030 H 0.57886 0.35465 0.40679 0.0
H1031 H 0.53135 0.32565 0.40865 0.0
H1032 H 0.51401 0.35851 0.41276 0.0
H1033 H 0.50917 0.33109 0.43886 0.0
H1034 H 0.54818 0.37588 0.53882 0.0
H1035 H 0.52831 0.42309 0.53378 0.0
H1036 H 0.52458 0.40892 0.44087 0.0
C1037 C 0.57695 0.30974 0.45079 0.0
C1038 C 0.58951 0.29264 0.47125 0.0
C1039 C 0.58697 0.29954 0.50101 0.0
C1040 C 0.5728 0.32338 0.51023 0.0
C1041 C 0.56099 0.33999 0.48947 0.0
C1042 C 0.56278 0.33333 0.46036 0.0
C1043 C 0.54959 0.35537 0.44231 0.0
C1044 C 0.57111 0.37023 0.42281 0.0
C1045 C 0.52454 0.34184 0.42461 0.0
C1046 C 0.5405 0.37568 0.46578 0.0
C1047 C 0.54714 0.36653 0.49288 0.0
C1048 C 0.54244 0.38302 0.51771 0.0
C1049 C 0.53109 0.40977 0.51467 0.0
C1050 C 0.52458 0.41967 0.48698 0.0
C1051 C 0.52887 0.40194 0.46242 0.0
loop_
_geom_bond_atom_site_label_1
_geom_bond_atom_site_label_2
_geom_bond_distance
_geom_bond_site_symmetry_2
_ccdc_geom_bond_type
C0 C1 1.264 . S
C0 C5 1.479 . S
C0 C10 1.465 . S
C1 C0 1.264 . S
C1 C3 1.339 . S
C1 H28 0.931 . S
C2 C3 1.395 . S
C2 C4 1.320 . S
C3 C1 1.339 . S
C3 C2 1.395 . S
C3 H29 0.929 . S
C4 C2 1.320 . S
C4 C5 1.405 . S
C4 H30 0.930 . S
C5 C0 1.479 . S
C5 C4 1.405 . S
C5 H31 0.931 . S
U6 O7 2.454 . S
U6 O8 2.458 . S
U6 C9 2.984 . S
U6 C10 2.847 . S
U6 C23 2.882 . S
U6 O24 2.441 . S
U6 O25 2.420 . S
U6 O26 2.455 . S
U6 O27 2.449 . S
O7 U6 2.454 . S
O7 C9 1.353 . S
O8 U6 2.458 . S
O8 C9 1.286 . S
C9 U6 2.984 . S
C9 O7 1.353 . S
C9 O8 1.286 . S
C9 C11 1.363 . S
C10 C0 1.465 . S
C10 U6 2.847 . S
C10 O24 1.249 . S
C10 O25 1.202 . S
C11 C9 1.363 . S
C11 C13 1.408 . S
C11 C16 1.342 . S
C12 C13 1.310 . S
C12 C15 1.461 . S
C12 H32 0.932 . S
C13 C11 1.408 . S
C13 C12 1.310 . S
C13 H33 0.930 . S
C14 C15 1.474 . S
C14 C16 1.285 . S
C14 H34 0.929 . S
C15 C12 1.461 . S
C15 C14 1.474 . S
C16 C11 1.342 . S
C16 C14 1.285 . S
C16 H35 0.930 . S
C17 C20 1.424 . S
C17 C22 1.245 . S
C17 C23 1.428 . S
C18 C21 1.260 . S
C18 C22 1.477 . S
C18 H36 0.932 . S
C19 C20 1.384 . S
C19 C21 1.479 . S
C19 H37 0.929 . S
C20 C17 1.424 . S
C20 C19 1.384 . S
C20 H38 0.928 . S
C21 C18 1.260 . S
C21 C19 1.479 . S
C22 C17 1.245 . S
C22 C18 1.477 . S
C22 H39 0.932 . S
C23 U6 2.882 . S
C23 C17 1.428 . S
C23 O26 1.301 . S
C23 O27 1.282 . S
O24 U6 2.441 . S
O24 C10 1.249 . S
O25 U6 2.420 . S
O25 C10 1.202 . S
O26 U6 2.455 . S
O26 C23 1.301 . S
O27 U6 2.449 . S
O27 C23 1.282 . S
H28 C1 0.931 . S
H29 C3 0.929 . S
H30 C4 0.930 . S
H31 C5 0.931 . S
H32 C12 0.932 . S
H33 C13 0.930 . S
H34 C14 0.929 . S
H35 C16 0.930 . S
H36 C18 0.932 . S
H37 C19 0.929 . S
H38 C20 0.928 . S
H39 C22 0.932 . S
C40 C41 1.264 . S
C40 C45 1.479 . S
C40 C50 1.465 . S
C41 C40 1.264 . S
C41 C43 1.339 . S
C41 H68 0.931 . S
C42 C43 1.395 . S
C42 C44 1.320 . S
C43 C41 1.339 . S
C43 C42 1.395 . S
C43 H69 0.929 . S
C44 C42 1.320 . S
C44 C45 1.405 . S
C44 H70 0.930 . S
C45 C40 1.479 . S
C45 C44 1.405 . S
C45 H71 0.931 . S
U46 O47 2.454 . S
U46 O48 2.458 . S
U46 C49 2.984 . S
U46 C50 2.847 . S
U46 C63 2.882 . S
U46 O64 2.441 . S
U46 O65 2.420 . S
U46 O66 2.455 . S
U46 O67 2.449 . S
O47 U46 2.454 . S
O47 C49 1.353 . S
O48 U46 2.458 . S
O48 C49 1.286 . S
C49 U46 2.984 . S
C49 O47 1.353 . S
C49 O48 1.286 . S
C49 C51 1.363 . S
C50 C40 1.465 . S
C50 U46 2.847 . S
C50 O64 1.249 . S
C50 O65 1.202 . S
C51 C49 1.363 . S
C51 C53 1.408 . S
C51 C56 1.342 . S
C52 C53 1.310 . S
C52 C55 1.461 . S
C52 H72 0.932 . S
C53 C51 1.408 . S
C53 C52 1.310 . S
C53 H73 0.930 . S
C54 C55 1.474 . S
C54 C56 1.285 . S
C54 H74 0.929 . S
C55 C52 1.461 . S
C55 C54 1.474 . S
C56 C51 1.342 . S
C56 C54 1.285 . S
C56 H75 0.930 . S
C57 C60 1.424 . S
C57 C62 1.245 . S
C57 C63 1.428 . S
C58 C61 1.260 . S
C58 C62 1.477 . S
C58 H76 0.932 . S
C59 C60 1.384 . S
C59 C61 1.479 . S
C59 H77 0.929 . S
C60 C57 1.424 . S
C60 C59 1.384 . S
C60 H78 0.928 . S
C61 C58 1.260 . S
C61 C59 1.479 . S
C62 C57 1.245 . S
C62 C58 1.477 . S
C62 H79 0.932 . S
C63 U46 2.882 . S
C63 C57 1.428 . S
C63 O66 1.301 . S
C63 O67 1.282 . S
O64 U46 2.441 . S
O64 C50 1.249 . S
O65 U46 2.420 . S
O65 C50 1.202 . S
O66 U46 2.455 . S
O66 C63 1.301 . S
O67 U46 2.449 . S
O67 C63 1.282 . S
H68 C41 0.931 . S
H69 C43 0.929 . S
H70 C44 0.930 . S
H71 C45 0.931 . S
H72 C52 0.932 . S
H73 C53 0.930 . S
H74 C54 0.929 . S
H75 C56 0.930 . S
H76 C58 0.932 . S
H77 C59 0.929 . S
H78 C60 0.928 . S
H79 C62 0.932 . S
C80 C81 1.264 . S
C80 C85 1.479 . S
C80 C90 1.465 . S
C81 C80 1.264 . S
C81 C83 1.339 . S
C81 H108 0.931 . S
C82 C83 1.395 . S
C82 C84 1.320 . S
C83 C81 1.339 . S
C83 C82 1.395 . S
C83 H109 0.929 . S
C84 C82 1.320 . S
C84 C85 1.405 . S
C84 H110 0.930 . S
C85 C80 1.479 . S
C85 C84 1.405 . S
C85 H111 0.931 . S
U86 O87 2.454 . S
U86 O88 2.458 . S
U86 C89 2.984 . S
U86 C90 2.847 . S
U86 C103 2.882 . S
U86 O104 2.441 . S
U86 O105 2.420 . S
U86 O106 2.455 . S
U86 O107 2.449 . S
O87 U86 2.454 . S
O87 C89 1.353 . S
O88 U86 2.458 . S
O88 C89 1.286 . S
C89 U86 2.984 . S
C89 O87 1.353 . S
C89 O88 1.286 . S
C89 C91 1.363 . S
C90 C80 1.465 . S
C90 U86 2.847 . S
C90 O104 1.249 . S
C90 O105 1.202 . S
C91 C89 1.363 . S
C91 C93 1.408 . S
C91 C96 1.342 . S
C92 C93 1.310 . S
C92 C95 1.461 . S
C92 H112 0.932 . S
C93 C91 1.408 . S
C93 C92 1.310 . S
C93 H113 0.930 . S
C94 C95 1.474 . S
C94 C96 1.285 . S
C94 H114 0.929 . S
C95 C92 1.461 . S
C95 C94 1.474 . S
C96 C91 1.342 . S
C96 C94 1.285 . S
C96 H115 0.930 . S
C97 C100 1.424 . S
C97 C102 1.245 . S
C97 C103 1.428 . S
C98 C101 1.260 . S
C98 C102 1.477 . S
C98 H116 0.932 . S
C99 C100 1.384 . S
C99 C101 1.479 . S
C99 H117 0.929 . S
C100 C97 1.424 . S
C100 C99 1.384 . S
C100 H118 0.928 . S
C101 C98 1.260 . S
C101 C99 1.479 . S
C102 C97 1.245 . S
C102 C98 1.477 . S
C102 H119 0.932 . S
C103 U86 2.882 . S
C103 C97 1.428 . S
C103 O106 1.301 . S
C103 O107 1.282 . S
O104 U86 2.441 . S
O104 C90 1.249 . S
O105 U86 2.420 . S
O105 C90 1.202 . S
O106 U86 2.455 . S
O106 C103 1.301 . S
O107 U86 2.449 . S
O107 C103 1.282 . S
H108 C81 0.931 . S
H109 C83 0.929 . S
H110 C84 0.930 . S
H111 C85 0.931 . S
H112 C92 0.932 . S
H113 C93 0.930 . S
H114 C94 0.929 . S
H115 C96 0.930 . S
H116 C98 0.932 . S
H117 C99 0.929 . S
H118 C100 0.928 . S
H119 C102 0.932 . S
C120 C121 1.264 . S
C120 C125 1.479 . S
C120 C130 1.465 . S
C121 C120 1.264 . S
C121 C123 1.339 . S
C121 H148 0.931 . S
C122 C123 1.395 . S
C122 C124 1.320 . S
C123 C121 1.339 . S
C123 C122 1.395 . S
C123 H149 0.929 . S
C124 C122 1.320 . S
C124 C125 1.405 . S
C124 H150 0.930 . S
C125 C120 1.479 . S
C125 C124 1.405 . S
C125 H151 0.931 . S
U126 O127 2.454 . S
U126 O128 2.458 . S
U126 C129 2.984 . S
U126 C130 2.847 . S
U126 C143 2.882 . S
U126 O144 2.441 . S
U126 O145 2.420 . S
U126 O146 2.455 . S
U126 O147 2.449 . S
O127 U126 2.454 . S
O127 C129 1.353 . S
O128 U126 2.458 . S
O128 C129 1.286 . S
C129 U126 2.984 . S
C129 O127 1.353 . S
C129 O128 1.286 . S
C129 C131 1.363 . S
C130 C120 1.465 . S
C130 U126 2.847 . S
C130 O144 1.249 . S
C130 O145 1.202 . S
C131 C129 1.363 . S
C131 C133 1.408 . S
C131 C136 1.342 . S
C132 C133 1.310 . S
C132 C135 1.461 . S
C132 H152 0.932 . S
C133 C131 1.408 . S
C133 C132 1.310 . S
C133 H153 0.930 . S
C134 C135 1.474 . S
C134 C136 1.285 . S
C134 H154 0.929 . S
C135 C132 1.461 . S
C135 C134 1.474 . S
C136 C131 1.342 . S
C136 C134 1.285 . S
C136 H155 0.930 . S
C137 C140 1.424 . S
C137 C142 1.245 . S
C137 C143 1.428 . S
C138 C141 1.260 . S
C138 C142 1.477 . S
C138 H156 0.932 . S
C139 C140 1.384 . S
C139 C141 1.479 . S
C139 H157 0.929 . S
C140 C137 1.424 . S
C140 C139 1.384 . S
C140 H158 0.928 . S
C141 C138 1.260 . S
C141 C139 1.479 . S
C142 C137 1.245 . S
C142 C138 1.477 . S
C142 H159 0.932 . S
C143 U126 2.882 . S
C143 C137 1.428 . S
C143 O146 1.301 . S
C143 O147 1.282 . S
O144 U126 2.441 . S
O144 C130 1.249 . S
O145 U126 2.420 . S
O145 C130 1.202 . S
O146 U126 2.455 . S
O146 C143 1.301 . S
O147 U126 2.449 . S
O147 C143 1.282 . S
H148 C121 0.931 . S
H149 C123 0.929 . S
H150 C124 0.930 . S
H151 C125 0.931 . S
H152 C132 0.932 . S
H153 C133 0.930 . S
H154 C134 0.929 . S
H155 C136 0.930 . S
H156 C138 0.932 . S
H157 C139 0.929 . S
H158 C140 0.928 . S
H159 C142 0.932 . S
C160 C161 1.264 . S
C160 C165 1.479 . S
C160 C170 1.465 . S
C161 C160 1.264 . S
C161 C163 1.339 . S
C161 H188 0.931 . S
C162 C163 1.395 . S
C162 C164 1.320 . S
C163 C161 1.339 . S
C163 C162 1.395 . S
C163 H189 0.929 . S
C164 C162 1.320 . S
C164 C165 1.405 . S
C164 H190 0.930 . S
C165 C160 1.479 . S
C165 C164 1.405 . S
C165 H191 0.931 . S
U166 O167 2.454 . S
U166 O168 2.458 . S
U166 C169 2.984 . S
U166 C170 2.847 . S
U166 C183 2.882 . S
U166 O184 2.441 . S
U166 O185 2.420 . S
U166 O186 2.455 . S
U166 O187 2.449 . S
O167 U166 2.454 . S
O167 C169 1.353 . S
O168 U166 2.458 . S
O168 C169 1.286 . S
C169 U166 2.984 . S
C169 O167 1.353 . S
C169 O168 1.286 . S
C169 C171 1.363 . S
C170 C160 1.465 . S
C170 U166 2.847 . S
C170 O184 1.249 . S
C170 O185 1.202 . S
C171 C169 1.363 . S
C171 C173 1.408 . S
C171 C176 1.342 . S
C172 C173 1.310 . S
C172 C175 1.461 . S
C172 H192 0.932 . S
C173 C171 1.408 . S
C173 C172 1.310 . S
C173 H193 0.930 . S
C174 C175 1.474 . S
C174 C176 1.285 . S
C174 H194 0.929 . S
C175 C172 1.461 . S
C175 C174 1.474 . S
C176 C171 1.342 . S
C176 C174 1.285 . S
C176 H195 0.930 . S
C177 C180 1.424 . S
C177 C182 1.245 . S
C177 C183 1.428 . S
C178 C181 1.260 . S
C178 C182 1.477 . S
C178 H196 0.932 . S
C179 C180 1.384 . S
C179 C181 1.479 . S
C179 H197 0.929 . S
C180 C177 1.424 . S
C180 C179 1.384 . S
C180 H198 0.928 . S
C181 C178 1.260 . S
C181 C179 1.479 . S
C182 C177 1.245 . S
C182 C178 1.477 . S
C182 H199 0.932 . S
C183 U166 2.882 . S
C183 C177 1.428 . S
C183 O186 1.301 . S
C183 O187 1.282 . S
O184 U166 2.441 . S
O184 C170 1.249 . S
O185 U166 2.420 . S
O185 C170 1.202 . S
O186 U166 2.455 . S
O186 C183 1.301 . S
O187 U166 2.449 . S
O187 C183 1.282 . S
H188 C161 0.931 . S
H189 C163 0.929 . S
H190 C164 0.930 . S
H191 C165 0.931 . S
H192 C172 0.932 . S
H193 C173 0.930 . S
H194 C174 0.929 . S
H195 C176 0.930 . S
H196 C178 0.932 . S
H197 C179 0.929 . S
H198 C180 0.928 . S
H199 C182 0.932 . S
C200 C201 1.264 . S
C200 C205 1.479 . S
C200 C210 1.465 . S
C201 C200 1.264 . S
C201 C203 1.339 . S
C201 H228 0.931 . S
C202 C203 1.395 . S
C202 C204 1.320 . S
C203 C201 1.339 . S
C203 C202 1.395 . S
C203 H229 0.929 . S
C204 C202 1.320 . S
C204 C205 1.405 . S
C204 H230 0.930 . S
C205 C200 1.479 . S
C205 C204 1.405 . S
C205 H231 0.931 . S
U206 O207 2.454 . S
U206 O208 2.458 . S
U206 C209 2.984 . S
U206 C210 2.847 . S
U206 C223 2.882 . S
U206 O224 2.441 . S
U206 O225 2.420 . S
U206 O226 2.455 . S
U206 O227 2.449 . S
O207 U206 2.454 . S
O207 C209 1.353 . S
O208 U206 2.458 . S
O208 C209 1.286 . S
C209 U206 2.984 . S
C209 O207 1.353 . S
C209 O208 1.286 . S
C209 C211 1.363 . S
C210 C200 1.465 . S
C210 U206 2.847 . S
C210 O224 1.249 . S
C210 O225 1.202 . S
C211 C209 1.363 . S
C211 C213 1.408 . S
C211 C216 1.342 . S
C212 C213 1.310 . S
C212 C215 1.461 . S
C212 H232 0.932 . S
C213 C211 1.408 . S
C213 C212 1.310 . S
C213 H233 0.930 . S
C214 C215 1.474 . S
C214 C216 1.285 . S
C214 H234 0.929 . S
C215 C212 1.461 . S
C215 C214 1.474 . S
C216 C211 1.342 . S
C216 C214 1.285 . S
C216 H235 0.930 . S
C217 C220 1.424 . S
C217 C222 1.245 . S
C217 C223 1.428 . S
C218 C221 1.260 . S
C218 C222 1.477 . S
C218 H236 0.932 . S
C219 C220 1.384 . S
C219 C221 1.479 . S
C219 H237 0.929 . S
C220 C217 1.424 . S
C220 C219 1.384 . S
C220 H238 0.928 . S
C221 C218 1.260 . S
C221 C219 1.479 . S
C222 C217 1.245 . S
C222 C218 1.477 . S
C222 H239 0.932 . S
C223 U206 2.882 . S
C223 C217 1.428 . S
C223 O226 1.301 . S
C223 O227 1.282 . S
O224 U206 2.441 . S
O224 C210 1.249 . S
O225 U206 2.420 . S
O225 C210 1.202 . S
O226 U206 2.455 . S
O226 C223 1.301 . S
O227 U206 2.449 . S
O227 C223 1.282 . S
H228 C201 0.931 . S
H229 C203 0.929 . S
H230 C204 0.930 . S
H231 C205 0.931 . S
H232 C212 0.932 . S
H233 C213 0.930 . S
H234 C214 0.929 . S
H235 C216 0.930 . S
H236 C218 0.932 . S
H237 C219 0.929 . S
H238 C220 0.928 . S
H239 C222 0.932 . S
C240 C241 1.264 . S
C240 C245 1.479 . S
C240 C250 1.465 . S
C241 C240 1.264 . S
C241 C243 1.339 . S
C241 H268 0.931 . S
C242 C243 1.395 . S
C242 C244 1.320 . S
C243 C241 1.339 . S
C243 C242 1.395 . S
C243 H269 0.929 . S
C244 C242 1.320 . S
C244 C245 1.405 . S
C244 H270 0.930 . S
C245 C240 1.479 . S
C245 C244 1.405 . S
C245 H271 0.931 . S
U246 O247 2.454 . S
U246 O248 2.458 . S
U246 C249 2.984 . S
U246 C250 2.847 . S
U246 C263 2.882 . S
U246 O264 2.441 . S
U246 O265 2.420 . S
U246 O266 2.455 . S
U246 O267 2.449 . S
O247 U246 2.454 . S
O247 C249 1.353 . S
O248 U246 2.458 . S
O248 C249 1.286 . S
C249 U246 2.984 . S
C249 O247 1.353 . S
C249 O248 1.286 . S
C249 C251 1.363 . S
C250 C240 1.465 . S
C250 U246 2.847 . S
C250 O264 1.249 . S
C250 O265 1.202 . S
C251 C249 1.363 . S
C251 C253 1.408 . S
C251 C256 1.342 . S
C252 C253 1.310 . S
C252 C255 1.461 . S
C252 H272 0.932 . S
C253 C251 1.408 . S
C253 C252 1.310 . S
C253 H273 0.930 . S
C254 C255 1.474 . S
C254 C256 1.285 . S
C254 H274 0.929 . S
C255 C252 1.461 . S
C255 C254 1.474 . S
C256 C251 1.342 . S
C256 C254 1.285 . S
C256 H275 0.930 . S
C257 C260 1.424 . S
C257 C262 1.245 . S
C257 C263 1.428 . S
C258 C261 1.260 . S
C258 C262 1.477 . S
C258 H276 0.932 . S
C259 C260 1.384 . S
C259 C261 1.479 . S
C259 H277 0.929 . S
C260 C257 1.424 . S
C260 C259 1.384 . S
C260 H278 0.928 . S
C261 C258 1.260 . S
C261 C259 1.479 . S
C262 C257 1.245 . S
C262 C258 1.477 . S
C262 H279 0.932 . S
C263 U246 2.882 . S
C263 C257 1.428 . S
C263 O266 1.301 . S
C263 O267 1.282 . S
O264 U246 2.441 . S
O264 C250 1.249 . S
O265 U246 2.420 . S
O265 C250 1.202 . S
O266 U246 2.455 . S
O266 C263 1.301 . S
O267 U246 2.449 . S
O267 C263 1.282 . S
H268 C241 0.931 . S
H269 C243 0.929 . S
H270 C244 0.930 . S
H271 C245 0.931 . S
H272 C252 0.932 . S
H273 C253 0.930 . S
H274 C254 0.929 . S
H275 C256 0.930 . S
H276 C258 0.932 . S
H277 C259 0.929 . S
H278 C260 0.928 . S
H279 C262 0.932 . S
C280 C281 1.264 . S
C280 C285 1.479 . S
C280 C290 1.465 . S
C281 C280 1.264 . S
C281 C283 1.339 . S
C281 H308 0.931 . S
C282 C283 1.395 . S
C282 C284 1.320 . S
C283 C281 1.339 . S
C283 C282 1.395 . S
C283 H309 0.929 . S
C284 C282 1.320 . S
C284 C285 1.405 . S
C284 H310 0.930 . S
C285 C280 1.479 . S
C285 C284 1.405 . S
C285 H311 0.931 . S
U286 O287 2.454 . S
U286 O288 2.458 . S
U286 C289 2.984 . S
U286 C290 2.847 . S
U286 C303 2.882 . S
U286 O304 2.441 . S
U286 O305 2.420 . S
U286 O306 2.455 . S
U286 O307 2.449 . S
O287 U286 2.454 . S
O287 C289 1.353 . S
O288 U286 2.458 . S
O288 C289 1.286 . S
C289 U286 2.984 . S
C289 O287 1.353 . S
C289 O288 1.286 . S
C289 C291 1.363 . S
C290 C280 1.465 . S
C290 U286 2.847 . S
C290 O304 1.249 . S
C290 O305 1.202 . S
C291 C289 1.363 . S
C291 C293 1.408 . S
C291 C296 1.342 . S
C292 C293 1.310 . S
C292 C295 1.461 . S
C292 H312 0.932 . S
C293 C291 1.408 . S
C293 C292 1.310 . S
C293 H313 0.930 . S
C294 C295 1.474 . S
C294 C296 1.285 . S
C294 H314 0.929 . S
C295 C292 1.461 . S
C295 C294 1.474 . S
C296 C291 1.342 . S
C296 C294 1.285 . S
C296 H315 0.930 . S
C297 C300 1.424 . S
C297 C302 1.245 . S
C297 C303 1.428 . S
C298 C301 1.260 . S
C298 C302 1.477 . S
C298 H316 0.932 . S
C299 C300 1.384 . S
C299 C301 1.479 . S
C299 H317 0.929 . S
C300 C297 1.424 . S
C300 C299 1.384 . S
C300 H318 0.928 . S
C301 C298 1.260 . S
C301 C299 1.479 . S
C302 C297 1.245 . S
C302 C298 1.477 . S
C302 H319 0.932 . S
C303 U286 2.882 . S
C303 C297 1.428 . S
C303 O306 1.301 . S
C303 O307 1.282 . S
O304 U286 2.441 . S
O304 C290 1.249 . S
O305 U286 2.420 . S
O305 C290 1.202 . S
O306 U286 2.455 . S
O306 C303 1.301 . S
O307 U286 2.449 . S
O307 C303 1.282 . S
H308 C281 0.931 . S
H309 C283 0.929 . S
H310 C284 0.930 . S
H311 C285 0.931 . S
H312 C292 0.932 . S
H313 C293 0.930 . S
H314 C294 0.929 . S
H315 C296 0.930 . S
H316 C298 0.932 . S
H317 C299 0.929 . S
H318 C300 0.928 . S
H319 C302 0.932 . S
O320 Mg321 1.990 . S
O320 C334 1.253 1_445 S
Mg321 O320 1.990 . S
Mg321 O324 2.180 . S
Mg321 O325 2.117 . S
Mg321 O339 2.030 1_545 S
O322 Mg323 2.072 1_665 S
O322 C334 1.260 . S
Mg323 O322 2.072 1_445 S
Mg323 O324 2.099 . S
Mg323 O326 2.079 . S
Mg323 O327 2.072 1_455 S
Mg323 O329 2.099 1_445 S
Mg323 O340 2.079 1_545 S
O324 Mg321 2.180 . S
O324 Mg323 2.099 . S
O324 C335 1.279 . S
O325 Mg321 2.117 . S
O325 C335 1.250 . S
O326 Mg323 2.079 . S
O326 C336 1.264 . S
O327 Mg323 2.072 1_655 S
O327 C337 1.260 . S
Mg328 O329 2.180 . S
Mg328 O330 2.030 1_565 S
Mg328 O331 1.990 1_565 S
Mg328 O332 2.117 . S
O329 Mg323 2.099 1_665 S
O329 Mg328 2.180 . S
O329 C338 1.279 . S
O330 Mg328 2.030 1_545 S
O330 C336 1.248 1_655 S
O331 Mg328 1.990 1_545 S
O331 C337 1.253 . S
O332 Mg328 2.117 . S
O332 C338 1.250 . S
C333 O339 1.248 . S
C333 O340 1.264 . S
C334 O320 1.253 1_665 S
C334 O322 1.260 . S
C335 O324 1.279 . S
C335 O325 1.250 . S
C336 O326 1.264 . S
C336 O330 1.248 1_455 S
C337 O327 1.260 . S
C337 O331 1.253 . S
C338 O329 1.279 . S
C338 O332 1.250 . S
O339 Mg321 2.030 1_565 S
O339 C333 1.248 . S
O340 Mg323 2.079 1_565 S
O340 C333 1.264 . S
O341 Mg342 1.990 . S
O341 C355 1.253 . S
Mg342 O341 1.990 . S
Mg342 O345 2.180 . S
Mg342 O346 2.117 1_554 S
Mg342 O360 2.030 . S
O343 Mg344 2.072 . S
O343 C355 1.260 . S
Mg344 O343 2.072 . S
Mg344 O345 2.099 . S
Mg344 O347 2.079 1_554 S
Mg344 O348 2.072 1_554 S
Mg344 O350 2.099 1_545 S
Mg344 O361 2.079 . S
O345 Mg342 2.180 . S
O345 Mg344 2.099 . S
O345 C356 1.279 1_554 S
O346 Mg342 2.117 1_556 S
O346 C356 1.250 . S
O347 Mg344 2.079 1_556 S
O347 C357 1.264 1_545 S
O348 Mg344 2.072 1_556 S
O348 C358 1.260 1_545 S
Mg349 O350 2.180 1_556 S
Mg349 O351 2.030 . S
Mg349 O352 1.990 . S
Mg349 O353 2.117 1_556 S
O350 Mg344 2.099 1_565 S
O350 Mg349 2.180 1_554 S
O350 C359 1.279 . S
O351 Mg349 2.030 . S
O351 C357 1.248 . S
O352 Mg349 1.990 . S
O352 C358 1.253 . S
O353 Mg349 2.117 1_554 S
O353 C359 1.250 . S
C354 O360 1.248 . S
C354 O361 1.264 . S
C355 O341 1.253 . S
C355 O343 1.260 . S
C356 O345 1.279 1_556 S
C356 O346 1.250 . S
C357 O347 1.264 1_565 S
C357 O351 1.248 . S
C358 O348 1.260 1_565 S
C358 O352 1.253 . S
C359 O350 1.279 . S
C359 O353 1.250 . S
O360 Mg342 2.030 . S
O360 C354 1.248 . S
O361 Mg344 2.079 . S
O361 C354 1.264 . S
O362 Mg363 1.990 . S
O362 C376 1.253 . S
Mg363 O362 1.990 . S
Mg363 O366 2.180 . S
Mg363 O367 2.117 . S
Mg363 O381 2.030 . S
O364 Mg365 2.072 . S
O364 C376 1.260 . S
Mg365 O364 2.072 . S
Mg365 O366 2.099 . S
Mg365 O368 2.079 . S
Mg365 O369 2.072 . S
Mg365 O371 2.099 . S
Mg365 O382 2.079 . S
O366 Mg363 2.180 . S
O366 Mg365 2.099 . S
O366 C377 1.279 . S
O367 Mg363 2.117 . S
O367 C377 1.250 . S
O368 Mg365 2.079 . S
O368 C378 1.264 . S
O369 Mg365 2.072 . S
O369 C379 1.260 . S
Mg370 O371 2.180 . S
Mg370 O372 2.030 . S
Mg370 O373 1.990 . S
Mg370 O374 2.117 . S
O371 Mg365 2.099 . S
O371 Mg370 2.180 . S
O371 C380 1.279 . S
O372 Mg370 2.030 . S
O372 C378 1.248 . S
O373 Mg370 1.990 . S
O373 C379 1.253 . S
O374 Mg370 2.117 . S
O374 C380 1.250 . S
C375 O381 1.248 . S
C375 O382 1.264 . S
C376 O362 1.253 . S
C376 O364 1.260 . S
C377 O366 1.279 . S
C377 O367 1.250 . S
C378 O368 1.264 . S
C378 O372 1.248 . S
C379 O369 1.260 . S
C379 O373 1.253 . S
C380 O371 1.279 . S
C380 O374 1.250 . S
O381 Mg363 2.030 . S
O381 C375 1.248 . S
O382 Mg365 2.079 . S
O382 C375 1.264 . S
O383 Mg384 1.990 . S
O383 C397 1.253 . S
Mg384 O383 1.990 . S
Mg384 O387 2.180 1_455 S
Mg384 O388 2.117 1_455 S
Mg384 O402 2.030 . S
O385 Mg386 2.072 . S
O385 C397 1.260 . S
Mg386 O385 2.072 . S
Mg386 O387 2.099 1_455 S
Mg386 O389 2.079 1_454 S
Mg386 O390 2.072 1_455 S
Mg386 O392 2.099 1_554 S
Mg386 O403 2.079 . S
O387 Mg384 2.180 1_655 S
O387 Mg386 2.099 1_655 S
O387 C398 1.279 . S
O388 Mg384 2.117 1_655 S
O388 C398 1.250 . S
O389 Mg386 2.079 1_656 S
O389 C399 1.264 . S
O390 Mg386 2.072 1_655 S
O390 C400 1.260 1_554 S
Mg391 O392 2.180 1_655 S
Mg391 O393 2.030 . S
Mg391 O394 1.990 . S
Mg391 O395 2.117 . S
O392 Mg386 2.099 1_556 S
O392 Mg391 2.180 1_455 S
O392 C401 1.279 . S
O393 Mg391 2.030 . S
O393 C399 1.248 . S
O394 Mg391 1.990 . S
O394 C400 1.253 . S
O395 Mg391 2.117 . S
O395 C401 1.250 1_655 S
C396 O402 1.248 . S
C396 O403 1.264 . S
C397 O383 1.253 . S
C397 O385 1.260 . S
C398 O387 1.279 . S
C398 O388 1.250 . S
C399 O389 1.264 . S
C399 O393 1.248 . S
C400 O390 1.260 1_556 S
C400 O394 1.253 . S
C401 O392 1.279 . S
C401 O395 1.250 1_455 S
O402 Mg384 2.030 . S
O402 C396 1.248 . S
O403 Mg386 2.079 . S
O403 C396 1.264 . S
H404 C416 0.930 . S
H405 C418 0.930 . S
H406 C419 0.930 . S
H407 C423 0.959 1_655 S
H408 C423 0.959 1_655 S
H409 C423 0.960 1_655 S
H410 C424 0.954 1_565 S
H411 C424 0.937 1_565 S
H412 C424 0.956 . S
H413 C427 0.929 . S
H414 C428 0.931 . S
H415 C430 0.930 . S
C416 H404 0.930 . S
C416 C417 1.399 . S
C416 C421 1.399 . S
C417 C416 1.399 . S
C417 C418 1.376 . S
C418 H405 0.930 . S
C418 C417 1.376 . S
C418 C419 1.388 . S
C419 H406 0.930 . S
C419 C418 1.388 . S
C419 C420 1.390 . S
C420 C419 1.390 . S
C420 C421 1.394 . S
C420 C426 1.465 . S
C421 C416 1.399 . S
C421 C420 1.394 . S
C421 C422 1.516 . S
C422 C421 1.516 . S
C422 C423 1.502 . S
C422 C424 1.597 . S
C422 C425 1.526 . S
C423 H407 0.959 1_455 S
C423 H408 0.959 1_455 S
C423 H409 0.960 1_455 S
C423 C422 1.502 . S
C424 H410 0.954 1_545 S
C424 H411 0.937 1_545 S
C424 H412 0.956 . S
C424 C422 1.597 . S
C425 C422 1.526 . S
C425 C426 1.396 . S
C425 C430 1.390 . S
C426 C420 1.465 . S
C426 C425 1.396 . S
C426 C427 1.399 . S
C427 H413 0.929 . S
C427 C426 1.399 . S
C427 C428 1.385 . S
C428 H414 0.931 . S
C428 C427 1.385 . S
C428 C429 1.389 . S
C429 C428 1.389 . S
C429 C430 1.387 . S
C430 H415 0.930 . S
C430 C425 1.390 . S
C430 C429 1.387 . S
H431 C443 0.930 . S
H432 C445 0.930 . S
H433 C446 0.930 . S
H434 C450 0.959 . S
H435 C450 0.959 . S
H436 C450 0.961 . S
H437 C451 0.960 . S
H438 C451 0.961 1_545 S
H439 C451 0.959 . S
H440 C454 0.929 . S
H441 C455 0.931 . S
H442 C457 0.930 1_545 S
C443 H431 0.930 . S
C443 C444 1.399 . S
C443 C448 1.399 . S
C444 C443 1.399 . S
C444 C445 1.376 . S
C445 H432 0.930 . S
C445 C444 1.376 . S
C445 C446 1.388 . S
C446 H433 0.930 . S
C446 C445 1.388 . S
C446 C447 1.390 . S
C447 C446 1.390 . S
C447 C448 1.394 . S
C447 C453 1.465 . S
C448 C443 1.399 . S
C448 C447 1.394 . S
C448 C449 1.516 . S
C449 C448 1.516 . S
C449 C450 1.502 1_565 S
C449 C451 1.561 . S
C449 C452 1.526 . S
C450 H434 0.959 . S
C450 H435 0.959 . S
C450 H436 0.961 . S
C450 C449 1.502 1_545 S
C451 H437 0.960 . S
C451 H438 0.961 1_565 S
C451 H439 0.959 . S
C451 C449 1.561 . S
C452 C449 1.526 . S
C452 C453 1.396 . S
C452 C457 1.390 . S
C453 C447 1.465 . S
C453 C452 1.396 . S
C453 C454 1.399 . S
C454 H440 0.929 . S
C454 C453 1.399 . S
C454 C455 1.385 . S
C455 H441 0.931 . S
C455 C454 1.385 . S
C455 C456 1.389 . S
C456 C455 1.389 . S
C456 C457 1.387 . S
C457 H442 0.930 1_565 S
C457 C452 1.390 . S
C457 C456 1.387 . S
H458 C470 0.930 . S
H459 C472 0.930 . S
H460 C473 0.930 . S
H461 C477 0.959 . S
H462 C477 0.959 . S
H463 C477 0.961 . S
H464 C478 0.960 . S
H465 C478 0.961 . S
H466 C478 0.959 . S
H467 C481 0.929 . S
H468 C482 0.931 . S
H469 C484 0.930 . S
C470 H458 0.930 . S
C470 C471 1.399 . S
C470 C475 1.399 . S
C471 C470 1.399 . S
C471 C472 1.376 . S
C472 H459 0.930 . S
C472 C471 1.376 . S
C472 C473 1.388 . S
C473 H460 0.930 . S
C473 C472 1.388 . S
C473 C474 1.390 . S
C474 C473 1.390 . S
C474 C475 1.394 . S
C474 C480 1.465 . S
C475 C470 1.399 . S
C475 C474 1.394 . S
C475 C476 1.516 . S
C476 C475 1.516 . S
C476 C477 1.502 . S
C476 C478 1.561 . S
C476 C479 1.526 . S
C477 H461 0.959 . S
C477 H462 0.959 . S
C477 H463 0.961 . S
C477 C476 1.502 . S
C478 H464 0.960 . S
C478 H465 0.961 . S
C478 H466 0.959 . S
C478 C476 1.561 . S
C479 C476 1.526 . S
C479 C480 1.396 . S
C479 C484 1.390 . S
C480 C474 1.465 . S
C480 C479 1.396 . S
C480 C481 1.399 . S
C481 H467 0.929 . S
C481 C480 1.399 . S
C481 C482 1.385 . S
C482 H468 0.931 . S
C482 C481 1.385 . S
C482 C483 1.389 . S
C483 C482 1.389 . S
C483 C484 1.387 . S
C484 H469 0.930 . S
C484 C479 1.390 . S
C484 C483 1.387 . S
H485 C497 0.930 . S
H486 C499 0.930 . S
H487 C500 0.930 . S
H488 C504 0.959 . S
H489 C504 0.959 . S
H490 C504 0.961 . S
H491 C505 0.960 . S
H492 C505 0.961 . S
H493 C505 0.959 . S
H494 C508 0.929 . S
H495 C509 0.931 . S
H496 C511 0.930 . S
C497 H485 0.930 . S
C497 C498 1.399 . S
C497 C502 1.399 . S
C498 C497 1.399 . S
C498 C499 1.376 . S
C499 H486 0.930 . S
C499 C498 1.376 . S
C499 C500 1.388 . S
C500 H487 0.930 . S
C500 C499 1.388 . S
C500 C501 1.390 . S
C501 C500 1.390 . S
C501 C502 1.394 . S
C501 C507 1.465 . S
C502 C497 1.399 . S
C502 C501 1.394 . S
C502 C503 1.516 . S
C503 C502 1.516 . S
C503 C504 1.502 . S
C503 C505 1.561 . S
C503 C506 1.526 . S
C504 H488 0.959 . S
C504 H489 0.959 . S
C504 H490 0.961 . S
C504 C503 1.502 . S
C505 H491 0.960 . S
C505 H492 0.961 . S
C505 H493 0.959 . S
C505 C503 1.561 . S
C506 C503 1.526 . S
C506 C507 1.396 . S
C506 C511 1.390 . S
C507 C501 1.465 . S
C507 C506 1.396 . S
C507 C508 1.399 . S
C508 H494 0.929 . S
C508 C507 1.399 . S
C508 C509 1.385 . S
C509 H495 0.931 . S
C509 C508 1.385 . S
C509 C510 1.389 . S
C510 C509 1.389 . S
C510 C511 1.387 . S
C511 H496 0.930 . S
C511 C506 1.390 . S
C511 C510 1.387 . S
H512 C524 0.930 . S
H513 C526 0.930 . S
H514 C527 0.930 . S
H515 C531 0.959 . S
H516 C531 0.959 1_565 S
H517 C531 0.961 1_565 S
H518 C532 0.960 . S
H519 C532 0.961 . S
H520 C532 0.959 1_556 S
H521 C535 0.929 . S
H522 C536 0.931 . S
H523 C538 0.930 . S
C524 H512 0.930 . S
C524 C525 1.399 . S
C524 C529 1.399 . S
C525 C524 1.399 . S
C525 C526 1.376 . S
C526 H513 0.930 . S
C526 C525 1.376 . S
C526 C527 1.388 . S
C527 H514 0.930 . S
C527 C526 1.388 . S
C527 C528 1.390 . S
C528 C527 1.390 . S
C528 C529 1.394 . S
C528 C534 1.465 . S
C529 C524 1.399 . S
C529 C528 1.394 . S
C529 C530 1.516 . S
C530 C529 1.516 . S
C530 C531 1.502 . S
C530 C532 1.561 . S
C530 C533 1.526 . S
C531 H515 0.959 . S
C531 H516 0.959 1_545 S
C531 H517 0.961 1_545 S
C531 C530 1.502 . S
C532 H518 0.960 . S
C532 H519 0.961 . S
C532 H520 0.959 1_554 S
C532 C530 1.561 . S
C533 C530 1.526 . S
C533 C534 1.396 . S
C533 C538 1.390 . S
C534 C528 1.465 . S
C534 C533 1.396 . S
C534 C535 1.399 . S
C535 H521 0.929 . S
C535 C534 1.399 . S
C535 C536 1.385 . S
C536 H522 0.931 . S
C536 C535 1.385 . S
C536 C537 1.389 . S
C537 C536 1.389 . S
C537 C538 1.387 . S
C538 H523 0.930 . S
C538 C533 1.390 . S
C538 C537 1.387 . S
H539 C551 0.930 . S
H540 C553 0.930 . S
H541 C554 0.930 . S
H542 C558 0.959 . S
H543 C558 0.959 . S
H544 C558 0.961 . S
H545 C559 0.960 . S
H546 C559 0.961 . S
H547 C559 0.959 . S
H548 C562 0.929 . S
H549 C563 0.932 1_545 S
H550 C565 0.930 . S
C551 H539 0.930 . S
C551 C552 1.399 . S
C551 C556 1.399 . S
C552 C551 1.399 . S
C552 C553 1.376 . S
C553 H540 0.930 . S
C553 C552 1.376 . S
C553 C554 1.388 . S
C554 H541 0.930 . S
C554 C553 1.388 . S
C554 C555 1.390 . S
C555 C554 1.390 . S
C555 C556 1.394 . S
C555 C561 1.465 . S
C556 C551 1.399 . S
C556 C555 1.394 . S
C556 C557 1.516 . S
C557 C556 1.516 . S
C557 C558 1.502 . S
C557 C559 1.561 . S
C557 C560 1.526 . S
C558 H542 0.959 . S
C558 H543 0.959 . S
C558 H544 0.961 . S
C558 C557 1.502 . S
C559 H545 0.960 . S
C559 H546 0.961 . S
C559 H547 0.959 . S
C559 C557 1.561 . S
C560 C557 1.526 . S
C560 C561 1.396 . S
C560 C565 1.390 . S
C561 C555 1.465 . S
C561 C560 1.396 . S
C561 C562 1.399 . S
C562 H548 0.929 . S
C562 C561 1.399 . S
C562 C563 1.385 . S
C563 H549 0.932 1_565 S
C563 C562 1.385 . S
C563 C564 1.389 . S
C564 C563 1.389 . S
C564 C565 1.387 . S
C565 H550 0.930 . S
C565 C560 1.390 . S
C565 C564 1.387 . S
H566 C578 0.930 . S
H567 C580 0.930 . S
H568 C581 0.930 . S
H569 C585 0.959 . S
H570 C585 0.959 . S
H571 C585 0.961 . S
H572 C586 0.960 . S
H573 C586 0.961 . S
H574 C586 0.959 . S
H575 C589 0.929 . S
H576 C590 0.931 . S
H577 C592 0.930 1_554 S
C578 H566 0.930 . S
C578 C579 1.399 . S
C578 C583 1.399 . S
C579 C578 1.399 . S
C579 C580 1.376 . S
C580 H567 0.930 . S
C580 C579 1.376 . S
C580 C581 1.388 . S
C581 H568 0.930 . S
C581 C580 1.388 . S
C581 C582 1.390 . S
C582 C581 1.390 . S
C582 C583 1.394 . S
C582 C588 1.465 . S
C583 C578 1.399 . S
C583 C582 1.394 . S
C583 C584 1.516 . S
C584 C583 1.516 . S
C584 C585 1.502 1_556 S
C584 C586 1.561 . S
C584 C587 1.526 . S
C585 H569 0.959 . S
C585 H570 0.959 . S
C585 H571 0.961 . S
C585 C584 1.502 1_554 S
C586 H572 0.960 . S
C586 H573 0.961 . S
C586 H574 0.959 . S
C586 C584 1.561 . S
C587 C584 1.526 . S
C587 C588 1.396 . S
C587 C592 1.390 . S
C588 C582 1.465 . S
C588 C587 1.396 . S
C588 C589 1.399 . S
C589 H575 0.929 . S
C589 C588 1.399 . S
C589 C590 1.385 . S
C590 H576 0.931 . S
C590 C589 1.385 . S
C590 C591 1.389 . S
C591 C590 1.389 . S
C591 C592 1.387 . S
C592 H577 0.930 1_556 S
C592 C587 1.390 . S
C592 C591 1.387 . S
H593 C605 0.930 . S
H594 C607 0.930 . S
H595 C608 0.930 . S
H596 C612 0.959 . S
H597 C612 0.959 . S
H598 C612 0.961 . S
H599 C613 0.960 . S
H600 C613 0.961 . S
H601 C613 0.959 . S
H602 C616 0.929 . S
H603 C617 0.931 . S
H604 C619 0.930 . S
C605 H593 0.930 . S
C605 C606 1.399 . S
C605 C610 1.399 . S
C606 C605 1.399 . S
C606 C607 1.376 . S
C607 H594 0.930 . S
C607 C606 1.376 . S
C607 C608 1.388 . S
C608 H595 0.930 . S
C608 C607 1.388 . S
C608 C609 1.390 . S
C609 C608 1.390 . S
C609 C610 1.394 . S
C609 C615 1.465 . S
C610 C605 1.399 . S
C610 C609 1.394 . S
C610 C611 1.516 . S
C611 C610 1.516 . S
C611 C612 1.502 . S
C611 C613 1.561 . S
C611 C614 1.526 . S
C612 H596 0.959 . S
C612 H597 0.959 . S
C612 H598 0.961 . S
C612 C611 1.502 . S
C613 H599 0.960 . S
C613 H600 0.961 . S
C613 H601 0.959 . S
C613 C611 1.561 . S
C614 C611 1.526 . S
C614 C615 1.396 . S
C614 C619 1.390 . S
C615 C609 1.465 . S
C615 C614 1.396 . S
C615 C616 1.399 . S
C616 H602 0.929 . S
C616 C615 1.399 . S
C616 C617 1.385 . S
C617 H603 0.931 . S
C617 C616 1.385 . S
C617 C618 1.389 . S
C618 C617 1.389 . S
C618 C619 1.387 . S
C619 H604 0.930 . S
C619 C614 1.390 . S
C619 C618 1.387 . S
H620 C632 0.930 . S
H621 C634 0.930 . S
H622 C635 0.930 . S
H623 C639 0.959 . S
H624 C639 0.959 1_556 S
H625 C639 0.961 . S
H626 C640 0.960 . S
H627 C640 0.961 . S
H628 C640 0.959 . S
H629 C643 0.929 . S
H630 C644 0.931 . S
H631 C646 0.930 . S
C632 H620 0.930 . S
C632 C633 1.399 . S
C632 C637 1.399 . S
C633 C632 1.399 . S
C633 C634 1.376 . S
C634 H621 0.930 . S
C634 C633 1.376 . S
C634 C635 1.388 . S
C635 H622 0.930 . S
C635 C634 1.388 . S
C635 C636 1.390 . S
C636 C635 1.390 . S
C636 C637 1.394 . S
C636 C642 1.465 . S
C637 C632 1.399 . S
C637 C636 1.394 . S
C637 C638 1.516 . S
C638 C637 1.516 . S
C638 C639 1.502 . S
C638 C640 1.561 1_554 S
C638 C641 1.526 . S
C639 H623 0.959 . S
C639 H624 0.959 1_554 S
C639 H625 0.961 . S
C639 C638 1.502 . S
C640 H626 0.960 . S
C640 H627 0.961 . S
C640 H628 0.959 . S
C640 C638 1.561 1_556 S
C641 C638 1.526 . S
C641 C642 1.396 . S
C641 C646 1.390 . S
C642 C636 1.465 . S
C642 C641 1.396 . S
C642 C643 1.399 . S
C643 H629 0.929 . S
C643 C642 1.399 . S
C643 C644 1.385 . S
C644 H630 0.931 . S
C644 C643 1.385 . S
C644 C645 1.389 . S
C645 C644 1.389 . S
C645 C646 1.387 . S
C646 H631 0.930 . S
C646 C641 1.390 . S
C646 C645 1.387 . S
H647 C659 0.930 . S
H648 C661 0.930 . S
H649 C662 0.930 . S
H650 C666 0.959 . S
H651 C666 0.959 . S
H652 C666 0.961 . S
H653 C667 0.960 . S
H654 C667 0.961 . S
H655 C667 0.959 . S
H656 C670 0.929 1_554 S
H657 C671 0.931 1_554 S
H658 C673 0.930 . S
C659 H647 0.930 . S
C659 C660 1.399 . S
C659 C664 1.399 . S
C660 C659 1.399 . S
C660 C661 1.376 . S
C661 H648 0.930 . S
C661 C660 1.376 . S
C661 C662 1.388 . S
C662 H649 0.930 . S
C662 C661 1.388 . S
C662 C663 1.390 . S
C663 C662 1.390 . S
C663 C664 1.394 . S
C663 C669 1.465 . S
C664 C659 1.399 . S
C664 C663 1.394 . S
C664 C665 1.516 . S
C665 C664 1.516 . S
C665 C666 1.502 . S
C665 C667 1.561 . S
C665 C668 1.526 . S
C666 H650 0.959 . S
C666 H651 0.959 . S
C666 H652 0.961 . S
C666 C665 1.502 . S
C667 H653 0.960 . S
C667 H654 0.961 . S
C667 H655 0.959 . S
C667 C665 1.561 . S
C668 C665 1.526 . S
C668 C669 1.396 . S
C668 C673 1.390 . S
C669 C663 1.465 . S
C669 C668 1.396 . S
C669 C670 1.399 . S
C670 H656 0.929 1_556 S
C670 C669 1.399 . S
C670 C671 1.385 . S
C671 H657 0.931 1_556 S
C671 C670 1.385 . S
C671 C672 1.389 . S
C672 C671 1.389 . S
C672 C673 1.387 . S
C673 H658 0.930 . S
C673 C668 1.390 . S
C673 C672 1.387 . S
H674 C686 0.930 . S
H675 C688 0.930 . S
H676 C689 0.930 . S
H677 C693 0.959 . S
H678 C693 0.959 . S
H679 C693 0.961 . S
H680 C694 0.960 . S
H681 C694 0.961 . S
H682 C694 0.959 . S
H683 C697 0.929 . S
H684 C698 0.931 . S
H685 C700 0.930 . S
C686 H674 0.930 . S
C686 C687 1.399 . S
C686 C691 1.399 . S
C687 C686 1.399 . S
C687 C688 1.376 . S
C688 H675 0.930 . S
C688 C687 1.376 . S
C688 C689 1.388 . S
C689 H676 0.930 . S
C689 C688 1.388 . S
C689 C690 1.390 . S
C690 C689 1.390 . S
C690 C691 1.394 . S
C690 C696 1.465 . S
C691 C686 1.399 . S
C691 C690 1.394 . S
C691 C692 1.516 . S
C692 C691 1.516 . S
C692 C693 1.502 . S
C692 C694 1.561 . S
C692 C695 1.526 . S
C693 H677 0.959 . S
C693 H678 0.959 . S
C693 H679 0.961 . S
C693 C692 1.502 . S
C694 H680 0.960 . S
C694 H681 0.961 . S
C694 H682 0.959 . S
C694 C692 1.561 . S
C695 C692 1.526 . S
C695 C696 1.396 . S
C695 C700 1.390 . S
C696 C690 1.465 . S
C696 C695 1.396 . S
C696 C697 1.399 . S
C697 H683 0.929 . S
C697 C696 1.399 . S
C697 C698 1.385 . S
C698 H684 0.931 . S
C698 C697 1.385 . S
C698 C699 1.389 . S
C699 C698 1.389 . S
C699 C700 1.387 . S
C700 H685 0.930 . S
C700 C695 1.390 . S
C700 C699 1.387 . S
H701 C713 0.930 . S
H702 C715 0.930 . S
H703 C716 0.930 . S
H704 C720 0.959 . S
H705 C720 0.959 . S
H706 C720 0.961 . S
H707 C721 0.960 . S
H708 C721 0.961 . S
H709 C721 0.959 . S
H710 C724 0.929 . S
H711 C725 0.931 . S
H712 C727 0.930 . S
C713 H701 0.930 . S
C713 C714 1.399 . S
C713 C718 1.399 . S
C714 C713 1.399 . S
C714 C715 1.376 . S
C715 H702 0.930 . S
C715 C714 1.376 . S
C715 C716 1.388 . S
C716 H703 0.930 . S
C716 C715 1.388 . S
C716 C717 1.390 . S
C717 C716 1.390 . S
C717 C718 1.394 . S
C717 C723 1.465 . S
C718 C713 1.399 . S
C718 C717 1.394 . S
C718 C719 1.516 . S
C719 C718 1.516 . S
C719 C720 1.502 . S
C719 C721 1.561 . S
C719 C722 1.526 . S
C720 H704 0.959 . S
C720 H705 0.959 . S
C720 H706 0.961 . S
C720 C719 1.502 . S
C721 H707 0.960 . S
C721 H708 0.961 . S
C721 H709 0.959 . S
C721 C719 1.561 . S
C722 C719 1.526 . S
C722 C723 1.396 . S
C722 C727 1.390 . S
C723 C717 1.465 . S
C723 C722 1.396 . S
C723 C724 1.399 . S
C724 H710 0.929 . S
C724 C723 1.399 . S
C724 C725 1.385 . S
C725 H711 0.931 . S
C725 C724 1.385 . S
C725 C726 1.389 . S
C726 C725 1.389 . S
C726 C727 1.387 . S
C727 H712 0.930 . S
C727 C722 1.390 . S
C727 C726 1.387 . S
H728 C740 0.930 . S
H729 C742 0.930 . S
H730 C743 0.930 . S
H731 C747 0.959 1_565 S
H732 C747 0.959 . S
H733 C747 0.961 . S
H734 C748 0.960 . S
H735 C748 0.961 . S
H736 C748 0.959 . S
H737 C751 0.929 . S
H738 C752 0.931 . S
H739 C754 0.930 1_545 S
C740 H728 0.930 . S
C740 C741 1.399 . S
C740 C745 1.399 . S
C741 C740 1.399 . S
C741 C742 1.376 . S
C742 H729 0.930 . S
C742 C741 1.376 . S
C742 C743 1.388 . S
C743 H730 0.930 . S
C743 C742 1.388 . S
C743 C744 1.390 . S
C744 C743 1.390 . S
C744 C745 1.394 . S
C744 C750 1.465 . S
C745 C740 1.399 . S
C745 C744 1.394 . S
C745 C746 1.516 . S
C746 C745 1.516 . S
C746 C747 1.502 1_565 S
C746 C748 1.561 1_565 S
C746 C749 1.526 . S
C747 H731 0.959 1_545 S
C747 H732 0.959 . S
C747 H733 0.961 . S
C747 C746 1.502 1_545 S
C748 H734 0.960 . S
C748 H735 0.961 . S
C748 H736 0.959 . S
C748 C746 1.561 1_545 S
C749 C746 1.526 . S
C749 C750 1.396 . S
C749 C754 1.390 . S
C750 C744 1.465 . S
C750 C749 1.396 . S
C750 C751 1.399 . S
C751 H737 0.929 . S
C751 C750 1.399 . S
C751 C752 1.385 . S
C752 H738 0.931 . S
C752 C751 1.385 . S
C752 C753 1.389 . S
C753 C752 1.389 . S
C753 C754 1.387 . S
C754 H739 0.930 1_565 S
C754 C749 1.390 . S
C754 C753 1.387 . S
H755 C767 0.930 . S
H756 C769 0.930 . S
H757 C770 0.930 . S
H758 C774 0.959 . S
H759 C774 0.959 . S
H760 C774 0.961 . S
H761 C775 0.960 . S
H762 C775 0.961 . S
H763 C775 0.959 . S
H764 C778 0.929 1_565 S
H765 C779 0.931 1_565 S
H766 C781 0.930 . S
C767 H755 0.930 . S
C767 C768 1.399 . S
C767 C772 1.399 . S
C768 C767 1.399 . S
C768 C769 1.376 . S
C769 H756 0.930 . S
C769 C768 1.376 . S
C769 C770 1.388 . S
C770 H757 0.930 . S
C770 C769 1.388 . S
C770 C771 1.390 . S
C771 C770 1.390 . S
C771 C772 1.394 . S
C771 C777 1.465 . S
C772 C767 1.399 . S
C772 C771 1.394 . S
C772 C773 1.516 . S
C773 C772 1.516 . S
C773 C774 1.502 . S
C773 C775 1.561 . S
C773 C776 1.526 . S
C774 H758 0.959 . S
C774 H759 0.959 . S
C774 H760 0.961 . S
C774 C773 1.502 . S
C775 H761 0.960 . S
C775 H762 0.961 . S
C775 H763 0.959 . S
C775 C773 1.561 . S
C776 C773 1.526 . S
C776 C777 1.396 . S
C776 C781 1.390 . S
C777 C771 1.465 . S
C777 C776 1.396 . S
C777 C778 1.399 . S
C778 H764 0.929 1_545 S
C778 C777 1.399 . S
C778 C779 1.385 . S
C779 H765 0.931 1_545 S
C779 C778 1.385 . S
C779 C780 1.389 . S
C780 C779 1.389 . S
C780 C781 1.387 . S
C781 H766 0.930 . S
C781 C776 1.390 . S
C781 C780 1.387 . S
H782 C794 0.930 . S
H783 C796 0.930 . S
H784 C797 0.930 . S
H785 C801 0.959 . S
H786 C801 0.959 . S
H787 C801 0.961 . S
H788 C802 0.960 . S
H789 C802 0.961 . S
H790 C802 0.959 . S
H791 C805 0.929 . S
H792 C806 0.931 . S
H793 C808 0.930 . S
C794 H782 0.930 . S
C794 C795 1.399 . S
C794 C799 1.399 . S
C795 C794 1.399 . S
C795 C796 1.376 . S
C796 H783 0.930 . S
C796 C795 1.376 . S
C796 C797 1.388 . S
C797 H784 0.930 . S
C797 C796 1.388 . S
C797 C798 1.390 . S
C798 C797 1.390 . S
C798 C799 1.394 . S
C798 C804 1.465 . S
C799 C794 1.399 . S
C799 C798 1.394 . S
C799 C800 1.516 . S
C800 C799 1.516 . S
C800 C801 1.502 . S
C800 C802 1.561 . S
C800 C803 1.526 . S
C801 H785 0.959 . S
C801 H786 0.959 . S
C801 H787 0.961 . S
C801 C800 1.502 . S
C802 H788 0.960 . S
C802 H789 0.961 . S
C802 H790 0.959 . S
C802 C800 1.561 . S
C803 C800 1.526 . S
C803 C804 1.396 . S
C803 C808 1.390 . S
C804 C798 1.465 . S
C804 C803 1.396 . S
C804 C805 1.399 . S
C805 H791 0.929 . S
C805 C804 1.399 . S
C805 C806 1.385 . S
C806 H792 0.931 . S
C806 C805 1.385 . S
C806 C807 1.389 . S
C807 C806 1.389 . S
C807 C808 1.387 . S
C808 H793 0.930 . S
C808 C803 1.390 . S
C808 C807 1.387 . S
H809 C821 0.930 . S
H810 C823 0.930 . S
H811 C824 0.930 . S
H812 C828 0.959 . S
H813 C828 0.959 . S
H814 C828 0.961 . S
H815 C829 0.960 . S
H816 C829 0.961 . S
H817 C829 0.959 . S
H818 C832 0.929 . S
H819 C833 0.931 . S
H820 C835 0.930 . S
C821 H809 0.930 . S
C821 C822 1.399 . S
C821 C826 1.399 . S
C822 C821 1.399 . S
C822 C823 1.376 . S
C823 H810 0.930 . S
C823 C822 1.376 . S
C823 C824 1.388 . S
C824 H811 0.930 . S
C824 C823 1.388 . S
C824 C825 1.390 . S
C825 C824 1.390 . S
C825 C826 1.394 . S
C825 C831 1.465 . S
C826 C821 1.399 . S
C826 C825 1.394 . S
C826 C827 1.516 . S
C827 C826 1.516 . S
C827 C828 1.502 . S
C827 C829 1.561 . S
C827 C830 1.526 . S
C828 H812 0.959 . S
C828 H813 0.959 . S
C828 H814 0.961 . S
C828 C827 1.502 . S
C829 H815 0.960 . S
C829 H816 0.961 . S
C829 H817 0.959 . S
C829 C827 1.561 . S
C830 C827 1.526 . S
C830 C831 1.396 . S
C830 C835 1.390 . S
C831 C825 1.465 . S
C831 C830 1.396 . S
C831 C832 1.399 . S
C832 H818 0.929 . S
C832 C831 1.399 . S
C832 C833 1.385 . S
C833 H819 0.931 . S
C833 C832 1.385 . S
C833 C834 1.389 . S
C834 C833 1.389 . S
C834 C835 1.387 . S
C835 H820 0.930 . S
C835 C830 1.390 . S
C835 C834 1.387 . S
H836 C848 0.930 . S
H837 C850 0.930 . S
H838 C851 0.930 . S
H839 C855 0.959 . S
H840 C855 0.959 . S
H841 C855 0.961 . S
H842 C856 0.960 1_545 S
H843 C856 0.961 1_545 S
H844 C856 0.959 . S
H845 C859 0.929 . S
H846 C860 0.931 . S
H847 C862 0.930 1_545 S
C848 H836 0.930 . S
C848 C849 1.399 . S
C848 C853 1.399 . S
C849 C848 1.399 . S
C849 C850 1.376 . S
C850 H837 0.930 . S
C850 C849 1.376 . S
C850 C851 1.388 . S
C851 H838 0.930 . S
C851 C850 1.388 . S
C851 C852 1.390 . S
C852 C851 1.390 . S
C852 C853 1.394 . S
C852 C858 1.465 . S
C853 C848 1.399 . S
C853 C852 1.394 . S
C853 C854 1.516 . S
C854 C853 1.516 . S
C854 C855 1.502 1_565 S
C854 C856 1.561 . S
C854 C857 1.526 . S
C855 H839 0.959 . S
C855 H840 0.959 . S
C855 H841 0.961 . S
C855 C854 1.502 1_545 S
C856 H842 0.960 1_565 S
C856 H843 0.961 1_565 S
C856 H844 0.959 . S
C856 C854 1.561 . S
C857 C854 1.526 . S
C857 C858 1.396 . S
C857 C862 1.390 . S
C858 C852 1.465 . S
C858 C857 1.396 . S
C858 C859 1.399 . S
C859 H845 0.929 . S
C859 C858 1.399 . S
C859 C860 1.385 . S
C860 H846 0.931 . S
C860 C859 1.385 . S
C860 C861 1.389 . S
C861 C860 1.389 . S
C861 C862 1.387 . S
C862 H847 0.930 1_565 S
C862 C857 1.390 . S
C862 C861 1.387 . S
H863 C875 0.930 . S
H864 C877 0.930 . S
H865 C878 0.930 . S
H866 C882 0.959 . S
H867 C882 0.959 . S
H868 C882 0.961 . S
H869 C883 0.960 . S
H870 C883 0.961 . S
H871 C883 0.959 . S
H872 C886 0.929 . S
H873 C887 0.931 . S
H874 C889 0.930 . S
C875 H863 0.930 . S
C875 C876 1.399 . S
C875 C880 1.399 . S
C876 C875 1.399 . S
C876 C877 1.376 . S
C877 H864 0.930 . S
C877 C876 1.376 . S
C877 C878 1.388 . S
C878 H865 0.930 . S
C878 C877 1.388 . S
C878 C879 1.390 . S
C879 C878 1.390 . S
C879 C880 1.394 . S
C879 C885 1.465 . S
C880 C875 1.399 . S
C880 C879 1.394 . S
C880 C881 1.516 . S
C881 C880 1.516 . S
C881 C882 1.502 . S
C881 C883 1.561 . S
C881 C884 1.526 . S
C882 H866 0.959 . S
C882 H867 0.959 . S
C882 H868 0.961 . S
C882 C881 1.502 . S
C883 H869 0.960 . S
C883 H870 0.961 . S
C883 H871 0.959 . S
C883 C881 1.561 . S
C884 C881 1.526 . S
C884 C885 1.396 . S
C884 C889 1.390 . S
C885 C879 1.465 . S
C885 C884 1.396 . S
C885 C886 1.399 . S
C886 H872 0.929 . S
C886 C885 1.399 . S
C886 C887 1.385 . S
C887 H873 0.931 . S
C887 C886 1.385 . S
C887 C888 1.389 . S
C888 C887 1.389 . S
C888 C889 1.387 . S
C889 H874 0.930 . S
C889 C884 1.390 . S
C889 C888 1.387 . S
H890 C902 0.930 . S
H891 C904 0.930 . S
H892 C905 0.930 . S
H893 C909 0.959 . S
H894 C909 0.959 . S
H895 C909 0.961 . S
H896 C910 0.960 . S
H897 C910 0.961 . S
H898 C910 0.959 . S
H899 C913 0.929 . S
H900 C914 0.931 . S
H901 C916 0.930 . S
C902 H890 0.930 . S
C902 C903 1.399 . S
C902 C907 1.399 . S
C903 C902 1.399 . S
C903 C904 1.376 . S
C904 H891 0.930 . S
C904 C903 1.376 . S
C904 C905 1.388 . S
C905 H892 0.930 . S
C905 C904 1.388 . S
C905 C906 1.390 . S
C906 C905 1.390 . S
C906 C907 1.394 . S
C906 C912 1.465 . S
C907 C902 1.399 . S
C907 C906 1.394 . S
C907 C908 1.516 . S
C908 C907 1.516 . S
C908 C909 1.502 . S
C908 C910 1.561 . S
C908 C911 1.526 . S
C909 H893 0.959 . S
C909 H894 0.959 . S
C909 H895 0.961 . S
C909 C908 1.502 . S
C910 H896 0.960 . S
C910 H897 0.961 . S
C910 H898 0.959 . S
C910 C908 1.561 . S
C911 C908 1.526 . S
C911 C912 1.396 . S
C911 C916 1.390 . S
C912 C906 1.465 . S
C912 C911 1.396 . S
C912 C913 1.399 . S
C913 H899 0.929 . S
C913 C912 1.399 . S
C913 C914 1.385 . S
C914 H900 0.931 . S
C914 C913 1.385 . S
C914 C915 1.389 . S
C915 C914 1.389 . S
C915 C916 1.387 . S
C916 H901 0.930 . S
C916 C911 1.390 . S
C916 C915 1.387 . S
H917 C929 0.930 . S
H918 C931 0.930 . S
H919 C932 0.930 . S
H920 C936 0.959 . S
H921 C936 0.959 . S
H922 C936 0.961 . S
H923 C937 0.960 . S
H924 C937 0.961 . S
H925 C937 0.959 . S
H926 C940 0.929 . S
H927 C941 0.931 . S
H928 C943 0.930 . S
C929 H917 0.930 . S
C929 C930 1.399 . S
C929 C934 1.399 . S
C930 C929 1.399 . S
C930 C931 1.376 . S
C931 H918 0.930 . S
C931 C930 1.376 . S
C931 C932 1.388 . S
C932 H919 0.930 . S
C932 C931 1.388 . S
C932 C933 1.390 . S
C933 C932 1.390 . S
C933 C934 1.394 . S
C933 C939 1.465 . S
C934 C929 1.399 . S
C934 C933 1.394 . S
C934 C935 1.516 . S
C935 C934 1.516 . S
C935 C936 1.502 . S
C935 C937 1.561 . S
C935 C938 1.526 . S
C936 H920 0.959 . S
C936 H921 0.959 . S
C936 H922 0.961 . S
C936 C935 1.502 . S
C937 H923 0.960 . S
C937 H924 0.961 . S
C937 H925 0.959 . S
C937 C935 1.561 . S
C938 C935 1.526 . S
C938 C939 1.396 . S
C938 C943 1.390 . S
C939 C933 1.465 . S
C939 C938 1.396 . S
C939 C940 1.399 . S
C940 H926 0.929 . S
C940 C939 1.399 . S
C940 C941 1.385 . S
C941 H927 0.931 . S
C941 C940 1.385 . S
C941 C942 1.389 . S
C942 C941 1.389 . S
C942 C943 1.387 . S
C943 H928 0.930 . S
C943 C938 1.390 . S
C943 C942 1.387 . S
H944 C956 0.930 . S
H945 C958 0.930 . S
H946 C959 0.930 1_554 S
H947 C963 0.959 . S
H948 C963 0.959 . S
H949 C963 0.961 . S
H950 C964 0.960 . S
H951 C964 0.961 . S
H952 C964 0.959 1_455 S
H953 C967 0.929 . S
H954 C968 0.931 . S
H955 C970 0.930 . S
C956 H944 0.930 . S
C956 C957 1.399 . S
C956 C961 1.399 . S
C957 C956 1.399 . S
C957 C958 1.376 . S
C958 H945 0.930 . S
C958 C957 1.376 . S
C958 C959 1.388 . S
C959 H946 0.930 1_556 S
C959 C958 1.388 . S
C959 C960 1.390 . S
C960 C959 1.390 . S
C960 C961 1.394 . S
C960 C966 1.465 . S
C961 C956 1.399 . S
C961 C960 1.394 . S
C961 C962 1.516 . S
C962 C961 1.516 . S
C962 C963 1.502 . S
C962 C964 1.561 . S
C962 C965 1.526 . S
C963 H947 0.959 . S
C963 H948 0.959 . S
C963 H949 0.961 . S
C963 C962 1.502 . S
C964 H950 0.960 . S
C964 H951 0.961 . S
C964 H952 0.959 1_655 S
C964 C962 1.561 . S
C965 C962 1.526 . S
C965 C966 1.396 . S
C965 C970 1.390 . S
C966 C960 1.465 . S
C966 C965 1.396 . S
C966 C967 1.399 1_556 S
C967 H953 0.929 . S
C967 C966 1.399 1_554 S
C967 C968 1.385 . S
C968 H954 0.931 . S
C968 C967 1.385 . S
C968 C969 1.389 1_554 S
C969 C968 1.389 1_556 S
C969 C970 1.387 . S
C970 H955 0.930 . S
C970 C965 1.390 . S
C970 C969 1.387 . S
H971 C983 0.930 . S
H972 C985 0.930 . S
H973 C986 0.930 . S
H974 C990 0.959 . S
H975 C990 0.991 . S
H976 C990 0.961 . S
H977 C991 0.960 . S
H978 C991 0.961 1_556 S
H979 C991 0.959 . S
H980 C994 0.929 . S
H981 C995 0.931 . S
H982 C997 0.930 . S
C983 H971 0.930 . S
C983 C984 1.399 . S
C983 C988 1.399 . S
C984 C983 1.399 . S
C984 C985 1.376 . S
C985 H972 0.930 . S
C985 C984 1.376 . S
C985 C986 1.388 . S
C986 H973 0.930 . S
C986 C985 1.388 . S
C986 C987 1.390 . S
C987 C986 1.390 . S
C987 C988 1.394 . S
C987 C993 1.465 . S
C988 C983 1.399 . S
C988 C987 1.394 . S
C988 C989 1.516 . S
C989 C988 1.516 . S
C989 C990 1.502 . S
C989 C991 1.561 . S
C989 C992 1.526 . S
C990 H974 0.959 . S
C990 H975 0.991 . S
C990 H976 0.961 . S
C990 C989 1.502 . S
C991 H977 0.960 . S
C991 H978 0.961 1_554 S
C991 H979 0.959 . S
C991 C989 1.561 . S
C992 C989 1.526 . S
C992 C993 1.396 . S
C992 C997 1.390 . S
C993 C987 1.465 . S
C993 C992 1.396 . S
C993 C994 1.399 . S
C994 H980 0.929 . S
C994 C993 1.399 . S
C994 C995 1.385 . S
C995 H981 0.931 . S
C995 C994 1.385 . S
C995 C996 1.389 . S
C996 C995 1.389 . S
C996 C997 1.387 . S
C997 H982 0.930 . S
C997 C992 1.390 . S
C997 C996 1.387 . S
H998 C1010 0.930 . S
H999 C1012 0.930 . S
H1000 C1013 0.930 . S
H1001 C1017 0.959 . S
H1002 C1017 0.959 . S
H1003 C1017 0.961 . S
H1004 C1018 0.960 . S
H1005 C1018 0.961 . S
H1006 C1018 0.959 . S
H1007 C1021 0.929 1_655 S
H1008 C1022 0.931 1_655 S
H1009 C1024 0.930 . S
C1010 H998 0.930 . S
C1010 C1011 1.399 . S
C1010 C1015 1.399 . S
C1011 C1010 1.399 . S
C1011 C1012 1.376 . S
C1012 H999 0.930 . S
C1012 C1011 1.376 . S
C1012 C1013 1.388 . S
C1013 H1000 0.930 . S
C1013 C1012 1.388 . S
C1013 C1014 1.390 . S
C1014 C1013 1.390 . S
C1014 C1015 1.394 . S
C1014 C1020 1.465 . S
C1015 C1010 1.399 . S
C1015 C1014 1.394 . S
C1015 C1016 1.516 . S
C1016 C1015 1.516 . S
C1016 C1017 1.502 . S
C1016 C1018 1.561 . S
C1016 C1019 1.526 . S
C1017 H1001 0.959 . S
C1017 H1002 0.959 . S
C1017 H1003 0.961 . S
C1017 C1016 1.502 . S
C1018 H1004 0.960 . S
C1018 H1005 0.961 . S
C1018 H1006 0.959 . S
C1018 C1016 1.561 . S
C1019 C1016 1.526 . S
C1019 C1020 1.396 . S
C1019 C1024 1.390 . S
C1020 C1014 1.465 . S
C1020 C1019 1.396 . S
C1020 C1021 1.399 . S
C1021 H1007 0.929 1_455 S
C1021 C1020 1.399 . S
C1021 C1022 1.385 . S
C1022 H1008 0.931 1_455 S
C1022 C1021 1.385 . S
C1022 C1023 1.389 . S
C1023 C1022 1.389 . S
C1023 C1024 1.387 . S
C1024 H1009 0.930 . S
C1024 C1019 1.390 . S
C1024 C1023 1.387 . S
H1025 C1037 0.930 . S
H1026 C1039 0.930 . S
H1027 C1040 0.930 . S
H1028 C1044 0.959 . S
H1029 C1044 0.959 . S
H1030 C1044 0.961 . S
H1031 C1045 0.960 . S
H1032 C1045 0.961 . S
H1033 C1045 0.959 . S
H1034 C1048 0.929 . S
H1035 C1049 0.931 . S
H1036 C1051 0.930 . S
C1037 H1025 0.930 . S
C1037 C1038 1.399 . S
C1037 C1042 1.399 . S
C1038 C1037 1.399 . S
C1038 C1039 1.376 . S
C1039 H1026 0.930 . S
C1039 C1038 1.376 . S
C1039 C1040 1.388 . S
C1040 H1027 0.930 . S
C1040 C1039 1.388 . S
C1040 C1041 1.390 . S
C1041 C1040 1.390 . S
C1041 C1042 1.394 . S
C1041 C1047 1.465 . S
C1042 C1037 1.399 . S
C1042 C1041 1.394 . S
C1042 C1043 1.516 . S
C1043 C1042 1.516 . S
C1043 C1044 1.502 . S
C1043 C1045 1.561 . S
C1043 C1046 1.526 . S
C1044 H1028 0.959 . S
C1044 H1029 0.959 . S
C1044 H1030 0.961 . S
C1044 C1043 1.502 . S
C1045 H1031 0.960 . S
C1045 H1032 0.961 . S
C1045 H1033 0.959 . S
C1045 C1043 1.561 . S
C1046 C1043 1.526 . S
C1046 C1047 1.396 . S
C1046 C1051 1.390 . S
C1047 C1041 1.465 . S
C1047 C1046 1.396 . S
C1047 C1048 1.399 . S
C1048 H1034 0.929 . S
C1048 C1047 1.399 . S
C1048 C1049 1.385 . S
C1049 H1035 0.931 . S
C1049 C1048 1.385 . S
C1049 C1050 1.389 . S
C1050 C1049 1.389 . S
C1050 C1051 1.387 . S
C1051 H1036 0.930 . S
C1051 C1046 1.390 . S
C1051 C1050 1.387 . S
C417 C21 1.667 . S
C429 C336 1.638 . S
C444 C61 1.476 . S
C456 C358 1.460 . S
C483 C377 1.097 . S
C471 C82 1.418 . S
C498 C135 1.864 . S
C510 C398 1.578 . S
C537 C355 1.768 . S
C525 C15 1.842 . S
C564 C333 1.693 . S
C552 C42 1.707 . S
C591 C400 1.255 . S
C579 C101 1.374 . S
C618 C379 1.482 . S
C606 C122 1.513 . S
C633 C2 1.819 . S
C645 C397 1.733 . S
C672 C356 1.225 . S
C660 C95 1.581 . S
C687 C141 1.764 . S
C699 C338 1.571 . S
C714 C55 1.536 . S
C726 C376 1.552 . S
C753 C334 1.637 . S
C741 C181 1.649 . S
C768 C202 1.311 . S
C780 C354 1.337 . S
C795 C255 1.476 . S
C807 C380 1.244 . S
C822 C295 1.772 . S
C834 C401 1.413 . S
C849 C175 1.751 . S
C861 C357 1.719 . S
C888 C337 1.808 . S
C876 C221 1.836 . S
C915 C396 1.119 . S
C903 C242 1.189 . S
C942 C375 1.594 . S
C930 C301 1.645 . S
C957 C162 1.556 . S
C969 C399 1.568 . S
C996 C359 1.322 . S
C984 C261 1.430 . S
C1023 C335 1.446 . S
C1011 C282 1.541 . S
C1038 C215 1.516 . S
C1050 C378 1.522 . S
