# Generated by pormake.
# Topology iac, (4,6)-cn, num edge types: 1
# Building blocks:
#     Node 0, Type 0, BuildingBlock: GALJAG_clean_sbu_0, # of connection points: 4
#     Node 1, Type 0, BuildingBlock: GALJAG_clean_sbu_0, # of connection points: 4
#     Node 2, Type 0, BuildingBlock: GALJAG_clean_sbu_0, # of connection points: 4
#     Node 3, Type 0, BuildingBlock: GALJAG_clean_sbu_0, # of connection points: 4
#     Node 4, Type 0, BuildingBlock: GALJAG_clean_sbu_0, # of connection points: 4
#     Node 5, Type 0, BuildingBlock: GALJAG_clean_sbu_0, # of connection points: 4
#     Node 6, Type 0, BuildingBlock: GALJAG_clean_sbu_0, # of connection points: 4
#     Node 7, Type 0, BuildingBlock: GALJAG_clean_sbu_0, # of connection points: 4
#     Node 8, Type 0, BuildingBlock: GALJAG_clean_sbu_0, # of connection points: 4
#     Node 9, Type 0, BuildingBlock: GALJAG_clean_sbu_0, # of connection points: 4
#     Node 10, Type 0, BuildingBlock: GALJAG_clean_sbu_0, # of connection points: 4
#     Node 11, Type 0, BuildingBlock: GALJAG_clean_sbu_0, # of connection points: 4
#     Node 12, Type 0, BuildingBlock: GALJAG_clean_sbu_0, # of connection points: 4
#     Node 13, Type 0, BuildingBlock: GALJAG_clean_sbu_0, # of connection points: 4
#     Node 14, Type 0, BuildingBlock: GALJAG_clean_sbu_0, # of connection points: 4
#     Node 15, Type 0, BuildingBlock: GALJAG_clean_sbu_0, # of connection points: 4
#     Node 16, Type 0, BuildingBlock: GALJAG_clean_sbu_0, # of connection points: 4
#     Node 17, Type 0, BuildingBlock: GALJAG_clean_sbu_0, # of connection points: 4
#     Node 18, Type 0, BuildingBlock: GALJAG_clean_sbu_0, # of connection points: 4
#     Node 19, Type 0, BuildingBlock: GALJAG_clean_sbu_0, # of connection points: 4
#     Node 20, Type 0, BuildingBlock: GALJAG_clean_sbu_0, # of connection points: 4
#     Node 21, Type 0, BuildingBlock: GALJAG_clean_sbu_0, # of connection points: 4
#     Node 22, Type 0, BuildingBlock: GALJAG_clean_sbu_0, # of connection points: 4
#     Node 23, Type 0, BuildingBlock: GALJAG_clean_sbu_0, # of connection points: 4
#     Node 24, Type 1, BuildingBlock: CIFDUS_clean_sbu_1, # of connection points: 6
#     Node 25, Type 1, BuildingBlock: CIFDUS_clean_sbu_1, # of connection points: 6
#     Node 26, Type 1, BuildingBlock: CIFDUS_clean_sbu_1, # of connection points: 6
#     Node 27, Type 1, BuildingBlock: CIFDUS_clean_sbu_1, # of connection points: 6
#     Node 28, Type 1, BuildingBlock: CIFDUS_clean_sbu_1, # of connection points: 6
#     Node 29, Type 1, BuildingBlock: CIFDUS_clean_sbu_1, # of connection points: 6
#     Node 30, Type 1, BuildingBlock: CIFDUS_clean_sbu_1, # of connection points: 6
#     Node 31, Type 1, BuildingBlock: CIFDUS_clean_sbu_1, # of connection points: 6
#     Node 32, Type 1, BuildingBlock: CIFDUS_clean_sbu_1, # of connection points: 6
#     Node 33, Type 1, BuildingBlock: CIFDUS_clean_sbu_1, # of connection points: 6
#     Node 34, Type 1, BuildingBlock: CIFDUS_clean_sbu_1, # of connection points: 6
#     Node 35, Type 1, BuildingBlock: CIFDUS_clean_sbu_1, # of connection points: 6
#     Node 36, Type 1, BuildingBlock: CIFDUS_clean_sbu_1, # of connection points: 6
#     Node 37, Type 1, BuildingBlock: CIFDUS_clean_sbu_1, # of connection points: 6
#     Node 38, Type 1, BuildingBlock: CIFDUS_clean_sbu_1, # of connection points: 6
#     Node 39, Type 1, BuildingBlock: CIFDUS_clean_sbu_1, # of connection points: 6
#     Edge 40, Type (0, 1), BuildingBlock: XUDNAN_clean_linker_2, # of connection points: 2
#     Edge 41, Type (0, 1), BuildingBlock: XUDNAN_clean_linker_2, # of connection points: 2
#     Edge 42, Type (0, 1), BuildingBlock: XUDNAN_clean_linker_2, # of connection points: 2
#     Edge 43, Type (0, 1), BuildingBlock: XUDNAN_clean_linker_2, # of connection points: 2
#     Edge 44, Type (0, 1), BuildingBlock: XUDNAN_clean_linker_2, # of connection points: 2
#     Edge 45, Type (0, 1), BuildingBlock: XUDNAN_clean_linker_2, # of connection points: 2
#     Edge 46, Type (0, 1), BuildingBlock: XUDNAN_clean_linker_2, # of connection points: 2
#     Edge 47, Type (0, 1), BuildingBlock: XUDNAN_clean_linker_2, # of connection points: 2
#     Edge 48, Type (0, 1), BuildingBlock: XUDNAN_clean_linker_2, # of connection points: 2
#     Edge 49, Type (0, 1), BuildingBlock: XUDNAN_clean_linker_2, # of connection points: 2
#     Edge 50, Type (0, 1), BuildingBlock: XUDNAN_clean_linker_2, # of connection points: 2
#     Edge 51, Type (0, 1), BuildingBlock: XUDNAN_clean_linker_2, # of connection points: 2
#     Edge 52, Type (0, 1), BuildingBlock: XUDNAN_clean_linker_2, # of connection points: 2
#     Edge 53, Type (0, 1), BuildingBlock: XUDNAN_clean_linker_2, # of connection points: 2
#     Edge 54, Type (0, 1), BuildingBlock: XUDNAN_clean_linker_2, # of connection points: 2
#     Edge 55, Type (0, 1), BuildingBlock: XUDNAN_clean_linker_2, # of connection points: 2
#     Edge 56, Type (0, 1), BuildingBlock: XUDNAN_clean_linker_2, # of connection points: 2
#     Edge 57, Type (0, 1), BuildingBlock: XUDNAN_clean_linker_2, # of connection points: 2
#     Edge 58, Type (0, 1), BuildingBlock: XUDNAN_clean_linker_2, # of connection points: 2
#     Edge 59, Type (0, 1), BuildingBlock: XUDNAN_clean_linker_2, # of connection points: 2
#     Edge 60, Type (0, 1), BuildingBlock: XUDNAN_clean_linker_2, # of connection points: 2
#     Edge 61, Type (0, 1), BuildingBlock: XUDNAN_clean_linker_2, # of connection points: 2
#     Edge 62, Type (0, 1), BuildingBlock: XUDNAN_clean_linker_2, # of connection points: 2
#     Edge 63, Type (0, 1), BuildingBlock: XUDNAN_clean_linker_2, # of connection points: 2
#     Edge 64, Type (0, 1), BuildingBlock: XUDNAN_clean_linker_2, # of connection points: 2
#     Edge 65, Type (0, 1), BuildingBlock: XUDNAN_clean_linker_2, # of connection points: 2
#     Edge 66, Type (0, 1), BuildingBlock: XUDNAN_clean_linker_2, # of connection points: 2
#     Edge 67, Type (0, 1), BuildingBlock: XUDNAN_clean_linker_2, # of connection points: 2
#     Edge 68, Type (0, 1), BuildingBlock: XUDNAN_clean_linker_2, # of connection points: 2
#     Edge 69, Type (0, 1), BuildingBlock: XUDNAN_clean_linker_2, # of connection points: 2
#     Edge 70, Type (0, 1), BuildingBlock: XUDNAN_clean_linker_2, # of connection points: 2
#     Edge 71, Type (0, 1), BuildingBlock: XUDNAN_clean_linker_2, # of connection points: 2
#     Edge 72, Type (0, 1), BuildingBlock: XUDNAN_clean_linker_2, # of connection points: 2
#     Edge 73, Type (0, 1), BuildingBlock: XUDNAN_clean_linker_2, # of connection points: 2
#     Edge 74, Type (0, 1), BuildingBlock: XUDNAN_clean_linker_2, # of connection points: 2
#     Edge 75, Type (0, 1), BuildingBlock: XUDNAN_clean_linker_2, # of connection points: 2
#     Edge 76, Type (0, 1), BuildingBlock: XUDNAN_clean_linker_2, # of connection points: 2
#     Edge 77, Type (0, 1), BuildingBlock: XUDNAN_clean_linker_2, # of connection points: 2
#     Edge 78, Type (0, 1), BuildingBlock: XUDNAN_clean_linker_2, # of connection points: 2
#     Edge 79, Type (0, 1), BuildingBlock: XUDNAN_clean_linker_2, # of connection points: 2
#     Edge 80, Type (0, 1), BuildingBlock: XUDNAN_clean_linker_2, # of connection points: 2
#     Edge 81, Type (0, 1), BuildingBlock: XUDNAN_clean_linker_2, # of connection points: 2
#     Edge 82, Type (0, 1), BuildingBlock: XUDNAN_clean_linker_2, # of connection points: 2
#     Edge 83, Type (0, 1), BuildingBlock: XUDNAN_clean_linker_2, # of connection points: 2
#     Edge 84, Type (0, 1), BuildingBlock: XUDNAN_clean_linker_2, # of connection points: 2
#     Edge 85, Type (0, 1), BuildingBlock: XUDNAN_clean_linker_2, # of connection points: 2
#     Edge 86, Type (0, 1), BuildingBlock: XUDNAN_clean_linker_2, # of connection points: 2
#     Edge 87, Type (0, 1), BuildingBlock: XUDNAN_clean_linker_2, # of connection points: 2
#     Edge 88, Type (0, 1), BuildingBlock: XUDNAN_clean_linker_2, # of connection points: 2
#     Edge 89, Type (0, 1), BuildingBlock: XUDNAN_clean_linker_2, # of connection points: 2
#     Edge 90, Type (0, 1), BuildingBlock: XUDNAN_clean_linker_2, # of connection points: 2
#     Edge 91, Type (0, 1), BuildingBlock: XUDNAN_clean_linker_2, # of connection points: 2
#     Edge 92, Type (0, 1), BuildingBlock: XUDNAN_clean_linker_2, # of connection points: 2
#     Edge 93, Type (0, 1), BuildingBlock: XUDNAN_clean_linker_2, # of connection points: 2
#     Edge 94, Type (0, 1), BuildingBlock: XUDNAN_clean_linker_2, # of connection points: 2
#     Edge 95, Type (0, 1), BuildingBlock: XUDNAN_clean_linker_2, # of connection points: 2
#     Edge 96, Type (0, 1), BuildingBlock: XUDNAN_clean_linker_2, # of connection points: 2
#     Edge 97, Type (0, 1), BuildingBlock: XUDNAN_clean_linker_2, # of connection points: 2
#     Edge 98, Type (0, 1), BuildingBlock: XUDNAN_clean_linker_2, # of connection points: 2
#     Edge 99, Type (0, 1), BuildingBlock: XUDNAN_clean_linker_2, # of connection points: 2
#     Edge 100, Type (0, 1), BuildingBlock: XUDNAN_clean_linker_2, # of connection points: 2
#     Edge 101, Type (0, 1), BuildingBlock: XUDNAN_clean_linker_2, # of connection points: 2
#     Edge 102, Type (0, 1), BuildingBlock: XUDNAN_clean_linker_2, # of connection points: 2
#     Edge 103, Type (0, 1), BuildingBlock: XUDNAN_clean_linker_2, # of connection points: 2
#     Edge 104, Type (0, 1), BuildingBlock: XUDNAN_clean_linker_2, # of connection points: 2
#     Edge 105, Type (0, 1), BuildingBlock: XUDNAN_clean_linker_2, # of connection points: 2
#     Edge 106, Type (0, 1), BuildingBlock: XUDNAN_clean_linker_2, # of connection points: 2
#     Edge 107, Type (0, 1), BuildingBlock: XUDNAN_clean_linker_2, # of connection points: 2
#     Edge 108, Type (0, 1), BuildingBlock: XUDNAN_clean_linker_2, # of connection points: 2
#     Edge 109, Type (0, 1), BuildingBlock: XUDNAN_clean_linker_2, # of connection points: 2
#     Edge 110, Type (0, 1), BuildingBlock: XUDNAN_clean_linker_2, # of connection points: 2
#     Edge 111, Type (0, 1), BuildingBlock: XUDNAN_clean_linker_2, # of connection points: 2
#     Edge 112, Type (0, 1), BuildingBlock: XUDNAN_clean_linker_2, # of connection points: 2
#     Edge 113, Type (0, 1), BuildingBlock: XUDNAN_clean_linker_2, # of connection points: 2
#     Edge 114, Type (0, 1), BuildingBlock: XUDNAN_clean_linker_2, # of connection points: 2
#     Edge 115, Type (0, 1), BuildingBlock: XUDNAN_clean_linker_2, # of connection points: 2
#     Edge 116, Type (0, 1), BuildingBlock: XUDNAN_clean_linker_2, # of connection points: 2
#     Edge 117, Type (0, 1), BuildingBlock: XUDNAN_clean_linker_2, # of connection points: 2
#     Edge 118, Type (0, 1), BuildingBlock: XUDNAN_clean_linker_2, # of connection points: 2
#     Edge 119, Type (0, 1), BuildingBlock: XUDNAN_clean_linker_2, # of connection points: 2
#     Edge 120, Type (0, 1), BuildingBlock: XUDNAN_clean_linker_2, # of connection points: 2
#     Edge 121, Type (0, 1), BuildingBlock: XUDNAN_clean_linker_2, # of connection points: 2
#     Edge 122, Type (0, 1), BuildingBlock: XUDNAN_clean_linker_2, # of connection points: 2
#     Edge 123, Type (0, 1), BuildingBlock: XUDNAN_clean_linker_2, # of connection points: 2
#     Edge 124, Type (0, 1), BuildingBlock: XUDNAN_clean_linker_2, # of connection points: 2
#     Edge 125, Type (0, 1), BuildingBlock: XUDNAN_clean_linker_2, # of connection points: 2
#     Edge 126, Type (0, 1), BuildingBlock: XUDNAN_clean_linker_2, # of connection points: 2
#     Edge 127, Type (0, 1), BuildingBlock: XUDNAN_clean_linker_2, # of connection points: 2
#     Edge 128, Type (0, 1), BuildingBlock: XUDNAN_clean_linker_2, # of connection points: 2
#     Edge 129, Type (0, 1), BuildingBlock: XUDNAN_clean_linker_2, # of connection points: 2
#     Edge 130, Type (0, 1), BuildingBlock: XUDNAN_clean_linker_2, # of connection points: 2
#     Edge 131, Type (0, 1), BuildingBlock: XUDNAN_clean_linker_2, # of connection points: 2
#     Edge 132, Type (0, 1), BuildingBlock: XUDNAN_clean_linker_2, # of connection points: 2
#     Edge 133, Type (0, 1), BuildingBlock: XUDNAN_clean_linker_2, # of connection points: 2
#     Edge 134, Type (0, 1), BuildingBlock: XUDNAN_clean_linker_2, # of connection points: 2
#     Edge 135, Type (0, 1), BuildingBlock: XUDNAN_clean_linker_2, # of connection points: 2
# Relax obj value: 0.123
# Max RMSD: 0.166
# Mean RMSD: 0.133
data_MOF--net-iac--node1-GALJAG_clean_sbu_0--node2-CIFDUS_clean_sbu_1--edge1-XUDNAN_clean_linker_2
_symmetry_space_group_name_H-M    P1
_symmetry_Int_Tables_number       1
_symmetry_cell_setting            triclinic
loop_
_symmetry_equiv_pos_as_xyz
'x, y, z'
_cell_length_a     54.845329
_cell_length_b     54.440387
_cell_length_c     54.553748
_cell_angle_alpha  89.910869
_cell_angle_beta   89.858899
_cell_angle_gamma 89.896224
loop_
_atom_site_label
_atom_site_type_symbol
_atom_site_fract_x
_atom_site_fract_y
_atom_site_fract_z
_atom_type_partial_charge
In0 In 0.00063 0.25219 0.12334 0.0
O1 O 0.98535 0.22462 0.09562 0.0
O2 O 0.01385 0.21202 0.11855 0.0
C3 C -0.00136 0.29367 0.09515 0.0
C4 C 0.9592 0.25395 0.15116 0.0
C5 C 0.04525 0.25597 0.14451 0.0
O6 O 0.00294 0.27261 0.0864 0.0
O7 O -0.00482 0.29381 0.11799 0.0
O8 O 0.02767 0.24549 0.15533 0.0
O9 O 0.04039 0.26362 0.12321 0.0
C10 C -0.00119 0.20691 0.10187 0.0
O11 O 0.97935 0.26218 0.15865 0.0
O12 O 0.96014 0.24453 0.13016 0.0
In13 In 0.00123 0.7516 0.37486 0.0
O14 O 0.02223 0.76188 0.34059 0.0
O15 O 0.04153 0.74313 0.36874 0.0
C16 C 0.95761 0.74638 0.35353 0.0
C17 C 0.00413 0.71215 0.40447 0.0
C18 C 0.00023 0.79711 0.39308 0.0
O19 O 0.97669 0.73636 0.34532 0.0
O20 O 0.96035 0.75858 0.37293 0.0
O21 O -0.00098 0.77829 0.40663 0.0
O22 O 0.00232 0.79286 0.3705 0.0
C23 C 0.04215 0.75313 0.34792 0.0
O24 O 0.0087 0.73361 0.41196 0.0
O25 O -0.00198 0.71076 0.38222 0.0
In26 In 0.49848 0.75428 0.62153 0.0
O27 O 0.49857 0.7749 0.58495 0.0
O28 O 0.49717 0.79646 0.61725 0.0
C29 C 0.5002 0.70745 0.60367 0.0
C30 C 0.54371 0.75695 0.64179 0.0
C31 C 0.4562 0.75399 0.64777 0.0
O32 O 0.49437 0.72566 0.59056 0.0
O33 O 0.50468 0.71281 0.62563 0.0
O34 O 0.47715 0.75516 0.65713 0.0
O35 O 0.45613 0.75369 0.62466 0.0
C36 C 0.49786 0.79616 0.59411 0.0
O37 O 0.52459 0.75664 0.6547 0.0
O38 O 0.53989 0.75655 0.61899 0.0
In39 In 0.50343 0.25334 0.87757 0.0
O40 O 0.52733 0.25972 0.84358 0.0
O41 O 0.54393 0.24553 0.87586 0.0
C42 C 0.45768 0.25686 0.86033 0.0
C43 C 0.50117 0.20769 0.8959 0.0
C44 C 0.50238 0.29473 0.90342 0.0
O45 O 0.47545 0.25135 0.84653 0.0
O46 O 0.46308 0.26039 0.88243 0.0
O47 O 0.50148 0.27373 0.91322 0.0
O48 O 0.5059 0.29488 0.88053 0.0
C49 C 0.54647 0.25185 0.85379 0.0
O50 O 0.50811 0.22566 0.90873 0.0
O51 O 0.49552 0.21291 0.87409 0.0
In52 In 0.12775 0.00012 0.25242 0.0
O53 O 0.15958 0.97206 0.25505 0.0
O54 O 0.12341 0.95868 0.2515 0.0
C55 C 0.15205 0.04326 0.24813 0.0
C56 C 0.10599 -0.00124 0.20807 0.0
C57 C 0.10903 0.00338 0.29874 0.0
O58 O 0.16261 0.02297 0.25213 0.0
O59 O 0.12923 0.04167 0.24569 0.0
O60 O 0.09629 -0.00384 0.28087 0.0
O61 O 0.13057 0.00899 0.29314 0.0
C62 C 0.14576 0.95358 0.25321 0.0
O63 O 0.09471 0.00629 0.22691 0.0
O64 O 0.12793 0.99276 0.21166 0.0
In65 In 0.25182 0.87537 0.49936 0.0
O66 O 0.23233 0.91086 0.48867 0.0
O67 O 0.21163 0.88287 0.5062 0.0
C68 C 0.29782 0.89256 0.49699 0.0
C69 C 0.24918 0.84917 0.54103 0.0
C70 C 0.25109 0.8495 0.45784 0.0
O71 O 0.28199 0.9028 0.51037 0.0
O72 O 0.29054 0.87388 0.48583 0.0
O73 O 0.2544 0.83993 0.47865 0.0
O74 O 0.24617 0.87217 0.45801 0.0
C75 C 0.21192 0.90404 0.49684 0.0
O76 O 0.24633 0.83975 0.52016 0.0
O77 O 0.25336 0.87199 0.54104 0.0
In78 In 0.37644 0.00166 0.75157 0.0
O79 O 0.34244 0.0241 0.74568 0.0
O80 O 0.37366 0.04302 0.75904 0.0
C81 C 0.35535 0.95803 0.74609 0.0
C82 C 0.40014 0.00564 0.70848 0.0
C83 C 0.39422 -0.00381 0.79693 0.0
O84 O 0.34364 0.97637 0.75404 0.0
O85 O 0.37743 0.96174 0.74073 0.0
O86 O 0.406 0.0077 0.78061 0.0
O87 O 0.37383 0.98803 0.7904 0.0
C88 C 0.35179 0.04424 0.75203 0.0
O89 O 0.41102 -0.00151 0.72763 0.0
O90 O 0.37791 0.01069 0.71128 0.0
In91 In 0.25177 0.12524 -0.00064 0.0
O92 O 0.2751 0.09212 0.98797 0.0
O93 O 0.29146 0.11977 0.00988 0.0
C94 C 0.20834 0.10244 0.00063 0.0
C95 C 0.25334 0.1481 0.0435 0.0
C96 C 0.25439 0.14725 0.95508 0.0
O97 O 0.22766 0.09279 0.00876 0.0
O98 O 0.21085 0.12364 0.99155 0.0
O99 O 0.24802 0.15904 0.97407 0.0
O100 O 0.25901 0.1249 0.95867 0.0
C101 C 0.29408 0.09994 -0.00167 0.0
O102 O 0.26322 0.15705 0.02451 0.0
O103 O 0.24215 0.12822 0.0401 0.0
In104 In 0.75198 0.37648 0.00039 0.0
O105 O 0.73828 0.34136 0.01838 0.0
O106 O 0.75035 0.3705 0.04134 0.0
C107 C 0.75983 0.35256 0.95845 0.0
C108 C 0.71106 0.40319 -0.00219 0.0
C109 C 0.79675 0.39643 0.00341 0.0
O110 O 0.76176 0.34239 0.97918 0.0
O111 O 0.75334 0.3748 0.95879 0.0
O112 O 0.77904 0.40796 0.99412 0.0
O113 O 0.79156 0.37554 0.01171 0.0
C114 C 0.74223 0.34889 0.03989 0.0
O115 O 0.72724 0.40737 0.01364 0.0
O116 O 0.71549 0.38571 0.98339 0.0
In117 In 0.87749 0.50265 0.25096 0.0
O118 O 0.9103 0.49852 0.22587 0.0
O119 O 0.87614 0.50831 0.20986 0.0
C120 C 0.89922 0.50383 0.29469 0.0
C121 C 0.85373 0.54588 0.25115 0.0
C122 C 0.85914 0.45729 0.24937 0.0
O123 O 0.9097 0.51158 0.27561 0.0
O124 O 0.87795 0.49577 0.2918 0.0
O125 O 0.84569 0.47604 0.25167 0.0
O126 O 0.88162 0.46159 0.24724 0.0
C127 C 0.89851 0.50386 0.20674 0.0
O128 O 0.84268 0.52575 0.25405 0.0
O129 O 0.87648 0.54411 0.24838 0.0
In130 In 0.75195 0.62579 0.50187 0.0
O131 O 0.77843 0.59287 0.50031 0.0
O132 O 0.79318 0.62882 0.50252 0.0
C133 C 0.70832 0.60249 0.50205 0.0
C134 C 0.75296 0.64979 0.54543 0.0
C135 C 0.75214 0.64517 0.45641 0.0
O136 O 0.72742 0.59295 0.51091 0.0
O137 O 0.71118 0.62365 0.493 0.0
O138 O 0.74648 0.65774 0.47512 0.0
O139 O 0.75696 0.62289 0.46071 0.0
C140 C 0.79734 0.60615 0.5009 0.0
O141 O 0.7592 0.65986 0.52554 0.0
O142 O 0.74543 0.62807 0.54334 0.0
In143 In 0.62773 0.50199 0.75223 0.0
O144 O 0.66375 0.48109 0.75892 0.0
O145 O 0.63206 0.46018 0.75116 0.0
C146 C 0.64377 0.54915 0.75119 0.0
C147 C 0.60623 0.49861 0.70728 0.0
C148 C 0.60942 0.50119 0.79849 0.0
O149 O 0.65734 0.53142 0.74488 0.0
O150 O 0.6223 0.5431 0.75689 0.0
O151 O 0.59669 0.49422 0.78043 0.0
O152 O 0.63071 0.50789 0.793 0.0
C153 C 0.65451 0.46003 0.75616 0.0
O154 O 0.59371 0.50204 0.72651 0.0
O155 O 0.62891 0.49735 0.71092 0.0
In156 In 0.00466 0.75158 0.87679 0.0
O157 O 0.0242 0.7554 0.84021 0.0
O158 O 0.04614 0.74759 0.87127 0.0
C159 C 0.95863 0.75115 0.85919 0.0
C160 C 0.00867 0.70739 0.89924 0.0
C161 C 0.00306 0.79749 0.89626 0.0
O162 O 0.97698 0.7467 0.8458 0.0
O163 O 0.9635 0.75483 0.88151 0.0
O164 O 0.00264 0.77842 0.90954 0.0
O165 O 0.00529 0.79329 0.87368 0.0
C166 C 0.04532 0.75165 0.84855 0.0
O167 O 0.01815 0.7266 0.90803 0.0
O168 O -0.00327 0.71068 0.87978 0.0
In169 In -2e-05 0.24813 0.62817 0.0
O170 O 0.0089 0.26997 0.594 0.0
O171 O -0.00035 0.28976 0.62658 0.0
C172 C -0.00598 0.20704 0.6017 0.0
C173 C 0.04476 0.24929 0.64776 0.0
C174 C 0.95836 0.25328 0.65371 0.0
O175 O 0.98748 0.22797 0.5944 0.0
O176 O 0.00282 0.20651 0.62298 0.0
O177 O 0.97542 0.23964 0.66115 0.0
O178 O 0.96229 0.26418 0.63374 0.0
C179 C 0.00605 0.29056 0.60428 0.0
O180 O 0.0262 0.2451 0.66083 0.0
O181 O 0.04069 0.25224 0.62533 0.0
In182 In 0.50288 0.25192 0.37809 0.0
O183 O 0.53037 0.23305 0.3521 0.0
O184 O 0.5414 0.2656 0.37001 0.0
C185 C 0.46138 0.2559 0.3513 0.0
C186 C 0.50558 0.20926 0.40362 0.0
C187 C 0.49858 0.29296 0.40628 0.0
O188 O 0.4817 0.26358 0.34363 0.0
O189 O 0.46209 0.24586 0.37214 0.0
O190 O 0.49903 0.27145 0.41501 0.0
O191 O 0.50038 0.29392 0.38322 0.0
C192 C 0.54719 0.2482 0.35598 0.0
O193 O 0.51109 0.22981 0.4128 0.0
O194 O 0.49774 0.21035 0.3819 0.0
In195 In 0.50124 0.7488 0.12913 0.0
O196 O 0.49664 0.72234 0.09736 0.0
O197 O 0.50997 0.70863 0.1315 0.0
C198 C 0.50078 0.79378 0.10939 0.0
C199 C 0.4591 0.74832 0.15368 0.0
C200 C 0.54502 0.74927 0.1501 0.0
O201 O 0.50366 0.77499 0.09605 0.0
O202 O 0.49769 0.78944 0.13186 0.0
O203 O 0.52589 0.74344 0.16158 0.0
O204 O 0.54215 0.75527 0.12794 0.0
C205 C 0.50428 0.70415 0.10965 0.0
O206 O 0.47934 0.7533 0.16331 0.0
O207 O 0.45979 0.74308 0.13115 0.0
In208 In 0.87623 -0.0002 0.75035 0.0
O209 O 0.90783 0.9952 0.7236 0.0
O210 O 0.87277 0.00449 0.70925 0.0
C211 C 0.89628 0.00122 0.79498 0.0
C212 C 0.85836 0.04564 0.74921 0.0
C213 C 0.85593 0.9546 0.75325 0.0
O214 O 0.90929 0.00114 0.77578 0.0
O215 O 0.87354 0.00161 0.7914 0.0
O216 O 0.84359 0.9734 0.7475 0.0
O217 O 0.87829 0.95843 0.75666 0.0
C218 C 0.89505 0.00066 0.7051 0.0
O219 O 0.84485 0.02707 0.75269 0.0
O220 O 0.88084 0.04106 0.74724 0.0
In221 In 0.74985 0.1273 0.50207 0.0
O222 O 0.77344 0.09473 0.51309 0.0
O223 O 0.79071 0.12515 0.49543 0.0
C224 C 0.70537 0.10761 0.49936 0.0
C225 C 0.75346 0.15279 0.54389 0.0
C226 C 0.75038 0.14469 0.45627 0.0
O227 O 0.72414 0.09434 0.50157 0.0
O228 O 0.70898 0.13043 0.49916 0.0
O229 O 0.74498 0.15837 0.47421 0.0
O230 O 0.75541 0.12268 0.46165 0.0
C231 C 0.79293 0.10433 0.50531 0.0
O232 O 0.75744 0.16222 0.52312 0.0
O233 O 0.74676 0.13069 0.54352 0.0
In234 In 0.62441 0.00169 0.2515 0.0
O235 O 0.66041 0.98334 0.26097 0.0
O236 O 0.63137 0.96039 0.24917 0.0
C237 C 0.64558 0.04598 0.24664 0.0
C238 C 0.60698 -0.00144 0.20593 0.0
C239 C 0.5942 0.00114 0.29079 0.0
O240 O 0.6536 0.03009 0.26144 0.0
O241 O 0.62712 0.03961 0.23462 0.0
O242 O 0.58971 0.98947 0.27142 0.0
O243 O 0.6136 0.01336 0.29017 0.0
C244 C 0.65315 0.96192 0.2562 0.0
O245 O 0.59513 0.00873 0.22309 0.0
O246 O 0.62751 0.98987 0.21186 0.0
In247 In 0.74655 0.87627 0.00775 0.0
O248 O 0.72649 0.9121 0.00281 0.0
O249 O 0.70528 0.88135 0.01408 0.0
C250 C 0.7926 0.89358 0.00335 0.0
C251 C 0.74682 0.85785 0.05374 0.0
C252 C 0.74082 0.85536 0.96323 0.0
O253 O 0.77545 0.90627 0.01225 0.0
O254 O 0.78657 0.87231 -0.00342 0.0
O255 O 0.74757 0.84296 0.98172 0.0
O256 O 0.7367 0.87774 0.96748 0.0
C257 C 0.70565 0.90381 0.00822 0.0
O258 O 0.74016 0.8449 0.03568 0.0
O259 O 0.75364 0.87922 0.04825 0.0
In260 In 0.25287 0.62485 0.00177 0.0
O261 O 0.25816 0.6553 0.02937 0.0
O262 O 0.24702 0.61983 0.0422 0.0
C263 C 0.25236 0.64592 0.95735 0.0
C264 C 0.2941 0.59864 0.00184 0.0
C265 C 0.20682 0.60919 0.00274 0.0
O266 O 0.25455 0.65882 0.97647 0.0
O267 O 0.25121 0.62314 0.96101 0.0
O268 O 0.22441 0.59462 -0.00091 0.0
O269 O 0.21245 0.63147 0.00548 0.0
C270 C 0.25186 0.64187 0.04729 0.0
O271 O 0.27335 0.58933 -0.00155 0.0
O272 O 0.29433 0.6215 0.00556 0.0
In273 In 0.12615 0.50167 0.75253 0.0
O274 O 0.16217 0.48283 0.76235 0.0
O275 O 0.13595 0.4624 0.7426 0.0
C276 C 0.14262 0.54766 0.75609 0.0
C277 C 0.10639 0.50667 0.7078 0.0
C278 C 0.09739 0.49689 0.79215 0.0
O279 O 0.15532 0.53052 0.74697 0.0
O280 O 0.12172 0.54148 0.76368 0.0
O281 O 0.09006 0.49216 0.7708 0.0
O282 O 0.11929 0.50368 0.79363 0.0
C283 C 0.15669 0.46279 0.75232 0.0
O284 O 0.09745 0.49225 0.72352 0.0
O285 O 0.12507 0.51811 0.71453 0.0
In286 In 0.24586 0.37728 0.50708 0.0
O287 O 0.23581 0.34232 0.52887 0.0
O288 O 0.25312 0.37157 0.54755 0.0
C289 C 0.24784 0.36031 0.46055 0.0
C290 C 0.20173 0.3995 0.51114 0.0
C291 C 0.28995 0.39924 0.5085 0.0
O292 O 0.24663 0.34601 0.47886 0.0
O293 O 0.24839 0.38291 0.46581 0.0
O294 O 0.27022 0.41127 0.50958 0.0
O295 O 0.28749 0.37626 0.50648 0.0
C296 C 0.24339 0.35074 0.54902 0.0
O297 O 0.22034 0.40761 0.52193 0.0
O298 O 0.20567 0.38123 0.49762 0.0
In299 In 0.37568 0.50025 0.24801 0.0
O300 O 0.40384 0.48859 0.21925 0.0
O301 O 0.37289 0.50907 0.20739 0.0
C302 C 0.405 0.50193 0.2882 0.0
C303 C 0.35796 0.54654 0.24843 0.0
C304 C 0.34702 0.45924 0.24859 0.0
O305 O 0.41293 0.50516 0.2667 0.0
O306 O 0.38242 0.49785 0.28946 0.0
O307 O 0.33887 0.48063 0.24488 0.0
O308 O 0.36974 0.45832 0.25193 0.0
C309 C 0.39285 0.49911 0.20174 0.0
O310 O 0.34797 0.52941 0.26052 0.0
O311 O 0.37702 0.54051 0.23709 0.0
O312 O 0.03058 0.0232 -0.00251 0.0
Mn313 Mn -0.00016 0.00067 0.00204 0.0
O314 O 0.05971 -0.00039 0.98166 0.0
Mn315 Mn 0.04818 0.97253 -0.00164 0.0
O316 O 0.96837 0.97943 0.00679 0.0
O317 O 0.98065 0.0309 0.01407 0.0
Mn318 Mn 0.95518 0.03313 0.99417 0.0
O319 O 0.98982 0.0037 0.96523 0.0
O320 O 0.93666 0.00611 0.00383 0.0
O321 O 0.01171 0.9943 0.03828 0.0
O322 O 0.04776 0.97469 0.03225 0.0
O323 O 0.95844 0.06321 0.00819 0.0
O324 O 0.96311 0.03382 0.9614 0.0
C325 C 0.02276 0.94884 0.98112 0.0
C326 C 0.05185 0.02057 0.988 0.0
C327 C 0.94534 0.98445 0.00701 0.0
C328 C 0.97775 0.05428 0.01852 0.0
C329 C 0.97595 0.01704 0.95204 0.0
C330 C 0.03141 0.98393 0.04627 0.0
O331 O 0.01738 0.97006 0.99044 0.0
O332 O 0.04542 0.94259 0.98319 0.0
O333 O 0.28904 0.75143 0.24313 0.0
Mn334 Mn 0.25185 0.75036 0.25189 0.0
O335 O 0.29454 0.78419 0.21874 0.0
Mn336 Mn 0.26244 0.78598 0.2097 0.0
O337 O 0.21443 0.74947 0.26028 0.0
O338 O 0.25959 0.71676 0.26727 0.0
Mn339 Mn 0.24013 0.71633 0.29315 0.0
O340 O 0.25944 0.76827 0.28465 0.0
O341 O 0.20844 0.71639 0.28341 0.0
O342 O 0.24473 0.73271 0.21902 0.0
O343 O 0.25196 0.76086 0.18958 0.0
O344 O 0.25522 0.68723 0.29492 0.0
O345 O 0.25008 0.74085 0.31402 0.0
C346 C 0.23672 0.80547 0.23106 0.0
C347 C 0.30276 0.76652 0.23148 0.0
C348 C 0.20021 0.7342 0.27107 0.0
C349 C 0.26628 0.69515 0.27541 0.0
C350 C 0.25802 0.76169 0.30715 0.0
C351 C 0.24583 0.73933 0.19648 0.0
O352 O 0.24499 0.7838 0.2367 0.0
O353 O 0.24581 0.81502 0.21132 0.0
O354 O 0.46974 0.98216 0.49521 0.0
Mn355 Mn 0.4991 0.00579 0.50106 0.0
O356 O 0.43721 0.00592 0.48611 0.0
Mn357 Mn 0.45017 0.03485 0.49766 0.0
O358 O 0.52798 0.03039 0.50607 0.0
O359 O 0.51838 0.97631 0.51334 0.0
Mn360 Mn 0.5492 0.98195 0.50551 0.0
O361 O 0.51167 -0.00101 0.4661 0.0
O362 O 0.55867 0.00943 0.52248 0.0
O363 O 0.4861 0.01273 0.53652 0.0
O364 O 0.45268 0.03667 0.53148 0.0
O365 O 0.54917 0.95172 0.52023 0.0
O366 O 0.55006 0.98496 0.47132 0.0
C367 C 0.47662 0.05513 0.47684 0.0
C368 C 0.44751 0.98506 0.48842 0.0
C369 C 0.54897 0.02961 0.51628 0.0
C370 C 0.52587 0.95523 0.52165 0.0
C371 C 0.53236 0.99193 0.45775 0.0
C372 C 0.46819 0.02553 0.54499 0.0
O373 O 0.48053 0.03458 0.48788 0.0
O374 O 0.45428 0.06258 0.47833 0.0
O375 O 0.28302 0.25687 0.77342 0.0
Mn376 Mn 0.25166 0.25166 0.75207 0.0
O377 O 0.31458 0.25927 0.74695 0.0
Mn378 Mn 0.29812 0.249 0.71955 0.0
O379 O 0.22054 0.24665 0.73021 0.0
O380 O 0.23376 0.24219 0.7833 0.0
Mn381 Mn 0.2036 0.25329 0.78053 0.0
O382 O 0.24186 0.28801 0.75719 0.0
O383 O 0.18965 0.23661 0.75502 0.0
O384 O 0.26191 0.21495 0.74659 0.0
O385 O 0.29209 0.21577 0.71829 0.0
O386 O 0.20474 0.23947 0.81093 0.0
O387 O 0.20529 0.28704 0.77614 0.0
C388 C 0.27389 0.27271 0.70058 0.0
C389 C 0.30582 0.25973 0.76859 0.0
C390 C 0.19859 0.23917 0.73374 0.0
C391 C 0.22708 0.23458 0.80486 0.0
C392 C 0.22285 0.29854 0.76594 0.0
C393 C 0.27716 0.2043 0.73208 0.0
O394 O 0.26916 0.26228 0.72134 0.0
O395 O 0.29547 0.2683 0.69201 0.0
O396 O 0.99117 0.96883 0.48598 0.0
Mn397 Mn 0.0011 0.00153 0.50185 0.0
O398 O 0.01 0.94134 0.50889 0.0
Mn399 Mn 0.01461 0.96239 0.53505 0.0
O400 O 0.0098 0.03618 0.5153 0.0
O401 O 0.00664 0.01333 0.46682 0.0
Mn402 Mn 0.98614 0.03763 0.4622 0.0
O403 O 0.96408 0.0118 0.50271 0.0
O404 O -0.00428 0.06084 0.48499 0.0
O405 O 0.03883 0.99168 0.50192 0.0
O406 O 0.04549 0.97344 0.53786 0.0
O407 O 0.00246 0.03499 0.43315 0.0
O408 O 0.95495 0.02605 0.46568 0.0
C409 C 0.98391 0.97558 0.55305 0.0
C410 C -0.00188 0.94697 0.4899 0.0
C411 C 0.00574 0.0575 0.50591 0.0
C412 C 0.01418 0.01785 0.44463 0.0
C413 C 0.94841 0.0193 0.4869 0.0
C414 C 0.05354 0.98299 0.51829 0.0
O415 O -0.00383 0.98951 0.53766 0.0
O416 O -0.00605 0.9548 0.55892 0.0
O417 O 0.27597 0.78028 0.75709 0.0
Mn418 Mn 0.25075 0.75245 0.75128 0.0
O419 O 0.25597 0.81511 0.76374 0.0
Mn420 Mn 0.22629 0.80308 0.75445 0.0
O421 O 0.22594 0.72398 0.7447 0.0
O422 O 0.28186 0.73383 0.73887 0.0
Mn423 Mn 0.27592 0.70485 0.75208 0.0
O424 O 0.25394 0.73992 0.78746 0.0
O425 O 0.24832 0.69006 0.74089 0.0
O426 O 0.24532 0.7659 0.71602 0.0
O427 O 0.22267 0.80058 0.72054 0.0
O428 O 0.30275 0.69857 0.73504 0.0
O429 O 0.27876 0.7075 0.7855 0.0
C430 C 0.20568 0.77865 0.77884 0.0
C431 C 0.27554 0.80314 0.76194 0.0
C432 C 0.22799 0.70094 0.7405 0.0
C433 C 0.30149 0.72205 0.73103 0.0
C434 C 0.26556 0.72226 0.79769 0.0
C435 C 0.23324 0.78424 0.70719 0.0
O436 O 0.22046 0.77182 0.76154 0.0
O437 O 0.20522 0.80229 0.78061 0.0
O438 O 0.47825 0.98793 0.97311 0.0
Mn439 Mn 0.49999 -0.00022 0.00183 0.0
O440 O 0.49915 -6e-05 0.94027 0.0
Mn441 Mn 0.52908 0.00333 0.95491 0.0
O442 O 0.52039 0.01056 0.03168 0.0
O443 O 0.46813 0.0102 0.01884 0.0
Mn444 Mn 0.4685 0.9928 0.04606 0.0
O445 O 0.5005 0.96405 0.01645 0.0
O446 O 0.49618 0.00107 0.06374 0.0
O447 O 0.5015 0.03545 0.98664 0.0
O448 O 0.53477 0.03574 0.96258 0.0
O449 O 0.44098 0.01054 0.04901 0.0
O450 O 0.46562 0.96073 0.03634 0.0
C451 C 0.54584 0.97427 0.97695 0.0
C452 C 0.47986 0.99215 0.95021 0.0
C453 C 0.51642 0.00828 0.05473 0.0
C454 C 0.44741 0.0184 0.02749 0.0
C455 C 0.4848 0.95102 0.02794 0.0
C456 C 0.51753 0.04701 0.97362 0.0
O457 O 0.53235 0.99189 0.98533 0.0
O458 O 0.54707 0.97492 0.95334 0.0
O459 O 0.2867 0.24887 0.2616 0.0
Mn460 Mn 0.24975 0.25206 0.25183 0.0
O461 O 0.28534 0.2338 0.29883 0.0
Mn462 Mn 0.25244 0.22914 0.29625 0.0
O463 O 0.21425 0.2584 0.23787 0.0
O464 O 0.26054 0.2828 0.2339 0.0
Mn465 Mn 0.25559 0.2794 0.20226 0.0
O466 O 0.25619 0.22818 0.22201 0.0
O467 O 0.22172 0.28097 0.20334 0.0
O468 O 0.24276 0.27626 0.28223 0.0
O469 O 0.23404 0.25124 0.31266 0.0
O470 O 0.2781 0.30425 0.20657 0.0
O471 O 0.26784 0.25057 0.18983 0.0
C472 C 0.2349 0.19947 0.28388 0.0
C473 C 0.29739 0.24265 0.28136 0.0
C474 C 0.20709 0.27077 0.21877 0.0
C475 C 0.27595 0.30033 0.22983 0.0
C476 C 0.26404 0.23005 0.19994 0.0
C477 C 0.2352 0.2727 0.30436 0.0
O478 O 0.23753 0.21862 0.26876 0.0
O479 O 0.24588 0.19938 0.30489 0.0
O480 O 0.49191 0.46867 0.98364 0.0
Mn481 Mn 0.50188 0.50111 0.00028 0.0
O482 O 0.51044 0.44095 0.00694 0.0
Mn483 Mn 0.51622 0.46173 0.03298 0.0
O484 O 0.51068 0.53425 0.01614 0.0
O485 O 0.50794 0.51521 0.96629 0.0
Mn486 Mn 0.49028 0.54207 0.96353 0.0
O487 O 0.46477 0.51081 0.00047 0.0
O488 O 0.5007 0.56303 0.98819 0.0
O489 O 0.53932 0.49172 -2e-05 0.0
O490 O 0.54715 0.47318 0.03542 0.0
O491 O 0.50691 0.53967 0.93454 0.0
O492 O 0.45851 0.5322 0.96587 0.0
C493 C 0.48499 0.4739 0.05106 0.0
C494 C 0.49793 0.44663 0.98836 0.0
C495 C 0.50848 0.55665 0.00932 0.0
C496 C 0.51636 0.52034 0.9446 0.0
C497 C 0.45066 0.52083 0.98459 0.0
C498 C 0.55454 0.48355 0.01601 0.0
O499 O 0.49679 0.48804 0.03559 0.0
O500 O 0.49605 0.45375 0.05728 0.0
O501 O 0.76934 0.28409 0.26078 0.0
Mn502 Mn 0.75004 0.25263 0.25146 0.0
O503 O 0.74462 0.31512 0.251 0.0
Mn504 Mn 0.71759 0.29637 0.24437 0.0
O505 O 0.73195 0.22075 0.24232 0.0
O506 O 0.78298 0.2377 0.23965 0.0
Mn507 Mn 0.78516 0.21223 0.25927 0.0
O508 O 0.75223 0.23949 0.28827 0.0
O509 O 0.75799 0.19196 0.25599 0.0
O510 O 0.74671 0.26447 0.21479 0.0
O511 O 0.71373 0.28868 0.21208 0.0
O512 O 0.81132 0.20822 0.23977 0.0
O513 O 0.79029 0.22772 0.28848 0.0
C514 C 0.70133 0.27896 0.27484 0.0
C515 C 0.76488 0.30705 0.25858 0.0
C516 C 0.73739 0.19846 0.24736 0.0
C517 C 0.80399 0.22931 0.23156 0.0
C518 C 0.77087 0.2316 0.30007 0.0
C519 C 0.73051 0.27602 0.2022 0.0
O520 O 0.71653 0.26765 0.26013 0.0
O521 O 0.69454 0.30053 0.26729 0.0
O522 O 0.97797 0.49419 0.47208 0.0
Mn523 Mn -0.00106 0.50021 0.50323 0.0
O524 O 0.00312 0.48779 0.44038 0.0
Mn525 Mn 0.02907 0.50241 0.45597 0.0
O526 O 0.01932 0.50704 0.5346 0.0
O527 O 0.96732 0.50942 0.52023 0.0
Mn528 Mn 0.96687 0.49558 0.54938 0.0
O529 O -0.00427 0.4635 0.51388 0.0
O530 O 0.99291 0.50831 0.56633 0.0
O531 O 0.00308 0.5369 0.49261 0.0
O532 O 0.02687 0.53614 0.45882 0.0
O533 O 0.93775 0.5118 0.54712 0.0
O534 O 0.9685 0.46218 0.54461 0.0
C535 C 0.05109 0.48099 0.47962 0.0
C536 C 0.98188 0.48862 0.44961 0.0
C537 C 0.0142 0.51046 0.5573 0.0
C538 C 0.94579 0.5178 0.52559 0.0
C539 C 0.98344 0.4517 0.5301 0.0
C540 C 0.0145 0.54761 0.47498 0.0
O541 O 0.03023 0.49035 0.48597 0.0
O542 O 0.05819 0.48636 0.45758 0.0
O543 O 0.78174 0.7568 0.27364 0.0
Mn544 Mn 0.74987 0.75203 0.25329 0.0
O545 O 0.8105 0.76879 0.24709 0.0
Mn546 Mn 0.79625 0.75324 0.22075 0.0
O547 O 0.71858 0.74612 0.23237 0.0
O548 O 0.733 0.74217 0.28522 0.0
Mn549 Mn 0.70352 0.75554 0.28415 0.0
O550 O 0.74016 0.78866 0.25839 0.0
O551 O 0.68713 0.74171 0.25836 0.0
O552 O 0.76093 0.71553 0.24712 0.0
O553 O 0.79414 0.7194 0.22255 0.0
O554 O 0.70441 0.73999 0.31356 0.0
O555 O 0.7071 0.78921 0.28283 0.0
C556 C 0.76909 0.77299 0.20103 0.0
C557 C 0.80339 0.76433 0.26883 0.0
C558 C 0.69628 0.74091 0.23701 0.0
C559 C 0.72633 0.73419 0.30673 0.0
C560 C 0.72344 0.80001 0.27028 0.0
C561 C 0.77866 0.70643 0.23438 0.0
O562 O 0.76591 0.76267 0.22204 0.0
O563 O 0.79065 0.76996 0.19187 0.0
O564 O 0.78694 0.25499 0.74284 0.0
Mn565 Mn 0.75131 0.24891 0.75391 0.0
O566 O 0.78165 0.27251 0.70578 0.0
Mn567 Mn 0.74804 0.27811 0.70795 0.0
O568 O 0.71447 0.24293 0.76386 0.0
O569 O 0.76278 0.2169 0.7695 0.0
Mn570 Mn 0.74711 0.21553 0.79779 0.0
O571 O 0.75813 0.26883 0.78608 0.0
O572 O 0.71463 0.21233 0.79132 0.0
O573 O 0.74684 0.22824 0.72135 0.0
O574 O 0.72687 0.25399 0.69822 0.0
O575 O 0.7655 0.18819 0.79809 0.0
O576 O 0.75646 0.24137 0.81674 0.0
C577 C 0.73356 0.30384 0.73204 0.0
C578 C 0.79521 0.26324 0.72242 0.0
C579 C 0.70338 0.22694 0.77722 0.0
C580 C 0.7717 0.19581 0.77641 0.0
C581 C 0.76041 0.26286 0.80872 0.0
C582 C 0.73561 0.23287 0.70134 0.0
O583 O 0.74091 0.28215 0.73921 0.0
O584 O 0.73641 0.30908 0.70905 0.0
O585 O 0.78637 0.75576 0.76639 0.0
Mn586 Mn 0.75015 0.75241 0.75372 0.0
O587 O 0.79674 0.71964 0.78174 0.0
Mn588 Mn 0.76529 0.71665 0.79326 0.0
O589 O 0.71317 0.75015 0.7404 0.0
O590 O 0.75449 0.78728 0.73988 0.0
Mn591 Mn 0.73632 0.78525 0.71289 0.0
O592 O 0.76244 0.73577 0.72181 0.0
O593 O 0.70575 0.78744 0.7261 0.0
O594 O 0.73906 0.76788 0.78689 0.0
O595 O 0.75541 0.74166 0.81449 0.0
O596 O 0.75844 0.80879 0.70624 0.0
O597 O 0.74173 0.75715 0.694 0.0
C598 C 0.73844 0.69606 0.77453 0.0
C599 C 0.80262 0.74095 0.77464 0.0
C600 C 0.69798 0.76634 0.73194 0.0
C601 C 0.768 0.80225 0.72694 0.0
C602 C 0.75452 0.73871 0.70004 0.0
C603 C 0.7446 0.76183 0.80906 0.0
O604 O 0.74516 0.7181 0.76808 0.0
O605 O 0.74991 0.68694 0.79317 0.0
O606 O 0.52901 0.52467 0.49549 0.0
Mn607 Mn 0.49877 0.50134 0.5009 0.0
O608 O 0.55634 0.50369 0.47434 0.0
Mn609 Mn 0.54723 0.476 0.49163 0.0
O610 O 0.46813 0.47846 0.50786 0.0
O611 O 0.48088 0.53221 0.51241 0.0
Mn612 Mn 0.45101 0.53033 0.49987 0.0
O613 O 0.48702 0.5072 0.4649 0.0
O614 O 0.43608 0.50363 0.51381 0.0
O615 O 0.51326 0.49413 0.53622 0.0
O616 O 0.55005 0.47828 0.52554 0.0
O617 O 0.4516 0.55952 0.51613 0.0
O618 O 0.45249 0.52925 0.46587 0.0
C619 C 0.52162 0.44984 0.47861 0.0
C620 C 0.54922 0.52374 0.48361 0.0
C621 C 0.44562 0.48238 0.51367 0.0
C622 C 0.47385 0.55333 0.52121 0.0
C623 C 0.46906 0.51777 0.45421 0.0
C624 C 0.53454 0.48526 0.54177 0.0
O625 O 0.51587 0.47117 0.48752 0.0
O626 O 0.54481 0.44571 0.4771 0.0
O627 O 0.97118 0.48191 -0.00381 0.0
Mn628 Mn 0.00187 0.50381 0.00214 0.0
O629 O 0.93915 0.50743 0.99256 0.0
Mn630 Mn 0.95517 0.53488 0.00368 0.0
O631 O 0.03236 0.52614 0.00818 0.0
O632 O 0.01969 0.47265 0.01264 0.0
Mn633 Mn 0.04997 0.47499 0.00163 0.0
O634 O 0.01268 0.49841 0.96618 0.0
O635 O 0.06411 0.50157 0.01651 0.0
O636 O 0.99093 0.50946 0.0386 0.0
O637 O 0.96005 0.53678 0.03692 0.0
O638 O 0.04849 0.44513 0.01693 0.0
O639 O 0.04794 0.4771 0.96767 0.0
C640 C 0.9781 0.55503 0.9799 0.0
C641 C 0.94851 0.48605 0.99194 0.0
C642 C 0.05442 0.52268 0.01515 0.0
C643 C 0.02584 0.45092 0.02044 0.0
C644 C 0.03097 0.48796 0.95593 0.0
C645 C 0.97527 0.52379 0.04884 0.0
O646 O 0.98441 0.53458 0.99045 0.0
O647 O 0.95622 0.56254 0.98489 0.0
H648 H 0.03079 0.17294 0.08163 0.0
H649 H 0.95548 0.18388 0.1033 0.0
H650 H 0.94615 0.14095 0.0922 0.0
H651 H 0.01743 0.13974 0.02791 0.0
H652 H 0.04296 0.1189 0.03004 0.0
H653 H 0.0448 0.14886 0.04373 0.0
H654 H 0.05535 0.12852 0.08538 0.0
H655 H 0.05288 0.09842 0.07181 0.0
H656 H 0.03486 0.10614 0.09836 0.0
H657 H 0.94552 0.0965 0.08153 0.0
H658 H 0.94764 0.05933 0.05631 0.0
H659 H 0.02015 0.07953 0.03185 0.0
C660 C 0.01246 0.16605 0.08427 0.0
C661 C -0.00609 0.18144 0.09386 0.0
C662 C 0.96995 0.17222 0.09633 0.0
C663 C 0.96458 0.14779 0.09037 0.0
C664 C 0.98328 0.13286 0.08145 0.0
C665 C 0.0065 0.14182 0.07743 0.0
C666 C 0.02204 0.1228 0.06407 0.0
C667 C 0.03239 0.1332 0.03999 0.0
C668 C 0.04251 0.11343 0.0809 0.0
C669 C 0.00336 0.1026 0.05966 0.0
C670 C 0.98182 0.10816 0.07167 0.0
C671 C 0.96217 0.09211 0.07178 0.0
C672 C 0.96376 0.07075 0.05766 0.0
C673 C 0.98397 0.0665 0.04193 0.0
C674 C 0.00461 0.08203 0.04387 0.0
H675 H 0.07757 0.71852 0.34401 0.0
H676 H 0.05619 0.79089 0.31866 0.0
H677 H 0.09335 0.79305 0.29284 0.0
H678 H 0.14187 0.72855 0.34626 0.0
H679 H 0.1493 0.69826 0.33522 0.0
H680 H 0.12145 0.70325 0.35196 0.0
H681 H 0.09714 0.6846 0.31577 0.0
H682 H 0.12495 0.68011 0.29869 0.0
H683 H 0.10032 0.69766 0.28554 0.0
H684 H 0.13403 0.78793 0.2717 0.0
H685 H 0.17517 0.77588 0.25737 0.0
H686 H 0.16649 0.70503 0.29299 0.0
C687 C 0.08084 0.7348 0.33305 0.0
C688 C 0.06433 0.75457 0.33315 0.0
C689 C 0.0688 0.77555 0.31852 0.0
C690 C 0.08975 0.77692 0.30387 0.0
C691 C 0.10553 0.75687 0.30371 0.0
C692 C 0.10123 0.73616 0.31782 0.0
C693 C 0.12076 0.71699 0.31413 0.0
C694 C 0.13414 0.71146 0.33832 0.0
C695 C 0.11015 0.69345 0.30285 0.0
C696 C 0.13695 0.73036 0.29611 0.0
C697 C 0.12801 0.75336 0.29036 0.0
C698 C 0.14105 0.76977 0.27569 0.0
C699 C 0.1643 0.76274 0.26746 0.0
C700 C 0.17402 0.73954 0.27392 0.0
C701 C 0.15959 0.72287 0.28751 0.0
H702 H 0.49641 0.84455 0.60929 0.0
H703 H 0.50052 0.79893 0.54424 0.0
H704 H 0.50113 0.83608 0.51831 0.0
H705 H 0.4582 0.89364 0.58211 0.0
H706 H 0.47398 0.91786 0.59797 0.0
H707 H 0.47157 0.8878 0.61171 0.0
H708 H 0.51865 0.8853 0.61573 0.0
H709 H 0.52096 0.91552 0.60262 0.0
H710 H 0.53737 0.89027 0.58896 0.0
H711 H 0.50277 0.87786 0.49936 0.0
H712 H 0.51228 0.92102 0.48925 0.0
H713 H 0.50865 0.94002 0.56615 0.0
C714 C 0.49711 0.8424 0.58957 0.0
C715 C 0.49802 0.81876 0.57879 0.0
C716 C 0.49944 0.81677 0.55293 0.0
C717 C 0.49967 0.83779 0.53802 0.0
C718 C 0.49835 0.86078 0.54916 0.0
C719 C 0.49741 0.86327 0.57436 0.0
C720 C 0.49805 0.89018 0.58168 0.0
C721 C 0.47402 0.89782 0.59411 0.0
C722 C 0.52008 0.89563 0.59821 0.0
C723 C 0.50056 0.90234 0.55674 0.0
C724 C 0.49989 0.88505 0.53821 0.0
C725 C 0.50292 0.8916 0.51368 0.0
C726 C 0.50794 0.91622 0.50805 0.0
C727 C 0.51028 0.93393 0.52684 0.0
C728 C 0.50587 0.92703 0.5514 0.0
H729 H 0.43805 0.23613 0.81947 0.0
H730 H 0.42042 0.28214 0.88187 0.0
H731 H 0.37791 0.28602 0.86717 0.0
H732 H 0.40348 0.26708 0.77543 0.0
H733 H 0.39359 0.2397 0.75983 0.0
H734 H 0.42201 0.23969 0.77617 0.0
H735 H 0.4075 0.20216 0.8017 0.0
H736 H 0.37892 0.20219 0.78547 0.0
H737 H 0.37917 0.20397 0.81844 0.0
H738 H 0.33737 0.2864 0.84384 0.0
H739 H 0.30361 0.28363 0.81345 0.0
H740 H 0.34878 0.23651 0.76812 0.0
C741 C 0.42521 0.24696 0.83004 0.0
C742 C 0.4324 0.25895 0.85164 0.0
C743 C 0.41512 0.27278 0.86521 0.0
C744 C 0.39097 0.27504 0.85706 0.0
C745 C 0.38437 0.26296 0.83561 0.0
C746 C 0.40101 0.24902 0.82244 0.0
C747 C 0.38963 0.23815 0.79981 0.0
C748 C 0.40296 0.24669 0.77644 0.0
C749 C 0.38876 0.20995 0.80147 0.0
C750 C 0.36441 0.24909 0.80165 0.0
C751 C 0.36138 0.26302 0.82255 0.0
C752 C 0.3395 0.27537 0.82748 0.0
C753 C 0.32046 0.27371 0.81026 0.0
C754 C 0.32386 0.26016 0.78844 0.0
C755 C 0.34586 0.24733 0.78454 0.0
H756 H 0.00193 0.81078 0.44082 0.0
H757 H -0.00556 0.83973 0.36707 0.0
H758 H 0.99003 0.88172 0.38389 0.0
H759 H 0.95923 0.85088 0.47034 0.0
H760 H 0.97737 0.85396 0.49768 0.0
H761 H 0.9792 0.82628 0.47972 0.0
H762 H 0.02606 0.83163 0.47539 0.0
H763 H 0.02442 0.85909 0.49363 0.0
H764 H 0.03801 0.8601 0.46353 0.0
H765 H 0.98686 0.92065 0.40934 0.0
H766 H 0.98857 0.95327 0.4409 0.0
H767 H -0.0014 0.89772 0.49716 0.0
C768 C -0.00074 0.82593 0.42821 0.0
C769 C -0.00164 0.82214 0.40276 0.0
C770 C -0.00486 0.84238 0.38673 0.0
C771 C 0.99251 0.86622 0.39608 0.0
C772 C 0.99325 0.86931 0.42141 0.0
C773 C -0.00321 0.84971 0.43718 0.0
C774 C -0.00195 0.85784 0.46351 0.0
C775 C 0.97721 0.84657 0.4787 0.0
C776 C 0.02312 0.85181 0.47466 0.0
C777 C -0.00535 0.88512 0.46021 0.0
C778 C 0.99172 0.89148 0.43587 0.0
C779 C 0.98901 0.91586 0.42848 0.0
C780 C 0.98988 0.93422 0.4465 0.0
C781 C -0.00628 0.92792 0.47141 0.0
C782 C -0.00435 0.90305 0.47826 0.0
H783 H 0.40767 0.7686 0.64018 0.0
H784 H 0.4554 0.72893 0.68989 0.0
H785 H 0.42093 0.72118 0.71747 0.0
H786 H 0.3704 0.79644 0.69013 0.0
H787 H 0.34202 0.79458 0.67372 0.0
H788 H 0.37029 0.7983 0.65715 0.0
H789 H 0.36116 0.75933 0.63171 0.0
H790 H 0.33273 0.75574 0.64787 0.0
H791 H 0.35448 0.73087 0.64731 0.0
H792 H 0.3838 0.71952 0.74091 0.0
H793 H 0.34205 0.71539 0.75603 0.0
H794 H 0.31466 0.75269 0.69126 0.0
C795 C 0.41069 0.75835 0.65692 0.0
C796 C 0.43435 0.7497 0.66317 0.0
C797 C 0.43764 0.73623 0.68508 0.0
C798 C 0.41816 0.73174 0.70089 0.0
C799 C 0.39537 0.74112 0.69482 0.0
C800 C 0.39121 0.75386 0.67333 0.0
C801 C 0.36433 0.76123 0.67165 0.0
C802 C 0.3616 0.7893 0.67323 0.0
C803 C 0.35248 0.75116 0.64824 0.0
C804 C 0.35405 0.74912 0.69471 0.0
C805 C 0.37279 0.73874 0.70813 0.0
C806 C 0.3689 0.72739 0.73054 0.0
C807 C 0.34506 0.72538 0.73908 0.0
C808 C 0.32506 0.73372 0.7249 0.0
C809 C 0.32958 0.74648 0.70266 0.0
H810 H 0.51397 0.19055 0.94172 0.0
H811 H 0.48564 0.16768 0.87104 0.0
H812 H 0.48379 0.12502 0.88556 0.0
H813 H 0.5523 0.13895 0.95122 0.0
H814 H 0.5467 0.13653 0.98371 0.0
H815 H 0.54417 0.16587 0.96866 0.0
H816 H 0.50009 0.17053 0.98508 0.0
H817 H 0.50245 0.14111 0.00012 0.0
H818 H 0.478 0.14688 0.97884 0.0
H819 H 0.48695 0.08555 0.90554 0.0
H820 H 0.49683 0.04923 0.93024 0.0
H821 H 0.5228 0.09555 0.98914 0.0
C822 C 0.50715 0.17654 0.92946 0.0
C823 C 0.49979 0.18239 0.9053 0.0
C824 C 0.49124 0.16363 0.88964 0.0
C825 C 0.49003 0.13935 0.89774 0.0
C826 C 0.49736 0.13417 0.92157 0.0
C827 C 0.50584 0.15205 0.93728 0.0
C828 C 0.51368 0.1409 0.9616 0.0
C829 C 0.54083 0.14585 0.96657 0.0
C830 C 0.49759 0.15042 0.98266 0.0
C831 C 0.50895 0.11387 0.95665 0.0
C832 C 0.49916 0.11073 0.93351 0.0
C833 C 0.49416 0.08773 0.92386 0.0
C834 C 0.49961 0.06724 0.93806 0.0
C835 C 0.50979 0.06976 0.96166 0.0
C836 C 0.51443 0.09333 0.97132 0.0
H837 H 0.07229 0.22875 0.17845 0.0
H838 H 0.07137 0.29698 0.13718 0.0
H839 H 0.10972 0.30948 0.15667 0.0
H840 H 0.10094 0.25291 0.23466 0.0
H841 H 0.12017 0.22644 0.23935 0.0
H842 H 0.0911 0.2231 0.22434 0.0
H843 H 0.11225 0.20309 0.18684 0.0
H844 H 0.14124 0.20601 0.20197 0.0
H845 H 0.13696 0.21901 0.17187 0.0
H846 H 0.14694 0.31546 0.17998 0.0
H847 H 0.18682 0.31141 0.19966 0.0
H848 H 0.16822 0.23772 0.22385 0.0
C849 C 0.08014 0.2464 0.17381 0.0
C850 C 0.06867 0.26212 0.15653 0.0
C851 C 0.07974 0.28475 0.15041 0.0
C852 C 0.10144 0.29211 0.16154 0.0
C853 C 0.11222 0.27647 0.17857 0.0
C854 C 0.10244 0.25382 0.18434 0.0
C855 C 0.11949 0.23981 0.20151 0.0
C856 C 0.10719 0.23529 0.22645 0.0
C857 C 0.12799 0.21555 0.18984 0.0
C858 C 0.14047 0.258 0.2039 0.0
C859 C 0.13524 0.27927 0.19105 0.0
C860 C 0.15136 0.29887 0.18999 0.0
C861 C 0.174 0.29637 0.20131 0.0
C862 C 0.1808 0.27421 0.21317 0.0
C863 C 0.16346 0.25499 0.21521 0.0
H864 H 0.07431 0.02741 0.18014 0.0
H865 H 0.11086 0.95673 0.1832 0.0
H866 H 0.09084 0.9444 0.14485 0.0
H867 H 0.01717 0.00687 0.15198 0.0
H868 H 0.0145 0.03292 0.13172 0.0
H869 H 0.02974 0.03612 0.1608 0.0
H870 H 0.06841 0.05233 0.13882 0.0
H871 H 0.0531 0.04958 0.1098 0.0
H872 H 0.08196 0.03441 0.11457 0.0
H873 H 0.06707 0.9388 0.10777 0.0
H874 H 0.04735 0.94284 0.0677 0.0
H875 H 0.02851 0.01856 0.08402 0.0
C876 C 0.07776 0.0093 0.17273 0.0
C877 C 0.09376 0.99276 0.18477 0.0
C878 C 0.09852 0.96951 0.17432 0.0
C879 C 0.0871 0.96228 0.15266 0.0
C880 C 0.07126 0.97872 0.14132 0.0
C881 C 0.067 0.00199 0.15046 0.0
C882 C 0.05099 0.01665 0.13287 0.0
C883 C 0.02665 0.02355 0.14508 0.0
C884 C 0.06442 0.0396 0.12345 0.0
C885 C 0.04718 -0.00206 0.11248 0.0
C886 C 0.05858 0.97604 0.11835 0.0
C887 C 0.05813 0.95584 0.10287 0.0
C888 C 0.04675 0.9583 0.08019 0.0
C889 C 0.03631 0.98094 0.07277 0.0
C890 C 0.03587 0.0009 0.08942 0.0
H891 H 0.23711 0.8595 0.41032 0.0
H892 H 0.28058 0.81003 0.45497 0.0
H893 H 0.29452 0.78861 0.41803 0.0
H894 H 0.21481 0.81521 0.37167 0.0
H895 H 0.21547 0.83315 0.34386 0.0
H896 H 0.21278 0.84825 0.37299 0.0
H897 H 0.25081 0.87435 0.36277 0.0
H898 H 0.25407 0.85897 0.33367 0.0
H899 H 0.2791 0.85934 0.35499 0.0
H900 H 0.3003 0.76965 0.37887 0.0
H901 H 0.29203 0.74919 0.3397 0.0
H902 H 0.24369 0.80859 0.31863 0.0
C903 C 0.24978 0.84433 0.41211 0.0
C904 C 0.25779 0.83634 0.43539 0.0
C905 C 0.27408 0.81629 0.43729 0.0
C906 C 0.28247 0.80428 0.41638 0.0
C907 C 0.27431 0.81247 0.39369 0.0
C908 C 0.25804 0.83175 0.39129 0.0
C909 C 0.24945 0.83421 0.36496 0.0
C910 C 0.22147 0.83258 0.36329 0.0
C911 C 0.25892 0.85814 0.35343 0.0
C912 C 0.26189 0.81203 0.3536 0.0
C913 C 0.27708 0.80063 0.37036 0.0
C914 C 0.2889 0.77859 0.36537 0.0
C915 C 0.28409 0.76711 0.34314 0.0
C916 C 0.2675 0.77758 0.32636 0.0
C917 C 0.25698 0.80076 0.33106 0.0
H918 H 0.4272 0.97629 0.67695 0.0
H919 H 0.40013 0.05027 0.6886 0.0
H920 H 0.41958 0.06378 0.65018 0.0
H921 H 0.48526 0.99217 0.64691 0.0
H922 H 0.48339 0.96812 0.6243 0.0
H923 H 0.4695 0.96399 0.65401 0.0
H924 H 0.42795 0.95494 0.63353 0.0
H925 H 0.44188 0.95869 0.60386 0.0
H926 H 0.4155 0.97673 0.61198 0.0
H927 H 0.44012 0.06965 0.61136 0.0
H928 H 0.45629 0.06663 0.56942 0.0
H929 H 0.46923 0.98864 0.57978 0.0
C930 C 0.42593 0.99538 0.67148 0.0
C931 C 0.41286 0.01257 0.68586 0.0
C932 C 0.41052 0.03712 0.67791 0.0
C933 C 0.42154 0.04494 0.65622 0.0
C934 C 0.43452 0.02784 0.64247 0.0
C935 C 0.43644 0.00345 0.64934 0.0
C936 C 0.44944 0.98865 0.62954 0.0
C937 C 0.47332 0.97758 0.63928 0.0
C938 C 0.43269 0.96858 0.61911 0.0
C939 C 0.45438 0.00866 0.61067 0.0
C940 C 0.44588 0.0311 0.6189 0.0
C941 C 0.44704 0.05227 0.60468 0.0
C942 C 0.45631 0.05039 0.58094 0.0
C943 C 0.46421 0.02752 0.57158 0.0
C944 C 0.46389 0.00646 0.58682 0.0
H945 H 0.24305 0.19434 0.9409 0.0
H946 H 0.26993 0.12465 0.91331 0.0
H947 H 0.2727 0.14216 0.87168 0.0
H948 H 0.20513 0.20708 0.89099 0.0
H949 H 0.21047 0.23974 0.89136 0.0
H950 H 0.21336 0.22223 0.91914 0.0
H951 H 0.2574 0.23871 0.92438 0.0
H952 H 0.25476 0.25587 0.89622 0.0
H953 H 0.27937 0.23425 0.90015 0.0
H954 H 0.26928 0.16626 0.83226 0.0
H955 H 0.25532 0.19353 0.79854 0.0
H956 H 0.23141 0.24711 0.85198 0.0
C957 C 0.2499 0.18292 0.92617 0.0
C958 C 0.2565 0.15826 0.93039 0.0
C959 C 0.26494 0.14371 0.91054 0.0
C960 C 0.26673 0.15351 0.88683 0.0
C961 C 0.26018 0.17796 0.88325 0.0
C962 C 0.25177 0.19241 0.90237 0.0
C963 C 0.24375 0.21738 0.89333 0.0
C964 C 0.21657 0.22184 0.89903 0.0
C965 C 0.25978 0.23776 0.90417 0.0
C966 C 0.24828 0.21446 0.86611 0.0
C967 C 0.25821 0.19179 0.86059 0.0
C968 C 0.26198 0.18427 0.83636 0.0
C969 C 0.25434 0.19992 0.8173 0.0
C970 C 0.24291 0.2225 0.82283 0.0
C971 C 0.24075 0.23017 0.84741 0.0
H972 H 0.07221 0.97702 0.32132 0.0
H973 H 0.12548 0.03436 0.3339 0.0
H974 H 0.1115 0.03809 0.37678 0.0
H975 H 0.02419 0.00111 0.35525 0.0
H976 H 0.01417 0.97227 0.36806 0.0
H977 H 0.03014 0.97273 0.33928 0.0
H978 H 0.06178 0.94211 0.35711 0.0
H979 H 0.04612 0.94223 0.38623 0.0
H980 H 0.07802 0.94994 0.38468 0.0
H981 H 0.08989 0.0379 0.41722 0.0
H982 H 0.05846 0.03799 0.44966 0.0
H983 H 0.01923 0.98076 0.4117 0.0
C984 C 0.08097 0.99023 0.33321 0.0
C985 C 0.09996 0.00539 0.32431 0.0
C986 C 0.11105 0.02242 0.34039 0.0
C987 C 0.10334 0.02456 0.36484 0.0
C988 C 0.08487 0.00911 0.37322 0.0
C989 C 0.07378 0.99228 0.35791 0.0
C990 C 0.05346 0.97882 0.37126 0.0
C991 C 0.02905 0.98143 0.35766 0.0
C992 C 0.06025 0.95166 0.37503 0.0
C993 C 0.05337 0.99231 0.39561 0.0
C994 C 0.07238 0.00893 0.39675 0.0
C995 C 0.07527 0.02458 0.41675 0.0
C996 C 0.05752 0.02425 0.43534 0.0
C997 C 0.03692 0.00876 0.43359 0.0
C998 C 0.03537 0.99194 0.41399 0.0
H999 H 0.23724 0.86559 0.58666 0.0
H1000 H 0.25628 0.79986 0.54603 0.0
H1001 H 0.25225 0.7751 0.58391 0.0
H1002 H 0.26775 0.85068 0.64241 0.0
H1003 H 0.24417 0.86335 0.66169 0.0
H1004 H 0.24893 0.87552 0.63138 0.0
H1005 H 0.20349 0.86717 0.62117 0.0
H1006 H 0.19872 0.85456 0.65136 0.0
H1007 H 0.1915 0.83655 0.62467 0.0
H1008 H 0.2482 0.75813 0.62692 0.0
H1009 H 0.24355 0.75025 0.67137 0.0
H1010 H 0.22419 0.8268 0.68252 0.0
C1011 C 0.24064 0.846 0.58581 0.0
C1012 C 0.24719 0.83456 0.56361 0.0
C1013 C 0.25121 0.80888 0.56298 0.0
C1014 C 0.24895 0.7947 0.58435 0.0
C1015 C 0.24222 0.8065 0.60597 0.0
C1016 C 0.23796 0.83154 0.60679 0.0
C1017 C 0.23064 0.83975 0.6322 0.0
C1018 C 0.24897 0.85842 0.64252 0.0
C1019 C 0.20454 0.85011 0.63235 0.0
C1020 C 0.23201 0.81554 0.6457 0.0
C1021 C 0.23873 0.79655 0.63033 0.0
C1022 C 0.24262 0.7728 0.63909 0.0
C1023 C 0.23996 0.76851 0.66433 0.0
C1024 C 0.23333 0.78788 0.68037 0.0
C1025 C 0.22886 0.81151 0.67072 0.0
H1026 H 0.41927 0.02797 0.8262 0.0
H1027 H 0.38933 0.95441 0.82318 0.0
H1028 H 0.40364 0.94643 0.86541 0.0
H1029 H 0.47234 0.01447 0.86015 0.0
H1030 H 0.47113 0.04212 0.87826 0.0
H1031 H 0.45802 0.04176 0.8481 0.0
H1032 H 0.41681 0.05636 0.86659 0.0
H1033 H 0.42987 0.05613 0.89687 0.0
H1034 H 0.40269 0.03866 0.8907 0.0
H1035 H 0.42446 0.94537 0.90649 0.0
H1036 H 0.45126 0.95155 0.94263 0.0
H1037 H 0.46294 0.02694 0.92027 0.0
C1038 C 0.4158 0.01023 0.83453 0.0
C1039 C 0.40344 0.99169 0.82167 0.0
C1040 C 0.39882 0.96877 0.833 0.0
C1041 C 0.40675 0.96413 0.85692 0.0
C1042 C 0.4186 0.98289 0.8694 0.0
C1043 C 0.42294 0.00556 0.85866 0.0
C1044 C 0.4363 0.02247 0.87592 0.0
C1045 C 0.4609 0.03066 0.86495 0.0
C1046 C 0.42046 0.04472 0.88293 0.0
C1047 C 0.43969 0.00539 0.89751 0.0
C1048 C 0.42923 0.98269 0.8936 0.0
C1049 C 0.43225 0.96325 0.9101 0.0
C1050 C 0.44723 0.9669 0.93063 0.0
C1051 C 0.45879 0.98975 0.93411 0.0
C1052 C 0.45403 0.0094 0.91801 0.0
H1053 H 0.22121 0.16689 0.07758 0.0
H1054 H 0.29728 0.14912 0.06541 0.0
H1055 H 0.30688 0.16144 0.10796 0.0
H1056 H 0.23333 0.22155 0.11147 0.0
H1057 H 0.20762 0.21811 0.13182 0.0
H1058 H 0.20655 0.20526 0.10149 0.0
H1059 H 0.19682 0.16266 0.12034 0.0
H1060 H 0.19844 0.1754 0.15077 0.0
H1061 H 0.21728 0.14949 0.14262 0.0
H1062 H 0.30888 0.17808 0.15052 0.0
H1063 H 0.30418 0.20337 0.18792 0.0
H1064 H 0.22719 0.21165 0.17281 0.0
C1065 C 0.23981 0.16554 0.08405 0.0
C1066 C 0.2586 0.15714 0.0684 0.0
C1067 C 0.28277 0.15576 0.07719 0.0
C1068 C 0.28831 0.16244 0.10138 0.0
C1069 C 0.26946 0.17068 0.11649 0.0
C1070 C 0.24575 0.17269 0.10808 0.0
C1071 C 0.22948 0.18464 0.12723 0.0
C1072 C 0.21862 0.20882 0.11742 0.0
C1073 C 0.20932 0.16698 0.13574 0.0
C1074 C 0.24782 0.18927 0.14755 0.0
C1075 C 0.27068 0.18062 0.14114 0.0
C1076 C 0.29101 0.18454 0.15598 0.0
C1077 C 0.28818 0.19866 0.17732 0.0
C1078 C 0.26521 0.20858 0.18364 0.0
C1079 C 0.2447 0.20324 0.16893 0.0
H1080 H 0.16834 0.10627 0.97046 0.0
H1081 H 0.19484 0.07134 0.03681 0.0
H1082 H 0.15476 0.05182 0.04294 0.0
H1083 H 0.10445 0.11518 0.99039 0.0
H1084 H 0.09198 0.10742 0.96088 0.0
H1085 H 0.12168 0.12142 0.9629 0.0
H1086 H 0.14053 0.0852 0.9385 0.0
H1087 H 0.11087 0.07134 0.93619 0.0
H1088 H 0.13586 0.05419 0.94918 0.0
H1089 H 0.1126 0.03697 0.04274 0.0
H1090 H 0.07321 0.01889 0.03137 0.0
H1091 H 0.07472 0.05816 0.96218 0.0
C1092 C 0.16548 0.09472 0.98638 0.0
C1093 C 0.18444 0.09053 0.00342 0.0
C1094 C 0.18044 0.07484 0.02369 0.0
C1095 C 0.15771 0.0639 0.02744 0.0
C1096 C 0.13929 0.06854 0.01053 0.0
C1097 C 0.143 0.08302 0.99004 0.0
C1098 C 0.12081 0.08258 0.97339 0.0
C1099 C 0.10904 0.10818 0.9718 0.0
C1100 C 0.12742 0.07273 0.94781 0.0
C1101 C 0.1045 0.06491 0.98736 0.0
C1102 C 0.11525 0.05803 0.00925 0.0
C1103 C 0.10398 0.04216 0.02567 0.0
C1104 C 0.08154 0.03216 0.01914 0.0
C1105 C 0.07099 0.0374 0.99609 0.0
C1106 C 0.0823 0.05431 0.98009 0.0
H1107 H 0.68163 0.41804 0.03506 0.0
H1108 H 0.69027 0.42018 0.95611 0.0
H1109 H 0.65306 0.44578 0.95264 0.0
H1110 H 0.61596 0.41097 0.03171 0.0
H1111 H 0.6106 0.42789 0.05957 0.0
H1112 H 0.63865 0.41115 0.05556 0.0
H1113 H 0.66286 0.45109 0.06403 0.0
H1114 H 0.63484 0.46804 0.0675 0.0
H1115 H 0.65733 0.47796 0.04546 0.0
H1116 H 0.61521 0.471 0.95786 0.0
H1117 H 0.57549 0.48818 0.97057 0.0
H1118 H 0.59115 0.46825 0.04605 0.0
C1119 C 0.67577 0.42425 0.01714 0.0
C1120 C 0.68885 0.41787 0.99587 0.0
C1121 C 0.68041 0.42531 0.97256 0.0
C1122 C 0.65947 0.43989 0.97045 0.0
C1123 C 0.64707 0.44628 0.99182 0.0
C1124 C 0.65453 0.43817 0.01466 0.0
C1125 C 0.63659 0.44543 0.03442 0.0
C1126 C 0.62475 0.42251 0.04598 0.0
C1127 C 0.64864 0.46161 0.054 0.0
C1128 C 0.61844 0.45978 0.01924 0.0
C1129 C 0.62479 0.46008 0.99473 0.0
C1130 C 0.61006 0.47104 0.97702 0.0
C1131 C 0.58766 0.48099 0.98444 0.0
C1132 C 0.58027 0.47966 0.00928 0.0
C1133 C 0.59636 0.46978 0.02694 0.0
H1134 H 0.81308 0.44322 0.26191 0.0
H1135 H 0.88395 0.41474 0.24046 0.0
H1136 H 0.86856 0.37235 0.24506 0.0
H1137 H 0.79973 0.39632 0.30743 0.0
H1138 H 0.76776 0.3952 0.29993 0.0
H1139 H 0.78456 0.42334 0.29585 0.0
H1140 H 0.77167 0.42511 0.25013 0.0
H1141 H 0.75451 0.39729 0.25425 0.0
H1142 H 0.77754 0.399 0.23068 0.0
H1143 H 0.84496 0.33331 0.25026 0.0
H1144 H 0.81365 0.30084 0.25246 0.0
H1145 H 0.75906 0.35484 0.27166 0.0
C1146 C 0.82534 0.42806 0.25816 0.0
C1147 C 0.84965 0.43213 0.25085 0.0
C1148 C 0.86523 0.4119 0.24614 0.0
C1149 C 0.85672 0.38781 0.24884 0.0
C1150 C 0.83273 0.38441 0.25647 0.0
C1151 C 0.81723 0.40396 0.26094 0.0
C1152 C 0.79201 0.39536 0.268 0.0
C1153 C 0.78565 0.40301 0.29437 0.0
C1154 C 0.77281 0.40474 0.24966 0.0
C1155 C 0.79555 0.36792 0.2661 0.0
C1156 C 0.81924 0.36192 0.25981 0.0
C1157 C 0.82645 0.33775 0.25561 0.0
C1158 C 0.80871 0.31934 0.25713 0.0
C1159 C 0.78423 0.32523 0.26252 0.0
C1160 C 0.77778 0.34976 0.26774 0.0
H1161 H 0.8121 0.55799 0.50256 0.0
H1162 H 0.83942 0.63239 0.49566 0.0
H1163 H 0.88154 0.61648 0.493 0.0
H1164 H 0.85828 0.53758 0.54182 0.0
H1165 H 0.85944 0.50698 0.52927 0.0
H1166 H 0.8317 0.52448 0.52754 0.0
H1167 H 0.83134 0.51833 0.4804 0.0
H1168 H 0.85952 0.5013 0.48199 0.0
H1169 H 0.85726 0.52792 0.46242 0.0
H1170 H 0.92114 0.59256 0.49459 0.0
H1171 H 0.95399 0.5634 0.50616 0.0
H1172 H 0.90079 0.50512 0.51194 0.0
C1173 C 0.82692 0.57088 0.50007 0.0
C1174 C 0.82247 0.59637 0.49906 0.0
C1175 C 0.8424 0.61273 0.49633 0.0
C1176 C 0.86639 0.60386 0.49461 0.0
C1177 C 0.8702 0.57857 0.49555 0.0
C1178 C 0.85099 0.56236 0.49848 0.0
C1179 C 0.86004 0.53631 0.50162 0.0
C1180 C 0.8519 0.52574 0.52654 0.0
C1181 C 0.85154 0.52001 0.48033 0.0
C1182 C 0.88734 0.54044 0.50064 0.0
C1183 C 0.89294 0.56485 0.49661 0.0
C1184 C 0.91701 0.5733 0.49725 0.0
C1185 C 0.93563 0.55661 0.5035 0.0
C1186 C 0.92987 0.532 0.50926 0.0
C1187 C 0.90566 0.52369 0.50675 0.0
H1188 H 0.16415 0.08462 0.21975 0.0
H1189 H 0.16512 0.05427 0.29338 0.0
H1190 H 0.18179 0.09292 0.30911 0.0
H1191 H 0.22144 0.11616 0.22419 0.0
H1192 H 0.21247 0.14323 0.20733 0.0
H1193 H 0.19789 0.11426 0.20125 0.0
H1194 H 0.15577 0.13395 0.20975 0.0
H1195 H 0.17029 0.16299 0.2159 0.0
H1196 H 0.15044 0.14937 0.23848 0.0
H1197 H 0.19558 0.13308 0.31781 0.0
H1198 H 0.21621 0.17197 0.31986 0.0
H1199 H 0.21431 0.17848 0.2402 0.0
C1200 C 0.16796 0.08637 0.23913 0.0
C1201 C 0.1634 0.06657 0.25553 0.0
C1202 C 0.16861 0.0692 0.28067 0.0
C1203 C 0.17783 0.09115 0.28978 0.0
C1204 C 0.18208 0.11033 0.27344 0.0
C1205 C 0.17794 0.10831 0.24861 0.0
C1206 C 0.18632 0.13176 0.23547 0.0
C1207 C 0.2057 0.126 0.21591 0.0
C1208 C 0.1644 0.14532 0.22422 0.0
C1209 C 0.19695 0.14643 0.25682 0.0
C1210 C 0.19293 0.13375 0.27844 0.0
C1211 C 0.1994 0.14299 0.30103 0.0
C1212 C 0.21139 0.16531 0.30182 0.0
C1213 C 0.21803 0.17824 0.28011 0.0
C1214 C 0.20996 0.16902 0.25711 0.0
H1215 H 0.32465 0.9224 0.52723 0.0
H1216 H 0.32647 0.88411 0.45755 0.0
H1217 H 0.36775 0.90002 0.44954 0.0
H1218 H 0.35489 0.97602 0.50821 0.0
H1219 H 0.37209 0.9798 0.53606 0.0
H1220 H 0.34322 0.96422 0.53682 0.0
H1221 H 0.36411 0.9264 0.55681 0.0
H1222 H 0.39314 0.94185 0.55571 0.0
H1223 H 0.38971 0.91212 0.54166 0.0
H1224 H 0.40714 0.9228 0.44734 0.0
H1225 H 0.44175 0.9519 0.45136 0.0
H1226 H 0.41541 0.97316 0.52314 0.0
C1227 C 0.33389 0.91728 0.51043 0.0
C1228 C 0.32256 0.90203 0.49304 0.0
C1229 C 0.33505 0.89563 0.4712 0.0
C1230 C 0.35849 0.90451 0.46649 0.0
C1231 C 0.36934 0.91935 0.48404 0.0
C1232 C 0.35756 0.9256 0.50564 0.0
C1233 C 0.37307 0.94245 0.52107 0.0
C1234 C 0.36004 0.96708 0.52579 0.0
C1235 C 0.38044 0.92995 0.54525 0.0
C1236 C 0.39484 0.94549 0.50428 0.0
C1237 C 0.39254 0.93179 0.48313 0.0
C1238 C 0.40953 0.93318 0.46406 0.0
C1239 C 0.42914 0.94952 0.46649 0.0
C1240 C 0.43129 0.96396 0.4878 0.0
C1241 C 0.41433 0.96157 0.50704 0.0
H1242 H 0.82623 0.57592 0.28129 0.0
H1243 H 0.85346 0.56713 0.20713 0.0
H1244 H 0.83156 0.60462 0.19441 0.0
H1245 H 0.76659 0.60241 0.26624 0.0
H1246 H 0.76705 0.62462 0.29071 0.0
H1247 H 0.78288 0.59576 0.29414 0.0
H1248 H 0.82313 0.61876 0.30339 0.0
H1249 H 0.8072 0.64756 0.30052 0.0
H1250 H 0.83394 0.64171 0.28213 0.0
H1251 H 0.80693 0.64135 0.18914 0.0
H1252 H 0.78826 0.68215 0.19291 0.0
H1253 H 0.77958 0.67122 0.27125 0.0
C1254 C 0.82721 0.58192 0.26238 0.0
C1255 C 0.84091 0.5686 0.2449 0.0
C1256 C 0.84265 0.57709 0.22052 0.0
C1257 C 0.83019 0.59819 0.21314 0.0
C1258 C 0.8164 0.61076 0.23053 0.0
C1259 C 0.81533 0.6035 0.2548 0.0
C1260 C 0.80119 0.62213 0.27002 0.0
C1261 C 0.77805 0.61053 0.28092 0.0
C1262 C 0.81734 0.6332 0.29019 0.0
C1263 C 0.79486 0.64103 0.25047 0.0
C1264 C 0.80326 0.63348 0.22778 0.0
C1265 C 0.80026 0.64755 0.20676 0.0
C1266 C 0.7895 0.67063 0.20908 0.0
C1267 C 0.78232 0.67971 0.23231 0.0
C1268 C 0.78428 0.66444 0.25322 0.0
H1269 H 0.64574 0.4163 0.73363 0.0
H1270 H 0.69527 0.45173 0.78416 0.0
H1271 H 0.71791 0.41249 0.7891 0.0
H1272 H 0.64351 0.35591 0.76087 0.0
H1273 H 0.64443 0.34024 0.7318 0.0
H1274 H 0.63105 0.37041 0.73389 0.0
H1275 H 0.66035 0.38641 0.69999 0.0
H1276 H 0.67326 0.35614 0.69747 0.0
H1277 H 0.69274 0.38203 0.70353 0.0
H1278 H 0.73633 0.36887 0.78668 0.0
H1279 H 0.75143 0.32819 0.77241 0.0
H1280 H 0.68964 0.32259 0.72366 0.0
C1281 C 0.66116 0.41571 0.74599 0.0
C1282 C 0.66857 0.4369 0.75879 0.0
C1283 C 0.68926 0.43562 0.77425 0.0
C1284 C 0.70209 0.41338 0.7773 0.0
C1285 C 0.69416 0.39267 0.76454 0.0
C1286 C 0.67438 0.39387 0.74885 0.0
C1287 C 0.67095 0.37001 0.73519 0.0
C1288 C 0.646 0.35847 0.74079 0.0
C1289 C 0.67455 0.37388 0.70742 0.0
C1290 C 0.69145 0.35493 0.746 0.0
C1291 C 0.70472 0.36811 0.76298 0.0
C1292 C 0.7258 0.3583 0.77369 0.0
C1293 C 0.73408 0.33504 0.76583 0.0
C1294 C 0.72122 0.32209 0.74753 0.0
C1295 C 0.69925 0.3318 0.73834 0.0
H1296 H 0.00538 0.81291 0.94414 0.0
H1297 H -0.00596 0.83933 0.87003 0.0
H1298 H 0.98881 0.88158 0.8857 0.0
H1299 H 0.96362 0.85603 0.97559 0.0
H1300 H 0.98395 0.85979 0.00122 0.0
H1301 H 0.98348 0.8312 0.98459 0.0
H1302 H 0.03001 0.83454 0.97624 0.0
H1303 H 0.03061 0.86263 0.99343 0.0
H1304 H 0.04188 0.86213 0.96237 0.0
H1305 H 0.98844 0.9218 0.9093 0.0
H1306 H -0.00031 0.95572 0.93731 0.0
H1307 H 0.01166 0.90315 0.99555 0.0
C1308 C 0.00139 0.82753 0.93127 0.0
C1309 C -9e-05 0.82277 0.90591 0.0
C1310 C -0.00482 0.84251 0.88959 0.0
C1311 C 0.99195 0.86657 0.89834 0.0
C1312 C 0.99346 0.87069 0.92351 0.0
C1313 C -0.00163 0.8517 0.93968 0.0
C1314 C 0.00197 0.86125 0.96544 0.0
C1315 C 0.98206 0.85148 0.98273 0.0
C1316 C 0.02763 0.85477 0.97491 0.0
C1317 C -0.0009 0.88863 0.96119 0.0
C1318 C -0.00645 0.89376 0.93701 0.0
C1319 C 0.99231 0.91795 0.92837 0.0
C1320 C -0.00162 0.9372 0.94447 0.0
C1321 C 0.00586 0.93201 0.96871 0.0
C1322 C 0.00508 0.90758 0.97736 0.0
H1323 H 0.9238 0.22026 0.66878 0.0
H1324 H 0.94316 0.29739 0.66951 0.0
H1325 H 0.90519 0.30702 0.692 0.0
H1326 H 0.86109 0.23026 0.65613 0.0
H1327 H 0.85029 0.20503 0.67462 0.0
H1328 H 0.8803 0.20385 0.66127 0.0
H1329 H 0.89865 0.19651 0.70426 0.0
H1330 H 0.86875 0.1982 0.71788 0.0
H1331 H 0.89261 0.21817 0.72852 0.0
H1332 H 0.86515 0.30896 0.71179 0.0
H1333 H 0.82227 0.30398 0.72466 0.0
H1334 H 0.82662 0.22596 0.70958 0.0
C1335 C 0.92011 0.23903 0.67421 0.0
C1336 C 0.93636 0.25814 0.66808 0.0
C1337 C 0.93087 0.28262 0.6745 0.0
C1338 C 0.90948 0.2882 0.68729 0.0
C1339 C 0.89366 0.26907 0.69309 0.0
C1340 C 0.89842 0.24502 0.68648 0.0
C1341 C 0.87711 0.22846 0.69293 0.0
C1342 C 0.86657 0.21619 0.66986 0.0
C1343 C 0.88475 0.20919 0.71204 0.0
C1344 C 0.85948 0.24712 0.70374 0.0
C1345 C 0.86975 0.27031 0.70402 0.0
C1346 C 0.85693 0.29091 0.71195 0.0
C1347 C 0.83269 0.28794 0.71925 0.0
C1348 C 0.82158 0.26462 0.71853 0.0
C1349 C 0.83512 0.24384 0.71097 0.0
H1350 H 0.4961 0.16259 0.38713 0.0
H1351 H 0.52263 0.20279 0.45021 0.0
H1352 H 0.52787 0.16379 0.47274 0.0
H1353 H 0.46024 0.12199 0.41785 0.0
H1354 H 0.4667 0.09571 0.39882 0.0
H1355 H 0.46969 0.12608 0.38642 0.0
H1356 H 0.51438 0.11604 0.37419 0.0
H1357 H 0.51151 0.08573 0.38729 0.0
H1358 H 0.53555 0.10583 0.3973 0.0
H1359 H 0.52559 0.1215 0.49017 0.0
H1360 H 0.509 0.08138 0.50314 0.0
H1361 H 0.48301 0.06847 0.42955 0.0
C1362 C 0.50344 0.16311 0.40553 0.0
C1363 C 0.50907 0.18573 0.41689 0.0
C1364 C 0.51831 0.18569 0.44109 0.0
C1365 C 0.52162 0.16359 0.45394 0.0
C1366 C 0.51589 0.14157 0.44227 0.0
C1367 C 0.50687 0.14117 0.41861 0.0
C1368 C 0.49922 0.11542 0.41138 0.0
C1369 C 0.47237 0.11478 0.40317 0.0
C1370 C 0.51617 0.10516 0.39135 0.0
C1371 C 0.50315 0.10195 0.4354 0.0
C1372 C 0.51402 0.11703 0.45258 0.0
C1373 C 0.51757 0.10936 0.47674 0.0
C1374 C 0.50834 0.08641 0.48393 0.0
C1375 C 0.49539 0.07169 0.46712 0.0
C1376 C 0.49371 0.07907 0.4424 0.0
H1377 H 0.58274 0.78101 0.15912 0.0
H1378 H 0.56039 0.70481 0.16361 0.0
H1379 H 0.60069 0.69346 0.18018 0.0
H1380 H 0.64771 0.77108 0.14472 0.0
H1381 H 0.65806 0.79522 0.16472 0.0
H1382 H 0.62861 0.7975 0.15029 0.0
H1383 H 0.60789 0.80285 0.1927 0.0
H1384 H 0.63731 0.80117 0.20708 0.0
H1385 H 0.61344 0.78043 0.2164 0.0
H1386 H 0.64092 0.69053 0.19899 0.0
H1387 H 0.67794 0.69699 0.22389 0.0
H1388 H 0.675 0.77492 0.20822 0.0
C1389 C 0.58669 0.76196 0.1633 0.0
C1390 C 0.56897 0.74358 0.16 0.0
C1391 C 0.57407 0.71893 0.1661 0.0
C1392 C 0.59687 0.71233 0.17526 0.0
C1393 C 0.61416 0.73072 0.17835 0.0
C1394 C 0.60932 0.75511 0.17299 0.0
C1395 C 0.63018 0.77149 0.18089 0.0
C1396 C 0.64182 0.78459 0.15883 0.0
C1397 C 0.62169 0.79006 0.20043 0.0
C1398 C 0.64728 0.75244 0.19163 0.0
C1399 C 0.63778 0.72902 0.18961 0.0
C1400 C 0.64894 0.70863 0.20023 0.0
C1401 C 0.66997 0.71237 0.21414 0.0
C1402 C 0.67948 0.73623 0.21702 0.0
C1403 C 0.66847 0.7564 0.20518 0.0
H1404 H 0.99319 0.15735 0.61244 0.0
H1405 H -0.0005 0.21011 0.55292 0.0
H1406 H 0.0091 0.17675 0.52432 0.0
H1407 H 0.03987 0.11473 0.59231 0.0
H1408 H 0.02295 0.08737 0.59983 0.0
H1409 H 0.01788 0.11524 0.61691 0.0
H1410 H 0.97181 0.11373 0.60682 0.0
H1411 H 0.97667 0.08556 0.59025 0.0
H1412 H 0.96227 0.11132 0.57531 0.0
H1413 H 0.02118 0.14006 0.5031 0.0
H1414 H 0.02219 0.09889 0.4853 0.0
H1415 H 0.00284 0.06726 0.55589 0.0
C1416 C -0.00353 0.16168 0.59333 0.0
C1417 C -0.00403 0.18624 0.58482 0.0
C1418 C -0.00013 0.1914 0.55974 0.0
C1419 C 0.00566 0.17265 0.54343 0.0
C1420 C 0.00692 0.14879 0.55242 0.0
C1421 C 0.00148 0.14293 0.57644 0.0
C1422 C 0.00177 0.11522 0.58021 0.0
C1423 C 0.02181 0.1077 0.5984 0.0
C1424 C 0.97663 0.10591 0.58863 0.0
C1425 C 0.00789 0.10669 0.55437 0.0
C1426 C 0.01173 0.12665 0.53914 0.0
C1427 C 0.01786 0.12421 0.51461 0.0
C1428 C 0.01846 0.10074 0.50473 0.0
C1429 C 0.0122 0.08004 0.51913 0.0
C1430 C 0.00786 0.08282 0.54457 0.0
H1431 H 0.57672 0.28549 0.34317 0.0
H1432 H 0.57281 0.2061 0.34436 0.0
H1433 H 0.6151 0.2037 0.32773 0.0
H1434 H 0.60911 0.28706 0.28538 0.0
H1435 H 0.62517 0.31467 0.29359 0.0
H1436 H 0.59529 0.30887 0.30598 0.0
H1437 H 0.61255 0.31363 0.34997 0.0
H1438 H 0.64254 0.31903 0.33773 0.0
H1439 H 0.63776 0.29463 0.35961 0.0
H1440 H 0.65837 0.21159 0.3076 0.0
H1441 H 0.69452 0.22885 0.28566 0.0
H1442 H 0.66896 0.30226 0.30312 0.0
C1443 C 0.58484 0.26758 0.34014 0.0
C1444 C 0.57176 0.24603 0.34515 0.0
C1445 C 0.58267 0.22288 0.34044 0.0
C1446 C 0.60668 0.22136 0.33117 0.0
C1447 C 0.61926 0.24319 0.32649 0.0
C1448 C 0.60838 0.2658 0.33067 0.0
C1449 C 0.62438 0.28667 0.32262 0.0
C1450 C 0.61281 0.3001 0.3006 0.0
C1451 C 0.62963 0.30451 0.34376 0.0
C1452 C 0.64681 0.27258 0.31492 0.0
C1453 C 0.64357 0.24748 0.31631 0.0
C1454 C 0.66114 0.23126 0.30682 0.0
C1455 C 0.68177 0.24113 0.29462 0.0
C1456 C 0.68469 0.26691 0.29266 0.0
C1457 C 0.66756 0.28244 0.3043 0.0
H1458 H 0.50719 0.81032 0.06169 0.0
H1459 H 0.49635 0.83466 0.13682 0.0
H1460 H 0.49783 0.87744 0.12335 0.0
H1461 H 0.54775 0.86374 0.0436 0.0
H1462 H 0.53492 0.86567 0.0133 0.0
H1463 H 0.53688 0.83637 0.02868 0.0
H1464 H 0.4904 0.83006 0.02295 0.0
H1465 H 0.48839 0.85918 0.00748 0.0
H1466 H 0.46952 0.85321 0.03394 0.0
H1467 H 0.49757 0.91634 0.10331 0.0
H1468 H 0.49002 0.95123 0.07611 0.0
H1469 H 0.49889 0.90426 0.01244 0.0
C1470 C 0.50548 0.82475 0.07523 0.0
C1471 C 0.50185 0.81919 0.10032 0.0
C1472 C 0.49933 0.83844 0.11754 0.0
C1473 C 0.50037 0.86286 0.11013 0.0
C1474 C 0.50406 0.8678 0.08543 0.0
C1475 C 0.50641 0.8495 0.06808 0.0
C1476 C 0.50789 0.86044 0.04244 0.0
C1477 C 0.53337 0.8563 0.03135 0.0
C1478 C 0.48784 0.85012 0.02573 0.0
C1479 C 0.50387 0.88744 0.04818 0.0
C1480 C 0.50288 0.89108 0.07326 0.0
C1481 C 0.4985 0.91387 0.08365 0.0
C1482 C 0.49413 0.93351 0.06805 0.0
C1483 C 0.49363 0.93019 0.04234 0.0
C1484 C 0.49931 0.9071 0.03207 0.0
H1485 H 0.94249 0.74017 0.81274 0.0
H1486 H 0.91807 0.7672 0.88348 0.0
H1487 H 0.87652 0.77262 0.86702 0.0
H1488 H 0.90302 0.78023 0.77528 0.0
H1489 H 0.89732 0.75673 0.7528 0.0
H1490 H 0.92577 0.75706 0.7693 0.0
H1491 H 0.91832 0.71235 0.78392 0.0
H1492 H 0.8901 0.71181 0.7672 0.0
H1493 H 0.89026 0.70494 0.79955 0.0
H1494 H 0.83769 0.77505 0.84313 0.0
H1495 H 0.80269 0.76742 0.81588 0.0
H1496 H 0.85103 0.73552 0.76162 0.0
C1497 C 0.92841 0.74735 0.82471 0.0
C1498 C 0.93356 0.75341 0.84936 0.0
C1499 C 0.91458 0.7625 0.86452 0.0
C1500 C 0.89096 0.76584 0.85528 0.0
C1501 C 0.88655 0.75996 0.83083 0.0
C1502 C 0.90462 0.75056 0.81584 0.0
C1503 C 0.89456 0.74402 0.79079 0.0
C1504 C 0.90585 0.76049 0.77086 0.0
C1505 C 0.89854 0.71665 0.78505 0.0
C1506 C 0.86779 0.75005 0.79444 0.0
C1507 C 0.8638 0.76017 0.81736 0.0
C1508 C 0.84063 0.76726 0.82512 0.0
C1509 C 0.8209 0.76306 0.80944 0.0
C1510 C 0.82433 0.75128 0.78657 0.0
C1511 C 0.84809 0.74503 0.77879 0.0
H1512 H 0.94342 0.0098 0.81031 0.0
H1513 H 0.87176 0.98734 0.83575 0.0
H1514 H 0.8878 0.98211 0.87744 0.0
H1515 H 0.97905 0.9695 0.85337 0.0
H1516 H 0.00216 0.99247 0.85817 0.0
H1517 H 0.98645 0.99083 0.8292 0.0
H1518 H 0.97352 0.03648 0.83331 0.0
H1519 H 0.98943 0.03827 0.86203 0.0
H1520 H 0.95756 0.04635 0.86053 0.0
H1521 H 0.90989 0.98103 0.91593 0.0
H1522 H 0.93486 0.99193 0.95151 0.0
H1523 H 0.99218 0.01847 0.9035 0.0
C1524 C 0.93128 0.00347 0.82466 0.0
C1525 C 0.90641 -0.00124 0.81983 0.0
C1526 C 0.89088 0.99098 0.83906 0.0
C1527 C 0.89988 0.98767 0.86274 0.0
C1528 C 0.92445 0.99231 0.86695 0.0
C1529 C 0.93993 0.00044 0.84866 0.0
C1530 C 0.96484 0.00676 0.85902 0.0
C1531 C 0.98428 0.98883 0.84936 0.0
C1532 C 0.97172 0.03357 0.85339 0.0
C1533 C 0.96026 0.00267 0.88619 0.0
C1534 C 0.93718 0.99311 0.88997 0.0
C1535 C 0.92805 0.98832 0.91324 0.0
C1536 C 0.94238 0.99451 0.93331 0.0
C1537 C 0.96533 0.0059 0.93008 0.0
C1538 C 0.97481 0.00946 0.90628 0.0
H1539 H 0.74464 0.13713 0.59111 0.0
H1540 H 0.76986 0.19945 0.54822 0.0
H1541 H 0.77397 0.22369 0.58586 0.0
H1542 H 0.70786 0.1681 0.63062 0.0
H1543 H 0.71516 0.15143 0.65825 0.0
H1544 H 0.71859 0.1368 0.62892 0.0
H1545 H 0.7638 0.12719 0.63845 0.0
H1546 H 0.76052 0.14163 0.66802 0.0
H1547 H 0.78397 0.15175 0.64717 0.0
H1548 H 0.77067 0.24261 0.62522 0.0
H1549 H 0.7583 0.25722 0.66549 0.0
H1550 H 0.73418 0.18387 0.68558 0.0
C1551 C 0.75146 0.15574 0.58982 0.0
C1552 C 0.75691 0.16651 0.5668 0.0
C1553 C 0.76558 0.1909 0.56565 0.0
C1554 C 0.7682 0.20472 0.58695 0.0
C1555 C 0.76232 0.19381 0.60927 0.0
C1556 C 0.75424 0.16989 0.61106 0.0
C1557 C 0.74703 0.16372 0.63733 0.0
C1558 C 0.72058 0.15449 0.63885 0.0
C1559 C 0.76489 0.14495 0.64839 0.0
C1560 C 0.75005 0.18868 0.64935 0.0
C1561 C 0.75989 0.20527 0.63282 0.0
C1562 C 0.76332 0.22978 0.63847 0.0
C1563 C 0.75603 0.23789 0.66144 0.0
C1564 C 0.74504 0.2217 0.67861 0.0
C1565 C 0.74261 0.19654 0.67282 0.0
H1566 H 0.59907 0.02705 0.33343 0.0
H1567 H 0.55555 0.97064 0.29841 0.0
H1568 H 0.5325 0.96473 0.33688 0.0
H1569 H 0.60608 -0.00077 0.38972 0.0
H1570 H 0.6029 0.02665 0.40795 0.0
H1571 H 0.6139 0.02877 0.37696 0.0
H1572 H 0.57955 0.05984 0.36676 0.0
H1573 H 0.56835 0.05773 0.39779 0.0
H1574 H 0.54823 0.05162 0.37248 0.0
H1575 H 0.51631 0.96266 0.37954 0.0
H1576 H 0.50885 0.96392 0.42437 0.0
H1577 H 0.56368 0.02057 0.43192 0.0
C1578 C 0.58437 0.01379 0.33375 0.0
C1579 C 0.57896 -0.00065 0.31297 0.0
C1580 C 0.5598 0.98202 0.31409 0.0
C1581 C 0.5466 0.97856 0.33582 0.0
C1582 C 0.55262 0.9928 0.35611 0.0
C1583 C 0.57092 0.01022 0.35526 0.0
C1584 C 0.57458 0.02216 0.38005 0.0
C1585 C 0.60093 0.01898 0.38919 0.0
C1586 C 0.56724 0.04945 0.37921 0.0
C1587 C 0.55671 0.00745 0.39529 0.0
C1588 C 0.54368 0.99118 0.38097 0.0
C1589 C 0.52626 0.97542 0.39094 0.0
C1590 C 0.52219 0.97617 0.41629 0.0
C1591 C 0.53594 0.99211 0.43121 0.0
C1592 C 0.5532 0.00808 0.42066 0.0
H1593 H 0.73111 0.8133 0.07226 0.0
H1594 H 0.76089 0.88386 0.09369 0.0
H1595 H 0.75882 0.87159 0.13701 0.0
H1596 H 0.69111 0.80545 0.1284 0.0
H1597 H 0.69697 0.77292 0.12996 0.0
H1598 H 0.69645 0.78833 0.10066 0.0
H1599 H 0.74005 0.77258 0.09073 0.0
H1600 H 0.74015 0.75642 0.11942 0.0
H1601 H 0.76421 0.77789 0.11245 0.0
H1602 H 0.75675 0.85135 0.17734 0.0
H1603 H 0.7651 0.82113 0.20991 0.0
H1604 H 0.73895 0.76282 0.16319 0.0
C1605 C 0.73679 0.82625 0.08614 0.0
C1606 C 0.74578 0.84967 0.0796 0.0
C1607 C 0.75358 0.86595 0.09824 0.0
C1608 C 0.75222 0.85927 0.12297 0.0
C1609 C 0.74284 0.83628 0.12892 0.0
C1610 C 0.73564 0.81982 0.11106 0.0
C1611 C 0.72934 0.79514 0.12229 0.0
C1612 C 0.70184 0.79016 0.1202 0.0
C1613 C 0.74436 0.7743 0.11054 0.0
C1614 C 0.73638 0.79966 0.1488 0.0
C1615 C 0.74265 0.82398 0.15245 0.0
C1616 C 0.7515 0.83237 0.17486 0.0
C1617 C 0.75587 0.81514 0.19342 0.0
C1618 C 0.75214 0.78987 0.18909 0.0
C1619 C 0.74102 0.7822 0.16711 0.0
H1620 H 0.91734 0.96451 0.67999 0.0
H1621 H 0.89504 0.04061 0.67489 0.0
H1622 H 0.91354 0.04345 0.63326 0.0
H1623 H 0.97376 0.96976 0.64847 0.0
H1624 H 0.97077 0.94047 0.63344 0.0
H1625 H 0.95639 0.94552 0.66268 0.0
H1626 H 0.91463 0.93315 0.64416 0.0
H1627 H 0.92886 0.92821 0.61481 0.0
H1628 H 0.90342 0.94907 0.61744 0.0
H1629 H 0.94045 0.03808 0.5939 0.0
H1630 H 0.96675 0.02347 0.55956 0.0
H1631 H 0.96191 0.94935 0.58853 0.0
C1632 C 0.91639 0.98172 0.67002 0.0
C1633 C 0.90528 0.00242 0.6804 0.0
C1634 C 0.9038 0.02463 0.66696 0.0
C1635 C 0.91422 0.02638 0.64343 0.0
C1636 C 0.92527 0.0055 0.63356 0.0
C1637 C 0.92582 0.98349 0.64635 0.0
C1638 C 0.93789 0.96344 0.6318 0.0
C1639 C 0.96107 0.95427 0.64487 0.0
C1640 C 0.92013 0.94223 0.62674 0.0
C1641 C 0.94406 0.97745 0.60874 0.0
C1642 C 0.93748 0.00188 0.61014 0.0
C1643 C 0.94487 0.01878 0.59221 0.0
C1644 C 0.95958 0.01035 0.57264 0.0
C1645 C 0.96577 0.98518 0.5708 0.0
C1646 C 0.95715 0.96867 0.58885 0.0
H1647 H 0.72756 0.18442 0.43391 0.0
H1648 H 0.78002 0.12563 0.42219 0.0
H1649 H 0.78819 0.1411 0.38088 0.0
H1650 H 0.70495 0.18335 0.3684 0.0
H1651 H 0.70035 0.21612 0.36728 0.0
H1652 H 0.69668 0.19979 0.39585 0.0
H1653 H 0.72819 0.22857 0.41622 0.0
H1654 H 0.73206 0.24486 0.38772 0.0
H1655 H 0.75815 0.2316 0.40287 0.0
H1656 H 0.79437 0.16348 0.34447 0.0
H1657 H 0.79676 0.19079 0.30983 0.0
H1658 H 0.7386 0.23623 0.34035 0.0
C1659 C 0.74053 0.17479 0.42239 0.0
C1660 C 0.75327 0.15386 0.43114 0.0
C1661 C 0.77 0.14154 0.41575 0.0
C1662 C 0.77477 0.15019 0.39227 0.0
C1663 C 0.76224 0.17087 0.38422 0.0
C1664 C 0.74512 0.1829 0.39835 0.0
C1665 C 0.73467 0.20487 0.38445 0.0
C1666 C 0.70755 0.20079 0.37866 0.0
C1667 C 0.73851 0.2289 0.39867 0.0
C1668 C 0.74999 0.20409 0.36115 0.0
C1669 C 0.7654 0.18397 0.36173 0.0
C1670 C 0.78224 0.17915 0.34354 0.0
C1671 C 0.78354 0.1952 0.32394 0.0
C1672 C 0.76808 0.21616 0.3223 0.0
C1673 C 0.7507 0.22051 0.34109 0.0
H1674 H 0.57374 0.02926 0.18506 0.0
H1675 H 0.62052 0.96675 0.16987 0.0
H1676 H 0.60566 0.96593 0.12709 0.0
H1677 H 0.52317 0.01108 0.15148 0.0
H1678 H 0.51582 0.04127 0.14001 0.0
H1679 H 0.53171 0.03802 0.16861 0.0
H1680 H 0.56635 0.06596 0.15218 0.0
H1681 H 0.5506 0.06913 0.12337 0.0
H1682 H 0.58158 0.05806 0.12395 0.0
H1683 H 0.58433 0.97066 0.08697 0.0
H1684 H 0.55531 0.97833 0.0532 0.0
H1685 H 0.52206 0.03723 0.0949 0.0
C1686 C 0.58088 0.01547 0.17267 0.0
C1687 C 0.59816 -0.00198 0.18058 0.0
C1688 C 0.60732 0.98033 0.16396 0.0
C1689 C 0.5991 0.97981 0.13968 0.0
C1690 C 0.58214 -0.00258 0.13235 0.0
C1691 C 0.57315 0.01493 0.14833 0.0
C1692 C 0.55434 0.03116 0.13613 0.0
C1693 C 0.52981 0.0303 0.14987 0.0
C1694 C 0.56378 0.05764 0.13378 0.0
C1695 C 0.55294 0.01898 0.1113 0.0
C1696 C 0.56973 9e-05 0.1092 0.0
C1697 C 0.57143 0.98567 0.0882 0.0
C1698 C 0.55509 0.99029 0.06907 0.0
C1699 C 0.53709 0.00877 0.07144 0.0
C1700 C 0.53619 0.02349 0.09259 0.0
H1701 H 0.76146 0.81319 0.94489 0.0
H1702 H 0.7153 0.87479 0.92499 0.0
H1703 H 0.71135 0.85824 0.88301 0.0
H1704 H 0.79306 0.81061 0.88552 0.0
H1705 H 0.79565 0.77763 0.88622 0.0
H1706 H 0.79518 0.79474 0.91446 0.0
H1707 H 0.7586 0.7687 0.92972 0.0
H1708 H 0.75888 0.75161 0.90152 0.0
H1709 H 0.7314 0.767 0.9113 0.0
H1710 H 0.7116 0.83392 0.84308 0.0
H1711 H 0.71694 0.80442 0.80886 0.0
H1712 H 0.76334 0.75955 0.85534 0.0
C1713 C 0.75042 0.82309 0.93172 0.0
C1714 C 0.73841 0.84506 0.93826 0.0
C1715 C 0.72454 0.8578 0.92038 0.0
C1716 C 0.72222 0.84859 0.89648 0.0
C1717 C 0.73419 0.82678 0.8906 0.0
C1718 C 0.74825 0.81436 0.90766 0.0
C1719 C 0.75955 0.79154 0.89662 0.0
C1720 C 0.78751 0.79377 0.89565 0.0
C1721 C 0.75162 0.76834 0.91062 0.0
C1722 C 0.74872 0.7924 0.87114 0.0
C1723 C 0.73444 0.81302 0.86779 0.0
C1724 C 0.72275 0.81769 0.84552 0.0
C1725 C 0.72581 0.8008 0.82621 0.0
C1726 C 0.74023 0.77943 0.82942 0.0
C1727 C 0.7518 0.77541 0.85226 0.0
H1728 H 0.81662 0.92412 0.03479 0.0
H1729 H 0.8252 0.88363 0.96697 0.0
H1730 H 0.86736 0.8994 0.96279 0.0
H1731 H 0.84837 0.97727 0.01969 0.0
H1732 H 0.86324 0.98072 0.04893 0.0
H1733 H 0.83453 0.96497 0.04711 0.0
H1734 H 0.85388 0.92693 0.06812 0.0
H1735 H 0.88279 0.94256 0.06973 0.0
H1736 H 0.88073 0.91307 0.05496 0.0
H1737 H 0.90806 0.9208 0.9654 0.0
H1738 H 0.94277 0.94878 0.97281 0.0
H1739 H 0.90741 0.97578 0.03857 0.0
C1740 C 0.82747 0.91857 0.01912 0.0
C1741 C 0.81779 0.90277 0.00114 0.0
C1742 C 0.83246 0.89561 0.981 0.0
C1743 C 0.8564 0.90442 0.97853 0.0
C1744 C 0.86554 0.91983 -0.00329 0.0
C1745 C 0.85158 0.92673 0.0167 0.0
C1746 C 0.86567 0.94367 0.03351 0.0
C1747 C 0.85214 0.96811 0.03751 0.0
C1748 C 0.87108 0.9308 0.05803 0.0
C1749 C 0.88888 0.94699 0.01878 0.0
C1750 C 0.88887 0.93228 -0.00188 0.0
C1751 C 0.90835 0.93218 0.98164 0.0
C1752 C 0.92804 0.94798 0.98607 0.0
C1753 C 0.92775 0.96409 0.00639 0.0
C1754 C 0.90811 0.96333 0.02311 0.0
H1755 H 0.33445 0.59242 0.03156 0.0
H1756 H 0.30305 0.57324 0.96124 0.0
H1757 H 0.33804 0.5463 0.95249 0.0
H1758 H 0.3972 0.59369 0.01243 0.0
H1759 H 0.40885 0.57972 0.04001 0.0
H1760 H 0.38106 0.59729 0.04104 0.0
H1761 H 0.35913 0.55981 0.06023 0.0
H1762 H 0.38677 0.54189 0.05844 0.0
H1763 H 0.35925 0.53086 0.04426 0.0
H1764 H 0.37479 0.52216 0.95063 0.0
H1765 H 0.41691 0.50681 0.95233 0.0
H1766 H 0.42611 0.54004 0.02388 0.0
C1767 C 0.33518 0.58249 0.01439 0.0
C1768 C 0.31615 0.5844 -0.00292 0.0
C1769 C 0.31741 0.57146 0.97475 0.0
C1770 C 0.33708 0.55609 0.9697 0.0
C1771 C 0.3551 0.55362 0.9874 0.0
C1772 C 0.3547 0.56662 0.00916 0.0
C1773 C 0.3772 0.56089 0.02438 0.0
C1774 C 0.39195 0.58429 0.02975 0.0
C1775 C 0.37016 0.54758 0.04825 0.0
C1776 C 0.39066 0.54368 0.00707 0.0
C1777 C 0.37702 0.53928 0.98626 0.0
C1778 C 0.38562 0.52512 0.9669 0.0
C1779 C 0.40942 0.51627 0.96812 0.0
C1780 C 0.42433 0.52185 0.98841 0.0
C1781 C 0.41464 0.53485 0.00861 0.0
H1782 H 0.17723 0.56798 0.72668 0.0
H1783 H 0.12593 0.58504 0.78487 0.0
H1784 H 0.13852 0.62868 0.78329 0.0
H1785 H 0.22459 0.60719 0.74569 0.0
H1786 H 0.23335 0.61591 0.71502 0.0
H1787 H 0.21938 0.58655 0.72043 0.0
H1788 H 0.18604 0.59711 0.68847 0.0
H1789 H 0.19969 0.62677 0.68331 0.0
H1790 H 0.16808 0.62464 0.69216 0.0
H1791 H 0.1583 0.66984 0.77657 0.0
H1792 H 0.18651 0.70434 0.76808 0.0
H1793 H 0.223 0.66025 0.71296 0.0
C1794 C 0.16868 0.58092 0.7391 0.0
C1795 C 0.15069 0.57334 0.75593 0.0
C1796 C 0.13972 0.59069 0.77179 0.0
C1797 C 0.14665 0.61545 0.77093 0.0
C1798 C 0.16417 0.62248 0.75377 0.0
C1799 C 0.17506 0.60569 0.73819 0.0
C1800 C 0.19396 0.61769 0.72199 0.0
C1801 C 0.21931 0.60617 0.72605 0.0
C1802 C 0.18649 0.61647 0.69488 0.0
C1803 C 0.19263 0.64371 0.73149 0.0
C1804 C 0.17509 0.64627 0.74954 0.0
C1805 C 0.1718 0.66829 0.76218 0.0
C1806 C 0.18762 0.68788 0.75699 0.0
C1807 C 0.2065 0.685 0.73951 0.0
C1808 C 0.2083 0.66303 0.72597 0.0
H1809 H 0.16489 0.39738 0.47842 0.0
H1810 H 0.18322 0.42547 0.55026 0.0
H1811 H 0.14152 0.44298 0.55422 0.0
H1812 H 0.1346 0.45039 0.4603 0.0
H1813 H 0.11281 0.43448 0.44147 0.0
H1814 H 0.1423 0.42119 0.44678 0.0
H1815 H 0.12156 0.38164 0.46328 0.0
H1816 H 0.09193 0.39512 0.45841 0.0
H1817 H 0.10014 0.38375 0.48834 0.0
H1818 H 0.09889 0.46178 0.54755 0.0
H1819 H 0.06335 0.48321 0.52897 0.0
H1820 H 0.07395 0.44166 0.4622 0.0
C1821 C 0.15997 0.40679 0.49521 0.0
C1822 C 0.17709 0.41003 0.51407 0.0
C1823 C 0.17027 0.42295 0.53553 0.0
C1824 C 0.14657 0.43268 0.53803 0.0
C1825 C 0.13007 0.42938 0.51885 0.0
C1826 C 0.1367 0.41687 0.49777 0.0
C1827 C 0.11736 0.41869 0.47828 0.0
C1828 C 0.12736 0.43198 0.45538 0.0
C1829 C 0.10714 0.39328 0.47172 0.0
C1830 C 0.09868 0.43418 0.49155 0.0
C1831 C 0.10601 0.44011 0.51503 0.0
C1832 C 0.09279 0.45686 0.52936 0.0
C1833 C 0.07248 0.4688 0.51882 0.0
C1834 C 0.06593 0.46387 0.49427 0.0
C1835 C 0.07842 0.44545 0.48116 0.0
H1836 H 0.83765 0.92725 0.71627 0.0
H1837 H 0.85149 0.92603 0.79427 0.0
H1838 H 0.83396 0.88395 0.797 0.0
H1839 H 0.78174 0.89524 0.71672 0.0
H1840 H 0.78812 0.87883 0.68875 0.0
H1841 H 0.80174 0.90837 0.69395 0.0
H1842 H 0.84463 0.88924 0.68717 0.0
H1843 H 0.83109 0.85953 0.6823 0.0
H1844 H 0.85403 0.86339 0.70558 0.0
H1845 H 0.80971 0.84278 0.79057 0.0
H1846 H 0.7844 0.80803 0.77534 0.0
H1847 H 0.79394 0.83512 0.70111 0.0
C1848 C 0.83692 0.91806 0.73389 0.0
C1849 C 0.84539 0.92979 0.75512 0.0
C1850 C 0.84472 0.91722 0.77785 0.0
C1851 C 0.8349 0.89334 0.77952 0.0
C1852 C 0.82657 0.88212 0.75812 0.0
C1853 C 0.82796 0.89408 0.7357 0.0
C1854 C 0.81814 0.8784 0.71528 0.0
C1855 C 0.79614 0.89095 0.70297 0.0
C1856 C 0.83817 0.87228 0.69648 0.0
C1857 C 0.81049 0.85589 0.72958 0.0
C1858 C 0.81506 0.85821 0.75433 0.0
C1859 C 0.80656 0.84061 0.77112 0.0
C1860 C 0.79233 0.8208 0.76235 0.0
C1861 C 0.78716 0.81871 0.73701 0.0
C1862 C 0.79752 0.83594 0.7206 0.0
H1863 H 0.67942 0.08503 0.53507 0.0
H1864 H 0.67638 0.10882 0.45937 0.0
H1865 H 0.63306 0.09592 0.45706 0.0
H1866 H 0.64165 0.03199 0.5297 0.0
H1867 H 0.62719 0.03655 0.55906 0.0
H1868 H 0.65763 0.04765 0.55391 0.0
H1869 H 0.64346 0.09123 0.56695 0.0
H1870 H 0.61272 0.08038 0.57134 0.0
H1871 H 0.61861 0.10575 0.55091 0.0
H1872 H 0.59041 0.08037 0.46331 0.0
H1873 H 0.55351 0.05758 0.47547 0.0
H1874 H 0.58418 0.04512 0.54758 0.0
C1875 C 0.66957 0.0872 0.51801 0.0
C1876 C 0.68085 0.0976 0.49731 0.0
C1877 C 0.6677 0.10071 0.4753 0.0
C1878 C 0.64318 0.09367 0.47393 0.0
C1879 C 0.63219 0.08412 0.49494 0.0
C1880 C 0.64502 0.08068 0.51648 0.0
C1881 C 0.62913 0.06972 0.53631 0.0
C1882 C 0.63951 0.04501 0.54525 0.0
C1883 C 0.62579 0.08785 0.55764 0.0
C1884 C 0.60561 0.06651 0.52228 0.0
C1885 C 0.60754 0.07552 0.49864 0.0
C1886 C 0.58853 0.07358 0.48187 0.0
C1887 C 0.56746 0.06097 0.48909 0.0
C1888 C 0.56587 0.05016 0.51267 0.0
C1889 C 0.58478 0.05379 0.52971 0.0
H1890 H 0.14627 0.41709 0.73518 0.0
H1891 H 0.20298 0.45962 0.77058 0.0
H1892 H 0.22862 0.42234 0.77353 0.0
H1893 H 0.15051 0.36601 0.77168 0.0
H1894 H 0.14533 0.34379 0.74779 0.0
H1895 H 0.13319 0.37432 0.74485 0.0
H1896 H 0.15544 0.37937 0.70317 0.0
H1897 H 0.16765 0.34874 0.70605 0.0
H1898 H 0.1879 0.37437 0.70141 0.0
H1899 H 0.24662 0.37998 0.77556 0.0
H1900 H 0.25421 0.33511 0.77902 0.0
H1901 H 0.18471 0.32073 0.74437 0.0
C1902 C 0.16429 0.41866 0.7431 0.0
C1903 C 0.17277 0.44117 0.75256 0.0
C1904 C 0.19626 0.4425 0.76313 0.0
C1905 C 0.21097 0.42149 0.76475 0.0
C1906 C 0.20191 0.39946 0.7556 0.0
C1907 C 0.1791 0.39792 0.74494 0.0
C1908 C 0.17266 0.37171 0.73858 0.0
C1909 C 0.14904 0.36349 0.75152 0.0
C1910 C 0.17081 0.36836 0.71065 0.0
C1911 C 0.19477 0.35864 0.74867 0.0
C1912 C 0.21182 0.37496 0.75767 0.0
C1913 C 0.23351 0.36701 0.76843 0.0
C1914 C 0.23767 0.34165 0.77037 0.0
C1915 C 0.21987 0.3249 0.7622 0.0
C1916 C 0.19841 0.33344 0.75093 0.0
H1917 H 0.33835 0.57283 0.28567 0.0
H1918 H 0.35586 0.57664 0.20836 0.0
H1919 H 0.33838 0.61876 0.20628 0.0
H1920 H 0.28265 0.60423 0.28404 0.0
H1921 H 0.28764 0.61967 0.31278 0.0
H1922 H 0.30192 0.59052 0.30704 0.0
H1923 H 0.34407 0.61024 0.31626 0.0
H1924 H 0.32983 0.63966 0.32127 0.0
H1925 H 0.35387 0.63664 0.29887 0.0
H1926 H 0.31338 0.65929 0.21282 0.0
H1927 H 0.28573 0.69253 0.22789 0.0
H1928 H 0.2921 0.66308 0.30149 0.0
C1929 C 0.33858 0.58262 0.26836 0.0
C1930 C 0.34812 0.57165 0.24717 0.0
C1931 C 0.34849 0.58496 0.22482 0.0
C1932 C 0.33869 0.60885 0.22349 0.0
C1933 C 0.32938 0.61932 0.24488 0.0
C1934 C 0.32973 0.60662 0.26694 0.0
C1935 C 0.31869 0.62143 0.28737 0.0
C1936 C 0.29641 0.60818 0.29844 0.0
C1937 C 0.33776 0.62735 0.3071 0.0
C1938 C 0.31127 0.64414 0.27337 0.0
C1939 C 0.31727 0.64285 0.24882 0.0
C1940 C 0.30907 0.66068 0.23214 0.0
C1941 C 0.2935 0.67956 0.24078 0.0
C1942 C 0.28664 0.68021 0.26578 0.0
C1943 C 0.29686 0.66305 0.2822 0.0
H1944 H 0.49087 0.69108 0.55702 0.0
H1945 H 0.51341 0.66606 0.62899 0.0
H1946 H 0.51599 0.62345 0.61353 0.0
H1947 H 0.45246 0.64147 0.54419 0.0
H1948 H 0.45982 0.64041 0.51198 0.0
H1949 H 0.46237 0.66885 0.52843 0.0
H1950 H 0.50746 0.67238 0.51441 0.0
H1951 H 0.5051 0.64358 0.49833 0.0
H1952 H 0.52845 0.64777 0.52112 0.0
H1953 H 0.51284 0.58261 0.59067 0.0
H1954 H 0.49986 0.54808 0.56397 0.0
H1955 H 0.48002 0.60013 0.5074 0.0
C1956 C 0.49665 0.67669 0.56944 0.0
C1957 C 0.50206 0.68195 0.59417 0.0
C1958 C 0.50927 0.66251 0.60992 0.0
C1959 C 0.51094 0.63824 0.60126 0.0
C1960 C 0.50553 0.63364 0.57673 0.0
C1961 C 0.49842 0.65238 0.5611 0.0
C1962 C 0.49169 0.64247 0.53613 0.0
C1963 C 0.46501 0.64865 0.52984 0.0
C1964 C 0.50922 0.65213 0.51633 0.0
C1965 C 0.49529 0.61518 0.54035 0.0
C1966 C 0.50377 0.61035 0.56369 0.0
C1967 C 0.50662 0.58622 0.5722 0.0
C1968 C 0.49952 0.56666 0.55686 0.0
C1969 C 0.48951 0.5715 0.53351 0.0
C1970 C 0.48828 0.59597 0.52495 0.0
H1971 H 0.57916 0.28115 0.82855 0.0
H1972 H 0.56254 0.20588 0.84844 0.0
H1973 H 0.5979 0.19139 0.82442 0.0
H1974 H 0.60349 0.26968 0.76681 0.0
H1975 H 0.62811 0.29137 0.76967 0.0
H1976 H 0.59998 0.2963 0.78614 0.0
H1977 H 0.62357 0.29853 0.82722 0.0
H1978 H 0.6517 0.29423 0.81073 0.0
H1979 H 0.64382 0.27376 0.8355 0.0
H1980 H 0.6342 0.18477 0.79914 0.0
H1981 H 0.67545 0.18653 0.7815 0.0
H1982 H 0.67175 0.26611 0.78005 0.0
C1983 C 0.58294 0.26165 0.82745 0.0
C1984 C 0.56806 0.24443 0.83976 0.0
C1985 C 0.57373 0.21915 0.83878 0.0
C1986 C 0.59359 0.21078 0.82507 0.0
C1987 C 0.60779 0.22802 0.81276 0.0
C1988 C 0.60324 0.25297 0.8143 0.0
C1989 C 0.62326 0.26752 0.80162 0.0
C1990 C 0.6131 0.28209 0.77976 0.0
C1991 C 0.63637 0.2845 0.81986 0.0
C1992 C 0.63978 0.24683 0.79302 0.0
C1993 C 0.63 0.22423 0.79911 0.0
C1994 C 0.64206 0.20231 0.79417 0.0
C1995 C 0.6654 0.2035 0.784 0.0
C1996 C 0.67663 0.22645 0.77929 0.0
C1997 C 0.6633 0.24837 0.78288 0.0
H1998 H -0.00098 0.34196 0.1105 0.0
H1999 H -0.00282 0.29658 0.04523 0.0
H2000 H -0.00419 0.33388 0.01947 0.0
H2001 H 0.95996 0.39257 0.08688 0.0
H2002 H 0.97787 0.4162 0.10124 0.0
H2003 H 0.97564 0.38623 0.1152 0.0
H2004 H 0.02274 0.38199 0.11513 0.0
H2005 H 0.02498 0.41217 0.10192 0.0
H2006 H 0.03929 0.38642 0.08686 0.0
H2007 H -0.00416 0.37568 0.00061 0.0
H2008 H 0.00642 0.41831 0.9896 0.0
H2009 H 0.01135 0.43706 0.06646 0.0
C2010 C -0.00208 0.33991 0.0908 0.0
C2011 C -0.00226 0.31629 0.07987 0.0
C2012 C -0.00299 0.31441 0.05402 0.0
C2013 C -0.00397 0.33552 0.03924 0.0
C2014 C -0.00412 0.35849 0.05053 0.0
C2015 C -0.00273 0.36087 0.07571 0.0
C2016 C -0.00051 0.38774 0.08297 0.0
C2017 C 0.9769 0.39617 0.09744 0.0
C2018 C 0.02303 0.39234 0.09756 0.0
C2019 C 0.00028 0.39994 0.05792 0.0
C2020 C -0.00288 0.38277 0.03953 0.0
C2021 C -0.002 0.38931 0.01484 0.0
C2022 C 0.00365 0.41368 0.00874 0.0
C2023 C 0.00889 0.43112 0.02717 0.0
C2024 C 0.00639 0.42435 0.05207 0.0
H2025 H 0.91801 0.77698 0.35744 0.0
H2026 H 0.94466 0.71129 0.32104 0.0
H2027 H 0.90542 0.70717 0.29962 0.0
H2028 H 0.85393 0.75784 0.36356 0.0
H2029 H 0.84198 0.78793 0.35671 0.0
H2030 H 0.87123 0.78481 0.37142 0.0
H2031 H 0.89141 0.81054 0.33697 0.0
H2032 H 0.86221 0.81399 0.32238 0.0
H2033 H 0.88758 0.80139 0.30546 0.0
H2034 H 0.86451 0.70921 0.283 0.0
H2035 H 0.82564 0.72171 0.26459 0.0
H2036 H 0.82568 0.78865 0.30765 0.0
C2037 C 0.91533 0.76154 0.34524 0.0
C2038 C 0.93403 0.74409 0.34119 0.0
C2039 C 0.93036 0.72459 0.32457 0.0
C2040 C 0.90814 0.72203 0.31247 0.0
C2041 C 0.88996 0.73929 0.31705 0.0
C2042 C 0.89334 0.75898 0.33257 0.0
C2043 C 0.8714 0.77607 0.33224 0.0
C2044 C 0.8589 0.77669 0.35749 0.0
C2045 C 0.87859 0.80203 0.32374 0.0
C2046 C 0.85555 0.76315 0.31352 0.0
C2047 C 0.86644 0.74153 0.30583 0.0
C2048 C 0.85575 0.72605 0.28881 0.0
C2049 C 0.83366 0.73323 0.2786 0.0
C2050 C 0.82287 0.75596 0.28493 0.0
C2051 C 0.83356 0.77103 0.30292 0.0
H2052 H 0.51061 0.34283 0.89073 0.0
H2053 H 0.47818 0.29628 0.9466 0.0
H2054 H 0.4645 0.33282 0.96911 0.0
H2055 H 0.536 0.38289 0.93004 0.0
H2056 H 0.53111 0.41083 0.91311 0.0
H2057 H 0.53328 0.38212 0.89709 0.0
H2058 H 0.49121 0.38875 0.87713 0.0
H2059 H 0.4889 0.41816 0.89217 0.0
H2060 H 0.46513 0.39565 0.89609 0.0
H2061 H 0.45917 0.37225 0.98826 0.0
H2062 H 0.46841 0.41234 0.00666 0.0
H2063 H 0.50539 0.43495 0.94013 0.0
C2064 C 0.50027 0.34048 0.9075 0.0
C2065 C 0.49542 0.31687 0.917 0.0
C2066 C 0.48222 0.31428 0.93914 0.0
C2067 C 0.47397 0.3349 0.95182 0.0
C2068 C 0.47906 0.35798 0.94211 0.0
C2069 C 0.49215 0.361 0.92063 0.0
C2070 C 0.49864 0.38774 0.91654 0.0
C2071 C 0.52641 0.39106 0.91405 0.0
C2072 C 0.48516 0.39819 0.89415 0.0
C2073 C 0.48891 0.39886 0.94007 0.0
C2074 C 0.47664 0.38145 0.95389 0.0
C2075 C 0.46822 0.38623 0.97746 0.0
C2076 C 0.47358 0.40896 0.98776 0.0
C2077 C 0.48734 0.42644 0.97455 0.0
C2078 C 0.49426 0.4219 0.95012 0.0
H2079 H 0.91555 0.23165 0.14115 0.0
H2080 H 0.95058 0.28057 0.19289 0.0
H2081 H 0.91167 0.28465 0.21559 0.0
H2082 H 0.85569 0.26105 0.1403 0.0
H2083 H 0.8394 0.23234 0.13925 0.0
H2084 H 0.86943 0.2346 0.12595 0.0
H2085 H 0.88434 0.19834 0.15291 0.0
H2086 H 0.85425 0.19572 0.16584 0.0
H2087 H 0.88017 0.19976 0.18567 0.0
H2088 H 0.87039 0.28016 0.23479 0.0
H2089 H 0.83112 0.26485 0.2506 0.0
H2090 H 0.82137 0.22124 0.18551 0.0
C2091 C 0.91497 0.24342 0.15713 0.0
C2092 C 0.93607 0.25596 0.16518 0.0
C2093 C 0.93466 0.27083 0.18639 0.0
C2094 C 0.91259 0.27339 0.19928 0.0
C2095 C 0.89207 0.26096 0.19073 0.0
C2096 C 0.89312 0.24606 0.17028 0.0
C2097 C 0.86898 0.23316 0.16606 0.0
C2098 C 0.85772 0.24076 0.14142 0.0
C2099 C 0.87213 0.20509 0.16773 0.0
C2100 C 0.85417 0.24304 0.18742 0.0
C2101 C 0.8678 0.25921 0.2013 0.0
C2102 C 0.85912 0.26851 0.22346 0.0
C2103 C 0.83633 0.2605 0.23197 0.0
C2104 C 0.82203 0.24406 0.21814 0.0
C2105 C 0.83106 0.23536 0.19548 0.0
H2106 H -0.00373 0.66461 0.39126 0.0
H2107 H 0.01658 0.71009 0.45315 0.0
H2108 H 0.01976 0.6729 0.47921 0.0
H2109 H 0.96002 0.62085 0.42487 0.0
H2110 H 0.97008 0.59509 0.40673 0.0
H2111 H 0.96877 0.62531 0.3933 0.0
H2112 H 0.01439 0.62209 0.38104 0.0
H2113 H 0.01572 0.59181 0.39421 0.0
H2114 H 0.03677 0.61511 0.4042 0.0
H2115 H 0.02024 0.62999 0.49853 0.0
H2116 H 0.02109 0.58522 0.50804 0.0
H2117 H 0.00164 0.56925 0.43283 0.0
C2118 C 0.00128 0.66681 0.41033 0.0
C2119 C 0.00601 0.6902 0.42027 0.0
C2120 C 0.01272 0.69228 0.44524 0.0
C2121 C 0.01454 0.6713 0.46016 0.0
C2122 C 0.00957 0.64846 0.44978 0.0
C2123 C 0.00323 0.64615 0.42536 0.0
C2124 C -0.0005 0.61962 0.4183 0.0
C2125 C 0.97302 0.61496 0.41034 0.0
C2126 C 0.01769 0.6117 0.39826 0.0
C2127 C 0.00495 0.6073 0.44247 0.0
C2128 C 0.01044 0.62411 0.46058 0.0
C2129 C 0.01597 0.61668 0.48448 0.0
C2130 C 0.01629 0.59136 0.48978 0.0
C2131 C 0.01151 0.57409 0.47109 0.0
C2132 C 0.0055 0.58223 0.44735 0.0
H2133 H 0.55828 0.75029 0.6902 0.0
H2134 H 0.58579 0.76367 0.61665 0.0
H2135 H 0.62775 0.76255 0.63221 0.0
H2136 H 0.60117 0.78725 0.72216 0.0
H2137 H 0.60507 0.76661 0.74774 0.0
H2138 H 0.57686 0.76675 0.73094 0.0
H2139 H 0.58155 0.72008 0.723 0.0
H2140 H 0.60996 0.71989 0.73959 0.0
H2141 H 0.60891 0.70872 0.70854 0.0
H2142 H 0.6659 0.7608 0.65441 0.0
H2143 H 0.69945 0.76412 0.68322 0.0
H2144 H 0.64987 0.75301 0.74433 0.0
C2145 C 0.5732 0.75295 0.67744 0.0
C2146 C 0.56872 0.75696 0.65211 0.0
C2147 C 0.58869 0.76039 0.63601 0.0
C2148 C 0.61264 0.75967 0.64467 0.0
C2149 C 0.61648 0.75532 0.66952 0.0
C2150 C 0.59748 0.75222 0.68583 0.0
C2151 C 0.60719 0.74883 0.71183 0.0
C2152 C 0.59696 0.76855 0.72919 0.0
C2153 C 0.60156 0.72284 0.7213 0.0
C2154 C 0.63448 0.75198 0.70761 0.0
C2155 C 0.63917 0.75482 0.68284 0.0
C2156 C 0.66253 0.75833 0.67381 0.0
C2157 C 0.68163 0.75986 0.69047 0.0
C2158 C 0.67759 0.75818 0.71611 0.0
C2159 C 0.65365 0.75375 0.72486 0.0
H2160 H 0.56456 0.51798 0.68413 0.0
H2161 H 0.62481 0.46699 0.67464 0.0
H2162 H 0.60965 0.45617 0.63383 0.0
H2163 H 0.51869 0.48233 0.64933 0.0
H2164 H 0.50524 0.50879 0.63473 0.0
H2165 H 0.51896 0.51167 0.6646 0.0
H2166 H 0.54706 0.5462 0.64834 0.0
H2167 H 0.53326 0.54353 0.61852 0.0
H2168 H 0.56584 0.54057 0.62175 0.0
H2169 H 0.58863 0.4492 0.59579 0.0
H2170 H 0.56715 0.45172 0.55695 0.0
H2171 H 0.52161 0.51068 0.58552 0.0
C2172 C 0.57428 0.50437 0.67345 0.0
C2173 C 0.59576 0.49303 0.68277 0.0
C2174 C 0.60834 0.47578 0.66804 0.0
C2175 C 0.59977 0.46938 0.64485 0.0
C2176 C 0.57868 0.48064 0.6362 0.0
C2177 C 0.56625 0.49814 0.64959 0.0
C2178 C 0.54515 0.50855 0.6344 0.0
C2179 C 0.52055 0.50248 0.64649 0.0
C2180 C 0.54801 0.53637 0.63052 0.0
C2181 C 0.54825 0.49447 0.61034 0.0
C2182 C 0.56732 0.47799 0.61251 0.0
C2183 C 0.5739 0.46228 0.59367 0.0
C2184 C 0.56147 0.46397 0.57152 0.0
C2185 C 0.54291 0.48181 0.56766 0.0
C2186 C 0.53568 0.4969 0.58771 0.0
H2187 H 0.74368 0.36222 0.91178 0.0
H2188 H 0.79006 0.31368 0.95439 0.0
H2189 H 0.80173 0.29168 0.91685 0.0
H2190 H 0.7192 0.31706 0.87504 0.0
H2191 H 0.71801 0.33483 0.84714 0.0
H2192 H 0.71695 0.35009 0.8763 0.0
H2193 H 0.75416 0.37646 0.86345 0.0
H2194 H 0.75547 0.36084 0.83433 0.0
H2195 H 0.78193 0.36153 0.85384 0.0
H2196 H 0.80665 0.27349 0.87714 0.0
H2197 H 0.79746 0.25299 0.83836 0.0
H2198 H 0.7449 0.30984 0.82041 0.0
C2199 C 0.75668 0.34727 0.91296 0.0
C2200 C 0.76634 0.33977 0.93578 0.0
C2201 C 0.78267 0.31974 0.937 0.0
C2202 C 0.78965 0.30738 0.91576 0.0
C2203 C 0.78001 0.31521 0.8935 0.0
C2204 C 0.76348 0.33431 0.89186 0.0
C2205 C 0.75318 0.33634 0.86609 0.0
C2206 C 0.72518 0.33443 0.86617 0.0
C2207 C 0.76169 0.36022 0.8537 0.0
C2208 C 0.76513 0.31417 0.8542 0.0
C2209 C 0.78154 0.30328 0.87013 0.0
C2210 C 0.79409 0.28191 0.86436 0.0
C2211 C 0.78876 0.27045 0.8423 0.0
C2212 C 0.77054 0.27995 0.82661 0.0
C2213 C 0.75927 0.30264 0.83197 0.0
H2214 H 0.92076 0.4732 0.17349 0.0
H2215 H 0.90375 0.54935 0.18929 0.0
H2216 H 0.92778 0.56247 0.15327 0.0
H2217 H 0.98178 0.48144 0.14965 0.0
H2218 H 0.97856 0.45982 0.12488 0.0
H2219 H 0.96131 0.45574 0.15276 0.0
H2220 H 0.92084 0.45541 0.12838 0.0
H2221 H 0.93807 0.45851 0.10044 0.0
H2222 H 0.91428 0.48028 0.10754 0.0
H2223 H 0.95353 0.56762 0.11712 0.0
H2224 H 0.97183 0.56468 0.07601 0.0
H2225 H 0.97051 0.48518 0.08078 0.0
C2226 C 0.92226 0.49257 0.1692 0.0
C2227 C 0.91093 0.51046 0.18404 0.0
C2228 C 0.91259 0.53559 0.17798 0.0
C2229 C 0.92632 0.54317 0.15778 0.0
C2230 C 0.9379 0.52525 0.14375 0.0
C2231 C 0.93543 0.50045 0.1486 0.0
C2232 C 0.94778 0.48512 0.12892 0.0
C2233 C 0.9686 0.46961 0.13971 0.0
C2234 C 0.92913 0.46889 0.11552 0.0
C2235 C 0.95754 0.50528 0.11236 0.0
C2236 C 0.95206 0.52823 0.12175 0.0
C2237 C 0.95804 0.54982 0.10954 0.0
C2238 C 0.9686 0.54798 0.08635 0.0
C2239 C 0.97278 0.52475 0.07555 0.0
C2240 C 0.96814 0.50311 0.08904 0.0
H2241 H 0.74232 0.69243 0.44211 0.0
H2242 H 0.76544 0.62151 0.41425 0.0
H2243 H 0.76835 0.63893 0.37248 0.0
H2244 H 0.70437 0.70729 0.39261 0.0
H2245 H 0.7114 0.73961 0.39315 0.0
H2246 H 0.71362 0.72177 0.42079 0.0
H2247 H 0.75847 0.73592 0.42573 0.0
H2248 H 0.75648 0.75337 0.3977 0.0
H2249 H 0.78 0.73048 0.40129 0.0
H2250 H 0.76529 0.66341 0.33295 0.0
H2251 H 0.75215 0.69161 0.29963 0.0
H2252 H 0.73246 0.7462 0.35371 0.0
C2253 C 0.74827 0.68064 0.42727 0.0
C2254 C 0.75379 0.65568 0.43144 0.0
C2255 C 0.76121 0.64075 0.41148 0.0
C2256 C 0.76309 0.65051 0.38772 0.0
C2257 C 0.75767 0.67528 0.38422 0.0
C2258 C 0.75027 0.69008 0.40348 0.0
C2259 C 0.7435 0.71551 0.39467 0.0
C2260 C 0.71664 0.72137 0.40064 0.0
C2261 C 0.76065 0.73496 0.40549 0.0
C2262 C 0.74763 0.71253 0.36739 0.0
C2263 C 0.75618 0.68936 0.36163 0.0
C2264 C 0.75911 0.6818 0.33728 0.0
C2265 C 0.75197 0.69796 0.31842 0.0
C2266 C 0.74197 0.72114 0.32422 0.0
C2267 C 0.74076 0.72878 0.34889 0.0
H2268 H 0.57318 0.47427 0.82212 0.0
H2269 H 0.62521 0.53326 0.83249 0.0
H2270 H 0.61181 0.53781 0.87529 0.0
H2271 H 0.52477 0.49755 0.85583 0.0
H2272 H 0.51605 0.46897 0.87014 0.0
H2273 H 0.53167 0.46866 0.84117 0.0
H2274 H 0.56457 0.44019 0.86005 0.0
H2275 H 0.54928 0.4413 0.88932 0.0
H2276 H 0.58084 0.44999 0.88698 0.0
H2277 H 0.59169 0.53817 0.91571 0.0
H2278 H 0.56075 0.53967 0.94841 0.0
H2279 H 0.52054 0.48138 0.91303 0.0
C2280 C 0.58179 0.48798 0.83354 0.0
C2281 C 0.60039 0.50329 0.82404 0.0
C2282 C 0.61122 0.52107 0.83947 0.0
C2283 C 0.60384 0.52371 0.8639 0.0
C2284 C 0.58589 0.50808 0.87294 0.0
C2285 C 0.57484 0.49065 0.85829 0.0
C2286 C 0.55505 0.47724 0.87252 0.0
C2287 C 0.53042 0.47821 0.85912 0.0
C2288 C 0.56291 0.45059 0.87749 0.0
C2289 C 0.55478 0.49189 0.89626 0.0
C2290 C 0.57378 0.50855 0.89658 0.0
C2291 C 0.577 0.52492 0.91589 0.0
C2292 C 0.55949 0.52542 0.9346 0.0
C2293 C 0.53867 0.51019 0.93358 0.0
C2294 C 0.5368 0.4925 0.91472 0.0
H2295 H 0.75068 0.36146 0.08739 0.0
H2296 H 0.72732 0.30096 0.04141 0.0
H2297 H 0.72435 0.27424 0.07804 0.0
H2298 H 0.78727 0.32574 0.12909 0.0
H2299 H 0.77858 0.34354 0.15554 0.0
H2300 H 0.77934 0.35772 0.1257 0.0
H2301 H 0.73427 0.37127 0.13069 0.0
H2302 H 0.7335 0.3574 0.16063 0.0
H2303 H 0.71141 0.3486 0.13788 0.0
H2304 H 0.72363 0.25432 0.11999 0.0
H2305 H 0.72247 0.24397 0.16444 0.0
H2306 H 0.74618 0.31772 0.18186 0.0
C2307 C 0.7449 0.3426 0.085 0.0
C2308 C 0.73921 0.33321 0.06164 0.0
C2309 C 0.7317 0.30847 0.05923 0.0
C2310 C 0.7301 0.29316 0.07987 0.0
C2311 C 0.73613 0.30293 0.10264 0.0
C2312 C 0.74323 0.32714 0.10531 0.0
C2313 C 0.74806 0.33345 0.1318 0.0
C2314 C 0.77491 0.34052 0.13575 0.0
C2315 C 0.73077 0.35388 0.14077 0.0
C2316 C 0.74225 0.30908 0.14366 0.0
C2317 C 0.73566 0.29157 0.1266 0.0
C2318 C 0.72892 0.26781 0.13351 0.0
C2319 C 0.72844 0.26202 0.15862 0.0
C2320 C 0.73452 0.28005 0.1761 0.0
C2321 C 0.74178 0.30364 0.16856 0.0
H2322 H 0.91529 0.46625 0.32315 0.0
H2323 H 0.90719 0.54537 0.3201 0.0
H2324 H 0.92221 0.54859 0.36277 0.0
H2325 H 0.89945 0.4578 0.38754 0.0
H2326 H 0.92235 0.43459 0.39274 0.0
H2327 H 0.90892 0.43803 0.3628 0.0
H2328 H 0.95174 0.44368 0.34345 0.0
H2329 H 0.96528 0.43974 0.37319 0.0
H2330 H 0.97183 0.4669 0.35543 0.0
H2331 H 0.93656 0.54321 0.40528 0.0
H2332 H 0.95917 0.53115 0.44236 0.0
H2333 H 0.96296 0.45603 0.41634 0.0
C2334 C 0.91674 0.48416 0.33164 0.0
C2335 C 0.91007 0.50563 0.31888 0.0
C2336 C 0.91232 0.52887 0.32997 0.0
C2337 C 0.92053 0.5308 0.35413 0.0
C2338 C 0.9266 0.50926 0.36656 0.0
C2339 C 0.9255 0.48644 0.35554 0.0
C2340 C 0.93542 0.46654 0.3722 0.0
C2341 C 0.91534 0.44815 0.37923 0.0
C2342 C 0.95738 0.45347 0.36036 0.0
C2343 C 0.94287 0.48189 0.39405 0.0
C2344 C 0.93663 0.50631 0.39071 0.0
C2345 C 0.94146 0.52416 0.40821 0.0
C2346 C 0.95401 0.5171 0.42929 0.0
C2347 C 0.9622 0.49263 0.43219 0.0
C2348 C 0.95625 0.47468 0.41465 0.0
H2349 H 0.71993 0.6627 0.58101 0.0
H2350 H 0.79704 0.66163 0.56381 0.0
H2351 H 0.80632 0.67896 0.6047 0.0
H2352 H 0.72077 0.72076 0.60963 0.0
H2353 H 0.69824 0.71337 0.63258 0.0
H2354 H 0.69801 0.6977 0.60359 0.0
H2355 H 0.70038 0.65584 0.62623 0.0
H2356 H 0.70082 0.67154 0.6553 0.0
H2357 H 0.72482 0.65024 0.64758 0.0
H2358 H 0.80713 0.69755 0.64701 0.0
H2359 H 0.79898 0.72224 0.68438 0.0
H2360 H 0.72133 0.71486 0.67224 0.0
C2361 C 0.73873 0.66597 0.58607 0.0
C2362 C 0.75786 0.66087 0.56951 0.0
C2363 C 0.78223 0.6656 0.57638 0.0
C2364 C 0.78765 0.67516 0.5996 0.0
C2365 C 0.76842 0.68017 0.61561 0.0
C2366 C 0.7444 0.67613 0.609 0.0
C2367 C 0.72704 0.68568 0.62846 0.0
C2368 C 0.71002 0.70556 0.61793 0.0
C2369 C 0.71241 0.66456 0.64007 0.0
C2370 C 0.74501 0.69638 0.64659 0.0
C2371 C 0.76882 0.69226 0.63929 0.0
C2372 C 0.78857 0.70083 0.65294 0.0
C2373 C 0.78384 0.71471 0.67415 0.0
C2374 C 0.75961 0.7203 0.68099 0.0
C2375 C 0.74003 0.71064 0.66732 0.0
H2376 H 0.67238 0.6009 0.46702 0.0
H2377 H 0.69004 0.57709 0.54074 0.0
H2378 H 0.64885 0.5591 0.54506 0.0
H2379 H 0.60781 0.61398 0.47662 0.0
H2380 H 0.59843 0.60137 0.44762 0.0
H2381 H 0.62839 0.61455 0.4508 0.0
H2382 H 0.64809 0.57393 0.4358 0.0
H2383 H 0.6182 0.56085 0.43218 0.0
H2384 H 0.6405 0.54553 0.45105 0.0
H2385 H 0.60531 0.54578 0.5422 0.0
H2386 H 0.56595 0.52839 0.52937 0.0
H2387 H 0.57815 0.55467 0.45531 0.0
C2388 C 0.66742 0.59199 0.48408 0.0
C2389 C 0.68415 0.59064 0.50374 0.0
C2390 C 0.67738 0.57837 0.52557 0.0
C2391 C 0.65399 0.56832 0.52824 0.0
C2392 C 0.63776 0.57021 0.50868 0.0
C2393 C 0.64437 0.58105 0.48674 0.0
C2394 C 0.62425 0.57831 0.4678 0.0
C2395 C 0.61413 0.60356 0.46026 0.0
C2396 C 0.63331 0.56378 0.44539 0.0
C2397 C 0.60549 0.56389 0.48241 0.0
C2398 C 0.61335 0.56035 0.50624 0.0
C2399 C 0.59905 0.54829 0.52357 0.0
C2400 C 0.5766 0.53869 0.51615 0.0
C2401 C 0.56893 0.5404 0.49143 0.0
C2402 C 0.58343 0.55345 0.47438 0.0
H2403 H 0.17279 0.90191 0.52726 0.0
H2404 H 0.2022 0.94152 0.46488 0.0
H2405 H 0.16518 0.96773 0.46386 0.0
H2406 H 0.11017 0.90247 0.50912 0.0
H2407 H 0.09902 0.90688 0.53991 0.0
H2408 H 0.12746 0.89115 0.53485 0.0
H2409 H 0.14915 0.92211 0.56352 0.0
H2410 H 0.12078 0.93808 0.56841 0.0
H2411 H 0.14702 0.95455 0.55717 0.0
H2412 H 0.12332 0.98802 0.46868 0.0
H2413 H 0.0817 0.00178 0.48049 0.0
H2414 H 0.08321 0.95089 0.54189 0.0
C2415 C 0.17138 0.91606 0.51334 0.0
C2416 C 0.19012 0.91973 0.49606 0.0
C2417 C 0.18791 0.93856 0.4783 0.0
C2418 C 0.167 0.95346 0.47756 0.0
C2419 C 0.14883 0.94948 0.49502 0.0
C2420 C 0.151 0.93136 0.51271 0.0
C2421 C 0.12935 0.93109 0.5298 0.0
C2422 C 0.1157 0.90645 0.52831 0.0
C2423 C 0.13705 0.93681 0.55629 0.0
C2424 C 0.11459 0.95181 0.51888 0.0
C2425 C 0.12581 0.96208 0.49867 0.0
C2426 C 0.11452 0.98041 0.48475 0.0
C2427 C 0.09097 0.98818 0.49158 0.0
C2428 C 0.07933 0.97782 0.51232 0.0
C2429 C 0.09166 0.95973 0.52623 0.0
H2430 H 0.34066 0.92856 0.78342 0.0
H2431 H 0.34659 0.9332 0.70435 0.0
H2432 H 0.33212 0.89025 0.70074 0.0
H2433 H 0.36129 0.86502 0.78813 0.0
H2434 H 0.34075 0.85741 0.81281 0.0
H2435 H 0.35191 0.88838 0.80957 0.0
H2436 H 0.3077 0.9052 0.80802 0.0
H2437 H 0.29647 0.87447 0.81211 0.0
H2438 H 0.28651 0.89249 0.78623 0.0
H2439 H 0.31822 0.84711 0.70578 0.0
H2440 H 0.29698 0.80925 0.7184 0.0
H2441 H 0.29895 0.83292 0.7941 0.0
C2442 C 0.33868 0.92043 0.76541 0.0
C2443 C 0.34458 0.93373 0.74407 0.0
C2444 C 0.34214 0.92288 0.72076 0.0
C2445 C 0.33417 0.89859 0.71861 0.0
C2446 C 0.32932 0.88548 0.74002 0.0
C2447 C 0.33106 0.89609 0.76298 0.0
C2448 C 0.32383 0.87821 0.78297 0.0
C2449 C 0.34575 0.8719 0.79934 0.0
C2450 C 0.30233 0.88818 0.7982 0.0
C2451 C 0.3166 0.85632 0.76757 0.0
C2452 C 0.32082 0.86061 0.74293 0.0
C2453 C 0.31509 0.84338 0.72503 0.0
C2454 C 0.30345 0.82175 0.7324 0.0
C2455 C 0.29706 0.81807 0.75727 0.0
C2456 C 0.30449 0.83506 0.77515 0.0
H2457 H 0.32823 0.09663 0.03375 0.0
H2458 H 0.31325 0.07572 0.95874 0.0
H2459 H 0.35464 0.05731 0.9554 0.0
H2460 H 0.39173 0.11069 0.02882 0.0
H2461 H 0.39932 0.09634 0.05763 0.0
H2462 H 0.36943 0.1093 0.05314 0.0
H2463 H 0.34952 0.06757 0.06427 0.0
H2464 H 0.37929 0.05463 0.06926 0.0
H2465 H 0.35869 0.04029 0.04797 0.0
H2466 H 0.39801 0.03981 0.96148 0.0
H2467 H 0.43542 0.02013 0.97825 0.0
H2468 H 0.42027 0.05294 0.04897 0.0
C2469 C 0.33378 0.08833 0.01657 0.0
C2470 C 0.31787 0.08765 -0.00355 0.0
C2471 C 0.32536 0.07623 0.97439 0.0
C2472 C 0.34885 0.06599 0.97227 0.0
C2473 C 0.36432 0.06712 0.99252 0.0
C2474 C 0.35679 0.07762 0.01437 0.0
C2475 C 0.37548 0.07431 0.0343 0.0
C2476 C 0.38452 0.09915 0.04402 0.0
C2477 C 0.36514 0.05824 0.05516 0.0
C2478 C 0.39513 0.06098 0.02015 0.0
C2479 C 0.38859 0.05691 0.99606 0.0
C2480 C 0.4034 0.04315 0.98025 0.0
C2481 C 0.42477 0.0323 0.98976 0.0
C2482 C 0.43078 0.03533 0.01475 0.0
C2483 C 0.41629 0.05068 0.02965 0.0
H2484 H 0.68001 0.57379 0.72552 0.0
H2485 H 0.62795 0.58181 0.78495 0.0
H2486 H 0.64272 0.62385 0.79251 0.0
H2487 H 0.72901 0.60488 0.75148 0.0
H2488 H 0.73858 0.62042 0.72387 0.0
H2489 H 0.72242 0.59181 0.72186 0.0
H2490 H 0.69027 0.61277 0.69402 0.0
H2491 H 0.70615 0.64165 0.69648 0.0
H2492 H 0.67442 0.63968 0.70484 0.0
H2493 H 0.66456 0.66365 0.79566 0.0
H2494 H 0.69527 0.6966 0.79731 0.0
H2495 H 0.73354 0.66409 0.73592 0.0
C2496 C 0.67158 0.58459 0.73989 0.0
C2497 C 0.65262 0.57466 0.75448 0.0
C2498 C 0.64214 0.58922 0.77324 0.0
C2499 C 0.65038 0.61316 0.77765 0.0
C2500 C 0.66878 0.62264 0.76275 0.0
C2501 C 0.67928 0.60889 0.74421 0.0
C2502 C 0.69947 0.62332 0.73162 0.0
C2503 C 0.72381 0.60927 0.73228 0.0
C2504 C 0.69215 0.62972 0.70517 0.0
C2505 C 0.70008 0.64635 0.74736 0.0
C2506 C 0.68151 0.64593 0.76456 0.0
C2507 C 0.67884 0.66445 0.78196 0.0
C2508 C 0.6962 0.68331 0.78256 0.0
C2509 C 0.71624 0.68339 0.76619 0.0
C2510 C 0.71781 0.66504 0.74792 0.0
H2511 H 0.81442 0.43696 0.97952 0.0
H2512 H 0.836 0.37615 0.02626 0.0
H2513 H 0.87888 0.38955 0.02371 0.0
H2514 H 0.86816 0.43588 0.94008 0.0
H2515 H 0.86957 0.46886 0.93749 0.0
H2516 H 0.84061 0.45389 0.94194 0.0
H2517 H 0.83234 0.48036 0.98058 0.0
H2518 H 0.86096 0.49573 0.97588 0.0
H2519 H 0.85464 0.48098 0.0048 0.0
H2520 H 0.91912 0.41036 0.01738 0.0
H2521 H 0.95274 0.44004 0.01175 0.0
H2522 H 0.90493 0.48653 0.96852 0.0
C2523 C 0.82819 0.4265 0.98921 0.0
C2524 C 0.82199 0.40552 0.00303 0.0
C2525 C 0.84044 0.39226 0.01549 0.0
C2526 C 0.86485 0.39961 0.01402 0.0
C2527 C 0.87047 0.4201 -0.00017 0.0
C2528 C 0.85265 0.43348 0.98782 0.0
C2529 C 0.86336 0.45552 0.97485 0.0
C2530 C 0.86024 0.45339 0.94693 0.0
C2531 C 0.85217 0.47956 0.98463 0.0
C2532 C 0.88983 0.45284 0.98212 0.0
C2533 C 0.89369 0.43205 0.99613 0.0
C2534 C 0.91643 0.42655 0.00617 0.0
C2535 C 0.93548 0.44337 0.0027 0.0
C2536 C 0.93139 0.46545 0.98963 0.0
C2537 C 0.90858 0.46966 0.97843 0.0
H2538 H 0.33831 0.08241 0.78259 0.0
H2539 H 0.33909 0.05794 0.70698 0.0
H2540 H 0.31628 0.09496 0.69459 0.0
H2541 H 0.27729 0.10722 0.78146 0.0
H2542 H 0.28382 0.13348 0.8004 0.0
H2543 H 0.30116 0.10556 0.80407 0.0
H2544 H 0.34154 0.12913 0.79674 0.0
H2545 H 0.32435 0.15719 0.79397 0.0
H2546 H 0.34476 0.14797 0.76971 0.0
H2547 H 0.29341 0.13316 0.69008 0.0
H2548 H 0.27574 0.17473 0.69276 0.0
H2549 H 0.28795 0.1751 0.77122 0.0
C2550 C 0.33372 0.08511 0.76348 0.0
C2551 C 0.34002 0.06746 0.74563 0.0
C2552 C 0.33395 0.07129 0.72079 0.0
C2553 C 0.32101 0.09215 0.71363 0.0
C2554 C 0.31408 0.10881 0.73164 0.0
C2555 C 0.32043 0.10586 0.756 0.0
C2556 C 0.31068 0.12695 0.77138 0.0
C2557 C 0.29214 0.11774 0.79046 0.0
C2558 C 0.33158 0.14115 0.78366 0.0
C2559 C 0.29825 0.14221 0.75172 0.0
C2560 C 0.30027 0.13112 0.72903 0.0
C2561 C 0.29141 0.14198 0.70774 0.0
C2562 C 0.28118 0.1654 0.70945 0.0
C2563 C 0.27989 0.1776 0.73226 0.0
C2564 C 0.28783 0.16563 0.75378 0.0
H2565 H 0.18591 0.9318 0.2753 0.0
H2566 H 0.12568 0.91765 0.22595 0.0
H2567 H 0.13909 0.87465 0.2216 0.0
H2568 H 0.2306 0.89656 0.24627 0.0
H2569 H 0.24404 0.88437 0.27389 0.0
H2570 H 0.22838 0.91337 0.27467 0.0
H2571 H 0.20083 0.89661 0.30953 0.0
H2572 H 0.216 0.86722 0.30812 0.0
H2573 H 0.18341 0.86902 0.30461 0.0
H2574 H 0.15982 0.83438 0.22028 0.0
H2575 H 0.19037 0.80133 0.21697 0.0
H2576 H 0.2375 0.84013 0.26716 0.0
C2577 C 0.17551 0.9195 0.26378 0.0
C2578 C 0.1546 0.92794 0.25113 0.0
C2579 C 0.14148 0.91143 0.23613 0.0
C2580 C 0.14889 0.88694 0.23363 0.0
C2581 C 0.16917 0.87895 0.24673 0.0
C2582 C 0.18241 0.89467 0.26147 0.0
C2583 C 0.20422 0.88142 0.2725 0.0
C2584 C 0.22822 0.89472 0.26643 0.0
C2585 C 0.20092 0.87841 0.30034 0.0
C2586 C 0.20239 0.85665 0.25978 0.0
C2587 C 0.18135 0.85532 0.24593 0.0
C2588 C 0.17609 0.83496 0.23145 0.0
C2589 C 0.19339 0.81607 0.22994 0.0
C2590 C 0.21581 0.81778 0.24251 0.0
C2591 C 0.22 0.8379 0.2583 0.0
H2592 H 0.48863 0.34097 0.3925 0.0
H2593 H 0.50478 0.29522 0.45561 0.0
H2594 H 0.5027 0.33156 0.48235 0.0
H2595 H 0.5234 0.39118 0.40716 0.0
H2596 H 0.50193 0.41436 0.39745 0.0
H2597 H 0.501 0.38431 0.384 0.0
H2598 H 0.45549 0.38093 0.39641 0.0
H2599 H 0.45669 0.41083 0.41057 0.0
H2600 H 0.44685 0.38456 0.42808 0.0
H2601 H 0.50208 0.37232 0.50199 0.0
H2602 H 0.51149 0.41537 0.51181 0.0
H2603 H 0.49782 0.4361 0.43648 0.0
C2604 C 0.49132 0.33862 0.41202 0.0
C2605 C 0.49657 0.31514 0.42202 0.0
C2606 C 0.50032 0.31286 0.44758 0.0
C2607 C 0.499 0.33342 0.46297 0.0
C2608 C 0.49349 0.35621 0.45269 0.0
C2609 C 0.48985 0.35905 0.42778 0.0
C2610 C 0.48632 0.38606 0.42137 0.0
C2611 C 0.50426 0.39446 0.40133 0.0
C2612 C 0.45977 0.39088 0.41364 0.0
C2613 C 0.4915 0.398 0.44603 0.0
C2614 C 0.49397 0.38028 0.46407 0.0
C2615 C 0.49981 0.38638 0.48814 0.0
C2616 C 0.50484 0.41097 0.49364 0.0
C2617 C 0.50479 0.4291 0.47508 0.0
C2618 C 0.49708 0.42272 0.45118 0.0
H2619 H 0.4188 0.71822 0.1603 0.0
H2620 H 0.4491 0.78991 0.17676 0.0
H2621 H 0.41428 0.79894 0.20365 0.0
H2622 H 0.35543 0.73697 0.15899 0.0
H2623 H 0.34423 0.70954 0.17374 0.0
H2624 H 0.3718 0.70839 0.15585 0.0
H2625 H 0.39434 0.69023 0.19336 0.0
H2626 H 0.36694 0.6922 0.21159 0.0
H2627 H 0.39448 0.70691 0.22187 0.0
H2628 H 0.37839 0.80082 0.22857 0.0
H2629 H 0.33646 0.7993 0.24444 0.0
H2630 H 0.32722 0.72675 0.21317 0.0
C2631 C 0.41779 0.7358 0.16952 0.0
C2632 C 0.43656 0.75338 0.16696 0.0
C2633 C 0.43494 0.7762 0.17902 0.0
C2634 C 0.41539 0.78141 0.19439 0.0
C2635 C 0.39774 0.76345 0.19766 0.0
C2636 C 0.39826 0.7413 0.1853 0.0
C2637 C 0.37596 0.72597 0.19172 0.0
C2638 C 0.36097 0.71989 0.1687 0.0
C2639 C 0.38338 0.70243 0.20545 0.0
C2640 C 0.36257 0.74364 0.20866 0.0
C2641 C 0.37609 0.76471 0.21233 0.0
C2642 C 0.3676 0.78439 0.22615 0.0
C2643 C 0.34393 0.78329 0.23531 0.0
C2644 C 0.32907 0.76278 0.2304 0.0
C2645 C 0.3387 0.74222 0.21782 0.0
H2646 H 0.97749 0.66898 0.89542 0.0
H2647 H 0.04594 0.69054 0.92838 0.0
H2648 H 0.05021 0.64891 0.94654 0.0
H2649 H 0.95696 0.63739 0.94747 0.0
H2650 H 0.94045 0.61464 0.93027 0.0
H2651 H 0.94525 0.64466 0.91747 0.0
H2652 H 0.96525 0.62462 0.8792 0.0
H2653 H 0.96098 0.59453 0.89232 0.0
H2654 H 0.99099 0.60432 0.88301 0.0
H2655 H 0.04439 0.60578 0.96467 0.0
H2656 H 0.02632 0.56913 0.98479 0.0
H2657 H 0.96237 0.57646 0.93905 0.0
C2658 C -0.00638 0.66478 0.90608 0.0
C2659 C 0.01151 0.68279 0.91035 0.0
C2660 C 0.03202 0.6769 0.92495 0.0
C2661 C 0.0347 0.65325 0.93509 0.0
C2662 C 0.01662 0.63581 0.93056 0.0
C2663 C -0.00367 0.64152 0.9166 0.0
C2664 C 0.97781 0.62107 0.91711 0.0
C2665 C 0.95372 0.62996 0.92878 0.0
C2666 C 0.97353 0.61051 0.89137 0.0
C2667 C 0.99077 0.60283 0.93343 0.0
C2668 C 0.01326 0.61138 0.94095 0.0
C2669 C 0.02702 0.59871 0.95851 0.0
C2670 C 0.01683 0.57769 0.96965 0.0
C2671 C 0.99317 0.56982 0.96311 0.0
C2672 C 0.98076 0.58181 0.94392 0.0
H2673 H 0.06594 0.21983 0.6821 0.0
H2674 H 0.07913 0.28213 0.63434 0.0
H2675 H 0.12196 0.28386 0.64832 0.0
H2676 H 0.10345 0.23846 0.73202 0.0
H2677 H 0.11441 0.20787 0.73839 0.0
H2678 H 0.08492 0.21217 0.72467 0.0
H2679 H 0.09783 0.18375 0.68877 0.0
H2680 H 0.12761 0.17981 0.70212 0.0
H2681 H 0.12472 0.19103 0.67116 0.0
H2682 H 0.16177 0.28083 0.66991 0.0
H2683 H 0.19605 0.2733 0.69793 0.0
H2684 H 0.15918 0.20957 0.72747 0.0
C2685 C 0.07789 0.2339 0.67483 0.0
C2686 C 0.0695 0.25098 0.65742 0.0
C2687 C 0.08549 0.26894 0.64779 0.0
C2688 C 0.10976 0.26999 0.65552 0.0
C2689 C 0.11774 0.25253 0.67235 0.0
C2690 C 0.10236 0.23476 0.68182 0.0
C2691 C 0.1156 0.21808 0.69952 0.0
C2692 C 0.10391 0.21923 0.72517 0.0
C2693 C 0.11649 0.1916 0.68981 0.0
C2694 C 0.14062 0.22974 0.69914 0.0
C2695 C 0.14147 0.24953 0.68325 0.0
C2696 C 0.16176 0.26477 0.68163 0.0
C2697 C 0.18149 0.25999 0.69712 0.0
C2698 C 0.18101 0.23988 0.71353 0.0
C2699 C 0.16044 0.22437 0.71423 0.0
H2700 H 0.48374 0.6868 0.06795 0.0
H2701 H 0.53106 0.66625 0.12823 0.0
H2702 H 0.53731 0.62532 0.1096 0.0
H2703 H 0.45582 0.62577 0.06135 0.0
H2704 H 0.45365 0.62887 0.02854 0.0
H2705 H 0.45187 0.65571 0.04774 0.0
H2706 H 0.48765 0.67529 0.02335 0.0
H2707 H 0.48977 0.64842 0.00433 0.0
H2708 H 0.51618 0.65895 0.02087 0.0
H2709 H 0.53945 0.58713 0.08303 0.0
H2710 H 0.53632 0.55474 0.05124 0.0
H2711 H 0.48812 0.60183 0.00903 0.0
C2712 C 0.4953 0.67363 0.07727 0.0
C2713 C 0.50704 0.67954 0.09931 0.0
C2714 C 0.52188 0.66188 0.11123 0.0
C2715 C 0.52554 0.63865 0.10083 0.0
C2716 C 0.51393 0.63348 0.07878 0.0
C2717 C 0.49889 0.65039 0.06734 0.0
C2718 C 0.48873 0.64056 0.04371 0.0
C2719 C 0.46087 0.63755 0.04545 0.0
C2720 C 0.49604 0.65677 0.02178 0.0
C2721 C 0.50134 0.61598 0.04298 0.0
C2722 C 0.51546 0.6119 0.06352 0.0
C2723 C 0.52845 0.59011 0.06686 0.0
C2724 C 0.52666 0.57194 0.04873 0.0
C2725 C 0.51232 0.57604 0.02755 0.0
C2726 C 0.49969 0.59838 0.02473 0.0
H2727 H 0.08953 0.72672 0.85089 0.0
H2728 H 0.05082 0.78475 0.81257 0.0
H2729 H 0.08698 0.79241 0.78698 0.0
H2730 H 0.147 0.75276 0.85441 0.0
H2731 H 0.16461 0.72583 0.84665 0.0
H2732 H 0.13496 0.72249 0.86038 0.0
H2733 H 0.12108 0.69537 0.82391 0.0
H2734 H 0.15109 0.69856 0.81067 0.0
H2735 H 0.12452 0.7068 0.7931 0.0
H2736 H 0.12519 0.79306 0.7646 0.0
H2737 H 0.16817 0.7951 0.75298 0.0
H2738 H 0.18615 0.74084 0.80856 0.0
C2739 C 0.08876 0.74081 0.83688 0.0
C2740 C 0.0673 0.75494 0.8333 0.0
C2741 C 0.06685 0.77335 0.81507 0.0
C2742 C 0.08726 0.77777 0.80041 0.0
C2743 C 0.10789 0.76324 0.80383 0.0
C2744 C 0.10908 0.74526 0.82166 0.0
C2745 C 0.13428 0.73331 0.82174 0.0
C2746 C 0.1459 0.73367 0.84733 0.0
C2747 C 0.13263 0.70694 0.81178 0.0
C2748 C 0.14774 0.74962 0.80347 0.0
C2749 C 0.13139 0.76533 0.79217 0.0
C2750 C 0.13826 0.78108 0.77345 0.0
C2751 C 0.16277 0.78191 0.76687 0.0
C2752 C 0.18064 0.76851 0.78016 0.0
C2753 C 0.17296 0.75135 0.79816 0.0
H2754 H 0.98479 0.33415 0.61513 0.0
H2755 H 0.03324 0.29888 0.56303 0.0
H2756 H 0.03457 0.33716 0.5384 0.0
H2757 H 0.94888 0.36286 0.57221 0.0
H2758 H 0.94377 0.39056 0.58956 0.0
H2759 H 0.94996 0.36217 0.60524 0.0
H2760 H 0.98668 0.38197 0.62767 0.0
H2761 H 0.9802 0.41066 0.61252 0.0
H2762 H 0.0101 0.39711 0.61002 0.0
H2763 H 0.02821 0.37918 0.51828 0.0
H2764 H 0.01454 0.42052 0.5048 0.0
H2765 H 0.96737 0.42485 0.56878 0.0
C2766 C -0.00388 0.33469 0.59884 0.0
C2767 C 0.00893 0.31378 0.5909 0.0
C2768 C 0.02322 0.31486 0.56927 0.0
C2769 C 0.02416 0.33649 0.55527 0.0
C2770 C 0.01052 0.35662 0.56313 0.0
C2771 C -0.00316 0.35585 0.58449 0.0
C2772 C 0.98202 0.37893 0.5879 0.0
C2773 C 0.95454 0.37328 0.58877 0.0
C2774 C 0.99025 0.39299 0.61088 0.0
C2775 C 0.98887 0.39249 0.56479 0.0
C2776 C 0.00572 0.37976 0.55091 0.0
C2777 C 0.01491 0.38926 0.52897 0.0
C2778 C 0.00687 0.41261 0.52133 0.0
C2779 C 0.98954 0.4258 0.53545 0.0
C2780 C 0.98031 0.41524 0.55722 0.0
H2781 H 0.4194 0.23014 0.35793 0.0
H2782 H 0.45178 0.28697 0.31272 0.0
H2783 H 0.41341 0.29009 0.28886 0.0
H2784 H 0.38814 0.1999 0.3095 0.0
H2785 H 0.36203 0.19213 0.32806 0.0
H2786 H 0.39153 0.19545 0.34208 0.0
H2787 H 0.37403 0.22807 0.37202 0.0
H2788 H 0.34444 0.22461 0.35828 0.0
H2789 H 0.35833 0.25454 0.35987 0.0
H2790 H 0.37059 0.28575 0.26926 0.0
H2791 H 0.32814 0.27515 0.25735 0.0
H2792 H 0.32596 0.2206 0.31534 0.0
C2793 C 0.4184 0.24334 0.34309 0.0
C2794 C 0.43853 0.25825 0.33709 0.0
C2795 C 0.43657 0.27521 0.31745 0.0
C2796 C 0.41484 0.27715 0.30386 0.0
C2797 C 0.3954 0.2618 0.31001 0.0
C2798 C 0.39709 0.24525 0.32922 0.0
C2799 C 0.37411 0.23027 0.33189 0.0
C2800 C 0.37927 0.20281 0.32763 0.0
C2801 C 0.36202 0.23465 0.357 0.0
C2802 C 0.35908 0.24097 0.31133 0.0
C2803 C 0.37147 0.25913 0.29877 0.0
C2804 C 0.36081 0.27148 0.27899 0.0
C2805 C 0.33678 0.26525 0.27222 0.0
C2806 C 0.32375 0.24703 0.28537 0.0
C2807 C 0.33536 0.23463 0.30488 0.0
H2808 H 0.39708 0.48138 0.33345 0.0
H2809 H 0.448 0.52667 0.29272 0.0
H2810 H 0.47248 0.5325 0.3303 0.0
H2811 H 0.39539 0.51335 0.38749 0.0
H2812 H 0.39542 0.48714 0.40775 0.0
H2813 H 0.38361 0.48424 0.37719 0.0
H2814 H 0.41355 0.44833 0.36882 0.0
H2815 H 0.42542 0.45119 0.39947 0.0
H2816 H 0.44575 0.45277 0.37354 0.0
H2817 H 0.48923 0.53662 0.37319 0.0
H2818 H 0.4966 0.53867 0.41805 0.0
H2819 H 0.43499 0.49062 0.43066 0.0
C2820 C 0.41358 0.49224 0.33242 0.0
C2821 C 0.42065 0.50366 0.31023 0.0
C2822 C 0.44236 0.51765 0.30951 0.0
C2823 C 0.45639 0.52102 0.33075 0.0
C2824 C 0.44878 0.50979 0.35244 0.0
C2825 C 0.42807 0.49533 0.35335 0.0
C2826 C 0.4235 0.48589 0.37913 0.0
C2827 C 0.39797 0.49312 0.38842 0.0
C2828 C 0.42728 0.45789 0.3803 0.0
C2829 C 0.44349 0.49916 0.39293 0.0
C2830 C 0.45842 0.51216 0.37712 0.0
C2831 C 0.47782 0.5263 0.38571 0.0
C2832 C 0.48187 0.52744 0.41113 0.0
C2833 C 0.46626 0.51493 0.42753 0.0
C2834 C 0.44708 0.5004 0.41832 0.0
H2835 H 0.27238 0.68297 0.06607 0.0
H2836 H 0.22401 0.6226 0.08404 0.0
H2837 H 0.21686 0.64046 0.12516 0.0
H2838 H 0.29919 0.68767 0.12709 0.0
H2839 H 0.30178 0.7206 0.1251 0.0
H2840 H 0.30359 0.70224 0.09772 0.0
H2841 H 0.26826 0.72763 0.07861 0.0
H2842 H 0.26621 0.7459 0.10598 0.0
H2843 H 0.23965 0.73003 0.09481 0.0
H2844 H 0.21464 0.6661 0.16432 0.0
H2845 H 0.21801 0.69706 0.19762 0.0
H2846 H 0.26749 0.73962 0.15225 0.0
C2847 C 0.26042 0.67345 0.07873 0.0
C2848 C 0.24878 0.65152 0.07211 0.0
C2849 C 0.23328 0.63941 0.08905 0.0
C2850 C 0.22906 0.64941 0.11235 0.0
C2851 C 0.24074 0.67128 0.11831 0.0
C2852 C 0.25628 0.68297 0.10201 0.0
C2853 C 0.26664 0.7062 0.11263 0.0
C2854 C 0.29444 0.70404 0.11582 0.0
C2855 C 0.25976 0.72876 0.09708 0.0
C2856 C 0.2538 0.70631 0.13705 0.0
C2857 C 0.2392 0.68593 0.14033 0.0
C2858 C 0.22601 0.68216 0.16193 0.0
C2859 C 0.22798 0.69975 0.18067 0.0
C2860 C 0.24266 0.72084 0.17723 0.0
C2861 C 0.25566 0.72397 0.15518 0.0
H2862 H 0.0973 0.52548 0.83318 0.0
H2863 H 0.06244 0.46259 0.79956 0.0
H2864 H 0.03756 0.45646 0.83691 0.0
H2865 H 0.10255 0.50404 0.89223 0.0
H2866 H 0.09446 0.53229 0.90746 0.0
H2867 H 0.10765 0.53317 0.87729 0.0
H2868 H 0.07064 0.55841 0.86189 0.0
H2869 H 0.05721 0.5573 0.89208 0.0
H2870 H 0.04025 0.54651 0.86599 0.0
H2871 H 0.02062 0.45396 0.87894 0.0
H2872 H 0.01195 0.45582 0.9235 0.0
H2873 H 0.05581 0.52159 0.92935 0.0
C2874 C 0.08416 0.51065 0.8337 0.0
C2875 C 0.08167 0.49438 0.81375 0.0
C2876 C 0.06435 0.47525 0.81473 0.0
C2877 C 0.05015 0.4717 0.83578 0.0
C2878 C 0.05305 0.48794 0.85526 0.0
C2879 C 0.06934 0.50729 0.85431 0.0
C2880 C 0.06936 0.52159 0.87813 0.0
C2881 C 0.09503 0.52281 0.88943 0.0
C2882 C 0.05873 0.54748 0.87429 0.0
C2883 C 0.05223 0.50588 0.89325 0.0
C2884 C 0.04252 0.48696 0.87949 0.0
C2885 C 0.0276 0.46898 0.88981 0.0
C2886 C 0.02279 0.47012 0.915 0.0
C2887 C 0.03303 0.48898 0.92933 0.0
C2888 C 0.04752 0.5073 0.91838 0.0
H2889 H 0.26535 0.36222 0.5921 0.0
H2890 H 0.21416 0.31119 0.55967 0.0
H2891 H 0.20894 0.29088 0.60001 0.0
H2892 H 0.29566 0.31929 0.62691 0.0
H2893 H 0.30136 0.33948 0.65241 0.0
H2894 H 0.29746 0.35203 0.62224 0.0
H2895 H 0.26267 0.37988 0.63879 0.0
H2896 H 0.26621 0.36682 0.66897 0.0
H2897 H 0.2369 0.36617 0.65413 0.0
H2898 H 0.21443 0.27236 0.64168 0.0
H2899 H 0.2332 0.25516 0.67912 0.0
H2900 H 0.27919 0.31912 0.68515 0.0
C2901 C 0.2527 0.34703 0.59358 0.0
C2902 C 0.24013 0.33824 0.57284 0.0
C2903 C 0.22406 0.3181 0.57536 0.0
C2904 C 0.22075 0.30669 0.59825 0.0
C2905 C 0.23356 0.31575 0.61839 0.0
C2906 C 0.24931 0.33543 0.61618 0.0
C2907 C 0.26341 0.33968 0.63959 0.0
C2908 C 0.29108 0.33747 0.63501 0.0
C2909 C 0.25689 0.36462 0.65104 0.0
C2910 C 0.2539 0.31867 0.65506 0.0
C2911 C 0.23628 0.30537 0.64275 0.0
C2912 C 0.22752 0.2831 0.65188 0.0
C2913 C 0.23796 0.2736 0.67338 0.0
C2914 C 0.25655 0.28654 0.68561 0.0
C2915 C 0.26395 0.30968 0.67681 0.0
H2916 H 0.41996 0.46457 0.17888 0.0
H2917 H 0.38793 0.53654 0.16836 0.0
H2918 H 0.40618 0.53875 0.12662 0.0
H2919 H 0.4755 0.47502 0.14751 0.0
H2920 H 0.47648 0.44454 0.1347 0.0
H2921 H 0.46113 0.44982 0.16338 0.0
H2922 H 0.42157 0.43077 0.1455 0.0
H2923 H 0.43676 0.42564 0.11667 0.0
H2924 H 0.40887 0.44319 0.11765 0.0
H2925 H 0.4326 0.53327 0.0863 0.0
H2926 H 0.4602 0.51915 0.05266 0.0
H2927 H 0.46748 0.44887 0.08971 0.0
C2928 C 0.41677 0.48077 0.16777 0.0
C2929 C 0.40281 0.50039 0.1767 0.0
C2930 C 0.39868 0.52124 0.16162 0.0
C2931 C 0.40899 0.52268 0.13798 0.0
C2932 C 0.4228 0.50282 0.1296 0.0
C2933 C 0.4262 0.48214 0.14407 0.0
C2934 C 0.44101 0.46288 0.13115 0.0
C2935 C 0.46494 0.45778 0.145 0.0
C2936 C 0.42615 0.43923 0.12752 0.0
C2937 C 0.44566 0.47582 0.10718 0.0
C2938 C 0.43562 0.49905 0.10643 0.0
C2939 C 0.44013 0.51488 0.08661 0.0
C2940 C 0.4557 0.50674 0.06752 0.0
C2941 C 0.46601 0.48286 0.06835 0.0
C2942 C 0.46 0.46723 0.08813 0.0
H2943 H 0.25944 0.69382 0.94122 0.0
H2944 H 0.23962 0.62042 0.9172 0.0
H2945 H 0.23452 0.63546 0.87534 0.0
H2946 H 0.21835 0.72707 0.8963 0.0
H2947 H 0.2402 0.7512 0.89109 0.0
H2948 H 0.23868 0.73613 0.92053 0.0
H2949 H 0.28456 0.7252 0.91747 0.0
H2950 H 0.28619 0.74036 0.88821 0.0
H2951 H 0.29564 0.70873 0.89102 0.0
H2952 H 0.23284 0.65606 0.837 0.0
H2953 H 0.24253 0.6801 0.80045 0.0
H2954 H 0.26704 0.74069 0.84581 0.0
C2955 C 0.25368 0.68113 0.92712 0.0
C2956 C 0.24965 0.65602 0.93249 0.0
C2957 C 0.24262 0.63975 0.91359 0.0
C2958 C 0.2394 0.64816 0.88976 0.0
C2959 C 0.24329 0.67289 0.88501 0.0
C2960 C 0.25063 0.68922 0.90286 0.0
C2961 C 0.25604 0.71426 0.89166 0.0
C2962 C 0.2372 0.7333 0.90042 0.0
C2963 C 0.28217 0.7226 0.89742 0.0
C2964 C 0.25262 0.70859 0.86458 0.0
C2965 C 0.24395 0.68492 0.86168 0.0
C2966 C 0.23958 0.67462 0.83891 0.0
C2967 C 0.24526 0.68838 0.8183 0.0
C2968 C 0.2559 0.7119 0.82048 0.0
C2969 C 0.25891 0.7227 0.84384 0.0
H2970 H 0.08581 0.47325 0.67658 0.0
H2971 H 0.10223 0.5506 0.6856 0.0
H2972 H 0.08374 0.55959 0.64537 0.0
H2973 H 0.09913 0.4726 0.60991 0.0
H2974 H 0.07534 0.45084 0.6033 0.0
H2975 H 0.09059 0.45 0.63253 0.0
H2976 H 0.04903 0.454 0.65494 0.0
H2977 H 0.03377 0.45443 0.62581 0.0
H2978 H 0.02895 0.47912 0.64728 0.0
H2979 H 0.06105 0.5608 0.60628 0.0
H2980 H 0.03465 0.55382 0.57013 0.0
H2981 H 0.03533 0.47565 0.58483 0.0
C2982 C 0.08548 0.492 0.66992 0.0
C2983 C 0.09526 0.51133 0.68393 0.0
C2984 C 0.09487 0.53564 0.67485 0.0
C2985 C 0.0845 0.54089 0.65208 0.0
C2986 C 0.07525 0.52148 0.63845 0.0
C2987 C 0.07579 0.49747 0.64685 0.0
C2988 C 0.06438 0.48015 0.62849 0.0
C2989 C 0.08351 0.46235 0.61794 0.0
C2990 C 0.04274 0.46612 0.63981 0.0
C2991 C 0.05616 0.49841 0.60926 0.0
C2992 C 0.06298 0.52209 0.61516 0.0
C2993 C 0.05607 0.54232 0.60105 0.0
C2994 C 0.04129 0.53826 0.58057 0.0
C2995 C 0.03383 0.51424 0.57467 0.0
C2996 C 0.04163 0.49407 0.58881 0.0
H2997 H 0.2318 0.31587 0.44306 0.0
H2998 H 0.26299 0.38526 0.41986 0.0
H2999 H 0.26087 0.37189 0.3766 0.0
H3000 H 0.26155 0.27772 0.39767 0.0
H3001 H 0.23536 0.25821 0.39361 0.0
H3002 H 0.24037 0.27313 0.42257 0.0
H3003 H 0.19722 0.29241 0.42006 0.0
H3004 H 0.1923 0.27782 0.39088 0.0
H3005 H 0.18905 0.31065 0.3937 0.0
H3006 H 0.25624 0.35003 0.33536 0.0
H3007 H 0.25023 0.32121 0.30067 0.0
H3008 H 0.21849 0.26839 0.35118 0.0
C3009 C 0.23834 0.32816 0.42888 0.0
C3010 C 0.24764 0.35159 0.43481 0.0
C3011 C 0.25577 0.36725 0.41571 0.0
C3012 C 0.25461 0.35982 0.39107 0.0
C3013 C 0.24491 0.3368 0.38575 0.0
C3014 C 0.23689 0.32122 0.40416 0.0
C3015 C 0.22691 0.2976 0.39361 0.0
C3016 C 0.24195 0.27536 0.40238 0.0
C3017 C 0.19976 0.29446 0.39994 0.0
C3018 C 0.23057 0.30235 0.36645 0.0
C3019 C 0.24116 0.32492 0.36217 0.0
C3020 C 0.24763 0.33243 0.33847 0.0
C3021 C 0.24391 0.31608 0.31879 0.0
C3022 C 0.23365 0.29261 0.32297 0.0
C3023 C 0.22616 0.28626 0.3471 0.0
H3024 H 0.32793 0.40772 0.47648 0.0
H3025 H 0.30535 0.41592 0.55218 0.0
H3026 H 0.34604 0.43237 0.56267 0.0
H3027 H 0.39132 0.39143 0.48689 0.0
H3028 H 0.40296 0.40978 0.46196 0.0
H3029 H 0.37264 0.39716 0.46033 0.0
H3030 H 0.35459 0.44059 0.45329 0.0
H3031 H 0.38489 0.45318 0.45426 0.0
H3032 H 0.36165 0.46481 0.4746 0.0
H3033 H 0.3884 0.44846 0.56499 0.0
H3034 H 0.42746 0.46984 0.55784 0.0
H3035 H 0.42296 0.45302 0.48046 0.0
C3036 C 0.33174 0.41295 0.49523 0.0
C3037 C 0.31378 0.41046 0.51367 0.0
C3038 C 0.31903 0.41774 0.53792 0.0
C3039 C 0.3421 0.42688 0.54404 0.0
C3040 C 0.35965 0.42884 0.52561 0.0
C3041 C 0.35463 0.42263 0.50157 0.0
C3042 C 0.37612 0.42866 0.48498 0.0
C3043 C 0.38636 0.40536 0.47283 0.0
C3044 C 0.36888 0.44796 0.46565 0.0
C3045 C 0.39398 0.43911 0.5035 0.0
C3046 C 0.38417 0.43865 0.52687 0.0
C3047 C 0.39645 0.44859 0.54687 0.0
C3048 C 0.4188 0.46038 0.54273 0.0
C3049 C 0.42866 0.46214 0.51883 0.0
C3050 C 0.41639 0.4508 0.49908 0.0
H3051 H 0.82174 0.08772 0.46848 0.0
H3052 H 0.8168 0.09392 0.54746 0.0
H3053 H 0.8561 0.07165 0.55171 0.0
H3054 H 0.84432 0.02665 0.46803 0.0
H3055 H 0.86425 0.03098 0.44207 0.0
H3056 H 0.83703 0.0493 0.44503 0.0
H3057 H 0.86253 0.08926 0.44238 0.0
H3058 H 0.88977 0.07109 0.43882 0.0
H3059 H 0.8878 0.09354 0.463 0.0
H3060 H 0.8948 0.04706 0.54711 0.0
H3061 H 0.9317 0.02472 0.53396 0.0
H3062 H 0.90999 0.03296 0.45802 0.0
C3063 C 0.82917 0.08449 0.48659 0.0
C3064 C 0.81656 0.09221 0.5077 0.0
C3065 C 0.82638 0.08776 0.53119 0.0
C3066 C 0.84859 0.07523 0.53373 0.0
C3067 C 0.86032 0.06705 0.51256 0.0
C3068 C 0.85102 0.07161 0.48943 0.0
C3069 C 0.86663 0.06 0.46971 0.0
C3070 C 0.85219 0.04058 0.45536 0.0
C3071 C 0.87732 0.07965 0.45247 0.0
C3072 C 0.88617 0.04821 0.48533 0.0
C3073 C 0.88223 0.05247 0.50997 0.0
C3074 C 0.89804 0.04356 0.52785 0.0
C3075 C 0.91886 0.03063 0.52025 0.0
C3076 C 0.92379 0.02695 0.49503 0.0
C3077 C 0.90674 0.03529 0.47748 0.0
H3078 H 0.66345 0.07792 0.28091 0.0
H3079 H 0.65399 0.06711 0.20279 0.0
H3080 H 0.67381 0.10702 0.1946 0.0
H3081 H 0.65098 0.14508 0.27796 0.0
H3082 H 0.67235 0.15214 0.30195 0.0
H3083 H 0.65659 0.1231 0.30203 0.0
H3084 H 0.69792 0.09998 0.30339 0.0
H3085 H 0.71368 0.12891 0.30364 0.0
H3086 H 0.72073 0.10645 0.2804 0.0
H3087 H 0.69589 0.14678 0.19464 0.0
H3088 H 0.7208 0.18373 0.20311 0.0
H3089 H 0.71535 0.16938 0.28106 0.0
C3090 C 0.66562 0.0841 0.26215 0.0
C3091 C 0.65745 0.06966 0.24239 0.0
C3092 C 0.66015 0.07817 0.21806 0.0
C3093 C 0.67127 0.10076 0.21326 0.0
C3094 C 0.67895 0.11481 0.23308 0.0
C3095 C 0.67612 0.10697 0.25706 0.0
C3096 C 0.68603 0.12575 0.27491 0.0
C3097 C 0.66525 0.13719 0.29011 0.0
C3098 C 0.70577 0.11459 0.29154 0.0
C3099 C 0.6965 0.14433 0.2571 0.0
C3100 C 0.69155 0.13803 0.2331 0.0
C3101 C 0.69967 0.15212 0.21334 0.0
C3102 C 0.71367 0.17302 0.21826 0.0
C3103 C 0.71961 0.17916 0.24263 0.0
C3104 C 0.71073 0.16492 0.26228 0.0
H3105 H 0.6594 0.89735 0.0288 0.0
H3106 H 0.70157 0.94365 0.97958 0.0
H3107 H 0.66557 0.96917 0.9721 0.0
H3108 H 0.60452 0.89619 -0.00327 0.0
H3109 H 0.58424 0.89982 0.02256 0.0
H3110 H 0.61385 0.88624 0.02686 0.0
H3111 H 0.6235 0.91878 0.06003 0.0
H3112 H 0.59387 0.93254 0.05552 0.0
H3113 H 0.62098 0.95093 0.05256 0.0
H3114 H 0.62723 0.99027 0.97014 0.0
H3115 H 0.58431 0.00118 0.96529 0.0
H3116 H 0.5631 0.9397 0.01148 0.0
C3117 C 0.66097 0.91309 0.01674 0.0
C3118 C 0.68345 0.91887 0.00511 0.0
C3119 C 0.68481 0.9393 0.98918 0.0
C3120 C 0.66445 0.95397 0.98486 0.0
C3121 C 0.64282 0.94828 -0.00312 0.0
C3122 C 0.6406 0.92829 0.01232 0.0
C3123 C 0.61438 0.92611 0.0216 0.0
C3124 C 0.60362 0.90057 0.01659 0.0
C3125 C 0.61311 0.93244 0.04905 0.0
C3126 C 0.60197 0.94617 0.00657 0.0
C3127 C 0.61932 0.9596 0.99395 0.0
C3128 C 0.61339 0.97983 0.97973 0.0
C3129 C 0.58893 0.9859 0.9772 0.0
C3130 C 0.57038 0.97099 0.98757 0.0
C3131 C 0.57691 0.95129 0.00325 0.0
H3132 H 0.35532 0.41342 0.26951 0.0
H3133 H 0.30294 0.45501 0.22672 0.0
H3134 H 0.27562 0.41916 0.22592 0.0
H3135 H 0.3506 0.35695 0.24133 0.0
H3136 H 0.35109 0.33829 0.2687 0.0
H3137 H 0.36511 0.36809 0.26879 0.0
H3138 H 0.33853 0.38019 0.30614 0.0
H3139 H 0.32401 0.35046 0.30571 0.0
H3140 H 0.30584 0.37799 0.30411 0.0
H3141 H 0.25359 0.37982 0.22997 0.0
H3142 H 0.24341 0.33608 0.22721 0.0
H3143 H 0.31177 0.31723 0.26225 0.0
C3144 C 0.33798 0.41495 0.26019 0.0
C3145 C 0.33107 0.43719 0.24845 0.0
C3146 C 0.30836 0.43843 0.23628 0.0
C3147 C 0.29264 0.41819 0.23587 0.0
C3148 C 0.29959 0.39681 0.2481 0.0
C3149 C 0.32183 0.39481 0.25977 0.0
C3150 C 0.32521 0.36893 0.27 0.0
C3151 C 0.34943 0.35739 0.26165 0.0
C3152 C 0.32331 0.36942 0.29815 0.0
C3153 C 0.30306 0.35601 0.2592 0.0
C3154 C 0.28764 0.37306 0.24856 0.0
C3155 C 0.26552 0.3663 0.23821 0.0
C3156 C 0.25972 0.34133 0.2371 0.0
C3157 C 0.27671 0.32315 0.24451 0.0
C3158 C 0.29824 0.33062 0.25676 0.0
H3159 H 0.17603 0.58482 0.9718 0.0
H3160 H 0.18289 0.61398 0.04531 0.0
H3161 H 0.14157 0.5989 0.05552 0.0
H3162 H 0.11061 0.60026 0.96523 0.0
H3163 H 0.10393 0.5729 0.94796 0.0
H3164 H 0.13371 0.58673 0.94591 0.0
H3165 H 0.15385 0.54559 0.95877 0.0
H3166 H 0.12419 0.53166 0.96031 0.0
H3167 H 0.14402 0.53064 0.9866 0.0
H3168 H 0.10166 0.57753 0.05889 0.0
H3169 H 0.06545 0.55057 0.05503 0.0
H3170 H 0.08275 0.53848 0.97853 0.0
C3171 C 0.16858 0.58813 0.98991 0.0
C3172 C 0.1822 0.60053 0.00786 0.0
C3173 C 0.1723 0.60466 0.0314 0.0
C3174 C 0.14895 0.59624 0.0373 0.0
C3175 C 0.13565 0.58431 0.01919 0.0
C3176 C 0.14498 0.58039 0.9959 0.0
C3177 C 0.12702 0.5666 0.98006 0.0
C3178 C 0.11831 0.58259 0.95852 0.0
C3179 C 0.13792 0.54217 0.97092 0.0
C3180 C 0.10669 0.56248 -0.00156 0.0
C3181 C 0.11191 0.57305 0.02083 0.0
C3182 C 0.09694 0.56974 0.0413 0.0
C3183 C 0.07639 0.55463 0.03897 0.0
C3184 C 0.07116 0.54339 0.01633 0.0
C3185 C 0.08608 0.54781 0.99574 0.0
H3186 H 0.65839 0.92157 0.22653 0.0
H3187 H 0.68181 0.95365 0.29524 0.0
H3188 H 0.70668 0.91683 0.3039 0.0
H3189 H 0.65332 0.8602 0.24541 0.0
H3190 H 0.66607 0.84688 0.21798 0.0
H3191 H 0.6511 0.87625 0.21654 0.0
H3192 H 0.69001 0.89493 0.1971 0.0
H3193 H 0.70524 0.86561 0.19904 0.0
H3194 H 0.71872 0.89233 0.21291 0.0
H3195 H 0.72505 0.87595 0.3074 0.0
H3196 H 0.73639 0.83204 0.30543 0.0
H3197 H 0.70463 0.82689 0.23302 0.0
C3198 C 0.66903 0.92079 0.24321 0.0
C3199 C 0.66847 0.94027 0.26029 0.0
C3200 C 0.68242 0.93891 0.28193 0.0
C3201 C 0.69656 0.91815 0.28695 0.0
C3202 C 0.69706 0.89932 0.26974 0.0
C3203 C 0.68391 0.90043 0.24816 0.0
C3204 C 0.68748 0.87725 0.23311 0.0
C3205 C 0.66303 0.86439 0.22799 0.0
C3206 C 0.70118 0.88287 0.20912 0.0
C3207 C 0.70333 0.86244 0.25047 0.0
C3208 C 0.70893 0.87576 0.27126 0.0
C3209 C 0.72144 0.86548 0.29097 0.0
C3210 C 0.72789 0.84066 0.2897 0.0
C3211 C 0.72197 0.82668 0.26883 0.0
C3212 C 0.71006 0.83771 0.24875 0.0
H3213 H 0.81406 0.06167 0.76431 0.0
H3214 H 0.88086 0.08626 0.7296 0.0
H3215 H 0.86399 0.12851 0.72661 0.0
H3216 H 0.77077 0.09822 0.73199 0.0
H3217 H 0.75297 0.10464 0.75907 0.0
H3218 H 0.77006 0.07647 0.75698 0.0
H3219 H 0.79243 0.08684 0.79767 0.0
H3220 H 0.77512 0.11482 0.79999 0.0
H3221 H 0.80792 0.11586 0.80044 0.0
H3222 H 0.84029 0.16967 0.73268 0.0
H3223 H 0.81299 0.20343 0.74738 0.0
H3224 H 0.76141 0.14902 0.77294 0.0
C3225 C 0.82501 0.07582 0.75571 0.0
C3226 C 0.8486 0.07077 0.74707 0.0
C3227 C 0.86265 0.0899 0.73644 0.0
C3228 C 0.85319 0.11387 0.73453 0.0
C3229 C 0.82971 0.11828 0.74337 0.0
C3230 C 0.81596 0.09965 0.7538 0.0
C3231 C 0.79228 0.10906 0.764 0.0
C3232 C 0.77023 0.09633 0.75227 0.0
C3233 C 0.79192 0.10649 0.79217 0.0
C3234 C 0.79401 0.13557 0.75647 0.0
C3235 C 0.81594 0.14109 0.74529 0.0
C3236 C 0.82275 0.16548 0.7407 0.0
C3237 C 0.80708 0.18451 0.74872 0.0
C3238 C 0.78493 0.1786 0.76064 0.0
C3239 C 0.77798 0.15395 0.76324 0.0
loop_
_geom_bond_atom_site_label_1
_geom_bond_atom_site_label_2
_geom_bond_distance
_geom_bond_site_symmetry_2
_ccdc_geom_bond_type
In0 O1 2.295 1_455 S
In0 O2 2.326 . S
In0 O6 2.266 . S
In0 O7 2.326 . S
In0 O8 2.266 . S
In0 O9 2.326 . S
In0 O11 2.294 1_455 S
In0 O12 2.326 1_455 S
O1 In0 2.295 1_655 S
O1 C10 1.240 . S
O2 In0 2.326 . S
O2 C10 1.252 1_455 S
C3 O6 1.252 . S
C3 O7 1.260 . S
C4 O11 1.240 . S
C4 O12 1.252 . S
C5 O8 1.252 . S
C5 O9 1.260 . S
O6 In0 2.266 . S
O6 C3 1.252 . S
O7 In0 2.326 . S
O7 C3 1.260 . S
O8 In0 2.266 . S
O8 C5 1.252 . S
O9 In0 2.326 . S
O9 C5 1.260 . S
C10 O1 1.240 . S
C10 O2 1.252 1_655 S
O11 In0 2.294 1_655 S
O11 C4 1.240 . S
O12 In0 2.326 1_655 S
O12 C4 1.252 . S
In13 O14 2.294 . S
In13 O15 2.326 . S
In13 O19 2.266 1_455 S
In13 O20 2.326 1_455 S
In13 O21 2.266 . S
In13 O22 2.326 . S
In13 O24 2.294 . S
In13 O25 2.326 . S
O14 In13 2.294 . S
O14 C23 1.240 . S
O15 In13 2.326 . S
O15 C23 1.252 . S
C16 O19 1.252 . S
C16 O20 1.260 . S
C17 O24 1.240 . S
C17 O25 1.252 . S
C18 O21 1.252 . S
C18 O22 1.260 . S
O19 In13 2.266 1_655 S
O19 C16 1.252 . S
O20 In13 2.326 1_655 S
O20 C16 1.260 . S
O21 In13 2.266 . S
O21 C18 1.252 . S
O22 In13 2.326 . S
O22 C18 1.260 . S
C23 O14 1.240 . S
C23 O15 1.252 . S
O24 In13 2.294 . S
O24 C17 1.240 . S
O25 In13 2.326 . S
O25 C17 1.252 . S
In26 O27 2.294 . S
In26 O28 2.326 . S
In26 O32 2.266 . S
In26 O33 2.326 . S
In26 O34 2.266 . S
In26 O35 2.326 . S
In26 O37 2.294 . S
In26 O38 2.326 . S
O27 In26 2.294 . S
O27 C36 1.240 . S
O28 In26 2.326 . S
O28 C36 1.252 . S
C29 O32 1.252 . S
C29 O33 1.260 . S
C30 O37 1.240 . S
C30 O38 1.252 . S
C31 O34 1.252 . S
C31 O35 1.260 . S
O32 In26 2.266 . S
O32 C29 1.252 . S
O33 In26 2.326 . S
O33 C29 1.260 . S
O34 In26 2.266 . S
O34 C31 1.252 . S
O35 In26 2.326 . S
O35 C31 1.260 . S
C36 O27 1.240 . S
C36 O28 1.252 . S
O37 In26 2.294 . S
O37 C30 1.240 . S
O38 In26 2.326 . S
O38 C30 1.252 . S
In39 O40 2.294 . S
In39 O41 2.326 . S
In39 O45 2.266 . S
In39 O46 2.326 . S
In39 O47 2.266 . S
In39 O48 2.326 . S
In39 O50 2.294 . S
In39 O51 2.326 . S
O40 In39 2.294 . S
O40 C49 1.240 . S
O41 In39 2.326 . S
O41 C49 1.252 . S
C42 O45 1.252 . S
C42 O46 1.260 . S
C43 O50 1.240 . S
C43 O51 1.252 . S
C44 O47 1.252 . S
C44 O48 1.260 . S
O45 In39 2.266 . S
O45 C42 1.252 . S
O46 In39 2.326 . S
O46 C42 1.260 . S
O47 In39 2.266 . S
O47 C44 1.252 . S
O48 In39 2.326 . S
O48 C44 1.260 . S
C49 O40 1.240 . S
C49 O41 1.252 . S
O50 In39 2.294 . S
O50 C43 1.240 . S
O51 In39 2.326 . S
O51 C43 1.252 . S
In52 O53 2.294 1_545 S
In52 O54 2.326 1_545 S
In52 O58 2.266 . S
In52 O59 2.326 . S
In52 O60 2.266 . S
In52 O61 2.326 . S
In52 O63 2.294 1_545 S
In52 O64 2.327 1_545 S
O53 In52 2.294 1_565 S
O53 C62 1.240 . S
O54 In52 2.326 1_565 S
O54 C62 1.252 . S
C55 O58 1.252 . S
C55 O59 1.260 . S
C56 O63 1.240 . S
C56 O64 1.252 . S
C57 O60 1.252 . S
C57 O61 1.260 . S
O58 In52 2.266 . S
O58 C55 1.252 . S
O59 In52 2.326 . S
O59 C55 1.260 . S
O60 In52 2.266 . S
O60 C57 1.252 . S
O61 In52 2.326 . S
O61 C57 1.260 . S
C62 O53 1.240 . S
C62 O54 1.252 . S
O63 In52 2.294 1_565 S
O63 C56 1.240 . S
O64 In52 2.327 1_565 S
O64 C56 1.252 . S
In65 O66 2.294 . S
In65 O67 2.326 . S
In65 O71 2.266 . S
In65 O72 2.326 . S
In65 O73 2.266 . S
In65 O74 2.326 . S
In65 O76 2.294 . S
In65 O77 2.326 . S
O66 In65 2.294 . S
O66 C75 1.240 . S
O67 In65 2.326 . S
O67 C75 1.252 . S
C68 O71 1.252 . S
C68 O72 1.260 . S
C69 O76 1.240 . S
C69 O77 1.252 . S
C70 O73 1.252 . S
C70 O74 1.260 . S
O71 In65 2.266 . S
O71 C68 1.252 . S
O72 In65 2.326 . S
O72 C68 1.260 . S
O73 In65 2.266 . S
O73 C70 1.252 . S
O74 In65 2.326 . S
O74 C70 1.260 . S
C75 O66 1.240 . S
C75 O67 1.252 . S
O76 In65 2.294 . S
O76 C69 1.240 . S
O77 In65 2.326 . S
O77 C69 1.252 . S
In78 O79 2.294 . S
In78 O80 2.326 . S
In78 O84 2.266 1_545 S
In78 O85 2.326 1_545 S
In78 O86 2.266 . S
In78 O87 2.326 . S
In78 O89 2.294 . S
In78 O90 2.326 . S
O79 In78 2.294 . S
O79 C88 1.240 . S
O80 In78 2.326 . S
O80 C88 1.252 . S
C81 O84 1.252 . S
C81 O85 1.260 . S
C82 O89 1.240 . S
C82 O90 1.252 . S
C83 O86 1.252 . S
C83 O87 1.260 . S
O84 In78 2.266 1_565 S
O84 C81 1.252 . S
O85 In78 2.326 1_565 S
O85 C81 1.260 . S
O86 In78 2.266 . S
O86 C83 1.252 . S
O87 In78 2.326 . S
O87 C83 1.260 . S
C88 O79 1.240 . S
C88 O80 1.252 . S
O89 In78 2.294 . S
O89 C82 1.240 . S
O90 In78 2.326 . S
O90 C82 1.252 . S
In91 O92 2.294 . S
In91 O93 2.326 . S
In91 O97 2.266 . S
In91 O98 2.326 . S
In91 O99 2.266 1_554 S
In91 O100 2.326 1_554 S
In91 O102 2.294 . S
In91 O103 2.326 . S
O92 In91 2.294 . S
O92 C101 1.240 . S
O93 In91 2.326 . S
O93 C101 1.252 . S
C94 O97 1.252 . S
C94 O98 1.260 . S
C95 O102 1.240 . S
C95 O103 1.252 . S
C96 O99 1.252 . S
C96 O100 1.260 . S
O97 In91 2.266 . S
O97 C94 1.252 . S
O98 In91 2.326 . S
O98 C94 1.260 . S
O99 In91 2.266 1_556 S
O99 C96 1.252 . S
O100 In91 2.326 1_556 S
O100 C96 1.260 . S
C101 O92 1.240 . S
C101 O93 1.252 . S
O102 In91 2.294 . S
O102 C95 1.240 . S
O103 In91 2.326 . S
O103 C95 1.252 . S
In104 O105 2.294 . S
In104 O106 2.326 . S
In104 O110 2.266 1_554 S
In104 O111 2.326 1_554 S
In104 O112 2.266 1_554 S
In104 O113 2.326 . S
In104 O115 2.294 . S
In104 O116 2.326 . S
O105 In104 2.294 . S
O105 C114 1.240 . S
O106 In104 2.326 . S
O106 C114 1.252 . S
C107 O110 1.252 . S
C107 O111 1.260 . S
C108 O115 1.240 . S
C108 O116 1.252 . S
C109 O112 1.252 1_554 S
C109 O113 1.262 . S
O110 In104 2.266 1_556 S
O110 C107 1.252 . S
O111 In104 2.326 1_556 S
O111 C107 1.260 . S
O112 In104 2.266 1_556 S
O112 C109 1.252 1_556 S
O113 In104 2.326 . S
O113 C109 1.262 . S
C114 O105 1.240 . S
C114 O106 1.252 . S
O115 In104 2.294 . S
O115 C108 1.240 . S
O116 In104 2.326 . S
O116 C108 1.252 . S
In117 O118 2.294 . S
In117 O119 2.326 . S
In117 O123 2.266 . S
In117 O124 2.326 . S
In117 O125 2.266 . S
In117 O126 2.326 . S
In117 O128 2.294 . S
In117 O129 2.326 . S
O118 In117 2.294 . S
O118 C127 1.240 . S
O119 In117 2.326 . S
O119 C127 1.252 . S
C120 O123 1.252 . S
C120 O124 1.260 . S
C121 O128 1.240 . S
C121 O129 1.252 . S
C122 O125 1.252 . S
C122 O126 1.260 . S
O123 In117 2.266 . S
O123 C120 1.252 . S
O124 In117 2.326 . S
O124 C120 1.260 . S
O125 In117 2.266 . S
O125 C122 1.252 . S
O126 In117 2.326 . S
O126 C122 1.260 . S
C127 O118 1.240 . S
C127 O119 1.252 . S
O128 In117 2.294 . S
O128 C121 1.240 . S
O129 In117 2.326 . S
O129 C121 1.252 . S
In130 O131 2.294 . S
In130 O132 2.326 . S
In130 O136 2.266 . S
In130 O137 2.326 . S
In130 O138 2.266 . S
In130 O139 2.326 . S
In130 O141 2.294 . S
In130 O142 2.326 . S
O131 In130 2.294 . S
O131 C140 1.240 . S
O132 In130 2.326 . S
O132 C140 1.252 . S
C133 O136 1.252 . S
C133 O137 1.260 . S
C134 O141 1.240 . S
C134 O142 1.252 . S
C135 O138 1.252 . S
C135 O139 1.260 . S
O136 In130 2.266 . S
O136 C133 1.252 . S
O137 In130 2.326 . S
O137 C133 1.260 . S
O138 In130 2.266 . S
O138 C135 1.252 . S
O139 In130 2.326 . S
O139 C135 1.260 . S
C140 O131 1.240 . S
C140 O132 1.252 . S
O141 In130 2.294 . S
O141 C134 1.240 . S
O142 In130 2.326 . S
O142 C134 1.252 . S
In143 O144 2.294 . S
In143 O145 2.326 . S
In143 O149 2.266 . S
In143 O150 2.326 . S
In143 O151 2.266 . S
In143 O152 2.326 . S
In143 O154 2.294 . S
In143 O155 2.326 . S
O144 In143 2.294 . S
O144 C153 1.240 . S
O145 In143 2.326 . S
O145 C153 1.252 . S
C146 O149 1.252 . S
C146 O150 1.260 . S
C147 O154 1.240 . S
C147 O155 1.252 . S
C148 O151 1.252 . S
C148 O152 1.260 . S
O149 In143 2.266 . S
O149 C146 1.252 . S
O150 In143 2.326 . S
O150 C146 1.260 . S
O151 In143 2.266 . S
O151 C148 1.252 . S
O152 In143 2.326 . S
O152 C148 1.260 . S
C153 O144 1.240 . S
C153 O145 1.252 . S
O154 In143 2.294 . S
O154 C147 1.240 . S
O155 In143 2.326 . S
O155 C147 1.252 . S
In156 O157 2.294 . S
In156 O158 2.326 . S
In156 O162 2.266 1_455 S
In156 O163 2.326 1_455 S
In156 O164 2.266 . S
In156 O165 2.326 . S
In156 O167 2.294 . S
In156 O168 2.326 . S
O157 In156 2.294 . S
O157 C166 1.240 . S
O158 In156 2.326 . S
O158 C166 1.252 . S
C159 O162 1.252 . S
C159 O163 1.260 . S
C160 O167 1.240 . S
C160 O168 1.252 . S
C161 O164 1.252 . S
C161 O165 1.260 . S
O162 In156 2.266 1_655 S
O162 C159 1.252 . S
O163 In156 2.326 1_655 S
O163 C159 1.260 . S
O164 In156 2.266 . S
O164 C161 1.252 . S
O165 In156 2.326 . S
O165 C161 1.260 . S
C166 O157 1.240 . S
C166 O158 1.252 . S
O167 In156 2.294 . S
O167 C160 1.240 . S
O168 In156 2.326 . S
O168 C160 1.252 . S
In169 O170 2.294 . S
In169 O171 2.326 . S
In169 O175 2.266 . S
In169 O176 2.326 . S
In169 O177 2.266 1_455 S
In169 O178 2.326 1_455 S
In169 O180 2.294 . S
In169 O181 2.326 . S
O170 In169 2.294 . S
O170 C179 1.240 . S
O171 In169 2.326 . S
O171 C179 1.252 . S
C172 O175 1.252 . S
C172 O176 1.260 . S
C173 O180 1.240 . S
C173 O181 1.252 . S
C174 O177 1.252 . S
C174 O178 1.260 . S
O175 In169 2.266 . S
O175 C172 1.252 . S
O176 In169 2.326 . S
O176 C172 1.260 . S
O177 In169 2.266 1_655 S
O177 C174 1.252 . S
O178 In169 2.326 1_655 S
O178 C174 1.260 . S
C179 O170 1.240 . S
C179 O171 1.252 . S
O180 In169 2.294 . S
O180 C173 1.240 . S
O181 In169 2.326 . S
O181 C173 1.252 . S
In182 O183 2.294 . S
In182 O184 2.326 . S
In182 O188 2.266 . S
In182 O189 2.326 . S
In182 O190 2.266 . S
In182 O191 2.326 . S
In182 O193 2.294 . S
In182 O194 2.326 . S
O183 In182 2.294 . S
O183 C192 1.240 . S
O184 In182 2.326 . S
O184 C192 1.252 . S
C185 O188 1.252 . S
C185 O189 1.260 . S
C186 O193 1.240 . S
C186 O194 1.252 . S
C187 O190 1.252 . S
C187 O191 1.260 . S
O188 In182 2.266 . S
O188 C185 1.252 . S
O189 In182 2.326 . S
O189 C185 1.260 . S
O190 In182 2.266 . S
O190 C187 1.252 . S
O191 In182 2.326 . S
O191 C187 1.260 . S
C192 O183 1.240 . S
C192 O184 1.252 . S
O193 In182 2.294 . S
O193 C186 1.240 . S
O194 In182 2.326 . S
O194 C186 1.252 . S
In195 O196 2.294 . S
In195 O197 2.326 . S
In195 O201 2.266 . S
In195 O202 2.326 . S
In195 O203 2.266 . S
In195 O204 2.326 . S
In195 O206 2.294 . S
In195 O207 2.326 . S
O196 In195 2.294 . S
O196 C205 1.240 . S
O197 In195 2.326 . S
O197 C205 1.252 . S
C198 O201 1.252 . S
C198 O202 1.260 . S
C199 O206 1.240 . S
C199 O207 1.252 . S
C200 O203 1.252 . S
C200 O204 1.260 . S
O201 In195 2.266 . S
O201 C198 1.252 . S
O202 In195 2.326 . S
O202 C198 1.260 . S
O203 In195 2.266 . S
O203 C200 1.252 . S
O204 In195 2.326 . S
O204 C200 1.260 . S
C205 O196 1.240 . S
C205 O197 1.252 . S
O206 In195 2.294 . S
O206 C199 1.240 . S
O207 In195 2.326 . S
O207 C199 1.252 . S
In208 O209 2.294 . S
In208 O210 2.326 . S
In208 O214 2.266 1_545 S
In208 O215 2.328 . S
In208 O216 2.266 1_545 S
In208 O217 2.326 1_545 S
In208 O219 2.294 . S
In208 O220 2.326 . S
O209 In208 2.294 . S
O209 C218 1.240 . S
O210 In208 2.326 . S
O210 C218 1.252 . S
C211 O214 1.252 . S
C211 O215 1.257 1_565 S
C212 O219 1.240 . S
C212 O220 1.252 . S
C213 O216 1.252 . S
C213 O217 1.260 . S
O214 In208 2.266 1_565 S
O214 C211 1.252 . S
O215 In208 2.328 . S
O215 C211 1.257 1_545 S
O216 In208 2.266 1_565 S
O216 C213 1.252 . S
O217 In208 2.326 1_565 S
O217 C213 1.260 . S
C218 O209 1.240 . S
C218 O210 1.252 . S
O219 In208 2.294 . S
O219 C212 1.240 . S
O220 In208 2.326 . S
O220 C212 1.252 . S
In221 O222 2.294 . S
In221 O223 2.326 . S
In221 O227 2.266 . S
In221 O228 2.326 . S
In221 O229 2.266 . S
In221 O230 2.326 . S
In221 O232 2.294 . S
In221 O233 2.326 . S
O222 In221 2.294 . S
O222 C231 1.240 . S
O223 In221 2.326 . S
O223 C231 1.252 . S
C224 O227 1.252 . S
C224 O228 1.260 . S
C225 O232 1.240 . S
C225 O233 1.252 . S
C226 O229 1.252 . S
C226 O230 1.260 . S
O227 In221 2.266 . S
O227 C224 1.252 . S
O228 In221 2.326 . S
O228 C224 1.260 . S
O229 In221 2.266 . S
O229 C226 1.252 . S
O230 In221 2.326 . S
O230 C226 1.260 . S
C231 O222 1.240 . S
C231 O223 1.252 . S
O232 In221 2.294 . S
O232 C225 1.240 . S
O233 In221 2.326 . S
O233 C225 1.252 . S
In234 O235 2.294 1_545 S
In234 O236 2.326 1_545 S
In234 O240 2.266 . S
In234 O241 2.326 . S
In234 O242 2.266 . S
In234 O243 2.326 . S
In234 O245 2.298 . S
In234 O246 2.326 . S
O235 In234 2.294 1_565 S
O235 C244 1.240 . S
O236 In234 2.326 1_565 S
O236 C244 1.252 . S
C237 O240 1.252 . S
C237 O241 1.260 . S
C238 O245 1.240 . S
C238 O246 1.253 . S
C239 O242 1.252 . S
C239 O243 1.260 . S
O240 In234 2.266 . S
O240 C237 1.252 . S
O241 In234 2.326 . S
O241 C237 1.260 . S
O242 In234 2.266 . S
O242 C239 1.252 . S
O243 In234 2.326 . S
O243 C239 1.260 . S
C244 O235 1.240 . S
C244 O236 1.252 . S
O245 In234 2.298 . S
O245 C238 1.240 . S
O246 In234 2.326 . S
O246 C238 1.253 . S
In247 O248 2.294 . S
In247 O249 2.326 . S
In247 O253 2.266 . S
In247 O254 2.326 . S
In247 O255 2.266 1_554 S
In247 O256 2.326 1_554 S
In247 O258 2.294 . S
In247 O259 2.326 . S
O248 In247 2.294 . S
O248 C257 1.240 . S
O249 In247 2.326 . S
O249 C257 1.252 . S
C250 O253 1.252 . S
C250 O254 1.260 . S
C251 O258 1.240 . S
C251 O259 1.252 . S
C252 O255 1.252 . S
C252 O256 1.260 . S
O253 In247 2.266 . S
O253 C250 1.252 . S
O254 In247 2.326 . S
O254 C250 1.260 . S
O255 In247 2.266 1_556 S
O255 C252 1.252 . S
O256 In247 2.326 1_556 S
O256 C252 1.260 . S
C257 O248 1.240 . S
C257 O249 1.252 . S
O258 In247 2.294 . S
O258 C251 1.240 . S
O259 In247 2.326 . S
O259 C251 1.252 . S
In260 O261 2.294 . S
In260 O262 2.326 . S
In260 O266 2.266 1_554 S
In260 O267 2.326 1_554 S
In260 O268 2.266 1_554 S
In260 O269 2.329 . S
In260 O271 2.294 . S
In260 O272 2.326 . S
O261 In260 2.294 . S
O261 C270 1.240 . S
O262 In260 2.326 . S
O262 C270 1.252 . S
C263 O266 1.252 . S
C263 O267 1.260 . S
C264 O271 1.240 . S
C264 O272 1.252 . S
C265 O268 1.252 . S
C265 O269 1.256 1_556 S
O266 In260 2.266 1_556 S
O266 C263 1.252 . S
O267 In260 2.326 1_556 S
O267 C263 1.260 . S
O268 In260 2.266 1_556 S
O268 C265 1.252 . S
O269 In260 2.329 . S
O269 C265 1.256 1_554 S
C270 O261 1.240 . S
C270 O262 1.252 . S
O271 In260 2.294 . S
O271 C264 1.240 . S
O272 In260 2.326 . S
O272 C264 1.252 . S
In273 O274 2.294 . S
In273 O275 2.326 . S
In273 O279 2.266 . S
In273 O280 2.326 . S
In273 O281 2.266 . S
In273 O282 2.326 . S
In273 O284 2.294 . S
In273 O285 2.326 . S
O274 In273 2.294 . S
O274 C283 1.240 . S
O275 In273 2.326 . S
O275 C283 1.252 . S
C276 O279 1.252 . S
C276 O280 1.260 . S
C277 O284 1.240 . S
C277 O285 1.252 . S
C278 O281 1.252 . S
C278 O282 1.260 . S
O279 In273 2.266 . S
O279 C276 1.252 . S
O280 In273 2.326 . S
O280 C276 1.260 . S
O281 In273 2.266 . S
O281 C278 1.252 . S
O282 In273 2.326 . S
O282 C278 1.260 . S
C283 O274 1.240 . S
C283 O275 1.252 . S
O284 In273 2.294 . S
O284 C277 1.240 . S
O285 In273 2.326 . S
O285 C277 1.252 . S
In286 O287 2.294 . S
In286 O288 2.326 . S
In286 O292 2.266 . S
In286 O293 2.326 . S
In286 O294 2.266 . S
In286 O295 2.326 . S
In286 O297 2.294 . S
In286 O298 2.326 . S
O287 In286 2.294 . S
O287 C296 1.240 . S
O288 In286 2.326 . S
O288 C296 1.252 . S
C289 O292 1.252 . S
C289 O293 1.260 . S
C290 O297 1.240 . S
C290 O298 1.252 . S
C291 O294 1.252 . S
C291 O295 1.260 . S
O292 In286 2.266 . S
O292 C289 1.252 . S
O293 In286 2.326 . S
O293 C289 1.260 . S
O294 In286 2.266 . S
O294 C291 1.252 . S
O295 In286 2.326 . S
O295 C291 1.260 . S
C296 O287 1.240 . S
C296 O288 1.252 . S
O297 In286 2.294 . S
O297 C290 1.240 . S
O298 In286 2.326 . S
O298 C290 1.252 . S
In299 O300 2.294 . S
In299 O301 2.326 . S
In299 O305 2.266 . S
In299 O306 2.326 . S
In299 O307 2.266 . S
In299 O308 2.326 . S
In299 O310 2.294 . S
In299 O311 2.326 . S
O300 In299 2.294 . S
O300 C309 1.240 . S
O301 In299 2.326 . S
O301 C309 1.252 . S
C302 O305 1.252 . S
C302 O306 1.260 . S
C303 O310 1.240 . S
C303 O311 1.252 . S
C304 O307 1.252 . S
C304 O308 1.260 . S
O305 In299 2.266 . S
O305 C302 1.252 . S
O306 In299 2.326 . S
O306 C302 1.260 . S
O307 In299 2.266 . S
O307 C304 1.252 . S
O308 In299 2.326 . S
O308 C304 1.260 . S
C309 O300 1.240 . S
C309 O301 1.252 . S
O310 In299 2.294 . S
O310 C303 1.240 . S
O311 In299 2.326 . S
O311 C303 1.252 . S
O312 Mn313 2.170 1_556 S
O312 C326 1.244 . S
Mn313 O312 2.170 1_554 S
Mn313 O316 2.154 1_445 S
Mn313 O317 2.232 1_455 S
Mn313 O319 2.163 1_454 S
Mn313 O321 2.158 1_545 S
Mn313 O331 2.210 1_544 S
O314 Mn315 2.087 1_556 S
O314 C326 1.256 1_565 S
Mn315 O314 2.087 1_554 S
Mn315 O322 2.089 . S
Mn315 O331 2.290 1_554 S
Mn315 O332 2.251 1_554 S
O316 Mn313 2.154 1_665 S
O316 C327 1.239 . S
O317 Mn313 2.232 1_655 S
O317 Mn318 2.290 1_554 S
O317 C328 1.278 . S
Mn318 O317 2.290 1_556 S
Mn318 O320 2.087 1_556 S
Mn318 O323 2.251 1_556 S
Mn318 O324 2.087 . S
O319 Mn313 2.163 1_656 S
O319 C329 1.244 . S
O320 Mn318 2.087 1_554 S
O320 C327 1.261 1_545 S
O321 Mn313 2.158 1_565 S
O321 C330 1.239 . S
O322 Mn315 2.089 . S
O322 C330 1.256 . S
O323 Mn318 2.251 1_554 S
O323 C328 1.241 . S
O324 Mn318 2.087 . S
O324 C329 1.256 . S
C325 O331 1.278 . S
C325 O332 1.241 . S
C326 O312 1.244 . S
C326 O314 1.256 1_545 S
C327 O316 1.239 . S
C327 O320 1.261 1_565 S
C328 O317 1.278 . S
C328 O323 1.241 . S
C329 O319 1.244 . S
C329 O324 1.256 . S
C330 O321 1.239 . S
C330 O322 1.256 . S
O331 Mn313 2.210 1_566 S
O331 Mn315 2.290 1_556 S
O331 C325 1.278 . S
O332 Mn315 2.251 1_556 S
O332 C325 1.241 . S
O333 Mn334 2.163 . S
O333 C347 1.244 . S
Mn334 O333 2.163 . S
Mn334 O337 2.160 . S
Mn334 O338 2.221 . S
Mn334 O340 2.163 . S
Mn334 O342 2.160 . S
Mn334 O352 2.221 . S
O335 Mn336 2.087 . S
O335 C347 1.256 . S
Mn336 O335 2.087 . S
Mn336 O343 2.089 . S
Mn336 O352 2.290 . S
Mn336 O353 2.251 . S
O337 Mn334 2.160 . S
O337 C348 1.239 . S
O338 Mn334 2.221 . S
O338 Mn339 2.290 . S
O338 C349 1.278 . S
Mn339 O338 2.290 . S
Mn339 O341 2.089 . S
Mn339 O344 2.251 . S
Mn339 O345 2.087 . S
O340 Mn334 2.163 . S
O340 C350 1.244 . S
O341 Mn339 2.089 . S
O341 C348 1.256 . S
O342 Mn334 2.160 . S
O342 C351 1.239 . S
O343 Mn336 2.089 . S
O343 C351 1.256 . S
O344 Mn339 2.251 . S
O344 C349 1.241 . S
O345 Mn339 2.087 . S
O345 C350 1.256 . S
C346 O352 1.278 . S
C346 O353 1.241 . S
C347 O333 1.244 . S
C347 O335 1.256 . S
C348 O337 1.239 . S
C348 O341 1.256 . S
C349 O338 1.278 . S
C349 O344 1.241 . S
C350 O340 1.244 . S
C350 O345 1.256 . S
C351 O342 1.239 . S
C351 O343 1.256 . S
O352 Mn334 2.221 . S
O352 Mn336 2.290 . S
O352 C346 1.278 . S
O353 Mn336 2.251 . S
O353 C346 1.241 . S
O354 Mn355 2.163 1_565 S
O354 C368 1.244 . S
Mn355 O354 2.163 1_545 S
Mn355 O358 2.160 . S
Mn355 O359 2.221 1_545 S
Mn355 O361 2.163 . S
Mn355 O363 2.160 . S
Mn355 O373 2.221 . S
O356 Mn357 2.087 . S
O356 C368 1.256 1_545 S
Mn357 O356 2.087 . S
Mn357 O364 2.089 . S
Mn357 O373 2.290 . S
Mn357 O374 2.251 . S
O358 Mn355 2.160 . S
O358 C369 1.239 . S
O359 Mn355 2.221 1_565 S
O359 Mn360 2.290 . S
O359 C370 1.278 . S
Mn360 O359 2.290 . S
Mn360 O362 2.089 1_565 S
Mn360 O365 2.251 . S
Mn360 O366 2.087 . S
O361 Mn355 2.163 . S
O361 C371 1.234 1_545 S
O362 Mn360 2.089 1_545 S
O362 C369 1.256 . S
O363 Mn355 2.160 . S
O363 C372 1.239 . S
O364 Mn357 2.089 . S
O364 C372 1.256 . S
O365 Mn360 2.251 . S
O365 C370 1.241 . S
O366 Mn360 2.087 . S
O366 C371 1.271 . S
C367 O373 1.278 . S
C367 O374 1.241 . S
C368 O354 1.244 . S
C368 O356 1.256 1_565 S
C369 O358 1.239 . S
C369 O362 1.256 . S
C370 O359 1.278 . S
C370 O365 1.241 . S
C371 O361 1.234 1_565 S
C371 O366 1.271 . S
C372 O363 1.239 . S
C372 O364 1.256 . S
O373 Mn355 2.221 . S
O373 Mn357 2.290 . S
O373 C367 1.278 . S
O374 Mn357 2.251 . S
O374 C367 1.241 . S
O375 Mn376 2.163 . S
O375 C389 1.244 . S
Mn376 O375 2.163 . S
Mn376 O379 2.160 . S
Mn376 O380 2.221 . S
Mn376 O382 2.163 . S
Mn376 O384 2.160 . S
Mn376 O394 2.221 . S
O377 Mn378 2.087 . S
O377 C389 1.256 . S
Mn378 O377 2.087 . S
Mn378 O385 2.089 . S
Mn378 O394 2.290 . S
Mn378 O395 2.251 . S
O379 Mn376 2.160 . S
O379 C390 1.239 . S
O380 Mn376 2.221 . S
O380 Mn381 2.290 . S
O380 C391 1.278 . S
Mn381 O380 2.290 . S
Mn381 O383 2.089 . S
Mn381 O386 2.251 . S
Mn381 O387 2.087 . S
O382 Mn376 2.163 . S
O382 C392 1.244 . S
O383 Mn381 2.089 . S
O383 C390 1.256 . S
O384 Mn376 2.160 . S
O384 C393 1.239 . S
O385 Mn378 2.089 . S
O385 C393 1.256 . S
O386 Mn381 2.251 . S
O386 C391 1.241 . S
O387 Mn381 2.087 . S
O387 C392 1.256 . S
C388 O394 1.278 . S
C388 O395 1.241 . S
C389 O375 1.244 . S
C389 O377 1.256 . S
C390 O379 1.239 . S
C390 O383 1.256 . S
C391 O380 1.278 . S
C391 O386 1.241 . S
C392 O382 1.244 . S
C392 O387 1.256 . S
C393 O384 1.239 . S
C393 O385 1.256 . S
O394 Mn376 2.221 . S
O394 Mn378 2.290 . S
O394 C388 1.278 . S
O395 Mn378 2.251 . S
O395 C388 1.241 . S
O396 Mn397 2.163 1_565 S
O396 C410 1.244 1_455 S
Mn397 O396 2.163 1_545 S
Mn397 O400 2.160 . S
Mn397 O401 2.221 . S
Mn397 O403 2.163 1_455 S
Mn397 O405 2.150 1_545 S
Mn397 O415 2.217 1_445 S
O398 Mn399 2.087 1_655 S
O398 C410 1.256 . S
Mn399 O398 2.087 1_455 S
Mn399 O406 2.089 . S
Mn399 O415 2.283 1_455 S
Mn399 O416 2.251 1_455 S
O400 Mn397 2.160 . S
O400 C411 1.239 . S
O401 Mn397 2.221 . S
O401 Mn402 2.290 1_455 S
O401 C412 1.278 . S
Mn402 O401 2.290 1_655 S
Mn402 O404 2.089 1_655 S
Mn402 O407 2.251 1_655 S
Mn402 O408 2.087 . S
O403 Mn397 2.163 1_655 S
O403 C413 1.244 . S
O404 Mn402 2.089 1_455 S
O404 C411 1.256 . S
O405 Mn397 2.150 1_565 S
O405 C414 1.270 . S
O406 Mn399 2.089 . S
O406 C414 1.256 . S
O407 Mn402 2.251 1_455 S
O407 C412 1.241 . S
O408 Mn402 2.087 . S
O408 C413 1.256 . S
C409 O415 1.293 . S
C409 O416 1.241 . S
C410 O396 1.244 1_655 S
C410 O398 1.256 . S
C411 O400 1.239 . S
C411 O404 1.256 . S
C412 O401 1.278 . S
C412 O407 1.241 . S
C413 O403 1.244 . S
C413 O408 1.256 . S
C414 O405 1.270 . S
C414 O406 1.256 . S
O415 Mn397 2.217 1_665 S
O415 Mn399 2.283 1_655 S
O415 C409 1.293 . S
O416 Mn399 2.251 1_655 S
O416 C409 1.241 . S
O417 Mn418 2.163 . S
O417 C431 1.244 . S
Mn418 O417 2.163 . S
Mn418 O421 2.160 . S
Mn418 O422 2.221 . S
Mn418 O424 2.163 . S
Mn418 O426 2.160 . S
Mn418 O436 2.221 . S
O419 Mn420 2.087 . S
O419 C431 1.256 . S
Mn420 O419 2.087 . S
Mn420 O427 2.089 . S
Mn420 O436 2.290 . S
Mn420 O437 2.251 . S
O421 Mn418 2.160 . S
O421 C432 1.239 . S
O422 Mn418 2.221 . S
O422 Mn423 2.290 . S
O422 C433 1.278 . S
Mn423 O422 2.290 . S
Mn423 O425 2.089 . S
Mn423 O428 2.251 . S
Mn423 O429 2.087 . S
O424 Mn418 2.163 . S
O424 C434 1.244 . S
O425 Mn423 2.089 . S
O425 C432 1.256 . S
O426 Mn418 2.160 . S
O426 C435 1.239 . S
O427 Mn420 2.089 . S
O427 C435 1.256 . S
O428 Mn423 2.251 . S
O428 C433 1.241 . S
O429 Mn423 2.087 . S
O429 C434 1.256 . S
C430 O436 1.278 . S
C430 O437 1.241 . S
C431 O417 1.244 . S
C431 O419 1.256 . S
C432 O421 1.239 . S
C432 O425 1.256 . S
C433 O422 1.278 . S
C433 O428 1.241 . S
C434 O424 1.244 . S
C434 O429 1.256 . S
C435 O426 1.239 . S
C435 O427 1.256 . S
O436 Mn418 2.221 . S
O436 Mn420 2.290 . S
O436 C430 1.278 . S
O437 Mn420 2.251 . S
O437 C430 1.241 . S
O438 Mn439 2.163 1_566 S
O438 C452 1.244 . S
Mn439 O438 2.163 1_544 S
Mn439 O442 2.160 . S
Mn439 O443 2.221 . S
Mn439 O445 2.163 1_545 S
Mn439 O447 2.171 . S
Mn439 O457 2.221 1_544 S
O440 Mn441 2.087 1_565 S
O440 C452 1.256 . S
Mn441 O440 2.087 1_545 S
Mn441 O448 2.089 . S
Mn441 O457 2.290 1_545 S
Mn441 O458 2.251 1_545 S
O442 Mn439 2.160 . S
O442 C453 1.239 . S
O443 Mn439 2.221 . S
O443 Mn444 2.290 1_545 S
O443 C454 1.278 . S
Mn444 O443 2.290 1_565 S
Mn444 O446 2.091 . S
Mn444 O449 2.251 1_565 S
Mn444 O450 2.087 . S
O445 Mn439 2.163 1_565 S
O445 C455 1.244 . S
O446 Mn444 2.091 . S
O446 C453 1.248 1_565 S
O447 Mn439 2.171 . S
O447 C456 1.206 1_554 S
O448 Mn441 2.089 . S
O448 C456 1.256 . S
O449 Mn444 2.251 1_545 S
O449 C454 1.241 . S
O450 Mn444 2.087 . S
O450 C455 1.256 . S
C451 O457 1.278 . S
C451 O458 1.241 . S
C452 O438 1.244 . S
C452 O440 1.256 . S
C453 O442 1.239 . S
C453 O446 1.248 1_545 S
C454 O443 1.278 . S
C454 O449 1.241 . S
C455 O445 1.244 . S
C455 O450 1.256 . S
C456 O447 1.206 1_556 S
C456 O448 1.256 . S
O457 Mn439 2.221 1_566 S
O457 Mn441 2.290 1_565 S
O457 C451 1.278 . S
O458 Mn441 2.251 1_565 S
O458 C451 1.241 . S
O459 Mn460 2.163 . S
O459 C473 1.244 . S
Mn460 O459 2.163 . S
Mn460 O463 2.160 . S
Mn460 O464 2.221 . S
Mn460 O466 2.163 . S
Mn460 O468 2.160 . S
Mn460 O478 2.221 . S
O461 Mn462 2.087 . S
O461 C473 1.256 . S
Mn462 O461 2.087 . S
Mn462 O469 2.089 . S
Mn462 O478 2.290 . S
Mn462 O479 2.251 . S
O463 Mn460 2.160 . S
O463 C474 1.239 . S
O464 Mn460 2.221 . S
O464 Mn465 2.290 . S
O464 C475 1.278 . S
Mn465 O464 2.290 . S
Mn465 O467 2.089 . S
Mn465 O470 2.251 . S
Mn465 O471 2.087 . S
O466 Mn460 2.163 . S
O466 C476 1.244 . S
O467 Mn465 2.089 . S
O467 C474 1.256 . S
O468 Mn460 2.160 . S
O468 C477 1.239 . S
O469 Mn462 2.089 . S
O469 C477 1.256 . S
O470 Mn465 2.251 . S
O470 C475 1.241 . S
O471 Mn465 2.087 . S
O471 C476 1.256 . S
C472 O478 1.278 . S
C472 O479 1.241 . S
C473 O459 1.244 . S
C473 O461 1.256 . S
C474 O463 1.239 . S
C474 O467 1.256 . S
C475 O464 1.278 . S
C475 O470 1.241 . S
C476 O466 1.244 . S
C476 O471 1.256 . S
C477 O468 1.239 . S
C477 O469 1.256 . S
O478 Mn460 2.221 . S
O478 Mn462 2.290 . S
O478 C472 1.278 . S
O479 Mn462 2.251 . S
O479 C472 1.241 . S
O480 Mn481 2.163 1_556 S
O480 C494 1.244 . S
Mn481 O480 2.163 1_554 S
Mn481 O484 2.160 . S
Mn481 O485 2.221 1_554 S
Mn481 O487 2.163 . S
Mn481 O489 2.160 . S
Mn481 O499 2.221 . S
O482 Mn483 2.087 . S
O482 C494 1.256 1_554 S
Mn483 O482 2.087 . S
Mn483 O490 2.089 . S
Mn483 O499 2.290 . S
Mn483 O500 2.251 . S
O484 Mn481 2.160 . S
O484 C495 1.239 . S
O485 Mn481 2.221 1_556 S
O485 Mn486 2.290 . S
O485 C496 1.278 . S
Mn486 O485 2.290 . S
Mn486 O488 2.089 1_556 S
Mn486 O491 2.251 . S
Mn486 O492 2.087 . S
O487 Mn481 2.163 . S
O487 C497 1.244 1_554 S
O488 Mn486 2.089 1_554 S
O488 C495 1.256 . S
O489 Mn481 2.160 . S
O489 C498 1.239 . S
O490 Mn483 2.089 . S
O490 C498 1.256 . S
O491 Mn486 2.251 . S
O491 C496 1.241 . S
O492 Mn486 2.087 . S
O492 C497 1.256 . S
C493 O499 1.278 . S
C493 O500 1.241 . S
C494 O480 1.244 . S
C494 O482 1.256 1_556 S
C495 O484 1.239 . S
C495 O488 1.256 . S
C496 O485 1.278 . S
C496 O491 1.241 . S
C497 O487 1.244 1_556 S
C497 O492 1.256 . S
C498 O489 1.239 . S
C498 O490 1.256 . S
O499 Mn481 2.221 . S
O499 Mn483 2.290 . S
O499 C493 1.278 . S
O500 Mn483 2.251 . S
O500 C493 1.241 . S
O501 Mn502 2.163 . S
O501 C515 1.244 . S
Mn502 O501 2.163 . S
Mn502 O505 2.160 . S
Mn502 O506 2.221 . S
Mn502 O508 2.163 . S
Mn502 O510 2.160 . S
Mn502 O520 2.221 . S
O503 Mn504 2.087 . S
O503 C515 1.256 . S
Mn504 O503 2.087 . S
Mn504 O511 2.089 . S
Mn504 O520 2.290 . S
Mn504 O521 2.251 . S
O505 Mn502 2.160 . S
O505 C516 1.239 . S
O506 Mn502 2.221 . S
O506 Mn507 2.290 . S
O506 C517 1.278 . S
Mn507 O506 2.290 . S
Mn507 O509 2.089 . S
Mn507 O512 2.251 . S
Mn507 O513 2.087 . S
O508 Mn502 2.163 . S
O508 C518 1.244 . S
O509 Mn507 2.089 . S
O509 C516 1.256 . S
O510 Mn502 2.160 . S
O510 C519 1.239 . S
O511 Mn504 2.089 . S
O511 C519 1.256 . S
O512 Mn507 2.251 . S
O512 C517 1.241 . S
O513 Mn507 2.087 . S
O513 C518 1.256 . S
C514 O520 1.278 . S
C514 O521 1.241 . S
C515 O501 1.244 . S
C515 O503 1.256 . S
C516 O505 1.239 . S
C516 O509 1.256 . S
C517 O506 1.278 . S
C517 O512 1.241 . S
C518 O508 1.244 . S
C518 O513 1.256 . S
C519 O510 1.239 . S
C519 O511 1.256 . S
O520 Mn502 2.221 . S
O520 Mn504 2.290 . S
O520 C514 1.278 . S
O521 Mn504 2.251 . S
O521 C514 1.241 . S
O522 Mn523 2.163 1_655 S
O522 C536 1.244 . S
Mn523 O522 2.163 1_455 S
Mn523 O526 2.160 . S
Mn523 O527 2.221 1_455 S
Mn523 O529 2.163 . S
Mn523 O531 2.160 . S
Mn523 O541 2.221 . S
O524 Mn525 2.087 . S
O524 C536 1.256 1_455 S
Mn525 O524 2.087 . S
Mn525 O532 2.089 . S
Mn525 O541 2.290 . S
Mn525 O542 2.251 . S
O526 Mn523 2.160 . S
O526 C537 1.239 . S
O527 Mn523 2.221 1_655 S
O527 Mn528 2.290 . S
O527 C538 1.278 . S
Mn528 O527 2.290 . S
Mn528 O530 2.089 1_655 S
Mn528 O533 2.251 . S
Mn528 O534 2.087 . S
O529 Mn523 2.163 . S
O529 C539 1.244 1_455 S
O530 Mn528 2.089 1_455 S
O530 C537 1.256 . S
O531 Mn523 2.160 . S
O531 C540 1.239 . S
O532 Mn525 2.089 . S
O532 C540 1.256 . S
O533 Mn528 2.251 . S
O533 C538 1.241 . S
O534 Mn528 2.087 . S
O534 C539 1.256 . S
C535 O541 1.278 . S
C535 O542 1.241 . S
C536 O522 1.244 . S
C536 O524 1.256 1_655 S
C537 O526 1.239 . S
C537 O530 1.256 . S
C538 O527 1.278 . S
C538 O533 1.241 . S
C539 O529 1.244 1_655 S
C539 O534 1.256 . S
C540 O531 1.239 . S
C540 O532 1.256 . S
O541 Mn523 2.221 . S
O541 Mn525 2.290 . S
O541 C535 1.278 . S
O542 Mn525 2.251 . S
O542 C535 1.241 . S
O543 Mn544 2.163 . S
O543 C557 1.244 . S
Mn544 O543 2.163 . S
Mn544 O547 2.160 . S
Mn544 O548 2.221 . S
Mn544 O550 2.163 . S
Mn544 O552 2.160 . S
Mn544 O562 2.221 . S
O545 Mn546 2.087 . S
O545 C557 1.256 . S
Mn546 O545 2.087 . S
Mn546 O553 2.089 . S
Mn546 O562 2.290 . S
Mn546 O563 2.251 . S
O547 Mn544 2.160 . S
O547 C558 1.239 . S
O548 Mn544 2.221 . S
O548 Mn549 2.290 . S
O548 C559 1.278 . S
Mn549 O548 2.290 . S
Mn549 O551 2.089 . S
Mn549 O554 2.251 . S
Mn549 O555 2.087 . S
O550 Mn544 2.163 . S
O550 C560 1.244 . S
O551 Mn549 2.089 . S
O551 C558 1.256 . S
O552 Mn544 2.160 . S
O552 C561 1.239 . S
O553 Mn546 2.089 . S
O553 C561 1.256 . S
O554 Mn549 2.251 . S
O554 C559 1.241 . S
O555 Mn549 2.087 . S
O555 C560 1.256 . S
C556 O562 1.278 . S
C556 O563 1.241 . S
C557 O543 1.244 . S
C557 O545 1.256 . S
C558 O547 1.239 . S
C558 O551 1.256 . S
C559 O548 1.278 . S
C559 O554 1.241 . S
C560 O550 1.244 . S
C560 O555 1.256 . S
C561 O552 1.239 . S
C561 O553 1.256 . S
O562 Mn544 2.221 . S
O562 Mn546 2.290 . S
O562 C556 1.278 . S
O563 Mn546 2.251 . S
O563 C556 1.241 . S
O564 Mn565 2.163 . S
O564 C578 1.244 . S
Mn565 O564 2.163 . S
Mn565 O568 2.160 . S
Mn565 O569 2.221 . S
Mn565 O571 2.163 . S
Mn565 O573 2.160 . S
Mn565 O583 2.221 . S
O566 Mn567 2.087 . S
O566 C578 1.256 . S
Mn567 O566 2.087 . S
Mn567 O574 2.089 . S
Mn567 O583 2.290 . S
Mn567 O584 2.251 . S
O568 Mn565 2.160 . S
O568 C579 1.239 . S
O569 Mn565 2.221 . S
O569 Mn570 2.290 . S
O569 C580 1.278 . S
Mn570 O569 2.290 . S
Mn570 O572 2.089 . S
Mn570 O575 2.251 . S
Mn570 O576 2.087 . S
O571 Mn565 2.163 . S
O571 C581 1.244 . S
O572 Mn570 2.089 . S
O572 C579 1.256 . S
O573 Mn565 2.160 . S
O573 C582 1.239 . S
O574 Mn567 2.089 . S
O574 C582 1.256 . S
O575 Mn570 2.251 . S
O575 C580 1.241 . S
O576 Mn570 2.087 . S
O576 C581 1.256 . S
C577 O583 1.278 . S
C577 O584 1.241 . S
C578 O564 1.244 . S
C578 O566 1.256 . S
C579 O568 1.239 . S
C579 O572 1.256 . S
C580 O569 1.278 . S
C580 O575 1.241 . S
C581 O571 1.244 . S
C581 O576 1.256 . S
C582 O573 1.239 . S
C582 O574 1.256 . S
O583 Mn565 2.221 . S
O583 Mn567 2.290 . S
O583 C577 1.278 . S
O584 Mn567 2.251 . S
O584 C577 1.241 . S
O585 Mn586 2.163 . S
O585 C599 1.244 . S
Mn586 O585 2.163 . S
Mn586 O589 2.160 . S
Mn586 O590 2.221 . S
Mn586 O592 2.163 . S
Mn586 O594 2.160 . S
Mn586 O604 2.221 . S
O587 Mn588 2.087 . S
O587 C599 1.256 . S
Mn588 O587 2.087 . S
Mn588 O595 2.089 . S
Mn588 O604 2.290 . S
Mn588 O605 2.251 . S
O589 Mn586 2.160 . S
O589 C600 1.239 . S
O590 Mn586 2.221 . S
O590 Mn591 2.290 . S
O590 C601 1.278 . S
Mn591 O590 2.290 . S
Mn591 O593 2.089 . S
Mn591 O596 2.251 . S
Mn591 O597 2.087 . S
O592 Mn586 2.163 . S
O592 C602 1.244 . S
O593 Mn591 2.089 . S
O593 C600 1.256 . S
O594 Mn586 2.160 . S
O594 C603 1.239 . S
O595 Mn588 2.089 . S
O595 C603 1.256 . S
O596 Mn591 2.251 . S
O596 C601 1.241 . S
O597 Mn591 2.087 . S
O597 C602 1.256 . S
C598 O604 1.278 . S
C598 O605 1.241 . S
C599 O585 1.244 . S
C599 O587 1.256 . S
C600 O589 1.239 . S
C600 O593 1.256 . S
C601 O590 1.278 . S
C601 O596 1.241 . S
C602 O592 1.244 . S
C602 O597 1.256 . S
C603 O594 1.239 . S
C603 O595 1.256 . S
O604 Mn586 2.221 . S
O604 Mn588 2.290 . S
O604 C598 1.278 . S
O605 Mn588 2.251 . S
O605 C598 1.241 . S
O606 Mn607 2.163 . S
O606 C620 1.244 . S
Mn607 O606 2.163 . S
Mn607 O610 2.160 . S
Mn607 O611 2.221 . S
Mn607 O613 2.163 . S
Mn607 O615 2.160 . S
Mn607 O625 2.221 . S
O608 Mn609 2.087 . S
O608 C620 1.256 . S
Mn609 O608 2.087 . S
Mn609 O616 2.089 . S
Mn609 O625 2.290 . S
Mn609 O626 2.251 . S
O610 Mn607 2.160 . S
O610 C621 1.239 . S
O611 Mn607 2.221 . S
O611 Mn612 2.290 . S
O611 C622 1.278 . S
Mn612 O611 2.290 . S
Mn612 O614 2.089 . S
Mn612 O617 2.251 . S
Mn612 O618 2.087 . S
O613 Mn607 2.163 . S
O613 C623 1.244 . S
O614 Mn612 2.089 . S
O614 C621 1.256 . S
O615 Mn607 2.160 . S
O615 C624 1.239 . S
O616 Mn609 2.089 . S
O616 C624 1.256 . S
O617 Mn612 2.251 . S
O617 C622 1.241 . S
O618 Mn612 2.087 . S
O618 C623 1.256 . S
C619 O625 1.278 . S
C619 O626 1.241 . S
C620 O606 1.244 . S
C620 O608 1.256 . S
C621 O610 1.239 . S
C621 O614 1.256 . S
C622 O611 1.278 . S
C622 O617 1.241 . S
C623 O613 1.244 . S
C623 O618 1.256 . S
C624 O615 1.239 . S
C624 O616 1.256 . S
O625 Mn607 2.221 . S
O625 Mn609 2.290 . S
O625 C619 1.278 . S
O626 Mn609 2.251 . S
O626 C619 1.241 . S
O627 Mn628 2.163 1_656 S
O627 C641 1.244 . S
Mn628 O627 2.163 1_454 S
Mn628 O631 2.160 . S
Mn628 O632 2.221 . S
Mn628 O634 2.163 1_554 S
Mn628 O636 2.160 . S
Mn628 O646 2.221 1_454 S
O629 Mn630 2.087 1_556 S
O629 C641 1.256 . S
Mn630 O629 2.087 1_554 S
Mn630 O637 2.089 . S
Mn630 O646 2.290 1_554 S
Mn630 O647 2.251 1_554 S
O631 Mn628 2.160 . S
O631 C642 1.239 . S
O632 Mn628 2.221 . S
O632 Mn633 2.290 1_554 S
O632 C643 1.278 . S
Mn633 O632 2.290 1_556 S
Mn633 O635 2.089 . S
Mn633 O638 2.249 1_556 S
Mn633 O639 2.087 . S
O634 Mn628 2.163 1_556 S
O634 C644 1.244 . S
O635 Mn633 2.089 . S
O635 C642 1.256 1_556 S
O636 Mn628 2.160 . S
O636 C645 1.239 1_455 S
O637 Mn630 2.089 . S
O637 C645 1.256 . S
O638 Mn633 2.249 1_554 S
O638 C643 1.247 . S
O639 Mn633 2.087 . S
O639 C644 1.256 . S
C640 O646 1.278 . S
C640 O647 1.241 . S
C641 O627 1.244 . S
C641 O629 1.256 . S
C642 O631 1.239 . S
C642 O635 1.256 1_554 S
C643 O632 1.278 . S
C643 O638 1.247 . S
C644 O634 1.244 . S
C644 O639 1.256 . S
C645 O636 1.239 1_655 S
C645 O637 1.256 . S
O646 Mn628 2.221 1_656 S
O646 Mn630 2.290 1_556 S
O646 C640 1.278 . S
O647 Mn630 2.251 1_556 S
O647 C640 1.241 . S
H648 C660 0.930 . S
H649 C662 0.930 . S
H650 C663 0.930 . S
H651 C667 0.959 . S
H652 C667 0.959 . S
H653 C667 0.961 . S
H654 C668 0.960 . S
H655 C668 0.961 . S
H656 C668 0.959 . S
H657 C671 0.929 . S
H658 C672 0.931 . S
H659 C674 0.930 . S
C660 H648 0.930 . S
C660 C661 1.399 1_455 S
C660 C665 1.399 . S
C661 C660 1.399 1_655 S
C661 C662 1.376 . S
C662 H649 0.930 . S
C662 C661 1.376 . S
C662 C663 1.388 . S
C663 H650 0.930 . S
C663 C662 1.388 . S
C663 C664 1.390 . S
C664 C663 1.390 . S
C664 C665 1.394 1_655 S
C664 C670 1.465 . S
C665 C660 1.399 . S
C665 C664 1.394 1_455 S
C665 C666 1.516 . S
C666 C665 1.516 . S
C666 C667 1.502 . S
C666 C668 1.561 . S
C666 C669 1.526 . S
C667 H651 0.959 . S
C667 H652 0.959 . S
C667 H653 0.961 . S
C667 C666 1.502 . S
C668 H654 0.960 . S
C668 H655 0.961 . S
C668 H656 0.959 . S
C668 C666 1.561 . S
C669 C666 1.526 . S
C669 C670 1.396 1_455 S
C669 C674 1.390 . S
C670 C664 1.465 . S
C670 C669 1.396 1_655 S
C670 C671 1.399 . S
C671 H657 0.929 . S
C671 C670 1.399 . S
C671 C672 1.385 . S
C672 H658 0.931 . S
C672 C671 1.385 . S
C672 C673 1.389 . S
C673 C672 1.389 . S
C673 C674 1.387 1_655 S
C674 H659 0.930 . S
C674 C669 1.390 . S
C674 C673 1.387 1_455 S
H675 C687 0.930 . S
H676 C689 0.930 . S
H677 C690 0.930 . S
H678 C694 0.959 . S
H679 C694 0.959 . S
H680 C694 0.961 . S
H681 C695 0.960 . S
H682 C695 0.961 . S
H683 C695 0.959 . S
H684 C698 0.929 . S
H685 C699 0.931 . S
H686 C701 0.930 . S
C687 H675 0.930 . S
C687 C688 1.399 . S
C687 C692 1.399 . S
C688 C687 1.399 . S
C688 C689 1.376 . S
C689 H676 0.930 . S
C689 C688 1.376 . S
C689 C690 1.388 . S
C690 H677 0.930 . S
C690 C689 1.388 . S
C690 C691 1.390 . S
C691 C690 1.390 . S
C691 C692 1.394 . S
C691 C697 1.465 . S
C692 C687 1.399 . S
C692 C691 1.394 . S
C692 C693 1.516 . S
C693 C692 1.516 . S
C693 C694 1.502 . S
C693 C695 1.561 . S
C693 C696 1.526 . S
C694 H678 0.959 . S
C694 H679 0.959 . S
C694 H680 0.961 . S
C694 C693 1.502 . S
C695 H681 0.960 . S
C695 H682 0.961 . S
C695 H683 0.959 . S
C695 C693 1.561 . S
C696 C693 1.526 . S
C696 C697 1.396 . S
C696 C701 1.390 . S
C697 C691 1.465 . S
C697 C696 1.396 . S
C697 C698 1.399 . S
C698 H684 0.929 . S
C698 C697 1.399 . S
C698 C699 1.385 . S
C699 H685 0.931 . S
C699 C698 1.385 . S
C699 C700 1.389 . S
C700 C699 1.389 . S
C700 C701 1.387 . S
C701 H686 0.930 . S
C701 C696 1.390 . S
C701 C700 1.387 . S
H702 C714 0.930 . S
H703 C716 0.930 . S
H704 C717 0.930 . S
H705 C721 0.959 . S
H706 C721 0.959 . S
H707 C721 0.961 . S
H708 C722 0.960 . S
H709 C722 0.961 . S
H710 C722 0.959 . S
H711 C725 0.929 . S
H712 C726 0.931 . S
H713 C728 0.930 . S
C714 H702 0.930 . S
C714 C715 1.399 . S
C714 C719 1.399 . S
C715 C714 1.399 . S
C715 C716 1.376 . S
C716 H703 0.930 . S
C716 C715 1.376 . S
C716 C717 1.388 . S
C717 H704 0.930 . S
C717 C716 1.388 . S
C717 C718 1.390 . S
C718 C717 1.390 . S
C718 C719 1.394 . S
C718 C724 1.465 . S
C719 C714 1.399 . S
C719 C718 1.394 . S
C719 C720 1.516 . S
C720 C719 1.516 . S
C720 C721 1.502 . S
C720 C722 1.561 . S
C720 C723 1.526 . S
C721 H705 0.959 . S
C721 H706 0.959 . S
C721 H707 0.961 . S
C721 C720 1.502 . S
C722 H708 0.960 . S
C722 H709 0.961 . S
C722 H710 0.959 . S
C722 C720 1.561 . S
C723 C720 1.526 . S
C723 C724 1.396 . S
C723 C728 1.390 . S
C724 C718 1.465 . S
C724 C723 1.396 . S
C724 C725 1.399 . S
C725 H711 0.929 . S
C725 C724 1.399 . S
C725 C726 1.385 . S
C726 H712 0.931 . S
C726 C725 1.385 . S
C726 C727 1.389 . S
C727 C726 1.389 . S
C727 C728 1.387 . S
C728 H713 0.930 . S
C728 C723 1.390 . S
C728 C727 1.387 . S
H729 C741 0.930 . S
H730 C743 0.930 . S
H731 C744 0.930 . S
H732 C748 0.959 . S
H733 C748 0.959 . S
H734 C748 0.961 . S
H735 C749 0.960 . S
H736 C749 0.961 . S
H737 C749 0.959 . S
H738 C752 0.929 . S
H739 C753 0.931 . S
H740 C755 0.930 . S
C741 H729 0.930 . S
C741 C742 1.399 . S
C741 C746 1.399 . S
C742 C741 1.399 . S
C742 C743 1.376 . S
C743 H730 0.930 . S
C743 C742 1.376 . S
C743 C744 1.388 . S
C744 H731 0.930 . S
C744 C743 1.388 . S
C744 C745 1.390 . S
C745 C744 1.390 . S
C745 C746 1.394 . S
C745 C751 1.465 . S
C746 C741 1.399 . S
C746 C745 1.394 . S
C746 C747 1.516 . S
C747 C746 1.516 . S
C747 C748 1.502 . S
C747 C749 1.561 . S
C747 C750 1.526 . S
C748 H732 0.959 . S
C748 H733 0.959 . S
C748 H734 0.961 . S
C748 C747 1.502 . S
C749 H735 0.960 . S
C749 H736 0.961 . S
C749 H737 0.959 . S
C749 C747 1.561 . S
C750 C747 1.526 . S
C750 C751 1.396 . S
C750 C755 1.390 . S
C751 C745 1.465 . S
C751 C750 1.396 . S
C751 C752 1.399 . S
C752 H738 0.929 . S
C752 C751 1.399 . S
C752 C753 1.385 . S
C753 H739 0.931 . S
C753 C752 1.385 . S
C753 C754 1.389 . S
C754 C753 1.389 . S
C754 C755 1.387 . S
C755 H740 0.930 . S
C755 C750 1.390 . S
C755 C754 1.387 . S
H756 C768 0.930 . S
H757 C770 0.930 . S
H758 C771 0.927 1_655 S
H759 C775 0.959 . S
H760 C775 0.959 . S
H761 C775 0.961 . S
H762 C776 0.960 . S
H763 C776 0.961 . S
H764 C776 0.959 . S
H765 C779 0.929 . S
H766 C780 0.931 . S
H767 C782 0.930 . S
C768 H756 0.930 . S
C768 C769 1.399 . S
C768 C773 1.399 . S
C769 C768 1.399 . S
C769 C770 1.376 . S
C770 H757 0.930 . S
C770 C769 1.376 . S
C770 C771 1.390 . S
C771 H758 0.927 1_455 S
C771 C770 1.390 . S
C771 C772 1.392 . S
C772 C771 1.392 . S
C772 C773 1.394 . S
C772 C778 1.466 . S
C773 C768 1.399 . S
C773 C772 1.394 . S
C773 C774 1.516 . S
C774 C773 1.516 . S
C774 C775 1.502 1_455 S
C774 C776 1.561 . S
C774 C777 1.526 . S
C775 H759 0.959 . S
C775 H760 0.959 . S
C775 H761 0.961 . S
C775 C774 1.502 1_655 S
C776 H762 0.960 . S
C776 H763 0.961 . S
C776 H764 0.959 . S
C776 C774 1.561 . S
C777 C774 1.526 . S
C777 C778 1.398 . S
C777 C782 1.390 . S
C778 C772 1.466 . S
C778 C777 1.398 . S
C778 C779 1.397 1_455 S
C779 H765 0.929 . S
C779 C778 1.397 1_655 S
C779 C780 1.385 . S
C780 H766 0.931 . S
C780 C779 1.385 . S
C780 C781 1.389 . S
C781 C780 1.389 . S
C781 C782 1.387 1_655 S
C782 H767 0.930 . S
C782 C777 1.390 . S
C782 C781 1.387 1_455 S
H783 C795 0.930 . S
H784 C797 0.930 . S
H785 C798 0.930 . S
H786 C802 0.959 . S
H787 C802 0.959 . S
H788 C802 0.961 . S
H789 C803 0.960 . S
H790 C803 0.961 . S
H791 C803 0.959 . S
H792 C806 0.929 . S
H793 C807 0.931 . S
H794 C809 0.930 . S
C795 H783 0.930 . S
C795 C796 1.399 . S
C795 C800 1.399 . S
C796 C795 1.399 . S
C796 C797 1.376 . S
C797 H784 0.930 . S
C797 C796 1.376 . S
C797 C798 1.388 . S
C798 H785 0.930 . S
C798 C797 1.388 . S
C798 C799 1.390 . S
C799 C798 1.390 . S
C799 C800 1.394 . S
C799 C805 1.465 . S
C800 C795 1.399 . S
C800 C799 1.394 . S
C800 C801 1.516 . S
C801 C800 1.516 . S
C801 C802 1.502 . S
C801 C803 1.561 . S
C801 C804 1.526 . S
C802 H786 0.959 . S
C802 H787 0.959 . S
C802 H788 0.961 . S
C802 C801 1.502 . S
C803 H789 0.960 . S
C803 H790 0.961 . S
C803 H791 0.959 . S
C803 C801 1.561 . S
C804 C801 1.526 . S
C804 C805 1.396 . S
C804 C809 1.390 . S
C805 C799 1.465 . S
C805 C804 1.396 . S
C805 C806 1.399 . S
C806 H792 0.929 . S
C806 C805 1.399 . S
C806 C807 1.385 . S
C807 H793 0.931 . S
C807 C806 1.385 . S
C807 C808 1.389 . S
C808 C807 1.389 . S
C808 C809 1.387 . S
C809 H794 0.930 . S
C809 C804 1.390 . S
C809 C808 1.387 . S
H810 C822 0.930 . S
H811 C824 0.930 . S
H812 C825 0.930 . S
H813 C829 0.959 . S
H814 C829 0.959 . S
H815 C829 0.961 . S
H816 C830 0.960 . S
H817 C830 0.961 1_554 S
H818 C830 0.959 . S
H819 C833 0.929 . S
H820 C834 0.931 . S
H821 C836 0.930 . S
C822 H810 0.930 . S
C822 C823 1.399 . S
C822 C827 1.399 . S
C823 C822 1.399 . S
C823 C824 1.376 . S
C824 H811 0.930 . S
C824 C823 1.376 . S
C824 C825 1.388 . S
C825 H812 0.930 . S
C825 C824 1.388 . S
C825 C826 1.390 . S
C826 C825 1.390 . S
C826 C827 1.394 . S
C826 C832 1.465 . S
C827 C822 1.399 . S
C827 C826 1.394 . S
C827 C828 1.516 . S
C828 C827 1.516 . S
C828 C829 1.502 . S
C828 C830 1.561 . S
C828 C831 1.526 . S
C829 H813 0.959 . S
C829 H814 0.959 . S
C829 H815 0.961 . S
C829 C828 1.502 . S
C830 H816 0.960 . S
C830 H817 0.961 1_556 S
C830 H818 0.959 . S
C830 C828 1.561 . S
C831 C828 1.526 . S
C831 C832 1.396 . S
C831 C836 1.390 . S
C832 C826 1.465 . S
C832 C831 1.396 . S
C832 C833 1.399 . S
C833 H819 0.929 . S
C833 C832 1.399 . S
C833 C834 1.385 . S
C834 H820 0.931 . S
C834 C833 1.385 . S
C834 C835 1.389 . S
C835 C834 1.389 . S
C835 C836 1.387 . S
C836 H821 0.930 . S
C836 C831 1.390 . S
C836 C835 1.387 . S
H837 C849 0.930 . S
H838 C851 0.930 . S
H839 C852 0.930 . S
H840 C856 0.959 . S
H841 C856 0.959 . S
H842 C856 0.961 . S
H843 C857 0.960 . S
H844 C857 0.961 . S
H845 C857 0.959 . S
H846 C860 0.929 . S
H847 C861 0.931 . S
H848 C863 0.930 . S
C849 H837 0.930 . S
C849 C850 1.399 . S
C849 C854 1.399 . S
C850 C849 1.399 . S
C850 C851 1.376 . S
C851 H838 0.930 . S
C851 C850 1.376 . S
C851 C852 1.388 . S
C852 H839 0.930 . S
C852 C851 1.388 . S
C852 C853 1.390 . S
C853 C852 1.390 . S
C853 C854 1.394 . S
C853 C859 1.465 . S
C854 C849 1.399 . S
C854 C853 1.394 . S
C854 C855 1.516 . S
C855 C854 1.516 . S
C855 C856 1.502 . S
C855 C857 1.561 . S
C855 C858 1.526 . S
C856 H840 0.959 . S
C856 H841 0.959 . S
C856 H842 0.961 . S
C856 C855 1.502 . S
C857 H843 0.960 . S
C857 H844 0.961 . S
C857 H845 0.959 . S
C857 C855 1.561 . S
C858 C855 1.526 . S
C858 C859 1.396 . S
C858 C863 1.390 . S
C859 C853 1.465 . S
C859 C858 1.396 . S
C859 C860 1.399 . S
C860 H846 0.929 . S
C860 C859 1.399 . S
C860 C861 1.385 . S
C861 H847 0.931 . S
C861 C860 1.385 . S
C861 C862 1.389 . S
C862 C861 1.389 . S
C862 C863 1.387 . S
C863 H848 0.930 . S
C863 C858 1.390 . S
C863 C862 1.387 . S
H864 C876 0.930 . S
H865 C878 0.930 . S
H866 C879 0.930 . S
H867 C883 0.959 . S
H868 C883 0.959 . S
H869 C883 0.961 . S
H870 C884 0.960 . S
H871 C884 0.961 . S
H872 C884 0.959 . S
H873 C887 0.929 . S
H874 C888 0.931 . S
H875 C890 0.930 . S
C876 H864 0.930 . S
C876 C877 1.399 1_545 S
C876 C881 1.399 . S
C877 C876 1.399 1_565 S
C877 C878 1.376 . S
C878 H865 0.930 . S
C878 C877 1.376 . S
C878 C879 1.388 . S
C879 H866 0.930 . S
C879 C878 1.388 . S
C879 C880 1.390 . S
C880 C879 1.390 . S
C880 C881 1.394 1_565 S
C880 C886 1.465 . S
C881 C876 1.399 . S
C881 C880 1.394 1_545 S
C881 C882 1.516 . S
C882 C881 1.516 . S
C882 C883 1.502 . S
C882 C884 1.561 . S
C882 C885 1.526 . S
C883 H867 0.959 . S
C883 H868 0.959 . S
C883 H869 0.961 . S
C883 C882 1.502 . S
C884 H870 0.960 . S
C884 H871 0.961 . S
C884 H872 0.959 . S
C884 C882 1.561 . S
C885 C882 1.526 . S
C885 C886 1.396 1_545 S
C885 C890 1.390 . S
C886 C880 1.465 . S
C886 C885 1.396 1_565 S
C886 C887 1.399 . S
C887 H873 0.929 . S
C887 C886 1.399 . S
C887 C888 1.385 . S
C888 H874 0.931 . S
C888 C887 1.385 . S
C888 C889 1.389 . S
C889 C888 1.389 . S
C889 C890 1.387 1_565 S
C890 H875 0.930 . S
C890 C885 1.390 . S
C890 C889 1.387 1_545 S
H891 C903 0.930 . S
H892 C905 0.930 . S
H893 C906 0.930 . S
H894 C910 0.959 . S
H895 C910 0.959 . S
H896 C910 0.961 . S
H897 C911 0.960 . S
H898 C911 0.961 . S
H899 C911 0.959 . S
H900 C914 0.929 . S
H901 C915 0.931 . S
H902 C917 0.930 . S
C903 H891 0.930 . S
C903 C904 1.399 . S
C903 C908 1.399 . S
C904 C903 1.399 . S
C904 C905 1.376 . S
C905 H892 0.930 . S
C905 C904 1.376 . S
C905 C906 1.388 . S
C906 H893 0.930 . S
C906 C905 1.388 . S
C906 C907 1.390 . S
C907 C906 1.390 . S
C907 C908 1.394 . S
C907 C913 1.465 . S
C908 C903 1.399 . S
C908 C907 1.394 . S
C908 C909 1.516 . S
C909 C908 1.516 . S
C909 C910 1.502 . S
C909 C911 1.561 . S
C909 C912 1.526 . S
C910 H894 0.959 . S
C910 H895 0.959 . S
C910 H896 0.961 . S
C910 C909 1.502 . S
C911 H897 0.960 . S
C911 H898 0.961 . S
C911 H899 0.959 . S
C911 C909 1.561 . S
C912 C909 1.526 . S
C912 C913 1.396 . S
C912 C917 1.390 . S
C913 C907 1.465 . S
C913 C912 1.396 . S
C913 C914 1.399 . S
C914 H900 0.929 . S
C914 C913 1.399 . S
C914 C915 1.385 . S
C915 H901 0.931 . S
C915 C914 1.385 . S
C915 C916 1.389 . S
C916 C915 1.389 . S
C916 C917 1.387 . S
C917 H902 0.930 . S
C917 C912 1.390 . S
C917 C916 1.387 . S
H918 C930 0.930 . S
H919 C932 0.930 . S
H920 C933 0.930 . S
H921 C937 0.959 . S
H922 C937 0.959 . S
H923 C937 0.961 . S
H924 C938 0.960 . S
H925 C938 0.961 . S
H926 C938 0.959 . S
H927 C941 0.929 . S
H928 C942 0.931 . S
H929 C944 0.930 1_565 S
C930 H918 0.930 . S
C930 C931 1.399 1_565 S
C930 C935 1.399 1_565 S
C931 C930 1.399 1_545 S
C931 C932 1.376 . S
C932 H919 0.930 . S
C932 C931 1.376 . S
C932 C933 1.388 . S
C933 H920 0.930 . S
C933 C932 1.388 . S
C933 C934 1.390 . S
C934 C933 1.390 . S
C934 C935 1.394 . S
C934 C940 1.465 . S
C935 C930 1.399 1_545 S
C935 C934 1.394 . S
C935 C936 1.516 1_545 S
C936 C935 1.516 1_565 S
C936 C937 1.502 . S
C936 C938 1.561 . S
C936 C939 1.526 1_565 S
C937 H921 0.959 . S
C937 H922 0.959 . S
C937 H923 0.961 . S
C937 C936 1.502 . S
C938 H924 0.960 . S
C938 H925 0.961 . S
C938 H926 0.959 . S
C938 C936 1.561 . S
C939 C936 1.526 1_545 S
C939 C940 1.396 . S
C939 C944 1.390 . S
C940 C934 1.465 . S
C940 C939 1.396 . S
C940 C941 1.399 . S
C941 H927 0.929 . S
C941 C940 1.399 . S
C941 C942 1.385 . S
C942 H928 0.931 . S
C942 C941 1.385 . S
C942 C943 1.389 . S
C943 C942 1.389 . S
C943 C944 1.387 . S
C944 H929 0.930 1_545 S
C944 C939 1.390 . S
C944 C943 1.387 . S
H945 C957 0.930 . S
H946 C959 0.930 . S
H947 C960 0.930 . S
H948 C964 0.959 . S
H949 C964 0.959 . S
H950 C964 0.961 . S
H951 C965 0.960 . S
H952 C965 0.961 . S
H953 C965 0.959 . S
H954 C968 0.929 . S
H955 C969 0.931 . S
H956 C971 0.930 . S
C957 H945 0.930 . S
C957 C958 1.399 . S
C957 C962 1.399 . S
C958 C957 1.399 . S
C958 C959 1.376 . S
C959 H946 0.930 . S
C959 C958 1.376 . S
C959 C960 1.388 . S
C960 H947 0.930 . S
C960 C959 1.388 . S
C960 C961 1.390 . S
C961 C960 1.390 . S
C961 C962 1.394 . S
C961 C967 1.465 . S
C962 C957 1.399 . S
C962 C961 1.394 . S
C962 C963 1.516 . S
C963 C962 1.516 . S
C963 C964 1.502 . S
C963 C965 1.561 . S
C963 C966 1.526 . S
C964 H948 0.959 . S
C964 H949 0.959 . S
C964 H950 0.961 . S
C964 C963 1.502 . S
C965 H951 0.960 . S
C965 H952 0.961 . S
C965 H953 0.959 . S
C965 C963 1.561 . S
C966 C963 1.526 . S
C966 C967 1.396 . S
C966 C971 1.390 . S
C967 C961 1.465 . S
C967 C966 1.396 . S
C967 C968 1.399 . S
C968 H954 0.929 . S
C968 C967 1.399 . S
C968 C969 1.385 . S
C969 H955 0.931 . S
C969 C968 1.385 . S
C969 C970 1.389 . S
C970 C969 1.389 . S
C970 C971 1.387 . S
C971 H956 0.930 . S
C971 C966 1.390 . S
C971 C970 1.387 . S
H972 C984 0.930 . S
H973 C986 0.930 . S
H974 C987 0.930 . S
H975 C991 0.959 . S
H976 C991 0.959 . S
H977 C991 0.961 . S
H978 C992 0.960 . S
H979 C992 0.961 . S
H980 C992 0.959 . S
H981 C995 0.929 . S
H982 C996 0.931 . S
H983 C998 0.930 . S
C984 H972 0.930 . S
C984 C985 1.399 1_565 S
C984 C989 1.398 1_565 S
C985 C984 1.399 1_545 S
C985 C986 1.376 . S
C986 H973 0.930 . S
C986 C985 1.376 . S
C986 C987 1.388 . S
C987 H974 0.930 . S
C987 C986 1.388 . S
C987 C988 1.390 . S
C988 C987 1.390 . S
C988 C989 1.398 . S
C988 C994 1.465 . S
C989 C984 1.398 1_545 S
C989 C988 1.398 . S
C989 C990 1.513 1_545 S
C990 C989 1.513 1_565 S
C990 C991 1.502 . S
C990 C992 1.561 . S
C990 C993 1.526 1_565 S
C991 H975 0.959 . S
C991 H976 0.959 . S
C991 H977 0.961 . S
C991 C990 1.502 . S
C992 H978 0.960 . S
C992 H979 0.961 . S
C992 H980 0.959 . S
C992 C990 1.561 . S
C993 C990 1.526 1_545 S
C993 C994 1.396 . S
C993 C998 1.390 1_545 S
C994 C988 1.465 . S
C994 C993 1.396 . S
C994 C995 1.399 . S
C995 H981 0.929 . S
C995 C994 1.399 . S
C995 C996 1.385 . S
C996 H982 0.931 . S
C996 C995 1.385 . S
C996 C997 1.389 . S
C997 C996 1.389 . S
C997 C998 1.387 1_545 S
C998 H983 0.930 . S
C998 C993 1.390 1_565 S
C998 C997 1.387 1_565 S
H999 C1011 0.930 . S
H1000 C1013 0.930 . S
H1001 C1014 0.930 . S
H1002 C1018 0.959 . S
H1003 C1018 0.959 . S
H1004 C1018 0.961 . S
H1005 C1019 0.960 . S
H1006 C1019 0.961 . S
H1007 C1019 0.959 . S
H1008 C1022 0.929 . S
H1009 C1023 0.931 . S
H1010 C1025 0.930 . S
C1011 H999 0.930 . S
C1011 C1012 1.399 . S
C1011 C1016 1.399 . S
C1012 C1011 1.399 . S
C1012 C1013 1.376 . S
C1013 H1000 0.930 . S
C1013 C1012 1.376 . S
C1013 C1014 1.388 . S
C1014 H1001 0.930 . S
C1014 C1013 1.388 . S
C1014 C1015 1.390 . S
C1015 C1014 1.390 . S
C1015 C1016 1.394 . S
C1015 C1021 1.465 . S
C1016 C1011 1.399 . S
C1016 C1015 1.394 . S
C1016 C1017 1.516 . S
C1017 C1016 1.516 . S
C1017 C1018 1.502 . S
C1017 C1019 1.561 . S
C1017 C1020 1.526 . S
C1018 H1002 0.959 . S
C1018 H1003 0.959 . S
C1018 H1004 0.961 . S
C1018 C1017 1.502 . S
C1019 H1005 0.960 . S
C1019 H1006 0.961 . S
C1019 H1007 0.959 . S
C1019 C1017 1.561 . S
C1020 C1017 1.526 . S
C1020 C1021 1.396 . S
C1020 C1025 1.390 . S
C1021 C1015 1.465 . S
C1021 C1020 1.396 . S
C1021 C1022 1.399 . S
C1022 H1008 0.929 . S
C1022 C1021 1.399 . S
C1022 C1023 1.385 . S
C1023 H1009 0.931 . S
C1023 C1022 1.385 . S
C1023 C1024 1.389 . S
C1024 C1023 1.389 . S
C1024 C1025 1.387 . S
C1025 H1010 0.930 . S
C1025 C1020 1.390 . S
C1025 C1024 1.387 . S
H1026 C1038 0.930 . S
H1027 C1040 0.930 . S
H1028 C1041 0.930 . S
H1029 C1045 0.959 . S
H1030 C1045 0.959 . S
H1031 C1045 0.961 . S
H1032 C1046 0.960 . S
H1033 C1046 0.961 . S
H1034 C1046 0.959 . S
H1035 C1049 0.929 . S
H1036 C1050 0.931 . S
H1037 C1052 0.930 . S
C1038 H1026 0.930 . S
C1038 C1039 1.399 1_545 S
C1038 C1043 1.399 . S
C1039 C1038 1.399 1_565 S
C1039 C1040 1.376 . S
C1040 H1027 0.930 . S
C1040 C1039 1.376 . S
C1040 C1041 1.388 . S
C1041 H1028 0.930 . S
C1041 C1040 1.388 . S
C1041 C1042 1.390 . S
C1042 C1041 1.390 . S
C1042 C1043 1.394 1_565 S
C1042 C1048 1.465 . S
C1043 C1038 1.399 . S
C1043 C1042 1.394 1_545 S
C1043 C1044 1.516 . S
C1044 C1043 1.516 . S
C1044 C1045 1.502 . S
C1044 C1046 1.561 . S
C1044 C1047 1.526 . S
C1045 H1029 0.959 . S
C1045 H1030 0.959 . S
C1045 H1031 0.961 . S
C1045 C1044 1.502 . S
C1046 H1032 0.960 . S
C1046 H1033 0.961 . S
C1046 H1034 0.959 . S
C1046 C1044 1.561 . S
C1047 C1044 1.526 . S
C1047 C1048 1.396 1_545 S
C1047 C1052 1.390 . S
C1048 C1042 1.465 . S
C1048 C1047 1.396 1_565 S
C1048 C1049 1.399 . S
C1049 H1035 0.929 . S
C1049 C1048 1.399 . S
C1049 C1050 1.385 . S
C1050 H1036 0.931 . S
C1050 C1049 1.385 . S
C1050 C1051 1.389 . S
C1051 C1050 1.389 . S
C1051 C1052 1.387 1_565 S
C1052 H1037 0.930 . S
C1052 C1047 1.390 . S
C1052 C1051 1.387 1_545 S
H1053 C1065 0.930 . S
H1054 C1067 0.930 . S
H1055 C1068 0.930 . S
H1056 C1072 0.959 . S
H1057 C1072 0.959 . S
H1058 C1072 0.961 . S
H1059 C1073 0.960 . S
H1060 C1073 0.961 . S
H1061 C1073 0.959 . S
H1062 C1076 0.929 . S
H1063 C1077 0.931 . S
H1064 C1079 0.930 . S
C1065 H1053 0.930 . S
C1065 C1066 1.399 . S
C1065 C1070 1.399 . S
C1066 C1065 1.399 . S
C1066 C1067 1.376 . S
C1067 H1054 0.930 . S
C1067 C1066 1.376 . S
C1067 C1068 1.388 . S
C1068 H1055 0.930 . S
C1068 C1067 1.388 . S
C1068 C1069 1.390 . S
C1069 C1068 1.390 . S
C1069 C1070 1.394 . S
C1069 C1075 1.465 . S
C1070 C1065 1.399 . S
C1070 C1069 1.394 . S
C1070 C1071 1.516 . S
C1071 C1070 1.516 . S
C1071 C1072 1.502 . S
C1071 C1073 1.561 . S
C1071 C1074 1.526 . S
C1072 H1056 0.959 . S
C1072 H1057 0.959 . S
C1072 H1058 0.961 . S
C1072 C1071 1.502 . S
C1073 H1059 0.960 . S
C1073 H1060 0.961 . S
C1073 H1061 0.959 . S
C1073 C1071 1.561 . S
C1074 C1071 1.526 . S
C1074 C1075 1.396 . S
C1074 C1079 1.390 . S
C1075 C1069 1.465 . S
C1075 C1074 1.396 . S
C1075 C1076 1.399 . S
C1076 H1062 0.929 . S
C1076 C1075 1.399 . S
C1076 C1077 1.385 . S
C1077 H1063 0.931 . S
C1077 C1076 1.385 . S
C1077 C1078 1.389 . S
C1078 C1077 1.389 . S
C1078 C1079 1.387 . S
C1079 H1064 0.930 . S
C1079 C1074 1.390 . S
C1079 C1078 1.387 . S
H1080 C1092 0.930 . S
H1081 C1094 0.930 . S
H1082 C1095 0.930 . S
H1083 C1099 0.959 . S
H1084 C1099 0.959 . S
H1085 C1099 0.961 . S
H1086 C1100 0.960 . S
H1087 C1100 0.961 . S
H1088 C1100 0.959 . S
H1089 C1103 0.929 . S
H1090 C1104 0.931 . S
H1091 C1106 0.930 . S
C1092 H1080 0.930 . S
C1092 C1093 1.399 1_556 S
C1092 C1097 1.399 . S
C1093 C1092 1.399 1_554 S
C1093 C1094 1.376 . S
C1094 H1081 0.930 . S
C1094 C1093 1.376 . S
C1094 C1095 1.388 . S
C1095 H1082 0.930 . S
C1095 C1094 1.388 . S
C1095 C1096 1.390 . S
C1096 C1095 1.390 . S
C1096 C1097 1.394 1_554 S
C1096 C1102 1.465 . S
C1097 C1092 1.399 . S
C1097 C1096 1.394 1_556 S
C1097 C1098 1.516 . S
C1098 C1097 1.516 . S
C1098 C1099 1.502 . S
C1098 C1100 1.561 . S
C1098 C1101 1.526 . S
C1099 H1083 0.959 . S
C1099 H1084 0.959 . S
C1099 H1085 0.961 . S
C1099 C1098 1.502 . S
C1100 H1086 0.960 . S
C1100 H1087 0.961 . S
C1100 H1088 0.959 . S
C1100 C1098 1.561 . S
C1101 C1098 1.526 . S
C1101 C1102 1.396 1_556 S
C1101 C1106 1.390 . S
C1102 C1096 1.465 . S
C1102 C1101 1.396 1_554 S
C1102 C1103 1.399 . S
C1103 H1089 0.929 . S
C1103 C1102 1.399 . S
C1103 C1104 1.385 . S
C1104 H1090 0.931 . S
C1104 C1103 1.385 . S
C1104 C1105 1.389 1_554 S
C1105 C1104 1.389 1_556 S
C1105 C1106 1.387 . S
C1106 H1091 0.930 . S
C1106 C1101 1.390 . S
C1106 C1105 1.387 . S
H1107 C1119 0.930 . S
H1108 C1121 0.930 . S
H1109 C1122 0.930 . S
H1110 C1126 0.959 . S
H1111 C1126 0.959 . S
H1112 C1126 0.961 . S
H1113 C1127 0.960 . S
H1114 C1127 0.961 . S
H1115 C1127 0.959 . S
H1116 C1130 0.929 . S
H1117 C1131 0.931 . S
H1118 C1133 0.930 . S
C1119 H1107 0.930 . S
C1119 C1120 1.399 . S
C1119 C1124 1.399 . S
C1120 C1119 1.399 . S
C1120 C1121 1.376 1_554 S
C1121 H1108 0.930 . S
C1121 C1120 1.376 1_556 S
C1121 C1122 1.388 . S
C1122 H1109 0.930 . S
C1122 C1121 1.388 . S
C1122 C1123 1.390 1_556 S
C1123 C1122 1.390 1_554 S
C1123 C1124 1.394 . S
C1123 C1129 1.465 . S
C1124 C1119 1.399 . S
C1124 C1123 1.394 . S
C1124 C1125 1.516 . S
C1125 C1124 1.516 . S
C1125 C1126 1.502 . S
C1125 C1127 1.561 . S
C1125 C1128 1.526 . S
C1126 H1110 0.959 . S
C1126 H1111 0.959 . S
C1126 H1112 0.961 . S
C1126 C1125 1.502 . S
C1127 H1113 0.960 . S
C1127 H1114 0.961 . S
C1127 H1115 0.959 . S
C1127 C1125 1.561 . S
C1128 C1125 1.526 . S
C1128 C1129 1.396 . S
C1128 C1133 1.390 . S
C1129 C1123 1.465 . S
C1129 C1128 1.396 . S
C1129 C1130 1.399 1_554 S
C1130 H1116 0.929 . S
C1130 C1129 1.399 1_556 S
C1130 C1131 1.385 . S
C1131 H1117 0.931 . S
C1131 C1130 1.385 . S
C1131 C1132 1.389 1_556 S
C1132 C1131 1.389 1_554 S
C1132 C1133 1.387 . S
C1133 H1118 0.930 . S
C1133 C1128 1.390 . S
C1133 C1132 1.387 . S
H1134 C1146 0.930 . S
H1135 C1148 0.930 . S
H1136 C1149 0.930 . S
H1137 C1153 0.959 . S
H1138 C1153 0.959 . S
H1139 C1153 0.961 . S
H1140 C1154 0.960 . S
H1141 C1154 0.961 . S
H1142 C1154 0.959 . S
H1143 C1157 0.929 . S
H1144 C1158 0.931 . S
H1145 C1160 0.930 . S
C1146 H1134 0.930 . S
C1146 C1147 1.399 . S
C1146 C1151 1.399 . S
C1147 C1146 1.399 . S
C1147 C1148 1.376 . S
C1148 H1135 0.930 . S
C1148 C1147 1.376 . S
C1148 C1149 1.388 . S
C1149 H1136 0.930 . S
C1149 C1148 1.388 . S
C1149 C1150 1.390 . S
C1150 C1149 1.390 . S
C1150 C1151 1.394 . S
C1150 C1156 1.465 . S
C1151 C1146 1.399 . S
C1151 C1150 1.394 . S
C1151 C1152 1.516 . S
C1152 C1151 1.516 . S
C1152 C1153 1.502 . S
C1152 C1154 1.561 . S
C1152 C1155 1.526 . S
C1153 H1137 0.959 . S
C1153 H1138 0.959 . S
C1153 H1139 0.961 . S
C1153 C1152 1.502 . S
C1154 H1140 0.960 . S
C1154 H1141 0.961 . S
C1154 H1142 0.959 . S
C1154 C1152 1.561 . S
C1155 C1152 1.526 . S
C1155 C1156 1.396 . S
C1155 C1160 1.390 . S
C1156 C1150 1.465 . S
C1156 C1155 1.396 . S
C1156 C1157 1.399 . S
C1157 H1143 0.929 . S
C1157 C1156 1.399 . S
C1157 C1158 1.385 . S
C1158 H1144 0.931 . S
C1158 C1157 1.385 . S
C1158 C1159 1.389 . S
C1159 C1158 1.389 . S
C1159 C1160 1.387 . S
C1160 H1145 0.930 . S
C1160 C1155 1.390 . S
C1160 C1159 1.387 . S
H1161 C1173 0.930 . S
H1162 C1175 0.930 . S
H1163 C1176 0.930 . S
H1164 C1180 0.959 . S
H1165 C1180 0.959 . S
H1166 C1180 0.961 . S
H1167 C1181 0.960 . S
H1168 C1181 0.961 . S
H1169 C1181 0.959 . S
H1170 C1184 0.929 . S
H1171 C1185 0.931 . S
H1172 C1187 0.930 . S
C1173 H1161 0.930 . S
C1173 C1174 1.399 . S
C1173 C1178 1.399 . S
C1174 C1173 1.399 . S
C1174 C1175 1.376 . S
C1175 H1162 0.930 . S
C1175 C1174 1.376 . S
C1175 C1176 1.388 . S
C1176 H1163 0.930 . S
C1176 C1175 1.388 . S
C1176 C1177 1.390 . S
C1177 C1176 1.390 . S
C1177 C1178 1.394 . S
C1177 C1183 1.465 . S
C1178 C1173 1.399 . S
C1178 C1177 1.394 . S
C1178 C1179 1.516 . S
C1179 C1178 1.516 . S
C1179 C1180 1.502 . S
C1179 C1181 1.561 . S
C1179 C1182 1.526 . S
C1180 H1164 0.959 . S
C1180 H1165 0.959 . S
C1180 H1166 0.961 . S
C1180 C1179 1.502 . S
C1181 H1167 0.960 . S
C1181 H1168 0.961 . S
C1181 H1169 0.959 . S
C1181 C1179 1.561 . S
C1182 C1179 1.526 . S
C1182 C1183 1.396 . S
C1182 C1187 1.390 . S
C1183 C1177 1.465 . S
C1183 C1182 1.396 . S
C1183 C1184 1.399 . S
C1184 H1170 0.929 . S
C1184 C1183 1.399 . S
C1184 C1185 1.385 . S
C1185 H1171 0.931 . S
C1185 C1184 1.385 . S
C1185 C1186 1.389 . S
C1186 C1185 1.389 . S
C1186 C1187 1.387 . S
C1187 H1172 0.930 . S
C1187 C1182 1.390 . S
C1187 C1186 1.387 . S
H1188 C1200 0.930 . S
H1189 C1202 0.930 . S
H1190 C1203 0.930 . S
H1191 C1207 0.959 . S
H1192 C1207 0.959 . S
H1193 C1207 0.961 . S
H1194 C1208 0.960 . S
H1195 C1208 0.961 . S
H1196 C1208 0.959 . S
H1197 C1211 0.929 . S
H1198 C1212 0.931 . S
H1199 C1214 0.930 . S
C1200 H1188 0.930 . S
C1200 C1201 1.399 . S
C1200 C1205 1.399 . S
C1201 C1200 1.399 . S
C1201 C1202 1.376 . S
C1202 H1189 0.930 . S
C1202 C1201 1.376 . S
C1202 C1203 1.388 . S
C1203 H1190 0.930 . S
C1203 C1202 1.388 . S
C1203 C1204 1.390 . S
C1204 C1203 1.390 . S
C1204 C1205 1.394 . S
C1204 C1210 1.465 . S
C1205 C1200 1.399 . S
C1205 C1204 1.394 . S
C1205 C1206 1.516 . S
C1206 C1205 1.516 . S
C1206 C1207 1.502 . S
C1206 C1208 1.561 . S
C1206 C1209 1.526 . S
C1207 H1191 0.959 . S
C1207 H1192 0.959 . S
C1207 H1193 0.961 . S
C1207 C1206 1.502 . S
C1208 H1194 0.960 . S
C1208 H1195 0.961 . S
C1208 H1196 0.959 . S
C1208 C1206 1.561 . S
C1209 C1206 1.526 . S
C1209 C1210 1.396 . S
C1209 C1214 1.390 . S
C1210 C1204 1.465 . S
C1210 C1209 1.396 . S
C1210 C1211 1.399 . S
C1211 H1197 0.929 . S
C1211 C1210 1.399 . S
C1211 C1212 1.385 . S
C1212 H1198 0.931 . S
C1212 C1211 1.385 . S
C1212 C1213 1.389 . S
C1213 C1212 1.389 . S
C1213 C1214 1.387 . S
C1214 H1199 0.930 . S
C1214 C1209 1.390 . S
C1214 C1213 1.387 . S
H1215 C1227 0.930 . S
H1216 C1229 0.930 . S
H1217 C1230 0.930 . S
H1218 C1234 0.959 . S
H1219 C1234 0.959 . S
H1220 C1234 0.961 . S
H1221 C1235 0.960 . S
H1222 C1235 0.961 . S
H1223 C1235 0.959 . S
H1224 C1238 0.929 . S
H1225 C1239 0.931 . S
H1226 C1241 0.930 . S
C1227 H1215 0.930 . S
C1227 C1228 1.399 . S
C1227 C1232 1.399 . S
C1228 C1227 1.399 . S
C1228 C1229 1.376 . S
C1229 H1216 0.930 . S
C1229 C1228 1.376 . S
C1229 C1230 1.388 . S
C1230 H1217 0.930 . S
C1230 C1229 1.388 . S
C1230 C1231 1.390 . S
C1231 C1230 1.390 . S
C1231 C1232 1.394 . S
C1231 C1237 1.465 . S
C1232 C1227 1.399 . S
C1232 C1231 1.394 . S
C1232 C1233 1.516 . S
C1233 C1232 1.516 . S
C1233 C1234 1.502 . S
C1233 C1235 1.561 . S
C1233 C1236 1.526 . S
C1234 H1218 0.959 . S
C1234 H1219 0.959 . S
C1234 H1220 0.961 . S
C1234 C1233 1.502 . S
C1235 H1221 0.960 . S
C1235 H1222 0.961 . S
C1235 H1223 0.959 . S
C1235 C1233 1.561 . S
C1236 C1233 1.526 . S
C1236 C1237 1.396 . S
C1236 C1241 1.390 . S
C1237 C1231 1.465 . S
C1237 C1236 1.396 . S
C1237 C1238 1.399 . S
C1238 H1224 0.929 . S
C1238 C1237 1.399 . S
C1238 C1239 1.385 . S
C1239 H1225 0.931 . S
C1239 C1238 1.385 . S
C1239 C1240 1.389 . S
C1240 C1239 1.389 . S
C1240 C1241 1.387 . S
C1241 H1226 0.930 . S
C1241 C1236 1.390 . S
C1241 C1240 1.387 . S
H1242 C1254 0.930 . S
H1243 C1256 0.930 . S
H1244 C1257 0.930 . S
H1245 C1261 0.959 . S
H1246 C1261 0.959 . S
H1247 C1261 0.961 . S
H1248 C1262 0.960 . S
H1249 C1262 0.961 . S
H1250 C1262 0.959 . S
H1251 C1265 0.929 . S
H1252 C1266 0.931 . S
H1253 C1268 0.930 . S
C1254 H1242 0.930 . S
C1254 C1255 1.399 . S
C1254 C1259 1.399 . S
C1255 C1254 1.399 . S
C1255 C1256 1.376 . S
C1256 H1243 0.930 . S
C1256 C1255 1.376 . S
C1256 C1257 1.388 . S
C1257 H1244 0.930 . S
C1257 C1256 1.388 . S
C1257 C1258 1.390 . S
C1258 C1257 1.390 . S
C1258 C1259 1.394 . S
C1258 C1264 1.465 . S
C1259 C1254 1.399 . S
C1259 C1258 1.394 . S
C1259 C1260 1.516 . S
C1260 C1259 1.516 . S
C1260 C1261 1.502 . S
C1260 C1262 1.561 . S
C1260 C1263 1.526 . S
C1261 H1245 0.959 . S
C1261 H1246 0.959 . S
C1261 H1247 0.961 . S
C1261 C1260 1.502 . S
C1262 H1248 0.960 . S
C1262 H1249 0.961 . S
C1262 H1250 0.959 . S
C1262 C1260 1.561 . S
C1263 C1260 1.526 . S
C1263 C1264 1.396 . S
C1263 C1268 1.390 . S
C1264 C1258 1.465 . S
C1264 C1263 1.396 . S
C1264 C1265 1.399 . S
C1265 H1251 0.929 . S
C1265 C1264 1.399 . S
C1265 C1266 1.385 . S
C1266 H1252 0.931 . S
C1266 C1265 1.385 . S
C1266 C1267 1.389 . S
C1267 C1266 1.389 . S
C1267 C1268 1.387 . S
C1268 H1253 0.930 . S
C1268 C1263 1.390 . S
C1268 C1267 1.387 . S
H1269 C1281 0.930 . S
H1270 C1283 0.930 . S
H1271 C1284 0.930 . S
H1272 C1288 0.959 . S
H1273 C1288 0.959 . S
H1274 C1288 0.961 . S
H1275 C1289 0.960 . S
H1276 C1289 0.961 . S
H1277 C1289 0.959 . S
H1278 C1292 0.929 . S
H1279 C1293 0.931 . S
H1280 C1295 0.930 . S
C1281 H1269 0.930 . S
C1281 C1282 1.399 . S
C1281 C1286 1.399 . S
C1282 C1281 1.399 . S
C1282 C1283 1.376 . S
C1283 H1270 0.930 . S
C1283 C1282 1.376 . S
C1283 C1284 1.388 . S
C1284 H1271 0.930 . S
C1284 C1283 1.388 . S
C1284 C1285 1.390 . S
C1285 C1284 1.390 . S
C1285 C1286 1.394 . S
C1285 C1291 1.465 . S
C1286 C1281 1.399 . S
C1286 C1285 1.394 . S
C1286 C1287 1.516 . S
C1287 C1286 1.516 . S
C1287 C1288 1.502 . S
C1287 C1289 1.561 . S
C1287 C1290 1.526 . S
C1288 H1272 0.959 . S
C1288 H1273 0.959 . S
C1288 H1274 0.961 . S
C1288 C1287 1.502 . S
C1289 H1275 0.960 . S
C1289 H1276 0.961 . S
C1289 H1277 0.959 . S
C1289 C1287 1.561 . S
C1290 C1287 1.526 . S
C1290 C1291 1.396 . S
C1290 C1295 1.390 . S
C1291 C1285 1.465 . S
C1291 C1290 1.396 . S
C1291 C1292 1.399 . S
C1292 H1278 0.929 . S
C1292 C1291 1.399 . S
C1292 C1293 1.385 . S
C1293 H1279 0.931 . S
C1293 C1292 1.385 . S
C1293 C1294 1.389 . S
C1294 C1293 1.389 . S
C1294 C1295 1.387 . S
C1295 H1280 0.930 . S
C1295 C1290 1.390 . S
C1295 C1294 1.387 . S
H1296 C1308 0.930 . S
H1297 C1310 0.930 . S
H1298 C1311 0.930 . S
H1299 C1315 0.959 . S
H1300 C1315 0.959 1_455 S
H1301 C1315 0.961 . S
H1302 C1316 0.960 . S
H1303 C1316 0.961 . S
H1304 C1316 0.959 . S
H1305 C1319 0.929 . S
H1306 C1320 0.931 . S
H1307 C1322 0.930 . S
C1308 H1296 0.930 . S
C1308 C1309 1.399 . S
C1308 C1313 1.399 . S
C1309 C1308 1.399 . S
C1309 C1310 1.376 . S
C1310 H1297 0.930 . S
C1310 C1309 1.376 . S
C1310 C1311 1.388 . S
C1311 H1298 0.930 . S
C1311 C1310 1.388 . S
C1311 C1312 1.390 . S
C1312 C1311 1.390 . S
C1312 C1313 1.394 . S
C1312 C1318 1.465 . S
C1313 C1308 1.399 . S
C1313 C1312 1.394 . S
C1313 C1314 1.516 . S
C1314 C1313 1.516 . S
C1314 C1315 1.502 1_455 S
C1314 C1316 1.561 . S
C1314 C1317 1.526 . S
C1315 H1299 0.959 . S
C1315 H1300 0.959 1_655 S
C1315 H1301 0.961 . S
C1315 C1314 1.502 1_655 S
C1316 H1302 0.960 . S
C1316 H1303 0.961 . S
C1316 H1304 0.959 . S
C1316 C1314 1.561 . S
C1317 C1314 1.526 . S
C1317 C1318 1.396 . S
C1317 C1322 1.390 . S
C1318 C1312 1.465 . S
C1318 C1317 1.396 . S
C1318 C1319 1.399 . S
C1319 H1305 0.929 . S
C1319 C1318 1.399 . S
C1319 C1320 1.385 . S
C1320 H1306 0.931 . S
C1320 C1319 1.385 . S
C1320 C1321 1.389 . S
C1321 C1320 1.389 . S
C1321 C1322 1.387 . S
C1322 H1307 0.930 . S
C1322 C1317 1.390 . S
C1322 C1321 1.387 . S
H1323 C1335 0.930 . S
H1324 C1337 0.930 . S
H1325 C1338 0.930 . S
H1326 C1342 0.959 . S
H1327 C1342 0.959 . S
H1328 C1342 0.961 . S
H1329 C1343 0.960 . S
H1330 C1343 0.961 . S
H1331 C1343 0.959 . S
H1332 C1346 0.929 . S
H1333 C1347 0.931 . S
H1334 C1349 0.930 . S
C1335 H1323 0.930 . S
C1335 C1336 1.399 . S
C1335 C1340 1.399 . S
C1336 C1335 1.399 . S
C1336 C1337 1.376 . S
C1337 H1324 0.930 . S
C1337 C1336 1.376 . S
C1337 C1338 1.388 . S
C1338 H1325 0.930 . S
C1338 C1337 1.388 . S
C1338 C1339 1.390 . S
C1339 C1338 1.390 . S
C1339 C1340 1.394 . S
C1339 C1345 1.465 . S
C1340 C1335 1.399 . S
C1340 C1339 1.394 . S
C1340 C1341 1.516 . S
C1341 C1340 1.516 . S
C1341 C1342 1.502 . S
C1341 C1343 1.561 . S
C1341 C1344 1.526 . S
C1342 H1326 0.959 . S
C1342 H1327 0.959 . S
C1342 H1328 0.961 . S
C1342 C1341 1.502 . S
C1343 H1329 0.960 . S
C1343 H1330 0.961 . S
C1343 H1331 0.959 . S
C1343 C1341 1.561 . S
C1344 C1341 1.526 . S
C1344 C1345 1.396 . S
C1344 C1349 1.390 . S
C1345 C1339 1.465 . S
C1345 C1344 1.396 . S
C1345 C1346 1.399 . S
C1346 H1332 0.929 . S
C1346 C1345 1.399 . S
C1346 C1347 1.385 . S
C1347 H1333 0.931 . S
C1347 C1346 1.385 . S
C1347 C1348 1.389 . S
C1348 C1347 1.389 . S
C1348 C1349 1.387 . S
C1349 H1334 0.930 . S
C1349 C1344 1.390 . S
C1349 C1348 1.387 . S
H1350 C1362 0.930 . S
H1351 C1364 0.930 . S
H1352 C1365 0.930 . S
H1353 C1369 0.959 . S
H1354 C1369 0.959 . S
H1355 C1369 0.961 . S
H1356 C1370 0.960 . S
H1357 C1370 0.961 . S
H1358 C1370 0.959 . S
H1359 C1373 0.929 . S
H1360 C1374 0.931 . S
H1361 C1376 0.930 . S
C1362 H1350 0.930 . S
C1362 C1363 1.399 . S
C1362 C1367 1.399 . S
C1363 C1362 1.399 . S
C1363 C1364 1.376 . S
C1364 H1351 0.930 . S
C1364 C1363 1.376 . S
C1364 C1365 1.388 . S
C1365 H1352 0.930 . S
C1365 C1364 1.388 . S
C1365 C1366 1.390 . S
C1366 C1365 1.390 . S
C1366 C1367 1.394 . S
C1366 C1372 1.465 . S
C1367 C1362 1.399 . S
C1367 C1366 1.394 . S
C1367 C1368 1.516 . S
C1368 C1367 1.516 . S
C1368 C1369 1.502 . S
C1368 C1370 1.561 . S
C1368 C1371 1.526 . S
C1369 H1353 0.959 . S
C1369 H1354 0.959 . S
C1369 H1355 0.961 . S
C1369 C1368 1.502 . S
C1370 H1356 0.960 . S
C1370 H1357 0.961 . S
C1370 H1358 0.959 . S
C1370 C1368 1.561 . S
C1371 C1368 1.526 . S
C1371 C1372 1.396 . S
C1371 C1376 1.390 . S
C1372 C1366 1.465 . S
C1372 C1371 1.396 . S
C1372 C1373 1.399 . S
C1373 H1359 0.929 . S
C1373 C1372 1.399 . S
C1373 C1374 1.385 . S
C1374 H1360 0.931 . S
C1374 C1373 1.385 . S
C1374 C1375 1.389 . S
C1375 C1374 1.389 . S
C1375 C1376 1.387 . S
C1376 H1361 0.930 . S
C1376 C1371 1.390 . S
C1376 C1375 1.387 . S
H1377 C1389 0.930 . S
H1378 C1391 0.930 . S
H1379 C1392 0.930 . S
H1380 C1396 0.959 . S
H1381 C1396 0.959 . S
H1382 C1396 0.961 . S
H1383 C1397 0.960 . S
H1384 C1397 0.961 . S
H1385 C1397 0.959 . S
H1386 C1400 0.929 . S
H1387 C1401 0.931 . S
H1388 C1403 0.930 . S
C1389 H1377 0.930 . S
C1389 C1390 1.399 . S
C1389 C1394 1.399 . S
C1390 C1389 1.399 . S
C1390 C1391 1.376 . S
C1391 H1378 0.930 . S
C1391 C1390 1.376 . S
C1391 C1392 1.388 . S
C1392 H1379 0.930 . S
C1392 C1391 1.388 . S
C1392 C1393 1.390 . S
C1393 C1392 1.390 . S
C1393 C1394 1.394 . S
C1393 C1399 1.465 . S
C1394 C1389 1.399 . S
C1394 C1393 1.394 . S
C1394 C1395 1.516 . S
C1395 C1394 1.516 . S
C1395 C1396 1.502 . S
C1395 C1397 1.561 . S
C1395 C1398 1.526 . S
C1396 H1380 0.959 . S
C1396 H1381 0.959 . S
C1396 H1382 0.961 . S
C1396 C1395 1.502 . S
C1397 H1383 0.960 . S
C1397 H1384 0.961 . S
C1397 H1385 0.959 . S
C1397 C1395 1.561 . S
C1398 C1395 1.526 . S
C1398 C1399 1.396 . S
C1398 C1403 1.390 . S
C1399 C1393 1.465 . S
C1399 C1398 1.396 . S
C1399 C1400 1.399 . S
C1400 H1386 0.929 . S
C1400 C1399 1.399 . S
C1400 C1401 1.385 . S
C1401 H1387 0.931 . S
C1401 C1400 1.385 . S
C1401 C1402 1.389 . S
C1402 C1401 1.389 . S
C1402 C1403 1.387 . S
C1403 H1388 0.930 . S
C1403 C1398 1.390 . S
C1403 C1402 1.387 . S
H1404 C1416 0.930 . S
H1405 C1418 0.933 . S
H1406 C1419 0.930 . S
H1407 C1423 0.959 . S
H1408 C1423 0.959 . S
H1409 C1423 0.961 . S
H1410 C1424 0.960 . S
H1411 C1424 0.961 . S
H1412 C1424 0.959 . S
H1413 C1427 0.929 . S
H1414 C1428 0.931 . S
H1415 C1430 0.930 . S
C1416 H1404 0.930 . S
C1416 C1417 1.402 . S
C1416 C1421 1.399 . S
C1417 C1416 1.402 . S
C1417 C1418 1.375 1_455 S
C1418 H1405 0.933 . S
C1418 C1417 1.375 1_655 S
C1418 C1419 1.387 1_655 S
C1419 H1406 0.930 . S
C1419 C1418 1.387 1_455 S
C1419 C1420 1.390 . S
C1420 C1419 1.390 . S
C1420 C1421 1.394 . S
C1420 C1426 1.465 . S
C1421 C1416 1.399 . S
C1421 C1420 1.394 . S
C1421 C1422 1.516 . S
C1422 C1421 1.516 . S
C1422 C1423 1.502 . S
C1422 C1424 1.561 1_455 S
C1422 C1425 1.526 . S
C1423 H1407 0.959 . S
C1423 H1408 0.959 . S
C1423 H1409 0.961 . S
C1423 C1422 1.502 . S
C1424 H1410 0.960 . S
C1424 H1411 0.961 . S
C1424 H1412 0.959 . S
C1424 C1422 1.561 1_655 S
C1425 C1422 1.526 . S
C1425 C1426 1.396 . S
C1425 C1430 1.390 . S
C1426 C1420 1.465 . S
C1426 C1425 1.396 . S
C1426 C1427 1.399 . S
C1427 H1413 0.929 . S
C1427 C1426 1.399 . S
C1427 C1428 1.385 . S
C1428 H1414 0.931 . S
C1428 C1427 1.385 . S
C1428 C1429 1.389 . S
C1429 C1428 1.389 . S
C1429 C1430 1.387 . S
C1430 H1415 0.930 . S
C1430 C1425 1.390 . S
C1430 C1429 1.387 . S
H1431 C1443 0.930 . S
H1432 C1445 0.930 . S
H1433 C1446 0.930 . S
H1434 C1450 0.959 . S
H1435 C1450 0.959 . S
H1436 C1450 0.961 . S
H1437 C1451 0.960 . S
H1438 C1451 0.961 . S
H1439 C1451 0.959 . S
H1440 C1454 0.929 . S
H1441 C1455 0.931 . S
H1442 C1457 0.930 . S
C1443 H1431 0.930 . S
C1443 C1444 1.399 . S
C1443 C1448 1.399 . S
C1444 C1443 1.399 . S
C1444 C1445 1.376 . S
C1445 H1432 0.930 . S
C1445 C1444 1.376 . S
C1445 C1446 1.388 . S
C1446 H1433 0.930 . S
C1446 C1445 1.388 . S
C1446 C1447 1.390 . S
C1447 C1446 1.390 . S
C1447 C1448 1.394 . S
C1447 C1453 1.465 . S
C1448 C1443 1.399 . S
C1448 C1447 1.394 . S
C1448 C1449 1.516 . S
C1449 C1448 1.516 . S
C1449 C1450 1.502 . S
C1449 C1451 1.561 . S
C1449 C1452 1.526 . S
C1450 H1434 0.959 . S
C1450 H1435 0.959 . S
C1450 H1436 0.961 . S
C1450 C1449 1.502 . S
C1451 H1437 0.960 . S
C1451 H1438 0.961 . S
C1451 H1439 0.959 . S
C1451 C1449 1.561 . S
C1452 C1449 1.526 . S
C1452 C1453 1.396 . S
C1452 C1457 1.390 . S
C1453 C1447 1.465 . S
C1453 C1452 1.396 . S
C1453 C1454 1.399 . S
C1454 H1440 0.929 . S
C1454 C1453 1.399 . S
C1454 C1455 1.385 . S
C1455 H1441 0.931 . S
C1455 C1454 1.385 . S
C1455 C1456 1.389 . S
C1456 C1455 1.389 . S
C1456 C1457 1.387 . S
C1457 H1442 0.930 . S
C1457 C1452 1.390 . S
C1457 C1456 1.387 . S
H1458 C1470 0.930 . S
H1459 C1472 0.930 . S
H1460 C1473 0.930 . S
H1461 C1477 0.959 . S
H1462 C1477 0.959 . S
H1463 C1477 0.961 . S
H1464 C1478 0.960 . S
H1465 C1478 0.961 . S
H1466 C1478 0.959 . S
H1467 C1481 0.929 . S
H1468 C1482 0.931 . S
H1469 C1484 0.930 . S
C1470 H1458 0.930 . S
C1470 C1471 1.399 . S
C1470 C1475 1.399 . S
C1471 C1470 1.399 . S
C1471 C1472 1.376 . S
C1472 H1459 0.930 . S
C1472 C1471 1.376 . S
C1472 C1473 1.388 . S
C1473 H1460 0.930 . S
C1473 C1472 1.388 . S
C1473 C1474 1.390 . S
C1474 C1473 1.390 . S
C1474 C1475 1.394 . S
C1474 C1480 1.465 . S
C1475 C1470 1.399 . S
C1475 C1474 1.394 . S
C1475 C1476 1.516 . S
C1476 C1475 1.516 . S
C1476 C1477 1.502 . S
C1476 C1478 1.561 . S
C1476 C1479 1.526 . S
C1477 H1461 0.959 . S
C1477 H1462 0.959 . S
C1477 H1463 0.961 . S
C1477 C1476 1.502 . S
C1478 H1464 0.960 . S
C1478 H1465 0.961 . S
C1478 H1466 0.959 . S
C1478 C1476 1.561 . S
C1479 C1476 1.526 . S
C1479 C1480 1.396 . S
C1479 C1484 1.390 . S
C1480 C1474 1.465 . S
C1480 C1479 1.396 . S
C1480 C1481 1.399 . S
C1481 H1467 0.929 . S
C1481 C1480 1.399 . S
C1481 C1482 1.385 . S
C1482 H1468 0.931 . S
C1482 C1481 1.385 . S
C1482 C1483 1.389 . S
C1483 C1482 1.389 . S
C1483 C1484 1.387 . S
C1484 H1469 0.930 . S
C1484 C1479 1.390 . S
C1484 C1483 1.387 . S
H1485 C1497 0.930 . S
H1486 C1499 0.930 . S
H1487 C1500 0.930 . S
H1488 C1504 0.959 . S
H1489 C1504 0.959 . S
H1490 C1504 0.961 . S
H1491 C1505 0.960 . S
H1492 C1505 0.961 . S
H1493 C1505 0.959 . S
H1494 C1508 0.929 . S
H1495 C1509 0.931 . S
H1496 C1511 0.930 . S
C1497 H1485 0.930 . S
C1497 C1498 1.399 . S
C1497 C1502 1.399 . S
C1498 C1497 1.399 . S
C1498 C1499 1.376 . S
C1499 H1486 0.930 . S
C1499 C1498 1.376 . S
C1499 C1500 1.388 . S
C1500 H1487 0.930 . S
C1500 C1499 1.388 . S
C1500 C1501 1.390 . S
C1501 C1500 1.390 . S
C1501 C1502 1.394 . S
C1501 C1507 1.465 . S
C1502 C1497 1.399 . S
C1502 C1501 1.394 . S
C1502 C1503 1.516 . S
C1503 C1502 1.516 . S
C1503 C1504 1.502 . S
C1503 C1505 1.561 . S
C1503 C1506 1.526 . S
C1504 H1488 0.959 . S
C1504 H1489 0.959 . S
C1504 H1490 0.961 . S
C1504 C1503 1.502 . S
C1505 H1491 0.960 . S
C1505 H1492 0.961 . S
C1505 H1493 0.959 . S
C1505 C1503 1.561 . S
C1506 C1503 1.526 . S
C1506 C1507 1.396 . S
C1506 C1511 1.390 . S
C1507 C1501 1.465 . S
C1507 C1506 1.396 . S
C1507 C1508 1.399 . S
C1508 H1494 0.929 . S
C1508 C1507 1.399 . S
C1508 C1509 1.385 . S
C1509 H1495 0.931 . S
C1509 C1508 1.385 . S
C1509 C1510 1.389 . S
C1510 C1509 1.389 . S
C1510 C1511 1.387 . S
C1511 H1496 0.930 . S
C1511 C1506 1.390 . S
C1511 C1510 1.387 . S
H1512 C1524 0.930 . S
H1513 C1526 0.930 . S
H1514 C1527 0.929 1_565 S
H1515 C1531 0.959 . S
H1516 C1531 0.959 1_455 S
H1517 C1531 0.961 . S
H1518 C1532 0.960 . S
H1519 C1532 0.961 . S
H1520 C1532 0.959 . S
H1521 C1535 0.929 . S
H1522 C1536 0.931 . S
H1523 C1538 0.930 . S
C1524 H1512 0.930 . S
C1524 C1525 1.399 1_545 S
C1524 C1529 1.399 . S
C1525 C1524 1.399 1_565 S
C1525 C1526 1.376 . S
C1526 H1513 0.930 . S
C1526 C1525 1.376 . S
C1526 C1527 1.387 1_565 S
C1527 H1514 0.929 1_545 S
C1527 C1526 1.387 1_545 S
C1527 C1528 1.392 . S
C1528 C1527 1.392 . S
C1528 C1529 1.394 . S
C1528 C1534 1.465 . S
C1529 C1524 1.399 . S
C1529 C1528 1.394 . S
C1529 C1530 1.516 . S
C1530 C1529 1.516 . S
C1530 C1531 1.502 1_545 S
C1530 C1532 1.561 . S
C1530 C1533 1.526 . S
C1531 H1515 0.959 . S
C1531 H1516 0.959 1_655 S
C1531 H1517 0.961 . S
C1531 C1530 1.502 1_565 S
C1532 H1518 0.960 . S
C1532 H1519 0.961 . S
C1532 H1520 0.959 . S
C1532 C1530 1.561 . S
C1533 C1530 1.526 . S
C1533 C1534 1.396 . S
C1533 C1538 1.390 . S
C1534 C1528 1.465 . S
C1534 C1533 1.396 . S
C1534 C1535 1.399 . S
C1535 H1521 0.929 . S
C1535 C1534 1.399 . S
C1535 C1536 1.385 . S
C1536 H1522 0.931 . S
C1536 C1535 1.385 . S
C1536 C1537 1.389 . S
C1537 C1536 1.389 . S
C1537 C1538 1.387 . S
C1538 H1523 0.930 . S
C1538 C1533 1.390 . S
C1538 C1537 1.387 . S
H1539 C1551 0.930 . S
H1540 C1553 0.930 . S
H1541 C1554 0.930 . S
H1542 C1558 0.959 . S
H1543 C1558 0.959 . S
H1544 C1558 0.961 . S
H1545 C1559 0.960 . S
H1546 C1559 0.961 . S
H1547 C1559 0.959 . S
H1548 C1562 0.929 . S
H1549 C1563 0.931 . S
H1550 C1565 0.930 . S
C1551 H1539 0.930 . S
C1551 C1552 1.399 . S
C1551 C1556 1.399 . S
C1552 C1551 1.399 . S
C1552 C1553 1.376 . S
C1553 H1540 0.930 . S
C1553 C1552 1.376 . S
C1553 C1554 1.388 . S
C1554 H1541 0.930 . S
C1554 C1553 1.388 . S
C1554 C1555 1.390 . S
C1555 C1554 1.390 . S
C1555 C1556 1.394 . S
C1555 C1561 1.465 . S
C1556 C1551 1.399 . S
C1556 C1555 1.394 . S
C1556 C1557 1.516 . S
C1557 C1556 1.516 . S
C1557 C1558 1.502 . S
C1557 C1559 1.561 . S
C1557 C1560 1.526 . S
C1558 H1542 0.959 . S
C1558 H1543 0.959 . S
C1558 H1544 0.961 . S
C1558 C1557 1.502 . S
C1559 H1545 0.960 . S
C1559 H1546 0.961 . S
C1559 H1547 0.959 . S
C1559 C1557 1.561 . S
C1560 C1557 1.526 . S
C1560 C1561 1.396 . S
C1560 C1565 1.390 . S
C1561 C1555 1.465 . S
C1561 C1560 1.396 . S
C1561 C1562 1.399 . S
C1562 H1548 0.929 . S
C1562 C1561 1.399 . S
C1562 C1563 1.385 . S
C1563 H1549 0.931 . S
C1563 C1562 1.385 . S
C1563 C1564 1.389 . S
C1564 C1563 1.389 . S
C1564 C1565 1.387 . S
C1565 H1550 0.930 . S
C1565 C1560 1.390 . S
C1565 C1564 1.387 . S
H1566 C1578 0.930 . S
H1567 C1580 0.930 . S
H1568 C1581 0.930 . S
H1569 C1585 0.959 . S
H1570 C1585 0.959 . S
H1571 C1585 0.961 . S
H1572 C1586 0.960 . S
H1573 C1586 0.961 . S
H1574 C1586 0.959 . S
H1575 C1589 0.929 . S
H1576 C1590 0.931 . S
H1577 C1592 0.930 . S
C1578 H1566 0.930 . S
C1578 C1579 1.399 . S
C1578 C1583 1.399 . S
C1579 C1578 1.399 . S
C1579 C1580 1.376 1_545 S
C1580 H1567 0.930 . S
C1580 C1579 1.376 1_565 S
C1580 C1581 1.388 . S
C1581 H1568 0.930 . S
C1581 C1580 1.388 . S
C1581 C1582 1.383 1_565 S
C1582 C1581 1.383 1_545 S
C1582 C1583 1.404 . S
C1582 C1588 1.464 1_545 S
C1583 C1578 1.399 . S
C1583 C1582 1.404 . S
C1583 C1584 1.516 . S
C1584 C1583 1.516 . S
C1584 C1585 1.502 . S
C1584 C1586 1.561 . S
C1584 C1587 1.526 . S
C1585 H1569 0.959 . S
C1585 H1570 0.959 . S
C1585 H1571 0.961 . S
C1585 C1584 1.502 . S
C1586 H1572 0.960 . S
C1586 H1573 0.961 . S
C1586 H1574 0.959 . S
C1586 C1584 1.561 . S
C1587 C1584 1.526 . S
C1587 C1588 1.396 1_545 S
C1587 C1592 1.390 . S
C1588 C1582 1.464 1_565 S
C1588 C1587 1.396 1_565 S
C1588 C1589 1.399 . S
C1589 H1575 0.929 . S
C1589 C1588 1.399 . S
C1589 C1590 1.385 . S
C1590 H1576 0.931 . S
C1590 C1589 1.385 . S
C1590 C1591 1.389 1_565 S
C1591 C1590 1.389 1_545 S
C1591 C1592 1.387 . S
C1592 H1577 0.930 . S
C1592 C1587 1.390 . S
C1592 C1591 1.387 . S
H1593 C1605 0.930 . S
H1594 C1607 0.930 . S
H1595 C1608 0.930 . S
H1596 C1612 0.959 . S
H1597 C1612 0.959 . S
H1598 C1612 0.961 . S
H1599 C1613 0.960 . S
H1600 C1613 0.961 . S
H1601 C1613 0.959 . S
H1602 C1616 0.929 . S
H1603 C1617 0.931 . S
H1604 C1619 0.930 . S
C1605 H1593 0.930 . S
C1605 C1606 1.399 . S
C1605 C1610 1.399 . S
C1606 C1605 1.399 . S
C1606 C1607 1.376 . S
C1607 H1594 0.930 . S
C1607 C1606 1.376 . S
C1607 C1608 1.388 . S
C1608 H1595 0.930 . S
C1608 C1607 1.388 . S
C1608 C1609 1.390 . S
C1609 C1608 1.390 . S
C1609 C1610 1.394 . S
C1609 C1615 1.465 . S
C1610 C1605 1.399 . S
C1610 C1609 1.394 . S
C1610 C1611 1.516 . S
C1611 C1610 1.516 . S
C1611 C1612 1.502 . S
C1611 C1613 1.561 . S
C1611 C1614 1.526 . S
C1612 H1596 0.959 . S
C1612 H1597 0.959 . S
C1612 H1598 0.961 . S
C1612 C1611 1.502 . S
C1613 H1599 0.960 . S
C1613 H1600 0.961 . S
C1613 H1601 0.959 . S
C1613 C1611 1.561 . S
C1614 C1611 1.526 . S
C1614 C1615 1.396 . S
C1614 C1619 1.390 . S
C1615 C1609 1.465 . S
C1615 C1614 1.396 . S
C1615 C1616 1.399 . S
C1616 H1602 0.929 . S
C1616 C1615 1.399 . S
C1616 C1617 1.385 . S
C1617 H1603 0.931 . S
C1617 C1616 1.385 . S
C1617 C1618 1.389 . S
C1618 C1617 1.389 . S
C1618 C1619 1.387 . S
C1619 H1604 0.930 . S
C1619 C1614 1.390 . S
C1619 C1618 1.387 . S
H1620 C1632 0.930 . S
H1621 C1634 0.930 . S
H1622 C1635 0.930 . S
H1623 C1639 0.959 . S
H1624 C1639 0.959 . S
H1625 C1639 0.961 . S
H1626 C1640 0.960 . S
H1627 C1640 0.961 . S
H1628 C1640 0.959 . S
H1629 C1643 0.929 . S
H1630 C1644 0.931 . S
H1631 C1646 0.930 . S
C1632 H1620 0.930 . S
C1632 C1633 1.399 1_565 S
C1632 C1637 1.399 . S
C1633 C1632 1.399 1_545 S
C1633 C1634 1.376 . S
C1634 H1621 0.930 . S
C1634 C1633 1.376 . S
C1634 C1635 1.388 . S
C1635 H1622 0.930 . S
C1635 C1634 1.388 . S
C1635 C1636 1.390 . S
C1636 C1635 1.390 . S
C1636 C1637 1.394 1_545 S
C1636 C1642 1.465 . S
C1637 C1632 1.399 . S
C1637 C1636 1.394 1_565 S
C1637 C1638 1.516 . S
C1638 C1637 1.516 . S
C1638 C1639 1.502 . S
C1638 C1640 1.561 . S
C1638 C1641 1.526 . S
C1639 H1623 0.959 . S
C1639 H1624 0.959 . S
C1639 H1625 0.961 . S
C1639 C1638 1.502 . S
C1640 H1626 0.960 . S
C1640 H1627 0.961 . S
C1640 H1628 0.959 . S
C1640 C1638 1.561 . S
C1641 C1638 1.526 . S
C1641 C1642 1.396 1_565 S
C1641 C1646 1.390 . S
C1642 C1636 1.465 . S
C1642 C1641 1.396 1_545 S
C1642 C1643 1.399 . S
C1643 H1629 0.929 . S
C1643 C1642 1.399 . S
C1643 C1644 1.385 . S
C1644 H1630 0.931 . S
C1644 C1643 1.385 . S
C1644 C1645 1.389 1_545 S
C1645 C1644 1.389 1_565 S
C1645 C1646 1.387 . S
C1646 H1631 0.930 . S
C1646 C1641 1.390 . S
C1646 C1645 1.387 . S
H1647 C1659 0.930 . S
H1648 C1661 0.930 . S
H1649 C1662 0.930 . S
H1650 C1666 0.959 . S
H1651 C1666 0.959 . S
H1652 C1666 0.961 . S
H1653 C1667 0.960 . S
H1654 C1667 0.961 . S
H1655 C1667 0.959 . S
H1656 C1670 0.929 . S
H1657 C1671 0.931 . S
H1658 C1673 0.930 . S
C1659 H1647 0.930 . S
C1659 C1660 1.399 . S
C1659 C1664 1.399 . S
C1660 C1659 1.399 . S
C1660 C1661 1.376 . S
C1661 H1648 0.930 . S
C1661 C1660 1.376 . S
C1661 C1662 1.388 . S
C1662 H1649 0.930 . S
C1662 C1661 1.388 . S
C1662 C1663 1.390 . S
C1663 C1662 1.390 . S
C1663 C1664 1.394 . S
C1663 C1669 1.465 . S
C1664 C1659 1.399 . S
C1664 C1663 1.394 . S
C1664 C1665 1.516 . S
C1665 C1664 1.516 . S
C1665 C1666 1.502 . S
C1665 C1667 1.561 . S
C1665 C1668 1.526 . S
C1666 H1650 0.959 . S
C1666 H1651 0.959 . S
C1666 H1652 0.961 . S
C1666 C1665 1.502 . S
C1667 H1653 0.960 . S
C1667 H1654 0.961 . S
C1667 H1655 0.959 . S
C1667 C1665 1.561 . S
C1668 C1665 1.526 . S
C1668 C1669 1.396 . S
C1668 C1673 1.390 . S
C1669 C1663 1.465 . S
C1669 C1668 1.396 . S
C1669 C1670 1.399 . S
C1670 H1656 0.929 . S
C1670 C1669 1.399 . S
C1670 C1671 1.385 . S
C1671 H1657 0.931 . S
C1671 C1670 1.385 . S
C1671 C1672 1.389 . S
C1672 C1671 1.389 . S
C1672 C1673 1.387 . S
C1673 H1658 0.930 . S
C1673 C1668 1.390 . S
C1673 C1672 1.387 . S
H1674 C1686 0.930 . S
H1675 C1688 0.930 . S
H1676 C1689 0.930 . S
H1677 C1693 0.959 . S
H1678 C1693 0.959 . S
H1679 C1693 0.961 . S
H1680 C1694 0.960 . S
H1681 C1694 0.961 . S
H1682 C1694 0.959 . S
H1683 C1697 0.929 . S
H1684 C1698 0.931 . S
H1685 C1700 0.930 . S
C1686 H1674 0.930 . S
C1686 C1687 1.399 1_545 S
C1686 C1691 1.399 . S
C1687 C1686 1.399 1_565 S
C1687 C1688 1.376 . S
C1688 H1675 0.930 . S
C1688 C1687 1.376 . S
C1688 C1689 1.388 . S
C1689 H1676 0.930 . S
C1689 C1688 1.388 . S
C1689 C1690 1.390 . S
C1690 C1689 1.390 . S
C1690 C1691 1.394 1_565 S
C1690 C1696 1.465 . S
C1691 C1686 1.399 . S
C1691 C1690 1.394 1_545 S
C1691 C1692 1.516 . S
C1692 C1691 1.516 . S
C1692 C1693 1.502 . S
C1692 C1694 1.561 . S
C1692 C1695 1.526 . S
C1693 H1677 0.959 . S
C1693 H1678 0.959 . S
C1693 H1679 0.961 . S
C1693 C1692 1.502 . S
C1694 H1680 0.960 . S
C1694 H1681 0.961 . S
C1694 H1682 0.959 . S
C1694 C1692 1.561 . S
C1695 C1692 1.526 . S
C1695 C1696 1.396 1_545 S
C1695 C1700 1.390 . S
C1696 C1690 1.465 . S
C1696 C1695 1.396 1_565 S
C1696 C1697 1.399 . S
C1697 H1683 0.929 . S
C1697 C1696 1.399 . S
C1697 C1698 1.385 . S
C1698 H1684 0.931 . S
C1698 C1697 1.385 . S
C1698 C1699 1.389 1_565 S
C1699 C1698 1.389 1_545 S
C1699 C1700 1.387 . S
C1700 H1685 0.930 . S
C1700 C1695 1.390 . S
C1700 C1699 1.387 . S
H1701 C1713 0.930 . S
H1702 C1715 0.930 . S
H1703 C1716 0.930 . S
H1704 C1720 0.959 . S
H1705 C1720 0.959 . S
H1706 C1720 0.961 . S
H1707 C1721 0.960 . S
H1708 C1721 0.961 . S
H1709 C1721 0.959 . S
H1710 C1724 0.929 . S
H1711 C1725 0.931 . S
H1712 C1727 0.930 . S
C1713 H1701 0.930 . S
C1713 C1714 1.399 . S
C1713 C1718 1.399 . S
C1714 C1713 1.399 . S
C1714 C1715 1.376 . S
C1715 H1702 0.930 . S
C1715 C1714 1.376 . S
C1715 C1716 1.388 . S
C1716 H1703 0.930 . S
C1716 C1715 1.388 . S
C1716 C1717 1.390 . S
C1717 C1716 1.390 . S
C1717 C1718 1.394 . S
C1717 C1723 1.465 . S
C1718 C1713 1.399 . S
C1718 C1717 1.394 . S
C1718 C1719 1.516 . S
C1719 C1718 1.516 . S
C1719 C1720 1.502 . S
C1719 C1721 1.561 . S
C1719 C1722 1.526 . S
C1720 H1704 0.959 . S
C1720 H1705 0.959 . S
C1720 H1706 0.961 . S
C1720 C1719 1.502 . S
C1721 H1707 0.960 . S
C1721 H1708 0.961 . S
C1721 H1709 0.959 . S
C1721 C1719 1.561 . S
C1722 C1719 1.526 . S
C1722 C1723 1.396 . S
C1722 C1727 1.390 . S
C1723 C1717 1.465 . S
C1723 C1722 1.396 . S
C1723 C1724 1.399 . S
C1724 H1710 0.929 . S
C1724 C1723 1.399 . S
C1724 C1725 1.385 . S
C1725 H1711 0.931 . S
C1725 C1724 1.385 . S
C1725 C1726 1.389 . S
C1726 C1725 1.389 . S
C1726 C1727 1.387 . S
C1727 H1712 0.930 . S
C1727 C1722 1.390 . S
C1727 C1726 1.387 . S
H1728 C1740 0.930 . S
H1729 C1742 0.930 . S
H1730 C1743 0.930 . S
H1731 C1747 0.959 . S
H1732 C1747 0.959 . S
H1733 C1747 0.961 . S
H1734 C1748 0.960 . S
H1735 C1748 0.961 . S
H1736 C1748 0.959 . S
H1737 C1751 0.929 . S
H1738 C1752 0.931 . S
H1739 C1754 0.930 . S
C1740 H1728 0.930 . S
C1740 C1741 1.399 . S
C1740 C1745 1.399 . S
C1741 C1740 1.399 . S
C1741 C1742 1.376 1_554 S
C1742 H1729 0.930 . S
C1742 C1741 1.376 1_556 S
C1742 C1743 1.388 . S
C1743 H1730 0.930 . S
C1743 C1742 1.388 . S
C1743 C1744 1.390 . S
C1744 C1743 1.390 . S
C1744 C1745 1.394 1_556 S
C1744 C1750 1.465 . S
C1745 C1740 1.399 . S
C1745 C1744 1.394 1_554 S
C1745 C1746 1.516 . S
C1746 C1745 1.516 . S
C1746 C1747 1.502 . S
C1746 C1748 1.561 . S
C1746 C1749 1.526 . S
C1747 H1731 0.959 . S
C1747 H1732 0.959 . S
C1747 H1733 0.961 . S
C1747 C1746 1.502 . S
C1748 H1734 0.960 . S
C1748 H1735 0.961 . S
C1748 H1736 0.959 . S
C1748 C1746 1.561 . S
C1749 C1746 1.526 . S
C1749 C1750 1.396 1_554 S
C1749 C1754 1.390 . S
C1750 C1744 1.465 . S
C1750 C1749 1.396 1_556 S
C1750 C1751 1.399 . S
C1751 H1737 0.929 . S
C1751 C1750 1.399 . S
C1751 C1752 1.385 . S
C1752 H1738 0.931 . S
C1752 C1751 1.385 . S
C1752 C1753 1.389 1_556 S
C1753 C1752 1.389 1_554 S
C1753 C1754 1.387 . S
C1754 H1739 0.930 . S
C1754 C1749 1.390 . S
C1754 C1753 1.387 . S
H1755 C1767 0.930 . S
H1756 C1769 0.930 . S
H1757 C1770 0.930 . S
H1758 C1774 0.959 . S
H1759 C1774 0.959 . S
H1760 C1774 0.961 . S
H1761 C1775 0.960 . S
H1762 C1775 0.961 . S
H1763 C1775 0.959 . S
H1764 C1778 0.929 . S
H1765 C1779 0.931 . S
H1766 C1781 0.930 . S
C1767 H1755 0.930 . S
C1767 C1768 1.399 . S
C1767 C1772 1.399 . S
C1768 C1767 1.399 . S
C1768 C1769 1.376 1_554 S
C1769 H1756 0.930 . S
C1769 C1768 1.376 1_556 S
C1769 C1770 1.388 . S
C1770 H1757 0.930 . S
C1770 C1769 1.388 . S
C1770 C1771 1.390 . S
C1771 C1770 1.390 . S
C1771 C1772 1.394 1_556 S
C1771 C1777 1.465 . S
C1772 C1767 1.399 . S
C1772 C1771 1.394 1_554 S
C1772 C1773 1.516 . S
C1773 C1772 1.516 . S
C1773 C1774 1.502 . S
C1773 C1775 1.561 . S
C1773 C1776 1.526 . S
C1774 H1758 0.959 . S
C1774 H1759 0.959 . S
C1774 H1760 0.961 . S
C1774 C1773 1.502 . S
C1775 H1761 0.960 . S
C1775 H1762 0.961 . S
C1775 H1763 0.959 . S
C1775 C1773 1.561 . S
C1776 C1773 1.526 . S
C1776 C1777 1.396 1_554 S
C1776 C1781 1.390 . S
C1777 C1771 1.465 . S
C1777 C1776 1.396 1_556 S
C1777 C1778 1.399 . S
C1778 H1764 0.929 . S
C1778 C1777 1.399 . S
C1778 C1779 1.385 . S
C1779 H1765 0.931 . S
C1779 C1778 1.385 . S
C1779 C1780 1.389 . S
C1780 C1779 1.389 . S
C1780 C1781 1.387 1_556 S
C1781 H1766 0.930 . S
C1781 C1776 1.390 . S
C1781 C1780 1.387 1_554 S
H1782 C1794 0.930 . S
H1783 C1796 0.930 . S
H1784 C1797 0.930 . S
H1785 C1801 0.959 . S
H1786 C1801 0.959 . S
H1787 C1801 0.961 . S
H1788 C1802 0.960 . S
H1789 C1802 0.961 . S
H1790 C1802 0.959 . S
H1791 C1805 0.929 . S
H1792 C1806 0.931 . S
H1793 C1808 0.930 . S
C1794 H1782 0.930 . S
C1794 C1795 1.399 . S
C1794 C1799 1.399 . S
C1795 C1794 1.399 . S
C1795 C1796 1.376 . S
C1796 H1783 0.930 . S
C1796 C1795 1.376 . S
C1796 C1797 1.388 . S
C1797 H1784 0.930 . S
C1797 C1796 1.388 . S
C1797 C1798 1.390 . S
C1798 C1797 1.390 . S
C1798 C1799 1.394 . S
C1798 C1804 1.465 . S
C1799 C1794 1.399 . S
C1799 C1798 1.394 . S
C1799 C1800 1.516 . S
C1800 C1799 1.516 . S
C1800 C1801 1.502 . S
C1800 C1802 1.561 . S
C1800 C1803 1.526 . S
C1801 H1785 0.959 . S
C1801 H1786 0.959 . S
C1801 H1787 0.961 . S
C1801 C1800 1.502 . S
C1802 H1788 0.960 . S
C1802 H1789 0.961 . S
C1802 H1790 0.959 . S
C1802 C1800 1.561 . S
C1803 C1800 1.526 . S
C1803 C1804 1.396 . S
C1803 C1808 1.390 . S
C1804 C1798 1.465 . S
C1804 C1803 1.396 . S
C1804 C1805 1.399 . S
C1805 H1791 0.929 . S
C1805 C1804 1.399 . S
C1805 C1806 1.385 . S
C1806 H1792 0.931 . S
C1806 C1805 1.385 . S
C1806 C1807 1.389 . S
C1807 C1806 1.389 . S
C1807 C1808 1.387 . S
C1808 H1793 0.930 . S
C1808 C1803 1.390 . S
C1808 C1807 1.387 . S
H1809 C1821 0.930 . S
H1810 C1823 0.930 . S
H1811 C1824 0.930 . S
H1812 C1828 0.959 . S
H1813 C1828 0.959 . S
H1814 C1828 0.961 . S
H1815 C1829 0.960 . S
H1816 C1829 0.961 . S
H1817 C1829 0.959 . S
H1818 C1832 0.929 . S
H1819 C1833 0.931 . S
H1820 C1835 0.930 . S
C1821 H1809 0.930 . S
C1821 C1822 1.399 . S
C1821 C1826 1.399 . S
C1822 C1821 1.399 . S
C1822 C1823 1.376 . S
C1823 H1810 0.930 . S
C1823 C1822 1.376 . S
C1823 C1824 1.388 . S
C1824 H1811 0.930 . S
C1824 C1823 1.388 . S
C1824 C1825 1.390 . S
C1825 C1824 1.390 . S
C1825 C1826 1.394 . S
C1825 C1831 1.465 . S
C1826 C1821 1.399 . S
C1826 C1825 1.394 . S
C1826 C1827 1.516 . S
C1827 C1826 1.516 . S
C1827 C1828 1.502 . S
C1827 C1829 1.561 . S
C1827 C1830 1.526 . S
C1828 H1812 0.959 . S
C1828 H1813 0.959 . S
C1828 H1814 0.961 . S
C1828 C1827 1.502 . S
C1829 H1815 0.960 . S
C1829 H1816 0.961 . S
C1829 H1817 0.959 . S
C1829 C1827 1.561 . S
C1830 C1827 1.526 . S
C1830 C1831 1.396 . S
C1830 C1835 1.390 . S
C1831 C1825 1.465 . S
C1831 C1830 1.396 . S
C1831 C1832 1.399 . S
C1832 H1818 0.929 . S
C1832 C1831 1.399 . S
C1832 C1833 1.385 . S
C1833 H1819 0.931 . S
C1833 C1832 1.385 . S
C1833 C1834 1.389 . S
C1834 C1833 1.389 . S
C1834 C1835 1.387 . S
C1835 H1820 0.930 . S
C1835 C1830 1.390 . S
C1835 C1834 1.387 . S
H1836 C1848 0.930 . S
H1837 C1850 0.930 . S
H1838 C1851 0.930 . S
H1839 C1855 0.959 . S
H1840 C1855 0.959 . S
H1841 C1855 0.961 . S
H1842 C1856 0.960 . S
H1843 C1856 0.961 . S
H1844 C1856 0.959 . S
H1845 C1859 0.929 . S
H1846 C1860 0.931 . S
H1847 C1862 0.930 . S
C1848 H1836 0.930 . S
C1848 C1849 1.399 . S
C1848 C1853 1.399 . S
C1849 C1848 1.399 . S
C1849 C1850 1.376 . S
C1850 H1837 0.930 . S
C1850 C1849 1.376 . S
C1850 C1851 1.388 . S
C1851 H1838 0.930 . S
C1851 C1850 1.388 . S
C1851 C1852 1.390 . S
C1852 C1851 1.390 . S
C1852 C1853 1.394 . S
C1852 C1858 1.465 . S
C1853 C1848 1.399 . S
C1853 C1852 1.394 . S
C1853 C1854 1.516 . S
C1854 C1853 1.516 . S
C1854 C1855 1.502 . S
C1854 C1856 1.561 . S
C1854 C1857 1.526 . S
C1855 H1839 0.959 . S
C1855 H1840 0.959 . S
C1855 H1841 0.961 . S
C1855 C1854 1.502 . S
C1856 H1842 0.960 . S
C1856 H1843 0.961 . S
C1856 H1844 0.959 . S
C1856 C1854 1.561 . S
C1857 C1854 1.526 . S
C1857 C1858 1.396 . S
C1857 C1862 1.390 . S
C1858 C1852 1.465 . S
C1858 C1857 1.396 . S
C1858 C1859 1.399 . S
C1859 H1845 0.929 . S
C1859 C1858 1.399 . S
C1859 C1860 1.385 . S
C1860 H1846 0.931 . S
C1860 C1859 1.385 . S
C1860 C1861 1.389 . S
C1861 C1860 1.389 . S
C1861 C1862 1.387 . S
C1862 H1847 0.930 . S
C1862 C1857 1.390 . S
C1862 C1861 1.387 . S
H1863 C1875 0.930 . S
H1864 C1877 0.930 . S
H1865 C1878 0.930 . S
H1866 C1882 0.959 . S
H1867 C1882 0.959 . S
H1868 C1882 0.961 . S
H1869 C1883 0.960 . S
H1870 C1883 0.961 . S
H1871 C1883 0.959 . S
H1872 C1886 0.929 . S
H1873 C1887 0.931 . S
H1874 C1889 0.930 . S
C1875 H1863 0.930 . S
C1875 C1876 1.399 . S
C1875 C1880 1.399 . S
C1876 C1875 1.399 . S
C1876 C1877 1.376 . S
C1877 H1864 0.930 . S
C1877 C1876 1.376 . S
C1877 C1878 1.388 . S
C1878 H1865 0.930 . S
C1878 C1877 1.388 . S
C1878 C1879 1.390 . S
C1879 C1878 1.390 . S
C1879 C1880 1.394 . S
C1879 C1885 1.465 . S
C1880 C1875 1.399 . S
C1880 C1879 1.394 . S
C1880 C1881 1.516 . S
C1881 C1880 1.516 . S
C1881 C1882 1.502 . S
C1881 C1883 1.561 . S
C1881 C1884 1.526 . S
C1882 H1866 0.959 . S
C1882 H1867 0.959 . S
C1882 H1868 0.961 . S
C1882 C1881 1.502 . S
C1883 H1869 0.960 . S
C1883 H1870 0.961 . S
C1883 H1871 0.959 . S
C1883 C1881 1.561 . S
C1884 C1881 1.526 . S
C1884 C1885 1.396 . S
C1884 C1889 1.390 . S
C1885 C1879 1.465 . S
C1885 C1884 1.396 . S
C1885 C1886 1.399 . S
C1886 H1872 0.929 . S
C1886 C1885 1.399 . S
C1886 C1887 1.385 . S
C1887 H1873 0.931 . S
C1887 C1886 1.385 . S
C1887 C1888 1.389 . S
C1888 C1887 1.389 . S
C1888 C1889 1.387 . S
C1889 H1874 0.930 . S
C1889 C1884 1.390 . S
C1889 C1888 1.387 . S
H1890 C1902 0.930 . S
H1891 C1904 0.930 . S
H1892 C1905 0.930 . S
H1893 C1909 0.959 . S
H1894 C1909 0.959 . S
H1895 C1909 0.961 . S
H1896 C1910 0.960 . S
H1897 C1910 0.961 . S
H1898 C1910 0.959 . S
H1899 C1913 0.929 . S
H1900 C1914 0.931 . S
H1901 C1916 0.930 . S
C1902 H1890 0.930 . S
C1902 C1903 1.399 . S
C1902 C1907 1.399 . S
C1903 C1902 1.399 . S
C1903 C1904 1.376 . S
C1904 H1891 0.930 . S
C1904 C1903 1.376 . S
C1904 C1905 1.388 . S
C1905 H1892 0.930 . S
C1905 C1904 1.388 . S
C1905 C1906 1.390 . S
C1906 C1905 1.390 . S
C1906 C1907 1.394 . S
C1906 C1912 1.465 . S
C1907 C1902 1.399 . S
C1907 C1906 1.394 . S
C1907 C1908 1.516 . S
C1908 C1907 1.516 . S
C1908 C1909 1.502 . S
C1908 C1910 1.561 . S
C1908 C1911 1.526 . S
C1909 H1893 0.959 . S
C1909 H1894 0.959 . S
C1909 H1895 0.961 . S
C1909 C1908 1.502 . S
C1910 H1896 0.960 . S
C1910 H1897 0.961 . S
C1910 H1898 0.959 . S
C1910 C1908 1.561 . S
C1911 C1908 1.526 . S
C1911 C1912 1.396 . S
C1911 C1916 1.390 . S
C1912 C1906 1.465 . S
C1912 C1911 1.396 . S
C1912 C1913 1.399 . S
C1913 H1899 0.929 . S
C1913 C1912 1.399 . S
C1913 C1914 1.385 . S
C1914 H1900 0.931 . S
C1914 C1913 1.385 . S
C1914 C1915 1.389 . S
C1915 C1914 1.389 . S
C1915 C1916 1.387 . S
C1916 H1901 0.930 . S
C1916 C1911 1.390 . S
C1916 C1915 1.387 . S
H1917 C1929 0.930 . S
H1918 C1931 0.930 . S
H1919 C1932 0.930 . S
H1920 C1936 0.959 . S
H1921 C1936 0.959 . S
H1922 C1936 0.961 . S
H1923 C1937 0.960 . S
H1924 C1937 0.961 . S
H1925 C1937 0.959 . S
H1926 C1940 0.929 . S
H1927 C1941 0.931 . S
H1928 C1943 0.930 . S
C1929 H1917 0.930 . S
C1929 C1930 1.399 . S
C1929 C1934 1.399 . S
C1930 C1929 1.399 . S
C1930 C1931 1.376 . S
C1931 H1918 0.930 . S
C1931 C1930 1.376 . S
C1931 C1932 1.388 . S
C1932 H1919 0.930 . S
C1932 C1931 1.388 . S
C1932 C1933 1.390 . S
C1933 C1932 1.390 . S
C1933 C1934 1.394 . S
C1933 C1939 1.465 . S
C1934 C1929 1.399 . S
C1934 C1933 1.394 . S
C1934 C1935 1.516 . S
C1935 C1934 1.516 . S
C1935 C1936 1.502 . S
C1935 C1937 1.561 . S
C1935 C1938 1.526 . S
C1936 H1920 0.959 . S
C1936 H1921 0.959 . S
C1936 H1922 0.961 . S
C1936 C1935 1.502 . S
C1937 H1923 0.960 . S
C1937 H1924 0.961 . S
C1937 H1925 0.959 . S
C1937 C1935 1.561 . S
C1938 C1935 1.526 . S
C1938 C1939 1.396 . S
C1938 C1943 1.390 . S
C1939 C1933 1.465 . S
C1939 C1938 1.396 . S
C1939 C1940 1.399 . S
C1940 H1926 0.929 . S
C1940 C1939 1.399 . S
C1940 C1941 1.385 . S
C1941 H1927 0.931 . S
C1941 C1940 1.385 . S
C1941 C1942 1.389 . S
C1942 C1941 1.389 . S
C1942 C1943 1.387 . S
C1943 H1928 0.930 . S
C1943 C1938 1.390 . S
C1943 C1942 1.387 . S
H1944 C1956 0.930 . S
H1945 C1958 0.930 . S
H1946 C1959 0.930 . S
H1947 C1963 0.959 . S
H1948 C1963 0.959 . S
H1949 C1963 0.961 . S
H1950 C1964 0.960 . S
H1951 C1964 0.961 . S
H1952 C1964 0.959 . S
H1953 C1967 0.929 . S
H1954 C1968 0.931 . S
H1955 C1970 0.930 . S
C1956 H1944 0.930 . S
C1956 C1957 1.399 . S
C1956 C1961 1.399 . S
C1957 C1956 1.399 . S
C1957 C1958 1.376 . S
C1958 H1945 0.930 . S
C1958 C1957 1.376 . S
C1958 C1959 1.388 . S
C1959 H1946 0.930 . S
C1959 C1958 1.388 . S
C1959 C1960 1.390 . S
C1960 C1959 1.390 . S
C1960 C1961 1.394 . S
C1960 C1966 1.465 . S
C1961 C1956 1.399 . S
C1961 C1960 1.394 . S
C1961 C1962 1.516 . S
C1962 C1961 1.516 . S
C1962 C1963 1.502 . S
C1962 C1964 1.561 . S
C1962 C1965 1.526 . S
C1963 H1947 0.959 . S
C1963 H1948 0.959 . S
C1963 H1949 0.961 . S
C1963 C1962 1.502 . S
C1964 H1950 0.960 . S
C1964 H1951 0.961 . S
C1964 H1952 0.959 . S
C1964 C1962 1.561 . S
C1965 C1962 1.526 . S
C1965 C1966 1.396 . S
C1965 C1970 1.390 . S
C1966 C1960 1.465 . S
C1966 C1965 1.396 . S
C1966 C1967 1.399 . S
C1967 H1953 0.929 . S
C1967 C1966 1.399 . S
C1967 C1968 1.385 . S
C1968 H1954 0.931 . S
C1968 C1967 1.385 . S
C1968 C1969 1.389 . S
C1969 C1968 1.389 . S
C1969 C1970 1.387 . S
C1970 H1955 0.930 . S
C1970 C1965 1.390 . S
C1970 C1969 1.387 . S
H1971 C1983 0.930 . S
H1972 C1985 0.930 . S
H1973 C1986 0.930 . S
H1974 C1990 0.959 . S
H1975 C1990 0.959 . S
H1976 C1990 0.961 . S
H1977 C1991 0.960 . S
H1978 C1991 0.961 . S
H1979 C1991 0.959 . S
H1980 C1994 0.929 . S
H1981 C1995 0.931 . S
H1982 C1997 0.930 . S
C1983 H1971 0.930 . S
C1983 C1984 1.399 . S
C1983 C1988 1.399 . S
C1984 C1983 1.399 . S
C1984 C1985 1.376 . S
C1985 H1972 0.930 . S
C1985 C1984 1.376 . S
C1985 C1986 1.388 . S
C1986 H1973 0.930 . S
C1986 C1985 1.388 . S
C1986 C1987 1.390 . S
C1987 C1986 1.390 . S
C1987 C1988 1.394 . S
C1987 C1993 1.465 . S
C1988 C1983 1.399 . S
C1988 C1987 1.394 . S
C1988 C1989 1.516 . S
C1989 C1988 1.516 . S
C1989 C1990 1.502 . S
C1989 C1991 1.561 . S
C1989 C1992 1.526 . S
C1990 H1974 0.959 . S
C1990 H1975 0.959 . S
C1990 H1976 0.961 . S
C1990 C1989 1.502 . S
C1991 H1977 0.960 . S
C1991 H1978 0.961 . S
C1991 H1979 0.959 . S
C1991 C1989 1.561 . S
C1992 C1989 1.526 . S
C1992 C1993 1.396 . S
C1992 C1997 1.390 . S
C1993 C1987 1.465 . S
C1993 C1992 1.396 . S
C1993 C1994 1.399 . S
C1994 H1980 0.929 . S
C1994 C1993 1.399 . S
C1994 C1995 1.385 . S
C1995 H1981 0.931 . S
C1995 C1994 1.385 . S
C1995 C1996 1.389 . S
C1996 C1995 1.389 . S
C1996 C1997 1.387 . S
C1997 H1982 0.930 . S
C1997 C1992 1.390 . S
C1997 C1996 1.387 . S
H1998 C2010 0.930 . S
H1999 C2012 0.930 . S
H2000 C2013 0.930 . S
H2001 C2017 0.959 . S
H2002 C2017 0.959 . S
H2003 C2017 0.961 . S
H2004 C2018 0.960 . S
H2005 C2018 0.961 . S
H2006 C2018 0.959 . S
H2007 C2021 0.929 . S
H2008 C2022 0.931 1_556 S
H2009 C2024 0.930 . S
C2010 H1998 0.930 . S
C2010 C2011 1.399 . S
C2010 C2015 1.399 . S
C2011 C2010 1.399 . S
C2011 C2012 1.376 . S
C2012 H1999 0.930 . S
C2012 C2011 1.376 . S
C2012 C2013 1.388 . S
C2013 H2000 0.930 . S
C2013 C2012 1.388 . S
C2013 C2014 1.390 . S
C2014 C2013 1.390 . S
C2014 C2015 1.394 . S
C2014 C2020 1.465 . S
C2015 C2010 1.399 . S
C2015 C2014 1.394 . S
C2015 C2016 1.516 . S
C2016 C2015 1.516 . S
C2016 C2017 1.502 1_455 S
C2016 C2018 1.561 . S
C2016 C2019 1.526 . S
C2017 H2001 0.959 . S
C2017 H2002 0.959 . S
C2017 H2003 0.961 . S
C2017 C2016 1.502 1_655 S
C2018 H2004 0.960 . S
C2018 H2005 0.961 . S
C2018 H2006 0.959 . S
C2018 C2016 1.561 . S
C2019 C2016 1.526 . S
C2019 C2020 1.396 . S
C2019 C2024 1.390 . S
C2020 C2014 1.465 . S
C2020 C2019 1.396 . S
C2020 C2021 1.399 . S
C2021 H2007 0.929 . S
C2021 C2020 1.399 . S
C2021 C2022 1.385 . S
C2022 H2008 0.931 1_554 S
C2022 C2021 1.385 . S
C2022 C2023 1.389 . S
C2023 C2022 1.389 . S
C2023 C2024 1.387 . S
C2024 H2009 0.930 . S
C2024 C2019 1.390 . S
C2024 C2023 1.387 . S
H2025 C2037 0.930 . S
H2026 C2039 0.930 . S
H2027 C2040 0.930 . S
H2028 C2044 0.959 . S
H2029 C2044 0.959 . S
H2030 C2044 0.961 . S
H2031 C2045 0.960 . S
H2032 C2045 0.961 . S
H2033 C2045 0.959 . S
H2034 C2048 0.929 . S
H2035 C2049 0.931 . S
H2036 C2051 0.930 . S
C2037 H2025 0.930 . S
C2037 C2038 1.399 . S
C2037 C2042 1.399 . S
C2038 C2037 1.399 . S
C2038 C2039 1.376 . S
C2039 H2026 0.930 . S
C2039 C2038 1.376 . S
C2039 C2040 1.388 . S
C2040 H2027 0.930 . S
C2040 C2039 1.388 . S
C2040 C2041 1.390 . S
C2041 C2040 1.390 . S
C2041 C2042 1.394 . S
C2041 C2047 1.465 . S
C2042 C2037 1.399 . S
C2042 C2041 1.394 . S
C2042 C2043 1.516 . S
C2043 C2042 1.516 . S
C2043 C2044 1.502 . S
C2043 C2045 1.561 . S
C2043 C2046 1.526 . S
C2044 H2028 0.959 . S
C2044 H2029 0.959 . S
C2044 H2030 0.961 . S
C2044 C2043 1.502 . S
C2045 H2031 0.960 . S
C2045 H2032 0.961 . S
C2045 H2033 0.959 . S
C2045 C2043 1.561 . S
C2046 C2043 1.526 . S
C2046 C2047 1.396 . S
C2046 C2051 1.390 . S
C2047 C2041 1.465 . S
C2047 C2046 1.396 . S
C2047 C2048 1.399 . S
C2048 H2034 0.929 . S
C2048 C2047 1.399 . S
C2048 C2049 1.385 . S
C2049 H2035 0.931 . S
C2049 C2048 1.385 . S
C2049 C2050 1.389 . S
C2050 C2049 1.389 . S
C2050 C2051 1.387 . S
C2051 H2036 0.930 . S
C2051 C2046 1.390 . S
C2051 C2050 1.387 . S
H2052 C2064 0.930 . S
H2053 C2066 0.930 . S
H2054 C2067 0.930 . S
H2055 C2071 0.959 . S
H2056 C2071 0.959 . S
H2057 C2071 0.961 . S
H2058 C2072 0.960 . S
H2059 C2072 0.961 . S
H2060 C2072 0.959 . S
H2061 C2075 0.929 . S
H2062 C2076 0.931 1_554 S
H2063 C2078 0.930 . S
C2064 H2052 0.930 . S
C2064 C2065 1.399 . S
C2064 C2069 1.399 . S
C2065 C2064 1.399 . S
C2065 C2066 1.376 . S
C2066 H2053 0.930 . S
C2066 C2065 1.376 . S
C2066 C2067 1.388 . S
C2067 H2054 0.930 . S
C2067 C2066 1.388 . S
C2067 C2068 1.390 . S
C2068 C2067 1.390 . S
C2068 C2069 1.394 . S
C2068 C2074 1.465 . S
C2069 C2064 1.399 . S
C2069 C2068 1.394 . S
C2069 C2070 1.516 . S
C2070 C2069 1.516 . S
C2070 C2071 1.502 . S
C2070 C2072 1.561 . S
C2070 C2073 1.526 . S
C2071 H2055 0.959 . S
C2071 H2056 0.959 . S
C2071 H2057 0.961 . S
C2071 C2070 1.502 . S
C2072 H2058 0.960 . S
C2072 H2059 0.961 . S
C2072 H2060 0.959 . S
C2072 C2070 1.561 . S
C2073 C2070 1.526 . S
C2073 C2074 1.396 . S
C2073 C2078 1.390 . S
C2074 C2068 1.465 . S
C2074 C2073 1.396 . S
C2074 C2075 1.399 . S
C2075 H2061 0.929 . S
C2075 C2074 1.399 . S
C2075 C2076 1.385 . S
C2076 H2062 0.931 1_556 S
C2076 C2075 1.385 . S
C2076 C2077 1.389 . S
C2077 C2076 1.389 . S
C2077 C2078 1.387 . S
C2078 H2063 0.930 . S
C2078 C2073 1.390 . S
C2078 C2077 1.387 . S
H2079 C2091 0.930 . S
H2080 C2093 0.930 . S
H2081 C2094 0.930 . S
H2082 C2098 0.959 . S
H2083 C2098 0.959 . S
H2084 C2098 0.961 . S
H2085 C2099 0.960 . S
H2086 C2099 0.961 . S
H2087 C2099 0.959 . S
H2088 C2102 0.929 . S
H2089 C2103 0.931 . S
H2090 C2105 0.930 . S
C2091 H2079 0.930 . S
C2091 C2092 1.399 . S
C2091 C2096 1.399 . S
C2092 C2091 1.399 . S
C2092 C2093 1.376 . S
C2093 H2080 0.930 . S
C2093 C2092 1.376 . S
C2093 C2094 1.388 . S
C2094 H2081 0.930 . S
C2094 C2093 1.388 . S
C2094 C2095 1.390 . S
C2095 C2094 1.390 . S
C2095 C2096 1.394 . S
C2095 C2101 1.465 . S
C2096 C2091 1.399 . S
C2096 C2095 1.394 . S
C2096 C2097 1.516 . S
C2097 C2096 1.516 . S
C2097 C2098 1.502 . S
C2097 C2099 1.561 . S
C2097 C2100 1.526 . S
C2098 H2082 0.959 . S
C2098 H2083 0.959 . S
C2098 H2084 0.961 . S
C2098 C2097 1.502 . S
C2099 H2085 0.960 . S
C2099 H2086 0.961 . S
C2099 H2087 0.959 . S
C2099 C2097 1.561 . S
C2100 C2097 1.526 . S
C2100 C2101 1.396 . S
C2100 C2105 1.390 . S
C2101 C2095 1.465 . S
C2101 C2100 1.396 . S
C2101 C2102 1.399 . S
C2102 H2088 0.929 . S
C2102 C2101 1.399 . S
C2102 C2103 1.385 . S
C2103 H2089 0.931 . S
C2103 C2102 1.385 . S
C2103 C2104 1.389 . S
C2104 C2103 1.389 . S
C2104 C2105 1.387 . S
C2105 H2090 0.930 . S
C2105 C2100 1.390 . S
C2105 C2104 1.387 . S
H2106 C2118 0.930 . S
H2107 C2120 0.930 . S
H2108 C2121 0.930 . S
H2109 C2125 0.959 . S
H2110 C2125 0.959 . S
H2111 C2125 0.961 . S
H2112 C2126 0.960 . S
H2113 C2126 0.961 . S
H2114 C2126 0.959 . S
H2115 C2129 0.929 . S
H2116 C2130 0.931 . S
H2117 C2132 0.930 . S
C2118 H2106 0.930 . S
C2118 C2119 1.399 . S
C2118 C2123 1.399 . S
C2119 C2118 1.399 . S
C2119 C2120 1.376 . S
C2120 H2107 0.930 . S
C2120 C2119 1.376 . S
C2120 C2121 1.388 . S
C2121 H2108 0.930 . S
C2121 C2120 1.388 . S
C2121 C2122 1.390 . S
C2122 C2121 1.390 . S
C2122 C2123 1.394 . S
C2122 C2128 1.465 . S
C2123 C2118 1.399 . S
C2123 C2122 1.394 . S
C2123 C2124 1.516 . S
C2124 C2123 1.516 . S
C2124 C2125 1.502 1_455 S
C2124 C2126 1.561 . S
C2124 C2127 1.526 . S
C2125 H2109 0.959 . S
C2125 H2110 0.959 . S
C2125 H2111 0.961 . S
C2125 C2124 1.502 1_655 S
C2126 H2112 0.960 . S
C2126 H2113 0.961 . S
C2126 H2114 0.959 . S
C2126 C2124 1.561 . S
C2127 C2124 1.526 . S
C2127 C2128 1.396 . S
C2127 C2132 1.390 . S
C2128 C2122 1.465 . S
C2128 C2127 1.396 . S
C2128 C2129 1.399 . S
C2129 H2115 0.929 . S
C2129 C2128 1.399 . S
C2129 C2130 1.385 . S
C2130 H2116 0.931 . S
C2130 C2129 1.385 . S
C2130 C2131 1.389 . S
C2131 C2130 1.389 . S
C2131 C2132 1.387 . S
C2132 H2117 0.930 . S
C2132 C2127 1.390 . S
C2132 C2131 1.387 . S
H2133 C2145 0.930 . S
H2134 C2147 0.930 . S
H2135 C2148 0.930 . S
H2136 C2152 0.959 . S
H2137 C2152 0.959 . S
H2138 C2152 0.961 . S
H2139 C2153 0.960 . S
H2140 C2153 0.961 . S
H2141 C2153 0.959 . S
H2142 C2156 0.929 . S
H2143 C2157 0.931 . S
H2144 C2159 0.930 . S
C2145 H2133 0.930 . S
C2145 C2146 1.399 . S
C2145 C2150 1.399 . S
C2146 C2145 1.399 . S
C2146 C2147 1.376 . S
C2147 H2134 0.930 . S
C2147 C2146 1.376 . S
C2147 C2148 1.388 . S
C2148 H2135 0.930 . S
C2148 C2147 1.388 . S
C2148 C2149 1.390 . S
C2149 C2148 1.390 . S
C2149 C2150 1.394 . S
C2149 C2155 1.465 . S
C2150 C2145 1.399 . S
C2150 C2149 1.394 . S
C2150 C2151 1.516 . S
C2151 C2150 1.516 . S
C2151 C2152 1.502 . S
C2151 C2153 1.561 . S
C2151 C2154 1.526 . S
C2152 H2136 0.959 . S
C2152 H2137 0.959 . S
C2152 H2138 0.961 . S
C2152 C2151 1.502 . S
C2153 H2139 0.960 . S
C2153 H2140 0.961 . S
C2153 H2141 0.959 . S
C2153 C2151 1.561 . S
C2154 C2151 1.526 . S
C2154 C2155 1.396 . S
C2154 C2159 1.390 . S
C2155 C2149 1.465 . S
C2155 C2154 1.396 . S
C2155 C2156 1.399 . S
C2156 H2142 0.929 . S
C2156 C2155 1.399 . S
C2156 C2157 1.385 . S
C2157 H2143 0.931 . S
C2157 C2156 1.385 . S
C2157 C2158 1.389 . S
C2158 C2157 1.389 . S
C2158 C2159 1.387 . S
C2159 H2144 0.930 . S
C2159 C2154 1.390 . S
C2159 C2158 1.387 . S
H2160 C2172 0.930 . S
H2161 C2174 0.930 . S
H2162 C2175 0.930 . S
H2163 C2179 0.959 . S
H2164 C2179 0.959 . S
H2165 C2179 0.961 . S
H2166 C2180 0.960 . S
H2167 C2180 0.961 . S
H2168 C2180 0.959 . S
H2169 C2183 0.929 . S
H2170 C2184 0.931 . S
H2171 C2186 0.930 . S
C2172 H2160 0.930 . S
C2172 C2173 1.399 . S
C2172 C2177 1.399 . S
C2173 C2172 1.399 . S
C2173 C2174 1.376 . S
C2174 H2161 0.930 . S
C2174 C2173 1.376 . S
C2174 C2175 1.388 . S
C2175 H2162 0.930 . S
C2175 C2174 1.388 . S
C2175 C2176 1.390 . S
C2176 C2175 1.390 . S
C2176 C2177 1.394 . S
C2176 C2182 1.465 . S
C2177 C2172 1.399 . S
C2177 C2176 1.394 . S
C2177 C2178 1.516 . S
C2178 C2177 1.516 . S
C2178 C2179 1.502 . S
C2178 C2180 1.561 . S
C2178 C2181 1.526 . S
C2179 H2163 0.959 . S
C2179 H2164 0.959 . S
C2179 H2165 0.961 . S
C2179 C2178 1.502 . S
C2180 H2166 0.960 . S
C2180 H2167 0.961 . S
C2180 H2168 0.959 . S
C2180 C2178 1.561 . S
C2181 C2178 1.526 . S
C2181 C2182 1.396 . S
C2181 C2186 1.390 . S
C2182 C2176 1.465 . S
C2182 C2181 1.396 . S
C2182 C2183 1.399 . S
C2183 H2169 0.929 . S
C2183 C2182 1.399 . S
C2183 C2184 1.385 . S
C2184 H2170 0.931 . S
C2184 C2183 1.385 . S
C2184 C2185 1.389 . S
C2185 C2184 1.389 . S
C2185 C2186 1.387 . S
C2186 H2171 0.930 . S
C2186 C2181 1.390 . S
C2186 C2185 1.387 . S
H2187 C2199 0.930 . S
H2188 C2201 0.930 . S
H2189 C2202 0.930 . S
H2190 C2206 0.959 . S
H2191 C2206 0.959 . S
H2192 C2206 0.961 . S
H2193 C2207 0.960 . S
H2194 C2207 0.961 . S
H2195 C2207 0.959 . S
H2196 C2210 0.929 . S
H2197 C2211 0.931 . S
H2198 C2213 0.930 . S
C2199 H2187 0.930 . S
C2199 C2200 1.399 . S
C2199 C2204 1.399 . S
C2200 C2199 1.399 . S
C2200 C2201 1.376 . S
C2201 H2188 0.930 . S
C2201 C2200 1.376 . S
C2201 C2202 1.388 . S
C2202 H2189 0.930 . S
C2202 C2201 1.388 . S
C2202 C2203 1.390 . S
C2203 C2202 1.390 . S
C2203 C2204 1.394 . S
C2203 C2209 1.465 . S
C2204 C2199 1.399 . S
C2204 C2203 1.394 . S
C2204 C2205 1.516 . S
C2205 C2204 1.516 . S
C2205 C2206 1.502 . S
C2205 C2207 1.561 . S
C2205 C2208 1.526 . S
C2206 H2190 0.959 . S
C2206 H2191 0.959 . S
C2206 H2192 0.961 . S
C2206 C2205 1.502 . S
C2207 H2193 0.960 . S
C2207 H2194 0.961 . S
C2207 H2195 0.959 . S
C2207 C2205 1.561 . S
C2208 C2205 1.526 . S
C2208 C2209 1.396 . S
C2208 C2213 1.390 . S
C2209 C2203 1.465 . S
C2209 C2208 1.396 . S
C2209 C2210 1.399 . S
C2210 H2196 0.929 . S
C2210 C2209 1.399 . S
C2210 C2211 1.385 . S
C2211 H2197 0.931 . S
C2211 C2210 1.385 . S
C2211 C2212 1.389 . S
C2212 C2211 1.389 . S
C2212 C2213 1.387 . S
C2213 H2198 0.930 . S
C2213 C2208 1.390 . S
C2213 C2212 1.387 . S
H2214 C2226 0.930 . S
H2215 C2228 0.930 . S
H2216 C2229 0.930 . S
H2217 C2233 0.959 . S
H2218 C2233 0.959 . S
H2219 C2233 0.961 . S
H2220 C2234 0.960 . S
H2221 C2234 0.961 . S
H2222 C2234 0.959 . S
H2223 C2237 0.929 . S
H2224 C2238 0.931 . S
H2225 C2240 0.930 . S
C2226 H2214 0.930 . S
C2226 C2227 1.399 . S
C2226 C2231 1.399 . S
C2227 C2226 1.399 . S
C2227 C2228 1.376 . S
C2228 H2215 0.930 . S
C2228 C2227 1.376 . S
C2228 C2229 1.388 . S
C2229 H2216 0.930 . S
C2229 C2228 1.388 . S
C2229 C2230 1.390 . S
C2230 C2229 1.390 . S
C2230 C2231 1.394 . S
C2230 C2236 1.465 . S
C2231 C2226 1.399 . S
C2231 C2230 1.394 . S
C2231 C2232 1.516 . S
C2232 C2231 1.516 . S
C2232 C2233 1.502 . S
C2232 C2234 1.561 . S
C2232 C2235 1.526 . S
C2233 H2217 0.959 . S
C2233 H2218 0.959 . S
C2233 H2219 0.961 . S
C2233 C2232 1.502 . S
C2234 H2220 0.960 . S
C2234 H2221 0.961 . S
C2234 H2222 0.959 . S
C2234 C2232 1.561 . S
C2235 C2232 1.526 . S
C2235 C2236 1.396 . S
C2235 C2240 1.390 . S
C2236 C2230 1.465 . S
C2236 C2235 1.396 . S
C2236 C2237 1.399 . S
C2237 H2223 0.929 . S
C2237 C2236 1.399 . S
C2237 C2238 1.385 . S
C2238 H2224 0.931 . S
C2238 C2237 1.385 . S
C2238 C2239 1.389 . S
C2239 C2238 1.389 . S
C2239 C2240 1.387 . S
C2240 H2225 0.930 . S
C2240 C2235 1.390 . S
C2240 C2239 1.387 . S
H2241 C2253 0.930 . S
H2242 C2255 0.930 . S
H2243 C2256 0.930 . S
H2244 C2260 0.959 . S
H2245 C2260 0.959 . S
H2246 C2260 0.961 . S
H2247 C2261 0.960 . S
H2248 C2261 0.961 . S
H2249 C2261 0.959 . S
H2250 C2264 0.929 . S
H2251 C2265 0.931 . S
H2252 C2267 0.930 . S
C2253 H2241 0.930 . S
C2253 C2254 1.399 . S
C2253 C2258 1.399 . S
C2254 C2253 1.399 . S
C2254 C2255 1.376 . S
C2255 H2242 0.930 . S
C2255 C2254 1.376 . S
C2255 C2256 1.388 . S
C2256 H2243 0.930 . S
C2256 C2255 1.388 . S
C2256 C2257 1.390 . S
C2257 C2256 1.390 . S
C2257 C2258 1.394 . S
C2257 C2263 1.465 . S
C2258 C2253 1.399 . S
C2258 C2257 1.394 . S
C2258 C2259 1.516 . S
C2259 C2258 1.516 . S
C2259 C2260 1.502 . S
C2259 C2261 1.561 . S
C2259 C2262 1.526 . S
C2260 H2244 0.959 . S
C2260 H2245 0.959 . S
C2260 H2246 0.961 . S
C2260 C2259 1.502 . S
C2261 H2247 0.960 . S
C2261 H2248 0.961 . S
C2261 H2249 0.959 . S
C2261 C2259 1.561 . S
C2262 C2259 1.526 . S
C2262 C2263 1.396 . S
C2262 C2267 1.390 . S
C2263 C2257 1.465 . S
C2263 C2262 1.396 . S
C2263 C2264 1.399 . S
C2264 H2250 0.929 . S
C2264 C2263 1.399 . S
C2264 C2265 1.385 . S
C2265 H2251 0.931 . S
C2265 C2264 1.385 . S
C2265 C2266 1.389 . S
C2266 C2265 1.389 . S
C2266 C2267 1.387 . S
C2267 H2252 0.930 . S
C2267 C2262 1.390 . S
C2267 C2266 1.387 . S
H2268 C2280 0.930 . S
H2269 C2282 0.930 . S
H2270 C2283 0.930 . S
H2271 C2287 0.959 . S
H2272 C2287 0.959 . S
H2273 C2287 0.961 . S
H2274 C2288 0.960 . S
H2275 C2288 0.961 . S
H2276 C2288 0.959 . S
H2277 C2291 0.929 . S
H2278 C2292 0.931 . S
H2279 C2294 0.930 . S
C2280 H2268 0.930 . S
C2280 C2281 1.399 . S
C2280 C2285 1.399 . S
C2281 C2280 1.399 . S
C2281 C2282 1.376 . S
C2282 H2269 0.930 . S
C2282 C2281 1.376 . S
C2282 C2283 1.388 . S
C2283 H2270 0.930 . S
C2283 C2282 1.388 . S
C2283 C2284 1.390 . S
C2284 C2283 1.390 . S
C2284 C2285 1.394 . S
C2284 C2290 1.465 . S
C2285 C2280 1.399 . S
C2285 C2284 1.394 . S
C2285 C2286 1.516 . S
C2286 C2285 1.516 . S
C2286 C2287 1.502 . S
C2286 C2288 1.561 . S
C2286 C2289 1.526 . S
C2287 H2271 0.959 . S
C2287 H2272 0.959 . S
C2287 H2273 0.961 . S
C2287 C2286 1.502 . S
C2288 H2274 0.960 . S
C2288 H2275 0.961 . S
C2288 H2276 0.959 . S
C2288 C2286 1.561 . S
C2289 C2286 1.526 . S
C2289 C2290 1.396 . S
C2289 C2294 1.390 . S
C2290 C2284 1.465 . S
C2290 C2289 1.396 . S
C2290 C2291 1.399 . S
C2291 H2277 0.929 . S
C2291 C2290 1.399 . S
C2291 C2292 1.385 . S
C2292 H2278 0.931 . S
C2292 C2291 1.385 . S
C2292 C2293 1.389 . S
C2293 C2292 1.389 . S
C2293 C2294 1.387 . S
C2294 H2279 0.930 . S
C2294 C2289 1.390 . S
C2294 C2293 1.387 . S
H2295 C2307 0.930 . S
H2296 C2309 0.930 . S
H2297 C2310 0.930 . S
H2298 C2314 0.959 . S
H2299 C2314 0.959 . S
H2300 C2314 0.961 . S
H2301 C2315 0.960 . S
H2302 C2315 0.961 . S
H2303 C2315 0.959 . S
H2304 C2318 0.929 . S
H2305 C2319 0.931 . S
H2306 C2321 0.930 . S
C2307 H2295 0.930 . S
C2307 C2308 1.399 . S
C2307 C2312 1.399 . S
C2308 C2307 1.399 . S
C2308 C2309 1.376 . S
C2309 H2296 0.930 . S
C2309 C2308 1.376 . S
C2309 C2310 1.388 . S
C2310 H2297 0.930 . S
C2310 C2309 1.388 . S
C2310 C2311 1.390 . S
C2311 C2310 1.390 . S
C2311 C2312 1.394 . S
C2311 C2317 1.465 . S
C2312 C2307 1.399 . S
C2312 C2311 1.394 . S
C2312 C2313 1.516 . S
C2313 C2312 1.516 . S
C2313 C2314 1.502 . S
C2313 C2315 1.561 . S
C2313 C2316 1.526 . S
C2314 H2298 0.959 . S
C2314 H2299 0.959 . S
C2314 H2300 0.961 . S
C2314 C2313 1.502 . S
C2315 H2301 0.960 . S
C2315 H2302 0.961 . S
C2315 H2303 0.959 . S
C2315 C2313 1.561 . S
C2316 C2313 1.526 . S
C2316 C2317 1.396 . S
C2316 C2321 1.390 . S
C2317 C2311 1.465 . S
C2317 C2316 1.396 . S
C2317 C2318 1.399 . S
C2318 H2304 0.929 . S
C2318 C2317 1.399 . S
C2318 C2319 1.385 . S
C2319 H2305 0.931 . S
C2319 C2318 1.385 . S
C2319 C2320 1.389 . S
C2320 C2319 1.389 . S
C2320 C2321 1.387 . S
C2321 H2306 0.930 . S
C2321 C2316 1.390 . S
C2321 C2320 1.387 . S
H2322 C2334 0.930 . S
H2323 C2336 0.930 . S
H2324 C2337 0.930 . S
H2325 C2341 0.959 . S
H2326 C2341 0.959 . S
H2327 C2341 0.961 . S
H2328 C2342 0.960 . S
H2329 C2342 0.961 . S
H2330 C2342 0.959 . S
H2331 C2345 0.929 . S
H2332 C2346 0.931 . S
H2333 C2348 0.930 . S
C2334 H2322 0.930 . S
C2334 C2335 1.399 . S
C2334 C2339 1.399 . S
C2335 C2334 1.399 . S
C2335 C2336 1.376 . S
C2336 H2323 0.930 . S
C2336 C2335 1.376 . S
C2336 C2337 1.388 . S
C2337 H2324 0.930 . S
C2337 C2336 1.388 . S
C2337 C2338 1.390 . S
C2338 C2337 1.390 . S
C2338 C2339 1.394 . S
C2338 C2344 1.465 . S
C2339 C2334 1.399 . S
C2339 C2338 1.394 . S
C2339 C2340 1.516 . S
C2340 C2339 1.516 . S
C2340 C2341 1.502 . S
C2340 C2342 1.561 . S
C2340 C2343 1.526 . S
C2341 H2325 0.959 . S
C2341 H2326 0.959 . S
C2341 H2327 0.961 . S
C2341 C2340 1.502 . S
C2342 H2328 0.960 . S
C2342 H2329 0.961 . S
C2342 H2330 0.959 . S
C2342 C2340 1.561 . S
C2343 C2340 1.526 . S
C2343 C2344 1.396 . S
C2343 C2348 1.390 . S
C2344 C2338 1.465 . S
C2344 C2343 1.396 . S
C2344 C2345 1.399 . S
C2345 H2331 0.929 . S
C2345 C2344 1.399 . S
C2345 C2346 1.385 . S
C2346 H2332 0.931 . S
C2346 C2345 1.385 . S
C2346 C2347 1.389 . S
C2347 C2346 1.389 . S
C2347 C2348 1.387 . S
C2348 H2333 0.930 . S
C2348 C2343 1.390 . S
C2348 C2347 1.387 . S
H2349 C2361 0.930 . S
H2350 C2363 0.930 . S
H2351 C2364 0.930 . S
H2352 C2368 0.959 . S
H2353 C2368 0.959 . S
H2354 C2368 0.961 . S
H2355 C2369 0.960 . S
H2356 C2369 0.961 . S
H2357 C2369 0.959 . S
H2358 C2372 0.929 . S
H2359 C2373 0.931 . S
H2360 C2375 0.930 . S
C2361 H2349 0.930 . S
C2361 C2362 1.399 . S
C2361 C2366 1.399 . S
C2362 C2361 1.399 . S
C2362 C2363 1.376 . S
C2363 H2350 0.930 . S
C2363 C2362 1.376 . S
C2363 C2364 1.388 . S
C2364 H2351 0.930 . S
C2364 C2363 1.388 . S
C2364 C2365 1.390 . S
C2365 C2364 1.390 . S
C2365 C2366 1.394 . S
C2365 C2371 1.465 . S
C2366 C2361 1.399 . S
C2366 C2365 1.394 . S
C2366 C2367 1.516 . S
C2367 C2366 1.516 . S
C2367 C2368 1.502 . S
C2367 C2369 1.561 . S
C2367 C2370 1.526 . S
C2368 H2352 0.959 . S
C2368 H2353 0.959 . S
C2368 H2354 0.961 . S
C2368 C2367 1.502 . S
C2369 H2355 0.960 . S
C2369 H2356 0.961 . S
C2369 H2357 0.959 . S
C2369 C2367 1.561 . S
C2370 C2367 1.526 . S
C2370 C2371 1.396 . S
C2370 C2375 1.390 . S
C2371 C2365 1.465 . S
C2371 C2370 1.396 . S
C2371 C2372 1.399 . S
C2372 H2358 0.929 . S
C2372 C2371 1.399 . S
C2372 C2373 1.385 . S
C2373 H2359 0.931 . S
C2373 C2372 1.385 . S
C2373 C2374 1.389 . S
C2374 C2373 1.389 . S
C2374 C2375 1.387 . S
C2375 H2360 0.930 . S
C2375 C2370 1.390 . S
C2375 C2374 1.387 . S
H2376 C2388 0.930 . S
H2377 C2390 0.930 . S
H2378 C2391 0.930 . S
H2379 C2395 0.959 . S
H2380 C2395 0.959 . S
H2381 C2395 0.961 . S
H2382 C2396 0.960 . S
H2383 C2396 0.961 . S
H2384 C2396 0.959 . S
H2385 C2399 0.929 . S
H2386 C2400 0.931 . S
H2387 C2402 0.930 . S
C2388 H2376 0.930 . S
C2388 C2389 1.399 . S
C2388 C2393 1.399 . S
C2389 C2388 1.399 . S
C2389 C2390 1.376 . S
C2390 H2377 0.930 . S
C2390 C2389 1.376 . S
C2390 C2391 1.388 . S
C2391 H2378 0.930 . S
C2391 C2390 1.388 . S
C2391 C2392 1.390 . S
C2392 C2391 1.390 . S
C2392 C2393 1.394 . S
C2392 C2398 1.465 . S
C2393 C2388 1.399 . S
C2393 C2392 1.394 . S
C2393 C2394 1.516 . S
C2394 C2393 1.516 . S
C2394 C2395 1.502 . S
C2394 C2396 1.561 . S
C2394 C2397 1.526 . S
C2395 H2379 0.959 . S
C2395 H2380 0.959 . S
C2395 H2381 0.961 . S
C2395 C2394 1.502 . S
C2396 H2382 0.960 . S
C2396 H2383 0.961 . S
C2396 H2384 0.959 . S
C2396 C2394 1.561 . S
C2397 C2394 1.526 . S
C2397 C2398 1.396 . S
C2397 C2402 1.390 . S
C2398 C2392 1.465 . S
C2398 C2397 1.396 . S
C2398 C2399 1.399 . S
C2399 H2385 0.929 . S
C2399 C2398 1.399 . S
C2399 C2400 1.385 . S
C2400 H2386 0.931 . S
C2400 C2399 1.385 . S
C2400 C2401 1.389 . S
C2401 C2400 1.389 . S
C2401 C2402 1.387 . S
C2402 H2387 0.930 . S
C2402 C2397 1.390 . S
C2402 C2401 1.387 . S
H2403 C2415 0.930 . S
H2404 C2417 0.930 . S
H2405 C2418 0.930 . S
H2406 C2422 0.959 . S
H2407 C2422 0.959 . S
H2408 C2422 0.961 . S
H2409 C2423 0.960 . S
H2410 C2423 0.961 . S
H2411 C2423 0.959 . S
H2412 C2426 0.929 . S
H2413 C2427 0.931 . S
H2414 C2429 0.930 . S
C2415 H2403 0.930 . S
C2415 C2416 1.399 . S
C2415 C2420 1.399 . S
C2416 C2415 1.399 . S
C2416 C2417 1.376 . S
C2417 H2404 0.930 . S
C2417 C2416 1.376 . S
C2417 C2418 1.388 . S
C2418 H2405 0.930 . S
C2418 C2417 1.388 . S
C2418 C2419 1.390 . S
C2419 C2418 1.390 . S
C2419 C2420 1.394 . S
C2419 C2425 1.465 . S
C2420 C2415 1.399 . S
C2420 C2419 1.394 . S
C2420 C2421 1.516 . S
C2421 C2420 1.516 . S
C2421 C2422 1.502 . S
C2421 C2423 1.561 . S
C2421 C2424 1.526 . S
C2422 H2406 0.959 . S
C2422 H2407 0.959 . S
C2422 H2408 0.961 . S
C2422 C2421 1.502 . S
C2423 H2409 0.960 . S
C2423 H2410 0.961 . S
C2423 H2411 0.959 . S
C2423 C2421 1.561 . S
C2424 C2421 1.526 . S
C2424 C2425 1.396 . S
C2424 C2429 1.390 . S
C2425 C2419 1.465 . S
C2425 C2424 1.396 . S
C2425 C2426 1.399 . S
C2426 H2412 0.929 . S
C2426 C2425 1.399 . S
C2426 C2427 1.385 . S
C2427 H2413 0.931 . S
C2427 C2426 1.385 . S
C2427 C2428 1.389 . S
C2428 C2427 1.389 . S
C2428 C2429 1.387 . S
C2429 H2414 0.930 . S
C2429 C2424 1.390 . S
C2429 C2428 1.387 . S
H2430 C2442 0.930 . S
H2431 C2444 0.930 . S
H2432 C2445 0.930 . S
H2433 C2449 0.959 . S
H2434 C2449 0.959 . S
H2435 C2449 0.961 . S
H2436 C2450 0.960 . S
H2437 C2450 0.961 . S
H2438 C2450 0.959 . S
H2439 C2453 0.929 . S
H2440 C2454 0.931 . S
H2441 C2456 0.930 . S
C2442 H2430 0.930 . S
C2442 C2443 1.399 . S
C2442 C2447 1.399 . S
C2443 C2442 1.399 . S
C2443 C2444 1.376 . S
C2444 H2431 0.930 . S
C2444 C2443 1.376 . S
C2444 C2445 1.388 . S
C2445 H2432 0.930 . S
C2445 C2444 1.388 . S
C2445 C2446 1.390 . S
C2446 C2445 1.390 . S
C2446 C2447 1.394 . S
C2446 C2452 1.465 . S
C2447 C2442 1.399 . S
C2447 C2446 1.394 . S
C2447 C2448 1.516 . S
C2448 C2447 1.516 . S
C2448 C2449 1.502 . S
C2448 C2450 1.561 . S
C2448 C2451 1.526 . S
C2449 H2433 0.959 . S
C2449 H2434 0.959 . S
C2449 H2435 0.961 . S
C2449 C2448 1.502 . S
C2450 H2436 0.960 . S
C2450 H2437 0.961 . S
C2450 H2438 0.959 . S
C2450 C2448 1.561 . S
C2451 C2448 1.526 . S
C2451 C2452 1.396 . S
C2451 C2456 1.390 . S
C2452 C2446 1.465 . S
C2452 C2451 1.396 . S
C2452 C2453 1.399 . S
C2453 H2439 0.929 . S
C2453 C2452 1.399 . S
C2453 C2454 1.385 . S
C2454 H2440 0.931 . S
C2454 C2453 1.385 . S
C2454 C2455 1.389 . S
C2455 C2454 1.389 . S
C2455 C2456 1.387 . S
C2456 H2441 0.930 . S
C2456 C2451 1.390 . S
C2456 C2455 1.387 . S
H2457 C2469 0.930 . S
H2458 C2471 0.930 . S
H2459 C2472 0.930 . S
H2460 C2476 0.959 . S
H2461 C2476 0.959 . S
H2462 C2476 0.961 . S
H2463 C2477 0.960 . S
H2464 C2477 0.961 . S
H2465 C2477 0.959 . S
H2466 C2480 0.929 . S
H2467 C2481 0.931 . S
H2468 C2483 0.930 . S
C2469 H2457 0.930 . S
C2469 C2470 1.399 . S
C2469 C2474 1.399 . S
C2470 C2469 1.399 . S
C2470 C2471 1.376 1_554 S
C2471 H2458 0.930 . S
C2471 C2470 1.376 1_556 S
C2471 C2472 1.388 . S
C2472 H2459 0.930 . S
C2472 C2471 1.388 . S
C2472 C2473 1.390 1_556 S
C2473 C2472 1.390 1_554 S
C2473 C2474 1.394 . S
C2473 C2479 1.465 . S
C2474 C2469 1.399 . S
C2474 C2473 1.394 . S
C2474 C2475 1.516 . S
C2475 C2474 1.516 . S
C2475 C2476 1.502 . S
C2475 C2477 1.561 . S
C2475 C2478 1.526 . S
C2476 H2460 0.959 . S
C2476 H2461 0.959 . S
C2476 H2462 0.961 . S
C2476 C2475 1.502 . S
C2477 H2463 0.960 . S
C2477 H2464 0.961 . S
C2477 H2465 0.959 . S
C2477 C2475 1.561 . S
C2478 C2475 1.526 . S
C2478 C2479 1.396 . S
C2478 C2483 1.390 . S
C2479 C2473 1.465 . S
C2479 C2478 1.396 . S
C2479 C2480 1.399 1_554 S
C2480 H2466 0.929 . S
C2480 C2479 1.399 1_556 S
C2480 C2481 1.385 . S
C2481 H2467 0.931 . S
C2481 C2480 1.385 . S
C2481 C2482 1.389 1_556 S
C2482 C2481 1.389 1_554 S
C2482 C2483 1.387 . S
C2483 H2468 0.930 . S
C2483 C2478 1.390 . S
C2483 C2482 1.387 . S
H2484 C2496 0.930 . S
H2485 C2498 0.930 . S
H2486 C2499 0.930 . S
H2487 C2503 0.959 . S
H2488 C2503 0.959 . S
H2489 C2503 0.961 . S
H2490 C2504 0.960 . S
H2491 C2504 0.961 . S
H2492 C2504 0.959 . S
H2493 C2507 0.929 . S
H2494 C2508 0.931 . S
H2495 C2510 0.930 . S
C2496 H2484 0.930 . S
C2496 C2497 1.399 . S
C2496 C2501 1.399 . S
C2497 C2496 1.399 . S
C2497 C2498 1.376 . S
C2498 H2485 0.930 . S
C2498 C2497 1.376 . S
C2498 C2499 1.388 . S
C2499 H2486 0.930 . S
C2499 C2498 1.388 . S
C2499 C2500 1.390 . S
C2500 C2499 1.390 . S
C2500 C2501 1.394 . S
C2500 C2506 1.465 . S
C2501 C2496 1.399 . S
C2501 C2500 1.394 . S
C2501 C2502 1.516 . S
C2502 C2501 1.516 . S
C2502 C2503 1.502 . S
C2502 C2504 1.561 . S
C2502 C2505 1.526 . S
C2503 H2487 0.959 . S
C2503 H2488 0.959 . S
C2503 H2489 0.961 . S
C2503 C2502 1.502 . S
C2504 H2490 0.960 . S
C2504 H2491 0.961 . S
C2504 H2492 0.959 . S
C2504 C2502 1.561 . S
C2505 C2502 1.526 . S
C2505 C2506 1.396 . S
C2505 C2510 1.390 . S
C2506 C2500 1.465 . S
C2506 C2505 1.396 . S
C2506 C2507 1.399 . S
C2507 H2493 0.929 . S
C2507 C2506 1.399 . S
C2507 C2508 1.385 . S
C2508 H2494 0.931 . S
C2508 C2507 1.385 . S
C2508 C2509 1.389 . S
C2509 C2508 1.389 . S
C2509 C2510 1.387 . S
C2510 H2495 0.930 . S
C2510 C2505 1.390 . S
C2510 C2509 1.387 . S
H2511 C2523 0.930 . S
H2512 C2525 0.930 . S
H2513 C2526 0.930 . S
H2514 C2530 0.959 . S
H2515 C2530 0.959 . S
H2516 C2530 0.961 . S
H2517 C2531 0.960 . S
H2518 C2531 0.961 . S
H2519 C2531 0.959 1_554 S
H2520 C2534 0.929 . S
H2521 C2535 0.931 . S
H2522 C2537 0.930 . S
C2523 H2511 0.930 . S
C2523 C2524 1.399 1_556 S
C2523 C2528 1.399 . S
C2524 C2523 1.399 1_554 S
C2524 C2525 1.376 . S
C2525 H2512 0.930 . S
C2525 C2524 1.376 . S
C2525 C2526 1.388 . S
C2526 H2513 0.930 . S
C2526 C2525 1.388 . S
C2526 C2527 1.390 . S
C2527 C2526 1.390 . S
C2527 C2528 1.394 1_554 S
C2527 C2533 1.465 . S
C2528 C2523 1.399 . S
C2528 C2527 1.394 1_556 S
C2528 C2529 1.516 . S
C2529 C2528 1.516 . S
C2529 C2530 1.502 . S
C2529 C2531 1.561 . S
C2529 C2532 1.526 . S
C2530 H2514 0.959 . S
C2530 H2515 0.959 . S
C2530 H2516 0.961 . S
C2530 C2529 1.502 . S
C2531 H2517 0.960 . S
C2531 H2518 0.961 . S
C2531 H2519 0.959 1_556 S
C2531 C2529 1.561 . S
C2532 C2529 1.526 . S
C2532 C2533 1.396 1_556 S
C2532 C2537 1.390 . S
C2533 C2527 1.465 . S
C2533 C2532 1.396 1_554 S
C2533 C2534 1.399 . S
C2534 H2520 0.929 . S
C2534 C2533 1.399 . S
C2534 C2535 1.385 . S
C2535 H2521 0.931 . S
C2535 C2534 1.385 . S
C2535 C2536 1.389 1_554 S
C2536 C2535 1.389 1_556 S
C2536 C2537 1.387 . S
C2537 H2522 0.930 . S
C2537 C2532 1.390 . S
C2537 C2536 1.387 . S
H2538 C2550 0.930 . S
H2539 C2552 0.930 . S
H2540 C2553 0.930 . S
H2541 C2557 0.959 . S
H2542 C2557 0.959 . S
H2543 C2557 0.961 . S
H2544 C2558 0.960 . S
H2545 C2558 0.961 . S
H2546 C2558 0.959 . S
H2547 C2561 0.929 . S
H2548 C2562 0.931 . S
H2549 C2564 0.930 . S
C2550 H2538 0.930 . S
C2550 C2551 1.399 . S
C2550 C2555 1.399 . S
C2551 C2550 1.399 . S
C2551 C2552 1.376 . S
C2552 H2539 0.930 . S
C2552 C2551 1.376 . S
C2552 C2553 1.388 . S
C2553 H2540 0.930 . S
C2553 C2552 1.388 . S
C2553 C2554 1.390 . S
C2554 C2553 1.390 . S
C2554 C2555 1.394 . S
C2554 C2560 1.465 . S
C2555 C2550 1.399 . S
C2555 C2554 1.394 . S
C2555 C2556 1.516 . S
C2556 C2555 1.516 . S
C2556 C2557 1.502 . S
C2556 C2558 1.561 . S
C2556 C2559 1.526 . S
C2557 H2541 0.959 . S
C2557 H2542 0.959 . S
C2557 H2543 0.961 . S
C2557 C2556 1.502 . S
C2558 H2544 0.960 . S
C2558 H2545 0.961 . S
C2558 H2546 0.959 . S
C2558 C2556 1.561 . S
C2559 C2556 1.526 . S
C2559 C2560 1.396 . S
C2559 C2564 1.390 . S
C2560 C2554 1.465 . S
C2560 C2559 1.396 . S
C2560 C2561 1.399 . S
C2561 H2547 0.929 . S
C2561 C2560 1.399 . S
C2561 C2562 1.385 . S
C2562 H2548 0.931 . S
C2562 C2561 1.385 . S
C2562 C2563 1.389 . S
C2563 C2562 1.389 . S
C2563 C2564 1.387 . S
C2564 H2549 0.930 . S
C2564 C2559 1.390 . S
C2564 C2563 1.387 . S
H2565 C2577 0.930 . S
H2566 C2579 0.930 . S
H2567 C2580 0.930 . S
H2568 C2584 0.959 . S
H2569 C2584 0.959 . S
H2570 C2584 0.961 . S
H2571 C2585 0.960 . S
H2572 C2585 0.961 . S
H2573 C2585 0.959 . S
H2574 C2588 0.929 . S
H2575 C2589 0.931 . S
H2576 C2591 0.930 . S
C2577 H2565 0.930 . S
C2577 C2578 1.399 . S
C2577 C2582 1.399 . S
C2578 C2577 1.399 . S
C2578 C2579 1.376 . S
C2579 H2566 0.930 . S
C2579 C2578 1.376 . S
C2579 C2580 1.388 . S
C2580 H2567 0.930 . S
C2580 C2579 1.388 . S
C2580 C2581 1.390 . S
C2581 C2580 1.390 . S
C2581 C2582 1.394 . S
C2581 C2587 1.465 . S
C2582 C2577 1.399 . S
C2582 C2581 1.394 . S
C2582 C2583 1.516 . S
C2583 C2582 1.516 . S
C2583 C2584 1.502 . S
C2583 C2585 1.561 . S
C2583 C2586 1.526 . S
C2584 H2568 0.959 . S
C2584 H2569 0.959 . S
C2584 H2570 0.961 . S
C2584 C2583 1.502 . S
C2585 H2571 0.960 . S
C2585 H2572 0.961 . S
C2585 H2573 0.959 . S
C2585 C2583 1.561 . S
C2586 C2583 1.526 . S
C2586 C2587 1.396 . S
C2586 C2591 1.390 . S
C2587 C2581 1.465 . S
C2587 C2586 1.396 . S
C2587 C2588 1.399 . S
C2588 H2574 0.929 . S
C2588 C2587 1.399 . S
C2588 C2589 1.385 . S
C2589 H2575 0.931 . S
C2589 C2588 1.385 . S
C2589 C2590 1.389 . S
C2590 C2589 1.389 . S
C2590 C2591 1.387 . S
C2591 H2576 0.930 . S
C2591 C2586 1.390 . S
C2591 C2590 1.387 . S
H2592 C2604 0.930 . S
H2593 C2606 0.930 . S
H2594 C2607 0.930 . S
H2595 C2611 0.959 . S
H2596 C2611 0.959 . S
H2597 C2611 0.961 . S
H2598 C2612 0.960 . S
H2599 C2612 0.961 . S
H2600 C2612 0.959 . S
H2601 C2615 0.929 . S
H2602 C2616 0.931 . S
H2603 C2618 0.930 . S
C2604 H2592 0.930 . S
C2604 C2605 1.399 . S
C2604 C2609 1.399 . S
C2605 C2604 1.399 . S
C2605 C2606 1.376 . S
C2606 H2593 0.930 . S
C2606 C2605 1.376 . S
C2606 C2607 1.388 . S
C2607 H2594 0.930 . S
C2607 C2606 1.388 . S
C2607 C2608 1.390 . S
C2608 C2607 1.390 . S
C2608 C2609 1.394 . S
C2608 C2614 1.465 . S
C2609 C2604 1.399 . S
C2609 C2608 1.394 . S
C2609 C2610 1.516 . S
C2610 C2609 1.516 . S
C2610 C2611 1.502 . S
C2610 C2612 1.561 . S
C2610 C2613 1.526 . S
C2611 H2595 0.959 . S
C2611 H2596 0.959 . S
C2611 H2597 0.961 . S
C2611 C2610 1.502 . S
C2612 H2598 0.960 . S
C2612 H2599 0.961 . S
C2612 H2600 0.959 . S
C2612 C2610 1.561 . S
C2613 C2610 1.526 . S
C2613 C2614 1.396 . S
C2613 C2618 1.390 . S
C2614 C2608 1.465 . S
C2614 C2613 1.396 . S
C2614 C2615 1.399 . S
C2615 H2601 0.929 . S
C2615 C2614 1.399 . S
C2615 C2616 1.385 . S
C2616 H2602 0.931 . S
C2616 C2615 1.385 . S
C2616 C2617 1.389 . S
C2617 C2616 1.389 . S
C2617 C2618 1.387 . S
C2618 H2603 0.930 . S
C2618 C2613 1.390 . S
C2618 C2617 1.387 . S
H2619 C2631 0.930 . S
H2620 C2633 0.930 . S
H2621 C2634 0.930 . S
H2622 C2638 0.959 . S
H2623 C2638 0.959 . S
H2624 C2638 0.961 . S
H2625 C2639 0.960 . S
H2626 C2639 0.961 . S
H2627 C2639 0.959 . S
H2628 C2642 0.929 . S
H2629 C2643 0.931 . S
H2630 C2645 0.930 . S
C2631 H2619 0.930 . S
C2631 C2632 1.399 . S
C2631 C2636 1.399 . S
C2632 C2631 1.399 . S
C2632 C2633 1.376 . S
C2633 H2620 0.930 . S
C2633 C2632 1.376 . S
C2633 C2634 1.388 . S
C2634 H2621 0.930 . S
C2634 C2633 1.388 . S
C2634 C2635 1.390 . S
C2635 C2634 1.390 . S
C2635 C2636 1.394 . S
C2635 C2641 1.465 . S
C2636 C2631 1.399 . S
C2636 C2635 1.394 . S
C2636 C2637 1.516 . S
C2637 C2636 1.516 . S
C2637 C2638 1.502 . S
C2637 C2639 1.561 . S
C2637 C2640 1.526 . S
C2638 H2622 0.959 . S
C2638 H2623 0.959 . S
C2638 H2624 0.961 . S
C2638 C2637 1.502 . S
C2639 H2625 0.960 . S
C2639 H2626 0.961 . S
C2639 H2627 0.959 . S
C2639 C2637 1.561 . S
C2640 C2637 1.526 . S
C2640 C2641 1.396 . S
C2640 C2645 1.390 . S
C2641 C2635 1.465 . S
C2641 C2640 1.396 . S
C2641 C2642 1.399 . S
C2642 H2628 0.929 . S
C2642 C2641 1.399 . S
C2642 C2643 1.385 . S
C2643 H2629 0.931 . S
C2643 C2642 1.385 . S
C2643 C2644 1.389 . S
C2644 C2643 1.389 . S
C2644 C2645 1.387 . S
C2645 H2630 0.930 . S
C2645 C2640 1.390 . S
C2645 C2644 1.387 . S
H2646 C2658 0.930 . S
H2647 C2660 0.930 . S
H2648 C2661 0.930 . S
H2649 C2665 0.959 . S
H2650 C2665 0.959 . S
H2651 C2665 0.961 . S
H2652 C2666 0.960 . S
H2653 C2666 0.961 . S
H2654 C2666 0.959 . S
H2655 C2669 0.929 . S
H2656 C2670 0.931 . S
H2657 C2672 0.930 . S
C2658 H2646 0.930 . S
C2658 C2659 1.399 1_655 S
C2658 C2663 1.399 . S
C2659 C2658 1.399 1_455 S
C2659 C2660 1.376 . S
C2660 H2647 0.930 . S
C2660 C2659 1.376 . S
C2660 C2661 1.388 . S
C2661 H2648 0.930 . S
C2661 C2660 1.388 . S
C2661 C2662 1.390 . S
C2662 C2661 1.390 . S
C2662 C2663 1.394 1_455 S
C2662 C2668 1.465 . S
C2663 C2658 1.399 . S
C2663 C2662 1.394 1_655 S
C2663 C2664 1.516 . S
C2664 C2663 1.516 . S
C2664 C2665 1.502 . S
C2664 C2666 1.561 . S
C2664 C2667 1.526 . S
C2665 H2649 0.959 . S
C2665 H2650 0.959 . S
C2665 H2651 0.961 . S
C2665 C2664 1.502 . S
C2666 H2652 0.960 . S
C2666 H2653 0.961 . S
C2666 H2654 0.959 . S
C2666 C2664 1.561 . S
C2667 C2664 1.526 . S
C2667 C2668 1.396 1_655 S
C2667 C2672 1.390 . S
C2668 C2662 1.465 . S
C2668 C2667 1.396 1_455 S
C2668 C2669 1.399 . S
C2669 H2655 0.929 . S
C2669 C2668 1.399 . S
C2669 C2670 1.385 . S
C2670 H2656 0.931 . S
C2670 C2669 1.385 . S
C2670 C2671 1.389 . S
C2671 C2670 1.389 . S
C2671 C2672 1.387 1_455 S
C2672 H2657 0.930 . S
C2672 C2667 1.390 . S
C2672 C2671 1.387 1_655 S
H2673 C2685 0.930 . S
H2674 C2687 0.930 . S
H2675 C2688 0.930 . S
H2676 C2692 0.959 . S
H2677 C2692 0.959 . S
H2678 C2692 0.961 . S
H2679 C2693 0.960 . S
H2680 C2693 0.961 . S
H2681 C2693 0.959 . S
H2682 C2696 0.929 . S
H2683 C2697 0.931 . S
H2684 C2699 0.930 . S
C2685 H2673 0.930 . S
C2685 C2686 1.399 . S
C2685 C2690 1.399 . S
C2686 C2685 1.399 . S
C2686 C2687 1.376 . S
C2687 H2674 0.930 . S
C2687 C2686 1.376 . S
C2687 C2688 1.388 . S
C2688 H2675 0.930 . S
C2688 C2687 1.388 . S
C2688 C2689 1.390 . S
C2689 C2688 1.390 . S
C2689 C2690 1.394 . S
C2689 C2695 1.465 . S
C2690 C2685 1.399 . S
C2690 C2689 1.394 . S
C2690 C2691 1.516 . S
C2691 C2690 1.516 . S
C2691 C2692 1.502 . S
C2691 C2693 1.561 . S
C2691 C2694 1.526 . S
C2692 H2676 0.959 . S
C2692 H2677 0.959 . S
C2692 H2678 0.961 . S
C2692 C2691 1.502 . S
C2693 H2679 0.960 . S
C2693 H2680 0.961 . S
C2693 H2681 0.959 . S
C2693 C2691 1.561 . S
C2694 C2691 1.526 . S
C2694 C2695 1.396 . S
C2694 C2699 1.390 . S
C2695 C2689 1.465 . S
C2695 C2694 1.396 . S
C2695 C2696 1.399 . S
C2696 H2682 0.929 . S
C2696 C2695 1.399 . S
C2696 C2697 1.385 . S
C2697 H2683 0.931 . S
C2697 C2696 1.385 . S
C2697 C2698 1.389 . S
C2698 C2697 1.389 . S
C2698 C2699 1.387 . S
C2699 H2684 0.930 . S
C2699 C2694 1.390 . S
C2699 C2698 1.387 . S
H2700 C2712 0.930 . S
H2701 C2714 0.930 . S
H2702 C2715 0.930 . S
H2703 C2719 0.959 . S
H2704 C2719 0.959 . S
H2705 C2719 0.961 . S
H2706 C2720 0.960 . S
H2707 C2720 0.961 . S
H2708 C2720 0.959 . S
H2709 C2723 0.929 . S
H2710 C2724 0.931 . S
H2711 C2726 0.930 . S
C2712 H2700 0.930 . S
C2712 C2713 1.399 . S
C2712 C2717 1.399 . S
C2713 C2712 1.399 . S
C2713 C2714 1.376 . S
C2714 H2701 0.930 . S
C2714 C2713 1.376 . S
C2714 C2715 1.388 . S
C2715 H2702 0.930 . S
C2715 C2714 1.388 . S
C2715 C2716 1.390 . S
C2716 C2715 1.390 . S
C2716 C2717 1.394 . S
C2716 C2722 1.465 . S
C2717 C2712 1.399 . S
C2717 C2716 1.394 . S
C2717 C2718 1.516 . S
C2718 C2717 1.516 . S
C2718 C2719 1.502 . S
C2718 C2720 1.561 . S
C2718 C2721 1.526 . S
C2719 H2703 0.959 . S
C2719 H2704 0.959 . S
C2719 H2705 0.961 . S
C2719 C2718 1.502 . S
C2720 H2706 0.960 . S
C2720 H2707 0.961 . S
C2720 H2708 0.959 . S
C2720 C2718 1.561 . S
C2721 C2718 1.526 . S
C2721 C2722 1.396 . S
C2721 C2726 1.390 . S
C2722 C2716 1.465 . S
C2722 C2721 1.396 . S
C2722 C2723 1.399 . S
C2723 H2709 0.929 . S
C2723 C2722 1.399 . S
C2723 C2724 1.385 . S
C2724 H2710 0.931 . S
C2724 C2723 1.385 . S
C2724 C2725 1.389 . S
C2725 C2724 1.389 . S
C2725 C2726 1.387 . S
C2726 H2711 0.930 . S
C2726 C2721 1.390 . S
C2726 C2725 1.387 . S
H2727 C2739 0.930 . S
H2728 C2741 0.930 . S
H2729 C2742 0.930 . S
H2730 C2746 0.959 . S
H2731 C2746 0.959 . S
H2732 C2746 0.961 . S
H2733 C2747 0.960 . S
H2734 C2747 0.961 . S
H2735 C2747 0.959 . S
H2736 C2750 0.929 . S
H2737 C2751 0.931 . S
H2738 C2753 0.930 . S
C2739 H2727 0.930 . S
C2739 C2740 1.399 . S
C2739 C2744 1.399 . S
C2740 C2739 1.399 . S
C2740 C2741 1.376 . S
C2741 H2728 0.930 . S
C2741 C2740 1.376 . S
C2741 C2742 1.388 . S
C2742 H2729 0.930 . S
C2742 C2741 1.388 . S
C2742 C2743 1.390 . S
C2743 C2742 1.390 . S
C2743 C2744 1.394 . S
C2743 C2749 1.465 . S
C2744 C2739 1.399 . S
C2744 C2743 1.394 . S
C2744 C2745 1.516 . S
C2745 C2744 1.516 . S
C2745 C2746 1.502 . S
C2745 C2747 1.561 . S
C2745 C2748 1.526 . S
C2746 H2730 0.959 . S
C2746 H2731 0.959 . S
C2746 H2732 0.961 . S
C2746 C2745 1.502 . S
C2747 H2733 0.960 . S
C2747 H2734 0.961 . S
C2747 H2735 0.959 . S
C2747 C2745 1.561 . S
C2748 C2745 1.526 . S
C2748 C2749 1.396 . S
C2748 C2753 1.390 . S
C2749 C2743 1.465 . S
C2749 C2748 1.396 . S
C2749 C2750 1.399 . S
C2750 H2736 0.929 . S
C2750 C2749 1.399 . S
C2750 C2751 1.385 . S
C2751 H2737 0.931 . S
C2751 C2750 1.385 . S
C2751 C2752 1.389 . S
C2752 C2751 1.389 . S
C2752 C2753 1.387 . S
C2753 H2738 0.930 . S
C2753 C2748 1.390 . S
C2753 C2752 1.387 . S
H2754 C2766 0.963 . S
H2755 C2768 0.930 . S
H2756 C2769 0.930 . S
H2757 C2773 0.959 . S
H2758 C2773 0.959 . S
H2759 C2773 0.961 . S
H2760 C2774 0.960 . S
H2761 C2774 0.961 . S
H2762 C2774 0.959 1_455 S
H2763 C2777 0.929 . S
H2764 C2778 0.931 . S
H2765 C2780 0.930 . S
C2766 H2754 0.963 . S
C2766 C2767 1.371 1_655 S
C2766 C2771 1.395 1_655 S
C2767 C2766 1.371 1_455 S
C2767 C2768 1.376 . S
C2768 H2755 0.930 . S
C2768 C2767 1.376 . S
C2768 C2769 1.388 . S
C2769 H2756 0.930 . S
C2769 C2768 1.388 . S
C2769 C2770 1.390 . S
C2770 C2769 1.390 . S
C2770 C2771 1.394 . S
C2770 C2776 1.465 . S
C2771 C2766 1.395 1_455 S
C2771 C2770 1.394 . S
C2771 C2772 1.516 1_455 S
C2772 C2771 1.516 1_655 S
C2772 C2773 1.502 . S
C2772 C2774 1.561 . S
C2772 C2775 1.526 . S
C2773 H2757 0.959 . S
C2773 H2758 0.959 . S
C2773 H2759 0.961 . S
C2773 C2772 1.502 . S
C2774 H2760 0.960 . S
C2774 H2761 0.961 . S
C2774 H2762 0.959 1_655 S
C2774 C2772 1.561 . S
C2775 C2772 1.526 . S
C2775 C2776 1.396 1_655 S
C2775 C2780 1.390 . S
C2776 C2770 1.465 . S
C2776 C2775 1.396 1_455 S
C2776 C2777 1.399 . S
C2777 H2763 0.929 . S
C2777 C2776 1.399 . S
C2777 C2778 1.385 . S
C2778 H2764 0.931 . S
C2778 C2777 1.385 . S
C2778 C2779 1.389 . S
C2779 C2778 1.389 . S
C2779 C2780 1.387 1_455 S
C2780 H2765 0.930 . S
C2780 C2775 1.390 . S
C2780 C2779 1.387 1_655 S
H2781 C2793 0.930 . S
H2782 C2795 0.930 . S
H2783 C2796 0.930 . S
H2784 C2800 0.959 . S
H2785 C2800 0.959 . S
H2786 C2800 0.961 . S
H2787 C2801 0.960 . S
H2788 C2801 0.961 . S
H2789 C2801 0.959 . S
H2790 C2804 0.929 . S
H2791 C2805 0.931 . S
H2792 C2807 0.930 . S
C2793 H2781 0.930 . S
C2793 C2794 1.399 . S
C2793 C2798 1.399 . S
C2794 C2793 1.399 . S
C2794 C2795 1.376 . S
C2795 H2782 0.930 . S
C2795 C2794 1.376 . S
C2795 C2796 1.388 . S
C2796 H2783 0.930 . S
C2796 C2795 1.388 . S
C2796 C2797 1.390 . S
C2797 C2796 1.390 . S
C2797 C2798 1.394 . S
C2797 C2803 1.465 . S
C2798 C2793 1.399 . S
C2798 C2797 1.394 . S
C2798 C2799 1.516 . S
C2799 C2798 1.516 . S
C2799 C2800 1.502 . S
C2799 C2801 1.561 . S
C2799 C2802 1.526 . S
C2800 H2784 0.959 . S
C2800 H2785 0.959 . S
C2800 H2786 0.961 . S
C2800 C2799 1.502 . S
C2801 H2787 0.960 . S
C2801 H2788 0.961 . S
C2801 H2789 0.959 . S
C2801 C2799 1.561 . S
C2802 C2799 1.526 . S
C2802 C2803 1.396 . S
C2802 C2807 1.390 . S
C2803 C2797 1.465 . S
C2803 C2802 1.396 . S
C2803 C2804 1.399 . S
C2804 H2790 0.929 . S
C2804 C2803 1.399 . S
C2804 C2805 1.385 . S
C2805 H2791 0.931 . S
C2805 C2804 1.385 . S
C2805 C2806 1.389 . S
C2806 C2805 1.389 . S
C2806 C2807 1.387 . S
C2807 H2792 0.930 . S
C2807 C2802 1.390 . S
C2807 C2806 1.387 . S
H2808 C2820 0.930 . S
H2809 C2822 0.930 . S
H2810 C2823 0.930 . S
H2811 C2827 0.959 . S
H2812 C2827 0.959 . S
H2813 C2827 0.961 . S
H2814 C2828 0.960 . S
H2815 C2828 0.961 . S
H2816 C2828 0.959 . S
H2817 C2831 0.929 . S
H2818 C2832 0.931 . S
H2819 C2834 0.930 . S
C2820 H2808 0.930 . S
C2820 C2821 1.399 . S
C2820 C2825 1.399 . S
C2821 C2820 1.399 . S
C2821 C2822 1.376 . S
C2822 H2809 0.930 . S
C2822 C2821 1.376 . S
C2822 C2823 1.388 . S
C2823 H2810 0.930 . S
C2823 C2822 1.388 . S
C2823 C2824 1.390 . S
C2824 C2823 1.390 . S
C2824 C2825 1.394 . S
C2824 C2830 1.465 . S
C2825 C2820 1.399 . S
C2825 C2824 1.394 . S
C2825 C2826 1.516 . S
C2826 C2825 1.516 . S
C2826 C2827 1.502 . S
C2826 C2828 1.561 . S
C2826 C2829 1.526 . S
C2827 H2811 0.959 . S
C2827 H2812 0.959 . S
C2827 H2813 0.961 . S
C2827 C2826 1.502 . S
C2828 H2814 0.960 . S
C2828 H2815 0.961 . S
C2828 H2816 0.959 . S
C2828 C2826 1.561 . S
C2829 C2826 1.526 . S
C2829 C2830 1.396 . S
C2829 C2834 1.390 . S
C2830 C2824 1.465 . S
C2830 C2829 1.396 . S
C2830 C2831 1.399 . S
C2831 H2817 0.929 . S
C2831 C2830 1.399 . S
C2831 C2832 1.385 . S
C2832 H2818 0.931 . S
C2832 C2831 1.385 . S
C2832 C2833 1.389 . S
C2833 C2832 1.389 . S
C2833 C2834 1.387 . S
C2834 H2819 0.930 . S
C2834 C2829 1.390 . S
C2834 C2833 1.387 . S
H2835 C2847 0.930 . S
H2836 C2849 0.930 . S
H2837 C2850 0.930 . S
H2838 C2854 0.959 . S
H2839 C2854 0.959 . S
H2840 C2854 0.961 . S
H2841 C2855 0.960 . S
H2842 C2855 0.961 . S
H2843 C2855 0.959 . S
H2844 C2858 0.929 . S
H2845 C2859 0.931 . S
H2846 C2861 0.930 . S
C2847 H2835 0.930 . S
C2847 C2848 1.399 . S
C2847 C2852 1.399 . S
C2848 C2847 1.399 . S
C2848 C2849 1.376 . S
C2849 H2836 0.930 . S
C2849 C2848 1.376 . S
C2849 C2850 1.388 . S
C2850 H2837 0.930 . S
C2850 C2849 1.388 . S
C2850 C2851 1.390 . S
C2851 C2850 1.390 . S
C2851 C2852 1.394 . S
C2851 C2857 1.465 . S
C2852 C2847 1.399 . S
C2852 C2851 1.394 . S
C2852 C2853 1.516 . S
C2853 C2852 1.516 . S
C2853 C2854 1.502 . S
C2853 C2855 1.561 . S
C2853 C2856 1.526 . S
C2854 H2838 0.959 . S
C2854 H2839 0.959 . S
C2854 H2840 0.961 . S
C2854 C2853 1.502 . S
C2855 H2841 0.960 . S
C2855 H2842 0.961 . S
C2855 H2843 0.959 . S
C2855 C2853 1.561 . S
C2856 C2853 1.526 . S
C2856 C2857 1.396 . S
C2856 C2861 1.390 . S
C2857 C2851 1.465 . S
C2857 C2856 1.396 . S
C2857 C2858 1.399 . S
C2858 H2844 0.929 . S
C2858 C2857 1.399 . S
C2858 C2859 1.385 . S
C2859 H2845 0.931 . S
C2859 C2858 1.385 . S
C2859 C2860 1.389 . S
C2860 C2859 1.389 . S
C2860 C2861 1.387 . S
C2861 H2846 0.930 . S
C2861 C2856 1.390 . S
C2861 C2860 1.387 . S
H2862 C2874 0.930 . S
H2863 C2876 0.930 . S
H2864 C2877 0.930 . S
H2865 C2881 0.959 . S
H2866 C2881 0.959 . S
H2867 C2881 0.961 . S
H2868 C2882 0.960 . S
H2869 C2882 0.961 . S
H2870 C2882 0.959 . S
H2871 C2885 0.929 . S
H2872 C2886 0.931 . S
H2873 C2888 0.930 . S
C2874 H2862 0.930 . S
C2874 C2875 1.399 . S
C2874 C2879 1.399 . S
C2875 C2874 1.399 . S
C2875 C2876 1.376 . S
C2876 H2863 0.930 . S
C2876 C2875 1.376 . S
C2876 C2877 1.388 . S
C2877 H2864 0.930 . S
C2877 C2876 1.388 . S
C2877 C2878 1.390 . S
C2878 C2877 1.390 . S
C2878 C2879 1.394 . S
C2878 C2884 1.465 . S
C2879 C2874 1.399 . S
C2879 C2878 1.394 . S
C2879 C2880 1.516 . S
C2880 C2879 1.516 . S
C2880 C2881 1.502 . S
C2880 C2882 1.561 . S
C2880 C2883 1.526 . S
C2881 H2865 0.959 . S
C2881 H2866 0.959 . S
C2881 H2867 0.961 . S
C2881 C2880 1.502 . S
C2882 H2868 0.960 . S
C2882 H2869 0.961 . S
C2882 H2870 0.959 . S
C2882 C2880 1.561 . S
C2883 C2880 1.526 . S
C2883 C2884 1.396 . S
C2883 C2888 1.390 . S
C2884 C2878 1.465 . S
C2884 C2883 1.396 . S
C2884 C2885 1.399 . S
C2885 H2871 0.929 . S
C2885 C2884 1.399 . S
C2885 C2886 1.385 . S
C2886 H2872 0.931 . S
C2886 C2885 1.385 . S
C2886 C2887 1.389 . S
C2887 C2886 1.389 . S
C2887 C2888 1.387 . S
C2888 H2873 0.930 . S
C2888 C2883 1.390 . S
C2888 C2887 1.387 . S
H2889 C2901 0.930 . S
H2890 C2903 0.930 . S
H2891 C2904 0.930 . S
H2892 C2908 0.959 . S
H2893 C2908 0.959 . S
H2894 C2908 0.961 . S
H2895 C2909 0.960 . S
H2896 C2909 0.961 . S
H2897 C2909 0.959 . S
H2898 C2912 0.929 . S
H2899 C2913 0.931 . S
H2900 C2915 0.930 . S
C2901 H2889 0.930 . S
C2901 C2902 1.399 . S
C2901 C2906 1.399 . S
C2902 C2901 1.399 . S
C2902 C2903 1.376 . S
C2903 H2890 0.930 . S
C2903 C2902 1.376 . S
C2903 C2904 1.388 . S
C2904 H2891 0.930 . S
C2904 C2903 1.388 . S
C2904 C2905 1.390 . S
C2905 C2904 1.390 . S
C2905 C2906 1.394 . S
C2905 C2911 1.465 . S
C2906 C2901 1.399 . S
C2906 C2905 1.394 . S
C2906 C2907 1.516 . S
C2907 C2906 1.516 . S
C2907 C2908 1.502 . S
C2907 C2909 1.561 . S
C2907 C2910 1.526 . S
C2908 H2892 0.959 . S
C2908 H2893 0.959 . S
C2908 H2894 0.961 . S
C2908 C2907 1.502 . S
C2909 H2895 0.960 . S
C2909 H2896 0.961 . S
C2909 H2897 0.959 . S
C2909 C2907 1.561 . S
C2910 C2907 1.526 . S
C2910 C2911 1.396 . S
C2910 C2915 1.390 . S
C2911 C2905 1.465 . S
C2911 C2910 1.396 . S
C2911 C2912 1.399 . S
C2912 H2898 0.929 . S
C2912 C2911 1.399 . S
C2912 C2913 1.385 . S
C2913 H2899 0.931 . S
C2913 C2912 1.385 . S
C2913 C2914 1.389 . S
C2914 C2913 1.389 . S
C2914 C2915 1.387 . S
C2915 H2900 0.930 . S
C2915 C2910 1.390 . S
C2915 C2914 1.387 . S
H2916 C2928 0.930 . S
H2917 C2930 0.930 . S
H2918 C2931 0.930 . S
H2919 C2935 0.959 . S
H2920 C2935 0.959 . S
H2921 C2935 0.961 . S
H2922 C2936 0.960 . S
H2923 C2936 0.961 . S
H2924 C2936 0.959 . S
H2925 C2939 0.929 . S
H2926 C2940 0.931 . S
H2927 C2942 0.930 . S
C2928 H2916 0.930 . S
C2928 C2929 1.399 . S
C2928 C2933 1.399 . S
C2929 C2928 1.399 . S
C2929 C2930 1.376 . S
C2930 H2917 0.930 . S
C2930 C2929 1.376 . S
C2930 C2931 1.388 . S
C2931 H2918 0.930 . S
C2931 C2930 1.388 . S
C2931 C2932 1.390 . S
C2932 C2931 1.390 . S
C2932 C2933 1.394 . S
C2932 C2938 1.465 . S
C2933 C2928 1.399 . S
C2933 C2932 1.394 . S
C2933 C2934 1.516 . S
C2934 C2933 1.516 . S
C2934 C2935 1.502 . S
C2934 C2936 1.561 . S
C2934 C2937 1.526 . S
C2935 H2919 0.959 . S
C2935 H2920 0.959 . S
C2935 H2921 0.961 . S
C2935 C2934 1.502 . S
C2936 H2922 0.960 . S
C2936 H2923 0.961 . S
C2936 H2924 0.959 . S
C2936 C2934 1.561 . S
C2937 C2934 1.526 . S
C2937 C2938 1.396 . S
C2937 C2942 1.390 . S
C2938 C2932 1.465 . S
C2938 C2937 1.396 . S
C2938 C2939 1.399 . S
C2939 H2925 0.929 . S
C2939 C2938 1.399 . S
C2939 C2940 1.385 . S
C2940 H2926 0.931 . S
C2940 C2939 1.385 . S
C2940 C2941 1.389 . S
C2941 C2940 1.389 . S
C2941 C2942 1.387 . S
C2942 H2927 0.930 . S
C2942 C2937 1.390 . S
C2942 C2941 1.387 . S
H2943 C2955 0.930 . S
H2944 C2957 0.930 . S
H2945 C2958 0.930 . S
H2946 C2962 0.959 . S
H2947 C2962 0.959 . S
H2948 C2962 0.961 . S
H2949 C2963 0.960 . S
H2950 C2963 0.961 . S
H2951 C2963 0.959 . S
H2952 C2966 0.929 . S
H2953 C2967 0.931 . S
H2954 C2969 0.930 . S
C2955 H2943 0.930 . S
C2955 C2956 1.399 . S
C2955 C2960 1.399 . S
C2956 C2955 1.399 . S
C2956 C2957 1.376 . S
C2957 H2944 0.930 . S
C2957 C2956 1.376 . S
C2957 C2958 1.388 . S
C2958 H2945 0.930 . S
C2958 C2957 1.388 . S
C2958 C2959 1.390 . S
C2959 C2958 1.390 . S
C2959 C2960 1.394 . S
C2959 C2965 1.465 . S
C2960 C2955 1.399 . S
C2960 C2959 1.394 . S
C2960 C2961 1.516 . S
C2961 C2960 1.516 . S
C2961 C2962 1.502 . S
C2961 C2963 1.561 . S
C2961 C2964 1.526 . S
C2962 H2946 0.959 . S
C2962 H2947 0.959 . S
C2962 H2948 0.961 . S
C2962 C2961 1.502 . S
C2963 H2949 0.960 . S
C2963 H2950 0.961 . S
C2963 H2951 0.959 . S
C2963 C2961 1.561 . S
C2964 C2961 1.526 . S
C2964 C2965 1.396 . S
C2964 C2969 1.390 . S
C2965 C2959 1.465 . S
C2965 C2964 1.396 . S
C2965 C2966 1.399 . S
C2966 H2952 0.929 . S
C2966 C2965 1.399 . S
C2966 C2967 1.385 . S
C2967 H2953 0.931 . S
C2967 C2966 1.385 . S
C2967 C2968 1.389 . S
C2968 C2967 1.389 . S
C2968 C2969 1.387 . S
C2969 H2954 0.930 . S
C2969 C2964 1.390 . S
C2969 C2968 1.387 . S
H2970 C2982 0.930 . S
H2971 C2984 0.930 . S
H2972 C2985 0.930 . S
H2973 C2989 0.959 . S
H2974 C2989 0.959 . S
H2975 C2989 0.961 . S
H2976 C2990 0.960 . S
H2977 C2990 0.961 . S
H2978 C2990 0.959 . S
H2979 C2993 0.929 . S
H2980 C2994 0.931 . S
H2981 C2996 0.930 . S
C2982 H2970 0.930 . S
C2982 C2983 1.399 . S
C2982 C2987 1.399 . S
C2983 C2982 1.399 . S
C2983 C2984 1.376 . S
C2984 H2971 0.930 . S
C2984 C2983 1.376 . S
C2984 C2985 1.388 . S
C2985 H2972 0.930 . S
C2985 C2984 1.388 . S
C2985 C2986 1.390 . S
C2986 C2985 1.390 . S
C2986 C2987 1.394 . S
C2986 C2992 1.465 . S
C2987 C2982 1.399 . S
C2987 C2986 1.394 . S
C2987 C2988 1.516 . S
C2988 C2987 1.516 . S
C2988 C2989 1.502 . S
C2988 C2990 1.561 . S
C2988 C2991 1.526 . S
C2989 H2973 0.959 . S
C2989 H2974 0.959 . S
C2989 H2975 0.961 . S
C2989 C2988 1.502 . S
C2990 H2976 0.960 . S
C2990 H2977 0.961 . S
C2990 H2978 0.959 . S
C2990 C2988 1.561 . S
C2991 C2988 1.526 . S
C2991 C2992 1.396 . S
C2991 C2996 1.390 . S
C2992 C2986 1.465 . S
C2992 C2991 1.396 . S
C2992 C2993 1.399 . S
C2993 H2979 0.929 . S
C2993 C2992 1.399 . S
C2993 C2994 1.385 . S
C2994 H2980 0.931 . S
C2994 C2993 1.385 . S
C2994 C2995 1.389 . S
C2995 C2994 1.389 . S
C2995 C2996 1.387 . S
C2996 H2981 0.930 . S
C2996 C2991 1.390 . S
C2996 C2995 1.387 . S
H2997 C3009 0.930 . S
H2998 C3011 0.930 . S
H2999 C3012 0.930 . S
H3000 C3016 0.959 . S
H3001 C3016 0.959 . S
H3002 C3016 0.961 . S
H3003 C3017 0.960 . S
H3004 C3017 0.961 . S
H3005 C3017 0.959 . S
H3006 C3020 0.929 . S
H3007 C3021 0.931 . S
H3008 C3023 0.930 . S
C3009 H2997 0.930 . S
C3009 C3010 1.399 . S
C3009 C3014 1.399 . S
C3010 C3009 1.399 . S
C3010 C3011 1.376 . S
C3011 H2998 0.930 . S
C3011 C3010 1.376 . S
C3011 C3012 1.388 . S
C3012 H2999 0.930 . S
C3012 C3011 1.388 . S
C3012 C3013 1.390 . S
C3013 C3012 1.390 . S
C3013 C3014 1.394 . S
C3013 C3019 1.465 . S
C3014 C3009 1.399 . S
C3014 C3013 1.394 . S
C3014 C3015 1.516 . S
C3015 C3014 1.516 . S
C3015 C3016 1.502 . S
C3015 C3017 1.561 . S
C3015 C3018 1.526 . S
C3016 H3000 0.959 . S
C3016 H3001 0.959 . S
C3016 H3002 0.961 . S
C3016 C3015 1.502 . S
C3017 H3003 0.960 . S
C3017 H3004 0.961 . S
C3017 H3005 0.959 . S
C3017 C3015 1.561 . S
C3018 C3015 1.526 . S
C3018 C3019 1.396 . S
C3018 C3023 1.390 . S
C3019 C3013 1.465 . S
C3019 C3018 1.396 . S
C3019 C3020 1.399 . S
C3020 H3006 0.929 . S
C3020 C3019 1.399 . S
C3020 C3021 1.385 . S
C3021 H3007 0.931 . S
C3021 C3020 1.385 . S
C3021 C3022 1.389 . S
C3022 C3021 1.389 . S
C3022 C3023 1.387 . S
C3023 H3008 0.930 . S
C3023 C3018 1.390 . S
C3023 C3022 1.387 . S
H3024 C3036 0.930 . S
H3025 C3038 0.930 . S
H3026 C3039 0.930 . S
H3027 C3043 0.959 . S
H3028 C3043 0.959 . S
H3029 C3043 0.961 . S
H3030 C3044 0.960 . S
H3031 C3044 0.961 . S
H3032 C3044 0.959 . S
H3033 C3047 0.929 . S
H3034 C3048 0.931 . S
H3035 C3050 0.930 . S
C3036 H3024 0.930 . S
C3036 C3037 1.399 . S
C3036 C3041 1.399 . S
C3037 C3036 1.399 . S
C3037 C3038 1.376 . S
C3038 H3025 0.930 . S
C3038 C3037 1.376 . S
C3038 C3039 1.388 . S
C3039 H3026 0.930 . S
C3039 C3038 1.388 . S
C3039 C3040 1.390 . S
C3040 C3039 1.390 . S
C3040 C3041 1.394 . S
C3040 C3046 1.465 . S
C3041 C3036 1.399 . S
C3041 C3040 1.394 . S
C3041 C3042 1.516 . S
C3042 C3041 1.516 . S
C3042 C3043 1.502 . S
C3042 C3044 1.561 . S
C3042 C3045 1.526 . S
C3043 H3027 0.959 . S
C3043 H3028 0.959 . S
C3043 H3029 0.961 . S
C3043 C3042 1.502 . S
C3044 H3030 0.960 . S
C3044 H3031 0.961 . S
C3044 H3032 0.959 . S
C3044 C3042 1.561 . S
C3045 C3042 1.526 . S
C3045 C3046 1.396 . S
C3045 C3050 1.390 . S
C3046 C3040 1.465 . S
C3046 C3045 1.396 . S
C3046 C3047 1.399 . S
C3047 H3033 0.929 . S
C3047 C3046 1.399 . S
C3047 C3048 1.385 . S
C3048 H3034 0.931 . S
C3048 C3047 1.385 . S
C3048 C3049 1.389 . S
C3049 C3048 1.389 . S
C3049 C3050 1.387 . S
C3050 H3035 0.930 . S
C3050 C3045 1.390 . S
C3050 C3049 1.387 . S
H3051 C3063 0.930 . S
H3052 C3065 0.930 . S
H3053 C3066 0.930 . S
H3054 C3070 0.959 . S
H3055 C3070 0.959 . S
H3056 C3070 0.961 . S
H3057 C3071 0.960 . S
H3058 C3071 0.961 . S
H3059 C3071 0.959 . S
H3060 C3074 0.929 . S
H3061 C3075 0.931 . S
H3062 C3077 0.930 . S
C3063 H3051 0.930 . S
C3063 C3064 1.399 . S
C3063 C3068 1.399 . S
C3064 C3063 1.399 . S
C3064 C3065 1.376 . S
C3065 H3052 0.930 . S
C3065 C3064 1.376 . S
C3065 C3066 1.388 . S
C3066 H3053 0.930 . S
C3066 C3065 1.388 . S
C3066 C3067 1.390 . S
C3067 C3066 1.390 . S
C3067 C3068 1.394 . S
C3067 C3073 1.465 . S
C3068 C3063 1.399 . S
C3068 C3067 1.394 . S
C3068 C3069 1.516 . S
C3069 C3068 1.516 . S
C3069 C3070 1.502 . S
C3069 C3071 1.561 . S
C3069 C3072 1.526 . S
C3070 H3054 0.959 . S
C3070 H3055 0.959 . S
C3070 H3056 0.961 . S
C3070 C3069 1.502 . S
C3071 H3057 0.960 . S
C3071 H3058 0.961 . S
C3071 H3059 0.959 . S
C3071 C3069 1.561 . S
C3072 C3069 1.526 . S
C3072 C3073 1.396 . S
C3072 C3077 1.390 . S
C3073 C3067 1.465 . S
C3073 C3072 1.396 . S
C3073 C3074 1.399 . S
C3074 H3060 0.929 . S
C3074 C3073 1.399 . S
C3074 C3075 1.385 . S
C3075 H3061 0.931 . S
C3075 C3074 1.385 . S
C3075 C3076 1.389 . S
C3076 C3075 1.389 . S
C3076 C3077 1.387 . S
C3077 H3062 0.930 . S
C3077 C3072 1.390 . S
C3077 C3076 1.387 . S
H3078 C3090 0.930 . S
H3079 C3092 0.930 . S
H3080 C3093 0.930 . S
H3081 C3097 0.959 . S
H3082 C3097 0.959 . S
H3083 C3097 0.961 . S
H3084 C3098 0.960 . S
H3085 C3098 0.961 . S
H3086 C3098 0.959 . S
H3087 C3101 0.929 . S
H3088 C3102 0.931 . S
H3089 C3104 0.930 . S
C3090 H3078 0.930 . S
C3090 C3091 1.399 . S
C3090 C3095 1.399 . S
C3091 C3090 1.399 . S
C3091 C3092 1.376 . S
C3092 H3079 0.930 . S
C3092 C3091 1.376 . S
C3092 C3093 1.388 . S
C3093 H3080 0.930 . S
C3093 C3092 1.388 . S
C3093 C3094 1.390 . S
C3094 C3093 1.390 . S
C3094 C3095 1.394 . S
C3094 C3100 1.465 . S
C3095 C3090 1.399 . S
C3095 C3094 1.394 . S
C3095 C3096 1.516 . S
C3096 C3095 1.516 . S
C3096 C3097 1.502 . S
C3096 C3098 1.561 . S
C3096 C3099 1.526 . S
C3097 H3081 0.959 . S
C3097 H3082 0.959 . S
C3097 H3083 0.961 . S
C3097 C3096 1.502 . S
C3098 H3084 0.960 . S
C3098 H3085 0.961 . S
C3098 H3086 0.959 . S
C3098 C3096 1.561 . S
C3099 C3096 1.526 . S
C3099 C3100 1.396 . S
C3099 C3104 1.390 . S
C3100 C3094 1.465 . S
C3100 C3099 1.396 . S
C3100 C3101 1.399 . S
C3101 H3087 0.929 . S
C3101 C3100 1.399 . S
C3101 C3102 1.385 . S
C3102 H3088 0.931 . S
C3102 C3101 1.385 . S
C3102 C3103 1.389 . S
C3103 C3102 1.389 . S
C3103 C3104 1.387 . S
C3104 H3089 0.930 . S
C3104 C3099 1.390 . S
C3104 C3103 1.387 . S
H3105 C3117 0.930 . S
H3106 C3119 0.930 . S
H3107 C3120 0.930 . S
H3108 C3124 0.959 . S
H3109 C3124 0.959 . S
H3110 C3124 0.961 . S
H3111 C3125 0.960 . S
H3112 C3125 0.961 . S
H3113 C3125 0.959 . S
H3114 C3128 0.929 . S
H3115 C3129 0.931 . S
H3116 C3131 0.930 . S
C3117 H3105 0.930 . S
C3117 C3118 1.399 . S
C3117 C3122 1.399 . S
C3118 C3117 1.399 . S
C3118 C3119 1.376 1_554 S
C3119 H3106 0.930 . S
C3119 C3118 1.376 1_556 S
C3119 C3120 1.388 . S
C3120 H3107 0.930 . S
C3120 C3119 1.388 . S
C3120 C3121 1.390 . S
C3121 C3120 1.390 . S
C3121 C3122 1.394 1_556 S
C3121 C3127 1.465 . S
C3122 C3117 1.399 . S
C3122 C3121 1.394 1_554 S
C3122 C3123 1.516 . S
C3123 C3122 1.516 . S
C3123 C3124 1.502 . S
C3123 C3125 1.561 . S
C3123 C3126 1.526 . S
C3124 H3108 0.959 . S
C3124 H3109 0.959 . S
C3124 H3110 0.961 . S
C3124 C3123 1.502 . S
C3125 H3111 0.960 . S
C3125 H3112 0.961 . S
C3125 H3113 0.959 . S
C3125 C3123 1.561 . S
C3126 C3123 1.526 . S
C3126 C3127 1.396 1_554 S
C3126 C3131 1.390 . S
C3127 C3121 1.465 . S
C3127 C3126 1.396 1_556 S
C3127 C3128 1.399 . S
C3128 H3114 0.929 . S
C3128 C3127 1.399 . S
C3128 C3129 1.385 . S
C3129 H3115 0.931 . S
C3129 C3128 1.385 . S
C3129 C3130 1.389 . S
C3130 C3129 1.389 . S
C3130 C3131 1.387 1_556 S
C3131 H3116 0.930 . S
C3131 C3126 1.390 . S
C3131 C3130 1.387 1_554 S
H3132 C3144 0.930 . S
H3133 C3146 0.930 . S
H3134 C3147 0.930 . S
H3135 C3151 0.959 . S
H3136 C3151 0.959 . S
H3137 C3151 0.961 . S
H3138 C3152 0.960 . S
H3139 C3152 0.961 . S
H3140 C3152 0.959 . S
H3141 C3155 0.929 . S
H3142 C3156 0.931 . S
H3143 C3158 0.930 . S
C3144 H3132 0.930 . S
C3144 C3145 1.399 . S
C3144 C3149 1.399 . S
C3145 C3144 1.399 . S
C3145 C3146 1.376 . S
C3146 H3133 0.930 . S
C3146 C3145 1.376 . S
C3146 C3147 1.388 . S
C3147 H3134 0.930 . S
C3147 C3146 1.388 . S
C3147 C3148 1.390 . S
C3148 C3147 1.390 . S
C3148 C3149 1.394 . S
C3148 C3154 1.465 . S
C3149 C3144 1.399 . S
C3149 C3148 1.394 . S
C3149 C3150 1.516 . S
C3150 C3149 1.516 . S
C3150 C3151 1.502 . S
C3150 C3152 1.561 . S
C3150 C3153 1.526 . S
C3151 H3135 0.959 . S
C3151 H3136 0.959 . S
C3151 H3137 0.961 . S
C3151 C3150 1.502 . S
C3152 H3138 0.960 . S
C3152 H3139 0.961 . S
C3152 H3140 0.959 . S
C3152 C3150 1.561 . S
C3153 C3150 1.526 . S
C3153 C3154 1.396 . S
C3153 C3158 1.390 . S
C3154 C3148 1.465 . S
C3154 C3153 1.396 . S
C3154 C3155 1.399 . S
C3155 H3141 0.929 . S
C3155 C3154 1.399 . S
C3155 C3156 1.385 . S
C3156 H3142 0.931 . S
C3156 C3155 1.385 . S
C3156 C3157 1.389 . S
C3157 C3156 1.389 . S
C3157 C3158 1.387 . S
C3158 H3143 0.930 . S
C3158 C3153 1.390 . S
C3158 C3157 1.387 . S
H3159 C3171 0.930 . S
H3160 C3173 0.930 . S
H3161 C3174 0.930 . S
H3162 C3178 0.959 . S
H3163 C3178 0.959 . S
H3164 C3178 0.961 . S
H3165 C3179 0.960 . S
H3166 C3179 0.961 . S
H3167 C3179 0.959 . S
H3168 C3182 0.929 . S
H3169 C3183 0.931 . S
H3170 C3185 0.930 . S
C3171 H3159 0.930 . S
C3171 C3172 1.383 1_556 S
C3171 C3176 1.399 . S
C3172 C3171 1.383 1_554 S
C3172 C3173 1.399 . S
C3173 H3160 0.930 . S
C3173 C3172 1.399 . S
C3173 C3174 1.388 . S
C3174 H3161 0.930 . S
C3174 C3173 1.388 . S
C3174 C3175 1.390 . S
C3175 C3174 1.390 . S
C3175 C3176 1.394 1_554 S
C3175 C3181 1.465 . S
C3176 C3171 1.399 . S
C3176 C3175 1.394 1_556 S
C3176 C3177 1.516 . S
C3177 C3176 1.516 . S
C3177 C3178 1.502 . S
C3177 C3179 1.561 . S
C3177 C3180 1.526 . S
C3178 H3162 0.959 . S
C3178 H3163 0.959 . S
C3178 H3164 0.961 . S
C3178 C3177 1.502 . S
C3179 H3165 0.960 . S
C3179 H3166 0.961 . S
C3179 H3167 0.959 . S
C3179 C3177 1.561 . S
C3180 C3177 1.526 . S
C3180 C3181 1.396 1_556 S
C3180 C3185 1.390 . S
C3181 C3175 1.465 . S
C3181 C3180 1.396 1_554 S
C3181 C3182 1.399 . S
C3182 H3168 0.929 . S
C3182 C3181 1.399 . S
C3182 C3183 1.385 . S
C3183 H3169 0.931 . S
C3183 C3182 1.385 . S
C3183 C3184 1.389 . S
C3184 C3183 1.389 . S
C3184 C3185 1.387 1_554 S
C3185 H3170 0.930 . S
C3185 C3180 1.390 . S
C3185 C3184 1.387 1_556 S
H3186 C3198 0.930 . S
H3187 C3200 0.930 . S
H3188 C3201 0.930 . S
H3189 C3205 0.959 . S
H3190 C3205 0.959 . S
H3191 C3205 0.961 . S
H3192 C3206 0.960 . S
H3193 C3206 0.961 . S
H3194 C3206 0.959 . S
H3195 C3209 0.929 . S
H3196 C3210 0.931 . S
H3197 C3212 0.930 . S
C3198 H3186 0.930 . S
C3198 C3199 1.399 . S
C3198 C3203 1.399 . S
C3199 C3198 1.399 . S
C3199 C3200 1.376 . S
C3200 H3187 0.930 . S
C3200 C3199 1.376 . S
C3200 C3201 1.388 . S
C3201 H3188 0.930 . S
C3201 C3200 1.388 . S
C3201 C3202 1.390 . S
C3202 C3201 1.390 . S
C3202 C3203 1.394 . S
C3202 C3208 1.465 . S
C3203 C3198 1.399 . S
C3203 C3202 1.394 . S
C3203 C3204 1.516 . S
C3204 C3203 1.516 . S
C3204 C3205 1.502 . S
C3204 C3206 1.561 . S
C3204 C3207 1.526 . S
C3205 H3189 0.959 . S
C3205 H3190 0.959 . S
C3205 H3191 0.961 . S
C3205 C3204 1.502 . S
C3206 H3192 0.960 . S
C3206 H3193 0.961 . S
C3206 H3194 0.959 . S
C3206 C3204 1.561 . S
C3207 C3204 1.526 . S
C3207 C3208 1.396 . S
C3207 C3212 1.390 . S
C3208 C3202 1.465 . S
C3208 C3207 1.396 . S
C3208 C3209 1.399 . S
C3209 H3195 0.929 . S
C3209 C3208 1.399 . S
C3209 C3210 1.385 . S
C3210 H3196 0.931 . S
C3210 C3209 1.385 . S
C3210 C3211 1.389 . S
C3211 C3210 1.389 . S
C3211 C3212 1.387 . S
C3212 H3197 0.930 . S
C3212 C3207 1.390 . S
C3212 C3211 1.387 . S
H3213 C3225 0.930 . S
H3214 C3227 0.930 . S
H3215 C3228 0.930 . S
H3216 C3232 0.959 . S
H3217 C3232 0.959 . S
H3218 C3232 0.961 . S
H3219 C3233 0.960 . S
H3220 C3233 0.961 . S
H3221 C3233 0.959 . S
H3222 C3236 0.929 . S
H3223 C3237 0.931 . S
H3224 C3239 0.930 . S
C3225 H3213 0.930 . S
C3225 C3226 1.399 . S
C3225 C3230 1.399 . S
C3226 C3225 1.399 . S
C3226 C3227 1.376 . S
C3227 H3214 0.930 . S
C3227 C3226 1.376 . S
C3227 C3228 1.388 . S
C3228 H3215 0.930 . S
C3228 C3227 1.388 . S
C3228 C3229 1.390 . S
C3229 C3228 1.390 . S
C3229 C3230 1.394 . S
C3229 C3235 1.465 . S
C3230 C3225 1.399 . S
C3230 C3229 1.394 . S
C3230 C3231 1.516 . S
C3231 C3230 1.516 . S
C3231 C3232 1.502 . S
C3231 C3233 1.561 . S
C3231 C3234 1.526 . S
C3232 H3216 0.959 . S
C3232 H3217 0.959 . S
C3232 H3218 0.961 . S
C3232 C3231 1.502 . S
C3233 H3219 0.960 . S
C3233 H3220 0.961 . S
C3233 H3221 0.959 . S
C3233 C3231 1.561 . S
C3234 C3231 1.526 . S
C3234 C3235 1.396 . S
C3234 C3239 1.390 . S
C3235 C3229 1.465 . S
C3235 C3234 1.396 . S
C3235 C3236 1.399 . S
C3236 H3222 0.929 . S
C3236 C3235 1.399 . S
C3236 C3237 1.385 . S
C3237 H3223 0.931 . S
C3237 C3236 1.385 . S
C3237 C3238 1.389 . S
C3238 C3237 1.389 . S
C3238 C3239 1.387 . S
C3239 H3224 0.930 . S
C3239 C3234 1.390 . S
C3239 C3238 1.387 . S
C673 C328 1.334 . S
C661 C10 1.512 . S
C688 C23 1.368 . S
C700 C348 1.353 . S
C715 C36 1.480 . S
C727 C370 1.336 . S
C754 C389 1.505 . S
C742 C42 1.513 . S
C769 C18 1.493 . S
C781 C410 1.489 . S
C808 C433 1.395 . S
C796 C31 1.558 . S
C835 C456 1.271 . S
C823 C43 1.365 . S
C850 C5 1.493 . S
C862 C474 1.392 . S
C877 C56 1.484 . S
C889 C330 1.388 . S
C904 C70 1.509 . S
C916 C350 1.473 . S
C943 C372 1.302 . S
C931 C82 1.381 . S
C970 C391 1.469 . S
C958 C96 1.555 . S
C985 C57 1.569 . S
C997 C412 1.413 . S
C1024 C435 1.339 . S
C1012 C69 1.330 . S
C1051 C452 1.497 . S
C1039 C83 1.513 1_565 S
C1078 C476 1.469 . S
C1066 C95 1.482 . S
C1105 C326 1.430 . S
C1093 C94 1.470 . S
C1132 C498 1.314 . S
C1120 C108 1.336 . S
C1147 C122 1.489 . S
C1159 C515 1.482 . S
C1186 C538 1.455 . S
C1174 C140 1.555 . S
C1201 C55 1.517 . S
C1213 C472 1.336 . S
C1240 C368 1.508 . S
C1228 C68 1.520 . S
C1255 C121 1.367 . S
C1267 C561 1.281 . S
C1294 C577 1.390 . S
C1282 C153 1.478 . S
C1309 C161 1.211 . S
C1321 C325 1.158 . S
C1348 C578 1.162 . S
C1336 C174 1.179 . S
C1363 C186 1.288 . S
C1375 C367 1.191 . S
C1390 C200 1.118 . S
C1402 C558 1.132 . S
C1429 C411 1.073 . S
C1417 C172 1.139 . S
C1456 C514 1.229 . S
C1444 C192 1.264 . S
C1483 C455 1.159 . S
C1471 C198 1.212 . S
C1510 C599 1.228 . S
C1498 C159 1.280 . S
C1537 C329 1.223 . S
C1525 C211 1.276 . S
C1552 C225 1.132 . S
C1564 C582 1.060 . S
C1591 C371 1.179 1_545 S
C1579 C239 1.180 . S
C1606 C251 1.214 . S
C1618 C556 1.126 . S
C1633 C218 1.266 . S
C1645 C409 1.231 . S
C1660 C226 1.215 . S
C1672 C518 1.170 . S
C1699 C453 1.096 . S
C1687 C238 1.145 1_565 S
C1714 C252 1.178 . S
C1726 C603 1.201 . S
C1741 C250 1.206 . S
C1753 C327 1.147 . S
C1768 C264 1.209 . S
C1780 C497 1.191 . S
C1795 C276 1.151 . S
C1807 C432 1.107 . S
C1822 C290 1.241 . S
C1834 C535 1.207 . S
C1861 C601 1.196 . S
C1849 C213 1.225 . S
C1888 C369 1.093 . S
C1876 C224 1.160 . S
C1915 C392 1.212 . S
C1903 C283 1.200 . S
C1942 C349 1.265 . S
C1930 C303 1.303 . S
C1957 C29 1.516 . S
C1969 C622 1.431 . S
C1996 C579 1.303 . S
C1984 C49 1.380 . S
C2023 C643 1.344 . S
C2011 C3 1.489 . S
C2038 C16 1.498 . S
C2050 C557 1.451 . S
C2065 C44 1.483 . S
C2077 C494 1.443 . S
C2104 C517 1.449 . S
C2092 C4 1.537 . S
C2131 C540 1.341 . S
C2119 C17 1.347 . S
C2158 C600 1.378 . S
C2146 C30 1.487 . S
C2185 C624 1.380 . S
C2173 C147 1.488 . S
C2200 C107 1.512 . S
C2212 C581 1.476 . S
C2227 C127 1.382 . S
C2239 C645 1.309 . S
C2266 C559 1.472 . S
C2254 C135 1.559 . S
C2293 C496 1.406 . S
C2281 C148 1.566 . S
C2308 C114 1.331 . S
C2320 C519 1.329 . S
C2347 C536 1.462 . S
C2335 C120 1.498 . S
C2362 C134 1.478 . S
C2374 C602 1.462 . S
C2401 C620 1.435 . S
C2389 C133 1.472 . S
C2428 C414 1.332 . S
C2416 C75 1.333 . S
C2455 C431 1.448 . S
C2443 C81 1.479 . S
C2470 C101 1.539 . S
C2482 C454 1.471 . S
C2509 C598 1.353 . S
C2497 C146 1.520 . S
C2524 C109 1.514 . S
C2536 C641 1.501 . S
C2563 C393 1.292 . S
C2551 C88 1.361 . S
C2590 C346 1.344 . S
C2578 C62 1.495 . S
C2605 C187 1.201 . S
C2617 C619 1.077 . S
C2644 C347 1.157 . S
C2632 C199 1.173 . S
C2671 C640 1.251 1_455 S
C2659 C160 1.298 . S
C2686 C173 1.148 . S
C2698 C390 1.104 . S
C2713 C205 1.121 . S
C2725 C495 1.148 . S
C2740 C166 1.239 . S
C2752 C430 1.099 . S
C2767 C179 1.216 . S
C2779 C539 1.221 1_455 S
C2794 C185 1.291 . S
C2806 C473 1.284 . S
C2833 C623 1.269 . S
C2821 C302 1.266 . S
C2848 C270 1.126 . S
C2860 C351 1.154 . S
C2887 C644 1.175 . S
C2875 C278 1.180 . S
C2902 C296 1.240 . S
C2914 C388 1.184 . S
C2929 C309 1.270 . S
C2941 C493 1.234 . S
C2968 C434 1.168 . S
C2956 C263 1.229 . S
C2983 C277 1.113 . S
C2995 C537 1.130 . S
C3022 C477 1.182 . S
C3010 C289 1.196 . S
C3049 C621 1.172 . S
C3037 C291 1.174 . S
C3076 C413 1.202 . S
C3064 C231 1.232 . S
C3091 C237 1.115 . S
C3103 C516 1.127 . S
C3130 C451 1.084 . S
C3118 C257 1.209 . S
C3157 C475 1.063 . S
C3145 C304 1.194 . S
C3172 C265 1.118 1_554 S
C3184 C642 1.143 . S
C3211 C560 1.185 . S
C3199 C244 1.195 . S
C3238 C580 1.252 . S
C3226 C212 1.296 . S
