# Generated by pormake.
# Topology ssa, (4,4)-cn, num edge types: 1
# Building blocks:
#     Node 0, Type 0, BuildingBlock: NAWXER_clean_sbu_0, # of connection points: 4
#     Node 1, Type 0, BuildingBlock: NAWXER_clean_sbu_0, # of connection points: 4
#     Node 2, Type 0, BuildingBlock: NAWXER_clean_sbu_0, # of connection points: 4
#     Node 3, Type 0, BuildingBlock: NAWXER_clean_sbu_0, # of connection points: 4
#     Node 4, Type 0, BuildingBlock: NAWXER_clean_sbu_0, # of connection points: 4
#     Node 5, Type 0, BuildingBlock: NAWXER_clean_sbu_0, # of connection points: 4
#     Node 6, Type 1, BuildingBlock: NAWXER_clean_sbu_0, # of connection points: 4
#     Node 7, Type 1, BuildingBlock: NAWXER_clean_sbu_0, # of connection points: 4
#     Node 8, Type 1, BuildingBlock: NAWXER_clean_sbu_0, # of connection points: 4
#     Node 9, Type 1, BuildingBlock: NAWXER_clean_sbu_0, # of connection points: 4
#     Node 10, Type 1, BuildingBlock: NAWXER_clean_sbu_0, # of connection points: 4
#     Node 11, Type 1, BuildingBlock: NAWXER_clean_sbu_0, # of connection points: 4
#     Edge 12, Type (0, 1), BuildingBlock: OJICUG_clean_linker_0, # of connection points: 2
#     Edge 13, Type (0, 1), BuildingBlock: OJICUG_clean_linker_0, # of connection points: 2
#     Edge 14, Type (0, 1), BuildingBlock: OJICUG_clean_linker_0, # of connection points: 2
#     Edge 15, Type (0, 1), BuildingBlock: OJICUG_clean_linker_0, # of connection points: 2
#     Edge 16, Type (0, 1), BuildingBlock: OJICUG_clean_linker_0, # of connection points: 2
#     Edge 17, Type (0, 1), BuildingBlock: OJICUG_clean_linker_0, # of connection points: 2
#     Edge 18, Type (0, 1), BuildingBlock: OJICUG_clean_linker_0, # of connection points: 2
#     Edge 19, Type (0, 1), BuildingBlock: OJICUG_clean_linker_0, # of connection points: 2
#     Edge 20, Type (0, 1), BuildingBlock: OJICUG_clean_linker_0, # of connection points: 2
#     Edge 21, Type (0, 1), BuildingBlock: OJICUG_clean_linker_0, # of connection points: 2
#     Edge 22, Type (0, 1), BuildingBlock: OJICUG_clean_linker_0, # of connection points: 2
#     Edge 23, Type (0, 1), BuildingBlock: OJICUG_clean_linker_0, # of connection points: 2
#     Edge 24, Type (0, 1), BuildingBlock: OJICUG_clean_linker_0, # of connection points: 2
#     Edge 25, Type (0, 1), BuildingBlock: OJICUG_clean_linker_0, # of connection points: 2
#     Edge 26, Type (0, 1), BuildingBlock: OJICUG_clean_linker_0, # of connection points: 2
#     Edge 27, Type (0, 1), BuildingBlock: OJICUG_clean_linker_0, # of connection points: 2
#     Edge 28, Type (0, 1), BuildingBlock: OJICUG_clean_linker_0, # of connection points: 2
#     Edge 29, Type (0, 1), BuildingBlock: OJICUG_clean_linker_0, # of connection points: 2
#     Edge 30, Type (0, 1), BuildingBlock: OJICUG_clean_linker_0, # of connection points: 2
#     Edge 31, Type (0, 1), BuildingBlock: OJICUG_clean_linker_0, # of connection points: 2
#     Edge 32, Type (0, 1), BuildingBlock: OJICUG_clean_linker_0, # of connection points: 2
#     Edge 33, Type (0, 1), BuildingBlock: OJICUG_clean_linker_0, # of connection points: 2
#     Edge 34, Type (0, 1), BuildingBlock: OJICUG_clean_linker_0, # of connection points: 2
#     Edge 35, Type (0, 1), BuildingBlock: OJICUG_clean_linker_0, # of connection points: 2
# Relax obj value: 0.024
# Max RMSD: 0.040
# Mean RMSD: 0.033
data_MOF--net-ssa--node1-NAWXER_clean_sbu_0--node2-NAWXER_clean_sbu_0--edge1-OJICUG_clean_linker_0
_symmetry_space_group_name_H-M    P1
_symmetry_Int_Tables_number       1
_symmetry_cell_setting            triclinic
loop_
_symmetry_equiv_pos_as_xyz
'x, y, z'
_cell_length_a     31.539344
_cell_length_b     31.502299
_cell_length_c     26.173172
_cell_angle_alpha  90.159322
_cell_angle_beta   90.348138
_cell_angle_gamma 119.86966
loop_
_atom_site_label
_atom_site_type_symbol
_atom_site_fract_x
_atom_site_fract_y
_atom_site_fract_z
_atom_type_partial_charge
C0 C 0.10388 0.57383 0.03199 0.0
C1 C 0.99003 0.40879 0.96694 0.0
O2 O 0.06109 0.55466 0.051 0.0
Zn3 Zn 0.99297 0.48897 0.04617 0.0
O4 O 0.11238 0.55189 0.99601 0.0
Zn5 Zn 0.04692 0.49339 0.99375 0.0
O6 O 0.99747 0.51581 0.96286 0.0
O7 O 0.94865 0.51125 0.02542 0.0
O8 O 0.03346 0.43712 0.9518 0.0
O9 O 0.97148 0.42408 1.00092 0.0
O10 O 0.99172 0.46738 0.11583 0.0
O11 O 0.04885 0.46678 0.06768 0.0
C12 C 0.96201 0.52103 0.97923 0.0
C13 C 0.02751 0.4598 0.1107 0.0
C14 C 0.51493 0.07163 0.54286 0.0
C15 C 0.5692 0.99337 0.41904 0.0
O16 O 0.5119 0.03214 0.56027 0.0
Zn17 Zn 0.53213 0.97934 0.53492 0.0
O18 O 0.53286 0.08684 0.49891 0.0
Zn19 Zn 0.54651 0.03565 0.4809 0.0
O20 O 0.47594 0.97125 0.47453 0.0
O21 O 0.4706 0.91731 0.53178 0.0
O22 O 0.57001 0.03383 0.41298 0.0
O23 O 0.55735 0.97156 0.46205 0.0
O24 O 0.58532 0.98863 0.58092 0.0
O25 O 0.60719 0.05054 0.52857 0.0
C26 C 0.45242 0.92844 0.494 0.0
C27 C 0.61788 0.03028 0.56492 0.0
C28 C 0.40042 0.40417 0.92638 0.0
C29 C 0.47742 0.55524 0.0266 0.0
O30 O 0.39963 0.44342 0.91768 0.0
Zn31 Zn 0.43735 0.47968 0.97713 0.0
O32 O 0.42143 0.40078 0.96696 0.0
Zn33 Zn 0.46227 0.44589 0.03035 0.0
O34 O 0.42211 0.41219 0.0895 0.0
O35 O 0.39026 0.44637 0.04097 0.0
O36 O 0.4845 0.52187 0.04615 0.0
O37 O 0.45213 0.54632 0.98588 0.0
O38 O 0.50772 0.48744 0.96066 0.0
O39 O 0.52403 0.44726 0.01942 0.0
C40 C 0.38846 0.42245 0.08123 0.0
C41 C 0.53594 0.47266 0.97885 0.0
C42 C 0.0573 0.59456 0.47877 0.0
C43 C 0.98901 0.46788 0.6098 0.0
O44 O 0.07351 0.59595 0.52369 0.0
Zn45 Zn 0.02476 0.53211 0.54711 0.0
O46 O 0.01796 0.55631 0.46378 0.0
Zn47 Zn 0.96696 0.48594 0.49429 0.0
O48 O 0.90411 0.48458 0.49994 0.0
O49 O 0.95966 0.53572 0.55478 0.0
O50 O 0.96551 0.45629 0.56742 0.0
O51 O 0.02721 0.50961 0.61591 0.0
O52 O 0.03841 0.48324 0.50354 0.0
O53 O 0.97622 0.43965 0.45154 0.0
C54 C 0.91602 0.51503 0.53685 0.0
C55 C 0.01784 0.44963 0.46953 0.0
C56 C 0.56947 1.00836 0.055 0.0
C57 C 0.50818 0.11409 0.98882 0.0
O58 O 0.58081 0.05041 0.07289 0.0
Zn59 Zn 0.53477 0.06087 0.03114 0.0
O60 O 0.53513 0.98826 0.02161 0.0
Zn61 Zn 0.48681 1.00372 0.97886 0.0
O62 O 0.50749 0.99998 0.90971 0.0
O63 O 0.56282 0.061 0.95752 0.0
O64 O 0.48586 0.07032 0.97113 0.0
O65 O 0.53863 0.12498 0.02557 0.0
O66 O 0.46445 0.01103 0.06275 0.0
O67 O 0.42277 0.95647 1.00273 0.0
C68 C 0.54988 0.03738 0.91526 0.0
C69 C 0.42533 0.97242 0.04794 0.0
C70 C 0.62393 0.62551 0.59106 0.0
C71 C 0.47337 0.5519 0.49006 0.0
O72 O 0.58533 0.62752 0.5995 0.0
Zn73 Zn 0.5489 0.59049 0.53986 0.0
O74 O 0.62674 0.60413 0.55056 0.0
Zn75 Zn 0.58131 0.56402 0.48696 0.0
O76 O 0.61599 0.60366 0.42793 0.0
O77 O 0.58412 0.63767 0.47644 0.0
O78 O 0.50599 0.54366 0.47082 0.0
O79 O 0.48294 0.57756 0.53054 0.0
O80 O 0.53926 0.51931 0.55681 0.0
O81 O 0.57823 0.5015 0.49819 0.0
C82 C 0.60778 0.63868 0.43636 0.0
C83 C 0.55301 0.49024 0.53879 0.0
C84 C 0.29682 0.48857 0.37151 0.0
C85 C 0.16772 0.463 0.25062 0.0
O86 O 0.26813 0.44312 0.36112 0.0
Zn87 Zn 0.20449 0.39981 0.31436 0.0
O88 O 0.28931 0.52072 0.35094 0.0
Zn89 Zn 0.23338 0.47744 0.30951 0.0
O90 O 0.17728 0.44169 0.36333 0.0
O91 O 0.15078 0.36224 0.36231 0.0
O92 O 0.20177 0.50391 0.26748 0.0
O93 O 0.16626 0.42314 0.26381 0.0
O94 O 0.22846 0.36807 0.26753 0.0
O95 O 0.26114 0.44751 0.25424 0.0
C96 C 0.14788 0.39863 0.37924 0.0
C97 C 0.25696 0.4061 0.24222 0.0
C98 C 0.85464 0.30209 0.72027 0.0
C99 C 0.71722 0.16841 0.80586 0.0
O100 O 0.81384 0.29846 0.73158 0.0
Zn101 Zn 0.78553 0.2357 0.7632 0.0
O102 O 0.86218 0.2664 0.72953 0.0
Zn103 Zn 0.82462 0.19663 0.76708 0.0
O104 O 0.81346 0.14798 0.7142 0.0
O105 O 0.77117 0.18582 0.70203 0.0
O106 O 0.75326 0.16068 0.80089 0.0
O107 O 0.72139 0.20873 0.79118 0.0
O108 O 0.8323 0.25275 0.82782 0.0
O109 O 0.87032 0.20997 0.82386 0.0
C110 C 0.78245 0.15374 0.68823 0.0
C111 C 0.86348 0.24202 0.84611 0.0
C112 C 0.56372 0.85509 0.2732 0.0
C113 C 0.53996 0.72942 0.14863 0.0
O114 O 0.60398 0.85909 0.25755 0.0
Zn115 Zn 0.62803 0.82305 0.20495 0.0
O116 O 0.52316 0.81956 0.25755 0.0
Zn117 Zn 0.55029 0.79113 0.21237 0.0
O118 O 0.58346 0.76499 0.26522 0.0
O119 O 0.6627 0.8005 0.25002 0.0
O120 O 0.50747 0.73502 0.17108 0.0
O121 O 0.58535 0.75934 0.1579 0.0
O122 O 0.66245 0.87764 0.157 0.0
O123 O 0.58259 0.84823 0.15884 0.0
C124 C 0.62572 0.77082 0.27591 0.0
C125 C 0.62471 0.879 0.14184 0.0
C126 C 0.84333 0.56391 0.84403 0.0
C127 C 0.74681 0.61215 0.73825 0.0
O128 O 0.80804 0.5272 0.82109 0.0
Zn129 Zn 0.74746 0.51399 0.77262 0.0
O130 O 0.84847 0.60625 0.83872 0.0
Zn131 Zn 0.79448 0.5888 0.79159 0.0
O132 O 0.73117 0.55178 0.83933 0.0
O133 O 0.69078 0.47435 0.8152 0.0
O134 O 0.7853 0.64049 0.76351 0.0
O135 O 0.72965 0.56569 0.7387 0.0
O136 O 0.75853 0.48531 0.71177 0.0
O137 O 0.81358 0.56314 0.72324 0.0
C138 C 0.69486 0.50837 0.84464 0.0
C139 C 0.79668 0.52354 0.69668 0.0
C140 C 0.29024 0.85122 0.20169 0.0
C141 C 0.17635 0.73169 0.32464 0.0
O142 O 0.25407 0.85203 0.22199 0.0
Zn143 Zn 0.23152 0.79269 0.26275 0.0
O144 O 0.30036 0.81794 0.21408 0.0
Zn145 Zn 0.27344 0.75558 0.26279 0.0
O146 O 0.25753 0.70375 0.21189 0.0
O147 O 0.21213 0.73861 0.20422 0.0
O148 O 0.21175 0.72496 0.31207 0.0
O149 O 0.1719 0.76573 0.30377 0.0
O150 O 0.28691 0.81639 0.32065 0.0
O151 O 0.32587 0.77479 0.31351 0.0
C152 C 0.22439 0.70782 0.18806 0.0
C153 C 0.31976 0.80693 0.33673 0.0
C154 C 0.41374 0.2805 0.78142 0.0
C155 C 0.46703 0.18771 0.67637 0.0
O156 O 0.46031 0.29896 0.78111 0.0
Zn157 Zn 0.51352 0.28271 0.749 0.0
O158 O 0.3862 0.24093 0.75731 0.0
Zn159 Zn 0.43898 0.23286 0.73052 0.0
O160 O 0.4648 0.2162 0.7994 0.0
O161 O 0.54237 0.27135 0.81036 0.0
O162 O 0.42352 0.17725 0.68619 0.0
O163 O 0.50293 0.22557 0.69707 0.0
O164 O 0.55199 0.34006 0.70759 0.0
O165 O 0.47525 0.29615 0.68125 0.0
C166 C 0.50425 0.2335 0.82606 0.0
C167 C 0.51802 0.33381 0.67668 0.0
C168 C 0.07793 0.49396 0.18844 0.0
C169 C 0.0529 0.45417 0.15478 0.0
H170 H 0.13537 0.52886 0.24428 0.0
C171 C 0.06427 0.4165 0.15443 0.0
H172 H 0.07088 0.5243 0.18785 0.0
C173 C 0.10097 0.41903 0.18648 0.0
C174 C 0.128 0.46012 0.21817 0.0
H175 H 0.04645 0.38635 0.1275 0.0
H176 H 0.1096 0.3898 0.18479 0.0
C177 C 0.11556 0.49714 0.21966 0.0
C178 C 0.67953 0.03884 0.63218 0.0
C179 C 0.66661 0.05797 0.59019 0.0
H180 H 0.72877 0.05458 0.69571 0.0
C181 C 0.69907 0.10639 0.57512 0.0
H182 H 0.65555 1.00164 0.6446 0.0
C183 C 0.74066 0.13643 0.6043 0.0
C184 C 0.75143 0.11854 0.64853 0.0
H185 H 0.69072 0.12233 0.54269 0.0
H186 H 0.76249 0.17476 0.59439 0.0
C187 C 0.72184 0.0689 0.66101 0.0
C188 C 0.53944 0.62241 0.08214 0.0
C189 C 0.49567 0.60236 0.05379 0.0
H190 H 0.58834 0.67924 0.13338 0.0
C191 C 0.46765 0.62576 0.05483 0.0
H192 H 0.56164 0.605 0.08201 0.0
C193 C 0.48215 0.66738 0.08539 0.0
C194 C 0.5257 0.68714 0.11414 0.0
H195 H 0.43352 0.61075 0.03366 0.0
H196 H 0.45922 0.68395 0.08675 0.0
C197 C 0.55472 0.66488 0.1114 0.0
C198 C 0.894 0.56354 0.59483 0.0
C199 C 0.87924 0.51999 0.56726 0.0
H200 H 0.8797 0.59885 0.6567 0.0
C201 C 0.8341 0.47864 0.57895 0.0
H202 H 0.92879 0.59588 0.587 0.0
C203 C 0.80613 0.47996 0.61991 0.0
C204 C 0.82269 0.52278 0.64965 0.0
H205 H 0.82222 0.44427 0.55907 0.0
H206 H 0.77269 0.44688 0.6296 0.0
C207 C 0.86602 0.56501 0.63526 0.0
C208 C 0.38391 0.96411 0.13244 0.0
C209 C 0.38568 0.94391 0.0849 0.0
H210 H 0.35094 0.95057 0.20682 0.0
C211 C 0.35176 0.89445 0.07479 0.0
H212 H 0.40953 1.0021 0.14139 0.0
C213 C 0.31904 0.86516 0.11234 0.0
C214 C 0.31856 0.88487 0.16032 0.0
H215 H 0.35215 0.8776 0.0388 0.0
H216 H 0.29511 0.82652 0.10451 0.0
C217 C 0.35029 0.93484 0.16976 0.0
C218 C 0.49671 0.41798 0.59086 0.0
C219 C 0.54269 0.4463 0.56837 0.0
H220 H 0.4527 0.35941 0.64173 0.0
C221 C 0.58017 0.4359 0.57972 0.0
H222 H 0.46741 0.42564 0.58307 0.0
C223 C 0.57231 0.39908 0.61475 0.0
C224 C 0.52638 0.3711 0.63767 0.0
H225 H 0.61618 0.45781 0.56349 0.0
H226 H 0.60218 0.39274 0.62421 0.0
C227 C 0.48838 0.38019 0.62444 0.0
C228 C 0.61228 0.96895 0.35631 0.0
C229 C 0.56888 0.96434 0.3753 0.0
H230 H 0.64465 0.93762 0.30882 0.0
C231 C 0.52376 0.92494 0.35935 0.0
H232 H 0.64736 0.99852 0.36924 0.0
C233 C 0.5219 0.88968 0.32568 0.0
C234 C 0.56529 0.89313 0.30762 0.0
H235 H 0.48989 0.92042 0.37461 0.0
H236 H 0.48656 0.85919 0.31486 0.0
C237 C 0.61051 0.93368 0.32243 0.0
C238 C 0.6086 0.52883 0.92744 0.0
C239 C 0.58009 0.48282 0.94992 0.0
H240 H 0.66781 0.5731 0.87758 0.0
C241 C 0.59085 0.44541 0.93944 0.0
H242 H 0.60075 0.55812 0.93458 0.0
C243 C 0.62832 0.45345 0.90534 0.0
C244 C 0.65654 0.49948 0.88248 0.0
H245 H 0.56885 0.40936 0.9557 0.0
H246 H 0.63501 0.42367 0.89661 0.0
C247 C 0.64691 0.53732 0.89479 0.0
C248 C 0.06445 0.64035 0.39747 0.0
C249 C 0.08612 0.63441 0.44213 0.0
H250 H 0.07606 0.67725 0.32536 0.0
C251 C 0.1368 0.66417 0.44935 0.0
H252 H 0.02545 0.61793 0.39086 0.0
C253 C 0.16552 0.69699 0.41158 0.0
C254 C 0.14416 0.70186 0.36639 0.0
H255 H 0.15471 0.66041 0.48308 0.0
H256 H 0.20482 0.71786 0.41717 0.0
C257 C 0.09322 0.67434 0.36013 0.0
C258 C 0.54788 0.19529 0.94459 0.0
C259 C 0.50519 0.15188 0.95798 0.0
H260 H 0.58152 0.25508 0.89178 0.0
C261 C 0.46161 0.139 0.93135 0.0
H262 H 0.58225 0.20559 0.96371 0.0
C263 C 0.46121 0.16687 0.89014 0.0
C264 C 0.50454 0.20823 0.874 0.0
H265 H 0.42826 0.10554 0.94046 0.0
H266 H 0.42715 0.15452 0.86949 0.0
C267 C 0.54759 0.22319 0.90285 0.0
C268 C 0.40581 0.49021 0.43468 0.0
C269 C 0.42606 0.53384 0.46326 0.0
H270 H 0.3483 0.44114 0.38425 0.0
C271 C 0.40231 0.56156 0.4633 0.0
H272 H 0.42342 0.46818 0.43401 0.0
C273 C 0.36003 0.5468 0.43372 0.0
C274 C 0.34001 0.50331 0.40484 0.0
H275 H 0.4174 0.59557 0.48471 0.0
H276 H 0.3431 0.56945 0.43329 0.0
C277 C 0.3628 0.47471 0.40637 0.0
C278 C 0.97858 0.34037 0.90784 0.0
C279 C 0.9592 0.35981 0.94319 0.0
H280 H 0.96291 0.28566 0.85023 0.0
C281 C 0.9087 0.33368 0.95285 0.0
H282 H 0.01737 0.35936 0.89983 0.0
C283 C 0.87777 0.29178 0.92449 0.0
C284 C 0.89665 0.27443 0.88655 0.0
H285 H 0.89246 0.34725 0.98007 0.0
H286 H 0.83863 0.27475 0.9299 0.0
C287 C 0.94753 0.29775 0.87996 0.0
C288 C 0.92331 0.515 0.89409 0.0
C289 C 0.93472 0.53512 0.9436 0.0
H290 H 0.88425 0.50757 0.82414 0.0
C291 C 0.91777 0.56669 0.95933 0.0
H292 H 0.93566 0.49027 0.88122 0.0
C293 C 0.88978 0.57788 0.92605 0.0
C294 C 0.8768 0.55619 0.8773 0.0
H295 H 0.92612 0.58263 0.99734 0.0
H296 H 0.87674 0.60199 0.93909 0.0
C297 C 0.89384 0.52472 0.86158 0.0
C298 C 0.3787 0.9037 0.4403 0.0
C299 C 0.41064 0.8909 0.46412 0.0
H300 H 0.32514 0.88733 0.38192 0.0
C301 C 0.41006 0.84785 0.44845 0.0
H302 H 0.37911 0.93717 0.45097 0.0
C303 C 0.38011 0.81981 0.40747 0.0
C304 C 0.34976 0.83402 0.38209 0.0
H305 H 0.43537 0.83792 0.46523 0.0
H306 H 0.38177 0.78792 0.39479 0.0
C307 C 0.34828 0.87538 0.40021 0.0
C308 C 0.37639 0.31908 0.89958 0.0
C309 C 0.38704 0.36657 0.88614 0.0
H310 H 0.37519 0.25338 0.87537 0.0
C311 C 0.39598 0.38069 0.83466 0.0
H312 H 0.36958 0.30737 0.93902 0.0
C313 C 0.39998 0.35006 0.79855 0.0
C314 C 0.39356 0.30445 0.81317 0.0
H315 H 0.40491 0.41725 0.82331 0.0
H316 H 0.41181 0.36355 0.76023 0.0
C317 C 0.3794 0.28813 0.86322 0.0
C318 C 0.0865 0.43209 0.47845 0.0
C319 C 0.04437 0.42449 0.45164 0.0
H320 H 0.15211 0.42775 0.47678 0.0
C321 C 0.03131 0.39674 0.40624 0.0
H322 H 0.09734 0.45258 0.51402 0.0
C323 C 0.06249 0.38134 0.38563 0.0
C324 C 0.10689 0.39329 0.41026 0.0
H325 H 0.99905 0.39005 0.38482 0.0
H326 H 0.0543 0.36446 0.34805 0.0
C327 C 0.11756 0.41701 0.45777 0.0
C328 C 0.62469 0.05241 0.87158 0.0
C329 C 0.58396 0.05897 0.87323 0.0
H330 H 0.69916 0.0822 0.84902 0.0
C331 C 0.58556 0.09917 0.84851 0.0
H332 H 0.62466 0.02256 0.89211 0.0
C333 C 0.62853 0.13422 0.82531 0.0
C334 C 0.67054 0.1295 0.82656 0.0
H335 H 0.555 0.10575 0.85108 0.0
H336 H 0.6294 0.166 0.80843 0.0
C337 C 0.66758 0.08719 0.84797 0.0
C338 C 0.60021 0.70885 0.4034 0.0
C339 C 0.62004 0.67779 0.39805 0.0
H340 H 0.58671 0.76241 0.36871 0.0
C341 C 0.64734 0.68202 0.354 0.0
H342 H 0.57907 0.70688 0.43669 0.0
C343 C 0.65257 0.71504 0.31517 0.0
C344 C 0.6298 0.74349 0.31956 0.0
H345 H 0.66315 0.65869 0.34875 0.0
H346 H 0.67182 0.71621 0.2806 0.0
C347 C 0.60457 0.74081 0.36444 0.0
C348 C 0.52742 0.15217 0.57358 0.0
C349 C 0.50044 0.10083 0.5751 0.0
H350 H 0.53848 0.21974 0.60544 0.0
C351 C 0.4611 0.07802 0.60912 0.0
H352 H 0.55813 0.17068 0.54799 0.0
C353 C 0.44892 0.10617 0.64096 0.0
C354 C 0.47703 0.1575 0.64054 0.0
H355 H 0.43973 0.03846 0.61098 0.0
H356 H 0.41858 0.08786 0.667 0.0
C357 C 0.51634 0.1802 0.60658 0.0
C358 C 0.34178 0.38078 0.16136 0.0
C359 C 0.35036 0.41244 0.11993 0.0
H360 H 0.30412 0.35277 0.23246 0.0
C361 C 0.32453 0.43811 0.11744 0.0
H362 H 0.36108 0.36048 0.16436 0.0
C363 C 0.29304 0.43441 0.15651 0.0
C364 C 0.28553 0.40409 0.19862 0.0
H365 H 0.33016 0.46291 0.08629 0.0
H366 H 0.27521 0.45619 0.15426 0.0
C367 C 0.30909 0.37618 0.20016 0.0
C368 C 0.97129 0.39185 0.65357 0.0
C369 C 0.96618 0.4335 0.6515 0.0
H370 H 0.93971 0.31721 0.67703 0.0
C371 C 0.92659 0.43322 0.6759 0.0
H372 H 1.00063 0.39085 0.63326 0.0
C373 C 0.89083 0.39079 0.69934 0.0
C374 C 0.89423 0.34798 0.69881 0.0
H375 H 0.92112 0.4645 0.67303 0.0
H376 H 0.85963 0.39103 0.7161 0.0
C377 C 0.93584 0.3495 0.67759 0.0
C378 C 0.58449 0.93802 0.04581 0.0
C379 C 0.59431 0.98119 0.07193 0.0
H380 H 0.58841 0.87211 0.04708 0.0
C381 C 0.62478 0.99526 0.11546 0.0
H382 H 0.56185 0.92634 0.01164 0.0
C383 C 0.64111 0.96433 0.13497 0.0
C384 C 0.62737 0.91918 0.11111 0.0
H385 H 0.63328 0.02837 0.13626 0.0
H386 H 0.66049 0.97353 0.17126 0.0
C387 C 0.6005 0.90725 0.06541 0.0
C388 C 0.70825 0.64717 0.61805 0.0
C389 C 0.66139 0.63822 0.63136 0.0
H390 H 0.77311 0.64704 0.64292 0.0
C391 C 0.64755 0.63065 0.68296 0.0
H392 H 0.71975 0.65292 0.57854 0.0
C393 C 0.67786 0.62657 0.71954 0.0
C394 C 0.72283 0.63145 0.70517 0.0
H395 H 0.61144 0.62303 0.69421 0.0
H396 H 0.66463 0.61604 0.75815 0.0
C397 C 0.73884 0.64396 0.6548 0.0
C398 C 0.1823 0.61185 0.0816 0.0
C399 C 0.14326 0.6156 0.06023 0.0
H400 H 0.23837 0.63752 0.13969 0.0
C401 C 0.13456 0.6526 0.07781 0.0
H402 H 0.18885 0.58267 0.0697 0.0
C403 C 0.16238 0.68355 0.11778 0.0
C404 C 0.19923 0.67782 0.14193 0.0
H405 H 0.10414 0.65567 0.06266 0.0
H406 H 0.1533 0.71057 0.13125 0.0
C407 C 0.21002 0.64266 0.12229 0.0
loop_
_geom_bond_atom_site_label_1
_geom_bond_atom_site_label_2
_geom_bond_distance
_geom_bond_site_symmetry_2
_ccdc_geom_bond_type
C0 O2 1.258 . S
C0 O4 1.258 . S
C1 O8 1.254 . S
C1 O9 1.258 . S
O2 C0 1.258 . S
O2 Zn3 2.025 1_455 S
Zn3 O2 2.025 1_655 S
Zn3 O7 2.035 1_554 S
Zn3 O9 2.035 1_554 S
Zn3 O10 2.014 1_655 S
O4 C0 1.258 . S
O4 Zn5 2.035 1_554 S
Zn5 O4 2.035 1_556 S
Zn5 O6 2.019 1_455 S
Zn5 O8 2.026 1_455 S
Zn5 O11 2.035 1_556 S
O6 Zn5 2.019 1_655 S
O6 C12 1.256 . S
O7 Zn3 2.035 1_556 S
O7 C12 1.258 . S
O8 C1 1.254 . S
O8 Zn5 2.026 1_655 S
O9 C1 1.258 . S
O9 Zn3 2.035 1_556 S
O10 Zn3 2.014 1_455 S
O10 C13 1.262 . S
O11 Zn5 2.035 1_554 S
O11 C13 1.258 . S
C12 O6 1.256 . S
C12 O7 1.258 . S
C13 O10 1.262 . S
C13 O11 1.258 . S
C14 O16 1.262 . S
C14 O18 1.258 . S
C15 O22 1.256 . S
C15 O23 1.258 . S
O16 C14 1.262 . S
O16 Zn17 2.014 1_545 S
Zn17 O16 2.014 1_565 S
Zn17 O21 2.035 . S
Zn17 O23 2.035 . S
Zn17 O24 2.025 1_565 S
O18 C14 1.258 . S
O18 Zn19 2.035 . S
Zn19 O18 2.035 . S
Zn19 O20 2.026 1_545 S
Zn19 O22 2.019 1_545 S
Zn19 O25 2.035 . S
O20 Zn19 2.026 1_565 S
O20 C26 1.254 . S
O21 Zn17 2.035 . S
O21 C26 1.258 . S
O22 C15 1.256 . S
O22 Zn19 2.019 1_565 S
O23 C15 1.258 . S
O23 Zn17 2.035 . S
O24 Zn17 2.025 1_545 S
O24 C27 1.258 . S
O25 Zn19 2.035 . S
O25 C27 1.258 . S
C26 O20 1.254 . S
C26 O21 1.258 . S
C27 O24 1.258 . S
C27 O25 1.258 . S
C28 O30 1.247 . S
C28 O32 1.258 . S
C29 O36 1.247 . S
C29 O37 1.258 . S
O30 C28 1.247 . S
O30 Zn31 2.028 . S
Zn31 O30 2.028 . S
Zn31 O35 2.035 1_556 S
Zn31 O37 2.035 1_556 S
Zn31 O38 2.028 . S
O32 C28 1.258 . S
O32 Zn33 2.035 1_556 S
Zn33 O32 2.035 1_554 S
Zn33 O34 2.028 . S
Zn33 O36 2.028 . S
Zn33 O39 2.035 1_554 S
O34 Zn33 2.028 . S
O34 C40 1.247 . S
O35 Zn31 2.035 1_554 S
O35 C40 1.258 . S
O36 C29 1.247 . S
O36 Zn33 2.028 . S
O37 C29 1.258 . S
O37 Zn31 2.035 1_554 S
O38 Zn31 2.028 . S
O38 C41 1.247 . S
O39 Zn33 2.035 1_556 S
O39 C41 1.258 . S
C40 O34 1.247 . S
C40 O35 1.258 . S
C41 O38 1.247 . S
C41 O39 1.258 . S
C42 O44 1.247 . S
C42 O46 1.271 . S
C43 O50 1.247 . S
C43 O51 1.266 . S
O44 C42 1.247 . S
O44 Zn45 2.028 . S
Zn45 O44 2.028 . S
Zn45 O49 2.025 1_455 S
Zn45 O51 2.033 1_455 S
Zn45 O52 2.028 . S
O46 C42 1.271 . S
O46 Zn47 2.032 1_455 S
Zn47 O46 2.032 1_655 S
Zn47 O48 2.028 . S
Zn47 O50 2.028 . S
Zn47 O53 2.020 1_655 S
O48 Zn47 2.028 . S
O48 C54 1.247 . S
O49 Zn45 2.025 1_655 S
O49 C54 1.270 . S
O50 C43 1.247 . S
O50 Zn47 2.028 . S
O51 C43 1.266 . S
O51 Zn45 2.033 1_655 S
O52 Zn45 2.028 . S
O52 C55 1.247 . S
O53 Zn47 2.020 1_455 S
O53 C55 1.276 . S
C54 O48 1.247 . S
C54 O49 1.270 . S
C55 O52 1.247 . S
C55 O53 1.276 . S
C56 O58 1.256 . S
C56 O60 1.258 . S
C57 O64 1.262 . S
C57 O65 1.258 . S
O58 C56 1.256 . S
O58 Zn59 2.019 1_565 S
Zn59 O58 2.019 1_545 S
Zn59 O63 2.035 1_554 S
Zn59 O65 2.035 1_554 S
Zn59 O66 2.026 1_545 S
O60 C56 1.258 . S
O60 Zn61 2.035 1_554 S
Zn61 O60 2.035 1_556 S
Zn61 O62 2.025 1_565 S
Zn61 O64 2.014 1_565 S
Zn61 O67 2.035 1_556 S
O62 Zn61 2.025 1_545 S
O62 C68 1.258 . S
O63 Zn59 2.035 1_556 S
O63 C68 1.258 . S
O64 C57 1.262 . S
O64 Zn61 2.014 1_545 S
O65 C57 1.258 . S
O65 Zn59 2.035 1_556 S
O66 Zn59 2.026 1_565 S
O66 C69 1.254 . S
O67 Zn61 2.035 1_554 S
O67 C69 1.258 . S
C68 O62 1.258 . S
C68 O63 1.258 . S
C69 O66 1.254 . S
C69 O67 1.258 . S
C70 O72 1.247 . S
C70 O74 1.258 . S
C71 O78 1.247 . S
C71 O79 1.258 . S
O72 C70 1.247 . S
O72 Zn73 2.028 . S
Zn73 O72 2.028 . S
Zn73 O77 2.035 . S
Zn73 O79 2.035 . S
Zn73 O80 2.028 . S
O74 C70 1.258 . S
O74 Zn75 2.035 . S
Zn75 O74 2.035 . S
Zn75 O76 2.028 . S
Zn75 O78 2.028 . S
Zn75 O81 2.035 . S
O76 Zn75 2.028 . S
O76 C82 1.247 . S
O77 Zn73 2.035 . S
O77 C82 1.258 . S
O78 C71 1.247 . S
O78 Zn75 2.028 . S
O79 C71 1.258 . S
O79 Zn73 2.035 . S
O80 Zn73 2.028 . S
O80 C83 1.247 . S
O81 Zn75 2.035 . S
O81 C83 1.258 . S
C82 O76 1.247 . S
C82 O77 1.258 . S
C83 O80 1.247 . S
C83 O81 1.258 . S
C84 O86 1.247 . S
C84 O88 1.258 . S
C85 O92 1.247 . S
C85 O93 1.258 . S
O86 C84 1.247 . S
O86 Zn87 2.028 . S
Zn87 O86 2.028 . S
Zn87 O91 2.035 . S
Zn87 O93 2.035 . S
Zn87 O94 2.028 . S
O88 C84 1.258 . S
O88 Zn89 2.035 . S
Zn89 O88 2.035 . S
Zn89 O90 2.028 . S
Zn89 O92 2.028 . S
Zn89 O95 2.035 . S
O90 Zn89 2.028 . S
O90 C96 1.247 . S
O91 Zn87 2.035 . S
O91 C96 1.258 . S
O92 C85 1.247 . S
O92 Zn89 2.028 . S
O93 C85 1.258 . S
O93 Zn87 2.035 . S
O94 Zn87 2.028 . S
O94 C97 1.247 . S
O95 Zn89 2.035 . S
O95 C97 1.258 . S
C96 O90 1.247 . S
C96 O91 1.258 . S
C97 O94 1.247 . S
C97 O95 1.258 . S
C98 O100 1.247 . S
C98 O102 1.258 . S
C99 O106 1.247 . S
C99 O107 1.258 . S
O100 C98 1.247 . S
O100 Zn101 2.028 . S
Zn101 O100 2.028 . S
Zn101 O105 2.035 . S
Zn101 O107 2.035 . S
Zn101 O108 2.028 . S
O102 C98 1.258 . S
O102 Zn103 2.035 . S
Zn103 O102 2.035 . S
Zn103 O104 2.028 . S
Zn103 O106 2.028 . S
Zn103 O109 2.035 . S
O104 Zn103 2.028 . S
O104 C110 1.247 . S
O105 Zn101 2.035 . S
O105 C110 1.258 . S
O106 C99 1.247 . S
O106 Zn103 2.028 . S
O107 C99 1.258 . S
O107 Zn101 2.035 . S
O108 Zn101 2.028 . S
O108 C111 1.247 . S
O109 Zn103 2.035 . S
O109 C111 1.258 . S
C110 O104 1.247 . S
C110 O105 1.258 . S
C111 O108 1.247 . S
C111 O109 1.258 . S
C112 O114 1.247 . S
C112 O116 1.258 . S
C113 O120 1.247 . S
C113 O121 1.258 . S
O114 C112 1.247 . S
O114 Zn115 2.028 . S
Zn115 O114 2.028 . S
Zn115 O119 2.035 . S
Zn115 O121 2.035 . S
Zn115 O122 2.028 . S
O116 C112 1.258 . S
O116 Zn117 2.035 . S
Zn117 O116 2.035 . S
Zn117 O118 2.028 . S
Zn117 O120 2.028 . S
Zn117 O123 2.035 . S
O118 Zn117 2.028 . S
O118 C124 1.247 . S
O119 Zn115 2.035 . S
O119 C124 1.258 . S
O120 C113 1.247 . S
O120 Zn117 2.028 . S
O121 C113 1.258 . S
O121 Zn115 2.035 . S
O122 Zn115 2.028 . S
O122 C125 1.247 . S
O123 Zn117 2.035 . S
O123 C125 1.258 . S
C124 O118 1.247 . S
C124 O119 1.258 . S
C125 O122 1.247 . S
C125 O123 1.258 . S
C126 O128 1.247 . S
C126 O130 1.258 . S
C127 O134 1.247 . S
C127 O135 1.258 . S
O128 C126 1.247 . S
O128 Zn129 2.028 . S
Zn129 O128 2.028 . S
Zn129 O133 2.035 . S
Zn129 O135 2.035 . S
Zn129 O136 2.028 . S
O130 C126 1.258 . S
O130 Zn131 2.035 . S
Zn131 O130 2.035 . S
Zn131 O132 2.028 . S
Zn131 O134 2.028 . S
Zn131 O137 2.035 . S
O132 Zn131 2.028 . S
O132 C138 1.247 . S
O133 Zn129 2.035 . S
O133 C138 1.258 . S
O134 C127 1.247 . S
O134 Zn131 2.028 . S
O135 C127 1.258 . S
O135 Zn129 2.035 . S
O136 Zn129 2.028 . S
O136 C139 1.247 . S
O137 Zn131 2.035 . S
O137 C139 1.258 . S
C138 O132 1.247 . S
C138 O133 1.258 . S
C139 O136 1.247 . S
C139 O137 1.258 . S
C140 O142 1.247 . S
C140 O144 1.258 . S
C141 O148 1.247 . S
C141 O149 1.258 . S
O142 C140 1.247 . S
O142 Zn143 2.028 . S
Zn143 O142 2.028 . S
Zn143 O147 2.035 . S
Zn143 O149 2.035 . S
Zn143 O150 2.028 . S
O144 C140 1.258 . S
O144 Zn145 2.035 . S
Zn145 O144 2.035 . S
Zn145 O146 2.028 . S
Zn145 O148 2.028 . S
Zn145 O151 2.035 . S
O146 Zn145 2.028 . S
O146 C152 1.247 . S
O147 Zn143 2.035 . S
O147 C152 1.258 . S
O148 C141 1.247 . S
O148 Zn145 2.028 . S
O149 C141 1.258 . S
O149 Zn143 2.035 . S
O150 Zn143 2.028 . S
O150 C153 1.247 . S
O151 Zn145 2.035 . S
O151 C153 1.258 . S
C152 O146 1.247 . S
C152 O147 1.258 . S
C153 O150 1.247 . S
C153 O151 1.258 . S
C154 O156 1.247 . S
C154 O158 1.258 . S
C155 O162 1.247 . S
C155 O163 1.258 . S
O156 C154 1.247 . S
O156 Zn157 2.028 . S
Zn157 O156 2.028 . S
Zn157 O161 2.035 . S
Zn157 O163 2.035 . S
Zn157 O164 2.028 . S
O158 C154 1.258 . S
O158 Zn159 2.035 . S
Zn159 O158 2.035 . S
Zn159 O160 2.028 . S
Zn159 O162 2.028 . S
Zn159 O165 2.035 . S
O160 Zn159 2.028 . S
O160 C166 1.247 . S
O161 Zn157 2.035 . S
O161 C166 1.258 . S
O162 C155 1.247 . S
O162 Zn159 2.028 . S
O163 C155 1.258 . S
O163 Zn157 2.035 . S
O164 Zn157 2.028 . S
O164 C167 1.247 . S
O165 Zn159 2.035 . S
O165 C167 1.258 . S
C166 O160 1.247 . S
C166 O161 1.258 . S
C167 O164 1.247 . S
C167 O165 1.258 . S
C168 C169 1.387 . S
C168 H172 0.950 . S
C168 C177 1.390 . S
C169 C168 1.387 . S
C169 C171 1.387 . S
H170 C177 0.950 . S
C171 C169 1.387 . S
C171 C173 1.390 . S
C171 H175 0.950 . S
H172 C168 0.950 . S
C173 C171 1.390 . S
C173 C174 1.387 . S
C173 H176 0.950 . S
C174 C173 1.387 . S
C174 C177 1.387 . S
H175 C171 0.950 . S
H176 C173 0.950 . S
C177 C168 1.390 . S
C177 H170 0.950 . S
C177 C174 1.387 . S
C178 C179 1.387 . S
C178 H182 0.950 . S
C178 C187 1.390 . S
C179 C178 1.387 . S
C179 C181 1.387 . S
H180 C187 0.950 . S
C181 C179 1.387 . S
C181 C183 1.390 . S
C181 H185 0.950 . S
H182 C178 0.950 . S
C183 C181 1.390 . S
C183 C184 1.387 . S
C183 H186 0.950 . S
C184 C183 1.387 . S
C184 C187 1.387 . S
H185 C181 0.950 . S
H186 C183 0.950 . S
C187 C178 1.390 . S
C187 H180 0.950 . S
C187 C184 1.387 . S
C188 C189 1.387 . S
C188 H192 0.950 . S
C188 C197 1.390 . S
C189 C188 1.387 . S
C189 C191 1.387 . S
H190 C197 0.950 . S
C191 C189 1.387 . S
C191 C193 1.390 . S
C191 H195 0.950 . S
H192 C188 0.950 . S
C193 C191 1.390 . S
C193 C194 1.387 . S
C193 H196 0.950 . S
C194 C193 1.387 . S
C194 C197 1.387 . S
H195 C191 0.950 . S
H196 C193 0.950 . S
C197 C188 1.390 . S
C197 H190 0.950 . S
C197 C194 1.387 . S
C198 C199 1.387 . S
C198 H202 0.950 . S
C198 C207 1.390 . S
C199 C198 1.387 . S
C199 C201 1.387 . S
H200 C207 0.950 . S
C201 C199 1.387 . S
C201 C203 1.390 . S
C201 H205 0.950 . S
H202 C198 0.950 . S
C203 C201 1.390 . S
C203 C204 1.387 . S
C203 H206 0.950 . S
C204 C203 1.387 . S
C204 C207 1.387 . S
H205 C201 0.950 . S
H206 C203 0.950 . S
C207 C198 1.390 . S
C207 H200 0.950 . S
C207 C204 1.387 . S
C208 C209 1.387 . S
C208 H212 0.950 . S
C208 C217 1.390 . S
C209 C208 1.387 . S
C209 C211 1.387 . S
H210 C217 0.950 . S
C211 C209 1.387 . S
C211 C213 1.390 . S
C211 H215 0.950 . S
H212 C208 0.950 . S
C213 C211 1.390 . S
C213 C214 1.387 . S
C213 H216 0.950 . S
C214 C213 1.387 . S
C214 C217 1.387 . S
H215 C211 0.950 . S
H216 C213 0.950 . S
C217 C208 1.390 . S
C217 H210 0.950 . S
C217 C214 1.387 . S
C218 C219 1.387 . S
C218 H222 0.950 . S
C218 C227 1.390 . S
C219 C218 1.387 . S
C219 C221 1.387 . S
H220 C227 0.950 . S
C221 C219 1.387 . S
C221 C223 1.390 . S
C221 H225 0.950 . S
H222 C218 0.950 . S
C223 C221 1.390 . S
C223 C224 1.387 . S
C223 H226 0.950 . S
C224 C223 1.387 . S
C224 C227 1.387 . S
H225 C221 0.950 . S
H226 C223 0.950 . S
C227 C218 1.390 . S
C227 H220 0.950 . S
C227 C224 1.387 . S
C228 C229 1.387 . S
C228 H232 0.950 . S
C228 C237 1.390 . S
C229 C228 1.387 . S
C229 C231 1.387 . S
H230 C237 0.950 . S
C231 C229 1.387 . S
C231 C233 1.390 . S
C231 H235 0.950 . S
H232 C228 0.950 . S
C233 C231 1.390 . S
C233 C234 1.387 . S
C233 H236 0.950 . S
C234 C233 1.387 . S
C234 C237 1.387 . S
H235 C231 0.950 . S
H236 C233 0.950 . S
C237 C228 1.390 . S
C237 H230 0.950 . S
C237 C234 1.387 . S
C238 C239 1.387 . S
C238 H242 0.950 . S
C238 C247 1.390 . S
C239 C238 1.387 . S
C239 C241 1.387 . S
H240 C247 0.950 . S
C241 C239 1.387 . S
C241 C243 1.390 . S
C241 H245 0.950 . S
H242 C238 0.950 . S
C243 C241 1.390 . S
C243 C244 1.387 . S
C243 H246 0.950 . S
C244 C243 1.387 . S
C244 C247 1.387 . S
H245 C241 0.950 . S
H246 C243 0.950 . S
C247 C238 1.390 . S
C247 H240 0.950 . S
C247 C244 1.387 . S
C248 C249 1.387 . S
C248 H252 0.950 . S
C248 C257 1.390 . S
C249 C248 1.387 . S
C249 C251 1.387 . S
H250 C257 0.950 . S
C251 C249 1.387 . S
C251 C253 1.390 . S
C251 H255 0.950 . S
H252 C248 0.950 . S
C253 C251 1.390 . S
C253 C254 1.387 . S
C253 H256 0.950 . S
C254 C253 1.387 . S
C254 C257 1.387 . S
H255 C251 0.950 . S
H256 C253 0.950 . S
C257 C248 1.390 . S
C257 H250 0.950 . S
C257 C254 1.387 . S
C258 C259 1.387 . S
C258 H262 0.950 . S
C258 C267 1.390 . S
C259 C258 1.387 . S
C259 C261 1.387 . S
H260 C267 0.950 . S
C261 C259 1.387 . S
C261 C263 1.390 . S
C261 H265 0.950 . S
H262 C258 0.950 . S
C263 C261 1.390 . S
C263 C264 1.387 . S
C263 H266 0.950 . S
C264 C263 1.387 . S
C264 C267 1.387 . S
H265 C261 0.950 . S
H266 C263 0.950 . S
C267 C258 1.390 . S
C267 H260 0.950 . S
C267 C264 1.387 . S
C268 C269 1.387 . S
C268 H272 0.950 . S
C268 C277 1.390 . S
C269 C268 1.387 . S
C269 C271 1.387 . S
H270 C277 0.950 . S
C271 C269 1.387 . S
C271 C273 1.390 . S
C271 H275 0.950 . S
H272 C268 0.950 . S
C273 C271 1.390 . S
C273 C274 1.387 . S
C273 H276 0.950 . S
C274 C273 1.387 . S
C274 C277 1.387 . S
H275 C271 0.950 . S
H276 C273 0.950 . S
C277 C268 1.390 . S
C277 H270 0.950 . S
C277 C274 1.387 . S
C278 C279 1.387 . S
C278 H282 0.950 . S
C278 C287 1.390 . S
C279 C278 1.387 . S
C279 C281 1.387 . S
H280 C287 0.950 . S
C281 C279 1.387 . S
C281 C283 1.390 . S
C281 H285 0.950 . S
H282 C278 0.950 . S
C283 C281 1.390 . S
C283 C284 1.387 . S
C283 H286 0.950 . S
C284 C283 1.387 . S
C284 C287 1.387 . S
H285 C281 0.950 . S
H286 C283 0.950 . S
C287 C278 1.390 . S
C287 H280 0.950 . S
C287 C284 1.387 . S
C288 C289 1.387 . S
C288 H292 0.950 . S
C288 C297 1.390 . S
C289 C288 1.387 . S
C289 C291 1.387 . S
H290 C297 0.950 . S
C291 C289 1.387 . S
C291 C293 1.390 . S
C291 H295 0.950 . S
H292 C288 0.950 . S
C293 C291 1.390 . S
C293 C294 1.387 . S
C293 H296 0.950 . S
C294 C293 1.387 . S
C294 C297 1.387 . S
H295 C291 0.950 . S
H296 C293 0.950 . S
C297 C288 1.390 . S
C297 H290 0.950 . S
C297 C294 1.387 . S
C298 C299 1.387 . S
C298 H302 0.950 . S
C298 C307 1.390 . S
C299 C298 1.387 . S
C299 C301 1.387 . S
H300 C307 0.950 . S
C301 C299 1.387 . S
C301 C303 1.390 . S
C301 H305 0.950 . S
H302 C298 0.950 . S
C303 C301 1.390 . S
C303 C304 1.387 . S
C303 H306 0.950 . S
C304 C303 1.387 . S
C304 C307 1.387 . S
H305 C301 0.950 . S
H306 C303 0.950 . S
C307 C298 1.390 . S
C307 H300 0.950 . S
C307 C304 1.387 . S
C308 C309 1.387 . S
C308 H312 0.950 . S
C308 C317 1.390 . S
C309 C308 1.387 . S
C309 C311 1.387 . S
H310 C317 0.950 . S
C311 C309 1.387 . S
C311 C313 1.390 . S
C311 H315 0.950 . S
H312 C308 0.950 . S
C313 C311 1.390 . S
C313 C314 1.387 . S
C313 H316 0.950 . S
C314 C313 1.387 . S
C314 C317 1.387 . S
H315 C311 0.950 . S
H316 C313 0.950 . S
C317 C308 1.390 . S
C317 H310 0.950 . S
C317 C314 1.387 . S
C318 C319 1.387 . S
C318 H322 0.950 . S
C318 C327 1.390 . S
C319 C318 1.387 . S
C319 C321 1.387 . S
H320 C327 0.950 . S
C321 C319 1.387 . S
C321 C323 1.390 . S
C321 H325 0.950 . S
H322 C318 0.950 . S
C323 C321 1.390 . S
C323 C324 1.387 . S
C323 H326 0.950 . S
C324 C323 1.387 . S
C324 C327 1.387 . S
H325 C321 0.950 . S
H326 C323 0.950 . S
C327 C318 1.390 . S
C327 H320 0.950 . S
C327 C324 1.387 . S
C328 C329 1.387 . S
C328 H332 0.950 . S
C328 C337 1.390 . S
C329 C328 1.387 . S
C329 C331 1.387 . S
H330 C337 0.950 . S
C331 C329 1.387 . S
C331 C333 1.390 . S
C331 H335 0.950 . S
H332 C328 0.950 . S
C333 C331 1.390 . S
C333 C334 1.387 . S
C333 H336 0.950 . S
C334 C333 1.387 . S
C334 C337 1.387 . S
H335 C331 0.950 . S
H336 C333 0.950 . S
C337 C328 1.390 . S
C337 H330 0.950 . S
C337 C334 1.387 . S
C338 C339 1.387 . S
C338 H342 0.950 . S
C338 C347 1.390 . S
C339 C338 1.387 . S
C339 C341 1.387 . S
H340 C347 0.950 . S
C341 C339 1.387 . S
C341 C343 1.390 . S
C341 H345 0.950 . S
H342 C338 0.950 . S
C343 C341 1.390 . S
C343 C344 1.387 . S
C343 H346 0.950 . S
C344 C343 1.387 . S
C344 C347 1.387 . S
H345 C341 0.950 . S
H346 C343 0.950 . S
C347 C338 1.390 . S
C347 H340 0.950 . S
C347 C344 1.387 . S
C348 C349 1.387 . S
C348 H352 0.950 . S
C348 C357 1.390 . S
C349 C348 1.387 . S
C349 C351 1.387 . S
H350 C357 0.950 . S
C351 C349 1.387 . S
C351 C353 1.390 . S
C351 H355 0.950 . S
H352 C348 0.950 . S
C353 C351 1.390 . S
C353 C354 1.387 . S
C353 H356 0.950 . S
C354 C353 1.387 . S
C354 C357 1.387 . S
H355 C351 0.950 . S
H356 C353 0.950 . S
C357 C348 1.390 . S
C357 H350 0.950 . S
C357 C354 1.387 . S
C358 C359 1.387 . S
C358 H362 0.950 . S
C358 C367 1.390 . S
C359 C358 1.387 . S
C359 C361 1.387 . S
H360 C367 0.950 . S
C361 C359 1.387 . S
C361 C363 1.390 . S
C361 H365 0.950 . S
H362 C358 0.950 . S
C363 C361 1.390 . S
C363 C364 1.387 . S
C363 H366 0.950 . S
C364 C363 1.387 . S
C364 C367 1.387 . S
H365 C361 0.950 . S
H366 C363 0.950 . S
C367 C358 1.390 . S
C367 H360 0.950 . S
C367 C364 1.387 . S
C368 C369 1.387 . S
C368 H372 0.950 . S
C368 C377 1.390 . S
C369 C368 1.387 . S
C369 C371 1.387 . S
H370 C377 0.950 . S
C371 C369 1.387 . S
C371 C373 1.390 . S
C371 H375 0.950 . S
H372 C368 0.950 . S
C373 C371 1.390 . S
C373 C374 1.387 . S
C373 H376 0.950 . S
C374 C373 1.387 . S
C374 C377 1.387 . S
H375 C371 0.950 . S
H376 C373 0.950 . S
C377 C368 1.390 . S
C377 H370 0.950 . S
C377 C374 1.387 . S
C378 C379 1.387 . S
C378 H382 0.950 . S
C378 C387 1.390 . S
C379 C378 1.387 . S
C379 C381 1.387 . S
H380 C387 0.950 . S
C381 C379 1.387 . S
C381 C383 1.390 . S
C381 H385 0.950 . S
H382 C378 0.950 . S
C383 C381 1.390 . S
C383 C384 1.387 . S
C383 H386 0.950 . S
C384 C383 1.387 . S
C384 C387 1.387 . S
H385 C381 0.950 . S
H386 C383 0.950 . S
C387 C378 1.390 . S
C387 H380 0.950 . S
C387 C384 1.387 . S
C388 C389 1.387 . S
C388 H392 0.950 . S
C388 C397 1.390 . S
C389 C388 1.387 . S
C389 C391 1.387 . S
H390 C397 0.950 . S
C391 C389 1.387 . S
C391 C393 1.390 . S
C391 H395 0.950 . S
H392 C388 0.950 . S
C393 C391 1.390 . S
C393 C394 1.387 . S
C393 H396 0.950 . S
C394 C393 1.387 . S
C394 C397 1.387 . S
H395 C391 0.950 . S
H396 C393 0.950 . S
C397 C388 1.390 . S
C397 H390 0.950 . S
C397 C394 1.387 . S
C398 C399 1.387 . S
C398 H402 0.950 . S
C398 C407 1.390 . S
C399 C398 1.387 . S
C399 C401 1.387 . S
H400 C407 0.950 . S
C401 C399 1.387 . S
C401 C403 1.390 . S
C401 H405 0.950 . S
H402 C398 0.950 . S
C403 C401 1.390 . S
C403 C404 1.387 . S
C403 H406 0.950 . S
C404 C403 1.387 . S
C404 C407 1.387 . S
H405 C401 0.950 . S
H406 C403 0.950 . S
C407 C398 1.390 . S
C407 H400 0.950 . S
C407 C404 1.387 . S
C169 C13 1.649 . S
C174 C85 1.604 . S
C179 C27 1.650 . S
C184 C110 1.612 . S
C194 C113 1.608 . S
C189 C29 1.648 . S
C204 C139 1.610 . S
C199 C54 1.653 . S
C214 C140 1.613 . S
C209 C69 1.649 . S
C224 C167 1.608 . S
C219 C83 1.649 . S
C229 C15 1.650 . S
C234 C112 1.615 . S
C239 C41 1.649 . S
C244 C138 1.612 . S
C254 C141 1.609 . S
C249 C42 1.650 . S
C264 C166 1.611 . S
C259 C57 1.649 . S
C269 C71 1.649 . S
C274 C84 1.611 . S
C284 C111 1.610 . S
C279 C1 1.652 . S
C294 C126 1.609 . S
C289 C12 1.654 . S
C299 C26 1.649 . S
C304 C153 1.612 . S
C314 C154 1.610 . S
C309 C28 1.652 . S
C319 C55 1.650 . S
C324 C96 1.607 . S
C329 C68 1.649 . S
C334 C99 1.612 . S
C339 C82 1.650 . S
C344 C124 1.610 . S
C349 C14 1.651 . S
C354 C155 1.611 . S
C364 C97 1.611 . S
C359 C40 1.648 . S
C369 C43 1.650 . S
C374 C98 1.609 . S
C379 C56 1.650 . S
C384 C125 1.613 . S
C389 C70 1.650 . S
C394 C127 1.612 . S
C399 C0 1.650 . S
C404 C152 1.607 . S
