# Generated by pormake.
# Topology cml, (3,6)-cn, num edge types: 1
# Building blocks:
#     Node 0, Type 0, BuildingBlock: WUSLED_clean_sbu_0, # of connection points: 3
#     Node 1, Type 0, BuildingBlock: WUSLED_clean_sbu_0, # of connection points: 3
#     Node 2, Type 0, BuildingBlock: WUSLED_clean_sbu_0, # of connection points: 3
#     Node 3, Type 0, BuildingBlock: WUSLED_clean_sbu_0, # of connection points: 3
#     Node 4, Type 0, BuildingBlock: WUSLED_clean_sbu_0, # of connection points: 3
#     Node 5, Type 0, BuildingBlock: WUSLED_clean_sbu_0, # of connection points: 3
#     Node 6, Type 0, BuildingBlock: WUSLED_clean_sbu_0, # of connection points: 3
#     Node 7, Type 0, BuildingBlock: WUSLED_clean_sbu_0, # of connection points: 3
#     Node 8, Type 1, BuildingBlock: OJICUG_clean_sbu_0, # of connection points: 6
#     Node 9, Type 1, BuildingBlock: OJICUG_clean_sbu_0, # of connection points: 6
#     Node 10, Type 1, BuildingBlock: OJICUG_clean_sbu_0, # of connection points: 6
#     Node 11, Type 1, BuildingBlock: OJICUG_clean_sbu_0, # of connection points: 6
#     Edge 12, Type (0, 1), BuildingBlock: TEMPAE_clean_linker_10, # of connection points: 2
#     Edge 13, Type (0, 1), BuildingBlock: TEMPAE_clean_linker_10, # of connection points: 2
#     Edge 14, Type (0, 1), BuildingBlock: TEMPAE_clean_linker_10, # of connection points: 2
#     Edge 15, Type (0, 1), BuildingBlock: TEMPAE_clean_linker_10, # of connection points: 2
#     Edge 16, Type (0, 1), BuildingBlock: TEMPAE_clean_linker_10, # of connection points: 2
#     Edge 17, Type (0, 1), BuildingBlock: TEMPAE_clean_linker_10, # of connection points: 2
#     Edge 18, Type (0, 1), BuildingBlock: TEMPAE_clean_linker_10, # of connection points: 2
#     Edge 19, Type (0, 1), BuildingBlock: TEMPAE_clean_linker_10, # of connection points: 2
#     Edge 20, Type (0, 1), BuildingBlock: TEMPAE_clean_linker_10, # of connection points: 2
#     Edge 21, Type (0, 1), BuildingBlock: TEMPAE_clean_linker_10, # of connection points: 2
#     Edge 22, Type (0, 1), BuildingBlock: TEMPAE_clean_linker_10, # of connection points: 2
#     Edge 23, Type (0, 1), BuildingBlock: TEMPAE_clean_linker_10, # of connection points: 2
#     Edge 24, Type (0, 1), BuildingBlock: TEMPAE_clean_linker_10, # of connection points: 2
#     Edge 25, Type (0, 1), BuildingBlock: TEMPAE_clean_linker_10, # of connection points: 2
#     Edge 26, Type (0, 1), BuildingBlock: TEMPAE_clean_linker_10, # of connection points: 2
#     Edge 27, Type (0, 1), BuildingBlock: TEMPAE_clean_linker_10, # of connection points: 2
#     Edge 28, Type (0, 1), BuildingBlock: TEMPAE_clean_linker_10, # of connection points: 2
#     Edge 29, Type (0, 1), BuildingBlock: TEMPAE_clean_linker_10, # of connection points: 2
#     Edge 30, Type (0, 1), BuildingBlock: TEMPAE_clean_linker_10, # of connection points: 2
#     Edge 31, Type (0, 1), BuildingBlock: TEMPAE_clean_linker_10, # of connection points: 2
#     Edge 32, Type (0, 1), BuildingBlock: TEMPAE_clean_linker_10, # of connection points: 2
#     Edge 33, Type (0, 1), BuildingBlock: TEMPAE_clean_linker_10, # of connection points: 2
#     Edge 34, Type (0, 1), BuildingBlock: TEMPAE_clean_linker_10, # of connection points: 2
#     Edge 35, Type (0, 1), BuildingBlock: TEMPAE_clean_linker_10, # of connection points: 2
# Relax obj value: 0.068
# Max RMSD: 0.082
# Mean RMSD: 0.077
data_MOF--net-cml--node1-WUSLED_clean_sbu_0--node2-OJICUG_clean_sbu_0--edge1-TEMPAE_clean_linker_10
_symmetry_space_group_name_H-M    P1
_symmetry_Int_Tables_number       1
_symmetry_cell_setting            triclinic
loop_
_symmetry_equiv_pos_as_xyz
'x, y, z'
_cell_length_a     50.8624
_cell_length_b     51.45057
_cell_length_c     48.359563
_cell_angle_alpha  90.348958
_cell_angle_beta   90.031508
_cell_angle_gamma 89.956188
loop_
_atom_site_label
_atom_site_type_symbol
_atom_site_fract_x
_atom_site_fract_y
_atom_site_fract_z
_atom_type_partial_charge
C0 C 0.30265 0.43224 0.94194 0.0
C1 C 0.30397 0.45542 0.95748 0.0
C2 C 0.33443 0.474 0.92418 0.0
C3 C 0.31961 0.47612 0.94861 0.0
C4 C 0.33275 0.451 0.90843 0.0
C5 C 0.31693 0.43041 0.91715 0.0
U6 U 0.29013 0.37954 0.99514 0.0
O7 O 0.25366 0.36301 0.01191 0.0
O8 O 0.28165 0.33783 0.98986 0.0
C9 C 0.25836 0.33982 1.00141 0.0
C10 C 0.28737 0.40953 0.95159 0.0
C11 C 0.23657 0.32745 0.98617 0.0
C12 C 0.19842 0.32964 0.95591 0.0
C13 C 0.21931 0.34193 0.9696 0.0
C14 C 0.21218 0.28826 0.97471 0.0
C15 C 0.19461 0.30265 0.95835 0.0
C16 C 0.23291 0.30056 0.9885 0.0
C17 C 0.33662 0.37874 0.05868 0.0
C18 C 0.3345 0.375 0.10884 0.0
C19 C 0.37257 0.3588 0.08416 0.0
C20 C 0.3613 0.36649 0.05917 0.0
C21 C 0.35955 0.36342 0.10936 0.0
C22 C 0.32316 0.38264 0.08378 0.0
C23 C 0.32655 0.38932 0.03228 0.0
O24 O 0.30024 0.38735 0.95173 0.0
O25 O 0.27269 0.41299 0.9737 0.0
O26 O 0.30316 0.40027 0.03263 0.0
O27 O 0.33075 0.37512 0.01003 0.0
H28 H 0.29327 0.45749 0.97673 0.0
H29 H 0.32067 0.49354 0.96126 0.0
H30 H 0.34372 0.44894 0.88935 0.0
H31 H 0.31615 0.41285 0.9047 0.0
H32 H 0.18536 0.3412 0.94324 0.0
H33 H 0.22191 0.36271 0.96735 0.0
H34 H 0.20961 0.26752 0.97728 0.0
H35 H 0.24602 0.28907 1.0012 0.0
H36 H 0.32406 0.3791 0.12789 0.0
H37 H 0.39172 0.34959 0.08377 0.0
H38 H 0.37225 0.36341 0.04021 0.0
H39 H 0.30421 0.39224 0.08422 0.0
C40 C 0.70347 0.66041 0.57711 0.0
C41 C 0.68173 0.64384 0.57957 0.0
C42 C 0.67042 0.66368 0.62381 0.0
C43 C 0.66536 0.64546 0.60267 0.0
C44 C 0.69244 0.68008 0.6214 0.0
C45 C 0.70882 0.67848 0.59816 0.0
U46 U 0.71868 0.62743 0.50956 0.0
O47 O 0.72872 0.64265 0.46857 0.0
O48 O 0.75602 0.61626 0.48968 0.0
C49 C 0.75203 0.63158 0.46843 0.0
C50 C 0.72024 0.65884 0.55242 0.0
C51 C 0.77422 0.64839 0.46075 0.0
C52 C 0.7967 0.69006 0.4616 0.0
C53 C 0.7759 0.67421 0.47013 0.0
C54 C 0.81463 0.65425 0.43483 0.0
C55 C 0.81624 0.68026 0.44376 0.0
C56 C 0.79378 0.6385 0.44322 0.0
C57 C 0.67311 0.57024 0.48952 0.0
C58 C 0.64738 0.55553 0.44995 0.0
C59 C 0.66627 0.52401 0.48119 0.0
C60 C 0.67715 0.54418 0.49696 0.0
C61 C 0.65086 0.5295 0.45782 0.0
C62 C 0.65838 0.57569 0.46561 0.0
C63 C 0.68227 0.59132 0.50813 0.0
O64 O 0.73465 0.63769 0.55051 0.0
O65 O 0.70836 0.66474 0.52914 0.0
O66 O 0.67833 0.61531 0.49984 0.0
O67 O 0.7053 0.58798 0.51998 0.0
H68 H 0.67739 0.62967 0.56353 0.0
H69 H 0.64883 0.63228 0.6041 0.0
H70 H 0.69675 0.69443 0.63724 0.0
H71 H 0.72553 0.69143 0.59655 0.0
H72 H 0.79758 0.70993 0.46907 0.0
H73 H 0.76106 0.68216 0.48385 0.0
H74 H 0.82922 0.64622 0.42087 0.0
H75 H 0.79277 0.61862 0.43576 0.0
H76 H 0.63579 0.56032 0.43189 0.0
H77 H 0.66903 0.50416 0.48795 0.0
H78 H 0.68811 0.53939 0.51546 0.0
H79 H 0.65475 0.59553 0.4593 0.0
C80 C 0.69985 0.42933 0.94355 0.0
C81 C 0.67273 0.42586 0.9393 0.0
C82 C 0.66791 0.47132 0.92631 0.0
C83 C 0.65701 0.44655 0.93066 0.0
C84 C 0.69512 0.47468 0.93028 0.0
C85 C 0.71091 0.45388 0.93872 0.0
U86 U 0.7146 0.37898 0.99827 0.0
O87 O 0.72584 0.33784 0.9954 0.0
O88 O 0.75204 0.3656 0.01633 0.0
C89 C 0.74901 0.34183 0.00672 0.0
C90 C 0.71656 0.40789 0.95387 0.0
C91 C 0.77165 0.33077 0.99166 0.0
C92 C 0.7934 0.31836 0.94876 0.0
C93 C 0.77234 0.33017 0.96262 0.0
C94 C 0.81373 0.3084 0.99276 0.0
C95 C 0.81425 0.30719 0.96369 0.0
C96 C 0.79258 0.32002 0.00658 0.0
C97 C 0.66563 0.37929 0.05976 0.0
C98 C 0.66692 0.35171 0.1004 0.0
C99 C 0.63108 0.38219 0.09416 0.0
C100 C 0.64218 0.39035 0.06933 0.0
C101 C 0.6432 0.36269 0.10997 0.0
C102 C 0.67804 0.35991 0.07538 0.0
C103 C 0.67642 0.38854 0.03344 0.0
O104 O 0.73015 0.41313 0.97636 0.0
O105 O 0.70576 0.38467 0.95424 0.0
O106 O 0.67395 0.37271 0.01218 0.0
O107 O 0.69944 0.40007 0.03462 0.0
H108 H 0.6635 0.40721 0.94283 0.0
H109 H 0.63625 0.44307 0.92729 0.0
H110 H 0.70417 0.49352 0.9274 0.0
H111 H 0.73175 0.45708 0.94191 0.0
H112 H 0.7934 0.318 0.92637 0.0
H113 H 0.75648 0.33856 0.95065 0.0
H114 H 0.82936 0.29976 0.00484 0.0
H115 H 0.7924 0.32029 0.02899 0.0
H116 H 0.67666 0.33659 0.11206 0.0
H117 H 0.61312 0.39144 0.10116 0.0
H118 H 0.63243 0.40542 0.05758 0.0
H119 H 0.6962 0.35117 0.06821 0.0
C120 C 0.30376 0.66494 0.57589 0.0
C121 C 0.32531 0.64821 0.57916 0.0
C122 C 0.33628 0.66902 0.62302 0.0
C123 C 0.34142 0.65024 0.60246 0.0
C124 C 0.31442 0.68556 0.61984 0.0
C125 C 0.29832 0.68356 0.59638 0.0
U126 U 0.28893 0.62981 0.50955 0.0
O127 O 0.25204 0.61886 0.48886 0.0
O128 O 0.28037 0.64398 0.46759 0.0
C129 C 0.25676 0.63361 0.46729 0.0
C130 C 0.28738 0.66299 0.5509 0.0
C131 C 0.23526 0.65095 0.45847 0.0
C132 C 0.19653 0.6772 0.46837 0.0
C133 C 0.21713 0.66133 0.47748 0.0
C134 C 0.21225 0.67301 0.42128 0.0
C135 C 0.19384 0.68319 0.44015 0.0
C136 C 0.23269 0.657 0.43037 0.0
C137 C 0.33455 0.57072 0.49589 0.0
C138 C 0.33744 0.54512 0.45357 0.0
C139 C 0.36442 0.53405 0.49312 0.0
C140 C 0.35337 0.55458 0.50808 0.0
C141 C 0.35688 0.52927 0.46558 0.0
C142 C 0.32638 0.5658 0.46863 0.0
C143 C 0.32462 0.59296 0.51193 0.0
O144 O 0.2999 0.66757 0.52767 0.0
O145 O 0.2723 0.64228 0.54953 0.0
O146 O 0.30091 0.59056 0.52239 0.0
O147 O 0.32912 0.61604 0.50145 0.0
H148 H 0.32973 0.63361 0.56359 0.0
H149 H 0.35781 0.63694 0.60449 0.0
H150 H 0.31005 0.70031 0.63523 0.0
H151 H 0.28176 0.69664 0.59416 0.0
H152 H 0.18284 0.685 0.48344 0.0
H153 H 0.21882 0.65711 0.49933 0.0
H154 H 0.21057 0.67706 0.3994 0.0
H155 H 0.24646 0.64918 0.41537 0.0
H156 H 0.33133 0.54198 0.43236 0.0
H157 H 0.37899 0.52194 0.50311 0.0
H158 H 0.35979 0.55806 0.52915 0.0
H159 H 0.31183 0.57814 0.45892 0.0
C160 C 0.80315 0.92943 0.94397 0.0
C161 C 0.80196 0.95366 0.95759 0.0
C162 C 0.83467 0.97139 0.92616 0.0
C163 C 0.8175 0.97444 0.94871 0.0
C164 C 0.83543 0.94736 0.9122 0.0
C165 C 0.81973 0.92668 0.92091 0.0
U166 U 0.79095 0.87759 0.99817 0.0
O167 O 0.75462 0.86098 0.01515 0.0
O168 O 0.78295 0.8357 0.99373 0.0
C169 C 0.75948 0.83772 0.00491 0.0
C170 C 0.78803 0.9067 0.95394 0.0
C171 C 0.73791 0.82541 0.98923 0.0
C172 C 0.70093 0.82779 0.9574 0.0
C173 C 0.72156 0.83991 0.97169 0.0
C174 C 0.71314 0.7865 0.97751 0.0
C175 C 0.69647 0.80094 0.96018 0.0
C176 C 0.73361 0.79865 0.99192 0.0
C177 C 0.8379 0.88058 0.06134 0.0
C178 C 0.83821 0.8515 0.10081 0.0
C179 C 0.8709 0.88556 0.09718 0.0
C180 C 0.85976 0.89354 0.07228 0.0
C181 C 0.86043 0.86434 0.11168 0.0
C182 C 0.82706 0.85953 0.07572 0.0
C183 C 0.82725 0.88945 0.03479 0.0
O184 O 0.8011 0.88465 0.95463 0.0
O185 O 0.77315 0.91037 0.97587 0.0
O186 O 0.8034 0.8993 0.03528 0.0
O187 O 0.83153 0.87414 0.01342 0.0
H188 H 0.78937 0.95654 0.9754 0.0
H189 H 0.81661 0.99268 0.95997 0.0
H190 H 0.8482 0.94456 0.89451 0.0
H191 H 0.82088 0.90833 0.90985 0.0
H192 H 0.6886 0.83938 0.94398 0.0
H193 H 0.72468 0.86058 0.96912 0.0
H194 H 0.71006 0.76586 0.98034 0.0
H195 H 0.74603 0.78713 0.00534 0.0
H196 H 0.82976 0.83505 0.11146 0.0
H197 H 0.88765 0.89619 0.10521 0.0
H198 H 0.8683 0.9099 0.0615 0.0
H199 H 0.81014 0.84929 0.06748 0.0
C200 C 0.20163 0.16172 0.57879 0.0
C201 C 0.18044 0.14452 0.58162 0.0
C202 C 0.16908 0.1642 0.62595 0.0
C203 C 0.16431 0.14575 0.60495 0.0
C204 C 0.19064 0.18114 0.62323 0.0
C205 C 0.20675 0.17994 0.59976 0.0
U206 U 0.21597 0.1302 0.51019 0.0
O207 O 0.22412 0.14677 0.46919 0.0
O208 O 0.25272 0.12052 0.48857 0.0
C209 C 0.24763 0.13622 0.46787 0.0
C210 C 0.21781 0.16093 0.55362 0.0
C211 C 0.26907 0.15364 0.45927 0.0
C212 C 0.30818 0.17923 0.46918 0.0
C213 C 0.28749 0.1635 0.47826 0.0
C214 C 0.2919 0.1759 0.42219 0.0
C215 C 0.31064 0.18554 0.44101 0.0
C216 C 0.27137 0.16006 0.43125 0.0
C217 C 0.17153 0.072 0.49048 0.0
C218 C 0.14504 0.05717 0.45152 0.0
C219 C 0.16588 0.02572 0.48146 0.0
C220 C 0.17661 0.04595 0.49725 0.0
C221 C 0.14958 0.03113 0.45874 0.0
C222 C 0.15588 0.0774 0.46721 0.0
C223 C 0.18063 0.09305 0.5092 0.0
O224 O 0.23276 0.14021 0.55087 0.0
O225 O 0.20514 0.16686 0.53082 0.0
O226 O 0.17571 0.11705 0.50156 0.0
O227 O 0.2041 0.09019 0.52019 0.0
H228 H 0.17625 0.13026 0.56564 0.0
H229 H 0.14813 0.13216 0.60661 0.0
H230 H 0.1947 0.19567 0.63896 0.0
H231 H 0.22302 0.1934 0.59786 0.0
H232 H 0.32215 0.18661 0.4842 0.0
H233 H 0.28599 0.15893 0.50004 0.0
H234 H 0.29341 0.18018 0.40035 0.0
H235 H 0.25738 0.1526 0.41628 0.0
H236 H 0.13274 0.06191 0.43396 0.0
H237 H 0.16947 0.00586 0.48771 0.0
H238 H 0.1883 0.04119 0.51526 0.0
H239 H 0.15144 0.09723 0.46143 0.0
C240 C 0.20229 0.93276 0.94834 0.0
C241 C 0.18123 0.94082 0.96504 0.0
C242 C 0.16932 0.97381 0.93135 0.0
C243 C 0.16489 0.96115 0.95663 0.0
C244 C 0.19067 0.96581 0.91483 0.0
C245 C 0.20699 0.94542 0.92326 0.0
U246 U 0.2184 0.88092 1.00055 0.0
O247 O 0.22925 0.83983 0.99558 0.0
O248 O 0.25631 0.86671 0.01661 0.0
C249 C 0.25272 0.84323 0.00643 0.0
C250 C 0.21902 0.91095 0.9569 0.0
C251 C 0.27496 0.83215 0.9908 0.0
C252 C 0.29584 0.81941 0.94754 0.0
C253 C 0.27498 0.8312 0.96176 0.0
C254 C 0.31722 0.81011 0.99115 0.0
C255 C 0.31713 0.80861 0.9621 0.0
C256 C 0.29631 0.82171 0.00533 0.0
C257 C 0.17378 0.8782 0.06538 0.0
C258 C 0.14803 0.84701 0.09166 0.0
C259 C 0.16769 0.88394 0.11499 0.0
C260 C 0.17835 0.89225 0.08991 0.0
C261 C 0.15198 0.86152 0.11604 0.0
C262 C 0.1588 0.85525 0.0666 0.0
C263 C 0.18243 0.88906 0.03857 0.0
O264 O 0.23351 0.91534 0.97895 0.0
O265 O 0.20722 0.88824 0.95735 0.0
O266 O 0.17844 0.87469 0.01637 0.0
O267 O 0.20523 0.90111 0.03837 0.0
H268 H 0.17737 0.93128 0.98454 0.0
H269 H 0.14886 0.96705 0.97001 0.0
H270 H 0.19444 0.97497 0.89512 0.0
H271 H 0.22314 0.93938 0.9101 0.0
H272 H 0.29535 0.8188 0.92515 0.0
H273 H 0.25877 0.83932 0.95009 0.0
H274 H 0.33317 0.80173 0.00298 0.0
H275 H 0.29663 0.82224 0.02774 0.0
H276 H 0.13618 0.82953 0.09188 0.0
H277 H 0.17079 0.89574 0.13333 0.0
H278 H 0.18949 0.91019 0.08958 0.0
H279 H 0.15473 0.84399 0.0481 0.0
C280 C 0.80195 0.16158 0.57814 0.0
C281 C 0.82307 0.14431 0.58129 0.0
C282 C 0.83452 0.1646 0.62529 0.0
C283 C 0.83921 0.14581 0.60461 0.0
C284 C 0.81305 0.18165 0.62223 0.0
C285 C 0.79693 0.18017 0.59877 0.0
U286 U 0.78667 0.129 0.51017 0.0
O287 O 0.74952 0.11963 0.48913 0.0
O288 O 0.77825 0.14517 0.46902 0.0
C289 C 0.75451 0.13511 0.46822 0.0
C290 C 0.78567 0.16047 0.55303 0.0
C291 C 0.73325 0.15296 0.46 0.0
C292 C 0.69467 0.17914 0.47065 0.0
C293 C 0.71521 0.16299 0.47932 0.0
C294 C 0.71031 0.17595 0.42344 0.0
C295 C 0.69195 0.18573 0.44259 0.0
C296 C 0.7307 0.15968 0.43208 0.0
C297 C 0.83018 0.06964 0.49143 0.0
C298 C 0.85434 0.05374 0.45129 0.0
C299 C 0.83803 0.02328 0.48516 0.0
C300 C 0.82731 0.04388 0.50042 0.0
C301 C 0.85212 0.02805 0.46073 0.0
C302 C 0.84347 0.07433 0.46645 0.0
C303 C 0.8214 0.09122 0.5096 0.0
O304 O 0.7983 0.16576 0.53005 0.0
O305 O 0.77044 0.13992 0.55083 0.0
O306 O 0.79795 0.0889 0.52074 0.0
O307 O 0.82659 0.11498 0.50135 0.0
H308 H 0.82717 0.12976 0.56557 0.0
H309 H 0.85532 0.13215 0.60654 0.0
H310 H 0.80905 0.19644 0.63769 0.0
H311 H 0.78072 0.19368 0.59661 0.0
H312 H 0.68099 0.18662 0.48591 0.0
H313 H 0.7169 0.15823 0.50104 0.0
H314 H 0.7086 0.18044 0.40166 0.0
H315 H 0.74439 0.15211 0.41687 0.0
H316 H 0.86488 0.05796 0.43238 0.0
H317 H 0.83624 0.00372 0.4931 0.0
H318 H 0.81743 0.03973 0.51974 0.0
H319 H 0.84609 0.09394 0.45891 0.0
Sc320 Sc 1.00256 0.80654 0.32283 0.0
Sc321 Sc 1.00115 0.87507 0.32414 0.0
Sc322 Sc 1.0031 0.84046 0.38665 0.0
O323 O 1.00226 0.84067 0.34453 0.0
C324 C 0.96397 0.79333 0.373 0.0
C325 C 0.96244 0.84063 0.28701 0.0
C326 C 0.96276 0.88677 0.37506 0.0
C327 C 0.04055 0.8418 0.28625 0.0
C328 C 0.04302 0.7944 0.37203 0.0
C329 C 0.04091 0.88837 0.37339 0.0
O330 O 0.97217 0.78983 0.34838 0.0
O331 O 0.97056 0.86226 0.29655 0.0
O332 O 0.97216 0.86901 0.39037 0.0
O333 O 0.03278 0.81972 0.29474 0.0
O334 O 0.03439 0.81224 0.38792 0.0
O335 O 0.03177 0.89205 0.34925 0.0
O336 O 0.03323 0.78987 0.34825 0.0
O337 O 0.03086 0.86309 0.29507 0.0
O338 O 0.03251 0.87052 0.38917 0.0
O339 O 0.97213 0.81895 0.29446 0.0
O340 O 0.97356 0.81053 0.38909 0.0
O341 O 0.97115 0.89104 0.35074 0.0
Sc342 Sc 1.00159 0.19565 0.8248 0.0
Sc343 Sc 1.00127 0.1273 0.81878 0.0
Sc344 Sc 1.00161 0.15666 0.88475 0.0
O345 O 1.00148 0.15988 0.84278 0.0
C346 C 0.04126 0.20422 0.87533 0.0
C347 C 0.04074 0.16373 0.78531 0.0
C348 C 0.04067 0.11078 0.86734 0.0
C349 C 0.96208 0.16445 0.78539 0.0
C350 C 0.96217 0.20432 0.87578 0.0
C351 C 0.9621 0.11097 0.86722 0.0
O352 O 0.03261 0.20979 0.85139 0.0
O353 O 0.03204 0.14156 0.79233 0.0
O354 O 0.03235 0.12769 0.88455 0.0
O355 O 0.97074 0.1855 0.79593 0.0
O356 O 0.97079 0.18513 0.88957 0.0
O357 O 0.97044 0.10936 0.84248 0.0
O358 O 0.9716 0.21063 0.85237 0.0
O359 O 0.97133 0.14228 0.79164 0.0
O360 O 0.97164 0.12685 0.88483 0.0
O361 O 0.03152 0.18489 0.79508 0.0
O362 O 0.03172 0.18589 0.88975 0.0
O363 O 0.03116 0.10837 0.84312 0.0
Sc364 Sc 0.50186 0.30677 0.32181 0.0
Sc365 Sc 0.50151 0.37539 0.32188 0.0
Sc366 Sc 0.50083 0.34177 0.38494 0.0
O367 O 0.5014 0.34129 0.34286 0.0
C368 C 0.46172 0.29475 0.37102 0.0
C369 C 0.4628 0.34099 0.28483 0.0
C370 C 0.462 0.38875 0.37152 0.0
C371 C 0.54087 0.34079 0.28517 0.0
C372 C 0.54084 0.29522 0.37238 0.0
C373 C 0.54022 0.38862 0.37186 0.0
O374 O 0.47075 0.29057 0.34685 0.0
O375 O 0.47082 0.36269 0.29432 0.0
O376 O 0.46997 0.3705 0.38705 0.0
O377 O 0.53281 0.31899 0.2941 0.0
O378 O 0.53182 0.3133 0.38772 0.0
O379 O 0.53229 0.39179 0.34716 0.0
O380 O 0.53175 0.29038 0.34836 0.0
O381 O 0.53123 0.36232 0.29334 0.0
O382 O 0.53049 0.3716 0.38785 0.0
O383 O 0.47232 0.31929 0.29251 0.0
O384 O 0.47086 0.3123 0.38695 0.0
O385 O 0.47174 0.39288 0.34774 0.0
Sc386 Sc 0.50375 0.69673 0.82291 0.0
Sc387 Sc 0.5018 0.62844 0.81631 0.0
Sc388 Sc 0.50349 0.65728 0.88247 0.0
O389 O 0.50301 0.66083 0.84056 0.0
C390 C 0.54365 0.7045 0.87334 0.0
C391 C 0.54202 0.6642 0.78304 0.0
C392 C 0.54142 0.61093 0.86436 0.0
C393 C 0.46343 0.66678 0.78334 0.0
C394 C 0.46456 0.70536 0.87411 0.0
C395 C 0.46296 0.61237 0.8649 0.0
O396 O 0.53533 0.71014 0.84929 0.0
O397 O 0.53301 0.64213 0.79005 0.0
O398 O 0.53426 0.62836 0.88156 0.0
O399 O 0.47243 0.68753 0.79422 0.0
O400 O 0.47274 0.68579 0.88761 0.0
O401 O 0.47043 0.61128 0.83984 0.0
O402 O 0.47428 0.71194 0.85092 0.0
O403 O 0.47235 0.64439 0.78922 0.0
O404 O 0.4735 0.62748 0.88265 0.0
O405 O 0.53317 0.68548 0.79287 0.0
O406 O 0.53364 0.6864 0.8877 0.0
O407 O 0.53102 0.60839 0.84056 0.0
C408 C 0.14687 0.30028 0.94535 0.0
C409 C 0.17219 0.28947 0.94434 0.0
C410 C 0.12529 0.2873 0.93351 0.0
C411 C 0.12913 0.263 0.92019 0.0
C412 C 0.15474 0.25228 0.91857 0.0
C413 C 0.17592 0.2656 0.93072 0.0
C414 C 0.09828 0.29931 0.93581 0.0
C415 C 0.15971 0.22654 0.90433 0.0
C416 C 0.07164 0.21607 0.91436 0.0
C417 C 0.06351 0.21961 0.88688 0.0
C418 C 0.09277 0.23025 0.9255 0.0
C419 C 0.10627 0.24834 0.90875 0.0
C420 C 0.09818 0.25209 0.88105 0.0
C421 C 0.07687 0.23776 0.87047 0.0
C422 C 0.10072 0.22577 0.95519 0.0
C423 C 0.11218 0.27109 0.8625 0.0
H424 H 0.14381 0.31859 0.95609 0.0
H425 H 0.1955 0.25732 0.92954 0.0
H426 H 0.08937 0.30131 0.91498 0.0
H427 H 0.08525 0.28641 0.94797 0.0
H428 H 0.09873 0.31874 0.94592 0.0
H429 H 0.18091 0.22134 0.90394 0.0
H430 H 0.14882 0.21091 0.9151 0.0
H431 H 0.15232 0.22713 0.88275 0.0
H432 H 0.06147 0.20221 0.9273 0.0
H433 H 0.07087 0.24064 0.8492 0.0
H434 H 0.09993 0.24434 0.96694 0.0
H435 H 0.1213 0.21868 0.95605 0.0
H436 H 0.08787 0.2114 0.96563 0.0
H437 H 0.11163 0.29084 0.8718 0.0
H438 H 0.10332 0.27193 0.84152 0.0
H439 H 0.13317 0.26551 0.86044 0.0
C440 C 0.83285 0.72245 0.42485 0.0
C441 C 0.83802 0.69716 0.43407 0.0
C442 C 0.85312 0.73833 0.41484 0.0
C443 C 0.87923 0.72875 0.41419 0.0
C444 C 0.88461 0.70333 0.42372 0.0
C445 C 0.86393 0.68782 0.43346 0.0
C446 C 0.84657 0.76527 0.4047 0.0
C447 C 0.91221 0.69251 0.42361 0.0
C448 C 0.92851 0.76003 0.36554 0.0
C449 C 0.94229 0.77673 0.38347 0.0
C450 C 0.90788 0.74441 0.37523 0.0
C451 C 0.90093 0.74533 0.40357 0.0
C452 C 0.91476 0.76204 0.4218 0.0
C453 C 0.93519 0.77758 0.41154 0.0
C454 C 0.89346 0.72694 0.35512 0.0
C455 C 0.90804 0.76346 0.45219 0.0
H456 H 0.81281 0.72965 0.42495 0.0
H457 H 0.86808 0.66839 0.44086 0.0
H458 H 0.85792 0.77998 0.41658 0.0
H459 H 0.85233 0.76716 0.38267 0.0
H460 H 0.8253 0.76984 0.40666 0.0
H461 H 0.91313 0.67245 0.43193 0.0
H462 H 0.92009 0.6923 0.40223 0.0
H463 H 0.9253 0.70515 0.43619 0.0
H464 H 0.93371 0.75927 0.34382 0.0
H465 H 0.9457 0.79031 0.42564 0.0
H466 H 0.87221 0.73182 0.35507 0.0
H467 H 0.89527 0.70639 0.36168 0.0
H468 H 0.90109 0.72865 0.33369 0.0
H469 H 0.88725 0.76949 0.45486 0.0
H470 H 0.92077 0.77736 0.46366 0.0
H471 H 0.91015 0.74397 0.46164 0.0
C472 C 0.83077 0.27609 0.92751 0.0
C473 C 0.83612 0.29363 0.94912 0.0
C474 C 0.85108 0.26207 0.91454 0.0
C475 C 0.87741 0.26582 0.92324 0.0
C476 C 0.88299 0.28395 0.94459 0.0
C477 C 0.86227 0.29755 0.95735 0.0
C478 C 0.84428 0.24277 0.89201 0.0
C479 C 0.91081 0.28871 0.95426 0.0
C480 C 0.92679 0.2114 0.91119 0.0
C481 C 0.94028 0.22002 0.88763 0.0
C482 C 0.90622 0.22603 0.92282 0.0
C483 C 0.89899 0.25001 0.91078 0.0
C484 C 0.91245 0.25885 0.887 0.0
C485 C 0.93285 0.24372 0.87565 0.0
C486 C 0.89222 0.21581 0.94805 0.0
C487 C 0.90543 0.28439 0.87367 0.0
H488 H 0.81058 0.27276 0.92126 0.0
H489 H 0.86655 0.31131 0.9738 0.0
H490 H 0.85556 0.24714 0.87297 0.0
H491 H 0.8499 0.22291 0.89859 0.0
H492 H 0.82298 0.24286 0.88692 0.0
H493 H 0.91197 0.30432 0.9702 0.0
H494 H 0.91908 0.2706 0.96308 0.0
H495 H 0.9234 0.29419 0.9365 0.0
H496 H 0.93221 0.19309 0.92058 0.0
H497 H 0.94314 0.25064 0.85752 0.0
H498 H 0.87088 0.21386 0.94373 0.0
H499 H 0.89437 0.22976 0.96548 0.0
H500 H 0.89993 0.19662 0.95466 0.0
H501 H 0.88448 0.28426 0.86726 0.0
H502 H 0.91776 0.28853 0.85526 0.0
H503 H 0.90787 0.3005 0.88882 0.0
C504 C 0.17637 0.71961 0.41112 0.0
C505 C 0.1718 0.69978 0.43032 0.0
C506 C 0.1557 0.73522 0.40141 0.0
C507 C 0.12978 0.73078 0.41095 0.0
C508 C 0.12504 0.71077 0.4303 0.0
C509 C 0.14611 0.69559 0.43984 0.0
C510 C 0.16162 0.75654 0.38102 0.0
C511 C 0.09766 0.70528 0.4408 0.0
C512 C 0.07942 0.78524 0.40569 0.0
C513 C 0.06538 0.77818 0.38177 0.0
C514 C 0.10048 0.7701 0.41529 0.0
C515 C 0.10763 0.74718 0.4008 0.0
C516 C 0.09359 0.7399 0.37667 0.0
C517 C 0.07273 0.75553 0.36738 0.0
C518 C 0.11511 0.77865 0.44096 0.0
C519 C 0.1005 0.71551 0.36075 0.0
H520 H 0.19623 0.72312 0.40393 0.0
H521 H 0.14242 0.6801 0.45441 0.0
H522 H 0.15026 0.75336 0.36171 0.0
H523 H 0.15544 0.7756 0.38969 0.0
H524 H 0.18285 0.75755 0.37573 0.0
H525 H 0.09724 0.68892 0.45568 0.0
H526 H 0.08952 0.72284 0.45112 0.0
H527 H 0.08448 0.7005 0.42319 0.0
H528 H 0.07406 0.80274 0.41693 0.0
H529 H 0.06201 0.74982 0.34895 0.0
H530 H 0.13627 0.78124 0.43617 0.0
H531 H 0.11369 0.76344 0.45705 0.0
H532 H 0.10735 0.79716 0.44964 0.0
H533 H 0.12121 0.71645 0.35362 0.0
H534 H 0.08761 0.71249 0.34246 0.0
H535 H 0.0988 0.69834 0.37441 0.0
C536 C 0.67802 0.76388 0.93233 0.0
C537 C 0.6743 0.78799 0.94546 0.0
C538 C 0.65702 0.75085 0.91945 0.0
C539 C 0.63161 0.76211 0.91985 0.0
C540 C 0.62781 0.78666 0.93265 0.0
C541 C 0.64921 0.79934 0.94522 0.0
C542 C 0.66196 0.72483 0.90579 0.0
C543 C 0.601 0.79924 0.93368 0.0
C544 C 0.58023 0.73712 0.86888 0.0
C545 C 0.566 0.71955 0.8852 0.0
C546 C 0.60158 0.75114 0.87986 0.0
C547 C 0.60882 0.74768 0.90787 0.0
C548 C 0.59445 0.73016 0.9245 0.0
C549 C 0.57332 0.71627 0.91297 0.0
C550 C 0.61654 0.76952 0.86141 0.0
C551 C 0.60143 0.72602 0.95452 0.0
H552 H 0.69744 0.75517 0.93212 0.0
H553 H 0.64615 0.81785 0.95556 0.0
H554 H 0.65049 0.70955 0.91645 0.0
H555 H 0.65523 0.72523 0.88397 0.0
H556 H 0.68307 0.71929 0.90618 0.0
H557 H 0.60152 0.81884 0.94343 0.0
H558 H 0.59284 0.80103 0.9125 0.0
H559 H 0.5873 0.78683 0.94561 0.0
H560 H 0.57485 0.73978 0.84739 0.0
H561 H 0.56247 0.70286 0.92585 0.0
H562 H 0.63747 0.76352 0.86022 0.0
H563 H 0.61608 0.78945 0.87028 0.0
H564 H 0.60837 0.77012 0.84012 0.0
H565 H 0.62184 0.71857 0.95619 0.0
H566 H 0.58801 0.71206 0.96479 0.0
H567 H 0.60064 0.74479 0.96591 0.0
C568 C 0.35854 0.19709 0.44026 0.0
C569 C 0.33281 0.20184 0.43113 0.0
C570 C 0.37976 0.21188 0.43048 0.0
C571 C 0.37511 0.23203 0.41126 0.0
C572 C 0.34915 0.23704 0.40213 0.0
C573 C 0.32834 0.22184 0.4121 0.0
C574 C 0.40717 0.20582 0.44056 0.0
C575 C 0.34335 0.25853 0.38188 0.0
C576 C 0.42602 0.28574 0.4054 0.0
C577 C 0.43954 0.27862 0.38118 0.0
C578 C 0.40501 0.27081 0.41534 0.0
C579 C 0.39737 0.24804 0.40088 0.0
C580 C 0.41092 0.24066 0.37649 0.0
C581 C 0.43175 0.25609 0.36686 0.0
C582 C 0.3909 0.27947 0.44129 0.0
C583 C 0.40346 0.21641 0.36061 0.0
H584 H 0.36215 0.18145 0.45469 0.0
H585 H 0.30846 0.22578 0.40521 0.0
H586 H 0.42001 0.20082 0.42276 0.0
H587 H 0.41578 0.22319 0.45081 0.0
H588 H 0.40749 0.18942 0.45539 0.0
H589 H 0.32208 0.25997 0.37689 0.0
H590 H 0.34999 0.27744 0.39052 0.0
H591 H 0.3544 0.25518 0.36241 0.0
H592 H 0.43172 0.30317 0.41658 0.0
H593 H 0.44208 0.25034 0.3482 0.0
H594 H 0.39225 0.26412 0.45724 0.0
H595 H 0.36973 0.28252 0.43682 0.0
H596 H 0.39913 0.29777 0.45 0.0
H597 H 0.40502 0.19919 0.37422 0.0
H598 H 0.41612 0.2132 0.34218 0.0
H599 H 0.3827 0.21772 0.3537 0.0
C600 C 0.33333 0.77733 0.92595 0.0
C601 C 0.33886 0.79514 0.94724 0.0
C602 C 0.35355 0.76325 0.91292 0.0
C603 C 0.37995 0.76718 0.92128 0.0
C604 C 0.3857 0.78563 0.94227 0.0
C605 C 0.36509 0.79932 0.95505 0.0
C606 C 0.3466 0.74365 0.89073 0.0
C607 C 0.41361 0.79058 0.95158 0.0
C608 C 0.4294 0.71277 0.90971 0.0
C609 C 0.44276 0.72116 0.88597 0.0
C610 C 0.40884 0.72747 0.92124 0.0
C611 C 0.40146 0.75126 0.90888 0.0
C612 C 0.41476 0.75987 0.88492 0.0
C613 C 0.43518 0.7447 0.87371 0.0
C614 C 0.39503 0.71754 0.94671 0.0
C615 C 0.40753 0.78519 0.87123 0.0
H616 H 0.31308 0.77382 0.92002 0.0
H617 H 0.36949 0.81331 0.97125 0.0
H618 H 0.35779 0.74772 0.87156 0.0
H619 H 0.35222 0.72387 0.8976 0.0
H620 H 0.32527 0.7437 0.88578 0.0
H621 H 0.41488 0.80641 0.96725 0.0
H622 H 0.42198 0.77261 0.96061 0.0
H623 H 0.42603 0.79581 0.93361 0.0
H624 H 0.43494 0.6946 0.91932 0.0
H625 H 0.44534 0.75143 0.85541 0.0
H626 H 0.37367 0.71547 0.94257 0.0
H627 H 0.39725 0.73172 0.96392 0.0
H628 H 0.40284 0.69846 0.95356 0.0
H629 H 0.38654 0.78489 0.86502 0.0
H630 H 0.4197 0.78909 0.85264 0.0
H631 H 0.41006 0.80151 0.88609 0.0
C632 C 0.64416 0.19786 0.4425 0.0
C633 C 0.66983 0.20239 0.43313 0.0
C634 C 0.62295 0.21285 0.43297 0.0
C635 C 0.62755 0.233 0.41375 0.0
C636 C 0.65347 0.23789 0.40448 0.0
C637 C 0.67427 0.22247 0.4142 0.0
C638 C 0.59558 0.20691 0.4432 0.0
C639 C 0.65923 0.25937 0.38422 0.0
C640 C 0.57089 0.25653 0.36896 0.0
C641 C 0.56298 0.2792 0.38298 0.0
C642 C 0.59175 0.24125 0.37883 0.0
C643 C 0.60522 0.24889 0.40319 0.0
C644 C 0.59743 0.27176 0.4174 0.0
C645 C 0.57638 0.28657 0.4072 0.0
C646 C 0.59936 0.21689 0.3632 0.0
C647 C 0.61143 0.28067 0.44332 0.0
H648 H 0.64057 0.18217 0.45688 0.0
H649 H 0.69412 0.22626 0.40713 0.0
H650 H 0.58693 0.22441 0.45316 0.0
H651 H 0.58273 0.20163 0.42548 0.0
H652 H 0.59534 0.19073 0.4583 0.0
H653 H 0.68052 0.26092 0.3794 0.0
H654 H 0.64834 0.25588 0.36467 0.0
H655 H 0.65237 0.27826 0.39273 0.0
H656 H 0.56067 0.25058 0.3503 0.0
H657 H 0.57057 0.30409 0.41816 0.0
H658 H 0.59791 0.19979 0.37699 0.0
H659 H 0.62011 0.21824 0.3563 0.0
H660 H 0.58673 0.21345 0.34479 0.0
H661 H 0.61018 0.26542 0.45938 0.0
H662 H 0.60305 0.29898 0.45186 0.0
H663 H 0.63258 0.28381 0.43888 0.0
C664 C 0.34348 0.52125 0.91569 0.0
C665 C 0.35219 0.49538 0.91554 0.0
C666 C 0.36022 0.54156 0.9076 0.0
C667 C 0.38637 0.53586 0.89951 0.0
C668 C 0.39529 0.50978 0.89953 0.0
C669 C 0.37806 0.48986 0.90739 0.0
C670 C 0.3499 0.56908 0.90752 0.0
C671 C 0.42312 0.50291 0.8914 0.0
C672 C 0.42559 0.58208 0.85452 0.0
C673 C 0.44191 0.59437 0.87402 0.0
C674 C 0.4068 0.56367 0.86265 0.0
C675 C 0.4045 0.55706 0.89092 0.0
C676 C 0.42048 0.5698 0.91079 0.0
C677 C 0.43885 0.58843 0.90213 0.0
C678 C 0.38984 0.55082 0.84089 0.0
C679 C 0.41882 0.56311 0.9411 0.0
H680 H 0.32343 0.52556 0.92177 0.0
H681 H 0.38498 0.46992 0.90761 0.0
H682 H 0.36193 0.58146 0.92147 0.0
H683 H 0.35152 0.57732 0.88645 0.0
H684 H 0.32904 0.57024 0.91424 0.0
H685 H 0.42709 0.48173 0.8929 0.0
H686 H 0.42694 0.50912 0.86984 0.0
H687 H 0.43724 0.51343 0.90491 0.0
H688 H 0.42763 0.58671 0.83279 0.0
H689 H 0.45143 0.59773 0.91734 0.0
H690 H 0.36877 0.55257 0.84656 0.0
H691 H 0.39452 0.52978 0.83968 0.0
H692 H 0.39273 0.55943 0.8201 0.0
H693 H 0.3983 0.5652 0.94854 0.0
H694 H 0.43176 0.57559 0.95407 0.0
H695 H 0.42459 0.54252 0.94411 0.0
C696 C 0.61029 0.51097 0.43629 0.0
C697 C 0.637 0.50829 0.44285 0.0
C698 C 0.59631 0.49064 0.42368 0.0
C699 C 0.60941 0.46707 0.41727 0.0
C700 C 0.63653 0.46441 0.42326 0.0
C701 C 0.64999 0.48503 0.43614 0.0
C702 C 0.56734 0.49416 0.41787 0.0
C703 C 0.6512 0.43968 0.41642 0.0
C704 C 0.56501 0.40808 0.41168 0.0
C705 C 0.56034 0.40672 0.38309 0.0
C706 C 0.58171 0.42706 0.42298 0.0
C707 C 0.59429 0.44497 0.40527 0.0
C708 C 0.59073 0.44292 0.37631 0.0
C709 C 0.5737 0.42391 0.36557 0.0
C710 C 0.5849 0.42869 0.454 0.0
C711 C 0.60409 0.46146 0.35675 0.0
H712 H 0.60007 0.52876 0.4418 0.0
H713 H 0.6707 0.48298 0.44099 0.0
H714 H 0.56326 0.4907 0.39561 0.0
H715 H 0.55583 0.47968 0.4297 0.0
H716 H 0.56026 0.51392 0.42351 0.0
H717 H 0.67253 0.44122 0.42109 0.0
H718 H 0.64291 0.42332 0.42844 0.0
H719 H 0.64876 0.43477 0.3942 0.0
H720 H 0.55484 0.39492 0.42543 0.0
H721 H 0.57044 0.42289 0.34343 0.0
H722 H 0.5762 0.44713 0.46174 0.0
H723 H 0.60604 0.42886 0.45963 0.0
H724 H 0.57523 0.41225 0.46475 0.0
H725 H 0.59592 0.48128 0.35967 0.0
H726 H 0.60141 0.45567 0.33476 0.0
H727 H 0.62545 0.4625 0.36128 0.0
C728 C 0.65952 0.51166 0.89839 0.0
C729 C 0.65082 0.49347 0.91788 0.0
C730 C 0.64319 0.53212 0.88974 0.0
C731 C 0.61742 0.53428 0.90058 0.0
C732 C 0.60866 0.51625 0.92054 0.0
C733 C 0.62549 0.49622 0.92907 0.0
C734 C 0.65332 0.55112 0.8686 0.0
C735 C 0.58128 0.51782 0.93255 0.0
C736 C 0.57845 0.59724 0.89544 0.0
C737 C 0.562 0.59207 0.87275 0.0
C738 C 0.59715 0.57894 0.90425 0.0
C739 C 0.59916 0.55473 0.89032 0.0
C740 C 0.58288 0.54954 0.86719 0.0
C741 C 0.56466 0.56832 0.85857 0.0
C742 C 0.61447 0.58534 0.92872 0.0
C743 C 0.58417 0.52384 0.85199 0.0
H744 H 0.67893 0.50961 0.8894 0.0
H745 H 0.61875 0.48265 0.94457 0.0
H746 H 0.64164 0.54941 0.8493 0.0
H747 H 0.65099 0.57133 0.87635 0.0
H748 H 0.67436 0.54777 0.86353 0.0
H749 H 0.57762 0.50252 0.94819 0.0
H750 H 0.57813 0.5371 0.94239 0.0
H751 H 0.56651 0.51576 0.91579 0.0
H752 H 0.57669 0.6156 0.90639 0.0
H753 H 0.55197 0.56406 0.84111 0.0
H754 H 0.63545 0.58262 0.92314 0.0
H755 H 0.61013 0.57188 0.94596 0.0
H756 H 0.61162 0.60561 0.93619 0.0
H757 H 0.60449 0.52011 0.84466 0.0
H758 H 0.57068 0.52312 0.83393 0.0
H759 H 0.57891 0.50785 0.86626 0.0
C760 C 0.35541 0.49098 0.43299 0.0
C761 C 0.37 0.50827 0.44946 0.0
C762 C 0.36781 0.4705 0.41864 0.0
C763 C 0.39542 0.4674 0.42072 0.0
C764 C 0.41024 0.48511 0.43692 0.0
C765 C 0.39737 0.50528 0.45106 0.0
C766 C 0.35137 0.45196 0.40161 0.0
C767 C 0.43975 0.48266 0.43951 0.0
C768 C 0.43029 0.40315 0.40836 0.0
C769 C 0.44197 0.40721 0.38244 0.0
C770 C 0.41388 0.42202 0.42042 0.0
C771 C 0.40909 0.44559 0.40632 0.0
C772 C 0.41965 0.44925 0.37956 0.0
C773 C 0.4359 0.43001 0.36792 0.0
C774 C 0.40277 0.41727 0.44889 0.0
C775 C 0.415 0.4741 0.36383 0.0
H776 H 0.33424 0.49311 0.43183 0.0
H777 H 0.4088 0.51886 0.46336 0.0
H778 H 0.35861 0.45138 0.37998 0.0
H779 H 0.35322 0.432 0.40996 0.0
H780 H 0.33024 0.45746 0.40147 0.0
H781 H 0.44841 0.49827 0.4526 0.0
H782 H 0.44488 0.4636 0.44866 0.0
H783 H 0.44897 0.48342 0.41874 0.0
H784 H 0.4346 0.38553 0.41968 0.0
H785 H 0.44466 0.43338 0.34783 0.0
H786 H 0.38139 0.42151 0.44926 0.0
H787 H 0.41232 0.43055 0.464 0.0
H788 H 0.40592 0.39694 0.45579 0.0
H789 H 0.39376 0.47896 0.36352 0.0
H790 H 0.42221 0.47282 0.34218 0.0
H791 H 0.42533 0.49037 0.37437 0.0
C792 C 0.87896 0.98807 0.91236 0.0
C793 C 0.8523 0.99295 0.91768 0.0
C794 C 0.89601 0.00815 0.90456 0.0
C795 C 0.88614 0.03375 0.90175 0.0
C796 C 0.85923 0.03882 0.90706 0.0
C797 C 0.84266 0.01837 0.91511 0.0
C798 C 0.92464 1.00198 0.8994 0.0
C799 C 0.84793 0.06579 0.904 0.0
C800 C 0.93631 0.08851 0.90432 0.0
C801 C 0.94117 0.09271 0.87612 0.0
C802 C 0.91804 0.06977 0.91297 0.0
C803 C 0.90406 0.05507 0.89297 0.0
C804 C 0.90817 0.05985 0.8645 0.0
C805 C 0.92675 0.07848 0.85643 0.0
C806 C 0.91434 0.06512 0.94353 0.0
C807 C 0.89341 0.04481 0.84254 0.0
H808 H 0.88658 0.96852 0.91471 0.0
H809 H 0.82202 0.02219 0.919 0.0
H810 H 0.92991 0.00687 0.87779 0.0
H811 H 0.93722 0.01401 0.91317 0.0
H812 H 0.92928 0.98117 0.90295 0.0
H813 H 0.82663 0.06653 0.909 0.0
H814 H 0.85847 0.07958 0.91779 0.0
H815 H 0.85074 0.07262 0.88249 0.0
H816 H 0.94736 0.09932 0.91971 0.0
H817 H 0.93016 0.08171 0.83459 0.0
H818 H 0.9207 0.04509 0.94867 0.0
H819 H 0.89325 0.06677 0.94909 0.0
H820 H 0.92574 0.07904 0.95645 0.0
H821 H 0.89895 0.02397 0.84345 0.0
H822 H 0.89756 0.05205 0.82139 0.0
H823 H 0.87193 0.04605 0.84632 0.0
C824 C 0.10899 0.0117 0.43814 0.0
C825 C 0.13595 0.00974 0.44379 0.0
C826 C 0.09529 0.99115 0.42556 0.0
C827 C 0.10893 0.9681 0.41826 0.0
C828 C 0.13628 0.9662 0.42334 0.0
C829 C 0.14946 0.98701 0.43621 0.0
C830 C 0.06607 0.99386 0.42074 0.0
C831 C 0.15152 0.94206 0.41554 0.0
C832 C 0.06629 0.90783 0.4128 0.0
C833 C 0.06081 0.90685 0.38436 0.0
C834 C 0.08269 0.92713 0.42398 0.0
C835 C 0.09416 0.94576 0.40628 0.0
C836 C 0.08981 0.94412 0.37741 0.0
C837 C 0.07308 0.92478 0.3668 0.0
C838 C 0.08672 0.92831 0.45491 0.0
C839 C 0.10201 0.96341 0.35783 0.0
H840 H 0.09838 0.02907 0.44432 0.0
H841 H 0.17035 0.98552 0.44035 0.0
H842 H 0.06146 0.9907 0.39856 0.0
H843 H 0.05537 0.97882 0.43261 0.0
H844 H 0.05853 0.01329 0.42703 0.0
H845 H 0.17291 0.94417 0.41958 0.0
H846 H 0.1441 0.92524 0.42746 0.0
H847 H 0.14859 0.93747 0.39331 0.0
H848 H 0.05694 0.89411 0.42658 0.0
H849 H 0.06919 0.92407 0.34477 0.0
H850 H 0.07767 0.94633 0.46331 0.0
H851 H 0.108 0.92904 0.45988 0.0
H852 H 0.07789 0.91138 0.46561 0.0
H853 H 0.09331 0.98292 0.36143 0.0
H854 H 0.09887 0.95794 0.33582 0.0
H855 H 0.12345 0.96504 0.36171 0.0
C856 C 0.16149 0.01754 0.90993 0.0
C857 C 0.15142 0.99493 0.92206 0.0
C858 C 0.14469 0.03747 0.90092 0.0
C859 C 0.11716 0.0347 0.90405 0.0
C860 C 0.10689 0.01197 0.91636 0.0
C861 C 0.12412 0.99238 0.9252 0.0
C862 C 0.15638 0.06147 0.88801 0.0
C863 C 0.07764 0.0082 0.91996 0.0
C864 C 0.07217 0.09377 0.90301 0.0
C865 C 0.06159 0.0924 0.8762 0.0
C866 C 0.09074 0.07549 0.91214 0.0
C867 C 0.09895 0.05531 0.89408 0.0
C868 C 0.08889 0.05418 0.86681 0.0
C869 C 0.07039 0.07271 0.8582 0.0
C870 C 0.10109 0.07741 0.94136 0.0
C871 C 0.09719 0.03298 0.8469 0.0
H872 H 0.18257 0.01978 0.90774 0.0
H873 H 0.11616 0.97482 0.93418 0.0
H874 H 0.14889 0.06371 0.8666 0.0
H875 H 0.15028 0.07901 0.89982 0.0
H876 H 0.17821 0.06077 0.88735 0.0
H877 H 0.07284 0.98958 0.93031 0.0
H878 H 0.0693 0.02442 0.93239 0.0
H879 H 0.06778 0.00849 0.89949 0.0
H880 H 0.06564 0.1089 0.91711 0.0
H881 H 0.06248 0.07143 0.83742 0.0
H882 H 0.1229 0.07777 0.94125 0.0
H883 H 0.09497 0.06004 0.95321 0.0
H884 H 0.09384 0.09505 0.95232 0.0
H885 H 0.11891 0.03265 0.84488 0.0
H886 H 0.08845 0.03548 0.82603 0.0
H887 H 0.0911 0.01378 0.85502 0.0
C888 C 0.85339 0.98263 0.44137 0.0
C889 C 0.86594 0.00651 0.44619 0.0
C890 C 0.86685 0.9618 0.42884 0.0
C891 C 0.89357 0.96486 0.42131 0.0
C892 C 0.90623 0.98901 0.42589 0.0
C893 C 0.89223 0.00955 0.43816 0.0
C894 C 0.85261 0.93646 0.42394 0.0
C895 C 0.93477 0.993 0.41843 0.0
C896 C 0.93926 0.90671 0.41547 0.0
C897 C 0.94259 0.90457 0.38674 0.0
C898 C 0.92265 0.92569 0.42698 0.0
C899 C 0.90871 0.94272 0.40934 0.0
C900 C 0.91089 0.93978 0.38031 0.0
C901 C 0.92795 0.92087 0.36936 0.0
C902 C 0.92102 0.92834 0.45806 0.0
C903 C 0.896 0.95726 0.36082 0.0
H904 H 0.833 0.98028 0.44737 0.0
H905 H 0.90214 0.02783 0.44221 0.0
H906 H 0.85398 0.93079 0.40181 0.0
H907 H 0.86204 0.92079 0.43609 0.0
H908 H 0.83153 0.93761 0.42982 0.0
H909 H 0.94159 0.01308 0.42299 0.0
H910 H 0.94724 0.97917 0.43011 0.0
H911 H 0.93784 0.98894 0.39611 0.0
H912 H 0.95052 0.89428 0.42909 0.0
H913 H 0.93018 0.9192 0.34712 0.0
H914 H 0.90021 0.92824 0.46488 0.0
H915 H 0.92961 0.94723 0.46458 0.0
H916 H 0.93168 0.91251 0.46887 0.0
H917 H 0.87488 0.95792 0.36651 0.0
H918 H 0.89773 0.95076 0.33895 0.0
H919 H 0.90372 0.97737 0.36251 0.0
C920 C 0.35876 0.34693 0.1583 0.0
C921 C 0.37279 0.35759 0.13609 0.0
C922 C 0.37105 0.34233 0.18387 0.0
C923 C 0.39798 0.34854 0.18728 0.0
C924 C 0.41229 0.359 0.16485 0.0
C925 C 0.39952 0.36345 0.13962 0.0
C926 C 0.35518 0.33115 0.20731 0.0
C927 C 0.44103 0.36595 0.16763 0.0
C928 C 0.42844 0.36394 0.25704 0.0
C929 C 0.4431 0.34135 0.26218 0.0
C930 C 0.41245 0.36596 0.23349 0.0
C931 C 0.41126 0.345 0.21445 0.0
C932 C 0.42491 0.32165 0.22022 0.0
C933 C 0.44056 0.32005 0.2441 0.0
C934 C 0.39792 0.39108 0.2283 0.0
C935 C 0.42423 0.2989 0.20037 0.0
H936 H 0.33817 0.34212 0.15566 0.0
H937 H 0.41041 0.37214 0.12278 0.0
H938 H 0.36455 0.31305 0.21488 0.0
H939 H 0.35475 0.34509 0.2249 0.0
H940 H 0.33463 0.32671 0.2011 0.0
H941 H 0.44956 0.37303 0.14792 0.0
H942 H 0.4435 0.38132 0.18361 0.0
H943 H 0.45244 0.34877 0.17449 0.0
H944 H 0.43003 0.3804 0.27104 0.0
H945 H 0.45182 0.30252 0.24786 0.0
H946 H 0.37705 0.38712 0.22311 0.0
H947 H 0.4068 0.40113 0.21035 0.0
H948 H 0.39861 0.40441 0.24644 0.0
H949 H 0.40368 0.29424 0.19448 0.0
H950 H 0.43349 0.28125 0.20923 0.0
H951 H 0.43487 0.30406 0.18115 0.0
C952 C 0.66283 0.66774 0.675 0.0
C953 C 0.65262 0.66551 0.64814 0.0
C954 C 0.64612 0.66842 0.69814 0.0
C955 C 0.61855 0.66691 0.69428 0.0
C956 C 0.60814 0.66513 0.66718 0.0
C957 C 0.62528 0.66445 0.64447 0.0
C958 C 0.65795 0.67024 0.72672 0.0
C959 C 0.57886 0.66364 0.66217 0.0
C960 C 0.57423 0.64201 0.75146 0.0
C961 C 0.56304 0.6651 0.7617 0.0
C962 C 0.59287 0.6424 0.73007 0.0
C963 C 0.6005 0.66644 0.71851 0.0
C964 C 0.58986 0.68987 0.72919 0.0
C965 C 0.57131 0.68893 0.75067 0.0
C966 C 0.60387 0.61699 0.71935 0.0
C967 C 0.59752 0.71589 0.71739 0.0
H968 H 0.68394 0.66833 0.67799 0.0
H969 H 0.61724 0.66315 0.62375 0.0
H970 H 0.6496 0.68714 0.73805 0.0
H971 H 0.65292 0.65259 0.73866 0.0
H972 H 0.67969 0.67223 0.72616 0.0
H973 H 0.57391 0.663 0.6398 0.0
H974 H 0.57074 0.64601 0.67211 0.0
H975 H 0.56893 0.68069 0.67167 0.0
H976 H 0.56817 0.62348 0.75989 0.0
H977 H 0.56287 0.70691 0.75839 0.0
H978 H 0.62567 0.61745 0.71976 0.0
H979 H 0.5978 0.61405 0.69751 0.0
H980 H 0.59705 0.60009 0.73159 0.0
H981 H 0.61921 0.71813 0.71763 0.0
H982 H 0.58862 0.73238 0.72901 0.0
H983 H 0.59109 0.71703 0.6955 0.0
C984 C 0.64622 0.35121 0.16039 0.0
C985 C 0.63098 0.3544 0.13645 0.0
C986 C 0.63433 0.34627 0.18609 0.0
C987 C 0.60658 0.34459 0.18783 0.0
C988 C 0.59125 0.34653 0.16349 0.0
C989 C 0.60363 0.3513 0.13814 0.0
C990 C 0.65136 0.34405 0.21153 0.0
C991 C 0.56161 0.34477 0.16437 0.0
C992 C 0.56949 0.31827 0.24993 0.0
C993 C 0.56081 0.34133 0.26268 0.0
C994 C 0.58564 0.31892 0.22633 0.0
C995 C 0.59319 0.34317 0.21518 0.0
C996 C 0.58569 0.36644 0.22882 0.0
C997 C 0.5697 0.36523 0.25239 0.0
C998 C 0.59352 0.29368 0.21257 0.0
C999 C 0.59336 0.39273 0.21767 0.0
H1000 H 0.66736 0.35367 0.15928 0.0
H1001 H 0.59178 0.35317 0.11962 0.0
H1002 H 0.64852 0.36146 0.22484 0.0
H1003 H 0.6456 0.32685 0.22385 0.0
H1004 H 0.67256 0.34246 0.20627 0.0
H1005 H 0.55269 0.34504 0.1434 0.0
H1006 H 0.55544 0.3267 0.17493 0.0
H1007 H 0.55359 0.36138 0.17645 0.0
H1008 H 0.56293 0.29968 0.25774 0.0
H1009 H 0.5634 0.3832 0.26215 0.0
H1010 H 0.61482 0.29372 0.20766 0.0
H1011 H 0.58273 0.29147 0.19275 0.0
H1012 H 0.58911 0.27659 0.2257 0.0
H1013 H 0.61487 0.3936 0.21408 0.0
H1014 H 0.58775 0.40885 0.23188 0.0
H1015 H 0.58354 0.39589 0.19746 0.0
C1016 C 0.38121 0.66981 0.64427 0.0
C1017 C 0.35383 0.67123 0.64754 0.0
C1018 C 0.3981 0.6705 0.6672 0.0
C1019 C 0.38742 0.67263 0.69415 0.0
C1020 C 0.35984 0.67468 0.6976 0.0
C1021 C 0.34337 0.67401 0.67424 0.0
C1022 C 0.4274 0.66842 0.6626 0.0
C1023 C 0.3477 0.6769 0.72599 0.0
C1024 C 0.43051 0.646 0.75154 0.0
C1025 C 0.44239 0.66864 0.76206 0.0
C1026 C 0.412 0.64714 0.73006 0.0
C1027 C 0.40516 0.6715 0.71865 0.0
C1028 C 0.41643 0.6945 0.72966 0.0
C1029 C 0.43486 0.69281 0.75126 0.0
C1030 C 0.40032 0.62216 0.71902 0.0
C1031 C 0.40963 0.72083 0.71804 0.0
H1032 H 0.38945 0.66811 0.62367 0.0
H1033 H 0.32223 0.67491 0.67693 0.0
H1034 H 0.43759 0.68511 0.67249 0.0
H1035 H 0.435 0.65047 0.6724 0.0
H1036 H 0.43262 0.66793 0.6403 0.0
H1037 H 0.32607 0.67977 0.72509 0.0
H1038 H 0.35185 0.659 0.73791 0.0
H1039 H 0.35657 0.6934 0.73755 0.0
H1040 H 0.43596 0.62722 0.75981 0.0
H1041 H 0.44385 0.71043 0.75919 0.0
H1042 H 0.40655 0.61914 0.69725 0.0
H1043 H 0.37854 0.62332 0.71914 0.0
H1044 H 0.40646 0.60497 0.73124 0.0
H1045 H 0.41648 0.72203 0.69631 0.0
H1046 H 0.41874 0.73695 0.73005 0.0
H1047 H 0.38801 0.72364 0.71786 0.0
C1048 C 0.85757 0.85034 0.16139 0.0
C1049 C 0.87287 0.85602 0.13805 0.0
C1050 C 0.86943 0.84508 0.18705 0.0
C1051 C 0.8972 0.84556 0.18938 0.0
C1052 C 0.9127 0.85012 0.16559 0.0
C1053 C 0.90036 0.8552 0.14026 0.0
C1054 C 0.85225 0.84008 0.21189 0.0
C1055 C 0.94236 0.8507 0.16708 0.0
C1056 C 0.93171 0.86484 0.25586 0.0
C1057 C 0.94244 0.84108 0.26454 0.0
C1058 C 0.91578 0.8663 0.23224 0.0
C1059 C 0.91026 0.84345 0.21686 0.0
C1060 C 0.91962 0.81918 0.22641 0.0
C1061 C 0.93564 0.81827 0.25011 0.0
C1062 C 0.90612 0.89259 0.22286 0.0
C1063 C 0.91391 0.79434 0.21077 0.0
H1064 H 0.83632 0.85102 0.15986 0.0
H1065 H 0.9123 0.85901 0.12218 0.0
H1066 H 0.85914 0.82261 0.22312 0.0
H1067 H 0.85358 0.8568 0.22643 0.0
H1068 H 0.83131 0.83731 0.20607 0.0
H1069 H 0.95156 0.85305 0.14641 0.0
H1070 H 0.94877 0.86707 0.18052 0.0
H1071 H 0.94987 0.83252 0.17644 0.0
H1072 H 0.93653 0.88258 0.26694 0.0
H1073 H 0.94363 0.79977 0.25666 0.0
H1074 H 0.88467 0.89199 0.21875 0.0
H1075 H 0.91599 0.89786 0.20321 0.0
H1076 H 0.91011 0.90811 0.23836 0.0
H1077 H 0.89274 0.7931 0.20541 0.0
H1078 H 0.91946 0.77683 0.22279 0.0
H1079 H 0.92512 0.79416 0.19109 0.0
C1080 C 0.12399 0.16425 0.64678 0.0
C1081 C 0.15132 0.16583 0.65034 0.0
C1082 C 0.10689 0.16488 0.66953 0.0
C1083 C 0.11734 0.16711 0.69659 0.0
C1084 C 0.14488 0.16912 0.70034 0.0
C1085 C 0.16155 0.16851 0.67716 0.0
C1086 C 0.07763 0.16285 0.66461 0.0
C1087 C 0.15676 0.17142 0.72887 0.0
C1088 C 0.06968 0.18876 0.75281 0.0
C1089 C 0.06181 0.16488 0.76403 0.0
C1090 C 0.08826 0.18986 0.73135 0.0
C1091 C 0.09934 0.16654 0.72088 0.0
C1092 C 0.09213 0.14247 0.73266 0.0
C1093 C 0.07347 0.14192 0.75403 0.0
C1094 C 0.09545 0.21591 0.71931 0.0
C1095 C 0.10359 0.11717 0.72219 0.0
H1096 H 0.11592 0.16261 0.62609 0.0
H1097 H 0.18266 0.16952 0.68007 0.0
H1098 H 0.06984 0.14518 0.67476 0.0
H1099 H 0.06743 0.17982 0.67398 0.0
H1100 H 0.07264 0.16193 0.64226 0.0
H1101 H 0.17846 0.17377 0.72822 0.0
H1102 H 0.14814 0.18828 0.74004 0.0
H1103 H 0.15206 0.1538 0.74102 0.0
H1104 H 0.06089 0.20664 0.76035 0.0
H1105 H 0.06774 0.12335 0.7626 0.0
H1106 H 0.08894 0.21679 0.69744 0.0
H1107 H 0.1171 0.2185 0.71946 0.0
H1108 H 0.08632 0.23233 0.73083 0.0
H1109 H 0.09753 0.1139 0.7004 0.0
H1110 H 0.09714 0.10026 0.73463 0.0
H1111 H 0.12538 0.11805 0.72253 0.0
C1112 C 0.11127 0.84826 0.14128 0.0
C1113 C 0.13809 0.85454 0.14199 0.0
C1114 C 0.09708 0.84418 0.16573 0.0
C1115 C 0.11004 0.84628 0.19157 0.0
C1116 C 0.13735 0.85155 0.19241 0.0
C1117 C 0.15103 0.85576 0.1676 0.0
C1118 C 0.06793 0.83881 0.16393 0.0
C1119 C 0.15191 0.85364 0.21953 0.0
C1120 C 0.06652 0.86686 0.25146 0.0
C1121 C 0.06047 0.84296 0.2638 0.0
C1122 C 0.08322 0.86823 0.22847 0.0
C1123 C 0.09445 0.84517 0.21759 0.0
C1124 C 0.08939 0.82109 0.23058 0.0
C1125 C 0.07236 0.82025 0.25347 0.0
C1126 C 0.08802 0.89429 0.21516 0.0
C1127 C 0.10128 0.79614 0.21976 0.0
H1128 H 0.10107 0.84761 0.1216 0.0
H1129 H 0.17183 0.86033 0.16823 0.0
H1130 H 0.0629 0.82115 0.17585 0.0
H1131 H 0.05686 0.85528 0.17322 0.0
H1132 H 0.06117 0.83608 0.14225 0.0
H1133 H 0.1735 0.85527 0.21657 0.0
H1134 H 0.14499 0.87103 0.23109 0.0
H1135 H 0.14778 0.83644 0.23256 0.0
H1136 H 0.05755 0.88458 0.25921 0.0
H1137 H 0.068 0.80169 0.2629 0.0
H1138 H 0.0799 0.89421 0.19386 0.0
H1139 H 0.10943 0.89806 0.21351 0.0
H1140 H 0.07883 0.91054 0.22692 0.0
H1141 H 0.09301 0.79158 0.19907 0.0
H1142 H 0.09741 0.77946 0.23365 0.0
H1143 H 0.12284 0.79834 0.21725 0.0
C1144 C 0.84187 0.16959 0.67645 0.0
C1145 C 0.85219 0.16645 0.64974 0.0
C1146 C 0.85843 0.17037 0.69973 0.0
C1147 C 0.88598 0.16804 0.69617 0.0
C1148 C 0.89653 0.16538 0.66921 0.0
C1149 C 0.87953 0.1646 0.64637 0.0
C1150 C 0.84645 0.17313 0.72814 0.0
C1151 C 0.92579 0.16301 0.6645 0.0
C1152 C 0.93351 0.18961 0.75258 0.0
C1153 C 0.94107 0.16572 0.76404 0.0
C1154 C 0.91509 0.19075 0.73094 0.0
C1155 C 0.90383 0.16748 0.72059 0.0
C1156 C 0.91071 0.14341 0.73265 0.0
C1157 C 0.92924 0.14282 0.75415 0.0
C1158 C 0.90828 0.21678 0.71859 0.0
C1159 C 0.89902 0.11817 0.72233 0.0
H1160 H 0.82075 0.17082 0.67923 0.0
H1161 H 0.88767 0.1626 0.62575 0.0
H1162 H 0.85085 0.15557 0.74052 0.0
H1163 H 0.85523 0.18998 0.73918 0.0
H1164 H 0.82479 0.17578 0.72732 0.0
H1165 H 0.93089 0.16187 0.64219 0.0
H1166 H 0.93611 0.17992 0.67381 0.0
H1167 H 0.93336 0.14532 0.67483 0.0
H1168 H 0.94248 0.20743 0.76002 0.0
H1169 H 0.93473 0.12426 0.76294 0.0
H1170 H 0.88666 0.21964 0.71851 0.0
H1171 H 0.91496 0.21738 0.69677 0.0
H1172 H 0.91751 0.23319 0.73003 0.0
H1173 H 0.87724 0.11932 0.7225 0.0
H1174 H 0.90521 0.10129 0.735 0.0
H1175 H 0.90518 0.11464 0.70062 0.0
loop_
_geom_bond_atom_site_label_1
_geom_bond_atom_site_label_2
_geom_bond_distance
_geom_bond_site_symmetry_2
_ccdc_geom_bond_type
C0 C1 1.264 . S
C0 C5 1.479 . S
C0 C10 1.465 . S
C1 C0 1.264 . S
C1 C3 1.339 . S
C1 H28 0.949 . S
C2 C3 1.395 . S
C2 C4 1.320 . S
C3 C1 1.339 . S
C3 C2 1.395 . S
C3 H29 0.929 . S
C4 C2 1.320 . S
C4 C5 1.405 . S
C4 H30 0.930 . S
C5 C0 1.479 . S
C5 C4 1.405 . S
C5 H31 0.931 . S
U6 O7 2.454 1_554 S
U6 O8 2.458 . S
U6 C9 2.984 1_554 S
U6 C10 2.847 1_554 S
U6 C23 2.882 . S
U6 O24 2.441 1_554 S
U6 O25 2.420 . S
U6 O26 2.455 . S
U6 O27 2.449 . S
O7 U6 2.454 1_556 S
O7 C9 1.353 . S
O8 U6 2.458 . S
O8 C9 1.286 1_554 S
C9 U6 2.984 1_556 S
C9 O7 1.353 . S
C9 O8 1.286 1_556 S
C9 C11 1.363 . S
C10 C0 1.465 . S
C10 U6 2.847 1_556 S
C10 O24 1.249 . S
C10 O25 1.202 1_556 S
C11 C9 1.363 . S
C11 C13 1.408 . S
C11 C16 1.342 . S
C12 C13 1.310 . S
C12 C15 1.461 . S
C12 H32 0.932 . S
C13 C11 1.408 . S
C13 C12 1.310 . S
C13 H33 0.930 . S
C14 C15 1.474 . S
C14 C16 1.285 . S
C14 H34 0.929 . S
C15 C12 1.461 . S
C15 C14 1.474 . S
C16 C11 1.342 . S
C16 C14 1.285 . S
C16 H35 0.930 1_556 S
C17 C20 1.424 . S
C17 C22 1.245 . S
C17 C23 1.428 . S
C18 C21 1.260 . S
C18 C22 1.477 . S
C18 H36 0.932 . S
C19 C20 1.384 . S
C19 C21 1.479 . S
C19 H37 0.929 . S
C20 C17 1.424 . S
C20 C19 1.384 . S
C20 H38 0.928 . S
C21 C18 1.260 . S
C21 C19 1.479 . S
C22 C17 1.245 . S
C22 C18 1.477 . S
C22 H39 0.932 . S
C23 U6 2.882 . S
C23 C17 1.428 . S
C23 O26 1.301 . S
C23 O27 1.282 . S
O24 U6 2.441 1_556 S
O24 C10 1.249 . S
O25 U6 2.420 . S
O25 C10 1.202 1_554 S
O26 U6 2.455 . S
O26 C23 1.301 . S
O27 U6 2.449 . S
O27 C23 1.282 . S
H28 C1 0.949 . S
H29 C3 0.929 . S
H30 C4 0.930 . S
H31 C5 0.931 . S
H32 C12 0.932 . S
H33 C13 0.930 . S
H34 C14 0.929 . S
H35 C16 0.930 1_554 S
H36 C18 0.932 . S
H37 C19 0.929 . S
H38 C20 0.928 . S
H39 C22 0.932 . S
C40 C41 1.264 . S
C40 C45 1.479 . S
C40 C50 1.465 . S
C41 C40 1.264 . S
C41 C43 1.339 . S
C41 H68 0.931 . S
C42 C43 1.395 . S
C42 C44 1.320 . S
C43 C41 1.339 . S
C43 C42 1.395 . S
C43 H69 0.929 . S
C44 C42 1.320 . S
C44 C45 1.405 . S
C44 H70 0.930 . S
C45 C40 1.479 . S
C45 C44 1.405 . S
C45 H71 0.931 . S
U46 O47 2.454 . S
U46 O48 2.458 . S
U46 C49 2.984 . S
U46 C50 2.847 . S
U46 C63 2.882 . S
U46 O64 2.441 . S
U46 O65 2.420 . S
U46 O66 2.455 . S
U46 O67 2.449 . S
O47 U46 2.454 . S
O47 C49 1.353 . S
O48 U46 2.458 . S
O48 C49 1.286 . S
C49 U46 2.984 . S
C49 O47 1.353 . S
C49 O48 1.286 . S
C49 C51 1.363 . S
C50 C40 1.465 . S
C50 U46 2.847 . S
C50 O64 1.249 . S
C50 O65 1.202 . S
C51 C49 1.363 . S
C51 C53 1.408 . S
C51 C56 1.342 . S
C52 C53 1.310 . S
C52 C55 1.461 . S
C52 H72 0.932 . S
C53 C51 1.408 . S
C53 C52 1.310 . S
C53 H73 0.930 . S
C54 C55 1.474 . S
C54 C56 1.285 . S
C54 H74 0.929 . S
C55 C52 1.461 . S
C55 C54 1.474 . S
C56 C51 1.342 . S
C56 C54 1.285 . S
C56 H75 0.930 . S
C57 C60 1.424 . S
C57 C62 1.245 . S
C57 C63 1.428 . S
C58 C61 1.260 . S
C58 C62 1.477 . S
C58 H76 0.932 . S
C59 C60 1.384 . S
C59 C61 1.479 . S
C59 H77 0.929 . S
C60 C57 1.424 . S
C60 C59 1.384 . S
C60 H78 0.928 . S
C61 C58 1.260 . S
C61 C59 1.479 . S
C62 C57 1.245 . S
C62 C58 1.477 . S
C62 H79 0.932 . S
C63 U46 2.882 . S
C63 C57 1.428 . S
C63 O66 1.301 . S
C63 O67 1.282 . S
O64 U46 2.441 . S
O64 C50 1.249 . S
O65 U46 2.420 . S
O65 C50 1.202 . S
O66 U46 2.455 . S
O66 C63 1.301 . S
O67 U46 2.449 . S
O67 C63 1.282 . S
H68 C41 0.931 . S
H69 C43 0.929 . S
H70 C44 0.930 . S
H71 C45 0.931 . S
H72 C52 0.932 . S
H73 C53 0.930 . S
H74 C54 0.929 . S
H75 C56 0.930 . S
H76 C58 0.932 . S
H77 C59 0.929 . S
H78 C60 0.928 . S
H79 C62 0.932 . S
C80 C81 1.264 . S
C80 C85 1.479 . S
C80 C90 1.465 . S
C81 C80 1.264 . S
C81 C83 1.339 . S
C81 H108 0.931 . S
C82 C83 1.395 . S
C82 C84 1.320 . S
C83 C81 1.339 . S
C83 C82 1.395 . S
C83 H109 0.929 . S
C84 C82 1.320 . S
C84 C85 1.405 . S
C84 H110 0.930 . S
C85 C80 1.479 . S
C85 C84 1.405 . S
C85 H111 0.931 . S
U86 O87 2.433 1_554 S
U86 O88 2.462 . S
U86 C89 2.975 1_554 S
U86 C90 2.828 1_554 S
U86 C103 2.913 . S
U86 O104 2.414 1_554 S
U86 O105 2.412 1_554 S
U86 O106 2.483 . S
U86 O107 2.473 . S
O87 U86 2.433 1_556 S
O87 C89 1.353 . S
O88 U86 2.462 . S
O88 C89 1.286 1_554 S
C89 U86 2.975 1_556 S
C89 O87 1.353 . S
C89 O88 1.286 1_556 S
C89 C91 1.363 . S
C90 C80 1.465 . S
C90 U86 2.828 1_556 S
C90 O104 1.249 . S
C90 O105 1.202 . S
C91 C89 1.363 . S
C91 C93 1.408 . S
C91 C96 1.342 . S
C92 C93 1.310 . S
C92 C95 1.461 . S
C92 H112 0.932 . S
C93 C91 1.408 . S
C93 C92 1.310 . S
C93 H113 0.930 . S
C94 C95 1.474 . S
C94 C96 1.285 . S
C94 H114 0.929 . S
C95 C92 1.461 . S
C95 C94 1.474 . S
C96 C91 1.342 . S
C96 C94 1.285 . S
C96 H115 0.930 1_556 S
C97 C100 1.424 . S
C97 C102 1.245 . S
C97 C103 1.428 . S
C98 C101 1.260 . S
C98 C102 1.477 . S
C98 H116 0.932 . S
C99 C100 1.384 . S
C99 C101 1.479 . S
C99 H117 0.929 . S
C100 C97 1.424 . S
C100 C99 1.384 . S
C100 H118 0.928 . S
C101 C98 1.260 . S
C101 C99 1.479 . S
C102 C97 1.245 . S
C102 C98 1.477 . S
C102 H119 0.932 . S
C103 U86 2.913 . S
C103 C97 1.428 . S
C103 O106 1.301 . S
C103 O107 1.282 . S
O104 U86 2.414 1_556 S
O104 C90 1.249 . S
O105 U86 2.412 1_556 S
O105 C90 1.202 . S
O106 U86 2.483 . S
O106 C103 1.301 . S
O107 U86 2.473 . S
O107 C103 1.282 . S
H108 C81 0.931 . S
H109 C83 0.929 . S
H110 C84 0.930 . S
H111 C85 0.931 . S
H112 C92 0.932 . S
H113 C93 0.930 . S
H114 C94 0.929 . S
H115 C96 0.930 1_554 S
H116 C98 0.932 . S
H117 C99 0.929 . S
H118 C100 0.928 . S
H119 C102 0.932 . S
C120 C121 1.264 . S
C120 C125 1.479 . S
C120 C130 1.465 . S
C121 C120 1.264 . S
C121 C123 1.339 . S
C121 H148 0.931 . S
C122 C123 1.395 . S
C122 C124 1.320 . S
C123 C121 1.339 . S
C123 C122 1.395 . S
C123 H149 0.929 . S
C124 C122 1.320 . S
C124 C125 1.405 . S
C124 H150 0.930 . S
C125 C120 1.479 . S
C125 C124 1.405 . S
C125 H151 0.931 . S
U126 O127 2.454 . S
U126 O128 2.458 . S
U126 C129 2.984 . S
U126 C130 2.847 . S
U126 C143 2.882 . S
U126 O144 2.441 . S
U126 O145 2.420 . S
U126 O146 2.455 . S
U126 O147 2.449 . S
O127 U126 2.454 . S
O127 C129 1.353 . S
O128 U126 2.458 . S
O128 C129 1.286 . S
C129 U126 2.984 . S
C129 O127 1.353 . S
C129 O128 1.286 . S
C129 C131 1.363 . S
C130 C120 1.465 . S
C130 U126 2.847 . S
C130 O144 1.249 . S
C130 O145 1.202 . S
C131 C129 1.363 . S
C131 C133 1.408 . S
C131 C136 1.342 . S
C132 C133 1.310 . S
C132 C135 1.461 . S
C132 H152 0.932 . S
C133 C131 1.408 . S
C133 C132 1.310 . S
C133 H153 0.930 . S
C134 C135 1.474 . S
C134 C136 1.285 . S
C134 H154 0.929 . S
C135 C132 1.461 . S
C135 C134 1.474 . S
C136 C131 1.342 . S
C136 C134 1.285 . S
C136 H155 0.930 . S
C137 C140 1.424 . S
C137 C142 1.245 . S
C137 C143 1.428 . S
C138 C141 1.260 . S
C138 C142 1.477 . S
C138 H156 0.932 . S
C139 C140 1.384 . S
C139 C141 1.479 . S
C139 H157 0.929 . S
C140 C137 1.424 . S
C140 C139 1.384 . S
C140 H158 0.928 . S
C141 C138 1.260 . S
C141 C139 1.479 . S
C142 C137 1.245 . S
C142 C138 1.477 . S
C142 H159 0.932 . S
C143 U126 2.882 . S
C143 C137 1.428 . S
C143 O146 1.301 . S
C143 O147 1.282 . S
O144 U126 2.441 . S
O144 C130 1.249 . S
O145 U126 2.420 . S
O145 C130 1.202 . S
O146 U126 2.455 . S
O146 C143 1.301 . S
O147 U126 2.449 . S
O147 C143 1.282 . S
H148 C121 0.931 . S
H149 C123 0.929 . S
H150 C124 0.930 . S
H151 C125 0.931 . S
H152 C132 0.932 . S
H153 C133 0.930 . S
H154 C134 0.929 . S
H155 C136 0.930 . S
H156 C138 0.932 . S
H157 C139 0.929 . S
H158 C140 0.928 . S
H159 C142 0.932 . S
C160 C161 1.264 . S
C160 C165 1.479 . S
C160 C170 1.465 . S
C161 C160 1.264 . S
C161 C163 1.339 1_565 S
C161 H188 0.949 . S
C162 C163 1.395 . S
C162 C164 1.334 . S
C163 C161 1.339 1_545 S
C163 C162 1.395 . S
C163 H189 0.929 . S
C164 C162 1.334 . S
C164 C165 1.388 1_545 S
C164 H190 0.935 . S
C165 C160 1.479 . S
C165 C164 1.388 1_565 S
C165 H191 0.931 . S
U166 O167 2.454 1_554 S
U166 O168 2.458 . S
U166 C169 2.984 1_554 S
U166 C170 2.847 1_554 S
U166 C183 2.882 . S
U166 O184 2.441 1_554 S
U166 O185 2.420 . S
U166 O186 2.455 . S
U166 O187 2.449 . S
O167 U166 2.454 1_556 S
O167 C169 1.353 . S
O168 U166 2.458 . S
O168 C169 1.286 1_554 S
C169 U166 2.984 1_556 S
C169 O167 1.353 . S
C169 O168 1.286 1_556 S
C169 C171 1.363 . S
C170 C160 1.465 . S
C170 U166 2.847 1_556 S
C170 O184 1.249 . S
C170 O185 1.202 1_556 S
C171 C169 1.363 . S
C171 C173 1.408 . S
C171 C176 1.342 . S
C172 C173 1.310 . S
C172 C175 1.461 . S
C172 H192 0.932 . S
C173 C171 1.408 . S
C173 C172 1.310 . S
C173 H193 0.930 . S
C174 C175 1.474 . S
C174 C176 1.285 . S
C174 H194 0.929 . S
C175 C172 1.461 . S
C175 C174 1.474 . S
C176 C171 1.342 . S
C176 C174 1.285 . S
C176 H195 0.930 1_556 S
C177 C180 1.424 . S
C177 C182 1.245 . S
C177 C183 1.428 . S
C178 C181 1.260 . S
C178 C182 1.477 . S
C178 H196 0.932 . S
C179 C180 1.384 . S
C179 C181 1.479 . S
C179 H197 0.929 . S
C180 C177 1.424 . S
C180 C179 1.384 . S
C180 H198 0.928 . S
C181 C178 1.260 . S
C181 C179 1.479 . S
C182 C177 1.245 . S
C182 C178 1.477 . S
C182 H199 0.932 . S
C183 U166 2.882 . S
C183 C177 1.428 . S
C183 O186 1.301 . S
C183 O187 1.282 . S
O184 U166 2.441 1_556 S
O184 C170 1.249 . S
O185 U166 2.420 . S
O185 C170 1.202 1_554 S
O186 U166 2.455 . S
O186 C183 1.301 . S
O187 U166 2.449 . S
O187 C183 1.282 . S
H188 C161 0.949 . S
H189 C163 0.929 . S
H190 C164 0.935 . S
H191 C165 0.931 . S
H192 C172 0.932 . S
H193 C173 0.930 . S
H194 C174 0.929 . S
H195 C176 0.930 1_554 S
H196 C178 0.932 . S
H197 C179 0.929 . S
H198 C180 0.928 . S
H199 C182 0.932 . S
C200 C201 1.264 . S
C200 C205 1.479 . S
C200 C210 1.465 . S
C201 C200 1.264 . S
C201 C203 1.339 . S
C201 H228 0.931 . S
C202 C203 1.395 . S
C202 C204 1.320 . S
C203 C201 1.339 . S
C203 C202 1.395 . S
C203 H229 0.929 . S
C204 C202 1.320 . S
C204 C205 1.405 . S
C204 H230 0.930 . S
C205 C200 1.479 . S
C205 C204 1.405 . S
C205 H231 0.931 . S
U206 O207 2.454 . S
U206 O208 2.458 . S
U206 C209 2.984 . S
U206 C210 2.847 . S
U206 C223 2.882 . S
U206 O224 2.441 . S
U206 O225 2.420 . S
U206 O226 2.455 . S
U206 O227 2.449 . S
O207 U206 2.454 . S
O207 C209 1.353 . S
O208 U206 2.458 . S
O208 C209 1.286 . S
C209 U206 2.984 . S
C209 O207 1.353 . S
C209 O208 1.286 . S
C209 C211 1.363 . S
C210 C200 1.465 . S
C210 U206 2.847 . S
C210 O224 1.249 . S
C210 O225 1.202 . S
C211 C209 1.363 . S
C211 C213 1.408 . S
C211 C216 1.342 . S
C212 C213 1.310 . S
C212 C215 1.461 . S
C212 H232 0.932 . S
C213 C211 1.408 . S
C213 C212 1.310 . S
C213 H233 0.930 . S
C214 C215 1.474 . S
C214 C216 1.285 . S
C214 H234 0.929 . S
C215 C212 1.461 . S
C215 C214 1.474 . S
C216 C211 1.342 . S
C216 C214 1.285 . S
C216 H235 0.930 . S
C217 C220 1.424 . S
C217 C222 1.245 . S
C217 C223 1.428 . S
C218 C221 1.260 1_545 S
C218 C222 1.477 . S
C218 H236 0.932 . S
C219 C220 1.384 . S
C219 C221 1.479 1_545 S
C219 H237 0.929 1_545 S
C220 C217 1.424 . S
C220 C219 1.384 . S
C220 H238 0.928 . S
C221 C218 1.260 1_565 S
C221 C219 1.479 1_565 S
C222 C217 1.245 . S
C222 C218 1.477 . S
C222 H239 0.932 . S
C223 U206 2.882 . S
C223 C217 1.428 . S
C223 O226 1.301 . S
C223 O227 1.282 . S
O224 U206 2.441 . S
O224 C210 1.249 . S
O225 U206 2.420 . S
O225 C210 1.202 . S
O226 U206 2.455 . S
O226 C223 1.301 . S
O227 U206 2.449 . S
O227 C223 1.282 . S
H228 C201 0.931 . S
H229 C203 0.929 . S
H230 C204 0.930 . S
H231 C205 0.931 . S
H232 C212 0.932 . S
H233 C213 0.930 . S
H234 C214 0.929 . S
H235 C216 0.930 . S
H236 C218 0.932 . S
H237 C219 0.929 1_565 S
H238 C220 0.928 . S
H239 C222 0.932 . S
C240 C241 1.264 . S
C240 C245 1.479 . S
C240 C250 1.465 . S
C241 C240 1.264 . S
C241 C243 1.339 . S
C241 H268 0.931 . S
C242 C243 1.395 1_545 S
C242 C244 1.320 1_545 S
C243 C241 1.339 . S
C243 C242 1.395 1_565 S
C243 H269 0.929 1_565 S
C244 C242 1.320 1_565 S
C244 C245 1.405 . S
C244 H270 0.930 1_565 S
C245 C240 1.479 . S
C245 C244 1.405 . S
C245 H271 0.931 . S
U246 O247 2.433 1_554 S
U246 O248 2.462 . S
U246 C249 2.975 1_554 S
U246 C250 2.828 1_554 S
U246 C263 2.913 . S
U246 O264 2.414 1_554 S
U246 O265 2.412 1_554 S
U246 O266 2.483 . S
U246 O267 2.473 . S
O247 U246 2.433 1_556 S
O247 C249 1.353 . S
O248 U246 2.462 . S
O248 C249 1.286 1_554 S
C249 U246 2.975 1_556 S
C249 O247 1.353 . S
C249 O248 1.286 1_556 S
C249 C251 1.363 . S
C250 C240 1.465 . S
C250 U246 2.828 1_556 S
C250 O264 1.249 . S
C250 O265 1.202 . S
C251 C249 1.363 . S
C251 C253 1.408 . S
C251 C256 1.342 . S
C252 C253 1.310 . S
C252 C255 1.461 . S
C252 H272 0.932 . S
C253 C251 1.408 . S
C253 C252 1.310 . S
C253 H273 0.930 . S
C254 C255 1.474 . S
C254 C256 1.285 . S
C254 H274 0.929 . S
C255 C252 1.461 . S
C255 C254 1.474 . S
C256 C251 1.342 . S
C256 C254 1.285 . S
C256 H275 0.930 1_556 S
C257 C260 1.424 . S
C257 C262 1.245 . S
C257 C263 1.428 . S
C258 C261 1.260 . S
C258 C262 1.477 . S
C258 H276 0.932 . S
C259 C260 1.384 . S
C259 C261 1.479 . S
C259 H277 0.929 . S
C260 C257 1.424 . S
C260 C259 1.384 . S
C260 H278 0.928 . S
C261 C258 1.260 . S
C261 C259 1.479 . S
C262 C257 1.245 . S
C262 C258 1.477 . S
C262 H279 0.932 . S
C263 U246 2.913 . S
C263 C257 1.428 . S
C263 O266 1.301 . S
C263 O267 1.282 . S
O264 U246 2.414 1_556 S
O264 C250 1.249 . S
O265 U246 2.412 1_556 S
O265 C250 1.202 . S
O266 U246 2.483 . S
O266 C263 1.301 . S
O267 U246 2.473 . S
O267 C263 1.282 . S
H268 C241 0.931 . S
H269 C243 0.929 1_545 S
H270 C244 0.930 1_545 S
H271 C245 0.931 . S
H272 C252 0.932 . S
H273 C253 0.930 . S
H274 C254 0.929 . S
H275 C256 0.930 1_554 S
H276 C258 0.932 . S
H277 C259 0.929 . S
H278 C260 0.928 . S
H279 C262 0.932 . S
C280 C281 1.264 . S
C280 C285 1.479 . S
C280 C290 1.465 . S
C281 C280 1.264 . S
C281 C283 1.339 . S
C281 H308 0.931 . S
C282 C283 1.395 . S
C282 C284 1.320 . S
C283 C281 1.339 . S
C283 C282 1.395 . S
C283 H309 0.929 . S
C284 C282 1.320 . S
C284 C285 1.405 . S
C284 H310 0.930 . S
C285 C280 1.479 . S
C285 C284 1.405 . S
C285 H311 0.931 . S
U286 O287 2.454 . S
U286 O288 2.458 . S
U286 C289 2.984 . S
U286 C290 2.847 . S
U286 C303 2.882 . S
U286 O304 2.441 . S
U286 O305 2.420 . S
U286 O306 2.455 . S
U286 O307 2.449 . S
O287 U286 2.454 . S
O287 C289 1.353 . S
O288 U286 2.458 . S
O288 C289 1.286 . S
C289 U286 2.984 . S
C289 O287 1.353 . S
C289 O288 1.286 . S
C289 C291 1.363 . S
C290 C280 1.465 . S
C290 U286 2.847 . S
C290 O304 1.249 . S
C290 O305 1.202 . S
C291 C289 1.363 . S
C291 C293 1.408 . S
C291 C296 1.342 . S
C292 C293 1.310 . S
C292 C295 1.461 . S
C292 H312 0.932 . S
C293 C291 1.408 . S
C293 C292 1.310 . S
C293 H313 0.930 . S
C294 C295 1.474 . S
C294 C296 1.285 . S
C294 H314 0.929 . S
C295 C292 1.461 . S
C295 C294 1.474 . S
C296 C291 1.342 . S
C296 C294 1.285 . S
C296 H315 0.930 . S
C297 C300 1.424 . S
C297 C302 1.245 . S
C297 C303 1.428 . S
C298 C301 1.266 . S
C298 C302 1.466 1_565 S
C298 H316 0.937 . S
C299 C300 1.384 1_565 S
C299 C301 1.479 . S
C299 H317 0.929 . S
C300 C297 1.424 . S
C300 C299 1.384 1_545 S
C300 H318 0.928 . S
C301 C298 1.266 . S
C301 C299 1.479 . S
C302 C297 1.245 . S
C302 C298 1.466 1_545 S
C302 H319 0.932 . S
C303 U286 2.882 . S
C303 C297 1.428 . S
C303 O306 1.301 . S
C303 O307 1.282 . S
O304 U286 2.441 . S
O304 C290 1.249 . S
O305 U286 2.420 . S
O305 C290 1.202 . S
O306 U286 2.455 . S
O306 C303 1.301 . S
O307 U286 2.449 . S
O307 C303 1.282 . S
H308 C281 0.931 . S
H309 C283 0.929 . S
H310 C284 0.930 . S
H311 C285 0.931 . S
H312 C292 0.932 . S
H313 C293 0.930 . S
H314 C294 0.929 . S
H315 C296 0.930 . S
H316 C298 0.937 . S
H317 C299 0.929 . S
H318 C300 0.928 . S
H319 C302 0.932 . S
Sc320 O323 2.025 . S
Sc320 O330 2.105 1_455 S
Sc320 O333 2.105 . S
Sc320 O336 2.105 . S
Sc320 O339 2.105 1_455 S
Sc321 O323 2.025 . S
Sc321 O331 2.105 1_455 S
Sc321 O335 2.105 . S
Sc321 O337 2.105 . S
Sc321 O341 2.105 1_455 S
Sc322 O323 2.025 . S
Sc322 O332 2.105 1_455 S
Sc322 O334 2.105 . S
Sc322 O338 2.105 . S
Sc322 O340 2.105 1_455 S
O323 Sc320 2.025 . S
O323 Sc321 2.025 . S
O323 Sc322 2.025 . S
C324 O330 1.268 . S
C324 O340 1.268 . S
C325 O331 1.268 . S
C325 O339 1.268 . S
C326 O332 1.268 . S
C326 O341 1.268 . S
C327 O333 1.268 . S
C327 O337 1.268 . S
C328 O334 1.268 . S
C328 O336 1.268 . S
C329 O335 1.268 . S
C329 O338 1.268 . S
O330 Sc320 2.105 1_655 S
O330 C324 1.268 . S
O331 Sc321 2.105 1_655 S
O331 C325 1.268 . S
O332 Sc322 2.105 1_655 S
O332 C326 1.268 . S
O333 Sc320 2.105 . S
O333 C327 1.268 . S
O334 Sc322 2.105 . S
O334 C328 1.268 . S
O335 Sc321 2.105 . S
O335 C329 1.268 . S
O336 Sc320 2.105 . S
O336 C328 1.268 . S
O337 Sc321 2.105 . S
O337 C327 1.268 . S
O338 Sc322 2.105 . S
O338 C329 1.268 . S
O339 Sc320 2.105 1_655 S
O339 C325 1.268 . S
O340 Sc322 2.105 1_655 S
O340 C324 1.268 . S
O341 Sc321 2.105 1_655 S
O341 C326 1.268 . S
Sc342 O345 2.025 . S
Sc342 O352 2.105 . S
Sc342 O355 2.105 1_455 S
Sc342 O358 2.105 1_455 S
Sc342 O361 2.105 . S
Sc343 O345 2.025 . S
Sc343 O353 2.105 . S
Sc343 O357 2.105 1_455 S
Sc343 O359 2.105 1_455 S
Sc343 O363 2.105 . S
Sc344 O345 2.025 . S
Sc344 O354 2.105 . S
Sc344 O356 2.105 1_455 S
Sc344 O360 2.105 1_455 S
Sc344 O362 2.105 . S
O345 Sc342 2.025 . S
O345 Sc343 2.025 . S
O345 Sc344 2.025 . S
C346 O352 1.268 . S
C346 O362 1.268 . S
C347 O353 1.268 . S
C347 O361 1.268 . S
C348 O354 1.268 . S
C348 O363 1.268 . S
C349 O355 1.268 . S
C349 O359 1.268 . S
C350 O356 1.268 . S
C350 O358 1.268 . S
C351 O357 1.268 . S
C351 O360 1.268 . S
O352 Sc342 2.105 . S
O352 C346 1.268 . S
O353 Sc343 2.105 . S
O353 C347 1.268 . S
O354 Sc344 2.105 . S
O354 C348 1.268 . S
O355 Sc342 2.105 1_655 S
O355 C349 1.268 . S
O356 Sc344 2.105 1_655 S
O356 C350 1.268 . S
O357 Sc343 2.105 1_655 S
O357 C351 1.268 . S
O358 Sc342 2.105 1_655 S
O358 C350 1.268 . S
O359 Sc343 2.105 1_655 S
O359 C349 1.268 . S
O360 Sc344 2.105 1_655 S
O360 C351 1.268 . S
O361 Sc342 2.105 . S
O361 C347 1.268 . S
O362 Sc344 2.105 . S
O362 C346 1.268 . S
O363 Sc343 2.105 . S
O363 C348 1.268 . S
Sc364 O367 2.025 . S
Sc364 O374 2.105 . S
Sc364 O377 2.105 . S
Sc364 O380 2.105 . S
Sc364 O383 2.105 . S
Sc365 O367 2.025 . S
Sc365 O375 2.105 . S
Sc365 O379 2.105 . S
Sc365 O381 2.105 . S
Sc365 O385 2.105 . S
Sc366 O367 2.025 . S
Sc366 O376 2.105 . S
Sc366 O378 2.105 . S
Sc366 O382 2.105 . S
Sc366 O384 2.105 . S
O367 Sc364 2.025 . S
O367 Sc365 2.025 . S
O367 Sc366 2.025 . S
C368 O374 1.268 . S
C368 O384 1.268 . S
C369 O375 1.268 . S
C369 O383 1.268 . S
C370 O376 1.268 . S
C370 O385 1.268 . S
C371 O377 1.268 . S
C371 O381 1.268 . S
C372 O378 1.268 . S
C372 O380 1.268 . S
C373 O379 1.268 . S
C373 O382 1.268 . S
O374 Sc364 2.105 . S
O374 C368 1.268 . S
O375 Sc365 2.105 . S
O375 C369 1.268 . S
O376 Sc366 2.105 . S
O376 C370 1.268 . S
O377 Sc364 2.105 . S
O377 C371 1.268 . S
O378 Sc366 2.105 . S
O378 C372 1.268 . S
O379 Sc365 2.105 . S
O379 C373 1.268 . S
O380 Sc364 2.105 . S
O380 C372 1.268 . S
O381 Sc365 2.105 . S
O381 C371 1.268 . S
O382 Sc366 2.105 . S
O382 C373 1.268 . S
O383 Sc364 2.105 . S
O383 C369 1.268 . S
O384 Sc366 2.105 . S
O384 C368 1.268 . S
O385 Sc365 2.105 . S
O385 C370 1.268 . S
Sc386 O389 2.025 . S
Sc386 O396 2.105 . S
Sc386 O399 2.105 . S
Sc386 O402 2.105 . S
Sc386 O405 2.105 . S
Sc387 O389 2.025 . S
Sc387 O397 2.105 . S
Sc387 O401 2.105 . S
Sc387 O403 2.105 . S
Sc387 O407 2.105 . S
Sc388 O389 2.025 . S
Sc388 O398 2.105 . S
Sc388 O400 2.105 . S
Sc388 O404 2.105 . S
Sc388 O406 2.105 . S
O389 Sc386 2.025 . S
O389 Sc387 2.025 . S
O389 Sc388 2.025 . S
C390 O396 1.268 . S
C390 O406 1.268 . S
C391 O397 1.268 . S
C391 O405 1.268 . S
C392 O398 1.268 . S
C392 O407 1.268 . S
C393 O399 1.268 . S
C393 O403 1.268 . S
C394 O400 1.268 . S
C394 O402 1.268 . S
C395 O401 1.268 . S
C395 O404 1.268 . S
O396 Sc386 2.105 . S
O396 C390 1.268 . S
O397 Sc387 2.105 . S
O397 C391 1.268 . S
O398 Sc388 2.105 . S
O398 C392 1.268 . S
O399 Sc386 2.105 . S
O399 C393 1.268 . S
O400 Sc388 2.105 . S
O400 C394 1.268 . S
O401 Sc387 2.105 . S
O401 C395 1.268 . S
O402 Sc386 2.105 . S
O402 C394 1.268 . S
O403 Sc387 2.105 . S
O403 C393 1.268 . S
O404 Sc388 2.105 . S
O404 C395 1.268 . S
O405 Sc386 2.105 . S
O405 C391 1.268 . S
O406 Sc388 2.105 . S
O406 C390 1.268 . S
O407 Sc387 2.105 . S
O407 C392 1.268 . S
C408 C409 1.391 . S
C408 C410 1.394 . S
C408 H424 0.931 . S
C409 C408 1.391 . S
C409 C413 1.376 . S
C410 C408 1.394 . S
C410 C411 1.369 . S
C410 C414 1.531 . S
C411 C410 1.369 . S
C411 C412 1.410 . S
C411 C419 1.503 . S
C412 C411 1.410 . S
C412 C413 1.392 . S
C412 C415 1.511 . S
C413 C409 1.376 . S
C413 C412 1.392 . S
C413 H425 0.929 . S
C414 C410 1.531 . S
C414 H426 0.960 . S
C414 H427 0.962 . S
C414 H428 0.960 . S
C415 C412 1.511 . S
C415 H429 0.961 . S
C415 H430 0.961 . S
C415 H431 0.961 . S
C416 C417 1.370 . S
C416 C418 1.363 . S
C416 H432 0.931 . S
C417 C416 1.370 . S
C417 C421 1.408 . S
C418 C416 1.363 . S
C418 C419 1.370 . S
C418 C422 1.524 . S
C419 C411 1.503 . S
C419 C418 1.370 . S
C419 C420 1.403 . S
C420 C419 1.403 . S
C420 C421 1.404 . S
C420 C423 1.539 . S
C421 C417 1.408 . S
C421 C420 1.404 . S
C421 H433 0.930 . S
C422 C418 1.524 . S
C422 H434 0.956 . S
C422 H435 0.961 . S
C422 H436 0.961 . S
C423 C420 1.539 . S
C423 H437 0.958 . S
C423 H438 0.961 . S
C423 H439 0.960 . S
H424 C408 0.931 . S
H425 C413 0.929 . S
H426 C414 0.960 . S
H427 C414 0.962 . S
H428 C414 0.960 . S
H429 C415 0.961 . S
H430 C415 0.961 . S
H431 C415 0.961 . S
H432 C416 0.931 . S
H433 C421 0.930 . S
H434 C422 0.956 . S
H435 C422 0.961 . S
H436 C422 0.961 . S
H437 C423 0.958 . S
H438 C423 0.961 . S
H439 C423 0.960 . S
C440 C441 1.391 . S
C440 C442 1.394 . S
C440 H456 0.931 . S
C441 C440 1.391 . S
C441 C445 1.376 . S
C442 C440 1.394 . S
C442 C443 1.369 . S
C442 C446 1.531 . S
C443 C442 1.369 . S
C443 C444 1.410 . S
C443 C451 1.503 . S
C444 C443 1.410 . S
C444 C445 1.392 . S
C444 C447 1.511 . S
C445 C441 1.376 . S
C445 C444 1.392 . S
C445 H457 0.929 . S
C446 C442 1.531 . S
C446 H458 0.960 . S
C446 H459 0.962 . S
C446 H460 0.960 . S
C447 C444 1.511 . S
C447 H461 0.961 . S
C447 H462 0.961 . S
C447 H463 0.961 . S
C448 C449 1.370 . S
C448 C450 1.363 . S
C448 H464 0.931 . S
C449 C448 1.370 . S
C449 C453 1.408 . S
C450 C448 1.363 . S
C450 C451 1.370 . S
C450 C454 1.524 . S
C451 C443 1.503 . S
C451 C450 1.370 . S
C451 C452 1.403 . S
C452 C451 1.403 . S
C452 C453 1.404 . S
C452 C455 1.539 . S
C453 C449 1.408 . S
C453 C452 1.404 . S
C453 H465 0.930 . S
C454 C450 1.524 . S
C454 H466 0.956 . S
C454 H467 0.961 . S
C454 H468 0.961 . S
C455 C452 1.539 . S
C455 H469 0.958 . S
C455 H470 0.961 . S
C455 H471 0.960 . S
H456 C440 0.931 . S
H457 C445 0.929 . S
H458 C446 0.960 . S
H459 C446 0.962 . S
H460 C446 0.960 . S
H461 C447 0.961 . S
H462 C447 0.961 . S
H463 C447 0.961 . S
H464 C448 0.931 . S
H465 C453 0.930 . S
H466 C454 0.956 . S
H467 C454 0.961 . S
H468 C454 0.961 . S
H469 C455 0.958 . S
H470 C455 0.961 . S
H471 C455 0.960 . S
C472 C473 1.391 . S
C472 C474 1.394 . S
C472 H488 0.931 . S
C473 C472 1.391 . S
C473 C477 1.376 . S
C474 C472 1.394 . S
C474 C475 1.369 . S
C474 C478 1.531 . S
C475 C474 1.369 . S
C475 C476 1.410 . S
C475 C483 1.503 . S
C476 C475 1.410 . S
C476 C477 1.392 . S
C476 C479 1.511 . S
C477 C473 1.376 . S
C477 C476 1.392 . S
C477 H489 0.929 . S
C478 C474 1.531 . S
C478 H490 0.960 . S
C478 H491 0.962 . S
C478 H492 0.960 . S
C479 C476 1.511 . S
C479 H493 0.961 . S
C479 H494 0.961 . S
C479 H495 0.961 . S
C480 C481 1.370 . S
C480 C482 1.363 . S
C480 H496 0.931 . S
C481 C480 1.370 . S
C481 C485 1.408 . S
C482 C480 1.363 . S
C482 C483 1.370 . S
C482 C486 1.524 . S
C483 C475 1.503 . S
C483 C482 1.370 . S
C483 C484 1.403 . S
C484 C483 1.403 . S
C484 C485 1.404 . S
C484 C487 1.539 . S
C485 C481 1.408 . S
C485 C484 1.404 . S
C485 H497 0.930 . S
C486 C482 1.524 . S
C486 H498 0.956 . S
C486 H499 0.961 . S
C486 H500 0.961 . S
C487 C484 1.539 . S
C487 H501 0.958 . S
C487 H502 0.961 . S
C487 H503 0.960 . S
H488 C472 0.931 . S
H489 C477 0.929 . S
H490 C478 0.960 . S
H491 C478 0.962 . S
H492 C478 0.960 . S
H493 C479 0.961 . S
H494 C479 0.961 . S
H495 C479 0.961 . S
H496 C480 0.931 . S
H497 C485 0.930 . S
H498 C486 0.956 . S
H499 C486 0.961 . S
H500 C486 0.961 . S
H501 C487 0.958 . S
H502 C487 0.961 . S
H503 C487 0.960 . S
C504 C505 1.391 . S
C504 C506 1.394 . S
C504 H520 0.931 . S
C505 C504 1.391 . S
C505 C509 1.376 . S
C506 C504 1.394 . S
C506 C507 1.369 . S
C506 C510 1.531 . S
C507 C506 1.369 . S
C507 C508 1.410 . S
C507 C515 1.503 . S
C508 C507 1.410 . S
C508 C509 1.392 . S
C508 C511 1.511 . S
C509 C505 1.376 . S
C509 C508 1.392 . S
C509 H521 0.929 . S
C510 C506 1.531 . S
C510 H522 0.960 . S
C510 H523 0.962 . S
C510 H524 0.960 . S
C511 C508 1.511 . S
C511 H525 0.961 . S
C511 H526 0.961 . S
C511 H527 0.961 . S
C512 C513 1.370 . S
C512 C514 1.363 . S
C512 H528 0.931 . S
C513 C512 1.370 . S
C513 C517 1.408 . S
C514 C512 1.363 . S
C514 C515 1.370 . S
C514 C518 1.524 . S
C515 C507 1.503 . S
C515 C514 1.370 . S
C515 C516 1.403 . S
C516 C515 1.403 . S
C516 C517 1.404 . S
C516 C519 1.539 . S
C517 C513 1.408 . S
C517 C516 1.404 . S
C517 H529 0.930 . S
C518 C514 1.524 . S
C518 H530 0.956 . S
C518 H531 0.961 . S
C518 H532 0.961 . S
C519 C516 1.539 . S
C519 H533 0.958 . S
C519 H534 0.961 . S
C519 H535 0.960 . S
H520 C504 0.931 . S
H521 C509 0.929 . S
H522 C510 0.960 . S
H523 C510 0.962 . S
H524 C510 0.960 . S
H525 C511 0.961 . S
H526 C511 0.961 . S
H527 C511 0.961 . S
H528 C512 0.931 . S
H529 C517 0.930 . S
H530 C518 0.956 . S
H531 C518 0.961 . S
H532 C518 0.961 . S
H533 C519 0.958 . S
H534 C519 0.961 . S
H535 C519 0.960 . S
C536 C537 1.391 . S
C536 C538 1.394 . S
C536 H552 0.931 . S
C537 C536 1.391 . S
C537 C541 1.376 . S
C538 C536 1.394 . S
C538 C539 1.369 . S
C538 C542 1.531 . S
C539 C538 1.369 . S
C539 C540 1.410 . S
C539 C547 1.503 . S
C540 C539 1.410 . S
C540 C541 1.392 . S
C540 C543 1.511 . S
C541 C537 1.376 . S
C541 C540 1.392 . S
C541 H553 0.929 . S
C542 C538 1.531 . S
C542 H554 0.960 . S
C542 H555 0.962 . S
C542 H556 0.960 . S
C543 C540 1.511 . S
C543 H557 0.961 . S
C543 H558 0.961 . S
C543 H559 0.961 . S
C544 C545 1.370 . S
C544 C546 1.363 . S
C544 H560 0.931 . S
C545 C544 1.370 . S
C545 C549 1.408 . S
C546 C544 1.363 . S
C546 C547 1.370 . S
C546 C550 1.524 . S
C547 C539 1.503 . S
C547 C546 1.370 . S
C547 C548 1.403 . S
C548 C547 1.403 . S
C548 C549 1.404 . S
C548 C551 1.539 . S
C549 C545 1.408 . S
C549 C548 1.404 . S
C549 H561 0.930 . S
C550 C546 1.524 . S
C550 H562 0.956 . S
C550 H563 0.961 . S
C550 H564 0.961 . S
C551 C548 1.539 . S
C551 H565 0.958 . S
C551 H566 0.961 . S
C551 H567 0.960 . S
H552 C536 0.931 . S
H553 C541 0.929 . S
H554 C542 0.960 . S
H555 C542 0.962 . S
H556 C542 0.960 . S
H557 C543 0.961 . S
H558 C543 0.961 . S
H559 C543 0.961 . S
H560 C544 0.931 . S
H561 C549 0.930 . S
H562 C550 0.956 . S
H563 C550 0.961 . S
H564 C550 0.961 . S
H565 C551 0.958 . S
H566 C551 0.961 . S
H567 C551 0.960 . S
C568 C569 1.391 . S
C568 C570 1.394 . S
C568 H584 0.931 . S
C569 C568 1.391 . S
C569 C573 1.376 . S
C570 C568 1.394 . S
C570 C571 1.369 . S
C570 C574 1.531 . S
C571 C570 1.369 . S
C571 C572 1.410 . S
C571 C579 1.503 . S
C572 C571 1.410 . S
C572 C573 1.392 . S
C572 C575 1.511 . S
C573 C569 1.376 . S
C573 C572 1.392 . S
C573 H585 0.929 . S
C574 C570 1.531 . S
C574 H586 0.960 . S
C574 H587 0.962 . S
C574 H588 0.960 . S
C575 C572 1.511 . S
C575 H589 0.961 . S
C575 H590 0.961 . S
C575 H591 0.961 . S
C576 C577 1.370 . S
C576 C578 1.363 . S
C576 H592 0.931 . S
C577 C576 1.370 . S
C577 C581 1.408 . S
C578 C576 1.363 . S
C578 C579 1.370 . S
C578 C582 1.524 . S
C579 C571 1.503 . S
C579 C578 1.370 . S
C579 C580 1.403 . S
C580 C579 1.403 . S
C580 C581 1.404 . S
C580 C583 1.539 . S
C581 C577 1.408 . S
C581 C580 1.404 . S
C581 H593 0.930 . S
C582 C578 1.524 . S
C582 H594 0.956 . S
C582 H595 0.961 . S
C582 H596 0.961 . S
C583 C580 1.539 . S
C583 H597 0.958 . S
C583 H598 0.961 . S
C583 H599 0.960 . S
H584 C568 0.931 . S
H585 C573 0.929 . S
H586 C574 0.960 . S
H587 C574 0.962 . S
H588 C574 0.960 . S
H589 C575 0.961 . S
H590 C575 0.961 . S
H591 C575 0.961 . S
H592 C576 0.931 . S
H593 C581 0.930 . S
H594 C582 0.956 . S
H595 C582 0.961 . S
H596 C582 0.961 . S
H597 C583 0.958 . S
H598 C583 0.961 . S
H599 C583 0.960 . S
C600 C601 1.391 . S
C600 C602 1.394 . S
C600 H616 0.931 . S
C601 C600 1.391 . S
C601 C605 1.376 . S
C602 C600 1.394 . S
C602 C603 1.369 . S
C602 C606 1.531 . S
C603 C602 1.369 . S
C603 C604 1.410 . S
C603 C611 1.503 . S
C604 C603 1.410 . S
C604 C605 1.392 . S
C604 C607 1.511 . S
C605 C601 1.376 . S
C605 C604 1.392 . S
C605 H617 0.929 . S
C606 C602 1.531 . S
C606 H618 0.960 . S
C606 H619 0.962 . S
C606 H620 0.960 . S
C607 C604 1.511 . S
C607 H621 0.961 . S
C607 H622 0.961 . S
C607 H623 0.961 . S
C608 C609 1.370 . S
C608 C610 1.363 . S
C608 H624 0.931 . S
C609 C608 1.370 . S
C609 C613 1.408 . S
C610 C608 1.363 . S
C610 C611 1.370 . S
C610 C614 1.524 . S
C611 C603 1.503 . S
C611 C610 1.370 . S
C611 C612 1.403 . S
C612 C611 1.403 . S
C612 C613 1.404 . S
C612 C615 1.539 . S
C613 C609 1.408 . S
C613 C612 1.404 . S
C613 H625 0.930 . S
C614 C610 1.524 . S
C614 H626 0.956 . S
C614 H627 0.961 . S
C614 H628 0.961 . S
C615 C612 1.539 . S
C615 H629 0.958 . S
C615 H630 0.961 . S
C615 H631 0.960 . S
H616 C600 0.931 . S
H617 C605 0.929 . S
H618 C606 0.960 . S
H619 C606 0.962 . S
H620 C606 0.960 . S
H621 C607 0.961 . S
H622 C607 0.961 . S
H623 C607 0.961 . S
H624 C608 0.931 . S
H625 C613 0.930 . S
H626 C614 0.956 . S
H627 C614 0.961 . S
H628 C614 0.961 . S
H629 C615 0.958 . S
H630 C615 0.961 . S
H631 C615 0.960 . S
C632 C633 1.391 . S
C632 C634 1.394 . S
C632 H648 0.931 . S
C633 C632 1.391 . S
C633 C637 1.376 . S
C634 C632 1.394 . S
C634 C635 1.369 . S
C634 C638 1.531 . S
C635 C634 1.369 . S
C635 C636 1.410 . S
C635 C643 1.503 . S
C636 C635 1.410 . S
C636 C637 1.392 . S
C636 C639 1.511 . S
C637 C633 1.376 . S
C637 C636 1.392 . S
C637 H649 0.929 . S
C638 C634 1.531 . S
C638 H650 0.960 . S
C638 H651 0.962 . S
C638 H652 0.960 . S
C639 C636 1.511 . S
C639 H653 0.961 . S
C639 H654 0.961 . S
C639 H655 0.961 . S
C640 C641 1.370 . S
C640 C642 1.363 . S
C640 H656 0.931 . S
C641 C640 1.370 . S
C641 C645 1.408 . S
C642 C640 1.363 . S
C642 C643 1.370 . S
C642 C646 1.524 . S
C643 C635 1.503 . S
C643 C642 1.370 . S
C643 C644 1.403 . S
C644 C643 1.403 . S
C644 C645 1.404 . S
C644 C647 1.539 . S
C645 C641 1.408 . S
C645 C644 1.404 . S
C645 H657 0.930 . S
C646 C642 1.524 . S
C646 H658 0.956 . S
C646 H659 0.961 . S
C646 H660 0.961 . S
C647 C644 1.539 . S
C647 H661 0.958 . S
C647 H662 0.961 . S
C647 H663 0.960 . S
H648 C632 0.931 . S
H649 C637 0.929 . S
H650 C638 0.960 . S
H651 C638 0.962 . S
H652 C638 0.960 . S
H653 C639 0.961 . S
H654 C639 0.961 . S
H655 C639 0.961 . S
H656 C640 0.931 . S
H657 C645 0.930 . S
H658 C646 0.956 . S
H659 C646 0.961 . S
H660 C646 0.961 . S
H661 C647 0.958 . S
H662 C647 0.961 . S
H663 C647 0.960 . S
C664 C665 1.391 . S
C664 C666 1.394 . S
C664 H680 0.931 . S
C665 C664 1.391 . S
C665 C669 1.376 . S
C666 C664 1.394 . S
C666 C667 1.369 . S
C666 C670 1.531 . S
C667 C666 1.369 . S
C667 C668 1.410 . S
C667 C675 1.503 . S
C668 C667 1.410 . S
C668 C669 1.392 . S
C668 C671 1.511 . S
C669 C665 1.376 . S
C669 C668 1.392 . S
C669 H681 0.929 . S
C670 C666 1.531 . S
C670 H682 0.960 . S
C670 H683 0.962 . S
C670 H684 0.960 . S
C671 C668 1.511 . S
C671 H685 0.961 . S
C671 H686 0.961 . S
C671 H687 0.961 . S
C672 C673 1.370 . S
C672 C674 1.363 . S
C672 H688 0.931 . S
C673 C672 1.370 . S
C673 C677 1.408 . S
C674 C672 1.363 . S
C674 C675 1.370 . S
C674 C678 1.524 . S
C675 C667 1.503 . S
C675 C674 1.370 . S
C675 C676 1.403 . S
C676 C675 1.403 . S
C676 C677 1.404 . S
C676 C679 1.539 . S
C677 C673 1.408 . S
C677 C676 1.404 . S
C677 H689 0.930 . S
C678 C674 1.524 . S
C678 H690 0.956 . S
C678 H691 0.961 . S
C678 H692 0.961 . S
C679 C676 1.539 . S
C679 H693 0.958 . S
C679 H694 0.961 . S
C679 H695 0.960 . S
H680 C664 0.931 . S
H681 C669 0.929 . S
H682 C670 0.960 . S
H683 C670 0.962 . S
H684 C670 0.960 . S
H685 C671 0.961 . S
H686 C671 0.961 . S
H687 C671 0.961 . S
H688 C672 0.931 . S
H689 C677 0.930 . S
H690 C678 0.956 . S
H691 C678 0.961 . S
H692 C678 0.961 . S
H693 C679 0.958 . S
H694 C679 0.961 . S
H695 C679 0.960 . S
C696 C697 1.391 . S
C696 C698 1.394 . S
C696 H712 0.931 . S
C697 C696 1.391 . S
C697 C701 1.376 . S
C698 C696 1.394 . S
C698 C699 1.369 . S
C698 C702 1.531 . S
C699 C698 1.369 . S
C699 C700 1.410 . S
C699 C707 1.503 . S
C700 C699 1.410 . S
C700 C701 1.392 . S
C700 C703 1.511 . S
C701 C697 1.376 . S
C701 C700 1.392 . S
C701 H713 0.929 . S
C702 C698 1.531 . S
C702 H714 0.960 . S
C702 H715 0.962 . S
C702 H716 0.960 . S
C703 C700 1.511 . S
C703 H717 0.961 . S
C703 H718 0.961 . S
C703 H719 0.961 . S
C704 C705 1.370 . S
C704 C706 1.363 . S
C704 H720 0.931 . S
C705 C704 1.370 . S
C705 C709 1.408 . S
C706 C704 1.363 . S
C706 C707 1.370 . S
C706 C710 1.524 . S
C707 C699 1.503 . S
C707 C706 1.370 . S
C707 C708 1.403 . S
C708 C707 1.403 . S
C708 C709 1.404 . S
C708 C711 1.539 . S
C709 C705 1.408 . S
C709 C708 1.404 . S
C709 H721 0.930 . S
C710 C706 1.524 . S
C710 H722 0.956 . S
C710 H723 0.961 . S
C710 H724 0.961 . S
C711 C708 1.539 . S
C711 H725 0.958 . S
C711 H726 0.961 . S
C711 H727 0.960 . S
H712 C696 0.931 . S
H713 C701 0.929 . S
H714 C702 0.960 . S
H715 C702 0.962 . S
H716 C702 0.960 . S
H717 C703 0.961 . S
H718 C703 0.961 . S
H719 C703 0.961 . S
H720 C704 0.931 . S
H721 C709 0.930 . S
H722 C710 0.956 . S
H723 C710 0.961 . S
H724 C710 0.961 . S
H725 C711 0.958 . S
H726 C711 0.961 . S
H727 C711 0.960 . S
C728 C729 1.391 . S
C728 C730 1.394 . S
C728 H744 0.931 . S
C729 C728 1.391 . S
C729 C733 1.376 . S
C730 C728 1.394 . S
C730 C731 1.369 . S
C730 C734 1.531 . S
C731 C730 1.369 . S
C731 C732 1.410 . S
C731 C739 1.503 . S
C732 C731 1.410 . S
C732 C733 1.392 . S
C732 C735 1.511 . S
C733 C729 1.376 . S
C733 C732 1.392 . S
C733 H745 0.929 . S
C734 C730 1.531 . S
C734 H746 0.960 . S
C734 H747 0.962 . S
C734 H748 0.960 . S
C735 C732 1.511 . S
C735 H749 0.961 . S
C735 H750 0.961 . S
C735 H751 0.961 . S
C736 C737 1.370 . S
C736 C738 1.363 . S
C736 H752 0.931 . S
C737 C736 1.370 . S
C737 C741 1.408 . S
C738 C736 1.363 . S
C738 C739 1.370 . S
C738 C742 1.524 . S
C739 C731 1.503 . S
C739 C738 1.370 . S
C739 C740 1.403 . S
C740 C739 1.403 . S
C740 C741 1.404 . S
C740 C743 1.539 . S
C741 C737 1.408 . S
C741 C740 1.404 . S
C741 H753 0.930 . S
C742 C738 1.524 . S
C742 H754 0.956 . S
C742 H755 0.961 . S
C742 H756 0.961 . S
C743 C740 1.539 . S
C743 H757 0.958 . S
C743 H758 0.961 . S
C743 H759 0.960 . S
H744 C728 0.931 . S
H745 C733 0.929 . S
H746 C734 0.960 . S
H747 C734 0.962 . S
H748 C734 0.960 . S
H749 C735 0.961 . S
H750 C735 0.961 . S
H751 C735 0.961 . S
H752 C736 0.931 . S
H753 C741 0.930 . S
H754 C742 0.956 . S
H755 C742 0.961 . S
H756 C742 0.961 . S
H757 C743 0.958 . S
H758 C743 0.961 . S
H759 C743 0.960 . S
C760 C761 1.391 . S
C760 C762 1.394 . S
C760 H776 0.931 . S
C761 C760 1.391 . S
C761 C765 1.376 . S
C762 C760 1.394 . S
C762 C763 1.369 . S
C762 C766 1.531 . S
C763 C762 1.369 . S
C763 C764 1.410 . S
C763 C771 1.503 . S
C764 C763 1.410 . S
C764 C765 1.392 . S
C764 C767 1.511 . S
C765 C761 1.376 . S
C765 C764 1.392 . S
C765 H777 0.929 . S
C766 C762 1.531 . S
C766 H778 0.960 . S
C766 H779 0.962 . S
C766 H780 0.960 . S
C767 C764 1.511 . S
C767 H781 0.961 . S
C767 H782 0.961 . S
C767 H783 0.961 . S
C768 C769 1.370 . S
C768 C770 1.363 . S
C768 H784 0.931 . S
C769 C768 1.370 . S
C769 C773 1.408 . S
C770 C768 1.363 . S
C770 C771 1.370 . S
C770 C774 1.524 . S
C771 C763 1.503 . S
C771 C770 1.370 . S
C771 C772 1.403 . S
C772 C771 1.403 . S
C772 C773 1.404 . S
C772 C775 1.539 . S
C773 C769 1.408 . S
C773 C772 1.404 . S
C773 H785 0.930 . S
C774 C770 1.524 . S
C774 H786 0.956 . S
C774 H787 0.961 . S
C774 H788 0.961 . S
C775 C772 1.539 . S
C775 H789 0.958 . S
C775 H790 0.961 . S
C775 H791 0.960 . S
H776 C760 0.931 . S
H777 C765 0.929 . S
H778 C766 0.960 . S
H779 C766 0.962 . S
H780 C766 0.960 . S
H781 C767 0.961 . S
H782 C767 0.961 . S
H783 C767 0.961 . S
H784 C768 0.931 . S
H785 C773 0.930 . S
H786 C774 0.956 . S
H787 C774 0.961 . S
H788 C774 0.961 . S
H789 C775 0.958 . S
H790 C775 0.961 . S
H791 C775 0.960 . S
C792 C793 1.391 . S
C792 C794 1.394 . S
C792 H808 0.931 . S
C793 C792 1.391 . S
C793 C797 1.376 . S
C794 C792 1.394 . S
C794 C795 1.369 . S
C794 C798 1.531 . S
C795 C794 1.369 . S
C795 C796 1.410 . S
C795 C803 1.503 . S
C796 C795 1.410 . S
C796 C797 1.392 . S
C796 C799 1.511 . S
C797 C793 1.376 . S
C797 C796 1.392 . S
C797 H809 0.929 . S
C798 C794 1.531 . S
C798 H810 0.960 . S
C798 H811 0.962 . S
C798 H812 0.960 . S
C799 C796 1.511 . S
C799 H813 0.961 . S
C799 H814 0.961 . S
C799 H815 0.961 . S
C800 C801 1.370 . S
C800 C802 1.363 . S
C800 H816 0.931 . S
C801 C800 1.370 . S
C801 C805 1.408 . S
C802 C800 1.363 . S
C802 C803 1.370 . S
C802 C806 1.524 . S
C803 C795 1.503 . S
C803 C802 1.370 . S
C803 C804 1.403 . S
C804 C803 1.403 . S
C804 C805 1.404 . S
C804 C807 1.539 . S
C805 C801 1.408 . S
C805 C804 1.404 . S
C805 H817 0.930 . S
C806 C802 1.524 . S
C806 H818 0.956 . S
C806 H819 0.961 . S
C806 H820 0.961 . S
C807 C804 1.539 . S
C807 H821 0.958 . S
C807 H822 0.961 . S
C807 H823 0.960 . S
H808 C792 0.931 . S
H809 C797 0.929 . S
H810 C798 0.960 . S
H811 C798 0.962 . S
H812 C798 0.960 . S
H813 C799 0.961 . S
H814 C799 0.961 . S
H815 C799 0.961 . S
H816 C800 0.931 . S
H817 C805 0.930 . S
H818 C806 0.956 . S
H819 C806 0.961 . S
H820 C806 0.961 . S
H821 C807 0.958 . S
H822 C807 0.961 . S
H823 C807 0.960 . S
C824 C825 1.391 . S
C824 C826 1.394 . S
C824 H840 0.931 . S
C825 C824 1.391 . S
C825 C829 1.376 . S
C826 C824 1.394 . S
C826 C827 1.369 . S
C826 C830 1.531 . S
C827 C826 1.369 . S
C827 C828 1.410 . S
C827 C835 1.503 . S
C828 C827 1.410 . S
C828 C829 1.392 . S
C828 C831 1.511 . S
C829 C825 1.376 . S
C829 C828 1.392 . S
C829 H841 0.929 . S
C830 C826 1.531 . S
C830 H842 0.960 . S
C830 H843 0.962 . S
C830 H844 0.960 . S
C831 C828 1.511 . S
C831 H845 0.961 . S
C831 H846 0.961 . S
C831 H847 0.961 . S
C832 C833 1.370 . S
C832 C834 1.363 . S
C832 H848 0.931 . S
C833 C832 1.370 . S
C833 C837 1.408 . S
C834 C832 1.363 . S
C834 C835 1.370 . S
C834 C838 1.524 . S
C835 C827 1.503 . S
C835 C834 1.370 . S
C835 C836 1.403 . S
C836 C835 1.403 . S
C836 C837 1.404 . S
C836 C839 1.539 . S
C837 C833 1.408 . S
C837 C836 1.404 . S
C837 H849 0.930 . S
C838 C834 1.524 . S
C838 H850 0.956 . S
C838 H851 0.961 . S
C838 H852 0.961 . S
C839 C836 1.539 . S
C839 H853 0.958 . S
C839 H854 0.961 . S
C839 H855 0.960 . S
H840 C824 0.931 . S
H841 C829 0.929 . S
H842 C830 0.960 . S
H843 C830 0.962 . S
H844 C830 0.960 . S
H845 C831 0.961 . S
H846 C831 0.961 . S
H847 C831 0.961 . S
H848 C832 0.931 . S
H849 C837 0.930 . S
H850 C838 0.956 . S
H851 C838 0.961 . S
H852 C838 0.961 . S
H853 C839 0.958 . S
H854 C839 0.961 . S
H855 C839 0.960 . S
C856 C857 1.391 . S
C856 C858 1.394 . S
C856 H872 0.931 . S
C857 C856 1.391 . S
C857 C861 1.376 . S
C858 C856 1.394 . S
C858 C859 1.369 . S
C858 C862 1.531 . S
C859 C858 1.369 . S
C859 C860 1.410 . S
C859 C867 1.503 . S
C860 C859 1.410 . S
C860 C861 1.392 . S
C860 C863 1.511 . S
C861 C857 1.376 . S
C861 C860 1.392 . S
C861 H873 0.929 . S
C862 C858 1.531 . S
C862 H874 0.960 . S
C862 H875 0.962 . S
C862 H876 0.960 . S
C863 C860 1.511 . S
C863 H877 0.961 . S
C863 H878 0.961 . S
C863 H879 0.961 . S
C864 C865 1.370 . S
C864 C866 1.363 . S
C864 H880 0.931 . S
C865 C864 1.370 . S
C865 C869 1.408 . S
C866 C864 1.363 . S
C866 C867 1.370 . S
C866 C870 1.524 . S
C867 C859 1.503 . S
C867 C866 1.370 . S
C867 C868 1.403 . S
C868 C867 1.403 . S
C868 C869 1.404 . S
C868 C871 1.539 . S
C869 C865 1.408 . S
C869 C868 1.404 . S
C869 H881 0.930 . S
C870 C866 1.524 . S
C870 H882 0.956 . S
C870 H883 0.961 . S
C870 H884 0.961 . S
C871 C868 1.539 . S
C871 H885 0.958 . S
C871 H886 0.961 . S
C871 H887 0.960 . S
H872 C856 0.931 . S
H873 C861 0.929 . S
H874 C862 0.960 . S
H875 C862 0.962 . S
H876 C862 0.960 . S
H877 C863 0.961 . S
H878 C863 0.961 . S
H879 C863 0.961 . S
H880 C864 0.931 . S
H881 C869 0.930 . S
H882 C870 0.956 . S
H883 C870 0.961 . S
H884 C870 0.961 . S
H885 C871 0.958 . S
H886 C871 0.961 . S
H887 C871 0.960 . S
C888 C889 1.391 . S
C888 C890 1.394 . S
C888 H904 0.931 . S
C889 C888 1.391 . S
C889 C893 1.376 . S
C890 C888 1.394 . S
C890 C891 1.369 . S
C890 C894 1.531 . S
C891 C890 1.369 . S
C891 C892 1.410 . S
C891 C899 1.503 . S
C892 C891 1.410 . S
C892 C893 1.392 . S
C892 C895 1.511 . S
C893 C889 1.376 . S
C893 C892 1.392 . S
C893 H905 0.929 . S
C894 C890 1.531 . S
C894 H906 0.960 . S
C894 H907 0.962 . S
C894 H908 0.960 . S
C895 C892 1.511 . S
C895 H909 0.961 . S
C895 H910 0.961 . S
C895 H911 0.961 . S
C896 C897 1.370 . S
C896 C898 1.363 . S
C896 H912 0.931 . S
C897 C896 1.370 . S
C897 C901 1.408 . S
C898 C896 1.363 . S
C898 C899 1.370 . S
C898 C902 1.524 . S
C899 C891 1.503 . S
C899 C898 1.370 . S
C899 C900 1.403 . S
C900 C899 1.403 . S
C900 C901 1.404 . S
C900 C903 1.539 . S
C901 C897 1.408 . S
C901 C900 1.404 . S
C901 H913 0.930 . S
C902 C898 1.524 . S
C902 H914 0.956 . S
C902 H915 0.961 . S
C902 H916 0.961 . S
C903 C900 1.539 . S
C903 H917 0.958 . S
C903 H918 0.961 . S
C903 H919 0.960 . S
H904 C888 0.931 . S
H905 C893 0.929 . S
H906 C894 0.960 . S
H907 C894 0.962 . S
H908 C894 0.960 . S
H909 C895 0.961 . S
H910 C895 0.961 . S
H911 C895 0.961 . S
H912 C896 0.931 . S
H913 C901 0.930 . S
H914 C902 0.956 . S
H915 C902 0.961 . S
H916 C902 0.961 . S
H917 C903 0.958 . S
H918 C903 0.961 . S
H919 C903 0.960 . S
C920 C921 1.391 . S
C920 C922 1.394 . S
C920 H936 0.931 . S
C921 C920 1.391 . S
C921 C925 1.376 . S
C922 C920 1.394 . S
C922 C923 1.369 . S
C922 C926 1.531 . S
C923 C922 1.369 . S
C923 C924 1.410 . S
C923 C931 1.503 . S
C924 C923 1.410 . S
C924 C925 1.392 . S
C924 C927 1.511 . S
C925 C921 1.376 . S
C925 C924 1.392 . S
C925 H937 0.929 . S
C926 C922 1.531 . S
C926 H938 0.960 . S
C926 H939 0.962 . S
C926 H940 0.960 . S
C927 C924 1.511 . S
C927 H941 0.961 . S
C927 H942 0.961 . S
C927 H943 0.961 . S
C928 C929 1.370 . S
C928 C930 1.363 . S
C928 H944 0.931 . S
C929 C928 1.370 . S
C929 C933 1.408 . S
C930 C928 1.363 . S
C930 C931 1.370 . S
C930 C934 1.524 . S
C931 C923 1.503 . S
C931 C930 1.370 . S
C931 C932 1.403 . S
C932 C931 1.403 . S
C932 C933 1.404 . S
C932 C935 1.539 . S
C933 C929 1.408 . S
C933 C932 1.404 . S
C933 H945 0.930 . S
C934 C930 1.524 . S
C934 H946 0.956 . S
C934 H947 0.961 . S
C934 H948 0.961 . S
C935 C932 1.539 . S
C935 H949 0.958 . S
C935 H950 0.961 . S
C935 H951 0.960 . S
H936 C920 0.931 . S
H937 C925 0.929 . S
H938 C926 0.960 . S
H939 C926 0.962 . S
H940 C926 0.960 . S
H941 C927 0.961 . S
H942 C927 0.961 . S
H943 C927 0.961 . S
H944 C928 0.931 . S
H945 C933 0.930 . S
H946 C934 0.956 . S
H947 C934 0.961 . S
H948 C934 0.961 . S
H949 C935 0.958 . S
H950 C935 0.961 . S
H951 C935 0.960 . S
C952 C953 1.391 . S
C952 C954 1.394 . S
C952 H968 0.931 . S
C953 C952 1.391 . S
C953 C957 1.376 . S
C954 C952 1.394 . S
C954 C955 1.369 . S
C954 C958 1.531 . S
C955 C954 1.369 . S
C955 C956 1.410 . S
C955 C963 1.503 . S
C956 C955 1.410 . S
C956 C957 1.392 . S
C956 C959 1.511 . S
C957 C953 1.376 . S
C957 C956 1.392 . S
C957 H969 0.929 . S
C958 C954 1.531 . S
C958 H970 0.960 . S
C958 H971 0.962 . S
C958 H972 0.960 . S
C959 C956 1.511 . S
C959 H973 0.961 . S
C959 H974 0.961 . S
C959 H975 0.961 . S
C960 C961 1.370 . S
C960 C962 1.363 . S
C960 H976 0.931 . S
C961 C960 1.370 . S
C961 C965 1.408 . S
C962 C960 1.363 . S
C962 C963 1.370 . S
C962 C966 1.524 . S
C963 C955 1.503 . S
C963 C962 1.370 . S
C963 C964 1.403 . S
C964 C963 1.403 . S
C964 C965 1.404 . S
C964 C967 1.539 . S
C965 C961 1.408 . S
C965 C964 1.404 . S
C965 H977 0.930 . S
C966 C962 1.524 . S
C966 H978 0.956 . S
C966 H979 0.961 . S
C966 H980 0.961 . S
C967 C964 1.539 . S
C967 H981 0.958 . S
C967 H982 0.961 . S
C967 H983 0.960 . S
H968 C952 0.931 . S
H969 C957 0.929 . S
H970 C958 0.960 . S
H971 C958 0.962 . S
H972 C958 0.960 . S
H973 C959 0.961 . S
H974 C959 0.961 . S
H975 C959 0.961 . S
H976 C960 0.931 . S
H977 C965 0.930 . S
H978 C966 0.956 . S
H979 C966 0.961 . S
H980 C966 0.961 . S
H981 C967 0.958 . S
H982 C967 0.961 . S
H983 C967 0.960 . S
C984 C985 1.391 . S
C984 C986 1.394 . S
C984 H1000 0.931 . S
C985 C984 1.391 . S
C985 C989 1.376 . S
C986 C984 1.394 . S
C986 C987 1.369 . S
C986 C990 1.531 . S
C987 C986 1.369 . S
C987 C988 1.410 . S
C987 C995 1.503 . S
C988 C987 1.410 . S
C988 C989 1.392 . S
C988 C991 1.511 . S
C989 C985 1.376 . S
C989 C988 1.392 . S
C989 H1001 0.929 . S
C990 C986 1.531 . S
C990 H1002 0.960 . S
C990 H1003 0.962 . S
C990 H1004 0.960 . S
C991 C988 1.511 . S
C991 H1005 0.961 . S
C991 H1006 0.961 . S
C991 H1007 0.961 . S
C992 C993 1.370 . S
C992 C994 1.363 . S
C992 H1008 0.931 . S
C993 C992 1.370 . S
C993 C997 1.408 . S
C994 C992 1.363 . S
C994 C995 1.370 . S
C994 C998 1.524 . S
C995 C987 1.503 . S
C995 C994 1.370 . S
C995 C996 1.403 . S
C996 C995 1.403 . S
C996 C997 1.404 . S
C996 C999 1.539 . S
C997 C993 1.408 . S
C997 C996 1.404 . S
C997 H1009 0.930 . S
C998 C994 1.524 . S
C998 H1010 0.956 . S
C998 H1011 0.961 . S
C998 H1012 0.961 . S
C999 C996 1.539 . S
C999 H1013 0.958 . S
C999 H1014 0.961 . S
C999 H1015 0.960 . S
H1000 C984 0.931 . S
H1001 C989 0.929 . S
H1002 C990 0.960 . S
H1003 C990 0.962 . S
H1004 C990 0.960 . S
H1005 C991 0.961 . S
H1006 C991 0.961 . S
H1007 C991 0.961 . S
H1008 C992 0.931 . S
H1009 C997 0.930 . S
H1010 C998 0.956 . S
H1011 C998 0.961 . S
H1012 C998 0.961 . S
H1013 C999 0.958 . S
H1014 C999 0.961 . S
H1015 C999 0.960 . S
C1016 C1017 1.391 . S
C1016 C1018 1.394 . S
C1016 H1032 0.931 . S
C1017 C1016 1.391 . S
C1017 C1021 1.376 . S
C1018 C1016 1.394 . S
C1018 C1019 1.369 . S
C1018 C1022 1.531 . S
C1019 C1018 1.369 . S
C1019 C1020 1.410 . S
C1019 C1027 1.503 . S
C1020 C1019 1.410 . S
C1020 C1021 1.392 . S
C1020 C1023 1.511 . S
C1021 C1017 1.376 . S
C1021 C1020 1.392 . S
C1021 H1033 0.929 . S
C1022 C1018 1.531 . S
C1022 H1034 0.960 . S
C1022 H1035 0.962 . S
C1022 H1036 0.960 . S
C1023 C1020 1.511 . S
C1023 H1037 0.961 . S
C1023 H1038 0.961 . S
C1023 H1039 0.961 . S
C1024 C1025 1.370 . S
C1024 C1026 1.363 . S
C1024 H1040 0.931 . S
C1025 C1024 1.370 . S
C1025 C1029 1.408 . S
C1026 C1024 1.363 . S
C1026 C1027 1.370 . S
C1026 C1030 1.524 . S
C1027 C1019 1.503 . S
C1027 C1026 1.370 . S
C1027 C1028 1.403 . S
C1028 C1027 1.403 . S
C1028 C1029 1.404 . S
C1028 C1031 1.539 . S
C1029 C1025 1.408 . S
C1029 C1028 1.404 . S
C1029 H1041 0.930 . S
C1030 C1026 1.524 . S
C1030 H1042 0.956 . S
C1030 H1043 0.961 . S
C1030 H1044 0.961 . S
C1031 C1028 1.539 . S
C1031 H1045 0.958 . S
C1031 H1046 0.961 . S
C1031 H1047 0.960 . S
H1032 C1016 0.931 . S
H1033 C1021 0.929 . S
H1034 C1022 0.960 . S
H1035 C1022 0.962 . S
H1036 C1022 0.960 . S
H1037 C1023 0.961 . S
H1038 C1023 0.961 . S
H1039 C1023 0.961 . S
H1040 C1024 0.931 . S
H1041 C1029 0.930 . S
H1042 C1030 0.956 . S
H1043 C1030 0.961 . S
H1044 C1030 0.961 . S
H1045 C1031 0.958 . S
H1046 C1031 0.961 . S
H1047 C1031 0.960 . S
C1048 C1049 1.391 . S
C1048 C1050 1.394 . S
C1048 H1064 0.931 . S
C1049 C1048 1.391 . S
C1049 C1053 1.376 . S
C1050 C1048 1.394 . S
C1050 C1051 1.369 . S
C1050 C1054 1.531 . S
C1051 C1050 1.369 . S
C1051 C1052 1.410 . S
C1051 C1059 1.503 . S
C1052 C1051 1.410 . S
C1052 C1053 1.392 . S
C1052 C1055 1.511 . S
C1053 C1049 1.376 . S
C1053 C1052 1.392 . S
C1053 H1065 0.929 . S
C1054 C1050 1.531 . S
C1054 H1066 0.960 . S
C1054 H1067 0.962 . S
C1054 H1068 0.960 . S
C1055 C1052 1.511 . S
C1055 H1069 0.961 . S
C1055 H1070 0.961 . S
C1055 H1071 0.961 . S
C1056 C1057 1.370 . S
C1056 C1058 1.363 . S
C1056 H1072 0.931 . S
C1057 C1056 1.370 . S
C1057 C1061 1.408 . S
C1058 C1056 1.363 . S
C1058 C1059 1.370 . S
C1058 C1062 1.524 . S
C1059 C1051 1.503 . S
C1059 C1058 1.370 . S
C1059 C1060 1.403 . S
C1060 C1059 1.403 . S
C1060 C1061 1.404 . S
C1060 C1063 1.539 . S
C1061 C1057 1.408 . S
C1061 C1060 1.404 . S
C1061 H1073 0.930 . S
C1062 C1058 1.524 . S
C1062 H1074 0.956 . S
C1062 H1075 0.961 . S
C1062 H1076 0.961 . S
C1063 C1060 1.539 . S
C1063 H1077 0.958 . S
C1063 H1078 0.961 . S
C1063 H1079 0.960 . S
H1064 C1048 0.931 . S
H1065 C1053 0.929 . S
H1066 C1054 0.960 . S
H1067 C1054 0.962 . S
H1068 C1054 0.960 . S
H1069 C1055 0.961 . S
H1070 C1055 0.961 . S
H1071 C1055 0.961 . S
H1072 C1056 0.931 . S
H1073 C1061 0.930 . S
H1074 C1062 0.956 . S
H1075 C1062 0.961 . S
H1076 C1062 0.961 . S
H1077 C1063 0.958 . S
H1078 C1063 0.961 . S
H1079 C1063 0.960 . S
C1080 C1081 1.391 . S
C1080 C1082 1.394 . S
C1080 H1096 0.931 . S
C1081 C1080 1.391 . S
C1081 C1085 1.376 . S
C1082 C1080 1.394 . S
C1082 C1083 1.369 . S
C1082 C1086 1.531 . S
C1083 C1082 1.369 . S
C1083 C1084 1.410 . S
C1083 C1091 1.503 . S
C1084 C1083 1.410 . S
C1084 C1085 1.392 . S
C1084 C1087 1.511 . S
C1085 C1081 1.376 . S
C1085 C1084 1.392 . S
C1085 H1097 0.929 . S
C1086 C1082 1.531 . S
C1086 H1098 0.960 . S
C1086 H1099 0.962 . S
C1086 H1100 0.960 . S
C1087 C1084 1.511 . S
C1087 H1101 0.961 . S
C1087 H1102 0.961 . S
C1087 H1103 0.961 . S
C1088 C1089 1.370 . S
C1088 C1090 1.363 . S
C1088 H1104 0.931 . S
C1089 C1088 1.370 . S
C1089 C1093 1.408 . S
C1090 C1088 1.363 . S
C1090 C1091 1.370 . S
C1090 C1094 1.524 . S
C1091 C1083 1.503 . S
C1091 C1090 1.370 . S
C1091 C1092 1.403 . S
C1092 C1091 1.403 . S
C1092 C1093 1.404 . S
C1092 C1095 1.539 . S
C1093 C1089 1.408 . S
C1093 C1092 1.404 . S
C1093 H1105 0.930 . S
C1094 C1090 1.524 . S
C1094 H1106 0.956 . S
C1094 H1107 0.961 . S
C1094 H1108 0.961 . S
C1095 C1092 1.539 . S
C1095 H1109 0.958 . S
C1095 H1110 0.961 . S
C1095 H1111 0.960 . S
H1096 C1080 0.931 . S
H1097 C1085 0.929 . S
H1098 C1086 0.960 . S
H1099 C1086 0.962 . S
H1100 C1086 0.960 . S
H1101 C1087 0.961 . S
H1102 C1087 0.961 . S
H1103 C1087 0.961 . S
H1104 C1088 0.931 . S
H1105 C1093 0.930 . S
H1106 C1094 0.956 . S
H1107 C1094 0.961 . S
H1108 C1094 0.961 . S
H1109 C1095 0.958 . S
H1110 C1095 0.961 . S
H1111 C1095 0.960 . S
C1112 C1113 1.391 . S
C1112 C1114 1.394 . S
C1112 H1128 0.931 . S
C1113 C1112 1.391 . S
C1113 C1117 1.376 . S
C1114 C1112 1.394 . S
C1114 C1115 1.369 . S
C1114 C1118 1.531 . S
C1115 C1114 1.369 . S
C1115 C1116 1.410 . S
C1115 C1123 1.503 . S
C1116 C1115 1.410 . S
C1116 C1117 1.392 . S
C1116 C1119 1.511 . S
C1117 C1113 1.376 . S
C1117 C1116 1.392 . S
C1117 H1129 0.929 . S
C1118 C1114 1.531 . S
C1118 H1130 0.960 . S
C1118 H1131 0.962 . S
C1118 H1132 0.960 . S
C1119 C1116 1.511 . S
C1119 H1133 0.961 . S
C1119 H1134 0.961 . S
C1119 H1135 0.961 . S
C1120 C1121 1.370 . S
C1120 C1122 1.363 . S
C1120 H1136 0.931 . S
C1121 C1120 1.370 . S
C1121 C1125 1.408 . S
C1122 C1120 1.363 . S
C1122 C1123 1.370 . S
C1122 C1126 1.524 . S
C1123 C1115 1.503 . S
C1123 C1122 1.370 . S
C1123 C1124 1.403 . S
C1124 C1123 1.403 . S
C1124 C1125 1.404 . S
C1124 C1127 1.539 . S
C1125 C1121 1.408 . S
C1125 C1124 1.404 . S
C1125 H1137 0.930 . S
C1126 C1122 1.524 . S
C1126 H1138 0.956 . S
C1126 H1139 0.961 . S
C1126 H1140 0.961 . S
C1127 C1124 1.539 . S
C1127 H1141 0.958 . S
C1127 H1142 0.961 . S
C1127 H1143 0.960 . S
H1128 C1112 0.931 . S
H1129 C1117 0.929 . S
H1130 C1118 0.960 . S
H1131 C1118 0.962 . S
H1132 C1118 0.960 . S
H1133 C1119 0.961 . S
H1134 C1119 0.961 . S
H1135 C1119 0.961 . S
H1136 C1120 0.931 . S
H1137 C1125 0.930 . S
H1138 C1126 0.956 . S
H1139 C1126 0.961 . S
H1140 C1126 0.961 . S
H1141 C1127 0.958 . S
H1142 C1127 0.961 . S
H1143 C1127 0.960 . S
C1144 C1145 1.391 . S
C1144 C1146 1.394 . S
C1144 H1160 0.931 . S
C1145 C1144 1.391 . S
C1145 C1149 1.376 . S
C1146 C1144 1.394 . S
C1146 C1147 1.369 . S
C1146 C1150 1.531 . S
C1147 C1146 1.369 . S
C1147 C1148 1.410 . S
C1147 C1155 1.503 . S
C1148 C1147 1.410 . S
C1148 C1149 1.392 . S
C1148 C1151 1.511 . S
C1149 C1145 1.376 . S
C1149 C1148 1.392 . S
C1149 H1161 0.929 . S
C1150 C1146 1.531 . S
C1150 H1162 0.960 . S
C1150 H1163 0.962 . S
C1150 H1164 0.960 . S
C1151 C1148 1.511 . S
C1151 H1165 0.961 . S
C1151 H1166 0.961 . S
C1151 H1167 0.961 . S
C1152 C1153 1.370 . S
C1152 C1154 1.363 . S
C1152 H1168 0.931 . S
C1153 C1152 1.370 . S
C1153 C1157 1.408 . S
C1154 C1152 1.363 . S
C1154 C1155 1.370 . S
C1154 C1158 1.524 . S
C1155 C1147 1.503 . S
C1155 C1154 1.370 . S
C1155 C1156 1.403 . S
C1156 C1155 1.403 . S
C1156 C1157 1.404 . S
C1156 C1159 1.539 . S
C1157 C1153 1.408 . S
C1157 C1156 1.404 . S
C1157 H1169 0.930 . S
C1158 C1154 1.524 . S
C1158 H1170 0.956 . S
C1158 H1171 0.961 . S
C1158 H1172 0.961 . S
C1159 C1156 1.539 . S
C1159 H1173 0.958 . S
C1159 H1174 0.961 . S
C1159 H1175 0.960 . S
H1160 C1144 0.931 . S
H1161 C1149 0.929 . S
H1162 C1150 0.960 . S
H1163 C1150 0.962 . S
H1164 C1150 0.960 . S
H1165 C1151 0.961 . S
H1166 C1151 0.961 . S
H1167 C1151 0.961 . S
H1168 C1152 0.931 . S
H1169 C1157 0.930 . S
H1170 C1158 0.956 . S
H1171 C1158 0.961 . S
H1172 C1158 0.961 . S
H1173 C1159 0.958 . S
H1174 C1159 0.961 . S
H1175 C1159 0.960 . S
C409 C15 1.534 . S
C417 C346 1.520 . S
C449 C324 1.547 . S
C441 C55 1.602 . S
C481 C350 1.510 . S
C473 C95 1.546 . S
C513 C328 1.553 . S
C505 C135 1.593 . S
C545 C390 1.506 . S
C537 C175 1.553 . S
C577 C368 1.550 . S
C569 C215 1.599 . S
C601 C255 1.547 . S
C609 C394 1.508 . S
C641 C372 1.568 . S
C633 C295 1.574 . S
C665 C2 1.556 . S
C673 C395 1.558 . S
C705 C373 1.642 . S
C697 C61 1.579 . S
C729 C82 1.488 . S
C737 C392 1.559 . S
C761 C141 1.627 . S
C769 C370 1.636 . S
C801 C351 1.568 . S
C793 C162 1.577 . S
C825 C221 1.597 . S
C833 C329 1.641 . S
C865 C348 1.563 . S
C857 C242 1.505 . S
C897 C326 1.644 . S
C889 C301 1.638 . S
C929 C369 1.569 . S
C921 C21 1.552 . S
C961 C391 1.569 . S
C953 C42 1.502 . S
C985 C101 1.514 . S
C993 C371 1.571 . S
C1025 C393 1.572 . S
C1017 C122 1.577 . S
C1057 C325 1.579 . S
C1049 C181 1.581 . S
C1081 C202 1.520 . S
C1089 C347 1.559 . S
C1113 C261 1.530 . S
C1121 C327 1.578 . S
C1145 C282 1.574 . S
C1153 C349 1.568 . S
