# Generated by pormake.
# Topology gar, (4,6)-cn, num edge types: 1
# Building blocks:
#     Node 0, Type 0, BuildingBlock: GALJAG_clean_sbu_0, # of connection points: 4
#     Node 1, Type 0, BuildingBlock: GALJAG_clean_sbu_0, # of connection points: 4
#     Node 2, Type 0, BuildingBlock: GALJAG_clean_sbu_0, # of connection points: 4
#     Node 3, Type 0, BuildingBlock: GALJAG_clean_sbu_0, # of connection points: 4
#     Node 4, Type 0, BuildingBlock: GALJAG_clean_sbu_0, # of connection points: 4
#     Node 5, Type 0, BuildingBlock: GALJAG_clean_sbu_0, # of connection points: 4
#     Node 6, Type 0, BuildingBlock: GALJAG_clean_sbu_0, # of connection points: 4
#     Node 7, Type 0, BuildingBlock: GALJAG_clean_sbu_0, # of connection points: 4
#     Node 8, Type 0, BuildingBlock: GALJAG_clean_sbu_0, # of connection points: 4
#     Node 9, Type 0, BuildingBlock: GALJAG_clean_sbu_0, # of connection points: 4
#     Node 10, Type 0, BuildingBlock: GALJAG_clean_sbu_0, # of connection points: 4
#     Node 11, Type 0, BuildingBlock: GALJAG_clean_sbu_0, # of connection points: 4
#     Node 12, Type 0, BuildingBlock: GALJAG_clean_sbu_0, # of connection points: 4
#     Node 13, Type 0, BuildingBlock: GALJAG_clean_sbu_0, # of connection points: 4
#     Node 14, Type 0, BuildingBlock: GALJAG_clean_sbu_0, # of connection points: 4
#     Node 15, Type 0, BuildingBlock: GALJAG_clean_sbu_0, # of connection points: 4
#     Node 16, Type 0, BuildingBlock: GALJAG_clean_sbu_0, # of connection points: 4
#     Node 17, Type 0, BuildingBlock: GALJAG_clean_sbu_0, # of connection points: 4
#     Node 18, Type 0, BuildingBlock: GALJAG_clean_sbu_0, # of connection points: 4
#     Node 19, Type 0, BuildingBlock: GALJAG_clean_sbu_0, # of connection points: 4
#     Node 20, Type 0, BuildingBlock: GALJAG_clean_sbu_0, # of connection points: 4
#     Node 21, Type 0, BuildingBlock: GALJAG_clean_sbu_0, # of connection points: 4
#     Node 22, Type 0, BuildingBlock: GALJAG_clean_sbu_0, # of connection points: 4
#     Node 23, Type 0, BuildingBlock: GALJAG_clean_sbu_0, # of connection points: 4
#     Node 24, Type 1, BuildingBlock: GEDQOX_clean_sbu_0, # of connection points: 6
#     Node 25, Type 1, BuildingBlock: GEDQOX_clean_sbu_0, # of connection points: 6
#     Node 26, Type 1, BuildingBlock: GEDQOX_clean_sbu_0, # of connection points: 6
#     Node 27, Type 1, BuildingBlock: GEDQOX_clean_sbu_0, # of connection points: 6
#     Node 28, Type 1, BuildingBlock: GEDQOX_clean_sbu_0, # of connection points: 6
#     Node 29, Type 1, BuildingBlock: GEDQOX_clean_sbu_0, # of connection points: 6
#     Node 30, Type 1, BuildingBlock: GEDQOX_clean_sbu_0, # of connection points: 6
#     Node 31, Type 1, BuildingBlock: GEDQOX_clean_sbu_0, # of connection points: 6
#     Node 32, Type 1, BuildingBlock: GEDQOX_clean_sbu_0, # of connection points: 6
#     Node 33, Type 1, BuildingBlock: GEDQOX_clean_sbu_0, # of connection points: 6
#     Node 34, Type 1, BuildingBlock: GEDQOX_clean_sbu_0, # of connection points: 6
#     Node 35, Type 1, BuildingBlock: GEDQOX_clean_sbu_0, # of connection points: 6
#     Node 36, Type 1, BuildingBlock: GEDQOX_clean_sbu_0, # of connection points: 6
#     Node 37, Type 1, BuildingBlock: GEDQOX_clean_sbu_0, # of connection points: 6
#     Node 38, Type 1, BuildingBlock: GEDQOX_clean_sbu_0, # of connection points: 6
#     Node 39, Type 1, BuildingBlock: GEDQOX_clean_sbu_0, # of connection points: 6
#     Edge 40, Type (0, 1), BuildingBlock: UVAHIK_clean_linker_0, # of connection points: 2
#     Edge 41, Type (0, 1), BuildingBlock: UVAHIK_clean_linker_0, # of connection points: 2
#     Edge 42, Type (0, 1), BuildingBlock: UVAHIK_clean_linker_0, # of connection points: 2
#     Edge 43, Type (0, 1), BuildingBlock: UVAHIK_clean_linker_0, # of connection points: 2
#     Edge 44, Type (0, 1), BuildingBlock: UVAHIK_clean_linker_0, # of connection points: 2
#     Edge 45, Type (0, 1), BuildingBlock: UVAHIK_clean_linker_0, # of connection points: 2
#     Edge 46, Type (0, 1), BuildingBlock: UVAHIK_clean_linker_0, # of connection points: 2
#     Edge 47, Type (0, 1), BuildingBlock: UVAHIK_clean_linker_0, # of connection points: 2
#     Edge 48, Type (0, 1), BuildingBlock: UVAHIK_clean_linker_0, # of connection points: 2
#     Edge 49, Type (0, 1), BuildingBlock: UVAHIK_clean_linker_0, # of connection points: 2
#     Edge 50, Type (0, 1), BuildingBlock: UVAHIK_clean_linker_0, # of connection points: 2
#     Edge 51, Type (0, 1), BuildingBlock: UVAHIK_clean_linker_0, # of connection points: 2
#     Edge 52, Type (0, 1), BuildingBlock: UVAHIK_clean_linker_0, # of connection points: 2
#     Edge 53, Type (0, 1), BuildingBlock: UVAHIK_clean_linker_0, # of connection points: 2
#     Edge 54, Type (0, 1), BuildingBlock: UVAHIK_clean_linker_0, # of connection points: 2
#     Edge 55, Type (0, 1), BuildingBlock: UVAHIK_clean_linker_0, # of connection points: 2
#     Edge 56, Type (0, 1), BuildingBlock: UVAHIK_clean_linker_0, # of connection points: 2
#     Edge 57, Type (0, 1), BuildingBlock: UVAHIK_clean_linker_0, # of connection points: 2
#     Edge 58, Type (0, 1), BuildingBlock: UVAHIK_clean_linker_0, # of connection points: 2
#     Edge 59, Type (0, 1), BuildingBlock: UVAHIK_clean_linker_0, # of connection points: 2
#     Edge 60, Type (0, 1), BuildingBlock: UVAHIK_clean_linker_0, # of connection points: 2
#     Edge 61, Type (0, 1), BuildingBlock: UVAHIK_clean_linker_0, # of connection points: 2
#     Edge 62, Type (0, 1), BuildingBlock: UVAHIK_clean_linker_0, # of connection points: 2
#     Edge 63, Type (0, 1), BuildingBlock: UVAHIK_clean_linker_0, # of connection points: 2
#     Edge 64, Type (0, 1), BuildingBlock: UVAHIK_clean_linker_0, # of connection points: 2
#     Edge 65, Type (0, 1), BuildingBlock: UVAHIK_clean_linker_0, # of connection points: 2
#     Edge 66, Type (0, 1), BuildingBlock: UVAHIK_clean_linker_0, # of connection points: 2
#     Edge 67, Type (0, 1), BuildingBlock: UVAHIK_clean_linker_0, # of connection points: 2
#     Edge 68, Type (0, 1), BuildingBlock: UVAHIK_clean_linker_0, # of connection points: 2
#     Edge 69, Type (0, 1), BuildingBlock: UVAHIK_clean_linker_0, # of connection points: 2
#     Edge 70, Type (0, 1), BuildingBlock: UVAHIK_clean_linker_0, # of connection points: 2
#     Edge 71, Type (0, 1), BuildingBlock: UVAHIK_clean_linker_0, # of connection points: 2
#     Edge 72, Type (0, 1), BuildingBlock: UVAHIK_clean_linker_0, # of connection points: 2
#     Edge 73, Type (0, 1), BuildingBlock: UVAHIK_clean_linker_0, # of connection points: 2
#     Edge 74, Type (0, 1), BuildingBlock: UVAHIK_clean_linker_0, # of connection points: 2
#     Edge 75, Type (0, 1), BuildingBlock: UVAHIK_clean_linker_0, # of connection points: 2
#     Edge 76, Type (0, 1), BuildingBlock: UVAHIK_clean_linker_0, # of connection points: 2
#     Edge 77, Type (0, 1), BuildingBlock: UVAHIK_clean_linker_0, # of connection points: 2
#     Edge 78, Type (0, 1), BuildingBlock: UVAHIK_clean_linker_0, # of connection points: 2
#     Edge 79, Type (0, 1), BuildingBlock: UVAHIK_clean_linker_0, # of connection points: 2
#     Edge 80, Type (0, 1), BuildingBlock: UVAHIK_clean_linker_0, # of connection points: 2
#     Edge 81, Type (0, 1), BuildingBlock: UVAHIK_clean_linker_0, # of connection points: 2
#     Edge 82, Type (0, 1), BuildingBlock: UVAHIK_clean_linker_0, # of connection points: 2
#     Edge 83, Type (0, 1), BuildingBlock: UVAHIK_clean_linker_0, # of connection points: 2
#     Edge 84, Type (0, 1), BuildingBlock: UVAHIK_clean_linker_0, # of connection points: 2
#     Edge 85, Type (0, 1), BuildingBlock: UVAHIK_clean_linker_0, # of connection points: 2
#     Edge 86, Type (0, 1), BuildingBlock: UVAHIK_clean_linker_0, # of connection points: 2
#     Edge 87, Type (0, 1), BuildingBlock: UVAHIK_clean_linker_0, # of connection points: 2
#     Edge 88, Type (0, 1), BuildingBlock: UVAHIK_clean_linker_0, # of connection points: 2
#     Edge 89, Type (0, 1), BuildingBlock: UVAHIK_clean_linker_0, # of connection points: 2
#     Edge 90, Type (0, 1), BuildingBlock: UVAHIK_clean_linker_0, # of connection points: 2
#     Edge 91, Type (0, 1), BuildingBlock: UVAHIK_clean_linker_0, # of connection points: 2
#     Edge 92, Type (0, 1), BuildingBlock: UVAHIK_clean_linker_0, # of connection points: 2
#     Edge 93, Type (0, 1), BuildingBlock: UVAHIK_clean_linker_0, # of connection points: 2
#     Edge 94, Type (0, 1), BuildingBlock: UVAHIK_clean_linker_0, # of connection points: 2
#     Edge 95, Type (0, 1), BuildingBlock: UVAHIK_clean_linker_0, # of connection points: 2
#     Edge 96, Type (0, 1), BuildingBlock: UVAHIK_clean_linker_0, # of connection points: 2
#     Edge 97, Type (0, 1), BuildingBlock: UVAHIK_clean_linker_0, # of connection points: 2
#     Edge 98, Type (0, 1), BuildingBlock: UVAHIK_clean_linker_0, # of connection points: 2
#     Edge 99, Type (0, 1), BuildingBlock: UVAHIK_clean_linker_0, # of connection points: 2
#     Edge 100, Type (0, 1), BuildingBlock: UVAHIK_clean_linker_0, # of connection points: 2
#     Edge 101, Type (0, 1), BuildingBlock: UVAHIK_clean_linker_0, # of connection points: 2
#     Edge 102, Type (0, 1), BuildingBlock: UVAHIK_clean_linker_0, # of connection points: 2
#     Edge 103, Type (0, 1), BuildingBlock: UVAHIK_clean_linker_0, # of connection points: 2
#     Edge 104, Type (0, 1), BuildingBlock: UVAHIK_clean_linker_0, # of connection points: 2
#     Edge 105, Type (0, 1), BuildingBlock: UVAHIK_clean_linker_0, # of connection points: 2
#     Edge 106, Type (0, 1), BuildingBlock: UVAHIK_clean_linker_0, # of connection points: 2
#     Edge 107, Type (0, 1), BuildingBlock: UVAHIK_clean_linker_0, # of connection points: 2
#     Edge 108, Type (0, 1), BuildingBlock: UVAHIK_clean_linker_0, # of connection points: 2
#     Edge 109, Type (0, 1), BuildingBlock: UVAHIK_clean_linker_0, # of connection points: 2
#     Edge 110, Type (0, 1), BuildingBlock: UVAHIK_clean_linker_0, # of connection points: 2
#     Edge 111, Type (0, 1), BuildingBlock: UVAHIK_clean_linker_0, # of connection points: 2
#     Edge 112, Type (0, 1), BuildingBlock: UVAHIK_clean_linker_0, # of connection points: 2
#     Edge 113, Type (0, 1), BuildingBlock: UVAHIK_clean_linker_0, # of connection points: 2
#     Edge 114, Type (0, 1), BuildingBlock: UVAHIK_clean_linker_0, # of connection points: 2
#     Edge 115, Type (0, 1), BuildingBlock: UVAHIK_clean_linker_0, # of connection points: 2
#     Edge 116, Type (0, 1), BuildingBlock: UVAHIK_clean_linker_0, # of connection points: 2
#     Edge 117, Type (0, 1), BuildingBlock: UVAHIK_clean_linker_0, # of connection points: 2
#     Edge 118, Type (0, 1), BuildingBlock: UVAHIK_clean_linker_0, # of connection points: 2
#     Edge 119, Type (0, 1), BuildingBlock: UVAHIK_clean_linker_0, # of connection points: 2
#     Edge 120, Type (0, 1), BuildingBlock: UVAHIK_clean_linker_0, # of connection points: 2
#     Edge 121, Type (0, 1), BuildingBlock: UVAHIK_clean_linker_0, # of connection points: 2
#     Edge 122, Type (0, 1), BuildingBlock: UVAHIK_clean_linker_0, # of connection points: 2
#     Edge 123, Type (0, 1), BuildingBlock: UVAHIK_clean_linker_0, # of connection points: 2
#     Edge 124, Type (0, 1), BuildingBlock: UVAHIK_clean_linker_0, # of connection points: 2
#     Edge 125, Type (0, 1), BuildingBlock: UVAHIK_clean_linker_0, # of connection points: 2
#     Edge 126, Type (0, 1), BuildingBlock: UVAHIK_clean_linker_0, # of connection points: 2
#     Edge 127, Type (0, 1), BuildingBlock: UVAHIK_clean_linker_0, # of connection points: 2
#     Edge 128, Type (0, 1), BuildingBlock: UVAHIK_clean_linker_0, # of connection points: 2
#     Edge 129, Type (0, 1), BuildingBlock: UVAHIK_clean_linker_0, # of connection points: 2
#     Edge 130, Type (0, 1), BuildingBlock: UVAHIK_clean_linker_0, # of connection points: 2
#     Edge 131, Type (0, 1), BuildingBlock: UVAHIK_clean_linker_0, # of connection points: 2
#     Edge 132, Type (0, 1), BuildingBlock: UVAHIK_clean_linker_0, # of connection points: 2
#     Edge 133, Type (0, 1), BuildingBlock: UVAHIK_clean_linker_0, # of connection points: 2
#     Edge 134, Type (0, 1), BuildingBlock: UVAHIK_clean_linker_0, # of connection points: 2
#     Edge 135, Type (0, 1), BuildingBlock: UVAHIK_clean_linker_0, # of connection points: 2
# Relax obj value: 0.244
# Max RMSD: 0.355
# Mean RMSD: 0.179
data_MOF--net-gar--node1-GALJAG_clean_sbu_0--node2-GEDQOX_clean_sbu_0--edge1-UVAHIK_clean_linker_0
_symmetry_space_group_name_H-M    P1
_symmetry_Int_Tables_number       1
_symmetry_cell_setting            triclinic
loop_
_symmetry_equiv_pos_as_xyz
'x, y, z'
_cell_length_a     77.217001
_cell_length_b     74.172168
_cell_length_c     68.545123
_cell_angle_alpha  96.763107
_cell_angle_beta   96.192148
_cell_angle_gamma 99.34664
loop_
_atom_site_label
_atom_site_type_symbol
_atom_site_fract_x
_atom_site_fract_y
_atom_site_fract_z
_atom_type_partial_charge
In0 In 0.0859 0.34633 0.45806 0.0
O1 O 0.09032 0.34699 0.4261 0.0
O2 O 0.11078 0.33947 0.44491 0.0
C3 C 0.05317 0.35047 0.44335 0.0
C4 C 0.08295 0.31434 0.47325 0.0
C5 C 0.09572 0.37585 0.48646 0.0
O6 O 0.06666 0.36261 0.44342 0.0
O7 O 0.05612 0.33664 0.45135 0.0
O8 O 0.08504 0.3617 0.48858 0.0
O9 O 0.10193 0.37502 0.47016 0.0
C10 C 0.10512 0.342 0.42763 0.0
O11 O 0.09364 0.3286 0.48159 0.0
O12 O 0.07458 0.31611 0.45695 0.0
In13 In 0.98577 0.78286 0.66162 0.0
O14 O 0.98065 0.79734 0.6345 0.0
O15 O 0.99143 0.8139 0.66189 0.0
C16 C 0.98436 0.75347 0.63389 0.0
C17 C 0.01606 0.78724 0.68675 0.0
C18 C 0.9598 0.77988 0.68491 0.0
O19 O 0.97052 0.75855 0.63911 0.0
O20 O 0.99862 0.76292 0.64288 0.0
O21 O 0.96897 0.76748 0.68176 0.0
O22 O 0.96303 0.79333 0.67536 0.0
C23 C 0.98677 0.81329 0.64358 0.0
O24 O 1.00132 0.77989 0.69101 0.0
O25 O 0.01559 0.79205 0.66971 0.0
In26 In 0.58098 0.84484 0.94926 0.0
O27 O 0.59476 0.82514 0.93105 0.0
O28 O 0.60449 0.85368 0.93256 0.0
C29 C 0.55259 0.84007 0.92135 0.0
C30 C 0.57238 0.82291 0.97659 0.0
C31 C 0.58789 0.87776 0.97256 0.0
O32 O 0.563 0.85528 0.92616 0.0
O33 O 0.55635 0.82735 0.93082 0.0
O34 O 0.59595 0.86478 0.97627 0.0
O35 O 0.57692 0.87421 0.95703 0.0
C36 C 0.60531 0.83751 0.92518 0.0
O37 O 0.56203 0.8326 0.96924 0.0
O38 O 0.58733 0.8245 0.97038 0.0
In39 In 0.48612 0.28081 0.16068 0.0
O40 O 0.49456 0.26424 0.13459 0.0
O41 O 0.46873 0.2554 0.14172 0.0
C42 C 0.49204 0.312 0.14382 0.0
C43 C 0.46194 0.27844 0.18617 0.0
C44 C 0.5154 0.28012 0.18546 0.0
O45 O 0.47822 0.30002 0.13853 0.0
O46 O 0.50226 0.3085 0.1579 0.0
O47 O 0.50555 0.29191 0.18833 0.0
O48 O 0.51055 0.26862 0.16995 0.0
C49 C 0.48029 0.25279 0.13051 0.0
O50 O 0.47275 0.26751 0.18448 0.0
O51 O 0.46256 0.2901 0.17411 0.0
In52 In 0.02911 0.79854 0.22771 0.0
O53 O 0.03432 0.78218 0.19916 0.0
O54 O 0.02324 0.76677 0.22034 0.0
C55 C 0.02743 0.82711 0.20654 0.0
C56 C 0.99698 0.7974 0.24254 0.0
C57 C 0.06265 0.80322 0.24884 0.0
O58 O 0.02797 0.81094 0.19878 0.0
O59 O 0.02793 0.82906 0.22519 0.0
O60 O 0.05763 0.81457 0.23815 0.0
O61 O 0.05044 0.78999 0.2501 0.0
C62 C 0.02874 0.76646 0.20362 0.0
O63 O 1.01167 0.80219 0.25357 0.0
O64 O 0.99864 0.79287 0.22464 0.0
In65 In 0.54224 0.82674 0.3849 0.0
O66 O 0.56006 0.81552 0.36229 0.0
O67 O 0.57062 0.84032 0.38099 0.0
C68 C 0.5076 0.82055 0.36658 0.0
C69 C 0.54563 0.80005 0.40837 0.0
C70 C 0.5426 0.86009 0.40619 0.0
O71 O 0.52036 0.82893 0.35915 0.0
O72 O 0.51241 0.81468 0.38244 0.0
O73 O 0.54589 0.84623 0.414 0.0
O74 O 0.53927 0.85725 0.38751 0.0
C75 C 0.57337 0.82814 0.36787 0.0
O76 O 0.54727 0.81692 0.41505 0.0
O77 O 0.54212 0.79649 0.38972 0.0
In78 In 0.52871 0.29875 0.72841 0.0
O79 O 0.53428 0.28225 0.70014 0.0
O80 O 0.52294 0.26699 0.72131 0.0
C81 C 0.52655 0.32705 0.70699 0.0
C82 C 0.4967 0.29772 0.74347 0.0
C83 C 0.56237 0.30348 0.74917 0.0
O84 O 0.52543 0.31053 0.69926 0.0
O85 O 0.52899 0.32949 0.72574 0.0
O86 O 0.55741 0.3145 0.738 0.0
O87 O 0.55007 0.29056 0.75104 0.0
C88 C 0.52857 0.26657 0.70465 0.0
O89 O 0.51142 0.30271 0.75442 0.0
O90 O 0.49831 0.29299 0.72561 0.0
In91 In 0.0408 0.32516 0.88507 0.0
O92 O 0.04121 0.31372 0.91457 0.0
O93 O 0.04271 0.29509 0.88899 0.0
C94 C 0.04106 0.35852 0.90657 0.0
C95 C 0.07323 0.32609 0.87114 0.0
C96 C 1.00718 0.31947 0.86393 0.0
O97 O 0.03641 0.34337 0.91281 0.0
O98 O 0.04576 0.35695 0.88947 0.0
O99 O 0.01959 0.33189 0.86121 0.0
O100 O 1.01203 0.30923 0.87609 0.0
C101 C 0.0425 0.29753 0.90755 0.0
O102 O 0.05873 0.32076 0.85985 0.0
O103 O 0.07122 0.3311 0.88883 0.0
In104 In 0.43186 0.11953 0.30208 0.0
O105 O 0.45487 0.12525 0.28348 0.0
O106 O 0.43255 0.10518 0.2709 0.0
C107 C 0.45299 0.12258 0.3371 0.0
C108 C 0.41457 0.14849 0.29943 0.0
C109 C 0.40927 0.08805 0.30422 0.0
O110 O 0.45565 0.11346 0.3213 0.0
O111 O 0.44001 0.13094 0.33513 0.0
O112 O 0.42374 0.09313 0.31538 0.0
O113 O 0.40619 0.09876 0.29179 0.0
C114 C 0.44762 0.11355 0.26883 0.0
O115 O 0.40728 0.13281 0.30244 0.0
O116 O 0.43096 0.14999 0.29837 0.0
In117 In 0.26695 0.14312 0.495 0.0
O118 O 0.26819 0.17213 0.51081 0.0
O119 O 0.28698 0.15668 0.52187 0.0
C120 C 0.26754 0.15777 0.46079 0.0
C121 C 0.28464 0.11474 0.49786 0.0
C122 C 0.23338 0.13148 0.50124 0.0
O123 O 0.28098 0.15973 0.47355 0.0
O124 O 0.25399 0.14766 0.46482 0.0
O125 O 0.23992 0.12418 0.48681 0.0
O126 O 0.24378 0.14442 0.51234 0.0
C127 C 0.28111 0.1716 0.52352 0.0
O128 O 0.27303 0.118 0.50869 0.0
O129 O 0.28701 0.12548 0.48505 0.0
In130 In 0.17347 0.05088 0.82647 0.0
O131 O 0.14809 0.04223 0.80333 0.0
O132 O 0.17106 0.05545 0.79328 0.0
C133 C 0.15416 0.05157 0.85924 0.0
C134 C 0.18969 0.0189 0.82449 0.0
C135 C 0.19152 0.08733 0.82767 0.0
O136 O 0.14734 0.04853 0.84135 0.0
O137 O 0.1709 0.05417 0.86097 0.0
O138 O 0.19928 0.07353 0.82758 0.0
O139 O 0.17506 0.08288 0.82793 0.0
C140 C 0.15484 0.04854 0.789 0.0
O141 O 0.19758 0.0348 0.83244 0.0
O142 O 0.17387 0.01907 0.81774 0.0
In143 In 0.2271 0.9173 0.06147 0.0
O144 O 0.22648 0.89158 0.0773 0.0
O145 O 0.23126 0.91775 0.09503 0.0
C146 C 0.22508 0.89916 0.02409 0.0
C147 C 0.20031 0.9368 0.06513 0.0
C148 C 0.26074 0.93526 0.06421 0.0
O149 O 0.21968 0.89114 0.03813 0.0
O150 O 0.23034 0.91626 0.02867 0.0
O151 O 0.24758 0.94245 0.05895 0.0
O152 O 0.25694 0.91903 0.06819 0.0
C153 C 0.22997 0.90053 0.09451 0.0
O154 O 0.21645 0.94391 0.06824 0.0
O155 O 0.19735 0.91955 0.05992 0.0
In156 In 0.29649 0.48423 0.11387 0.0
O157 O 0.30971 0.47228 0.13954 0.0
O158 O 0.28166 0.46901 0.13584 0.0
C159 C 0.28063 0.45916 0.08248 0.0
C160 C 0.27983 0.51364 0.11337 0.0
C161 C 0.33141 0.49437 0.11261 0.0
O162 O 0.27746 0.45783 0.09992 0.0
O163 O 0.29167 0.47319 0.0808 0.0
O164 O 0.32267 0.50466 0.12203 0.0
O165 O 0.32256 0.47908 0.10421 0.0
C166 C 0.2954 0.46551 0.1453 0.0
O167 O 0.28711 0.50741 0.09911 0.0
O168 O 0.28118 0.50528 0.1283 0.0
In169 In 0.84186 0.20957 0.05759 0.0
O170 O 0.85364 0.18339 0.05672 0.0
O171 O 0.87163 0.20826 0.05697 0.0
C172 C 0.81203 0.18474 0.05675 0.0
C173 C 0.83973 0.23279 0.09086 0.0
C174 C 0.84031 0.22556 0.02393 0.0
O175 O 0.82488 0.1868 0.07032 0.0
O176 O 0.81418 0.1953 0.04374 0.0
O177 O 0.84442 0.23492 0.0409 0.0
O178 O 0.83773 0.20836 0.02401 0.0
C179 C 0.86939 0.1909 0.05623 0.0
O180 O 0.82818 0.22939 0.07586 0.0
O181 O 0.85291 0.2249 0.08904 0.0
In182 In 0.13038 0.49968 0.2989 0.0
O183 O 0.1525 0.4866 0.31308 0.0
O184 O 0.13107 0.46857 0.29513 0.0
C185 C 0.15266 0.53061 0.29474 0.0
C186 C 0.1107 0.49646 0.26294 0.0
C187 C 0.11572 0.50718 0.33249 0.0
O188 O 0.15733 0.51501 0.29345 0.0
O189 O 0.13687 0.53047 0.29797 0.0
O190 O 0.10901 0.49348 0.31962 0.0
O191 O 0.1296 0.5166 0.32842 0.0
C192 C 0.14578 0.47023 0.30581 0.0
O193 O 0.10463 0.50051 0.27896 0.0
O194 O 0.12624 0.49316 0.26517 0.0
In195 In 0.7974 0.97591 0.61004 0.0
O196 O 0.8026 0.94946 0.62136 0.0
O197 O 0.79823 0.97116 0.64243 0.0
C198 C 0.77924 0.95254 0.57859 0.0
C199 C 0.77808 1.00338 0.61205 0.0
C200 C 0.83177 0.98874 0.60764 0.0
O201 O 0.77478 0.95264 0.59575 0.0
O202 O 0.79262 0.96437 0.5773 0.0
O203 O 0.82111 0.97985 0.59319 0.0
O204 O 0.82512 0.99136 0.62356 0.0
C205 C 0.80121 0.95489 0.63917 0.0
O206 O 0.79163 1.00399 0.6033 0.0
O207 O 0.77453 0.98917 0.62029 0.0
In208 In 0.89757 0.0781 0.29471 0.0
O209 O 0.92268 0.08726 0.27902 0.0
O210 O 0.90125 0.06999 0.26112 0.0
C211 C 0.91667 0.07946 0.33164 0.0
C212 C 0.88104 0.10989 0.29654 0.0
C213 C 0.87963 0.04169 0.29422 0.0
O214 O 0.92384 0.08169 0.31615 0.0
O215 O 0.89997 0.07701 0.32866 0.0
O216 O 0.87169 0.05531 0.29324 0.0
O217 O 0.89615 0.04634 0.29478 0.0
C218 C 0.91691 0.0786 0.26198 0.0
O219 O 0.875 0.09514 0.28484 0.0
O220 O 0.89509 0.10862 0.30711 0.0
In221 In 0.34169 0.70919 0.55857 0.0
O222 O 0.35287 0.68262 0.55598 0.0
O223 O 0.37134 0.70737 0.55772 0.0
C224 C 0.31171 0.6855 0.56063 0.0
C225 C 0.34052 0.73346 0.59129 0.0
C226 C 0.33918 0.72441 0.52449 0.0
O227 O 0.3136 0.69481 0.54651 0.0
O228 O 0.32496 0.68814 0.57378 0.0
O229 O 0.34536 0.73392 0.54103 0.0
O230 O 0.33499 0.70738 0.52515 0.0
C231 C 0.36874 0.68995 0.55596 0.0
O232 O 0.32978 0.73136 0.57566 0.0
O233 O 0.35254 0.72379 0.59032 0.0
In234 In 0.3967 0.57706 0.79376 0.0
O235 O 0.37411 0.5941 0.78405 0.0
O236 O 0.39439 0.6076 0.80611 0.0
C237 C 0.37867 0.54069 0.79331 0.0
C238 C 0.41603 0.57759 0.76103 0.0
C239 C 0.41583 0.57869 0.83072 0.0
O240 O 0.37077 0.55429 0.79204 0.0
O241 O 0.39523 0.54532 0.7942 0.0
O242 O 0.42297 0.58053 0.81514 0.0
O243 O 0.39913 0.57642 0.8278 0.0
C244 C 0.38026 0.60886 0.79568 0.0
O245 O 0.42181 0.5862 0.77808 0.0
O246 O 0.40036 0.569 0.76016 0.0
In247 In 0.63393 1.00156 0.80028 0.0
O248 O 0.65543 0.98746 0.81399 0.0
O249 O 0.63354 0.97018 0.79607 0.0
C250 C 0.65608 0.0325 0.79581 0.0
C251 C 0.61465 0.99809 0.76414 0.0
C252 C 0.61923 1.00894 0.83386 0.0
O253 O 0.66118 0.01725 0.79659 0.0
O254 O 0.63989 0.03212 0.79728 0.0
O255 O 0.611 0.99774 0.81922 0.0
O256 O 0.63466 0.0161 0.83151 0.0
C257 C 0.64819 0.97128 0.80668 0.0
O258 O 0.60841 1.00209 0.78006 0.0
O259 O 0.6303 0.995 0.76652 0.0
In260 In 0.76352 0.6421 0.99288 0.0
O261 O 0.77243 0.61428 0.99372 0.0
O262 O 0.79177 0.63753 0.99136 0.0
C263 C 0.73246 0.62274 0.99937 0.0
C264 C 0.77363 0.66851 0.02438 0.0
C265 C 0.76069 0.66014 0.96092 0.0
O266 O 0.74479 0.62982 0.01301 0.0
O267 O 0.73586 0.62505 0.98213 0.0
O268 O 0.76017 0.66733 0.97832 0.0
O269 O 0.76261 0.64348 0.9593 0.0
C270 C 0.78851 0.62061 0.99307 0.0
O271 O 0.75853 0.66584 0.01436 0.0
O272 O 0.78366 0.65767 0.01867 0.0
In273 In 0.92892 0.61997 0.80156 0.0
O274 O 0.90416 0.63084 0.79113 0.0
O275 O 0.92711 0.65085 0.80187 0.0
C276 C 0.90583 0.58983 0.8063 0.0
C277 C 0.94499 0.61584 0.7684 0.0
C278 C 0.95045 0.62131 0.83601 0.0
O279 O 0.90632 0.60542 0.81618 0.0
O280 O 0.91695 0.5895 0.79414 0.0
O281 O 0.94998 0.60949 0.82107 0.0
O282 O 0.9406 0.63307 0.83338 0.0
C283 C 0.91098 0.64768 0.7946 0.0
O284 O 0.95309 0.62489 0.78447 0.0
O285 O 0.929 0.60933 0.76913 0.0
In286 In 0.72772 0.4195 0.56083 0.0
O287 O 0.72958 0.3938 0.57617 0.0
O288 O 0.73008 0.41914 0.5943 0.0
C289 C 0.72631 0.40091 0.52373 0.0
C290 C 0.70059 0.43852 0.56443 0.0
C291 C 0.76055 0.43954 0.5638 0.0
O292 O 0.71994 0.39324 0.53752 0.0
O293 O 0.73229 0.41787 0.52841 0.0
O294 O 0.74697 0.4448 0.55616 0.0
O295 O 0.75761 0.42416 0.57006 0.0
C296 C 0.73095 0.40225 0.59352 0.0
O297 O 0.71668 0.44572 0.56816 0.0
O298 O 0.69782 0.42136 0.55863 0.0
In299 In 0.67321 0.55163 0.32574 0.0
O300 O 0.69733 0.53545 0.33136 0.0
O301 O 0.67343 0.51973 0.31716 0.0
C302 C 0.69134 0.58812 0.32718 0.0
C303 C 0.65455 0.5494 0.28828 0.0
C304 C 0.65391 0.55223 0.35852 0.0
O305 O 0.69908 0.57431 0.32714 0.0
O306 O 0.67486 0.58366 0.32725 0.0
O307 O 0.64709 0.54926 0.34064 0.0
O308 O 0.67064 0.55481 0.36025 0.0
C309 C 0.68932 0.51953 0.32364 0.0
O310 O 0.64777 0.54324 0.30266 0.0
O311 O 0.67082 0.55611 0.29249 0.0
Nd312 Nd 0.04698 0.08197 0.06409 0.0
Nd313 Nd 0.0245 0.04845 0.05766 0.0
C314 C 0.06753 0.1149 0.07169 0.0
C315 C 0.06696 0.13154 0.0616 0.0
C316 C 0.052 0.14017 0.06081 0.0
C317 C 0.0507 0.15435 0.04919 0.0
C318 C 0.06424 0.16015 0.03793 0.0
C319 C 0.07939 0.15184 0.03914 0.0
C320 C 0.08076 0.13777 0.05089 0.0
C321 C 0.04667 0.06612 0.02494 0.0
C322 C 1.00773 0.08334 0.04543 0.0
C323 C 1.00381 0.01559 0.04987 0.0
C324 C 1.0041 0.99883 0.05983 0.0
C325 C 0.0178 0.98851 0.05833 0.0
C326 C 0.01904 0.97406 0.06957 0.0
C327 C 1.00669 0.96962 0.0827 0.0
C328 C 0.99273 0.97959 0.08378 0.0
C329 C 0.9914 0.99394 0.07242 0.0
C330 C 0.02488 0.06418 0.09686 0.0
C331 C 0.06373 0.04692 0.07616 0.0
O332 O 0.05459 0.10987 0.0818 0.0
O333 O 0.0718 0.10084 0.06122 0.0
O334 O 0.04359 0.08249 0.0303 0.0
O335 O 0.04737 0.05764 0.04002 0.0
O336 O 0.02179 0.09302 0.05649 0.0
O337 O 1.00655 0.06536 0.04086 0.0
O338 O 0.0169 0.02056 0.03995 0.0
O339 O 0.99956 0.02969 0.0603 0.0
O340 O 0.02791 0.04782 0.09139 0.0
O341 O 0.02415 0.07273 0.08182 0.0
O342 O 0.04959 0.03732 0.06519 0.0
O343 O 0.06508 0.06494 0.08068 0.0
H344 H 0.04101 0.13563 0.06868 0.0
H345 H 0.03878 0.16032 0.04848 0.0
H346 H 0.09015 0.15612 0.03085 0.0
H347 H 0.09242 0.13136 0.05115 0.0
H348 H 0.0279 0.9919 0.04889 0.0
H349 H 0.03004 0.96677 0.06848 0.0
H350 H 0.98285 0.97637 0.09352 0.0
H351 H 0.98067 1.00157 0.0739 0.0
Nd352 Nd 0.28738 0.82948 0.31906 0.0
Nd353 Nd 0.28249 0.79312 0.29757 0.0
C354 C 0.28734 0.86163 0.34045 0.0
C355 C 0.29117 0.88082 0.33653 0.0
C356 C 0.29001 0.88486 0.317 0.0
C357 C 0.29576 0.90278 0.31317 0.0
C358 C 0.3029 0.91696 0.32881 0.0
C359 C 0.30347 0.91295 0.34841 0.0
C360 C 0.29767 0.895 0.35222 0.0
C361 C 0.31945 0.82014 0.31055 0.0
C362 C 0.28484 0.82782 0.27228 0.0
C363 C 0.28192 0.76102 0.27574 0.0
C364 C 0.27481 0.74199 0.27821 0.0
C365 C 0.27482 0.72744 0.26321 0.0
C366 C 0.26683 0.70949 0.26507 0.0
C367 C 0.25863 0.70593 0.28192 0.0
C368 C 0.25908 0.72055 0.29713 0.0
C369 C 0.26709 0.73842 0.29528 0.0
C370 C 0.25042 0.80244 0.30603 0.0
C371 C 0.28548 0.7948 0.34456 0.0
O372 O 0.27308 0.85133 0.33046 0.0
O373 O 0.30088 0.85317 0.34119 0.0
O374 O 0.31461 0.83573 0.30792 0.0
O375 O 0.30708 0.80971 0.3166 0.0
O376 O 0.2818 0.83759 0.28839 0.0
O377 O 0.28858 0.81114 0.2729 0.0
O378 O 0.29541 0.76937 0.28853 0.0
O379 O 0.27007 0.77142 0.27275 0.0
O380 O 0.25525 0.78684 0.30857 0.0
O381 O 0.26279 0.81289 0.29999 0.0
O382 O 0.28757 0.78466 0.32823 0.0
O383 O 0.28253 0.81179 0.3442 0.0
H384 H 0.28511 0.87406 0.30467 0.0
H385 H 0.29493 0.90546 0.29793 0.0
H386 H 0.30909 0.92349 0.36078 0.0
H387 H 0.29883 0.89206 0.36738 0.0
H388 H 0.28067 0.73001 0.2499 0.0
H389 H 0.26657 0.69852 0.25306 0.0
H390 H 0.25311 0.7182 0.31041 0.0
H391 H 0.26699 0.74953 0.30702 0.0
Nd392 Nd 0.54969 0.07311 0.54776 0.0
Nd393 Nd 0.51404 0.05406 0.55931 0.0
C394 C 0.57902 0.08566 0.53334 0.0
C395 C 0.59773 0.08945 0.54191 0.0
C396 C 0.61075 0.08643 0.52977 0.0
C397 C 0.62805 0.08629 0.53817 0.0
C398 C 0.63254 0.08906 0.55889 0.0
C399 C 0.61967 0.09314 0.57094 0.0
C400 C 0.60241 0.09329 0.56252 0.0
C401 C 0.55217 0.06016 0.58394 0.0
C402 C 0.53297 0.03057 0.52807 0.0
C403 C 0.48825 0.03784 0.57681 0.0
C404 C 0.46977 0.04044 0.5767 0.0
C405 C 0.45621 0.02511 0.5754 0.0
C406 C 0.43847 0.02711 0.57198 0.0
C407 C 0.43406 0.04451 0.56986 0.0
C408 C 0.44771 0.05994 0.57194 0.0
C409 C 0.46538 0.05791 0.57523 0.0
C410 C 0.50681 0.07118 0.52609 0.0
C411 C 0.52853 0.09799 0.57438 0.0
O412 O 0.57175 0.06824 0.53093 0.0
O413 O 0.56879 0.09647 0.54064 0.0
O414 O 0.56162 0.07511 0.58026 0.0
O415 O 0.54255 0.05192 0.56841 0.0
O416 O 0.54223 0.04648 0.52528 0.0
O417 O 0.52302 0.02947 0.54252 0.0
O418 O 0.50043 0.05153 0.58596 0.0
O419 O 0.4921 0.03091 0.55968 0.0
O420 O 0.49477 0.06195 0.53456 0.0
O421 O 0.52169 0.071 0.53533 0.0
O422 O 0.5204 0.08228 0.57908 0.0
O423 O 0.5382 0.09823 0.5596 0.0
H424 H 0.60732 0.08321 0.51384 0.0
H425 H 0.63759 0.08292 0.52849 0.0
H426 H 0.62278 0.09556 0.58692 0.0
H427 H 0.59253 0.09554 0.57219 0.0
H428 H 0.45936 1.01149 0.57627 0.0
H429 H 0.42823 0.01501 0.57057 0.0
H430 H 0.44477 0.07347 0.57004 0.0
H431 H 0.47563 0.06989 0.57578 0.0
Nd432 Nd 0.29242 0.31452 0.82812 0.0
Nd433 Nd 0.27884 0.31231 0.78974 0.0
C434 C 0.2978 0.31249 0.86659 0.0
C435 C 0.28923 0.31827 0.88375 0.0
C436 C 0.29155 0.31012 0.90102 0.0
C437 C 0.28399 0.31609 0.9177 0.0
C438 C 0.27404 0.33039 0.91734 0.0
C439 C 0.27127 0.33806 0.89968 0.0
C440 C 0.27876 0.33201 0.88301 0.0
C441 C 0.30308 0.34817 0.81436 0.0
C442 C 0.2516 0.32244 0.8187 0.0
C443 C 0.27316 0.3143 0.75128 0.0
C444 C 0.2802 0.30715 0.73348 0.0
C445 C 0.27958 0.31653 0.71693 0.0
C446 C 0.28571 0.30955 0.69965 0.0
C447 C 0.29247 0.29298 0.69863 0.0
C448 C 0.29352 0.28393 0.71554 0.0
C449 C 0.28752 0.29101 0.73285 0.0
C450 C 0.26812 0.27874 0.80363 0.0
C451 C 0.31974 0.30439 0.79909 0.0
O452 O 0.28846 0.29921 0.85371 0.0
O453 O 0.306 0.32573 0.85825 0.0
O454 O 0.31339 0.33927 0.82412 0.0
O455 O 0.28735 0.33893 0.81136 0.0
O456 O 0.26315 0.31723 0.83152 0.0
O457 O 0.25567 0.32445 0.80088 0.0
O458 O 0.2841 0.32669 0.76378 0.0
O459 O 0.26387 0.30212 0.76003 0.0
O460 O 0.25785 0.28759 0.79375 0.0
O461 O 0.28386 0.28792 0.80649 0.0
O462 O 0.30792 0.30897 0.78608 0.0
O463 O 0.31602 0.30305 0.81716 0.0
H464 H 0.29943 0.29932 0.90171 0.0
H465 H 0.28615 0.3097 0.93095 0.0
H466 H 0.26389 0.34925 0.89892 0.0
H467 H 0.27671 0.33836 0.8697 0.0
H468 H 0.27418 0.32915 0.71729 0.0
H469 H 0.28501 0.31705 0.68704 0.0
H470 H 0.29843 0.27105 0.71525 0.0
H471 H 0.28828 0.2837 0.74562 0.0
Nd472 Nd 0.02801 0.08072 0.57185 0.0
Nd473 Nd 0.04092 0.04504 0.55138 0.0
C474 C 1.01101 0.10693 0.58468 0.0
C475 C 1.00936 0.12454 0.57752 0.0
C476 C 1.01002 0.14041 0.59108 0.0
C477 C 1.01209 0.1578 0.58474 0.0
C478 C 1.01355 0.15951 0.56472 0.0
C479 C 1.01192 0.14345 0.55105 0.0
C480 C 1.00992 0.12615 0.5574 0.0
C481 C 0.06024 0.0868 0.55821 0.0
C482 C 0.01531 0.06631 0.52337 0.0
C483 C 0.05918 0.02148 0.53549 0.0
C484 C 0.06154 1.00294 0.54 0.0
C485 C 0.07196 1.00078 0.55741 0.0
C486 C 0.07078 0.98352 0.56392 0.0
C487 C 0.05906 0.96814 0.55326 0.0
C488 C 0.04995 0.97002 0.53491 0.0
C489 C 0.05129 0.98722 0.52829 0.0
C490 C 1.0114 0.03495 0.57005 0.0
C491 C 0.05207 0.05887 0.59958 0.0
O492 O 1.00314 0.09193 0.57295 0.0
O493 O 0.02704 0.10588 0.59224 0.0
O494 O 0.05632 0.09679 0.57337 0.0
O495 O 0.04688 0.07545 0.54981 0.0
O496 O 1.01389 0.07764 0.53945 0.0
O497 O 0.02555 0.05358 0.52402 0.0
O498 O 0.06649 0.03558 0.54891 0.0
O499 O 0.0431 0.02269 0.52799 0.0
O500 O 0.01899 0.02301 0.56035 0.0
O501 O 0.0197 0.0507 0.56924 0.0
O502 O 0.0568 0.05102 0.583 0.0
O503 O 0.03891 0.06842 0.59916 0.0
H504 H 1.0098 0.13944 0.60671 0.0
H505 H 1.01315 0.16992 0.59557 0.0
H506 H 1.01327 0.14427 0.5356 0.0
H507 H 1.00977 0.11414 0.54671 0.0
H508 H 0.08025 0.01255 0.56663 0.0
H509 H 0.07839 0.98244 0.57783 0.0
H510 H 0.04078 0.95853 0.52629 0.0
H511 H 0.04329 0.98842 0.51467 0.0
Nd512 Nd 0.30297 0.82535 0.81706 0.0
Nd513 Nd 0.26845 0.80326 0.80373 0.0
C514 C 0.3335 0.84817 0.82039 0.0
C515 C 0.35167 0.84646 0.8174 0.0
C516 C 0.35531 0.83044 0.8068 0.0
C517 C 0.3728 0.82789 0.80634 0.0
C518 C 0.38687 0.84127 0.81662 0.0
C519 C 0.38308 0.85765 0.82647 0.0
C520 C 0.36561 0.8602 0.82685 0.0
C521 C 0.28426 0.81835 0.8482 0.0
C522 C 0.30237 0.78083 0.81221 0.0
C523 C 0.23781 0.78041 0.79897 0.0
C524 C 0.21904 0.78199 0.79739 0.0
C525 C 0.21313 0.79621 0.80886 0.0
C526 C 0.19564 0.79892 0.80505 0.0
C527 C 0.18408 0.78767 0.78954 0.0
C528 C 0.18985 0.77308 0.77862 0.0
C529 C 0.20719 0.77021 0.7826 0.0
C530 C 0.28728 0.81071 0.77284 0.0
C531 C 0.2688 0.84779 0.80857 0.0
O532 O 0.32185 0.84519 0.80448 0.0
O533 O 0.32764 0.84039 0.83513 0.0
O534 O 0.30096 0.81757 0.84837 0.0
O535 O 0.2781 0.82261 0.83192 0.0
O536 O 0.31267 0.79708 0.81279 0.0
O537 O 0.28497 0.78012 0.81124 0.0
O538 O 0.24737 0.78591 0.81625 0.0
O539 O 0.2459 0.78558 0.78425 0.0
O540 O 0.27073 0.81208 0.77288 0.0
O541 O 0.29332 0.80598 0.78893 0.0
O542 O 0.25843 0.83141 0.80663 0.0
O543 O 0.28628 0.8487 0.81095 0.0
H544 H 0.34462 0.81965 0.79948 0.0
H545 H 0.37528 0.81523 0.79846 0.0
H546 H 0.39353 0.86809 0.83483 0.0
H547 H 0.36297 0.87256 0.83522 0.0
H548 H 0.22215 0.8056 0.82021 0.0
H549 H 0.19142 0.81033 0.81351 0.0
H550 H 0.18107 0.76423 0.76663 0.0
H551 H 0.21157 0.75924 0.77356 0.0
Nd552 Nd 0.51729 0.05575 0.04247 0.0
Nd553 Nd 0.55405 0.07553 0.06215 0.0
C554 C 0.48539 0.04429 0.02259 0.0
C555 C 0.46839 0.03526 0.02738 0.0
C556 C 0.46715 0.02941 0.04598 0.0
C557 C 0.45078 0.02146 0.0508 0.0
C558 C 0.43541 0.01935 0.03712 0.0
C559 C 0.43679 0.02518 0.01845 0.0
C560 C 0.45318 0.03308 0.01363 0.0
C561 C 0.53814 0.03347 0.05947 0.0
C562 C 0.52284 0.06807 0.08974 0.0
C563 C 0.58754 0.08674 0.07693 0.0
C564 C 0.60545 0.08514 0.07264 0.0
C565 C 0.61942 0.08967 0.08814 0.0
C566 C 0.63685 0.09043 0.08421 0.0
C567 C 0.64059 0.08668 0.06466 0.0
C568 C 0.62645 0.08131 0.04923 0.0
C569 C 0.60897 0.0805 0.05321 0.0
C570 C 0.52981 0.0982 0.05675 0.0
C571 C 0.54871 0.06207 0.01417 0.0
O572 O 0.4909 0.06117 0.03148 0.0
O573 O 0.49793 0.03436 0.0225 0.0
O574 O 0.52116 0.03157 0.05994 0.0
O575 O 0.54314 0.04624 0.04973 0.0
O576 O 0.51147 0.06591 0.07347 0.0
O577 O 0.53996 0.06863 0.08899 0.0
O578 O 0.57784 0.07203 0.08155 0.0
O579 O 0.5787 0.0959 0.06536 0.0
O580 O 0.54198 0.10086 0.07183 0.0
O581 O 0.53153 0.08488 0.04436 0.0
O582 O 0.56005 0.06899 0.03018 0.0
O583 O 0.53162 0.05707 0.01499 0.0
H584 H 0.47881 0.03119 0.05682 0.0
H585 H 0.45009 0.01729 0.06536 0.0
H586 H 0.4252 0.02353 1.00754 0.0
H587 H 0.45397 0.0376 0.99923 0.0
H588 H 0.61689 0.09332 0.10322 0.0
H589 H 0.64742 0.09487 0.0964 0.0
H590 H 0.62891 0.07816 0.03405 0.0
H591 H 0.59828 0.07686 0.04108 0.0
Nd592 Nd 0.26212 0.29296 0.28021 0.0
Nd593 Nd 0.28997 0.31669 0.3111 0.0
C594 C 0.23859 0.27535 0.25067 0.0
C595 C 0.21915 0.27443 0.24941 0.0
C596 C 0.21134 0.28859 0.24215 0.0
C597 C 0.19514 0.29197 0.24771 0.0
C598 C 0.18655 0.28132 0.2607 0.0
C599 C 0.19308 0.26551 0.2654 0.0
C600 C 0.20915 0.26202 0.25966 0.0
C601 C 0.26161 0.28345 0.3177 0.0
C602 C 0.25014 0.3271 0.30597 0.0
C603 C 0.31278 0.33358 0.34169 0.0
C604 C 0.33197 0.3331 0.34534 0.0
C605 C 0.33792 0.31881 0.35446 0.0
C606 C 0.3547 0.31469 0.35225 0.0
C607 C 0.36579 0.32474 0.34081 0.0
C608 C 0.36068 0.34049 0.33395 0.0
C609 C 0.344 0.3447 0.33631 0.0
C610 C 0.29055 0.32627 0.2736 0.0
C611 C 0.30217 0.28312 0.28483 0.0
O612 O 0.24797 0.29159 0.24993 0.0
O613 O 0.24561 0.26701 0.26451 0.0
O614 O 0.24743 0.28366 0.30577 0.0
O615 O 0.27522 0.28789 0.30955 0.0
O616 O 0.24673 0.31566 0.28925 0.0
O617 O 0.26493 0.32829 0.31813 0.0
O618 O 0.30207 0.31806 0.34223 0.0
O619 O 0.30778 0.34187 0.32676 0.0
O620 O 0.30469 0.32612 0.28564 0.0
O621 O 0.27691 0.32182 0.28172 0.0
O622 O 0.30565 0.29445 0.30162 0.0
O623 O 0.28723 0.28164 0.27284 0.0
H624 H 0.21849 0.29815 0.23377 0.0
H625 H 0.19014 0.30386 0.24319 0.0
H626 H 0.18684 0.25684 0.27524 0.0
H627 H 0.21455 0.25069 0.2651 0.0
H628 H 0.32912 0.30986 0.36194 0.0
H629 H 0.35843 0.30281 0.35827 0.0
H630 H 0.36879 0.34863 0.32509 0.0
H631 H 0.34 0.35606 0.32945 0.0
Nd632 Nd 0.52872 0.58305 0.07111 0.0
Nd633 Nd 0.53951 0.54595 0.05097 0.0
C634 C 0.5133 0.61059 0.08404 0.0
C635 C 0.5118 0.62824 0.07695 0.0
C636 C 0.509 0.64318 0.09002 0.0
C637 C 0.51011 0.6607 0.08408 0.0
C638 C 0.51409 0.6635 0.06498 0.0
C639 C 0.51627 0.64828 0.05174 0.0
C640 C 0.51518 0.63083 0.0577 0.0
C641 C 0.56063 0.5866 0.05659 0.0
C642 C 0.51491 0.56809 0.02288 0.0
C643 C 0.55669 0.52131 0.03518 0.0
C644 C 0.55905 0.50317 0.04052 0.0
C645 C 0.55696 0.488 0.02566 0.0
C646 C 0.55544 0.47011 0.03065 0.0
C647 C 0.55603 0.46718 0.0506 0.0
C648 C 0.55917 0.48252 0.06547 0.0
C649 C 0.56058 0.50034 0.06048 0.0
C650 C 0.50992 0.53784 0.07005 0.0
C651 C 0.55149 0.56021 0.09905 0.0
O652 O 0.5047 0.59573 0.07261 0.0
O653 O 0.52939 0.60905 0.09085 0.0
O654 O 0.5578 0.59711 0.072 0.0
O655 O 0.54662 0.57605 0.04871 0.0
O656 O 0.51427 0.58001 0.0388 0.0
O657 O 0.52443 0.55473 0.02363 0.0
O658 O 0.56461 0.53576 0.04782 0.0
O659 O 0.54038 0.52232 0.02844 0.0
O660 O 0.5168 0.52527 0.06034 0.0
O661 O 0.51893 0.55325 0.06912 0.0
O662 O 0.55558 0.55157 0.08251 0.0
O663 O 0.53903 0.57064 0.0986 0.0
H664 H 0.50653 0.64142 0.105 0.0
H665 H 0.50821 0.67211 0.09455 0.0
H666 H 0.51964 0.64999 0.03705 0.0
H667 H 0.51767 0.6195 0.0475 0.0
H668 H 0.55558 0.48992 0.01018 0.0
H669 H 0.55316 0.45854 0.01891 0.0
H670 H 0.55943 0.48074 0.08095 0.0
H671 H 0.56187 0.5118 0.07222 0.0
Nd672 Nd 0.8025 0.32607 0.31597 0.0
Nd673 Nd 0.76787 0.30353 0.30337 0.0
C674 C 0.83264 0.34956 0.31917 0.0
C675 C 0.85143 0.34882 0.31916 0.0
C676 C 0.85704 0.33202 0.31416 0.0
C677 C 0.87497 0.3309 0.31766 0.0
C678 C 0.88747 0.34655 0.32635 0.0
C679 C 0.8818 0.36357 0.33017 0.0
C680 C 0.86391 0.36467 0.3266 0.0
C681 C 0.78419 0.3192 0.3474 0.0
C682 C 0.80237 0.28159 0.31192 0.0
C683 C 0.73756 0.2804 0.30059 0.0
C684 C 0.71905 0.28201 0.30158 0.0
C685 C 0.71434 0.29935 0.30614 0.0
C686 C 0.69655 0.30119 0.30384 0.0
C687 C 0.68328 0.28572 0.29692 0.0
C688 C 0.68807 0.26822 0.29355 0.0
C689 C 0.70586 0.2664 0.29582 0.0
C690 C 0.78628 0.31027 0.27198 0.0
C691 C 0.76806 0.34804 0.30739 0.0
O692 O 0.82233 0.34402 0.30237 0.0
O693 O 0.82577 0.34358 0.33431 0.0
O694 O 0.80086 0.31834 0.34735 0.0
O695 O 0.77783 0.32334 0.33113 0.0
O696 O 0.8126 0.29795 0.31288 0.0
O697 O 0.78489 0.28064 0.31038 0.0
O698 O 0.74837 0.28534 0.3171 0.0
O699 O 0.74415 0.28649 0.28534 0.0
O700 O 0.76959 0.31107 0.27189 0.0
O701 O 0.79255 0.30616 0.28829 0.0
O702 O 0.7578 0.33168 0.30624 0.0
O703 O 0.78553 0.34899 0.30909 0.0
H704 H 0.84749 0.31963 0.30842 0.0
H705 H 0.87896 0.31765 0.31434 0.0
H706 H 0.89099 0.37583 0.33712 0.0
H707 H 0.85971 0.3777 0.33066 0.0
H708 H 0.72443 0.31154 0.31063 0.0
H709 H 0.69323 0.31481 0.30673 0.0
H710 H 0.67818 0.25608 0.28795 0.0
H711 H 0.70934 0.25295 0.29215 0.0
Nd712 Nd 0.01757 0.55449 0.54328 0.0
Nd713 Nd 0.05347 0.57428 0.56306 0.0
C714 C 0.98612 0.54298 0.52228 0.0
C715 C 0.96829 0.53809 0.52765 0.0
C716 C 0.9659 0.53749 0.54757 0.0
C717 C 0.94907 0.53185 0.5527 0.0
C718 C 0.93436 0.52675 0.53798 0.0
C719 C 0.93677 0.52784 0.51806 0.0
C720 C 0.95366 0.53345 0.51294 0.0
C721 C 0.03861 0.53195 0.55898 0.0
C722 C 0.02057 0.56739 0.59016 0.0
C723 C 0.0845 0.5858 0.58498 0.0
C724 C 0.10319 0.58652 0.58262 0.0
C725 C 0.10825 0.58036 0.56431 0.0
C726 C 0.12614 0.58286 0.56171 0.0
C727 C 0.13919 0.59154 0.57742 0.0
C728 C 0.13401 0.59707 0.59593 0.0
C729 C 0.11613 0.59459 0.59848 0.0
C730 C 0.03206 0.59682 0.54785 0.0
C731 C 0.05033 0.56074 0.51654 0.0
O732 O 0.99337 0.56041 0.52657 0.0
O733 O 0.997 0.53193 0.52695 0.0
O734 O 0.02168 0.52993 0.55972 0.0
O735 O 0.04365 0.545 0.54956 0.0
O736 O 1.00942 0.56247 0.5737 0.0
O737 O 0.03788 0.57074 0.5898 0.0
O738 O 0.07508 0.56944 0.5848 0.0
O739 O 0.07629 0.59636 0.57469 0.0
O740 O 0.04894 0.59888 0.54677 0.0
O741 O 0.02736 0.58366 0.55723 0.0
O742 O 0.06134 0.56383 0.53317 0.0
O743 O 0.03309 0.55967 0.51679 0.0
H744 H 0.97711 0.54108 0.55911 0.0
H745 H 0.94758 0.53137 0.56818 0.0
H746 H 0.92569 0.52383 0.5064 0.0
H747 H 0.95533 0.53384 0.4975 0.0
H748 H 0.09835 0.57407 0.55192 0.0
H749 H 0.12975 0.5783 0.54735 0.0
H750 H 0.1437 0.60403 0.60823 0.0
H751 H 0.11238 0.59949 0.61268 0.0
Nd752 Nd 0.79387 0.81567 0.3302 0.0
Nd753 Nd 0.77988 0.81377 0.29201 0.0
C754 C 0.80065 0.81429 0.36874 0.0
C755 C 0.79118 0.81586 0.38612 0.0
C756 C 0.77263 0.81157 0.38426 0.0
C757 C 0.76375 0.81553 0.40054 0.0
C758 C 0.77331 0.82383 0.41892 0.0
C759 C 0.79194 0.82731 0.42083 0.0
C760 C 0.80076 0.82337 0.40456 0.0
C761 C 0.80469 0.84917 0.31612 0.0
C762 C 0.7531 0.82314 0.32148 0.0
C763 C 0.77339 0.81649 0.25381 0.0
C764 C 0.77904 0.80875 0.23541 0.0
C765 C 0.77622 0.81697 0.21828 0.0
C766 C 0.78099 0.80936 0.20047 0.0
C767 C 0.7886 0.79332 0.19954 0.0
C768 C 0.79189 0.78546 0.21698 0.0
C769 C 0.78719 0.79316 0.2348 0.0
C770 C 0.76891 0.78006 0.30558 0.0
C771 C 0.8209 0.80573 0.30048 0.0
O772 O 0.79529 0.79968 0.35558 0.0
O773 O 0.80409 0.82932 0.36072 0.0
O774 O 0.81509 0.83993 0.32526 0.0
O775 O 0.78889 0.84021 0.31367 0.0
O776 O 0.76411 0.81619 0.33332 0.0
O777 O 0.75781 0.82705 0.30442 0.0
O778 O 0.78557 0.82784 0.266 0.0
O779 O 0.76359 0.80493 0.26279 0.0
O780 O 0.75877 0.78902 0.29569 0.0
O781 O 0.78471 0.78912 0.3085 0.0
O782 O 0.80864 0.80968 0.2875 0.0
O783 O 0.81776 0.8051 0.31886 0.0
H784 H 0.76502 0.80568 0.37011 0.0
H785 H 0.74942 0.81253 0.39863 0.0
H786 H 0.79973 0.834 0.43463 0.0
H787 H 0.81507 0.82687 0.40621 0.0
H788 H 0.77013 0.82916 0.21862 0.0
H789 H 0.77856 0.81592 0.18738 0.0
H790 H 0.79755 0.77301 0.21674 0.0
H791 H 0.7896 0.78675 0.24802 0.0
Nd792 Nd 0.78717 0.33005 0.81904 0.0
Nd793 Nd 0.78232 0.29416 0.79656 0.0
C794 C 0.78718 0.3616 0.84164 0.0
C795 C 0.79094 0.38102 0.83853 0.0
C796 C 0.78959 0.38579 0.81929 0.0
C797 C 0.79525 0.40396 0.81618 0.0
C798 C 0.8025 0.41766 0.83226 0.0
C799 C 0.80325 0.41292 0.85159 0.0
C800 C 0.79753 0.39472 0.85468 0.0
C801 C 0.81924 0.3212 0.80987 0.0
C802 C 0.78411 0.32965 0.77238 0.0
C803 C 0.78177 0.26277 0.77344 0.0
C804 C 0.77606 0.24307 0.77473 0.0
C805 C 0.78025 0.23558 0.79216 0.0
C806 C 0.77338 0.21721 0.79361 0.0
C807 C 0.76201 0.20606 0.77775 0.0
C808 C 0.75815 0.21358 0.76021 0.0
C809 C 0.76515 0.23187 0.75871 0.0
C810 C 0.7503 0.3031 0.80565 0.0
C811 C 0.78581 0.29461 0.84336 0.0
O812 O 0.77289 0.35152 0.83144 0.0
O813 O 0.80074 0.35318 0.84183 0.0
O814 O 0.81428 0.33684 0.8078 0.0
O815 O 0.80697 0.31046 0.81573 0.0
O816 O 0.78124 0.33902 0.78883 0.0
O817 O 0.78793 0.31294 0.77243 0.0
O818 O 0.79575 0.2715 0.78534 0.0
O819 O 0.76913 0.27244 0.77206 0.0
O820 O 0.75523 0.28746 0.80782 0.0
O821 O 0.76259 0.31378 0.79976 0.0
O822 O 0.78799 0.28493 0.82676 0.0
O823 O 0.78245 0.3115 0.84347 0.0
H824 H 0.78462 0.37537 0.80661 0.0
H825 H 0.79427 0.4072 0.80115 0.0
H826 H 0.80894 0.42309 0.86426 0.0
H827 H 0.79883 0.39122 0.86961 0.0
H828 H 0.78854 0.24398 0.80481 0.0
H829 H 0.77686 0.21183 0.80723 0.0
H830 H 0.74921 0.20556 0.74782 0.0
H831 H 0.76164 0.23745 0.7452 0.0
Nd832 Nd 0.76128 0.79453 0.77511 0.0
Nd833 Nd 0.78295 0.80966 0.81491 0.0
C834 C 0.73845 0.78972 0.74282 0.0
C835 C 0.71905 0.78764 0.74248 0.0
C836 C 0.70999 0.80089 0.73516 0.0
C837 C 0.69338 0.80281 0.74073 0.0
C838 C 0.6857 0.79167 0.75395 0.0
C839 C 0.69396 0.77708 0.75931 0.0
C840 C 0.71038 0.77506 0.75361 0.0
C841 C 0.75622 0.77224 0.80384 0.0
C842 C 0.74646 0.8238 0.80763 0.0
C843 C 0.80442 0.81241 0.84812 0.0
C844 C 0.82255 0.80821 0.85064 0.0
C845 C 0.82564 0.79043 0.84416 0.0
C846 C 0.84245 0.78779 0.8401 0.0
C847 C 0.8564 0.80291 0.84228 0.0
C848 C 0.85383 0.82016 0.85126 0.0
C849 C 0.83703 0.82278 0.85545 0.0
C850 C 0.7875 0.83226 0.78641 0.0
C851 C 0.79863 0.78205 0.7819 0.0
O852 O 0.7473 0.806 0.75067 0.0
O853 O 0.74572 0.77631 0.74897 0.0
O854 O 0.75635 0.76605 0.78541 0.0
O855 O 0.75758 0.78953 0.80639 0.0
O856 O 0.74601 0.81615 0.78909 0.0
O857 O 0.75845 0.82135 0.82183 0.0
O858 O 0.79151 0.79839 0.84224 0.0
O859 O 0.80269 0.82651 0.83871 0.0
O860 O 0.7872 0.83823 0.80493 0.0
O861 O 0.78651 0.81498 0.78357 0.0
O862 O 0.79865 0.78877 0.80063 0.0
O863 O 0.78664 0.78466 0.76778 0.0
H864 H 0.71637 0.81073 0.72652 0.0
H865 H 0.6872 0.81387 0.73582 0.0
H866 H 0.6887 0.76823 0.76954 0.0
H867 H 0.71694 0.76467 0.75956 0.0
H868 H 0.81482 0.77881 0.84047 0.0
H869 H 0.84399 0.77431 0.8333 0.0
H870 H 0.86447 0.83198 0.85354 0.0
H871 H 0.83506 0.83657 0.8607 0.0
Nd872 Nd 0.54606 0.5819 0.56318 0.0
Nd873 Nd 0.52407 0.54806 0.55676 0.0
C874 C 0.56611 0.61523 0.57057 0.0
C875 C 0.56512 0.63108 0.55952 0.0
C876 C 0.55124 0.62987 0.54416 0.0
C877 C 0.55055 0.64413 0.53263 0.0
C878 C 0.56379 0.66 0.53613 0.0
C879 C 0.57756 0.66136 0.55181 0.0
C880 C 0.57825 0.64697 0.56336 0.0
C881 C 0.546 0.566 0.52402 0.0
C882 C 0.50669 0.58233 0.54428 0.0
C883 C 0.50376 0.51501 0.54914 0.0
C884 C 0.50307 0.49908 0.56055 0.0
C885 C 0.50955 0.48326 0.55338 0.0
C886 C 0.51074 0.46904 0.565 0.0
C887 C 0.50542 0.47026 0.58407 0.0
C888 C 0.49843 0.48586 0.59094 0.0
C889 C 0.49731 0.50008 0.57938 0.0
C890 C 0.52408 0.56367 0.59597 0.0
C891 C 0.56338 0.54746 0.57581 0.0
O892 O 0.55265 0.61027 0.57993 0.0
O893 O 0.57085 0.60106 0.56081 0.0
O894 O 0.54268 0.58227 0.52933 0.0
O895 O 0.54684 0.55762 0.53914 0.0
O896 O 0.52034 0.59211 0.55593 0.0
O897 O 0.50608 0.5645 0.5393 0.0
O898 O 0.51809 0.5193 0.54094 0.0
O899 O 0.49844 0.52962 0.55722 0.0
O900 O 0.52713 0.54734 0.59046 0.0
O901 O 0.52336 0.57225 0.58094 0.0
O902 O 0.54946 0.53761 0.56465 0.0
O903 O 0.56438 0.56543 0.58026 0.0
H904 H 0.54098 0.61775 0.54086 0.0
H905 H 0.53959 0.6427 0.52096 0.0
H906 H 0.58803 0.67333 0.55484 0.0
H907 H 0.58915 0.64814 0.57506 0.0
H908 H 0.51416 0.4821 0.53899 0.0
H909 H 0.51635 0.45736 0.55923 0.0
H910 H 0.49388 0.48716 0.60535 0.0
H911 H 0.49224 0.51203 0.58546 0.0
Nd912 Nd 0.05113 0.57307 0.04542 0.0
Nd913 Nd 0.01549 0.55446 0.05804 0.0
C914 C 0.07995 0.58525 0.02997 0.0
C915 C 0.09863 0.59103 0.03832 0.0
C916 C 0.11182 0.58762 0.02659 0.0
C917 C 0.12937 0.58947 0.03522 0.0
C918 C 0.13401 0.59473 0.05578 0.0
C919 C 0.12087 0.59919 0.06728 0.0
C920 C 0.10332 0.59727 0.05864 0.0
C921 C 0.05397 0.56021 0.08159 0.0
C922 C 0.03358 0.53062 0.02636 0.0
C923 C 0.9899 0.53901 0.07627 0.0
C924 C 0.9721 0.54338 0.07704 0.0
C925 C 0.95777 0.52962 0.07864 0.0
C926 C 0.94047 0.5332 0.07608 0.0
C927 C 0.93731 0.55059 0.0718 0.0
C928 C 0.95185 0.56446 0.07088 0.0
C929 C 0.96903 0.56089 0.07345 0.0
C930 C 1.00809 0.57175 0.02496 0.0
C931 C 0.03101 0.59831 0.07341 0.0
O932 O 0.07381 0.56776 0.02993 0.0
O933 O 0.06891 0.59593 0.03553 0.0
O934 O 0.06369 0.57495 0.07773 0.0
O935 O 0.04402 0.55212 0.06624 0.0
O936 O 0.04238 0.54653 0.02289 0.0
O937 O 0.02436 0.52968 0.04145 0.0
O938 O 1.00301 0.55176 0.08541 0.0
O939 O 0.99279 0.53218 0.05865 0.0
O940 O 0.99606 0.56285 0.03372 0.0
O941 O 0.02297 0.5712 0.03393 0.0
O942 O 0.02238 0.58267 0.07777 0.0
O943 O 0.04083 0.59853 0.05874 0.0
H944 H 0.10839 0.58255 0.01093 0.0
H945 H 0.13907 0.58568 0.02595 0.0
H946 H 0.12404 0.60351 0.0831 0.0
H947 H 0.09328 0.59983 0.068 0.0
H948 H 0.95991 0.51596 0.08116 0.0
H949 H 0.92956 0.52228 0.07701 0.0
H950 H 0.94994 0.57787 0.06719 0.0
H951 H 0.9799 0.5716 0.07175 0.0
C952 C 0.04825 0.26584 0.91273 0.0
C953 C 0.04403 0.28283 0.92029 0.0
C954 C 0.05027 0.25231 0.92508 0.0
C955 C 0.03832 0.23718 0.97222 0.0
H956 H 0.07839 0.21191 0.9701 0.0
C957 C 0.05549 0.19024 0.03064 0.0
C958 C 0.06228 0.17433 0.02447 0.0
C959 C 0.05331 0.20333 0.01782 0.0
C960 C 0.06696 0.2186 0.97074 0.0
H961 H 0.03844 0.29881 0.94671 0.0
H962 H 0.04178 0.27521 0.96813 0.0
H963 H 0.07408 0.23445 0.94766 0.0
H964 H 0.07182 0.15962 0.99977 0.0
H965 H 0.06773 0.18216 0.97731 0.0
H966 H 0.03099 0.22122 0.99504 0.0
C967 C 0.0435 0.2723 0.95267 0.0
C968 C 0.06452 0.23158 0.95785 0.0
C969 C 0.04166 0.28587 0.9404 0.0
C970 C 0.06682 0.17186 1.00513 0.0
C971 C 0.0645 0.18485 0.99224 0.0
C972 C 0.04066 0.22408 0.98498 0.0
C973 C 0.04792 0.25537 0.94521 0.0
C974 C 0.05023 0.24112 0.9585 0.0
C975 C 0.05769 0.2008 0.99836 0.0
C976 C 0.05508 0.21465 0.98453 0.0
H977 H 0.05018 0.26308 0.89732 0.0
H978 H 0.05352 0.23938 0.91881 0.0
H979 H 0.02703 0.24407 0.97294 0.0
H980 H 0.05204 0.19269 0.04551 0.0
H981 H 0.04837 0.21555 0.0233 0.0
C982 C 0.09463 0.81931 0.25458 0.0
C983 C 0.08164 0.8045 0.25742 0.0
C984 C 0.11267 0.81988 0.26101 0.0
C985 C 0.14393 0.79896 0.29395 0.0
H986 H 0.17831 0.81843 0.26108 0.0
C987 C 0.218 0.79027 0.30678 0.0
C988 C 0.23127 0.80427 0.30278 0.0
C989 C 0.19994 0.79102 0.30227 0.0
C990 C 0.169 0.81317 0.27067 0.0
H991 H 0.07773 0.77872 0.26959 0.0
H992 H 0.10909 0.7796 0.28072 0.0
H993 H 0.14698 0.81824 0.25152 0.0
H994 H 0.23566 0.83031 0.29119 0.0
H995 H 0.20425 0.8318 0.28355 0.0
H996 H 0.16598 0.79378 0.31304 0.0
C997 C 0.10536 0.79098 0.2737 0.0
C998 C 0.15087 0.81305 0.26514 0.0
C999 C 0.08727 0.79042 0.26725 0.0
C1000 C 0.22588 0.81927 0.29449 0.0
C1001 C 0.20777 0.82001 0.28993 0.0
C1002 C 0.16207 0.79907 0.29948 0.0
C1003 C 0.11844 0.80563 0.2705 0.0
C1004 C 0.13795 0.80592 0.27664 0.0
C1005 C 0.19443 0.8058 0.29355 0.0
C1006 C 0.17497 0.80613 0.28792 0.0
H1007 H 0.09088 0.83043 0.24708 0.0
H1008 H 0.12211 0.8316 0.25853 0.0
H1009 H 0.1346 0.79361 0.30347 0.0
H1010 H 0.22158 0.77845 0.31308 0.0
H1011 H 0.19027 0.77966 0.30513 0.0
C1012 C 0.54804 0.88094 0.43859 0.0
C1013 C 0.54236 0.87808 0.41811 0.0
C1014 C 0.54741 0.89767 0.45005 0.0
C1015 C 0.5431 0.94663 0.44659 0.0
H1016 H 0.53071 0.94523 0.49977 0.0
C1017 C 0.52204 0.99704 0.51533 0.0
C1018 C 0.53388 0.01347 0.51481 0.0
C1019 C 0.52303 0.98081 0.50315 0.0
C1020 C 0.53401 0.94593 0.48489 0.0
H1021 H 0.53162 0.89059 0.39358 0.0
H1022 H 0.5301 0.91964 0.41362 0.0
H1023 H 0.53214 0.91667 0.47921 0.0
H1024 H 0.55608 0.02565 0.50099 0.0
H1025 H 0.55811 0.99728 0.48011 0.0
H1026 H 0.54435 0.97587 0.45208 0.0
C1027 C 0.53539 0.90911 0.42082 0.0
C1028 C 0.5351 0.92949 0.47315 0.0
C1029 C 0.53616 0.8924 0.40932 0.0
C1030 C 0.54669 0.01328 0.50171 0.0
C1031 C 0.54778 0.99699 0.48963 0.0
C1032 C 0.54189 0.96308 0.4583 0.0
C1033 C 0.54092 0.91196 0.44139 0.0
C1034 C 0.53971 0.92958 0.45384 0.0
C1035 C 0.53601 0.98049 0.49023 0.0
C1036 C 0.53732 0.96297 0.47764 0.0
H1037 H 0.55301 0.87022 0.4458 0.0
H1038 H 0.55213 0.89941 0.46573 0.0
H1039 H 0.54688 0.94733 0.43191 0.0
H1040 H 0.5119 0.99669 0.5251 0.0
H1041 H 0.51349 0.96854 0.50378 0.0
C1042 C 0.47673 0.30153 0.77047 0.0
C1043 C 0.47887 0.29793 0.75031 0.0
C1044 C 0.45978 0.30188 0.77634 0.0
C1045 C 0.4142 0.30804 0.75707 0.0
H1046 H 0.39965 0.28511 0.80199 0.0
C1047 C 0.34122 0.30132 0.77389 0.0
C1048 C 0.33772 0.30213 0.79368 0.0
C1049 C 0.35833 0.30037 0.76896 0.0
C1050 C 0.40345 0.29187 0.78956 0.0
H1051 H 0.46459 0.29186 0.72061 0.0
H1052 H 0.43542 0.29263 0.73072 0.0
H1053 H 0.42949 0.28491 0.79338 0.0
H1054 H 0.34981 0.30254 0.82379 0.0
H1055 H 0.37953 0.30141 0.81539 0.0
H1056 H 0.38848 0.3154 0.75337 0.0
C1057 C 0.44676 0.29526 0.74209 0.0
C1058 C 0.42069 0.29169 0.78458 0.0
C1059 C 0.46358 0.2947 0.73627 0.0
C1060 C 0.35187 0.30177 0.80836 0.0
C1061 C 0.36903 0.30104 0.80347 0.0
C1062 C 0.39707 0.3084 0.76215 0.0
C1063 C 0.44451 0.2989 0.7622 0.0
C1064 C 0.42632 0.29965 0.76814 0.0
C1065 C 0.37267 0.30045 0.78367 0.0
C1066 C 0.39125 0.30019 0.77841 0.0
H1067 H 0.48815 0.3041 0.78172 0.0
H1068 H 0.45867 0.30484 0.79196 0.0
H1069 H 0.41803 0.31462 0.74452 0.0
H1070 H 0.33072 0.30147 0.76211 0.0
H1071 H 0.36022 0.29951 0.75348 0.0
C1072 C 0.99729 0.84697 0.64427 0.0
C1073 C 0.99089 0.82952 0.63328 0.0
C1074 C 1.00425 0.86173 0.63492 0.0
C1075 C 1.00792 0.87779 0.58603 0.0
H1076 H 0.05119 0.90802 0.61411 0.0
C1077 C 0.05024 0.93361 0.55062 0.0
C1078 C 0.05455 0.95102 0.56233 0.0
C1079 C 0.04345 0.91797 0.55882 0.0
C1080 C 0.03909 0.89973 0.60612 0.0
H1081 H 0.98587 0.81401 0.60378 0.0
H1082 H 0.99824 0.83974 0.58745 0.0
H1083 H 0.03594 0.88286 0.62913 0.0
H1084 H 0.05545 0.96542 0.59203 0.0
H1085 H 0.04412 0.93818 0.6063 0.0
H1086 H 1.01122 0.89472 0.56297 0.0
C1087 C 0.99774 0.8421 0.60326 0.0
C1088 C 0.03027 0.8854 0.61477 0.0
C1089 C 0.99065 0.82734 0.61261 0.0
C1090 C 0.05267 0.95224 0.58261 0.0
C1091 C 0.04605 0.93661 0.59081 0.0
C1092 C 0.01682 0.89209 0.57732 0.0
C1093 C 1.00509 0.85931 0.61441 0.0
C1094 C 1.01446 0.8744 0.60495 0.0
C1095 C 0.04101 0.91941 0.57893 0.0
C1096 C 0.03239 0.90332 0.58739 0.0
H1097 H 0.99754 0.84907 0.66022 0.0
H1098 H 1.00938 0.87494 0.64387 0.0
H1099 H 0.99572 0.86967 0.57813 0.0
H1100 H 0.05176 0.93212 0.53503 0.0
H1101 H 0.0399 0.9048 0.5494 0.0
C1102 C 0.52599 0.82014 0.90121 0.0
C1103 C 0.53715 0.8374 0.90602 0.0
C1104 C 0.51098 0.81779 0.88724 0.0
C1105 C 0.48929 0.83908 0.84711 0.0
H1106 H 0.4461 0.8147 0.86368 0.0
C1107 C 0.41977 0.85168 0.81975 0.0
C1108 C 0.4052 0.83744 0.81906 0.0
C1109 C 0.43688 0.84897 0.82588 0.0
C1110 C 0.45805 0.82117 0.85853 0.0
H1111 H 0.54169 0.8656 0.89962 0.0
H1112 H 0.5153 0.86158 0.87543 0.0
H1113 H 0.47429 0.8151 0.88328 0.0
H1114 H 0.39735 0.80871 0.8228 0.0
H1115 H 0.42721 0.80384 0.83285 0.0
H1116 H 0.47287 0.84564 0.82265 0.0
C1117 C 0.51827 0.8498 0.88225 0.0
C1118 C 0.47424 0.82143 0.86982 0.0
C1119 C 0.53329 0.85215 0.89623 0.0
C1120 C 0.40826 0.81999 0.82309 0.0
C1121 C 0.42537 0.81724 0.8291 0.0
C1122 C 0.47306 0.83879 0.83576 0.0
C1123 C 0.50682 0.83266 0.8778 0.0
C1124 C 0.48999 0.8307 0.86448 0.0
C1125 C 0.43977 0.83191 0.83135 0.0
C1126 C 0.45723 0.83014 0.84158 0.0
H1127 H 0.52874 0.80849 0.90843 0.0
H1128 H 0.50251 0.80436 0.88395 0.0
H1129 H 0.50127 0.84611 0.84249 0.0
H1130 H 0.41788 0.86519 0.81639 0.0
H1131 H 0.44767 0.86058 0.8275 0.0
C1132 C 0.46324 0.22272 0.11239 0.0
C1133 C 0.47798 0.237 0.11465 0.0
C1134 C 0.46235 0.20678 0.09889 0.0
C1135 C 0.48463 0.1864 0.05796 0.0
H1136 H 0.47656 0.14245 0.08358 0.0
C1137 C 0.5259 0.12988 0.05221 0.0
C1138 C 0.51828 0.11158 0.05304 0.0
C1139 C 0.51551 0.14359 0.05257 0.0
C1140 C 0.4784 0.15443 0.07588 0.0
H1141 H 0.50275 0.24638 0.10375 0.0
H1142 H 0.5014 0.21869 0.08061 0.0
H1143 H 0.46765 0.1705 0.09791 0.0
H1144 H 0.49397 0.09294 0.05453 0.0
H1145 H 0.47563 0.11704 0.0554 0.0
H1146 H 0.49667 0.17056 0.0368 0.0
C1147 C 0.49038 0.21972 0.08895 0.0
C1148 C 0.47327 0.17056 0.08411 0.0
C1149 C 0.49127 0.23555 0.10242 0.0
C1150 C 0.49999 0.10694 0.0534 0.0
C1151 C 0.48957 0.12073 0.05406 0.0
C1152 C 0.48986 0.17029 0.04981 0.0
C1153 C 0.47616 0.20492 0.08739 0.0
C1154 C 0.47716 0.18697 0.0758 0.0
C1155 C 0.49735 0.13926 0.05421 0.0
C1156 C 0.48757 0.15442 0.05925 0.0
H1157 H 0.45274 0.22354 0.12156 0.0
H1158 H 0.45115 0.19569 0.0979 0.0
H1159 H 0.48742 0.19871 0.05095 0.0
H1160 H 0.54006 0.1337 0.05219 0.0
H1161 H 0.52195 0.15777 0.05302 0.0
C1162 C 0.12912 0.32966 0.41116 0.0
C1163 C 0.11414 0.33816 0.41008 0.0
C1164 C 0.13634 0.32446 0.39392 0.0
C1165 C 0.13667 0.33207 0.34138 0.0
H1166 H 0.15008 0.28377 0.33507 0.0
C1167 C 0.17601 0.30747 0.27968 0.0
C1168 C 0.17339 0.28853 0.27247 0.0
C1169 C 0.16688 0.31394 0.29475 0.0
C1170 C 0.14614 0.29718 0.33646 0.0
H1171 H 0.09534 0.34845 0.39028 0.0
H1172 H 0.1078 0.33932 0.36039 0.0
H1173 H 0.13932 0.29478 0.36559 0.0
H1174 H 0.15747 0.2619 0.27389 0.0
H1175 H 0.1413 0.27327 0.30006 0.0
H1176 H 0.14321 0.33435 0.31212 0.0
C1177 C 0.1141 0.33677 0.37445 0.0
C1178 C 0.14029 0.30363 0.35412 0.0
C1179 C 0.1069 0.34192 0.3916 0.0
C1180 C 0.16015 0.27649 0.27943 0.0
C1181 C 0.15095 0.28299 0.29449 0.0
C1182 C 0.1425 0.32561 0.3237 0.0
C1183 C 0.12874 0.32773 0.37534 0.0
C1184 C 0.13552 0.32116 0.35681 0.0
C1185 C 0.15475 0.30167 0.30287 0.0
C1186 C 0.14734 0.3081 0.32104 0.0
H1187 H 0.13496 0.32661 0.42521 0.0
H1188 H 0.14779 0.31775 0.39512 0.0
H1189 H 0.13321 0.3457 0.34304 0.0
H1190 H 0.18605 0.31719 0.27477 0.0
H1191 H 0.17022 0.32839 0.30087 0.0
C1192 C 0.94459 0.08946 0.24604 0.0
C1193 C 0.9278 0.07816 0.24474 0.0
C1194 C 0.95492 0.0888 0.23018 0.0
C1195 C 0.9607 0.05857 0.18372 0.0
H1196 H 0.98983 0.1027 0.17209 0.0
C1197 C 1.01268 0.05437 0.12774 0.0
C1198 C 1.01515 0.06771 0.11472 0.0
C1199 C 1.00229 0.05626 0.14335 0.0
C1200 C 0.98175 0.09018 0.17496 0.0
H1201 H 0.90901 0.05719 0.22513 0.0
H1202 H 0.92689 0.05589 0.19774 0.0
H1203 H 0.97141 0.10471 0.19894 0.0
H1204 H 1.00844 0.09391 0.10869 0.0
H1205 H 0.99058 0.09742 0.13611 0.0
H1206 H 0.97099 0.04402 0.15982 0.0
C1207 C 0.9322 0.06533 0.2111 0.0
C1208 C 0.97121 0.09131 0.19064 0.0
C1209 C 0.92179 0.06616 0.22689 0.0
C1210 C 1.00707 0.08334 0.11834 0.0
C1211 C 0.99675 0.08534 0.13418 0.0
C1212 C 0.97139 0.05741 0.16824 0.0
C1213 C 0.94904 0.07662 0.21235 0.0
C1214 C 0.96041 0.07552 0.19539 0.0
C1215 C 0.99391 0.07168 0.14688 0.0
C1216 C 0.9822 0.07317 0.16348 0.0
H1217 H 0.94983 0.09888 0.25945 0.0
H1218 H 0.96777 0.09763 0.2321 0.0
H1219 H 0.95285 0.04597 0.18674 0.0
H1220 H 0.01858 0.04211 0.12567 0.0
H1221 H 1.00089 0.04551 0.15277 0.0
C1222 C 0.33583 0.75158 0.50659 0.0
C1223 C 0.33541 0.73252 0.50608 0.0
C1224 C 0.33024 0.75882 0.48947 0.0
C1225 C 0.30267 0.74429 0.44042 0.0
H1226 H 0.32511 0.79169 0.42857 0.0
C1227 C 0.2896 0.76897 0.36414 0.0
C1228 C 0.28829 0.78762 0.36375 0.0
C1229 C 0.29432 0.76257 0.38201 0.0
C1230 C 0.31856 0.77853 0.43181 0.0
H1231 H 0.32958 0.70622 0.48706 0.0
H1232 H 0.3204 0.71882 0.45719 0.0
H1233 H 0.33637 0.78006 0.45842 0.0
H1234 H 0.29046 0.81406 0.38199 0.0
H1235 H 0.2987 0.80284 0.41321 0.0
H1236 H 0.28509 0.74263 0.41362 0.0
C1237 C 0.32451 0.72818 0.47087 0.0
C1238 C 0.32502 0.77185 0.44893 0.0
C1239 C 0.32995 0.72096 0.48797 0.0
C1240 C 0.2913 0.7996 0.38175 0.0
C1241 C 0.29618 0.79322 0.39963 0.0
C1242 C 0.29631 0.75091 0.42327 0.0
C1243 C 0.32422 0.74716 0.47144 0.0
C1244 C 0.31724 0.75456 0.4534 0.0
C1245 C 0.29798 0.77468 0.39993 0.0
C1246 C 0.30423 0.76806 0.41868 0.0
H1247 H 0.33988 0.76083 0.52036 0.0
H1248 H 0.3301 0.77348 0.49055 0.0
H1249 H 0.29604 0.73113 0.44357 0.0
H1250 H 0.28739 0.75937 0.35056 0.0
H1251 H 0.2957 0.74824 0.3817 0.0
C1252 C 0.58908 1.0055 0.74255 0.0
C1253 C 0.60534 0.99923 0.74436 0.0
C1254 C 0.58162 1.00921 0.72421 0.0
C1255 C 0.59577 0.02272 0.67769 0.0
H1256 H 0.54545 0.01539 0.65957 0.0
C1257 C 0.56864 0.0619 0.61756 0.0
C1258 C 0.55587 0.05198 0.60228 0.0
C1259 C 0.57341 0.05401 0.6344 0.0
C1260 C 0.55955 0.01739 0.66436 0.0
H1261 H 0.62597 0.99088 0.72814 0.0
H1262 H 0.61288 0.99709 0.69618 0.0
H1263 H 0.5559 1.00289 0.68936 0.0
H1264 H 0.53755 0.02625 0.59295 0.0
H1265 H 0.54593 0.01234 0.6226 0.0
H1266 H 0.5995 0.03723 0.65289 0.0
C1267 C 0.60604 0.99949 0.70896 0.0
C1268 C 0.56552 1.01037 0.6815 0.0
C1269 C 0.61349 0.99581 0.72727 0.0
C1270 C 0.54749 0.03417 0.60449 0.0
C1271 C 0.55224 0.02626 0.62147 0.0
C1272 C 0.58981 0.02978 0.6607 0.0
C1273 C 0.59027 1.00673 0.7073 0.0
C1274 C 0.58372 0.01307 0.68845 0.0
C1275 C 0.56551 0.03599 0.63645 0.0
C1276 C 0.57163 0.02743 0.65395 0.0
H1277 H 0.58249 1.0083 0.75545 0.0
H1278 H 0.56953 0.01487 0.72351 0.0
H1279 H 0.60985 0.02529 0.6827 0.0
H1280 H 0.57522 0.07571 0.61639 0.0
H1281 H 0.58339 0.06205 0.64583 0.0
C1282 C 0.27677 0.44717 0.04644 0.0
C1283 C 0.27294 0.44483 0.06563 0.0
C1284 C 0.27093 0.43292 0.03077 0.0
C1285 C 0.26073 0.38283 0.02157 0.0
H1286 H 0.24802 0.39162 0.96766 0.0
C1287 C 0.25171 0.34486 0.93498 0.0
C1288 C 0.26791 0.33844 0.93568 0.0
C1289 C 0.24729 0.35492 0.95171 0.0
C1290 C 0.25118 0.38879 0.98265 0.0
H1291 H 0.25937 0.42613 0.08339 0.0
H1292 H 0.24921 0.40116 0.05593 0.0
H1293 H 0.24883 0.41601 0.99506 0.0
H1294 H 0.29174 0.33682 0.95484 0.0
H1295 H 0.28397 0.3541 0.9839 0.0
H1296 H 0.26368 0.35581 1.0091 0.0
C1297 C 0.2568 0.41397 0.05306 0.0
C1298 C 0.25183 0.40283 0.99832 0.0
C1299 C 0.26257 0.42827 0.06873 0.0
C1300 C 0.27905 0.34131 0.95379 0.0
C1301 C 0.27459 0.35125 0.97051 0.0
C1302 C 0.26012 0.3688 1.0059 0.0
C1303 C 0.2612 0.41603 0.03399 0.0
C1304 C 0.25723 0.40021 0.01787 0.0
C1305 C 0.25892 0.35863 0.9695 0.0
C1306 C 0.25597 0.37187 0.98624 0.0
H1307 H 0.28471 0.4598 0.04361 0.0
H1308 H 0.27475 0.43486 0.0163 0.0
H1309 H 0.265 0.3804 0.03646 0.0
H1310 H 0.24267 0.34257 0.92134 0.0
H1311 H 0.23501 0.36025 0.95058 0.0
C1312 C 0.94557 0.08233 0.35426 0.0
C1313 C 0.92693 0.07906 0.3515 0.0
C1314 C 0.95514 0.08144 0.37274 0.0
C1315 C 0.95035 0.08096 0.42701 0.0
H1316 H 0.99491 0.06325 0.42847 0.0
C1317 C 0.99531 0.0823 0.50183 0.0
C1318 C 1.00529 0.06814 0.50376 0.0
C1319 C 0.98595 0.08393 0.48347 0.0
C1320 C 0.98241 0.06808 0.42849 0.0
H1321 H 0.90384 0.07222 0.36635 0.0
H1322 H 0.92034 0.07036 0.39827 0.0
H1323 H 0.97833 0.06512 0.39674 0.0
H1324 H 1.01293 0.04449 0.48738 0.0
H1325 H 0.99651 0.04707 0.45575 0.0
H1326 H 0.95417 0.08339 0.45875 0.0
C1327 C 0.92772 0.07398 0.38631 0.0
C1328 C 0.97294 0.06943 0.41011 0.0
C1329 C 0.91817 0.07494 0.36786 0.0
C1330 C 1.00554 0.05566 0.48664 0.0
C1331 C 0.99614 0.05724 0.46831 0.0
C1332 C 0.9598 0.07958 0.4454 0.0
C1333 C 0.94641 0.07716 0.38915 0.0
C1334 C 0.95669 0.07588 0.40897 0.0
C1335 C 0.98615 0.07142 0.46631 0.0
C1336 C 0.97603 0.07308 0.44653 0.0
H1337 H 0.95283 0.08558 0.34209 0.0
H1338 H 0.96945 0.0843 0.37416 0.0
H1339 H 0.93807 0.08623 0.42704 0.0
H1340 H 0.99475 0.09226 0.51453 0.0
H1341 H 0.97874 0.09523 0.48273 0.0
C1342 C 0.3482 0.74488 0.62785 0.0
C1343 C 0.33795 0.74501 0.60963 0.0
C1344 C 0.34425 0.75423 0.64541 0.0
C1345 C 0.30657 0.77092 0.66629 0.0
H1346 H 0.34212 0.79726 0.70876 0.0
C1347 C 0.28621 0.80918 0.73595 0.0
C1348 C 0.29526 0.80731 0.75429 0.0
C1349 C 0.2926 0.80363 0.71824 0.0
C1350 C 0.33201 0.78983 0.69711 0.0
H1351 H 0.31602 0.75571 0.59549 0.0
H1352 H 0.30932 0.77209 0.62587 0.0
H1353 H 0.35124 0.78358 0.67813 0.0
H1354 H 0.31857 0.79894 0.7685 0.0
H1355 H 0.32958 0.78902 0.73769 0.0
H1356 H 0.28735 0.77676 0.68522 0.0
C1357 C 0.32019 0.76452 0.62675 0.0
C1358 C 0.33726 0.78199 0.67953 0.0
C1359 C 0.32413 0.75523 0.60927 0.0
C1360 C 0.31127 0.80055 0.75459 0.0
C1361 C 0.31763 0.79493 0.73689 0.0
C1362 C 0.30134 0.77868 0.68382 0.0
C1363 C 0.32994 0.76385 0.64512 0.0
C1364 C 0.32459 0.77245 0.66387 0.0
C1365 C 0.30818 0.79599 0.71843 0.0
C1366 C 0.31396 0.78827 0.69951 0.0
H1367 H 0.3589 0.73709 0.62864 0.0
H1368 H 0.35199 0.75333 0.6593 0.0
H1369 H 0.29643 0.76335 0.65475 0.0
H1370 H 0.27391 0.81445 0.73523 0.0
H1371 H 0.28516 0.80507 0.70437 0.0
C1372 C 0.59353 1.00777 0.85357 0.0
C1373 C 0.61149 0.01386 0.85217 0.0
C1374 C 0.58628 0.01324 0.87072 0.0
C1375 C 0.59479 0.0491 0.91505 0.0
H1376 H 0.56026 0.0149 0.93574 0.0
C1377 C 0.57348 0.06349 0.99307 0.0
C1378 C 0.55543 0.05842 0.99486 0.0
C1379 C 0.57994 0.05868 0.97523 0.0
C1380 C 0.56975 0.02468 0.93003 0.0
H1381 H 0.63604 0.03008 0.86779 0.0
H1382 H 0.62357 0.03923 0.89772 0.0
H1383 H 0.57218 1.00485 0.90557 0.0
H1384 H 0.52995 0.04465 0.979 0.0
H1385 H 0.54123 0.03637 0.94798 0.0
H1386 H 0.59253 0.06882 0.9397 0.0
C1387 C 0.61492 0.03062 0.88548 0.0
C1388 C 0.57657 0.01893 0.9127 0.0
C1389 C 0.62211 0.02525 0.86835 0.0
C1390 C 0.54394 0.04879 0.97823 0.0
C1391 C 0.55041 0.04389 0.96045 0.0
C1392 C 0.58804 0.05481 0.93242 0.0
C1393 C 0.59687 0.02485 0.88685 0.0
C1394 C 0.58924 0.03104 0.90503 0.0
C1395 C 0.56851 0.0486 0.9588 0.0
C1396 C 0.57548 0.04266 0.94014 0.0
H1397 H 0.58502 0.99903 0.8413 0.0
H1398 H 0.5723 1.00866 0.87118 0.0
H1399 H 0.60426 0.05893 0.90938 0.0
H1400 H 0.58271 0.0709 1.00555 0.0
H1401 H 0.59399 0.06241 0.97447 0.0
C1402 C 0.27831 0.4434 0.16409 0.0
C1403 C 0.29468 0.45249 0.16003 0.0
C1404 C 0.27757 0.42927 0.17594 0.0
C1405 C 0.30371 0.39523 0.19268 0.0
H1406 H 0.27036 0.3897 0.23089 0.0
C1407 C 0.30671 0.34598 0.25186 0.0
C1408 C 0.29065 0.33725 0.25702 0.0
C1409 C 0.30681 0.35871 0.23837 0.0
C1410 C 0.27956 0.39088 0.22006 0.0
H1411 H 0.32314 0.45443 0.1658 0.0
H1412 H 0.32187 0.42999 0.18677 0.0
H1413 H 0.27151 0.41553 0.21188 0.0
H1414 H 0.26207 0.33398 0.25119 0.0
H1415 H 0.26222 0.35607 0.22745 0.0
H1416 H 0.31186 0.37065 0.20101 0.0
C1417 C 0.30959 0.43353 0.18049 0.0
C1418 C 0.28026 0.40572 0.20921 0.0
C1419 C 0.31032 0.44766 0.16865 0.0
C1420 C 0.27466 0.34064 0.24759 0.0
C1421 C 0.27475 0.35338 0.23412 0.0
C1422 C 0.30303 0.38039 0.20354 0.0
C1423 C 0.2932 0.42394 0.18397 0.0
C1424 C 0.2924 0.40813 0.19547 0.0
C1425 C 0.29083 0.36293 0.22978 0.0
C1426 C 0.29099 0.37809 0.21741 0.0
H1427 H 0.26603 0.44676 0.15755 0.0
H1428 H 0.26473 0.42208 0.17822 0.0
H1429 H 0.31299 0.3965 0.18193 0.0
H1430 H 0.31923 0.34358 0.25888 0.0
H1431 H 0.31942 0.36589 0.23541 0.0
C1432 C 0.16836 0.93985 0.06612 0.0
C1433 C 0.18626 0.94806 0.06771 0.0
C1434 C 0.15534 0.95074 0.06894 0.0
C1435 C 0.14933 0.99787 0.09008 0.0
H1436 H 0.1041 0.98444 0.05683 0.0
C1437 C 0.09624 0.04579 0.08369 0.0
C1438 C 0.07844 0.03704 0.0814 0.0
C1439 C 0.10986 0.03528 0.0843 0.0
C1440 C 0.11658 0.9883 0.06643 0.0
H1441 H 0.20451 0.97417 0.07339 0.0
H1442 H 0.18191 0.99308 0.07781 0.0
H1443 H 0.12656 0.9653 0.05289 0.0
H1444 H 0.06104 1.01063 0.07958 0.0
H1445 H 0.08458 0.99255 0.08098 0.0
H1446 H 0.13931 0.02112 0.10333 0.0
C1447 C 0.17786 0.97824 0.07483 0.0
C1448 C 0.12949 0.97726 0.06419 0.0
C1449 C 0.19083 0.96737 0.07212 0.0
C1450 C 0.07461 0.0178 0.08112 0.0
C1451 C 0.08812 1.00739 0.08176 0.0
C1452 C 0.13641 1.00899 0.09225 0.0
C1453 C 0.15991 0.97011 0.07332 0.0
C1454 C 0.14606 0.98184 0.07599 0.0
C1455 C 0.10587 0.01588 0.08264 0.0
C1456 C 0.11984 1.00429 0.08051 0.0
H1457 H 0.16442 0.92501 0.06286 0.0
H1458 H 0.1417 0.94393 0.06791 0.0
H1459 H 0.16183 1.00174 0.09964 0.0
H1460 H 0.0996 0.06056 0.08379 0.0
H1461 H 0.12341 0.04226 0.085 0.0
C1462 C 0.70157 0.60552 0.98826 0.0
C1463 C 0.71506 0.61373 1.00362 0.0
C1464 C 0.68467 0.59848 0.99255 0.0
C1465 C 0.65976 0.58643 0.03448 0.0
H1466 H 0.62018 0.59816 1.0015 0.0
C1467 C 0.59344 0.59569 0.06164 0.0
C1468 C 0.57794 0.58662 0.04954 0.0
C1469 C 0.6099 0.59574 0.05499 0.0
C1470 C 0.63109 0.59458 0.01067 0.0
H1471 H 0.72165 0.62059 0.03549 0.0
H1472 H 0.69228 0.60893 0.04293 0.0
H1473 H 0.64973 0.60376 0.99149 0.0
H1474 H 0.56733 0.5704 0.0211 0.0
H1475 H 0.59622 0.57099 0.00919 0.0
H1476 H 0.64113 0.57828 0.0542 0.0
C1477 C 0.69467 0.60743 0.02759 0.0
C1478 C 0.64802 0.59768 1.00492 0.0
C1479 C 0.71153 0.61428 0.02332 0.0
C1480 C 0.57913 0.57754 0.03068 0.0
C1481 C 0.59558 0.57788 0.02387 0.0
C1482 C 0.64289 0.58362 0.04036 0.0
C1483 C 0.68094 0.59965 0.01227 0.0
C1484 C 0.66264 0.59404 0.01698 0.0
C1485 C 0.61109 0.58697 0.03599 0.0
C1486 C 0.6285 0.588 0.0287 0.0
H1487 H 0.70397 0.60484 0.97293 0.0
H1488 H 0.67449 0.59234 0.9804 0.0
H1489 H 0.67061 0.58304 0.04389 0.0
H1490 H 0.59285 0.60271 0.07628 0.0
H1491 H 0.62168 0.60299 0.06452 0.0
C1492 C 0.71591 0.50257 0.32765 0.0
C1493 C 0.69764 0.50208 0.32211 0.0
C1494 C 0.7235 0.48629 0.32594 0.0
C1495 C 0.7118 0.43366 0.31985 0.0
H1496 H 0.75936 0.43558 0.30631 0.0
C1497 C 0.74153 0.36518 0.30549 0.0
C1498 C 0.76003 0.3657 0.30822 0.0
C1499 C 0.73409 0.38154 0.30695 0.0
C1500 C 0.74614 0.43454 0.31041 0.0
H1501 H 0.67327 0.4833 0.31038 0.0
H1502 H 0.68625 0.45529 0.30754 0.0
H1503 H 0.74667 0.46359 0.3096 0.0
H1504 H 0.78497 0.38473 0.31493 0.0
H1505 H 0.77231 0.41281 0.31791 0.0
H1506 H 0.71126 0.40476 0.32103 0.0
C1507 C 0.69488 0.46825 0.31337 0.0
C1508 C 0.73873 0.45092 0.31228 0.0
C1509 C 0.68734 0.48453 0.3149 0.0
C1510 C 0.77071 0.38342 0.31249 0.0
C1511 C 0.76329 0.39979 0.31412 0.0
C1512 C 0.71925 0.41732 0.31816 0.0
C1513 C 0.71318 0.46866 0.31879 0.0
C1514 C 0.72133 0.45094 0.31699 0.0
C1515 C 0.74474 0.39938 0.31142 0.0
C1516 C 0.73664 0.41722 0.31332 0.0
H1517 H 0.72445 0.51564 0.33329 0.0
H1518 H 0.73755 0.48758 0.33056 0.0
H1519 H 0.69852 0.43273 0.32381 0.0
H1520 H 0.73265 0.352 0.30217 0.0
H1521 H 0.71984 0.38004 0.30432 0.0
C1522 C 0.79319 0.44431 0.57406 0.0
C1523 C 0.77852 0.45016 0.56446 0.0
C1524 C 0.81029 0.45379 0.57366 0.0
C1525 C 0.8354 0.49772 0.56257 0.0
H1526 H 0.87113 0.46782 0.55257 0.0
C1527 C 0.90145 0.5251 0.53473 0.0
C1528 C 0.91672 0.51953 0.54332 0.0
C1529 C 0.88479 0.51764 0.53924 0.0
C1530 C 0.86136 0.47638 0.55562 0.0
H1531 H 0.77013 0.47068 0.54729 0.0
H1532 H 0.79997 0.48698 0.54618 0.0
H1533 H 0.84166 0.45299 0.55724 0.0
H1534 H 0.92656 0.50188 0.56339 0.0
H1535 H 0.89748 0.48896 0.57133 0.0
H1536 H 0.8551 0.52107 0.56039 0.0
C1537 C 0.79831 0.4753 0.55433 0.0
C1538 C 0.84448 0.46789 0.55836 0.0
C1539 C 0.78121 0.46589 0.55485 0.0
C1540 C 0.91504 0.50656 0.55669 0.0
C1541 C 0.89839 0.49904 0.56109 0.0
C1542 C 0.85228 0.5062 0.55971 0.0
C1543 C 0.81306 0.46923 0.56353 0.0
C1544 C 0.83126 0.47844 0.56174 0.0
C1545 C 0.88309 0.50438 0.55229 0.0
C1546 C 0.86539 0.49559 0.5561 0.0
H1547 H 0.79147 0.43229 0.58171 0.0
H1548 H 0.82135 0.44894 0.58118 0.0
H1549 H 0.82559 0.50627 0.56544 0.0
H1550 H 0.90239 0.53518 0.5245 0.0
H1551 H 0.87319 0.5219 0.53212 0.0
C1552 C 0.38573 0.15915 0.2926 0.0
C1553 C 0.40431 0.16338 0.29626 0.0
C1554 C 0.3758 0.17282 0.28891 0.0
C1555 C 0.37608 0.22202 0.29894 0.0
H1556 H 0.33867 0.21325 0.25457 0.0
C1557 C 0.33301 0.27688 0.2865 0.0
C1558 C 0.31484 0.27071 0.28057 0.0
C1559 C 0.34487 0.26456 0.28542 0.0
C1560 C 0.34892 0.21589 0.26716 0.0
H1561 H 0.42705 0.18532 0.29909 0.0
H1562 H 0.40955 0.20947 0.29319 0.0
H1563 H 0.35754 0.19026 0.25912 0.0
H1564 H 0.29483 0.24694 0.2684 0.0
H1565 H 0.31537 0.22516 0.26747 0.0
H1566 H 0.36697 0.24703 0.30777 0.0
C1567 C 0.40276 0.19546 0.29299 0.0
C1568 C 0.35979 0.20274 0.26968 0.0
C1569 C 0.41276 0.18167 0.29634 0.0
C1570 C 0.30882 0.25208 0.27286 0.0
C1571 C 0.32066 0.23962 0.27231 0.0
C1572 C 0.36502 0.23502 0.29664 0.0
C1573 C 0.38418 0.19113 0.2891 0.0
C1574 C 0.37341 0.20561 0.28567 0.0
C1575 C 0.33882 0.24561 0.27908 0.0
C1576 C 0.3512 0.23213 0.28076 0.0
H1577 H 0.37882 0.14518 0.29237 0.0
H1578 H 0.36151 0.16912 0.28619 0.0
H1579 H 0.38632 0.2245 0.31155 0.0
H1580 H 0.33803 0.29122 0.29237 0.0
H1581 H 0.35876 0.26985 0.28998 0.0
C1582 C 0.29261 0.08952 0.51622 0.0
C1583 C 0.29603 0.10106 0.50173 0.0
C1584 C 0.30488 0.07877 0.52237 0.0
C1585 C 0.33885 0.07153 0.54369 0.0
H1586 H 0.36947 0.05014 0.50984 0.0
C1587 C 0.4089 0.06183 0.57236 0.0
C1588 C 0.41549 0.04654 0.56397 0.0
C1589 C 0.39224 0.06502 0.5651 0.0
C1590 C 0.36087 0.05577 0.5195 0.0
H1591 H 0.31444 0.10958 0.48143 0.0
H1592 H 0.33601 0.09106 0.49236 0.0
H1593 H 0.34358 0.06095 0.49499 0.0
H1594 H 0.40949 0.02223 0.5418 0.0
H1595 H 0.38021 0.02765 0.52931 0.0
H1596 H 0.35621 0.06654 0.56819 0.0
C1597 C 0.32378 0.09011 0.49885 0.0
C1598 C 0.34615 0.06215 0.51098 0.0
C1599 C 0.31144 0.1008 0.49263 0.0
C1600 C 0.40472 0.03406 0.54869 0.0
C1601 C 0.38805 0.03727 0.54138 0.0
C1602 C 0.35355 0.06515 0.55219 0.0
C1603 C 0.32088 0.07941 0.51423 0.0
C1604 C 0.33519 0.07047 0.52299 0.0
C1605 C 0.38177 0.05298 0.54925 0.0
C1606 C 0.36496 0.05759 0.54021 0.0
H1607 H 0.28075 0.08932 0.52338 0.0
H1608 H 0.30209 0.07039 0.53396 0.0
H1609 H 0.33082 0.07804 0.55341 0.0
H1610 H 0.41683 0.07159 0.58426 0.0
H1611 H 0.38789 0.07735 0.57138 0.0
C1612 C 0.69041 0.62186 0.32373 0.0
C1613 C 0.70042 0.60777 0.32616 0.0
C1614 C 0.6985 0.64003 0.32195 0.0
C1615 C 0.74222 0.67352 0.33072 0.0
H1616 H 0.71746 0.70033 0.29501 0.0
C1617 C 0.77394 0.74827 0.31484 0.0
C1618 C 0.76254 0.76039 0.30932 0.0
C1619 C 0.76718 0.7297 0.31718 0.0
C1620 C 0.72461 0.6934 0.3054 0.0
H1621 H 0.72726 0.60244 0.32881 0.0
H1622 H 0.74137 0.63403 0.32594 0.0
H1623 H 0.70451 0.66908 0.29875 0.0
H1624 H 0.73485 0.76213 0.30268 0.0
H1625 H 0.72326 0.73076 0.30727 0.0
H1626 H 0.76226 0.69801 0.33753 0.0
C1627 C 0.72712 0.63104 0.32543 0.0
C1628 C 0.71706 0.67515 0.30751 0.0
C1629 C 0.71898 0.61275 0.32702 0.0
C1630 C 0.74421 0.75335 0.3067 0.0
C1631 C 0.73748 0.73502 0.30917 0.0
C1632 C 0.74974 0.69193 0.32875 0.0
C1633 C 0.71705 0.6451 0.32267 0.0
C1634 C 0.72559 0.66476 0.32029 0.0
C1635 C 0.74872 0.72255 0.31421 0.0
C1636 C 0.74105 0.70242 0.31613 0.0
H1637 H 0.67613 0.61881 0.32299 0.0
H1638 H 0.69008 0.65022 0.32019 0.0
H1639 H 0.74934 0.66631 0.34086 0.0
H1640 H 0.78812 0.753 0.31701 0.0
H1641 H 0.77654 0.72088 0.32093 0.0
C1642 C 0.89279 0.55652 0.79649 0.0
C1643 C 0.89326 0.57323 0.80869 0.0
C1644 C 0.88107 0.54071 0.79875 0.0
C1645 C 0.85565 0.51956 0.83498 0.0
H1646 H 0.83133 0.48632 0.78869 0.0
C1647 C 0.80824 0.45218 0.8413 0.0
C1648 C 0.81034 0.43647 0.82878 0.0
C1649 C 0.81651 0.46976 0.83853 0.0
C1650 C 0.8381 0.49541 0.80176 0.0
H1651 H 0.88179 0.58656 0.83276 0.0
H1652 H 0.86123 0.55884 0.83673 0.0
H1653 H 0.84934 0.51547 0.78453 0.0
H1654 H 0.82288 0.42692 0.80362 0.0
H1655 H 0.83724 0.45744 0.79882 0.0
H1656 H 0.84472 0.49932 0.85221 0.0
C1657 C 0.87002 0.55798 0.82549 0.0
C1658 C 0.84841 0.5121 0.79938 0.0
C1659 C 0.88173 0.57385 0.82317 0.0
C1660 C 0.82069 0.43875 0.81329 0.0
C1661 C 0.82894 0.45627 0.81053 0.0
C1662 C 0.84535 0.50283 0.83738 0.0
C1663 C 0.86958 0.54124 0.81329 0.0
C1664 C 0.85752 0.52422 0.81594 0.0
C1665 C 0.82706 0.47197 0.8232 0.0
C1666 C 0.8367 0.49043 0.82077 0.0
H1667 H 0.90155 0.55561 0.78523 0.0
H1668 H 0.88123 0.52796 0.78932 0.0
H1669 H 0.86265 0.52853 0.84802 0.0
H1670 H 0.80019 0.4509 0.85323 0.0
H1671 H 0.81464 0.48161 0.84839 0.0
C1672 C 0.02346 0.8597 0.20316 0.0
C1673 C 0.02601 0.84234 0.19451 0.0
C1674 C 0.02163 0.8738 0.19153 0.0
C1675 C 0.03118 0.88886 0.14349 0.0
H1676 H 0.99452 0.91809 0.15097 0.0
C1677 C 1.01332 0.93825 0.08813 0.0
C1678 C 1.00868 0.95504 0.09563 0.0
C1679 C 0.01548 0.92473 0.1004 0.0
C1680 C 1.005 0.91026 0.14882 0.0
H1681 H 0.02877 0.82624 0.16686 0.0
H1682 H 0.02567 0.85075 0.14665 0.0
H1683 H 0.9986 0.89456 0.17223 0.0
H1684 H 1.00297 0.97084 0.1221 0.0
H1685 H 1.00699 0.94746 0.14354 0.0
H1686 H 0.03775 0.9046 0.12025 0.0
C1687 C 0.02518 0.85356 0.16243 0.0
C1688 C 1.00732 0.89673 0.16104 0.0
C1689 C 0.02686 0.83946 0.17402 0.0
C1690 C 1.00627 0.95795 0.11574 0.0
C1691 C 1.00855 0.94449 0.12805 0.0
C1692 C 0.02895 0.90247 0.13137 0.0
C1693 C 0.02247 0.8709 0.171 0.0
C1694 C 0.02037 0.88576 0.15845 0.0
C1695 C 1.01321 0.92767 0.12058 0.0
C1696 C 0.01575 0.91331 0.13376 0.0
H1697 H 0.02273 0.86236 0.21891 0.0
H1698 H 0.01973 0.88704 0.19864 0.0
H1699 H 0.04155 0.88087 0.14128 0.0
H1700 H 1.01508 0.93546 0.07266 0.0
H1701 H 0.01873 0.91186 0.09395 0.0
C1702 C 0.97498 0.30413 0.85955 0.0
C1703 C 0.98817 0.31815 0.85543 0.0
C1704 C 0.95694 0.30375 0.85324 0.0
C1705 C 0.92534 0.33421 0.83735 0.0
H1706 H 0.89272 0.28804 0.82094 0.0
C1707 C 0.85147 0.33318 0.80796 0.0
C1708 C 0.83841 0.3194 0.81269 0.0
C1709 C 0.86959 0.33249 0.81207 0.0
C1710 C 0.90153 0.3011 0.8257 0.0
H1711 H 0.99245 0.34266 0.84102 0.0
H1712 H 0.96112 0.34195 0.82985 0.0
H1713 H 0.92413 0.28784 0.82982 0.0
H1714 H 0.83439 0.29382 0.82526 0.0
H1715 H 0.86587 0.29266 0.83265 0.0
H1716 H 0.90279 0.3475 0.83352 0.0
C1717 C 0.96467 0.33129 0.83819 0.0
C1718 C 0.91969 0.30098 0.8308 0.0
C1719 C 0.98274 0.33161 0.84445 0.0
C1720 C 0.84403 0.30465 0.82129 0.0
C1721 C 0.86218 0.30397 0.82548 0.0
C1722 C 0.9072 0.33433 0.83233 0.0
C1723 C 0.95141 0.31745 0.84264 0.0
C1724 C 0.93195 0.31754 0.83674 0.0
C1725 C 0.87535 0.31801 0.82116 0.0
C1726 C 0.8949 0.31779 0.82639 0.0
H1727 H 0.97857 0.29359 0.86808 0.0
H1728 H 0.94729 0.29297 0.85722 0.0
H1729 H 0.93415 0.34726 0.84217 0.0
H1730 H 0.8477 0.34472 0.80127 0.0
H1731 H 0.87909 0.34338 0.80804 0.0
C1732 C 0.53576 0.2498 0.67344 0.0
C1733 C 0.52838 0.24924 0.69128 0.0
C1734 C 0.53552 0.23357 0.66064 0.0
C1735 C 0.51238 0.18516 0.64765 0.0
H1736 H 0.55394 0.17854 0.62246 0.0
C1737 C 0.51863 0.1154 0.60366 0.0
C1738 C 0.52748 0.11559 0.58676 0.0
C1739 C 0.51835 0.13179 0.61595 0.0
C1740 C 0.54211 0.18024 0.62911 0.0
H1741 H 0.51494 0.23114 0.70966 0.0
H1742 H 0.51452 0.20275 0.68731 0.0
H1743 H 0.55434 0.20669 0.64489 0.0
H1744 H 0.54266 0.13337 0.56938 0.0
H1745 H 0.54188 0.16197 0.59059 0.0
H1746 H 0.50008 0.15879 0.63179 0.0
C1747 C 0.5204 0.21579 0.68315 0.0
C1748 C 0.54236 0.1964 0.64204 0.0
C1749 C 0.52073 0.23204 0.69602 0.0
C1750 C 0.53578 0.13266 0.5823 0.0
C1751 C 0.53544 0.14909 0.59457 0.0
C1752 C 0.51209 0.16903 0.63464 0.0
C1753 C 0.52781 0.21634 0.66528 0.0
C1754 C 0.52752 0.19907 0.65153 0.0
C1755 C 0.52684 0.14887 0.61168 0.0
C1756 C 0.52697 0.16629 0.62521 0.0
H1757 H 0.54172 0.26282 0.6693 0.0
H1758 H 0.54115 0.23457 0.64692 0.0
H1759 H 0.50061 0.18687 0.65444 0.0
H1760 H 0.51213 0.10253 0.60764 0.0
H1761 H 0.5118 0.13097 0.6291 0.0
C1762 C 0.59528 0.81238 0.35012 0.0
C1763 C 0.59122 0.82811 0.36104 0.0
C1764 C 0.61255 0.81201 0.34532 0.0
C1765 C 0.65528 0.84244 0.34077 0.0
H1766 H 0.67562 0.79852 0.34595 0.0
C1767 C 0.72351 0.83344 0.31468 0.0
C1768 C 0.73491 0.82489 0.32654 0.0
C1769 C 0.70611 0.83415 0.31876 0.0
C1770 C 0.67023 0.81096 0.3445 0.0
H1771 H 0.6023 0.85591 0.37511 0.0
H1772 H 0.63211 0.85538 0.36655 0.0
H1773 H 0.64526 0.79904 0.35274 0.0
H1774 H 0.73661 0.81041 0.35217 0.0
H1775 H 0.70644 0.81161 0.35924 0.0
H1776 H 0.68028 0.85439 0.33263 0.0
C1777 C 0.622 0.84328 0.36162 0.0
C1778 C 0.65266 0.81119 0.3482 0.0
C1779 C 0.60484 0.84357 0.36661 0.0
C1780 C 0.72836 0.81719 0.34271 0.0
C1781 C 0.71091 0.81773 0.34667 0.0
C1782 C 0.67278 0.84214 0.33686 0.0
C1783 C 0.62624 0.82743 0.35108 0.0
C1784 C 0.64489 0.82697 0.3465 0.0
C1785 C 0.69944 0.82614 0.33472 0.0
C1786 C 0.68061 0.82643 0.33876 0.0
H1787 H 0.58521 0.80017 0.34565 0.0
H1788 H 0.61515 0.7996 0.33702 0.0
H1789 H 0.64983 0.85482 0.33912 0.0
H1790 H 0.72796 0.83948 0.30205 0.0
H1791 H 0.69774 0.84062 0.30907 0.0
C1792 C 0.0654 0.2831 0.47334 0.0
C1793 C 0.07847 0.29779 0.48298 0.0
C1794 C 0.05881 0.26879 0.48347 0.0
C1795 C 0.06723 0.24553 0.52696 0.0
H1796 H 0.01601 0.23232 0.52057 0.0
C1797 C 0.03211 0.19112 0.56967 0.0
C1798 C 0.0186 0.17784 0.55828 0.0
C1799 C 0.03885 0.20719 0.56223 0.0
C1800 C 0.03032 0.23574 0.52241 0.0
H1801 H 0.09559 0.30855 0.51048 0.0
H1802 H 0.08412 0.28331 0.52821 0.0
H1803 H 0.02998 0.25669 0.50351 0.0
H1804 H 1.00081 0.17156 0.53071 0.0
H1805 H 1.01279 0.19936 0.51754 0.0
H1806 H 0.0676 0.22429 0.5455 0.0
C1807 C 0.07897 0.28296 0.51281 0.0
C1808 C 0.03832 0.24968 0.51263 0.0
C1809 C 0.08554 0.29737 0.50266 0.0
C1810 C 1.01136 0.18144 0.53974 0.0
C1811 C 0.01812 0.19747 0.53228 0.0
C1812 C 0.05922 0.23148 0.53667 0.0
C1813 C 0.06518 0.26882 0.50345 0.0
C1814 C 0.05685 0.25454 0.51458 0.0
C1815 C 0.03224 0.21032 0.54324 0.0
C1816 C 0.04067 0.22627 0.53431 0.0
H1817 H 0.05975 0.28299 0.45814 0.0
H1818 H 0.04844 0.25786 0.47577 0.0
H1819 H 0.08154 0.24895 0.52865 0.0
H1820 H 0.03809 0.1887 0.58394 0.0
H1821 H 0.04953 0.21696 0.57117 0.0
C1822 C 0.53496 0.29161 0.21736 0.0
C1823 C 0.53156 0.28018 0.19902 0.0
C1824 C 0.55062 0.29232 0.2299 0.0
C1825 C 0.59617 0.28617 0.2283 0.0
H1826 H 0.59769 0.28399 0.28475 0.0
C1827 C 0.66184 0.30188 0.2791 0.0
C1828 C 0.66489 0.28799 0.29066 0.0
C1829 C 0.64485 0.3022 0.2701 0.0
C1830 C 0.59741 0.28464 0.26901 0.0
H1831 H 0.54162 0.26029 0.17951 0.0
H1832 H 0.56915 0.26171 0.20137 0.0
H1833 H 0.56906 0.28082 0.26412 0.0
H1834 H 0.65237 0.26437 0.30304 0.0
H1835 H 0.62254 0.26493 0.2872 0.0
H1836 H 0.6244 0.28993 0.23305 0.0
C1837 C 0.55968 0.2701 0.206 0.0
C1838 C 0.5811 0.2829 0.25726 0.0
C1839 C 0.54394 0.26924 0.19356 0.0
C1840 C 0.65041 0.27513 0.29406 0.0
C1841 C 0.63336 0.27552 0.28512 0.0
C1842 C 0.61242 0.28812 0.24004 0.0
C1843 C 0.56322 0.28177 0.2242 0.0
C1844 C 0.58036 0.28354 0.23678 0.0
C1845 C 0.63056 0.28869 0.27253 0.0
C1846 C 0.61321 0.28734 0.26049 0.0
H1847 H 0.5256 0.30015 0.22196 0.0
H1848 H 0.5531 0.30152 0.24379 0.0
H1849 H 0.59597 0.28691 0.21259 0.0
H1850 H 0.67273 0.31189 0.27604 0.0
H1851 H 0.64298 0.31263 0.26065 0.0
C1852 C 0.59588 0.89645 1.00624 0.0
C1853 C 0.58982 0.89524 0.98596 0.0
C1854 C 0.5952 0.91232 0.01924 0.0
C1855 C 0.5772 0.94103 0.04217 0.0
H1856 H 0.58829 0.98958 0.02622 0.0
C1857 C 0.53971 1.0003 0.06141 0.0
C1858 C 0.54834 0.0185 0.06163 0.0
C1859 C 0.54888 0.98564 0.05819 0.0
C1860 C 0.58544 0.97625 0.03126 0.0
H1861 H 0.57915 0.90984 0.9632 0.0
H1862 H 0.57828 0.93751 0.98569 0.0
H1863 H 0.5979 0.96359 1.00821 0.0
H1864 H 0.57363 0.0359 0.06095 0.0
H1865 H 0.58974 1.01043 0.056 0.0
H1866 H 0.56415 0.95364 0.06481 0.0
C1867 C 0.5835 0.9263 0.99164 0.0
C1868 C 0.59082 0.96131 0.02077 0.0
C1869 C 0.58391 0.91041 0.97876 0.0
C1870 C 0.56663 0.02195 0.06064 0.0
C1871 C 0.57582 1.00735 0.05765 0.0
C1872 C 0.57175 0.95602 0.05268 0.0
C1873 C 0.58878 0.9273 0.01206 0.0
C1874 C 0.58623 0.94346 0.02565 0.0
C1875 C 0.56685 0.989 0.05532 0.0
C1876 C 0.57532 0.9737 0.04693 0.0
H1877 H 0.6004 0.88487 0.01216 0.0
H1878 H 0.59939 0.91277 0.03492 0.0
H1879 H 0.57342 0.92739 0.04621 0.0
H1880 H 0.52561 0.99727 0.06214 0.0
H1881 H 0.54152 0.97169 0.05641 0.0
C1882 C 0.93979 0.79503 0.70514 0.0
C1883 C 0.94842 0.78005 0.70088 0.0
C1884 C 0.93148 0.79677 0.7222 0.0
C1885 C 0.91405 0.77157 0.76138 0.0
H1886 H 0.92097 0.82084 0.79045 0.0
C1887 C 0.87997 0.78576 0.83096 0.0
C1888 C 0.87195 0.80149 0.83159 0.0
C1889 C 0.89235 0.78316 0.81786 0.0
C1890 C 0.91881 0.807 0.78249 0.0
H1891 H 0.95444 0.75471 0.71062 0.0
H1892 H 0.93995 0.75779 0.74044 0.0
H1893 H 0.935 0.81561 0.76071 0.0
H1894 H 0.87089 0.82695 0.81919 0.0
H1895 H 0.89204 0.82239 0.79643 0.0
H1896 H 0.89795 0.76297 0.78319 0.0
C1897 C 0.93954 0.76815 0.73058 0.0
C1898 C 0.92681 0.80402 0.76538 0.0
C1899 C 0.94783 0.76638 0.71349 0.0
C1900 C 0.87713 0.8149 0.81949 0.0
C1901 C 0.88932 0.81225 0.80635 0.0
C1902 C 0.90608 0.77456 0.77856 0.0
C1903 C 0.93166 0.78361 0.73538 0.0
C1904 C 0.92411 0.78638 0.75431 0.0
C1905 C 0.89682 0.79616 0.805 0.0
C1906 C 0.90782 0.79242 0.78893 0.0
H1907 H 0.93998 0.80575 0.69567 0.0
H1908 H 0.92515 0.80862 0.72524 0.0
H1909 H 0.91178 0.75778 0.75326 0.0
H1910 H 0.87625 0.7752 0.84014 0.0
H1911 H 0.89804 0.77073 0.81745 0.0
C1912 C 0.1511 0.05587 0.89641 0.0
C1913 C 0.14325 0.05218 0.87645 0.0
C1914 C 0.14068 0.0566 0.91224 0.0
C1915 C 0.09415 0.06098 0.92352 0.0
H1916 H 0.10991 0.04665 0.97407 0.0
C1917 C 0.05677 0.07442 0.99253 0.0
C1918 C 0.05632 0.06244 1.00708 0.0
C1919 C 0.06699 0.0725 0.97675 0.0
C1920 C 0.1051 0.05059 0.96006 0.0
H1921 H 0.11789 0.0462 0.85796 0.0
H1922 H 0.09994 0.04722 0.88509 0.0
H1923 H 0.12806 0.04455 0.9471 0.0
H1924 H 0.06664 0.03876 0.0159 0.0
H1925 H 0.08424 0.03519 0.98834 0.0
H1926 H 0.07108 0.06671 0.93625 0.0
C1927 C 0.11419 0.04991 0.88876 0.0
C1928 C 0.11575 0.04961 0.94447 0.0
C1929 C 0.12459 0.04917 0.873 0.0
C1930 C 0.06642 0.04823 1.00503 0.0
C1931 C 0.07675 0.04633 0.98921 0.0
C1932 C 0.08355 0.062 0.93908 0.0
C1933 C 0.12194 0.05371 0.9088 0.0
C1934 C 0.11055 0.05478 0.92579 0.0
C1935 C 0.07737 0.0585 0.97472 0.0
C1936 C 0.08874 0.05689 0.95778 0.0
H1937 H 0.16537 0.05832 0.89986 0.0
H1938 H 0.14743 0.05978 0.92724 0.0
H1939 H 0.08949 0.06538 0.9097 0.0
H1940 H 0.04939 0.08566 0.99351 0.0
H1941 H 0.06708 0.08245 0.9664 0.0
C1942 C 0.73801 0.37534 0.61005 0.0
C1943 C 0.73491 0.39358 0.61152 0.0
C1944 C 0.74323 0.36778 0.62707 0.0
C1945 C 0.74433 0.37425 0.68175 0.0
H1946 H 0.78213 0.34564 0.6809 0.0
C1947 C 0.77794 0.35542 0.75366 0.0
C1948 C 0.78125 0.33732 0.75348 0.0
C1949 C 0.77296 0.36203 0.73601 0.0
C1950 C 0.77144 0.35344 0.68134 0.0
H1951 H 0.73456 0.41808 0.63203 0.0
H1952 H 0.74366 0.40496 0.66162 0.0
H1953 H 0.77122 0.35709 0.65076 0.0
H1954 H 0.78254 0.31219 0.73443 0.0
H1955 H 0.77375 0.32372 0.70358 0.0
H1956 H 0.74451 0.37065 0.71226 0.0
C1957 C 0.74193 0.39639 0.64738 0.0
C1958 C 0.76516 0.35998 0.66404 0.0
C1959 C 0.73676 0.40395 0.63039 0.0
C1960 C 0.78016 0.32623 0.73512 0.0
C1961 C 0.77512 0.33285 0.71741 0.0
C1962 C 0.75059 0.36772 0.699 0.0
C1963 C 0.7454 0.37827 0.64594 0.0
C1964 C 0.75161 0.37059 0.66407 0.0
C1965 C 0.77108 0.35071 0.71768 0.0
C1966 C 0.76434 0.35736 0.69909 0.0
H1967 H 0.73672 0.36701 0.59571 0.0
H1968 H 0.74558 0.35371 0.62543 0.0
H1969 H 0.73367 0.38207 0.68224 0.0
H1970 H 0.77878 0.36442 0.7675 0.0
H1971 H 0.77036 0.376 0.73676 0.0
C1972 C 0.45914 0.1311 0.37415 0.0
C1973 C 0.46264 0.1212 0.35664 0.0
C1974 C 0.46648 0.12773 0.39272 0.0
C1975 C 0.4803 0.08998 0.41611 0.0
H1976 H 0.50131 0.12693 0.46086 0.0
C1977 C 0.48644 0.07399 0.49633 0.0
C1978 C 0.50333 0.07881 0.50735 0.0
C1979 C 0.48296 0.08028 0.47815 0.0
C1980 C 0.49556 0.11649 0.44844 0.0
H1981 H 0.47719 0.1006 0.34491 0.0
H1982 H 0.48972 0.0946 0.37722 0.0
H1983 H 0.49301 0.1365 0.42848 0.0
H1984 H 0.52975 0.09439 0.50827 0.0
H1985 H 0.52349 0.1059 0.47644 0.0
H1986 H 0.4823 0.07003 0.43606 0.0
C1987 C 0.48132 0.10494 0.3766 0.0
C1988 C 0.49072 0.12196 0.42998 0.0
C1989 C 0.4742 0.10846 0.35809 0.0
C1990 C 0.51662 0.09046 0.50004 0.0
C1991 C 0.51303 0.09707 0.48191 0.0
C1992 C 0.48481 0.08457 0.43456 0.0
C1993 C 0.47724 0.11424 0.39412 0.0
C1994 C 0.48303 0.10873 0.41364 0.0
C1995 C 0.49621 0.0918 0.47068 0.0
C1996 C 0.4924 0.09775 0.45094 0.0
H1997 H 0.45027 0.14099 0.37352 0.0
H1998 H 0.46304 0.13505 0.40598 0.0
H1999 H 0.47425 0.07948 0.40386 0.0
H2000 H 0.47592 0.06505 0.5016 0.0
H2001 H 0.46985 0.07614 0.46988 0.0
C2002 C 0.76804 0.69611 0.04549 0.0
C2003 C 0.77912 0.68333 0.04126 0.0
C2004 C 0.77303 0.71013 0.06148 0.0
C2005 C 0.79978 0.72116 0.10978 0.0
H2006 H 0.78952 0.7702 0.10591 0.0
C2007 C 0.80695 0.77578 0.17875 0.0
C2008 C 0.79195 0.78412 0.18025 0.0
C2009 C 0.80912 0.76568 0.1609 0.0
C2010 C 0.79249 0.75658 0.10721 0.0
H2011 H 0.80421 0.67522 0.05026 0.0
H2012 H 0.8129 0.69974 0.0785 0.0
H2013 H 0.78634 0.74796 0.07598 0.0
H2014 H 0.76763 0.78863 0.16406 0.0
H2015 H 0.77145 0.7712 0.13307 0.0
H2016 H 0.80523 0.72951 0.1411 0.0
C2017 C 0.80035 0.69887 0.06938 0.0
C2018 C 0.79067 0.74387 0.0901 0.0
C2019 C 0.79539 0.68489 0.05324 0.0
C2020 C 0.7795 0.78268 0.16335 0.0
C2021 C 0.78169 0.77267 0.14555 0.0
C2022 C 0.80157 0.73387 0.12692 0.0
C2023 C 0.78919 0.7116 0.07365 0.0
C2024 C 0.79376 0.72586 0.09129 0.0
C2025 C 0.79636 0.76382 0.14421 0.0
C2026 C 0.79741 0.75152 0.12586 0.0
H2027 H 0.75543 0.69526 0.03649 0.0
H2028 H 0.76402 0.71955 0.06461 0.0
H2029 H 0.80214 0.70733 0.11115 0.0
H2030 H 0.81691 0.77687 0.19144 0.0
H2031 H 0.82064 0.75915 0.16023 0.0
C2032 C 0.15129 0.0599 0.75559 0.0
C2033 C 0.14443 0.0487 0.76919 0.0
C2034 C 0.14124 0.06078 0.73741 0.0
C2035 C 0.10366 0.03531 0.70065 0.0
H2036 H 0.10208 0.08292 0.68314 0.0
C2037 C 0.07297 0.04373 0.62083 0.0
C2038 C 0.06212 0.05719 0.61918 0.0
C2039 C 0.08264 0.04237 0.63908 0.0
C2040 C 0.1023 0.06949 0.68778 0.0
H2041 H 0.12154 0.0294 0.77392 0.0
H2042 H 0.10423 0.03054 0.74205 0.0
H2043 H 0.11959 0.08108 0.71459 0.0
H2044 H 0.05321 0.07986 0.63585 0.0
H2045 H 0.07032 0.07773 0.66746 0.0
H2046 H 0.08654 0.02371 0.6737 0.0
C2047 C 0.11738 0.03877 0.74551 0.0
C2048 C 0.1125 0.06842 0.70581 0.0
C2049 C 0.12731 0.03816 0.76386 0.0
C2050 C 0.06132 0.06927 0.63643 0.0
C2051 C 0.07126 0.06812 0.6546 0.0
C2052 C 0.09372 0.03635 0.68244 0.0
C2053 C 0.12411 0.05023 0.73204 0.0
C2054 C 0.1133 0.05132 0.71261 0.0
C2055 C 0.08208 0.05464 0.65626 0.0
C2056 C 0.0928 0.05347 0.67572 0.0
H2057 H 0.16437 0.06827 0.75914 0.0
H2058 H 0.147 0.06964 0.72744 0.0
H2059 H 0.10399 0.02188 0.70524 0.0
H2060 H 0.07397 0.03415 0.60797 0.0
H2061 H 0.09088 0.03188 0.63965 0.0
C2062 C 0.72367 0.37148 0.50011 0.0
C2063 C 0.72875 0.39075 0.50448 0.0
C2064 C 0.72813 0.36192 0.48294 0.0
C2065 C 0.76172 0.36638 0.44875 0.0
H2066 H 0.7297 0.32756 0.41337 0.0
C2067 C 0.78638 0.32442 0.38451 0.0
C2068 C 0.77621 0.32281 0.36591 0.0
C2069 C 0.77968 0.3305 0.40183 0.0
C2070 C 0.73879 0.33837 0.42313 0.0
H2071 H 0.7419 0.41513 0.49383 0.0
H2072 H 0.74962 0.39855 0.46414 0.0
H2073 H 0.71927 0.343 0.44237 0.0
H2074 H 0.75066 0.3253 0.35099 0.0
H2075 H 0.73893 0.3358 0.38123 0.0
H2076 H 0.78118 0.362 0.42957 0.0
C2077 C 0.74237 0.39076 0.474 0.0
C2078 C 0.73285 0.34712 0.4398 0.0
C2079 C 0.73781 0.40028 0.49098 0.0
C2080 C 0.75884 0.32644 0.36511 0.0
C2081 C 0.75209 0.3324 0.38245 0.0
C2082 C 0.7677 0.35752 0.43228 0.0
C2083 C 0.73791 0.37144 0.46995 0.0
C2084 C 0.7442 0.36141 0.45266 0.0
C2085 C 0.7626 0.33497 0.40099 0.0
C2086 C 0.7563 0.34351 0.41914 0.0
H2087 H 0.71674 0.36373 0.51024 0.0
H2088 H 0.72453 0.34703 0.48025 0.0
H2089 H 0.77087 0.37717 0.45847 0.0
H2090 H 0.79977 0.32167 0.38564 0.0
H2091 H 0.78803 0.33206 0.41589 0.0
C2092 C 0.47415 0.11613 0.25038 0.0
C2093 C 0.45613 0.10943 0.25086 0.0
C2094 C 0.48222 0.11134 0.23361 0.0
C2095 C 0.47563 0.07665 0.18817 0.0
H2096 H 0.51148 0.11183 0.17063 0.0
C2097 C 0.498 0.06689 0.1105 0.0
C2098 C 0.51623 0.07103 0.10918 0.0
C2099 C 0.49152 0.07085 0.12849 0.0
C2100 C 0.50162 0.10179 0.17549 0.0
H2101 H 0.43232 0.09291 0.23397 0.0
H2102 H 0.44613 0.08507 0.20463 0.0
H2103 H 0.4984 0.12068 0.20041 0.0
H2104 H 0.54197 0.08244 0.12583 0.0
H2105 H 0.53057 0.08952 0.15728 0.0
H2106 H 0.47853 0.05797 0.1629 0.0
C2107 C 0.45426 0.09355 0.21733 0.0
C2108 C 0.49413 0.10684 0.19259 0.0
C2109 C 0.44627 0.09818 0.23412 0.0
C2110 C 0.52786 0.07899 0.12636 0.0
C2111 C 0.52134 0.08319 0.14433 0.0
C2112 C 0.48298 0.07169 0.17099 0.0
C2113 C 0.47239 0.09987 0.2169 0.0
C2114 C 0.48091 0.09438 0.19908 0.0
C2115 C 0.50308 0.07925 0.14555 0.0
C2116 C 0.49596 0.08424 0.16438 0.0
H2117 H 0.4821 0.12477 0.2631 0.0
H2118 H 0.49624 0.11633 0.23394 0.0
H2119 H 0.46581 0.0665 0.19292 0.0
H2120 H 0.48867 0.06075 0.09755 0.0
H2121 H 0.47738 0.06779 0.12892 0.0
C2122 C 0.75783 0.68947 0.94766 0.0
C2123 C 0.75943 0.6708 0.94411 0.0
C2124 C 0.75704 0.69998 0.93215 0.0
C2125 C 0.74683 0.69689 0.8782 0.0
H2126 H 0.77447 0.74639 0.88674 0.0
C2127 C 0.75561 0.74157 0.81527 0.0
C2128 C 0.75537 0.76048 0.81969 0.0
C2129 C 0.75557 0.73038 0.83027 0.0
C2130 C 0.76649 0.7327 0.8842 0.0
H2131 H 0.76123 0.64841 0.92151 0.0
H2132 H 0.75988 0.66692 0.89418 0.0
H2133 H 0.77569 0.72702 0.91301 0.0
H2134 H 0.75453 0.78255 0.84307 0.0
H2135 H 0.75428 0.76296 0.86938 0.0
H2136 H 0.73758 0.70261 0.84938 0.0
C2137 C 0.75916 0.67333 0.90904 0.0
C2138 C 0.76723 0.72158 0.89923 0.0
C2139 C 0.76 0.66277 0.92465 0.0
C2140 C 0.75481 0.76801 0.83932 0.0
C2141 C 0.75476 0.75681 0.85435 0.0
C2142 C 0.74606 0.70804 0.86315 0.0
C2143 C 0.75782 0.69209 0.91269 0.0
C2144 C 0.75736 0.70359 0.89642 0.0
C2145 C 0.75526 0.73789 0.85001 0.0
C2146 C 0.75586 0.72608 0.86602 0.0
H2147 H 0.75727 0.69604 0.9625 0.0
H2148 H 0.75571 0.7143 0.9354 0.0
H2149 H 0.73891 0.68317 0.8757 0.0
H2150 H 0.75611 0.73543 0.80025 0.0
H2151 H 0.75619 0.71593 0.82646 0.0
C2152 C 0.90114 0.18815 0.05302 0.0
C2153 C 0.88362 0.17983 0.05402 0.0
C2154 C 0.91421 0.1773 0.0502 0.0
C2155 C 0.92384 0.13014 0.0544 0.0
H2156 H 0.9598 0.14375 0.02088 0.0
C2157 C 0.97517 0.08359 0.03747 0.0
C2158 C 0.99279 0.0929 0.0402 0.0
C2159 C 0.96117 0.09354 0.03655 0.0
C2160 C 0.94987 0.13978 0.03033 0.0
H2161 H 0.8661 0.1536 0.05278 0.0
H2162 H 0.88864 0.13482 0.04765 0.0
H2163 H 0.93719 0.1628 0.02548 0.0
H2164 H 1.00952 0.11978 0.04278 0.0
H2165 H 0.98529 0.13697 0.04101 0.0
H2166 H 0.93657 0.1072 0.05934 0.0
C2167 C 0.89248 0.14968 0.04937 0.0
C2168 C 0.93695 0.15077 0.03307 0.0
C2169 C 0.87949 0.16049 0.05222 0.0
C2170 C 0.99608 0.11218 0.04072 0.0
C2171 C 0.98215 0.12207 0.03962 0.0
C2172 C 0.9367 0.11913 0.0516 0.0
C2173 C 0.91003 0.15789 0.0483 0.0
C2174 C 0.92381 0.14617 0.04524 0.0
C2175 C 0.96453 0.11296 0.03811 0.0
C2176 C 0.94998 0.12386 0.03965 0.0
H2177 H 0.90474 0.20302 0.05434 0.0
H2178 H 0.92763 0.18414 0.04972 0.0
H2179 H 0.91413 0.12628 0.06413 0.0
H2180 H 0.97221 0.06877 0.03714 0.0
H2181 H 0.94772 0.08608 0.03512 0.0
C2182 C 0.35945 0.51781 0.11757 0.0
C2183 C 0.35041 0.49973 0.111 0.0
C2184 C 0.37718 0.52293 0.11473 0.0
C2185 C 0.40958 0.50849 0.08292 0.0
H2186 H 0.44469 0.54047 0.12217 0.0
C2187 C 0.48321 0.51643 0.07548 0.0
C2188 C 0.49283 0.53446 0.07784 0.0
C2189 C 0.46625 0.5131 0.08099 0.0
C2190 C 0.43496 0.53165 0.11104 0.0
H2191 H 0.35299 0.47266 0.09706 0.0
H2192 H 0.38383 0.48142 0.0925 0.0
H2193 H 0.41407 0.53287 0.12913 0.0
H2194 H 0.49273 0.56309 0.08864 0.0
H2195 H 0.46285 0.55724 0.09839 0.0
H2196 H 0.43039 0.50704 0.06494 0.0
C2197 C 0.37721 0.49182 0.09937 0.0
C2198 C 0.41745 0.52733 0.11499 0.0
C2199 C 0.35954 0.48675 0.1021 0.0
C2200 C 0.4855 0.54907 0.08659 0.0
C2201 C 0.46848 0.54572 0.09223 0.0
C2202 C 0.42702 0.5127 0.07905 0.0
C2203 C 0.38616 0.51004 0.10531 0.0
C2204 C 0.40462 0.51548 0.10106 0.0
C2205 C 0.45856 0.52773 0.08905 0.0
C2206 C 0.43994 0.52412 0.09314 0.0
H2207 H 0.35271 0.52809 0.12448 0.0
H2208 H 0.38367 0.5371 0.11938 0.0
H2209 H 0.39996 0.49974 0.07164 0.0
H2210 H 0.48861 0.50491 0.0689 0.0
H2211 H 0.45903 0.49906 0.07869 0.0
C2212 C 0.37909 0.64165 0.81162 0.0
C2213 C 0.37188 0.62626 0.79721 0.0
C2214 C 0.37157 0.65791 0.81325 0.0
C2215 C 0.33027 0.6776 0.7961 0.0
H2216 H 0.36006 0.72412 0.81858 0.0
C2217 C 0.29983 0.74562 0.81121 0.0
C2218 C 0.31029 0.76313 0.81121 0.0
C2219 C 0.30713 0.72917 0.80961 0.0
C2220 C 0.35136 0.71142 0.81205 0.0
H2221 H 0.35069 0.61659 0.77311 0.0
H2222 H 0.33784 0.64474 0.77557 0.0
H2223 H 0.37272 0.69624 0.81498 0.0
H2224 H 0.33708 0.77636 0.80927 0.0
H2225 H 0.3496 0.74818 0.80618 0.0
H2226 H 0.30903 0.69294 0.79258 0.0
C2227 C 0.34923 0.64427 0.78604 0.0
C2228 C 0.35872 0.69504 0.81023 0.0
C2229 C 0.35674 0.62793 0.78448 0.0
C2230 C 0.32842 0.76338 0.80954 0.0
C2231 C 0.33571 0.74695 0.80785 0.0
C2232 C 0.32293 0.69402 0.79785 0.0
C2233 C 0.35644 0.65977 0.80048 0.0
C2234 C 0.3484 0.67761 0.80225 0.0
C2235 C 0.32529 0.72932 0.80782 0.0
C2236 C 0.33324 0.71144 0.8059 0.0
H2237 H 0.39064 0.64113 0.82186 0.0
H2238 H 0.37762 0.66897 0.8249 0.0
H2239 H 0.3215 0.6648 0.79007 0.0
H2240 H 0.28585 0.74455 0.81244 0.0
H2241 H 0.29839 0.71629 0.81003 0.0
C2242 C 0.2809 0.67037 0.54664 0.0
C2243 C 0.29522 0.67269 0.56172 0.0
C2244 C 0.26508 0.65866 0.54788 0.0
C2245 C 0.23927 0.63839 0.58426 0.0
H2246 H 0.21166 0.60809 0.53776 0.0
C2247 C 0.17165 0.59449 0.58883 0.0
C2248 C 0.158 0.59616 0.57421 0.0
C2249 C 0.18931 0.60089 0.5868 0.0
C2250 C 0.21921 0.61652 0.55086 0.0
H2251 H 0.30442 0.66433 0.58971 0.0
H2252 H 0.27678 0.64378 0.59185 0.0
H2253 H 0.24103 0.62504 0.53527 0.0
H2254 H 0.1522 0.60539 0.54573 0.0
H2255 H 0.18295 0.61655 0.54218 0.0
H2256 H 0.21733 0.63027 0.59975 0.0
C2257 C 0.27772 0.65116 0.57917 0.0
C2258 C 0.236 0.62623 0.54943 0.0
C2259 C 0.29355 0.66287 0.57792 0.0
C2260 C 0.16242 0.60366 0.55713 0.0
C2261 C 0.18006 0.61007 0.5551 0.0
C2262 C 0.22248 0.62869 0.58568 0.0
C2263 C 0.26327 0.64904 0.56423 0.0
C2264 C 0.2461 0.6375 0.56605 0.0
C2265 C 0.19367 0.60911 0.5701 0.0
C2266 C 0.21215 0.61787 0.56893 0.0
H2267 H 0.28181 0.67778 0.53397 0.0
H2268 H 0.25412 0.65753 0.53627 0.0
H2269 H 0.24661 0.64714 0.59727 0.0
H2270 H 0.16866 0.58852 0.60202 0.0
H2271 H 0.19953 0.59969 0.59845 0.0
C2272 C 0.6717 0.95714 0.824 0.0
C2273 C 0.65662 0.95513 0.80994 0.0
C2274 C 0.68031 0.94223 0.82656 0.0
C2275 C 0.67502 0.89103 0.81473 0.0
H2276 H 0.72636 0.90107 0.82306 0.0
C2277 C 0.71905 0.83651 0.79825 0.0
C2278 C 0.73405 0.83663 0.81191 0.0
C2279 C 0.70861 0.85012 0.80083 0.0
C2280 C 0.71202 0.89808 0.82104 0.0
H2281 H 0.63858 0.93585 0.78771 0.0
H2282 H 0.65385 0.9099 0.79174 0.0
H2283 H 0.71016 0.92656 0.82162 0.0
H2284 H 0.74946 0.85082 0.83935 0.0
H2285 H 0.7312 0.87473 0.8437 0.0
H2286 H 0.67709 0.86248 0.81345 0.0
C2287 C 0.65886 0.92289 0.80113 0.0
C2288 C 0.70269 0.9127 0.82023 0.0
C2289 C 0.65014 0.93779 0.79871 0.0
C2290 C 0.73795 0.85027 0.82861 0.0
C2291 C 0.72759 0.86403 0.83104 0.0
C2292 C 0.68439 0.87642 0.81535 0.0
C2293 C 0.67417 0.92495 0.81498 0.0
C2294 C 0.68405 0.90938 0.81685 0.0
C2295 C 0.71296 0.86424 0.81701 0.0
C2296 C 0.70298 0.87977 0.81828 0.0
H2297 H 0.67694 0.9703 0.83301 0.0
H2298 H 0.69181 0.9443 0.83765 0.0
H2299 H 0.6607 0.88792 0.81252 0.0
H2300 H 0.71565 0.82619 0.78523 0.0
H2301 H 0.6976 0.85017 0.78967 0.0
C2302 C 0.75086 0.01532 0.62013 0.0
C2303 C 0.76636 0.0172 0.611 0.0
C2304 C 0.73865 0.02703 0.61709 0.0
C2305 C 0.72337 0.05426 0.57977 0.0
H2306 H 0.69594 0.07164 0.61992 0.0
C2307 C 0.66555 0.0918 0.55989 0.0
C2308 C 0.64995 0.08578 0.56786 0.0
C2309 C 0.68155 0.08692 0.56711 0.0
C2310 C 0.70345 0.06683 0.60852 0.0
H2311 H 0.78169 0.03336 0.59232 0.0
H2312 H 0.76038 0.05386 0.58707 0.0
H2313 H 0.72093 0.0567 0.62936 0.0
H2314 H 0.63897 0.07011 0.58984 0.0
H2315 H 0.66669 0.06151 0.60227 0.0
H2316 H 0.70559 0.0637 0.55881 0.0
C2317 C 0.75757 0.0432 0.59639 0.0
C2318 C 0.71777 0.0583 0.61394 0.0
C2319 C 0.76981 0.03153 0.59949 0.0
C2320 C 0.6508 0.07527 0.58361 0.0
C2321 C 0.66674 0.07034 0.59076 0.0
C2322 C 0.70903 0.0627 0.57434 0.0
C2323 C 0.74168 0.04082 0.60481 0.0
C2324 C 0.72769 0.05164 0.59957 0.0
C2325 C 0.68225 0.07582 0.58237 0.0
C2326 C 0.69868 0.06879 0.58858 0.0
H2327 H 0.74785 1.00439 0.62907 0.0
H2328 H 0.72646 0.02473 0.62363 0.0
H2329 H 0.73059 0.04903 0.56829 0.0
H2330 H 0.66535 0.10009 0.5479 0.0
H2331 H 0.69331 0.09161 0.56052 0.0
C2332 C 0.35113 0.51569 0.79262 0.0
C2333 C 0.3697 0.52101 0.79438 0.0
C2334 C 0.34311 0.49729 0.79395 0.0
C2335 C 0.35344 0.44842 0.79319 0.0
H2336 H 0.30835 0.43783 0.81314 0.0
C2337 C 0.32744 0.37544 0.81389 0.0
C2338 C 0.3092 0.3679 0.81065 0.0
C2339 C 0.33386 0.39378 0.81115 0.0
C2340 C 0.32088 0.44039 0.80733 0.0
H2341 H 0.39419 0.51058 0.79924 0.0
H2342 H 0.38057 0.47918 0.80195 0.0
H2343 H 0.3211 0.46965 0.81016 0.0
H2344 H 0.28344 0.37448 0.80187 0.0
H2345 H 0.29459 0.40658 0.79718 0.0
H2346 H 0.35334 0.41926 0.79058 0.0
C2347 C 0.37192 0.48892 0.79902 0.0
C2348 C 0.32829 0.45887 0.80556 0.0
C2349 C 0.37988 0.50721 0.7976 0.0
C2350 C 0.29756 0.3796 0.80452 0.0
C2351 C 0.30402 0.39816 0.80194 0.0
C2352 C 0.34611 0.43005 0.79508 0.0
C2353 C 0.35332 0.48339 0.79716 0.0
C2354 C 0.34487 0.4634 0.7986 0.0
C2355 C 0.32237 0.40566 0.80514 0.0
C2356 C 0.32972 0.42555 0.80235 0.0
H2357 H 0.34271 0.52576 0.79015 0.0
H2358 H 0.32881 0.49397 0.79216 0.0
H2359 H 0.36589 0.45076 0.78721 0.0
H2360 H 0.33695 0.36709 0.81866 0.0
H2361 H 0.34799 0.39873 0.81416 0.0
C2362 C 0.15903 0.56485 0.29682 0.0
C2363 C 0.16469 0.54785 0.29316 0.0
C2364 C 0.17038 0.5813 0.29592 0.0
C2365 C 0.20953 0.60106 0.27476 0.0
H2366 H 0.21145 0.64199 0.31621 0.0
C2367 C 0.25619 0.67142 0.27801 0.0
C2368 C 0.24899 0.68723 0.28339 0.0
C2369 C 0.24698 0.65388 0.27958 0.0
C2370 C 0.21095 0.63076 0.30441 0.0
H2371 H 0.18658 0.53469 0.28542 0.0
H2372 H 0.20649 0.56362 0.28371 0.0
H2373 H 0.19337 0.61229 0.3181 0.0
H2374 H 0.22625 0.69703 0.29398 0.0
H2375 H 0.21016 0.66657 0.29653 0.0
H2376 H 0.22683 0.61968 0.26085 0.0
C2377 C 0.19324 0.56413 0.28727 0.0
C2378 C 0.20062 0.61374 0.30553 0.0
C2379 C 0.18188 0.54761 0.28832 0.0
C2380 C 0.23232 0.68514 0.29012 0.0
C2381 C 0.22311 0.66766 0.29161 0.0
C2382 C 0.21982 0.61816 0.27358 0.0
C2383 C 0.18762 0.58114 0.29123 0.0
C2384 C 0.19959 0.59879 0.29058 0.0
C2385 C 0.23036 0.65182 0.28648 0.0
C2386 C 0.22043 0.63329 0.28826 0.0
H2387 H 0.14584 0.56548 0.30053 0.0
H2388 H 0.16559 0.59419 0.29875 0.0
H2389 H 0.20888 0.58979 0.26296 0.0
H2390 H 0.26907 0.67263 0.27291 0.0
H2391 H 0.253 0.64197 0.27568 0.0
C2392 C 0.54529 0.76698 0.41362 0.0
C2393 C 0.5478 0.78573 0.42144 0.0
C2394 C 0.54745 0.75357 0.42607 0.0
C2395 C 0.54904 0.74586 0.47896 0.0
H2396 H 0.57071 0.70427 0.46127 0.0
C2397 C 0.56713 0.69357 0.53117 0.0
C2398 C 0.56321 0.6748 0.52316 0.0
C2399 C 0.56583 0.70732 0.51894 0.0
C2400 C 0.56449 0.71571 0.4664 0.0
H2401 H 0.55465 0.80512 0.4485 0.0
H2402 H 0.55866 0.78188 0.47012 0.0
H2403 H 0.56709 0.72758 0.43962 0.0
H2404 H 0.5554 0.65587 0.49583 0.0
H2405 H 0.55296 0.67972 0.47465 0.0
H2406 H 0.54648 0.73397 0.50576 0.0
C2407 C 0.55473 0.77741 0.45442 0.0
C2408 C 0.56237 0.72909 0.45394 0.0
C2409 C 0.55253 0.79078 0.44199 0.0
C2410 C 0.5583 0.67017 0.50257 0.0
C2411 C 0.55709 0.68388 0.49036 0.0
C2412 C 0.5512 0.7325 0.49144 0.0
C2413 C 0.55222 0.7586 0.44667 0.0
C2414 C 0.55456 0.74434 0.46 0.0
C2415 C 0.56072 0.70265 0.49837 0.0
C2416 C 0.5589 0.7172 0.48531 0.0
H2417 H 0.54159 0.76262 0.39787 0.0
H2418 H 0.54516 0.73923 0.41956 0.0
H2419 H 0.54271 0.75722 0.48407 0.0
H2420 H 0.57085 0.69764 0.54696 0.0
H2421 H 0.56892 0.72164 0.5256 0.0
C2422 C 0.58702 0.29086 0.76777 0.0
C2423 C 0.58139 0.30478 0.75767 0.0
C2424 C 0.60512 0.29143 0.77416 0.0
C2425 C 0.6506 0.31326 0.76512 0.0
H2426 H 0.6659 0.29434 0.81318 0.0
C2427 C 0.72564 0.31986 0.79437 0.0
C2428 C 0.73112 0.30485 0.80256 0.0
C2429 C 0.70751 0.32053 0.78988 0.0
C2430 C 0.66194 0.29953 0.79958 0.0
H2431 H 0.59062 0.33045 0.74682 0.0
H2432 H 0.62187 0.33166 0.7582 0.0
H2433 H 0.6345 0.29414 0.80372 0.0
H2434 H 0.72159 0.27896 0.8128 0.0
H2435 H 0.69022 0.28008 0.80502 0.0
H2436 H 0.67801 0.3186 0.76095 0.0
C2437 C 0.61243 0.32004 0.76092 0.0
C2438 C 0.64378 0.2994 0.79411 0.0
C2439 C 0.59438 0.31945 0.75452 0.0
C2440 C 0.71793 0.29078 0.80657 0.0
C2441 C 0.69984 0.29148 0.80216 0.0
C2442 C 0.66874 0.31342 0.77061 0.0
C2443 C 0.61821 0.30593 0.77066 0.0
C2444 C 0.63774 0.30623 0.77674 0.0
C2445 C 0.69425 0.30625 0.79351 0.0
C2446 C 0.67478 0.30652 0.78792 0.0
H2447 H 0.57748 0.27926 0.77035 0.0
H2448 H 0.60886 0.28016 0.78137 0.0
H2449 H 0.64667 0.31833 0.75144 0.0
H2450 H 0.73537 0.33095 0.79106 0.0
H2451 H 0.70391 0.33231 0.78354 0.0
C2452 C 0.047 0.39323 0.91149 0.0
C2453 C 0.04068 0.37656 0.91832 0.0
C2454 C 0.04635 0.4102 0.92257 0.0
C2455 C 0.02297 0.43115 0.96127 0.0
H2456 H 0.06302 0.47137 0.96874 0.0
C2457 C 0.02658 0.49612 0.01793 0.0
C2458 C 0.03423 0.51334 0.01322 0.0
C2459 C 0.02735 0.47978 1.00582 0.0
C2460 C 0.0516 0.4604 0.96658 0.0
H2461 H 0.0288 0.36463 0.94218 0.0
H2462 H 0.02764 0.39414 0.96144 0.0
H2463 H 0.06443 0.44237 0.94855 0.0
H2464 H 0.04859 0.5268 0.99187 0.0
H2465 H 0.04963 0.49834 0.97053 0.0
H2466 H 1.01005 0.44909 0.9791 0.0
C2467 C 0.03298 0.39415 0.94746 0.0
C2468 C 0.05244 0.44374 0.95502 0.0
C2469 C 0.03375 0.37722 0.93647 0.0
C2470 C 0.04261 0.51379 0.99601 0.0
C2471 C 0.0433 0.49743 0.98381 0.0
C2472 C 0.02209 0.44781 0.97271 0.0
C2473 C 0.03922 0.41086 0.94065 0.0
C2474 C 0.03819 0.42884 0.95237 0.0
C2475 C 0.03568 0.48017 0.98856 0.0
C2476 C 0.03645 0.46263 0.9757 0.0
H2477 H 0.0524 0.39318 0.89755 0.0
H2478 H 0.05114 0.42281 0.91682 0.0
H2479 H 1.01163 0.42009 0.95924 0.0
H2480 H 0.02012 0.49518 0.03113 0.0
H2481 H 0.02162 0.4668 0.01021 0.0
C2482 C 0.97707 0.80132 0.26958 0.0
C2483 C 0.97915 0.79764 0.24941 0.0
C2484 C 0.96017 0.80178 0.27553 0.0
C2485 C 0.91447 0.8079 0.25641 0.0
H2486 H 0.90049 0.78597 0.30213 0.0
C2487 C 0.84186 0.80212 0.27473 0.0
C2488 C 0.83873 0.80334 0.29467 0.0
C2489 C 0.85883 0.80097 0.26945 0.0
C2490 C 0.90414 0.79245 0.28947 0.0
H2491 H 0.96477 0.79153 0.21976 0.0
H2492 H 0.93565 0.79245 0.23 0.0
H2493 H 0.93013 0.78538 0.29309 0.0
H2494 H 0.85138 0.8043 0.32466 0.0
H2495 H 0.88082 0.80279 0.31564 0.0
H2496 H 0.88876 0.81534 0.2529 0.0
C2497 C 0.94702 0.79508 0.24132 0.0
C2498 C 0.92126 0.79206 0.28424 0.0
C2499 C 0.96381 0.79443 0.23543 0.0
C2500 C 0.85313 0.80321 0.30912 0.0
C2501 C 0.87014 0.80225 0.30388 0.0
C2502 C 0.89743 0.80846 0.26173 0.0
C2503 C 0.94485 0.79881 0.26146 0.0
C2504 C 0.9267 0.79967 0.26753 0.0
C2505 C 0.8734 0.80121 0.28393 0.0
C2506 C 0.89183 0.80065 0.27831 0.0
H2507 H 0.98852 0.80389 0.28079 0.0
H2508 H 0.95915 0.80482 0.29116 0.0
H2509 H 0.91814 0.81422 0.24364 0.0
H2510 H 0.83117 0.80211 0.26311 0.0
H2511 H 0.86044 0.79979 0.25389 0.0
C2512 C 0.51264 0.34061 0.14043 0.0
C2513 C 0.49705 0.32791 0.13328 0.0
C2514 C 0.51878 0.35444 0.12949 0.0
C2515 C 0.50571 0.38066 0.08984 0.0
H2516 H 0.55621 0.39014 0.08681 0.0
C2517 C 0.53659 0.4361 0.04562 0.0
C2518 C 0.55142 0.44837 0.05598 0.0
C2519 C 0.5304 0.41959 0.05258 0.0
C2520 C 0.5421 0.38769 0.08757 0.0
H2521 H 0.47533 0.32007 0.1094 0.0
H2522 H 0.48611 0.34442 0.09017 0.0
H2523 H 0.54376 0.36532 0.1043 0.0
H2524 H 0.57203 0.45244 0.08099 0.0
H2525 H 0.56115 0.42374 0.09326 0.0
H2526 H 0.5041 0.40329 0.07345 0.0
C2527 C 0.49353 0.34364 0.1043 0.0
C2528 C 0.53497 0.37351 0.09761 0.0
C2529 C 0.48735 0.32973 0.11529 0.0
C2530 C 0.56049 0.44332 0.0728 0.0
C2531 C 0.55432 0.42681 0.07973 0.0
C2532 C 0.51285 0.39487 0.0798 0.0
C2533 C 0.50951 0.3559 0.11113 0.0
C2534 C 0.51675 0.37007 0.09918 0.0
C2535 C 0.53894 0.41501 0.06999 0.0
C2536 C 0.53117 0.39873 0.07884 0.0
H2537 H 0.52035 0.33962 0.15431 0.0
H2538 H 0.53091 0.36394 0.13537 0.0
H2539 H 0.49165 0.37841 0.09091 0.0
H2540 H 0.52922 0.43967 0.03271 0.0
H2541 H 0.51866 0.41065 0.04461 0.0
C2542 C 0.0336 0.36575 0.4217 0.0
C2543 C 0.03576 0.35126 0.43268 0.0
C2544 C 0.01771 0.36528 0.40963 0.0
C2545 C 0.97069 0.34314 0.40076 0.0
H2546 H 0.97323 0.35546 0.34755 0.0
C2547 C 0.90865 0.32995 0.34407 0.0
C2548 C 0.90576 0.34481 0.33392 0.0
C2549 C 0.92518 0.32988 0.35445 0.0
C2550 C 0.97233 0.35209 0.3624 0.0
H2551 H 0.02288 0.32524 0.44022 0.0
H2552 H 0.99519 0.3244 0.41917 0.0
H2553 H 1.00045 0.35812 0.37028 0.0
H2554 H 0.91834 0.37052 0.32541 0.0
H2555 H 0.94719 0.37057 0.34388 0.0
H2556 H 0.94262 0.33718 0.393 0.0
C2557 C 1.00569 0.33618 0.41994 0.0
C2558 C 0.98788 0.35369 0.37543 0.0
C2559 C 0.02156 0.33664 0.43196 0.0
C2560 C 0.9201 0.35901 0.33332 0.0
C2561 C 0.93665 0.35896 0.34377 0.0
C2562 C 0.95517 0.34155 0.38776 0.0
C2563 C 1.00369 0.35034 0.4084 0.0
C2564 C 0.98721 0.34919 0.39474 0.0
C2565 C 0.93917 0.34469 0.35498 0.0
C2566 C 0.95582 0.34594 0.36842 0.0
H2567 H 0.04434 0.3772 0.42198 0.0
H2568 H 0.01644 0.37653 0.40114 0.0
H2569 H 0.96972 0.33985 0.41563 0.0
H2570 H 0.89789 0.31886 0.345 0.0
H2571 H 0.92684 0.31852 0.36265 0.0
C2572 C 0.96883 0.72455 0.61212 0.0
C2573 C 0.98416 0.73787 0.61837 0.0
C2574 C 0.96928 0.70919 0.5983 0.0
C2575 C 0.99523 0.69075 0.56077 0.0
H2576 H 0.98257 0.64425 0.58064 0.0
C2577 C 0.03026 0.62959 0.54437 0.0
C2578 C 0.02178 0.61175 0.5461 0.0
C2579 C 0.02137 0.64448 0.54705 0.0
C2580 C 0.98573 0.65696 0.57442 0.0
H2581 H 1.01169 0.74614 0.61445 0.0
H2582 H 1.01241 0.71954 0.59031 0.0
H2583 H 0.9744 0.67192 0.59691 0.0
H2584 H 0.99691 0.5951 0.54991 0.0
H2585 H 0.98114 0.62096 0.55379 0.0
H2586 H 1.00704 0.67592 0.53862 0.0
C2587 C 1.00006 0.72088 0.59601 0.0
C2588 C 0.98107 0.67286 0.58385 0.0
C2589 C 0.9997 0.73601 0.60999 0.0
C2590 C 1.0038 0.60878 0.54872 0.0
C2591 C 0.99483 0.62363 0.5511 0.0
C2592 C 0.99973 0.6748 0.55118 0.0
C2593 C 0.98497 0.70716 0.59028 0.0
C2594 C 0.98641 0.69001 0.57762 0.0
C2595 C 1.00374 0.64177 0.55124 0.0
C2596 C 0.9957 0.65784 0.55841 0.0
H2597 H 0.95667 0.72571 0.61833 0.0
H2598 H 0.95747 0.69877 0.59412 0.0
H2599 H 0.9993 0.70381 0.55553 0.0
H2600 H 0.04411 0.63225 0.54231 0.0
H2601 H 0.02876 0.65822 0.54719 0.0
C2602 C 0.614 0.81517 0.89951 0.0
C2603 C 0.6153 0.83346 0.90847 0.0
C2604 C 0.62064 0.81139 0.88161 0.0
C2605 C 0.65074 0.83082 0.84813 0.0
H2606 H 0.62041 0.79461 0.80808 0.0
C2607 C 0.6715 0.81594 0.77138 0.0
C2608 C 0.67144 0.79716 0.76518 0.0
C2609 C 0.66196 0.82128 0.78658 0.0
C2610 C 0.62904 0.80471 0.81912 0.0
H2611 H 0.62536 0.86208 0.90623 0.0
H2612 H 0.63711 0.85545 0.87498 0.0
H2613 H 0.61079 0.80191 0.84042 0.0
H2614 H 0.65898 0.76934 0.76809 0.0
H2615 H 0.64287 0.77866 0.79505 0.0
H2616 H 0.66919 0.83328 0.82708 0.0
C2617 C 0.63093 0.84404 0.8818 0.0
C2618 C 0.62357 0.80884 0.83767 0.0
C2619 C 0.62424 0.84784 0.89972 0.0
C2620 C 0.65989 0.78393 0.77295 0.0
C2621 C 0.65047 0.78928 0.78831 0.0
C2622 C 0.65623 0.82665 0.82962 0.0
C2623 C 0.62878 0.8258 0.87229 0.0
C2624 C 0.63445 0.82181 0.85244 0.0
C2625 C 0.65219 0.80799 0.79599 0.0
C2626 C 0.64549 0.81347 0.81493 0.0
H2627 H 0.60722 0.80379 0.90592 0.0
H2628 H 0.61913 0.79716 0.87487 0.0
H2629 H 0.65949 0.84073 0.85925 0.0
H2630 H 0.67996 0.82661 0.76564 0.0
H2631 H 0.66297 0.83583 0.79166 0.0
C2632 C 0.42084 0.5653 0.72586 0.0
C2633 C 0.42691 0.57719 0.74379 0.0
C2634 C 0.43125 0.56452 0.71006 0.0
C2635 C 0.4704 0.59047 0.68981 0.0
H2636 H 0.46986 0.5433 0.65857 0.0
C2637 C 0.50634 0.58281 0.61755 0.0
C2638 C 0.51427 0.5671 0.61378 0.0
C2639 C 0.496 0.58475 0.63338 0.0
C2640 C 0.47035 0.55666 0.66711 0.0
H2641 H 0.44902 0.59774 0.75861 0.0
H2642 H 0.46695 0.59657 0.73125 0.0
H2643 H 0.45173 0.54519 0.6855 0.0
H2644 H 0.51741 0.54128 0.6244 0.0
H2645 H 0.49969 0.5446 0.65148 0.0
H2646 H 0.48912 0.60189 0.67138 0.0
C2647 C 0.45407 0.5878 0.72928 0.0
C2648 C 0.45967 0.55778 0.6826 0.0
C2649 C 0.44373 0.58842 0.74515 0.0
C2650 C 0.51164 0.55361 0.62661 0.0
C2651 C 0.50122 0.55545 0.64221 0.0
C2652 C 0.48095 0.58938 0.67413 0.0
C2653 C 0.44813 0.57574 0.71138 0.0
C2654 C 0.45949 0.57468 0.69442 0.0
C2655 C 0.49299 0.57096 0.64591 0.0
C2656 C 0.48128 0.57241 0.6625 0.0
H2657 H 0.40803 0.5564 0.72406 0.0
H2658 H 0.4259 0.55517 0.69665 0.0
H2659 H 0.47069 0.60383 0.69823 0.0
H2660 H 0.50784 0.59348 0.60805 0.0
H2661 H 0.48994 0.5969 0.63544 0.0
C2662 C 0.8359 0.25261 1.00624 0.0
C2663 C 0.837 0.23381 1.00552 0.0
C2664 C 0.83081 0.25981 0.98893 0.0
C2665 C 0.82665 0.25058 0.93417 0.0
H2666 H 0.79095 0.28177 0.93573 0.0
C2667 C 0.792 0.26896 0.86238 0.0
C2668 C 0.78911 0.28719 0.86235 0.0
C2669 C 0.79735 0.26262 0.8801 0.0
C2670 C 0.80107 0.27326 0.93505 0.0
H2671 H 0.83417 0.20799 0.98602 0.0
H2672 H 0.82546 0.22054 0.95592 0.0
H2673 H 0.80252 0.27117 0.96609 0.0
H2674 H 0.78906 0.31287 0.88109 0.0
H2675 H 0.79859 0.3019 0.91193 0.0
H2676 H 0.82536 0.2527 0.90322 0.0
C2677 C 0.82855 0.22975 0.96979 0.0
C2678 C 0.80772 0.2672 0.95249 0.0
C2679 C 0.83349 0.22254 0.98707 0.0
C2680 C 0.79107 0.29872 0.88056 0.0
C2681 C 0.79652 0.2924 0.89829 0.0
C2682 C 0.82008 0.25669 0.91677 0.0
C2683 C 0.82688 0.24841 0.97053 0.0
C2684 C 0.82049 0.25567 0.95222 0.0
C2685 C 0.80006 0.27436 0.89826 0.0
C2686 C 0.80709 0.268 0.91693 0.0
H2687 H 0.83848 0.26163 0.02025 0.0
H2688 H 0.82984 0.27429 0.98996 0.0
H2689 H 0.83666 0.24193 0.93349 0.0
H2690 H 0.79052 0.25966 0.84864 0.0
H2691 H 0.79953 0.24852 0.87952 0.0
C2692 C 0.08583 0.50535 0.2415 0.0
C2693 C 0.10147 0.49792 0.24323 0.0
C2694 C 0.07877 0.5095 0.22318 0.0
C2695 C 0.09394 0.52188 0.17669 0.0
H2696 H 0.04398 0.51762 0.15824 0.0
C2697 C 0.07022 0.56176 0.11534 0.0
C2698 C 0.05713 0.55223 0.10017 0.0
C2699 C 0.07428 0.55398 0.13246 0.0
C2700 C 0.05798 0.51877 0.16313 0.0
H2701 H 0.1213 0.48789 0.22687 0.0
H2702 H 0.1089 0.49484 0.19498 0.0
H2703 H 0.0532 0.50473 0.18823 0.0
H2704 H 0.03753 0.52736 0.0913 0.0
H2705 H 0.04468 0.51363 0.12141 0.0
H2706 H 0.09881 0.53588 0.15176 0.0
C2707 C 0.10226 0.49784 0.20781 0.0
C2708 C 0.06325 0.51153 0.18038 0.0
C2709 C 0.10931 0.49373 0.22608 0.0
C2710 C 0.04774 0.53496 0.10275 0.0
C2711 C 0.05179 0.52716 0.12 0.0
C2712 C 0.08869 0.52917 0.15959 0.0
C2713 C 0.08722 0.5063 0.20623 0.0
C2714 C 0.08132 0.51307 0.18741 0.0
C2715 C 0.06534 0.53646 0.1349 0.0
C2716 C 0.07066 0.52789 0.15269 0.0
H2717 H 0.0795 0.50877 0.25446 0.0
H2718 H 0.06723 0.51607 0.22253 0.0
H2719 H 0.10796 0.52357 0.18177 0.0
H2720 H 0.07757 0.57516 0.11386 0.0
H2721 H 0.08454 0.56168 0.1438 0.0
C2722 C 0.77608 0.93966 0.54291 0.0
C2723 C 0.77049 0.93879 0.56163 0.0
C2724 C 0.76928 0.92567 0.52725 0.0
C2725 C 0.75108 0.87647 0.51811 0.0
H2726 H 0.74722 0.88632 0.46367 0.0
C2727 C 0.771 0.83016 0.45522 0.0
C2728 C 0.76416 0.83073 0.4355 0.0
C2729 C 0.76504 0.84027 0.47081 0.0
C2730 C 0.74777 0.88315 0.47872 0.0
H2731 H 0.75282 0.92304 0.5785 0.0
H2732 H 0.74085 0.89849 0.55099 0.0
H2733 H 0.74882 0.91141 0.49028 0.0
H2734 H 0.74439 0.84085 0.41683 0.0
H2735 H 0.73357 0.85798 0.44409 0.0
H2736 H 0.75041 0.84823 0.50653 0.0
C2737 C 0.75061 0.90995 0.5485 0.0
C2738 C 0.74894 0.89764 0.49402 0.0
C2739 C 0.7574 0.92403 0.5642 0.0
C2740 C 0.74998 0.84013 0.43184 0.0
C2741 C 0.74391 0.85014 0.44747 0.0
C2742 C 0.7498 0.86192 0.50278 0.0
C2743 C 0.75672 0.91048 0.52995 0.0
C2744 C 0.75144 0.89462 0.51389 0.0
C2745 C 0.75198 0.85107 0.46705 0.0
C2746 C 0.74894 0.86524 0.48294 0.0
H2747 H 0.78615 0.95086 0.54048 0.0
H2748 H 0.77452 0.92638 0.51327 0.0
H2749 H 0.75298 0.87366 0.53327 0.0
H2750 H 0.78167 0.82271 0.45855 0.0
H2751 H 0.77163 0.84065 0.48566 0.0
C2752 C 0.44476 0.58158 0.85325 0.0
C2753 C 0.42612 0.57863 0.85064 0.0
C2754 C 0.45437 0.58105 0.8718 0.0
C2755 C 0.45001 0.58245 0.92632 0.0
H2756 H 0.49384 0.5633 0.92804 0.0
C2757 C 0.49549 0.58447 1.00107 0.0
C2758 C 0.50485 0.56986 1.00328 0.0
C2759 C 0.48607 0.58595 0.98267 0.0
C2760 C 0.48156 0.56855 0.92798 0.0
H2761 H 0.4031 0.57279 0.86584 0.0
H2762 H 0.41969 0.57158 0.89792 0.0
H2763 H 0.47717 0.56469 0.89623 0.0
H2764 H 0.51129 0.54526 0.98741 0.0
H2765 H 0.49481 0.54764 0.95579 0.0
H2766 H 0.45416 0.5858 0.9581 0.0
C2767 C 0.42702 0.57464 0.88576 0.0
C2768 C 0.47203 0.56962 0.90955 0.0
C2769 C 0.41742 0.57523 0.86722 0.0
C2770 C 0.50441 0.5568 0.98645 0.0
C2771 C 0.49497 0.55825 0.96812 0.0
C2772 C 0.45953 0.58136 0.94477 0.0
C2773 C 0.44571 0.57748 0.88844 0.0
C2774 C 0.45604 0.57655 0.90831 0.0
C2775 C 0.48561 0.57286 0.96581 0.0
C2776 C 0.47548 0.57433 0.94599 0.0
H2777 H 0.45198 0.58429 0.8409 0.0
H2778 H 0.46868 0.58363 0.87309 0.0
H2779 H 0.43794 0.5881 0.92624 0.0
H2780 H 0.49549 0.59488 0.01355 0.0
H2781 H 0.47933 0.59758 0.98167 0.0
C2782 C 0.82206 0.25236 0.10997 0.0
C2783 C 0.83717 0.24408 0.10938 0.0
C2784 C 0.81865 0.26181 0.12764 0.0
C2785 C 0.82883 0.26485 0.18204 0.0
H2786 H 0.80641 0.30801 0.18214 0.0
C2787 C 0.81135 0.30191 0.25449 0.0
C2788 C 0.79445 0.30679 0.25358 0.0
C2789 C 0.81825 0.29634 0.23714 0.0
C2790 C 0.81256 0.2959 0.18237 0.0
H2791 H 0.86081 0.23966 0.12687 0.0
H2792 H 0.85497 0.25637 0.1578 0.0
H2793 H 0.81565 0.29458 0.15158 0.0
H2794 H 0.77187 0.31037 0.23369 0.0
H2795 H 0.78386 0.30062 0.20341 0.0
H2796 H 0.82551 0.26601 0.21275 0.0
C2797 C 0.84561 0.25534 0.14458 0.0
C2798 C 0.81787 0.28818 0.16482 0.0
C2799 C 0.84904 0.24587 0.12683 0.0
C2800 C 0.78494 0.30673 0.2349 0.0
C2801 C 0.79185 0.30118 0.21752 0.0
C2802 C 0.82353 0.27259 0.1996 0.0
C2803 C 0.83026 0.26328 0.14527 0.0
C2804 C 0.82587 0.27239 0.16433 0.0
C2805 C 0.80846 0.29555 0.21841 0.0
C2806 C 0.81513 0.28809 0.19996 0.0
H2807 H 0.81259 0.2512 0.09682 0.0
H2808 H 0.80658 0.26748 0.12757 0.0
H2809 H 0.83469 0.25256 0.18223 0.0
H2810 H 0.81907 0.3019 0.26866 0.0
H2811 H 0.8312 0.29243 0.23841 0.0
C2812 C 0.09482 0.50012 0.35751 0.0
C2813 C 0.1081 0.51229 0.35084 0.0
C2814 C 0.08824 0.50517 0.37528 0.0
C2815 C 0.09977 0.53887 0.42164 0.0
H2816 H 0.05041 0.52398 0.42774 0.0
C2817 C 0.07428 0.5524 0.49715 0.0
C2818 C 0.05716 0.55649 0.49743 0.0
C2819 C 0.08028 0.54691 0.47924 0.0
C2820 C 0.0642 0.52846 0.42624 0.0
H2821 H 0.12447 0.53948 0.35717 0.0
H2822 H 0.1127 0.54848 0.38752 0.0
H2823 H 0.06089 0.51467 0.39646 0.0
H2824 H 0.03306 0.55846 0.47901 0.0
H2825 H 0.04374 0.54955 0.44771 0.0
H2826 H 0.10301 0.55329 0.45102 0.0
C2827 C 0.10771 0.53481 0.37956 0.0
C2828 C 0.07028 0.52285 0.40835 0.0
C2829 C 0.11439 0.52969 0.36203 0.0
C2830 C 0.04631 0.55535 0.47933 0.0
C2831 C 0.05239 0.55006 0.46137 0.0
C2832 C 0.09368 0.54462 0.4394 0.0
C2833 C 0.0947 0.52257 0.38662 0.0
C2834 C 0.08815 0.52805 0.40578 0.0
C2835 C 0.06941 0.54559 0.46108 0.0
C2836 C 0.07581 0.53951 0.44199 0.0
H2837 H 0.08975 0.4866 0.34919 0.0
H2838 H 0.07836 0.4953 0.3803 0.0
H2839 H 0.11369 0.5429 0.42042 0.0
H2840 H 0.08293 0.55294 0.51082 0.0
H2841 H 0.09334 0.5433 0.47972 0.0
C2842 C 0.80026 0.94917 0.67432 0.0
C2843 C 0.80192 0.94268 0.65465 0.0
C2844 C 0.79965 0.93721 0.68863 0.0
C2845 C 0.80919 0.8916 0.69914 0.0
H2846 H 0.7748 0.89581 0.73593 0.0
C2847 C 0.79096 0.83732 0.75144 0.0
C2848 C 0.78959 0.84443 0.77101 0.0
C2849 C 0.79286 0.8491 0.73699 0.0
C2850 C 0.78458 0.89456 0.72587 0.0
H2851 H 0.80465 0.91871 0.63459 0.0
H2852 H 0.80333 0.89778 0.65947 0.0
H2853 H 0.77796 0.91705 0.71152 0.0
H2854 H 0.7891 0.86928 0.7909 0.0
H2855 H 0.79244 0.88979 0.76578 0.0
H2856 H 0.81565 0.86894 0.71348 0.0
C2857 C 0.80273 0.91214 0.66394 0.0
C2858 C 0.78644 0.90677 0.71192 0.0
C2859 C 0.8034 0.92412 0.64966 0.0
C2860 C 0.79012 0.86343 0.7759 0.0
C2861 C 0.79192 0.87516 0.7615 0.0
C2862 C 0.80728 0.87932 0.71308 0.0
C2863 C 0.80062 0.91849 0.68354 0.0
C2864 C 0.79882 0.90551 0.69845 0.0
C2865 C 0.79328 0.86814 0.74188 0.0
C2866 C 0.79502 0.88075 0.72666 0.0
H2867 H 0.79918 0.96343 0.67861 0.0
H2868 H 0.79834 0.94262 0.70367 0.0
H2869 H 0.81899 0.89037 0.68911 0.0
H2870 H 0.79053 0.82268 0.74729 0.0
H2871 H 0.79371 0.84329 0.72195 0.0
C2872 C 0.66855 0.44129 0.56532 0.0
C2873 C 0.68642 0.44962 0.56699 0.0
C2874 C 0.65546 0.45207 0.56825 0.0
C2875 C 0.64935 0.4991 0.58974 0.0
H2876 H 0.60393 0.48553 0.55689 0.0
C2877 C 0.59596 0.54672 0.58329 0.0
C2878 C 0.57822 0.53787 0.58136 0.0
C2879 C 0.60967 0.53633 0.58395 0.0
C2880 C 0.61648 0.48942 0.56636 0.0
H2881 H 0.70454 0.47581 0.57284 0.0
H2882 H 0.68185 0.49452 0.57739 0.0
H2883 H 0.62644 0.46649 0.55267 0.0
H2884 H 0.56102 0.51146 0.5803 0.0
H2885 H 0.58472 0.49358 0.58176 0.0
H2886 H 0.63934 0.52233 0.60309 0.0
C2887 C 0.67785 0.47968 0.57432 0.0
C2888 C 0.62941 0.47844 0.56398 0.0
C2889 C 0.6909 0.46892 0.57153 0.0
C2890 C 0.57455 0.51869 0.58156 0.0
C2891 C 0.58814 0.50839 0.58224 0.0
C2892 C 0.63642 0.51019 0.59203 0.0
C2893 C 0.65994 0.47145 0.57279 0.0
C2894 C 0.64604 0.48307 0.57564 0.0
C2895 C 0.60581 0.51695 0.58268 0.0
C2896 C 0.61979 0.50542 0.58043 0.0
H2897 H 0.6647 0.42644 0.56195 0.0
H2898 H 0.64185 0.44517 0.5672 0.0
H2899 H 0.66189 0.50301 0.59922 0.0
H2900 H 0.59918 0.56145 0.583 0.0
H2901 H 0.62317 0.54334 0.58433 0.0
C2902 C 0.20355 0.11108 0.49265 0.0
C2903 C 0.21494 0.12573 0.50491 0.0
C2904 C 0.18603 0.10602 0.49625 0.0
C2905 C 0.1514 0.12456 0.52126 0.0
H2906 H 0.1309 0.07334 0.52191 0.0
C2907 C 0.09078 0.10435 0.56015 0.0
C2908 C 0.07739 0.09003 0.55051 0.0
C2909 C 0.1069 0.108 0.5527 0.0
C2910 C 0.13637 0.08767 0.52151 0.0
H2911 H 0.21703 0.14644 0.5306 0.0
H2912 H 0.18666 0.13759 0.5369 0.0
H2913 H 0.16042 0.08108 0.51195 0.0
H2914 H 0.07032 0.068 0.52579 0.0
H2915 H 0.0987 0.07438 0.51271 0.0
H2916 H 0.1276 0.13123 0.53113 0.0
C2917 C 0.19111 0.13015 0.52437 0.0
C2918 C 0.15324 0.0921 0.5158 0.0
C2919 C 0.20855 0.13514 0.52083 0.0
C2920 C 0.08047 0.07916 0.53346 0.0
C2921 C 0.09669 0.08276 0.52603 0.0
C2922 C 0.13462 0.12015 0.52696 0.0
C2923 C 0.17961 0.11562 0.51208 0.0
C2924 C 0.16107 0.11062 0.51606 0.0
C2925 C 0.10998 0.09736 0.53548 0.0
C2926 C 0.12708 0.1017 0.52758 0.0
H2927 H 0.20815 0.10359 0.48027 0.0
H2928 H 0.17743 0.09481 0.4865 0.0
H2929 H 0.15693 0.13893 0.52118 0.0
H2930 H 0.08879 0.11286 0.5734 0.0
H2931 H 0.11701 0.11912 0.56053 0.0
C2932 C 0.21628 1.00204 0.829 0.0
C2933 C 0.19808 1.00151 0.82303 0.0
C2934 C 0.22394 0.9858 0.82735 0.0
C2935 C 0.21232 0.93316 0.82052 0.0
H2936 H 0.26033 0.93542 0.80833 0.0
C2937 C 0.24234 0.86494 0.80607 0.0
C2938 C 0.26081 0.86545 0.80946 0.0
C2939 C 0.23489 0.88129 0.80752 0.0
C2940 C 0.24698 0.9343 0.81205 0.0
H2941 H 0.17389 0.98275 0.81057 0.0
H2942 H 0.18699 0.95481 0.80782 0.0
H2943 H 0.24754 0.96339 0.81152 0.0
H2944 H 0.2857 0.88444 0.81733 0.0
H2945 H 0.27299 0.91252 0.82029 0.0
H2946 H 0.21175 0.90422 0.82139 0.0
C2947 C 0.1955 0.96776 0.81395 0.0
C2948 C 0.23951 0.95063 0.81386 0.0
C2949 C 0.1879 0.98399 0.81544 0.0
C2950 C 0.27146 0.88316 0.81439 0.0
C2951 C 0.26402 0.89951 0.81599 0.0
C2952 C 0.21982 0.91686 0.81887 0.0
C2953 C 0.21374 0.96819 0.81982 0.0
C2954 C 0.22195 0.95052 0.81808 0.0
C2955 C 0.24549 0.89909 0.81264 0.0
C2956 C 0.23737 0.91689 0.81452 0.0
H2957 H 0.22472 0.01509 0.83494 0.0
H2958 H 0.23793 0.9871 0.83231 0.0
H2959 H 0.19892 0.93213 0.82411 0.0
H2960 H 0.23348 0.85178 0.80223 0.0
H2961 H 0.22066 0.87981 0.80437 0.0
C2962 C 0.29334 0.93631 0.07115 0.0
C2963 C 0.27913 0.94476 0.0648 0.0
C2964 C 0.31075 0.94486 0.07063 0.0
C2965 C 0.33838 0.98969 0.06645 0.0
H2966 H 0.37008 0.95894 0.04557 0.0
C2967 C 0.40301 0.01916 0.0376 0.0
C2968 C 0.41798 1.01123 0.04233 0.0
C2969 C 0.38652 1.0114 0.04228 0.0
C2970 C 0.36147 0.96767 0.05169 0.0
H2971 H 0.27194 0.96893 0.05333 0.0
H2972 H 0.3023 0.98373 0.0521 0.0
H2973 H 0.34042 0.94482 0.05055 0.0
H2974 H 0.42747 0.98898 0.05571 0.0
H2975 H 0.39864 0.97547 0.064 0.0
H2976 H 0.35937 0.01259 0.06715 0.0
C2977 C 0.30005 0.97063 0.05776 0.0
C2978 C 0.34449 0.95959 0.05457 0.0
C2979 C 0.28265 0.96211 0.05835 0.0
C2980 C 0.41617 0.99546 0.05199 0.0
C2981 C 0.39966 0.98765 0.05659 0.0
C2982 C 0.35536 0.99778 0.06349 0.0
C2983 C 0.31429 0.96201 0.06369 0.0
C2984 C 0.33269 0.97052 0.06181 0.0
C2985 C 0.38466 0.9955 0.05172 0.0
C2986 C 0.36701 0.98687 0.0559 0.0
H2987 H 0.29101 0.92297 0.07631 0.0
H2988 H 0.32144 0.93799 0.07557 0.0
H2989 H 0.32971 0.99846 0.07234 0.0
H2990 H 0.40404 0.03143 0.03035 0.0
H2991 H 0.37516 0.01765 0.03816 0.0
C2992 C 0.88337 0.65732 0.78023 0.0
C2993 C 0.9006 0.66227 0.79043 0.0
C2994 C 0.87312 0.67074 0.77664 0.0
C2995 C 0.87523 0.72116 0.77586 0.0
H2996 H 0.82544 0.70935 0.78188 0.0
C2997 C 0.82893 0.77462 0.78781 0.0
C2998 C 0.81177 0.77031 0.77738 0.0
C2999 C 0.84051 0.762 0.78637 0.0
C3000 C 0.83925 0.71274 0.77986 0.0
H3001 H 0.92072 0.68527 0.8046 0.0
H3002 H 0.90264 0.70882 0.79872 0.0
H3003 H 0.84428 0.68639 0.78611 0.0
H3004 H 0.79342 0.74982 0.75672 0.0
H3005 H 0.81359 0.72748 0.75448 0.0
H3006 H 0.86992 0.74771 0.76994 0.0
C3007 C 0.89714 0.69453 0.79321 0.0
C3008 C 0.85009 0.69959 0.78227 0.0
C3009 C 0.90748 0.68104 0.7967 0.0
C3010 C 0.80665 0.75351 0.76476 0.0
C3011 C 0.8181 0.7407 0.76363 0.0
C3012 C 0.86434 0.73435 0.77353 0.0
C3013 C 0.87974 0.68951 0.7833 0.0
C3014 C 0.86825 0.70361 0.78039 0.0
C3015 C 0.835 0.74467 0.77477 0.0
C3016 C 0.8463 0.73031 0.77566 0.0
H3017 H 0.87773 0.64299 0.77502 0.0
H3018 H 0.85996 0.66634 0.76859 0.0
H3019 H 0.88905 0.72466 0.77395 0.0
H3020 H 0.83319 0.78755 0.79756 0.0
H3021 H 0.85343 0.76542 0.79513 0.0
C3022 C 0.82024 0.61919 1.00259 0.0
C3023 C 0.80268 0.60994 0.99734 0.0
C3024 C 0.83324 0.60995 0.01021 0.0
C3025 C 0.85 0.56898 0.0124 0.0
H3026 H 0.86571 0.58584 0.06823 0.0
C3027 C 0.90632 0.5407 0.05423 0.0
C3028 C 0.91906 0.55404 0.06667 0.0
C3029 C 0.89008 0.54502 0.04694 0.0
C3030 C 0.86159 0.58105 0.05263 0.0
H3031 H 0.78515 0.58353 0.99473 0.0
H3032 H 0.80823 0.56719 1.00758 0.0
H3033 H 0.84194 0.59836 0.05111 0.0
H3034 H 0.92422 0.58192 0.08231 0.0
H3035 H 0.89641 0.58968 0.06907 0.0
H3036 H 0.87027 0.5525 0.01343 0.0
C3037 C 0.81172 0.58165 1.00599 0.0
C3038 C 0.84793 0.58814 0.04291 0.0
C3039 C 0.7986 0.59098 0.99865 0.0
C3040 C 0.91482 0.57142 0.0725 0.0
C3041 C 0.89871 0.57579 0.06508 0.0
C3042 C 0.86391 0.56209 0.02203 0.0
C3043 C 0.82897 0.59125 0.01234 0.0
C3044 C 0.84225 0.58237 0.0227 0.0
C3045 C 0.88629 0.56279 0.05184 0.0
C3046 C 0.87012 0.56832 0.0422 0.0
H3047 H 0.82378 0.63381 1.00181 0.0
H3048 H 0.84653 0.61753 0.01501 0.0
H3049 H 0.84577 0.56444 0.99675 0.0
H3050 H 0.90919 0.5272 0.04935 0.0
H3051 H 0.8807 0.53456 0.03708 0.0
C3052 C 0.21906 0.11192 0.82711 0.0
C3053 C 0.20053 0.10695 0.82644 0.0
C3054 C 0.22714 0.13017 0.8253 0.0
C3055 C 0.21685 0.17395 0.80688 0.0
H3056 H 0.26203 0.19724 0.83666 0.0
C3057 C 0.24356 0.25202 0.80511 0.0
C3058 C 0.26187 0.25915 0.80762 0.0
C3059 C 0.23695 0.23374 0.80783 0.0
C3060 C 0.24951 0.19103 0.82794 0.0
H3061 H 0.1762 0.11792 0.82336 0.0
H3062 H 0.19004 0.14926 0.82015 0.0
H3063 H 0.24926 0.16561 0.84041 0.0
H3064 H 0.28754 0.25196 0.81534 0.0
H3065 H 0.27615 0.21991 0.81967 0.0
H3066 H 0.2171 0.19892 0.79402 0.0
C3067 C 0.19848 0.13911 0.82196 0.0
C3068 C 0.24208 0.17267 0.83016 0.0
C3069 C 0.19046 0.12098 0.82396 0.0
C3070 C 0.27337 0.24716 0.81326 0.0
C3071 C 0.26672 0.22864 0.81583 0.0
C3072 C 0.2243 0.19215 0.80453 0.0
C3073 C 0.21701 0.14417 0.82248 0.0
C3074 C 0.22546 0.16376 0.81983 0.0
C3075 C 0.24829 0.2214 0.81298 0.0
C3076 C 0.24073 0.20133 0.81516 0.0
H3077 H 0.22738 0.10165 0.82893 0.0
H3078 H 0.24138 0.13318 0.82567 0.0
H3079 H 0.2043 0.16774 0.79819 0.0
H3080 H 0.23414 0.2607 0.80101 0.0
H3081 H 0.22273 0.22941 0.80601 0.0
C3082 C 0.40115 0.05982 0.32012 0.0
C3083 C 0.39688 0.07109 0.30589 0.0
C3084 C 0.38939 0.04393 0.32205 0.0
C3085 C 0.35175 1.01001 0.29516 0.0
H3086 H 0.34595 0.99749 0.34772 0.0
C3087 C 0.32144 0.9372 0.3093 0.0
C3088 C 0.31085 0.93551 0.32466 0.0
C3089 C 0.33007 0.95448 0.30624 0.0
C3090 C 0.34722 1.00088 0.33294 0.0
H3091 H 0.37698 0.07457 0.28246 0.0
H3092 H 0.35632 0.04678 0.28591 0.0
H3093 H 0.36456 0.0264 0.34408 0.0
H3094 H 0.30045 0.95074 0.34835 0.0
H3095 H 0.31553 0.98099 0.34298 0.0
H3096 H 0.33434 0.98449 0.28404 0.0
C3097 C 0.36884 0.05017 0.29546 0.0
C3098 C 0.35807 0.01735 0.33085 0.0
C3099 C 0.38063 0.06611 0.29354 0.0
C3100 C 0.30871 0.95156 0.33657 0.0
C3101 C 0.31735 0.96888 0.33349 0.0
C3102 C 0.34089 0.99352 0.29725 0.0
C3103 C 0.37307 0.03894 0.3098 0.0
C3104 C 0.36066 0.02198 0.31195 0.0
C3105 C 0.32832 0.97051 0.31846 0.0
C3106 C 0.33868 0.98866 0.31617 0.0
H3107 H 0.41361 0.06327 0.32981 0.0
H3108 H 0.39318 0.03541 0.333 0.0
H3109 H 0.35355 0.01313 0.28039 0.0
H3110 H 0.32362 0.92509 0.30007 0.0
H3111 H 0.33863 0.95521 0.29474 0.0
C3112 C 0.52079 0.3381 0.67413 0.0
C3113 C 0.52477 0.34214 0.69486 0.0
C3114 C 0.51871 0.35209 0.66253 0.0
C3115 C 0.52971 0.40253 0.6625 0.0
H3116 H 0.4915 0.39337 0.61899 0.0
C3117 C 0.51274 0.46025 0.61749 0.0
C3118 C 0.50753 0.45559 0.59694 0.0
C3119 C 0.5148 0.44659 0.62958 0.0
C3120 C 0.50239 0.39612 0.6309 0.0
H3121 H 0.52982 0.36414 0.71962 0.0
H3122 H 0.52622 0.38866 0.69932 0.0
H3123 H 0.49524 0.36946 0.63979 0.0
H3124 H 0.50033 0.43266 0.57314 0.0
H3125 H 0.50436 0.40893 0.59409 0.0
H3126 H 0.53699 0.42912 0.6535 0.0
C3127 C 0.52479 0.37463 0.69205 0.0
C3128 C 0.50451 0.38239 0.64288 0.0
C3129 C 0.52678 0.36057 0.7037 0.0
C3130 C 0.5045 0.43684 0.58884 0.0
C3131 C 0.50661 0.42317 0.60094 0.0
C3132 C 0.52764 0.41625 0.65045 0.0
C3133 C 0.52063 0.37055 0.67131 0.0
C3134 C 0.51822 0.38538 0.65881 0.0
C3135 C 0.51177 0.42784 0.6215 0.0
C3136 C 0.51396 0.41324 0.63444 0.0
H3137 H 0.51919 0.32405 0.66683 0.0
H3138 H 0.51577 0.34846 0.64661 0.0
H3139 H 0.54055 0.40523 0.67447 0.0
H3140 H 0.51546 0.47453 0.62427 0.0
H3141 H 0.51859 0.45075 0.64535 0.0
C3142 C 0.48291 0.82943 0.34406 0.0
C3143 C 0.48844 0.81883 0.3585 0.0
C3144 C 0.46476 0.82883 0.33787 0.0
C3145 C 0.41948 0.81384 0.35314 0.0
H3146 H 0.40288 0.8227 0.30034 0.0
C3147 C 0.34411 0.80456 0.3243 0.0
C3148 C 0.33858 0.81827 0.31378 0.0
C3149 C 0.36224 0.80398 0.32892 0.0
C3150 C 0.40726 0.8203 0.31521 0.0
H3151 H 0.47896 0.79883 0.37725 0.0
H3152 H 0.44769 0.79717 0.36607 0.0
H3153 H 0.43429 0.82273 0.30964 0.0
H3154 H 0.34799 0.84182 0.29946 0.0
H3155 H 0.37944 0.84064 0.30717 0.0
H3156 H 0.39236 0.81114 0.35854 0.0
C3157 C 0.4572 0.80649 0.35985 0.0
C3158 C 0.42542 0.82039 0.32064 0.0
C3159 C 0.47528 0.80727 0.36617 0.0
C3160 C 0.3517 0.83103 0.30753 0.0
C3161 C 0.3698 0.83031 0.31192 0.0
C3162 C 0.40132 0.81354 0.34764 0.0
C3163 C 0.4515 0.81746 0.34578 0.0
C3164 C 0.43194 0.8172 0.33975 0.0
C3165 C 0.37542 0.81694 0.32295 0.0
C3166 C 0.39487 0.81683 0.3286 0.0
H3167 H 0.49261 0.83862 0.33791 0.0
H3168 H 0.46119 0.83772 0.32724 0.0
H3169 H 0.42372 0.81175 0.36815 0.0
H3170 H 0.33444 0.79451 0.32942 0.0
H3171 H 0.36592 0.79333 0.33722 0.0
C3172 C 0.03624 0.74988 0.17245 0.0
C3173 C 0.02872 0.74918 0.1902 0.0
C3174 C 0.03632 0.73371 0.15969 0.0
C3175 C 1.01387 0.68509 0.14648 0.0
H3176 H 0.05597 0.67909 0.12206 0.0
C3177 C 0.02108 0.61562 0.10272 0.0
C3178 C 0.03013 0.61587 0.08597 0.0
C3179 C 0.02067 0.63196 0.11503 0.0
C3180 C 0.04399 0.68061 0.12848 0.0
H3181 H 0.01533 0.73088 0.20843 0.0
H3182 H 0.01543 0.70259 0.18611 0.0
H3183 H 0.05576 0.70718 0.14435 0.0
H3184 H 0.04562 0.63374 0.06893 0.0
H3185 H 0.04461 0.66228 0.09017 0.0
H3186 H 1.00201 0.65863 0.13051 0.0
C3187 C 0.02119 0.7157 0.18201 0.0
C3188 C 0.0439 0.69674 0.14135 0.0
C3189 C 0.02121 0.7319 0.19486 0.0
C3190 C 0.03858 0.63297 0.08173 0.0
C3191 C 0.0381 0.64936 0.09403 0.0
C3192 C 1.01392 0.669 0.13353 0.0
C3193 C 0.02878 0.71639 0.16427 0.0
C3194 C 0.02886 0.69918 0.15056 0.0
C3195 C 0.02921 0.64909 0.11093 0.0
C3196 C 0.02901 0.66648 0.12438 0.0
H3197 H 0.0421 0.76297 0.16838 0.0
H3198 H 0.04208 0.73481 0.14606 0.0
H3199 H 1.00196 0.68661 0.15305 0.0
H3200 H 1.01447 0.60273 0.10656 0.0
H3201 H 1.01392 0.63107 0.12803 0.0
C3202 C 0.1063 0.32928 0.87916 0.0
C3203 C 0.09127 0.32613 0.86479 0.0
C3204 C 0.12335 0.32928 0.87376 0.0
C3205 C 0.14776 0.31567 0.83096 0.0
H3206 H 0.18785 0.34607 0.86494 0.0
C3207 C 0.21961 0.32531 0.80909 0.0
C3208 C 0.23353 0.32454 0.8239 0.0
C3209 C 0.20236 0.32591 0.81371 0.0
C3210 C 0.17686 0.33736 0.85532 0.0
H3211 H 0.08265 0.32058 0.83324 0.0
H3212 H 0.11238 0.32116 0.82367 0.0
H3213 H 0.15803 0.3466 0.87311 0.0
H3214 H 0.23997 0.32412 0.85539 0.0
H3215 H 0.21008 0.32553 0.86348 0.0
H3216 H 0.16678 0.30682 0.81295 0.0
C3217 C 0.11102 0.32323 0.83928 0.0
C3218 C 0.15959 0.33758 0.86006 0.0
C3219 C 0.09386 0.32301 0.84475 0.0
C3220 C 0.22969 0.32476 0.84355 0.0
C3221 C 0.21248 0.32562 0.84822 0.0
C3222 C 0.16504 0.31564 0.82609 0.0
C3223 C 0.12614 0.32638 0.85371 0.0
C3224 C 0.14466 0.3266 0.8481 0.0
C3225 C 0.19847 0.32602 0.83335 0.0
C3226 C 0.17991 0.32637 0.83827 0.0
H3227 H 0.10491 0.33156 0.89477 0.0
H3228 H 0.13432 0.3313 0.8855 0.0
H3229 H 0.13688 0.30676 0.82141 0.0
H3230 H 0.22195 0.32508 0.79377 0.0
H3231 H 0.19205 0.3264 0.80185 0.0
C3232 C 0.55036 0.80928 0.9973 0.0
C3233 C 0.56682 0.80976 0.99025 0.0
C3234 C 0.5442 0.79567 1.00858 0.0
C3235 C 0.52914 0.75798 0.01812 0.0
H3236 H 0.56015 0.73821 0.05512 0.0
C3237 C 0.51151 0.68533 0.03993 0.0
C3238 C 0.51729 0.68232 0.05923 0.0
C3239 C 0.51633 0.70253 0.03379 0.0
C3240 C 0.55123 0.74372 0.04506 0.0
H3241 H 0.59005 0.79684 0.99003 0.0
H3242 H 0.57918 0.77284 0.00941 0.0
H3243 H 0.57159 0.7658 0.04119 0.0
H3244 H 0.53216 0.69526 0.08746 0.0
H3245 H 0.54019 0.72542 0.07689 0.0
H3246 H 0.50876 0.73595 0.02203 0.0
C3247 C 0.57111 0.78312 1.0065 0.0
C3248 C 0.55786 0.75941 0.03688 0.0
C3249 C 0.57731 0.79681 0.99531 0.0
C3250 C 0.52736 0.69714 0.07253 0.0
C3251 C 0.53216 0.71437 0.0664 0.0
C3252 C 0.5225 0.74234 0.02634 0.0
C3253 C 0.55433 0.78218 0.01295 0.0
C3254 C 0.54697 0.76654 0.02306 0.0
C3255 C 0.527 0.71715 0.04684 0.0
C3256 C 0.53354 0.73482 0.03963 0.0
H3257 H 0.54204 0.81919 0.99376 0.0
H3258 H 0.53137 0.79556 0.01362 0.0
H3259 H 0.52041 0.76297 1.00737 0.0
H3260 H 0.50357 0.67425 0.0294 0.0
H3261 H 0.51225 0.70412 0.01856 0.0
C3262 C 0.03206 0.78663 0.72029 0.0
C3263 C 0.03249 0.79025 0.70068 0.0
C3264 C 0.04768 0.78956 0.73348 0.0
C3265 C 0.09477 0.81284 0.7401 0.0
H3266 H 0.10217 0.77462 0.77254 0.0
C3267 C 0.16247 0.7956 0.76394 0.0
C3268 C 0.16654 0.79201 0.78338 0.0
C3269 C 0.14568 0.79875 0.75739 0.0
C3270 C 0.10015 0.78559 0.76389 0.0
H3271 H 0.04949 0.79979 0.67943 0.0
H3272 H 0.07676 0.8044 0.70217 0.0
H3273 H 0.07313 0.77342 0.75396 0.0
H3274 H 0.15664 0.78925 0.81144 0.0
H3275 H 0.12675 0.79429 0.79971 0.0
H3276 H 0.12212 0.82435 0.74918 0.0
C3277 C 0.06437 0.79974 0.7076 0.0
C3278 C 0.08354 0.78493 0.75324 0.0
C3279 C 0.04876 0.79693 0.69449 0.0
C3280 C 0.15369 0.79201 0.79638 0.0
C3281 C 0.13669 0.79484 0.78969 0.0
C3282 C 0.11139 0.81339 0.75059 0.0
C3283 C 0.06403 0.79608 0.72724 0.0
C3284 C 0.08082 0.79823 0.74074 0.0
C3285 C 0.13256 0.79812 0.77008 0.0
C3286 C 0.11435 0.79948 0.76211 0.0
H3287 H 0.01965 0.78159 0.72549 0.0
H3288 H 0.04694 0.78677 0.74855 0.0
H3289 H 0.09298 0.82355 0.73101 0.0
H3290 H 0.17227 0.79576 0.75374 0.0
H3291 H 0.14276 0.80101 0.74214 0.0
C3292 C 0.09558 0.39204 0.52044 0.0
C3293 C 0.09846 0.39287 0.50068 0.0
C3294 C 0.09481 0.40809 0.53298 0.0
C3295 C 0.07847 0.43949 0.55016 0.0
H3296 H 0.09711 0.48815 0.53847 0.0
C3297 C 0.04024 0.49888 0.56059 0.0
C3298 C 0.0489 0.51714 0.56149 0.0
C3299 C 0.04977 0.48442 0.55907 0.0
C3300 C 0.09201 0.4748 0.54245 0.0
H3301 H 0.10369 0.41106 0.47873 0.0
H3302 H 0.10133 0.43883 0.49997 0.0
H3303 H 0.10959 0.46208 0.52568 0.0
H3304 H 0.07438 0.53488 0.56331 0.0
H3305 H 0.09125 0.50981 0.56208 0.0
H3306 H 0.06142 0.45231 0.56764 0.0
C3307 C 0.10031 0.42607 0.5063 0.0
C3308 C 0.09899 0.45967 0.53469 0.0
C3309 C 0.10158 0.41008 0.49397 0.0
C3310 C 0.0674 0.52085 0.56247 0.0
C3311 C 0.07701 0.50643 0.56151 0.0
C3312 C 0.07185 0.45468 0.55839 0.0
C3313 C 0.09632 0.42524 0.52581 0.0
C3314 C 0.09172 0.44167 0.53758 0.0
C3315 C 0.06826 0.48794 0.55892 0.0
C3316 C 0.07788 0.47245 0.55384 0.0
H3317 H 0.09331 0.37888 0.526 0.0
H3318 H 0.09231 0.40688 0.54805 0.0
H3319 H 0.07239 0.42596 0.55283 0.0
H3320 H 0.02596 0.49565 0.55971 0.0
H3321 H 0.04238 0.47048 0.55681 0.0
C3322 C 0.4378 0.28962 0.20321 0.0
C3323 C 0.4514 0.27917 0.20285 0.0
C3324 C 0.42934 0.29195 0.22014 0.0
C3325 C 0.43761 0.29625 0.27309 0.0
H3326 H 0.38665 0.28524 0.27198 0.0
C3327 C 0.37854 0.29801 0.32627 0.0
C3328 C 0.38065 0.31707 0.33278 0.0
C3329 C 0.38983 0.29122 0.31382 0.0
C3330 C 0.40092 0.28819 0.27256 0.0
H3331 H 0.46665 0.26272 0.2197 0.0
H3332 H 0.45214 0.26724 0.24941 0.0
H3333 H 0.39986 0.27744 0.24193 0.0
H3334 H 0.39776 0.34347 0.33336 0.0
H3335 H 0.41705 0.33156 0.31091 0.0
H3336 H 0.43858 0.30781 0.30352 0.0
C3337 C 0.44794 0.27342 0.23654 0.0
C3338 C 0.40841 0.28387 0.25536 0.0
C3339 C 0.45612 0.27075 0.21951 0.0
C3340 C 0.39547 0.3288 0.32822 0.0
C3341 C 0.40664 0.32198 0.31553 0.0
C3342 C 0.43008 0.30096 0.29022 0.0
C3343 C 0.43464 0.28419 0.23706 0.0
C3344 C 0.42679 0.28796 0.25547 0.0
C3345 C 0.40324 0.3033 0.30738 0.0
C3346 C 0.41166 0.29701 0.29006 0.0
H3347 H 0.43397 0.29629 0.1906 0.0
H3348 H 0.41911 0.30036 0.22029 0.0
H3349 H 0.45184 0.2996 0.27342 0.0
H3350 H 0.36732 0.28847 0.32935 0.0
H3351 H 0.38738 0.27667 0.30812 0.0
C3352 C 0.6508 0.55643 0.3957 0.0
C3353 C 0.64298 0.55279 0.37573 0.0
C3354 C 0.64035 0.55711 0.41152 0.0
C3355 C 0.59378 0.56138 0.42275 0.0
H3356 H 0.60952 0.54699 0.47328 0.0
C3357 C 0.55616 0.57446 0.49167 0.0
C3358 C 0.55576 0.56246 0.5062 0.0
C3359 C 0.56644 0.57264 0.47593 0.0
C3360 C 0.6047 0.55095 0.45927 0.0
H3361 H 0.61763 0.54685 0.35721 0.0
H3362 H 0.59965 0.54778 0.38431 0.0
H3363 H 0.62771 0.54501 0.44634 0.0
H3364 H 0.5662 0.53885 0.51501 0.0
H3365 H 0.58388 0.53544 0.48751 0.0
H3366 H 0.57067 0.56701 0.43545 0.0
C3367 C 0.61389 0.55046 0.388 0.0
C3368 C 0.61539 0.55003 0.4437 0.0
C3369 C 0.62431 0.54978 0.37226 0.0
C3370 C 0.56595 0.54833 0.50416 0.0
C3371 C 0.57633 0.54653 0.48837 0.0
C3372 C 0.58315 0.56234 0.43829 0.0
C3373 C 0.62162 0.55422 0.40806 0.0
C3374 C 0.61019 0.55523 0.42503 0.0
C3375 C 0.57691 0.55872 0.4739 0.0
C3376 C 0.58833 0.5572 0.45699 0.0
H3377 H 0.66507 0.55888 0.39916 0.0
H3378 H 0.64709 0.56025 0.42652 0.0
H3379 H 0.58912 0.5658 0.40894 0.0
H3380 H 0.54872 0.58565 0.49265 0.0
H3381 H 0.5665 0.58261 0.4656 0.0
C3382 C 0.23568 0.87316 0.11097 0.0
C3383 C 0.2342 0.8919 0.11246 0.0
C3384 C 0.24162 0.8656 0.12772 0.0
C3385 C 0.26737 0.8797 0.17762 0.0
H3386 H 0.24754 0.83048 0.18696 0.0
C3387 C 0.28039 0.85363 0.2529 0.0
C3388 C 0.28238 0.83514 0.25313 0.0
C3389 C 0.27587 0.86015 0.23507 0.0
C3390 C 0.2534 0.84415 0.18442 0.0
H3391 H 0.23716 0.91722 0.1328 0.0
H3392 H 0.24712 0.904 0.16199 0.0
H3393 H 0.236 0.84243 0.15744 0.0
H3394 H 0.28169 0.80914 0.23467 0.0
H3395 H 0.27386 0.82059 0.20342 0.0
H3396 H 0.2846 0.88153 0.2047 0.0
C3397 C 0.2441 0.8952 0.14785 0.0
C3398 C 0.24676 0.85102 0.1675 0.0
C3399 C 0.23822 0.90275 0.13114 0.0
C3400 C 0.28032 0.82347 0.23501 0.0
C3401 C 0.27566 0.82998 0.21712 0.0
C3402 C 0.27396 0.87286 0.19452 0.0
C3403 C 0.2462 0.87661 0.14632 0.0
C3404 C 0.25353 0.86897 0.16399 0.0
C3405 C 0.27313 0.84834 0.21698 0.0
C3406 C 0.26695 0.85507 0.19825 0.0
H3407 H 0.23277 0.86446 0.09676 0.0
H3408 H 0.24317 0.85127 0.12594 0.0
H3409 H 0.2732 0.89342 0.17519 0.0
H3410 H 0.28188 0.86301 0.26657 0.0
H3411 H 0.27388 0.87431 0.23555 0.0
C3412 C 0.96919 0.6053 0.85797 0.0
C3413 C 0.9603 0.62015 0.85553 0.0
C3414 C 0.97674 0.60284 0.87675 0.0
C3415 C 0.97246 0.61477 0.92977 0.0
H3416 H 1.01397 0.59197 0.93769 0.0
C3417 C 0.98691 0.57896 0.99817 0.0
C3418 C 1.00448 0.58001 1.00663 0.0
C3419 C 0.9831 0.58601 0.98049 0.0
C3420 C 1.00249 0.59857 0.93585 0.0
H3421 H 0.95307 0.64455 0.87081 0.0
H3422 H 0.96656 0.64052 0.90357 0.0
H3423 H 1.00537 0.60108 0.90549 0.0
H3424 H 0.03193 0.58944 1.00336 0.0
H3425 H 0.02529 0.60203 0.97239 0.0
H3426 H 0.96964 0.61242 0.96011 0.0
C3427 C 0.96739 0.63051 0.89102 0.0
C3428 C 0.99742 0.6036 0.91727 0.0
C3429 C 0.95977 0.63292 0.87221 0.0
C3430 C 0.01824 0.58845 0.99714 0.0
C3431 C 1.01442 0.59555 0.97936 0.0
C3432 C 0.97755 0.60981 0.94832 0.0
C3433 C 0.97567 0.61522 0.89362 0.0
C3434 C 0.98214 0.61147 0.91386 0.0
C3435 C 0.99677 0.59438 0.97078 0.0
C3436 C 0.99243 0.60129 0.95153 0.0
H3437 H 0.9698 0.59516 0.84544 0.0
H3438 H 0.98277 0.59078 0.87811 0.0
H3439 H 0.96053 0.62063 0.92776 0.0
H3440 H 0.97602 0.57245 1.00509 0.0
H3441 H 0.96937 0.58451 0.97421 0.0
C3442 C 0.30215 0.1856 0.55389 0.0
C3443 C 0.28803 0.18687 0.53967 0.0
C3444 C 0.30765 0.19944 0.57008 0.0
C3445 C 0.30291 0.24716 0.5899 0.0
H3446 H 0.30835 0.22932 0.64077 0.0
C3447 C 0.28684 0.28493 0.66168 0.0
C3448 C 0.29729 0.28452 0.67968 0.0
C3449 C 0.29017 0.27544 0.64407 0.0
C3450 C 0.30725 0.2346 0.62669 0.0
H3451 H 0.26903 0.20387 0.5308 0.0
H3452 H 0.27832 0.22775 0.55915 0.0
H3453 H 0.30614 0.20793 0.61048 0.0
H3454 H 0.3201 0.27461 0.69304 0.0
H3455 H 0.32564 0.25762 0.66223 0.0
H3456 H 0.3031 0.27367 0.60624 0.0
C3457 C 0.28539 0.21629 0.55772 0.0
C3458 C 0.306 0.22234 0.6093 0.0
C3459 C 0.27995 0.20251 0.54153 0.0
C3460 C 0.31159 0.27493 0.6795 0.0
C3461 C 0.31482 0.26528 0.66188 0.0
C3462 C 0.30405 0.25939 0.6073 0.0
C3463 C 0.2991 0.21477 0.57238 0.0
C3464 C 0.30329 0.22836 0.59069 0.0
C3465 C 0.30394 0.26518 0.64406 0.0
C3466 C 0.30573 0.25311 0.62584 0.0
H3467 H 0.3087 0.17373 0.55274 0.0
H3468 H 0.31839 0.19798 0.58099 0.0
H3469 H 0.30119 0.25231 0.5758 0.0
H3470 H 0.27555 0.2919 0.66127 0.0
H3471 H 0.28138 0.27537 0.63063 0.0
C3472 C 0.62684 0.5394 0.26334 0.0
C3473 C 0.64412 0.5496 0.26848 0.0
C3474 C 0.61689 0.54007 0.24501 0.0
C3475 C 0.61256 0.56943 0.20488 0.0
H3476 H 0.58524 0.52495 0.1736 0.0
C3477 C 0.56138 0.57101 0.13574 0.0
C3478 C 0.56153 0.55847 0.11865 0.0
C3479 C 0.57135 0.56981 0.15388 0.0
C3480 C 0.59281 0.53753 0.18209 0.0
H3481 H 0.66433 0.56863 0.25811 0.0
H3482 H 0.64693 0.57007 0.22644 0.0
H3483 H 0.60276 0.52305 0.20506 0.0
H3484 H 0.57229 0.53455 0.1077 0.0
H3485 H 0.58926 0.53222 0.13932 0.0
H3486 H 0.60248 0.58395 0.18204 0.0
C3487 C 0.64106 0.56144 0.23655 0.0
C3488 C 0.60279 0.53645 0.20027 0.0
C3489 C 0.65112 0.56052 0.25471 0.0
C3490 C 0.57178 0.5445 0.12043 0.0
C3491 C 0.58149 0.5431 0.13866 0.0
C3492 C 0.60234 0.57055 0.18688 0.0
C3493 C 0.62376 0.55124 0.23136 0.0
C3494 C 0.61292 0.55237 0.21195 0.0
C3495 C 0.58157 0.55583 0.15568 0.0
C3496 C 0.59234 0.55462 0.17511 0.0
H3497 H 0.62095 0.53087 0.27352 0.0
H3498 H 0.60361 0.5321 0.24172 0.0
H3499 H 0.62003 0.58203 0.21343 0.0
H3500 H 0.55376 0.582 0.13506 0.0
H3501 H 0.57089 0.57978 0.16661 0.0
C3502 C 0.22291 0.8699 1.0004 0.0
C3503 C 0.22745 0.88923 1.0047 0.0
C3504 C 0.22742 0.86056 0.98315 0.0
C3505 C 0.2606 0.86595 0.94869 0.0
H3506 H 0.22934 0.82619 0.91376 0.0
C3507 C 0.28621 0.82388 0.88528 0.0
C3508 C 0.27612 0.82197 0.86659 0.0
C3509 C 0.27934 0.83002 0.90246 0.0
C3510 C 0.23822 0.83726 0.9234 0.0
H3511 H 0.23967 0.9139 0.99384 0.0
H3512 H 0.24752 0.89767 0.96397 0.0
H3513 H 0.21859 0.84148 0.94262 0.0
H3514 H 0.25054 0.824 0.85138 0.0
H3515 H 0.23849 0.83454 0.8814 0.0
H3516 H 0.28019 0.86192 0.92956 0.0
C3517 C 0.24062 0.8897 0.97396 0.0
C3518 C 0.2321 0.84594 0.93998 0.0
C3519 C 0.23599 0.89902 0.99103 0.0
C3520 C 0.25866 0.82536 0.86557 0.0
C3521 C 0.25173 0.83135 0.88278 0.0
C3522 C 0.26678 0.85716 0.93232 0.0
C3523 C 0.23673 0.87034 0.96999 0.0
C3524 C 0.24317 0.86054 0.95269 0.0
C3525 C 0.26216 0.83423 0.90139 0.0
C3526 C 0.25565 0.84279 0.91937 0.0
H3527 H 0.21638 0.86196 0.01066 0.0
H3528 H 0.22426 0.84563 0.98053 0.0
H3529 H 0.26955 0.877 0.95831 0.0
H3530 H 0.29968 0.82133 0.88658 0.0
H3531 H 0.28763 0.83184 0.91659 0.0
C3532 C 0.94311 0.60299 0.73276 0.0
C3533 C 0.95348 0.61213 0.75033 0.0
C3534 C 0.95095 0.59825 0.71591 0.0
C3535 C 0.99196 0.60809 0.69254 0.0
H3536 H 0.97306 0.56052 0.66125 0.0
C3537 C 0.02492 0.57876 0.62666 0.0
C3538 C 1.0135 0.57085 0.60929 0.0
C3539 C 0.01814 0.58337 0.64435 0.0
C3540 C 0.9784 0.57391 0.66973 0.0
H3541 H 0.98021 0.6238 0.7639 0.0
H3542 H 0.99404 0.61531 0.73444 0.0
H3543 H 0.96041 0.56984 0.69108 0.0
H3544 H 0.98597 0.56122 0.59709 0.0
H3545 H 0.9742 0.56922 0.62791 0.0
H3546 H 1.01 0.61208 0.67112 0.0
C3547 C 0.97978 0.61198 0.73365 0.0
C3548 C 0.97113 0.57929 0.68683 0.0
C3549 C 0.97188 0.6168 0.75055 0.0
C3550 C 0.99517 0.56726 0.61017 0.0
C3551 C 0.98841 0.57178 0.62788 0.0
C3552 C 0.99929 0.60267 0.67544 0.0
C3553 C 0.96941 0.60242 0.71619 0.0
C3554 C 0.97768 0.59653 0.69836 0.0
C3555 C 0.99979 0.58008 0.64513 0.0
C3556 C 0.99249 0.58557 0.66374 0.0
H3557 H 0.92887 0.59931 0.73205 0.0
H3558 H 0.9425 0.59129 0.70263 0.0
H3559 H 0.99721 0.62154 0.70092 0.0
H3560 H 0.03911 0.58172 0.62655 0.0
H3561 H 0.02728 0.58952 0.65743 0.0
C3562 C 0.25098 0.16882 0.4325 0.0
C3563 C 0.26712 0.16841 0.44392 0.0
C3564 C 0.25018 0.18094 0.41843 0.0
C3565 C 0.27731 0.20983 0.3888 0.0
H3566 H 0.24002 0.2391 0.38996 0.0
C3567 C 0.27784 0.27128 0.34521 0.0
C3568 C 0.2617 0.27284 0.33456 0.0
C3569 C 0.27828 0.2592 0.35932 0.0
C3570 C 0.2504 0.23091 0.3893 0.0
H3571 H 0.29519 0.17975 0.44898 0.0
H3572 H 0.29381 0.20079 0.4243 0.0
H3573 H 0.2411 0.2154 0.41171 0.0
H3574 H 0.23328 0.26371 0.33092 0.0
H3575 H 0.23402 0.24237 0.35539 0.0
H3576 H 0.28657 0.22517 0.36632 0.0
C3577 C 0.28178 0.19176 0.42621 0.0
C3578 C 0.251 0.21732 0.40173 0.0
C3579 C 0.28257 0.17973 0.44037 0.0
C3580 C 0.24591 0.26278 0.33894 0.0
C3581 C 0.24634 0.25059 0.35299 0.0
C3582 C 0.27668 0.22334 0.37632 0.0
C3583 C 0.26552 0.19277 0.4154 0.0
C3584 C 0.2645 0.20668 0.40165 0.0
C3585 C 0.26258 0.24834 0.363 0.0
C3586 C 0.26327 0.23412 0.37648 0.0
H3587 H 0.23885 0.16026 0.43494 0.0
H3588 H 0.2375 0.18124 0.4101 0.0
H3589 H 0.28775 0.2017 0.38825 0.0
H3590 H 0.29021 0.27898 0.3422 0.0
H3591 H 0.29096 0.25812 0.36709 0.0
C3592 C 0.37833 0.6593 0.55096 0.0
C3593 C 0.38275 0.67866 0.55333 0.0
C3594 C 0.39114 0.64832 0.54783 0.0
C3595 C 0.43554 0.64916 0.53154 0.0
H3596 H 0.43491 0.60525 0.55727 0.0
C3597 C 0.49472 0.61088 0.53923 0.0
C3598 C 0.49162 0.59161 0.53878 0.0
C3599 C 0.48068 0.62059 0.53798 0.0
C3600 C 0.4351 0.61726 0.54966 0.0
H3601 H 0.40419 0.70167 0.55432 0.0
H3602 H 0.42674 0.68248 0.54914 0.0
H3603 H 0.41251 0.62438 0.56222 0.0
H3604 H 0.47126 0.5673 0.5357 0.0
H3605 H 0.44652 0.58431 0.53341 0.0
H3606 H 0.45836 0.64217 0.51928 0.0
C3607 C 0.41325 0.67578 0.54944 0.0
C3608 C 0.42227 0.62831 0.55256 0.0
C3609 C 0.40037 0.6868 0.55257 0.0
C3610 C 0.47406 0.58212 0.53596 0.0
C3611 C 0.45992 0.5919 0.53489 0.0
C3612 C 0.4484 0.63812 0.52867 0.0
C3613 C 0.40878 0.65637 0.547 0.0
C3614 C 0.42238 0.6445 0.54366 0.0
C3615 C 0.4631 0.61132 0.53639 0.0
C3616 C 0.44845 0.62211 0.53784 0.0
H3617 H 0.36486 0.65255 0.55135 0.0
H3618 H 0.3871 0.63347 0.54573 0.0
H3619 H 0.43586 0.66131 0.52414 0.0
H3620 H 0.50809 0.61863 0.54138 0.0
H3621 H 0.48369 0.6355 0.53935 0.0
C3622 C 0.86312 1.00133 0.62278 0.0
C3623 C 0.85061 0.99504 0.60591 0.0
C3624 C 0.88111 1.00611 0.62088 0.0
C3625 C 0.91747 0.02377 0.61162 0.0
H3626 H 0.93519 0.99366 0.57081 0.0
C3627 C 0.98557 0.04474 0.58472 0.0
C3628 C 0.99459 0.03065 0.57823 0.0
C3629 C 0.96872 0.04042 0.59049 0.0
C3630 C 0.93059 1.00208 0.58249 0.0
H3631 H 0.84696 0.98955 0.57382 0.0
H3632 H 0.87809 0.99833 0.57045 0.0
H3633 H 0.90452 0.98616 0.57626 0.0
H3634 H 0.99372 1.00111 0.57383 0.0
H3635 H 0.96461 0.99352 0.58446 0.0
H3636 H 0.94378 0.03945 0.61809 0.0
C3637 C 0.8742 0.99907 0.5852 0.0
C3638 C 0.91287 0.99795 0.5854 0.0
C3639 C 0.85632 0.99415 0.58712 0.0
C3640 C 0.98693 1.01223 0.57856 0.0
C3641 C 0.9702 1.0079 0.58452 0.0
C3642 C 0.93529 0.02786 0.60878 0.0
C3643 C 0.88687 1.00479 0.60205 0.0
C3644 C 0.906 1.00888 0.5998 0.0
C3645 C 0.96067 0.02191 0.59006 0.0
C3646 C 0.94203 0.01714 0.59405 0.0
H3647 H 0.85906 1.00211 0.63746 0.0
H3648 H 0.89052 1.01036 0.63416 0.0
H3649 H 0.9126 0.03253 0.62278 0.0
H3650 H 0.99126 0.05907 0.58468 0.0
H3651 H 0.96175 0.05156 0.59452 0.0
C3652 C 0.87967 0.14266 0.31245 0.0
C3653 C 0.87262 0.12728 0.29798 0.0
C3654 C 0.87211 0.15892 0.31399 0.0
C3655 C 0.83092 0.17858 0.29619 0.0
H3656 H 0.86035 0.22509 0.31936 0.0
C3657 C 0.79999 0.24636 0.31069 0.0
C3658 C 0.81044 0.26396 0.31109 0.0
C3659 C 0.80738 0.22997 0.30922 0.0
C3660 C 0.85175 0.21239 0.31262 0.0
H3661 H 0.85165 0.11763 0.27364 0.0
H3662 H 0.83874 0.14574 0.27591 0.0
H3663 H 0.87313 0.19727 0.31595 0.0
H3664 H 0.83733 0.27738 0.31001 0.0
H3665 H 0.85004 0.24929 0.30713 0.0
H3666 H 0.80967 0.19385 0.29227 0.0
C3667 C 0.85003 0.14528 0.28652 0.0
C3668 C 0.85917 0.19603 0.31092 0.0
C3669 C 0.85758 0.12895 0.28507 0.0
C3670 C 0.82867 0.26433 0.30996 0.0
C3671 C 0.83606 0.24795 0.30839 0.0
C3672 C 0.82351 0.19496 0.29783 0.0
C3673 C 0.85709 0.16078 0.30103 0.0
C3674 C 0.84898 0.1786 0.3027 0.0
C3675 C 0.82564 0.23024 0.30794 0.0
C3676 C 0.83369 0.21239 0.30613 0.0
H3677 H 0.89114 0.14215 0.32283 0.0
H3678 H 0.87805 0.16996 0.32569 0.0
H3679 H 0.82222 0.16578 0.28996 0.0
H3680 H 0.78593 0.24518 0.31151 0.0
H3681 H 0.79863 0.21704 0.30932 0.0
C3682 C 0.78148 0.17009 0.04123 0.0
C3683 C 0.79574 0.17108 0.0561 0.0
C3684 C 0.76589 0.15746 0.04083 0.0
C3685 C 0.74054 0.13084 0.07353 0.0
H3686 H 0.71277 0.10673 0.02407 0.0
C3687 C 0.67284 0.0857 0.07314 0.0
C3688 C 0.65917 0.09025 0.06039 0.0
C3689 C 0.69053 0.09187 0.07108 0.0
C3690 C 0.7204 0.11336 0.03799 0.0
H3691 H 0.8051 0.15934 0.08191 0.0
H3692 H 0.77791 0.13712 0.08109 0.0
H3693 H 0.74207 0.1249 0.02368 0.0
H3694 H 0.65338 0.104 0.03485 0.0
H3695 H 0.6842 0.11469 0.03122 0.0
H3696 H 0.71876 0.11972 0.08782 0.0
C3697 C 0.77867 0.14629 0.06992 0.0
C3698 C 0.73714 0.1238 0.03777 0.0
C3699 C 0.79426 0.15897 0.07035 0.0
C3700 C 0.66358 0.10008 0.04478 0.0
C3701 C 0.68127 0.10623 0.0427 0.0
C3702 C 0.72385 0.12038 0.07375 0.0
C3703 C 0.76425 0.1455 0.05524 0.0
C3704 C 0.74725 0.13295 0.05552 0.0
C3705 C 0.69492 0.10268 0.05621 0.0
C3706 C 0.71345 0.1118 0.05597 0.0
H3707 H 0.78225 0.17927 0.03005 0.0
H3708 H 0.75494 0.15742 0.02951 0.0
H3709 H 0.74785 0.13792 0.08744 0.0
H3710 H 0.66984 0.07788 0.08511 0.0
H3711 H 0.70079 0.08864 0.08149 0.0
C3712 C 0.17036 0.45709 0.32252 0.0
C3713 C 0.15489 0.4545 0.30895 0.0
C3714 C 0.17964 0.44261 0.32477 0.0
C3715 C 0.17615 0.39158 0.31321 0.0
H3716 H 0.22738 0.40388 0.31906 0.0
C3717 C 0.22158 0.33814 0.29773 0.0
C3718 C 0.2377 0.33997 0.31012 0.0
C3719 C 0.21065 0.35132 0.30006 0.0
C3720 C 0.2131 0.40022 0.31776 0.0
H3721 H 0.13683 0.43459 0.28731 0.0
H3722 H 0.15323 0.4094 0.29085 0.0
H3723 H 0.20992 0.42833 0.31806 0.0
H3724 H 0.25464 0.35685 0.33517 0.0
H3725 H 0.23551 0.37991 0.33921 0.0
H3726 H 0.17945 0.36335 0.31229 0.0
C3727 C 0.15805 0.42252 0.30007 0.0
C3728 C 0.20305 0.41427 0.31719 0.0
C3729 C 0.14868 0.43699 0.29794 0.0
C3730 C 0.24233 0.35499 0.32537 0.0
C3731 C 0.23142 0.36827 0.32761 0.0
C3732 C 0.18623 0.37751 0.31364 0.0
C3733 C 0.17379 0.42519 0.31336 0.0
C3734 C 0.18442 0.41016 0.31478 0.0
C3735 C 0.21559 0.36673 0.31477 0.0
C3736 C 0.20482 0.38166 0.31577 0.0
H3737 H 0.17541 0.47038 0.33134 0.0
H3738 H 0.19147 0.44513 0.33543 0.0
H3739 H 0.16187 0.38788 0.31167 0.0
H3740 H 0.21763 0.32678 0.2858 0.0
H3741 H 0.19868 0.34986 0.28977 0.0
C3742 C 0.25622 0.53055 0.12421 0.0
C3743 C 0.26919 0.52833 0.1117 0.0
C3744 C 0.24428 0.54243 0.12047 0.0
C3745 C 0.22467 0.56215 0.07823 0.0
H3746 H 0.20205 0.58759 0.11826 0.0
C3747 C 0.16702 0.59858 0.05604 0.0
C3748 C 0.15194 0.59355 0.06534 0.0
C3749 C 0.18343 0.59485 0.06356 0.0
C3750 C 0.20829 0.58058 0.10693 0.0
H3751 H 0.28081 0.5378 0.0865 0.0
H3752 H 0.26044 0.55895 0.08038 0.0
H3753 H 0.22748 0.57344 0.1283 0.0
H3754 H 0.14251 0.58134 0.09037 0.0
H3755 H 0.17108 0.57499 0.1035 0.0
H3756 H 0.20533 0.56889 0.0569 0.0
C3757 C 0.25903 0.55111 0.09266 0.0
C3758 C 0.22281 0.57243 0.11267 0.0
C3759 C 0.27078 0.53908 0.09624 0.0
C3760 C 0.15387 0.58566 0.08296 0.0
C3761 C 0.17027 0.58198 0.09051 0.0
C3762 C 0.21027 0.57037 0.07251 0.0
C3763 C 0.24522 0.55244 0.10427 0.0
C3764 C 0.23099 0.56283 0.09839 0.0
C3765 C 0.18512 0.58605 0.08058 0.0
C3766 C 0.20171 0.5794 0.08679 0.0
H3767 H 0.25469 0.52238 0.13621 0.0
H3768 H 0.23375 0.54297 0.12963 0.0
H3769 H 0.23034 0.55456 0.0668 0.0
H3770 H 0.16606 0.60497 0.04264 0.0
H3771 H 0.19471 0.59839 0.05576 0.0
C3772 C 0.88099 1.00819 0.29824 0.0
C3773 C 0.87074 0.02201 0.29537 0.0
C3774 C 0.87314 0.9899 0.29978 0.0
C3775 C 0.82986 0.95987 0.30742 0.0
H3776 H 0.85456 0.92022 0.29152 0.0
C3777 C 0.79917 0.88072 0.30676 0.0
C3778 C 0.81084 0.86889 0.31242 0.0
C3779 C 0.8056 0.89927 0.30415 0.0
C3780 C 0.84743 0.93102 0.29629 0.0
H3781 H 0.84373 0.02676 0.2919 0.0
H3782 H 0.83 0.99496 0.29412 0.0
H3783 H 0.86695 0.95172 0.28796 0.0
H3784 H 0.83865 0.86784 0.31954 0.0
H3785 H 0.84967 0.8995 0.31497 0.0
H3786 H 0.81017 0.93886 0.31547 0.0
C3787 C 0.84428 0.99827 0.29553 0.0
C3788 C 0.85467 0.94939 0.29428 0.0
C3789 C 0.8522 0.01668 0.29408 0.0
C3790 C 0.82911 0.87629 0.31515 0.0
C3791 C 0.83551 0.89464 0.31237 0.0
C3792 C 0.82253 0.9414 0.30931 0.0
C3793 C 0.85457 0.98437 0.29841 0.0
C3794 C 0.84622 0.96438 0.3 0.0
C3795 C 0.82397 0.90664 0.30683 0.0
C3796 C 0.83125 0.92654 0.30399 0.0
H3797 H 0.89529 1.01156 0.29951 0.0
H3798 H 0.88185 0.98015 0.30243 0.0
H3799 H 0.82277 0.97066 0.31228 0.0
H3800 H 0.78503 0.8757 0.30452 0.0
H3801 H 0.79612 0.90777 0.29975 0.0
C3802 C 0.66109 0.06515 0.78905 0.0
C3803 C 0.66805 0.04953 0.79344 0.0
C3804 C 0.67234 0.08133 0.78686 0.0
C3805 C 0.71715 0.10699 0.80168 0.0
H3806 H 0.70687 0.13282 0.75694 0.0
C3807 C 0.74768 0.18289 0.79777 0.0
C3808 C 0.75351 0.18698 0.77977 0.0
C3809 C 0.73864 0.16531 0.79932 0.0
C3810 C 0.70998 0.12568 0.76943 0.0
H3811 H 0.69219 0.03854 0.79909 0.0
H3812 H 0.71192 0.06703 0.79556 0.0
H3813 H 0.68813 0.10354 0.75964 0.0
H3814 H 0.75498 0.17542 0.7495 0.0
H3815 H 0.73876 0.14489 0.75212 0.0
H3816 H 0.73881 0.12935 0.81165 0.0
C3817 C 0.69775 0.06668 0.79375 0.0
C3818 C 0.69919 0.10903 0.77104 0.0
C3819 C 0.68648 0.05039 0.79568 0.0
C3820 C 0.75039 0.1729 0.76348 0.0
C3821 C 0.74116 0.15539 0.76497 0.0
C3822 C 0.72781 0.12379 0.8002 0.0
C3823 C 0.69077 0.08227 0.78926 0.0
C3824 C 0.70262 0.09958 0.78722 0.0
C3825 C 0.73506 0.15148 0.78284 0.0
C3826 C 0.72428 0.13331 0.78408 0.0
H3827 H 0.64693 0.06487 0.78724 0.0
H3828 H 0.66662 0.09322 0.78358 0.0
H3829 H 0.72001 0.10002 0.81436 0.0
H3830 H 0.74955 0.19343 0.81054 0.0
H3831 H 0.7339 0.16272 0.81321 0.0
loop_
_geom_bond_atom_site_label_1
_geom_bond_atom_site_label_2
_geom_bond_distance
_geom_bond_site_symmetry_2
_ccdc_geom_bond_type
In0 O1 2.294 . S
In0 O2 2.326 . S
In0 O6 2.266 . S
In0 O7 2.326 . S
In0 O8 2.266 . S
In0 O9 2.326 . S
In0 O11 2.294 . S
In0 O12 2.326 . S
O1 In0 2.294 . S
O1 C10 1.240 . S
O2 In0 2.326 . S
O2 C10 1.252 . S
C3 O6 1.252 . S
C3 O7 1.260 . S
C4 O11 1.240 . S
C4 O12 1.252 . S
C5 O8 1.252 . S
C5 O9 1.260 . S
O6 In0 2.266 . S
O6 C3 1.252 . S
O7 In0 2.326 . S
O7 C3 1.260 . S
O8 In0 2.266 . S
O8 C5 1.252 . S
O9 In0 2.326 . S
O9 C5 1.260 . S
C10 O1 1.240 . S
C10 O2 1.252 . S
O11 In0 2.294 . S
O11 C4 1.240 . S
O12 In0 2.326 . S
O12 C4 1.252 . S
In13 O14 2.294 . S
In13 O15 2.326 . S
In13 O19 2.266 1_455 S
In13 O20 2.326 1_455 S
In13 O21 2.266 1_455 S
In13 O22 2.326 1_455 S
In13 O24 2.294 . S
In13 O25 2.326 . S
O14 In13 2.294 . S
O14 C23 1.240 . S
O15 In13 2.326 . S
O15 C23 1.252 . S
C16 O19 1.252 . S
C16 O20 1.260 . S
C17 O24 1.240 . S
C17 O25 1.252 . S
C18 O21 1.252 . S
C18 O22 1.260 . S
O19 In13 2.266 1_655 S
O19 C16 1.252 . S
O20 In13 2.326 1_655 S
O20 C16 1.260 . S
O21 In13 2.266 1_655 S
O21 C18 1.252 . S
O22 In13 2.326 1_655 S
O22 C18 1.260 . S
C23 O14 1.240 . S
C23 O15 1.252 . S
O24 In13 2.294 . S
O24 C17 1.240 . S
O25 In13 2.326 . S
O25 C17 1.252 . S
In26 O27 2.294 . S
In26 O28 2.326 . S
In26 O32 2.266 . S
In26 O33 2.326 . S
In26 O34 2.266 . S
In26 O35 2.326 . S
In26 O37 2.294 . S
In26 O38 2.326 . S
O27 In26 2.294 . S
O27 C36 1.240 . S
O28 In26 2.326 . S
O28 C36 1.252 . S
C29 O32 1.252 . S
C29 O33 1.260 . S
C30 O37 1.240 . S
C30 O38 1.252 . S
C31 O34 1.252 . S
C31 O35 1.260 . S
O32 In26 2.266 . S
O32 C29 1.252 . S
O33 In26 2.326 . S
O33 C29 1.260 . S
O34 In26 2.266 . S
O34 C31 1.252 . S
O35 In26 2.326 . S
O35 C31 1.260 . S
C36 O27 1.240 . S
C36 O28 1.252 . S
O37 In26 2.294 . S
O37 C30 1.240 . S
O38 In26 2.326 . S
O38 C30 1.252 . S
In39 O40 2.294 . S
In39 O41 2.326 . S
In39 O45 2.266 . S
In39 O46 2.326 . S
In39 O47 2.266 . S
In39 O48 2.326 . S
In39 O50 2.294 . S
In39 O51 2.326 . S
O40 In39 2.294 . S
O40 C49 1.240 . S
O41 In39 2.326 . S
O41 C49 1.252 . S
C42 O45 1.252 . S
C42 O46 1.260 . S
C43 O50 1.240 . S
C43 O51 1.252 . S
C44 O47 1.252 . S
C44 O48 1.260 . S
O45 In39 2.266 . S
O45 C42 1.252 . S
O46 In39 2.326 . S
O46 C42 1.260 . S
O47 In39 2.266 . S
O47 C44 1.252 . S
O48 In39 2.326 . S
O48 C44 1.260 . S
C49 O40 1.240 . S
C49 O41 1.252 . S
O50 In39 2.294 . S
O50 C43 1.240 . S
O51 In39 2.326 . S
O51 C43 1.252 . S
In52 O53 2.294 . S
In52 O54 2.326 . S
In52 O58 2.266 . S
In52 O59 2.326 . S
In52 O60 2.266 . S
In52 O61 2.326 . S
In52 O63 2.294 1_455 S
In52 O64 2.326 1_455 S
O53 In52 2.294 . S
O53 C62 1.240 . S
O54 In52 2.326 . S
O54 C62 1.252 . S
C55 O58 1.252 . S
C55 O59 1.260 . S
C56 O63 1.240 . S
C56 O64 1.252 . S
C57 O60 1.252 . S
C57 O61 1.260 . S
O58 In52 2.266 . S
O58 C55 1.252 . S
O59 In52 2.326 . S
O59 C55 1.260 . S
O60 In52 2.266 . S
O60 C57 1.252 . S
O61 In52 2.326 . S
O61 C57 1.260 . S
C62 O53 1.240 . S
C62 O54 1.252 . S
O63 In52 2.294 1_655 S
O63 C56 1.240 . S
O64 In52 2.326 1_655 S
O64 C56 1.252 . S
In65 O66 2.294 . S
In65 O67 2.326 . S
In65 O71 2.266 . S
In65 O72 2.326 . S
In65 O73 2.266 . S
In65 O74 2.326 . S
In65 O76 2.294 . S
In65 O77 2.326 . S
O66 In65 2.294 . S
O66 C75 1.240 . S
O67 In65 2.326 . S
O67 C75 1.252 . S
C68 O71 1.252 . S
C68 O72 1.260 . S
C69 O76 1.240 . S
C69 O77 1.252 . S
C70 O73 1.252 . S
C70 O74 1.260 . S
O71 In65 2.266 . S
O71 C68 1.252 . S
O72 In65 2.326 . S
O72 C68 1.260 . S
O73 In65 2.266 . S
O73 C70 1.252 . S
O74 In65 2.326 . S
O74 C70 1.260 . S
C75 O66 1.240 . S
C75 O67 1.252 . S
O76 In65 2.294 . S
O76 C69 1.240 . S
O77 In65 2.326 . S
O77 C69 1.252 . S
In78 O79 2.294 . S
In78 O80 2.326 . S
In78 O84 2.266 . S
In78 O85 2.326 . S
In78 O86 2.266 . S
In78 O87 2.326 . S
In78 O89 2.294 . S
In78 O90 2.326 . S
O79 In78 2.294 . S
O79 C88 1.240 . S
O80 In78 2.326 . S
O80 C88 1.252 . S
C81 O84 1.252 . S
C81 O85 1.260 . S
C82 O89 1.240 . S
C82 O90 1.252 . S
C83 O86 1.252 . S
C83 O87 1.260 . S
O84 In78 2.266 . S
O84 C81 1.252 . S
O85 In78 2.326 . S
O85 C81 1.260 . S
O86 In78 2.266 . S
O86 C83 1.252 . S
O87 In78 2.326 . S
O87 C83 1.260 . S
C88 O79 1.240 . S
C88 O80 1.252 . S
O89 In78 2.294 . S
O89 C82 1.240 . S
O90 In78 2.326 . S
O90 C82 1.252 . S
In91 O92 2.294 . S
In91 O93 2.326 . S
In91 O97 2.266 . S
In91 O98 2.326 . S
In91 O99 2.266 . S
In91 O100 2.326 1_455 S
In91 O102 2.294 . S
In91 O103 2.326 . S
O92 In91 2.294 . S
O92 C101 1.240 . S
O93 In91 2.326 . S
O93 C101 1.252 . S
C94 O97 1.252 . S
C94 O98 1.260 . S
C95 O102 1.240 . S
C95 O103 1.252 . S
C96 O99 1.252 1_655 S
C96 O100 1.260 . S
O97 In91 2.266 . S
O97 C94 1.252 . S
O98 In91 2.326 . S
O98 C94 1.260 . S
O99 In91 2.266 . S
O99 C96 1.252 1_455 S
O100 In91 2.326 1_655 S
O100 C96 1.260 . S
C101 O92 1.240 . S
C101 O93 1.252 . S
O102 In91 2.294 . S
O102 C95 1.240 . S
O103 In91 2.326 . S
O103 C95 1.252 . S
In104 O105 2.294 . S
In104 O106 2.326 . S
In104 O110 2.266 . S
In104 O111 2.326 . S
In104 O112 2.266 . S
In104 O113 2.326 . S
In104 O115 2.294 . S
In104 O116 2.326 . S
O105 In104 2.294 . S
O105 C114 1.240 . S
O106 In104 2.326 . S
O106 C114 1.252 . S
C107 O110 1.252 . S
C107 O111 1.260 . S
C108 O115 1.240 . S
C108 O116 1.252 . S
C109 O112 1.252 . S
C109 O113 1.260 . S
O110 In104 2.266 . S
O110 C107 1.252 . S
O111 In104 2.326 . S
O111 C107 1.260 . S
O112 In104 2.266 . S
O112 C109 1.252 . S
O113 In104 2.326 . S
O113 C109 1.260 . S
C114 O105 1.240 . S
C114 O106 1.252 . S
O115 In104 2.294 . S
O115 C108 1.240 . S
O116 In104 2.326 . S
O116 C108 1.252 . S
In117 O118 2.294 . S
In117 O119 2.326 . S
In117 O123 2.266 . S
In117 O124 2.326 . S
In117 O125 2.266 . S
In117 O126 2.326 . S
In117 O128 2.294 . S
In117 O129 2.326 . S
O118 In117 2.294 . S
O118 C127 1.240 . S
O119 In117 2.326 . S
O119 C127 1.252 . S
C120 O123 1.252 . S
C120 O124 1.260 . S
C121 O128 1.240 . S
C121 O129 1.252 . S
C122 O125 1.252 . S
C122 O126 1.260 . S
O123 In117 2.266 . S
O123 C120 1.252 . S
O124 In117 2.326 . S
O124 C120 1.260 . S
O125 In117 2.266 . S
O125 C122 1.252 . S
O126 In117 2.326 . S
O126 C122 1.260 . S
C127 O118 1.240 . S
C127 O119 1.252 . S
O128 In117 2.294 . S
O128 C121 1.240 . S
O129 In117 2.326 . S
O129 C121 1.252 . S
In130 O131 2.294 . S
In130 O132 2.326 . S
In130 O136 2.266 . S
In130 O137 2.326 . S
In130 O138 2.266 . S
In130 O139 2.326 . S
In130 O141 2.294 . S
In130 O142 2.268 1_545 S
O131 In130 2.294 . S
O131 C140 1.240 . S
O132 In130 2.326 . S
O132 C140 1.252 . S
C133 O136 1.252 . S
C133 O137 1.260 . S
C134 O141 1.201 1_565 S
C134 O142 1.254 . S
C135 O138 1.252 . S
C135 O139 1.260 . S
O136 In130 2.266 . S
O136 C133 1.252 . S
O137 In130 2.326 . S
O137 C133 1.260 . S
O138 In130 2.266 . S
O138 C135 1.252 . S
O139 In130 2.326 . S
O139 C135 1.260 . S
C140 O131 1.240 . S
C140 O132 1.252 . S
O141 In130 2.294 . S
O141 C134 1.201 1_545 S
O142 In130 2.268 1_565 S
O142 C134 1.254 . S
In143 O144 2.294 . S
In143 O145 2.326 . S
In143 O149 2.266 . S
In143 O150 2.326 . S
In143 O151 2.266 . S
In143 O152 2.326 . S
In143 O154 2.294 . S
In143 O155 2.326 . S
O144 In143 2.294 . S
O144 C153 1.240 . S
O145 In143 2.326 . S
O145 C153 1.252 . S
C146 O149 1.252 . S
C146 O150 1.260 . S
C147 O154 1.240 . S
C147 O155 1.252 . S
C148 O151 1.252 . S
C148 O152 1.260 . S
O149 In143 2.266 . S
O149 C146 1.252 . S
O150 In143 2.326 . S
O150 C146 1.260 . S
O151 In143 2.266 . S
O151 C148 1.252 . S
O152 In143 2.326 . S
O152 C148 1.260 . S
C153 O144 1.240 . S
C153 O145 1.252 . S
O154 In143 2.294 . S
O154 C147 1.240 . S
O155 In143 2.326 . S
O155 C147 1.252 . S
In156 O157 2.294 . S
In156 O158 2.326 . S
In156 O162 2.266 . S
In156 O163 2.326 . S
In156 O164 2.266 . S
In156 O165 2.326 . S
In156 O167 2.294 . S
In156 O168 2.326 . S
O157 In156 2.294 . S
O157 C166 1.240 . S
O158 In156 2.326 . S
O158 C166 1.252 . S
C159 O162 1.252 . S
C159 O163 1.260 . S
C160 O167 1.240 . S
C160 O168 1.252 . S
C161 O164 1.252 . S
C161 O165 1.260 . S
O162 In156 2.266 . S
O162 C159 1.252 . S
O163 In156 2.326 . S
O163 C159 1.260 . S
O164 In156 2.266 . S
O164 C161 1.252 . S
O165 In156 2.326 . S
O165 C161 1.260 . S
C166 O157 1.240 . S
C166 O158 1.252 . S
O167 In156 2.294 . S
O167 C160 1.240 . S
O168 In156 2.326 . S
O168 C160 1.252 . S
In169 O170 2.294 . S
In169 O171 2.326 . S
In169 O175 2.266 . S
In169 O176 2.326 . S
In169 O177 2.266 . S
In169 O178 2.326 . S
In169 O180 2.294 . S
In169 O181 2.326 . S
O170 In169 2.294 . S
O170 C179 1.240 . S
O171 In169 2.326 . S
O171 C179 1.252 . S
C172 O175 1.252 . S
C172 O176 1.260 . S
C173 O180 1.240 . S
C173 O181 1.252 . S
C174 O177 1.265 . S
C174 O178 1.263 . S
O175 In169 2.266 . S
O175 C172 1.252 . S
O176 In169 2.326 . S
O176 C172 1.260 . S
O177 In169 2.266 . S
O177 C174 1.265 . S
O178 In169 2.326 . S
O178 C174 1.263 . S
C179 O170 1.240 . S
C179 O171 1.252 . S
O180 In169 2.294 . S
O180 C173 1.240 . S
O181 In169 2.326 . S
O181 C173 1.252 . S
In182 O183 2.294 . S
In182 O184 2.326 . S
In182 O188 2.266 . S
In182 O189 2.326 . S
In182 O190 2.266 . S
In182 O191 2.326 . S
In182 O193 2.294 . S
In182 O194 2.326 . S
O183 In182 2.294 . S
O183 C192 1.240 . S
O184 In182 2.326 . S
O184 C192 1.252 . S
C185 O188 1.252 . S
C185 O189 1.260 . S
C186 O193 1.240 . S
C186 O194 1.252 . S
C187 O190 1.252 . S
C187 O191 1.260 . S
O188 In182 2.266 . S
O188 C185 1.252 . S
O189 In182 2.326 . S
O189 C185 1.260 . S
O190 In182 2.266 . S
O190 C187 1.252 . S
O191 In182 2.326 . S
O191 C187 1.260 . S
C192 O183 1.240 . S
C192 O184 1.252 . S
O193 In182 2.294 . S
O193 C186 1.240 . S
O194 In182 2.326 . S
O194 C186 1.252 . S
In195 O196 2.294 . S
In195 O197 2.326 . S
In195 O201 2.266 . S
In195 O202 2.326 . S
In195 O203 2.266 . S
In195 O204 2.326 . S
In195 O206 2.294 . S
In195 O207 2.326 . S
O196 In195 2.294 . S
O196 C205 1.240 . S
O197 In195 2.326 . S
O197 C205 1.252 . S
C198 O201 1.252 . S
C198 O202 1.260 . S
C199 O206 1.240 . S
C199 O207 1.252 . S
C200 O203 1.252 . S
C200 O204 1.260 . S
O201 In195 2.266 . S
O201 C198 1.252 . S
O202 In195 2.326 . S
O202 C198 1.260 . S
O203 In195 2.266 . S
O203 C200 1.252 . S
O204 In195 2.326 . S
O204 C200 1.260 . S
C205 O196 1.240 . S
C205 O197 1.252 . S
O206 In195 2.294 . S
O206 C199 1.240 . S
O207 In195 2.326 . S
O207 C199 1.252 . S
In208 O209 2.294 . S
In208 O210 2.326 . S
In208 O214 2.266 . S
In208 O215 2.326 . S
In208 O216 2.266 . S
In208 O217 2.326 . S
In208 O219 2.294 . S
In208 O220 2.326 . S
O209 In208 2.294 . S
O209 C218 1.240 . S
O210 In208 2.326 . S
O210 C218 1.252 . S
C211 O214 1.252 . S
C211 O215 1.260 . S
C212 O219 1.240 . S
C212 O220 1.252 . S
C213 O216 1.252 . S
C213 O217 1.260 . S
O214 In208 2.266 . S
O214 C211 1.252 . S
O215 In208 2.326 . S
O215 C211 1.260 . S
O216 In208 2.266 . S
O216 C213 1.252 . S
O217 In208 2.326 . S
O217 C213 1.260 . S
C218 O209 1.240 . S
C218 O210 1.252 . S
O219 In208 2.294 . S
O219 C212 1.240 . S
O220 In208 2.326 . S
O220 C212 1.252 . S
In221 O222 2.294 . S
In221 O223 2.326 . S
In221 O227 2.266 . S
In221 O228 2.326 . S
In221 O229 2.266 . S
In221 O230 2.326 . S
In221 O232 2.294 . S
In221 O233 2.326 . S
O222 In221 2.294 . S
O222 C231 1.240 . S
O223 In221 2.326 . S
O223 C231 1.252 . S
C224 O227 1.252 . S
C224 O228 1.260 . S
C225 O232 1.240 . S
C225 O233 1.252 . S
C226 O229 1.252 . S
C226 O230 1.260 . S
O227 In221 2.266 . S
O227 C224 1.252 . S
O228 In221 2.326 . S
O228 C224 1.260 . S
O229 In221 2.266 . S
O229 C226 1.252 . S
O230 In221 2.326 . S
O230 C226 1.260 . S
C231 O222 1.240 . S
C231 O223 1.252 . S
O232 In221 2.294 . S
O232 C225 1.240 . S
O233 In221 2.326 . S
O233 C225 1.252 . S
In234 O235 2.294 . S
In234 O236 2.326 . S
In234 O240 2.266 . S
In234 O241 2.326 . S
In234 O242 2.266 . S
In234 O243 2.326 . S
In234 O245 2.294 . S
In234 O246 2.326 . S
O235 In234 2.294 . S
O235 C244 1.240 . S
O236 In234 2.326 . S
O236 C244 1.252 . S
C237 O240 1.252 . S
C237 O241 1.260 . S
C238 O245 1.240 . S
C238 O246 1.252 . S
C239 O242 1.252 . S
C239 O243 1.260 . S
O240 In234 2.266 . S
O240 C237 1.252 . S
O241 In234 2.326 . S
O241 C237 1.260 . S
O242 In234 2.266 . S
O242 C239 1.252 . S
O243 In234 2.326 . S
O243 C239 1.260 . S
C244 O235 1.240 . S
C244 O236 1.252 . S
O245 In234 2.294 . S
O245 C238 1.240 . S
O246 In234 2.326 . S
O246 C238 1.252 . S
In247 O248 2.294 1_545 S
In247 O249 2.326 1_545 S
In247 O253 2.266 . S
In247 O254 2.326 . S
In247 O255 2.266 . S
In247 O256 2.326 . S
In247 O258 2.294 1_545 S
In247 O259 2.326 1_545 S
O248 In247 2.294 1_565 S
O248 C257 1.240 . S
O249 In247 2.326 1_565 S
O249 C257 1.252 . S
C250 O253 1.252 . S
C250 O254 1.260 . S
C251 O258 1.240 . S
C251 O259 1.252 . S
C252 O255 1.252 . S
C252 O256 1.260 . S
O253 In247 2.266 . S
O253 C250 1.252 . S
O254 In247 2.326 . S
O254 C250 1.260 . S
O255 In247 2.266 . S
O255 C252 1.252 . S
O256 In247 2.326 . S
O256 C252 1.260 . S
C257 O248 1.240 . S
C257 O249 1.252 . S
O258 In247 2.294 1_565 S
O258 C251 1.240 . S
O259 In247 2.326 1_565 S
O259 C251 1.252 . S
In260 O261 2.294 . S
In260 O262 2.326 . S
In260 O266 2.266 1_554 S
In260 O267 2.326 1_554 S
In260 O268 2.264 1_554 S
In260 O269 2.322 1_554 S
In260 O271 2.296 . S
In260 O272 2.330 . S
O261 In260 2.294 . S
O261 C270 1.240 . S
O262 In260 2.326 . S
O262 C270 1.252 . S
C263 O266 1.252 . S
C263 O267 1.260 . S
C264 O271 1.240 . S
C264 O272 1.252 . S
C265 O268 1.252 . S
C265 O269 1.260 . S
O266 In260 2.266 1_556 S
O266 C263 1.252 . S
O267 In260 2.326 1_556 S
O267 C263 1.260 . S
O268 In260 2.264 1_556 S
O268 C265 1.252 . S
O269 In260 2.322 1_556 S
O269 C265 1.260 . S
C270 O261 1.240 . S
C270 O262 1.252 . S
O271 In260 2.296 . S
O271 C264 1.240 . S
O272 In260 2.330 . S
O272 C264 1.252 . S
In273 O274 2.294 . S
In273 O275 2.326 . S
In273 O279 2.266 . S
In273 O280 2.326 . S
In273 O281 2.266 . S
In273 O282 2.326 . S
In273 O284 2.294 . S
In273 O285 2.326 . S
O274 In273 2.294 . S
O274 C283 1.240 . S
O275 In273 2.326 . S
O275 C283 1.252 . S
C276 O279 1.252 . S
C276 O280 1.260 . S
C277 O284 1.240 . S
C277 O285 1.252 . S
C278 O281 1.252 . S
C278 O282 1.260 . S
O279 In273 2.266 . S
O279 C276 1.252 . S
O280 In273 2.326 . S
O280 C276 1.260 . S
O281 In273 2.266 . S
O281 C278 1.252 . S
O282 In273 2.326 . S
O282 C278 1.260 . S
C283 O274 1.240 . S
C283 O275 1.252 . S
O284 In273 2.294 . S
O284 C277 1.240 . S
O285 In273 2.326 . S
O285 C277 1.252 . S
In286 O287 2.294 . S
In286 O288 2.326 . S
In286 O292 2.266 . S
In286 O293 2.326 . S
In286 O294 2.266 . S
In286 O295 2.326 . S
In286 O297 2.294 . S
In286 O298 2.326 . S
O287 In286 2.294 . S
O287 C296 1.240 . S
O288 In286 2.326 . S
O288 C296 1.252 . S
C289 O292 1.252 . S
C289 O293 1.260 . S
C290 O297 1.240 . S
C290 O298 1.252 . S
C291 O294 1.252 . S
C291 O295 1.260 . S
O292 In286 2.266 . S
O292 C289 1.252 . S
O293 In286 2.326 . S
O293 C289 1.260 . S
O294 In286 2.266 . S
O294 C291 1.252 . S
O295 In286 2.326 . S
O295 C291 1.260 . S
C296 O287 1.240 . S
C296 O288 1.252 . S
O297 In286 2.294 . S
O297 C290 1.240 . S
O298 In286 2.326 . S
O298 C290 1.252 . S
In299 O300 2.294 . S
In299 O301 2.326 . S
In299 O305 2.266 . S
In299 O306 2.326 . S
In299 O307 2.266 . S
In299 O308 2.326 . S
In299 O310 2.294 . S
In299 O311 2.326 . S
O300 In299 2.294 . S
O300 C309 1.240 . S
O301 In299 2.326 . S
O301 C309 1.252 . S
C302 O305 1.252 . S
C302 O306 1.260 . S
C303 O310 1.240 . S
C303 O311 1.252 . S
C304 O307 1.252 . S
C304 O308 1.260 . S
O305 In299 2.266 . S
O305 C302 1.252 . S
O306 In299 2.326 . S
O306 C302 1.260 . S
O307 In299 2.266 . S
O307 C304 1.252 . S
O308 In299 2.326 . S
O308 C304 1.260 . S
C309 O300 1.240 . S
C309 O301 1.252 . S
O310 In299 2.294 . S
O310 C303 1.240 . S
O311 In299 2.326 . S
O311 C303 1.252 . S
Nd312 C314 2.836 . S
Nd312 O332 2.500 . S
Nd312 O333 2.492 . S
Nd312 O334 2.487 . S
Nd312 O335 2.682 . S
Nd312 O336 2.410 . S
Nd312 O341 2.414 . S
Nd312 O343 2.424 . S
Nd313 C323 2.836 . S
Nd313 O335 2.414 . S
Nd313 O337 2.424 . S
Nd313 O338 2.500 . S
Nd313 O339 2.492 . S
Nd313 O340 2.487 . S
Nd313 O341 2.682 . S
Nd313 O342 2.410 . S
C314 Nd312 2.836 . S
C314 C315 1.498 . S
C314 O332 1.258 . S
C314 O333 1.239 . S
C315 C314 1.498 . S
C315 C316 1.366 . S
C315 C320 1.407 . S
C316 C315 1.366 . S
C316 C317 1.392 . S
C316 H344 0.930 . S
C317 C316 1.392 . S
C317 C318 1.398 . S
C317 H345 0.929 . S
C318 C317 1.398 . S
C318 C319 1.352 . S
C319 C318 1.352 . S
C319 C320 1.384 . S
C319 H346 0.930 . S
C320 C315 1.407 . S
C320 C319 1.384 . S
C320 H347 0.929 . S
C321 O334 1.241 . S
C321 O335 1.273 . S
C322 O336 1.251 . S
C322 O337 1.268 . S
C323 Nd313 2.836 . S
C323 C324 1.498 1_545 S
C323 O338 1.258 . S
C323 O339 1.239 . S
C324 C323 1.498 1_565 S
C324 C325 1.366 . S
C324 C329 1.407 . S
C325 C324 1.366 . S
C325 C326 1.392 . S
C325 H348 0.930 . S
C326 C325 1.392 . S
C326 C327 1.398 . S
C326 H349 0.929 . S
C327 C326 1.398 . S
C327 C328 1.352 . S
C328 C327 1.352 . S
C328 C329 1.384 . S
C328 H350 0.930 . S
C329 C324 1.407 . S
C329 C328 1.384 . S
C329 H351 0.929 . S
C330 O340 1.241 . S
C330 O341 1.273 . S
C331 O342 1.251 . S
C331 O343 1.268 . S
O332 Nd312 2.500 . S
O332 C314 1.258 . S
O333 Nd312 2.492 . S
O333 C314 1.239 . S
O334 Nd312 2.487 . S
O334 C321 1.241 . S
O335 Nd312 2.682 . S
O335 Nd313 2.414 . S
O335 C321 1.273 . S
O336 Nd312 2.410 . S
O336 C322 1.251 . S
O337 Nd313 2.424 . S
O337 C322 1.268 . S
O338 Nd313 2.500 . S
O338 C323 1.258 . S
O339 Nd313 2.492 . S
O339 C323 1.239 . S
O340 Nd313 2.487 . S
O340 C330 1.241 . S
O341 Nd312 2.414 . S
O341 Nd313 2.682 . S
O341 C330 1.273 . S
O342 Nd313 2.410 . S
O342 C331 1.251 . S
O343 Nd312 2.424 . S
O343 C331 1.268 . S
H344 C316 0.930 . S
H345 C317 0.929 . S
H346 C319 0.930 . S
H347 C320 0.929 . S
H348 C325 0.930 . S
H349 C326 0.929 . S
H350 C328 0.930 . S
H351 C329 0.929 . S
Nd352 C354 2.836 . S
Nd352 O372 2.500 . S
Nd352 O373 2.492 . S
Nd352 O374 2.487 . S
Nd352 O375 2.682 . S
Nd352 O376 2.410 . S
Nd352 O381 2.414 . S
Nd352 O383 2.424 . S
Nd353 C363 2.836 . S
Nd353 O375 2.414 . S
Nd353 O377 2.424 . S
Nd353 O378 2.500 . S
Nd353 O379 2.492 . S
Nd353 O380 2.487 . S
Nd353 O381 2.682 . S
Nd353 O382 2.410 . S
C354 Nd352 2.836 . S
C354 C355 1.498 . S
C354 O372 1.258 . S
C354 O373 1.239 . S
C355 C354 1.498 . S
C355 C356 1.366 . S
C355 C360 1.407 . S
C356 C355 1.366 . S
C356 C357 1.392 . S
C356 H384 0.930 . S
C357 C356 1.392 . S
C357 C358 1.398 . S
C357 H385 0.929 . S
C358 C357 1.398 . S
C358 C359 1.352 . S
C359 C358 1.352 . S
C359 C360 1.384 . S
C359 H386 0.930 . S
C360 C355 1.407 . S
C360 C359 1.384 . S
C360 H387 0.929 . S
C361 O374 1.241 . S
C361 O375 1.273 . S
C362 O376 1.251 . S
C362 O377 1.268 . S
C363 Nd353 2.836 . S
C363 C364 1.498 . S
C363 O378 1.258 . S
C363 O379 1.239 . S
C364 C363 1.498 . S
C364 C365 1.366 . S
C364 C369 1.407 . S
C365 C364 1.366 . S
C365 C366 1.392 . S
C365 H388 0.930 . S
C366 C365 1.392 . S
C366 C367 1.398 . S
C366 H389 0.929 . S
C367 C366 1.398 . S
C367 C368 1.352 . S
C368 C367 1.352 . S
C368 C369 1.384 . S
C368 H390 0.930 . S
C369 C364 1.407 . S
C369 C368 1.384 . S
C369 H391 0.929 . S
C370 O380 1.241 . S
C370 O381 1.273 . S
C371 O382 1.251 . S
C371 O383 1.268 . S
O372 Nd352 2.500 . S
O372 C354 1.258 . S
O373 Nd352 2.492 . S
O373 C354 1.239 . S
O374 Nd352 2.487 . S
O374 C361 1.241 . S
O375 Nd352 2.682 . S
O375 Nd353 2.414 . S
O375 C361 1.273 . S
O376 Nd352 2.410 . S
O376 C362 1.251 . S
O377 Nd353 2.424 . S
O377 C362 1.268 . S
O378 Nd353 2.500 . S
O378 C363 1.258 . S
O379 Nd353 2.492 . S
O379 C363 1.239 . S
O380 Nd353 2.487 . S
O380 C370 1.241 . S
O381 Nd352 2.414 . S
O381 Nd353 2.682 . S
O381 C370 1.273 . S
O382 Nd353 2.410 . S
O382 C371 1.251 . S
O383 Nd352 2.424 . S
O383 C371 1.268 . S
H384 C356 0.930 . S
H385 C357 0.929 . S
H386 C359 0.930 . S
H387 C360 0.929 . S
H388 C365 0.930 . S
H389 C366 0.929 . S
H390 C368 0.930 . S
H391 C369 0.929 . S
Nd392 C394 2.836 . S
Nd392 O412 2.500 . S
Nd392 O413 2.492 . S
Nd392 O414 2.487 . S
Nd392 O415 2.682 . S
Nd392 O416 2.410 . S
Nd392 O421 2.414 . S
Nd392 O423 2.424 . S
Nd393 C403 2.836 . S
Nd393 O415 2.414 . S
Nd393 O417 2.424 . S
Nd393 O418 2.500 . S
Nd393 O419 2.492 . S
Nd393 O420 2.487 . S
Nd393 O421 2.682 . S
Nd393 O422 2.410 . S
C394 Nd392 2.836 . S
C394 C395 1.498 . S
C394 O412 1.258 . S
C394 O413 1.239 . S
C395 C394 1.498 . S
C395 C396 1.366 . S
C395 C400 1.407 . S
C396 C395 1.366 . S
C396 C397 1.392 . S
C396 H424 0.930 . S
C397 C396 1.392 . S
C397 C398 1.398 . S
C397 H425 0.929 . S
C398 C397 1.398 . S
C398 C399 1.352 . S
C399 C398 1.352 . S
C399 C400 1.384 . S
C399 H426 0.930 . S
C400 C395 1.407 . S
C400 C399 1.384 . S
C400 H427 0.929 . S
C401 O414 1.241 . S
C401 O415 1.273 . S
C402 O416 1.251 . S
C402 O417 1.268 . S
C403 Nd393 2.836 . S
C403 C404 1.498 . S
C403 O418 1.258 . S
C403 O419 1.239 . S
C404 C403 1.498 . S
C404 C405 1.366 . S
C404 C409 1.407 . S
C405 C404 1.366 . S
C405 C406 1.392 . S
C405 H428 0.930 . S
C406 C405 1.392 . S
C406 C407 1.398 . S
C406 H429 0.929 . S
C407 C406 1.398 . S
C407 C408 1.352 . S
C408 C407 1.352 . S
C408 C409 1.384 . S
C408 H430 0.930 . S
C409 C404 1.407 . S
C409 C408 1.384 . S
C409 H431 0.929 . S
C410 O420 1.241 . S
C410 O421 1.273 . S
C411 O422 1.251 . S
C411 O423 1.268 . S
O412 Nd392 2.500 . S
O412 C394 1.258 . S
O413 Nd392 2.492 . S
O413 C394 1.239 . S
O414 Nd392 2.487 . S
O414 C401 1.241 . S
O415 Nd392 2.682 . S
O415 Nd393 2.414 . S
O415 C401 1.273 . S
O416 Nd392 2.410 . S
O416 C402 1.251 . S
O417 Nd393 2.424 . S
O417 C402 1.268 . S
O418 Nd393 2.500 . S
O418 C403 1.258 . S
O419 Nd393 2.492 . S
O419 C403 1.239 . S
O420 Nd393 2.487 . S
O420 C410 1.241 . S
O421 Nd392 2.414 . S
O421 Nd393 2.682 . S
O421 C410 1.273 . S
O422 Nd393 2.410 . S
O422 C411 1.251 . S
O423 Nd392 2.424 . S
O423 C411 1.268 . S
H424 C396 0.930 . S
H425 C397 0.929 . S
H426 C399 0.930 . S
H427 C400 0.929 . S
H428 C405 0.930 . S
H429 C406 0.929 . S
H430 C408 0.930 . S
H431 C409 0.929 . S
Nd432 C434 2.836 . S
Nd432 O452 2.500 . S
Nd432 O453 2.492 . S
Nd432 O454 2.487 . S
Nd432 O455 2.682 . S
Nd432 O456 2.410 . S
Nd432 O461 2.414 . S
Nd432 O463 2.424 . S
Nd433 C443 2.836 . S
Nd433 O455 2.414 . S
Nd433 O457 2.424 . S
Nd433 O458 2.500 . S
Nd433 O459 2.492 . S
Nd433 O460 2.487 . S
Nd433 O461 2.682 . S
Nd433 O462 2.410 . S
C434 Nd432 2.836 . S
C434 C435 1.498 . S
C434 O452 1.258 . S
C434 O453 1.239 . S
C435 C434 1.498 . S
C435 C436 1.366 . S
C435 C440 1.407 . S
C436 C435 1.366 . S
C436 C437 1.392 . S
C436 H464 0.930 . S
C437 C436 1.392 . S
C437 C438 1.398 . S
C437 H465 0.929 . S
C438 C437 1.398 . S
C438 C439 1.352 . S
C439 C438 1.352 . S
C439 C440 1.384 . S
C439 H466 0.930 . S
C440 C435 1.407 . S
C440 C439 1.384 . S
C440 H467 0.929 . S
C441 O454 1.241 . S
C441 O455 1.273 . S
C442 O456 1.251 . S
C442 O457 1.268 . S
C443 Nd433 2.836 . S
C443 C444 1.498 . S
C443 O458 1.258 . S
C443 O459 1.239 . S
C444 C443 1.498 . S
C444 C445 1.366 . S
C444 C449 1.407 . S
C445 C444 1.366 . S
C445 C446 1.392 . S
C445 H468 0.930 . S
C446 C445 1.392 . S
C446 C447 1.398 . S
C446 H469 0.929 . S
C447 C446 1.398 . S
C447 C448 1.352 . S
C448 C447 1.352 . S
C448 C449 1.384 . S
C448 H470 0.930 . S
C449 C444 1.407 . S
C449 C448 1.384 . S
C449 H471 0.929 . S
C450 O460 1.241 . S
C450 O461 1.273 . S
C451 O462 1.251 . S
C451 O463 1.268 . S
O452 Nd432 2.500 . S
O452 C434 1.258 . S
O453 Nd432 2.492 . S
O453 C434 1.239 . S
O454 Nd432 2.487 . S
O454 C441 1.241 . S
O455 Nd432 2.682 . S
O455 Nd433 2.414 . S
O455 C441 1.273 . S
O456 Nd432 2.410 . S
O456 C442 1.251 . S
O457 Nd433 2.424 . S
O457 C442 1.268 . S
O458 Nd433 2.500 . S
O458 C443 1.258 . S
O459 Nd433 2.492 . S
O459 C443 1.239 . S
O460 Nd433 2.487 . S
O460 C450 1.241 . S
O461 Nd432 2.414 . S
O461 Nd433 2.682 . S
O461 C450 1.273 . S
O462 Nd433 2.410 . S
O462 C451 1.251 . S
O463 Nd432 2.424 . S
O463 C451 1.268 . S
H464 C436 0.930 . S
H465 C437 0.929 . S
H466 C439 0.930 . S
H467 C440 0.929 . S
H468 C445 0.930 . S
H469 C446 0.929 . S
H470 C448 0.930 . S
H471 C449 0.929 . S
Nd472 C474 2.836 . S
Nd472 O492 2.500 . S
Nd472 O493 2.492 . S
Nd472 O494 2.487 . S
Nd472 O495 2.682 . S
Nd472 O496 2.410 . S
Nd472 O501 2.414 . S
Nd472 O503 2.424 . S
Nd473 C483 2.836 1_545 S
Nd473 O495 2.414 . S
Nd473 O497 2.424 . S
Nd473 O498 2.500 1_545 S
Nd473 O499 2.492 1_545 S
Nd473 O500 2.487 1_455 S
Nd473 O501 2.682 . S
Nd473 O502 2.410 . S
C474 Nd472 2.836 . S
C474 C475 1.498 . S
C474 O492 1.258 . S
C474 O493 1.239 . S
C475 C474 1.498 . S
C475 C476 1.366 1_455 S
C475 C480 1.407 . S
C476 C475 1.366 1_655 S
C476 C477 1.392 . S
C476 H504 0.930 . S
C477 C476 1.392 . S
C477 C478 1.398 1_655 S
C477 H505 0.929 . S
C478 C477 1.398 1_455 S
C478 C479 1.352 . S
C479 C478 1.352 . S
C479 C480 1.384 . S
C479 H506 0.930 . S
C480 C475 1.407 . S
C480 C479 1.384 . S
C480 H507 0.929 . S
C481 O494 1.241 . S
C481 O495 1.273 . S
C482 O496 1.251 . S
C482 O497 1.268 . S
C483 Nd473 2.836 1_565 S
C483 C484 1.498 . S
C483 O498 1.258 . S
C483 O499 1.239 . S
C484 C483 1.498 . S
C484 C485 1.366 . S
C484 C489 1.407 . S
C485 C484 1.366 . S
C485 C486 1.392 . S
C485 H508 0.930 . S
C486 C485 1.392 . S
C486 C487 1.398 . S
C486 H509 0.929 . S
C487 C486 1.398 . S
C487 C488 1.352 . S
C488 C487 1.352 . S
C488 C489 1.384 . S
C488 H510 0.930 . S
C489 C484 1.407 . S
C489 C488 1.384 . S
C489 H511 0.929 . S
C490 O500 1.241 . S
C490 O501 1.273 1_655 S
C491 O502 1.251 . S
C491 O503 1.268 . S
O492 Nd472 2.500 . S
O492 C474 1.258 . S
O493 Nd472 2.492 . S
O493 C474 1.239 . S
O494 Nd472 2.487 . S
O494 C481 1.241 . S
O495 Nd472 2.682 . S
O495 Nd473 2.414 . S
O495 C481 1.273 . S
O496 Nd472 2.410 . S
O496 C482 1.251 . S
O497 Nd473 2.424 . S
O497 C482 1.268 . S
O498 Nd473 2.500 1_565 S
O498 C483 1.258 . S
O499 Nd473 2.492 1_565 S
O499 C483 1.239 . S
O500 Nd473 2.487 1_655 S
O500 C490 1.241 . S
O501 Nd472 2.414 . S
O501 Nd473 2.682 . S
O501 C490 1.273 1_455 S
O502 Nd473 2.410 . S
O502 C491 1.251 . S
O503 Nd472 2.424 . S
O503 C491 1.268 . S
H504 C476 0.930 . S
H505 C477 0.929 . S
H506 C479 0.930 . S
H507 C480 0.929 . S
H508 C485 0.930 . S
H509 C486 0.929 . S
H510 C488 0.930 . S
H511 C489 0.929 . S
Nd512 C514 2.836 . S
Nd512 O532 2.500 . S
Nd512 O533 2.492 . S
Nd512 O534 2.487 . S
Nd512 O535 2.682 . S
Nd512 O536 2.410 . S
Nd512 O541 2.414 . S
Nd512 O543 2.424 . S
Nd513 C523 2.836 . S
Nd513 O535 2.414 . S
Nd513 O537 2.424 . S
Nd513 O538 2.500 . S
Nd513 O539 2.492 . S
Nd513 O540 2.487 . S
Nd513 O541 2.682 . S
Nd513 O542 2.410 . S
C514 Nd512 2.836 . S
C514 C515 1.498 . S
C514 O532 1.258 . S
C514 O533 1.239 . S
C515 C514 1.498 . S
C515 C516 1.366 . S
C515 C520 1.407 . S
C516 C515 1.366 . S
C516 C517 1.392 . S
C516 H544 0.930 . S
C517 C516 1.392 . S
C517 C518 1.398 . S
C517 H545 0.929 . S
C518 C517 1.398 . S
C518 C519 1.352 . S
C519 C518 1.352 . S
C519 C520 1.384 . S
C519 H546 0.930 . S
C520 C515 1.407 . S
C520 C519 1.384 . S
C520 H547 0.929 . S
C521 O534 1.241 . S
C521 O535 1.273 . S
C522 O536 1.251 . S
C522 O537 1.268 . S
C523 Nd513 2.836 . S
C523 C524 1.498 . S
C523 O538 1.258 . S
C523 O539 1.239 . S
C524 C523 1.498 . S
C524 C525 1.366 . S
C524 C529 1.407 . S
C525 C524 1.366 . S
C525 C526 1.392 . S
C525 H548 0.930 . S
C526 C525 1.392 . S
C526 C527 1.398 . S
C526 H549 0.929 . S
C527 C526 1.398 . S
C527 C528 1.352 . S
C528 C527 1.352 . S
C528 C529 1.384 . S
C528 H550 0.930 . S
C529 C524 1.407 . S
C529 C528 1.384 . S
C529 H551 0.929 . S
C530 O540 1.241 . S
C530 O541 1.273 . S
C531 O542 1.251 . S
C531 O543 1.268 . S
O532 Nd512 2.500 . S
O532 C514 1.258 . S
O533 Nd512 2.492 . S
O533 C514 1.239 . S
O534 Nd512 2.487 . S
O534 C521 1.241 . S
O535 Nd512 2.682 . S
O535 Nd513 2.414 . S
O535 C521 1.273 . S
O536 Nd512 2.410 . S
O536 C522 1.251 . S
O537 Nd513 2.424 . S
O537 C522 1.268 . S
O538 Nd513 2.500 . S
O538 C523 1.258 . S
O539 Nd513 2.492 . S
O539 C523 1.239 . S
O540 Nd513 2.487 . S
O540 C530 1.241 . S
O541 Nd512 2.414 . S
O541 Nd513 2.682 . S
O541 C530 1.273 . S
O542 Nd513 2.410 . S
O542 C531 1.251 . S
O543 Nd512 2.424 . S
O543 C531 1.268 . S
H544 C516 0.930 . S
H545 C517 0.929 . S
H546 C519 0.930 . S
H547 C520 0.929 . S
H548 C525 0.930 . S
H549 C526 0.929 . S
H550 C528 0.930 . S
H551 C529 0.929 . S
Nd552 C554 2.836 . S
Nd552 O572 2.500 . S
Nd552 O573 2.492 . S
Nd552 O574 2.487 . S
Nd552 O575 2.682 . S
Nd552 O576 2.410 . S
Nd552 O581 2.414 . S
Nd552 O583 2.424 1_554 S
Nd553 C563 2.836 . S
Nd553 O575 2.414 . S
Nd553 O577 2.424 . S
Nd553 O578 2.500 . S
Nd553 O579 2.492 . S
Nd553 O580 2.487 . S
Nd553 O581 2.682 . S
Nd553 O582 2.410 . S
C554 Nd552 2.836 . S
C554 C555 1.498 . S
C554 O572 1.258 . S
C554 O573 1.239 . S
C555 C554 1.498 . S
C555 C556 1.366 . S
C555 C560 1.407 . S
C556 C555 1.366 . S
C556 C557 1.392 . S
C556 H584 0.930 . S
C557 C556 1.392 . S
C557 C558 1.398 . S
C557 H585 0.929 . S
C558 C557 1.398 . S
C558 C559 1.352 . S
C559 C558 1.352 . S
C559 C560 1.384 . S
C559 H586 0.930 . S
C560 C555 1.407 . S
C560 C559 1.384 . S
C560 H587 0.929 . S
C561 O574 1.241 . S
C561 O575 1.273 . S
C562 O576 1.251 . S
C562 O577 1.268 . S
C563 Nd553 2.836 . S
C563 C564 1.498 . S
C563 O578 1.258 . S
C563 O579 1.239 . S
C564 C563 1.498 . S
C564 C565 1.366 . S
C564 C569 1.407 . S
C565 C564 1.366 . S
C565 C566 1.392 . S
C565 H588 0.930 . S
C566 C565 1.392 . S
C566 C567 1.398 . S
C566 H589 0.929 . S
C567 C566 1.398 . S
C567 C568 1.352 . S
C568 C567 1.352 . S
C568 C569 1.384 . S
C568 H590 0.930 . S
C569 C564 1.407 . S
C569 C568 1.384 . S
C569 H591 0.929 . S
C570 O580 1.241 . S
C570 O581 1.273 . S
C571 O582 1.251 1_556 S
C571 O583 1.268 . S
O572 Nd552 2.500 . S
O572 C554 1.258 . S
O573 Nd552 2.492 . S
O573 C554 1.239 . S
O574 Nd552 2.487 . S
O574 C561 1.241 . S
O575 Nd552 2.682 . S
O575 Nd553 2.414 . S
O575 C561 1.273 . S
O576 Nd552 2.410 . S
O576 C562 1.251 . S
O577 Nd553 2.424 . S
O577 C562 1.268 . S
O578 Nd553 2.500 . S
O578 C563 1.258 . S
O579 Nd553 2.492 . S
O579 C563 1.239 . S
O580 Nd553 2.487 . S
O580 C570 1.241 . S
O581 Nd552 2.414 . S
O581 Nd553 2.682 . S
O581 C570 1.273 . S
O582 Nd553 2.410 . S
O582 C571 1.251 1_554 S
O583 Nd552 2.424 1_556 S
O583 C571 1.268 . S
H584 C556 0.930 . S
H585 C557 0.929 . S
H586 C559 0.930 . S
H587 C560 0.929 . S
H588 C565 0.930 . S
H589 C566 0.929 . S
H590 C568 0.930 . S
H591 C569 0.929 . S
Nd592 C594 2.836 . S
Nd592 O612 2.500 . S
Nd592 O613 2.492 . S
Nd592 O614 2.487 . S
Nd592 O615 2.682 . S
Nd592 O616 2.410 . S
Nd592 O621 2.414 . S
Nd592 O623 2.424 . S
Nd593 C603 2.836 . S
Nd593 O615 2.414 . S
Nd593 O617 2.424 . S
Nd593 O618 2.500 . S
Nd593 O619 2.492 . S
Nd593 O620 2.487 . S
Nd593 O621 2.682 . S
Nd593 O622 2.410 . S
C594 Nd592 2.836 . S
C594 C595 1.498 . S
C594 O612 1.258 . S
C594 O613 1.239 . S
C595 C594 1.498 . S
C595 C596 1.366 . S
C595 C600 1.407 . S
C596 C595 1.366 . S
C596 C597 1.392 . S
C596 H624 0.930 . S
C597 C596 1.392 . S
C597 C598 1.398 . S
C597 H625 0.929 . S
C598 C597 1.398 . S
C598 C599 1.352 . S
C599 C598 1.352 . S
C599 C600 1.384 . S
C599 H626 0.930 . S
C600 C595 1.407 . S
C600 C599 1.384 . S
C600 H627 0.929 . S
C601 O614 1.241 . S
C601 O615 1.273 . S
C602 O616 1.251 . S
C602 O617 1.268 . S
C603 Nd593 2.836 . S
C603 C604 1.498 . S
C603 O618 1.258 . S
C603 O619 1.239 . S
C604 C603 1.498 . S
C604 C605 1.366 . S
C604 C609 1.407 . S
C605 C604 1.366 . S
C605 C606 1.392 . S
C605 H628 0.930 . S
C606 C605 1.392 . S
C606 C607 1.398 . S
C606 H629 0.929 . S
C607 C606 1.398 . S
C607 C608 1.352 . S
C608 C607 1.352 . S
C608 C609 1.384 . S
C608 H630 0.930 . S
C609 C604 1.407 . S
C609 C608 1.384 . S
C609 H631 0.929 . S
C610 O620 1.241 . S
C610 O621 1.273 . S
C611 O622 1.251 . S
C611 O623 1.268 . S
O612 Nd592 2.500 . S
O612 C594 1.258 . S
O613 Nd592 2.492 . S
O613 C594 1.239 . S
O614 Nd592 2.487 . S
O614 C601 1.241 . S
O615 Nd592 2.682 . S
O615 Nd593 2.414 . S
O615 C601 1.273 . S
O616 Nd592 2.410 . S
O616 C602 1.251 . S
O617 Nd593 2.424 . S
O617 C602 1.268 . S
O618 Nd593 2.500 . S
O618 C603 1.258 . S
O619 Nd593 2.492 . S
O619 C603 1.239 . S
O620 Nd593 2.487 . S
O620 C610 1.241 . S
O621 Nd592 2.414 . S
O621 Nd593 2.682 . S
O621 C610 1.273 . S
O622 Nd593 2.410 . S
O622 C611 1.251 . S
O623 Nd592 2.424 . S
O623 C611 1.268 . S
H624 C596 0.930 . S
H625 C597 0.929 . S
H626 C599 0.930 . S
H627 C600 0.929 . S
H628 C605 0.930 . S
H629 C606 0.929 . S
H630 C608 0.930 . S
H631 C609 0.929 . S
Nd632 C634 2.836 . S
Nd632 O652 2.500 . S
Nd632 O653 2.492 . S
Nd632 O654 2.487 . S
Nd632 O655 2.682 . S
Nd632 O656 2.410 . S
Nd632 O661 2.414 . S
Nd632 O663 2.424 . S
Nd633 C643 2.836 . S
Nd633 O655 2.414 . S
Nd633 O657 2.424 . S
Nd633 O658 2.500 . S
Nd633 O659 2.492 . S
Nd633 O660 2.487 . S
Nd633 O661 2.682 . S
Nd633 O662 2.410 . S
C634 Nd632 2.836 . S
C634 C635 1.498 . S
C634 O652 1.258 . S
C634 O653 1.239 . S
C635 C634 1.498 . S
C635 C636 1.366 . S
C635 C640 1.407 . S
C636 C635 1.366 . S
C636 C637 1.392 . S
C636 H664 0.930 . S
C637 C636 1.392 . S
C637 C638 1.398 . S
C637 H665 0.929 . S
C638 C637 1.398 . S
C638 C639 1.352 . S
C639 C638 1.352 . S
C639 C640 1.384 . S
C639 H666 0.930 . S
C640 C635 1.407 . S
C640 C639 1.384 . S
C640 H667 0.929 . S
C641 O654 1.241 . S
C641 O655 1.273 . S
C642 O656 1.251 . S
C642 O657 1.268 . S
C643 Nd633 2.836 . S
C643 C644 1.498 . S
C643 O658 1.258 . S
C643 O659 1.239 . S
C644 C643 1.498 . S
C644 C645 1.366 . S
C644 C649 1.407 . S
C645 C644 1.366 . S
C645 C646 1.392 . S
C645 H668 0.930 . S
C646 C645 1.392 . S
C646 C647 1.398 . S
C646 H669 0.929 . S
C647 C646 1.398 . S
C647 C648 1.352 . S
C648 C647 1.352 . S
C648 C649 1.384 . S
C648 H670 0.930 . S
C649 C644 1.407 . S
C649 C648 1.384 . S
C649 H671 0.929 . S
C650 O660 1.241 . S
C650 O661 1.273 . S
C651 O662 1.251 . S
C651 O663 1.268 . S
O652 Nd632 2.500 . S
O652 C634 1.258 . S
O653 Nd632 2.492 . S
O653 C634 1.239 . S
O654 Nd632 2.487 . S
O654 C641 1.241 . S
O655 Nd632 2.682 . S
O655 Nd633 2.414 . S
O655 C641 1.273 . S
O656 Nd632 2.410 . S
O656 C642 1.251 . S
O657 Nd633 2.424 . S
O657 C642 1.268 . S
O658 Nd633 2.500 . S
O658 C643 1.258 . S
O659 Nd633 2.492 . S
O659 C643 1.239 . S
O660 Nd633 2.487 . S
O660 C650 1.241 . S
O661 Nd632 2.414 . S
O661 Nd633 2.682 . S
O661 C650 1.273 . S
O662 Nd633 2.410 . S
O662 C651 1.251 . S
O663 Nd632 2.424 . S
O663 C651 1.268 . S
H664 C636 0.930 . S
H665 C637 0.929 . S
H666 C639 0.930 . S
H667 C640 0.929 . S
H668 C645 0.930 . S
H669 C646 0.929 . S
H670 C648 0.930 . S
H671 C649 0.929 . S
Nd672 C674 2.836 . S
Nd672 O692 2.500 . S
Nd672 O693 2.492 . S
Nd672 O694 2.487 . S
Nd672 O695 2.682 . S
Nd672 O696 2.410 . S
Nd672 O701 2.414 . S
Nd672 O703 2.424 . S
Nd673 C683 2.836 . S
Nd673 O695 2.414 . S
Nd673 O697 2.424 . S
Nd673 O698 2.500 . S
Nd673 O699 2.492 . S
Nd673 O700 2.487 . S
Nd673 O701 2.682 . S
Nd673 O702 2.410 . S
C674 Nd672 2.836 . S
C674 C675 1.498 . S
C674 O692 1.258 . S
C674 O693 1.239 . S
C675 C674 1.498 . S
C675 C676 1.366 . S
C675 C680 1.407 . S
C676 C675 1.366 . S
C676 C677 1.392 . S
C676 H704 0.930 . S
C677 C676 1.392 . S
C677 C678 1.398 . S
C677 H705 0.929 . S
C678 C677 1.398 . S
C678 C679 1.352 . S
C679 C678 1.352 . S
C679 C680 1.384 . S
C679 H706 0.930 . S
C680 C675 1.407 . S
C680 C679 1.384 . S
C680 H707 0.929 . S
C681 O694 1.241 . S
C681 O695 1.273 . S
C682 O696 1.251 . S
C682 O697 1.268 . S
C683 Nd673 2.836 . S
C683 C684 1.498 . S
C683 O698 1.258 . S
C683 O699 1.239 . S
C684 C683 1.498 . S
C684 C685 1.366 . S
C684 C689 1.407 . S
C685 C684 1.366 . S
C685 C686 1.392 . S
C685 H708 0.930 . S
C686 C685 1.392 . S
C686 C687 1.398 . S
C686 H709 0.929 . S
C687 C686 1.398 . S
C687 C688 1.352 . S
C688 C687 1.352 . S
C688 C689 1.384 . S
C688 H710 0.930 . S
C689 C684 1.407 . S
C689 C688 1.384 . S
C689 H711 0.929 . S
C690 O700 1.241 . S
C690 O701 1.273 . S
C691 O702 1.251 . S
C691 O703 1.268 . S
O692 Nd672 2.500 . S
O692 C674 1.258 . S
O693 Nd672 2.492 . S
O693 C674 1.239 . S
O694 Nd672 2.487 . S
O694 C681 1.241 . S
O695 Nd672 2.682 . S
O695 Nd673 2.414 . S
O695 C681 1.273 . S
O696 Nd672 2.410 . S
O696 C682 1.251 . S
O697 Nd673 2.424 . S
O697 C682 1.268 . S
O698 Nd673 2.500 . S
O698 C683 1.258 . S
O699 Nd673 2.492 . S
O699 C683 1.239 . S
O700 Nd673 2.487 . S
O700 C690 1.241 . S
O701 Nd672 2.414 . S
O701 Nd673 2.682 . S
O701 C690 1.273 . S
O702 Nd673 2.410 . S
O702 C691 1.251 . S
O703 Nd672 2.424 . S
O703 C691 1.268 . S
H704 C676 0.930 . S
H705 C677 0.929 . S
H706 C679 0.930 . S
H707 C680 0.929 . S
H708 C685 0.930 . S
H709 C686 0.929 . S
H710 C688 0.930 . S
H711 C689 0.929 . S
Nd712 C714 2.836 . S
Nd712 O732 2.500 . S
Nd712 O733 2.492 . S
Nd712 O734 2.487 . S
Nd712 O735 2.682 1_655 S
Nd712 O736 2.410 . S
Nd712 O741 2.412 . S
Nd712 O743 2.424 1_655 S
Nd713 C723 2.836 . S
Nd713 O735 2.414 . S
Nd713 O737 2.424 . S
Nd713 O738 2.500 . S
Nd713 O739 2.492 . S
Nd713 O740 2.487 . S
Nd713 O741 2.689 1_455 S
Nd713 O742 2.410 . S
C714 Nd712 2.836 . S
C714 C715 1.498 . S
C714 O732 1.258 . S
C714 O733 1.239 . S
C715 C714 1.498 . S
C715 C716 1.366 . S
C715 C720 1.407 . S
C716 C715 1.366 . S
C716 C717 1.392 . S
C716 H744 0.930 . S
C717 C716 1.392 . S
C717 C718 1.398 . S
C717 H745 0.929 . S
C718 C717 1.398 . S
C718 C719 1.352 . S
C719 C718 1.352 . S
C719 C720 1.384 . S
C719 H746 0.930 . S
C720 C715 1.407 . S
C720 C719 1.384 . S
C720 H747 0.929 . S
C721 O734 1.241 1_455 S
C721 O735 1.273 . S
C722 O736 1.251 . S
C722 O737 1.268 1_655 S
C723 Nd713 2.836 . S
C723 C724 1.498 . S
C723 O738 1.258 . S
C723 O739 1.239 . S
C724 C723 1.498 . S
C724 C725 1.366 . S
C724 C729 1.407 . S
C725 C724 1.366 . S
C725 C726 1.392 . S
C725 H748 0.930 . S
C726 C725 1.392 . S
C726 C727 1.398 . S
C726 H749 0.929 . S
C727 C726 1.398 . S
C727 C728 1.352 . S
C728 C727 1.352 . S
C728 C729 1.384 . S
C728 H750 0.930 . S
C729 C724 1.407 . S
C729 C728 1.384 . S
C729 H751 0.929 . S
C730 O740 1.241 . S
C730 O741 1.274 1_455 S
C731 O742 1.251 . S
C731 O743 1.268 . S
O732 Nd712 2.500 . S
O732 C714 1.258 . S
O733 Nd712 2.492 . S
O733 C714 1.239 . S
O734 Nd712 2.487 . S
O734 C721 1.241 1_655 S
O735 Nd712 2.682 1_455 S
O735 Nd713 2.414 . S
O735 C721 1.273 . S
O736 Nd712 2.410 . S
O736 C722 1.251 . S
O737 Nd713 2.424 . S
O737 C722 1.268 1_455 S
O738 Nd713 2.500 . S
O738 C723 1.258 . S
O739 Nd713 2.492 . S
O739 C723 1.239 . S
O740 Nd713 2.487 . S
O740 C730 1.241 . S
O741 Nd712 2.412 . S
O741 Nd713 2.689 1_655 S
O741 C730 1.274 1_655 S
O742 Nd713 2.410 . S
O742 C731 1.251 . S
O743 Nd712 2.424 1_455 S
O743 C731 1.268 . S
H744 C716 0.930 . S
H745 C717 0.929 . S
H746 C719 0.930 . S
H747 C720 0.929 . S
H748 C725 0.930 . S
H749 C726 0.929 . S
H750 C728 0.930 . S
H751 C729 0.929 . S
Nd752 C754 2.836 . S
Nd752 O772 2.500 . S
Nd752 O773 2.492 . S
Nd752 O774 2.487 . S
Nd752 O775 2.682 . S
Nd752 O776 2.410 . S
Nd752 O781 2.414 . S
Nd752 O783 2.424 . S
Nd753 C763 2.836 . S
Nd753 O775 2.414 . S
Nd753 O777 2.424 . S
Nd753 O778 2.500 . S
Nd753 O779 2.492 . S
Nd753 O780 2.487 . S
Nd753 O781 2.682 . S
Nd753 O782 2.410 . S
C754 Nd752 2.836 . S
C754 C755 1.498 . S
C754 O772 1.258 . S
C754 O773 1.239 . S
C755 C754 1.498 . S
C755 C756 1.366 . S
C755 C760 1.407 . S
C756 C755 1.366 . S
C756 C757 1.392 . S
C756 H784 0.930 . S
C757 C756 1.392 . S
C757 C758 1.398 . S
C757 H785 0.929 . S
C758 C757 1.398 . S
C758 C759 1.352 . S
C759 C758 1.352 . S
C759 C760 1.384 . S
C759 H786 0.930 . S
C760 C755 1.407 . S
C760 C759 1.384 . S
C760 H787 0.929 . S
C761 O774 1.241 . S
C761 O775 1.273 . S
C762 O776 1.251 . S
C762 O777 1.268 . S
C763 Nd753 2.836 . S
C763 C764 1.498 . S
C763 O778 1.258 . S
C763 O779 1.239 . S
C764 C763 1.498 . S
C764 C765 1.366 . S
C764 C769 1.407 . S
C765 C764 1.366 . S
C765 C766 1.392 . S
C765 H788 0.930 . S
C766 C765 1.392 . S
C766 C767 1.398 . S
C766 H789 0.929 . S
C767 C766 1.398 . S
C767 C768 1.352 . S
C768 C767 1.352 . S
C768 C769 1.384 . S
C768 H790 0.930 . S
C769 C764 1.407 . S
C769 C768 1.384 . S
C769 H791 0.929 . S
C770 O780 1.241 . S
C770 O781 1.273 . S
C771 O782 1.251 . S
C771 O783 1.268 . S
O772 Nd752 2.500 . S
O772 C754 1.258 . S
O773 Nd752 2.492 . S
O773 C754 1.239 . S
O774 Nd752 2.487 . S
O774 C761 1.241 . S
O775 Nd752 2.682 . S
O775 Nd753 2.414 . S
O775 C761 1.273 . S
O776 Nd752 2.410 . S
O776 C762 1.251 . S
O777 Nd753 2.424 . S
O777 C762 1.268 . S
O778 Nd753 2.500 . S
O778 C763 1.258 . S
O779 Nd753 2.492 . S
O779 C763 1.239 . S
O780 Nd753 2.487 . S
O780 C770 1.241 . S
O781 Nd752 2.414 . S
O781 Nd753 2.682 . S
O781 C770 1.273 . S
O782 Nd753 2.410 . S
O782 C771 1.251 . S
O783 Nd752 2.424 . S
O783 C771 1.268 . S
H784 C756 0.930 . S
H785 C757 0.929 . S
H786 C759 0.930 . S
H787 C760 0.929 . S
H788 C765 0.930 . S
H789 C766 0.929 . S
H790 C768 0.930 . S
H791 C769 0.929 . S
Nd792 C794 2.836 . S
Nd792 O812 2.500 . S
Nd792 O813 2.492 . S
Nd792 O814 2.487 . S
Nd792 O815 2.682 . S
Nd792 O816 2.410 . S
Nd792 O821 2.414 . S
Nd792 O823 2.424 . S
Nd793 C803 2.836 . S
Nd793 O815 2.414 . S
Nd793 O817 2.424 . S
Nd793 O818 2.500 . S
Nd793 O819 2.492 . S
Nd793 O820 2.487 . S
Nd793 O821 2.682 . S
Nd793 O822 2.410 . S
C794 Nd792 2.836 . S
C794 C795 1.498 . S
C794 O812 1.258 . S
C794 O813 1.239 . S
C795 C794 1.498 . S
C795 C796 1.366 . S
C795 C800 1.407 . S
C796 C795 1.366 . S
C796 C797 1.392 . S
C796 H824 0.930 . S
C797 C796 1.392 . S
C797 C798 1.398 . S
C797 H825 0.929 . S
C798 C797 1.398 . S
C798 C799 1.352 . S
C799 C798 1.352 . S
C799 C800 1.384 . S
C799 H826 0.930 . S
C800 C795 1.407 . S
C800 C799 1.384 . S
C800 H827 0.929 . S
C801 O814 1.241 . S
C801 O815 1.273 . S
C802 O816 1.251 . S
C802 O817 1.268 . S
C803 Nd793 2.836 . S
C803 C804 1.498 . S
C803 O818 1.258 . S
C803 O819 1.239 . S
C804 C803 1.498 . S
C804 C805 1.366 . S
C804 C809 1.407 . S
C805 C804 1.366 . S
C805 C806 1.392 . S
C805 H828 0.930 . S
C806 C805 1.392 . S
C806 C807 1.398 . S
C806 H829 0.929 . S
C807 C806 1.398 . S
C807 C808 1.352 . S
C808 C807 1.352 . S
C808 C809 1.384 . S
C808 H830 0.930 . S
C809 C804 1.407 . S
C809 C808 1.384 . S
C809 H831 0.929 . S
C810 O820 1.241 . S
C810 O821 1.273 . S
C811 O822 1.251 . S
C811 O823 1.268 . S
O812 Nd792 2.500 . S
O812 C794 1.258 . S
O813 Nd792 2.492 . S
O813 C794 1.239 . S
O814 Nd792 2.487 . S
O814 C801 1.241 . S
O815 Nd792 2.682 . S
O815 Nd793 2.414 . S
O815 C801 1.273 . S
O816 Nd792 2.410 . S
O816 C802 1.251 . S
O817 Nd793 2.424 . S
O817 C802 1.268 . S
O818 Nd793 2.500 . S
O818 C803 1.258 . S
O819 Nd793 2.492 . S
O819 C803 1.239 . S
O820 Nd793 2.487 . S
O820 C810 1.241 . S
O821 Nd792 2.414 . S
O821 Nd793 2.682 . S
O821 C810 1.273 . S
O822 Nd793 2.410 . S
O822 C811 1.251 . S
O823 Nd792 2.424 . S
O823 C811 1.268 . S
H824 C796 0.930 . S
H825 C797 0.929 . S
H826 C799 0.930 . S
H827 C800 0.929 . S
H828 C805 0.930 . S
H829 C806 0.929 . S
H830 C808 0.930 . S
H831 C809 0.929 . S
Nd832 C834 2.836 . S
Nd832 O852 2.500 . S
Nd832 O853 2.492 . S
Nd832 O854 2.487 . S
Nd832 O855 2.682 . S
Nd832 O856 2.410 . S
Nd832 O861 2.414 . S
Nd832 O863 2.424 . S
Nd833 C843 2.836 . S
Nd833 O855 2.414 . S
Nd833 O857 2.424 . S
Nd833 O858 2.500 . S
Nd833 O859 2.492 . S
Nd833 O860 2.487 . S
Nd833 O861 2.682 . S
Nd833 O862 2.410 . S
C834 Nd832 2.836 . S
C834 C835 1.498 . S
C834 O852 1.258 . S
C834 O853 1.239 . S
C835 C834 1.498 . S
C835 C836 1.366 . S
C835 C840 1.407 . S
C836 C835 1.366 . S
C836 C837 1.392 . S
C836 H864 0.930 . S
C837 C836 1.392 . S
C837 C838 1.398 . S
C837 H865 0.929 . S
C838 C837 1.398 . S
C838 C839 1.352 . S
C839 C838 1.352 . S
C839 C840 1.384 . S
C839 H866 0.930 . S
C840 C835 1.407 . S
C840 C839 1.384 . S
C840 H867 0.929 . S
C841 O854 1.241 . S
C841 O855 1.273 . S
C842 O856 1.251 . S
C842 O857 1.268 . S
C843 Nd833 2.836 . S
C843 C844 1.498 . S
C843 O858 1.258 . S
C843 O859 1.239 . S
C844 C843 1.498 . S
C844 C845 1.366 . S
C844 C849 1.407 . S
C845 C844 1.366 . S
C845 C846 1.392 . S
C845 H868 0.930 . S
C846 C845 1.392 . S
C846 C847 1.398 . S
C846 H869 0.929 . S
C847 C846 1.398 . S
C847 C848 1.352 . S
C848 C847 1.352 . S
C848 C849 1.384 . S
C848 H870 0.930 . S
C849 C844 1.407 . S
C849 C848 1.384 . S
C849 H871 0.929 . S
C850 O860 1.241 . S
C850 O861 1.273 . S
C851 O862 1.251 . S
C851 O863 1.268 . S
O852 Nd832 2.500 . S
O852 C834 1.258 . S
O853 Nd832 2.492 . S
O853 C834 1.239 . S
O854 Nd832 2.487 . S
O854 C841 1.241 . S
O855 Nd832 2.682 . S
O855 Nd833 2.414 . S
O855 C841 1.273 . S
O856 Nd832 2.410 . S
O856 C842 1.251 . S
O857 Nd833 2.424 . S
O857 C842 1.268 . S
O858 Nd833 2.500 . S
O858 C843 1.258 . S
O859 Nd833 2.492 . S
O859 C843 1.239 . S
O860 Nd833 2.487 . S
O860 C850 1.241 . S
O861 Nd832 2.414 . S
O861 Nd833 2.682 . S
O861 C850 1.273 . S
O862 Nd833 2.410 . S
O862 C851 1.251 . S
O863 Nd832 2.424 . S
O863 C851 1.268 . S
H864 C836 0.930 . S
H865 C837 0.929 . S
H866 C839 0.930 . S
H867 C840 0.929 . S
H868 C845 0.930 . S
H869 C846 0.929 . S
H870 C848 0.930 . S
H871 C849 0.929 . S
Nd872 C874 2.836 . S
Nd872 O892 2.500 . S
Nd872 O893 2.492 . S
Nd872 O894 2.487 . S
Nd872 O895 2.682 . S
Nd872 O896 2.410 . S
Nd872 O901 2.414 . S
Nd872 O903 2.424 . S
Nd873 C883 2.836 . S
Nd873 O895 2.414 . S
Nd873 O897 2.424 . S
Nd873 O898 2.500 . S
Nd873 O899 2.492 . S
Nd873 O900 2.487 . S
Nd873 O901 2.682 . S
Nd873 O902 2.410 . S
C874 Nd872 2.836 . S
C874 C875 1.498 . S
C874 O892 1.258 . S
C874 O893 1.239 . S
C875 C874 1.498 . S
C875 C876 1.366 . S
C875 C880 1.407 . S
C876 C875 1.366 . S
C876 C877 1.392 . S
C876 H904 0.930 . S
C877 C876 1.392 . S
C877 C878 1.398 . S
C877 H905 0.929 . S
C878 C877 1.398 . S
C878 C879 1.352 . S
C879 C878 1.352 . S
C879 C880 1.384 . S
C879 H906 0.930 . S
C880 C875 1.407 . S
C880 C879 1.384 . S
C880 H907 0.929 . S
C881 O894 1.241 . S
C881 O895 1.273 . S
C882 O896 1.251 . S
C882 O897 1.268 . S
C883 Nd873 2.836 . S
C883 C884 1.498 . S
C883 O898 1.258 . S
C883 O899 1.239 . S
C884 C883 1.498 . S
C884 C885 1.366 . S
C884 C889 1.407 . S
C885 C884 1.366 . S
C885 C886 1.392 . S
C885 H908 0.930 . S
C886 C885 1.392 . S
C886 C887 1.398 . S
C886 H909 0.929 . S
C887 C886 1.398 . S
C887 C888 1.352 . S
C888 C887 1.352 . S
C888 C889 1.384 . S
C888 H910 0.930 . S
C889 C884 1.407 . S
C889 C888 1.384 . S
C889 H911 0.929 . S
C890 O900 1.241 . S
C890 O901 1.273 . S
C891 O902 1.251 . S
C891 O903 1.268 . S
O892 Nd872 2.500 . S
O892 C874 1.258 . S
O893 Nd872 2.492 . S
O893 C874 1.239 . S
O894 Nd872 2.487 . S
O894 C881 1.241 . S
O895 Nd872 2.682 . S
O895 Nd873 2.414 . S
O895 C881 1.273 . S
O896 Nd872 2.410 . S
O896 C882 1.251 . S
O897 Nd873 2.424 . S
O897 C882 1.268 . S
O898 Nd873 2.500 . S
O898 C883 1.258 . S
O899 Nd873 2.492 . S
O899 C883 1.239 . S
O900 Nd873 2.487 . S
O900 C890 1.241 . S
O901 Nd872 2.414 . S
O901 Nd873 2.682 . S
O901 C890 1.273 . S
O902 Nd873 2.410 . S
O902 C891 1.251 . S
O903 Nd872 2.424 . S
O903 C891 1.268 . S
H904 C876 0.930 . S
H905 C877 0.929 . S
H906 C879 0.930 . S
H907 C880 0.929 . S
H908 C885 0.930 . S
H909 C886 0.929 . S
H910 C888 0.930 . S
H911 C889 0.929 . S
Nd912 C914 2.836 . S
Nd912 O932 2.500 . S
Nd912 O933 2.492 . S
Nd912 O934 2.487 . S
Nd912 O935 2.682 . S
Nd912 O936 2.410 . S
Nd912 O941 2.414 . S
Nd912 O943 2.424 . S
Nd913 C923 2.836 . S
Nd913 O935 2.414 1_655 S
Nd913 O937 2.424 . S
Nd913 O938 2.500 . S
Nd913 O939 2.492 . S
Nd913 O940 2.487 . S
Nd913 O941 2.682 1_655 S
Nd913 O942 2.410 . S
C914 Nd912 2.836 . S
C914 C915 1.498 . S
C914 O932 1.258 . S
C914 O933 1.239 . S
C915 C914 1.498 . S
C915 C916 1.366 . S
C915 C920 1.407 . S
C916 C915 1.366 . S
C916 C917 1.392 . S
C916 H944 0.930 . S
C917 C916 1.392 . S
C917 C918 1.398 . S
C917 H945 0.929 1_554 S
C918 C917 1.398 . S
C918 C919 1.352 . S
C919 C918 1.352 . S
C919 C920 1.384 . S
C919 H946 0.930 . S
C920 C915 1.407 . S
C920 C919 1.384 . S
C920 H947 0.929 . S
C921 O934 1.241 . S
C921 O935 1.273 . S
C922 O936 1.251 . S
C922 O937 1.268 1_455 S
C923 Nd913 2.836 . S
C923 C924 1.498 . S
C923 O938 1.258 . S
C923 O939 1.239 . S
C924 C923 1.498 . S
C924 C925 1.366 . S
C924 C929 1.407 . S
C925 C924 1.366 . S
C925 C926 1.392 . S
C925 H948 0.930 . S
C926 C925 1.392 . S
C926 C927 1.398 . S
C926 H949 0.929 . S
C927 C926 1.398 . S
C927 C928 1.352 . S
C928 C927 1.352 . S
C928 C929 1.384 . S
C928 H950 0.930 . S
C929 C924 1.407 . S
C929 C928 1.384 . S
C929 H951 0.929 . S
C930 O940 1.241 . S
C930 O941 1.273 1_655 S
C931 O942 1.251 1_455 S
C931 O943 1.268 . S
O932 Nd912 2.500 . S
O932 C914 1.258 . S
O933 Nd912 2.492 . S
O933 C914 1.239 . S
O934 Nd912 2.487 . S
O934 C921 1.241 . S
O935 Nd912 2.682 . S
O935 Nd913 2.414 1_455 S
O935 C921 1.273 . S
O936 Nd912 2.410 . S
O936 C922 1.251 . S
O937 Nd913 2.424 . S
O937 C922 1.268 1_655 S
O938 Nd913 2.500 . S
O938 C923 1.258 . S
O939 Nd913 2.492 . S
O939 C923 1.239 . S
O940 Nd913 2.487 . S
O940 C930 1.241 . S
O941 Nd912 2.414 . S
O941 Nd913 2.682 1_455 S
O941 C930 1.273 1_455 S
O942 Nd913 2.410 . S
O942 C931 1.251 1_655 S
O943 Nd912 2.424 . S
O943 C931 1.268 . S
H944 C916 0.930 . S
H945 C917 0.929 1_556 S
H946 C919 0.930 . S
H947 C920 0.929 . S
H948 C925 0.930 . S
H949 C926 0.929 . S
H950 C928 0.930 . S
H951 C929 0.929 . S
C952 C953 1.349 . S
C952 C954 1.327 . S
C952 H977 0.950 . S
C953 C952 1.349 . S
C953 C969 1.349 . S
C954 C952 1.327 . S
C954 C973 1.429 . S
C954 H978 0.950 . S
C955 C972 1.574 1_556 S
C955 C974 1.368 . S
C955 H979 0.949 . S
H956 C960 0.949 . S
C957 C958 1.349 . S
C957 C959 1.327 . S
C957 H980 0.950 . S
C958 C957 1.349 . S
C958 C970 1.349 . S
C959 C957 1.327 . S
C959 C975 1.429 . S
C959 H981 0.950 . S
C960 H956 0.949 . S
C960 C968 1.574 . S
C960 C976 1.369 1_556 S
H961 C969 0.950 . S
H962 C967 0.950 . S
H963 C968 0.949 . S
H964 C970 0.950 . S
H965 C971 0.942 1_556 S
H966 C972 0.949 . S
C967 H962 0.950 . S
C967 C969 1.327 . S
C967 C973 1.429 . S
C968 C960 1.574 . S
C968 H963 0.949 . S
C968 C974 1.368 . S
C969 C953 1.349 . S
C969 H961 0.950 . S
C969 C967 1.327 . S
C970 C958 1.349 . S
C970 H964 0.950 . S
C970 C971 1.327 . S
C971 H965 0.942 1_554 S
C971 C970 1.327 . S
C971 C975 1.429 . S
C972 C955 1.574 1_554 S
C972 H966 0.949 . S
C972 C976 1.368 . S
C973 C954 1.429 . S
C973 C967 1.429 . S
C973 C974 1.523 . S
C974 C955 1.368 . S
C974 C968 1.368 . S
C974 C973 1.523 . S
C975 C959 1.429 . S
C975 C971 1.429 . S
C975 C976 1.522 . S
C976 C960 1.369 1_554 S
C976 C972 1.368 . S
C976 C975 1.522 . S
H977 C952 0.950 . S
H978 C954 0.950 . S
H979 C955 0.949 . S
H980 C957 0.950 . S
H981 C959 0.950 . S
C982 C983 1.349 . S
C982 C984 1.327 . S
C982 H1007 0.950 . S
C983 C982 1.349 . S
C983 C999 1.349 . S
C984 C982 1.327 . S
C984 C1003 1.429 . S
C984 H1008 0.950 . S
C985 C1002 1.574 . S
C985 C1004 1.368 . S
C985 H1009 0.949 . S
H986 C990 0.949 . S
C987 C988 1.349 . S
C987 C989 1.327 . S
C987 H1010 0.950 . S
C988 C987 1.349 . S
C988 C1000 1.349 . S
C989 C987 1.327 . S
C989 C1005 1.429 . S
C989 H1011 0.950 . S
C990 H986 0.949 . S
C990 C998 1.574 . S
C990 C1006 1.368 . S
H991 C999 0.950 . S
H992 C997 0.950 . S
H993 C998 0.949 . S
H994 C1000 0.950 . S
H995 C1001 0.950 . S
H996 C1002 0.949 . S
C997 H992 0.950 . S
C997 C999 1.327 . S
C997 C1003 1.429 . S
C998 C990 1.574 . S
C998 H993 0.949 . S
C998 C1004 1.368 . S
C999 C983 1.349 . S
C999 H991 0.950 . S
C999 C997 1.327 . S
C1000 C988 1.349 . S
C1000 H994 0.950 . S
C1000 C1001 1.327 . S
C1001 H995 0.950 . S
C1001 C1000 1.327 . S
C1001 C1005 1.429 . S
C1002 C985 1.574 . S
C1002 H996 0.949 . S
C1002 C1006 1.368 . S
C1003 C984 1.429 . S
C1003 C997 1.429 . S
C1003 C1004 1.523 . S
C1004 C985 1.368 . S
C1004 C998 1.368 . S
C1004 C1003 1.523 . S
C1005 C989 1.429 . S
C1005 C1001 1.429 . S
C1005 C1006 1.523 . S
C1006 C990 1.368 . S
C1006 C1002 1.368 . S
C1006 C1005 1.523 . S
H1007 C982 0.950 . S
H1008 C984 0.950 . S
H1009 C985 0.949 . S
H1010 C987 0.950 . S
H1011 C989 0.950 . S
C1012 C1013 1.349 . S
C1012 C1014 1.327 . S
C1012 H1037 0.950 . S
C1013 C1012 1.349 . S
C1013 C1029 1.349 . S
C1014 C1012 1.327 . S
C1014 C1033 1.429 . S
C1014 H1038 0.950 . S
C1015 C1032 1.574 . S
C1015 C1034 1.368 . S
C1015 H1039 0.949 . S
H1016 C1020 0.949 . S
C1017 C1018 1.349 . S
C1017 C1019 1.327 . S
C1017 H1040 0.947 1_565 S
C1018 C1017 1.349 . S
C1018 C1030 1.349 . S
C1019 C1017 1.327 . S
C1019 C1035 1.429 . S
C1019 H1041 0.950 . S
C1020 H1016 0.949 . S
C1020 C1028 1.574 . S
C1020 C1036 1.368 . S
H1021 C1029 0.950 . S
H1022 C1027 0.950 . S
H1023 C1028 0.949 . S
H1024 C1030 0.950 . S
H1025 C1031 0.950 . S
H1026 C1032 0.949 . S
C1027 H1022 0.950 . S
C1027 C1029 1.327 . S
C1027 C1033 1.429 . S
C1028 C1020 1.574 . S
C1028 H1023 0.949 . S
C1028 C1034 1.368 . S
C1029 C1013 1.349 . S
C1029 H1021 0.950 . S
C1029 C1027 1.327 . S
C1030 C1018 1.349 . S
C1030 H1024 0.950 . S
C1030 C1031 1.327 . S
C1031 H1025 0.950 . S
C1031 C1030 1.327 . S
C1031 C1035 1.429 . S
C1032 C1015 1.574 . S
C1032 H1026 0.949 . S
C1032 C1036 1.368 . S
C1033 C1014 1.429 . S
C1033 C1027 1.429 . S
C1033 C1034 1.523 . S
C1034 C1015 1.368 . S
C1034 C1028 1.368 . S
C1034 C1033 1.523 . S
C1035 C1019 1.429 . S
C1035 C1031 1.429 . S
C1035 C1036 1.523 . S
C1036 C1020 1.368 . S
C1036 C1032 1.368 . S
C1036 C1035 1.523 . S
H1037 C1012 0.950 . S
H1038 C1014 0.950 . S
H1039 C1015 0.949 . S
H1040 C1017 0.947 1_545 S
H1041 C1019 0.950 . S
C1042 C1043 1.349 . S
C1042 C1044 1.327 . S
C1042 H1067 0.950 . S
C1043 C1042 1.349 . S
C1043 C1059 1.349 . S
C1044 C1042 1.327 . S
C1044 C1063 1.429 . S
C1044 H1068 0.950 . S
C1045 C1062 1.574 . S
C1045 C1064 1.368 . S
C1045 H1069 0.949 . S
H1046 C1050 0.949 . S
C1047 C1048 1.349 . S
C1047 C1049 1.327 . S
C1047 H1070 0.950 . S
C1048 C1047 1.349 . S
C1048 C1060 1.349 . S
C1049 C1047 1.327 . S
C1049 C1065 1.429 . S
C1049 H1071 0.950 . S
C1050 H1046 0.949 . S
C1050 C1058 1.574 . S
C1050 C1066 1.368 . S
H1051 C1059 0.950 . S
H1052 C1057 0.950 . S
H1053 C1058 0.949 . S
H1054 C1060 0.950 . S
H1055 C1061 0.950 . S
H1056 C1062 0.949 . S
C1057 H1052 0.950 . S
C1057 C1059 1.327 . S
C1057 C1063 1.429 . S
C1058 C1050 1.574 . S
C1058 H1053 0.949 . S
C1058 C1064 1.368 . S
C1059 C1043 1.349 . S
C1059 H1051 0.950 . S
C1059 C1057 1.327 . S
C1060 C1048 1.349 . S
C1060 H1054 0.950 . S
C1060 C1061 1.327 . S
C1061 H1055 0.950 . S
C1061 C1060 1.327 . S
C1061 C1065 1.429 . S
C1062 C1045 1.574 . S
C1062 H1056 0.949 . S
C1062 C1066 1.368 . S
C1063 C1044 1.429 . S
C1063 C1057 1.429 . S
C1063 C1064 1.523 . S
C1064 C1045 1.368 . S
C1064 C1058 1.368 . S
C1064 C1063 1.523 . S
C1065 C1049 1.429 . S
C1065 C1061 1.429 . S
C1065 C1066 1.523 . S
C1066 C1050 1.368 . S
C1066 C1062 1.368 . S
C1066 C1065 1.523 . S
H1067 C1042 0.950 . S
H1068 C1044 0.950 . S
H1069 C1045 0.949 . S
H1070 C1047 0.950 . S
H1071 C1049 0.950 . S
C1072 C1073 1.349 . S
C1072 C1074 1.327 . S
C1072 H1097 0.950 . S
C1073 C1072 1.349 . S
C1073 C1089 1.349 1_455 S
C1074 C1072 1.327 . S
C1074 C1093 1.429 . S
C1074 H1098 0.950 . S
C1075 C1092 1.574 . S
C1075 C1094 1.368 . S
C1075 H1099 0.949 . S
H1076 C1080 0.949 . S
C1077 C1078 1.349 . S
C1077 C1079 1.327 . S
C1077 H1100 0.950 . S
C1078 C1077 1.349 . S
C1078 C1090 1.349 . S
C1079 C1077 1.327 . S
C1079 C1095 1.429 . S
C1079 H1101 0.950 . S
C1080 H1076 0.949 . S
C1080 C1088 1.574 . S
C1080 C1096 1.368 . S
H1081 C1089 0.950 . S
H1082 C1087 0.950 1_655 S
H1083 C1088 0.949 . S
H1084 C1090 0.950 . S
H1085 C1091 0.950 . S
H1086 C1092 0.949 . S
C1087 H1082 0.950 1_455 S
C1087 C1089 1.327 1_455 S
C1087 C1093 1.429 . S
C1088 C1080 1.574 . S
C1088 H1083 0.949 . S
C1088 C1094 1.368 . S
C1089 C1073 1.349 1_655 S
C1089 H1081 0.950 . S
C1089 C1087 1.327 1_655 S
C1090 C1078 1.349 . S
C1090 H1084 0.950 . S
C1090 C1091 1.327 . S
C1091 H1085 0.950 . S
C1091 C1090 1.327 . S
C1091 C1095 1.429 . S
C1092 C1075 1.574 . S
C1092 H1086 0.949 . S
C1092 C1096 1.368 . S
C1093 C1074 1.429 . S
C1093 C1087 1.429 . S
C1093 C1094 1.523 . S
C1094 C1075 1.368 . S
C1094 C1088 1.368 . S
C1094 C1093 1.523 . S
C1095 C1079 1.429 . S
C1095 C1091 1.429 . S
C1095 C1096 1.523 . S
C1096 C1080 1.368 . S
C1096 C1092 1.368 . S
C1096 C1095 1.523 . S
H1097 C1072 0.950 . S
H1098 C1074 0.950 . S
H1099 C1075 0.949 . S
H1100 C1077 0.950 . S
H1101 C1079 0.950 . S
C1102 C1103 1.349 . S
C1102 C1104 1.327 . S
C1102 H1127 0.950 . S
C1103 C1102 1.349 . S
C1103 C1119 1.349 . S
C1104 C1102 1.327 . S
C1104 C1123 1.429 . S
C1104 H1128 0.950 . S
C1105 C1122 1.574 . S
C1105 C1124 1.368 . S
C1105 H1129 0.949 . S
H1106 C1110 0.949 . S
C1107 C1108 1.349 . S
C1107 C1109 1.327 . S
C1107 H1130 0.950 . S
C1108 C1107 1.349 . S
C1108 C1120 1.349 . S
C1109 C1107 1.327 . S
C1109 C1125 1.429 . S
C1109 H1131 0.950 . S
C1110 H1106 0.949 . S
C1110 C1118 1.574 . S
C1110 C1126 1.368 . S
H1111 C1119 0.950 . S
H1112 C1117 0.950 . S
H1113 C1118 0.949 . S
H1114 C1120 0.950 . S
H1115 C1121 0.950 . S
H1116 C1122 0.949 . S
C1117 H1112 0.950 . S
C1117 C1119 1.327 . S
C1117 C1123 1.429 . S
C1118 C1110 1.574 . S
C1118 H1113 0.949 . S
C1118 C1124 1.368 . S
C1119 C1103 1.349 . S
C1119 H1111 0.950 . S
C1119 C1117 1.327 . S
C1120 C1108 1.349 . S
C1120 H1114 0.950 . S
C1120 C1121 1.327 . S
C1121 H1115 0.950 . S
C1121 C1120 1.327 . S
C1121 C1125 1.429 . S
C1122 C1105 1.574 . S
C1122 H1116 0.949 . S
C1122 C1126 1.368 . S
C1123 C1104 1.429 . S
C1123 C1117 1.429 . S
C1123 C1124 1.523 . S
C1124 C1105 1.368 . S
C1124 C1118 1.368 . S
C1124 C1123 1.523 . S
C1125 C1109 1.429 . S
C1125 C1121 1.429 . S
C1125 C1126 1.523 . S
C1126 C1110 1.368 . S
C1126 C1122 1.368 . S
C1126 C1125 1.523 . S
H1127 C1102 0.950 . S
H1128 C1104 0.950 . S
H1129 C1105 0.949 . S
H1130 C1107 0.950 . S
H1131 C1109 0.950 . S
C1132 C1133 1.349 . S
C1132 C1134 1.327 . S
C1132 H1157 0.950 . S
C1133 C1132 1.349 . S
C1133 C1149 1.349 . S
C1134 C1132 1.327 . S
C1134 C1153 1.429 . S
C1134 H1158 0.950 . S
C1135 C1152 1.574 . S
C1135 C1154 1.368 . S
C1135 H1159 0.949 . S
H1136 C1140 0.949 . S
C1137 C1138 1.349 . S
C1137 C1139 1.327 . S
C1137 H1160 0.950 . S
C1138 C1137 1.349 . S
C1138 C1150 1.349 . S
C1139 C1137 1.327 . S
C1139 C1155 1.429 . S
C1139 H1161 0.950 . S
C1140 H1136 0.949 . S
C1140 C1148 1.574 . S
C1140 C1156 1.368 . S
H1141 C1149 0.950 . S
H1142 C1147 0.950 . S
H1143 C1148 0.949 . S
H1144 C1150 0.950 . S
H1145 C1151 0.950 . S
H1146 C1152 0.949 . S
C1147 H1142 0.950 . S
C1147 C1149 1.327 . S
C1147 C1153 1.429 . S
C1148 C1140 1.574 . S
C1148 H1143 0.949 . S
C1148 C1154 1.368 . S
C1149 C1133 1.349 . S
C1149 H1141 0.950 . S
C1149 C1147 1.327 . S
C1150 C1138 1.349 . S
C1150 H1144 0.950 . S
C1150 C1151 1.327 . S
C1151 H1145 0.950 . S
C1151 C1150 1.327 . S
C1151 C1155 1.429 . S
C1152 C1135 1.574 . S
C1152 H1146 0.949 . S
C1152 C1156 1.368 . S
C1153 C1134 1.429 . S
C1153 C1147 1.429 . S
C1153 C1154 1.523 . S
C1154 C1135 1.368 . S
C1154 C1148 1.368 . S
C1154 C1153 1.523 . S
C1155 C1139 1.429 . S
C1155 C1151 1.429 . S
C1155 C1156 1.523 . S
C1156 C1140 1.368 . S
C1156 C1152 1.368 . S
C1156 C1155 1.523 . S
H1157 C1132 0.950 . S
H1158 C1134 0.950 . S
H1159 C1135 0.949 . S
H1160 C1137 0.950 . S
H1161 C1139 0.950 . S
C1162 C1163 1.349 . S
C1162 C1164 1.327 . S
C1162 H1187 0.950 . S
C1163 C1162 1.349 . S
C1163 C1179 1.349 . S
C1164 C1162 1.327 . S
C1164 C1183 1.429 . S
C1164 H1188 0.950 . S
C1165 C1182 1.574 . S
C1165 C1184 1.368 . S
C1165 H1189 0.949 . S
H1166 C1170 0.949 . S
C1167 C1168 1.349 . S
C1167 C1169 1.327 . S
C1167 H1190 0.950 . S
C1168 C1167 1.349 . S
C1168 C1180 1.349 . S
C1169 C1167 1.327 . S
C1169 C1185 1.429 . S
C1169 H1191 0.950 . S
C1170 H1166 0.949 . S
C1170 C1178 1.574 . S
C1170 C1186 1.368 . S
H1171 C1179 0.950 . S
H1172 C1177 0.950 . S
H1173 C1178 0.949 . S
H1174 C1180 0.950 . S
H1175 C1181 0.950 . S
H1176 C1182 0.949 . S
C1177 H1172 0.950 . S
C1177 C1179 1.327 . S
C1177 C1183 1.429 . S
C1178 C1170 1.574 . S
C1178 H1173 0.949 . S
C1178 C1184 1.368 . S
C1179 C1163 1.349 . S
C1179 H1171 0.950 . S
C1179 C1177 1.327 . S
C1180 C1168 1.349 . S
C1180 H1174 0.950 . S
C1180 C1181 1.327 . S
C1181 H1175 0.950 . S
C1181 C1180 1.327 . S
C1181 C1185 1.429 . S
C1182 C1165 1.574 . S
C1182 H1176 0.949 . S
C1182 C1186 1.368 . S
C1183 C1164 1.429 . S
C1183 C1177 1.429 . S
C1183 C1184 1.523 . S
C1184 C1165 1.368 . S
C1184 C1178 1.368 . S
C1184 C1183 1.523 . S
C1185 C1169 1.429 . S
C1185 C1181 1.429 . S
C1185 C1186 1.523 . S
C1186 C1170 1.368 . S
C1186 C1182 1.368 . S
C1186 C1185 1.523 . S
H1187 C1162 0.950 . S
H1188 C1164 0.950 . S
H1189 C1165 0.949 . S
H1190 C1167 0.950 . S
H1191 C1169 0.950 . S
C1192 C1193 1.349 . S
C1192 C1194 1.327 . S
C1192 H1217 0.950 . S
C1193 C1192 1.349 . S
C1193 C1209 1.349 . S
C1194 C1192 1.327 . S
C1194 C1213 1.429 . S
C1194 H1218 0.950 . S
C1195 C1212 1.574 . S
C1195 C1214 1.368 . S
C1195 H1219 0.949 . S
H1196 C1200 0.949 . S
C1197 C1198 1.349 . S
C1197 C1199 1.327 1_455 S
C1197 H1220 0.950 1_455 S
C1198 C1197 1.349 . S
C1198 C1210 1.349 . S
C1199 C1197 1.327 1_655 S
C1199 C1215 1.429 . S
C1199 H1221 0.950 . S
C1200 H1196 0.949 . S
C1200 C1208 1.574 . S
C1200 C1216 1.368 . S
H1201 C1209 0.950 . S
H1202 C1207 0.950 . S
H1203 C1208 0.949 . S
H1204 C1210 0.950 . S
H1205 C1211 0.950 . S
H1206 C1212 0.949 . S
C1207 H1202 0.950 . S
C1207 C1209 1.327 . S
C1207 C1213 1.429 . S
C1208 C1200 1.574 . S
C1208 H1203 0.949 . S
C1208 C1214 1.368 . S
C1209 C1193 1.349 . S
C1209 H1201 0.950 . S
C1209 C1207 1.327 . S
C1210 C1198 1.349 . S
C1210 H1204 0.950 . S
C1210 C1211 1.327 . S
C1211 H1205 0.950 . S
C1211 C1210 1.327 . S
C1211 C1215 1.429 1_455 S
C1212 C1195 1.574 . S
C1212 H1206 0.949 . S
C1212 C1216 1.368 . S
C1213 C1194 1.429 . S
C1213 C1207 1.429 . S
C1213 C1214 1.523 . S
C1214 C1195 1.368 . S
C1214 C1208 1.368 . S
C1214 C1213 1.523 . S
C1215 C1199 1.429 . S
C1215 C1211 1.429 1_655 S
C1215 C1216 1.523 . S
C1216 C1200 1.368 . S
C1216 C1212 1.368 . S
C1216 C1215 1.523 . S
H1217 C1192 0.950 . S
H1218 C1194 0.950 . S
H1219 C1195 0.949 . S
H1220 C1197 0.950 1_655 S
H1221 C1199 0.950 . S
C1222 C1223 1.349 . S
C1222 C1224 1.327 . S
C1222 H1247 0.950 . S
C1223 C1222 1.349 . S
C1223 C1239 1.349 . S
C1224 C1222 1.327 . S
C1224 C1243 1.429 . S
C1224 H1248 0.950 . S
C1225 C1242 1.574 . S
C1225 C1244 1.368 . S
C1225 H1249 0.949 . S
H1226 C1230 0.949 . S
C1227 C1228 1.349 . S
C1227 C1229 1.327 . S
C1227 H1250 0.950 . S
C1228 C1227 1.349 . S
C1228 C1240 1.349 . S
C1229 C1227 1.327 . S
C1229 C1245 1.429 . S
C1229 H1251 0.950 . S
C1230 H1226 0.949 . S
C1230 C1238 1.574 . S
C1230 C1246 1.368 . S
H1231 C1239 0.950 . S
H1232 C1237 0.950 . S
H1233 C1238 0.949 . S
H1234 C1240 0.950 . S
H1235 C1241 0.950 . S
H1236 C1242 0.949 . S
C1237 H1232 0.950 . S
C1237 C1239 1.327 . S
C1237 C1243 1.429 . S
C1238 C1230 1.574 . S
C1238 H1233 0.949 . S
C1238 C1244 1.368 . S
C1239 C1223 1.349 . S
C1239 H1231 0.950 . S
C1239 C1237 1.327 . S
C1240 C1228 1.349 . S
C1240 H1234 0.950 . S
C1240 C1241 1.327 . S
C1241 H1235 0.950 . S
C1241 C1240 1.327 . S
C1241 C1245 1.429 . S
C1242 C1225 1.574 . S
C1242 H1236 0.949 . S
C1242 C1246 1.368 . S
C1243 C1224 1.429 . S
C1243 C1237 1.429 . S
C1243 C1244 1.523 . S
C1244 C1225 1.368 . S
C1244 C1238 1.368 . S
C1244 C1243 1.523 . S
C1245 C1229 1.429 . S
C1245 C1241 1.429 . S
C1245 C1246 1.523 . S
C1246 C1230 1.368 . S
C1246 C1242 1.368 . S
C1246 C1245 1.523 . S
H1247 C1222 0.950 . S
H1248 C1224 0.950 . S
H1249 C1225 0.949 . S
H1250 C1227 0.950 . S
H1251 C1229 0.950 . S
C1252 C1253 1.349 . S
C1252 C1254 1.327 . S
C1252 H1277 0.950 . S
C1253 C1252 1.349 . S
C1253 C1269 1.349 1_565 S
C1254 C1252 1.327 . S
C1254 C1273 1.429 1_565 S
C1254 H1278 0.950 . S
C1255 C1272 1.574 . S
C1255 C1274 1.368 . S
C1255 H1279 0.949 . S
H1256 C1260 0.949 1_565 S
C1257 C1258 1.349 . S
C1257 C1259 1.327 . S
C1257 H1280 0.950 . S
C1258 C1257 1.349 . S
C1258 C1270 1.349 . S
C1259 C1257 1.327 . S
C1259 C1275 1.429 . S
C1259 H1281 0.950 . S
C1260 H1256 0.949 1_545 S
C1260 C1268 1.574 1_545 S
C1260 C1276 1.368 . S
H1261 C1269 0.950 . S
H1262 C1267 0.950 . S
H1263 C1268 0.949 . S
H1264 C1270 0.950 . S
H1265 C1271 0.937 1_565 S
H1266 C1272 0.949 . S
C1267 H1262 0.950 . S
C1267 C1269 1.327 . S
C1267 C1273 1.429 . S
C1268 C1260 1.574 1_565 S
C1268 H1263 0.949 . S
C1268 C1274 1.368 1_565 S
C1269 C1253 1.349 1_545 S
C1269 H1261 0.950 . S
C1269 C1267 1.327 . S
C1270 C1258 1.349 . S
C1270 H1264 0.950 . S
C1270 C1271 1.327 . S
C1271 H1265 0.937 1_545 S
C1271 C1270 1.327 . S
C1271 C1275 1.429 . S
C1272 C1255 1.574 . S
C1272 H1266 0.949 . S
C1272 C1276 1.368 . S
C1273 C1254 1.429 1_545 S
C1273 C1267 1.429 . S
C1273 C1274 1.523 . S
C1274 C1255 1.368 . S
C1274 C1268 1.368 1_545 S
C1274 C1273 1.523 . S
C1275 C1259 1.429 . S
C1275 C1271 1.429 . S
C1275 C1276 1.523 . S
C1276 C1260 1.368 . S
C1276 C1272 1.368 . S
C1276 C1275 1.523 . S
H1277 C1252 0.950 . S
H1278 C1254 0.950 . S
H1279 C1255 0.949 . S
H1280 C1257 0.950 . S
H1281 C1259 0.950 . S
C1282 C1283 1.349 . S
C1282 C1284 1.327 . S
C1282 H1307 0.950 . S
C1283 C1282 1.349 . S
C1283 C1299 1.349 . S
C1284 C1282 1.327 . S
C1284 C1303 1.429 . S
C1284 H1308 0.950 . S
C1285 C1302 1.574 1_554 S
C1285 C1304 1.368 . S
C1285 H1309 0.949 . S
H1286 C1290 0.949 . S
C1287 C1288 1.349 . S
C1287 C1289 1.327 . S
C1287 H1310 0.950 . S
C1288 C1287 1.349 . S
C1288 C1300 1.349 . S
C1289 C1287 1.327 . S
C1289 C1305 1.429 . S
C1289 H1311 0.950 . S
C1290 H1286 0.949 . S
C1290 C1298 1.574 . S
C1290 C1306 1.368 . S
H1291 C1299 0.950 . S
H1292 C1297 0.950 . S
H1293 C1298 0.949 . S
H1294 C1300 0.950 . S
H1295 C1301 0.950 . S
H1296 C1302 0.949 . S
C1297 H1292 0.950 . S
C1297 C1299 1.327 . S
C1297 C1303 1.429 . S
C1298 C1290 1.574 . S
C1298 H1293 0.949 . S
C1298 C1304 1.368 1_556 S
C1299 C1283 1.349 . S
C1299 H1291 0.950 . S
C1299 C1297 1.327 . S
C1300 C1288 1.349 . S
C1300 H1294 0.950 . S
C1300 C1301 1.327 . S
C1301 H1295 0.950 . S
C1301 C1300 1.327 . S
C1301 C1305 1.429 . S
C1302 C1285 1.574 1_556 S
C1302 H1296 0.949 . S
C1302 C1306 1.368 . S
C1303 C1284 1.429 . S
C1303 C1297 1.429 . S
C1303 C1304 1.523 . S
C1304 C1285 1.368 . S
C1304 C1298 1.368 1_554 S
C1304 C1303 1.523 . S
C1305 C1289 1.429 . S
C1305 C1301 1.429 . S
C1305 C1306 1.523 . S
C1306 C1290 1.368 . S
C1306 C1302 1.368 . S
C1306 C1305 1.523 . S
H1307 C1282 0.950 . S
H1308 C1284 0.950 . S
H1309 C1285 0.949 . S
H1310 C1287 0.950 . S
H1311 C1289 0.950 . S
C1312 C1313 1.349 . S
C1312 C1314 1.327 . S
C1312 H1337 0.950 . S
C1313 C1312 1.349 . S
C1313 C1329 1.349 . S
C1314 C1312 1.327 . S
C1314 C1333 1.429 . S
C1314 H1338 0.950 . S
C1315 C1332 1.574 . S
C1315 C1334 1.368 . S
C1315 H1339 0.949 . S
H1316 C1320 0.949 . S
C1317 C1318 1.343 1_655 S
C1317 C1319 1.327 . S
C1317 H1340 0.950 . S
C1318 C1317 1.343 1_455 S
C1318 C1330 1.352 . S
C1319 C1317 1.327 . S
C1319 C1335 1.429 . S
C1319 H1341 0.950 . S
C1320 H1316 0.949 . S
C1320 C1328 1.574 . S
C1320 C1336 1.368 . S
H1321 C1329 0.950 . S
H1322 C1327 0.950 . S
H1323 C1328 0.949 . S
H1324 C1330 0.950 . S
H1325 C1331 0.950 1_455 S
H1326 C1332 0.949 . S
C1327 H1322 0.950 . S
C1327 C1329 1.327 . S
C1327 C1333 1.429 . S
C1328 C1320 1.574 . S
C1328 H1323 0.949 . S
C1328 C1334 1.368 . S
C1329 C1313 1.349 . S
C1329 H1321 0.950 . S
C1329 C1327 1.327 . S
C1330 C1318 1.352 . S
C1330 H1324 0.950 . S
C1330 C1331 1.327 1_455 S
C1331 H1325 0.950 1_655 S
C1331 C1330 1.327 1_655 S
C1331 C1335 1.429 . S
C1332 C1315 1.574 . S
C1332 H1326 0.949 . S
C1332 C1336 1.368 . S
C1333 C1314 1.429 . S
C1333 C1327 1.429 . S
C1333 C1334 1.523 . S
C1334 C1315 1.368 . S
C1334 C1328 1.368 . S
C1334 C1333 1.523 . S
C1335 C1319 1.429 . S
C1335 C1331 1.429 . S
C1335 C1336 1.523 . S
C1336 C1320 1.368 . S
C1336 C1332 1.368 . S
C1336 C1335 1.523 . S
H1337 C1312 0.950 . S
H1338 C1314 0.950 . S
H1339 C1315 0.949 . S
H1340 C1317 0.950 . S
H1341 C1319 0.950 . S
C1342 C1343 1.349 . S
C1342 C1344 1.327 . S
C1342 H1367 0.950 . S
C1343 C1342 1.349 . S
C1343 C1359 1.349 . S
C1344 C1342 1.327 . S
C1344 C1363 1.429 . S
C1344 H1368 0.950 . S
C1345 C1362 1.574 . S
C1345 C1364 1.368 . S
C1345 H1369 0.949 . S
H1346 C1350 0.949 . S
C1347 C1348 1.349 . S
C1347 C1349 1.327 . S
C1347 H1370 0.950 . S
C1348 C1347 1.349 . S
C1348 C1360 1.349 . S
C1349 C1347 1.327 . S
C1349 C1365 1.429 . S
C1349 H1371 0.950 . S
C1350 H1346 0.949 . S
C1350 C1358 1.574 . S
C1350 C1366 1.368 . S
H1351 C1359 0.950 . S
H1352 C1357 0.950 . S
H1353 C1358 0.949 . S
H1354 C1360 0.950 . S
H1355 C1361 0.950 . S
H1356 C1362 0.949 . S
C1357 H1352 0.950 . S
C1357 C1359 1.327 . S
C1357 C1363 1.429 . S
C1358 C1350 1.574 . S
C1358 H1353 0.949 . S
C1358 C1364 1.368 . S
C1359 C1343 1.349 . S
C1359 H1351 0.950 . S
C1359 C1357 1.327 . S
C1360 C1348 1.349 . S
C1360 H1354 0.950 . S
C1360 C1361 1.327 . S
C1361 H1355 0.950 . S
C1361 C1360 1.327 . S
C1361 C1365 1.429 . S
C1362 C1345 1.574 . S
C1362 H1356 0.949 . S
C1362 C1366 1.368 . S
C1363 C1344 1.429 . S
C1363 C1357 1.429 . S
C1363 C1364 1.523 . S
C1364 C1345 1.368 . S
C1364 C1358 1.368 . S
C1364 C1363 1.523 . S
C1365 C1349 1.429 . S
C1365 C1361 1.429 . S
C1365 C1366 1.523 . S
C1366 C1350 1.368 . S
C1366 C1362 1.368 . S
C1366 C1365 1.523 . S
H1367 C1342 0.950 . S
H1368 C1344 0.950 . S
H1369 C1345 0.949 . S
H1370 C1347 0.950 . S
H1371 C1349 0.950 . S
C1372 C1373 1.349 1_565 S
C1372 C1374 1.327 1_565 S
C1372 H1397 0.950 . S
C1373 C1372 1.349 1_545 S
C1373 C1389 1.349 . S
C1374 C1372 1.327 1_545 S
C1374 C1393 1.429 . S
C1374 H1398 0.950 1_545 S
C1375 C1392 1.574 . S
C1375 C1394 1.368 . S
C1375 H1399 0.949 . S
H1376 C1380 0.949 . S
C1377 C1378 1.349 . S
C1377 C1379 1.327 . S
C1377 H1400 0.950 . S
C1378 C1377 1.349 . S
C1378 C1390 1.349 . S
C1379 C1377 1.327 . S
C1379 C1395 1.429 . S
C1379 H1401 0.950 . S
C1380 H1376 0.949 . S
C1380 C1388 1.574 . S
C1380 C1396 1.368 . S
H1381 C1389 0.950 . S
H1382 C1387 0.950 . S
H1383 C1388 0.949 . S
H1384 C1390 0.950 . S
H1385 C1391 0.950 . S
H1386 C1392 0.949 . S
C1387 H1382 0.950 . S
C1387 C1389 1.327 . S
C1387 C1393 1.429 . S
C1388 C1380 1.574 . S
C1388 H1383 0.949 . S
C1388 C1394 1.368 . S
C1389 C1373 1.349 . S
C1389 H1381 0.950 . S
C1389 C1387 1.327 . S
C1390 C1378 1.349 . S
C1390 H1384 0.950 . S
C1390 C1391 1.327 . S
C1391 H1385 0.950 . S
C1391 C1390 1.327 . S
C1391 C1395 1.429 . S
C1392 C1375 1.574 . S
C1392 H1386 0.949 . S
C1392 C1396 1.368 . S
C1393 C1374 1.429 . S
C1393 C1387 1.429 . S
C1393 C1394 1.523 . S
C1394 C1375 1.368 . S
C1394 C1388 1.368 . S
C1394 C1393 1.523 . S
C1395 C1379 1.429 . S
C1395 C1391 1.429 . S
C1395 C1396 1.523 . S
C1396 C1380 1.368 . S
C1396 C1392 1.368 . S
C1396 C1395 1.523 . S
H1397 C1372 0.950 . S
H1398 C1374 0.950 1_565 S
H1399 C1375 0.949 . S
H1400 C1377 0.950 . S
H1401 C1379 0.950 . S
C1402 C1403 1.349 . S
C1402 C1404 1.327 . S
C1402 H1427 0.950 . S
C1403 C1402 1.349 . S
C1403 C1419 1.349 . S
C1404 C1402 1.327 . S
C1404 C1423 1.429 . S
C1404 H1428 0.950 . S
C1405 C1422 1.574 . S
C1405 C1424 1.368 . S
C1405 H1429 0.949 . S
H1406 C1410 0.949 . S
C1407 C1408 1.349 . S
C1407 C1409 1.327 . S
C1407 H1430 0.950 . S
C1408 C1407 1.349 . S
C1408 C1420 1.349 . S
C1409 C1407 1.327 . S
C1409 C1425 1.429 . S
C1409 H1431 0.950 . S
C1410 H1406 0.949 . S
C1410 C1418 1.574 . S
C1410 C1426 1.368 . S
H1411 C1419 0.950 . S
H1412 C1417 0.950 . S
H1413 C1418 0.949 . S
H1414 C1420 0.950 . S
H1415 C1421 0.950 . S
H1416 C1422 0.949 . S
C1417 H1412 0.950 . S
C1417 C1419 1.327 . S
C1417 C1423 1.429 . S
C1418 C1410 1.574 . S
C1418 H1413 0.949 . S
C1418 C1424 1.368 . S
C1419 C1403 1.349 . S
C1419 H1411 0.950 . S
C1419 C1417 1.327 . S
C1420 C1408 1.349 . S
C1420 H1414 0.950 . S
C1420 C1421 1.327 . S
C1421 H1415 0.950 . S
C1421 C1420 1.327 . S
C1421 C1425 1.429 . S
C1422 C1405 1.574 . S
C1422 H1416 0.949 . S
C1422 C1426 1.368 . S
C1423 C1404 1.429 . S
C1423 C1417 1.429 . S
C1423 C1424 1.523 . S
C1424 C1405 1.368 . S
C1424 C1418 1.368 . S
C1424 C1423 1.523 . S
C1425 C1409 1.429 . S
C1425 C1421 1.429 . S
C1425 C1426 1.523 . S
C1426 C1410 1.368 . S
C1426 C1422 1.368 . S
C1426 C1425 1.523 . S
H1427 C1402 0.950 . S
H1428 C1404 0.950 . S
H1429 C1405 0.949 . S
H1430 C1407 0.950 . S
H1431 C1409 0.950 . S
C1432 C1433 1.349 . S
C1432 C1434 1.327 . S
C1432 H1457 0.950 . S
C1433 C1432 1.349 . S
C1433 C1449 1.349 . S
C1434 C1432 1.327 . S
C1434 C1453 1.429 . S
C1434 H1458 0.950 . S
C1435 C1452 1.527 1_565 S
C1435 C1454 1.368 . S
C1435 H1459 0.949 . S
H1436 C1440 0.949 . S
C1437 C1438 1.349 . S
C1437 C1439 1.327 . S
C1437 H1460 0.950 . S
C1438 C1437 1.349 . S
C1438 C1450 1.349 . S
C1439 C1437 1.327 . S
C1439 C1455 1.429 . S
C1439 H1461 0.950 . S
C1440 H1436 0.949 . S
C1440 C1448 1.574 . S
C1440 C1456 1.368 . S
H1441 C1449 0.950 . S
H1442 C1447 0.950 . S
H1443 C1448 0.949 . S
H1444 C1450 0.950 . S
H1445 C1451 0.950 . S
H1446 C1452 0.989 . S
C1447 H1442 0.950 . S
C1447 C1449 1.327 . S
C1447 C1453 1.429 . S
C1448 C1440 1.574 . S
C1448 H1443 0.949 . S
C1448 C1454 1.368 . S
C1449 C1433 1.349 . S
C1449 H1441 0.950 . S
C1449 C1447 1.327 . S
C1450 C1438 1.349 . S
C1450 H1444 0.950 . S
C1450 C1451 1.327 . S
C1451 H1445 0.950 . S
C1451 C1450 1.327 . S
C1451 C1455 1.429 . S
C1452 C1435 1.527 1_545 S
C1452 H1446 0.989 . S
C1452 C1456 1.374 1_545 S
C1453 C1434 1.429 . S
C1453 C1447 1.429 . S
C1453 C1454 1.523 . S
C1454 C1435 1.368 . S
C1454 C1448 1.368 . S
C1454 C1453 1.523 . S
C1455 C1439 1.429 . S
C1455 C1451 1.429 . S
C1455 C1456 1.523 1_545 S
C1456 C1440 1.368 . S
C1456 C1452 1.374 1_565 S
C1456 C1455 1.523 1_565 S
H1457 C1432 0.950 . S
H1458 C1434 0.950 . S
H1459 C1435 0.949 . S
H1460 C1437 0.950 . S
H1461 C1439 0.950 . S
C1462 C1463 1.349 . S
C1462 C1464 1.327 . S
C1462 H1487 0.950 . S
C1463 C1462 1.349 . S
C1463 C1479 1.349 1_556 S
C1464 C1462 1.327 . S
C1464 C1483 1.429 1_556 S
C1464 H1488 0.950 . S
C1465 C1482 1.574 . S
C1465 C1484 1.368 . S
C1465 H1489 0.949 . S
H1466 C1470 0.937 1_556 S
C1467 C1468 1.349 . S
C1467 C1469 1.327 . S
C1467 H1490 0.950 . S
C1468 C1467 1.349 . S
C1468 C1480 1.349 . S
C1469 C1467 1.327 . S
C1469 C1485 1.429 . S
C1469 H1491 0.950 . S
C1470 H1466 0.937 1_554 S
C1470 C1478 1.556 1_554 S
C1470 C1486 1.368 . S
H1471 C1479 0.950 . S
H1472 C1477 0.950 . S
H1473 C1478 0.983 . S
H1474 C1480 0.950 . S
H1475 C1481 0.950 . S
H1476 C1482 0.949 . S
C1477 H1472 0.950 . S
C1477 C1479 1.327 . S
C1477 C1483 1.429 . S
C1478 C1470 1.556 1_556 S
C1478 H1473 0.983 . S
C1478 C1484 1.350 1_556 S
C1479 C1463 1.349 1_554 S
C1479 H1471 0.950 . S
C1479 C1477 1.327 . S
C1480 C1468 1.349 . S
C1480 H1474 0.950 . S
C1480 C1481 1.327 . S
C1481 H1475 0.950 . S
C1481 C1480 1.327 . S
C1481 C1485 1.429 . S
C1482 C1465 1.574 . S
C1482 H1476 0.949 . S
C1482 C1486 1.368 . S
C1483 C1464 1.429 1_554 S
C1483 C1477 1.429 . S
C1483 C1484 1.523 . S
C1484 C1465 1.368 . S
C1484 C1478 1.350 1_554 S
C1484 C1483 1.523 . S
C1485 C1469 1.429 . S
C1485 C1481 1.429 . S
C1485 C1486 1.523 . S
C1486 C1470 1.368 . S
C1486 C1482 1.368 . S
C1486 C1485 1.523 . S
H1487 C1462 0.950 . S
H1488 C1464 0.950 . S
H1489 C1465 0.949 . S
H1490 C1467 0.950 . S
H1491 C1469 0.950 . S
C1492 C1493 1.349 . S
C1492 C1494 1.327 . S
C1492 H1517 0.950 . S
C1493 C1492 1.349 . S
C1493 C1509 1.349 . S
C1494 C1492 1.327 . S
C1494 C1513 1.429 . S
C1494 H1518 0.950 . S
C1495 C1512 1.574 . S
C1495 C1514 1.368 . S
C1495 H1519 0.949 . S
H1496 C1500 0.949 . S
C1497 C1498 1.349 . S
C1497 C1499 1.327 . S
C1497 H1520 0.950 . S
C1498 C1497 1.349 . S
C1498 C1510 1.349 . S
C1499 C1497 1.327 . S
C1499 C1515 1.429 . S
C1499 H1521 0.950 . S
C1500 H1496 0.949 . S
C1500 C1508 1.574 . S
C1500 C1516 1.368 . S
H1501 C1509 0.950 . S
H1502 C1507 0.950 . S
H1503 C1508 0.949 . S
H1504 C1510 0.950 . S
H1505 C1511 0.950 . S
H1506 C1512 0.949 . S
C1507 H1502 0.950 . S
C1507 C1509 1.327 . S
C1507 C1513 1.429 . S
C1508 C1500 1.574 . S
C1508 H1503 0.949 . S
C1508 C1514 1.368 . S
C1509 C1493 1.349 . S
C1509 H1501 0.950 . S
C1509 C1507 1.327 . S
C1510 C1498 1.349 . S
C1510 H1504 0.950 . S
C1510 C1511 1.327 . S
C1511 H1505 0.950 . S
C1511 C1510 1.327 . S
C1511 C1515 1.429 . S
C1512 C1495 1.574 . S
C1512 H1506 0.949 . S
C1512 C1516 1.368 . S
C1513 C1494 1.429 . S
C1513 C1507 1.429 . S
C1513 C1514 1.523 . S
C1514 C1495 1.368 . S
C1514 C1508 1.368 . S
C1514 C1513 1.523 . S
C1515 C1499 1.429 . S
C1515 C1511 1.429 . S
C1515 C1516 1.523 . S
C1516 C1500 1.368 . S
C1516 C1512 1.368 . S
C1516 C1515 1.523 . S
H1517 C1492 0.950 . S
H1518 C1494 0.950 . S
H1519 C1495 0.949 . S
H1520 C1497 0.950 . S
H1521 C1499 0.950 . S
C1522 C1523 1.349 . S
C1522 C1524 1.327 . S
C1522 H1547 0.950 . S
C1523 C1522 1.349 . S
C1523 C1539 1.349 . S
C1524 C1522 1.327 . S
C1524 C1543 1.429 . S
C1524 H1548 0.950 . S
C1525 C1542 1.574 . S
C1525 C1544 1.368 . S
C1525 H1549 0.949 . S
H1526 C1530 0.949 . S
C1527 C1528 1.349 . S
C1527 C1529 1.327 . S
C1527 H1550 0.950 . S
C1528 C1527 1.349 . S
C1528 C1540 1.349 . S
C1529 C1527 1.327 . S
C1529 C1545 1.429 . S
C1529 H1551 0.950 . S
C1530 H1526 0.949 . S
C1530 C1538 1.574 . S
C1530 C1546 1.368 . S
H1531 C1539 0.950 . S
H1532 C1537 0.950 . S
H1533 C1538 0.949 . S
H1534 C1540 0.950 . S
H1535 C1541 0.950 . S
H1536 C1542 0.949 . S
C1537 H1532 0.950 . S
C1537 C1539 1.327 . S
C1537 C1543 1.429 . S
C1538 C1530 1.574 . S
C1538 H1533 0.949 . S
C1538 C1544 1.368 . S
C1539 C1523 1.349 . S
C1539 H1531 0.950 . S
C1539 C1537 1.327 . S
C1540 C1528 1.349 . S
C1540 H1534 0.950 . S
C1540 C1541 1.327 . S
C1541 H1535 0.950 . S
C1541 C1540 1.327 . S
C1541 C1545 1.429 . S
C1542 C1525 1.574 . S
C1542 H1536 0.949 . S
C1542 C1546 1.368 . S
C1543 C1524 1.429 . S
C1543 C1537 1.429 . S
C1543 C1544 1.523 . S
C1544 C1525 1.368 . S
C1544 C1538 1.368 . S
C1544 C1543 1.523 . S
C1545 C1529 1.429 . S
C1545 C1541 1.429 . S
C1545 C1546 1.523 . S
C1546 C1530 1.368 . S
C1546 C1542 1.368 . S
C1546 C1545 1.523 . S
H1547 C1522 0.950 . S
H1548 C1524 0.950 . S
H1549 C1525 0.949 . S
H1550 C1527 0.950 . S
H1551 C1529 0.950 . S
C1552 C1553 1.349 . S
C1552 C1554 1.327 . S
C1552 H1577 0.950 . S
C1553 C1552 1.349 . S
C1553 C1569 1.349 . S
C1554 C1552 1.327 . S
C1554 C1573 1.429 . S
C1554 H1578 0.950 . S
C1555 C1572 1.574 . S
C1555 C1574 1.368 . S
C1555 H1579 0.949 . S
H1556 C1560 0.949 . S
C1557 C1558 1.349 . S
C1557 C1559 1.327 . S
C1557 H1580 0.950 . S
C1558 C1557 1.349 . S
C1558 C1570 1.349 . S
C1559 C1557 1.327 . S
C1559 C1575 1.429 . S
C1559 H1581 0.950 . S
C1560 H1556 0.949 . S
C1560 C1568 1.574 . S
C1560 C1576 1.368 . S
H1561 C1569 0.950 . S
H1562 C1567 0.950 . S
H1563 C1568 0.949 . S
H1564 C1570 0.950 . S
H1565 C1571 0.950 . S
H1566 C1572 0.949 . S
C1567 H1562 0.950 . S
C1567 C1569 1.327 . S
C1567 C1573 1.429 . S
C1568 C1560 1.574 . S
C1568 H1563 0.949 . S
C1568 C1574 1.368 . S
C1569 C1553 1.349 . S
C1569 H1561 0.950 . S
C1569 C1567 1.327 . S
C1570 C1558 1.349 . S
C1570 H1564 0.950 . S
C1570 C1571 1.327 . S
C1571 H1565 0.950 . S
C1571 C1570 1.327 . S
C1571 C1575 1.429 . S
C1572 C1555 1.574 . S
C1572 H1566 0.949 . S
C1572 C1576 1.368 . S
C1573 C1554 1.429 . S
C1573 C1567 1.429 . S
C1573 C1574 1.523 . S
C1574 C1555 1.368 . S
C1574 C1568 1.368 . S
C1574 C1573 1.523 . S
C1575 C1559 1.429 . S
C1575 C1571 1.429 . S
C1575 C1576 1.523 . S
C1576 C1560 1.368 . S
C1576 C1572 1.368 . S
C1576 C1575 1.523 . S
H1577 C1552 0.950 . S
H1578 C1554 0.950 . S
H1579 C1555 0.949 . S
H1580 C1557 0.950 . S
H1581 C1559 0.950 . S
C1582 C1583 1.349 . S
C1582 C1584 1.327 . S
C1582 H1607 0.950 . S
C1583 C1582 1.349 . S
C1583 C1599 1.349 . S
C1584 C1582 1.327 . S
C1584 C1603 1.429 . S
C1584 H1608 0.950 . S
C1585 C1602 1.574 . S
C1585 C1604 1.368 . S
C1585 H1609 0.949 . S
H1586 C1590 0.949 . S
C1587 C1588 1.349 . S
C1587 C1589 1.327 . S
C1587 H1610 0.950 . S
C1588 C1587 1.349 . S
C1588 C1600 1.349 . S
C1589 C1587 1.327 . S
C1589 C1605 1.429 . S
C1589 H1611 0.950 . S
C1590 H1586 0.949 . S
C1590 C1598 1.574 . S
C1590 C1606 1.368 . S
H1591 C1599 0.950 . S
H1592 C1597 0.950 . S
H1593 C1598 0.949 . S
H1594 C1600 0.950 . S
H1595 C1601 0.950 . S
H1596 C1602 0.949 . S
C1597 H1592 0.950 . S
C1597 C1599 1.327 . S
C1597 C1603 1.429 . S
C1598 C1590 1.574 . S
C1598 H1593 0.949 . S
C1598 C1604 1.368 . S
C1599 C1583 1.349 . S
C1599 H1591 0.950 . S
C1599 C1597 1.327 . S
C1600 C1588 1.349 . S
C1600 H1594 0.950 . S
C1600 C1601 1.327 . S
C1601 H1595 0.950 . S
C1601 C1600 1.327 . S
C1601 C1605 1.429 . S
C1602 C1585 1.574 . S
C1602 H1596 0.949 . S
C1602 C1606 1.368 . S
C1603 C1584 1.429 . S
C1603 C1597 1.429 . S
C1603 C1604 1.523 . S
C1604 C1585 1.368 . S
C1604 C1598 1.368 . S
C1604 C1603 1.523 . S
C1605 C1589 1.429 . S
C1605 C1601 1.429 . S
C1605 C1606 1.523 . S
C1606 C1590 1.368 . S
C1606 C1602 1.368 . S
C1606 C1605 1.523 . S
H1607 C1582 0.950 . S
H1608 C1584 0.950 . S
H1609 C1585 0.949 . S
H1610 C1587 0.950 . S
H1611 C1589 0.950 . S
C1612 C1613 1.349 . S
C1612 C1614 1.327 . S
C1612 H1637 0.950 . S
C1613 C1612 1.349 . S
C1613 C1629 1.349 . S
C1614 C1612 1.327 . S
C1614 C1633 1.429 . S
C1614 H1638 0.950 . S
C1615 C1632 1.574 . S
C1615 C1634 1.368 . S
C1615 H1639 0.949 . S
H1616 C1620 0.949 . S
C1617 C1618 1.349 . S
C1617 C1619 1.327 . S
C1617 H1640 0.950 . S
C1618 C1617 1.349 . S
C1618 C1630 1.349 . S
C1619 C1617 1.327 . S
C1619 C1635 1.429 . S
C1619 H1641 0.950 . S
C1620 H1616 0.949 . S
C1620 C1628 1.574 . S
C1620 C1636 1.368 . S
H1621 C1629 0.950 . S
H1622 C1627 0.950 . S
H1623 C1628 0.949 . S
H1624 C1630 0.950 . S
H1625 C1631 0.950 . S
H1626 C1632 0.949 . S
C1627 H1622 0.950 . S
C1627 C1629 1.327 . S
C1627 C1633 1.429 . S
C1628 C1620 1.574 . S
C1628 H1623 0.949 . S
C1628 C1634 1.368 . S
C1629 C1613 1.349 . S
C1629 H1621 0.950 . S
C1629 C1627 1.327 . S
C1630 C1618 1.349 . S
C1630 H1624 0.950 . S
C1630 C1631 1.327 . S
C1631 H1625 0.950 . S
C1631 C1630 1.327 . S
C1631 C1635 1.429 . S
C1632 C1615 1.574 . S
C1632 H1626 0.949 . S
C1632 C1636 1.368 . S
C1633 C1614 1.429 . S
C1633 C1627 1.429 . S
C1633 C1634 1.523 . S
C1634 C1615 1.368 . S
C1634 C1628 1.368 . S
C1634 C1633 1.523 . S
C1635 C1619 1.429 . S
C1635 C1631 1.429 . S
C1635 C1636 1.523 . S
C1636 C1620 1.368 . S
C1636 C1632 1.368 . S
C1636 C1635 1.523 . S
H1637 C1612 0.950 . S
H1638 C1614 0.950 . S
H1639 C1615 0.949 . S
H1640 C1617 0.950 . S
H1641 C1619 0.950 . S
C1642 C1643 1.349 . S
C1642 C1644 1.327 . S
C1642 H1667 0.950 . S
C1643 C1642 1.349 . S
C1643 C1659 1.349 . S
C1644 C1642 1.327 . S
C1644 C1663 1.429 . S
C1644 H1668 0.950 . S
C1645 C1662 1.574 . S
C1645 C1664 1.368 . S
C1645 H1669 0.949 . S
H1646 C1650 0.949 . S
C1647 C1648 1.349 . S
C1647 C1649 1.327 . S
C1647 H1670 0.950 . S
C1648 C1647 1.349 . S
C1648 C1660 1.349 . S
C1649 C1647 1.327 . S
C1649 C1665 1.429 . S
C1649 H1671 0.950 . S
C1650 H1646 0.949 . S
C1650 C1658 1.574 . S
C1650 C1666 1.368 . S
H1651 C1659 0.950 . S
H1652 C1657 0.950 . S
H1653 C1658 0.949 . S
H1654 C1660 0.950 . S
H1655 C1661 0.950 . S
H1656 C1662 0.949 . S
C1657 H1652 0.950 . S
C1657 C1659 1.327 . S
C1657 C1663 1.429 . S
C1658 C1650 1.574 . S
C1658 H1653 0.949 . S
C1658 C1664 1.368 . S
C1659 C1643 1.349 . S
C1659 H1651 0.950 . S
C1659 C1657 1.327 . S
C1660 C1648 1.349 . S
C1660 H1654 0.950 . S
C1660 C1661 1.327 . S
C1661 H1655 0.950 . S
C1661 C1660 1.327 . S
C1661 C1665 1.429 . S
C1662 C1645 1.574 . S
C1662 H1656 0.949 . S
C1662 C1666 1.368 . S
C1663 C1644 1.429 . S
C1663 C1657 1.429 . S
C1663 C1664 1.523 . S
C1664 C1645 1.368 . S
C1664 C1658 1.368 . S
C1664 C1663 1.523 . S
C1665 C1649 1.429 . S
C1665 C1661 1.429 . S
C1665 C1666 1.523 . S
C1666 C1650 1.368 . S
C1666 C1662 1.368 . S
C1666 C1665 1.523 . S
H1667 C1642 0.950 . S
H1668 C1644 0.950 . S
H1669 C1645 0.949 . S
H1670 C1647 0.950 . S
H1671 C1649 0.950 . S
C1672 C1673 1.349 . S
C1672 C1674 1.327 . S
C1672 H1697 0.950 . S
C1673 C1672 1.349 . S
C1673 C1689 1.349 . S
C1674 C1672 1.327 . S
C1674 C1693 1.429 . S
C1674 H1698 0.950 . S
C1675 C1692 1.574 . S
C1675 C1694 1.368 . S
C1675 H1699 0.949 . S
H1676 C1680 0.949 . S
C1677 C1678 1.349 . S
C1677 C1679 1.327 . S
C1677 H1700 0.950 . S
C1678 C1677 1.349 . S
C1678 C1690 1.349 . S
C1679 C1677 1.327 . S
C1679 C1695 1.429 . S
C1679 H1701 0.950 . S
C1680 H1676 0.949 . S
C1680 C1688 1.574 . S
C1680 C1696 1.368 . S
H1681 C1689 0.950 . S
H1682 C1687 0.950 . S
H1683 C1688 0.949 . S
H1684 C1690 0.950 . S
H1685 C1691 0.950 . S
H1686 C1692 0.949 . S
C1687 H1682 0.950 . S
C1687 C1689 1.327 . S
C1687 C1693 1.429 . S
C1688 C1680 1.574 . S
C1688 H1683 0.949 . S
C1688 C1694 1.368 . S
C1689 C1673 1.349 . S
C1689 H1681 0.950 . S
C1689 C1687 1.327 . S
C1690 C1678 1.349 . S
C1690 H1684 0.950 . S
C1690 C1691 1.327 . S
C1691 H1685 0.950 . S
C1691 C1690 1.327 . S
C1691 C1695 1.429 . S
C1692 C1675 1.574 . S
C1692 H1686 0.949 . S
C1692 C1696 1.368 . S
C1693 C1674 1.429 . S
C1693 C1687 1.429 . S
C1693 C1694 1.523 . S
C1694 C1675 1.368 . S
C1694 C1688 1.368 . S
C1694 C1693 1.523 . S
C1695 C1679 1.429 . S
C1695 C1691 1.429 . S
C1695 C1696 1.523 . S
C1696 C1680 1.368 . S
C1696 C1692 1.368 . S
C1696 C1695 1.523 . S
H1697 C1672 0.950 . S
H1698 C1674 0.950 . S
H1699 C1675 0.949 . S
H1700 C1677 0.950 . S
H1701 C1679 0.950 . S
C1702 C1703 1.349 . S
C1702 C1704 1.327 . S
C1702 H1727 0.950 . S
C1703 C1702 1.349 . S
C1703 C1719 1.349 . S
C1704 C1702 1.327 . S
C1704 C1723 1.429 . S
C1704 H1728 0.950 . S
C1705 C1722 1.574 . S
C1705 C1724 1.368 . S
C1705 H1729 0.949 . S
H1706 C1710 0.949 . S
C1707 C1708 1.349 . S
C1707 C1709 1.327 . S
C1707 H1730 0.950 . S
C1708 C1707 1.349 . S
C1708 C1720 1.349 . S
C1709 C1707 1.327 . S
C1709 C1725 1.429 . S
C1709 H1731 0.950 . S
C1710 H1706 0.949 . S
C1710 C1718 1.574 . S
C1710 C1726 1.368 . S
H1711 C1719 0.950 . S
H1712 C1717 0.950 . S
H1713 C1718 0.949 . S
H1714 C1720 0.950 . S
H1715 C1721 0.950 . S
H1716 C1722 0.949 . S
C1717 H1712 0.950 . S
C1717 C1719 1.327 . S
C1717 C1723 1.429 . S
C1718 C1710 1.574 . S
C1718 H1713 0.949 . S
C1718 C1724 1.368 . S
C1719 C1703 1.349 . S
C1719 H1711 0.950 . S
C1719 C1717 1.327 . S
C1720 C1708 1.349 . S
C1720 H1714 0.950 . S
C1720 C1721 1.327 . S
C1721 H1715 0.950 . S
C1721 C1720 1.327 . S
C1721 C1725 1.429 . S
C1722 C1705 1.574 . S
C1722 H1716 0.949 . S
C1722 C1726 1.368 . S
C1723 C1704 1.429 . S
C1723 C1717 1.429 . S
C1723 C1724 1.523 . S
C1724 C1705 1.368 . S
C1724 C1718 1.368 . S
C1724 C1723 1.523 . S
C1725 C1709 1.429 . S
C1725 C1721 1.429 . S
C1725 C1726 1.523 . S
C1726 C1710 1.368 . S
C1726 C1722 1.368 . S
C1726 C1725 1.523 . S
H1727 C1702 0.950 . S
H1728 C1704 0.950 . S
H1729 C1705 0.949 . S
H1730 C1707 0.950 . S
H1731 C1709 0.950 . S
C1732 C1733 1.349 . S
C1732 C1734 1.327 . S
C1732 H1757 0.950 . S
C1733 C1732 1.349 . S
C1733 C1749 1.349 . S
C1734 C1732 1.327 . S
C1734 C1753 1.429 . S
C1734 H1758 0.950 . S
C1735 C1752 1.574 . S
C1735 C1754 1.368 . S
C1735 H1759 0.949 . S
H1736 C1740 0.949 . S
C1737 C1738 1.349 . S
C1737 C1739 1.327 . S
C1737 H1760 0.950 . S
C1738 C1737 1.349 . S
C1738 C1750 1.349 . S
C1739 C1737 1.327 . S
C1739 C1755 1.429 . S
C1739 H1761 0.950 . S
C1740 H1736 0.949 . S
C1740 C1748 1.574 . S
C1740 C1756 1.368 . S
H1741 C1749 0.950 . S
H1742 C1747 0.950 . S
H1743 C1748 0.949 . S
H1744 C1750 0.950 . S
H1745 C1751 0.950 . S
H1746 C1752 0.949 . S
C1747 H1742 0.950 . S
C1747 C1749 1.327 . S
C1747 C1753 1.429 . S
C1748 C1740 1.574 . S
C1748 H1743 0.949 . S
C1748 C1754 1.368 . S
C1749 C1733 1.349 . S
C1749 H1741 0.950 . S
C1749 C1747 1.327 . S
C1750 C1738 1.349 . S
C1750 H1744 0.950 . S
C1750 C1751 1.327 . S
C1751 H1745 0.950 . S
C1751 C1750 1.327 . S
C1751 C1755 1.429 . S
C1752 C1735 1.574 . S
C1752 H1746 0.949 . S
C1752 C1756 1.368 . S
C1753 C1734 1.429 . S
C1753 C1747 1.429 . S
C1753 C1754 1.523 . S
C1754 C1735 1.368 . S
C1754 C1748 1.368 . S
C1754 C1753 1.523 . S
C1755 C1739 1.429 . S
C1755 C1751 1.429 . S
C1755 C1756 1.523 . S
C1756 C1740 1.368 . S
C1756 C1752 1.368 . S
C1756 C1755 1.523 . S
H1757 C1732 0.950 . S
H1758 C1734 0.950 . S
H1759 C1735 0.949 . S
H1760 C1737 0.950 . S
H1761 C1739 0.950 . S
C1762 C1763 1.349 . S
C1762 C1764 1.327 . S
C1762 H1787 0.950 . S
C1763 C1762 1.349 . S
C1763 C1779 1.349 . S
C1764 C1762 1.327 . S
C1764 C1783 1.429 . S
C1764 H1788 0.950 . S
C1765 C1782 1.574 . S
C1765 C1784 1.368 . S
C1765 H1789 0.949 . S
H1766 C1770 0.949 . S
C1767 C1768 1.349 . S
C1767 C1769 1.327 . S
C1767 H1790 0.950 . S
C1768 C1767 1.349 . S
C1768 C1780 1.349 . S
C1769 C1767 1.327 . S
C1769 C1785 1.429 . S
C1769 H1791 0.950 . S
C1770 H1766 0.949 . S
C1770 C1778 1.574 . S
C1770 C1786 1.368 . S
H1771 C1779 0.950 . S
H1772 C1777 0.950 . S
H1773 C1778 0.949 . S
H1774 C1780 0.950 . S
H1775 C1781 0.950 . S
H1776 C1782 0.949 . S
C1777 H1772 0.950 . S
C1777 C1779 1.327 . S
C1777 C1783 1.429 . S
C1778 C1770 1.574 . S
C1778 H1773 0.949 . S
C1778 C1784 1.368 . S
C1779 C1763 1.349 . S
C1779 H1771 0.950 . S
C1779 C1777 1.327 . S
C1780 C1768 1.349 . S
C1780 H1774 0.950 . S
C1780 C1781 1.327 . S
C1781 H1775 0.950 . S
C1781 C1780 1.327 . S
C1781 C1785 1.429 . S
C1782 C1765 1.574 . S
C1782 H1776 0.949 . S
C1782 C1786 1.368 . S
C1783 C1764 1.429 . S
C1783 C1777 1.429 . S
C1783 C1784 1.523 . S
C1784 C1765 1.368 . S
C1784 C1778 1.368 . S
C1784 C1783 1.523 . S
C1785 C1769 1.429 . S
C1785 C1781 1.429 . S
C1785 C1786 1.523 . S
C1786 C1770 1.368 . S
C1786 C1782 1.368 . S
C1786 C1785 1.523 . S
H1787 C1762 0.950 . S
H1788 C1764 0.950 . S
H1789 C1765 0.949 . S
H1790 C1767 0.950 . S
H1791 C1769 0.950 . S
C1792 C1793 1.349 . S
C1792 C1794 1.327 . S
C1792 H1817 0.950 . S
C1793 C1792 1.349 . S
C1793 C1809 1.349 . S
C1794 C1792 1.327 . S
C1794 C1813 1.429 . S
C1794 H1818 0.950 . S
C1795 C1812 1.574 . S
C1795 C1814 1.368 . S
C1795 H1819 0.949 . S
H1796 C1800 0.949 . S
C1797 C1798 1.349 . S
C1797 C1799 1.327 . S
C1797 H1820 0.929 1_455 S
C1798 C1797 1.349 . S
C1798 C1810 1.349 . S
C1799 C1797 1.327 . S
C1799 C1815 1.429 . S
C1799 H1821 0.950 . S
C1800 H1796 0.949 . S
C1800 C1808 1.574 . S
C1800 C1816 1.368 . S
H1801 C1809 0.950 . S
H1802 C1807 0.950 . S
H1803 C1808 0.949 . S
H1804 C1810 0.950 . S
H1805 C1811 0.950 . S
H1806 C1812 0.949 . S
C1807 H1802 0.950 . S
C1807 C1809 1.327 . S
C1807 C1813 1.429 . S
C1808 C1800 1.574 . S
C1808 H1803 0.949 . S
C1808 C1814 1.368 . S
C1809 C1793 1.349 . S
C1809 H1801 0.950 . S
C1809 C1807 1.327 . S
C1810 C1798 1.349 . S
C1810 H1804 0.950 . S
C1810 C1811 1.327 . S
C1811 H1805 0.950 . S
C1811 C1810 1.327 . S
C1811 C1815 1.429 . S
C1812 C1795 1.574 . S
C1812 H1806 0.949 . S
C1812 C1816 1.368 . S
C1813 C1794 1.429 . S
C1813 C1807 1.429 . S
C1813 C1814 1.523 . S
C1814 C1795 1.368 . S
C1814 C1808 1.368 . S
C1814 C1813 1.523 . S
C1815 C1799 1.429 . S
C1815 C1811 1.429 . S
C1815 C1816 1.523 . S
C1816 C1800 1.368 . S
C1816 C1812 1.368 . S
C1816 C1815 1.523 . S
H1817 C1792 0.950 . S
H1818 C1794 0.950 . S
H1819 C1795 0.949 . S
H1820 C1797 0.929 1_655 S
H1821 C1799 0.950 . S
C1822 C1823 1.349 . S
C1822 C1824 1.327 . S
C1822 H1847 0.950 . S
C1823 C1822 1.349 . S
C1823 C1839 1.349 . S
C1824 C1822 1.327 . S
C1824 C1843 1.429 . S
C1824 H1848 0.950 . S
C1825 C1842 1.574 . S
C1825 C1844 1.368 . S
C1825 H1849 0.949 . S
H1826 C1830 0.949 . S
C1827 C1828 1.349 . S
C1827 C1829 1.327 . S
C1827 H1850 0.950 . S
C1828 C1827 1.349 . S
C1828 C1840 1.349 . S
C1829 C1827 1.327 . S
C1829 C1845 1.429 . S
C1829 H1851 0.950 . S
C1830 H1826 0.949 . S
C1830 C1838 1.574 . S
C1830 C1846 1.368 . S
H1831 C1839 0.950 . S
H1832 C1837 0.950 . S
H1833 C1838 0.949 . S
H1834 C1840 0.950 . S
H1835 C1841 0.950 . S
H1836 C1842 0.949 . S
C1837 H1832 0.950 . S
C1837 C1839 1.327 . S
C1837 C1843 1.429 . S
C1838 C1830 1.574 . S
C1838 H1833 0.949 . S
C1838 C1844 1.368 . S
C1839 C1823 1.349 . S
C1839 H1831 0.950 . S
C1839 C1837 1.327 . S
C1840 C1828 1.349 . S
C1840 H1834 0.950 . S
C1840 C1841 1.327 . S
C1841 H1835 0.950 . S
C1841 C1840 1.327 . S
C1841 C1845 1.429 . S
C1842 C1825 1.574 . S
C1842 H1836 0.949 . S
C1842 C1846 1.368 . S
C1843 C1824 1.429 . S
C1843 C1837 1.429 . S
C1843 C1844 1.523 . S
C1844 C1825 1.368 . S
C1844 C1838 1.368 . S
C1844 C1843 1.523 . S
C1845 C1829 1.429 . S
C1845 C1841 1.429 . S
C1845 C1846 1.523 . S
C1846 C1830 1.368 . S
C1846 C1842 1.368 . S
C1846 C1845 1.523 . S
H1847 C1822 0.950 . S
H1848 C1824 0.950 . S
H1849 C1825 0.949 . S
H1850 C1827 0.950 . S
H1851 C1829 0.950 . S
C1852 C1853 1.349 . S
C1852 C1854 1.327 . S
C1852 H1877 0.950 . S
C1853 C1852 1.349 . S
C1853 C1869 1.349 . S
C1854 C1852 1.327 . S
C1854 C1873 1.429 . S
C1854 H1878 0.950 1_556 S
C1855 C1872 1.574 . S
C1855 C1874 1.368 . S
C1855 H1879 0.949 . S
H1856 C1860 0.949 . S
C1857 C1858 1.349 . S
C1857 C1859 1.314 1_544 S
C1857 H1880 0.950 1_554 S
C1858 C1857 1.349 . S
C1858 C1870 1.349 . S
C1859 C1857 1.314 1_566 S
C1859 C1875 1.404 1_556 S
C1859 H1881 0.992 . S
C1860 H1856 0.949 . S
C1860 C1868 1.574 . S
C1860 C1876 1.368 . S
H1861 C1869 0.950 . S
H1862 C1867 0.950 . S
H1863 C1868 0.949 . S
H1864 C1870 0.950 . S
H1865 C1871 0.950 . S
H1866 C1872 0.949 . S
C1867 H1862 0.950 . S
C1867 C1869 1.327 . S
C1867 C1873 1.429 . S
C1868 C1860 1.574 . S
C1868 H1863 0.949 . S
C1868 C1874 1.368 1_554 S
C1869 C1853 1.349 . S
C1869 H1861 0.950 . S
C1869 C1867 1.327 . S
C1870 C1858 1.349 . S
C1870 H1864 0.950 . S
C1870 C1871 1.327 1_545 S
C1871 H1865 0.950 . S
C1871 C1870 1.327 1_565 S
C1871 C1875 1.429 . S
C1872 C1855 1.574 . S
C1872 H1866 0.949 . S
C1872 C1876 1.368 1_556 S
C1873 C1854 1.429 . S
C1873 C1867 1.429 . S
C1873 C1874 1.523 . S
C1874 C1855 1.368 . S
C1874 C1868 1.368 1_556 S
C1874 C1873 1.523 . S
C1875 C1859 1.404 1_554 S
C1875 C1871 1.429 . S
C1875 C1876 1.523 . S
C1876 C1860 1.368 . S
C1876 C1872 1.368 1_554 S
C1876 C1875 1.523 . S
H1877 C1852 0.950 . S
H1878 C1854 0.950 1_554 S
H1879 C1855 0.949 . S
H1880 C1857 0.950 1_556 S
H1881 C1859 0.992 . S
C1882 C1883 1.349 . S
C1882 C1884 1.327 . S
C1882 H1907 0.950 . S
C1883 C1882 1.349 . S
C1883 C1899 1.349 . S
C1884 C1882 1.327 . S
C1884 C1903 1.429 . S
C1884 H1908 0.950 . S
C1885 C1902 1.574 . S
C1885 C1904 1.368 . S
C1885 H1909 0.949 . S
H1886 C1890 0.949 . S
C1887 C1888 1.349 . S
C1887 C1889 1.327 . S
C1887 H1910 0.950 . S
C1888 C1887 1.349 . S
C1888 C1900 1.349 . S
C1889 C1887 1.327 . S
C1889 C1905 1.429 . S
C1889 H1911 0.950 . S
C1890 H1886 0.949 . S
C1890 C1898 1.574 . S
C1890 C1906 1.368 . S
H1891 C1899 0.950 . S
H1892 C1897 0.950 . S
H1893 C1898 0.949 . S
H1894 C1900 0.950 . S
H1895 C1901 0.950 . S
H1896 C1902 0.949 . S
C1897 H1892 0.950 . S
C1897 C1899 1.327 . S
C1897 C1903 1.429 . S
C1898 C1890 1.574 . S
C1898 H1893 0.949 . S
C1898 C1904 1.368 . S
C1899 C1883 1.349 . S
C1899 H1891 0.950 . S
C1899 C1897 1.327 . S
C1900 C1888 1.349 . S
C1900 H1894 0.950 . S
C1900 C1901 1.327 . S
C1901 H1895 0.950 . S
C1901 C1900 1.327 . S
C1901 C1905 1.429 . S
C1902 C1885 1.574 . S
C1902 H1896 0.949 . S
C1902 C1906 1.368 . S
C1903 C1884 1.429 . S
C1903 C1897 1.429 . S
C1903 C1904 1.523 . S
C1904 C1885 1.368 . S
C1904 C1898 1.368 . S
C1904 C1903 1.523 . S
C1905 C1889 1.429 . S
C1905 C1901 1.429 . S
C1905 C1906 1.523 . S
C1906 C1890 1.368 . S
C1906 C1902 1.368 . S
C1906 C1905 1.523 . S
H1907 C1882 0.950 . S
H1908 C1884 0.950 . S
H1909 C1885 0.949 . S
H1910 C1887 0.950 . S
H1911 C1889 0.950 . S
C1912 C1913 1.349 . S
C1912 C1914 1.327 . S
C1912 H1937 0.950 . S
C1913 C1912 1.349 . S
C1913 C1929 1.349 . S
C1914 C1912 1.327 . S
C1914 C1933 1.429 . S
C1914 H1938 0.950 . S
C1915 C1932 1.574 . S
C1915 C1934 1.368 . S
C1915 H1939 0.949 . S
H1916 C1920 0.949 . S
C1917 C1918 1.349 1_556 S
C1917 C1919 1.327 . S
C1917 H1940 0.950 . S
C1918 C1917 1.349 1_554 S
C1918 C1930 1.349 . S
C1919 C1917 1.327 . S
C1919 C1935 1.429 . S
C1919 H1941 0.950 . S
C1920 H1916 0.949 . S
C1920 C1928 1.574 . S
C1920 C1936 1.368 . S
H1921 C1929 0.950 . S
H1922 C1927 0.950 . S
H1923 C1928 0.949 . S
H1924 C1930 0.950 . S
H1925 C1931 0.950 . S
H1926 C1932 0.949 . S
C1927 H1922 0.950 . S
C1927 C1929 1.327 . S
C1927 C1933 1.429 . S
C1928 C1920 1.574 . S
C1928 H1923 0.949 . S
C1928 C1934 1.368 . S
C1929 C1913 1.349 . S
C1929 H1921 0.950 . S
C1929 C1927 1.327 . S
C1930 C1918 1.349 . S
C1930 H1924 0.950 . S
C1930 C1931 1.327 1_554 S
C1931 H1925 0.950 . S
C1931 C1930 1.327 1_556 S
C1931 C1935 1.429 . S
C1932 C1915 1.574 . S
C1932 H1926 0.949 . S
C1932 C1936 1.368 . S
C1933 C1914 1.429 . S
C1933 C1927 1.429 . S
C1933 C1934 1.523 . S
C1934 C1915 1.368 . S
C1934 C1928 1.368 . S
C1934 C1933 1.523 . S
C1935 C1919 1.429 . S
C1935 C1931 1.429 . S
C1935 C1936 1.523 . S
C1936 C1920 1.368 . S
C1936 C1932 1.368 . S
C1936 C1935 1.523 . S
H1937 C1912 0.950 . S
H1938 C1914 0.950 . S
H1939 C1915 0.949 . S
H1940 C1917 0.950 . S
H1941 C1919 0.950 . S
C1942 C1943 1.349 . S
C1942 C1944 1.327 . S
C1942 H1967 0.950 . S
C1943 C1942 1.349 . S
C1943 C1959 1.349 . S
C1944 C1942 1.327 . S
C1944 C1963 1.429 . S
C1944 H1968 0.950 . S
C1945 C1962 1.574 . S
C1945 C1964 1.368 . S
C1945 H1969 0.949 . S
H1946 C1950 0.949 . S
C1947 C1948 1.349 . S
C1947 C1949 1.327 . S
C1947 H1970 0.950 . S
C1948 C1947 1.349 . S
C1948 C1960 1.349 . S
C1949 C1947 1.327 . S
C1949 C1965 1.429 . S
C1949 H1971 0.950 . S
C1950 H1946 0.949 . S
C1950 C1958 1.574 . S
C1950 C1966 1.368 . S
H1951 C1959 0.950 . S
H1952 C1957 0.950 . S
H1953 C1958 0.949 . S
H1954 C1960 0.950 . S
H1955 C1961 0.950 . S
H1956 C1962 0.949 . S
C1957 H1952 0.950 . S
C1957 C1959 1.327 . S
C1957 C1963 1.429 . S
C1958 C1950 1.574 . S
C1958 H1953 0.949 . S
C1958 C1964 1.368 . S
C1959 C1943 1.349 . S
C1959 H1951 0.950 . S
C1959 C1957 1.327 . S
C1960 C1948 1.349 . S
C1960 H1954 0.950 . S
C1960 C1961 1.327 . S
C1961 H1955 0.950 . S
C1961 C1960 1.327 . S
C1961 C1965 1.429 . S
C1962 C1945 1.574 . S
C1962 H1956 0.949 . S
C1962 C1966 1.368 . S
C1963 C1944 1.429 . S
C1963 C1957 1.429 . S
C1963 C1964 1.523 . S
C1964 C1945 1.368 . S
C1964 C1958 1.368 . S
C1964 C1963 1.523 . S
C1965 C1949 1.429 . S
C1965 C1961 1.429 . S
C1965 C1966 1.523 . S
C1966 C1950 1.368 . S
C1966 C1962 1.368 . S
C1966 C1965 1.523 . S
H1967 C1942 0.950 . S
H1968 C1944 0.950 . S
H1969 C1945 0.949 . S
H1970 C1947 0.950 . S
H1971 C1949 0.950 . S
C1972 C1973 1.349 . S
C1972 C1974 1.327 . S
C1972 H1997 0.950 . S
C1973 C1972 1.349 . S
C1973 C1989 1.349 . S
C1974 C1972 1.327 . S
C1974 C1993 1.429 . S
C1974 H1998 0.950 . S
C1975 C1992 1.574 . S
C1975 C1994 1.368 . S
C1975 H1999 0.949 . S
H1976 C1980 0.949 . S
C1977 C1978 1.349 . S
C1977 C1979 1.327 . S
C1977 H2000 0.950 . S
C1978 C1977 1.349 . S
C1978 C1990 1.349 . S
C1979 C1977 1.327 . S
C1979 C1995 1.429 . S
C1979 H2001 0.950 . S
C1980 H1976 0.949 . S
C1980 C1988 1.574 . S
C1980 C1996 1.368 . S
H1981 C1989 0.950 . S
H1982 C1987 0.950 . S
H1983 C1988 0.949 . S
H1984 C1990 0.950 . S
H1985 C1991 0.950 . S
H1986 C1992 0.949 . S
C1987 H1982 0.950 . S
C1987 C1989 1.327 . S
C1987 C1993 1.429 . S
C1988 C1980 1.574 . S
C1988 H1983 0.949 . S
C1988 C1994 1.368 . S
C1989 C1973 1.349 . S
C1989 H1981 0.950 . S
C1989 C1987 1.327 . S
C1990 C1978 1.349 . S
C1990 H1984 0.950 . S
C1990 C1991 1.327 . S
C1991 H1985 0.950 . S
C1991 C1990 1.327 . S
C1991 C1995 1.429 . S
C1992 C1975 1.574 . S
C1992 H1986 0.949 . S
C1992 C1996 1.368 . S
C1993 C1974 1.429 . S
C1993 C1987 1.429 . S
C1993 C1994 1.523 . S
C1994 C1975 1.368 . S
C1994 C1988 1.368 . S
C1994 C1993 1.523 . S
C1995 C1979 1.429 . S
C1995 C1991 1.429 . S
C1995 C1996 1.523 . S
C1996 C1980 1.368 . S
C1996 C1992 1.368 . S
C1996 C1995 1.523 . S
H1997 C1972 0.950 . S
H1998 C1974 0.950 . S
H1999 C1975 0.949 . S
H2000 C1977 0.950 . S
H2001 C1979 0.950 . S
C2002 C2003 1.349 . S
C2002 C2004 1.327 . S
C2002 H2027 0.950 . S
C2003 C2002 1.349 . S
C2003 C2019 1.349 . S
C2004 C2002 1.327 . S
C2004 C2023 1.429 . S
C2004 H2028 0.950 . S
C2005 C2022 1.574 . S
C2005 C2024 1.368 . S
C2005 H2029 0.949 . S
H2006 C2010 0.949 . S
C2007 C2008 1.349 . S
C2007 C2009 1.327 . S
C2007 H2030 0.950 . S
C2008 C2007 1.349 . S
C2008 C2020 1.349 . S
C2009 C2007 1.327 . S
C2009 C2025 1.429 . S
C2009 H2031 0.950 . S
C2010 H2006 0.949 . S
C2010 C2018 1.574 . S
C2010 C2026 1.368 . S
H2011 C2019 0.950 . S
H2012 C2017 0.950 . S
H2013 C2018 0.949 . S
H2014 C2020 0.950 . S
H2015 C2021 0.950 . S
H2016 C2022 0.949 . S
C2017 H2012 0.950 . S
C2017 C2019 1.327 . S
C2017 C2023 1.429 . S
C2018 C2010 1.574 . S
C2018 H2013 0.949 . S
C2018 C2024 1.368 . S
C2019 C2003 1.349 . S
C2019 H2011 0.950 . S
C2019 C2017 1.327 . S
C2020 C2008 1.349 . S
C2020 H2014 0.950 . S
C2020 C2021 1.327 . S
C2021 H2015 0.950 . S
C2021 C2020 1.327 . S
C2021 C2025 1.429 . S
C2022 C2005 1.574 . S
C2022 H2016 0.949 . S
C2022 C2026 1.368 . S
C2023 C2004 1.429 . S
C2023 C2017 1.429 . S
C2023 C2024 1.523 . S
C2024 C2005 1.368 . S
C2024 C2018 1.368 . S
C2024 C2023 1.523 . S
C2025 C2009 1.429 . S
C2025 C2021 1.429 . S
C2025 C2026 1.523 . S
C2026 C2010 1.368 . S
C2026 C2022 1.368 . S
C2026 C2025 1.523 . S
H2027 C2002 0.950 . S
H2028 C2004 0.950 . S
H2029 C2005 0.949 . S
H2030 C2007 0.950 . S
H2031 C2009 0.950 . S
C2032 C2033 1.349 . S
C2032 C2034 1.327 . S
C2032 H2057 0.950 . S
C2033 C2032 1.349 . S
C2033 C2049 1.349 . S
C2034 C2032 1.327 . S
C2034 C2053 1.429 . S
C2034 H2058 0.950 . S
C2035 C2052 1.574 . S
C2035 C2054 1.368 . S
C2035 H2059 0.949 . S
H2036 C2040 0.949 . S
C2037 C2038 1.349 . S
C2037 C2039 1.327 . S
C2037 H2060 0.950 . S
C2038 C2037 1.349 . S
C2038 C2050 1.349 . S
C2039 C2037 1.327 . S
C2039 C2055 1.429 . S
C2039 H2061 0.950 . S
C2040 H2036 0.949 . S
C2040 C2048 1.574 . S
C2040 C2056 1.368 . S
H2041 C2049 0.950 . S
H2042 C2047 0.950 . S
H2043 C2048 0.949 . S
H2044 C2050 0.950 . S
H2045 C2051 0.950 . S
H2046 C2052 0.949 . S
C2047 H2042 0.950 . S
C2047 C2049 1.327 . S
C2047 C2053 1.429 . S
C2048 C2040 1.574 . S
C2048 H2043 0.949 . S
C2048 C2054 1.368 . S
C2049 C2033 1.349 . S
C2049 H2041 0.950 . S
C2049 C2047 1.327 . S
C2050 C2038 1.349 . S
C2050 H2044 0.950 . S
C2050 C2051 1.327 . S
C2051 H2045 0.950 . S
C2051 C2050 1.327 . S
C2051 C2055 1.429 . S
C2052 C2035 1.574 . S
C2052 H2046 0.949 . S
C2052 C2056 1.368 . S
C2053 C2034 1.429 . S
C2053 C2047 1.429 . S
C2053 C2054 1.523 . S
C2054 C2035 1.368 . S
C2054 C2048 1.368 . S
C2054 C2053 1.523 . S
C2055 C2039 1.429 . S
C2055 C2051 1.429 . S
C2055 C2056 1.523 . S
C2056 C2040 1.368 . S
C2056 C2052 1.368 . S
C2056 C2055 1.523 . S
H2057 C2032 0.950 . S
H2058 C2034 0.950 . S
H2059 C2035 0.949 . S
H2060 C2037 0.950 . S
H2061 C2039 0.950 . S
C2062 C2063 1.349 . S
C2062 C2064 1.327 . S
C2062 H2087 0.950 . S
C2063 C2062 1.349 . S
C2063 C2079 1.349 . S
C2064 C2062 1.327 . S
C2064 C2083 1.429 . S
C2064 H2088 0.950 . S
C2065 C2082 1.574 . S
C2065 C2084 1.368 . S
C2065 H2089 0.949 . S
H2066 C2070 0.949 . S
C2067 C2068 1.349 . S
C2067 C2069 1.327 . S
C2067 H2090 0.950 . S
C2068 C2067 1.349 . S
C2068 C2080 1.349 . S
C2069 C2067 1.327 . S
C2069 C2085 1.429 . S
C2069 H2091 0.950 . S
C2070 H2066 0.949 . S
C2070 C2078 1.574 . S
C2070 C2086 1.368 . S
H2071 C2079 0.950 . S
H2072 C2077 0.950 . S
H2073 C2078 0.949 . S
H2074 C2080 0.950 . S
H2075 C2081 0.950 . S
H2076 C2082 0.949 . S
C2077 H2072 0.950 . S
C2077 C2079 1.327 . S
C2077 C2083 1.429 . S
C2078 C2070 1.574 . S
C2078 H2073 0.949 . S
C2078 C2084 1.368 . S
C2079 C2063 1.349 . S
C2079 H2071 0.950 . S
C2079 C2077 1.327 . S
C2080 C2068 1.349 . S
C2080 H2074 0.950 . S
C2080 C2081 1.327 . S
C2081 H2075 0.950 . S
C2081 C2080 1.327 . S
C2081 C2085 1.429 . S
C2082 C2065 1.574 . S
C2082 H2076 0.949 . S
C2082 C2086 1.368 . S
C2083 C2064 1.429 . S
C2083 C2077 1.429 . S
C2083 C2084 1.523 . S
C2084 C2065 1.368 . S
C2084 C2078 1.368 . S
C2084 C2083 1.523 . S
C2085 C2069 1.429 . S
C2085 C2081 1.429 . S
C2085 C2086 1.523 . S
C2086 C2070 1.368 . S
C2086 C2082 1.368 . S
C2086 C2085 1.523 . S
H2087 C2062 0.950 . S
H2088 C2064 0.950 . S
H2089 C2065 0.949 . S
H2090 C2067 0.950 . S
H2091 C2069 0.950 . S
C2092 C2093 1.349 . S
C2092 C2094 1.327 . S
C2092 H2117 0.950 . S
C2093 C2092 1.349 . S
C2093 C2109 1.349 . S
C2094 C2092 1.327 . S
C2094 C2113 1.429 . S
C2094 H2118 0.950 . S
C2095 C2112 1.574 . S
C2095 C2114 1.368 . S
C2095 H2119 0.949 . S
H2096 C2100 0.949 . S
C2097 C2098 1.349 . S
C2097 C2099 1.327 . S
C2097 H2120 0.950 . S
C2098 C2097 1.349 . S
C2098 C2110 1.349 . S
C2099 C2097 1.327 . S
C2099 C2115 1.429 . S
C2099 H2121 0.950 . S
C2100 H2096 0.949 . S
C2100 C2108 1.574 . S
C2100 C2116 1.368 . S
H2101 C2109 0.950 . S
H2102 C2107 0.950 . S
H2103 C2108 0.949 . S
H2104 C2110 0.950 . S
H2105 C2111 0.950 . S
H2106 C2112 0.949 . S
C2107 H2102 0.950 . S
C2107 C2109 1.327 . S
C2107 C2113 1.429 . S
C2108 C2100 1.574 . S
C2108 H2103 0.949 . S
C2108 C2114 1.368 . S
C2109 C2093 1.349 . S
C2109 H2101 0.950 . S
C2109 C2107 1.327 . S
C2110 C2098 1.349 . S
C2110 H2104 0.950 . S
C2110 C2111 1.327 . S
C2111 H2105 0.950 . S
C2111 C2110 1.327 . S
C2111 C2115 1.429 . S
C2112 C2095 1.574 . S
C2112 H2106 0.949 . S
C2112 C2116 1.368 . S
C2113 C2094 1.429 . S
C2113 C2107 1.429 . S
C2113 C2114 1.523 . S
C2114 C2095 1.368 . S
C2114 C2108 1.368 . S
C2114 C2113 1.523 . S
C2115 C2099 1.429 . S
C2115 C2111 1.429 . S
C2115 C2116 1.523 . S
C2116 C2100 1.368 . S
C2116 C2112 1.368 . S
C2116 C2115 1.523 . S
H2117 C2092 0.950 . S
H2118 C2094 0.950 . S
H2119 C2095 0.949 . S
H2120 C2097 0.950 . S
H2121 C2099 0.950 . S
C2122 C2123 1.349 . S
C2122 C2124 1.327 . S
C2122 H2147 0.950 . S
C2123 C2122 1.349 . S
C2123 C2139 1.349 . S
C2124 C2122 1.327 . S
C2124 C2143 1.429 . S
C2124 H2148 0.950 . S
C2125 C2142 1.574 . S
C2125 C2144 1.368 . S
C2125 H2149 0.949 . S
H2126 C2130 0.949 . S
C2127 C2128 1.349 . S
C2127 C2129 1.327 . S
C2127 H2150 0.950 . S
C2128 C2127 1.349 . S
C2128 C2140 1.349 . S
C2129 C2127 1.327 . S
C2129 C2145 1.429 . S
C2129 H2151 0.950 . S
C2130 H2126 0.949 . S
C2130 C2138 1.574 . S
C2130 C2146 1.368 . S
H2131 C2139 0.950 . S
H2132 C2137 0.950 . S
H2133 C2138 0.949 . S
H2134 C2140 0.950 . S
H2135 C2141 0.950 . S
H2136 C2142 0.949 . S
C2137 H2132 0.950 . S
C2137 C2139 1.327 . S
C2137 C2143 1.429 . S
C2138 C2130 1.574 . S
C2138 H2133 0.949 . S
C2138 C2144 1.368 . S
C2139 C2123 1.349 . S
C2139 H2131 0.950 . S
C2139 C2137 1.327 . S
C2140 C2128 1.349 . S
C2140 H2134 0.950 . S
C2140 C2141 1.327 . S
C2141 H2135 0.950 . S
C2141 C2140 1.327 . S
C2141 C2145 1.429 . S
C2142 C2125 1.574 . S
C2142 H2136 0.949 . S
C2142 C2146 1.368 . S
C2143 C2124 1.429 . S
C2143 C2137 1.429 . S
C2143 C2144 1.523 . S
C2144 C2125 1.368 . S
C2144 C2138 1.368 . S
C2144 C2143 1.523 . S
C2145 C2129 1.429 . S
C2145 C2141 1.429 . S
C2145 C2146 1.523 . S
C2146 C2130 1.368 . S
C2146 C2142 1.368 . S
C2146 C2145 1.523 . S
H2147 C2122 0.950 . S
H2148 C2124 0.950 . S
H2149 C2125 0.949 . S
H2150 C2127 0.950 . S
H2151 C2129 0.950 . S
C2152 C2153 1.349 . S
C2152 C2154 1.327 . S
C2152 H2177 0.950 . S
C2153 C2152 1.349 . S
C2153 C2169 1.349 . S
C2154 C2152 1.327 . S
C2154 C2173 1.429 . S
C2154 H2178 0.950 . S
C2155 C2172 1.574 . S
C2155 C2174 1.368 . S
C2155 H2179 0.949 . S
H2156 C2160 0.949 . S
C2157 C2158 1.349 . S
C2157 C2159 1.327 . S
C2157 H2180 0.950 . S
C2158 C2157 1.349 . S
C2158 C2170 1.349 . S
C2159 C2157 1.327 . S
C2159 C2175 1.429 . S
C2159 H2181 0.950 . S
C2160 H2156 0.949 . S
C2160 C2168 1.574 . S
C2160 C2176 1.368 . S
H2161 C2169 0.950 . S
H2162 C2167 0.950 . S
H2163 C2168 0.949 . S
H2164 C2170 0.950 . S
H2165 C2171 0.950 . S
H2166 C2172 0.949 . S
C2167 H2162 0.950 . S
C2167 C2169 1.327 . S
C2167 C2173 1.429 . S
C2168 C2160 1.574 . S
C2168 H2163 0.949 . S
C2168 C2174 1.368 . S
C2169 C2153 1.349 . S
C2169 H2161 0.950 . S
C2169 C2167 1.327 . S
C2170 C2158 1.349 . S
C2170 H2164 0.950 . S
C2170 C2171 1.327 . S
C2171 H2165 0.950 . S
C2171 C2170 1.327 . S
C2171 C2175 1.429 . S
C2172 C2155 1.574 . S
C2172 H2166 0.949 . S
C2172 C2176 1.368 . S
C2173 C2154 1.429 . S
C2173 C2167 1.429 . S
C2173 C2174 1.523 . S
C2174 C2155 1.368 . S
C2174 C2168 1.368 . S
C2174 C2173 1.523 . S
C2175 C2159 1.429 . S
C2175 C2171 1.429 . S
C2175 C2176 1.523 . S
C2176 C2160 1.368 . S
C2176 C2172 1.368 . S
C2176 C2175 1.523 . S
H2177 C2152 0.950 . S
H2178 C2154 0.950 . S
H2179 C2155 0.949 . S
H2180 C2157 0.950 . S
H2181 C2159 0.950 . S
C2182 C2183 1.349 . S
C2182 C2184 1.327 . S
C2182 H2207 0.950 . S
C2183 C2182 1.349 . S
C2183 C2199 1.349 . S
C2184 C2182 1.327 . S
C2184 C2203 1.429 . S
C2184 H2208 0.950 . S
C2185 C2202 1.574 . S
C2185 C2204 1.368 . S
C2185 H2209 0.949 . S
H2186 C2190 0.949 . S
C2187 C2188 1.349 . S
C2187 C2189 1.327 . S
C2187 H2210 0.950 . S
C2188 C2187 1.349 . S
C2188 C2200 1.349 . S
C2189 C2187 1.327 . S
C2189 C2205 1.429 . S
C2189 H2211 0.950 . S
C2190 H2186 0.949 . S
C2190 C2198 1.574 . S
C2190 C2206 1.368 . S
H2191 C2199 0.950 . S
H2192 C2197 0.950 . S
H2193 C2198 0.949 . S
H2194 C2200 0.950 . S
H2195 C2201 0.950 . S
H2196 C2202 0.949 . S
C2197 H2192 0.950 . S
C2197 C2199 1.327 . S
C2197 C2203 1.429 . S
C2198 C2190 1.574 . S
C2198 H2193 0.949 . S
C2198 C2204 1.368 . S
C2199 C2183 1.349 . S
C2199 H2191 0.950 . S
C2199 C2197 1.327 . S
C2200 C2188 1.349 . S
C2200 H2194 0.950 . S
C2200 C2201 1.327 . S
C2201 H2195 0.950 . S
C2201 C2200 1.327 . S
C2201 C2205 1.429 . S
C2202 C2185 1.574 . S
C2202 H2196 0.949 . S
C2202 C2206 1.368 . S
C2203 C2184 1.429 . S
C2203 C2197 1.429 . S
C2203 C2204 1.523 . S
C2204 C2185 1.368 . S
C2204 C2198 1.368 . S
C2204 C2203 1.523 . S
C2205 C2189 1.429 . S
C2205 C2201 1.429 . S
C2205 C2206 1.523 . S
C2206 C2190 1.368 . S
C2206 C2202 1.368 . S
C2206 C2205 1.523 . S
H2207 C2182 0.950 . S
H2208 C2184 0.950 . S
H2209 C2185 0.949 . S
H2210 C2187 0.950 . S
H2211 C2189 0.950 . S
C2212 C2213 1.349 . S
C2212 C2214 1.327 . S
C2212 H2237 0.950 . S
C2213 C2212 1.349 . S
C2213 C2229 1.349 . S
C2214 C2212 1.327 . S
C2214 C2233 1.429 . S
C2214 H2238 0.950 . S
C2215 C2232 1.574 . S
C2215 C2234 1.368 . S
C2215 H2239 0.949 . S
H2216 C2220 0.949 . S
C2217 C2218 1.349 . S
C2217 C2219 1.327 . S
C2217 H2240 0.950 . S
C2218 C2217 1.349 . S
C2218 C2230 1.349 . S
C2219 C2217 1.327 . S
C2219 C2235 1.429 . S
C2219 H2241 0.950 . S
C2220 H2216 0.949 . S
C2220 C2228 1.574 . S
C2220 C2236 1.368 . S
H2221 C2229 0.950 . S
H2222 C2227 0.950 . S
H2223 C2228 0.949 . S
H2224 C2230 0.950 . S
H2225 C2231 0.950 . S
H2226 C2232 0.949 . S
C2227 H2222 0.950 . S
C2227 C2229 1.327 . S
C2227 C2233 1.429 . S
C2228 C2220 1.574 . S
C2228 H2223 0.949 . S
C2228 C2234 1.368 . S
C2229 C2213 1.349 . S
C2229 H2221 0.950 . S
C2229 C2227 1.327 . S
C2230 C2218 1.349 . S
C2230 H2224 0.950 . S
C2230 C2231 1.327 . S
C2231 H2225 0.950 . S
C2231 C2230 1.327 . S
C2231 C2235 1.429 . S
C2232 C2215 1.574 . S
C2232 H2226 0.949 . S
C2232 C2236 1.368 . S
C2233 C2214 1.429 . S
C2233 C2227 1.429 . S
C2233 C2234 1.523 . S
C2234 C2215 1.368 . S
C2234 C2228 1.368 . S
C2234 C2233 1.523 . S
C2235 C2219 1.429 . S
C2235 C2231 1.429 . S
C2235 C2236 1.523 . S
C2236 C2220 1.368 . S
C2236 C2232 1.368 . S
C2236 C2235 1.523 . S
H2237 C2212 0.950 . S
H2238 C2214 0.950 . S
H2239 C2215 0.949 . S
H2240 C2217 0.950 . S
H2241 C2219 0.950 . S
C2242 C2243 1.349 . S
C2242 C2244 1.327 . S
C2242 H2267 0.950 . S
C2243 C2242 1.349 . S
C2243 C2259 1.349 . S
C2244 C2242 1.327 . S
C2244 C2263 1.429 . S
C2244 H2268 0.950 . S
C2245 C2262 1.574 . S
C2245 C2264 1.368 . S
C2245 H2269 0.949 . S
H2246 C2250 0.949 . S
C2247 C2248 1.349 . S
C2247 C2249 1.327 . S
C2247 H2270 0.950 . S
C2248 C2247 1.349 . S
C2248 C2260 1.349 . S
C2249 C2247 1.327 . S
C2249 C2265 1.429 . S
C2249 H2271 0.950 . S
C2250 H2246 0.949 . S
C2250 C2258 1.574 . S
C2250 C2266 1.368 . S
H2251 C2259 0.950 . S
H2252 C2257 0.950 . S
H2253 C2258 0.949 . S
H2254 C2260 0.950 . S
H2255 C2261 0.950 . S
H2256 C2262 0.949 . S
C2257 H2252 0.950 . S
C2257 C2259 1.327 . S
C2257 C2263 1.429 . S
C2258 C2250 1.574 . S
C2258 H2253 0.949 . S
C2258 C2264 1.368 . S
C2259 C2243 1.349 . S
C2259 H2251 0.950 . S
C2259 C2257 1.327 . S
C2260 C2248 1.349 . S
C2260 H2254 0.950 . S
C2260 C2261 1.327 . S
C2261 H2255 0.950 . S
C2261 C2260 1.327 . S
C2261 C2265 1.429 . S
C2262 C2245 1.574 . S
C2262 H2256 0.949 . S
C2262 C2266 1.368 . S
C2263 C2244 1.429 . S
C2263 C2257 1.429 . S
C2263 C2264 1.523 . S
C2264 C2245 1.368 . S
C2264 C2258 1.368 . S
C2264 C2263 1.523 . S
C2265 C2249 1.429 . S
C2265 C2261 1.429 . S
C2265 C2266 1.523 . S
C2266 C2250 1.368 . S
C2266 C2262 1.368 . S
C2266 C2265 1.523 . S
H2267 C2242 0.950 . S
H2268 C2244 0.950 . S
H2269 C2245 0.949 . S
H2270 C2247 0.950 . S
H2271 C2249 0.950 . S
C2272 C2273 1.349 . S
C2272 C2274 1.327 . S
C2272 H2297 0.950 . S
C2273 C2272 1.349 . S
C2273 C2289 1.349 . S
C2274 C2272 1.327 . S
C2274 C2293 1.429 . S
C2274 H2298 0.950 . S
C2275 C2292 1.574 . S
C2275 C2294 1.368 . S
C2275 H2299 0.949 . S
H2276 C2280 0.949 . S
C2277 C2278 1.349 . S
C2277 C2279 1.327 . S
C2277 H2300 0.950 . S
C2278 C2277 1.349 . S
C2278 C2290 1.349 . S
C2279 C2277 1.327 . S
C2279 C2295 1.429 . S
C2279 H2301 0.950 . S
C2280 H2276 0.949 . S
C2280 C2288 1.574 . S
C2280 C2296 1.368 . S
H2281 C2289 0.950 . S
H2282 C2287 0.950 . S
H2283 C2288 0.949 . S
H2284 C2290 0.950 . S
H2285 C2291 0.950 . S
H2286 C2292 0.949 . S
C2287 H2282 0.950 . S
C2287 C2289 1.327 . S
C2287 C2293 1.429 . S
C2288 C2280 1.574 . S
C2288 H2283 0.949 . S
C2288 C2294 1.368 . S
C2289 C2273 1.349 . S
C2289 H2281 0.950 . S
C2289 C2287 1.327 . S
C2290 C2278 1.349 . S
C2290 H2284 0.950 . S
C2290 C2291 1.327 . S
C2291 H2285 0.950 . S
C2291 C2290 1.327 . S
C2291 C2295 1.429 . S
C2292 C2275 1.574 . S
C2292 H2286 0.949 . S
C2292 C2296 1.368 . S
C2293 C2274 1.429 . S
C2293 C2287 1.429 . S
C2293 C2294 1.523 . S
C2294 C2275 1.368 . S
C2294 C2288 1.368 . S
C2294 C2293 1.523 . S
C2295 C2279 1.429 . S
C2295 C2291 1.429 . S
C2295 C2296 1.523 . S
C2296 C2280 1.368 . S
C2296 C2292 1.368 . S
C2296 C2295 1.523 . S
H2297 C2272 0.950 . S
H2298 C2274 0.950 . S
H2299 C2275 0.949 . S
H2300 C2277 0.950 . S
H2301 C2279 0.950 . S
C2302 C2303 1.349 . S
C2302 C2304 1.327 . S
C2302 H2327 0.950 . S
C2303 C2302 1.349 . S
C2303 C2319 1.349 . S
C2304 C2302 1.327 . S
C2304 C2323 1.429 . S
C2304 H2328 0.950 . S
C2305 C2322 1.582 . S
C2305 C2324 1.368 . S
C2305 H2329 0.949 1_565 S
H2306 C2310 0.949 . S
C2307 C2308 1.333 1_545 S
C2307 C2309 1.327 . S
C2307 H2330 0.950 . S
C2308 C2307 1.333 1_565 S
C2308 C2320 1.380 . S
C2309 C2307 1.327 . S
C2309 C2325 1.429 1_545 S
C2309 H2331 0.950 . S
C2310 H2306 0.949 . S
C2310 C2318 1.574 . S
C2310 C2326 1.368 . S
H2311 C2319 0.950 . S
H2312 C2317 0.950 . S
H2313 C2318 0.949 . S
H2314 C2320 0.950 . S
H2315 C2321 0.950 . S
H2316 C2322 0.932 1_545 S
C2317 H2312 0.950 . S
C2317 C2319 1.327 . S
C2317 C2323 1.429 . S
C2318 C2310 1.574 . S
C2318 H2313 0.949 . S
C2318 C2324 1.368 . S
C2319 C2303 1.349 . S
C2319 H2311 0.950 . S
C2319 C2317 1.327 . S
C2320 C2308 1.380 . S
C2320 H2314 0.950 . S
C2320 C2321 1.327 . S
C2321 H2315 0.950 . S
C2321 C2320 1.327 . S
C2321 C2325 1.429 . S
C2322 C2305 1.582 . S
C2322 H2316 0.932 1_565 S
C2322 C2326 1.379 . S
C2323 C2304 1.429 . S
C2323 C2317 1.429 . S
C2323 C2324 1.523 . S
C2324 C2305 1.368 . S
C2324 C2318 1.368 . S
C2324 C2323 1.523 . S
C2325 C2309 1.429 1_565 S
C2325 C2321 1.429 . S
C2325 C2326 1.523 . S
C2326 C2310 1.368 . S
C2326 C2322 1.379 . S
C2326 C2325 1.523 . S
H2327 C2302 0.950 . S
H2328 C2304 0.950 . S
H2329 C2305 0.949 1_545 S
H2330 C2307 0.950 . S
H2331 C2309 0.950 . S
C2332 C2333 1.349 . S
C2332 C2334 1.327 . S
C2332 H2357 0.950 . S
C2333 C2332 1.349 . S
C2333 C2349 1.349 . S
C2334 C2332 1.327 . S
C2334 C2353 1.429 . S
C2334 H2358 0.950 . S
C2335 C2352 1.574 . S
C2335 C2354 1.368 . S
C2335 H2359 0.949 . S
H2336 C2340 0.949 . S
C2337 C2338 1.349 . S
C2337 C2339 1.327 . S
C2337 H2360 0.950 . S
C2338 C2337 1.349 . S
C2338 C2350 1.349 . S
C2339 C2337 1.327 . S
C2339 C2355 1.429 . S
C2339 H2361 0.950 . S
C2340 H2336 0.949 . S
C2340 C2348 1.574 . S
C2340 C2356 1.368 . S
H2341 C2349 0.950 . S
H2342 C2347 0.950 . S
H2343 C2348 0.949 . S
H2344 C2350 0.950 . S
H2345 C2351 0.950 . S
H2346 C2352 0.949 . S
C2347 H2342 0.950 . S
C2347 C2349 1.327 . S
C2347 C2353 1.429 . S
C2348 C2340 1.574 . S
C2348 H2343 0.949 . S
C2348 C2354 1.368 . S
C2349 C2333 1.349 . S
C2349 H2341 0.950 . S
C2349 C2347 1.327 . S
C2350 C2338 1.349 . S
C2350 H2344 0.950 . S
C2350 C2351 1.327 . S
C2351 H2345 0.950 . S
C2351 C2350 1.327 . S
C2351 C2355 1.429 . S
C2352 C2335 1.574 . S
C2352 H2346 0.949 . S
C2352 C2356 1.368 . S
C2353 C2334 1.429 . S
C2353 C2347 1.429 . S
C2353 C2354 1.523 . S
C2354 C2335 1.368 . S
C2354 C2348 1.368 . S
C2354 C2353 1.523 . S
C2355 C2339 1.429 . S
C2355 C2351 1.429 . S
C2355 C2356 1.523 . S
C2356 C2340 1.368 . S
C2356 C2352 1.368 . S
C2356 C2355 1.523 . S
H2357 C2332 0.950 . S
H2358 C2334 0.950 . S
H2359 C2335 0.949 . S
H2360 C2337 0.950 . S
H2361 C2339 0.950 . S
C2362 C2363 1.349 . S
C2362 C2364 1.327 . S
C2362 H2387 0.950 . S
C2363 C2362 1.349 . S
C2363 C2379 1.349 . S
C2364 C2362 1.327 . S
C2364 C2383 1.429 . S
C2364 H2388 0.950 . S
C2365 C2382 1.574 . S
C2365 C2384 1.368 . S
C2365 H2389 0.949 . S
H2366 C2370 0.949 . S
C2367 C2368 1.349 . S
C2367 C2369 1.327 . S
C2367 H2390 0.950 . S
C2368 C2367 1.349 . S
C2368 C2380 1.349 . S
C2369 C2367 1.327 . S
C2369 C2385 1.429 . S
C2369 H2391 0.950 . S
C2370 H2366 0.949 . S
C2370 C2378 1.574 . S
C2370 C2386 1.368 . S
H2371 C2379 0.950 . S
H2372 C2377 0.950 . S
H2373 C2378 0.949 . S
H2374 C2380 0.950 . S
H2375 C2381 0.950 . S
H2376 C2382 0.949 . S
C2377 H2372 0.950 . S
C2377 C2379 1.327 . S
C2377 C2383 1.429 . S
C2378 C2370 1.574 . S
C2378 H2373 0.949 . S
C2378 C2384 1.368 . S
C2379 C2363 1.349 . S
C2379 H2371 0.950 . S
C2379 C2377 1.327 . S
C2380 C2368 1.349 . S
C2380 H2374 0.950 . S
C2380 C2381 1.327 . S
C2381 H2375 0.950 . S
C2381 C2380 1.327 . S
C2381 C2385 1.429 . S
C2382 C2365 1.574 . S
C2382 H2376 0.949 . S
C2382 C2386 1.368 . S
C2383 C2364 1.429 . S
C2383 C2377 1.429 . S
C2383 C2384 1.523 . S
C2384 C2365 1.368 . S
C2384 C2378 1.368 . S
C2384 C2383 1.523 . S
C2385 C2369 1.429 . S
C2385 C2381 1.429 . S
C2385 C2386 1.523 . S
C2386 C2370 1.368 . S
C2386 C2382 1.368 . S
C2386 C2385 1.523 . S
H2387 C2362 0.950 . S
H2388 C2364 0.950 . S
H2389 C2365 0.949 . S
H2390 C2367 0.950 . S
H2391 C2369 0.950 . S
C2392 C2393 1.349 . S
C2392 C2394 1.327 . S
C2392 H2417 0.950 . S
C2393 C2392 1.349 . S
C2393 C2409 1.349 . S
C2394 C2392 1.327 . S
C2394 C2413 1.429 . S
C2394 H2418 0.950 . S
C2395 C2412 1.574 . S
C2395 C2414 1.368 . S
C2395 H2419 0.949 . S
H2396 C2400 0.949 . S
C2397 C2398 1.349 . S
C2397 C2399 1.327 . S
C2397 H2420 0.950 . S
C2398 C2397 1.349 . S
C2398 C2410 1.349 . S
C2399 C2397 1.327 . S
C2399 C2415 1.429 . S
C2399 H2421 0.950 . S
C2400 H2396 0.949 . S
C2400 C2408 1.574 . S
C2400 C2416 1.368 . S
H2401 C2409 0.950 . S
H2402 C2407 0.950 . S
H2403 C2408 0.949 . S
H2404 C2410 0.950 . S
H2405 C2411 0.950 . S
H2406 C2412 0.949 . S
C2407 H2402 0.950 . S
C2407 C2409 1.327 . S
C2407 C2413 1.429 . S
C2408 C2400 1.574 . S
C2408 H2403 0.949 . S
C2408 C2414 1.368 . S
C2409 C2393 1.349 . S
C2409 H2401 0.950 . S
C2409 C2407 1.327 . S
C2410 C2398 1.349 . S
C2410 H2404 0.950 . S
C2410 C2411 1.327 . S
C2411 H2405 0.950 . S
C2411 C2410 1.327 . S
C2411 C2415 1.429 . S
C2412 C2395 1.574 . S
C2412 H2406 0.949 . S
C2412 C2416 1.368 . S
C2413 C2394 1.429 . S
C2413 C2407 1.429 . S
C2413 C2414 1.523 . S
C2414 C2395 1.368 . S
C2414 C2408 1.368 . S
C2414 C2413 1.523 . S
C2415 C2399 1.429 . S
C2415 C2411 1.429 . S
C2415 C2416 1.523 . S
C2416 C2400 1.368 . S
C2416 C2412 1.368 . S
C2416 C2415 1.523 . S
H2417 C2392 0.950 . S
H2418 C2394 0.950 . S
H2419 C2395 0.949 . S
H2420 C2397 0.950 . S
H2421 C2399 0.950 . S
C2422 C2423 1.349 . S
C2422 C2424 1.327 . S
C2422 H2447 0.950 . S
C2423 C2422 1.349 . S
C2423 C2439 1.349 . S
C2424 C2422 1.327 . S
C2424 C2443 1.429 . S
C2424 H2448 0.950 . S
C2425 C2442 1.574 . S
C2425 C2444 1.368 . S
C2425 H2449 0.949 . S
H2426 C2430 0.949 . S
C2427 C2428 1.349 . S
C2427 C2429 1.327 . S
C2427 H2450 0.950 . S
C2428 C2427 1.349 . S
C2428 C2440 1.349 . S
C2429 C2427 1.327 . S
C2429 C2445 1.429 . S
C2429 H2451 0.950 . S
C2430 H2426 0.949 . S
C2430 C2438 1.574 . S
C2430 C2446 1.368 . S
H2431 C2439 0.950 . S
H2432 C2437 0.950 . S
H2433 C2438 0.949 . S
H2434 C2440 0.950 . S
H2435 C2441 0.950 . S
H2436 C2442 0.949 . S
C2437 H2432 0.950 . S
C2437 C2439 1.327 . S
C2437 C2443 1.429 . S
C2438 C2430 1.574 . S
C2438 H2433 0.949 . S
C2438 C2444 1.368 . S
C2439 C2423 1.349 . S
C2439 H2431 0.950 . S
C2439 C2437 1.327 . S
C2440 C2428 1.349 . S
C2440 H2434 0.950 . S
C2440 C2441 1.327 . S
C2441 H2435 0.950 . S
C2441 C2440 1.327 . S
C2441 C2445 1.429 . S
C2442 C2425 1.574 . S
C2442 H2436 0.949 . S
C2442 C2446 1.368 . S
C2443 C2424 1.429 . S
C2443 C2437 1.429 . S
C2443 C2444 1.523 . S
C2444 C2425 1.368 . S
C2444 C2438 1.368 . S
C2444 C2443 1.523 . S
C2445 C2429 1.429 . S
C2445 C2441 1.429 . S
C2445 C2446 1.523 . S
C2446 C2430 1.368 . S
C2446 C2442 1.368 . S
C2446 C2445 1.523 . S
H2447 C2422 0.950 . S
H2448 C2424 0.950 . S
H2449 C2425 0.949 . S
H2450 C2427 0.950 . S
H2451 C2429 0.950 . S
C2452 C2453 1.349 . S
C2452 C2454 1.327 . S
C2452 H2477 0.950 . S
C2453 C2452 1.349 . S
C2453 C2469 1.349 . S
C2454 C2452 1.327 . S
C2454 C2473 1.429 . S
C2454 H2478 0.950 . S
C2455 C2472 1.601 . S
C2455 C2474 1.368 . S
C2455 H2479 0.949 . S
H2456 C2460 0.949 . S
C2457 C2458 1.349 . S
C2457 C2459 1.327 . S
C2457 H2480 0.950 . S
C2458 C2457 1.349 . S
C2458 C2470 1.349 . S
C2459 C2457 1.327 . S
C2459 C2475 1.429 . S
C2459 H2481 0.950 . S
C2460 H2456 0.949 . S
C2460 C2468 1.574 . S
C2460 C2476 1.368 . S
H2461 C2469 0.950 . S
H2462 C2467 0.950 . S
H2463 C2468 0.949 . S
H2464 C2470 0.950 . S
H2465 C2471 0.950 . S
H2466 C2472 0.898 1_554 S
C2467 H2462 0.950 . S
C2467 C2469 1.327 . S
C2467 C2473 1.429 . S
C2468 C2460 1.574 . S
C2468 H2463 0.949 . S
C2468 C2474 1.368 . S
C2469 C2453 1.349 . S
C2469 H2461 0.950 . S
C2469 C2467 1.327 . S
C2470 C2458 1.349 . S
C2470 H2464 0.950 . S
C2470 C2471 1.327 1_554 S
C2471 H2465 0.950 . S
C2471 C2470 1.327 1_556 S
C2471 C2475 1.429 1_556 S
C2472 C2455 1.601 . S
C2472 H2466 0.898 1_556 S
C2472 C2476 1.398 . S
C2473 C2454 1.429 . S
C2473 C2467 1.429 . S
C2473 C2474 1.523 . S
C2474 C2455 1.368 . S
C2474 C2468 1.368 . S
C2474 C2473 1.523 . S
C2475 C2459 1.429 . S
C2475 C2471 1.429 1_554 S
C2475 C2476 1.523 1_554 S
C2476 C2460 1.368 . S
C2476 C2472 1.398 . S
C2476 C2475 1.523 1_556 S
H2477 C2452 0.950 . S
H2478 C2454 0.950 . S
H2479 C2455 0.949 . S
H2480 C2457 0.950 . S
H2481 C2459 0.950 . S
C2482 C2483 1.349 . S
C2482 C2484 1.327 . S
C2482 H2507 0.950 . S
C2483 C2482 1.349 . S
C2483 C2499 1.349 . S
C2484 C2482 1.327 . S
C2484 C2503 1.429 . S
C2484 H2508 0.950 . S
C2485 C2502 1.574 . S
C2485 C2504 1.368 . S
C2485 H2509 0.949 . S
H2486 C2490 0.949 . S
C2487 C2488 1.349 . S
C2487 C2489 1.327 . S
C2487 H2510 0.950 . S
C2488 C2487 1.349 . S
C2488 C2500 1.349 . S
C2489 C2487 1.327 . S
C2489 C2505 1.429 . S
C2489 H2511 0.950 . S
C2490 H2486 0.949 . S
C2490 C2498 1.574 . S
C2490 C2506 1.368 . S
H2491 C2499 0.950 . S
H2492 C2497 0.950 . S
H2493 C2498 0.949 . S
H2494 C2500 0.950 . S
H2495 C2501 0.950 . S
H2496 C2502 0.949 . S
C2497 H2492 0.950 . S
C2497 C2499 1.327 . S
C2497 C2503 1.429 . S
C2498 C2490 1.574 . S
C2498 H2493 0.949 . S
C2498 C2504 1.368 . S
C2499 C2483 1.349 . S
C2499 H2491 0.950 . S
C2499 C2497 1.327 . S
C2500 C2488 1.349 . S
C2500 H2494 0.950 . S
C2500 C2501 1.327 . S
C2501 H2495 0.950 . S
C2501 C2500 1.327 . S
C2501 C2505 1.429 . S
C2502 C2485 1.574 . S
C2502 H2496 0.949 . S
C2502 C2506 1.368 . S
C2503 C2484 1.429 . S
C2503 C2497 1.429 . S
C2503 C2504 1.523 . S
C2504 C2485 1.368 . S
C2504 C2498 1.368 . S
C2504 C2503 1.523 . S
C2505 C2489 1.429 . S
C2505 C2501 1.429 . S
C2505 C2506 1.523 . S
C2506 C2490 1.368 . S
C2506 C2502 1.368 . S
C2506 C2505 1.523 . S
H2507 C2482 0.950 . S
H2508 C2484 0.950 . S
H2509 C2485 0.949 . S
H2510 C2487 0.950 . S
H2511 C2489 0.950 . S
C2512 C2513 1.349 . S
C2512 C2514 1.327 . S
C2512 H2537 0.950 . S
C2513 C2512 1.349 . S
C2513 C2529 1.349 . S
C2514 C2512 1.327 . S
C2514 C2533 1.429 . S
C2514 H2538 0.950 . S
C2515 C2532 1.574 . S
C2515 C2534 1.368 . S
C2515 H2539 0.949 . S
H2516 C2520 0.949 . S
C2517 C2518 1.349 . S
C2517 C2519 1.327 . S
C2517 H2540 0.950 . S
C2518 C2517 1.349 . S
C2518 C2530 1.349 . S
C2519 C2517 1.327 . S
C2519 C2535 1.429 . S
C2519 H2541 0.950 . S
C2520 H2516 0.949 . S
C2520 C2528 1.574 . S
C2520 C2536 1.368 . S
H2521 C2529 0.950 . S
H2522 C2527 0.950 . S
H2523 C2528 0.949 . S
H2524 C2530 0.950 . S
H2525 C2531 0.950 . S
H2526 C2532 0.949 . S
C2527 H2522 0.950 . S
C2527 C2529 1.327 . S
C2527 C2533 1.429 . S
C2528 C2520 1.574 . S
C2528 H2523 0.949 . S
C2528 C2534 1.368 . S
C2529 C2513 1.349 . S
C2529 H2521 0.950 . S
C2529 C2527 1.327 . S
C2530 C2518 1.349 . S
C2530 H2524 0.950 . S
C2530 C2531 1.327 . S
C2531 H2525 0.950 . S
C2531 C2530 1.327 . S
C2531 C2535 1.429 . S
C2532 C2515 1.574 . S
C2532 H2526 0.949 . S
C2532 C2536 1.368 . S
C2533 C2514 1.429 . S
C2533 C2527 1.429 . S
C2533 C2534 1.523 . S
C2534 C2515 1.368 . S
C2534 C2528 1.368 . S
C2534 C2533 1.523 . S
C2535 C2519 1.429 . S
C2535 C2531 1.429 . S
C2535 C2536 1.523 . S
C2536 C2520 1.368 . S
C2536 C2532 1.368 . S
C2536 C2535 1.523 . S
H2537 C2512 0.950 . S
H2538 C2514 0.950 . S
H2539 C2515 0.949 . S
H2540 C2517 0.950 . S
H2541 C2519 0.950 . S
C2542 C2543 1.349 . S
C2542 C2544 1.327 1_455 S
C2542 H2567 0.950 . S
C2543 C2542 1.349 . S
C2543 C2559 1.349 1_455 S
C2544 C2542 1.327 1_655 S
C2544 C2563 1.429 . S
C2544 H2568 0.950 . S
C2545 C2562 1.574 . S
C2545 C2564 1.368 . S
C2545 H2569 0.949 . S
H2546 C2550 0.949 . S
C2547 C2548 1.349 . S
C2547 C2549 1.327 . S
C2547 H2570 0.950 . S
C2548 C2547 1.349 . S
C2548 C2560 1.349 . S
C2549 C2547 1.327 . S
C2549 C2565 1.429 . S
C2549 H2571 0.950 . S
C2550 H2546 0.949 . S
C2550 C2558 1.574 . S
C2550 C2566 1.368 . S
H2551 C2559 0.950 . S
H2552 C2557 0.950 . S
H2553 C2558 0.949 . S
H2554 C2560 0.950 . S
H2555 C2561 0.950 . S
H2556 C2562 0.949 . S
C2557 H2552 0.950 . S
C2557 C2559 1.327 . S
C2557 C2563 1.429 . S
C2558 C2550 1.574 . S
C2558 H2553 0.949 . S
C2558 C2564 1.368 . S
C2559 C2543 1.349 1_655 S
C2559 H2551 0.950 . S
C2559 C2557 1.327 . S
C2560 C2548 1.349 . S
C2560 H2554 0.950 . S
C2560 C2561 1.327 . S
C2561 H2555 0.950 . S
C2561 C2560 1.327 . S
C2561 C2565 1.429 . S
C2562 C2545 1.574 . S
C2562 H2556 0.949 . S
C2562 C2566 1.368 . S
C2563 C2544 1.429 . S
C2563 C2557 1.429 . S
C2563 C2564 1.523 . S
C2564 C2545 1.368 . S
C2564 C2558 1.368 . S
C2564 C2563 1.523 . S
C2565 C2549 1.429 . S
C2565 C2561 1.429 . S
C2565 C2566 1.523 . S
C2566 C2550 1.368 . S
C2566 C2562 1.368 . S
C2566 C2565 1.523 . S
H2567 C2542 0.950 . S
H2568 C2544 0.950 . S
H2569 C2545 0.949 . S
H2570 C2547 0.950 . S
H2571 C2549 0.950 . S
C2572 C2573 1.349 . S
C2572 C2574 1.327 . S
C2572 H2597 0.950 . S
C2573 C2572 1.349 . S
C2573 C2589 1.349 1_655 S
C2574 C2572 1.327 . S
C2574 C2593 1.429 . S
C2574 H2598 0.950 . S
C2575 C2592 1.574 . S
C2575 C2594 1.368 1_455 S
C2575 H2599 0.949 . S
H2576 C2580 0.949 . S
C2577 C2578 1.388 . S
C2577 C2579 1.327 . S
C2577 H2600 0.950 . S
C2578 C2577 1.388 . S
C2578 C2590 1.291 1_455 S
C2579 C2577 1.327 . S
C2579 C2595 1.429 1_455 S
C2579 H2601 0.950 . S
C2580 H2576 0.949 . S
C2580 C2588 1.574 . S
C2580 C2596 1.368 . S
H2581 C2589 0.950 . S
H2582 C2587 0.950 . S
H2583 C2588 0.949 . S
H2584 C2590 0.950 . S
H2585 C2591 0.950 . S
H2586 C2592 0.949 . S
C2587 H2582 0.950 . S
C2587 C2589 1.327 . S
C2587 C2593 1.429 1_455 S
C2588 C2580 1.574 . S
C2588 H2583 0.949 . S
C2588 C2594 1.368 . S
C2589 C2573 1.349 1_455 S
C2589 H2581 0.950 . S
C2589 C2587 1.327 . S
C2590 C2578 1.291 1_655 S
C2590 H2584 0.950 . S
C2590 C2591 1.327 . S
C2591 H2585 0.950 . S
C2591 C2590 1.327 . S
C2591 C2595 1.429 . S
C2592 C2575 1.574 . S
C2592 H2586 0.949 . S
C2592 C2596 1.368 1_455 S
C2593 C2574 1.429 . S
C2593 C2587 1.429 1_655 S
C2593 C2594 1.523 . S
C2594 C2575 1.368 1_655 S
C2594 C2588 1.368 . S
C2594 C2593 1.523 . S
C2595 C2579 1.429 1_655 S
C2595 C2591 1.429 . S
C2595 C2596 1.523 . S
C2596 C2580 1.368 . S
C2596 C2592 1.368 1_655 S
C2596 C2595 1.523 . S
H2597 C2572 0.950 . S
H2598 C2574 0.950 . S
H2599 C2575 0.949 . S
H2600 C2577 0.950 . S
H2601 C2579 0.950 . S
C2602 C2603 1.349 . S
C2602 C2604 1.327 . S
C2602 H2627 0.950 . S
C2603 C2602 1.349 . S
C2603 C2619 1.349 . S
C2604 C2602 1.327 . S
C2604 C2623 1.429 . S
C2604 H2628 0.950 . S
C2605 C2622 1.574 . S
C2605 C2624 1.368 . S
C2605 H2629 0.949 . S
H2606 C2610 0.949 . S
C2607 C2608 1.349 . S
C2607 C2609 1.327 . S
C2607 H2630 0.950 . S
C2608 C2607 1.349 . S
C2608 C2620 1.349 . S
C2609 C2607 1.327 . S
C2609 C2625 1.429 . S
C2609 H2631 0.950 . S
C2610 H2606 0.949 . S
C2610 C2618 1.574 . S
C2610 C2626 1.368 . S
H2611 C2619 0.950 . S
H2612 C2617 0.950 . S
H2613 C2618 0.949 . S
H2614 C2620 0.950 . S
H2615 C2621 0.950 . S
H2616 C2622 0.949 . S
C2617 H2612 0.950 . S
C2617 C2619 1.327 . S
C2617 C2623 1.429 . S
C2618 C2610 1.574 . S
C2618 H2613 0.949 . S
C2618 C2624 1.368 . S
C2619 C2603 1.349 . S
C2619 H2611 0.950 . S
C2619 C2617 1.327 . S
C2620 C2608 1.349 . S
C2620 H2614 0.950 . S
C2620 C2621 1.327 . S
C2621 H2615 0.950 . S
C2621 C2620 1.327 . S
C2621 C2625 1.429 . S
C2622 C2605 1.574 . S
C2622 H2616 0.949 . S
C2622 C2626 1.368 . S
C2623 C2604 1.429 . S
C2623 C2617 1.429 . S
C2623 C2624 1.523 . S
C2624 C2605 1.368 . S
C2624 C2618 1.368 . S
C2624 C2623 1.523 . S
C2625 C2609 1.429 . S
C2625 C2621 1.429 . S
C2625 C2626 1.523 . S
C2626 C2610 1.368 . S
C2626 C2622 1.368 . S
C2626 C2625 1.523 . S
H2627 C2602 0.950 . S
H2628 C2604 0.950 . S
H2629 C2605 0.949 . S
H2630 C2607 0.950 . S
H2631 C2609 0.950 . S
C2632 C2633 1.349 . S
C2632 C2634 1.327 . S
C2632 H2657 0.950 . S
C2633 C2632 1.349 . S
C2633 C2649 1.349 . S
C2634 C2632 1.327 . S
C2634 C2653 1.429 . S
C2634 H2658 0.950 . S
C2635 C2652 1.574 . S
C2635 C2654 1.368 . S
C2635 H2659 0.949 . S
H2636 C2640 0.949 . S
C2637 C2638 1.349 . S
C2637 C2639 1.327 . S
C2637 H2660 0.950 . S
C2638 C2637 1.349 . S
C2638 C2650 1.349 . S
C2639 C2637 1.327 . S
C2639 C2655 1.429 . S
C2639 H2661 0.950 . S
C2640 H2636 0.949 . S
C2640 C2648 1.574 . S
C2640 C2656 1.368 . S
H2641 C2649 0.950 . S
H2642 C2647 0.950 . S
H2643 C2648 0.949 . S
H2644 C2650 0.950 . S
H2645 C2651 0.950 . S
H2646 C2652 0.949 . S
C2647 H2642 0.950 . S
C2647 C2649 1.327 . S
C2647 C2653 1.429 . S
C2648 C2640 1.574 . S
C2648 H2643 0.949 . S
C2648 C2654 1.368 . S
C2649 C2633 1.349 . S
C2649 H2641 0.950 . S
C2649 C2647 1.327 . S
C2650 C2638 1.349 . S
C2650 H2644 0.950 . S
C2650 C2651 1.327 . S
C2651 H2645 0.950 . S
C2651 C2650 1.327 . S
C2651 C2655 1.429 . S
C2652 C2635 1.574 . S
C2652 H2646 0.949 . S
C2652 C2656 1.368 . S
C2653 C2634 1.429 . S
C2653 C2647 1.429 . S
C2653 C2654 1.523 . S
C2654 C2635 1.368 . S
C2654 C2648 1.368 . S
C2654 C2653 1.523 . S
C2655 C2639 1.429 . S
C2655 C2651 1.429 . S
C2655 C2656 1.523 . S
C2656 C2640 1.368 . S
C2656 C2652 1.368 . S
C2656 C2655 1.523 . S
H2657 C2632 0.950 . S
H2658 C2634 0.950 . S
H2659 C2635 0.949 . S
H2660 C2637 0.950 . S
H2661 C2639 0.950 . S
C2662 C2663 1.349 . S
C2662 C2664 1.327 . S
C2662 H2687 0.965 . S
C2663 C2662 1.349 . S
C2663 C2679 1.349 . S
C2664 C2662 1.327 . S
C2664 C2683 1.429 . S
C2664 H2688 0.950 . S
C2665 C2682 1.574 . S
C2665 C2684 1.368 . S
C2665 H2689 0.949 . S
H2666 C2670 0.949 . S
C2667 C2668 1.349 . S
C2667 C2669 1.327 . S
C2667 H2690 0.950 . S
C2668 C2667 1.349 . S
C2668 C2680 1.349 . S
C2669 C2667 1.327 . S
C2669 C2685 1.429 . S
C2669 H2691 0.950 . S
C2670 H2666 0.949 . S
C2670 C2678 1.574 . S
C2670 C2686 1.368 . S
H2671 C2679 0.950 . S
H2672 C2677 0.950 . S
H2673 C2678 0.949 . S
H2674 C2680 0.950 . S
H2675 C2681 0.950 . S
H2676 C2682 0.949 . S
C2677 H2672 0.950 . S
C2677 C2679 1.327 . S
C2677 C2683 1.429 . S
C2678 C2670 1.574 . S
C2678 H2673 0.949 . S
C2678 C2684 1.368 . S
C2679 C2663 1.349 . S
C2679 H2671 0.950 . S
C2679 C2677 1.327 . S
C2680 C2668 1.349 . S
C2680 H2674 0.950 . S
C2680 C2681 1.327 . S
C2681 H2675 0.950 . S
C2681 C2680 1.327 . S
C2681 C2685 1.429 . S
C2682 C2665 1.574 . S
C2682 H2676 0.949 . S
C2682 C2686 1.368 . S
C2683 C2664 1.429 . S
C2683 C2677 1.429 . S
C2683 C2684 1.523 . S
C2684 C2665 1.368 . S
C2684 C2678 1.368 . S
C2684 C2683 1.523 . S
C2685 C2669 1.429 . S
C2685 C2681 1.429 . S
C2685 C2686 1.523 . S
C2686 C2670 1.368 . S
C2686 C2682 1.368 . S
C2686 C2685 1.523 . S
H2687 C2662 0.965 . S
H2688 C2664 0.950 . S
H2689 C2665 0.949 . S
H2690 C2667 0.950 . S
H2691 C2669 0.950 . S
C2692 C2693 1.349 . S
C2692 C2694 1.327 . S
C2692 H2717 0.950 . S
C2693 C2692 1.349 . S
C2693 C2709 1.349 . S
C2694 C2692 1.327 . S
C2694 C2713 1.429 . S
C2694 H2718 0.950 . S
C2695 C2712 1.574 . S
C2695 C2714 1.368 . S
C2695 H2719 0.949 . S
H2696 C2700 0.949 . S
C2697 C2698 1.349 . S
C2697 C2699 1.327 . S
C2697 H2720 0.950 . S
C2698 C2697 1.349 . S
C2698 C2710 1.349 . S
C2699 C2697 1.327 . S
C2699 C2715 1.429 . S
C2699 H2721 0.950 . S
C2700 H2696 0.949 . S
C2700 C2708 1.574 . S
C2700 C2716 1.368 . S
H2701 C2709 0.950 . S
H2702 C2707 0.950 . S
H2703 C2708 0.949 . S
H2704 C2710 0.950 . S
H2705 C2711 0.950 . S
H2706 C2712 0.949 . S
C2707 H2702 0.950 . S
C2707 C2709 1.327 . S
C2707 C2713 1.429 . S
C2708 C2700 1.574 . S
C2708 H2703 0.949 . S
C2708 C2714 1.368 . S
C2709 C2693 1.349 . S
C2709 H2701 0.950 . S
C2709 C2707 1.327 . S
C2710 C2698 1.349 . S
C2710 H2704 0.950 . S
C2710 C2711 1.327 . S
C2711 H2705 0.950 . S
C2711 C2710 1.327 . S
C2711 C2715 1.429 . S
C2712 C2695 1.574 . S
C2712 H2706 0.949 . S
C2712 C2716 1.368 . S
C2713 C2694 1.429 . S
C2713 C2707 1.429 . S
C2713 C2714 1.523 . S
C2714 C2695 1.368 . S
C2714 C2708 1.368 . S
C2714 C2713 1.523 . S
C2715 C2699 1.429 . S
C2715 C2711 1.429 . S
C2715 C2716 1.523 . S
C2716 C2700 1.368 . S
C2716 C2712 1.368 . S
C2716 C2715 1.523 . S
H2717 C2692 0.950 . S
H2718 C2694 0.950 . S
H2719 C2695 0.949 . S
H2720 C2697 0.950 . S
H2721 C2699 0.950 . S
C2722 C2723 1.349 . S
C2722 C2724 1.327 . S
C2722 H2747 0.950 . S
C2723 C2722 1.349 . S
C2723 C2739 1.349 . S
C2724 C2722 1.327 . S
C2724 C2743 1.429 . S
C2724 H2748 0.950 . S
C2725 C2742 1.574 . S
C2725 C2744 1.368 . S
C2725 H2749 0.949 . S
H2726 C2730 0.949 . S
C2727 C2728 1.349 . S
C2727 C2729 1.327 . S
C2727 H2750 0.950 . S
C2728 C2727 1.349 . S
C2728 C2740 1.349 . S
C2729 C2727 1.327 . S
C2729 C2745 1.429 . S
C2729 H2751 0.950 . S
C2730 H2726 0.949 . S
C2730 C2738 1.574 . S
C2730 C2746 1.368 . S
H2731 C2739 0.950 . S
H2732 C2737 0.950 . S
H2733 C2738 0.949 . S
H2734 C2740 0.950 . S
H2735 C2741 0.950 . S
H2736 C2742 0.949 . S
C2737 H2732 0.950 . S
C2737 C2739 1.327 . S
C2737 C2743 1.429 . S
C2738 C2730 1.574 . S
C2738 H2733 0.949 . S
C2738 C2744 1.368 . S
C2739 C2723 1.349 . S
C2739 H2731 0.950 . S
C2739 C2737 1.327 . S
C2740 C2728 1.349 . S
C2740 H2734 0.950 . S
C2740 C2741 1.327 . S
C2741 H2735 0.950 . S
C2741 C2740 1.327 . S
C2741 C2745 1.429 . S
C2742 C2725 1.574 . S
C2742 H2736 0.949 . S
C2742 C2746 1.368 . S
C2743 C2724 1.429 . S
C2743 C2737 1.429 . S
C2743 C2744 1.523 . S
C2744 C2725 1.368 . S
C2744 C2738 1.368 . S
C2744 C2743 1.523 . S
C2745 C2729 1.429 . S
C2745 C2741 1.429 . S
C2745 C2746 1.523 . S
C2746 C2730 1.368 . S
C2746 C2742 1.368 . S
C2746 C2745 1.523 . S
H2747 C2722 0.950 . S
H2748 C2724 0.950 . S
H2749 C2725 0.949 . S
H2750 C2727 0.950 . S
H2751 C2729 0.950 . S
C2752 C2753 1.349 . S
C2752 C2754 1.327 . S
C2752 H2777 0.950 . S
C2753 C2752 1.349 . S
C2753 C2769 1.349 . S
C2754 C2752 1.327 . S
C2754 C2773 1.429 . S
C2754 H2778 0.950 . S
C2755 C2772 1.574 . S
C2755 C2774 1.368 . S
C2755 H2779 0.949 . S
H2756 C2760 0.949 . S
C2757 C2758 1.349 . S
C2757 C2759 1.327 . S
C2757 H2780 0.950 . S
C2758 C2757 1.349 . S
C2758 C2770 1.349 . S
C2759 C2757 1.327 . S
C2759 C2775 1.429 . S
C2759 H2781 0.950 . S
C2760 H2756 0.949 . S
C2760 C2768 1.574 . S
C2760 C2776 1.368 . S
H2761 C2769 0.950 . S
H2762 C2767 0.950 . S
H2763 C2768 0.949 . S
H2764 C2770 0.950 . S
H2765 C2771 0.950 . S
H2766 C2772 0.949 . S
C2767 H2762 0.950 . S
C2767 C2769 1.327 . S
C2767 C2773 1.429 . S
C2768 C2760 1.574 . S
C2768 H2763 0.949 . S
C2768 C2774 1.368 . S
C2769 C2753 1.349 . S
C2769 H2761 0.950 . S
C2769 C2767 1.327 . S
C2770 C2758 1.349 . S
C2770 H2764 0.950 . S
C2770 C2771 1.327 . S
C2771 H2765 0.950 . S
C2771 C2770 1.327 . S
C2771 C2775 1.429 . S
C2772 C2755 1.574 . S
C2772 H2766 0.949 . S
C2772 C2776 1.368 . S
C2773 C2754 1.429 . S
C2773 C2767 1.429 . S
C2773 C2774 1.523 . S
C2774 C2755 1.368 . S
C2774 C2768 1.368 . S
C2774 C2773 1.523 . S
C2775 C2759 1.429 . S
C2775 C2771 1.429 . S
C2775 C2776 1.523 . S
C2776 C2760 1.368 . S
C2776 C2772 1.368 . S
C2776 C2775 1.523 . S
H2777 C2752 0.950 . S
H2778 C2754 0.950 . S
H2779 C2755 0.949 . S
H2780 C2757 0.950 . S
H2781 C2759 0.950 . S
C2782 C2783 1.349 . S
C2782 C2784 1.327 . S
C2782 H2807 0.950 . S
C2783 C2782 1.349 . S
C2783 C2799 1.349 . S
C2784 C2782 1.327 . S
C2784 C2803 1.429 . S
C2784 H2808 0.950 . S
C2785 C2802 1.574 . S
C2785 C2804 1.368 . S
C2785 H2809 0.949 . S
H2786 C2790 0.949 . S
C2787 C2788 1.349 . S
C2787 C2789 1.327 . S
C2787 H2810 0.950 . S
C2788 C2787 1.349 . S
C2788 C2800 1.349 . S
C2789 C2787 1.327 . S
C2789 C2805 1.429 . S
C2789 H2811 0.950 . S
C2790 H2786 0.949 . S
C2790 C2798 1.574 . S
C2790 C2806 1.368 . S
H2791 C2799 0.950 . S
H2792 C2797 0.950 . S
H2793 C2798 0.949 . S
H2794 C2800 0.950 . S
H2795 C2801 0.950 . S
H2796 C2802 0.949 . S
C2797 H2792 0.950 . S
C2797 C2799 1.327 . S
C2797 C2803 1.429 . S
C2798 C2790 1.574 . S
C2798 H2793 0.949 . S
C2798 C2804 1.368 . S
C2799 C2783 1.349 . S
C2799 H2791 0.950 . S
C2799 C2797 1.327 . S
C2800 C2788 1.349 . S
C2800 H2794 0.950 . S
C2800 C2801 1.327 . S
C2801 H2795 0.950 . S
C2801 C2800 1.327 . S
C2801 C2805 1.429 . S
C2802 C2785 1.574 . S
C2802 H2796 0.949 . S
C2802 C2806 1.368 . S
C2803 C2784 1.429 . S
C2803 C2797 1.429 . S
C2803 C2804 1.523 . S
C2804 C2785 1.368 . S
C2804 C2798 1.368 . S
C2804 C2803 1.523 . S
C2805 C2789 1.429 . S
C2805 C2801 1.429 . S
C2805 C2806 1.523 . S
C2806 C2790 1.368 . S
C2806 C2802 1.368 . S
C2806 C2805 1.523 . S
H2807 C2782 0.950 . S
H2808 C2784 0.950 . S
H2809 C2785 0.949 . S
H2810 C2787 0.950 . S
H2811 C2789 0.950 . S
C2812 C2813 1.349 . S
C2812 C2814 1.327 . S
C2812 H2837 0.950 . S
C2813 C2812 1.349 . S
C2813 C2829 1.349 . S
C2814 C2812 1.327 . S
C2814 C2833 1.429 . S
C2814 H2838 0.950 . S
C2815 C2832 1.574 . S
C2815 C2834 1.368 . S
C2815 H2839 0.949 . S
H2816 C2820 0.949 . S
C2817 C2818 1.349 . S
C2817 C2819 1.327 . S
C2817 H2840 0.950 . S
C2818 C2817 1.349 . S
C2818 C2830 1.349 . S
C2819 C2817 1.327 . S
C2819 C2835 1.429 . S
C2819 H2841 0.950 . S
C2820 H2816 0.949 . S
C2820 C2828 1.574 . S
C2820 C2836 1.368 . S
H2821 C2829 0.950 . S
H2822 C2827 0.950 . S
H2823 C2828 0.949 . S
H2824 C2830 0.950 . S
H2825 C2831 0.950 . S
H2826 C2832 0.949 . S
C2827 H2822 0.950 . S
C2827 C2829 1.327 . S
C2827 C2833 1.429 . S
C2828 C2820 1.574 . S
C2828 H2823 0.949 . S
C2828 C2834 1.368 . S
C2829 C2813 1.349 . S
C2829 H2821 0.950 . S
C2829 C2827 1.327 . S
C2830 C2818 1.349 . S
C2830 H2824 0.950 . S
C2830 C2831 1.327 . S
C2831 H2825 0.950 . S
C2831 C2830 1.327 . S
C2831 C2835 1.429 . S
C2832 C2815 1.574 . S
C2832 H2826 0.949 . S
C2832 C2836 1.368 . S
C2833 C2814 1.429 . S
C2833 C2827 1.429 . S
C2833 C2834 1.523 . S
C2834 C2815 1.368 . S
C2834 C2828 1.368 . S
C2834 C2833 1.523 . S
C2835 C2819 1.429 . S
C2835 C2831 1.429 . S
C2835 C2836 1.523 . S
C2836 C2820 1.368 . S
C2836 C2832 1.368 . S
C2836 C2835 1.523 . S
H2837 C2812 0.950 . S
H2838 C2814 0.950 . S
H2839 C2815 0.949 . S
H2840 C2817 0.950 . S
H2841 C2819 0.950 . S
C2842 C2843 1.349 . S
C2842 C2844 1.327 . S
C2842 H2867 0.950 . S
C2843 C2842 1.349 . S
C2843 C2859 1.349 . S
C2844 C2842 1.327 . S
C2844 C2863 1.429 . S
C2844 H2868 0.950 . S
C2845 C2862 1.574 . S
C2845 C2864 1.368 . S
C2845 H2869 0.949 . S
H2846 C2850 0.949 . S
C2847 C2848 1.349 . S
C2847 C2849 1.327 . S
C2847 H2870 0.950 . S
C2848 C2847 1.349 . S
C2848 C2860 1.349 . S
C2849 C2847 1.327 . S
C2849 C2865 1.429 . S
C2849 H2871 0.950 . S
C2850 H2846 0.949 . S
C2850 C2858 1.574 . S
C2850 C2866 1.368 . S
H2851 C2859 0.950 . S
H2852 C2857 0.950 . S
H2853 C2858 0.949 . S
H2854 C2860 0.950 . S
H2855 C2861 0.950 . S
H2856 C2862 0.949 . S
C2857 H2852 0.950 . S
C2857 C2859 1.327 . S
C2857 C2863 1.429 . S
C2858 C2850 1.574 . S
C2858 H2853 0.949 . S
C2858 C2864 1.368 . S
C2859 C2843 1.349 . S
C2859 H2851 0.950 . S
C2859 C2857 1.327 . S
C2860 C2848 1.349 . S
C2860 H2854 0.950 . S
C2860 C2861 1.327 . S
C2861 H2855 0.950 . S
C2861 C2860 1.327 . S
C2861 C2865 1.429 . S
C2862 C2845 1.574 . S
C2862 H2856 0.949 . S
C2862 C2866 1.368 . S
C2863 C2844 1.429 . S
C2863 C2857 1.429 . S
C2863 C2864 1.523 . S
C2864 C2845 1.368 . S
C2864 C2858 1.368 . S
C2864 C2863 1.523 . S
C2865 C2849 1.429 . S
C2865 C2861 1.429 . S
C2865 C2866 1.523 . S
C2866 C2850 1.368 . S
C2866 C2862 1.368 . S
C2866 C2865 1.523 . S
H2867 C2842 0.950 . S
H2868 C2844 0.950 . S
H2869 C2845 0.949 . S
H2870 C2847 0.950 . S
H2871 C2849 0.950 . S
C2872 C2873 1.349 . S
C2872 C2874 1.327 . S
C2872 H2897 0.950 . S
C2873 C2872 1.349 . S
C2873 C2889 1.349 . S
C2874 C2872 1.327 . S
C2874 C2893 1.429 . S
C2874 H2898 0.950 . S
C2875 C2892 1.574 . S
C2875 C2894 1.368 . S
C2875 H2899 0.949 . S
H2876 C2880 0.949 . S
C2877 C2878 1.349 . S
C2877 C2879 1.327 . S
C2877 H2900 0.950 . S
C2878 C2877 1.349 . S
C2878 C2890 1.349 . S
C2879 C2877 1.327 . S
C2879 C2895 1.429 . S
C2879 H2901 0.950 . S
C2880 H2876 0.949 . S
C2880 C2888 1.574 . S
C2880 C2896 1.368 . S
H2881 C2889 0.950 . S
H2882 C2887 0.950 . S
H2883 C2888 0.949 . S
H2884 C2890 0.950 . S
H2885 C2891 0.950 . S
H2886 C2892 0.949 . S
C2887 H2882 0.950 . S
C2887 C2889 1.327 . S
C2887 C2893 1.429 . S
C2888 C2880 1.574 . S
C2888 H2883 0.949 . S
C2888 C2894 1.368 . S
C2889 C2873 1.349 . S
C2889 H2881 0.950 . S
C2889 C2887 1.327 . S
C2890 C2878 1.349 . S
C2890 H2884 0.950 . S
C2890 C2891 1.327 . S
C2891 H2885 0.950 . S
C2891 C2890 1.327 . S
C2891 C2895 1.429 . S
C2892 C2875 1.574 . S
C2892 H2886 0.949 . S
C2892 C2896 1.368 . S
C2893 C2874 1.429 . S
C2893 C2887 1.429 . S
C2893 C2894 1.523 . S
C2894 C2875 1.368 . S
C2894 C2888 1.368 . S
C2894 C2893 1.523 . S
C2895 C2879 1.429 . S
C2895 C2891 1.429 . S
C2895 C2896 1.523 . S
C2896 C2880 1.368 . S
C2896 C2892 1.368 . S
C2896 C2895 1.523 . S
H2897 C2872 0.950 . S
H2898 C2874 0.950 . S
H2899 C2875 0.949 . S
H2900 C2877 0.950 . S
H2901 C2879 0.950 . S
C2902 C2903 1.349 . S
C2902 C2904 1.327 . S
C2902 H2927 0.950 . S
C2903 C2902 1.349 . S
C2903 C2919 1.349 . S
C2904 C2902 1.327 . S
C2904 C2923 1.429 . S
C2904 H2928 0.950 . S
C2905 C2922 1.574 . S
C2905 C2924 1.368 . S
C2905 H2929 0.949 . S
H2906 C2910 0.949 . S
C2907 C2908 1.349 . S
C2907 C2909 1.327 . S
C2907 H2930 0.950 . S
C2908 C2907 1.349 . S
C2908 C2920 1.349 . S
C2909 C2907 1.327 . S
C2909 C2925 1.429 . S
C2909 H2931 0.950 . S
C2910 H2906 0.949 . S
C2910 C2918 1.574 . S
C2910 C2926 1.368 . S
H2911 C2919 0.950 . S
H2912 C2917 0.950 . S
H2913 C2918 0.949 . S
H2914 C2920 0.950 . S
H2915 C2921 0.950 . S
H2916 C2922 0.949 . S
C2917 H2912 0.950 . S
C2917 C2919 1.327 . S
C2917 C2923 1.429 . S
C2918 C2910 1.574 . S
C2918 H2913 0.949 . S
C2918 C2924 1.368 . S
C2919 C2903 1.349 . S
C2919 H2911 0.950 . S
C2919 C2917 1.327 . S
C2920 C2908 1.349 . S
C2920 H2914 0.950 . S
C2920 C2921 1.327 . S
C2921 H2915 0.950 . S
C2921 C2920 1.327 . S
C2921 C2925 1.429 . S
C2922 C2905 1.574 . S
C2922 H2916 0.949 . S
C2922 C2926 1.368 . S
C2923 C2904 1.429 . S
C2923 C2917 1.429 . S
C2923 C2924 1.523 . S
C2924 C2905 1.368 . S
C2924 C2918 1.368 . S
C2924 C2923 1.523 . S
C2925 C2909 1.429 . S
C2925 C2921 1.429 . S
C2925 C2926 1.523 . S
C2926 C2910 1.368 . S
C2926 C2922 1.368 . S
C2926 C2925 1.523 . S
H2927 C2902 0.950 . S
H2928 C2904 0.950 . S
H2929 C2905 0.949 . S
H2930 C2907 0.950 . S
H2931 C2909 0.950 . S
C2932 C2933 1.349 . S
C2932 C2934 1.327 . S
C2932 H2957 0.950 . S
C2933 C2932 1.349 . S
C2933 C2949 1.349 . S
C2934 C2932 1.327 . S
C2934 C2953 1.429 . S
C2934 H2958 0.950 . S
C2935 C2952 1.574 . S
C2935 C2954 1.368 . S
C2935 H2959 0.949 . S
H2936 C2940 0.949 . S
C2937 C2938 1.349 . S
C2937 C2939 1.327 . S
C2937 H2960 0.950 . S
C2938 C2937 1.349 . S
C2938 C2950 1.349 . S
C2939 C2937 1.327 . S
C2939 C2955 1.429 . S
C2939 H2961 0.950 . S
C2940 H2936 0.949 . S
C2940 C2948 1.574 . S
C2940 C2956 1.368 . S
H2941 C2949 0.950 . S
H2942 C2947 0.950 . S
H2943 C2948 0.949 . S
H2944 C2950 0.950 . S
H2945 C2951 0.950 . S
H2946 C2952 0.949 . S
C2947 H2942 0.950 . S
C2947 C2949 1.327 . S
C2947 C2953 1.429 . S
C2948 C2940 1.574 . S
C2948 H2943 0.949 . S
C2948 C2954 1.368 . S
C2949 C2933 1.349 . S
C2949 H2941 0.950 . S
C2949 C2947 1.327 . S
C2950 C2938 1.349 . S
C2950 H2944 0.950 . S
C2950 C2951 1.327 . S
C2951 H2945 0.950 . S
C2951 C2950 1.327 . S
C2951 C2955 1.429 . S
C2952 C2935 1.574 . S
C2952 H2946 0.949 . S
C2952 C2956 1.368 . S
C2953 C2934 1.429 . S
C2953 C2947 1.429 . S
C2953 C2954 1.523 . S
C2954 C2935 1.368 . S
C2954 C2948 1.368 . S
C2954 C2953 1.523 . S
C2955 C2939 1.429 . S
C2955 C2951 1.429 . S
C2955 C2956 1.523 . S
C2956 C2940 1.368 . S
C2956 C2952 1.368 . S
C2956 C2955 1.523 . S
H2957 C2932 0.950 . S
H2958 C2934 0.950 . S
H2959 C2935 0.949 . S
H2960 C2937 0.950 . S
H2961 C2939 0.950 . S
C2962 C2963 1.349 . S
C2962 C2964 1.327 . S
C2962 H2987 0.950 . S
C2963 C2962 1.349 . S
C2963 C2979 1.349 . S
C2964 C2962 1.327 . S
C2964 C2983 1.429 . S
C2964 H2988 0.950 . S
C2965 C2982 1.574 . S
C2965 C2984 1.368 . S
C2965 H2989 0.949 . S
H2966 C2970 0.949 . S
C2967 C2968 1.349 . S
C2967 C2969 1.327 . S
C2967 H2990 0.950 . S
C2968 C2967 1.349 . S
C2968 C2980 1.349 . S
C2969 C2967 1.327 . S
C2969 C2985 1.385 1_545 S
C2969 H2991 0.950 . S
C2970 H2966 0.949 . S
C2970 C2978 1.574 . S
C2970 C2986 1.368 . S
H2971 C2979 0.950 . S
H2972 C2977 0.950 . S
H2973 C2978 0.949 . S
H2974 C2980 0.950 . S
H2975 C2981 0.950 . S
H2976 C2982 0.949 . S
C2977 H2972 0.950 . S
C2977 C2979 1.327 . S
C2977 C2983 1.429 . S
C2978 C2970 1.574 . S
C2978 H2973 0.949 . S
C2978 C2984 1.368 . S
C2979 C2963 1.349 . S
C2979 H2971 0.950 . S
C2979 C2977 1.327 . S
C2980 C2968 1.349 . S
C2980 H2974 0.950 . S
C2980 C2981 1.327 1_545 S
C2981 H2975 0.950 . S
C2981 C2980 1.327 1_565 S
C2981 C2985 1.444 . S
C2982 C2965 1.574 . S
C2982 H2976 0.949 . S
C2982 C2986 1.368 . S
C2983 C2964 1.429 . S
C2983 C2977 1.429 . S
C2983 C2984 1.523 . S
C2984 C2965 1.368 . S
C2984 C2978 1.368 . S
C2984 C2983 1.523 . S
C2985 C2969 1.385 1_565 S
C2985 C2981 1.444 . S
C2985 C2986 1.552 . S
C2986 C2970 1.368 . S
C2986 C2982 1.368 . S
C2986 C2985 1.552 . S
H2987 C2962 0.950 . S
H2988 C2964 0.950 . S
H2989 C2965 0.949 . S
H2990 C2967 0.950 . S
H2991 C2969 0.950 . S
C2992 C2993 1.349 . S
C2992 C2994 1.327 . S
C2992 H3017 0.950 . S
C2993 C2992 1.349 . S
C2993 C3009 1.349 . S
C2994 C2992 1.327 . S
C2994 C3013 1.429 . S
C2994 H3018 0.950 . S
C2995 C3012 1.574 . S
C2995 C3014 1.368 . S
C2995 H3019 0.949 . S
H2996 C3000 0.949 . S
C2997 C2998 1.349 . S
C2997 C2999 1.327 . S
C2997 H3020 0.950 . S
C2998 C2997 1.349 . S
C2998 C3010 1.349 . S
C2999 C2997 1.327 . S
C2999 C3015 1.429 . S
C2999 H3021 0.950 . S
C3000 H2996 0.949 . S
C3000 C3008 1.574 . S
C3000 C3016 1.368 . S
H3001 C3009 0.950 . S
H3002 C3007 0.950 . S
H3003 C3008 0.949 . S
H3004 C3010 0.950 . S
H3005 C3011 0.950 . S
H3006 C3012 0.949 . S
C3007 H3002 0.950 . S
C3007 C3009 1.327 . S
C3007 C3013 1.429 . S
C3008 C3000 1.574 . S
C3008 H3003 0.949 . S
C3008 C3014 1.368 . S
C3009 C2993 1.349 . S
C3009 H3001 0.950 . S
C3009 C3007 1.327 . S
C3010 C2998 1.349 . S
C3010 H3004 0.950 . S
C3010 C3011 1.327 . S
C3011 H3005 0.950 . S
C3011 C3010 1.327 . S
C3011 C3015 1.429 . S
C3012 C2995 1.574 . S
C3012 H3006 0.949 . S
C3012 C3016 1.368 . S
C3013 C2994 1.429 . S
C3013 C3007 1.429 . S
C3013 C3014 1.523 . S
C3014 C2995 1.368 . S
C3014 C3008 1.368 . S
C3014 C3013 1.523 . S
C3015 C2999 1.429 . S
C3015 C3011 1.429 . S
C3015 C3016 1.523 . S
C3016 C3000 1.368 . S
C3016 C3012 1.368 . S
C3016 C3015 1.523 . S
H3017 C2992 0.950 . S
H3018 C2994 0.950 . S
H3019 C2995 0.949 . S
H3020 C2997 0.950 . S
H3021 C2999 0.950 . S
C3022 C3023 1.349 . S
C3022 C3024 1.327 . S
C3022 H3047 0.950 . S
C3023 C3022 1.349 . S
C3023 C3039 1.349 1_554 S
C3024 C3022 1.327 . S
C3024 C3043 1.429 . S
C3024 H3048 0.950 . S
C3025 C3042 1.574 . S
C3025 C3044 1.368 . S
C3025 H3049 0.949 . S
H3026 C3030 0.949 . S
C3027 C3028 1.349 . S
C3027 C3029 1.327 . S
C3027 H3050 0.950 . S
C3028 C3027 1.349 . S
C3028 C3040 1.349 . S
C3029 C3027 1.327 . S
C3029 C3045 1.429 . S
C3029 H3051 0.950 . S
C3030 H3026 0.949 . S
C3030 C3038 1.574 . S
C3030 C3046 1.368 . S
H3031 C3039 0.950 . S
H3032 C3037 0.942 1_556 S
H3033 C3038 0.949 . S
H3034 C3040 0.950 . S
H3035 C3041 0.950 . S
H3036 C3042 0.949 . S
C3037 H3032 0.942 1_554 S
C3037 C3039 1.327 1_554 S
C3037 C3043 1.429 . S
C3038 C3030 1.574 . S
C3038 H3033 0.949 . S
C3038 C3044 1.368 . S
C3039 C3023 1.349 1_556 S
C3039 H3031 0.950 . S
C3039 C3037 1.327 1_556 S
C3040 C3028 1.349 . S
C3040 H3034 0.950 . S
C3040 C3041 1.327 . S
C3041 H3035 0.950 . S
C3041 C3040 1.327 . S
C3041 C3045 1.429 . S
C3042 C3025 1.574 . S
C3042 H3036 0.949 . S
C3042 C3046 1.368 . S
C3043 C3024 1.429 . S
C3043 C3037 1.429 . S
C3043 C3044 1.523 . S
C3044 C3025 1.368 . S
C3044 C3038 1.368 . S
C3044 C3043 1.523 . S
C3045 C3029 1.429 . S
C3045 C3041 1.429 . S
C3045 C3046 1.523 . S
C3046 C3030 1.368 . S
C3046 C3042 1.368 . S
C3046 C3045 1.523 . S
H3047 C3022 0.950 . S
H3048 C3024 0.950 . S
H3049 C3025 0.949 . S
H3050 C3027 0.950 . S
H3051 C3029 0.950 . S
C3052 C3053 1.349 . S
C3052 C3054 1.327 . S
C3052 H3077 0.950 . S
C3053 C3052 1.349 . S
C3053 C3069 1.349 . S
C3054 C3052 1.327 . S
C3054 C3073 1.429 . S
C3054 H3078 0.950 . S
C3055 C3072 1.574 . S
C3055 C3074 1.368 . S
C3055 H3079 0.949 . S
H3056 C3060 0.949 . S
C3057 C3058 1.349 . S
C3057 C3059 1.327 . S
C3057 H3080 0.950 . S
C3058 C3057 1.349 . S
C3058 C3070 1.349 . S
C3059 C3057 1.327 . S
C3059 C3075 1.429 . S
C3059 H3081 0.950 . S
C3060 H3056 0.949 . S
C3060 C3068 1.574 . S
C3060 C3076 1.368 . S
H3061 C3069 0.950 . S
H3062 C3067 0.950 . S
H3063 C3068 0.949 . S
H3064 C3070 0.950 . S
H3065 C3071 0.950 . S
H3066 C3072 0.949 . S
C3067 H3062 0.950 . S
C3067 C3069 1.327 . S
C3067 C3073 1.429 . S
C3068 C3060 1.574 . S
C3068 H3063 0.949 . S
C3068 C3074 1.368 . S
C3069 C3053 1.349 . S
C3069 H3061 0.950 . S
C3069 C3067 1.327 . S
C3070 C3058 1.349 . S
C3070 H3064 0.950 . S
C3070 C3071 1.327 . S
C3071 H3065 0.950 . S
C3071 C3070 1.327 . S
C3071 C3075 1.429 . S
C3072 C3055 1.574 . S
C3072 H3066 0.949 . S
C3072 C3076 1.368 . S
C3073 C3054 1.429 . S
C3073 C3067 1.429 . S
C3073 C3074 1.523 . S
C3074 C3055 1.368 . S
C3074 C3068 1.368 . S
C3074 C3073 1.523 . S
C3075 C3059 1.429 . S
C3075 C3071 1.429 . S
C3075 C3076 1.523 . S
C3076 C3060 1.368 . S
C3076 C3072 1.368 . S
C3076 C3075 1.523 . S
H3077 C3052 0.950 . S
H3078 C3054 0.950 . S
H3079 C3055 0.949 . S
H3080 C3057 0.950 . S
H3081 C3059 0.950 . S
C3082 C3083 1.349 . S
C3082 C3084 1.327 . S
C3082 H3107 0.950 . S
C3083 C3082 1.349 . S
C3083 C3099 1.349 . S
C3084 C3082 1.327 . S
C3084 C3103 1.429 . S
C3084 H3108 0.950 . S
C3085 C3102 1.574 . S
C3085 C3104 1.368 1_565 S
C3085 H3109 0.949 . S
H3086 C3090 0.949 . S
C3087 C3088 1.349 . S
C3087 C3089 1.327 . S
C3087 H3110 0.950 . S
C3088 C3087 1.349 . S
C3088 C3100 1.349 . S
C3089 C3087 1.327 . S
C3089 C3105 1.429 . S
C3089 H3111 0.950 . S
C3090 H3086 0.949 . S
C3090 C3098 1.574 1_565 S
C3090 C3106 1.368 . S
H3091 C3099 0.950 . S
H3092 C3097 0.950 . S
H3093 C3098 0.949 . S
H3094 C3100 0.950 . S
H3095 C3101 0.950 . S
H3096 C3102 0.949 . S
C3097 H3092 0.950 . S
C3097 C3099 1.327 . S
C3097 C3103 1.429 . S
C3098 C3090 1.574 1_545 S
C3098 H3093 0.949 . S
C3098 C3104 1.368 . S
C3099 C3083 1.349 . S
C3099 H3091 0.950 . S
C3099 C3097 1.327 . S
C3100 C3088 1.349 . S
C3100 H3094 0.950 . S
C3100 C3101 1.327 . S
C3101 H3095 0.950 . S
C3101 C3100 1.327 . S
C3101 C3105 1.429 . S
C3102 C3085 1.574 . S
C3102 H3096 0.949 . S
C3102 C3106 1.368 . S
C3103 C3084 1.429 . S
C3103 C3097 1.429 . S
C3103 C3104 1.523 . S
C3104 C3085 1.368 1_545 S
C3104 C3098 1.368 . S
C3104 C3103 1.523 . S
C3105 C3089 1.429 . S
C3105 C3101 1.429 . S
C3105 C3106 1.523 . S
C3106 C3090 1.368 . S
C3106 C3102 1.368 . S
C3106 C3105 1.523 . S
H3107 C3082 0.950 . S
H3108 C3084 0.950 . S
H3109 C3085 0.949 . S
H3110 C3087 0.950 . S
H3111 C3089 0.950 . S
C3112 C3113 1.349 . S
C3112 C3114 1.327 . S
C3112 H3137 0.950 . S
C3113 C3112 1.349 . S
C3113 C3129 1.349 . S
C3114 C3112 1.327 . S
C3114 C3133 1.429 . S
C3114 H3138 0.950 . S
C3115 C3132 1.574 . S
C3115 C3134 1.368 . S
C3115 H3139 0.949 . S
H3116 C3120 0.949 . S
C3117 C3118 1.349 . S
C3117 C3119 1.327 . S
C3117 H3140 0.950 . S
C3118 C3117 1.349 . S
C3118 C3130 1.349 . S
C3119 C3117 1.327 . S
C3119 C3135 1.429 . S
C3119 H3141 0.950 . S
C3120 H3116 0.949 . S
C3120 C3128 1.574 . S
C3120 C3136 1.368 . S
H3121 C3129 0.950 . S
H3122 C3127 0.950 . S
H3123 C3128 0.949 . S
H3124 C3130 0.950 . S
H3125 C3131 0.950 . S
H3126 C3132 0.949 . S
C3127 H3122 0.950 . S
C3127 C3129 1.327 . S
C3127 C3133 1.429 . S
C3128 C3120 1.574 . S
C3128 H3123 0.949 . S
C3128 C3134 1.368 . S
C3129 C3113 1.349 . S
C3129 H3121 0.950 . S
C3129 C3127 1.327 . S
C3130 C3118 1.349 . S
C3130 H3124 0.950 . S
C3130 C3131 1.327 . S
C3131 H3125 0.950 . S
C3131 C3130 1.327 . S
C3131 C3135 1.429 . S
C3132 C3115 1.574 . S
C3132 H3126 0.949 . S
C3132 C3136 1.368 . S
C3133 C3114 1.429 . S
C3133 C3127 1.429 . S
C3133 C3134 1.523 . S
C3134 C3115 1.368 . S
C3134 C3128 1.368 . S
C3134 C3133 1.523 . S
C3135 C3119 1.429 . S
C3135 C3131 1.429 . S
C3135 C3136 1.523 . S
C3136 C3120 1.368 . S
C3136 C3132 1.368 . S
C3136 C3135 1.523 . S
H3137 C3112 0.950 . S
H3138 C3114 0.950 . S
H3139 C3115 0.949 . S
H3140 C3117 0.950 . S
H3141 C3119 0.950 . S
C3142 C3143 1.349 . S
C3142 C3144 1.327 . S
C3142 H3167 0.950 . S
C3143 C3142 1.349 . S
C3143 C3159 1.349 . S
C3144 C3142 1.327 . S
C3144 C3163 1.429 . S
C3144 H3168 0.950 . S
C3145 C3162 1.574 . S
C3145 C3164 1.368 . S
C3145 H3169 0.949 . S
H3146 C3150 0.949 . S
C3147 C3148 1.349 . S
C3147 C3149 1.327 . S
C3147 H3170 0.950 . S
C3148 C3147 1.349 . S
C3148 C3160 1.349 . S
C3149 C3147 1.327 . S
C3149 C3165 1.429 . S
C3149 H3171 0.950 . S
C3150 H3146 0.949 . S
C3150 C3158 1.574 . S
C3150 C3166 1.368 . S
H3151 C3159 0.950 . S
H3152 C3157 0.950 . S
H3153 C3158 0.949 . S
H3154 C3160 0.950 . S
H3155 C3161 0.950 . S
H3156 C3162 0.949 . S
C3157 H3152 0.950 . S
C3157 C3159 1.327 . S
C3157 C3163 1.429 . S
C3158 C3150 1.574 . S
C3158 H3153 0.949 . S
C3158 C3164 1.368 . S
C3159 C3143 1.349 . S
C3159 H3151 0.950 . S
C3159 C3157 1.327 . S
C3160 C3148 1.349 . S
C3160 H3154 0.950 . S
C3160 C3161 1.327 . S
C3161 H3155 0.950 . S
C3161 C3160 1.327 . S
C3161 C3165 1.429 . S
C3162 C3145 1.574 . S
C3162 H3156 0.949 . S
C3162 C3166 1.368 . S
C3163 C3144 1.429 . S
C3163 C3157 1.429 . S
C3163 C3164 1.523 . S
C3164 C3145 1.368 . S
C3164 C3158 1.368 . S
C3164 C3163 1.523 . S
C3165 C3149 1.429 . S
C3165 C3161 1.429 . S
C3165 C3166 1.523 . S
C3166 C3150 1.368 . S
C3166 C3162 1.368 . S
C3166 C3165 1.523 . S
H3167 C3142 0.950 . S
H3168 C3144 0.950 . S
H3169 C3145 0.949 . S
H3170 C3147 0.950 . S
H3171 C3149 0.950 . S
C3172 C3173 1.349 . S
C3172 C3174 1.327 . S
C3172 H3197 0.950 . S
C3173 C3172 1.349 . S
C3173 C3189 1.349 1_455 S
C3174 C3172 1.327 . S
C3174 C3193 1.429 . S
C3174 H3198 0.950 . S
C3175 C3192 1.574 . S
C3175 C3194 1.368 1_655 S
C3175 H3199 0.949 . S
H3176 C3180 0.949 . S
C3177 C3178 1.349 1_655 S
C3177 C3179 1.327 . S
C3177 H3200 0.950 . S
C3178 C3177 1.349 1_455 S
C3178 C3190 1.349 . S
C3179 C3177 1.327 . S
C3179 C3195 1.429 1_655 S
C3179 H3201 0.950 . S
C3180 H3176 0.949 . S
C3180 C3188 1.574 . S
C3180 C3196 1.368 . S
H3181 C3189 0.950 . S
H3182 C3187 0.950 . S
H3183 C3188 0.949 . S
H3184 C3190 0.950 . S
H3185 C3191 0.950 . S
H3186 C3192 0.949 . S
C3187 H3182 0.950 . S
C3187 C3189 1.327 . S
C3187 C3193 1.429 1_655 S
C3188 C3180 1.574 . S
C3188 H3183 0.949 . S
C3188 C3194 1.368 . S
C3189 C3173 1.349 1_655 S
C3189 H3181 0.950 . S
C3189 C3187 1.327 . S
C3190 C3178 1.349 . S
C3190 H3184 0.950 . S
C3190 C3191 1.327 . S
C3191 H3185 0.950 . S
C3191 C3190 1.327 . S
C3191 C3195 1.429 . S
C3192 C3175 1.574 . S
C3192 H3186 0.949 . S
C3192 C3196 1.368 1_655 S
C3193 C3174 1.429 . S
C3193 C3187 1.429 1_455 S
C3193 C3194 1.523 . S
C3194 C3175 1.368 1_455 S
C3194 C3188 1.368 . S
C3194 C3193 1.523 . S
C3195 C3179 1.429 1_455 S
C3195 C3191 1.429 . S
C3195 C3196 1.523 . S
C3196 C3180 1.368 . S
C3196 C3192 1.368 1_455 S
C3196 C3195 1.523 . S
H3197 C3172 0.950 . S
H3198 C3174 0.950 . S
H3199 C3175 0.949 . S
H3200 C3177 0.950 . S
H3201 C3179 0.950 . S
C3202 C3203 1.349 . S
C3202 C3204 1.327 . S
C3202 H3227 0.950 . S
C3203 C3202 1.349 . S
C3203 C3219 1.349 . S
C3204 C3202 1.327 . S
C3204 C3223 1.429 . S
C3204 H3228 0.950 . S
C3205 C3222 1.574 . S
C3205 C3224 1.368 . S
C3205 H3229 0.949 . S
H3206 C3210 0.949 . S
C3207 C3208 1.349 . S
C3207 C3209 1.327 . S
C3207 H3230 0.950 . S
C3208 C3207 1.349 . S
C3208 C3220 1.349 . S
C3209 C3207 1.327 . S
C3209 C3225 1.429 . S
C3209 H3231 0.950 . S
C3210 H3206 0.949 . S
C3210 C3218 1.574 . S
C3210 C3226 1.368 . S
H3211 C3219 0.950 . S
H3212 C3217 0.950 . S
H3213 C3218 0.949 . S
H3214 C3220 0.950 . S
H3215 C3221 0.950 . S
H3216 C3222 0.949 . S
C3217 H3212 0.950 . S
C3217 C3219 1.327 . S
C3217 C3223 1.429 . S
C3218 C3210 1.574 . S
C3218 H3213 0.949 . S
C3218 C3224 1.368 . S
C3219 C3203 1.349 . S
C3219 H3211 0.950 . S
C3219 C3217 1.327 . S
C3220 C3208 1.349 . S
C3220 H3214 0.950 . S
C3220 C3221 1.327 . S
C3221 H3215 0.950 . S
C3221 C3220 1.327 . S
C3221 C3225 1.429 . S
C3222 C3205 1.574 . S
C3222 H3216 0.949 . S
C3222 C3226 1.368 . S
C3223 C3204 1.429 . S
C3223 C3217 1.429 . S
C3223 C3224 1.523 . S
C3224 C3205 1.368 . S
C3224 C3218 1.368 . S
C3224 C3223 1.523 . S
C3225 C3209 1.429 . S
C3225 C3221 1.429 . S
C3225 C3226 1.523 . S
C3226 C3210 1.368 . S
C3226 C3222 1.368 . S
C3226 C3225 1.523 . S
H3227 C3202 0.950 . S
H3228 C3204 0.950 . S
H3229 C3205 0.949 . S
H3230 C3207 0.950 . S
H3231 C3209 0.950 . S
C3232 C3233 1.349 . S
C3232 C3234 1.327 . S
C3232 H3257 0.950 . S
C3233 C3232 1.349 . S
C3233 C3249 1.349 . S
C3234 C3232 1.327 . S
C3234 C3253 1.429 . S
C3234 H3258 0.950 1_556 S
C3235 C3252 1.574 . S
C3235 C3254 1.368 . S
C3235 H3259 0.949 . S
H3236 C3240 0.949 . S
C3237 C3238 1.299 1_556 S
C3237 C3239 1.327 . S
C3237 H3260 0.950 . S
C3238 C3237 1.299 1_554 S
C3238 C3250 1.382 . S
C3239 C3237 1.327 . S
C3239 C3255 1.429 . S
C3239 H3261 0.950 . S
C3240 H3236 0.949 . S
C3240 C3248 1.573 . S
C3240 C3256 1.368 1_554 S
H3241 C3249 0.950 . S
H3242 C3247 0.950 . S
H3243 C3248 0.947 . S
H3244 C3250 0.950 . S
H3245 C3251 0.950 . S
H3246 C3252 0.949 . S
C3247 H3242 0.950 . S
C3247 C3249 1.327 . S
C3247 C3253 1.429 . S
C3248 C3240 1.573 . S
C3248 H3243 0.947 . S
C3248 C3254 1.371 1_554 S
C3249 C3233 1.349 . S
C3249 H3241 0.950 . S
C3249 C3247 1.327 . S
C3250 C3238 1.382 . S
C3250 H3244 0.950 . S
C3250 C3251 1.327 . S
C3251 H3245 0.950 . S
C3251 C3250 1.327 . S
C3251 C3255 1.429 1_554 S
C3252 C3235 1.574 . S
C3252 H3246 0.949 . S
C3252 C3256 1.368 . S
C3253 C3234 1.429 . S
C3253 C3247 1.429 . S
C3253 C3254 1.523 . S
C3254 C3235 1.368 . S
C3254 C3248 1.371 1_556 S
C3254 C3253 1.523 . S
C3255 C3239 1.429 . S
C3255 C3251 1.429 1_556 S
C3255 C3256 1.523 . S
C3256 C3240 1.368 1_556 S
C3256 C3252 1.368 . S
C3256 C3255 1.523 . S
H3257 C3232 0.950 . S
H3258 C3234 0.950 1_554 S
H3259 C3235 0.949 . S
H3260 C3237 0.950 . S
H3261 C3239 0.950 . S
C3262 C3263 1.349 . S
C3262 C3264 1.327 . S
C3262 H3287 0.950 . S
C3263 C3262 1.349 . S
C3263 C3279 1.349 . S
C3264 C3262 1.327 . S
C3264 C3283 1.429 . S
C3264 H3288 0.950 . S
C3265 C3282 1.574 . S
C3265 C3284 1.368 . S
C3265 H3289 0.949 . S
H3266 C3270 0.949 . S
C3267 C3268 1.349 . S
C3267 C3269 1.327 . S
C3267 H3290 0.950 . S
C3268 C3267 1.349 . S
C3268 C3280 1.349 . S
C3269 C3267 1.327 . S
C3269 C3285 1.429 . S
C3269 H3291 0.950 . S
C3270 H3266 0.949 . S
C3270 C3278 1.574 . S
C3270 C3286 1.368 . S
H3271 C3279 0.950 . S
H3272 C3277 0.950 . S
H3273 C3278 0.949 . S
H3274 C3280 0.950 . S
H3275 C3281 0.950 . S
H3276 C3282 0.949 . S
C3277 H3272 0.950 . S
C3277 C3279 1.327 . S
C3277 C3283 1.429 . S
C3278 C3270 1.574 . S
C3278 H3273 0.949 . S
C3278 C3284 1.368 . S
C3279 C3263 1.349 . S
C3279 H3271 0.950 . S
C3279 C3277 1.327 . S
C3280 C3268 1.349 . S
C3280 H3274 0.950 . S
C3280 C3281 1.327 . S
C3281 H3275 0.950 . S
C3281 C3280 1.327 . S
C3281 C3285 1.429 . S
C3282 C3265 1.574 . S
C3282 H3276 0.949 . S
C3282 C3286 1.368 . S
C3283 C3264 1.429 . S
C3283 C3277 1.429 . S
C3283 C3284 1.523 . S
C3284 C3265 1.368 . S
C3284 C3278 1.368 . S
C3284 C3283 1.523 . S
C3285 C3269 1.429 . S
C3285 C3281 1.429 . S
C3285 C3286 1.523 . S
C3286 C3270 1.368 . S
C3286 C3282 1.368 . S
C3286 C3285 1.523 . S
H3287 C3262 0.950 . S
H3288 C3264 0.950 . S
H3289 C3265 0.949 . S
H3290 C3267 0.950 . S
H3291 C3269 0.950 . S
C3292 C3293 1.349 . S
C3292 C3294 1.327 . S
C3292 H3317 0.950 . S
C3293 C3292 1.349 . S
C3293 C3309 1.349 . S
C3294 C3292 1.327 . S
C3294 C3313 1.429 . S
C3294 H3318 0.950 . S
C3295 C3312 1.574 . S
C3295 C3314 1.368 . S
C3295 H3319 0.949 . S
H3296 C3300 0.949 . S
C3297 C3298 1.349 . S
C3297 C3299 1.327 . S
C3297 H3320 0.950 1_455 S
C3298 C3297 1.349 . S
C3298 C3310 1.349 . S
C3299 C3297 1.327 . S
C3299 C3315 1.429 . S
C3299 H3321 0.950 1_455 S
C3300 H3296 0.949 . S
C3300 C3308 1.574 . S
C3300 C3316 1.368 . S
H3301 C3309 0.950 . S
H3302 C3307 0.950 . S
H3303 C3308 0.949 . S
H3304 C3310 0.950 . S
H3305 C3311 0.950 . S
H3306 C3312 0.949 . S
C3307 H3302 0.950 . S
C3307 C3309 1.327 . S
C3307 C3313 1.429 . S
C3308 C3300 1.574 . S
C3308 H3303 0.949 . S
C3308 C3314 1.368 . S
C3309 C3293 1.349 . S
C3309 H3301 0.950 . S
C3309 C3307 1.327 . S
C3310 C3298 1.349 . S
C3310 H3304 0.950 . S
C3310 C3311 1.327 . S
C3311 H3305 0.950 . S
C3311 C3310 1.327 . S
C3311 C3315 1.429 . S
C3312 C3295 1.574 . S
C3312 H3306 0.949 . S
C3312 C3316 1.368 . S
C3313 C3294 1.429 . S
C3313 C3307 1.429 . S
C3313 C3314 1.523 . S
C3314 C3295 1.368 . S
C3314 C3308 1.368 . S
C3314 C3313 1.523 . S
C3315 C3299 1.429 . S
C3315 C3311 1.429 . S
C3315 C3316 1.523 . S
C3316 C3300 1.368 . S
C3316 C3312 1.368 . S
C3316 C3315 1.523 . S
H3317 C3292 0.950 . S
H3318 C3294 0.950 . S
H3319 C3295 0.949 . S
H3320 C3297 0.950 1_655 S
H3321 C3299 0.950 1_655 S
C3322 C3323 1.349 . S
C3322 C3324 1.327 . S
C3322 H3347 0.950 . S
C3323 C3322 1.349 . S
C3323 C3339 1.349 . S
C3324 C3322 1.327 . S
C3324 C3343 1.429 . S
C3324 H3348 0.950 . S
C3325 C3342 1.574 . S
C3325 C3344 1.368 . S
C3325 H3349 0.949 . S
H3326 C3330 0.949 . S
C3327 C3328 1.349 . S
C3327 C3329 1.327 . S
C3327 H3350 0.950 . S
C3328 C3327 1.349 . S
C3328 C3340 1.349 . S
C3329 C3327 1.327 . S
C3329 C3345 1.429 . S
C3329 H3351 0.950 . S
C3330 H3326 0.949 . S
C3330 C3338 1.574 . S
C3330 C3346 1.368 . S
H3331 C3339 0.950 . S
H3332 C3337 0.950 . S
H3333 C3338 0.949 . S
H3334 C3340 0.950 . S
H3335 C3341 0.950 . S
H3336 C3342 0.949 . S
C3337 H3332 0.950 . S
C3337 C3339 1.327 . S
C3337 C3343 1.429 . S
C3338 C3330 1.574 . S
C3338 H3333 0.949 . S
C3338 C3344 1.368 . S
C3339 C3323 1.349 . S
C3339 H3331 0.950 . S
C3339 C3337 1.327 . S
C3340 C3328 1.349 . S
C3340 H3334 0.950 . S
C3340 C3341 1.327 . S
C3341 H3335 0.950 . S
C3341 C3340 1.327 . S
C3341 C3345 1.429 . S
C3342 C3325 1.574 . S
C3342 H3336 0.949 . S
C3342 C3346 1.368 . S
C3343 C3324 1.429 . S
C3343 C3337 1.429 . S
C3343 C3344 1.523 . S
C3344 C3325 1.368 . S
C3344 C3338 1.368 . S
C3344 C3343 1.523 . S
C3345 C3329 1.429 . S
C3345 C3341 1.429 . S
C3345 C3346 1.523 . S
C3346 C3330 1.368 . S
C3346 C3342 1.368 . S
C3346 C3345 1.523 . S
H3347 C3322 0.950 . S
H3348 C3324 0.950 . S
H3349 C3325 0.949 . S
H3350 C3327 0.950 . S
H3351 C3329 0.950 . S
C3352 C3353 1.349 . S
C3352 C3354 1.327 . S
C3352 H3377 0.950 . S
C3353 C3352 1.349 . S
C3353 C3369 1.349 . S
C3354 C3352 1.327 . S
C3354 C3373 1.429 . S
C3354 H3378 0.950 . S
C3355 C3372 1.574 . S
C3355 C3374 1.368 . S
C3355 H3379 0.949 . S
H3356 C3360 0.949 . S
C3357 C3358 1.349 . S
C3357 C3359 1.327 . S
C3357 H3380 0.950 . S
C3358 C3357 1.349 . S
C3358 C3370 1.349 . S
C3359 C3357 1.327 . S
C3359 C3375 1.429 . S
C3359 H3381 0.950 . S
C3360 H3356 0.949 . S
C3360 C3368 1.574 . S
C3360 C3376 1.368 . S
H3361 C3369 0.950 . S
H3362 C3367 0.950 . S
H3363 C3368 0.949 . S
H3364 C3370 0.950 . S
H3365 C3371 0.950 . S
H3366 C3372 0.949 . S
C3367 H3362 0.950 . S
C3367 C3369 1.327 . S
C3367 C3373 1.429 . S
C3368 C3360 1.574 . S
C3368 H3363 0.949 . S
C3368 C3374 1.368 . S
C3369 C3353 1.349 . S
C3369 H3361 0.950 . S
C3369 C3367 1.327 . S
C3370 C3358 1.349 . S
C3370 H3364 0.950 . S
C3370 C3371 1.327 . S
C3371 H3365 0.950 . S
C3371 C3370 1.327 . S
C3371 C3375 1.429 . S
C3372 C3355 1.574 . S
C3372 H3366 0.949 . S
C3372 C3376 1.368 . S
C3373 C3354 1.429 . S
C3373 C3367 1.429 . S
C3373 C3374 1.523 . S
C3374 C3355 1.368 . S
C3374 C3368 1.368 . S
C3374 C3373 1.523 . S
C3375 C3359 1.429 . S
C3375 C3371 1.429 . S
C3375 C3376 1.523 . S
C3376 C3360 1.368 . S
C3376 C3372 1.368 . S
C3376 C3375 1.523 . S
H3377 C3352 0.950 . S
H3378 C3354 0.950 . S
H3379 C3355 0.949 . S
H3380 C3357 0.950 . S
H3381 C3359 0.950 . S
C3382 C3383 1.349 . S
C3382 C3384 1.327 . S
C3382 H3407 0.950 . S
C3383 C3382 1.349 . S
C3383 C3399 1.349 . S
C3384 C3382 1.327 . S
C3384 C3403 1.429 . S
C3384 H3408 0.950 . S
C3385 C3402 1.574 . S
C3385 C3404 1.368 . S
C3385 H3409 0.949 . S
H3386 C3390 0.949 . S
C3387 C3388 1.349 . S
C3387 C3389 1.327 . S
C3387 H3410 0.950 . S
C3388 C3387 1.349 . S
C3388 C3400 1.349 . S
C3389 C3387 1.327 . S
C3389 C3405 1.429 . S
C3389 H3411 0.950 . S
C3390 H3386 0.949 . S
C3390 C3398 1.574 . S
C3390 C3406 1.368 . S
H3391 C3399 0.950 . S
H3392 C3397 0.950 . S
H3393 C3398 0.949 . S
H3394 C3400 0.950 . S
H3395 C3401 0.950 . S
H3396 C3402 0.949 . S
C3397 H3392 0.950 . S
C3397 C3399 1.327 . S
C3397 C3403 1.429 . S
C3398 C3390 1.574 . S
C3398 H3393 0.949 . S
C3398 C3404 1.368 . S
C3399 C3383 1.349 . S
C3399 H3391 0.950 . S
C3399 C3397 1.327 . S
C3400 C3388 1.349 . S
C3400 H3394 0.950 . S
C3400 C3401 1.327 . S
C3401 H3395 0.950 . S
C3401 C3400 1.327 . S
C3401 C3405 1.429 . S
C3402 C3385 1.574 . S
C3402 H3396 0.949 . S
C3402 C3406 1.368 . S
C3403 C3384 1.429 . S
C3403 C3397 1.429 . S
C3403 C3404 1.523 . S
C3404 C3385 1.368 . S
C3404 C3398 1.368 . S
C3404 C3403 1.523 . S
C3405 C3389 1.429 . S
C3405 C3401 1.429 . S
C3405 C3406 1.523 . S
C3406 C3390 1.368 . S
C3406 C3402 1.368 . S
C3406 C3405 1.523 . S
H3407 C3382 0.950 . S
H3408 C3384 0.950 . S
H3409 C3385 0.949 . S
H3410 C3387 0.950 . S
H3411 C3389 0.950 . S
C3412 C3413 1.349 . S
C3412 C3414 1.327 . S
C3412 H3437 0.950 . S
C3413 C3412 1.349 . S
C3413 C3429 1.349 . S
C3414 C3412 1.327 . S
C3414 C3433 1.429 . S
C3414 H3438 0.950 . S
C3415 C3432 1.574 . S
C3415 C3434 1.368 . S
C3415 H3439 0.949 . S
H3416 C3420 0.949 . S
C3417 C3418 1.349 . S
C3417 C3419 1.327 . S
C3417 H3440 0.950 . S
C3418 C3417 1.349 . S
C3418 C3430 1.349 1_655 S
C3419 C3417 1.327 . S
C3419 C3435 1.429 . S
C3419 H3441 0.950 . S
C3420 H3416 0.949 . S
C3420 C3428 1.574 . S
C3420 C3436 1.368 . S
H3421 C3429 0.950 . S
H3422 C3427 0.950 . S
H3423 C3428 0.949 . S
H3424 C3430 0.950 . S
H3425 C3431 0.950 1_455 S
H3426 C3432 0.949 . S
C3427 H3422 0.950 . S
C3427 C3429 1.327 . S
C3427 C3433 1.429 . S
C3428 C3420 1.574 . S
C3428 H3423 0.949 . S
C3428 C3434 1.368 . S
C3429 C3413 1.349 . S
C3429 H3421 0.950 . S
C3429 C3427 1.327 . S
C3430 C3418 1.349 1_455 S
C3430 H3424 0.950 . S
C3430 C3431 1.327 1_455 S
C3431 H3425 0.950 1_655 S
C3431 C3430 1.327 1_655 S
C3431 C3435 1.429 . S
C3432 C3415 1.574 . S
C3432 H3426 0.949 . S
C3432 C3436 1.368 . S
C3433 C3414 1.429 . S
C3433 C3427 1.429 . S
C3433 C3434 1.523 . S
C3434 C3415 1.368 . S
C3434 C3428 1.368 . S
C3434 C3433 1.523 . S
C3435 C3419 1.429 . S
C3435 C3431 1.429 . S
C3435 C3436 1.523 . S
C3436 C3420 1.368 . S
C3436 C3432 1.368 . S
C3436 C3435 1.523 . S
H3437 C3412 0.950 . S
H3438 C3414 0.950 . S
H3439 C3415 0.949 . S
H3440 C3417 0.950 . S
H3441 C3419 0.950 . S
C3442 C3443 1.349 . S
C3442 C3444 1.327 . S
C3442 H3467 0.950 . S
C3443 C3442 1.349 . S
C3443 C3459 1.349 . S
C3444 C3442 1.327 . S
C3444 C3463 1.429 . S
C3444 H3468 0.950 . S
C3445 C3462 1.574 . S
C3445 C3464 1.368 . S
C3445 H3469 0.949 . S
H3446 C3450 0.949 . S
C3447 C3448 1.349 . S
C3447 C3449 1.327 . S
C3447 H3470 0.950 . S
C3448 C3447 1.349 . S
C3448 C3460 1.349 . S
C3449 C3447 1.327 . S
C3449 C3465 1.429 . S
C3449 H3471 0.950 . S
C3450 H3446 0.949 . S
C3450 C3458 1.574 . S
C3450 C3466 1.368 . S
H3451 C3459 0.950 . S
H3452 C3457 0.950 . S
H3453 C3458 0.949 . S
H3454 C3460 0.950 . S
H3455 C3461 0.950 . S
H3456 C3462 0.949 . S
C3457 H3452 0.950 . S
C3457 C3459 1.327 . S
C3457 C3463 1.429 . S
C3458 C3450 1.574 . S
C3458 H3453 0.949 . S
C3458 C3464 1.368 . S
C3459 C3443 1.349 . S
C3459 H3451 0.950 . S
C3459 C3457 1.327 . S
C3460 C3448 1.349 . S
C3460 H3454 0.950 . S
C3460 C3461 1.327 . S
C3461 H3455 0.950 . S
C3461 C3460 1.327 . S
C3461 C3465 1.429 . S
C3462 C3445 1.574 . S
C3462 H3456 0.949 . S
C3462 C3466 1.368 . S
C3463 C3444 1.429 . S
C3463 C3457 1.429 . S
C3463 C3464 1.523 . S
C3464 C3445 1.368 . S
C3464 C3458 1.368 . S
C3464 C3463 1.523 . S
C3465 C3449 1.429 . S
C3465 C3461 1.429 . S
C3465 C3466 1.523 . S
C3466 C3450 1.368 . S
C3466 C3462 1.368 . S
C3466 C3465 1.523 . S
H3467 C3442 0.950 . S
H3468 C3444 0.950 . S
H3469 C3445 0.949 . S
H3470 C3447 0.950 . S
H3471 C3449 0.950 . S
C3472 C3473 1.349 . S
C3472 C3474 1.327 . S
C3472 H3497 0.950 . S
C3473 C3472 1.349 . S
C3473 C3489 1.349 . S
C3474 C3472 1.327 . S
C3474 C3493 1.429 . S
C3474 H3498 0.950 . S
C3475 C3492 1.574 . S
C3475 C3494 1.368 . S
C3475 H3499 0.949 . S
H3476 C3480 0.949 . S
C3477 C3478 1.349 . S
C3477 C3479 1.327 . S
C3477 H3500 0.950 . S
C3478 C3477 1.349 . S
C3478 C3490 1.349 . S
C3479 C3477 1.327 . S
C3479 C3495 1.429 . S
C3479 H3501 0.950 . S
C3480 H3476 0.949 . S
C3480 C3488 1.574 . S
C3480 C3496 1.368 . S
H3481 C3489 0.950 . S
H3482 C3487 0.950 . S
H3483 C3488 0.949 . S
H3484 C3490 0.950 . S
H3485 C3491 0.950 . S
H3486 C3492 0.949 . S
C3487 H3482 0.950 . S
C3487 C3489 1.327 . S
C3487 C3493 1.429 . S
C3488 C3480 1.574 . S
C3488 H3483 0.949 . S
C3488 C3494 1.368 . S
C3489 C3473 1.349 . S
C3489 H3481 0.950 . S
C3489 C3487 1.327 . S
C3490 C3478 1.349 . S
C3490 H3484 0.950 . S
C3490 C3491 1.327 . S
C3491 H3485 0.950 . S
C3491 C3490 1.327 . S
C3491 C3495 1.429 . S
C3492 C3475 1.574 . S
C3492 H3486 0.949 . S
C3492 C3496 1.368 . S
C3493 C3474 1.429 . S
C3493 C3487 1.429 . S
C3493 C3494 1.523 . S
C3494 C3475 1.368 . S
C3494 C3488 1.368 . S
C3494 C3493 1.523 . S
C3495 C3479 1.429 . S
C3495 C3491 1.429 . S
C3495 C3496 1.523 . S
C3496 C3480 1.368 . S
C3496 C3492 1.368 . S
C3496 C3495 1.523 . S
H3497 C3472 0.950 . S
H3498 C3474 0.950 . S
H3499 C3475 0.949 . S
H3500 C3477 0.950 . S
H3501 C3479 0.950 . S
C3502 C3503 1.360 . S
C3502 C3504 1.327 . S
C3502 H3527 0.950 . S
C3503 C3502 1.360 . S
C3503 C3519 1.364 . S
C3504 C3502 1.327 . S
C3504 C3523 1.429 . S
C3504 H3528 0.950 . S
C3505 C3522 1.574 . S
C3505 C3524 1.368 . S
C3505 H3529 0.949 . S
H3506 C3510 0.949 . S
C3507 C3508 1.349 . S
C3507 C3509 1.327 . S
C3507 H3530 0.950 . S
C3508 C3507 1.349 . S
C3508 C3520 1.349 . S
C3509 C3507 1.327 . S
C3509 C3525 1.429 . S
C3509 H3531 0.950 . S
C3510 H3506 0.949 . S
C3510 C3518 1.574 . S
C3510 C3526 1.368 . S
H3511 C3519 0.953 . S
H3512 C3517 0.950 . S
H3513 C3518 0.949 . S
H3514 C3520 0.950 . S
H3515 C3521 0.950 . S
H3516 C3522 0.949 . S
C3517 H3512 0.950 . S
C3517 C3519 1.327 . S
C3517 C3523 1.429 . S
C3518 C3510 1.574 . S
C3518 H3513 0.949 . S
C3518 C3524 1.368 . S
C3519 C3503 1.364 . S
C3519 H3511 0.953 . S
C3519 C3517 1.327 . S
C3520 C3508 1.349 . S
C3520 H3514 0.950 . S
C3520 C3521 1.327 . S
C3521 H3515 0.950 . S
C3521 C3520 1.327 . S
C3521 C3525 1.429 . S
C3522 C3505 1.574 . S
C3522 H3516 0.949 . S
C3522 C3526 1.368 . S
C3523 C3504 1.429 . S
C3523 C3517 1.429 . S
C3523 C3524 1.523 . S
C3524 C3505 1.368 . S
C3524 C3518 1.368 . S
C3524 C3523 1.523 . S
C3525 C3509 1.429 . S
C3525 C3521 1.429 . S
C3525 C3526 1.523 . S
C3526 C3510 1.368 . S
C3526 C3522 1.368 . S
C3526 C3525 1.523 . S
H3527 C3502 0.950 . S
H3528 C3504 0.950 . S
H3529 C3505 0.949 . S
H3530 C3507 0.950 . S
H3531 C3509 0.950 . S
C3532 C3533 1.349 . S
C3532 C3534 1.327 . S
C3532 H3557 0.950 . S
C3533 C3532 1.349 . S
C3533 C3549 1.349 . S
C3534 C3532 1.327 . S
C3534 C3553 1.429 . S
C3534 H3558 0.950 . S
C3535 C3552 1.574 . S
C3535 C3554 1.368 . S
C3535 H3559 0.949 . S
H3536 C3540 0.949 . S
C3537 C3538 1.349 . S
C3537 C3539 1.327 . S
C3537 H3560 0.950 . S
C3538 C3537 1.349 . S
C3538 C3550 1.349 . S
C3539 C3537 1.327 . S
C3539 C3555 1.429 . S
C3539 H3561 0.950 . S
C3540 H3536 0.949 . S
C3540 C3548 1.574 . S
C3540 C3556 1.368 . S
H3541 C3549 0.950 . S
H3542 C3547 0.950 . S
H3543 C3548 0.949 . S
H3544 C3550 0.950 . S
H3545 C3551 0.950 . S
H3546 C3552 0.949 . S
C3547 H3542 0.950 . S
C3547 C3549 1.327 . S
C3547 C3553 1.429 . S
C3548 C3540 1.574 . S
C3548 H3543 0.949 . S
C3548 C3554 1.368 . S
C3549 C3533 1.349 . S
C3549 H3541 0.950 . S
C3549 C3547 1.327 . S
C3550 C3538 1.349 . S
C3550 H3544 0.950 . S
C3550 C3551 1.327 . S
C3551 H3545 0.950 . S
C3551 C3550 1.327 . S
C3551 C3555 1.429 . S
C3552 C3535 1.574 . S
C3552 H3546 0.949 . S
C3552 C3556 1.368 . S
C3553 C3534 1.429 . S
C3553 C3547 1.429 . S
C3553 C3554 1.523 . S
C3554 C3535 1.368 . S
C3554 C3548 1.368 . S
C3554 C3553 1.523 . S
C3555 C3539 1.429 . S
C3555 C3551 1.429 . S
C3555 C3556 1.523 . S
C3556 C3540 1.368 . S
C3556 C3552 1.368 . S
C3556 C3555 1.523 . S
H3557 C3532 0.950 . S
H3558 C3534 0.950 . S
H3559 C3535 0.949 . S
H3560 C3537 0.950 . S
H3561 C3539 0.950 . S
C3562 C3563 1.349 . S
C3562 C3564 1.327 . S
C3562 H3587 0.950 . S
C3563 C3562 1.349 . S
C3563 C3579 1.349 . S
C3564 C3562 1.327 . S
C3564 C3583 1.429 . S
C3564 H3588 0.950 . S
C3565 C3582 1.574 . S
C3565 C3584 1.368 . S
C3565 H3589 0.949 . S
H3566 C3570 0.949 . S
C3567 C3568 1.349 . S
C3567 C3569 1.327 . S
C3567 H3590 0.950 . S
C3568 C3567 1.349 . S
C3568 C3580 1.349 . S
C3569 C3567 1.327 . S
C3569 C3585 1.429 . S
C3569 H3591 0.950 . S
C3570 H3566 0.949 . S
C3570 C3578 1.574 . S
C3570 C3586 1.368 . S
H3571 C3579 0.950 . S
H3572 C3577 0.950 . S
H3573 C3578 0.949 . S
H3574 C3580 0.950 . S
H3575 C3581 0.950 . S
H3576 C3582 0.949 . S
C3577 H3572 0.950 . S
C3577 C3579 1.327 . S
C3577 C3583 1.429 . S
C3578 C3570 1.574 . S
C3578 H3573 0.949 . S
C3578 C3584 1.368 . S
C3579 C3563 1.349 . S
C3579 H3571 0.950 . S
C3579 C3577 1.327 . S
C3580 C3568 1.349 . S
C3580 H3574 0.950 . S
C3580 C3581 1.327 . S
C3581 H3575 0.950 . S
C3581 C3580 1.327 . S
C3581 C3585 1.429 . S
C3582 C3565 1.574 . S
C3582 H3576 0.949 . S
C3582 C3586 1.368 . S
C3583 C3564 1.429 . S
C3583 C3577 1.429 . S
C3583 C3584 1.523 . S
C3584 C3565 1.368 . S
C3584 C3578 1.368 . S
C3584 C3583 1.523 . S
C3585 C3569 1.429 . S
C3585 C3581 1.429 . S
C3585 C3586 1.523 . S
C3586 C3570 1.368 . S
C3586 C3582 1.368 . S
C3586 C3585 1.523 . S
H3587 C3562 0.950 . S
H3588 C3564 0.950 . S
H3589 C3565 0.949 . S
H3590 C3567 0.950 . S
H3591 C3569 0.950 . S
C3592 C3593 1.349 . S
C3592 C3594 1.327 . S
C3592 H3617 0.950 . S
C3593 C3592 1.349 . S
C3593 C3609 1.349 . S
C3594 C3592 1.327 . S
C3594 C3613 1.429 . S
C3594 H3618 0.950 . S
C3595 C3612 1.574 . S
C3595 C3614 1.368 . S
C3595 H3619 0.949 . S
H3596 C3600 0.949 . S
C3597 C3598 1.349 . S
C3597 C3599 1.327 . S
C3597 H3620 0.950 . S
C3598 C3597 1.349 . S
C3598 C3610 1.349 . S
C3599 C3597 1.327 . S
C3599 C3615 1.429 . S
C3599 H3621 0.950 . S
C3600 H3596 0.949 . S
C3600 C3608 1.574 . S
C3600 C3616 1.368 . S
H3601 C3609 0.950 . S
H3602 C3607 0.950 . S
H3603 C3608 0.949 . S
H3604 C3610 0.950 . S
H3605 C3611 0.950 . S
H3606 C3612 0.949 . S
C3607 H3602 0.950 . S
C3607 C3609 1.327 . S
C3607 C3613 1.429 . S
C3608 C3600 1.574 . S
C3608 H3603 0.949 . S
C3608 C3614 1.368 . S
C3609 C3593 1.349 . S
C3609 H3601 0.950 . S
C3609 C3607 1.327 . S
C3610 C3598 1.349 . S
C3610 H3604 0.950 . S
C3610 C3611 1.327 . S
C3611 H3605 0.950 . S
C3611 C3610 1.327 . S
C3611 C3615 1.429 . S
C3612 C3595 1.574 . S
C3612 H3606 0.949 . S
C3612 C3616 1.368 . S
C3613 C3594 1.429 . S
C3613 C3607 1.429 . S
C3613 C3614 1.523 . S
C3614 C3595 1.368 . S
C3614 C3608 1.368 . S
C3614 C3613 1.523 . S
C3615 C3599 1.429 . S
C3615 C3611 1.429 . S
C3615 C3616 1.523 . S
C3616 C3600 1.368 . S
C3616 C3612 1.368 . S
C3616 C3615 1.523 . S
H3617 C3592 0.950 . S
H3618 C3594 0.950 . S
H3619 C3595 0.949 . S
H3620 C3597 0.950 . S
H3621 C3599 0.950 . S
C3622 C3623 1.349 . S
C3622 C3624 1.327 . S
C3622 H3647 0.950 . S
C3623 C3622 1.349 . S
C3623 C3639 1.349 . S
C3624 C3622 1.327 . S
C3624 C3643 1.429 . S
C3624 H3648 0.950 . S
C3625 C3642 1.574 . S
C3625 C3644 1.368 1_545 S
C3625 H3649 0.949 . S
H3626 C3630 0.949 . S
C3627 C3628 1.349 . S
C3627 C3629 1.327 . S
C3627 H3650 0.950 . S
C3628 C3627 1.349 . S
C3628 C3640 1.349 . S
C3629 C3627 1.327 . S
C3629 C3645 1.429 . S
C3629 H3651 0.950 . S
C3630 H3626 0.949 . S
C3630 C3638 1.574 . S
C3630 C3646 1.368 1_565 S
H3631 C3639 0.950 . S
H3632 C3637 0.950 1_545 S
H3633 C3638 0.949 . S
H3634 C3640 0.950 . S
H3635 C3641 0.950 . S
H3636 C3642 0.949 . S
C3637 H3632 0.950 1_565 S
C3637 C3639 1.327 . S
C3637 C3643 1.429 . S
C3638 C3630 1.574 . S
C3638 H3633 0.949 . S
C3638 C3644 1.368 . S
C3639 C3623 1.349 . S
C3639 H3631 0.950 . S
C3639 C3637 1.327 . S
C3640 C3628 1.349 . S
C3640 H3634 0.950 . S
C3640 C3641 1.327 . S
C3641 H3635 0.950 . S
C3641 C3640 1.327 . S
C3641 C3645 1.429 . S
C3642 C3625 1.574 . S
C3642 H3636 0.949 . S
C3642 C3646 1.368 . S
C3643 C3624 1.429 . S
C3643 C3637 1.429 . S
C3643 C3644 1.523 . S
C3644 C3625 1.368 1_565 S
C3644 C3638 1.368 . S
C3644 C3643 1.523 . S
C3645 C3629 1.429 . S
C3645 C3641 1.429 . S
C3645 C3646 1.523 . S
C3646 C3630 1.368 1_545 S
C3646 C3642 1.368 . S
C3646 C3645 1.523 . S
H3647 C3622 0.950 . S
H3648 C3624 0.950 . S
H3649 C3625 0.949 . S
H3650 C3627 0.950 . S
H3651 C3629 0.950 . S
C3652 C3653 1.349 . S
C3652 C3654 1.327 . S
C3652 H3677 0.950 . S
C3653 C3652 1.349 . S
C3653 C3669 1.349 . S
C3654 C3652 1.327 . S
C3654 C3673 1.429 . S
C3654 H3678 0.950 . S
C3655 C3672 1.574 . S
C3655 C3674 1.368 . S
C3655 H3679 0.949 . S
H3656 C3660 0.949 . S
C3657 C3658 1.349 . S
C3657 C3659 1.327 . S
C3657 H3680 0.950 . S
C3658 C3657 1.349 . S
C3658 C3670 1.349 . S
C3659 C3657 1.327 . S
C3659 C3675 1.429 . S
C3659 H3681 0.950 . S
C3660 H3656 0.949 . S
C3660 C3668 1.574 . S
C3660 C3676 1.368 . S
H3661 C3669 0.950 . S
H3662 C3667 0.950 . S
H3663 C3668 0.949 . S
H3664 C3670 0.950 . S
H3665 C3671 0.950 . S
H3666 C3672 0.949 . S
C3667 H3662 0.950 . S
C3667 C3669 1.327 . S
C3667 C3673 1.429 . S
C3668 C3660 1.574 . S
C3668 H3663 0.949 . S
C3668 C3674 1.368 . S
C3669 C3653 1.349 . S
C3669 H3661 0.950 . S
C3669 C3667 1.327 . S
C3670 C3658 1.349 . S
C3670 H3664 0.950 . S
C3670 C3671 1.327 . S
C3671 H3665 0.950 . S
C3671 C3670 1.327 . S
C3671 C3675 1.429 . S
C3672 C3655 1.574 . S
C3672 H3666 0.949 . S
C3672 C3676 1.368 . S
C3673 C3654 1.429 . S
C3673 C3667 1.429 . S
C3673 C3674 1.523 . S
C3674 C3655 1.368 . S
C3674 C3668 1.368 . S
C3674 C3673 1.523 . S
C3675 C3659 1.429 . S
C3675 C3671 1.429 . S
C3675 C3676 1.523 . S
C3676 C3660 1.368 . S
C3676 C3672 1.368 . S
C3676 C3675 1.523 . S
H3677 C3652 0.950 . S
H3678 C3654 0.950 . S
H3679 C3655 0.949 . S
H3680 C3657 0.950 . S
H3681 C3659 0.950 . S
C3682 C3683 1.349 . S
C3682 C3684 1.327 . S
C3682 H3707 0.950 . S
C3683 C3682 1.349 . S
C3683 C3699 1.349 . S
C3684 C3682 1.327 . S
C3684 C3703 1.429 . S
C3684 H3708 0.950 . S
C3685 C3702 1.574 . S
C3685 C3704 1.368 . S
C3685 H3709 0.949 1_554 S
H3686 C3690 0.949 . S
C3687 C3688 1.349 . S
C3687 C3689 1.327 . S
C3687 H3710 0.950 1_554 S
C3688 C3687 1.349 . S
C3688 C3700 1.349 . S
C3689 C3687 1.327 . S
C3689 C3705 1.429 . S
C3689 H3711 0.950 1_554 S
C3690 H3686 0.949 . S
C3690 C3698 1.574 . S
C3690 C3706 1.368 . S
H3691 C3699 0.950 . S
H3692 C3697 0.939 1_556 S
H3693 C3698 0.949 . S
H3694 C3700 0.950 . S
H3695 C3701 0.950 . S
H3696 C3702 0.949 1_556 S
C3697 H3692 0.939 1_554 S
C3697 C3699 1.327 . S
C3697 C3703 1.429 . S
C3698 C3690 1.574 . S
C3698 H3693 0.949 . S
C3698 C3704 1.368 . S
C3699 C3683 1.349 . S
C3699 H3691 0.950 . S
C3699 C3697 1.327 . S
C3700 C3688 1.349 . S
C3700 H3694 0.950 . S
C3700 C3701 1.327 . S
C3701 H3695 0.950 . S
C3701 C3700 1.327 . S
C3701 C3705 1.429 . S
C3702 C3685 1.574 . S
C3702 H3696 0.949 1_554 S
C3702 C3706 1.368 . S
C3703 C3684 1.429 . S
C3703 C3697 1.429 . S
C3703 C3704 1.523 . S
C3704 C3685 1.368 . S
C3704 C3698 1.368 . S
C3704 C3703 1.523 . S
C3705 C3689 1.429 . S
C3705 C3701 1.429 . S
C3705 C3706 1.523 . S
C3706 C3690 1.368 . S
C3706 C3702 1.368 . S
C3706 C3705 1.523 . S
H3707 C3682 0.950 . S
H3708 C3684 0.950 . S
H3709 C3685 0.949 1_556 S
H3710 C3687 0.950 1_556 S
H3711 C3689 0.950 1_556 S
C3712 C3713 1.349 . S
C3712 C3714 1.327 . S
C3712 H3737 0.950 . S
C3713 C3712 1.349 . S
C3713 C3729 1.349 . S
C3714 C3712 1.327 . S
C3714 C3733 1.429 . S
C3714 H3738 0.950 . S
C3715 C3732 1.574 . S
C3715 C3734 1.368 . S
C3715 H3739 0.949 . S
H3716 C3720 0.949 . S
C3717 C3718 1.349 . S
C3717 C3719 1.327 . S
C3717 H3740 0.950 . S
C3718 C3717 1.349 . S
C3718 C3730 1.349 . S
C3719 C3717 1.327 . S
C3719 C3735 1.429 . S
C3719 H3741 0.950 . S
C3720 H3716 0.949 . S
C3720 C3728 1.574 . S
C3720 C3736 1.368 . S
H3721 C3729 0.950 . S
H3722 C3727 0.950 . S
H3723 C3728 0.949 . S
H3724 C3730 0.950 . S
H3725 C3731 0.950 . S
H3726 C3732 0.949 . S
C3727 H3722 0.950 . S
C3727 C3729 1.327 . S
C3727 C3733 1.429 . S
C3728 C3720 1.574 . S
C3728 H3723 0.949 . S
C3728 C3734 1.368 . S
C3729 C3713 1.349 . S
C3729 H3721 0.950 . S
C3729 C3727 1.327 . S
C3730 C3718 1.349 . S
C3730 H3724 0.950 . S
C3730 C3731 1.327 . S
C3731 H3725 0.950 . S
C3731 C3730 1.327 . S
C3731 C3735 1.429 . S
C3732 C3715 1.574 . S
C3732 H3726 0.949 . S
C3732 C3736 1.368 . S
C3733 C3714 1.429 . S
C3733 C3727 1.429 . S
C3733 C3734 1.523 . S
C3734 C3715 1.368 . S
C3734 C3728 1.368 . S
C3734 C3733 1.523 . S
C3735 C3719 1.429 . S
C3735 C3731 1.429 . S
C3735 C3736 1.523 . S
C3736 C3720 1.368 . S
C3736 C3732 1.368 . S
C3736 C3735 1.523 . S
H3737 C3712 0.950 . S
H3738 C3714 0.950 . S
H3739 C3715 0.949 . S
H3740 C3717 0.950 . S
H3741 C3719 0.950 . S
C3742 C3743 1.349 . S
C3742 C3744 1.327 . S
C3742 H3767 0.950 . S
C3743 C3742 1.349 . S
C3743 C3759 1.349 . S
C3744 C3742 1.327 . S
C3744 C3763 1.429 . S
C3744 H3768 0.950 . S
C3745 C3762 1.574 . S
C3745 C3764 1.368 . S
C3745 H3769 0.949 . S
H3746 C3750 0.949 . S
C3747 C3748 1.349 . S
C3747 C3749 1.327 . S
C3747 H3770 0.950 . S
C3748 C3747 1.349 . S
C3748 C3760 1.349 . S
C3749 C3747 1.327 . S
C3749 C3765 1.429 . S
C3749 H3771 0.950 . S
C3750 H3746 0.949 . S
C3750 C3758 1.574 . S
C3750 C3766 1.368 . S
H3751 C3759 0.950 . S
H3752 C3757 0.950 . S
H3753 C3758 0.949 . S
H3754 C3760 0.950 . S
H3755 C3761 0.950 . S
H3756 C3762 0.949 . S
C3757 H3752 0.950 . S
C3757 C3759 1.327 . S
C3757 C3763 1.429 . S
C3758 C3750 1.574 . S
C3758 H3753 0.949 . S
C3758 C3764 1.368 . S
C3759 C3743 1.349 . S
C3759 H3751 0.950 . S
C3759 C3757 1.327 . S
C3760 C3748 1.349 . S
C3760 H3754 0.950 . S
C3760 C3761 1.327 . S
C3761 H3755 0.950 . S
C3761 C3760 1.327 . S
C3761 C3765 1.429 . S
C3762 C3745 1.574 . S
C3762 H3756 0.949 . S
C3762 C3766 1.368 . S
C3763 C3744 1.429 . S
C3763 C3757 1.429 . S
C3763 C3764 1.523 . S
C3764 C3745 1.368 . S
C3764 C3758 1.368 . S
C3764 C3763 1.523 . S
C3765 C3749 1.429 . S
C3765 C3761 1.429 . S
C3765 C3766 1.523 . S
C3766 C3750 1.368 . S
C3766 C3762 1.368 . S
C3766 C3765 1.523 . S
H3767 C3742 0.950 . S
H3768 C3744 0.950 . S
H3769 C3745 0.949 . S
H3770 C3747 0.950 . S
H3771 C3749 0.950 . S
C3772 C3773 1.349 1_565 S
C3772 C3774 1.327 . S
C3772 H3797 0.950 . S
C3773 C3772 1.349 1_545 S
C3773 C3789 1.349 . S
C3774 C3772 1.327 . S
C3774 C3793 1.429 . S
C3774 H3798 0.950 . S
C3775 C3792 1.574 . S
C3775 C3794 1.368 . S
C3775 H3799 0.949 . S
H3776 C3780 0.949 . S
C3777 C3778 1.349 . S
C3777 C3779 1.327 . S
C3777 H3800 0.950 . S
C3778 C3777 1.349 . S
C3778 C3790 1.349 . S
C3779 C3777 1.327 . S
C3779 C3795 1.429 . S
C3779 H3801 0.950 . S
C3780 H3776 0.949 . S
C3780 C3788 1.574 . S
C3780 C3796 1.368 . S
H3781 C3789 0.950 . S
H3782 C3787 0.950 . S
H3783 C3788 0.949 . S
H3784 C3790 0.950 . S
H3785 C3791 0.950 . S
H3786 C3792 0.949 . S
C3787 H3782 0.950 . S
C3787 C3789 1.327 1_565 S
C3787 C3793 1.429 . S
C3788 C3780 1.574 . S
C3788 H3783 0.949 . S
C3788 C3794 1.368 . S
C3789 C3773 1.349 . S
C3789 H3781 0.950 . S
C3789 C3787 1.327 1_545 S
C3790 C3778 1.349 . S
C3790 H3784 0.950 . S
C3790 C3791 1.327 . S
C3791 H3785 0.950 . S
C3791 C3790 1.327 . S
C3791 C3795 1.429 . S
C3792 C3775 1.574 . S
C3792 H3786 0.949 . S
C3792 C3796 1.368 . S
C3793 C3774 1.429 . S
C3793 C3787 1.429 . S
C3793 C3794 1.523 . S
C3794 C3775 1.368 . S
C3794 C3788 1.368 . S
C3794 C3793 1.523 . S
C3795 C3779 1.429 . S
C3795 C3791 1.429 . S
C3795 C3796 1.523 . S
C3796 C3780 1.368 . S
C3796 C3792 1.368 . S
C3796 C3795 1.523 . S
H3797 C3772 0.950 . S
H3798 C3774 0.950 . S
H3799 C3775 0.949 . S
H3800 C3777 0.950 . S
H3801 C3779 0.950 . S
C3802 C3803 1.349 . S
C3802 C3804 1.327 . S
C3802 H3827 0.950 . S
C3803 C3802 1.349 . S
C3803 C3819 1.349 . S
C3804 C3802 1.327 . S
C3804 C3823 1.429 . S
C3804 H3828 0.950 . S
C3805 C3822 1.574 . S
C3805 C3824 1.368 . S
C3805 H3829 0.949 . S
H3806 C3810 0.949 . S
C3807 C3808 1.349 . S
C3807 C3809 1.327 . S
C3807 H3830 0.950 . S
C3808 C3807 1.349 . S
C3808 C3820 1.349 . S
C3809 C3807 1.327 . S
C3809 C3825 1.429 . S
C3809 H3831 0.950 . S
C3810 H3806 0.949 . S
C3810 C3818 1.574 . S
C3810 C3826 1.368 . S
H3811 C3819 0.950 . S
H3812 C3817 0.950 . S
H3813 C3818 0.949 . S
H3814 C3820 0.950 . S
H3815 C3821 0.950 . S
H3816 C3822 0.949 . S
C3817 H3812 0.950 . S
C3817 C3819 1.327 . S
C3817 C3823 1.429 . S
C3818 C3810 1.574 . S
C3818 H3813 0.949 . S
C3818 C3824 1.368 . S
C3819 C3803 1.349 . S
C3819 H3811 0.950 . S
C3819 C3817 1.327 . S
C3820 C3808 1.349 . S
C3820 H3814 0.950 . S
C3820 C3821 1.327 . S
C3821 H3815 0.950 . S
C3821 C3820 1.327 . S
C3821 C3825 1.429 . S
C3822 C3805 1.574 . S
C3822 H3816 0.949 . S
C3822 C3826 1.368 . S
C3823 C3804 1.429 . S
C3823 C3817 1.429 . S
C3823 C3824 1.523 . S
C3824 C3805 1.368 . S
C3824 C3818 1.368 . S
C3824 C3823 1.523 . S
C3825 C3809 1.429 . S
C3825 C3821 1.429 . S
C3825 C3826 1.523 . S
C3826 C3810 1.368 . S
C3826 C3822 1.368 . S
C3826 C3825 1.523 . S
H3827 C3802 0.950 . S
H3828 C3804 0.950 . S
H3829 C3805 0.949 . S
H3830 C3807 0.950 . S
H3831 C3809 0.950 . S
C953 C101 1.218 . S
C958 C318 1.175 . S
C983 C57 1.932 . S
C988 C370 1.778 . S
C1013 C70 1.093 . S
C1018 C402 1.101 1_565 S
C1048 C451 2.433 . S
C1043 C82 2.430 . S
C1073 C23 0.849 . S
C1078 C487 0.838 . S
C1108 C518 0.474 . S
C1103 C29 0.372 . S
C1138 C570 0.543 . S
C1133 C49 0.340 . S
C1163 C10 1.251 . S
C1168 C598 1.191 . S
C1198 C330 1.787 . S
C1193 C218 1.941 . S
C1223 C226 1.389 . S
C1228 C371 1.397 . S
C1258 C401 1.763 . S
C1253 C251 1.927 . S
C1288 C438 0.422 . S
C1283 C159 0.302 . S
C1313 C211 1.685 . S
C1318 C482 1.699 . S
C1348 C530 1.950 . S
C1343 C225 2.034 . S
C1378 C571 1.297 . S
C1373 C252 1.294 . S
C1408 C610 1.606 . S
C1403 C166 1.781 . S
C1438 C331 2.203 . S
C1433 C147 2.188 . S
C1463 C263 1.485 . S
C1468 C641 1.385 . S
C1498 C691 2.308 . S
C1493 C309 2.299 . S
C1528 C718 0.873 . S
C1523 C291 0.879 . S
C1553 C108 2.522 . S
C1558 C611 2.524 . S
C1583 C121 0.920 . S
C1588 C407 0.892 . S
C1613 C302 2.427 . S
C1618 C770 2.306 . S
C1648 C798 0.859 . S
C1643 C276 0.872 . S
C1678 C327 1.221 . S
C1673 C55 1.252 . S
C1708 C801 2.017 . S
C1703 C96 2.140 . S
C1733 C88 1.529 . S
C1738 C411 1.532 . S
C1763 C75 2.915 . S
C1768 C762 2.908 . S
C1798 C478 1.048 . S
C1793 C4 1.069 . S
C1823 C44 0.204 . S
C1828 C687 0.334 . S
C1858 C561 0.576 . S
C1853 C31 0.548 . S
C1888 C847 0.795 . S
C1883 C18 0.799 . S
C1918 C321 2.057 . S
C1913 C133 2.183 . S
C1948 C802 1.780 . S
C1943 C296 1.767 . S
C1973 C107 2.325 . S
C1978 C410 2.190 . S
C2003 C264 0.396 . S
C2008 C767 0.452 . S
C2033 C140 2.091 . S
C2038 C491 2.099 . S
C2068 C681 2.146 . S
C2063 C289 2.197 . S
C2093 C114 1.729 . S
C2098 C562 1.735 . S
C2123 C265 1.711 . S
C2128 C841 1.619 . S
C2153 C179 2.515 . S
C2158 C322 2.519 1_655 S
C2183 C161 2.057 . S
C2188 C650 1.962 . S
C2213 C244 2.797 . S
C2218 C522 2.794 . S
C2243 C224 1.252 . S
C2248 C727 1.237 . S
C2278 C842 2.626 . S
C2273 C257 2.618 . S
C2303 C199 1.145 . S
C2308 C398 1.087 1_565 S
C2338 C441 2.610 . S
C2333 C237 2.727 . S
C2368 C367 1.129 . S
C2363 C185 1.157 . S
C2393 C69 1.219 . S
C2398 C878 1.176 . S
C2428 C810 1.778 . S
C2423 C83 1.932 . S
C2453 C94 1.094 . S
C2458 C922 1.103 . S
C2483 C56 2.430 . S
C2488 C771 2.433 . S
C2513 C42 0.863 . S
C2518 C647 0.850 . S
C2548 C678 0.474 . S
C2543 C3 0.371 . S
C2578 C730 0.602 . S
C2573 C16 0.357 . S
C2608 C838 1.195 . S
C2603 C36 1.256 . S
C2638 C890 1.787 . S
C2633 C238 1.941 . S
C2663 C174 1.374 1_556 S
C2668 C811 1.396 . S
C2698 C921 1.763 . S
C2693 C186 1.927 . S
C2728 C758 0.422 . S
C2723 C198 0.303 . S
C2758 C642 1.698 1_556 S
C2753 C239 1.687 . S
C2783 C173 2.032 . S
C2788 C690 1.949 . S
C2818 C731 1.299 . S
C2813 C187 1.296 . S
C2843 C205 1.782 . S
C2848 C850 1.607 . S
C2878 C891 2.201 . S
C2873 C290 2.186 . S
C2903 C122 1.487 . S
C2908 C481 1.390 . S
C2938 C531 2.316 . S
C2933 C134 2.352 . S
C2968 C558 0.871 . S
C2963 C148 0.878 . S
C2998 C851 2.519 . S
C2993 C283 2.517 . S
C3023 C270 0.917 . S
C3028 C927 0.892 . S
C3058 C450 2.304 . S
C3053 C135 2.425 . S
C3088 C358 0.859 . S
C3083 C109 0.871 . S
C3113 C81 1.253 . S
C3118 C887 1.221 . S
C3148 C361 2.016 . S
C3143 C68 2.138 . S
C3173 C62 1.529 . S
C3178 C931 1.532 . S
C3203 C95 2.914 . S
C3208 C442 2.908 . S
C3233 C30 1.068 . S
C3238 C638 1.069 . S
C3268 C527 0.329 . S
C3263 C17 0.204 . S
C3293 C5 0.548 . S
C3298 C721 0.576 . S
C3323 C43 0.792 . S
C3328 C607 0.789 . S
C3358 C881 2.056 . S
C3353 C304 2.182 . S
C3383 C153 1.765 . S
C3388 C362 1.778 . S
C3418 C930 2.190 1_556 S
C3413 C278 2.325 . S
C3443 C127 0.394 . S
C3448 C447 0.458 . S
C3473 C303 2.083 . S
C3478 C651 2.091 . S
C3508 C521 2.143 . S
C3503 C146 2.167 1_556 S
C3533 C277 1.722 . S
C3538 C722 1.728 . S
C3568 C601 1.610 . S
C3563 C120 1.708 . S
C3598 C882 2.518 . S
C3593 C231 2.514 . S
C3628 C490 1.960 . S
C3623 C200 2.056 . S
C3653 C212 2.801 . S
C3658 C682 2.798 . S
C3688 C567 1.238 . S
C3683 C172 1.252 . S
C3713 C192 2.615 . S
C3718 C602 2.623 . S
C3743 C160 1.146 . S
C3748 C918 1.104 . S
C3778 C761 2.612 . S
C3773 C213 2.730 . S
C3808 C807 1.131 . S
C3803 C250 1.159 . S
