# Generated by pormake.
# Topology zzz, (3,6)-cn, num edge types: 1
# Building blocks:
#     Node 0, Type 0, BuildingBlock: WUSLED_clean_sbu_0, # of connection points: 3
#     Node 1, Type 0, BuildingBlock: WUSLED_clean_sbu_0, # of connection points: 3
#     Node 2, Type 0, BuildingBlock: WUSLED_clean_sbu_0, # of connection points: 3
#     Node 3, Type 0, BuildingBlock: WUSLED_clean_sbu_0, # of connection points: 3
#     Node 4, Type 0, BuildingBlock: WUSLED_clean_sbu_0, # of connection points: 3
#     Node 5, Type 0, BuildingBlock: WUSLED_clean_sbu_0, # of connection points: 3
#     Node 6, Type 0, BuildingBlock: WUSLED_clean_sbu_0, # of connection points: 3
#     Node 7, Type 0, BuildingBlock: WUSLED_clean_sbu_0, # of connection points: 3
#     Node 8, Type 1, BuildingBlock: BETFAJ_clean_sbu_0, # of connection points: 6
#     Node 9, Type 1, BuildingBlock: BETFAJ_clean_sbu_0, # of connection points: 6
#     Node 10, Type 1, BuildingBlock: BETFAJ_clean_sbu_0, # of connection points: 6
#     Node 11, Type 1, BuildingBlock: BETFAJ_clean_sbu_0, # of connection points: 6
#     Edge 12, Type (0, 1), BuildingBlock: XIVTED_clean_linker_0, # of connection points: 2
#     Edge 13, Type (0, 1), BuildingBlock: XIVTED_clean_linker_0, # of connection points: 2
#     Edge 14, Type (0, 1), BuildingBlock: XIVTED_clean_linker_0, # of connection points: 2
#     Edge 15, Type (0, 1), BuildingBlock: XIVTED_clean_linker_0, # of connection points: 2
#     Edge 16, Type (0, 1), BuildingBlock: XIVTED_clean_linker_0, # of connection points: 2
#     Edge 17, Type (0, 1), BuildingBlock: XIVTED_clean_linker_0, # of connection points: 2
#     Edge 18, Type (0, 1), BuildingBlock: XIVTED_clean_linker_0, # of connection points: 2
#     Edge 19, Type (0, 1), BuildingBlock: XIVTED_clean_linker_0, # of connection points: 2
#     Edge 20, Type (0, 1), BuildingBlock: XIVTED_clean_linker_0, # of connection points: 2
#     Edge 21, Type (0, 1), BuildingBlock: XIVTED_clean_linker_0, # of connection points: 2
#     Edge 22, Type (0, 1), BuildingBlock: XIVTED_clean_linker_0, # of connection points: 2
#     Edge 23, Type (0, 1), BuildingBlock: XIVTED_clean_linker_0, # of connection points: 2
#     Edge 24, Type (0, 1), BuildingBlock: XIVTED_clean_linker_0, # of connection points: 2
#     Edge 25, Type (0, 1), BuildingBlock: XIVTED_clean_linker_0, # of connection points: 2
#     Edge 26, Type (0, 1), BuildingBlock: XIVTED_clean_linker_0, # of connection points: 2
#     Edge 27, Type (0, 1), BuildingBlock: XIVTED_clean_linker_0, # of connection points: 2
#     Edge 28, Type (0, 1), BuildingBlock: XIVTED_clean_linker_0, # of connection points: 2
#     Edge 29, Type (0, 1), BuildingBlock: XIVTED_clean_linker_0, # of connection points: 2
#     Edge 30, Type (0, 1), BuildingBlock: XIVTED_clean_linker_0, # of connection points: 2
#     Edge 31, Type (0, 1), BuildingBlock: XIVTED_clean_linker_0, # of connection points: 2
#     Edge 32, Type (0, 1), BuildingBlock: XIVTED_clean_linker_0, # of connection points: 2
#     Edge 33, Type (0, 1), BuildingBlock: XIVTED_clean_linker_0, # of connection points: 2
#     Edge 34, Type (0, 1), BuildingBlock: XIVTED_clean_linker_0, # of connection points: 2
#     Edge 35, Type (0, 1), BuildingBlock: XIVTED_clean_linker_0, # of connection points: 2
# Relax obj value: 0.418
# Max RMSD: 0.266
# Mean RMSD: 0.248
data_MOF--net-zzz--node1-WUSLED_clean_sbu_0--node2-BETFAJ_clean_sbu_0--edge1-XIVTED_clean_linker_0
_symmetry_space_group_name_H-M    P1
_symmetry_Int_Tables_number       1
_symmetry_cell_setting            triclinic
loop_
_symmetry_equiv_pos_as_xyz
'x, y, z'
_cell_length_a     64.12707
_cell_length_b     64.215285
_cell_length_c     19.507462
_cell_angle_alpha  90.067361
_cell_angle_beta   89.863515
_cell_angle_gamma 90.014179
loop_
_atom_site_label
_atom_site_type_symbol
_atom_site_fract_x
_atom_site_fract_y
_atom_site_fract_z
_atom_type_partial_charge
C0 C 0.78521 0.53321 0.45008 0.0
C1 C 0.79783 0.51745 0.42223 0.0
C2 C 0.82692 0.5281 0.49523 0.0
C3 C 0.81852 0.515 0.44421 0.0
C4 C 0.81407 0.54369 0.52347 0.0
C5 C 0.79349 0.54625 0.50092 0.0
U6 U 0.73987 0.52453 0.3236 0.0
O7 O 0.70626 0.52013 0.34294 0.0
O8 O 0.71712 0.54756 0.28649 0.0
C9 C 0.70098 0.53645 0.30615 0.0
C10 C 0.76353 0.53652 0.4266 0.0
C11 C 0.68505 0.53287 0.25277 0.0
C12 C 0.65208 0.54245 0.19968 0.0
C13 C 0.66684 0.54495 0.252 0.0
C14 C 0.6735 0.51554 0.14848 0.0
C15 C 0.65529 0.52783 0.1468 0.0
C16 C 0.68823 0.51806 0.20082 0.0
C17 C 0.778 0.49094 0.22269 0.0
C18 C 0.79971 0.46241 0.18287 0.0
C19 C 0.81569 0.49414 0.22497 0.0
C20 C 0.79599 0.50246 0.23801 0.0
C21 C 0.81779 0.47414 0.19622 0.0
C22 C 0.77998 0.47076 0.19602 0.0
C23 C 0.75713 0.49993 0.23256 0.0
O24 O 0.76142 0.54729 0.36978 0.0
O25 O 0.75107 0.52027 0.42937 0.0
O26 O 0.74661 0.49289 0.2856 0.0
O27 O 0.75586 0.52024 0.22515 0.0
H28 H 0.79166 0.50703 0.38365 0.0
H29 H 0.82787 0.50269 0.42181 0.0
H30 H 0.82003 0.55421 0.56216 0.0
H31 H 0.78404 0.55853 0.52308 0.0
H32 H 0.63844 0.55238 0.19973 0.0
H33 H 0.66417 0.55657 0.29136 0.0
H34 H 0.67639 0.50393 0.1093 0.0
H35 H 0.70221 0.50859 0.20038 0.0
H36 H 0.80081 0.44688 0.16147 0.0
H37 H 0.82924 0.50373 0.23498 0.0
H38 H 0.79484 0.51807 0.2588 0.0
H39 H 0.76625 0.46161 0.18428 0.0
C40 C 0.01676 0.78038 0.44885 0.0
C41 C 0.02053 0.79752 0.4057 0.0
C42 C 1.01334 0.82176 0.49957 0.0
C43 C 0.01884 0.81792 0.43072 0.0
C44 C 1.0094 0.80454 0.54241 0.0
C45 C 1.01112 0.78413 0.51733 0.0
U46 U 1.00667 0.73737 0.31622 0.0
O47 O 0.02873 0.71414 0.27621 0.0
O48 O 0.99995 0.70381 0.32661 0.0
C49 C 0.01656 0.69832 0.2912 0.0
C50 C 0.0191 0.75862 0.42401 0.0
C51 C 1.01321 0.68339 0.23468 0.0
C52 C 0.01998 0.64937 0.18418 0.0
C53 C 0.02162 0.66329 0.23924 0.0
C54 C 1.00111 0.67537 0.11942 0.0
C55 C 1.0099 0.65527 0.12312 0.0
C56 C 1.00277 0.68929 0.17462 0.0
C57 C 0.97808 0.78071 0.22988 0.0
C58 C 0.97223 0.8127 0.16719 0.0
C59 C 0.97655 0.81371 0.29059 0.0
C60 C 0.97854 0.79206 0.2914 0.0
C61 C 0.97399 0.8243 0.22819 0.0
C62 C 0.97434 0.79105 0.16806 0.0
C63 C 0.98433 0.75875 0.2291 0.0
O64 O 1.00212 0.74713 0.42395 0.0
O65 O 0.03058 0.75597 0.36875 0.0
O66 O 1.00451 0.75591 0.22195 0.0
O67 O 0.976 0.74704 0.27718 0.0
H68 H 0.02488 0.79521 0.35255 0.0
H69 H 0.02226 0.83068 0.39624 0.0
H70 H 1.00482 0.8068 0.59535 0.0
H71 H 1.0081 0.77122 0.55166 0.0
H72 H 0.02719 0.63419 0.18878 0.0
H73 H 0.02987 0.65849 0.28499 0.0
H74 H 0.99299 0.6804 0.07374 0.0
H75 H 0.99619 0.70476 0.17006 0.0
H76 H 0.97055 0.82042 0.11818 0.0
H77 H 0.9778 0.82222 0.33839 0.0
H78 H 0.98141 0.78428 0.33969 0.0
H79 H 0.97413 0.78253 0.1201 0.0
C80 C 0.75394 0.98968 0.47414 0.0
C81 C 0.74782 1.00675 0.5149 0.0
C82 C 0.71148 0.99503 0.51461 0.0
C83 C 0.72691 1.00939 0.53479 0.0
C84 C 0.71766 0.9779 0.47426 0.0
C85 C 0.73855 0.97521 0.45463 0.0
U86 U 0.79847 0.99567 0.34299 0.0
O87 O 0.83161 1.00415 0.35408 0.0
O88 O 0.82312 0.97353 0.31302 0.0
C89 C 0.83821 0.98694 0.32441 0.0
C90 C 0.77624 0.98687 0.45301 0.0
C91 C 0.85333 0.98953 0.2675 0.0
C92 C 0.88575 0.9792 0.21139 0.0
C93 C 0.87159 0.97751 0.26608 0.0
C94 C 0.86364 1.00517 0.15881 0.0
C95 C 0.88195 0.99299 0.15664 0.0
C96 C 0.84948 1.0034 0.21343 0.0
C97 C 0.75492 0.01912 0.2443 0.0
C98 C 0.72516 0.03435 0.18712 0.0
C99 C 0.72041 0.0158 0.29432 0.0
C100 C 0.74179 1.01209 0.297 0.0
C101 C 0.71184 0.02672 0.23883 0.0
C102 C 0.7466 0.03051 0.1898 0.0
C103 C 0.77709 0.01379 0.24598 0.0
O104 O 0.7799 0.97341 0.40355 0.0
O105 O 0.78759 1.00386 0.44712 0.0
O106 O 0.78808 0.02426 0.29118 0.0
O107 O 0.78083 0.99367 0.24693 0.0
H108 H 0.75922 0.01814 0.53142 0.0
H109 H 0.72281 0.02289 0.5653 0.0
H110 H 0.70638 0.96629 0.45856 0.0
H111 H 0.74259 0.96173 0.42397 0.0
H112 H 0.89944 0.96934 0.21139 0.0
H113 H 0.87482 0.9666 0.30703 0.0
H114 H 0.86026 0.0162 0.11842 0.0
H115 H 0.83545 0.01281 0.21328 0.0
H116 H 0.71892 0.0426 0.14334 0.0
H117 H 0.71055 1.0099 0.33511 0.0
H118 H 0.74808 1.00332 0.33941 0.0
H119 H 0.75658 0.03603 0.14877 0.0
C120 C 0.52971 0.74932 0.45219 0.0
C121 C 0.52604 0.73274 0.40668 0.0
C122 C 0.52465 0.70798 0.50211 0.0
C123 C 0.52348 0.71234 0.43132 0.0
C124 C 0.52795 0.72476 0.54744 0.0
C125 C 0.53044 0.74513 0.52275 0.0
U126 U 0.52228 0.79501 0.32525 0.0
O127 O 0.54637 0.81591 0.28391 0.0
O128 O 0.52026 0.82902 0.34229 0.0
C129 C 0.53644 0.8329 0.30274 0.0
C130 C 0.53389 0.77082 0.42737 0.0
C131 C 0.53335 0.8487 0.24817 0.0
C132 C 0.53261 0.88506 0.2117 0.0
C133 C 0.53492 0.87002 0.26342 0.0
C134 C 0.52715 0.85764 0.12856 0.0
C135 C 0.52871 0.8791 0.14332 0.0
C136 C 0.52932 0.84268 0.18026 0.0
C137 C 0.48498 0.7588 0.23317 0.0
C138 C 0.47053 0.73177 0.1608 0.0
C139 C 0.47494 0.72558 0.2825 0.0
C140 C 0.48284 0.74572 0.29032 0.0
C141 C 0.46905 0.71825 0.21736 0.0
C142 C 0.47846 0.75186 0.16871 0.0
C143 C 0.49541 0.77903 0.23897 0.0
O144 O 0.54424 0.77241 0.36936 0.0
O145 O 0.51847 0.78424 0.43225 0.0
O146 O 0.48988 0.79053 0.29175 0.0
O147 O 0.51568 0.77848 0.22901 0.0
H148 H 0.5254 0.73548 0.35196 0.0
H149 H 0.52062 0.69999 0.39472 0.0
H150 H 0.52922 0.72212 0.60207 0.0
H151 H 0.53337 0.75761 0.55889 0.0
H152 H 0.53366 0.90135 0.22557 0.0
H153 H 0.538 0.87506 0.31545 0.0
H154 H 0.52458 0.85227 0.07664 0.0
H155 H 0.52804 0.82634 0.16693 0.0
H156 H 0.46651 0.72653 0.10973 0.0
H157 H 0.47383 0.71563 0.32715 0.0
H158 H 0.48779 0.75089 0.3406 0.0
H159 H 0.48014 0.76175 0.12405 0.0
C160 C 0.25493 0.51688 0.93662 0.0
C161 C 0.24531 0.49761 0.92298 0.0
C162 C 0.21335 0.51512 0.88655 0.0
C163 C 0.22468 0.49674 0.89914 0.0
C164 C 0.22315 0.53436 0.89894 0.0
C165 C 0.24362 0.53521 0.92389 0.0
U166 U 0.29813 0.5063 0.0705 0.0
O167 O 0.33162 0.49911 0.05866 0.0
O168 O 0.3219 0.52822 0.10786 0.0
C169 C 0.33752 0.51582 0.09255 0.0
C170 C 0.27676 0.51842 0.96238 0.0
C171 C 0.35289 0.51264 0.148 0.0
C172 C 0.38754 0.51903 0.19453 0.0
C173 C 0.37315 0.52058 0.14076 0.0
C174 C 0.36169 0.5012 0.26337 0.0
C175 C 0.38196 0.50955 0.25702 0.0
C176 C 0.34731 0.50274 0.20949 0.0
C177 C 0.25496 0.47851 0.16261 0.0
C178 C 0.22331 0.47229 0.22748 0.0
C179 C 0.22185 0.47491 0.10361 0.0
C180 C 0.2434 0.47785 0.10172 0.0
C181 C 0.21148 0.47261 0.1667 0.0
C182 C 0.24489 0.47528 0.22539 0.0
C183 C 0.27692 0.48487 0.16106 0.0
O184 O 0.27947 0.53009 0.01704 0.0
O185 O 0.28796 0.50125 0.96376 0.0
O186 O 0.28838 0.47611 0.11302 0.0
O187 O 0.2798 0.50508 0.16578 0.0
H188 H 0.25366 0.48316 0.93071 0.0
H189 H 0.21771 0.48167 0.88936 0.0
H190 H 0.21487 0.54882 0.89022 0.0
H191 H 0.25066 0.55029 0.93316 0.0
H192 H 0.40285 0.52588 0.1878 0.0
H193 H 0.37774 0.52838 0.09386 0.0
H194 H 0.35687 0.49351 0.31018 0.0
H195 H 0.33174 0.4965 0.21616 0.0
H196 H 0.21577 0.47088 0.277 0.0
H197 H 0.21323 0.47506 0.05591 0.0
H198 H 0.25101 0.48035 0.05296 0.0
H199 H 0.25356 0.47594 0.27294 0.0
C200 C 0.0399 0.24823 0.94742 0.0
C201 C 0.03877 0.23171 0.99461 0.0
C202 C 0.03345 0.20661 0.90171 0.0
C203 C 0.03546 0.21121 0.97209 0.0
C204 C 0.0344 0.22324 0.85476 0.0
C205 C 0.03758 0.24375 0.87737 0.0
U206 U 0.03041 0.2977 0.05742 0.0
O207 O 0.03188 0.33107 0.03108 0.0
O208 O 0.05429 0.31788 0.1038 0.0
C209 C 0.04658 0.33489 0.07644 0.0
C210 C 0.04459 0.26996 0.96928 0.0
C211 C 0.04281 0.35214 0.12547 0.0
C212 C 0.05688 0.37826 0.2035 0.0
C213 C 0.05986 0.36286 0.15346 0.0
C214 C 0.01959 0.37285 0.19738 0.0
C215 C 0.0367 0.38339 0.22674 0.0
C216 C 0.02261 0.35734 0.14767 0.0
C217 C 0.98854 0.26598 0.14449 0.0
C218 C 0.9689 0.24318 0.2193 0.0
C219 C 0.98835 0.22877 0.12366 0.0
C220 C 0.99428 0.24883 0.10427 0.0
C221 C 0.97638 0.22566 0.18335 0.0
C222 C 0.97513 0.2632 0.20036 0.0
C223 C 0.9993 0.28588 0.13554 0.0
O224 O 0.03078 0.28426 0.95303 0.0
O225 O 0.05226 0.27249 0.03121 0.0
O226 O 0.01887 0.28544 0.1551 0.0
O227 O 0.99658 0.29524 0.07633 0.0
H228 H 0.04053 0.23456 0.04902 0.0
H229 H 0.03447 0.19897 0.01007 0.0
H230 H 0.03325 0.22041 0.80019 0.0
H231 H 0.0386 0.25612 0.83978 0.0
H232 H 0.07049 0.38569 0.22533 0.0
H233 H 0.0756 0.359 0.13758 0.0
H234 H 1.00379 0.37653 0.21285 0.0
H235 H 1.00916 0.34924 0.12729 0.0
H236 H 0.95921 0.24136 0.26445 0.0
H237 H 0.99449 0.21572 0.09481 0.0
H238 H 1.00454 0.25087 0.06068 0.0
H239 H 0.97051 0.27636 0.23175 0.0
C240 C 0.28269 0.03553 0.94624 0.0
C241 C 0.29961 0.03314 0.99127 0.0
C242 C 0.32395 0.02994 0.89479 0.0
C243 C 0.31992 0.03028 0.96593 0.0
C244 C 0.30688 0.03206 0.84993 0.0
C245 C 0.28655 0.0348 0.87537 0.0
U246 U 0.23691 0.02551 0.07083 0.0
O247 O 0.21636 0.04847 0.12034 0.0
O248 O 0.20282 0.02425 0.05494 0.0
C249 C 0.1992 0.03945 0.09865 0.0
C250 C 0.26116 0.03956 0.97184 0.0
C251 C 0.18325 0.03538 0.15208 0.0
C252 C 0.1478 0.03993 0.19504 0.0
C253 C 0.16284 0.04276 0.14348 0.0
C254 C 0.17337 0.02211 0.26458 0.0
C255 C 0.15285 0.02966 0.25663 0.0
C256 C 0.18837 0.02491 0.2129 0.0
C257 C 0.27445 0.98725 0.14551 0.0
C258 C 0.30437 0.97437 0.20794 0.0
C259 C 0.30798 0.98415 0.08846 0.0
C260 C 0.28677 0.98893 0.0862 0.0
C261 C 0.31709 0.97742 0.14993 0.0
C262 C 0.28319 0.97938 0.2058 0.0
C263 C 0.2536 0.99653 0.14724 0.0
O264 O 0.24742 0.02461 0.96273 0.0
O265 O 0.25957 0.04846 0.03238 0.0
O266 O 0.25355 0.01633 0.16429 0.0
O267 O 0.24164 0.99234 0.09434 0.0
H268 H 0.2972 0.03356 0.04622 0.0
H269 H 0.33247 0.02831 1.00236 0.0
H270 H 0.30924 0.03216 0.79496 0.0
H271 H 0.27383 0.03672 0.83947 0.0
H272 H 0.13217 0.04569 0.18632 0.0
H273 H 0.15854 0.05088 0.09696 0.0
H274 H 0.17803 0.01439 0.3114 0.0
H275 H 0.20405 0.01915 0.22083 0.0
H276 H 0.31105 0.96941 0.25619 0.0
H277 H 0.31742 0.98649 0.04297 0.0
H278 H 0.2802 0.99495 0.03912 0.0
H279 H 0.27392 0.97816 0.25212 0.0
C280 C 0.50077 0.27691 0.91482 0.0
C281 C 0.51779 0.28424 0.87608 0.0
C282 C 0.50377 0.31972 0.87644 0.0
C283 C 0.51927 0.3053 0.85711 0.0
C284 C 0.48669 0.31236 0.915 0.0
C285 C 0.48512 0.29127 0.93337 0.0
U286 U 0.50336 0.23263 0.04756 0.0
O287 O 0.48387 0.20462 0.06125 0.0
O288 O 0.51742 0.20135 0.04273 0.0
C289 C 0.49996 0.19194 0.06003 0.0
C290 C 0.49934 0.25434 0.93377 0.0
C291 C 0.50129 0.17711 0.11812 0.0
C292 C 0.49273 0.14335 0.1682 0.0
C293 C 0.49202 0.15737 0.11303 0.0
C294 C 0.51219 0.16859 0.23438 0.0
C295 C 0.50275 0.14877 0.22997 0.0
C296 C 0.5114 0.18259 0.1793 0.0
C297 C 0.51293 0.27847 0.1584 0.0
C298 C 0.52884 0.30948 0.20584 0.0
C299 C 0.504 0.31246 0.11277 0.0
C300 C 0.50179 0.29089 0.11199 0.0
C301 C 0.5175 0.32196 0.15981 0.0
C302 C 0.52656 0.28783 0.20509 0.0
C303 C 0.5112 0.25574 0.15451 0.0
O304 O 0.51686 0.24525 0.95197 0.0
O305 O 0.48343 0.24861 0.9721 0.0
O306 O 0.49243 0.24879 0.14008 0.0
O307 O 0.526 0.24667 0.1186 0.0
H308 H 0.53004 0.27364 0.86026 0.0
H309 H 0.53274 0.31033 0.82794 0.0
H310 H 0.47428 0.32285 0.93009 0.0
H311 H 0.47159 0.28626 0.96231 0.0
H312 H 0.48504 0.12843 0.16283 0.0
H313 H 0.48404 0.15283 0.06645 0.0
H314 H 0.52036 0.1733 0.28034 0.0
H315 H 0.51865 0.19775 0.18458 0.0
H316 H 0.53918 0.31647 0.24318 0.0
H317 H 0.49525 0.32169 0.07634 0.0
H318 H 0.49139 0.28388 0.07503 0.0
H319 H 0.53543 0.27844 0.24071 0.0
Sm320 Sm 0.03038 1.00642 0.77284 0.0
Sm321 Sm 1.00448 0.01971 0.64076 0.0
C322 C 0.04191 0.99999 0.90128 0.0
C323 C 0.0344 0.98699 0.95885 0.0
C324 C 0.01606 0.99214 0.99487 0.0
C325 C 1.00784 0.97854 0.04379 0.0
C326 C 0.01805 0.95977 0.05877 0.0
C327 C 0.03705 0.95524 0.02586 0.0
C328 C 0.04513 0.96871 0.97637 0.0
C329 C 0.05354 1.01074 0.65479 0.0
C330 C 1.01263 0.97011 0.67325 0.0
C331 C 0.99375 0.02947 0.51408 0.0
C332 C 0.99553 0.04753 0.46895 0.0
C333 C 1.00793 0.06454 0.48783 0.0
C334 C 1.00664 0.08317 0.45134 0.0
C335 C 0.99278 0.08509 0.39587 0.0
C336 C 0.98122 0.06759 0.37499 0.0
C337 C 0.98257 0.04895 0.41148 0.0
C338 C 0.9776 1.00846 0.74737 0.0
C339 C 0.02091 0.05689 0.7432 0.0
O340 O 0.02982 0.01536 0.88244 0.0
O341 O 0.05031 0.99019 0.84912 0.0
O342 O 0.03847 0.02236 0.6723 0.0
O343 O 0.05802 0.9977 0.70346 0.0
O344 O 0.01652 0.97493 0.7381 0.0
O345 O 1.01053 0.98462 0.62561 0.0
O346 O 1.01101 0.01949 0.52876 0.0
O347 O 0.98164 0.03233 0.5673 0.0
O348 O 0.99714 1.00837 0.74629 0.0
O349 O 0.97119 0.01477 0.68794 0.0
O350 O 1.01122 0.05241 0.68504 0.0
O351 O 0.02918 0.04232 0.78288 0.0
H352 H 1.00766 1.00638 0.98399 0.0
H353 H 0.99331 0.98253 0.06901 0.0
H354 H 0.04519 0.94079 0.03601 0.0
H355 H 0.05945 0.9645 0.95024 0.0
H356 H 0.01791 0.0637 0.53251 0.0
H357 H 0.01599 0.09629 0.46792 0.0
H358 H 0.97029 0.06863 0.3329 0.0
H359 H 0.97273 0.03597 0.39685 0.0
Sm360 Sm 0.52224 0.02926 0.75531 0.0
Sm361 Sm 0.51036 0.99978 0.62135 0.0
C362 C 0.52908 0.04234 0.88161 0.0
C363 C 0.54275 0.03807 0.93969 0.0
C364 C 0.5587 0.02327 0.93426 0.0
C365 C 0.57292 0.02082 0.98765 0.0
C366 C 0.57149 0.03332 0.04675 0.0
C367 C 0.555 0.04761 0.05284 0.0
C368 C 0.54068 0.04992 0.99962 0.0
C369 C 0.51284 0.05316 0.63995 0.0
C370 C 0.56013 1.01019 0.65865 0.0
C371 C 0.50388 0.98563 0.49595 0.0
C372 C 0.48967 0.98746 0.43784 0.0
C373 C 0.47367 1.00231 0.43761 0.0
C374 C 0.45839 1.00169 0.38669 0.0
C375 C 0.45888 0.98609 0.33592 0.0
C376 C 0.47558 0.97196 0.33459 0.0
C377 C 0.49087 0.97266 0.38525 0.0
C378 C 0.5189 0.97612 0.7379 0.0
C379 C 0.47256 0.01819 0.71975 0.0
O380 O 0.51531 0.02795 0.86664 0.0
O381 O 0.53817 0.05044 0.82757 0.0
O382 O 0.5126 0.03365 0.64602 0.0
O383 O 0.51815 0.061 0.69875 0.0
O384 O 0.55491 0.01829 0.71909 0.0
O385 O 0.54611 1.0039 0.61306 0.0
O386 O 0.51605 1.00153 0.50912 0.0
O387 O 0.49597 0.97701 0.551 0.0
O388 O 0.51997 0.99553 0.73038 0.0
O389 O 0.51334 0.9682 0.67951 0.0
O390 O 0.47753 1.01028 0.65871 0.0
O391 O 0.48674 0.0245 0.76468 0.0
H392 H 0.5606 0.01418 0.88784 0.0
H393 H 0.58567 1.00993 0.98109 0.0
H394 H 0.55351 0.05735 0.09796 0.0
H395 H 0.5284 0.06142 1.00432 0.0
H396 H 0.47251 0.01375 0.47832 0.0
H397 H 0.44557 1.01264 0.38937 0.0
H398 H 0.47643 0.95992 0.29572 0.0
H399 H 0.50317 0.96108 0.38497 0.0
Sm400 Sm 0.50514 0.52107 0.7763 0.0
Sm401 Sm 0.53084 0.5087 0.63351 0.0
C402 C 0.4966 0.53037 0.90521 0.0
C403 C 0.48454 0.54563 0.94455 0.0
C404 C 0.47735 0.56393 0.91349 0.0
C405 C 0.4686 0.57975 0.9534 0.0
C406 C 0.4669 0.57748 0.02498 0.0
C407 C 0.473 0.55855 0.05511 0.0
C408 C 0.4818 0.54276 0.01513 0.0
C409 C 0.47858 0.51573 0.66497 0.0
C410 C 0.51983 0.55858 0.66975 0.0
C411 C 0.54094 0.50175 0.5043 0.0
C412 C 0.53398 0.48998 0.44456 0.0
C413 C 0.51791 0.47532 0.45033 0.0
C414 C 0.51332 0.46225 0.39521 0.0
C415 C 0.52485 0.46364 0.33388 0.0
C416 C 0.54008 0.47924 0.3272 0.0
C417 C 0.54461 0.49233 0.38231 0.0
C418 C 0.55741 0.51481 0.74446 0.0
C419 C 0.51426 0.47157 0.73593 0.0
O420 O 0.5127 0.53786 0.87178 0.0
O421 O 0.486 0.51651 0.87025 0.0
O422 O 0.49803 0.5134 0.6676 0.0
O423 O 0.47214 0.52142 0.72555 0.0
O424 O 0.51136 0.5538 0.73008 0.0
O425 O 0.52745 0.54441 0.62688 0.0
O426 O 0.52912 0.51733 0.52365 0.0
O427 O 0.54814 0.49066 0.55547 0.0
O428 O 0.53789 0.51604 0.74232 0.0
O429 O 0.56399 0.51043 0.68312 0.0
O430 O 0.51847 0.47679 0.67135 0.0
O431 O 0.51171 0.48567 0.78526 0.0
H432 H 0.47938 0.56635 0.8589 0.0
H433 H 0.46431 0.5942 0.92861 0.0
H434 H 0.47163 0.55622 0.10992 0.0
H435 H 0.48722 0.52865 0.03973 0.0
H436 H 0.50962 0.47333 0.49834 0.0
H437 H 0.50169 0.4502 0.40225 0.0
H438 H 0.54907 0.48074 0.28038 0.0
H439 H 0.557 0.50371 0.37725 0.0
Sm440 Sm 0.01461 0.50346 0.74729 0.0
Sm441 Sm 0.02683 0.52929 0.61458 0.0
C442 C 1.0083 0.48711 0.87007 0.0
C443 C 0.99075 0.47737 0.90579 0.0
C444 C 0.97127 0.47594 0.87376 0.0
C445 C 0.95397 0.4688 0.91033 0.0
C446 C 0.95589 0.46297 0.97957 0.0
C447 C 0.97568 0.46365 0.0105 0.0
C448 C 0.99299 0.47084 0.97381 0.0
C449 C 0.01698 0.4813 0.62667 0.0
C450 C 0.97699 0.51946 0.65062 0.0
C451 C 0.035 0.53801 0.48497 0.0
C452 C 0.0474 0.52901 0.42843 0.0
C453 C 0.04293 0.50917 0.40152 0.0
C454 C 0.05614 0.50011 0.35286 0.0
C455 C 0.07381 0.51089 0.32934 0.0
C456 C 0.07757 0.53119 0.35347 0.0
C457 C 0.06449 0.54014 0.40254 0.0
C458 C 0.01789 0.55655 0.72156 0.0
C459 C 0.06442 0.51491 0.71729 0.0
O460 O 1.00593 0.50691 0.85651 0.0
O461 O 0.0163 0.47661 0.81884 0.0
O462 O 0.02952 0.49546 0.64489 0.0
O463 O 1.003 0.47796 0.67375 0.0
O464 O 0.98196 0.5143 0.71421 0.0
O465 O 0.99137 0.52325 0.60334 0.0
O466 O 0.01846 0.5276 0.50473 0.0
O467 O 0.04557 0.54599 0.5362 0.0
O468 O 0.0173 0.537 0.72181 0.0
O469 O 0.02325 0.56271 0.66068 0.0
O470 O 0.05968 0.52125 0.65464 0.0
O471 O 0.04997 0.50909 0.76195 0.0
H472 H 0.96931 0.48104 0.82122 0.0
H473 H 0.93893 0.46882 0.88521 0.0
H474 H 0.9777 0.45906 0.06348 0.0
H475 H 1.00798 0.47186 0.99912 0.0
H476 H 0.02953 0.50042 0.41916 0.0
H477 H 0.05275 0.48455 0.33452 0.0
H478 H 0.09119 0.53981 0.33684 0.0
H479 H 0.06812 0.55555 0.42185 0.0
H480 H 0.12174 0.05682 0.29798 0.0
H481 H 0.08446 0.98512 0.61128 0.0
H482 H 0.14736 0.99624 0.34336 0.0
H483 H 0.05285 0.04197 0.55679 0.0
H484 H 0.10754 0.98942 0.51292 0.0
H485 H 0.09641 0.05211 0.39088 0.0
C486 C 0.122 0.04245 0.32692 0.0
C487 C 0.13692 0.02694 0.31244 0.0
C488 C 0.09555 1.00097 0.52203 0.0
C489 C 0.10795 0.0216 0.42004 0.0
C490 C 0.08233 0.99853 0.57841 0.0
C491 C 0.06673 0.01325 0.59257 0.0
C492 C 0.09337 0.01838 0.4791 0.0
C493 C 0.06469 0.03025 0.54781 0.0
C494 C 0.10755 0.03984 0.38033 0.0
C495 C 0.13653 1.00883 0.35292 0.0
N496 N 0.07793 0.03242 0.49328 0.0
N497 N 0.12239 1.00673 0.40464 0.0
H498 H 0.49986 0.15821 0.36728 0.0
H499 H 0.50604 0.04047 0.50535 0.0
H500 H 0.50599 0.10566 0.23049 0.0
H501 H 0.51202 0.09516 0.63197 0.0
H502 H 0.50273 0.06314 0.40391 0.0
H503 H 0.50117 0.13455 0.46449 0.0
C504 C 0.50165 0.14172 0.3574 0.0
C505 C 0.50304 0.13411 0.28995 0.0
C506 C 0.50474 0.07012 0.45401 0.0
C507 C 0.50417 0.10656 0.40242 0.0
C508 C 0.50661 0.05717 0.51185 0.0
C509 C 0.50949 0.06588 0.57721 0.0
C510 C 0.50554 0.09192 0.4619 0.0
C511 C 0.50993 0.08769 0.58267 0.0
C512 C 0.50225 0.12813 0.41326 0.0
C513 C 0.50471 0.11236 0.28124 0.0
N514 N 0.508 0.09986 0.52613 0.0
N515 N 0.50527 0.09939 0.33667 0.0
H516 H 0.42467 0.50328 0.25558 0.0
H517 H 0.43672 0.52105 0.66085 0.0
H518 H 0.37342 0.51525 0.39387 0.0
H519 H 0.48901 0.50631 0.5305 0.0
H520 H 0.41363 0.51872 0.56221 0.0
H521 H 0.44866 0.50417 0.35335 0.0
C522 C 0.41842 0.50612 0.30634 0.0
C523 C 0.39686 0.50917 0.3161 0.0
C524 C 0.43014 0.51596 0.55476 0.0
C525 C 0.42436 0.51011 0.4286 0.0
C526 C 0.44338 0.51731 0.61125 0.0
C527 C 0.46488 0.51394 0.60393 0.0
C528 C 0.43835 0.51124 0.48975 0.0
C529 C 0.47256 0.50908 0.53834 0.0
C530 C 0.43215 0.50652 0.36223 0.0
C531 C 0.38977 0.51249 0.38347 0.0
N532 N 0.45932 0.50792 0.48368 0.0
N533 N 0.40343 0.51294 0.43672 0.0
H534 H 0.0589 0.41957 0.2525 0.0
H535 H 0.99059 0.45114 0.5814 0.0
H536 H 1.00747 0.38309 0.33046 0.0
H537 H 0.04886 0.48109 0.53167 0.0
H538 H 0.995 0.42819 0.48253 0.0
H539 H 0.05419 0.444 0.3477 0.0
C540 C 0.04664 0.4166 0.28948 0.0
C541 C 0.03359 0.39907 0.2829 0.0
C542 C 1.00685 0.43978 0.49298 0.0
C543 C 0.02791 0.42737 0.3918 0.0
C544 C 1.00431 0.45293 0.54946 0.0
C545 C 0.01938 0.46805 0.56484 0.0
C546 C 0.0246 0.44171 0.45111 0.0
C547 C 0.03685 0.46965 0.52158 0.0
C548 C 0.04391 0.43068 0.34371 0.0
C549 C 0.01774 0.39645 0.33216 0.0
N550 N 0.03899 0.45664 0.46666 0.0
N551 N 0.01539 0.41038 0.3842 0.0
H552 H 0.92509 0.99033 0.15618 0.0
H553 H 0.93535 1.01101 0.75193 0.0
H554 H 0.87276 0.99864 0.02009 0.0
H555 H 0.98839 0.99714 0.87882 0.0
H556 H 0.91248 1.00646 0.85087 0.0
H557 H 0.94867 0.99261 0.0574 0.0
C558 C 0.91848 0.99253 0.1057 0.0
C559 C 0.89675 0.99439 0.09705 0.0
C560 C 0.9291 1.00435 0.85748 0.0
C561 C 0.92387 0.99728 0.98339 0.0
C562 C 0.9422 1.00694 0.80082 0.0
C563 C 0.96384 1.0046 0.80736 0.0
C564 C 0.93763 0.99943 0.92177 0.0
C565 C 0.97181 0.99927 0.87197 0.0
C566 C 0.93202 0.99394 0.04927 0.0
C567 C 0.88931 0.99751 0.03007 0.0
N568 N 0.95873 0.99695 0.92682 0.0
N569 N 0.90278 0.99889 0.97625 0.0
H570 H 0.50259 0.87765 0.03184 0.0
H571 H 0.53359 0.98771 0.86673 0.0
H572 H 0.54874 0.91719 0.12679 0.0
H573 H 0.50743 0.93608 0.75482 0.0
H574 H 0.53562 0.96529 0.96969 0.0
H575 H 0.50009 0.9022 0.93747 0.0
C576 C 0.51234 0.89141 0.03292 0.0
C577 C 0.5262 0.89498 0.0874 0.0
C578 C 0.52944 0.95897 0.92243 0.0
C579 C 0.523 0.92373 0.97885 0.0
C580 C 0.52826 0.97176 0.86389 0.0
C581 C 0.52039 0.96376 0.80209 0.0
C582 C 0.52233 0.93822 0.91904 0.0
C583 C 0.51367 0.94295 0.80114 0.0
C584 C 0.51079 0.90556 0.97891 0.0
C585 C 0.53779 0.91367 0.08629 0.0
N586 N 0.5147 0.93103 0.85844 0.0
N587 N 0.53599 0.92729 0.03285 0.0
H588 H 0.61222 0.52943 0.15125 0.0
H589 H 0.59955 0.5173 0.74411 0.0
H590 H 0.66357 0.52195 0.00995 0.0
H591 H 0.54696 0.51764 0.88195 0.0
H592 H 0.62293 0.5205 0.84184 0.0
H593 H 0.5879 0.5268 0.05478 0.0
C594 C 0.61843 0.52728 0.10005 0.0
C595 C 0.64008 0.52586 0.08905 0.0
C596 C 0.60628 0.52 0.85105 0.0
C597 C 0.61221 0.52275 0.97822 0.0
C598 C 0.59288 0.51821 0.79512 0.0
C599 C 0.57121 0.51749 0.80478 0.0
C600 C 0.59805 0.52108 0.91776 0.0
C601 C 0.56351 0.5186 0.87211 0.0
C602 C 0.60449 0.52568 0.04502 0.0
C603 C 0.64708 0.52284 0.02144 0.0
N604 N 0.57691 0.52036 0.92612 0.0
N605 N 0.63324 0.52144 0.9689 0.0
H606 H 0.01428 0.6648 0.9864 0.0
H607 H 1.00967 0.54628 0.85591 0.0
H608 H 1.00435 0.61263 0.12195 0.0
H609 H 0.01928 0.59892 0.72287 0.0
H610 H 1.00631 0.57014 0.95364 0.0
H611 H 0.0146 0.64089 0.88909 0.0
C612 C 1.01194 0.64835 0.99583 0.0
C613 C 1.00929 0.64082 0.06291 0.0
C614 C 1.00907 0.57648 0.90302 0.0
C615 C 1.00997 0.61313 0.95097 0.0
C616 C 1.01094 0.56284 0.84722 0.0
C617 C 0.01477 0.57058 0.7812 0.0
C618 C 1.01106 0.59808 0.8927 0.0
C619 C 0.01635 0.59224 0.77291 0.0
C620 C 1.01228 0.63465 0.94007 0.0
C621 C 1.00673 0.6192 0.07148 0.0
N622 N 0.01455 0.60518 0.82787 0.0
N623 N 1.00718 0.60616 0.01634 0.0
H624 H 0.97065 0.18804 0.11707 0.0
H625 H 0.9889 0.12256 0.46031 0.0
H626 H 0.97867 0.21492 0.31845 0.0
H627 H 0.98746 0.09442 0.25928 0.0
H628 H 0.98203 0.1563 0.40872 0.0
H629 H 0.97313 0.15329 0.16807 0.0
C630 C 0.9727 0.18667 0.17197 0.0
C631 C 0.97448 0.2045 0.2134 0.0
C632 C 0.98323 0.14278 0.37569 0.0
C633 C 0.97732 0.16486 0.27187 0.0
C634 C 0.98736 0.12352 0.40512 0.0
C635 C 0.98905 0.10567 0.36395 0.0
C636 C 0.98074 0.14433 0.30441 0.0
C637 C 0.98627 0.10779 0.2929 0.0
C638 C 0.9741 0.16684 0.20099 0.0
C639 C 0.97686 0.20174 0.28435 0.0
N640 N 0.98233 0.12681 0.26525 0.0
N641 N 0.97834 0.18234 0.31111 0.0
H642 H 0.34597 1.00571 0.10693 0.0
H643 H 0.43915 0.94972 0.3047 0.0
H644 H 0.34016 0.9465 0.20953 0.0
H645 H 0.43734 0.01571 0.26348 0.0
H646 H 0.40661 0.94548 0.24145 0.0
H647 H 0.38309 1.00632 0.13552 0.0
C648 C 0.35263 0.9926 0.13404 0.0
C649 C 0.34 0.97608 0.15647 0.0
C650 C 0.4135 0.96083 0.24543 0.0
C651 C 0.38226 0.97682 0.18979 0.0
C652 C 0.43213 0.96326 0.28106 0.0
C653 C 0.44085 0.98314 0.28969 0.0
C654 C 0.40355 0.97838 0.21803 0.0
C655 C 0.43096 1.00017 0.25874 0.0
C656 C 0.37374 0.99305 0.15078 0.0
C657 C 0.34935 0.95962 0.19211 0.0
N658 N 0.41272 0.99743 0.2246 0.0
N659 N 0.36992 0.96048 0.20817 0.0
H660 H 0.55274 0.34572 0.17007 0.0
H661 H 0.48936 0.4455 0.2828 0.0
H662 H 0.48574 0.35025 0.15674 0.0
H663 H 0.5565 0.44335 0.26874 0.0
H664 H 0.48755 0.41284 0.2185 0.0
H665 H 0.55454 0.38327 0.18923 0.0
C666 C 0.53843 0.35469 0.17067 0.0
C667 C 0.51905 0.34489 0.16306 0.0
C668 C 0.50267 0.41974 0.22821 0.0
C669 C 0.52092 0.38776 0.185 0.0
C670 C 0.50369 0.43835 0.26498 0.0
C671 C 0.5231 0.44693 0.28203 0.0
C672 C 0.52122 0.40956 0.20942 0.0
C673 C 0.54119 0.43727 0.2568 0.0
C674 C 0.53945 0.37613 0.18109 0.0
C675 C 0.501 0.35722 0.16269 0.0
N676 N 0.53982 0.41888 0.22288 0.0
N677 N 0.50234 0.378 0.1747 0.0
H678 H 0.18466 0.49712 0.0936 0.0
H679 H 0.08952 0.47153 0.34224 0.0
H680 H 0.18566 0.44913 0.24838 0.0
H681 H 0.09407 0.52672 0.21711 0.0
H682 H 0.12028 0.45741 0.28436 0.0
H683 H 0.14748 0.502 0.11459 0.0
C684 C 0.17698 0.48725 0.13092 0.0
C685 C 0.18838 0.47293 0.17021 0.0
C686 C 0.11432 0.47244 0.26873 0.0
C687 C 0.14587 0.47873 0.19521 0.0
C688 C 0.09668 0.48046 0.30138 0.0
C689 C 0.0895 0.5005 0.28524 0.0
C690 C 0.1248 0.48457 0.21966 0.0
C691 C 0.09942 0.5114 0.2321 0.0
C692 C 0.15576 0.49017 0.14319 0.0
C693 C 0.17756 0.46069 0.21811 0.0
N694 N 0.11674 0.50342 0.20182 0.0
N695 N 0.15696 0.46407 0.22995 0.0
H696 H 1.00199 0.84901 0.29535 0.0
H697 H 0.97741 0.94697 0.05846 0.0
H698 H 0.95075 0.85183 0.15262 0.0
H699 H 0.03618 0.9365 0.16008 0.0
H700 H 0.96279 0.91691 0.1186 0.0
H701 H 1.00947 0.88562 0.27257 0.0
C702 C 0.99196 0.85747 0.26052 0.0
C703 C 0.97589 0.84728 0.22502 0.0
C704 C 0.97878 0.92141 0.12857 0.0
C705 C 0.98464 0.88906 0.19786 0.0
C706 C 0.9871 0.93863 0.09463 0.0
C707 C 1.00813 0.94401 0.10362 0.0
C708 C 0.99157 0.90957 0.1719 0.0
C709 C 0.02 0.9326 0.15075 0.0
C710 C 0.99637 0.87833 0.24712 0.0
C711 C 0.96354 0.859 0.18001 0.0
N712 N 1.01162 0.91576 0.18261 0.0
N713 N 0.96834 0.87922 0.16703 0.0
H714 H 0.6823 0.99673 0.25948 0.0
H715 H 0.59129 0.06664 0.10386 0.0
H716 H 0.68947 0.06124 0.20222 0.0
H717 H 0.5907 0.99944 0.10398 0.0
H718 H 0.62336 0.06606 0.17112 0.0
H719 H 0.64511 0.99904 0.23323 0.0
C720 C 0.67596 1.0115 0.24262 0.0
C721 C 0.68899 0.02877 0.23202 0.0
C722 C 0.61601 0.05145 0.15738 0.0
C723 C 0.64661 0.03143 0.20162 0.0
C724 C 0.59764 0.05176 0.11949 0.0
C725 C 0.58851 0.03304 0.09768 0.0
C726 C 0.62527 0.0323 0.1736 0.0
C727 C 0.59749 0.01421 0.11883 0.0
C728 C 0.65479 0.01276 0.22735 0.0
C729 C 0.68001 0.04747 0.20977 0.0
N730 N 0.61554 0.01431 0.15508 0.0
N731 N 0.65937 0.04826 0.19471 0.0
H732 H 0.48647 0.68377 0.27662 0.0
H733 H 0.43659 0.60701 1.00238 0.0
H734 H 0.43878 0.70214 0.13299 0.0
H735 H 0.48478 0.58969 0.14557 0.0
H736 H 0.43234 0.64003 0.06344 0.0
H737 H 0.48089 0.64755 0.24454 0.0
C738 C 0.47449 0.68018 0.23939 0.0
C739 C 0.46329 0.69609 0.20667 0.0
C740 C 0.4436 0.62884 0.08216 0.0
C741 C 0.45719 0.65458 0.16842 0.0
C742 C 0.44608 0.61002 0.04718 0.0
C743 C 0.46127 0.59567 0.06824 0.0
C744 C 0.45652 0.63339 0.13828 0.0
C745 C 0.47283 0.60021 0.12747 0.0
C746 C 0.47142 0.65945 0.22067 0.0
C747 C 0.44812 0.69042 0.1583 0.0
N748 N 0.47042 0.61879 0.15976 0.0
N749 N 0.44572 0.67016 0.13991 0.0
H750 H 0.85498 0.47799 0.26475 0.0
H751 H 0.92156 0.44017 0.94141 0.0
H752 H 0.82823 0.45293 0.07923 0.0
H753 H 0.9469 0.47522 0.11087 0.0
H754 H 0.88838 0.43766 1.00274 0.0
H755 H 0.88974 0.47003 0.22024 0.0
C756 C 0.8564 0.47064 0.21496 0.0
C757 C 0.83866 0.46643 0.17521 0.0
C758 C 0.9013 0.44564 0.02687 0.0
C759 C 0.87837 0.45716 0.12423 0.0
C760 C 0.92022 0.44714 0.9918 0.0
C761 C 0.93695 0.4582 0.02053 0.0
C762 C 0.89907 0.45531 0.09107 0.0
C763 C 0.93448 0.4665 0.0867 0.0
C764 C 0.87624 0.46602 0.18972 0.0
C765 C 0.84142 0.45642 0.11179 0.0
N766 N 0.91581 0.46511 0.11934 0.0
N767 N 0.86091 0.45237 0.08792 0.0
H768 H 1.00998 0.19165 0.79343 0.0
H769 H 0.04145 0.07223 0.8556 0.0
H770 H 0.0514 0.17097 0.95363 0.0
H771 H 1.00491 0.09235 0.68229 0.0
H772 H 0.04422 0.10829 0.89332 0.0
H773 H 1.00704 0.15563 0.75328 0.0
C774 C 0.01854 0.17962 0.82015 0.0
C775 C 0.03098 0.18457 0.8773 0.0
C776 C 0.03561 0.10488 0.84697 0.0
C777 C 0.02744 0.14302 0.83164 0.0
C778 C 0.03399 0.0842 0.82523 0.0
C779 C 0.0229 0.07907 0.76544 0.0
C780 C 0.02602 0.12079 0.80906 0.0
C781 C 0.01363 0.09546 0.72863 0.0
C782 C 0.01676 0.15899 0.79725 0.0
C783 C 0.04136 0.16807 0.91017 0.0
N784 N 0.01536 0.11553 0.75106 0.0
N785 N 0.03936 0.14816 0.88692 0.0
H786 H 0.36003 0.04634 0.94888 0.0
H787 H 0.43695 1.00371 0.65401 0.0
H788 H 0.33821 1.00946 0.77835 0.0
H789 H 0.45687 0.03694 0.8349 0.0
H790 H 0.40066 1.00635 0.6947 0.0
H791 H 0.39546 0.04342 0.90487 0.0
C792 C 0.36262 0.03745 0.90246 0.0
C793 C 0.34586 0.02805 0.86782 0.0
C794 C 0.41303 0.01307 0.72529 0.0
C795 C 0.38688 0.02494 0.81581 0.0
C796 C 0.43377 1.01161 0.70198 0.0
C797 C 0.45017 0.02006 0.74091 0.0
C798 C 0.4086 0.02311 0.7879 0.0
C799 C 0.44494 0.03008 0.80286 0.0
C800 C 0.38296 0.03592 0.87693 0.0
C801 C 0.35045 0.01718 0.80674 0.0
N802 N 0.42477 0.03129 0.82416 0.0
N803 N 0.37045 0.01592 0.78281 0.0
H804 H 0.49402 0.35457 0.95289 0.0
H805 H 0.52123 0.43688 0.65486 0.0
H806 H 0.51709 0.33652 0.75359 0.0
H807 H 0.50346 0.4545 0.86043 0.0
H808 H 0.51877 0.40015 0.68835 0.0
H809 H 0.49628 0.39113 0.91839 0.0
C810 C 0.49945 0.35823 0.9017 0.0
C811 C 0.50532 0.34225 0.85618 0.0
C812 C 0.51541 0.41206 0.72612 0.0
C813 C 0.50809 0.38444 0.81619 0.0
C814 C 0.51677 0.4331 0.70697 0.0
C815 C 0.51258 0.449 0.75473 0.0
C816 C 0.5097 0.40672 0.79357 0.0
C817 C 0.5069 0.44294 0.8216 0.0
C818 C 0.50086 0.3792 0.88212 0.0
C819 C 0.51259 0.34819 0.79085 0.0
N820 N 0.50562 0.4224 0.83884 0.0
N821 N 0.5137 0.3687 0.77286 0.0
H822 H 0.18113 0.49009 0.92989 0.0
H823 H 0.09871 0.53215 0.65332 0.0
H824 H 0.1956 0.53831 0.78363 0.0
H825 H 0.08114 0.49638 0.8315 0.0
H826 H 0.13498 0.5318 0.6929 0.0
H827 H 0.14519 0.48939 0.88719 0.0
C828 C 0.17679 0.50043 0.88848 0.0
C829 C 0.19146 0.5143 0.86041 0.0
C830 C 0.12318 0.52402 0.72327 0.0
C831 C 0.15023 0.51358 0.81109 0.0
C832 C 0.10244 0.52414 0.70055 0.0
C833 C 0.08672 0.51433 0.7391 0.0
C834 C 0.12837 0.51381 0.78467 0.0
C835 C 0.09262 0.50425 0.80008 0.0
C836 C 0.15623 0.50012 0.86437 0.0
C837 C 0.18481 0.52752 0.80731 0.0
N838 N 0.11289 0.50421 0.82077 0.0
N839 N 0.16478 0.52678 0.78427 0.0
H840 H 0.99875 0.85688 0.43416 0.0
H841 H 0.02099 0.93468 0.74872 0.0
H842 H 0.02477 0.83668 0.62688 0.0
H843 H 1.00129 0.95465 0.54782 0.0
H844 H 0.02028 0.89846 0.70844 0.0
H845 H 0.9977 0.8925 0.47785 0.0
C846 C 1.00434 0.85988 0.48558 0.0
C847 C 1.01197 0.84359 0.52657 0.0
C848 C 0.01605 0.91079 0.67331 0.0
C849 C 1.01051 0.88462 0.57761 0.0
C850 C 0.01639 0.9315 0.69636 0.0
C851 C 1.01125 0.94786 0.65169 0.0
C852 C 1.01045 0.90635 0.60512 0.0
C853 C 1.00547 0.94267 0.58426 0.0
C854 C 1.00361 0.88028 0.51071 0.0
C855 C 0.01854 0.84858 0.59345 0.0
N856 N 1.00526 0.92247 0.56318 0.0
N857 N 0.0177 0.86858 0.61673 0.0
H858 H 0.67607 0.98731 0.43894 0.0
H859 H 0.59503 0.0202 0.7354 0.0
H860 H 0.6955 1.00916 0.63809 0.0
H861 H 0.57698 0.99554 0.5383 0.0
H862 H 0.63176 0.01696 0.70117 0.0
H863 H 0.63974 0.99091 0.47469 0.0
C864 C 0.67276 0.99275 0.49039 0.0
C865 C 0.68908 0.99778 0.53554 0.0
C866 C 0.61974 1.01226 0.66549 0.0
C867 C 0.6471 1.00222 0.57689 0.0
C868 C 0.59871 0.01409 0.68503 0.0
C869 C 0.5827 1.00814 0.63987 0.0
C870 C 0.62491 1.00444 0.60017 0.0
C871 C 0.58861 1.00034 0.57519 0.0
C872 C 0.65192 0.99492 0.51071 0.0
C873 C 0.68358 1.00524 0.6011 0.0
N874 N 0.6091 0.99876 0.55746 0.0
N875 N 0.66313 1.00717 0.61977 0.0
H876 H 0.50605 0.6935 0.62121 0.0
H877 H 0.53744 0.57426 0.55251 0.0
H878 H 0.54008 0.67205 0.44354 0.0
H879 H 0.50421 0.59394 0.73411 0.0
H880 H 0.53824 0.61013 0.5131 0.0
H881 H 0.50496 0.65764 0.664 0.0
C882 C 0.51336 0.68133 0.59114 0.0
C883 C 0.52317 0.68602 0.52833 0.0
C884 C 0.53077 0.6067 0.56163 0.0
C885 C 0.52181 0.64466 0.57725 0.0
C886 C 0.5303 0.58609 0.58445 0.0
C887 C 0.52072 0.58084 0.64707 0.0
C888 C 0.52158 0.6225 0.60131 0.0
C889 C 0.51181 0.59713 0.68563 0.0
C890 C 0.51263 0.66079 0.6156 0.0
C891 C 0.53205 0.66936 0.49155 0.0
N892 N 0.51243 0.61717 0.66213 0.0
N893 N 0.53118 0.64957 0.51653 0.0
H894 H 0.86184 0.52086 0.41666 0.0
H895 H 0.94185 0.51793 0.73268 0.0
H896 H 0.84258 0.53018 0.62649 0.0
H897 H 0.96094 0.52295 0.52101 0.0
H898 H 0.90529 0.51939 0.69588 0.0
H899 H 0.89805 0.51823 0.45505 0.0
C900 C 0.86518 0.5222 0.47089 0.0
C901 C 0.84905 0.5258 0.51829 0.0
C902 C 0.91751 0.52019 0.65758 0.0
C903 C 0.89068 0.52289 0.56279 0.0
C904 C 0.93841 0.51934 0.67855 0.0
C905 C 0.95462 0.52041 0.63002 0.0
C906 C 0.91271 0.5219 0.58747 0.0
C907 C 0.94909 0.52219 0.56051 0.0
C908 C 0.88591 0.52084 0.49276 0.0
C909 C 0.85447 0.52765 0.58792 0.0
N910 N 0.92869 0.52281 0.54144 0.0
N911 N 0.87476 0.52612 0.60803 0.0
loop_
_geom_bond_atom_site_label_1
_geom_bond_atom_site_label_2
_geom_bond_distance
_geom_bond_site_symmetry_2
_ccdc_geom_bond_type
C0 C1 1.264 . S
C0 C5 1.479 . S
C0 C10 1.465 . S
C1 C0 1.264 . S
C1 C3 1.339 . S
C1 H28 0.931 . S
C2 C3 1.395 . S
C2 C4 1.320 . S
C3 C1 1.339 . S
C3 C2 1.395 . S
C3 H29 0.929 . S
C4 C2 1.320 . S
C4 C5 1.405 . S
C4 H30 0.930 . S
C5 C0 1.479 . S
C5 C4 1.405 . S
C5 H31 0.931 . S
U6 O7 2.454 . S
U6 O8 2.458 . S
U6 C9 2.984 . S
U6 C10 2.847 . S
U6 C23 2.882 . S
U6 O24 2.441 . S
U6 O25 2.420 . S
U6 O26 2.455 . S
U6 O27 2.449 . S
O7 U6 2.454 . S
O7 C9 1.353 . S
O8 U6 2.458 . S
O8 C9 1.286 . S
C9 U6 2.984 . S
C9 O7 1.353 . S
C9 O8 1.286 . S
C9 C11 1.363 . S
C10 C0 1.465 . S
C10 U6 2.847 . S
C10 O24 1.249 . S
C10 O25 1.202 . S
C11 C9 1.363 . S
C11 C13 1.408 . S
C11 C16 1.342 . S
C12 C13 1.310 . S
C12 C15 1.461 . S
C12 H32 0.932 . S
C13 C11 1.408 . S
C13 C12 1.310 . S
C13 H33 0.930 . S
C14 C15 1.474 . S
C14 C16 1.285 . S
C14 H34 0.929 . S
C15 C12 1.461 . S
C15 C14 1.474 . S
C16 C11 1.342 . S
C16 C14 1.285 . S
C16 H35 0.930 . S
C17 C20 1.424 . S
C17 C22 1.245 . S
C17 C23 1.428 . S
C18 C21 1.260 . S
C18 C22 1.477 . S
C18 H36 0.932 . S
C19 C20 1.384 . S
C19 C21 1.479 . S
C19 H37 0.929 . S
C20 C17 1.424 . S
C20 C19 1.384 . S
C20 H38 0.928 . S
C21 C18 1.260 . S
C21 C19 1.479 . S
C22 C17 1.245 . S
C22 C18 1.477 . S
C22 H39 0.932 . S
C23 U6 2.882 . S
C23 C17 1.428 . S
C23 O26 1.301 . S
C23 O27 1.282 . S
O24 U6 2.441 . S
O24 C10 1.249 . S
O25 U6 2.420 . S
O25 C10 1.202 . S
O26 U6 2.455 . S
O26 C23 1.301 . S
O27 U6 2.449 . S
O27 C23 1.282 . S
H28 C1 0.931 . S
H29 C3 0.929 . S
H30 C4 0.930 . S
H31 C5 0.931 . S
H32 C12 0.932 . S
H33 C13 0.930 . S
H34 C14 0.929 . S
H35 C16 0.930 . S
H36 C18 0.932 . S
H37 C19 0.929 . S
H38 C20 0.928 . S
H39 C22 0.932 . S
C40 C41 1.264 . S
C40 C45 1.479 . S
C40 C50 1.465 . S
C41 C40 1.264 . S
C41 C43 1.339 . S
C41 H68 0.931 . S
C42 C43 1.395 . S
C42 C44 1.320 . S
C43 C41 1.339 . S
C43 C42 1.395 . S
C43 H69 0.929 . S
C44 C42 1.320 . S
C44 C45 1.405 . S
C44 H70 0.921 1_455 S
C45 C40 1.479 . S
C45 C44 1.405 . S
C45 H71 0.931 . S
U46 O47 2.454 . S
U46 O48 2.458 . S
U46 C49 2.984 . S
U46 C50 2.847 . S
U46 C63 2.882 . S
U46 O64 2.441 . S
U46 O65 2.420 . S
U46 O66 2.455 . S
U46 O67 2.449 . S
O47 U46 2.454 . S
O47 C49 1.353 . S
O48 U46 2.458 . S
O48 C49 1.286 . S
C49 U46 2.984 . S
C49 O47 1.353 . S
C49 O48 1.286 . S
C49 C51 1.363 . S
C50 C40 1.465 . S
C50 U46 2.847 . S
C50 O64 1.249 . S
C50 O65 1.202 . S
C51 C49 1.363 . S
C51 C53 1.408 . S
C51 C56 1.342 . S
C52 C53 1.310 . S
C52 C55 1.461 . S
C52 H72 0.932 . S
C53 C51 1.408 . S
C53 C52 1.310 . S
C53 H73 0.930 . S
C54 C55 1.474 1_655 S
C54 C56 1.285 1_655 S
C54 H74 0.930 . S
C55 C52 1.461 . S
C55 C54 1.474 1_455 S
C56 C51 1.342 . S
C56 C54 1.285 1_455 S
C56 H75 0.932 . S
C57 C60 1.424 . S
C57 C62 1.245 . S
C57 C63 1.428 . S
C58 C61 1.260 . S
C58 C62 1.477 . S
C58 H76 0.932 . S
C59 C60 1.384 . S
C59 C61 1.479 . S
C59 H77 0.929 . S
C60 C57 1.424 . S
C60 C59 1.384 . S
C60 H78 0.928 . S
C61 C58 1.260 . S
C61 C59 1.479 . S
C62 C57 1.245 . S
C62 C58 1.477 . S
C62 H79 0.932 . S
C63 U46 2.882 . S
C63 C57 1.428 . S
C63 O66 1.301 . S
C63 O67 1.282 . S
O64 U46 2.441 . S
O64 C50 1.249 . S
O65 U46 2.420 . S
O65 C50 1.202 . S
O66 U46 2.455 . S
O66 C63 1.301 . S
O67 U46 2.449 . S
O67 C63 1.282 . S
H68 C41 0.931 . S
H69 C43 0.929 . S
H70 C44 0.921 1_655 S
H71 C45 0.931 . S
H72 C52 0.932 . S
H73 C53 0.930 . S
H74 C54 0.930 . S
H75 C56 0.932 . S
H76 C58 0.932 . S
H77 C59 0.929 . S
H78 C60 0.928 . S
H79 C62 0.932 . S
C80 C81 1.264 . S
C80 C85 1.479 . S
C80 C90 1.465 . S
C81 C80 1.264 . S
C81 C83 1.339 . S
C81 H108 0.931 . S
C82 C83 1.395 . S
C82 C84 1.320 . S
C83 C81 1.339 . S
C83 C82 1.395 . S
C83 H109 0.929 . S
C84 C82 1.320 . S
C84 C85 1.405 . S
C84 H110 0.921 1_545 S
C85 C80 1.479 . S
C85 C84 1.405 . S
C85 H111 0.931 . S
U86 O87 2.454 . S
U86 O88 2.458 . S
U86 C89 2.984 . S
U86 C90 2.847 . S
U86 C103 2.882 . S
U86 O104 2.441 . S
U86 O105 2.420 . S
U86 O106 2.455 . S
U86 O107 2.449 . S
O87 U86 2.454 . S
O87 C89 1.353 . S
O88 U86 2.458 . S
O88 C89 1.286 . S
C89 U86 2.984 . S
C89 O87 1.353 . S
C89 O88 1.286 . S
C89 C91 1.363 . S
C90 C80 1.465 . S
C90 U86 2.847 . S
C90 O104 1.249 . S
C90 O105 1.202 . S
C91 C89 1.363 . S
C91 C93 1.408 . S
C91 C96 1.342 . S
C92 C93 1.310 . S
C92 C95 1.461 . S
C92 H112 0.932 . S
C93 C91 1.408 . S
C93 C92 1.310 . S
C93 H113 0.930 . S
C94 C95 1.474 1_565 S
C94 C96 1.285 1_565 S
C94 H114 0.930 . S
C95 C92 1.461 . S
C95 C94 1.474 1_545 S
C96 C91 1.342 . S
C96 C94 1.285 1_545 S
C96 H115 0.932 . S
C97 C100 1.424 . S
C97 C102 1.245 . S
C97 C103 1.428 . S
C98 C101 1.260 . S
C98 C102 1.477 . S
C98 H116 0.932 . S
C99 C100 1.384 . S
C99 C101 1.479 . S
C99 H117 0.929 . S
C100 C97 1.424 . S
C100 C99 1.384 . S
C100 H118 0.928 . S
C101 C98 1.260 . S
C101 C99 1.479 . S
C102 C97 1.245 . S
C102 C98 1.477 . S
C102 H119 0.932 . S
C103 U86 2.882 . S
C103 C97 1.428 . S
C103 O106 1.301 . S
C103 O107 1.282 . S
O104 U86 2.441 . S
O104 C90 1.249 . S
O105 U86 2.420 . S
O105 C90 1.202 . S
O106 U86 2.455 . S
O106 C103 1.301 . S
O107 U86 2.449 . S
O107 C103 1.282 . S
H108 C81 0.931 . S
H109 C83 0.929 . S
H110 C84 0.921 1_565 S
H111 C85 0.931 . S
H112 C92 0.932 . S
H113 C93 0.930 . S
H114 C94 0.930 . S
H115 C96 0.932 . S
H116 C98 0.932 . S
H117 C99 0.929 . S
H118 C100 0.928 . S
H119 C102 0.932 . S
C120 C121 1.264 . S
C120 C125 1.479 . S
C120 C130 1.465 . S
C121 C120 1.264 . S
C121 C123 1.339 . S
C121 H148 0.931 . S
C122 C123 1.395 . S
C122 C124 1.320 . S
C123 C121 1.339 . S
C123 C122 1.395 . S
C123 H149 0.929 . S
C124 C122 1.320 . S
C124 C125 1.405 . S
C124 H150 0.930 . S
C125 C120 1.479 . S
C125 C124 1.405 . S
C125 H151 0.931 . S
U126 O127 2.454 . S
U126 O128 2.458 . S
U126 C129 2.984 . S
U126 C130 2.847 . S
U126 C143 2.882 . S
U126 O144 2.441 . S
U126 O145 2.420 . S
U126 O146 2.455 . S
U126 O147 2.449 . S
O127 U126 2.454 . S
O127 C129 1.353 . S
O128 U126 2.458 . S
O128 C129 1.286 . S
C129 U126 2.984 . S
C129 O127 1.353 . S
C129 O128 1.286 . S
C129 C131 1.363 . S
C130 C120 1.465 . S
C130 U126 2.847 . S
C130 O144 1.249 . S
C130 O145 1.202 . S
C131 C129 1.363 . S
C131 C133 1.408 . S
C131 C136 1.342 . S
C132 C133 1.310 . S
C132 C135 1.461 . S
C132 H152 0.932 . S
C133 C131 1.408 . S
C133 C132 1.310 . S
C133 H153 0.930 . S
C134 C135 1.474 . S
C134 C136 1.285 . S
C134 H154 0.929 . S
C135 C132 1.461 . S
C135 C134 1.474 . S
C136 C131 1.342 . S
C136 C134 1.285 . S
C136 H155 0.930 . S
C137 C140 1.424 . S
C137 C142 1.245 . S
C137 C143 1.428 . S
C138 C141 1.260 . S
C138 C142 1.477 . S
C138 H156 0.932 . S
C139 C140 1.384 . S
C139 C141 1.479 . S
C139 H157 0.929 . S
C140 C137 1.424 . S
C140 C139 1.384 . S
C140 H158 0.928 . S
C141 C138 1.260 . S
C141 C139 1.479 . S
C142 C137 1.245 . S
C142 C138 1.477 . S
C142 H159 0.932 . S
C143 U126 2.882 . S
C143 C137 1.428 . S
C143 O146 1.301 . S
C143 O147 1.282 . S
O144 U126 2.441 . S
O144 C130 1.249 . S
O145 U126 2.420 . S
O145 C130 1.202 . S
O146 U126 2.455 . S
O146 C143 1.301 . S
O147 U126 2.449 . S
O147 C143 1.282 . S
H148 C121 0.931 . S
H149 C123 0.929 . S
H150 C124 0.930 . S
H151 C125 0.931 . S
H152 C132 0.932 . S
H153 C133 0.930 . S
H154 C134 0.929 . S
H155 C136 0.930 . S
H156 C138 0.932 . S
H157 C139 0.929 . S
H158 C140 0.928 . S
H159 C142 0.932 . S
C160 C161 1.264 . S
C160 C165 1.479 . S
C160 C170 1.465 . S
C161 C160 1.264 . S
C161 C163 1.339 . S
C161 H188 0.931 . S
C162 C163 1.395 . S
C162 C164 1.320 . S
C163 C161 1.339 . S
C163 C162 1.395 . S
C163 H189 0.929 . S
C164 C162 1.320 . S
C164 C165 1.405 . S
C164 H190 0.930 . S
C165 C160 1.479 . S
C165 C164 1.405 . S
C165 H191 0.931 . S
U166 O167 2.454 . S
U166 O168 2.458 . S
U166 C169 2.984 . S
U166 C170 2.847 1_554 S
U166 C183 2.882 . S
U166 O184 2.441 1_554 S
U166 O185 2.420 1_554 S
U166 O186 2.455 . S
U166 O187 2.449 . S
O167 U166 2.454 . S
O167 C169 1.353 . S
O168 U166 2.458 . S
O168 C169 1.286 . S
C169 U166 2.984 . S
C169 O167 1.353 . S
C169 O168 1.286 . S
C169 C171 1.363 . S
C170 C160 1.465 . S
C170 U166 2.847 1_556 S
C170 O184 1.249 . S
C170 O185 1.202 . S
C171 C169 1.363 . S
C171 C173 1.408 . S
C171 C176 1.342 . S
C172 C173 1.310 . S
C172 C175 1.461 . S
C172 H192 0.932 . S
C173 C171 1.408 . S
C173 C172 1.310 . S
C173 H193 0.930 1_554 S
C174 C175 1.474 . S
C174 C176 1.285 . S
C174 H194 0.929 . S
C175 C172 1.461 . S
C175 C174 1.474 . S
C176 C171 1.342 . S
C176 C174 1.285 . S
C176 H195 0.930 . S
C177 C180 1.424 . S
C177 C182 1.245 . S
C177 C183 1.428 . S
C178 C181 1.260 . S
C178 C182 1.477 . S
C178 H196 0.932 . S
C179 C180 1.384 . S
C179 C181 1.479 . S
C179 H197 0.929 . S
C180 C177 1.424 . S
C180 C179 1.384 . S
C180 H198 0.928 . S
C181 C178 1.260 . S
C181 C179 1.479 . S
C182 C177 1.245 . S
C182 C178 1.477 . S
C182 H199 0.932 . S
C183 U166 2.882 . S
C183 C177 1.428 . S
C183 O186 1.301 . S
C183 O187 1.282 . S
O184 U166 2.441 1_556 S
O184 C170 1.249 . S
O185 U166 2.420 1_556 S
O185 C170 1.202 . S
O186 U166 2.455 . S
O186 C183 1.301 . S
O187 U166 2.449 . S
O187 C183 1.282 . S
H188 C161 0.931 . S
H189 C163 0.929 . S
H190 C164 0.930 . S
H191 C165 0.931 . S
H192 C172 0.932 . S
H193 C173 0.930 1_556 S
H194 C174 0.929 . S
H195 C176 0.930 . S
H196 C178 0.932 . S
H197 C179 0.929 . S
H198 C180 0.928 . S
H199 C182 0.932 . S
C200 C201 1.264 . S
C200 C205 1.479 . S
C200 C210 1.465 . S
C201 C200 1.264 . S
C201 C203 1.339 . S
C201 H228 0.931 . S
C202 C203 1.395 . S
C202 C204 1.320 . S
C203 C201 1.339 . S
C203 C202 1.395 . S
C203 H229 0.929 . S
C204 C202 1.320 . S
C204 C205 1.405 . S
C204 H230 0.923 1_455 S
C205 C200 1.479 . S
C205 C204 1.405 . S
C205 H231 0.931 . S
U206 O207 2.454 . S
U206 O208 2.458 . S
U206 C209 2.984 . S
U206 C210 2.847 1_554 S
U206 C223 2.882 . S
U206 O224 2.441 1_554 S
U206 O225 2.420 1_554 S
U206 O226 2.455 . S
U206 O227 2.449 . S
O207 U206 2.454 . S
O207 C209 1.353 . S
O208 U206 2.458 . S
O208 C209 1.286 . S
C209 U206 2.984 . S
C209 O207 1.353 . S
C209 O208 1.286 . S
C209 C211 1.363 . S
C210 C200 1.465 . S
C210 U206 2.847 1_556 S
C210 O224 1.249 . S
C210 O225 1.202 . S
C211 C209 1.363 . S
C211 C213 1.408 . S
C211 C216 1.342 . S
C212 C213 1.310 . S
C212 C215 1.462 . S
C212 H232 0.932 . S
C213 C211 1.408 . S
C213 C212 1.310 . S
C213 H233 0.930 1_554 S
C214 C215 1.474 1_655 S
C214 C216 1.286 1_655 S
C214 H234 0.929 . S
C215 C212 1.462 . S
C215 C214 1.474 1_455 S
C216 C211 1.342 . S
C216 C214 1.286 1_455 S
C216 H235 0.934 . S
C217 C220 1.424 . S
C217 C222 1.245 . S
C217 C223 1.428 . S
C218 C221 1.260 . S
C218 C222 1.477 . S
C218 H236 0.932 . S
C219 C220 1.384 . S
C219 C221 1.479 . S
C219 H237 0.929 . S
C220 C217 1.424 . S
C220 C219 1.384 . S
C220 H238 0.928 . S
C221 C218 1.260 . S
C221 C219 1.479 . S
C222 C217 1.245 . S
C222 C218 1.477 . S
C222 H239 0.932 . S
C223 U206 2.882 . S
C223 C217 1.428 . S
C223 O226 1.301 . S
C223 O227 1.282 . S
O224 U206 2.441 1_556 S
O224 C210 1.249 . S
O225 U206 2.420 1_556 S
O225 C210 1.202 . S
O226 U206 2.455 . S
O226 C223 1.301 . S
O227 U206 2.449 . S
O227 C223 1.282 . S
H228 C201 0.931 . S
H229 C203 0.929 . S
H230 C204 0.923 1_655 S
H231 C205 0.931 . S
H232 C212 0.932 . S
H233 C213 0.930 1_556 S
H234 C214 0.929 . S
H235 C216 0.934 . S
H236 C218 0.932 . S
H237 C219 0.929 . S
H238 C220 0.928 . S
H239 C222 0.932 . S
C240 C241 1.264 . S
C240 C245 1.479 . S
C240 C250 1.465 . S
C241 C240 1.264 . S
C241 C243 1.339 . S
C241 H268 0.931 . S
C242 C243 1.395 . S
C242 C244 1.320 . S
C243 C241 1.339 . S
C243 C242 1.395 . S
C243 H269 0.929 . S
C244 C242 1.320 . S
C244 C245 1.405 . S
C244 H270 0.923 1_545 S
C245 C240 1.479 . S
C245 C244 1.405 . S
C245 H271 0.931 . S
U246 O247 2.454 . S
U246 O248 2.458 . S
U246 C249 2.984 . S
U246 C250 2.847 1_554 S
U246 C263 2.882 . S
U246 O264 2.441 1_554 S
U246 O265 2.420 1_554 S
U246 O266 2.455 . S
U246 O267 2.449 . S
O247 U246 2.454 . S
O247 C249 1.353 . S
O248 U246 2.458 . S
O248 C249 1.286 . S
C249 U246 2.984 . S
C249 O247 1.353 . S
C249 O248 1.286 . S
C249 C251 1.363 . S
C250 C240 1.465 . S
C250 U246 2.847 1_556 S
C250 O264 1.249 . S
C250 O265 1.202 . S
C251 C249 1.363 . S
C251 C253 1.408 . S
C251 C256 1.342 . S
C252 C253 1.310 . S
C252 C255 1.462 . S
C252 H272 0.932 . S
C253 C251 1.408 . S
C253 C252 1.310 . S
C253 H273 0.930 1_554 S
C254 C255 1.474 1_565 S
C254 C256 1.286 1_565 S
C254 H274 0.929 . S
C255 C252 1.462 . S
C255 C254 1.474 1_545 S
C256 C251 1.342 . S
C256 C254 1.286 1_545 S
C256 H275 0.934 . S
C257 C260 1.424 . S
C257 C262 1.245 . S
C257 C263 1.428 . S
C258 C261 1.260 . S
C258 C262 1.477 . S
C258 H276 0.932 . S
C259 C260 1.384 . S
C259 C261 1.479 . S
C259 H277 0.929 . S
C260 C257 1.424 . S
C260 C259 1.384 . S
C260 H278 0.928 . S
C261 C258 1.260 . S
C261 C259 1.479 . S
C262 C257 1.245 . S
C262 C258 1.477 . S
C262 H279 0.932 . S
C263 U246 2.882 . S
C263 C257 1.428 . S
C263 O266 1.301 . S
C263 O267 1.282 . S
O264 U246 2.441 1_556 S
O264 C250 1.249 . S
O265 U246 2.420 1_556 S
O265 C250 1.202 . S
O266 U246 2.455 . S
O266 C263 1.301 . S
O267 U246 2.449 . S
O267 C263 1.282 . S
H268 C241 0.931 . S
H269 C243 0.929 . S
H270 C244 0.923 1_565 S
H271 C245 0.931 . S
H272 C252 0.932 . S
H273 C253 0.930 1_556 S
H274 C254 0.929 . S
H275 C256 0.934 . S
H276 C258 0.932 . S
H277 C259 0.929 . S
H278 C260 0.928 . S
H279 C262 0.932 . S
C280 C281 1.264 . S
C280 C285 1.479 . S
C280 C290 1.465 . S
C281 C280 1.264 . S
C281 C283 1.339 . S
C281 H308 0.931 . S
C282 C283 1.395 . S
C282 C284 1.320 . S
C283 C281 1.339 . S
C283 C282 1.395 . S
C283 H309 0.929 . S
C284 C282 1.320 . S
C284 C285 1.405 . S
C284 H310 0.930 . S
C285 C280 1.479 . S
C285 C284 1.405 . S
C285 H311 0.931 . S
U286 O287 2.454 . S
U286 O288 2.458 . S
U286 C289 2.984 . S
U286 C290 2.847 1_554 S
U286 C303 2.882 . S
U286 O304 2.441 1_554 S
U286 O305 2.420 1_554 S
U286 O306 2.455 . S
U286 O307 2.449 . S
O287 U286 2.454 . S
O287 C289 1.353 . S
O288 U286 2.458 . S
O288 C289 1.286 . S
C289 U286 2.984 . S
C289 O287 1.353 . S
C289 O288 1.286 . S
C289 C291 1.363 . S
C290 C280 1.465 . S
C290 U286 2.847 1_556 S
C290 O304 1.249 . S
C290 O305 1.202 . S
C291 C289 1.363 . S
C291 C293 1.408 . S
C291 C296 1.342 . S
C292 C293 1.310 . S
C292 C295 1.461 . S
C292 H312 0.932 . S
C293 C291 1.408 . S
C293 C292 1.310 . S
C293 H313 0.930 1_554 S
C294 C295 1.474 . S
C294 C296 1.285 . S
C294 H314 0.929 . S
C295 C292 1.461 . S
C295 C294 1.474 . S
C296 C291 1.342 . S
C296 C294 1.285 . S
C296 H315 0.930 . S
C297 C300 1.424 . S
C297 C302 1.245 . S
C297 C303 1.428 . S
C298 C301 1.260 . S
C298 C302 1.477 . S
C298 H316 0.932 . S
C299 C300 1.384 . S
C299 C301 1.479 . S
C299 H317 0.929 . S
C300 C297 1.424 . S
C300 C299 1.384 . S
C300 H318 0.928 . S
C301 C298 1.260 . S
C301 C299 1.479 . S
C302 C297 1.245 . S
C302 C298 1.477 . S
C302 H319 0.932 . S
C303 U286 2.882 . S
C303 C297 1.428 . S
C303 O306 1.301 . S
C303 O307 1.282 . S
O304 U286 2.441 1_556 S
O304 C290 1.249 . S
O305 U286 2.420 1_556 S
O305 C290 1.202 . S
O306 U286 2.455 . S
O306 C303 1.301 . S
O307 U286 2.449 . S
O307 C303 1.282 . S
H308 C281 0.931 . S
H309 C283 0.929 . S
H310 C284 0.930 . S
H311 C285 0.931 . S
H312 C292 0.932 . S
H313 C293 0.930 1_556 S
H314 C294 0.929 . S
H315 C296 0.930 . S
H316 C298 0.932 . S
H317 C299 0.929 . S
H318 C300 0.928 . S
H319 C302 0.932 . S
Sm320 C322 2.846 . S
Sm320 O340 2.543 . S
Sm320 O341 2.450 . S
Sm320 O342 2.681 1_565 S
Sm320 O343 2.464 . S
Sm320 O344 2.396 . S
Sm320 O348 2.386 1_455 S
Sm320 O351 2.408 1_565 S
Sm321 C331 2.846 . S
Sm321 O342 2.386 1_655 S
Sm321 O345 2.408 1_545 S
Sm321 O346 2.543 . S
Sm321 O347 2.450 . S
Sm321 O348 2.681 1_545 S
Sm321 O349 2.464 . S
Sm321 O350 2.396 . S
C322 Sm320 2.846 . S
C322 C323 1.506 . S
C322 O340 1.261 . S
C322 O341 1.242 . S
C323 C322 1.506 . S
C323 C324 1.358 . S
C323 C328 1.382 . S
C324 C323 1.358 . S
C324 C325 1.385 . S
C324 H352 0.930 1_455 S
C325 C324 1.385 . S
C325 C326 1.395 . S
C325 H353 0.929 1_455 S
C326 C325 1.395 . S
C326 C327 1.335 . S
C327 C326 1.335 . S
C327 C328 1.398 . S
C327 H354 0.930 . S
C328 C323 1.382 . S
C328 C327 1.398 . S
C328 H355 0.929 . S
C329 O342 1.256 1_565 S
C329 O343 1.278 . S
C330 O344 1.252 1_655 S
C330 O345 1.272 . S
C331 Sm321 2.846 . S
C331 C332 1.506 . S
C331 O346 1.261 . S
C331 O347 1.242 . S
C332 C331 1.506 . S
C332 C333 1.358 . S
C332 C337 1.382 . S
C333 C332 1.358 . S
C333 C334 1.385 . S
C333 H356 0.930 1_655 S
C334 C333 1.385 . S
C334 C335 1.395 . S
C334 H357 0.929 1_655 S
C335 C334 1.395 . S
C335 C336 1.335 . S
C336 C335 1.335 . S
C336 C337 1.398 . S
C336 H358 0.930 . S
C337 C332 1.382 . S
C337 C336 1.398 . S
C337 H359 0.929 . S
C338 O348 1.271 1_545 S
C338 O349 1.251 . S
C339 O350 1.252 1_455 S
C339 O351 1.272 . S
O340 Sm320 2.543 . S
O340 C322 1.261 . S
O341 Sm320 2.450 . S
O341 C322 1.242 . S
O342 Sm320 2.681 1_545 S
O342 Sm321 2.386 1_455 S
O342 C329 1.256 1_545 S
O343 Sm320 2.464 . S
O343 C329 1.278 . S
O344 Sm320 2.396 . S
O344 C330 1.252 1_455 S
O345 Sm321 2.408 1_565 S
O345 C330 1.272 . S
O346 Sm321 2.543 . S
O346 C331 1.261 . S
O347 Sm321 2.450 . S
O347 C331 1.242 . S
O348 Sm320 2.386 1_655 S
O348 Sm321 2.681 1_565 S
O348 C338 1.271 1_565 S
O349 Sm321 2.464 . S
O349 C338 1.251 . S
O350 Sm321 2.396 . S
O350 C339 1.252 1_655 S
O351 Sm320 2.408 1_545 S
O351 C339 1.272 . S
H352 C324 0.930 1_655 S
H353 C325 0.929 1_655 S
H354 C327 0.930 . S
H355 C328 0.929 . S
H356 C333 0.930 1_455 S
H357 C334 0.929 1_455 S
H358 C336 0.930 . S
H359 C337 0.929 . S
Sm360 C362 2.846 . S
Sm360 O380 2.543 . S
Sm360 O381 2.450 . S
Sm360 O382 2.681 . S
Sm360 O383 2.464 . S
Sm360 O384 2.396 . S
Sm360 O388 2.386 1_545 S
Sm360 O391 2.408 . S
Sm361 C371 2.846 . S
Sm361 O382 2.386 1_565 S
Sm361 O385 2.408 . S
Sm361 O386 2.543 . S
Sm361 O387 2.450 . S
Sm361 O388 2.681 . S
Sm361 O389 2.464 . S
Sm361 O390 2.396 . S
C362 Sm360 2.846 . S
C362 C363 1.506 . S
C362 O380 1.261 . S
C362 O381 1.242 . S
C363 C362 1.506 . S
C363 C364 1.358 . S
C363 C368 1.382 . S
C364 C363 1.358 . S
C364 C365 1.385 . S
C364 H392 0.930 1_545 S
C365 C364 1.385 . S
C365 C366 1.395 . S
C365 H393 0.929 1_545 S
C366 C365 1.395 . S
C366 C367 1.335 . S
C367 C366 1.335 . S
C367 C368 1.398 . S
C367 H394 0.930 . S
C368 C363 1.382 . S
C368 C367 1.398 . S
C368 H395 0.929 . S
C369 O382 1.271 . S
C369 O383 1.251 . S
C370 O384 1.252 1_565 S
C370 O385 1.272 . S
C371 Sm361 2.846 . S
C371 C372 1.506 . S
C371 O386 1.261 . S
C371 O387 1.242 . S
C372 C371 1.506 . S
C372 C373 1.358 . S
C372 C377 1.382 . S
C373 C372 1.358 . S
C373 C374 1.385 . S
C373 H396 0.930 1_565 S
C374 C373 1.385 . S
C374 C375 1.395 . S
C374 H397 0.929 1_565 S
C375 C374 1.395 . S
C375 C376 1.335 . S
C376 C375 1.335 . S
C376 C377 1.398 . S
C376 H398 0.930 . S
C377 C372 1.382 . S
C377 C376 1.398 . S
C377 H399 0.929 . S
C378 O388 1.271 . S
C378 O389 1.251 . S
C379 O390 1.252 1_545 S
C379 O391 1.272 . S
O380 Sm360 2.543 . S
O380 C362 1.261 . S
O381 Sm360 2.450 . S
O381 C362 1.242 . S
O382 Sm360 2.681 . S
O382 Sm361 2.386 1_545 S
O382 C369 1.271 . S
O383 Sm360 2.464 . S
O383 C369 1.251 . S
O384 Sm360 2.396 . S
O384 C370 1.252 1_545 S
O385 Sm361 2.408 . S
O385 C370 1.272 . S
O386 Sm361 2.543 . S
O386 C371 1.261 . S
O387 Sm361 2.450 . S
O387 C371 1.242 . S
O388 Sm360 2.386 1_565 S
O388 Sm361 2.681 . S
O388 C378 1.271 . S
O389 Sm361 2.464 . S
O389 C378 1.251 . S
O390 Sm361 2.396 . S
O390 C379 1.252 1_565 S
O391 Sm360 2.408 . S
O391 C379 1.272 . S
H392 C364 0.930 1_565 S
H393 C365 0.929 1_565 S
H394 C367 0.930 . S
H395 C368 0.929 . S
H396 C373 0.930 1_545 S
H397 C374 0.929 1_545 S
H398 C376 0.930 . S
H399 C377 0.929 . S
Sm400 C402 2.846 . S
Sm400 O420 2.543 . S
Sm400 O421 2.450 . S
Sm400 O422 2.681 . S
Sm400 O423 2.464 . S
Sm400 O424 2.396 . S
Sm400 O428 2.386 . S
Sm400 O431 2.408 . S
Sm401 C411 2.846 . S
Sm401 O422 2.386 . S
Sm401 O425 2.408 . S
Sm401 O426 2.543 . S
Sm401 O427 2.450 . S
Sm401 O428 2.681 . S
Sm401 O429 2.464 . S
Sm401 O430 2.396 . S
C402 Sm400 2.846 . S
C402 C403 1.506 . S
C402 O420 1.261 . S
C402 O421 1.242 . S
C403 C402 1.506 . S
C403 C404 1.358 . S
C403 C408 1.382 . S
C404 C403 1.358 . S
C404 C405 1.385 . S
C404 H432 0.930 . S
C405 C404 1.385 . S
C405 C406 1.395 . S
C405 H433 0.929 . S
C406 C405 1.395 . S
C406 C407 1.335 . S
C407 C406 1.335 . S
C407 C408 1.398 . S
C407 H434 0.930 . S
C408 C403 1.382 . S
C408 C407 1.398 . S
C408 H435 0.929 . S
C409 O422 1.271 . S
C409 O423 1.251 . S
C410 O424 1.252 . S
C410 O425 1.272 . S
C411 Sm401 2.846 . S
C411 C412 1.506 . S
C411 O426 1.261 . S
C411 O427 1.242 . S
C412 C411 1.506 . S
C412 C413 1.358 . S
C412 C417 1.382 . S
C413 C412 1.358 . S
C413 C414 1.385 . S
C413 H436 0.930 . S
C414 C413 1.385 . S
C414 C415 1.395 . S
C414 H437 0.929 . S
C415 C414 1.395 . S
C415 C416 1.335 . S
C416 C415 1.335 . S
C416 C417 1.398 . S
C416 H438 0.930 . S
C417 C412 1.382 . S
C417 C416 1.398 . S
C417 H439 0.929 . S
C418 O428 1.271 . S
C418 O429 1.251 . S
C419 O430 1.252 . S
C419 O431 1.272 . S
O420 Sm400 2.543 . S
O420 C402 1.261 . S
O421 Sm400 2.450 . S
O421 C402 1.242 . S
O422 Sm400 2.681 . S
O422 Sm401 2.386 . S
O422 C409 1.271 . S
O423 Sm400 2.464 . S
O423 C409 1.251 . S
O424 Sm400 2.396 . S
O424 C410 1.252 . S
O425 Sm401 2.408 . S
O425 C410 1.272 . S
O426 Sm401 2.543 . S
O426 C411 1.261 . S
O427 Sm401 2.450 . S
O427 C411 1.242 . S
O428 Sm400 2.386 . S
O428 Sm401 2.681 . S
O428 C418 1.271 . S
O429 Sm401 2.464 . S
O429 C418 1.251 . S
O430 Sm401 2.396 . S
O430 C419 1.252 . S
O431 Sm400 2.408 . S
O431 C419 1.272 . S
H432 C404 0.930 . S
H433 C405 0.929 . S
H434 C407 0.930 . S
H435 C408 0.929 . S
H436 C413 0.930 . S
H437 C414 0.929 . S
H438 C416 0.930 . S
H439 C417 0.929 . S
Sm440 C442 2.846 . S
Sm440 O460 2.543 . S
Sm440 O461 2.450 . S
Sm440 O462 2.681 1_655 S
Sm440 O463 2.464 . S
Sm440 O464 2.396 . S
Sm440 O468 2.386 . S
Sm440 O471 2.408 1_655 S
Sm441 C451 2.846 . S
Sm441 O462 2.386 . S
Sm441 O465 2.408 1_455 S
Sm441 O466 2.543 . S
Sm441 O467 2.450 . S
Sm441 O468 2.681 1_455 S
Sm441 O469 2.464 . S
Sm441 O470 2.396 . S
C442 Sm440 2.846 . S
C442 C443 1.506 . S
C442 O460 1.261 . S
C442 O461 1.242 . S
C443 C442 1.506 . S
C443 C444 1.358 . S
C443 C448 1.382 . S
C444 C443 1.358 . S
C444 C445 1.385 . S
C444 H472 0.930 . S
C445 C444 1.385 . S
C445 C446 1.395 . S
C445 H473 0.929 . S
C446 C445 1.395 . S
C446 C447 1.335 . S
C447 C446 1.335 . S
C447 C448 1.398 . S
C447 H474 0.930 . S
C448 C443 1.382 . S
C448 C447 1.398 . S
C448 H475 0.929 . S
C449 O462 1.257 1_655 S
C449 O463 1.275 . S
C450 O464 1.252 . S
C450 O465 1.272 . S
C451 Sm441 2.846 . S
C451 C452 1.506 . S
C451 O466 1.261 . S
C451 O467 1.242 . S
C452 C451 1.506 . S
C452 C453 1.358 . S
C452 C457 1.382 . S
C453 C452 1.358 . S
C453 C454 1.385 . S
C453 H476 0.930 . S
C454 C453 1.385 . S
C454 C455 1.395 . S
C454 H477 0.929 . S
C455 C454 1.395 . S
C455 C456 1.335 . S
C456 C455 1.335 . S
C456 C457 1.398 . S
C456 H478 0.930 . S
C457 C452 1.382 . S
C457 C456 1.398 . S
C457 H479 0.929 . S
C458 O468 1.271 1_455 S
C458 O469 1.251 . S
C459 O470 1.252 . S
C459 O471 1.272 . S
O460 Sm440 2.543 . S
O460 C442 1.261 . S
O461 Sm440 2.450 . S
O461 C442 1.242 . S
O462 Sm440 2.681 1_455 S
O462 Sm441 2.386 . S
O462 C449 1.257 1_455 S
O463 Sm440 2.464 . S
O463 C449 1.275 . S
O464 Sm440 2.396 . S
O464 C450 1.252 . S
O465 Sm441 2.408 1_655 S
O465 C450 1.272 . S
O466 Sm441 2.543 . S
O466 C451 1.261 . S
O467 Sm441 2.450 . S
O467 C451 1.242 . S
O468 Sm440 2.386 . S
O468 Sm441 2.681 1_655 S
O468 C458 1.271 1_655 S
O469 Sm441 2.464 . S
O469 C458 1.251 . S
O470 Sm441 2.396 . S
O470 C459 1.252 . S
O471 Sm440 2.408 1_455 S
O471 C459 1.272 . S
H472 C444 0.930 . S
H473 C445 0.929 . S
H474 C447 0.930 . S
H475 C448 0.929 . S
H476 C453 0.930 . S
H477 C454 0.929 . S
H478 C456 0.930 . S
H479 C457 0.929 . S
H480 C486 0.930 . S
H481 C490 0.930 . S
H482 C495 0.929 . S
H483 C493 0.929 . S
H484 C488 0.929 . S
H485 C494 0.929 . S
C486 H480 0.930 . S
C486 C487 1.396 . S
C486 C494 1.378 . S
C487 C486 1.396 . S
C487 C495 1.405 1_545 S
C488 H484 0.929 . S
C488 C490 1.378 . S
C488 C492 1.340 1_565 S
C489 C492 1.463 . S
C489 C494 1.350 . S
C489 N497 1.427 1_545 S
C490 H481 0.930 . S
C490 C488 1.378 . S
C490 C491 1.332 1_565 S
C491 C490 1.332 1_545 S
C491 C493 1.469 . S
C492 C488 1.340 1_545 S
C492 C489 1.463 . S
C492 N496 1.437 . S
C493 H483 0.929 . S
C493 C491 1.469 . S
C493 N496 1.384 . S
C494 H485 0.929 . S
C494 C486 1.378 . S
C494 C489 1.350 . S
C495 H482 0.929 . S
C495 C487 1.405 1_565 S
C495 N497 1.384 . S
N496 C492 1.437 . S
N496 C493 1.384 . S
N497 C489 1.427 1_565 S
N497 C495 1.384 . S
H498 C504 0.930 . S
H499 C508 0.930 . S
H500 C513 0.929 . S
H501 C511 0.929 . S
H502 C506 0.929 . S
H503 C512 0.929 . S
C504 H498 0.930 . S
C504 C505 1.367 . S
C504 C512 1.378 . S
C505 C504 1.367 . S
C505 C513 1.433 . S
C506 H502 0.929 . S
C506 C508 1.378 . S
C506 C510 1.350 . S
C507 C510 1.463 . S
C507 C512 1.350 . S
C507 N515 1.427 . S
C508 H499 0.930 . S
C508 C506 1.378 . S
C508 C509 1.367 . S
C509 C508 1.367 . S
C509 C511 1.433 . S
C510 C506 1.350 . S
C510 C507 1.463 . S
C510 N514 1.427 . S
C511 H501 0.929 . S
C511 C509 1.433 . S
C511 N514 1.384 . S
C512 H503 0.929 . S
C512 C504 1.378 . S
C512 C507 1.350 . S
C513 H500 0.929 . S
C513 C505 1.433 . S
C513 N515 1.384 . S
N514 C510 1.427 . S
N514 C511 1.384 . S
N515 C507 1.427 . S
N515 C513 1.384 . S
H516 C522 0.930 . S
H517 C526 0.930 . S
H518 C531 0.929 . S
H519 C529 0.929 . S
H520 C524 0.929 . S
H521 C530 0.929 . S
C522 H516 0.930 . S
C522 C523 1.367 . S
C522 C530 1.378 . S
C523 C522 1.367 . S
C523 C531 1.433 . S
C524 H520 0.929 . S
C524 C526 1.378 . S
C524 C528 1.350 . S
C525 C528 1.463 . S
C525 C530 1.350 . S
C525 N533 1.427 . S
C526 H517 0.930 . S
C526 C524 1.378 . S
C526 C527 1.367 . S
C527 C526 1.367 . S
C527 C529 1.433 . S
C528 C524 1.350 . S
C528 C525 1.463 . S
C528 N532 1.427 . S
C529 H519 0.929 . S
C529 C527 1.433 . S
C529 N532 1.384 . S
C530 H521 0.929 . S
C530 C522 1.378 . S
C530 C525 1.350 . S
C531 H518 0.929 . S
C531 C523 1.433 . S
C531 N533 1.384 . S
N532 C528 1.427 . S
N532 C529 1.384 . S
N533 C525 1.427 . S
N533 C531 1.384 . S
H534 C540 0.930 . S
H535 C544 0.930 . S
H536 C549 0.929 . S
H537 C547 0.929 . S
H538 C542 0.929 . S
H539 C548 0.929 . S
C540 H534 0.930 . S
C540 C541 1.370 1_655 S
C540 C548 1.378 . S
C541 C540 1.370 1_455 S
C541 C549 1.430 . S
C542 H538 0.929 . S
C542 C544 1.378 . S
C542 C546 1.350 . S
C543 C546 1.463 . S
C543 C548 1.344 1_455 S
C543 N551 1.433 . S
C544 H535 0.930 . S
C544 C542 1.378 . S
C544 C545 1.367 . S
C545 C544 1.367 . S
C545 C547 1.433 1_455 S
C546 C542 1.350 . S
C546 C543 1.463 . S
C546 N550 1.427 1_455 S
C547 H537 0.929 . S
C547 C545 1.433 1_655 S
C547 N550 1.384 . S
C548 H539 0.929 . S
C548 C540 1.378 . S
C548 C543 1.344 1_655 S
C549 H536 0.929 . S
C549 C541 1.430 . S
C549 N551 1.384 . S
N550 C546 1.427 1_655 S
N550 C547 1.384 . S
N551 C543 1.433 . S
N551 C549 1.384 . S
H552 C558 0.930 . S
H553 C562 0.930 . S
H554 C567 0.929 . S
H555 C565 0.929 . S
H556 C560 0.929 . S
H557 C566 0.929 . S
C558 H552 0.930 . S
C558 C559 1.370 . S
C558 C566 1.378 . S
C559 C558 1.370 . S
C559 C567 1.430 1_545 S
C560 H556 0.929 . S
C560 C562 1.378 . S
C560 C564 1.350 . S
C561 C564 1.462 1_554 S
C561 C566 1.353 1_565 S
C561 N569 1.424 . S
C562 H553 0.930 . S
C562 C560 1.378 . S
C562 C563 1.367 . S
C563 C562 1.367 . S
C563 C565 1.433 1_565 S
C564 C560 1.350 . S
C564 C561 1.462 1_556 S
C564 N568 1.427 1_565 S
C565 H555 0.929 . S
C565 C563 1.433 1_545 S
C565 N568 1.384 . S
C566 H557 0.929 . S
C566 C558 1.378 . S
C566 C561 1.353 1_545 S
C567 H554 0.929 . S
C567 C559 1.430 1_565 S
C567 N569 1.384 . S
N568 C564 1.427 1_545 S
N568 C565 1.384 . S
N569 C561 1.424 . S
N569 C567 1.384 . S
H570 C576 0.930 . S
H571 C580 0.930 . S
H572 C585 0.929 . S
H573 C583 0.929 . S
H574 C578 0.929 . S
H575 C584 0.929 . S
C576 H570 0.930 . S
C576 C577 1.367 . S
C576 C584 1.378 . S
C577 C576 1.367 . S
C577 C585 1.433 . S
C578 H574 0.929 . S
C578 C580 1.378 . S
C578 C582 1.350 . S
C579 C582 1.463 1_554 S
C579 C584 1.350 . S
C579 N587 1.427 . S
C580 H571 0.930 . S
C580 C578 1.378 . S
C580 C581 1.367 . S
C581 C580 1.367 . S
C581 C583 1.433 . S
C582 C578 1.350 . S
C582 C579 1.463 1_556 S
C582 N586 1.427 . S
C583 H573 0.929 . S
C583 C581 1.433 . S
C583 N586 1.384 . S
C584 H575 0.929 . S
C584 C576 1.378 . S
C584 C579 1.350 . S
C585 H572 0.929 . S
C585 C577 1.433 . S
C585 N587 1.384 . S
N586 C582 1.427 . S
N586 C583 1.384 . S
N587 C579 1.427 . S
N587 C585 1.384 . S
H588 C594 0.930 . S
H589 C598 0.930 . S
H590 C603 0.929 . S
H591 C601 0.929 . S
H592 C596 0.929 . S
H593 C602 0.929 . S
C594 H588 0.930 . S
C594 C595 1.367 . S
C594 C602 1.378 . S
C595 C594 1.367 . S
C595 C603 1.433 . S
C596 H592 0.929 . S
C596 C598 1.378 . S
C596 C600 1.350 . S
C597 C600 1.463 1_554 S
C597 C602 1.350 . S
C597 N605 1.427 . S
C598 H589 0.930 . S
C598 C596 1.378 . S
C598 C599 1.367 . S
C599 C598 1.367 . S
C599 C601 1.433 . S
C600 C596 1.350 . S
C600 C597 1.463 1_556 S
C600 N604 1.427 . S
C601 H591 0.929 . S
C601 C599 1.433 . S
C601 N604 1.384 . S
C602 H593 0.929 . S
C602 C594 1.378 . S
C602 C597 1.350 . S
C603 H590 0.929 . S
C603 C595 1.433 . S
C603 N605 1.384 . S
N604 C600 1.427 . S
N604 C601 1.384 . S
N605 C597 1.427 . S
N605 C603 1.384 . S
H606 C612 0.930 . S
H607 C616 0.930 . S
H608 C621 0.929 . S
H609 C619 0.929 . S
H610 C614 0.937 . S
H611 C620 0.929 . S
C612 H606 0.930 . S
C612 C613 1.365 1_455 S
C612 C620 1.378 . S
C613 C612 1.365 1_655 S
C613 C621 1.435 . S
C614 H610 0.937 . S
C614 C616 1.378 . S
C614 C618 1.350 . S
C615 C618 1.463 1_554 S
C615 C620 1.343 1_655 S
C615 N623 1.435 . S
C616 H607 0.930 . S
C616 C614 1.378 . S
C616 C617 1.367 . S
C617 C616 1.367 . S
C617 C619 1.433 1_655 S
C618 C614 1.350 . S
C618 C615 1.463 1_556 S
C618 N622 1.427 1_655 S
C619 H609 0.929 . S
C619 C617 1.433 1_455 S
C619 N622 1.384 . S
C620 H611 0.929 . S
C620 C612 1.378 . S
C620 C615 1.343 1_455 S
C621 H608 0.929 . S
C621 C613 1.435 . S
C621 N623 1.384 . S
N622 C618 1.427 1_455 S
N622 C619 1.384 . S
N623 C615 1.435 . S
N623 C621 1.384 . S
H624 C630 0.935 . S
H625 C634 0.930 . S
H626 C639 0.929 . S
H627 C637 0.929 . S
H628 C632 0.929 . S
H629 C638 0.929 . S
C630 H624 0.935 . S
C630 C631 1.368 . S
C630 C638 1.372 1_455 S
C631 C630 1.368 . S
C631 C639 1.433 1_455 S
C632 H628 0.929 . S
C632 C634 1.378 . S
C632 C636 1.350 . S
C633 C636 1.463 . S
C633 C638 1.350 . S
C633 N641 1.427 . S
C634 H625 0.930 . S
C634 C632 1.378 . S
C634 C635 1.367 . S
C635 C634 1.367 . S
C635 C637 1.433 . S
C636 C632 1.350 . S
C636 C633 1.463 . S
C636 N640 1.427 . S
C637 H627 0.929 . S
C637 C635 1.433 . S
C637 N640 1.384 . S
C638 H629 0.929 . S
C638 C630 1.372 1_655 S
C638 C633 1.350 . S
C639 H626 0.929 . S
C639 C631 1.433 1_655 S
C639 N641 1.384 . S
N640 C636 1.427 . S
N640 C637 1.384 . S
N641 C633 1.427 . S
N641 C639 1.384 . S
H642 C648 0.930 . S
H643 C652 0.930 . S
H644 C657 0.929 . S
H645 C655 0.929 . S
H646 C650 0.929 . S
H647 C656 0.926 1_545 S
C648 H642 0.930 . S
C648 C649 1.367 . S
C648 C656 1.378 1_545 S
C649 C648 1.367 . S
C649 C657 1.433 1_545 S
C650 H646 0.929 . S
C650 C652 1.378 . S
C650 C654 1.350 . S
C651 C654 1.463 . S
C651 C656 1.350 . S
C651 N659 1.427 . S
C652 H643 0.930 . S
C652 C650 1.378 . S
C652 C653 1.367 . S
C653 C652 1.367 . S
C653 C655 1.433 . S
C654 C650 1.350 . S
C654 C651 1.463 . S
C654 N658 1.427 . S
C655 H645 0.929 . S
C655 C653 1.433 . S
C655 N658 1.384 . S
C656 H647 0.926 1_565 S
C656 C648 1.378 1_565 S
C656 C651 1.350 . S
C657 H644 0.929 . S
C657 C649 1.433 1_565 S
C657 N659 1.384 . S
N658 C654 1.427 . S
N658 C655 1.384 . S
N659 C651 1.427 . S
N659 C657 1.384 . S
H660 C666 0.930 . S
H661 C670 0.930 . S
H662 C675 0.929 . S
H663 C673 0.929 . S
H664 C668 0.929 . S
H665 C674 0.929 . S
C666 H660 0.930 . S
C666 C667 1.367 . S
C666 C674 1.378 . S
C667 C666 1.367 . S
C667 C675 1.433 . S
C668 H664 0.929 . S
C668 C670 1.378 . S
C668 C672 1.350 . S
C669 C672 1.463 . S
C669 C674 1.350 . S
C669 N677 1.427 . S
C670 H661 0.930 . S
C670 C668 1.378 . S
C670 C671 1.367 . S
C671 C670 1.367 . S
C671 C673 1.433 . S
C672 C668 1.350 . S
C672 C669 1.463 . S
C672 N676 1.427 . S
C673 H663 0.929 . S
C673 C671 1.433 . S
C673 N676 1.384 . S
C674 H665 0.929 . S
C674 C666 1.378 . S
C674 C669 1.350 . S
C675 H662 0.929 . S
C675 C667 1.433 . S
C675 N677 1.384 . S
N676 C672 1.427 . S
N676 C673 1.384 . S
N677 C669 1.427 . S
N677 C675 1.384 . S
H678 C684 0.930 . S
H679 C688 0.930 . S
H680 C693 0.929 . S
H681 C691 0.929 . S
H682 C686 0.929 . S
H683 C692 0.929 . S
C684 H678 0.930 . S
C684 C685 1.367 . S
C684 C692 1.378 . S
C685 C684 1.367 . S
C685 C693 1.433 . S
C686 H682 0.929 . S
C686 C688 1.378 . S
C686 C690 1.350 . S
C687 C690 1.463 . S
C687 C692 1.350 . S
C687 N695 1.427 . S
C688 H679 0.930 . S
C688 C686 1.378 . S
C688 C689 1.367 . S
C689 C688 1.367 . S
C689 C691 1.433 . S
C690 C686 1.350 . S
C690 C687 1.463 . S
C690 N694 1.427 . S
C691 H681 0.929 . S
C691 C689 1.433 . S
C691 N694 1.384 . S
C692 H683 0.929 . S
C692 C684 1.378 . S
C692 C687 1.350 . S
C693 H680 0.929 . S
C693 C685 1.433 . S
C693 N695 1.384 . S
N694 C690 1.427 . S
N694 C691 1.384 . S
N695 C687 1.427 . S
N695 C693 1.384 . S
H696 C702 0.930 . S
H697 C706 0.930 . S
H698 C711 0.929 . S
H699 C709 0.929 1_554 S
H700 C704 0.939 . S
H701 C710 0.929 . S
C702 H696 0.930 . S
C702 C703 1.367 1_455 S
C702 C710 1.378 . S
C703 C702 1.367 1_655 S
C703 C711 1.433 1_554 S
C704 H700 0.939 . S
C704 C706 1.378 . S
C704 C708 1.350 . S
C705 C708 1.463 1_554 S
C705 C710 1.350 . S
C705 N713 1.427 1_454 S
C706 H697 0.930 . S
C706 C704 1.378 . S
C706 C707 1.367 . S
C707 C706 1.367 . S
C707 C709 1.433 . S
C708 C704 1.350 . S
C708 C705 1.463 1_556 S
C708 N712 1.427 1_556 S
C709 H699 0.929 1_556 S
C709 C707 1.433 . S
C709 N712 1.384 1_556 S
C710 H701 0.929 . S
C710 C702 1.378 . S
C710 C705 1.350 . S
C711 H698 0.929 . S
C711 C703 1.433 1_556 S
C711 N713 1.384 . S
N712 C708 1.427 1_554 S
N712 C709 1.384 1_554 S
N713 C705 1.427 1_656 S
N713 C711 1.384 . S
H714 C720 0.930 . S
H715 C724 0.930 . S
H716 C729 0.929 . S
H717 C727 0.929 . S
H718 C722 0.929 . S
H719 C728 0.929 . S
C720 H714 0.930 . S
C720 C721 1.367 . S
C720 C728 1.378 . S
C721 C720 1.367 . S
C721 C729 1.433 1_565 S
C722 H718 0.929 . S
C722 C724 1.378 . S
C722 C726 1.350 . S
C723 C726 1.463 1_554 S
C723 C728 1.350 1_545 S
C723 N731 1.427 . S
C724 H715 0.930 . S
C724 C722 1.378 . S
C724 C725 1.367 . S
C725 C724 1.367 . S
C725 C727 1.433 . S
C726 C722 1.350 . S
C726 C723 1.463 1_556 S
C726 N730 1.427 . S
C727 H717 0.929 . S
C727 C725 1.433 . S
C727 N730 1.384 . S
C728 H719 0.929 . S
C728 C720 1.378 . S
C728 C723 1.350 1_565 S
C729 H716 0.929 . S
C729 C721 1.433 1_545 S
C729 N731 1.384 . S
N730 C726 1.427 . S
N730 C727 1.384 . S
N731 C723 1.427 . S
N731 C729 1.384 . S
H732 C738 0.930 . S
H733 C742 0.930 . S
H734 C747 0.929 . S
H735 C745 0.929 1_554 S
H736 C740 0.929 . S
H737 C746 0.929 . S
C738 H732 0.930 . S
C738 C739 1.367 . S
C738 C746 1.378 . S
C739 C738 1.367 . S
C739 C747 1.433 1_554 S
C740 H736 0.929 . S
C740 C742 1.378 . S
C740 C744 1.350 . S
C741 C744 1.463 1_554 S
C741 C746 1.350 . S
C741 N749 1.427 1_554 S
C742 H733 0.930 . S
C742 C740 1.378 . S
C742 C743 1.367 . S
C743 C742 1.367 . S
C743 C745 1.433 . S
C744 C740 1.350 . S
C744 C741 1.463 1_556 S
C744 N748 1.427 1_556 S
C745 H735 0.929 1_556 S
C745 C743 1.433 . S
C745 N748 1.384 1_556 S
C746 H737 0.929 . S
C746 C738 1.378 . S
C746 C741 1.350 . S
C747 H734 0.929 . S
C747 C739 1.433 1_556 S
C747 N749 1.384 . S
N748 C744 1.427 1_554 S
N748 C745 1.384 1_554 S
N749 C741 1.427 1_556 S
N749 C747 1.384 . S
H750 C756 0.930 . S
H751 C760 0.930 . S
H752 C765 0.929 . S
H753 C763 0.929 1_554 S
H754 C758 0.929 . S
H755 C764 0.929 . S
C756 H750 0.930 . S
C756 C757 1.367 . S
C756 C764 1.378 . S
C757 C756 1.367 . S
C757 C765 1.433 1_554 S
C758 H754 0.929 . S
C758 C760 1.378 . S
C758 C762 1.350 . S
C759 C762 1.463 1_554 S
C759 C764 1.350 . S
C759 N767 1.427 1_554 S
C760 H751 0.930 . S
C760 C758 1.378 . S
C760 C761 1.367 . S
C761 C760 1.367 . S
C761 C763 1.433 . S
C762 C758 1.350 . S
C762 C759 1.463 1_556 S
C762 N766 1.427 1_556 S
C763 H753 0.929 1_556 S
C763 C761 1.433 . S
C763 N766 1.384 1_556 S
C764 H755 0.929 . S
C764 C756 1.378 . S
C764 C759 1.350 . S
C765 H752 0.929 . S
C765 C757 1.433 1_556 S
C765 N767 1.384 . S
N766 C762 1.427 1_554 S
N766 C763 1.384 1_554 S
N767 C759 1.427 1_556 S
N767 C765 1.384 . S
H768 C774 0.930 . S
H769 C778 0.930 . S
H770 C783 0.929 . S
H771 C781 0.929 . S
H772 C776 0.929 . S
H773 C782 0.929 . S
C774 H768 0.930 . S
C774 C775 1.367 1_655 S
C774 C782 1.378 . S
C775 C774 1.367 1_455 S
C775 C783 1.433 . S
C776 H772 0.929 . S
C776 C778 1.378 . S
C776 C780 1.350 . S
C777 C780 1.463 . S
C777 C782 1.350 1_455 S
C777 N785 1.427 . S
C778 H769 0.930 . S
C778 C776 1.378 . S
C778 C779 1.367 . S
C779 C778 1.367 . S
C779 C781 1.433 1_455 S
C780 C776 1.350 . S
C780 C777 1.463 . S
C780 N784 1.427 1_455 S
C781 H771 0.929 . S
C781 C779 1.433 1_655 S
C781 N784 1.384 . S
C782 H773 0.929 . S
C782 C774 1.378 . S
C782 C777 1.350 1_655 S
C783 H770 0.929 . S
C783 C775 1.433 . S
C783 N785 1.384 . S
N784 C780 1.427 1_655 S
N784 C781 1.384 . S
N785 C777 1.427 . S
N785 C783 1.384 . S
H786 C792 0.930 . S
H787 C796 0.930 . S
H788 C801 0.929 . S
H789 C799 0.929 . S
H790 C794 0.929 . S
H791 C800 0.929 . S
C792 H786 0.930 . S
C792 C793 1.367 . S
C792 C800 1.378 . S
C793 C792 1.367 . S
C793 C801 1.433 1_545 S
C794 H790 0.929 . S
C794 C796 1.378 . S
C794 C798 1.350 1_565 S
C795 C798 1.463 . S
C795 C800 1.350 . S
C795 N803 1.427 1_545 S
C796 H787 0.930 . S
C796 C794 1.378 . S
C796 C797 1.367 1_565 S
C797 C796 1.367 1_545 S
C797 C799 1.433 . S
C798 C794 1.350 1_545 S
C798 C795 1.463 . S
C798 N802 1.427 . S
C799 H789 0.929 . S
C799 C797 1.433 . S
C799 N802 1.384 . S
C800 H791 0.929 . S
C800 C792 1.378 . S
C800 C795 1.350 . S
C801 H788 0.929 . S
C801 C793 1.433 1_565 S
C801 N803 1.384 . S
N802 C798 1.427 . S
N802 C799 1.384 . S
N803 C795 1.427 1_565 S
N803 C801 1.384 . S
H804 C810 0.930 . S
H805 C814 0.930 . S
H806 C819 0.929 . S
H807 C817 0.929 . S
H808 C812 0.929 . S
H809 C818 0.929 . S
C810 H804 0.930 . S
C810 C811 1.367 . S
C810 C818 1.378 . S
C811 C810 1.367 . S
C811 C819 1.433 . S
C812 H808 0.929 . S
C812 C814 1.378 . S
C812 C816 1.350 . S
C813 C816 1.463 . S
C813 C818 1.350 . S
C813 N821 1.427 . S
C814 H805 0.930 . S
C814 C812 1.378 . S
C814 C815 1.367 . S
C815 C814 1.367 . S
C815 C817 1.433 . S
C816 C812 1.350 . S
C816 C813 1.463 . S
C816 N820 1.427 . S
C817 H807 0.929 . S
C817 C815 1.433 . S
C817 N820 1.384 . S
C818 H809 0.929 . S
C818 C810 1.378 . S
C818 C813 1.350 . S
C819 H806 0.929 . S
C819 C811 1.433 . S
C819 N821 1.384 . S
N820 C816 1.427 . S
N820 C817 1.384 . S
N821 C813 1.427 . S
N821 C819 1.384 . S
H822 C828 0.930 . S
H823 C832 0.930 . S
H824 C837 0.929 . S
H825 C835 0.929 . S
H826 C830 0.929 . S
H827 C836 0.929 . S
C828 H822 0.930 . S
C828 C829 1.367 . S
C828 C836 1.378 . S
C829 C828 1.367 . S
C829 C837 1.433 . S
C830 H826 0.929 . S
C830 C832 1.378 . S
C830 C834 1.350 . S
C831 C834 1.463 . S
C831 C836 1.350 . S
C831 N839 1.427 . S
C832 H823 0.930 . S
C832 C830 1.378 . S
C832 C833 1.367 . S
C833 C832 1.367 . S
C833 C835 1.433 . S
C834 C830 1.350 . S
C834 C831 1.463 . S
C834 N838 1.427 . S
C835 H825 0.929 . S
C835 C833 1.433 . S
C835 N838 1.384 . S
C836 H827 0.929 . S
C836 C828 1.378 . S
C836 C831 1.350 . S
C837 H824 0.929 . S
C837 C829 1.433 . S
C837 N839 1.384 . S
N838 C834 1.427 . S
N838 C835 1.384 . S
N839 C831 1.427 . S
N839 C837 1.384 . S
H840 C846 0.930 . S
H841 C850 0.930 . S
H842 C855 0.929 . S
H843 C853 0.929 . S
H844 C848 0.917 1_455 S
H845 C854 0.929 . S
C846 H840 0.930 . S
C846 C847 1.367 . S
C846 C854 1.378 . S
C847 C846 1.367 . S
C847 C855 1.433 1_655 S
C848 H844 0.917 1_655 S
C848 C850 1.378 . S
C848 C852 1.350 . S
C849 C852 1.463 . S
C849 C854 1.350 . S
C849 N857 1.427 1_655 S
C850 H841 0.930 . S
C850 C848 1.378 . S
C850 C851 1.367 . S
C851 C850 1.367 . S
C851 C853 1.433 . S
C852 C848 1.350 . S
C852 C849 1.463 . S
C852 N856 1.427 . S
C853 H843 0.929 . S
C853 C851 1.433 . S
C853 N856 1.384 . S
C854 H845 0.929 . S
C854 C846 1.378 . S
C854 C849 1.350 . S
C855 H842 0.929 . S
C855 C847 1.433 1_455 S
C855 N857 1.384 . S
N856 C852 1.427 . S
N856 C853 1.384 . S
N857 C849 1.427 1_455 S
N857 C855 1.384 . S
H858 C864 0.930 . S
H859 C868 0.930 . S
H860 C873 0.929 . S
H861 C871 0.929 . S
H862 C866 0.929 . S
H863 C872 0.929 . S
C864 H858 0.930 . S
C864 C865 1.367 . S
C864 C872 1.378 . S
C865 C864 1.367 . S
C865 C873 1.433 1_565 S
C866 H862 0.929 . S
C866 C868 1.378 . S
C866 C870 1.350 1_545 S
C867 C870 1.463 . S
C867 C872 1.350 . S
C867 N875 1.427 1_565 S
C868 H859 0.930 . S
C868 C866 1.378 . S
C868 C869 1.367 1_545 S
C869 C868 1.367 1_565 S
C869 C871 1.433 . S
C870 C866 1.350 1_565 S
C870 C867 1.463 . S
C870 N874 1.427 . S
C871 H861 0.929 . S
C871 C869 1.433 . S
C871 N874 1.384 . S
C872 H863 0.929 . S
C872 C864 1.378 . S
C872 C867 1.350 . S
C873 H860 0.929 . S
C873 C865 1.433 1_545 S
C873 N875 1.384 . S
N874 C870 1.427 . S
N874 C871 1.384 . S
N875 C867 1.427 1_545 S
N875 C873 1.384 . S
H876 C882 0.930 . S
H877 C886 0.930 . S
H878 C891 0.929 . S
H879 C889 0.929 . S
H880 C884 0.929 . S
H881 C890 0.929 . S
C882 H876 0.930 . S
C882 C883 1.367 . S
C882 C890 1.378 . S
C883 C882 1.367 . S
C883 C891 1.433 . S
C884 H880 0.929 . S
C884 C886 1.378 . S
C884 C888 1.350 . S
C885 C888 1.463 . S
C885 C890 1.350 . S
C885 N893 1.427 . S
C886 H877 0.930 . S
C886 C884 1.378 . S
C886 C887 1.367 . S
C887 C886 1.367 . S
C887 C889 1.433 . S
C888 C884 1.350 . S
C888 C885 1.463 . S
C888 N892 1.427 . S
C889 H879 0.929 . S
C889 C887 1.433 . S
C889 N892 1.384 . S
C890 H881 0.929 . S
C890 C882 1.378 . S
C890 C885 1.350 . S
C891 H878 0.929 . S
C891 C883 1.433 . S
C891 N893 1.384 . S
N892 C888 1.427 . S
N892 C889 1.384 . S
N893 C885 1.427 . S
N893 C891 1.384 . S
H894 C900 0.930 . S
H895 C904 0.930 . S
H896 C909 0.929 . S
H897 C907 0.929 . S
H898 C902 0.929 . S
H899 C908 0.929 . S
C900 H894 0.930 . S
C900 C901 1.367 . S
C900 C908 1.378 . S
C901 C900 1.367 . S
C901 C909 1.433 . S
C902 H898 0.929 . S
C902 C904 1.378 . S
C902 C906 1.350 . S
C903 C906 1.463 . S
C903 C908 1.350 . S
C903 N911 1.427 . S
C904 H895 0.930 . S
C904 C902 1.378 . S
C904 C905 1.367 . S
C905 C904 1.367 . S
C905 C907 1.433 . S
C906 C902 1.350 . S
C906 C903 1.463 . S
C906 N910 1.427 . S
C907 H897 0.929 . S
C907 C905 1.433 . S
C907 N910 1.384 . S
C908 H899 0.929 . S
C908 C900 1.378 . S
C908 C903 1.350 . S
C909 H896 0.929 . S
C909 C901 1.433 . S
C909 N911 1.384 . S
N910 C906 1.427 . S
N910 C907 1.384 . S
N911 C903 1.427 . S
N911 C909 1.384 . S
C487 C255 2.241 . S
C491 C329 2.432 1_545 S
C509 C369 2.438 . S
C505 C295 2.229 . S
C527 C409 2.441 . S
C523 C175 2.244 . S
C545 C449 2.440 1_455 S
C541 C215 2.245 . S
C563 C338 2.442 1_565 S
C559 C95 2.249 . S
C577 C135 2.235 . S
C581 C378 2.445 . S
C595 C15 2.248 . S
C599 C418 2.443 . S
C613 C55 2.232 1_655 S
C617 C458 2.439 1_655 S
C635 C335 0.445 . S
C631 C221 0.404 . S
C653 C375 0.452 . S
C649 C261 0.410 . S
C671 C415 0.433 . S
C667 C301 0.440 . S
C685 C181 0.424 . S
C689 C455 0.418 . S
C703 C61 0.498 1_655 S
C707 C326 0.427 . S
C725 C366 0.468 . S
C721 C101 0.536 1_565 S
C743 C406 0.438 . S
C739 C141 0.503 . S
C757 C21 0.496 . S
C761 C446 0.432 . S
C775 C202 3.148 . S
C779 C339 3.500 . S
C793 C242 3.144 . S
C797 C379 3.498 . S
C815 C419 3.497 . S
C811 C282 3.143 . S
C833 C459 3.502 . S
C829 C162 3.135 . S
C847 C42 3.161 1_655 S
C851 C330 3.510 . S
C869 C370 3.500 . S
C865 C82 3.165 1_565 S
C887 C410 3.502 . S
C883 C122 3.165 . S
C901 C2 3.159 . S
C905 C450 3.509 . S
