# Generated by pormake.
# Topology pyr, (3,6)-cn, num edge types: 1
# Building blocks:
#     Node 0, Type 0, BuildingBlock: WUSLED_clean_sbu_0, # of connection points: 3
#     Node 1, Type 0, BuildingBlock: WUSLED_clean_sbu_0, # of connection points: 3
#     Node 2, Type 0, BuildingBlock: WUSLED_clean_sbu_0, # of connection points: 3
#     Node 3, Type 0, BuildingBlock: WUSLED_clean_sbu_0, # of connection points: 3
#     Node 4, Type 0, BuildingBlock: WUSLED_clean_sbu_0, # of connection points: 3
#     Node 5, Type 0, BuildingBlock: WUSLED_clean_sbu_0, # of connection points: 3
#     Node 6, Type 0, BuildingBlock: WUSLED_clean_sbu_0, # of connection points: 3
#     Node 7, Type 0, BuildingBlock: WUSLED_clean_sbu_0, # of connection points: 3
#     Node 8, Type 1, BuildingBlock: VOLQOD_clean_sbu_1, # of connection points: 6
#     Node 9, Type 1, BuildingBlock: VOLQOD_clean_sbu_1, # of connection points: 6
#     Node 10, Type 1, BuildingBlock: VOLQOD_clean_sbu_1, # of connection points: 6
#     Node 11, Type 1, BuildingBlock: VOLQOD_clean_sbu_1, # of connection points: 6
#     Edge 12, Type (0, 1), BuildingBlock: MIFKUJ_clean_linker_0, # of connection points: 2
#     Edge 13, Type (0, 1), BuildingBlock: MIFKUJ_clean_linker_0, # of connection points: 2
#     Edge 14, Type (0, 1), BuildingBlock: MIFKUJ_clean_linker_0, # of connection points: 2
#     Edge 15, Type (0, 1), BuildingBlock: MIFKUJ_clean_linker_0, # of connection points: 2
#     Edge 16, Type (0, 1), BuildingBlock: MIFKUJ_clean_linker_0, # of connection points: 2
#     Edge 17, Type (0, 1), BuildingBlock: MIFKUJ_clean_linker_0, # of connection points: 2
#     Edge 18, Type (0, 1), BuildingBlock: MIFKUJ_clean_linker_0, # of connection points: 2
#     Edge 19, Type (0, 1), BuildingBlock: MIFKUJ_clean_linker_0, # of connection points: 2
#     Edge 20, Type (0, 1), BuildingBlock: MIFKUJ_clean_linker_0, # of connection points: 2
#     Edge 21, Type (0, 1), BuildingBlock: MIFKUJ_clean_linker_0, # of connection points: 2
#     Edge 22, Type (0, 1), BuildingBlock: MIFKUJ_clean_linker_0, # of connection points: 2
#     Edge 23, Type (0, 1), BuildingBlock: MIFKUJ_clean_linker_0, # of connection points: 2
#     Edge 24, Type (0, 1), BuildingBlock: MIFKUJ_clean_linker_0, # of connection points: 2
#     Edge 25, Type (0, 1), BuildingBlock: MIFKUJ_clean_linker_0, # of connection points: 2
#     Edge 26, Type (0, 1), BuildingBlock: MIFKUJ_clean_linker_0, # of connection points: 2
#     Edge 27, Type (0, 1), BuildingBlock: MIFKUJ_clean_linker_0, # of connection points: 2
#     Edge 28, Type (0, 1), BuildingBlock: MIFKUJ_clean_linker_0, # of connection points: 2
#     Edge 29, Type (0, 1), BuildingBlock: MIFKUJ_clean_linker_0, # of connection points: 2
#     Edge 30, Type (0, 1), BuildingBlock: MIFKUJ_clean_linker_0, # of connection points: 2
#     Edge 31, Type (0, 1), BuildingBlock: MIFKUJ_clean_linker_0, # of connection points: 2
#     Edge 32, Type (0, 1), BuildingBlock: MIFKUJ_clean_linker_0, # of connection points: 2
#     Edge 33, Type (0, 1), BuildingBlock: MIFKUJ_clean_linker_0, # of connection points: 2
#     Edge 34, Type (0, 1), BuildingBlock: MIFKUJ_clean_linker_0, # of connection points: 2
#     Edge 35, Type (0, 1), BuildingBlock: MIFKUJ_clean_linker_0, # of connection points: 2
# Relax obj value: 0.035
# Max RMSD: 0.121
# Mean RMSD: 0.046
data_MOF--net-pry--node1-WUSLED_clean_sbu_0--node2-VOLQOD_clean_sbu_1--edge1-MIFKUJ_clean_linker_0
_symmetry_space_group_name_H-M    P1
_symmetry_Int_Tables_number       1
_symmetry_cell_setting            triclinic
loop_
_symmetry_equiv_pos_as_xyz
'x, y, z'
_cell_length_a     59.186729
_cell_length_b     59.328907
_cell_length_c     59.526287
_cell_angle_alpha  89.798795
_cell_angle_beta   90.278576
_cell_angle_gamma 90.658881
loop_
_atom_site_label
_atom_site_type_symbol
_atom_site_fract_x
_atom_site_fract_y
_atom_site_fract_z
_atom_type_partial_charge
C0 C 0.14581 0.21454 0.12365 0.0
C1 C 0.12798 0.22236 0.13685 0.0
C2 C 0.1222 0.2536 0.1108 0.0
C3 C 0.11625 0.24174 0.13047 0.0
C4 C 0.1399 0.24541 0.09751 0.0
C5 C 0.1516 0.22607 0.10391 0.0
U6 U 0.15701 0.16562 0.16378 0.0
O7 O 0.16721 0.13081 0.15687 0.0
O8 O 0.18924 0.15292 0.17705 0.0
C9 C 0.18695 0.13344 0.1668 0.0
C10 C 0.15882 0.19469 0.13047 0.0
C11 C 0.20676 0.12614 0.15399 0.0
C12 C 0.22801 0.12369 0.11923 0.0
C13 C 0.20899 0.13093 0.13099 0.0
C14 C 0.24287 0.10717 0.15343 0.0
C15 C 0.24516 0.11164 0.1303 0.0
C16 C 0.22384 0.1143 0.16511 0.0
C17 C 0.1194 0.15661 0.21506 0.0
C18 C 0.11931 0.12249 0.23779 0.0
C19 C 0.10099 0.15605 0.25142 0.0
C20 C 0.10717 0.16754 0.23181 0.0
C21 C 0.10686 0.13333 0.25463 0.0
C22 C 0.12558 0.13405 0.21821 0.0
C23 C 0.12561 0.16904 0.19452 0.0
O24 O 0.17057 0.197 0.14913 0.0
O25 O 0.14802 0.17526 0.12916 0.0
O26 O 0.12258 0.15813 0.17553 0.0
O27 O 0.14492 0.18016 0.19545 0.0
H28 H 0.12333 0.21364 0.1522 0.0
H29 H 0.10287 0.2477 0.14119 0.0
H30 H 0.1447 0.25392 0.0821 0.0
H31 H 0.16527 0.22019 0.09349 0.0
H32 H 0.22911 0.12728 0.10142 0.0
H33 H 0.19601 0.14019 0.12213 0.0
H34 H 0.25592 0.09837 0.16264 0.0
H35 H 0.2225 0.11063 0.1829 0.0
H36 H 0.12392 0.10496 0.23956 0.0
H37 H 0.09179 0.16508 0.26417 0.0
H38 H 0.10241 0.18501 0.22973 0.0
H39 H 0.13514 0.12534 0.20549 0.0
C40 C 0.31624 0.86176 0.6245 0.0
C41 C 0.31255 0.88432 0.63036 0.0
C42 C 0.27695 0.88391 0.60958 0.0
C43 C 0.29311 0.89534 0.62287 0.0
C44 C 0.28077 0.86129 0.60385 0.0
C45 C 0.30025 0.85035 0.61122 0.0
U46 U 0.36575 0.85473 0.66524 0.0
O47 O 0.37935 0.82391 0.68063 0.0
O48 O 0.40086 0.84489 0.6589 0.0
C49 C 0.39872 0.82583 0.67007 0.0
C50 C 0.33645 0.84977 0.63233 0.0
C51 C 0.40602 0.80556 0.65808 0.0
C52 C 0.4032 0.77999 0.62634 0.0
C53 C 0.39608 0.79936 0.63753 0.0
C54 C 0.43017 0.77281 0.65619 0.0
C55 C 0.42035 0.76646 0.63554 0.0
C56 C 0.42307 0.79219 0.66733 0.0
C57 C 0.37335 0.89714 0.71339 0.0
C58 C 0.39653 0.89152 0.74674 0.0
C59 C 0.38133 0.9284 0.73856 0.0
C60 C 0.37108 0.91988 0.71911 0.0
C61 C 0.394 0.91429 0.75276 0.0
C62 C 0.38633 0.88303 0.72719 0.0
C63 C 0.36159 0.88847 0.6933 0.0
O64 O 0.35578 0.86067 0.6301 0.0
O65 O 0.33442 0.8395 0.65182 0.0
O66 O 0.35097 0.86904 0.69573 0.0
O67 O 0.37279 0.8901 0.67434 0.0
H68 H 0.32465 0.89336 0.64078 0.0
H69 H 0.29054 0.91268 0.62776 0.0
H70 H 0.26879 0.8521 0.59343 0.0
H71 H 0.30282 0.83293 0.60656 0.0
H72 H 0.39544 0.77577 0.61037 0.0
H73 H 0.38287 0.80952 0.63015 0.0
H74 H 0.44314 0.76263 0.66395 0.0
H75 H 0.43084 0.79668 0.68324 0.0
H76 H 0.40597 0.88011 0.75736 0.0
H77 H 0.37936 0.94609 0.74242 0.0
H78 H 0.36123 0.93105 0.70859 0.0
H79 H 0.38832 0.8654 0.72302 0.0
C80 C 0.61264 0.38128 0.82262 0.0
C81 C 0.62958 0.39004 0.80851 0.0
C82 C 0.60102 0.40478 0.78303 0.0
C83 C 0.62381 0.40156 0.78881 0.0
C84 C 0.58412 0.39643 0.79746 0.0
C85 C 0.5899 0.38471 0.81705 0.0
U86 U 0.65115 0.37068 0.87281 0.0
O87 O 0.64298 0.36101 0.90764 0.0
O88 O 0.66409 0.33913 0.88699 0.0
C89 C 0.653 0.34144 0.90591 0.0
C90 C 0.61839 0.3685 0.84307 0.0
C91 C 0.63954 0.32169 0.91292 0.0
C92 C 0.61344 0.29095 0.90433 0.0
C93 C 0.62516 0.31047 0.89772 0.0
C94 C 0.62981 0.29412 0.94159 0.0
C95 C 0.61583 0.28238 0.92629 0.0
C96 C 0.64158 0.31355 0.93493 0.0
C97 C 0.70314 0.40855 0.88101 0.0
C98 C 0.73322 0.40002 0.90752 0.0
C99 C 0.73353 0.43559 0.88738 0.0
C100 C 0.7134 0.42945 0.87655 0.0
C101 C 0.74382 0.42086 0.90283 0.0
C102 C 0.71302 0.39392 0.8967 0.0
C103 C 0.68243 0.40212 0.86882 0.0
O104 O 0.63673 0.35625 0.84193 0.0
O105 O 0.6167 0.37961 0.86204 0.0
O106 O 0.66344 0.40515 0.87969 0.0
O107 O 0.68314 0.38272 0.85828 0.0
H108 H 0.64728 0.38785 0.81263 0.0
H109 H 0.63718 0.40803 0.77813 0.0
H110 H 0.56641 0.39849 0.79332 0.0
H111 H 0.5766 0.37814 0.82776 0.0
H112 H 0.60301 0.28226 0.89204 0.0
H113 H 0.62332 0.31658 0.88064 0.0
H114 H 0.63172 0.28825 0.95873 0.0
H115 H 0.65249 0.3221 0.94692 0.0
H116 H 0.74077 0.3882 0.91916 0.0
H117 H 0.741 0.45193 0.88367 0.0
H118 H 0.70591 0.44099 0.86457 0.0
H119 H 0.70526 0.3777 0.90036 0.0
C120 C 0.81378 0.61212 0.37689 0.0
C121 C 0.80897 0.62087 0.39819 0.0
C122 C 0.77459 0.5979 0.4 0.0
C123 C 0.78954 0.61379 0.40967 0.0
C124 C 0.77951 0.58936 0.37856 0.0
C125 C 0.79894 0.5964 0.36715 0.0
U126 U 0.86396 0.65213 0.36815 0.0
O127 O 0.89892 0.64473 0.35826 0.0
O128 O 0.87789 0.66647 0.33704 0.0
C129 C 0.897 0.65554 0.33905 0.0
C130 C 0.83408 0.6193 0.36456 0.0
C131 C 0.90403 0.64306 0.31902 0.0
C132 C 0.89547 0.61817 0.28769 0.0
C133 C 0.88878 0.62903 0.30736 0.0
C134 C 0.93289 0.63476 0.29153 0.0
C135 C 0.91756 0.62109 0.2794 0.0
C136 C 0.92615 0.64567 0.31112 0.0
C137 C 0.87328 0.70241 0.40704 0.0
C138 C 0.90854 0.72345 0.41139 0.0
C139 C 0.87305 0.7408 0.4211 0.0
C140 C 0.86148 0.72105 0.41507 0.0
C141 C 0.89671 0.74222 0.41932 0.0
C142 C 0.89692 0.70375 0.40516 0.0
C143 C 0.86057 0.68203 0.40027 0.0
O144 O 0.8324 0.63849 0.35363 0.0
O145 O 0.85331 0.61727 0.37549 0.0
O146 O 0.87097 0.66271 0.40288 0.0
O147 O 0.84968 0.68361 0.38105 0.0
H148 H 0.82026 0.6331 0.40593 0.0
H149 H 0.7864 0.62055 0.42623 0.0
H150 H 0.76819 0.57744 0.37041 0.0
H151 H 0.80234 0.5896 0.35065 0.0
H152 H 0.88317 0.60796 0.2787 0.0
H153 H 0.87162 0.62676 0.31328 0.0
H154 H 0.95013 0.63706 0.28588 0.0
H155 H 0.93817 0.65633 0.32 0.0
H156 H 0.92674 0.72414 0.40964 0.0
H157 H 0.86351 0.7549 0.42737 0.0
H158 H 0.84324 0.72036 0.4166 0.0
H159 H 0.90638 0.68965 0.39876 0.0
C160 C 0.88337 0.83214 0.92057 0.0
C161 C 0.89597 0.8208 0.90429 0.0
C162 C 0.90614 0.79213 0.9318 0.0
C163 C 0.90717 0.8009 0.90984 0.0
C164 C 0.89392 0.80386 0.94816 0.0
C165 C 0.88258 0.82367 0.94255 0.0
U166 U 0.87332 0.8824 0.88217 0.0
O167 O 0.84181 0.89617 0.86855 0.0
O168 O 0.86353 0.91719 0.89013 0.0
C169 C 0.84395 0.91512 0.87977 0.0
C170 C 0.87074 0.85255 0.91471 0.0
C171 C 0.82406 0.92147 0.89291 0.0
C172 C 0.79399 0.91174 0.91896 0.0
C173 C 0.81365 0.90595 0.90751 0.0
C174 C 0.79537 0.94889 0.90192 0.0
C175 C 0.78451 0.93321 0.91613 0.0
C176 C 0.81496 0.94303 0.89036 0.0
C177 C 0.91181 0.89034 0.83113 0.0
C178 C 0.90472 0.91757 0.80139 0.0
C179 C 0.93793 0.8941 0.80003 0.0
C180 C 0.93165 0.88394 0.82029 0.0
C181 C 0.92441 0.91085 0.79018 0.0
C182 C 0.89845 0.90736 0.82172 0.0
C183 C 0.90499 0.87851 0.85176 0.0
O184 O 0.88205 0.87165 0.91658 0.0
O185 O 0.85867 0.85124 0.89615 0.0
O186 O 0.88547 0.8678 0.85067 0.0
O187 O 0.90792 0.88973 0.87057 0.0
H188 H 0.89694 0.82721 0.88726 0.0
H189 H 0.91669 0.7924 0.89695 0.0
H190 H 0.89266 0.79742 0.96516 0.0
H191 H 0.87296 0.83225 0.95533 0.0
H192 H 0.78617 0.89941 0.93 0.0
H193 H 0.82056 0.88926 0.90979 0.0
H194 H 0.78836 0.96547 0.89922 0.0
H195 H 0.82279 0.9552 0.87915 0.0
H196 H 0.89386 0.93028 0.79419 0.0
H197 H 0.9534 0.88882 0.79206 0.0
H198 H 0.9422 0.87088 0.82739 0.0
H199 H 0.88303 0.91248 0.8299 0.0
C200 C 0.60701 0.12876 0.33492 0.0
C201 C 0.62313 0.11612 0.3234 0.0
C202 C 0.59525 0.10658 0.29462 0.0
C203 C 0.61733 0.1052 0.30336 0.0
C204 C 0.57903 0.11881 0.30656 0.0
C205 C 0.5849 0.12985 0.32651 0.0
U206 U 0.64549 0.13899 0.38554 0.0
O207 O 0.65923 0.17064 0.39923 0.0
O208 O 0.6371 0.1493 0.42001 0.0
C209 C 0.64766 0.16881 0.41796 0.0
C210 C 0.61313 0.14135 0.35535 0.0
C211 C 0.63443 0.18873 0.42388 0.0
C212 C 0.60791 0.21803 0.41367 0.0
C213 C 0.61955 0.19841 0.40828 0.0
C214 C 0.6254 0.21811 0.45057 0.0
C215 C 0.61085 0.22822 0.43482 0.0
C216 C 0.63713 0.19855 0.4451 0.0
C217 C 0.69638 0.10072 0.39473 0.0
C218 C 0.72592 0.10845 0.42224 0.0
C219 C 0.72736 0.07468 0.39953 0.0
C220 C 0.7072 0.08072 0.38892 0.0
C221 C 0.73712 0.08859 0.41613 0.0
C222 C 0.7057 0.11447 0.4116 0.0
C223 C 0.67588 0.10729 0.38245 0.0
O224 O 0.61094 0.13023 0.37436 0.0
O225 O 0.632 0.15318 0.35418 0.0
O226 O 0.67729 0.12658 0.37161 0.0
O227 O 0.65674 0.10456 0.39329 0.0
H228 H 0.64027 0.11494 0.32975 0.0
H229 H 0.63011 0.09568 0.29469 0.0
H230 H 0.56196 0.12037 0.30016 0.0
H231 H 0.57224 0.13952 0.33521 0.0
H232 H 0.59661 0.22525 0.40129 0.0
H233 H 0.61715 0.19094 0.39184 0.0
H234 H 0.6282 0.22565 0.4669 0.0
H235 H 0.64857 0.19128 0.45734 0.0
H236 H 0.73307 0.11962 0.43482 0.0
H237 H 0.73532 0.0591 0.39468 0.0
H238 H 0.70017 0.06988 0.37598 0.0
H239 H 0.69753 0.13002 0.41626 0.0
C240 C 0.33202 0.60155 0.13702 0.0
C241 C 0.32204 0.61776 0.12304 0.0
C242 C 0.29123 0.59168 0.11432 0.0
C243 C 0.30177 0.6129 0.11185 0.0
C244 C 0.30161 0.57529 0.12791 0.0
C245 C 0.32183 0.58023 0.13923 0.0
U246 U 0.38202 0.64039 0.14679 0.0
O247 O 0.39609 0.65459 0.17796 0.0
O248 O 0.41726 0.63366 0.1564 0.0
C249 C 0.41541 0.64417 0.17572 0.0
C250 C 0.35269 0.60707 0.14968 0.0
C251 C 0.42285 0.63171 0.19574 0.0
C252 C 0.42108 0.59876 0.22006 0.0
C253 C 0.41498 0.60973 0.20011 0.0
C254 C 0.443 0.63162 0.23131 0.0
C255 C 0.43491 0.60974 0.23601 0.0
C256 C 0.43703 0.64249 0.21134 0.0
C257 C 0.38798 0.69223 0.10893 0.0
C258 C 0.42131 0.71652 0.10743 0.0
C259 C 0.38543 0.7299 0.09318 0.0
C260 C 0.37528 0.70929 0.09881 0.0
C261 C 0.40852 0.73377 0.09751 0.0
C262 C 0.41108 0.69593 0.11324 0.0
C263 C 0.3766 0.67108 0.11547 0.0
O264 O 0.37162 0.60565 0.13833 0.0
O265 O 0.35155 0.62544 0.16188 0.0
O266 O 0.3662 0.67162 0.13489 0.0
O267 O 0.38801 0.65247 0.11234 0.0
H268 H 0.32979 0.63427 0.12101 0.0
H269 H 0.29433 0.62575 0.10128 0.0
H270 H 0.29378 0.55887 0.13026 0.0
H271 H 0.32934 0.56754 0.14995 0.0
H272 H 0.41444 0.58198 0.22332 0.0
H273 H 0.40381 0.60124 0.18831 0.0
H274 H 0.4539 0.64039 0.24315 0.0
H275 H 0.44319 0.65948 0.20824 0.0
H276 H 0.43908 0.71912 0.11113 0.0
H277 H 0.37522 0.74278 0.08533 0.0
H278 H 0.35744 0.70673 0.09541 0.0
H279 H 0.42112 0.68302 0.12125 0.0
C280 C 0.09923 0.32516 0.64374 0.0
C281 C 0.11026 0.31796 0.62428 0.0
C282 C 0.08637 0.28424 0.62309 0.0
C283 C 0.10387 0.29768 0.61402 0.0
C284 C 0.07526 0.29173 0.64249 0.0
C285 C 0.08165 0.31201 0.65271 0.0
U286 U 0.13944 0.37526 0.64979 0.0
O287 O 0.13274 0.41046 0.6591 0.0
O288 O 0.15521 0.38984 0.67997 0.0
C289 C 0.14425 0.40889 0.67797 0.0
C290 C 0.10643 0.34589 0.65525 0.0
C291 C 0.1324 0.41632 0.69825 0.0
C292 C 0.10896 0.40825 0.73077 0.0
C293 C 0.11944 0.40111 0.71107 0.0
C294 C 0.12373 0.44604 0.72468 0.0
C295 C 0.11111 0.43078 0.73786 0.0
C296 C 0.13433 0.43884 0.70507 0.0
C297 C 0.18867 0.3825 0.60917 0.0
C298 C 0.22339 0.40322 0.61731 0.0
C299 C 0.21412 0.39312 0.57892 0.0
C300 C 0.1941 0.3828 0.58627 0.0
C301 C 0.22912 0.40316 0.59442 0.0
C302 C 0.20328 0.3931 0.62462 0.0
C303 C 0.16813 0.37055 0.61673 0.0
O304 O 0.12588 0.34461 0.66587 0.0
O305 O 0.10421 0.36463 0.64364 0.0
O306 O 0.14914 0.38165 0.61459 0.0
O307 O 0.1699 0.35986 0.63604 0.0
H308 H 0.12391 0.32795 0.61716 0.0
H309 H 0.11259 0.29255 0.59896 0.0
H310 H 0.06195 0.28167 0.65011 0.0
H311 H 0.07307 0.31729 0.66782 0.0
H312 H 0.09913 0.39618 0.74043 0.0
H313 H 0.11759 0.38368 0.70594 0.0
H314 H 0.12588 0.46343 0.72982 0.0
H315 H 0.14425 0.45081 0.69536 0.0
H316 H 0.2345 0.41109 0.62958 0.0
H317 H 0.21817 0.3927 0.5612 0.0
H318 H 0.18301 0.37474 0.57411 0.0
H319 H 0.1993 0.39328 0.64236 0.0
O320 O 0.00909 0.0556 0.54156 0.0
Zn321 Zn 0.99414 0.02569 0.53445 0.0
O322 O 0.0139 0.00727 0.51563 0.0
Zn323 Zn 0.99948 0.00245 0.48636 0.0
Zn324 Zn 0.04315 0.02267 0.51153 0.0
Zn325 Zn 0.01877 0.97808 0.5301 0.0
O326 O 0.99364 0.96939 0.48058 0.0
O327 O 0.00662 0.95242 0.51125 0.0
O328 O 0.96433 0.03201 0.51887 0.0
O329 O 0.96913 0.01732 0.48502 0.0
O330 O 0.01847 0.01534 0.46122 0.0
O331 O 0.04868 0.02944 0.47867 0.0
O332 O 0.06909 0.00391 0.52342 0.0
O333 O 0.98736 0.01007 0.56399 0.0
O334 O 0.05188 0.97278 0.53557 0.0
O335 O 0.00347 0.97669 0.56024 0.0
C336 C 0.02882 0.0637 0.53818 0.0
C337 C 0.99716 0.95156 0.492 0.0
C338 C 0.03747 0.02564 0.46071 0.0
C339 C 0.95713 0.02795 0.49906 0.0
C340 C 0.06984 0.98437 0.53236 0.0
C341 C 0.99197 0.99056 0.57165 0.0
O342 O 0.04364 0.05262 0.52754 0.0
O343 O 0.50548 0.06009 0.99198 0.0
Zn344 Zn 0.48947 0.03056 0.99962 0.0
O345 O 0.50893 0.01134 0.01848 0.0
Zn346 Zn 0.51633 0.98361 0.00249 0.0
Zn347 Zn 0.53706 0.02732 0.02585 0.0
Zn348 Zn 0.49314 0.00362 0.04631 0.0
O349 O 0.50545 0.95603 0.0194 0.0
O350 O 0.48807 0.97012 0.0491 0.0
O351 O 0.48125 0.01459 0.97047 0.0
O352 O 0.50118 0.98309 0.97216 0.0
O353 O 0.54988 0.98072 0.99764 0.0
O354 O 0.56437 0.01103 0.01426 0.0
O355 O 0.5408 0.03139 0.0593 0.0
O356 O 0.46032 0.03818 0.01573 0.0
O357 O 0.51052 0.01439 0.07362 0.0
O358 O 0.46276 0.01827 0.04728 0.0
C359 C 0.52435 0.0686 0.99831 0.0
C360 C 0.49414 0.95334 0.03739 0.0
C361 C 0.56685 0.99285 0.00327 0.0
C362 C 0.48758 0.99606 0.96184 0.0
C363 C 0.52901 0.02531 0.07616 0.0
C364 C 0.45204 0.03166 0.03443 0.0
O365 O 0.53751 0.05791 0.01143 0.0
O366 O 0.53364 0.50691 0.55936 0.0
Zn367 Zn 0.52612 0.52228 0.52971 0.0
O368 O 0.50647 0.50273 0.51111 0.0
Zn369 Zn 0.52193 0.49466 0.48337 0.0
Zn370 Zn 0.49901 0.47495 0.52734 0.0
Zn371 Zn 0.47862 0.51872 0.50372 0.0
O372 O 0.50533 0.50631 0.45612 0.0
O373 O 0.47642 0.52493 0.47042 0.0
O374 O 0.5555 0.52958 0.51361 0.0
O375 O 0.5531 0.50844 0.48289 0.0
O376 O 0.52552 0.46111 0.48019 0.0
O377 O 0.51006 0.44727 0.51122 0.0
O378 O 0.46539 0.47159 0.53166 0.0
O379 O 0.51063 0.55162 0.53713 0.0
O380 O 0.45103 0.50079 0.51329 0.0
O381 O 0.47743 0.54853 0.51983 0.0
C382 C 0.5272 0.48826 0.56808 0.0
C383 C 0.48792 0.51851 0.45362 0.0
C384 C 0.52022 0.44441 0.49265 0.0
C385 C 0.56394 0.52217 0.49544 0.0
C386 C 0.44846 0.48279 0.52479 0.0
C387 C 0.49125 0.55949 0.53225 0.0
O388 O 0.51383 0.47493 0.55766 0.0
O389 O 0.98587 0.51505 0.05901 0.0
Zn390 Zn 0.99351 0.49919 0.02986 0.0
O391 O 0.01302 0.51852 0.01088 0.0
Zn392 Zn 0.99755 0.52593 0.98278 0.0
Zn393 Zn 0.02054 0.54656 0.02658 0.0
Zn394 Zn 0.04081 0.50261 0.0039 0.0
O395 O 0.0151 0.51574 0.95579 0.0
O396 O 0.04382 0.49699 0.97064 0.0
O397 O 0.96424 0.49141 0.01362 0.0
O398 O 0.96746 0.51007 0.98135 0.0
O399 O 0.99211 0.5593 0.97979 0.0
O400 O 0.00893 0.5738 0.0099 0.0
O401 O 0.05422 0.55027 0.03101 0.0
O402 O 0.00912 0.46985 0.03793 0.0
O403 O 0.06822 0.52007 0.01444 0.0
O404 O 0.04172 0.4728 0.01981 0.0
C405 C 0.9924 0.53378 0.06744 0.0
C406 C 0.03268 0.50379 0.95359 0.0
C407 C 0.99772 0.57624 0.99175 0.0
C408 C 0.9564 0.49703 0.99443 0.0
C409 C 0.07102 0.53843 0.02516 0.0
C410 C 0.02831 0.46193 0.03265 0.0
O411 O 0.00586 0.5469 0.0569 0.0
H412 H 0.13121 0.10264 0.27921 0.0
H413 H 0.1197 0.08279 0.31345 0.0
H414 H 0.05563 0.11663 0.31168 0.0
H415 H 0.06675 0.13617 0.27723 0.0
H416 H 0.07442 0.11761 0.3534 0.0
H417 H 0.05853 0.06262 0.29632 0.0
H418 H 0.0673 0.03841 0.264 0.0
H419 H 0.11842 0.00506 0.30279 0.0
H420 H 0.11016 0.02931 0.33526 0.0
H421 H 0.01985 0.01862 0.41861 0.0
H422 H 0.03244 0.03548 0.38322 0.0
H423 H 0.08711 0.06931 0.41796 0.0
H424 H 0.07463 0.05265 0.45347 0.0
H425 H 0.07203 0.03415 0.35933 0.0
H426 H 0.09233 0.12234 0.39521 0.0
H427 H 0.08097 0.14652 0.42676 0.0
H428 H 0.01609 0.11344 0.42868 0.0
H429 H 0.02696 0.0893 0.39696 0.0
C430 C 0.11456 0.10567 0.28592 0.0
C431 C 0.09993 0.12105 0.27542 0.0
C432 C 0.10804 0.09436 0.30556 0.0
C433 C 0.08677 0.09817 0.31507 0.0
C434 C 0.07217 0.11352 0.30469 0.0
C435 C 0.07861 0.12476 0.28503 0.0
C436 C 0.07978 0.08637 0.33599 0.0
C437 C 0.07397 0.09936 0.35471 0.0
C438 C 0.07893 0.06256 0.33762 0.0
C439 C 0.08388 0.04793 0.31814 0.0
C440 C 0.07177 0.05025 0.2979 0.0
C441 C 0.07662 0.0365 0.27956 0.0
C442 C 0.09344 0.02025 0.28132 0.0
C443 C 0.10541 0.01768 0.30144 0.0
C444 C 0.10064 0.03141 0.31982 0.0
C445 C 0.03466 0.02951 0.41875 0.0
C446 C 0.04612 0.03439 0.43896 0.0
C447 C 0.04187 0.03906 0.39846 0.0
C448 C 0.06056 0.05382 0.398 0.0
C449 C 0.07249 0.05816 0.41799 0.0
C450 C 0.06535 0.04855 0.43827 0.0
C451 C 0.06696 0.06541 0.37679 0.0
C452 C 0.07265 0.05239 0.35805 0.0
C453 C 0.06742 0.08921 0.37501 0.0
C454 C 0.06057 0.10387 0.39387 0.0
C455 C 0.07562 0.1203 0.40232 0.0
C456 C 0.06927 0.13398 0.42024 0.0
C457 C 0.04785 0.13146 0.42977 0.0
C458 C 0.03271 0.11532 0.42134 0.0
C459 C 0.03896 0.10161 0.40341 0.0
H460 H 0.04298 0.14206 0.44365 0.0
H461 H 0.09717 0.00962 0.2671 0.0
H462 H 0.43547 0.90477 0.77123 0.0
H463 H 0.45172 0.91922 0.80627 0.0
H464 H 0.39212 0.95878 0.81711 0.0
H465 H 0.37557 0.94415 0.78236 0.0
H466 H 0.43108 0.98306 0.82504 0.0
H467 H 0.39964 0.91069 0.84598 0.0
H468 H 0.39431 0.86952 0.84298 0.0
H469 H 0.46514 0.85992 0.85502 0.0
H470 H 0.47095 0.90107 0.85778 0.0
H471 H 0.45011 0.01154 0.93961 0.0
H472 H 0.4347 0.99838 0.90373 0.0
H473 H 0.48999 0.95205 0.89748 0.0
H474 H 0.50494 0.96449 0.9337 0.0
H475 H 0.45336 0.93131 0.88669 0.0
H476 H 0.48565 0.00278 0.86582 0.0
H477 H 0.49215 0.04385 0.86808 0.0
H478 H 0.42179 0.05526 0.85496 0.0
H479 H 0.41482 0.01423 0.85291 0.0
C480 C 0.42571 0.91638 0.78116 0.0
C481 C 0.40417 0.92325 0.77394 0.0
C482 C 0.43507 0.92469 0.80115 0.0
C483 C 0.42306 0.93997 0.81438 0.0
C484 C 0.40171 0.94707 0.80712 0.0
C485 C 0.39232 0.93874 0.78718 0.0
C486 C 0.43267 0.94847 0.83589 0.0
C487 C 0.43573 0.97179 0.83865 0.0
C488 C 0.43926 0.93372 0.8534 0.0
C489 C 0.43576 0.90897 0.85187 0.0
C490 C 0.41411 0.89981 0.84781 0.0
C491 C 0.41099 0.87648 0.84618 0.0
C492 C 0.42939 0.86212 0.84875 0.0
C493 C 0.45092 0.87106 0.85301 0.0
C494 C 0.45413 0.89439 0.85463 0.0
C495 C 0.45905 0.99866 0.93052 0.0
C496 C 0.47875 0.98908 0.93953 0.0
C497 C 0.45028 0.9912 0.90992 0.0
C498 C 0.46131 0.97438 0.89767 0.0
C499 C 0.48111 0.96499 0.90658 0.0
C500 C 0.48968 0.97218 0.92729 0.0
C501 C 0.45192 0.96601 0.87593 0.0
C502 C 0.44883 0.94267 0.87312 0.0
C503 C 0.44553 0.98075 0.85828 0.0
C504 C 0.44968 0.00543 0.85943 0.0
C505 C 0.47154 0.01405 0.86358 0.0
C506 C 0.47531 0.03732 0.8648 0.0
C507 C 0.45738 0.05215 0.86172 0.0
C508 C 0.43565 0.04375 0.85736 0.0
C509 C 0.43179 0.02049 0.85615 0.0
H510 H 0.46033 0.07016 0.86268 0.0
H511 H 0.42694 0.84406 0.84748 0.0
H512 H 0.56959 0.43764 0.77646 0.0
H513 H 0.55821 0.45495 0.74082 0.0
H514 H 0.60677 0.41449 0.70578 0.0
H515 H 0.61852 0.39755 0.7414 0.0
H516 H 0.60666 0.45495 0.68831 0.0
H517 H 0.54972 0.39996 0.708 0.0
H518 H 0.52105 0.38197 0.7323 0.0
H519 H 0.48295 0.44313 0.73256 0.0
H520 H 0.51157 0.46158 0.70849 0.0
H521 H 0.52086 0.44786 0.58928 0.0
H522 H 0.53443 0.43643 0.62619 0.0
H523 H 0.56528 0.50199 0.63555 0.0
H524 H 0.55213 0.51349 0.59818 0.0
H525 H 0.52573 0.45062 0.66646 0.0
H526 H 0.61251 0.49622 0.66878 0.0
H527 H 0.64189 0.50974 0.64254 0.0
H528 H 0.62137 0.45953 0.59458 0.0
H529 H 0.59209 0.44555 0.62064 0.0
C530 C 0.57786 0.43251 0.76114 0.0
C531 C 0.59485 0.41616 0.76167 0.0
C532 C 0.57135 0.4424 0.7408 0.0
C533 C 0.5814 0.4358 0.72055 0.0
C534 C 0.5988 0.41991 0.72116 0.0
C535 C 0.6055 0.41022 0.74152 0.0
C536 C 0.57323 0.44468 0.69863 0.0
C537 C 0.58894 0.45412 0.68358 0.0
C538 C 0.55017 0.4433 0.69226 0.0
C539 C 0.5329 0.43221 0.70665 0.0
C540 C 0.53531 0.40962 0.71338 0.0
C541 C 0.51906 0.39933 0.72709 0.0
C542 C 0.50022 0.41142 0.73402 0.0
C543 C 0.49757 0.4338 0.72721 0.0
C544 C 0.51379 0.44418 0.71352 0.0
C545 C 0.53054 0.45992 0.59912 0.0
C546 C 0.53544 0.48161 0.5907 0.0
C547 C 0.53824 0.45334 0.6203 0.0
C548 C 0.55098 0.46828 0.63364 0.0
C549 C 0.55574 0.49006 0.62544 0.0
C550 C 0.54815 0.49663 0.6041 0.0
C551 C 0.55916 0.46082 0.65607 0.0
C552 C 0.54342 0.4517 0.67126 0.0
C553 C 0.58227 0.46191 0.66228 0.0
C554 C 0.59994 0.47004 0.64655 0.0
C555 C 0.61432 0.48805 0.65265 0.0
C556 C 0.63095 0.49579 0.63781 0.0
C557 C 0.63344 0.48556 0.61687 0.0
C558 C 0.61936 0.46751 0.61076 0.0
C559 C 0.60273 0.45969 0.62555 0.0
H560 H 0.64631 0.49158 0.6054 0.0
H561 H 0.48766 0.40343 0.74464 0.0
H562 H 0.90671 0.5788 0.26362 0.0
H563 H 0.91743 0.56208 0.22776 0.0
H564 H 0.95515 0.62241 0.21091 0.0
H565 H 0.94374 0.63956 0.24619 0.0
H566 H 0.9309 0.60883 0.17606 0.0
H567 H 0.98118 0.57348 0.22915 0.0
H568 H 0.99093 0.5515 0.26301 0.0
H569 H 0.95334 0.49468 0.23755 0.0
H570 H 0.94311 0.51644 0.20365 0.0
H571 H 0.00198 0.57295 0.08968 0.0
H572 H 0.98734 0.58537 0.12568 0.0
H573 H 0.94885 0.52352 0.13193 0.0
H574 H 0.96362 0.51074 0.09578 0.0
H575 H 0.97018 0.53555 0.17158 0.0
H576 H 0.92228 0.57052 0.11705 0.0
H577 H 0.91358 0.5926 0.08298 0.0
H578 H 0.94744 0.6504 0.11115 0.0
H579 H 0.95663 0.62857 0.14527 0.0
C580 C 0.91715 0.58858 0.25221 0.0
C581 C 0.92443 0.61051 0.25787 0.0
C582 C 0.92345 0.5789 0.2318 0.0
C583 C 0.93731 0.59089 0.21672 0.0
C584 C 0.9445 0.6128 0.22229 0.0
C585 C 0.93815 0.6225 0.24261 0.0
C586 C 0.94416 0.58088 0.19498 0.0
C587 C 0.93968 0.59291 0.17513 0.0
C588 C 0.95502 0.55977 0.19365 0.0
C589 C 0.96117 0.54667 0.214 0.0
C590 C 0.97483 0.55636 0.23086 0.0
C591 C 0.98048 0.54393 0.25004 0.0
C592 C 0.9727 0.52173 0.25246 0.0
C593 C 0.95931 0.51189 0.23567 0.0
C594 C 0.9536 0.52426 0.21647 0.0
C595 C 0.99044 0.56189 0.09865 0.0
C596 C 0.98389 0.54086 0.08972 0.0
C597 C 0.98201 0.56908 0.11923 0.0
C598 C 0.96676 0.55552 0.13133 0.0
C599 C 0.96054 0.53429 0.1228 0.0
C600 C 0.96896 0.52705 0.10212 0.0
C601 C 0.95731 0.56375 0.1528 0.0
C602 C 0.96123 0.55137 0.17254 0.0
C603 C 0.94599 0.58459 0.15407 0.0
C604 C 0.94029 0.59785 0.13366 0.0
C605 C 0.92801 0.5879 0.11592 0.0
C606 C 0.92297 0.60037 0.0966 0.0
C607 C 0.92999 0.62287 0.09488 0.0
C608 C 0.94202 0.63296 0.1125 0.0
C609 C 0.94713 0.62055 0.13184 0.0
H610 H 0.92608 0.6325 0.07991 0.0
H611 H 0.97709 0.51213 0.26731 0.0
H612 H 0.26715 0.07154 0.13528 0.0
H613 H 0.3017 0.05953 0.11687 0.0
H614 H 0.3035 0.12125 0.07846 0.0
H615 H 0.26912 0.13375 0.09724 0.0
H616 H 0.31345 0.08242 0.05286 0.0
H617 H 0.33712 0.11772 0.12165 0.0
H618 H 0.3367 0.1243 0.16253 0.0
H619 H 0.3555 0.05559 0.17446 0.0
H620 H 0.35571 0.0485 0.13364 0.0
H621 H 0.42823 0.06765 0.01791 0.0
H622 H 0.39252 0.08241 0.03197 0.0
H623 H 0.38961 0.029 0.08131 0.0
H624 H 0.42547 0.01465 0.06787 0.0
H625 H 0.38046 0.06671 0.10055 0.0
H626 H 0.35523 0.0303 0.03263 0.0
H627 H 0.35476 0.02256 0.99195 0.0
H628 H 0.33828 0.09159 0.97838 0.0
H629 H 0.33894 0.09981 0.019 0.0
C630 C 0.27493 0.08269 0.12306 0.0
C631 C 0.26545 0.10376 0.11797 0.0
C632 C 0.29463 0.07572 0.11244 0.0
C633 C 0.30529 0.08961 0.09648 0.0
C634 C 0.29551 0.11028 0.09073 0.0
C635 C 0.27582 0.11736 0.10145 0.0
C636 C 0.32704 0.08273 0.08646 0.0
C637 C 0.32824 0.07928 0.06319 0.0
C638 C 0.34616 0.07827 0.10003 0.0
C639 C 0.34624 0.08253 0.12459 0.0
C640 C 0.341 0.10397 0.133 0.0
C641 C 0.34082 0.10779 0.15615 0.0
C642 C 0.34602 0.09036 0.17108 0.0
C643 C 0.35146 0.06907 0.16287 0.0
C644 C 0.35163 0.06515 0.13973 0.0
C645 C 0.41988 0.05897 0.03165 0.0
C646 C 0.42975 0.04001 0.0418 0.0
C647 C 0.39941 0.06738 0.03962 0.0
C648 C 0.38823 0.05674 0.05763 0.0
C649 C 0.39792 0.03759 0.06748 0.0
C650 C 0.41844 0.02937 0.05973 0.0
C651 C 0.36688 0.06585 0.06689 0.0
C652 C 0.36576 0.06986 0.0901 0.0
C653 C 0.34782 0.07063 0.05324 0.0
C654 C 0.34738 0.06572 0.02884 0.0
C655 C 0.35169 0.04387 0.02096 0.0
C656 C 0.35135 0.03939 0.99792 0.0
C657 C 0.34656 0.05659 0.98259 0.0
C658 C 0.34203 0.0783 0.99028 0.0
C659 C 0.34237 0.08287 0.0133 0.0
H660 H 0.34631 0.05309 0.96476 0.0
H661 H 0.34587 0.09335 0.189 0.0
H662 H 0.23369 0.8673 0.60931 0.0
H663 H 0.19963 0.88567 0.59541 0.0
H664 H 0.23894 0.94488 0.57818 0.0
H665 H 0.27313 0.9266 0.59228 0.0
H666 H 0.20009 0.95658 0.59711 0.0
H667 H 0.22145 0.90723 0.53771 0.0
H668 H 0.23235 0.87116 0.52064 0.0
H669 H 0.16896 0.84145 0.54034 0.0
H670 H 0.1578 0.87726 0.55782 0.0
H671 H 0.11196 0.00422 0.5299 0.0
H672 H 0.14802 0.98845 0.54219 0.0
H673 H 0.11371 0.92755 0.56341 0.0
H674 H 0.07773 0.94298 0.55099 0.0
H675 H 0.15146 0.91813 0.54058 0.0
H676 H 0.131 0.9673 0.60136 0.0
H677 H 0.12028 0.00348 0.61832 0.0
H678 H 0.18227 0.03381 0.59539 0.0
H679 H 0.19321 0.99787 0.57802 0.0
C680 C 0.23512 0.88418 0.60244 0.0
C681 C 0.25615 0.89542 0.60173 0.0
C682 C 0.21563 0.89468 0.5945 0.0
C683 C 0.21676 0.91653 0.58538 0.0
C684 C 0.23765 0.928 0.58509 0.0
C685 C 0.25716 0.91755 0.59319 0.0
C686 C 0.19613 0.92729 0.5761 0.0
C687 C 0.18965 0.94834 0.58449 0.0
C688 C 0.18229 0.91641 0.55987 0.0
C689 C 0.18888 0.89488 0.54924 0.0
C690 C 0.2099 0.89296 0.53854 0.0
C691 C 0.21611 0.87257 0.52877 0.0
C692 C 0.20138 0.85401 0.52945 0.0
C693 C 0.18037 0.85583 0.53985 0.0
C694 C 0.17408 0.87618 0.54967 0.0
C695 C 0.11207 0.98746 0.53715 0.0
C696 C 0.09188 0.97491 0.53948 0.0
C697 C 0.13271 0.97851 0.54426 0.0
C698 C 0.13355 0.95689 0.55392 0.0
C699 C 0.11348 0.94426 0.55601 0.0
C700 C 0.09289 0.95317 0.54894 0.0
C701 C 0.15527 0.94726 0.56181 0.0
C702 C 0.16198 0.92643 0.55311 0.0
C703 C 0.16933 0.95838 0.57768 0.0
C704 C 0.1628 0.97997 0.58819 0.0
C705 C 0.14226 0.98174 0.59978 0.0
C706 C 0.13616 0.00219 0.6095 0.0
C707 C 0.15055 0.02095 0.60788 0.0
C708 C 0.17111 0.01928 0.5966 0.0
C709 C 0.17728 0.99887 0.58683 0.0
H710 H 0.1458 0.03677 0.61541 0.0
H711 H 0.20622 0.83824 0.52188 0.0
H712 H 0.75712 0.41383 0.94656 0.0
H713 H 0.79325 0.42422 0.96403 0.0
H714 H 0.81589 0.45297 0.90127 0.0
H715 H 0.78026 0.44186 0.8835 0.0
H716 H 0.84855 0.4291 0.92003 0.0
H717 H 0.79694 0.486 0.9447 0.0
H718 H 0.76244 0.5003 0.96253 0.0
H719 H 0.78176 0.46962 0.02507 0.0
H720 H 0.81625 0.45489 0.00752 0.0
H721 H 0.93677 0.5021 0.95315 0.0
H722 H 0.90077 0.48668 0.94003 0.0
H723 H 0.88954 0.45596 0.00483 0.0
H724 H 0.92573 0.47144 0.01828 0.0
H725 H 0.85148 0.47759 0.98776 0.0
H726 H 0.90515 0.42346 0.96303 0.0
H727 H 0.94005 0.41074 0.94477 0.0
H728 H 0.91706 0.43754 0.88169 0.0
H729 H 0.88215 0.45072 0.89965 0.0
C730 C 0.76988 0.42216 0.93642 0.0
C731 C 0.76572 0.42713 0.91364 0.0
C732 C 0.79045 0.42828 0.94649 0.0
C733 C 0.80719 0.43962 0.93403 0.0
C734 C 0.8032 0.4443 0.91124 0.0
C735 C 0.78271 0.43814 0.90116 0.0
C736 C 0.8289 0.44672 0.94462 0.0
C737 C 0.84917 0.43985 0.93473 0.0
C738 C 0.82975 0.46028 0.96415 0.0
C739 C 0.80903 0.46912 0.97473 0.0
C740 C 0.79373 0.48214 0.96221 0.0
C741 C 0.7742 0.49036 0.97227 0.0
C742 C 0.76988 0.48581 0.9949 0.0
C743 C 0.78511 0.47309 0.00753 0.0
C744 C 0.80466 0.46482 0.99754 0.0
C745 C 0.92671 0.4921 0.9647 0.0
C746 C 0.93423 0.48795 0.98678 0.0
C747 C 0.90614 0.48322 0.95711 0.0
C748 C 0.89263 0.46995 0.97137 0.0
C749 C 0.89979 0.46609 0.99355 0.0
C750 C 0.92049 0.4749 1.00117 0.0
C751 C 0.87103 0.46027 0.96293 0.0
C752 C 0.85082 0.46663 0.97321 0.0
C753 C 0.87022 0.44636 0.94367 0.0
C754 C 0.89109 0.43823 0.93274 0.0
C755 C 0.9076 0.42678 0.9453 0.0
C756 C 0.92738 0.41947 0.93499 0.0
C757 C 0.93079 0.42337 0.91209 0.0
C758 C 0.9144 0.43454 0.89944 0.0
C759 C 0.8946 0.44191 0.90966 0.0
H760 H 0.94611 0.41768 0.90415 0.0
H761 H 0.75475 0.49219 0.00267 0.0
H762 H 0.7457 0.62324 0.42529 0.0
H763 H 0.71093 0.61074 0.44386 0.0
H764 H 0.72149 0.54306 0.42024 0.0
H765 H 0.75645 0.55526 0.40203 0.0
H766 H 0.67854 0.55789 0.41181 0.0
H767 H 0.73053 0.55593 0.47456 0.0
H768 H 0.75892 0.57205 0.50057 0.0
H769 H 0.71166 0.62218 0.52126 0.0
H770 H 0.68308 0.60654 0.49514 0.0
H771 H 0.59397 0.49926 0.47003 0.0
H772 H 0.63061 0.51239 0.45633 0.0
H773 H 0.62154 0.57592 0.49006 0.0
H774 H 0.58526 0.56228 0.50485 0.0
H775 H 0.66347 0.56499 0.49338 0.0
H776 H 0.61163 0.56843 0.43157 0.0
H777 H 0.5827 0.55411 0.40511 0.0
H778 H 0.62872 0.50407 0.38164 0.0
H779 H 0.65783 0.5179 0.40817 0.0
C780 C 0.74083 0.60562 0.42434 0.0
C781 C 0.75386 0.59028 0.41207 0.0
C782 C 0.72091 0.59852 0.43492 0.0
C783 C 0.71367 0.57596 0.43349 0.0
C784 C 0.72673 0.56058 0.42147 0.0
C785 C 0.74666 0.56762 0.41097 0.0
C786 C 0.69205 0.56844 0.44376 0.0
C787 C 0.67533 0.55917 0.42969 0.0
C788 C 0.6876 0.57088 0.46695 0.0
C789 C 0.70474 0.5802 0.48274 0.0
C790 C 0.72625 0.57051 0.48453 0.0
C791 C 0.74236 0.57953 0.49931 0.0
C792 C 0.73711 0.59817 0.51252 0.0
C793 C 0.71571 0.60777 0.51101 0.0
C794 C 0.69954 0.59882 0.49623 0.0
C795 C 0.59984 0.51599 0.47463 0.0
C796 C 0.58667 0.52984 0.48832 0.0
C797 C 0.62075 0.52354 0.46668 0.0
C798 C 0.62861 0.54542 0.4716 0.0
C799 C 0.6158 0.55904 0.48589 0.0
C800 C 0.59507 0.55125 0.49431 0.0
C801 C 0.64996 0.55413 0.46145 0.0
C802 C 0.6666 0.56372 0.47549 0.0
C803 C 0.65426 0.55231 0.43812 0.0
C804 C 0.63684 0.54409 0.42199 0.0
C805 C 0.61553 0.55429 0.42086 0.0
C806 C 0.59911 0.54627 0.40584 0.0
C807 C 0.60385 0.52816 0.39174 0.0
C808 C 0.62506 0.51808 0.39258 0.0
C809 C 0.64154 0.52602 0.40759 0.0
H810 H 0.59111 0.52197 0.38013 0.0
H811 H 0.74961 0.60513 0.52395 0.0
H812 H 0.14098 0.29253 0.09428 0.0
H813 H 0.12187 0.3271 0.08337 0.0
H814 H 0.05779 0.29762 0.10246 0.0
H815 H 0.0768 0.26254 0.11278 0.0
H816 H 0.05436 0.3197 0.06291 0.0
H817 H 0.0829 0.33666 0.13578 0.0
H818 H 0.11115 0.33928 0.16626 0.0
H819 H 0.15132 0.38486 0.12648 0.0
H820 H 0.12348 0.38226 0.0956 0.0
H821 H 0.00262 0.42937 0.05386 0.0
H822 H 0.01554 0.39328 0.06929 0.0
H823 H 0.08351 0.40904 0.04818 0.0
H824 H 0.07086 0.44483 0.03265 0.0
H825 H 0.08091 0.39352 0.09252 0.0
H826 H 0.05334 0.37322 0.0185 0.0
H827 H 0.0246 0.37056 0.98847 0.0
H828 H 0.98154 0.33138 0.0318 0.0
H829 H 0.00992 0.33409 0.06222 0.0
C830 C 0.12279 0.29327 0.09598 0.0
C831 C 0.11043 0.27473 0.10439 0.0
C832 C 0.11191 0.31316 0.08996 0.0
C833 C 0.08842 0.31508 0.09238 0.0
C834 C 0.07594 0.29656 0.10056 0.0
C835 C 0.08685 0.2766 0.10661 0.0
C836 C 0.07706 0.3364 0.08606 0.0
C837 C 0.05986 0.3358 0.06972 0.0
C838 C 0.08436 0.35746 0.09476 0.0
C839 C 0.10117 0.35912 0.1133 0.0
C840 C 0.09785 0.34711 0.13345 0.0
C841 C 0.11377 0.34861 0.15081 0.0
C842 C 0.13304 0.36219 0.14829 0.0
C843 C 0.1364 0.37433 0.1284 0.0
C844 C 0.12053 0.37287 0.11098 0.0
C845 C 0.02031 0.42512 0.0525 0.0
C846 C 0.03568 0.43997 0.04197 0.0
C847 C 0.02764 0.40449 0.06127 0.0
C848 C 0.05047 0.3985 0.05983 0.0
C849 C 0.06583 0.41336 0.0495 0.0
C850 C 0.05851 0.43379 0.04053 0.0
C851 C 0.05865 0.3768 0.06905 0.0
C852 C 0.07522 0.37737 0.08597 0.0
C853 C 0.05066 0.35576 0.06099 0.0
C854 C 0.03362 0.3541 0.04272 0.0
C855 C 0.03765 0.36423 0.0217 0.0
C856 C 0.02145 0.36267 0.00459 0.0
C857 C 1.00122 0.35088 0.00825 0.0
C858 C 0.99719 0.34055 0.02901 0.0
C859 C 0.01333 0.34208 0.04618 0.0
H860 H 0.9887 0.34968 0.99498 0.0
H861 H 0.14535 0.36334 0.16175 0.0
H862 H 0.57307 0.26733 0.9153 0.0
H863 H 0.55526 0.23131 0.92548 0.0
H864 H 0.61485 0.21306 0.96306 0.0
H865 H 0.63308 0.24848 0.95221 0.0
H866 H 0.60085 0.1789 0.93812 0.0
H867 H 0.56582 0.23107 0.98888 0.0
H868 H 0.54425 0.26485 0.99897 0.0
H869 H 0.4873 0.24027 0.96098 0.0
H870 H 0.50865 0.20647 0.95041 0.0
H871 H 0.5636 0.0912 0.00802 0.0
H872 H 0.57632 0.12765 0.99375 0.0
H873 H 0.51464 0.13391 0.9555 0.0
H874 H 0.50153 0.09726 0.96991 0.0
H875 H 0.52702 0.17362 0.97704 0.0
H876 H 0.56153 0.11987 0.92882 0.0
H877 H 0.58318 0.08586 0.91973 0.0
H878 H 0.64137 0.11344 0.95362 0.0
H879 H 0.61997 0.14749 0.9632 0.0
C880 C 0.58244 0.25559 0.92561 0.0
C881 C 0.6045 0.26087 0.933 0.0
C882 C 0.57214 0.23509 0.9316 0.0
C883 C 0.58362 0.21956 0.94523 0.0
C884 C 0.60562 0.22479 0.95258 0.0
C885 C 0.61594 0.24519 0.94655 0.0
C886 C 0.57306 0.19762 0.95158 0.0
C887 C 0.5848 0.17779 0.94681 0.0
C888 C 0.55177 0.19608 0.96229 0.0
C889 C 0.53892 0.21637 0.96864 0.0
C890 C 0.54876 0.23296 0.98252 0.0
C891 C 0.53656 0.25209 0.98836 0.0
C892 C 0.51444 0.25474 0.98056 0.0
C893 C 0.50445 0.23822 0.96697 0.0
C894 C 0.51659 0.21907 0.96106 0.0
C895 C 0.55263 0.10025 0.99661 0.0
C896 C 0.53157 0.09117 0.99001 0.0
C897 C 0.56 0.1211 0.98841 0.0
C898 C 0.54658 0.13334 0.97331 0.0
C899 C 0.52529 0.12467 0.96707 0.0
C900 C 0.51787 0.10371 0.97527 0.0
C901 C 0.55509 0.15505 0.96403 0.0
C902 C 0.54296 0.17477 0.96816 0.0
C903 C 0.57607 0.15654 0.95278 0.0
C904 C 0.58908 0.13617 0.94686 0.0
C905 C 0.57889 0.11862 0.93446 0.0
C906 C 0.59113 0.09934 0.92921 0.0
C907 C 0.61362 0.09747 0.93613 0.0
C908 C 0.62394 0.11491 0.94828 0.0
C909 C 0.61177 0.13421 0.9536 0.0
H910 H 0.62307 0.08253 0.93205 0.0
H911 H 0.50502 0.26956 0.98511 0.0
H912 H 0.93513 0.74646 0.44479 0.0
H913 H 0.95457 0.78136 0.45609 0.0
H914 H 0.90529 0.82027 0.41964 0.0
H915 H 0.88587 0.78547 0.40817 0.0
H916 H 0.94993 0.83506 0.41265 0.0
H917 H 0.90058 0.81577 0.47448 0.0
H918 H 0.8853 0.79073 0.50401 0.0
H919 H 0.95107 0.78654 0.5344 0.0
H920 H 0.96682 0.81131 0.50484 0.0
H921 H 0.96668 0.94379 0.45819 0.0
H922 H 0.95206 0.90755 0.44503 0.0
H923 H 0.99544 0.87313 0.49212 0.0
H924 H 0.0095 0.90943 0.50599 0.0
H925 H 0.95597 0.85468 0.49343 0.0
H926 H 0.00569 0.87478 0.43357 0.0
H927 H 0.02219 0.89902 0.40404 0.0
H928 H 0.95823 0.90064 0.36975 0.0
H929 H 0.94126 0.87664 0.39924 0.0
C930 C 0.92857 0.76246 0.43904 0.0
C931 C 0.90892 0.76326 0.42569 0.0
C932 C 0.93961 0.78235 0.44559 0.0
C933 C 0.93126 0.80338 0.43882 0.0
C934 C 0.91197 0.80421 0.42507 0.0
C935 C 0.90081 0.78434 0.41868 0.0
C936 C 0.94231 0.82458 0.44645 0.0
C937 C 0.9511 0.8395 0.43029 0.0
C938 C 0.9444 0.82999 0.46949 0.0
C939 C 0.93492 0.81519 0.48732 0.0
C940 C 0.91182 0.80936 0.48735 0.0
C941 C 0.90307 0.79524 0.50411 0.0
C942 C 0.91722 0.78699 0.52103 0.0
C943 C 0.94014 0.7929 0.52126 0.0
C944 C 0.94898 0.80699 0.50452 0.0
C945 C 0.97327 0.92851 0.46563 0.0
C946 C 0.9893 0.92951 0.48311 0.0
C947 C 0.96496 0.90775 0.458 0.0
C948 C 0.97288 0.88751 0.46731 0.0
C949 C 0.98906 0.88848 0.48464 0.0
C950 C 0.99713 0.90925 0.49252 0.0
C951 C 0.96359 0.86541 0.45962 0.0
C952 C 0.95506 0.85027 0.47577 0.0
C953 C 0.96199 0.8597 0.43656 0.0
C954 C 0.97216 0.87406 0.41873 0.0
C955 C 0.9951 0.88043 0.41981 0.0
C956 C 0.00455 0.89411 0.40307 0.0
C957 C 0.99126 0.90141 0.38506 0.0
C958 C 0.9685 0.89499 0.38372 0.0
C959 C 0.95897 0.88133 0.40044 0.0
H960 H 0.9986 0.912 0.37211 0.0
H961 H 0.91041 0.77607 0.534 0.0
H962 H 0.39426 0.73523 0.6131 0.0
H963 H 0.40661 0.70095 0.5944 0.0
H964 H 0.47561 0.7159 0.61327 0.0
H965 H 0.46351 0.7507 0.63123 0.0
H966 H 0.47373 0.70113 0.57113 0.0
H967 H 0.44396 0.67644 0.64188 0.0
H968 H 0.4156 0.67288 0.67193 0.0
H969 H 0.36938 0.64071 0.62602 0.0
H970 H 0.39737 0.64436 0.5956 0.0
H971 H 0.5175 0.59054 0.55477 0.0
H972 H 0.50561 0.62631 0.57102 0.0
H973 H 0.43757 0.61403 0.54748 0.0
H974 H 0.44925 0.5783 0.53116 0.0
H975 H 0.4391 0.62741 0.59174 0.0
H976 H 0.46972 0.65182 0.52109 0.0
H977 H 0.49869 0.65506 0.4916 0.0
H978 H 0.54414 0.68732 0.53819 0.0
H979 H 0.51553 0.68398 0.56808 0.0
C980 C 0.41211 0.7314 0.61305 0.0
C981 C 0.42787 0.74572 0.62379 0.0
C982 C 0.41912 0.71165 0.60254 0.0
C983 C 0.44201 0.70564 0.60271 0.0
C984 C 0.45784 0.7201 0.61301 0.0
C985 C 0.45086 0.7399 0.62347 0.0
C986 C 0.44942 0.6842 0.59231 0.0
C987 C 0.46636 0.68499 0.57586 0.0
C988 C 0.43954 0.66314 0.59814 0.0
C989 C 0.42268 0.66089 0.61641 0.0
C990 C 0.42768 0.66877 0.63815 0.0
C991 C 0.41169 0.66671 0.65525 0.0
C992 C 0.39068 0.65663 0.65087 0.0
C993 C 0.38565 0.64854 0.62938 0.0
C994 C 0.40158 0.65059 0.6122 0.0
C995 C 0.50002 0.59547 0.55296 0.0
C996 C 0.48435 0.58152 0.54162 0.0
C997 C 0.49327 0.61597 0.5622 0.0
C998 C 0.47073 0.62289 0.56035 0.0
C999 C 0.45505 0.60902 0.54909 0.0
C1000 C 0.4618 0.58862 0.5397 0.0
C1001 C 0.46334 0.64437 0.57058 0.0
C1002 C 0.44644 0.64357 0.58702 0.0
C1003 C 0.47335 0.66538 0.56483 0.0
C1004 C 0.49057 0.66744 0.54689 0.0
C1005 C 0.48596 0.65943 0.52511 0.0
C1006 C 0.5023 0.66131 0.50831 0.0
C1007 C 0.52326 0.67133 0.51303 0.0
C1008 C 0.5279 0.67953 0.53456 0.0
C1009 C 0.51163 0.67766 0.55144 0.0
H1010 H 0.53589 0.67278 0.5 0.0
H1011 H 0.37832 0.65504 0.66414 0.0
H1012 H 0.94043 0.88892 0.75338 0.0
H1013 H 0.95167 0.90506 0.71733 0.0
H1014 H 0.93343 0.97122 0.7404 0.0
H1015 H 0.92224 0.95515 0.77675 0.0
H1016 H 0.91874 0.96345 0.69747 0.0
H1017 H 0.9882 0.95716 0.73818 0.0
H1018 H 0.01711 0.93809 0.76108 0.0
H1019 H 0.02739 0.8902 0.70829 0.0
H1020 H 0.99829 0.90879 0.68519 0.0
H1021 H 0.97306 0.01722 0.60395 0.0
H1022 H 0.96131 0.00611 0.64178 0.0
H1023 H 0.98104 0.93768 0.62846 0.0
H1024 H 0.99333 0.94873 0.59093 0.0
H1025 H 0.99577 0.95004 0.66824 0.0
H1026 H 0.92455 0.95481 0.6286 0.0
H1027 H 0.89535 0.9736 0.6058 0.0
H1028 H 0.88834 0.02428 0.65653 0.0
H1029 H 0.91772 0.00594 0.67952 0.0
C1030 C 0.939 0.90695 0.75091 0.0
C1031 C 0.93067 0.92078 0.76805 0.0
C1032 C 0.94538 0.91614 0.73025 0.0
C1033 C 0.94371 0.93939 0.72629 0.0
C1034 C 0.93491 0.95323 0.74313 0.0
C1035 C 0.92848 0.94402 0.76386 0.0
C1036 C 0.95127 0.94909 0.70452 0.0
C1037 C 0.93569 0.96086 0.69121 0.0
C1038 C 0.97329 0.94541 0.69623 0.0
C1039 C 0.99093 0.93427 0.71002 0.0
C1040 C 0.99651 0.94246 0.73151 0.0
C1041 C 0.01295 0.93175 0.74452 0.0
C1042 C 0.02405 0.91292 0.73617 0.0
C1043 C 0.01877 0.90478 0.71475 0.0
C1044 C 0.00232 0.91542 0.70168 0.0
C1045 C 0.97481 0.99979 0.60904 0.0
C1046 C 0.98413 0.98387 0.59437 0.0
C1047 C 0.96801 0.99344 0.63067 0.0
C1048 C 0.97008 0.97099 0.63793 0.0
C1049 C 0.97931 0.9551 0.62328 0.0
C1050 C 0.98628 0.96145 0.60177 0.0
C1051 C 0.96308 0.96397 0.66089 0.0
C1052 C 0.97884 0.95277 0.67451 0.0
C1053 C 0.94123 0.96817 0.66942 0.0
C1054 C 0.9235 0.97914 0.65566 0.0
C1055 C 0.9169 0.97006 0.63481 0.0
C1056 C 0.9003 0.98061 0.62187 0.0
C1057 C 0.89005 1.00016 0.62968 0.0
C1058 C 0.89632 0.00916 0.65048 0.0
C1059 C 0.91294 0.99868 0.66348 0.0
H1060 H 0.8772 0.00831 0.61963 0.0
H1061 H 0.03677 0.90464 0.74627 0.0
H1062 H 0.55717 0.08218 0.28378 0.0
H1063 H 0.54674 0.06653 0.24709 0.0
H1064 H 0.60947 0.09144 0.2194 0.0
H1065 H 0.61985 0.10741 0.2559 0.0
H1066 H 0.57307 0.10197 0.19308 0.0
H1067 H 0.60258 0.03622 0.2297 0.0
H1068 H 0.60565 0.00785 0.25989 0.0
H1069 H 0.53628 0.98839 0.24965 0.0
H1070 H 0.53269 0.01688 0.21959 0.0
H1071 H 0.5683 0.04694 0.08834 0.0
H1072 H 0.58003 0.05885 0.12587 0.0
H1073 H 0.51874 0.03043 0.15351 0.0
H1074 H 0.50701 0.01807 0.11604 0.0
H1075 H 0.5542 0.02134 0.18013 0.0
H1076 H 0.52396 0.08694 0.14451 0.0
H1077 H 0.51988 0.11553 0.11464 0.0
H1078 H 0.58923 0.13574 0.12356 0.0
H1079 H 0.59381 0.10703 0.15329 0.0
C1080 C 0.56874 0.0843 0.26986 0.0
C1081 C 0.58934 0.09602 0.27273 0.0
C1082 C 0.56283 0.07521 0.24897 0.0
C1083 C 0.5774 0.0777 0.23055 0.0
C1084 C 0.59801 0.08928 0.2334 0.0
C1085 C 0.60399 0.09824 0.25431 0.0
C1086 C 0.5708 0.06896 0.2081 0.0
C1087 C 0.56927 0.08429 0.19017 0.0
C1088 C 0.56519 0.046 0.20448 0.0
C1089 C 0.5673 0.02885 0.22255 0.0
C1090 C 0.58792 0.02603 0.23402 0.0
C1091 C 0.58976 0.0099 0.25108 0.0
C1092 C 0.57115 0.99637 0.25673 0.0
C1093 C 0.55067 0.9989 0.24528 0.0
C1094 C 0.54872 0.01503 0.22821 0.0
C1095 C 0.55732 0.04311 0.10238 0.0
C1096 C 0.53662 0.03166 0.09911 0.0
C1097 C 0.56403 0.05002 0.12384 0.0
C1098 C 0.5501 0.04584 0.14246 0.0
C1099 C 0.52973 0.03389 0.13937 0.0
C1100 C 0.52303 0.02689 0.11791 0.0
C1101 C 0.55661 0.05435 0.16506 0.0
C1102 C 0.55805 0.03902 0.18303 0.0
C1103 C 0.56199 0.07736 0.16879 0.0
C1104 C 0.55928 0.09468 0.15097 0.0
C1105 C 0.53839 0.09736 0.13998 0.0
C1106 C 0.53598 0.1136 0.12309 0.0
C1107 C 0.5543 0.1274 0.11716 0.0
C1108 C 0.57506 0.12502 0.12815 0.0
C1109 C 0.57757 0.10877 0.14503 0.0
H1110 H 0.5524 0.13997 0.10409 0.0
H1111 H 0.57262 0.98388 0.26994 0.0
H1112 H 0.43334 0.62849 0.27767 0.0
H1113 H 0.4427 0.61101 0.31363 0.0
H1114 H 0.45806 0.54886 0.27981 0.0
H1115 H 0.44833 0.56627 0.24365 0.0
H1116 H 0.43539 0.54005 0.31689 0.0
H1117 H 0.50037 0.58401 0.29911 0.0
H1118 H 0.52226 0.61766 0.28757 0.0
H1119 H 0.49939 0.65312 0.3458 0.0
H1120 H 0.47707 0.61977 0.35754 0.0
H1121 H 0.49852 0.49903 0.4135 0.0
H1122 H 0.48902 0.5126 0.37568 0.0
H1123 H 0.45404 0.5689 0.4043 0.0
H1124 H 0.46295 0.55521 0.44215 0.0
H1125 H 0.48886 0.57859 0.36895 0.0
H1126 H 0.42248 0.53267 0.38492 0.0
H1127 H 0.4029 0.4974 0.39572 0.0
H1128 H 0.43227 0.4635 0.33953 0.0
H1129 H 0.45232 0.49852 0.32859 0.0
C1130 C 0.43887 0.61114 0.27786 0.0
C1131 C 0.44034 0.59882 0.25782 0.0
C1132 C 0.44422 0.60116 0.29843 0.0
C1133 C 0.4515 0.57873 0.29941 0.0
C1134 C 0.45256 0.56621 0.27946 0.0
C1135 C 0.44699 0.57616 0.25883 0.0
C1136 C 0.45793 0.56852 0.32132 0.0
C1137 C 0.44735 0.54832 0.3281 0.0
C1138 C 0.47347 0.57932 0.33606 0.0
C1139 C 0.48688 0.59944 0.3291 0.0
C1140 C 0.49986 0.59904 0.30937 0.0
C1141 C 0.51237 0.61805 0.3028 0.0
C1142 C 0.51218 0.63753 0.31591 0.0
C1143 C 0.49951 0.63802 0.33565 0.0
C1144 C 0.48694 0.61906 0.34228 0.0
C1145 C 0.48868 0.51422 0.41173 0.0
C1146 C 0.48146 0.52606 0.43079 0.0
C1147 C 0.48325 0.52189 0.39015 0.0
C1148 C 0.47086 0.54171 0.3873 0.0
C1149 C 0.46361 0.55355 0.40624 0.0
C1150 C 0.46863 0.54566 0.42781 0.0
C1151 C 0.46598 0.55051 0.36454 0.0
C1152 C 0.47698 0.57036 0.35762 0.0
C1153 C 0.4512 0.53917 0.34956 0.0
C1154 C 0.43912 0.51814 0.3561 0.0
C1155 C 0.42496 0.51764 0.375 0.0
C1156 C 0.41373 0.4977 0.38112 0.0
C1157 C 0.4164 0.4782 0.36837 0.0
C1158 C 0.43026 0.47861 0.34942 0.0
C1159 C 0.44155 0.4985 0.34325 0.0
H1160 H 0.40768 0.46278 0.37312 0.0
H1161 H 0.52188 0.65223 0.31081 0.0
H1162 H 0.08747 0.46933 0.74568 0.0
H1163 H 0.07198 0.48224 0.78138 0.0
H1164 H 0.09626 0.42211 0.81407 0.0
H1165 H 0.11149 0.409 0.77837 0.0
H1166 H 0.05532 0.43158 0.82868 0.0
H1167 H 0.12468 0.47336 0.81806 0.0
H1168 H 0.15137 0.49823 0.79777 0.0
H1169 H 0.10249 0.55116 0.79736 0.0
H1170 H 0.07539 0.52649 0.81739 0.0
H1171 H 0.05993 0.46884 0.94214 0.0
H1172 H 0.07081 0.4571 0.90437 0.0
H1173 H 0.03303 0.51198 0.87579 0.0
H1174 H 0.02168 0.52364 0.91351 0.0
H1175 H 0.07858 0.5064 0.85846 0.0
H1176 H 0.00996 0.46483 0.87085 0.0
H1177 H 0.98389 0.44001 0.89192 0.0
H1178 H 0.0322 0.38662 0.88977 0.0
H1179 H 0.05873 0.41127 0.86897 0.0
C1180 C 0.08951 0.45889 0.7605 0.0
C1181 C 0.1008 0.43821 0.75925 0.0
C1182 C 0.08067 0.46628 0.78089 0.0
C1183 C 0.08325 0.4533 0.8005 0.0
C1184 C 0.09404 0.4324 0.79917 0.0
C1185 C 0.10272 0.42492 0.77875 0.0
C1186 C 0.07515 0.46166 0.82252 0.0
C1187 C 0.06061 0.44784 0.83526 0.0
C1188 C 0.08162 0.48311 0.83095 0.0
C1189 C 0.09793 0.498 0.819 0.0
C1190 C 0.11956 0.49025 0.81349 0.0
C1191 C 0.13477 0.50432 0.80206 0.0
C1192 C 0.12861 0.52624 0.79622 0.0
C1193 C 0.10723 0.53416 0.80186 0.0
C1194 C 0.09195 0.52015 0.81326 0.0
C1195 C 0.05399 0.47847 0.92784 0.0
C1196 C 0.03992 0.49716 0.93081 0.0
C1197 C 0.06015 0.47169 0.90629 0.0
C1198 C 0.05261 0.48362 0.88736 0.0
C1199 C 0.03897 0.50255 0.89023 0.0
C1200 C 0.03247 0.50913 0.91177 0.0
C1201 C 0.05903 0.47623 0.86456 0.0
C1202 C 0.07324 0.49021 0.85174 0.0
C1203 C 0.05236 0.45491 0.85612 0.0
C1204 C 0.03643 0.43998 0.86855 0.0
C1205 C 0.01512 0.44787 0.87505 0.0
C1206 C 1.00024 0.43381 0.88691 0.0
C1207 C 0.00641 0.41177 0.89223 0.0
C1208 C 0.02746 0.40372 0.88566 0.0
C1209 C 0.04242 0.41772 0.87382 0.0
H1210 H 0.99486 0.40091 0.90141 0.0
H1211 H 0.14041 0.53711 0.78738 0.0
H1212 H 0.74642 0.90703 0.91955 0.0
H1213 H 0.71023 0.917 0.93623 0.0
H1214 H 0.73725 0.98238 0.95408 0.0
H1215 H 0.7737 0.97238 0.93766 0.0
H1216 H 0.71152 0.96267 0.98832 0.0
H1217 H 0.7047 0.97839 0.90941 0.0
H1218 H 0.70686 0.96973 0.86901 0.0
H1219 H 0.65807 0.91626 0.87728 0.0
H1220 H 0.65587 0.92439 0.91783 0.0
H1221 H 0.60657 0.01663 0.00794 0.0
H1222 H 0.64404 0.00606 0.99491 0.0
H1223 H 0.61681 0.94309 0.97011 0.0
H1224 H 0.5792 0.95371 0.98265 0.0
H1225 H 0.64319 0.96192 0.93969 0.0
H1226 H 0.64962 0.94604 0.01848 0.0
H1227 H 0.64757 0.95423 0.059 0.0
H1228 H 0.69689 0.00731 0.05134 0.0
H1229 H 0.69901 0.99963 0.0107 0.0
C1230 C 0.74477 0.92342 0.92729 0.0
C1231 C 0.7629 0.93895 0.92724 0.0
C1232 C 0.72403 0.92915 0.93667 0.0
C1233 C 0.72101 0.9505 0.94619 0.0
C1234 C 0.73924 0.96583 0.94675 0.0
C1235 C 0.75997 0.96016 0.93723 0.0
C1236 C 0.69859 0.95702 0.95493 0.0
C1237 C 0.6966 0.9628 0.97766 0.0
C1238 C 0.67909 0.95671 0.9411 0.0
C1239 C 0.68029 0.95185 0.9167 0.0
C1240 C 0.69457 0.96466 0.90265 0.0
C1241 C 0.69578 0.95987 0.87972 0.0
C1242 C 0.68266 0.94242 0.87059 0.0
C1243 C 0.66825 0.92975 0.88437 0.0
C1244 C 0.667 0.93445 0.90733 0.0
C1245 C 0.60855 1.00046 0.99985 0.0
C1246 C 0.58983 0.98603 0.99635 0.0
C1247 C 0.63003 0.99439 0.99248 0.0
C1248 C 0.63332 0.97367 0.98172 0.0
C1249 C 0.6147 0.95917 0.97836 0.0
C1250 C 0.5932 0.96526 0.9856 0.0
C1251 C 0.65597 0.96742 0.97321 0.0
C1252 C 0.65804 0.96176 0.95044 0.0
C1253 C 0.67551 0.96778 0.98706 0.0
C1254 C 0.67431 0.9724 0.0115 0.0
C1255 C 0.6599 0.95958 0.0254 0.0
C1256 C 0.65875 0.96411 0.0484 0.0
C1257 C 0.67204 0.98132 0.05773 0.0
C1258 C 0.68657 0.994 0.04409 0.0
C1259 C 0.68777 0.98956 0.02107 0.0
H1260 H 0.67113 0.9848 0.07553 0.0
H1261 H 0.68361 0.93874 0.85282 0.0
H1262 H 0.75006 0.09201 0.46041 0.0
H1263 H 0.78655 0.08205 0.47707 0.0
H1264 H 0.81053 0.06181 0.41196 0.0
H1265 H 0.77428 0.07181 0.39521 0.0
H1266 H 0.82085 0.0311 0.44355 0.0
H1267 H 0.82659 0.11215 0.43561 0.0
H1268 H 0.81451 0.1513 0.44164 0.0
H1269 H 0.82046 0.1422 0.51302 0.0
H1270 H 0.83229 0.10287 0.5074 0.0
H1271 H 0.93823 0.02624 0.45713 0.0
H1272 H 0.90016 0.03683 0.44591 0.0
H1273 H 0.8856 0.05633 0.51402 0.0
H1274 H 0.92401 0.04617 0.52539 0.0
H1275 H 0.86888 0.08635 0.48477 0.0
H1276 H 0.86553 0.00638 0.49307 0.0
H1277 H 0.8776 0.96717 0.48751 0.0
H1278 H 0.86661 0.97372 0.41644 0.0
H1279 H 0.85478 0.0131 0.42153 0.0
C1280 C 0.76317 0.08561 0.44962 0.0
C1281 C 0.75922 0.08265 0.42648 0.0
C1282 C 0.78401 0.0799 0.45918 0.0
C1283 C 0.80133 0.0713 0.44574 0.0
C1284 C 0.79738 0.0683 0.42268 0.0
C1285 C 0.77661 0.07396 0.41314 0.0
C1286 C 0.82359 0.06523 0.45554 0.0
C1287 C 0.83144 0.04324 0.45238 0.0
C1288 C 0.83709 0.08085 0.46772 0.0
C1289 C 0.83008 0.1045 0.47109 0.0
C1290 C 0.82515 0.11844 0.45259 0.0
C1291 C 0.81838 0.14067 0.45594 0.0
C1292 C 0.81666 0.14921 0.4777 0.0
C1293 C 0.82177 0.13555 0.49617 0.0
C1294 C 0.82852 0.1133 0.49292 0.0
C1295 C 0.927 0.03281 0.46978 0.0
C1296 C 0.93417 0.03519 0.49222 0.0
C1297 C 0.90516 0.03877 0.46333 0.0
C1298 C 0.88986 0.04698 0.4792 0.0
C1299 C 0.89709 0.04992 0.50151 0.0
C1300 C 0.91904 0.04407 0.50798 0.0
C1301 C 0.86635 0.05235 0.47233 0.0
C1302 C 0.85822 0.07415 0.4761 0.0
C1303 C 0.85251 0.03652 0.46079 0.0
C1304 C 0.85943 0.01276 0.45767 0.0
C1305 C 0.86583 0.99952 0.47623 0.0
C1306 C 0.87261 0.97725 0.47317 0.0
C1307 C 0.87292 0.96797 0.45163 0.0
C1308 C 0.86638 0.98093 0.43312 0.0
C1309 C 0.85961 0.00322 0.43609 0.0
H1310 H 0.87819 0.95073 0.44929 0.0
H1311 H 0.81141 0.16643 0.48025 0.0
H1312 H 0.25442 0.6189 0.11263 0.0
H1313 H 0.21757 0.61082 0.09551 0.0
H1314 H 0.24102 0.54572 0.0744 0.0
H1315 H 0.2781 0.5538 0.09132 0.0
H1316 H 0.21647 0.56859 0.04097 0.0
H1317 H 0.20898 0.54808 0.11883 0.0
H1318 H 0.21156 0.55425 0.1597 0.0
H1319 H 0.16533 0.60928 0.15426 0.0
H1320 H 0.16273 0.60364 0.11327 0.0
H1321 H 0.11047 0.51572 0.01884 0.0
H1322 H 0.14821 0.52627 0.03199 0.0
H1323 H 0.12204 0.58781 0.05954 0.0
H1324 H 0.08408 0.57718 0.04683 0.0
H1325 H 0.1483 0.56754 0.08918 0.0
H1326 H 0.15471 0.58784 0.01167 0.0
H1327 H 0.1522 0.5823 0.9707 0.0
H1328 H 0.20024 0.52876 0.97503 0.0
H1329 H 0.20281 0.53376 0.0161 0.0
C1330 C 0.25181 0.60296 0.10413 0.0
C1331 C 0.26913 0.58695 0.10334 0.0
C1332 C 0.23072 0.59832 0.09449 0.0
C1333 C 0.22655 0.57761 0.08385 0.0
C1334 C 0.24393 0.56178 0.08257 0.0
C1335 C 0.26501 0.56635 0.09237 0.0
C1336 C 0.20384 0.5723 0.07458 0.0
C1337 C 0.20157 0.56808 0.05151 0.0
C1338 C 0.18439 0.57222 0.0883 0.0
C1339 C 0.18585 0.57558 0.11295 0.0
C1340 C 0.19951 0.56162 0.12632 0.0
C1341 C 0.20095 0.565 0.14951 0.0
C1342 C 0.18867 0.58218 0.15957 0.0
C1343 C 0.17487 0.59599 0.14645 0.0
C1344 C 0.17339 0.5927 0.12323 0.0
C1345 C 0.11272 0.53161 0.02752 0.0
C1346 C 0.09419 0.54559 0.03179 0.0
C1347 C 0.13437 0.53766 0.03495 0.0
C1348 C 0.13802 0.55794 0.04657 0.0
C1349 C 0.11963 0.57208 0.05059 0.0
C1350 C 0.09793 0.566 0.04326 0.0
C1351 C 0.1608 0.56384 0.05546 0.0
C1352 C 0.16313 0.56813 0.07854 0.0
C1353 C 0.18027 0.56408 0.0417 0.0
C1354 C 0.17879 0.56104 0.017 0.0
C1355 C 0.16461 0.57476 0.00391 0.0
C1356 C 0.1632 0.57174 0.98067 0.0
C1357 C 0.17601 0.55515 0.97028 0.0
C1358 C 0.1903 0.54158 0.98311 0.0
C1359 C 0.19176 0.54452 0.00637 0.0
H1360 H 0.17489 0.55284 0.95227 0.0
H1361 H 0.1898 0.58477 0.17753 0.0
H1362 H 0.2707 0.3967 0.61303 0.0
H1363 H 0.30698 0.41186 0.60033 0.0
H1364 H 0.27344 0.44674 0.5461 0.0
H1365 H 0.23705 0.43111 0.55852 0.0
H1366 H 0.31008 0.42835 0.53097 0.0
H1367 H 0.29365 0.47487 0.59368 0.0
H1368 H 0.28292 0.48385 0.63257 0.0
H1369 H 0.34157 0.44969 0.65743 0.0
H1370 H 0.3525 0.44023 0.61868 0.0
H1371 H 0.40808 0.49719 0.50746 0.0
H1372 H 0.37003 0.48485 0.51831 0.0
H1373 H 0.39848 0.4389 0.56676 0.0
H1374 H 0.43654 0.45095 0.55598 0.0
H1375 H 0.36352 0.46566 0.58389 0.0
H1376 H 0.37837 0.41835 0.51975 0.0
H1377 H 0.38866 0.41116 0.48035 0.0
H1378 H 0.33201 0.44987 0.45772 0.0
H1379 H 0.32157 0.45755 0.49703 0.0
C1380 C 0.27104 0.40777 0.59853 0.0
C1381 C 0.25104 0.41285 0.58686 0.0
C1382 C 0.29179 0.41647 0.59129 0.0
C1383 C 0.29295 0.43079 0.57247 0.0
C1384 C 0.27298 0.43578 0.56069 0.0
C1385 C 0.25222 0.42685 0.56778 0.0
C1386 C 0.31508 0.4401 0.5649 0.0
C1387 C 0.32158 0.43685 0.54248 0.0
C1388 C 0.33027 0.45098 0.57992 0.0
C1389 C 0.32379 0.45667 0.60327 0.0
C1390 C 0.30417 0.46912 0.60744 0.0
C1391 C 0.29807 0.47432 0.62947 0.0
C1392 C 0.31152 0.4673 0.64746 0.0
C1393 C 0.33115 0.4551 0.64347 0.0
C1394 C 0.33732 0.44984 0.62148 0.0
C1395 C 0.40626 0.48441 0.52038 0.0
C1396 C 0.42537 0.47504 0.53083 0.0
C1397 C 0.3845 0.47735 0.52651 0.0
C1398 C 0.38148 0.46093 0.54329 0.0
C1399 C 0.40048 0.45161 0.55378 0.0
C1400 C 0.42222 0.45845 0.54751 0.0
C1401 C 0.35852 0.4536 0.55017 0.0
C1402 C 0.35189 0.45728 0.57242 0.0
C1403 C 0.34313 0.44342 0.53494 0.0
C1404 C 0.34934 0.43873 0.51132 0.0
C1405 C 0.36823 0.4255 0.50637 0.0
C1406 C 0.37406 0.4213 0.48406 0.0
C1407 C 0.36104 0.43011 0.46654 0.0
C1408 C 0.34211 0.44309 0.47131 0.0
C1409 C 0.33621 0.44735 0.4936 0.0
H1410 H 0.36558 0.42684 0.44928 0.0
H1411 H 0.30677 0.47134 0.6645 0.0
H1412 H 0.93157 0.78209 0.96901 0.0
H1413 H 0.94869 0.74591 0.97875 0.0
H1414 H 0.92289 0.71719 0.91717 0.0
H1415 H 0.90551 0.75319 0.90747 0.0
H1416 H 0.91457 0.69019 0.95389 0.0
H1417 H 0.97769 0.73024 0.92162 0.0
H1418 H 0.00466 0.76195 0.91751 0.0
H1419 H 0.02731 0.75233 0.98547 0.0
H1420 H 1.00022 0.72074 0.99009 0.0
H1421 H 0.97424 0.58809 0.95383 0.0
H1422 H 0.96031 0.6253 0.94353 0.0
H1423 H 0.99001 0.6533 0.00373 0.0
H1424 H 0.00434 0.61617 0.01405 0.0
H1425 H 0.9966 0.68103 0.96837 0.0
H1426 H 0.93393 0.64179 1.00133 0.0
H1427 H 0.90678 0.6104 0.00652 0.0
H1428 H 0.88287 0.619 0.93884 0.0
H1429 H 0.91012 0.65027 0.93314 0.0
C1430 C 0.92953 0.76804 0.95757 0.0
C1431 C 0.91722 0.77048 0.93746 0.0
C1432 C 0.93945 0.74745 0.96308 0.0
C1433 C 0.93718 0.72892 0.9486 0.0
C1434 C 0.92489 0.73131 0.92854 0.0
C1435 C 0.91512 0.75192 0.92295 0.0
C1436 C 0.94708 0.70683 0.95463 0.0
C1437 C 0.93255 0.68811 0.95674 0.0
C1438 C 0.97044 0.70431 0.95902 0.0
C1439 C 0.98675 0.72328 0.95627 0.0
C1440 C 0.98827 0.73501 0.93575 0.0
C1441 C 0.00361 0.75293 0.93332 0.0
C1442 C 0.01765 0.75919 0.95124 0.0
C1443 C 0.0164 0.74749 0.97162 0.0
C1444 C 1.00107 0.72956 0.97415 0.0
C1445 C 0.97794 0.60215 0.96486 0.0
C1446 C 0.9903 0.59906 0.98487 0.0
C1447 C 0.96988 0.62342 0.95897 0.0
C1448 C 0.97383 0.64203 0.97303 0.0
C1449 C 0.98671 0.63917 0.99266 0.0
C1450 C 0.99484 0.6179 0.99856 0.0
C1451 C 0.9641 0.66433 0.96744 0.0
C1452 C 0.97863 0.6831 0.96548 0.0
C1453 C 0.94068 0.66697 0.96336 0.0
C1454 C 0.92423 0.64822 0.96674 0.0
C1455 C 0.92301 0.63687 0.98749 0.0
C1456 C 0.90758 0.61912 0.99054 0.0
C1457 C 0.89315 0.61267 0.973 0.0
C1458 C 0.89408 0.624 0.9524 0.0
C1459 C 0.9095 0.64175 0.94926 0.0
H1460 H 0.88121 0.59892 0.9754 0.0
H1461 H 0.02952 0.77306 0.94932 0.0
H1462 H 0.392 0.77549 0.10623 0.0
H1463 H 0.40842 0.812 0.09594 0.0
H1464 H 0.46509 0.77866 0.06576 0.0
H1465 H 0.44882 0.74197 0.07641 0.0
H1466 H 0.47932 0.81457 0.0882 0.0
H1467 H 0.42228 0.80018 0.03332 0.0
H1468 H 0.38439 0.79001 0.01896 0.0
H1469 H 0.35643 0.84761 0.05175 0.0
H1470 H 0.39412 0.85796 0.0666 0.0
H1471 H 0.5117 0.91314 0.02376 0.0
H1472 H 0.49906 0.87513 0.03447 0.0
H1473 H 0.44806 0.90348 0.07707 0.0
H1474 H 0.46074 0.94149 0.06677 0.0
H1475 H 0.4323 0.86937 0.04626 0.0
H1476 H 0.49101 0.8825 0.10156 0.0
H1477 H 0.52971 0.89213 0.11399 0.0
H1478 H 0.55552 0.83601 0.07712 0.0
H1479 H 0.51696 0.82623 0.06419 0.0
C1480 C 0.40792 0.77594 0.09733 0.0
C1481 C 0.41902 0.75589 0.09191 0.0
C1482 C 0.41729 0.79681 0.09144 0.0
C1483 C 0.43778 0.79807 0.07968 0.0
C1484 C 0.44922 0.77809 0.07476 0.0
C1485 C 0.43994 0.75716 0.08085 0.0
C1486 C 0.44703 0.82028 0.07239 0.0
C1487 C 0.46914 0.82641 0.07874 0.0
C1488 C 0.43371 0.83584 0.06018 0.0
C1489 C 0.41101 0.82973 0.05124 0.0
C1490 C 0.40803 0.81059 0.03761 0.0
C1491 C 0.38659 0.8048 0.02936 0.0
C1492 C 0.36801 0.81812 0.03448 0.0
C1493 C 0.37084 0.83729 0.04782 0.0
C1494 C 0.39224 0.84314 0.05614 0.0
C1495 C 0.49787 0.91128 0.0355 0.0
C1496 C 0.48722 0.93033 0.04441 0.0
C1497 C 0.49073 0.88958 0.04163 0.0
C1498 C 0.47267 0.88657 0.05656 0.0
C1499 C 0.46204 0.90551 0.06552 0.0
C1500 C 0.46938 0.92719 0.05968 0.0
C1501 C 0.46435 0.86369 0.06239 0.0
C1502 C 0.44244 0.85745 0.05566 0.0
C1503 C 0.47797 0.84795 0.07391 0.0
C1504 C 0.50113 0.85379 0.0817 0.0
C1505 C 0.50496 0.87234 0.09592 0.0
C1506 C 0.52686 0.8778 0.1031 0.0
C1507 C 0.54507 0.86473 0.09629 0.0
C1508 C 0.5414 0.84614 0.08234 0.0
C1509 C 0.51952 0.84062 0.0751 0.0
H1510 H 0.56202 0.86898 0.10187 0.0
H1511 H 0.35142 0.81362 0.02808 0.0
H1512 H 0.11456 0.25231 0.60605 0.0
H1513 H 0.10425 0.21561 0.5903 0.0
H1514 H 0.03378 0.22939 0.60136 0.0
H1515 H 0.04393 0.26626 0.61692 0.0
H1516 H 0.04495 0.18782 0.61619 0.0
H1517 H 0.05563 0.23128 0.54882 0.0
H1518 H 0.07619 0.25648 0.52277 0.0
H1519 H 0.12916 0.208 0.51719 0.0
H1520 H 0.10907 0.18263 0.54346 0.0
H1521 H 1.00014 0.09517 0.5552 0.0
H1522 H 0.0096 0.13299 0.56854 0.0
H1523 H 0.07991 0.12183 0.5539 0.0
H1524 H 0.07051 0.08418 0.53992 0.0
H1525 H 0.06844 0.16245 0.54059 0.0
H1526 H 0.05877 0.11942 0.60839 0.0
H1527 H 0.03883 0.09407 0.63478 0.0
H1528 H 0.98488 0.14149 0.64009 0.0
H1529 H 0.00436 0.16701 0.6135 0.0
C1530 C 0.09684 0.2477 0.60481 0.0
C1531 C 0.08007 0.26225 0.61273 0.0
C1532 C 0.09098 0.22668 0.59585 0.0
C1533 C 0.06823 0.21982 0.59451 0.0
C1534 C 0.05144 0.23432 0.60229 0.0
C1535 C 0.05728 0.25536 0.61124 0.0
C1536 C 0.062 0.19723 0.58563 0.0
C1537 C 0.04979 0.18238 0.59953 0.0
C1538 C 0.06885 0.18994 0.56413 0.0
C1539 C 0.08094 0.20515 0.54828 0.0
C1540 C 0.07175 0.22607 0.54218 0.0
C1541 C 0.08331 0.24037 0.52735 0.0
C1542 C 0.104 0.23387 0.51838 0.0
C1543 C 0.11315 0.21303 0.52417 0.0
C1544 C 0.10167 0.19867 0.53902 0.0
C1545 C 0.01764 0.10071 0.55486 0.0
C1546 C 0.03458 0.08657 0.54658 0.0
C1547 C 0.02303 0.12234 0.56257 0.0
C1548 C 0.04552 0.13016 0.56254 0.0
C1549 C 0.06244 0.11616 0.55411 0.0
C1550 C 0.05704 0.0946 0.54619 0.0
C1551 C 0.0514 0.15298 0.57117 0.0
C1552 C 0.06356 0.16788 0.55724 0.0
C1553 C 0.04461 0.16029 0.5927 0.0
C1554 C 0.03292 0.14502 0.60879 0.0
C1555 C 0.04257 0.12437 0.61506 0.0
C1556 C 0.03137 0.10998 0.63008 0.0
C1557 C 0.01057 0.11614 0.63906 0.0
C1558 C 1.00097 0.13673 0.6331 0.0
C1559 C 0.0121 0.15117 0.61807 0.0
H1560 H 0.00192 0.10498 0.65068 0.0
H1561 H 0.11292 0.24497 0.50689 0.0
H1562 H 0.58967 0.2398 0.4739 0.0
H1563 H 0.57231 0.27589 0.48307 0.0
H1564 H 0.58872 0.30117 0.41704 0.0
H1565 H 0.60642 0.26532 0.4079 0.0
H1566 H 0.60054 0.33088 0.45004 0.0
H1567 H 0.53515 0.28667 0.42952 0.0
H1568 H 0.50917 0.25393 0.43129 0.0
H1569 H 0.49604 0.26759 0.50077 0.0
H1570 H 0.52221 0.30025 0.49951 0.0
H1571 H 0.53838 0.43129 0.45263 0.0
H1572 H 0.55163 0.39393 0.44237 0.0
H1573 H 0.53113 0.3681 0.50706 0.0
H1574 H 0.51734 0.40535 0.51731 0.0
H1575 H 0.52111 0.33837 0.47495 0.0
H1576 H 0.58655 0.38164 0.49627 0.0
H1577 H 0.61285 0.41417 0.49544 0.0
H1578 H 0.62653 0.40187 0.4258 0.0
H1579 H 0.60006 0.36943 0.42613 0.0
C1580 C 0.58958 0.25306 0.46135 0.0
C1581 C 0.59939 0.2497 0.44016 0.0
C1582 C 0.57951 0.2736 0.46654 0.0
C1583 C 0.57908 0.29116 0.45067 0.0
C1584 C 0.58881 0.28782 0.42951 0.0
C1585 C 0.59876 0.26727 0.42425 0.0
C1586 C 0.56918 0.31329 0.45636 0.0
C1587 C 0.58308 0.33256 0.45517 0.0
C1588 C 0.54659 0.31537 0.46369 0.0
C1589 C 0.53082 0.29577 0.46448 0.0
C1590 C 0.52688 0.28258 0.44523 0.0
C1591 C 0.51209 0.26406 0.44613 0.0
C1592 C 0.50101 0.25865 0.46615 0.0
C1593 C 0.50466 0.27178 0.48529 0.0
C1594 C 0.51945 0.29031 0.48449 0.0
C1595 C 0.53655 0.41766 0.46466 0.0
C1596 C 0.52694 0.4214 0.48588 0.0
C1597 C 0.54422 0.3963 0.45879 0.0
C1598 C 0.54276 0.37828 0.4741 0.0
C1599 C 0.53251 0.38176 0.495 0.0
C1600 C 0.52467 0.4031 0.50085 0.0
C1601 C 0.55244 0.356 0.4685 0.0
C1602 C 0.53855 0.33669 0.46977 0.0
C1603 C 0.57512 0.35382 0.4614 0.0
C1604 C 0.59115 0.37324 0.46117 0.0
C1605 C 0.59504 0.38597 0.48073 0.0
C1606 C 0.61 0.40438 0.48036 0.0
C1607 C 0.6213 0.41012 0.46057 0.0
C1608 C 0.61773 0.39742 0.44112 0.0
C1609 C 0.60277 0.37901 0.44139 0.0
H1610 H 0.63287 0.42438 0.46031 0.0
H1611 H 0.48956 0.24431 0.46681 0.0
loop_
_geom_bond_atom_site_label_1
_geom_bond_atom_site_label_2
_geom_bond_distance
_geom_bond_site_symmetry_2
_ccdc_geom_bond_type
C0 C1 1.264 . S
C0 C5 1.479 . S
C0 C10 1.465 . S
C1 C0 1.264 . S
C1 C3 1.339 . S
C1 H28 0.931 . S
C2 C3 1.395 . S
C2 C4 1.320 . S
C3 C1 1.339 . S
C3 C2 1.395 . S
C3 H29 0.929 . S
C4 C2 1.320 . S
C4 C5 1.405 . S
C4 H30 0.930 . S
C5 C0 1.479 . S
C5 C4 1.405 . S
C5 H31 0.931 . S
U6 O7 2.454 . S
U6 O8 2.458 . S
U6 C9 2.984 . S
U6 C10 2.847 . S
U6 C23 2.882 . S
U6 O24 2.441 . S
U6 O25 2.420 . S
U6 O26 2.455 . S
U6 O27 2.449 . S
O7 U6 2.454 . S
O7 C9 1.353 . S
O8 U6 2.458 . S
O8 C9 1.286 . S
C9 U6 2.984 . S
C9 O7 1.353 . S
C9 O8 1.286 . S
C9 C11 1.363 . S
C10 C0 1.465 . S
C10 U6 2.847 . S
C10 O24 1.249 . S
C10 O25 1.202 . S
C11 C9 1.363 . S
C11 C13 1.408 . S
C11 C16 1.342 . S
C12 C13 1.310 . S
C12 C15 1.461 . S
C12 H32 0.932 . S
C13 C11 1.408 . S
C13 C12 1.310 . S
C13 H33 0.930 . S
C14 C15 1.474 . S
C14 C16 1.285 . S
C14 H34 0.929 . S
C15 C12 1.461 . S
C15 C14 1.474 . S
C16 C11 1.342 . S
C16 C14 1.285 . S
C16 H35 0.930 . S
C17 C20 1.424 . S
C17 C22 1.245 . S
C17 C23 1.428 . S
C18 C21 1.260 . S
C18 C22 1.477 . S
C18 H36 0.932 . S
C19 C20 1.384 . S
C19 C21 1.479 . S
C19 H37 0.929 . S
C20 C17 1.424 . S
C20 C19 1.384 . S
C20 H38 0.928 . S
C21 C18 1.260 . S
C21 C19 1.479 . S
C22 C17 1.245 . S
C22 C18 1.477 . S
C22 H39 0.932 . S
C23 U6 2.882 . S
C23 C17 1.428 . S
C23 O26 1.301 . S
C23 O27 1.282 . S
O24 U6 2.441 . S
O24 C10 1.249 . S
O25 U6 2.420 . S
O25 C10 1.202 . S
O26 U6 2.455 . S
O26 C23 1.301 . S
O27 U6 2.449 . S
O27 C23 1.282 . S
H28 C1 0.931 . S
H29 C3 0.929 . S
H30 C4 0.930 . S
H31 C5 0.931 . S
H32 C12 0.932 . S
H33 C13 0.930 . S
H34 C14 0.929 . S
H35 C16 0.930 . S
H36 C18 0.932 . S
H37 C19 0.929 . S
H38 C20 0.928 . S
H39 C22 0.932 . S
C40 C41 1.264 . S
C40 C45 1.479 . S
C40 C50 1.465 . S
C41 C40 1.264 . S
C41 C43 1.339 . S
C41 H68 0.931 . S
C42 C43 1.395 . S
C42 C44 1.320 . S
C43 C41 1.339 . S
C43 C42 1.395 . S
C43 H69 0.929 . S
C44 C42 1.320 . S
C44 C45 1.405 . S
C44 H70 0.930 . S
C45 C40 1.479 . S
C45 C44 1.405 . S
C45 H71 0.931 . S
U46 O47 2.454 . S
U46 O48 2.458 . S
U46 C49 2.984 . S
U46 C50 2.847 . S
U46 C63 2.882 . S
U46 O64 2.441 . S
U46 O65 2.420 . S
U46 O66 2.455 . S
U46 O67 2.449 . S
O47 U46 2.454 . S
O47 C49 1.353 . S
O48 U46 2.458 . S
O48 C49 1.286 . S
C49 U46 2.984 . S
C49 O47 1.353 . S
C49 O48 1.286 . S
C49 C51 1.363 . S
C50 C40 1.465 . S
C50 U46 2.847 . S
C50 O64 1.249 . S
C50 O65 1.202 . S
C51 C49 1.363 . S
C51 C53 1.408 . S
C51 C56 1.342 . S
C52 C53 1.310 . S
C52 C55 1.461 . S
C52 H72 0.932 . S
C53 C51 1.408 . S
C53 C52 1.310 . S
C53 H73 0.930 . S
C54 C55 1.474 . S
C54 C56 1.285 . S
C54 H74 0.929 . S
C55 C52 1.461 . S
C55 C54 1.474 . S
C56 C51 1.342 . S
C56 C54 1.285 . S
C56 H75 0.930 . S
C57 C60 1.424 . S
C57 C62 1.245 . S
C57 C63 1.428 . S
C58 C61 1.260 . S
C58 C62 1.477 . S
C58 H76 0.932 . S
C59 C60 1.384 . S
C59 C61 1.479 . S
C59 H77 0.929 . S
C60 C57 1.424 . S
C60 C59 1.384 . S
C60 H78 0.928 . S
C61 C58 1.260 . S
C61 C59 1.479 . S
C62 C57 1.245 . S
C62 C58 1.477 . S
C62 H79 0.932 . S
C63 U46 2.882 . S
C63 C57 1.428 . S
C63 O66 1.301 . S
C63 O67 1.282 . S
O64 U46 2.441 . S
O64 C50 1.249 . S
O65 U46 2.420 . S
O65 C50 1.202 . S
O66 U46 2.455 . S
O66 C63 1.301 . S
O67 U46 2.449 . S
O67 C63 1.282 . S
H68 C41 0.931 . S
H69 C43 0.929 . S
H70 C44 0.930 . S
H71 C45 0.931 . S
H72 C52 0.932 . S
H73 C53 0.930 . S
H74 C54 0.929 . S
H75 C56 0.930 . S
H76 C58 0.932 . S
H77 C59 0.929 . S
H78 C60 0.928 . S
H79 C62 0.932 . S
C80 C81 1.264 . S
C80 C85 1.479 . S
C80 C90 1.465 . S
C81 C80 1.264 . S
C81 C83 1.339 . S
C81 H108 0.931 . S
C82 C83 1.395 . S
C82 C84 1.320 . S
C83 C81 1.339 . S
C83 C82 1.395 . S
C83 H109 0.929 . S
C84 C82 1.320 . S
C84 C85 1.405 . S
C84 H110 0.930 . S
C85 C80 1.479 . S
C85 C84 1.405 . S
C85 H111 0.931 . S
U86 O87 2.454 . S
U86 O88 2.458 . S
U86 C89 2.984 . S
U86 C90 2.847 . S
U86 C103 2.882 . S
U86 O104 2.441 . S
U86 O105 2.420 . S
U86 O106 2.455 . S
U86 O107 2.449 . S
O87 U86 2.454 . S
O87 C89 1.353 . S
O88 U86 2.458 . S
O88 C89 1.286 . S
C89 U86 2.984 . S
C89 O87 1.353 . S
C89 O88 1.286 . S
C89 C91 1.363 . S
C90 C80 1.465 . S
C90 U86 2.847 . S
C90 O104 1.249 . S
C90 O105 1.202 . S
C91 C89 1.363 . S
C91 C93 1.408 . S
C91 C96 1.342 . S
C92 C93 1.310 . S
C92 C95 1.461 . S
C92 H112 0.932 . S
C93 C91 1.408 . S
C93 C92 1.310 . S
C93 H113 0.930 . S
C94 C95 1.474 . S
C94 C96 1.285 . S
C94 H114 0.929 . S
C95 C92 1.461 . S
C95 C94 1.474 . S
C96 C91 1.342 . S
C96 C94 1.285 . S
C96 H115 0.930 . S
C97 C100 1.424 . S
C97 C102 1.245 . S
C97 C103 1.428 . S
C98 C101 1.260 . S
C98 C102 1.477 . S
C98 H116 0.932 . S
C99 C100 1.384 . S
C99 C101 1.479 . S
C99 H117 0.929 . S
C100 C97 1.424 . S
C100 C99 1.384 . S
C100 H118 0.928 . S
C101 C98 1.260 . S
C101 C99 1.479 . S
C102 C97 1.245 . S
C102 C98 1.477 . S
C102 H119 0.932 . S
C103 U86 2.882 . S
C103 C97 1.428 . S
C103 O106 1.301 . S
C103 O107 1.282 . S
O104 U86 2.441 . S
O104 C90 1.249 . S
O105 U86 2.420 . S
O105 C90 1.202 . S
O106 U86 2.455 . S
O106 C103 1.301 . S
O107 U86 2.449 . S
O107 C103 1.282 . S
H108 C81 0.931 . S
H109 C83 0.929 . S
H110 C84 0.930 . S
H111 C85 0.931 . S
H112 C92 0.932 . S
H113 C93 0.930 . S
H114 C94 0.929 . S
H115 C96 0.930 . S
H116 C98 0.932 . S
H117 C99 0.929 . S
H118 C100 0.928 . S
H119 C102 0.932 . S
C120 C121 1.264 . S
C120 C125 1.479 . S
C120 C130 1.465 . S
C121 C120 1.264 . S
C121 C123 1.339 . S
C121 H148 0.931 . S
C122 C123 1.395 . S
C122 C124 1.320 . S
C123 C121 1.339 . S
C123 C122 1.395 . S
C123 H149 0.929 . S
C124 C122 1.320 . S
C124 C125 1.405 . S
C124 H150 0.930 . S
C125 C120 1.479 . S
C125 C124 1.405 . S
C125 H151 0.931 . S
U126 O127 2.454 . S
U126 O128 2.458 . S
U126 C129 2.984 . S
U126 C130 2.847 . S
U126 C143 2.882 . S
U126 O144 2.441 . S
U126 O145 2.420 . S
U126 O146 2.455 . S
U126 O147 2.449 . S
O127 U126 2.454 . S
O127 C129 1.353 . S
O128 U126 2.458 . S
O128 C129 1.286 . S
C129 U126 2.984 . S
C129 O127 1.353 . S
C129 O128 1.286 . S
C129 C131 1.363 . S
C130 C120 1.465 . S
C130 U126 2.847 . S
C130 O144 1.249 . S
C130 O145 1.202 . S
C131 C129 1.363 . S
C131 C133 1.408 . S
C131 C136 1.342 . S
C132 C133 1.310 . S
C132 C135 1.461 . S
C132 H152 0.932 . S
C133 C131 1.408 . S
C133 C132 1.310 . S
C133 H153 0.930 . S
C134 C135 1.474 . S
C134 C136 1.285 . S
C134 H154 0.929 . S
C135 C132 1.461 . S
C135 C134 1.474 . S
C136 C131 1.342 . S
C136 C134 1.285 . S
C136 H155 0.930 . S
C137 C140 1.424 . S
C137 C142 1.245 . S
C137 C143 1.428 . S
C138 C141 1.260 . S
C138 C142 1.477 . S
C138 H156 0.932 . S
C139 C140 1.384 . S
C139 C141 1.479 . S
C139 H157 0.929 . S
C140 C137 1.424 . S
C140 C139 1.384 . S
C140 H158 0.928 . S
C141 C138 1.260 . S
C141 C139 1.479 . S
C142 C137 1.245 . S
C142 C138 1.477 . S
C142 H159 0.932 . S
C143 U126 2.882 . S
C143 C137 1.428 . S
C143 O146 1.301 . S
C143 O147 1.282 . S
O144 U126 2.441 . S
O144 C130 1.249 . S
O145 U126 2.420 . S
O145 C130 1.202 . S
O146 U126 2.455 . S
O146 C143 1.301 . S
O147 U126 2.449 . S
O147 C143 1.282 . S
H148 C121 0.931 . S
H149 C123 0.929 . S
H150 C124 0.930 . S
H151 C125 0.931 . S
H152 C132 0.932 . S
H153 C133 0.930 . S
H154 C134 0.929 . S
H155 C136 0.930 . S
H156 C138 0.932 . S
H157 C139 0.929 . S
H158 C140 0.928 . S
H159 C142 0.932 . S
C160 C161 1.264 . S
C160 C165 1.479 . S
C160 C170 1.465 . S
C161 C160 1.264 . S
C161 C163 1.339 . S
C161 H188 0.931 . S
C162 C163 1.395 . S
C162 C164 1.320 . S
C163 C161 1.339 . S
C163 C162 1.395 . S
C163 H189 0.929 . S
C164 C162 1.320 . S
C164 C165 1.405 . S
C164 H190 0.930 . S
C165 C160 1.479 . S
C165 C164 1.405 . S
C165 H191 0.931 . S
U166 O167 2.454 . S
U166 O168 2.458 . S
U166 C169 2.984 . S
U166 C170 2.847 . S
U166 C183 2.882 . S
U166 O184 2.441 . S
U166 O185 2.420 . S
U166 O186 2.455 . S
U166 O187 2.449 . S
O167 U166 2.454 . S
O167 C169 1.353 . S
O168 U166 2.458 . S
O168 C169 1.286 . S
C169 U166 2.984 . S
C169 O167 1.353 . S
C169 O168 1.286 . S
C169 C171 1.363 . S
C170 C160 1.465 . S
C170 U166 2.847 . S
C170 O184 1.249 . S
C170 O185 1.202 . S
C171 C169 1.363 . S
C171 C173 1.408 . S
C171 C176 1.342 . S
C172 C173 1.310 . S
C172 C175 1.461 . S
C172 H192 0.932 . S
C173 C171 1.408 . S
C173 C172 1.310 . S
C173 H193 0.930 . S
C174 C175 1.474 . S
C174 C176 1.285 . S
C174 H194 0.929 . S
C175 C172 1.461 . S
C175 C174 1.474 . S
C176 C171 1.342 . S
C176 C174 1.285 . S
C176 H195 0.930 . S
C177 C180 1.424 . S
C177 C182 1.245 . S
C177 C183 1.428 . S
C178 C181 1.260 . S
C178 C182 1.477 . S
C178 H196 0.932 . S
C179 C180 1.384 . S
C179 C181 1.479 . S
C179 H197 0.929 . S
C180 C177 1.424 . S
C180 C179 1.384 . S
C180 H198 0.928 . S
C181 C178 1.260 . S
C181 C179 1.479 . S
C182 C177 1.245 . S
C182 C178 1.477 . S
C182 H199 0.932 . S
C183 U166 2.882 . S
C183 C177 1.428 . S
C183 O186 1.301 . S
C183 O187 1.282 . S
O184 U166 2.441 . S
O184 C170 1.249 . S
O185 U166 2.420 . S
O185 C170 1.202 . S
O186 U166 2.455 . S
O186 C183 1.301 . S
O187 U166 2.449 . S
O187 C183 1.282 . S
H188 C161 0.931 . S
H189 C163 0.929 . S
H190 C164 0.930 . S
H191 C165 0.931 . S
H192 C172 0.932 . S
H193 C173 0.930 . S
H194 C174 0.929 . S
H195 C176 0.930 . S
H196 C178 0.932 . S
H197 C179 0.929 . S
H198 C180 0.928 . S
H199 C182 0.932 . S
C200 C201 1.264 . S
C200 C205 1.479 . S
C200 C210 1.465 . S
C201 C200 1.264 . S
C201 C203 1.339 . S
C201 H228 0.931 . S
C202 C203 1.395 . S
C202 C204 1.320 . S
C203 C201 1.339 . S
C203 C202 1.395 . S
C203 H229 0.929 . S
C204 C202 1.320 . S
C204 C205 1.405 . S
C204 H230 0.930 . S
C205 C200 1.479 . S
C205 C204 1.405 . S
C205 H231 0.931 . S
U206 O207 2.454 . S
U206 O208 2.458 . S
U206 C209 2.984 . S
U206 C210 2.847 . S
U206 C223 2.882 . S
U206 O224 2.441 . S
U206 O225 2.420 . S
U206 O226 2.455 . S
U206 O227 2.449 . S
O207 U206 2.454 . S
O207 C209 1.353 . S
O208 U206 2.458 . S
O208 C209 1.286 . S
C209 U206 2.984 . S
C209 O207 1.353 . S
C209 O208 1.286 . S
C209 C211 1.363 . S
C210 C200 1.465 . S
C210 U206 2.847 . S
C210 O224 1.249 . S
C210 O225 1.202 . S
C211 C209 1.363 . S
C211 C213 1.408 . S
C211 C216 1.342 . S
C212 C213 1.310 . S
C212 C215 1.461 . S
C212 H232 0.932 . S
C213 C211 1.408 . S
C213 C212 1.310 . S
C213 H233 0.930 . S
C214 C215 1.474 . S
C214 C216 1.285 . S
C214 H234 0.929 . S
C215 C212 1.461 . S
C215 C214 1.474 . S
C216 C211 1.342 . S
C216 C214 1.285 . S
C216 H235 0.930 . S
C217 C220 1.424 . S
C217 C222 1.245 . S
C217 C223 1.428 . S
C218 C221 1.260 . S
C218 C222 1.477 . S
C218 H236 0.932 . S
C219 C220 1.384 . S
C219 C221 1.479 . S
C219 H237 0.929 . S
C220 C217 1.424 . S
C220 C219 1.384 . S
C220 H238 0.928 . S
C221 C218 1.260 . S
C221 C219 1.479 . S
C222 C217 1.245 . S
C222 C218 1.477 . S
C222 H239 0.932 . S
C223 U206 2.882 . S
C223 C217 1.428 . S
C223 O226 1.301 . S
C223 O227 1.282 . S
O224 U206 2.441 . S
O224 C210 1.249 . S
O225 U206 2.420 . S
O225 C210 1.202 . S
O226 U206 2.455 . S
O226 C223 1.301 . S
O227 U206 2.449 . S
O227 C223 1.282 . S
H228 C201 0.931 . S
H229 C203 0.929 . S
H230 C204 0.930 . S
H231 C205 0.931 . S
H232 C212 0.932 . S
H233 C213 0.930 . S
H234 C214 0.929 . S
H235 C216 0.930 . S
H236 C218 0.932 . S
H237 C219 0.929 . S
H238 C220 0.928 . S
H239 C222 0.932 . S
C240 C241 1.264 . S
C240 C245 1.479 . S
C240 C250 1.465 . S
C241 C240 1.264 . S
C241 C243 1.339 . S
C241 H268 0.931 . S
C242 C243 1.395 . S
C242 C244 1.320 . S
C243 C241 1.339 . S
C243 C242 1.395 . S
C243 H269 0.929 . S
C244 C242 1.320 . S
C244 C245 1.405 . S
C244 H270 0.930 . S
C245 C240 1.479 . S
C245 C244 1.405 . S
C245 H271 0.931 . S
U246 O247 2.454 . S
U246 O248 2.458 . S
U246 C249 2.984 . S
U246 C250 2.847 . S
U246 C263 2.882 . S
U246 O264 2.441 . S
U246 O265 2.420 . S
U246 O266 2.455 . S
U246 O267 2.449 . S
O247 U246 2.454 . S
O247 C249 1.353 . S
O248 U246 2.458 . S
O248 C249 1.286 . S
C249 U246 2.984 . S
C249 O247 1.353 . S
C249 O248 1.286 . S
C249 C251 1.363 . S
C250 C240 1.465 . S
C250 U246 2.847 . S
C250 O264 1.249 . S
C250 O265 1.202 . S
C251 C249 1.363 . S
C251 C253 1.408 . S
C251 C256 1.342 . S
C252 C253 1.310 . S
C252 C255 1.461 . S
C252 H272 0.932 . S
C253 C251 1.408 . S
C253 C252 1.310 . S
C253 H273 0.930 . S
C254 C255 1.474 . S
C254 C256 1.285 . S
C254 H274 0.929 . S
C255 C252 1.461 . S
C255 C254 1.474 . S
C256 C251 1.342 . S
C256 C254 1.285 . S
C256 H275 0.930 . S
C257 C260 1.424 . S
C257 C262 1.245 . S
C257 C263 1.428 . S
C258 C261 1.260 . S
C258 C262 1.477 . S
C258 H276 0.932 . S
C259 C260 1.384 . S
C259 C261 1.479 . S
C259 H277 0.929 . S
C260 C257 1.424 . S
C260 C259 1.384 . S
C260 H278 0.928 . S
C261 C258 1.260 . S
C261 C259 1.479 . S
C262 C257 1.245 . S
C262 C258 1.477 . S
C262 H279 0.932 . S
C263 U246 2.882 . S
C263 C257 1.428 . S
C263 O266 1.301 . S
C263 O267 1.282 . S
O264 U246 2.441 . S
O264 C250 1.249 . S
O265 U246 2.420 . S
O265 C250 1.202 . S
O266 U246 2.455 . S
O266 C263 1.301 . S
O267 U246 2.449 . S
O267 C263 1.282 . S
H268 C241 0.931 . S
H269 C243 0.929 . S
H270 C244 0.930 . S
H271 C245 0.931 . S
H272 C252 0.932 . S
H273 C253 0.930 . S
H274 C254 0.929 . S
H275 C256 0.930 . S
H276 C258 0.932 . S
H277 C259 0.929 . S
H278 C260 0.928 . S
H279 C262 0.932 . S
C280 C281 1.264 . S
C280 C285 1.479 . S
C280 C290 1.465 . S
C281 C280 1.264 . S
C281 C283 1.339 . S
C281 H308 0.931 . S
C282 C283 1.395 . S
C282 C284 1.320 . S
C283 C281 1.339 . S
C283 C282 1.395 . S
C283 H309 0.929 . S
C284 C282 1.320 . S
C284 C285 1.405 . S
C284 H310 0.930 . S
C285 C280 1.479 . S
C285 C284 1.405 . S
C285 H311 0.931 . S
U286 O287 2.454 . S
U286 O288 2.458 . S
U286 C289 2.984 . S
U286 C290 2.847 . S
U286 C303 2.882 . S
U286 O304 2.441 . S
U286 O305 2.420 . S
U286 O306 2.455 . S
U286 O307 2.449 . S
O287 U286 2.454 . S
O287 C289 1.353 . S
O288 U286 2.458 . S
O288 C289 1.286 . S
C289 U286 2.984 . S
C289 O287 1.353 . S
C289 O288 1.286 . S
C289 C291 1.363 . S
C290 C280 1.465 . S
C290 U286 2.847 . S
C290 O304 1.249 . S
C290 O305 1.202 . S
C291 C289 1.363 . S
C291 C293 1.408 . S
C291 C296 1.342 . S
C292 C293 1.310 . S
C292 C295 1.461 . S
C292 H312 0.932 . S
C293 C291 1.408 . S
C293 C292 1.310 . S
C293 H313 0.930 . S
C294 C295 1.474 . S
C294 C296 1.285 . S
C294 H314 0.929 . S
C295 C292 1.461 . S
C295 C294 1.474 . S
C296 C291 1.342 . S
C296 C294 1.285 . S
C296 H315 0.930 . S
C297 C300 1.424 . S
C297 C302 1.245 . S
C297 C303 1.428 . S
C298 C301 1.260 . S
C298 C302 1.477 . S
C298 H316 0.932 . S
C299 C300 1.384 . S
C299 C301 1.479 . S
C299 H317 0.929 . S
C300 C297 1.424 . S
C300 C299 1.384 . S
C300 H318 0.928 . S
C301 C298 1.260 . S
C301 C299 1.479 . S
C302 C297 1.245 . S
C302 C298 1.477 . S
C302 H319 0.932 . S
C303 U286 2.882 . S
C303 C297 1.428 . S
C303 O306 1.301 . S
C303 O307 1.282 . S
O304 U286 2.441 . S
O304 C290 1.249 . S
O305 U286 2.420 . S
O305 C290 1.202 . S
O306 U286 2.455 . S
O306 C303 1.301 . S
O307 U286 2.449 . S
O307 C303 1.282 . S
H308 C281 0.931 . S
H309 C283 0.929 . S
H310 C284 0.930 . S
H311 C285 0.931 . S
H312 C292 0.932 . S
H313 C293 0.930 . S
H314 C294 0.929 . S
H315 C296 0.930 . S
H316 C298 0.932 . S
H317 C299 0.929 . S
H318 C300 0.928 . S
H319 C302 0.932 . S
O320 Zn321 1.939 1_455 S
O320 C336 1.258 . S
Zn321 O320 1.939 1_655 S
Zn321 O322 1.949 1_655 S
Zn321 O328 1.919 . S
Zn321 O333 1.924 . S
O322 Zn321 1.949 1_455 S
O322 Zn323 1.920 1_445 S
O322 Zn324 1.950 . S
O322 Zn325 1.945 1_545 S
Zn323 O322 1.920 1_665 S
Zn323 O326 1.942 . S
Zn323 O329 1.937 1_565 S
Zn323 O330 1.962 1_665 S
Zn324 O322 1.950 . S
Zn324 O331 1.938 . S
Zn324 O332 1.906 . S
Zn324 O342 1.953 . S
Zn325 O322 1.945 1_565 S
Zn325 O327 1.928 1_455 S
Zn325 O334 1.977 . S
Zn325 O335 1.910 1_455 S
O326 Zn323 1.942 . S
O326 C337 1.226 . S
O327 Zn325 1.928 1_655 S
O327 C337 1.311 . S
O328 Zn321 1.919 . S
O328 C339 1.253 . S
O329 Zn323 1.937 1_545 S
O329 C339 1.283 . S
O330 Zn323 1.962 1_445 S
O330 C338 1.303 . S
O331 Zn324 1.938 . S
O331 C338 1.247 . S
O332 Zn324 1.906 . S
O332 C340 1.304 1_545 S
O333 Zn321 1.924 . S
O333 C341 1.311 . S
O334 Zn325 1.977 . S
O334 C340 1.272 . S
O335 Zn325 1.910 1_655 S
O335 C341 1.231 1_565 S
C336 O320 1.258 . S
C336 O342 1.298 . S
C337 O326 1.226 . S
C337 O327 1.311 . S
C338 O330 1.303 . S
C338 O331 1.247 . S
C339 O328 1.253 . S
C339 O329 1.283 . S
C340 O332 1.304 1_565 S
C340 O334 1.272 . S
C341 O333 1.311 . S
C341 O335 1.231 1_545 S
O342 Zn324 1.953 . S
O342 C336 1.298 . S
O343 Zn344 1.953 . S
O343 C359 1.199 1_556 S
Zn344 O343 1.953 . S
Zn344 O345 1.949 1_556 S
Zn344 O351 1.919 . S
Zn344 O356 1.924 1_556 S
O345 Zn344 1.949 1_554 S
O345 Zn346 1.923 1_545 S
O345 Zn347 1.950 . S
O345 Zn348 1.935 1_545 S
Zn346 O345 1.923 1_565 S
Zn346 O349 1.933 . S
Zn346 O352 1.941 1_554 S
Zn346 O353 1.965 . S
Zn347 O345 1.950 . S
Zn347 O354 1.938 . S
Zn347 O355 1.906 . S
Zn347 O365 1.953 . S
Zn348 O345 1.935 1_565 S
Zn348 O350 1.978 . S
Zn348 O357 1.964 1_565 S
Zn348 O358 1.885 1_565 S
O349 Zn346 1.933 . S
O349 C360 1.226 . S
O350 Zn348 1.978 . S
O350 C360 1.307 . S
O351 Zn344 1.919 . S
O351 C362 1.253 1_545 S
O352 Zn346 1.941 1_556 S
O352 C362 1.283 . S
O353 Zn346 1.965 . S
O353 C361 1.303 . S
O354 Zn347 1.938 . S
O354 C361 1.247 1_545 S
O355 Zn347 1.906 . S
O355 C363 1.304 . S
O356 Zn344 1.924 1_554 S
O356 C364 1.311 . S
O357 Zn348 1.964 1_545 S
O357 C363 1.272 . S
O358 Zn348 1.885 1_545 S
O358 C364 1.231 . S
C359 O343 1.199 1_554 S
C359 O365 1.341 . S
C360 O349 1.226 . S
C360 O350 1.307 . S
C361 O353 1.303 . S
C361 O354 1.247 1_565 S
C362 O351 1.253 1_565 S
C362 O352 1.283 . S
C363 O355 1.304 . S
C363 O357 1.272 . S
C364 O356 1.311 . S
C364 O358 1.231 . S
O365 Zn347 1.953 . S
O365 C359 1.341 . S
O366 Zn367 1.953 . S
O366 C382 1.225 . S
Zn367 O366 1.953 . S
Zn367 O368 1.949 . S
Zn367 O374 1.919 . S
Zn367 O379 1.924 . S
O368 Zn367 1.949 . S
O368 Zn369 1.923 . S
O368 Zn370 1.950 . S
O368 Zn371 1.945 . S
Zn369 O368 1.923 . S
Zn369 O372 1.933 . S
Zn369 O375 1.941 . S
Zn369 O376 1.965 . S
Zn370 O368 1.950 . S
Zn370 O377 1.938 . S
Zn370 O378 1.906 . S
Zn370 O388 1.953 . S
Zn371 O368 1.945 . S
Zn371 O373 1.932 . S
Zn371 O380 1.977 . S
Zn371 O381 1.910 . S
O372 Zn369 1.933 . S
O372 C383 1.226 . S
O373 Zn371 1.932 . S
O373 C383 1.307 . S
O374 Zn367 1.919 . S
O374 C385 1.253 . S
O375 Zn369 1.941 . S
O375 C385 1.283 . S
O376 Zn369 1.965 . S
O376 C384 1.303 . S
O377 Zn370 1.938 . S
O377 C384 1.247 . S
O378 Zn370 1.906 . S
O378 C386 1.304 . S
O379 Zn367 1.924 . S
O379 C387 1.311 . S
O380 Zn371 1.977 . S
O380 C386 1.272 . S
O381 Zn371 1.910 . S
O381 C387 1.231 . S
C382 O366 1.225 . S
C382 O388 1.298 . S
C383 O372 1.226 . S
C383 O373 1.307 . S
C384 O376 1.303 . S
C384 O377 1.247 . S
C385 O374 1.253 . S
C385 O375 1.283 . S
C386 O378 1.304 . S
C386 O380 1.272 . S
C387 O379 1.311 . S
C387 O381 1.231 . S
O388 Zn370 1.953 . S
O388 C382 1.298 . S
O389 Zn390 1.953 . S
O389 C405 1.225 . S
Zn390 O389 1.953 . S
Zn390 O391 1.949 1_655 S
Zn390 O397 1.919 . S
Zn390 O402 1.918 1_655 S
O391 Zn390 1.949 1_455 S
O391 Zn392 1.923 1_454 S
O391 Zn393 1.950 . S
O391 Zn394 1.945 1_554 S
Zn392 O391 1.923 1_656 S
Zn392 O395 1.933 1_655 S
Zn392 O398 1.941 . S
Zn392 O399 1.965 . S
Zn393 O391 1.950 . S
Zn393 O400 1.938 . S
Zn393 O401 1.906 . S
Zn393 O411 1.953 . S
Zn394 O391 1.945 1_556 S
Zn394 O396 1.932 . S
Zn394 O403 1.977 1_556 S
Zn394 O404 1.910 1_556 S
O395 Zn392 1.933 1_455 S
O395 C406 1.226 . S
O396 Zn394 1.932 . S
O396 C406 1.307 . S
O397 Zn390 1.919 . S
O397 C408 1.253 1_554 S
O398 Zn392 1.941 . S
O398 C408 1.283 . S
O399 Zn392 1.965 . S
O399 C407 1.303 . S
O400 Zn393 1.938 . S
O400 C407 1.247 1_454 S
O401 Zn393 1.906 . S
O401 C409 1.304 . S
O402 Zn390 1.918 1_455 S
O402 C410 1.327 . S
O403 Zn394 1.977 1_554 S
O403 C409 1.272 . S
O404 Zn394 1.910 1_554 S
O404 C410 1.231 . S
C405 O389 1.225 . S
C405 O411 1.298 1_655 S
C406 O395 1.226 . S
C406 O396 1.307 . S
C407 O399 1.303 . S
C407 O400 1.247 1_656 S
C408 O397 1.253 1_556 S
C408 O398 1.283 . S
C409 O401 1.304 . S
C409 O403 1.272 . S
C410 O402 1.327 . S
C410 O404 1.231 . S
O411 Zn393 1.953 . S
O411 C405 1.298 1_455 S
H412 C430 0.951 . S
H413 C432 0.951 . S
H414 C434 0.950 . S
H415 C435 0.950 . S
H416 C437 0.950 . S
H417 C440 0.950 . S
H418 C441 0.950 . S
H419 C443 0.950 1_565 S
H420 C444 0.950 . S
H421 C445 0.951 . S
H422 C447 0.951 . S
H423 C449 0.950 . S
H424 C450 0.950 . S
H425 C452 0.950 . S
H426 C455 0.950 . S
H427 C456 0.950 . S
H428 C458 0.950 . S
H429 C459 0.950 . S
C430 H412 0.951 . S
C430 C431 1.366 . S
C430 C432 1.388 . S
C431 C430 1.366 . S
C431 C435 1.385 . S
C432 H413 0.951 . S
C432 C430 1.388 . S
C432 C433 1.366 . S
C433 C432 1.366 . S
C433 C434 1.414 . S
C433 C436 1.499 . S
C434 H414 0.950 . S
C434 C433 1.414 . S
C434 C435 1.374 . S
C435 H415 0.950 . S
C435 C431 1.385 . S
C435 C434 1.374 . S
C436 C433 1.499 . S
C436 C437 1.373 . S
C436 C438 1.389 . S
C437 H416 0.950 . S
C437 C436 1.373 . S
C437 C453 1.377 . S
C438 C436 1.389 . S
C438 C439 1.524 . S
C438 C452 1.377 . S
C439 C438 1.524 . S
C439 C440 1.397 . S
C439 C444 1.363 . S
C440 H417 0.950 . S
C440 C439 1.397 . S
C440 C441 1.334 . S
C441 H418 0.950 . S
C441 C440 1.334 . S
C441 C442 1.287 . S
C442 C441 1.287 . S
C442 C443 1.524 . S
C442 H461 0.942 . S
C443 H419 0.950 1_545 S
C443 C442 1.524 . S
C443 C444 1.415 . S
C444 H420 0.950 . S
C444 C439 1.363 . S
C444 C443 1.415 . S
C445 H421 0.951 . S
C445 C446 1.366 . S
C445 C447 1.388 . S
C446 C445 1.366 . S
C446 C450 1.385 . S
C447 H422 0.951 . S
C447 C445 1.388 . S
C447 C448 1.366 . S
C448 C447 1.366 . S
C448 C449 1.414 . S
C448 C451 1.499 . S
C449 H423 0.950 . S
C449 C448 1.414 . S
C449 C450 1.374 . S
C450 H424 0.950 . S
C450 C446 1.385 . S
C450 C449 1.374 . S
C451 C448 1.499 . S
C451 C452 1.373 . S
C451 C453 1.389 . S
C452 H425 0.950 . S
C452 C438 1.377 . S
C452 C451 1.373 . S
C453 C437 1.377 . S
C453 C451 1.389 . S
C453 C454 1.524 . S
C454 C453 1.524 . S
C454 C455 1.397 . S
C454 C459 1.363 . S
C455 H426 0.950 . S
C455 C454 1.397 . S
C455 C456 1.334 . S
C456 H427 0.950 . S
C456 C455 1.334 . S
C456 C457 1.287 . S
C457 C456 1.287 . S
C457 C458 1.524 . S
C457 H460 0.999 . S
C458 H428 0.950 . S
C458 C457 1.524 . S
C458 C459 1.415 . S
C459 H429 0.950 . S
C459 C454 1.363 . S
C459 C458 1.415 . S
H460 C457 0.999 . S
H461 C442 0.942 . S
H462 C480 0.951 . S
H463 C482 0.951 . S
H464 C484 0.950 . S
H465 C485 0.950 . S
H466 C487 0.950 . S
H467 C490 0.950 . S
H468 C491 0.950 . S
H469 C493 0.950 . S
H470 C494 0.950 . S
H471 C495 0.951 . S
H472 C497 0.951 . S
H473 C499 0.950 . S
H474 C500 0.950 . S
H475 C502 0.950 . S
H476 C505 0.950 . S
H477 C506 0.950 . S
H478 C508 0.950 . S
H479 C509 0.950 . S
C480 H462 0.951 . S
C480 C481 1.366 . S
C480 C482 1.388 . S
C481 C480 1.366 . S
C481 C485 1.385 . S
C482 H463 0.951 . S
C482 C480 1.388 . S
C482 C483 1.366 . S
C483 C482 1.366 . S
C483 C484 1.414 . S
C483 C486 1.499 . S
C484 H464 0.950 . S
C484 C483 1.414 . S
C484 C485 1.374 . S
C485 H465 0.950 . S
C485 C481 1.385 . S
C485 C484 1.374 . S
C486 C483 1.499 . S
C486 C487 1.373 . S
C486 C488 1.389 . S
C487 H466 0.950 . S
C487 C486 1.373 . S
C487 C503 1.377 . S
C488 C486 1.389 . S
C488 C489 1.524 . S
C488 C502 1.377 . S
C489 C488 1.524 . S
C489 C490 1.397 . S
C489 C494 1.363 . S
C490 H467 0.950 . S
C490 C489 1.397 . S
C490 C491 1.334 . S
C491 H468 0.950 . S
C491 C490 1.334 . S
C491 C492 1.287 . S
C492 C491 1.287 . S
C492 C493 1.524 . S
C492 H511 0.913 . S
C493 H469 0.950 . S
C493 C492 1.524 . S
C493 C494 1.415 . S
C494 H470 0.950 . S
C494 C489 1.363 . S
C494 C493 1.415 . S
C495 H471 0.951 . S
C495 C496 1.366 . S
C495 C497 1.388 . S
C496 C495 1.366 . S
C496 C500 1.385 . S
C497 H472 0.951 . S
C497 C495 1.388 . S
C497 C498 1.366 . S
C498 C497 1.366 . S
C498 C499 1.414 . S
C498 C501 1.499 . S
C499 H473 0.950 . S
C499 C498 1.414 . S
C499 C500 1.374 . S
C500 H474 0.950 . S
C500 C496 1.385 . S
C500 C499 1.374 . S
C501 C498 1.499 . S
C501 C502 1.373 . S
C501 C503 1.389 . S
C502 H475 0.950 . S
C502 C488 1.377 . S
C502 C501 1.373 . S
C503 C487 1.377 . S
C503 C501 1.389 . S
C503 C504 1.524 . S
C504 C503 1.524 . S
C504 C505 1.397 1_565 S
C504 C509 1.363 . S
C505 H476 0.950 . S
C505 C504 1.397 1_545 S
C505 C506 1.334 . S
C506 H477 0.950 . S
C506 C505 1.334 . S
C506 C507 1.287 . S
C507 C506 1.287 . S
C507 C508 1.524 . S
C507 H510 0.999 . S
C508 H478 0.950 . S
C508 C507 1.524 . S
C508 C509 1.415 1_545 S
C509 H479 0.950 . S
C509 C504 1.363 . S
C509 C508 1.415 1_565 S
H510 C507 0.999 . S
H511 C492 0.913 . S
H512 C530 0.951 . S
H513 C532 0.951 . S
H514 C534 0.950 . S
H515 C535 0.950 . S
H516 C537 0.950 . S
H517 C540 0.950 . S
H518 C541 0.950 . S
H519 C543 0.950 . S
H520 C544 0.950 . S
H521 C545 0.951 . S
H522 C547 0.951 . S
H523 C549 0.950 . S
H524 C550 0.950 . S
H525 C552 0.950 . S
H526 C555 0.950 . S
H527 C556 0.950 . S
H528 C558 0.950 . S
H529 C559 0.950 . S
C530 H512 0.951 . S
C530 C531 1.366 . S
C530 C532 1.388 . S
C531 C530 1.366 . S
C531 C535 1.385 . S
C532 H513 0.951 . S
C532 C530 1.388 . S
C532 C533 1.366 . S
C533 C532 1.366 . S
C533 C534 1.414 . S
C533 C536 1.499 . S
C534 H514 0.950 . S
C534 C533 1.414 . S
C534 C535 1.374 . S
C535 H515 0.950 . S
C535 C531 1.385 . S
C535 C534 1.374 . S
C536 C533 1.499 . S
C536 C537 1.373 . S
C536 C538 1.389 . S
C537 H516 0.950 . S
C537 C536 1.373 . S
C537 C553 1.377 . S
C538 C536 1.389 . S
C538 C539 1.524 . S
C538 C552 1.377 . S
C539 C538 1.524 . S
C539 C540 1.397 . S
C539 C544 1.363 . S
C540 H517 0.950 . S
C540 C539 1.397 . S
C540 C541 1.334 . S
C541 H518 0.950 . S
C541 C540 1.334 . S
C541 C542 1.287 . S
C542 C541 1.287 . S
C542 C543 1.524 . S
C542 H561 0.913 . S
C543 H519 0.950 . S
C543 C542 1.524 . S
C543 C544 1.415 . S
C544 H520 0.950 . S
C544 C539 1.363 . S
C544 C543 1.415 . S
C545 H521 0.951 . S
C545 C546 1.366 . S
C545 C547 1.388 . S
C546 C545 1.366 . S
C546 C550 1.385 . S
C547 H522 0.951 . S
C547 C545 1.388 . S
C547 C548 1.366 . S
C548 C547 1.366 . S
C548 C549 1.414 . S
C548 C551 1.499 . S
C549 H523 0.950 . S
C549 C548 1.414 . S
C549 C550 1.374 . S
C550 H524 0.950 . S
C550 C546 1.385 . S
C550 C549 1.374 . S
C551 C548 1.499 . S
C551 C552 1.373 . S
C551 C553 1.389 . S
C552 H525 0.950 . S
C552 C538 1.377 . S
C552 C551 1.373 . S
C553 C537 1.377 . S
C553 C551 1.389 . S
C553 C554 1.524 . S
C554 C553 1.524 . S
C554 C555 1.397 . S
C554 C559 1.363 . S
C555 H526 0.950 . S
C555 C554 1.397 . S
C555 C556 1.334 . S
C556 H527 0.950 . S
C556 C555 1.334 . S
C556 C557 1.287 . S
C557 C556 1.287 . S
C557 C558 1.524 . S
C557 H560 0.999 . S
C558 H528 0.950 . S
C558 C557 1.524 . S
C558 C559 1.415 . S
C559 H529 0.950 . S
C559 C554 1.363 . S
C559 C558 1.415 . S
H560 C557 0.999 . S
H561 C542 0.913 . S
H562 C580 0.951 . S
H563 C582 0.951 . S
H564 C584 0.950 . S
H565 C585 0.950 . S
H566 C587 0.950 . S
H567 C590 0.950 . S
H568 C591 0.950 . S
H569 C593 0.950 . S
H570 C594 0.950 . S
H571 C595 0.944 1_455 S
H572 C597 0.951 . S
H573 C599 0.950 . S
H574 C600 0.950 . S
H575 C602 0.950 . S
H576 C605 0.950 . S
H577 C606 0.950 . S
H578 C608 0.950 . S
H579 C609 0.950 . S
C580 H562 0.951 . S
C580 C581 1.366 . S
C580 C582 1.388 . S
C581 C580 1.366 . S
C581 C585 1.385 . S
C582 H563 0.951 . S
C582 C580 1.388 . S
C582 C583 1.366 . S
C583 C582 1.366 . S
C583 C584 1.414 . S
C583 C586 1.499 . S
C584 H564 0.950 . S
C584 C583 1.414 . S
C584 C585 1.374 . S
C585 H565 0.950 . S
C585 C581 1.385 . S
C585 C584 1.374 . S
C586 C583 1.499 . S
C586 C587 1.373 . S
C586 C588 1.389 . S
C587 H566 0.950 . S
C587 C586 1.373 . S
C587 C603 1.377 . S
C588 C586 1.389 . S
C588 C589 1.524 . S
C588 C602 1.377 . S
C589 C588 1.524 . S
C589 C590 1.397 . S
C589 C594 1.363 . S
C590 H567 0.950 . S
C590 C589 1.397 . S
C590 C591 1.334 1_655 S
C591 H568 0.950 . S
C591 C590 1.334 1_455 S
C591 C592 1.287 1_455 S
C592 C591 1.287 1_655 S
C592 C593 1.524 . S
C592 H611 0.913 1_655 S
C593 H569 0.950 . S
C593 C592 1.524 . S
C593 C594 1.415 . S
C594 H570 0.950 . S
C594 C589 1.363 . S
C594 C593 1.415 . S
C595 H571 0.944 1_655 S
C595 C596 1.366 . S
C595 C597 1.388 . S
C596 C595 1.366 . S
C596 C600 1.385 . S
C597 H572 0.951 . S
C597 C595 1.388 . S
C597 C598 1.366 . S
C598 C597 1.366 . S
C598 C599 1.414 . S
C598 C601 1.499 . S
C599 H573 0.950 . S
C599 C598 1.414 . S
C599 C600 1.374 . S
C600 H574 0.950 . S
C600 C596 1.385 . S
C600 C599 1.374 . S
C601 C598 1.499 . S
C601 C602 1.373 . S
C601 C603 1.389 . S
C602 H575 0.950 . S
C602 C588 1.377 . S
C602 C601 1.373 . S
C603 C587 1.377 . S
C603 C601 1.389 . S
C603 C604 1.524 . S
C604 C603 1.524 . S
C604 C605 1.397 . S
C604 C609 1.363 . S
C605 H576 0.950 . S
C605 C604 1.397 . S
C605 C606 1.334 . S
C606 H577 0.950 . S
C606 C605 1.334 . S
C606 C607 1.287 . S
C607 C606 1.287 . S
C607 C608 1.524 . S
C607 H610 0.999 . S
C608 H578 0.950 . S
C608 C607 1.524 . S
C608 C609 1.415 . S
C609 H579 0.950 . S
C609 C604 1.363 . S
C609 C608 1.415 . S
H610 C607 0.999 . S
H611 C592 0.913 1_455 S
H612 C630 0.951 . S
H613 C632 0.951 . S
H614 C634 0.950 . S
H615 C635 0.950 . S
H616 C637 0.950 . S
H617 C640 0.950 . S
H618 C641 0.950 . S
H619 C643 0.950 . S
H620 C644 0.950 . S
H621 C645 0.951 . S
H622 C647 0.951 . S
H623 C649 0.950 . S
H624 C650 0.950 . S
H625 C652 0.950 . S
H626 C655 0.950 . S
H627 C656 0.950 . S
H628 C658 0.950 . S
H629 C659 0.950 . S
C630 H612 0.951 . S
C630 C631 1.366 . S
C630 C632 1.388 . S
C631 C630 1.366 . S
C631 C635 1.385 . S
C632 H613 0.951 . S
C632 C630 1.388 . S
C632 C633 1.366 . S
C633 C632 1.366 . S
C633 C634 1.414 . S
C633 C636 1.499 . S
C634 H614 0.950 . S
C634 C633 1.414 . S
C634 C635 1.374 . S
C635 H615 0.950 . S
C635 C631 1.385 . S
C635 C634 1.374 . S
C636 C633 1.499 . S
C636 C637 1.373 . S
C636 C638 1.389 . S
C637 H616 0.950 . S
C637 C636 1.373 . S
C637 C653 1.377 . S
C638 C636 1.389 . S
C638 C639 1.524 . S
C638 C652 1.377 . S
C639 C638 1.524 . S
C639 C640 1.397 . S
C639 C644 1.363 . S
C640 H617 0.950 . S
C640 C639 1.397 . S
C640 C641 1.334 . S
C641 H618 0.950 . S
C641 C640 1.334 . S
C641 C642 1.287 . S
C642 C641 1.287 . S
C642 C643 1.524 . S
C642 H661 0.913 . S
C643 H619 0.950 . S
C643 C642 1.524 . S
C643 C644 1.415 . S
C644 H620 0.950 . S
C644 C639 1.363 . S
C644 C643 1.415 . S
C645 H621 0.951 . S
C645 C646 1.366 . S
C645 C647 1.388 . S
C646 C645 1.366 . S
C646 C650 1.385 . S
C647 H622 0.951 . S
C647 C645 1.388 . S
C647 C648 1.366 . S
C648 C647 1.366 . S
C648 C649 1.414 . S
C648 C651 1.499 . S
C649 H623 0.950 . S
C649 C648 1.414 . S
C649 C650 1.374 . S
C650 H624 0.950 . S
C650 C646 1.385 . S
C650 C649 1.374 . S
C651 C648 1.499 . S
C651 C652 1.373 . S
C651 C653 1.389 . S
C652 H625 0.950 . S
C652 C638 1.377 . S
C652 C651 1.373 . S
C653 C637 1.377 . S
C653 C651 1.389 . S
C653 C654 1.524 . S
C654 C653 1.524 . S
C654 C655 1.397 . S
C654 C659 1.363 . S
C655 H626 0.950 . S
C655 C654 1.397 . S
C655 C656 1.334 1_554 S
C656 H627 0.950 . S
C656 C655 1.334 1_556 S
C656 C657 1.287 . S
C657 C656 1.287 . S
C657 C658 1.524 . S
C657 H660 0.999 . S
C658 H628 0.950 . S
C658 C657 1.524 . S
C658 C659 1.415 1_556 S
C659 H629 0.950 . S
C659 C654 1.363 . S
C659 C658 1.415 1_554 S
H660 C657 0.999 . S
H661 C642 0.913 . S
H662 C680 0.951 . S
H663 C682 0.951 . S
H664 C684 0.950 . S
H665 C685 0.950 . S
H666 C687 0.950 . S
H667 C690 0.950 . S
H668 C691 0.950 . S
H669 C693 0.950 . S
H670 C694 0.950 . S
H671 C695 0.951 . S
H672 C697 0.951 . S
H673 C699 0.950 . S
H674 C700 0.950 . S
H675 C702 0.950 . S
H676 C705 0.950 . S
H677 C706 0.950 . S
H678 C708 0.950 . S
H679 C709 0.950 . S
C680 H662 0.951 . S
C680 C681 1.366 . S
C680 C682 1.388 . S
C681 C680 1.366 . S
C681 C685 1.385 . S
C682 H663 0.951 . S
C682 C680 1.388 . S
C682 C683 1.366 . S
C683 C682 1.366 . S
C683 C684 1.414 . S
C683 C686 1.499 . S
C684 H664 0.950 . S
C684 C683 1.414 . S
C684 C685 1.374 . S
C685 H665 0.950 . S
C685 C681 1.385 . S
C685 C684 1.374 . S
C686 C683 1.499 . S
C686 C687 1.373 . S
C686 C688 1.389 . S
C687 H666 0.950 . S
C687 C686 1.373 . S
C687 C703 1.377 . S
C688 C686 1.389 . S
C688 C689 1.524 . S
C688 C702 1.377 . S
C689 C688 1.524 . S
C689 C690 1.397 . S
C689 C694 1.363 . S
C690 H667 0.950 . S
C690 C689 1.397 . S
C690 C691 1.334 . S
C691 H668 0.950 . S
C691 C690 1.334 . S
C691 C692 1.287 . S
C692 C691 1.287 . S
C692 C693 1.524 . S
C692 H711 0.913 . S
C693 H669 0.950 . S
C693 C692 1.524 . S
C693 C694 1.415 . S
C694 H670 0.950 . S
C694 C689 1.363 . S
C694 C693 1.415 . S
C695 H671 0.951 . S
C695 C696 1.366 . S
C695 C697 1.388 . S
C696 C695 1.366 . S
C696 C700 1.385 . S
C697 H672 0.951 . S
C697 C695 1.388 . S
C697 C698 1.366 . S
C698 C697 1.366 . S
C698 C699 1.414 . S
C698 C701 1.499 . S
C699 H673 0.950 . S
C699 C698 1.414 . S
C699 C700 1.374 . S
C700 H674 0.950 . S
C700 C696 1.385 . S
C700 C699 1.374 . S
C701 C698 1.499 . S
C701 C702 1.373 . S
C701 C703 1.389 . S
C702 H675 0.950 . S
C702 C688 1.377 . S
C702 C701 1.373 . S
C703 C687 1.377 . S
C703 C701 1.389 . S
C703 C704 1.524 . S
C704 C703 1.524 . S
C704 C705 1.397 . S
C704 C709 1.363 1_565 S
C705 H676 0.950 . S
C705 C704 1.397 . S
C705 C706 1.334 1_565 S
C706 H677 0.950 . S
C706 C705 1.334 1_545 S
C706 C707 1.287 . S
C707 C706 1.287 . S
C707 C708 1.524 . S
C707 H710 0.999 . S
C708 H678 0.950 . S
C708 C707 1.524 . S
C708 C709 1.415 . S
C709 H679 0.950 . S
C709 C704 1.363 1_545 S
C709 C708 1.415 . S
H710 C707 0.999 . S
H711 C692 0.913 . S
H712 C730 0.951 . S
H713 C732 0.951 . S
H714 C734 0.950 . S
H715 C735 0.950 . S
H716 C737 0.950 . S
H717 C740 0.950 . S
H718 C741 0.950 . S
H719 C743 0.950 1_554 S
H720 C744 0.950 . S
H721 C745 0.951 . S
H722 C747 0.951 . S
H723 C749 0.950 . S
H724 C750 0.950 1_554 S
H725 C752 0.950 . S
H726 C755 0.950 . S
H727 C756 0.950 . S
H728 C758 0.950 . S
H729 C759 0.950 . S
C730 H712 0.951 . S
C730 C731 1.366 . S
C730 C732 1.388 . S
C731 C730 1.366 . S
C731 C735 1.385 . S
C732 H713 0.951 . S
C732 C730 1.388 . S
C732 C733 1.366 . S
C733 C732 1.366 . S
C733 C734 1.414 . S
C733 C736 1.499 . S
C734 H714 0.950 . S
C734 C733 1.414 . S
C734 C735 1.374 . S
C735 H715 0.950 . S
C735 C731 1.385 . S
C735 C734 1.374 . S
C736 C733 1.499 . S
C736 C737 1.373 . S
C736 C738 1.389 . S
C737 H716 0.950 . S
C737 C736 1.373 . S
C737 C753 1.377 . S
C738 C736 1.389 . S
C738 C739 1.524 . S
C738 C752 1.377 . S
C739 C738 1.524 . S
C739 C740 1.397 . S
C739 C744 1.363 . S
C740 H717 0.950 . S
C740 C739 1.397 . S
C740 C741 1.334 . S
C741 H718 0.950 . S
C741 C740 1.334 . S
C741 C742 1.287 . S
C742 C741 1.287 . S
C742 C743 1.524 . S
C742 H761 0.913 . S
C743 H719 0.950 1_556 S
C743 C742 1.524 . S
C743 C744 1.415 . S
C744 H720 0.950 . S
C744 C739 1.363 . S
C744 C743 1.415 . S
C745 H721 0.951 . S
C745 C746 1.366 . S
C745 C747 1.388 . S
C746 C745 1.366 . S
C746 C750 1.385 . S
C747 H722 0.951 . S
C747 C745 1.388 . S
C747 C748 1.366 . S
C748 C747 1.366 . S
C748 C749 1.414 . S
C748 C751 1.499 . S
C749 H723 0.950 . S
C749 C748 1.414 . S
C749 C750 1.374 . S
C750 H724 0.950 1_556 S
C750 C746 1.385 . S
C750 C749 1.374 . S
C751 C748 1.499 . S
C751 C752 1.373 . S
C751 C753 1.389 . S
C752 H725 0.950 . S
C752 C738 1.377 . S
C752 C751 1.373 . S
C753 C737 1.377 . S
C753 C751 1.389 . S
C753 C754 1.524 . S
C754 C753 1.524 . S
C754 C755 1.397 . S
C754 C759 1.363 . S
C755 H726 0.950 . S
C755 C754 1.397 . S
C755 C756 1.334 . S
C756 H727 0.950 . S
C756 C755 1.334 . S
C756 C757 1.287 . S
C757 C756 1.287 . S
C757 C758 1.524 . S
C757 H760 0.999 . S
C758 H728 0.950 . S
C758 C757 1.524 . S
C758 C759 1.415 . S
C759 H729 0.950 . S
C759 C754 1.363 . S
C759 C758 1.415 . S
H760 C757 0.999 . S
H761 C742 0.913 . S
H762 C780 0.951 . S
H763 C782 0.951 . S
H764 C784 0.950 . S
H765 C785 0.950 . S
H766 C787 0.950 . S
H767 C790 0.950 . S
H768 C791 0.950 . S
H769 C793 0.950 . S
H770 C794 0.950 . S
H771 C795 0.951 . S
H772 C797 0.951 . S
H773 C799 0.950 . S
H774 C800 0.950 . S
H775 C802 0.950 . S
H776 C805 0.950 . S
H777 C806 0.950 . S
H778 C808 0.950 . S
H779 C809 0.950 . S
C780 H762 0.951 . S
C780 C781 1.366 . S
C780 C782 1.388 . S
C781 C780 1.366 . S
C781 C785 1.385 . S
C782 H763 0.951 . S
C782 C780 1.388 . S
C782 C783 1.366 . S
C783 C782 1.366 . S
C783 C784 1.414 . S
C783 C786 1.499 . S
C784 H764 0.950 . S
C784 C783 1.414 . S
C784 C785 1.374 . S
C785 H765 0.950 . S
C785 C781 1.385 . S
C785 C784 1.374 . S
C786 C783 1.499 . S
C786 C787 1.373 . S
C786 C788 1.389 . S
C787 H766 0.950 . S
C787 C786 1.373 . S
C787 C803 1.377 . S
C788 C786 1.389 . S
C788 C789 1.524 . S
C788 C802 1.377 . S
C789 C788 1.524 . S
C789 C790 1.397 . S
C789 C794 1.363 . S
C790 H767 0.950 . S
C790 C789 1.397 . S
C790 C791 1.334 . S
C791 H768 0.950 . S
C791 C790 1.334 . S
C791 C792 1.287 . S
C792 C791 1.287 . S
C792 C793 1.524 . S
C792 H811 0.913 . S
C793 H769 0.950 . S
C793 C792 1.524 . S
C793 C794 1.415 . S
C794 H770 0.950 . S
C794 C789 1.363 . S
C794 C793 1.415 . S
C795 H771 0.951 . S
C795 C796 1.366 . S
C795 C797 1.388 . S
C796 C795 1.366 . S
C796 C800 1.385 . S
C797 H772 0.951 . S
C797 C795 1.388 . S
C797 C798 1.366 . S
C798 C797 1.366 . S
C798 C799 1.414 . S
C798 C801 1.499 . S
C799 H773 0.950 . S
C799 C798 1.414 . S
C799 C800 1.374 . S
C800 H774 0.950 . S
C800 C796 1.385 . S
C800 C799 1.374 . S
C801 C798 1.499 . S
C801 C802 1.373 . S
C801 C803 1.389 . S
C802 H775 0.950 . S
C802 C788 1.377 . S
C802 C801 1.373 . S
C803 C787 1.377 . S
C803 C801 1.389 . S
C803 C804 1.524 . S
C804 C803 1.524 . S
C804 C805 1.397 . S
C804 C809 1.363 . S
C805 H776 0.950 . S
C805 C804 1.397 . S
C805 C806 1.334 . S
C806 H777 0.950 . S
C806 C805 1.334 . S
C806 C807 1.287 . S
C807 C806 1.287 . S
C807 C808 1.524 . S
C807 H810 0.999 . S
C808 H778 0.950 . S
C808 C807 1.524 . S
C808 C809 1.415 . S
C809 H779 0.950 . S
C809 C804 1.363 . S
C809 C808 1.415 . S
H810 C807 0.999 . S
H811 C792 0.913 . S
H812 C830 0.951 . S
H813 C832 0.951 . S
H814 C834 0.950 . S
H815 C835 0.950 . S
H816 C837 0.950 . S
H817 C840 0.950 . S
H818 C841 0.950 . S
H819 C843 0.950 . S
H820 C844 0.950 . S
H821 C845 0.951 1_655 S
H822 C847 0.951 . S
H823 C849 0.950 . S
H824 C850 0.950 . S
H825 C852 0.950 . S
H826 C855 0.950 . S
H827 C856 0.950 . S
H828 C858 0.974 . S
H829 C859 0.950 . S
C830 H812 0.951 . S
C830 C831 1.366 . S
C830 C832 1.388 . S
C831 C830 1.366 . S
C831 C835 1.385 . S
C832 H813 0.951 . S
C832 C830 1.388 . S
C832 C833 1.366 . S
C833 C832 1.366 . S
C833 C834 1.414 . S
C833 C836 1.499 . S
C834 H814 0.950 . S
C834 C833 1.414 . S
C834 C835 1.374 . S
C835 H815 0.950 . S
C835 C831 1.385 . S
C835 C834 1.374 . S
C836 C833 1.499 . S
C836 C837 1.373 . S
C836 C838 1.389 . S
C837 H816 0.950 . S
C837 C836 1.373 . S
C837 C853 1.377 . S
C838 C836 1.389 . S
C838 C839 1.524 . S
C838 C852 1.377 . S
C839 C838 1.524 . S
C839 C840 1.397 . S
C839 C844 1.363 . S
C840 H817 0.950 . S
C840 C839 1.397 . S
C840 C841 1.334 . S
C841 H818 0.950 . S
C841 C840 1.334 . S
C841 C842 1.287 . S
C842 C841 1.287 . S
C842 C843 1.524 . S
C842 H861 0.913 . S
C843 H819 0.950 . S
C843 C842 1.524 . S
C843 C844 1.415 . S
C844 H820 0.950 . S
C844 C839 1.363 . S
C844 C843 1.415 . S
C845 H821 0.951 1_455 S
C845 C846 1.366 . S
C845 C847 1.388 . S
C846 C845 1.366 . S
C846 C850 1.385 . S
C847 H822 0.951 . S
C847 C845 1.388 . S
C847 C848 1.366 . S
C848 C847 1.366 . S
C848 C849 1.414 . S
C848 C851 1.499 . S
C849 H823 0.950 . S
C849 C848 1.414 . S
C849 C850 1.374 . S
C850 H824 0.950 . S
C850 C846 1.385 . S
C850 C849 1.374 . S
C851 C848 1.499 . S
C851 C852 1.373 . S
C851 C853 1.389 . S
C852 H825 0.950 . S
C852 C838 1.377 . S
C852 C851 1.373 . S
C853 C837 1.377 . S
C853 C851 1.389 . S
C853 C854 1.524 . S
C854 C853 1.524 . S
C854 C855 1.397 . S
C854 C859 1.363 . S
C855 H826 0.950 . S
C855 C854 1.397 . S
C855 C856 1.334 1_554 S
C856 H827 0.950 . S
C856 C855 1.334 1_556 S
C856 C857 1.287 . S
C857 C856 1.287 . S
C857 C858 1.524 . S
C857 H860 0.999 . S
C858 H828 0.974 . S
C858 C857 1.524 . S
C858 C859 1.415 1_556 S
C859 H829 0.950 . S
C859 C854 1.363 . S
C859 C858 1.415 1_554 S
H860 C857 0.999 . S
H861 C842 0.913 . S
H862 C880 0.951 . S
H863 C882 0.951 . S
H864 C884 0.950 . S
H865 C885 0.950 . S
H866 C887 0.950 . S
H867 C890 0.943 1_554 S
H868 C891 0.950 . S
H869 C893 0.950 . S
H870 C894 0.950 . S
H871 C895 0.951 1_554 S
H872 C897 0.951 . S
H873 C899 0.950 . S
H874 C900 0.950 . S
H875 C902 0.950 . S
H876 C905 0.950 . S
H877 C906 0.950 . S
H878 C908 0.950 . S
H879 C909 0.950 . S
C880 H862 0.951 . S
C880 C881 1.366 . S
C880 C882 1.388 . S
C881 C880 1.366 . S
C881 C885 1.385 . S
C882 H863 0.951 . S
C882 C880 1.388 . S
C882 C883 1.366 . S
C883 C882 1.366 . S
C883 C884 1.414 . S
C883 C886 1.499 . S
C884 H864 0.950 . S
C884 C883 1.414 . S
C884 C885 1.374 . S
C885 H865 0.950 . S
C885 C881 1.385 . S
C885 C884 1.374 . S
C886 C883 1.499 . S
C886 C887 1.373 . S
C886 C888 1.389 . S
C887 H866 0.950 . S
C887 C886 1.373 . S
C887 C903 1.377 . S
C888 C886 1.389 . S
C888 C889 1.524 . S
C888 C902 1.377 . S
C889 C888 1.524 . S
C889 C890 1.421 . S
C889 C894 1.363 . S
C890 H867 0.943 1_556 S
C890 C889 1.421 . S
C890 C891 1.318 1_556 S
C891 H868 0.950 . S
C891 C890 1.318 1_554 S
C891 C892 1.287 . S
C892 C891 1.287 . S
C892 C893 1.524 1_554 S
C892 H911 0.913 . S
C893 H869 0.950 . S
C893 C892 1.524 1_556 S
C893 C894 1.415 . S
C894 H870 0.950 . S
C894 C889 1.363 . S
C894 C893 1.415 . S
C895 H871 0.951 1_556 S
C895 C896 1.366 . S
C895 C897 1.388 . S
C896 C895 1.366 . S
C896 C900 1.385 . S
C897 H872 0.951 . S
C897 C895 1.388 . S
C897 C898 1.366 . S
C898 C897 1.366 . S
C898 C899 1.414 . S
C898 C901 1.499 . S
C899 H873 0.950 . S
C899 C898 1.414 . S
C899 C900 1.374 . S
C900 H874 0.950 . S
C900 C896 1.385 . S
C900 C899 1.374 . S
C901 C898 1.499 . S
C901 C902 1.373 . S
C901 C903 1.389 . S
C902 H875 0.950 . S
C902 C888 1.377 . S
C902 C901 1.373 . S
C903 C887 1.377 . S
C903 C901 1.389 . S
C903 C904 1.524 . S
C904 C903 1.524 . S
C904 C905 1.397 . S
C904 C909 1.363 . S
C905 H876 0.950 . S
C905 C904 1.397 . S
C905 C906 1.334 . S
C906 H877 0.950 . S
C906 C905 1.334 . S
C906 C907 1.287 . S
C907 C906 1.287 . S
C907 C908 1.524 . S
C907 H910 0.999 . S
C908 H878 0.950 . S
C908 C907 1.524 . S
C908 C909 1.415 . S
C909 H879 0.950 . S
C909 C904 1.363 . S
C909 C908 1.415 . S
H910 C907 0.999 . S
H911 C892 0.913 . S
H912 C930 0.951 . S
H913 C932 0.951 . S
H914 C934 0.950 . S
H915 C935 0.950 . S
H916 C937 0.950 . S
H917 C940 0.950 . S
H918 C941 0.950 . S
H919 C943 0.950 . S
H920 C944 0.950 . S
H921 C945 0.951 . S
H922 C947 0.951 . S
H923 C949 0.950 1_455 S
H924 C950 0.936 1_455 S
H925 C952 0.950 . S
H926 C955 0.950 . S
H927 C956 0.950 . S
H928 C958 0.950 . S
H929 C959 0.950 . S
C930 H912 0.951 . S
C930 C931 1.366 . S
C930 C932 1.388 . S
C931 C930 1.366 . S
C931 C935 1.385 . S
C932 H913 0.951 . S
C932 C930 1.388 . S
C932 C933 1.366 . S
C933 C932 1.366 . S
C933 C934 1.414 . S
C933 C936 1.499 . S
C934 H914 0.950 . S
C934 C933 1.414 . S
C934 C935 1.374 . S
C935 H915 0.950 . S
C935 C931 1.385 . S
C935 C934 1.374 . S
C936 C933 1.499 . S
C936 C937 1.373 . S
C936 C938 1.389 . S
C937 H916 0.950 . S
C937 C936 1.373 . S
C937 C953 1.377 . S
C938 C936 1.389 . S
C938 C939 1.524 . S
C938 C952 1.377 . S
C939 C938 1.524 . S
C939 C940 1.397 . S
C939 C944 1.363 . S
C940 H917 0.950 . S
C940 C939 1.397 . S
C940 C941 1.334 . S
C941 H918 0.950 . S
C941 C940 1.334 . S
C941 C942 1.287 . S
C942 C941 1.287 . S
C942 C943 1.524 . S
C942 H961 0.913 . S
C943 H919 0.950 . S
C943 C942 1.524 . S
C943 C944 1.415 . S
C944 H920 0.950 . S
C944 C939 1.363 . S
C944 C943 1.415 . S
C945 H921 0.951 . S
C945 C946 1.366 . S
C945 C947 1.388 . S
C946 C945 1.366 . S
C946 C950 1.395 . S
C947 H922 0.951 . S
C947 C945 1.388 . S
C947 C948 1.366 . S
C948 C947 1.366 . S
C948 C949 1.414 . S
C948 C951 1.499 . S
C949 H923 0.950 1_655 S
C949 C948 1.414 . S
C949 C950 1.377 . S
C950 H924 0.936 1_655 S
C950 C946 1.395 . S
C950 C949 1.377 . S
C951 C948 1.499 . S
C951 C952 1.373 . S
C951 C953 1.389 . S
C952 H925 0.950 . S
C952 C938 1.377 . S
C952 C951 1.373 . S
C953 C937 1.377 . S
C953 C951 1.389 . S
C953 C954 1.524 . S
C954 C953 1.524 . S
C954 C955 1.397 . S
C954 C959 1.363 . S
C955 H926 0.950 . S
C955 C954 1.397 . S
C955 C956 1.334 . S
C956 H927 0.950 . S
C956 C955 1.334 . S
C956 C957 1.287 . S
C957 C956 1.287 . S
C957 C958 1.524 . S
C957 H960 0.999 . S
C958 H928 0.950 . S
C958 C957 1.524 . S
C958 C959 1.415 . S
C959 H929 0.950 . S
C959 C954 1.363 . S
C959 C958 1.415 . S
H960 C957 0.999 . S
H961 C942 0.913 . S
H962 C980 0.951 . S
H963 C982 0.951 . S
H964 C984 0.950 . S
H965 C985 0.950 . S
H966 C987 0.950 . S
H967 C990 0.950 . S
H968 C991 0.950 . S
H969 C993 0.950 . S
H970 C994 0.950 . S
H971 C995 0.951 . S
H972 C997 0.951 . S
H973 C999 0.950 . S
H974 C1000 0.950 . S
H975 C1002 0.950 . S
H976 C1005 0.950 . S
H977 C1006 0.950 . S
H978 C1008 0.950 . S
H979 C1009 0.950 . S
C980 H962 0.951 . S
C980 C981 1.366 . S
C980 C982 1.388 . S
C981 C980 1.366 . S
C981 C985 1.385 . S
C982 H963 0.951 . S
C982 C980 1.388 . S
C982 C983 1.366 . S
C983 C982 1.366 . S
C983 C984 1.414 . S
C983 C986 1.499 . S
C984 H964 0.950 . S
C984 C983 1.414 . S
C984 C985 1.374 . S
C985 H965 0.950 . S
C985 C981 1.385 . S
C985 C984 1.374 . S
C986 C983 1.499 . S
C986 C987 1.373 . S
C986 C988 1.389 . S
C987 H966 0.950 . S
C987 C986 1.373 . S
C987 C1003 1.377 . S
C988 C986 1.389 . S
C988 C989 1.524 . S
C988 C1002 1.377 . S
C989 C988 1.524 . S
C989 C990 1.397 . S
C989 C994 1.363 . S
C990 H967 0.950 . S
C990 C989 1.397 . S
C990 C991 1.334 . S
C991 H968 0.950 . S
C991 C990 1.334 . S
C991 C992 1.287 . S
C992 C991 1.287 . S
C992 C993 1.524 . S
C992 H1011 0.913 . S
C993 H969 0.950 . S
C993 C992 1.524 . S
C993 C994 1.415 . S
C994 H970 0.950 . S
C994 C989 1.363 . S
C994 C993 1.415 . S
C995 H971 0.951 . S
C995 C996 1.366 . S
C995 C997 1.388 . S
C996 C995 1.366 . S
C996 C1000 1.385 . S
C997 H972 0.951 . S
C997 C995 1.388 . S
C997 C998 1.366 . S
C998 C997 1.366 . S
C998 C999 1.414 . S
C998 C1001 1.499 . S
C999 H973 0.950 . S
C999 C998 1.414 . S
C999 C1000 1.374 . S
C1000 H974 0.950 . S
C1000 C996 1.385 . S
C1000 C999 1.374 . S
C1001 C998 1.499 . S
C1001 C1002 1.373 . S
C1001 C1003 1.389 . S
C1002 H975 0.950 . S
C1002 C988 1.377 . S
C1002 C1001 1.373 . S
C1003 C987 1.377 . S
C1003 C1001 1.389 . S
C1003 C1004 1.524 . S
C1004 C1003 1.524 . S
C1004 C1005 1.397 . S
C1004 C1009 1.363 . S
C1005 H976 0.950 . S
C1005 C1004 1.397 . S
C1005 C1006 1.334 . S
C1006 H977 0.950 . S
C1006 C1005 1.334 . S
C1006 C1007 1.287 . S
C1007 C1006 1.287 . S
C1007 C1008 1.524 . S
C1007 H1010 0.999 . S
C1008 H978 0.950 . S
C1008 C1007 1.524 . S
C1008 C1009 1.415 . S
C1009 H979 0.950 . S
C1009 C1004 1.363 . S
C1009 C1008 1.415 . S
H1010 C1007 0.999 . S
H1011 C992 0.913 . S
H1012 C1030 0.951 . S
H1013 C1032 0.951 . S
H1014 C1034 0.950 . S
H1015 C1035 0.950 . S
H1016 C1037 0.950 . S
H1017 C1040 0.950 . S
H1018 C1041 0.950 . S
H1019 C1043 0.950 . S
H1020 C1044 0.950 . S
H1021 C1045 0.951 1_455 S
H1022 C1047 0.951 . S
H1023 C1049 0.950 . S
H1024 C1050 0.950 . S
H1025 C1052 0.950 . S
H1026 C1055 0.950 . S
H1027 C1056 0.950 . S
H1028 C1058 0.950 . S
H1029 C1059 0.950 . S
C1030 H1012 0.951 . S
C1030 C1031 1.366 . S
C1030 C1032 1.388 . S
C1031 C1030 1.366 . S
C1031 C1035 1.385 1_565 S
C1032 H1013 0.951 . S
C1032 C1030 1.388 . S
C1032 C1033 1.366 . S
C1033 C1032 1.366 . S
C1033 C1034 1.414 1_565 S
C1033 C1036 1.499 . S
C1034 H1014 0.950 . S
C1034 C1033 1.414 1_545 S
C1034 C1035 1.374 . S
C1035 H1015 0.950 . S
C1035 C1031 1.385 1_545 S
C1035 C1034 1.374 . S
C1036 C1033 1.499 . S
C1036 C1037 1.373 1_565 S
C1036 C1038 1.389 . S
C1037 H1016 0.950 . S
C1037 C1036 1.373 1_545 S
C1037 C1053 1.377 . S
C1038 C1036 1.389 . S
C1038 C1039 1.524 . S
C1038 C1052 1.377 . S
C1039 C1038 1.524 . S
C1039 C1040 1.397 1_655 S
C1039 C1044 1.363 . S
C1040 H1017 0.950 . S
C1040 C1039 1.397 1_455 S
C1040 C1041 1.334 . S
C1041 H1018 0.950 . S
C1041 C1040 1.334 . S
C1041 C1042 1.287 . S
C1042 C1041 1.287 . S
C1042 C1043 1.524 1_455 S
C1042 H1061 0.913 . S
C1043 H1019 0.950 . S
C1043 C1042 1.524 1_655 S
C1043 C1044 1.415 . S
C1044 H1020 0.950 . S
C1044 C1039 1.363 . S
C1044 C1043 1.415 . S
C1045 H1021 0.951 1_655 S
C1045 C1046 1.366 . S
C1045 C1047 1.388 . S
C1046 C1045 1.366 . S
C1046 C1050 1.385 1_545 S
C1047 H1022 0.951 . S
C1047 C1045 1.388 . S
C1047 C1048 1.366 1_545 S
C1048 C1047 1.366 1_565 S
C1048 C1049 1.414 . S
C1048 C1051 1.499 . S
C1049 H1023 0.950 . S
C1049 C1048 1.414 . S
C1049 C1050 1.374 . S
C1050 H1024 0.950 . S
C1050 C1046 1.385 1_565 S
C1050 C1049 1.374 . S
C1051 C1048 1.499 . S
C1051 C1052 1.373 . S
C1051 C1053 1.389 1_565 S
C1052 H1025 0.950 . S
C1052 C1038 1.377 . S
C1052 C1051 1.373 . S
C1053 C1037 1.377 . S
C1053 C1051 1.389 1_545 S
C1053 C1054 1.524 . S
C1054 C1053 1.524 . S
C1054 C1055 1.397 . S
C1054 C1059 1.363 . S
C1055 H1026 0.950 . S
C1055 C1054 1.397 . S
C1055 C1056 1.334 . S
C1056 H1027 0.950 . S
C1056 C1055 1.334 . S
C1056 C1057 1.287 . S
C1057 C1056 1.287 . S
C1057 C1058 1.524 . S
C1057 H1060 0.999 . S
C1058 H1028 0.950 . S
C1058 C1057 1.524 . S
C1058 C1059 1.415 . S
C1059 H1029 0.950 . S
C1059 C1054 1.363 . S
C1059 C1058 1.415 . S
H1060 C1057 0.999 . S
H1061 C1042 0.913 . S
H1062 C1080 0.951 . S
H1063 C1082 0.951 . S
H1064 C1084 0.950 . S
H1065 C1085 0.950 . S
H1066 C1087 0.950 . S
H1067 C1090 0.950 . S
H1068 C1091 0.950 . S
H1069 C1093 0.950 . S
H1070 C1094 0.950 . S
H1071 C1095 0.951 . S
H1072 C1097 0.951 . S
H1073 C1099 0.950 1_565 S
H1074 C1100 0.957 . S
H1075 C1102 0.950 1_565 S
H1076 C1105 0.950 . S
H1077 C1106 0.950 . S
H1078 C1108 0.950 . S
H1079 C1109 0.950 . S
C1080 H1062 0.951 . S
C1080 C1081 1.366 . S
C1080 C1082 1.388 . S
C1081 C1080 1.366 . S
C1081 C1085 1.385 . S
C1082 H1063 0.951 . S
C1082 C1080 1.388 . S
C1082 C1083 1.366 . S
C1083 C1082 1.366 . S
C1083 C1084 1.414 . S
C1083 C1086 1.499 . S
C1084 H1064 0.950 . S
C1084 C1083 1.414 . S
C1084 C1085 1.374 . S
C1085 H1065 0.950 . S
C1085 C1081 1.385 . S
C1085 C1084 1.374 . S
C1086 C1083 1.499 . S
C1086 C1087 1.373 . S
C1086 C1088 1.389 . S
C1087 H1066 0.950 . S
C1087 C1086 1.373 . S
C1087 C1103 1.377 . S
C1088 C1086 1.389 . S
C1088 C1089 1.524 1_545 S
C1088 C1102 1.377 . S
C1089 C1088 1.524 1_565 S
C1089 C1090 1.397 . S
C1089 C1094 1.363 . S
C1090 H1067 0.950 . S
C1090 C1089 1.397 . S
C1090 C1091 1.334 . S
C1091 H1068 0.950 . S
C1091 C1090 1.334 . S
C1091 C1092 1.287 . S
C1092 C1091 1.287 . S
C1092 C1093 1.524 . S
C1092 H1111 0.913 . S
C1093 H1069 0.950 . S
C1093 C1092 1.524 . S
C1093 C1094 1.415 . S
C1094 H1070 0.950 . S
C1094 C1089 1.363 . S
C1094 C1093 1.415 . S
C1095 H1071 0.951 . S
C1095 C1096 1.366 . S
C1095 C1097 1.388 . S
C1096 C1095 1.366 . S
C1096 C1100 1.379 1_545 S
C1097 H1072 0.951 . S
C1097 C1095 1.388 . S
C1097 C1098 1.366 . S
C1098 C1097 1.366 . S
C1098 C1099 1.414 . S
C1098 C1101 1.499 . S
C1099 H1073 0.950 1_545 S
C1099 C1098 1.414 . S
C1099 C1100 1.373 1_545 S
C1100 H1074 0.957 . S
C1100 C1096 1.379 1_565 S
C1100 C1099 1.373 1_565 S
C1101 C1098 1.499 . S
C1101 C1102 1.373 . S
C1101 C1103 1.389 . S
C1102 H1075 0.950 1_545 S
C1102 C1088 1.377 . S
C1102 C1101 1.373 . S
C1103 C1087 1.377 . S
C1103 C1101 1.389 . S
C1103 C1104 1.524 . S
C1104 C1103 1.524 . S
C1104 C1105 1.397 . S
C1104 C1109 1.363 . S
C1105 H1076 0.950 . S
C1105 C1104 1.397 . S
C1105 C1106 1.334 . S
C1106 H1077 0.950 . S
C1106 C1105 1.334 . S
C1106 C1107 1.287 . S
C1107 C1106 1.287 . S
C1107 C1108 1.524 . S
C1107 H1110 0.999 . S
C1108 H1078 0.950 . S
C1108 C1107 1.524 . S
C1108 C1109 1.415 . S
C1109 H1079 0.950 . S
C1109 C1104 1.363 . S
C1109 C1108 1.415 . S
H1110 C1107 0.999 . S
H1111 C1092 0.913 . S
H1112 C1130 0.951 . S
H1113 C1132 0.951 . S
H1114 C1134 0.950 . S
H1115 C1135 0.950 . S
H1116 C1137 0.950 . S
H1117 C1140 0.950 . S
H1118 C1141 0.950 . S
H1119 C1143 0.950 . S
H1120 C1144 0.950 . S
H1121 C1145 0.951 . S
H1122 C1147 0.951 . S
H1123 C1149 0.950 . S
H1124 C1150 0.950 . S
H1125 C1152 0.950 . S
H1126 C1155 0.950 . S
H1127 C1156 0.950 . S
H1128 C1158 0.950 . S
H1129 C1159 0.950 . S
C1130 H1112 0.951 . S
C1130 C1131 1.366 . S
C1130 C1132 1.388 . S
C1131 C1130 1.366 . S
C1131 C1135 1.385 . S
C1132 H1113 0.951 . S
C1132 C1130 1.388 . S
C1132 C1133 1.366 . S
C1133 C1132 1.366 . S
C1133 C1134 1.414 . S
C1133 C1136 1.499 . S
C1134 H1114 0.950 . S
C1134 C1133 1.414 . S
C1134 C1135 1.374 . S
C1135 H1115 0.950 . S
C1135 C1131 1.385 . S
C1135 C1134 1.374 . S
C1136 C1133 1.499 . S
C1136 C1137 1.373 . S
C1136 C1138 1.389 . S
C1137 H1116 0.950 . S
C1137 C1136 1.373 . S
C1137 C1153 1.377 . S
C1138 C1136 1.389 . S
C1138 C1139 1.524 . S
C1138 C1152 1.377 . S
C1139 C1138 1.524 . S
C1139 C1140 1.397 . S
C1139 C1144 1.363 . S
C1140 H1117 0.950 . S
C1140 C1139 1.397 . S
C1140 C1141 1.334 . S
C1141 H1118 0.950 . S
C1141 C1140 1.334 . S
C1141 C1142 1.287 . S
C1142 C1141 1.287 . S
C1142 C1143 1.524 . S
C1142 H1161 0.913 . S
C1143 H1119 0.950 . S
C1143 C1142 1.524 . S
C1143 C1144 1.415 . S
C1144 H1120 0.950 . S
C1144 C1139 1.363 . S
C1144 C1143 1.415 . S
C1145 H1121 0.951 . S
C1145 C1146 1.366 . S
C1145 C1147 1.388 . S
C1146 C1145 1.366 . S
C1146 C1150 1.385 . S
C1147 H1122 0.951 . S
C1147 C1145 1.388 . S
C1147 C1148 1.366 . S
C1148 C1147 1.366 . S
C1148 C1149 1.414 . S
C1148 C1151 1.499 . S
C1149 H1123 0.950 . S
C1149 C1148 1.414 . S
C1149 C1150 1.374 . S
C1150 H1124 0.950 . S
C1150 C1146 1.385 . S
C1150 C1149 1.374 . S
C1151 C1148 1.499 . S
C1151 C1152 1.373 . S
C1151 C1153 1.389 . S
C1152 H1125 0.950 . S
C1152 C1138 1.377 . S
C1152 C1151 1.373 . S
C1153 C1137 1.377 . S
C1153 C1151 1.389 . S
C1153 C1154 1.524 . S
C1154 C1153 1.524 . S
C1154 C1155 1.397 . S
C1154 C1159 1.363 . S
C1155 H1126 0.950 . S
C1155 C1154 1.397 . S
C1155 C1156 1.334 . S
C1156 H1127 0.950 . S
C1156 C1155 1.334 . S
C1156 C1157 1.287 . S
C1157 C1156 1.287 . S
C1157 C1158 1.524 . S
C1157 H1160 0.999 . S
C1158 H1128 0.950 . S
C1158 C1157 1.524 . S
C1158 C1159 1.415 . S
C1159 H1129 0.950 . S
C1159 C1154 1.363 . S
C1159 C1158 1.415 . S
H1160 C1157 0.999 . S
H1161 C1142 0.913 . S
H1162 C1180 0.951 . S
H1163 C1182 0.951 . S
H1164 C1184 0.950 . S
H1165 C1185 0.950 . S
H1166 C1187 0.950 . S
H1167 C1190 0.950 . S
H1168 C1191 0.950 . S
H1169 C1193 0.950 . S
H1170 C1194 0.950 . S
H1171 C1195 0.951 . S
H1172 C1197 0.951 . S
H1173 C1199 0.950 . S
H1174 C1200 0.950 . S
H1175 C1202 0.950 . S
H1176 C1205 0.950 . S
H1177 C1206 0.950 . S
H1178 C1208 0.950 . S
H1179 C1209 0.950 . S
C1180 H1162 0.951 . S
C1180 C1181 1.366 . S
C1180 C1182 1.388 . S
C1181 C1180 1.366 . S
C1181 C1185 1.385 . S
C1182 H1163 0.951 . S
C1182 C1180 1.388 . S
C1182 C1183 1.366 . S
C1183 C1182 1.366 . S
C1183 C1184 1.414 . S
C1183 C1186 1.499 . S
C1184 H1164 0.950 . S
C1184 C1183 1.414 . S
C1184 C1185 1.374 . S
C1185 H1165 0.950 . S
C1185 C1181 1.385 . S
C1185 C1184 1.374 . S
C1186 C1183 1.499 . S
C1186 C1187 1.373 . S
C1186 C1188 1.389 . S
C1187 H1166 0.950 . S
C1187 C1186 1.373 . S
C1187 C1203 1.377 . S
C1188 C1186 1.389 . S
C1188 C1189 1.524 . S
C1188 C1202 1.377 . S
C1189 C1188 1.524 . S
C1189 C1190 1.397 . S
C1189 C1194 1.363 . S
C1190 H1167 0.950 . S
C1190 C1189 1.397 . S
C1190 C1191 1.334 . S
C1191 H1168 0.950 . S
C1191 C1190 1.334 . S
C1191 C1192 1.287 . S
C1192 C1191 1.287 . S
C1192 C1193 1.524 . S
C1192 H1211 0.913 . S
C1193 H1169 0.950 . S
C1193 C1192 1.524 . S
C1193 C1194 1.415 . S
C1194 H1170 0.950 . S
C1194 C1189 1.363 . S
C1194 C1193 1.415 . S
C1195 H1171 0.951 . S
C1195 C1196 1.366 . S
C1195 C1197 1.388 . S
C1196 C1195 1.366 . S
C1196 C1200 1.385 . S
C1197 H1172 0.951 . S
C1197 C1195 1.388 . S
C1197 C1198 1.366 . S
C1198 C1197 1.366 . S
C1198 C1199 1.414 . S
C1198 C1201 1.499 . S
C1199 H1173 0.950 . S
C1199 C1198 1.414 . S
C1199 C1200 1.374 . S
C1200 H1174 0.950 . S
C1200 C1196 1.385 . S
C1200 C1199 1.374 . S
C1201 C1198 1.499 . S
C1201 C1202 1.373 . S
C1201 C1203 1.389 . S
C1202 H1175 0.950 . S
C1202 C1188 1.377 . S
C1202 C1201 1.373 . S
C1203 C1187 1.377 . S
C1203 C1201 1.389 . S
C1203 C1204 1.524 . S
C1204 C1203 1.524 . S
C1204 C1205 1.397 1_455 S
C1204 C1209 1.363 . S
C1205 H1176 0.950 . S
C1205 C1204 1.397 1_655 S
C1205 C1206 1.334 . S
C1206 H1177 0.950 . S
C1206 C1205 1.334 . S
C1206 C1207 1.287 . S
C1207 C1206 1.287 . S
C1207 C1208 1.524 . S
C1207 H1210 0.999 . S
C1208 H1178 0.950 . S
C1208 C1207 1.524 . S
C1208 C1209 1.415 1_655 S
C1209 H1179 0.950 . S
C1209 C1204 1.363 . S
C1209 C1208 1.415 1_455 S
H1210 C1207 0.999 . S
H1211 C1192 0.913 . S
H1212 C1230 0.951 . S
H1213 C1232 0.951 . S
H1214 C1234 0.950 . S
H1215 C1235 0.950 . S
H1216 C1237 0.933 1_554 S
H1217 C1240 0.950 1_545 S
H1218 C1241 0.950 1_545 S
H1219 C1243 0.950 . S
H1220 C1244 0.950 . S
H1221 C1245 0.951 . S
H1222 C1247 0.952 1_554 S
H1223 C1249 0.950 . S
H1224 C1250 0.950 . S
H1225 C1252 0.950 . S
H1226 C1255 0.950 . S
H1227 C1256 0.950 . S
H1228 C1258 0.950 . S
H1229 C1259 0.950 . S
C1230 H1212 0.951 . S
C1230 C1231 1.366 . S
C1230 C1232 1.388 . S
C1231 C1230 1.366 . S
C1231 C1235 1.385 1_565 S
C1232 H1213 0.951 . S
C1232 C1230 1.388 . S
C1232 C1233 1.366 . S
C1233 C1232 1.366 . S
C1233 C1234 1.414 1_565 S
C1233 C1236 1.499 . S
C1234 H1214 0.950 . S
C1234 C1233 1.414 1_545 S
C1234 C1235 1.374 . S
C1235 H1215 0.950 . S
C1235 C1231 1.385 1_545 S
C1235 C1234 1.374 . S
C1236 C1233 1.499 . S
C1236 C1237 1.395 . S
C1236 C1238 1.389 . S
C1237 H1216 0.933 1_556 S
C1237 C1236 1.395 . S
C1237 C1253 1.372 1_556 S
C1238 C1236 1.389 . S
C1238 C1239 1.524 . S
C1238 C1252 1.377 . S
C1239 C1238 1.524 . S
C1239 C1240 1.397 . S
C1239 C1244 1.363 . S
C1240 H1217 0.950 1_565 S
C1240 C1239 1.397 . S
C1240 C1241 1.334 . S
C1241 H1218 0.950 1_565 S
C1241 C1240 1.334 . S
C1241 C1242 1.287 . S
C1242 C1241 1.287 . S
C1242 C1243 1.524 . S
C1242 H1261 0.913 . S
C1243 H1219 0.950 . S
C1243 C1242 1.524 . S
C1243 C1244 1.415 . S
C1244 H1220 0.950 . S
C1244 C1239 1.363 . S
C1244 C1243 1.415 . S
C1245 H1221 0.951 . S
C1245 C1246 1.366 1_544 S
C1245 C1247 1.388 1_554 S
C1246 C1245 1.366 1_566 S
C1246 C1250 1.385 . S
C1247 H1222 0.952 1_556 S
C1247 C1245 1.388 1_556 S
C1247 C1248 1.364 1_545 S
C1248 C1247 1.364 1_565 S
C1248 C1249 1.414 . S
C1248 C1251 1.499 . S
C1249 H1223 0.950 . S
C1249 C1248 1.414 . S
C1249 C1250 1.374 . S
C1250 H1224 0.950 . S
C1250 C1246 1.385 . S
C1250 C1249 1.374 . S
C1251 C1248 1.499 . S
C1251 C1252 1.373 . S
C1251 C1253 1.389 1_556 S
C1252 H1225 0.950 . S
C1252 C1238 1.377 . S
C1252 C1251 1.373 . S
C1253 C1237 1.372 1_554 S
C1253 C1251 1.389 1_554 S
C1253 C1254 1.524 . S
C1254 C1253 1.524 . S
C1254 C1255 1.393 . S
C1254 C1259 1.367 1_565 S
C1255 H1226 0.950 . S
C1255 C1254 1.393 . S
C1255 C1256 1.334 . S
C1256 H1227 0.950 . S
C1256 C1255 1.334 . S
C1256 C1257 1.287 1_565 S
C1257 C1256 1.287 1_545 S
C1257 C1258 1.524 . S
C1257 H1260 0.999 . S
C1258 H1228 0.950 . S
C1258 C1257 1.524 . S
C1258 C1259 1.415 . S
C1259 H1229 0.950 . S
C1259 C1254 1.367 1_545 S
C1259 C1258 1.415 . S
H1260 C1257 0.999 . S
H1261 C1242 0.913 . S
H1262 C1280 0.951 . S
H1263 C1282 0.951 . S
H1264 C1284 0.950 . S
H1265 C1285 0.950 . S
H1266 C1287 0.950 . S
H1267 C1290 0.950 . S
H1268 C1291 0.950 . S
H1269 C1293 0.950 . S
H1270 C1294 0.950 . S
H1271 C1295 0.951 . S
H1272 C1297 0.951 . S
H1273 C1299 0.950 . S
H1274 C1300 0.950 . S
H1275 C1302 0.950 . S
H1276 C1305 0.950 . S
H1277 C1306 0.950 . S
H1278 C1308 0.950 . S
H1279 C1309 0.950 1_545 S
C1280 H1262 0.951 . S
C1280 C1281 1.366 . S
C1280 C1282 1.388 . S
C1281 C1280 1.366 . S
C1281 C1285 1.385 . S
C1282 H1263 0.951 . S
C1282 C1280 1.388 . S
C1282 C1283 1.366 . S
C1283 C1282 1.366 . S
C1283 C1284 1.414 . S
C1283 C1286 1.499 . S
C1284 H1264 0.950 . S
C1284 C1283 1.414 . S
C1284 C1285 1.374 . S
C1285 H1265 0.950 . S
C1285 C1281 1.385 . S
C1285 C1284 1.374 . S
C1286 C1283 1.499 . S
C1286 C1287 1.373 . S
C1286 C1288 1.389 . S
C1287 H1266 0.950 . S
C1287 C1286 1.373 . S
C1287 C1303 1.377 . S
C1288 C1286 1.389 . S
C1288 C1289 1.524 . S
C1288 C1302 1.377 . S
C1289 C1288 1.524 . S
C1289 C1290 1.397 . S
C1289 C1294 1.363 . S
C1290 H1267 0.950 . S
C1290 C1289 1.397 . S
C1290 C1291 1.334 . S
C1291 H1268 0.950 . S
C1291 C1290 1.334 . S
C1291 C1292 1.287 . S
C1292 C1291 1.287 . S
C1292 C1293 1.524 . S
C1292 H1311 0.913 . S
C1293 H1269 0.950 . S
C1293 C1292 1.524 . S
C1293 C1294 1.415 . S
C1294 H1270 0.950 . S
C1294 C1289 1.363 . S
C1294 C1293 1.415 . S
C1295 H1271 0.951 . S
C1295 C1296 1.366 . S
C1295 C1297 1.388 . S
C1296 C1295 1.366 . S
C1296 C1300 1.385 . S
C1297 H1272 0.951 . S
C1297 C1295 1.388 . S
C1297 C1298 1.366 . S
C1298 C1297 1.366 . S
C1298 C1299 1.414 . S
C1298 C1301 1.499 . S
C1299 H1273 0.950 . S
C1299 C1298 1.414 . S
C1299 C1300 1.374 . S
C1300 H1274 0.950 . S
C1300 C1296 1.385 . S
C1300 C1299 1.374 . S
C1301 C1298 1.499 . S
C1301 C1302 1.373 . S
C1301 C1303 1.389 . S
C1302 H1275 0.950 . S
C1302 C1288 1.377 . S
C1302 C1301 1.373 . S
C1303 C1287 1.377 . S
C1303 C1301 1.389 . S
C1303 C1304 1.524 1_545 S
C1304 C1303 1.524 1_565 S
C1304 C1305 1.397 . S
C1304 C1309 1.363 . S
C1305 H1276 0.950 . S
C1305 C1304 1.397 . S
C1305 C1306 1.334 . S
C1306 H1277 0.950 . S
C1306 C1305 1.334 . S
C1306 C1307 1.287 . S
C1307 C1306 1.287 . S
C1307 C1308 1.524 . S
C1307 H1310 0.999 . S
C1308 H1278 0.950 . S
C1308 C1307 1.524 . S
C1308 C1309 1.415 . S
C1309 H1279 0.950 1_565 S
C1309 C1304 1.363 . S
C1309 C1308 1.415 . S
H1310 C1307 0.999 . S
H1311 C1292 0.913 . S
H1312 C1330 0.951 . S
H1313 C1332 0.951 . S
H1314 C1334 0.950 . S
H1315 C1335 0.950 . S
H1316 C1337 0.950 . S
H1317 C1340 0.950 . S
H1318 C1341 0.950 . S
H1319 C1343 0.950 . S
H1320 C1344 0.950 . S
H1321 C1345 0.934 1_556 S
H1322 C1347 0.951 1_556 S
H1323 C1349 0.950 . S
H1324 C1350 0.950 . S
H1325 C1352 0.950 . S
H1326 C1355 0.950 . S
H1327 C1356 0.950 . S
H1328 C1358 0.950 . S
H1329 C1359 0.950 . S
C1330 H1312 0.951 . S
C1330 C1331 1.366 . S
C1330 C1332 1.388 . S
C1331 C1330 1.366 . S
C1331 C1335 1.385 . S
C1332 H1313 0.951 . S
C1332 C1330 1.388 . S
C1332 C1333 1.366 . S
C1333 C1332 1.366 . S
C1333 C1334 1.414 . S
C1333 C1336 1.499 . S
C1334 H1314 0.950 . S
C1334 C1333 1.414 . S
C1334 C1335 1.374 . S
C1335 H1315 0.950 . S
C1335 C1331 1.385 . S
C1335 C1334 1.374 . S
C1336 C1333 1.499 . S
C1336 C1337 1.373 . S
C1336 C1338 1.389 . S
C1337 H1316 0.950 . S
C1337 C1336 1.373 . S
C1337 C1353 1.377 . S
C1338 C1336 1.389 . S
C1338 C1339 1.524 . S
C1338 C1352 1.377 . S
C1339 C1338 1.524 . S
C1339 C1340 1.397 . S
C1339 C1344 1.363 . S
C1340 H1317 0.950 . S
C1340 C1339 1.397 . S
C1340 C1341 1.334 . S
C1341 H1318 0.950 . S
C1341 C1340 1.334 . S
C1341 C1342 1.287 . S
C1342 C1341 1.287 . S
C1342 C1343 1.524 . S
C1342 H1361 0.913 . S
C1343 H1319 0.950 . S
C1343 C1342 1.524 . S
C1343 C1344 1.415 . S
C1344 H1320 0.950 . S
C1344 C1339 1.363 . S
C1344 C1343 1.415 . S
C1345 H1321 0.934 1_554 S
C1345 C1346 1.377 . S
C1345 C1347 1.393 . S
C1346 C1345 1.377 . S
C1346 C1350 1.385 . S
C1347 H1322 0.951 1_554 S
C1347 C1345 1.393 . S
C1347 C1348 1.366 . S
C1348 C1347 1.366 . S
C1348 C1349 1.414 . S
C1348 C1351 1.499 . S
C1349 H1323 0.950 . S
C1349 C1348 1.414 . S
C1349 C1350 1.374 . S
C1350 H1324 0.950 . S
C1350 C1346 1.385 . S
C1350 C1349 1.374 . S
C1351 C1348 1.499 . S
C1351 C1352 1.373 . S
C1351 C1353 1.389 . S
C1352 H1325 0.950 . S
C1352 C1338 1.377 . S
C1352 C1351 1.373 . S
C1353 C1337 1.377 . S
C1353 C1351 1.389 . S
C1353 C1354 1.524 1_554 S
C1354 C1353 1.524 1_556 S
C1354 C1355 1.397 . S
C1354 C1359 1.363 . S
C1355 H1326 0.950 . S
C1355 C1354 1.397 . S
C1355 C1356 1.334 . S
C1356 H1327 0.950 . S
C1356 C1355 1.334 . S
C1356 C1357 1.287 . S
C1357 C1356 1.287 . S
C1357 C1358 1.524 . S
C1357 H1360 0.999 . S
C1358 H1328 0.950 . S
C1358 C1357 1.524 . S
C1358 C1359 1.415 . S
C1359 H1329 0.950 . S
C1359 C1354 1.363 . S
C1359 C1358 1.415 . S
H1360 C1357 0.999 . S
H1361 C1342 0.913 . S
H1362 C1380 0.951 . S
H1363 C1382 0.951 . S
H1364 C1384 0.950 . S
H1365 C1385 0.950 . S
H1366 C1387 0.950 . S
H1367 C1390 0.950 . S
H1368 C1391 0.950 . S
H1369 C1393 0.950 . S
H1370 C1394 0.950 . S
H1371 C1395 0.951 . S
H1372 C1397 0.951 . S
H1373 C1399 0.950 . S
H1374 C1400 0.950 . S
H1375 C1402 0.950 . S
H1376 C1405 0.950 . S
H1377 C1406 0.950 . S
H1378 C1408 0.950 . S
H1379 C1409 0.950 . S
C1380 H1362 0.951 . S
C1380 C1381 1.366 . S
C1380 C1382 1.388 . S
C1381 C1380 1.366 . S
C1381 C1385 1.385 . S
C1382 H1363 0.951 . S
C1382 C1380 1.388 . S
C1382 C1383 1.366 . S
C1383 C1382 1.366 . S
C1383 C1384 1.414 . S
C1383 C1386 1.499 . S
C1384 H1364 0.950 . S
C1384 C1383 1.414 . S
C1384 C1385 1.374 . S
C1385 H1365 0.950 . S
C1385 C1381 1.385 . S
C1385 C1384 1.374 . S
C1386 C1383 1.499 . S
C1386 C1387 1.373 . S
C1386 C1388 1.389 . S
C1387 H1366 0.950 . S
C1387 C1386 1.373 . S
C1387 C1403 1.377 . S
C1388 C1386 1.389 . S
C1388 C1389 1.524 . S
C1388 C1402 1.377 . S
C1389 C1388 1.524 . S
C1389 C1390 1.397 . S
C1389 C1394 1.363 . S
C1390 H1367 0.950 . S
C1390 C1389 1.397 . S
C1390 C1391 1.334 . S
C1391 H1368 0.950 . S
C1391 C1390 1.334 . S
C1391 C1392 1.287 . S
C1392 C1391 1.287 . S
C1392 C1393 1.524 . S
C1392 H1411 0.913 . S
C1393 H1369 0.950 . S
C1393 C1392 1.524 . S
C1393 C1394 1.415 . S
C1394 H1370 0.950 . S
C1394 C1389 1.363 . S
C1394 C1393 1.415 . S
C1395 H1371 0.951 . S
C1395 C1396 1.366 . S
C1395 C1397 1.388 . S
C1396 C1395 1.366 . S
C1396 C1400 1.385 . S
C1397 H1372 0.951 . S
C1397 C1395 1.388 . S
C1397 C1398 1.366 . S
C1398 C1397 1.366 . S
C1398 C1399 1.414 . S
C1398 C1401 1.499 . S
C1399 H1373 0.950 . S
C1399 C1398 1.414 . S
C1399 C1400 1.374 . S
C1400 H1374 0.950 . S
C1400 C1396 1.385 . S
C1400 C1399 1.374 . S
C1401 C1398 1.499 . S
C1401 C1402 1.373 . S
C1401 C1403 1.389 . S
C1402 H1375 0.950 . S
C1402 C1388 1.377 . S
C1402 C1401 1.373 . S
C1403 C1387 1.377 . S
C1403 C1401 1.389 . S
C1403 C1404 1.524 . S
C1404 C1403 1.524 . S
C1404 C1405 1.397 . S
C1404 C1409 1.363 . S
C1405 H1376 0.950 . S
C1405 C1404 1.397 . S
C1405 C1406 1.334 . S
C1406 H1377 0.950 . S
C1406 C1405 1.334 . S
C1406 C1407 1.287 . S
C1407 C1406 1.287 . S
C1407 C1408 1.524 . S
C1407 H1410 0.999 . S
C1408 H1378 0.950 . S
C1408 C1407 1.524 . S
C1408 C1409 1.415 . S
C1409 H1379 0.950 . S
C1409 C1404 1.363 . S
C1409 C1408 1.415 . S
H1410 C1407 0.999 . S
H1411 C1392 0.913 . S
H1412 C1430 0.951 . S
H1413 C1432 0.951 . S
H1414 C1434 0.950 . S
H1415 C1435 0.950 . S
H1416 C1437 0.950 . S
H1417 C1440 0.950 . S
H1418 C1441 0.950 . S
H1419 C1443 0.950 . S
H1420 C1444 0.950 . S
H1421 C1445 0.951 . S
H1422 C1447 0.951 . S
H1423 C1449 0.951 1_455 S
H1424 C1450 0.947 1_455 S
H1425 C1452 0.950 1_455 S
H1426 C1455 0.950 . S
H1427 C1456 0.950 . S
H1428 C1458 0.950 . S
H1429 C1459 0.950 . S
C1430 H1412 0.951 . S
C1430 C1431 1.366 . S
C1430 C1432 1.388 . S
C1431 C1430 1.366 . S
C1431 C1435 1.385 . S
C1432 H1413 0.951 . S
C1432 C1430 1.388 . S
C1432 C1433 1.366 . S
C1433 C1432 1.366 . S
C1433 C1434 1.414 . S
C1433 C1436 1.499 . S
C1434 H1414 0.950 . S
C1434 C1433 1.414 . S
C1434 C1435 1.374 . S
C1435 H1415 0.950 . S
C1435 C1431 1.385 . S
C1435 C1434 1.374 . S
C1436 C1433 1.499 . S
C1436 C1437 1.373 . S
C1436 C1438 1.389 . S
C1437 H1416 0.950 . S
C1437 C1436 1.373 . S
C1437 C1453 1.377 . S
C1438 C1436 1.389 . S
C1438 C1439 1.524 1_655 S
C1438 C1452 1.377 . S
C1439 C1438 1.524 1_455 S
C1439 C1440 1.397 . S
C1439 C1444 1.363 . S
C1440 H1417 0.950 . S
C1440 C1439 1.397 . S
C1440 C1441 1.334 . S
C1441 H1418 0.950 . S
C1441 C1440 1.334 . S
C1441 C1442 1.287 . S
C1442 C1441 1.287 . S
C1442 C1443 1.524 . S
C1442 H1461 0.913 . S
C1443 H1419 0.950 . S
C1443 C1442 1.524 . S
C1443 C1444 1.415 . S
C1444 H1420 0.950 . S
C1444 C1439 1.363 . S
C1444 C1443 1.415 . S
C1445 H1421 0.951 . S
C1445 C1446 1.366 . S
C1445 C1447 1.388 . S
C1446 C1445 1.366 . S
C1446 C1450 1.387 1_556 S
C1447 H1422 0.951 . S
C1447 C1445 1.388 . S
C1447 C1448 1.366 . S
C1448 C1447 1.366 . S
C1448 C1449 1.414 1_556 S
C1448 C1451 1.499 . S
C1449 H1423 0.951 1_655 S
C1449 C1448 1.414 1_554 S
C1449 C1450 1.374 . S
C1450 H1424 0.947 1_655 S
C1450 C1446 1.387 1_554 S
C1450 C1449 1.374 . S
C1451 C1448 1.499 . S
C1451 C1452 1.373 . S
C1451 C1453 1.389 . S
C1452 H1425 0.950 1_655 S
C1452 C1438 1.377 . S
C1452 C1451 1.373 . S
C1453 C1437 1.377 . S
C1453 C1451 1.389 . S
C1453 C1454 1.524 . S
C1454 C1453 1.524 . S
C1454 C1455 1.397 1_556 S
C1454 C1459 1.363 . S
C1455 H1426 0.950 . S
C1455 C1454 1.397 1_554 S
C1455 C1456 1.334 . S
C1456 H1427 0.950 . S
C1456 C1455 1.334 . S
C1456 C1457 1.287 . S
C1457 C1456 1.287 . S
C1457 C1458 1.524 1_554 S
C1457 H1460 0.999 . S
C1458 H1428 0.950 . S
C1458 C1457 1.524 1_556 S
C1458 C1459 1.415 . S
C1459 H1429 0.950 . S
C1459 C1454 1.363 . S
C1459 C1458 1.415 . S
H1460 C1457 0.999 . S
H1461 C1442 0.913 . S
H1462 C1480 0.951 . S
H1463 C1482 0.951 . S
H1464 C1484 0.950 . S
H1465 C1485 0.950 . S
H1466 C1487 0.950 . S
H1467 C1490 0.950 . S
H1468 C1491 0.950 . S
H1469 C1493 0.950 . S
H1470 C1494 0.950 . S
H1471 C1495 0.951 . S
H1472 C1497 0.951 . S
H1473 C1499 0.950 . S
H1474 C1500 0.950 . S
H1475 C1502 0.950 . S
H1476 C1505 0.950 . S
H1477 C1506 0.950 . S
H1478 C1508 0.950 . S
H1479 C1509 0.950 . S
C1480 H1462 0.951 . S
C1480 C1481 1.366 . S
C1480 C1482 1.388 . S
C1481 C1480 1.366 . S
C1481 C1485 1.385 . S
C1482 H1463 0.951 . S
C1482 C1480 1.388 . S
C1482 C1483 1.366 . S
C1483 C1482 1.366 . S
C1483 C1484 1.414 . S
C1483 C1486 1.499 . S
C1484 H1464 0.950 . S
C1484 C1483 1.414 . S
C1484 C1485 1.374 . S
C1485 H1465 0.950 . S
C1485 C1481 1.385 . S
C1485 C1484 1.374 . S
C1486 C1483 1.499 . S
C1486 C1487 1.373 . S
C1486 C1488 1.389 . S
C1487 H1466 0.950 . S
C1487 C1486 1.373 . S
C1487 C1503 1.377 . S
C1488 C1486 1.389 . S
C1488 C1489 1.524 . S
C1488 C1502 1.377 . S
C1489 C1488 1.524 . S
C1489 C1490 1.397 . S
C1489 C1494 1.363 . S
C1490 H1467 0.950 . S
C1490 C1489 1.397 . S
C1490 C1491 1.334 1_554 S
C1491 H1468 0.950 . S
C1491 C1490 1.334 1_556 S
C1491 C1492 1.287 . S
C1492 C1491 1.287 . S
C1492 C1493 1.524 1_556 S
C1492 H1511 0.913 . S
C1493 H1469 0.950 . S
C1493 C1492 1.524 1_554 S
C1493 C1494 1.415 . S
C1494 H1470 0.950 . S
C1494 C1489 1.363 . S
C1494 C1493 1.415 . S
C1495 H1471 0.951 . S
C1495 C1496 1.366 . S
C1495 C1497 1.388 . S
C1496 C1495 1.366 . S
C1496 C1500 1.385 . S
C1497 H1472 0.951 . S
C1497 C1495 1.388 . S
C1497 C1498 1.366 . S
C1498 C1497 1.366 . S
C1498 C1499 1.414 . S
C1498 C1501 1.499 . S
C1499 H1473 0.950 . S
C1499 C1498 1.414 . S
C1499 C1500 1.374 . S
C1500 H1474 0.950 . S
C1500 C1496 1.385 . S
C1500 C1499 1.374 . S
C1501 C1498 1.499 . S
C1501 C1502 1.373 . S
C1501 C1503 1.389 . S
C1502 H1475 0.950 . S
C1502 C1488 1.377 . S
C1502 C1501 1.373 . S
C1503 C1487 1.377 . S
C1503 C1501 1.389 . S
C1503 C1504 1.524 . S
C1504 C1503 1.524 . S
C1504 C1505 1.397 . S
C1504 C1509 1.363 . S
C1505 H1476 0.950 . S
C1505 C1504 1.397 . S
C1505 C1506 1.334 . S
C1506 H1477 0.950 . S
C1506 C1505 1.334 . S
C1506 C1507 1.287 . S
C1507 C1506 1.287 . S
C1507 C1508 1.524 . S
C1507 H1510 0.999 . S
C1508 H1478 0.950 . S
C1508 C1507 1.524 . S
C1508 C1509 1.415 . S
C1509 H1479 0.950 . S
C1509 C1504 1.363 . S
C1509 C1508 1.415 . S
H1510 C1507 0.999 . S
H1511 C1492 0.913 . S
H1512 C1530 0.951 . S
H1513 C1532 0.951 . S
H1514 C1534 0.950 . S
H1515 C1535 0.950 . S
H1516 C1537 0.950 . S
H1517 C1540 0.950 . S
H1518 C1541 0.950 . S
H1519 C1543 0.950 . S
H1520 C1544 0.950 . S
H1521 C1545 0.951 1_655 S
H1522 C1547 0.951 . S
H1523 C1549 0.950 . S
H1524 C1550 0.950 . S
H1525 C1552 0.950 . S
H1526 C1555 0.950 . S
H1527 C1556 0.950 . S
H1528 C1558 0.950 . S
H1529 C1559 0.950 . S
C1530 H1512 0.951 . S
C1530 C1531 1.366 . S
C1530 C1532 1.388 . S
C1531 C1530 1.366 . S
C1531 C1535 1.385 . S
C1532 H1513 0.951 . S
C1532 C1530 1.388 . S
C1532 C1533 1.366 . S
C1533 C1532 1.366 . S
C1533 C1534 1.414 . S
C1533 C1536 1.499 . S
C1534 H1514 0.950 . S
C1534 C1533 1.414 . S
C1534 C1535 1.374 . S
C1535 H1515 0.950 . S
C1535 C1531 1.385 . S
C1535 C1534 1.374 . S
C1536 C1533 1.499 . S
C1536 C1537 1.373 . S
C1536 C1538 1.389 . S
C1537 H1516 0.950 . S
C1537 C1536 1.373 . S
C1537 C1553 1.377 . S
C1538 C1536 1.389 . S
C1538 C1539 1.524 . S
C1538 C1552 1.377 . S
C1539 C1538 1.524 . S
C1539 C1540 1.397 . S
C1539 C1544 1.363 . S
C1540 H1517 0.950 . S
C1540 C1539 1.397 . S
C1540 C1541 1.334 . S
C1541 H1518 0.950 . S
C1541 C1540 1.334 . S
C1541 C1542 1.287 . S
C1542 C1541 1.287 . S
C1542 C1543 1.524 . S
C1542 H1561 0.913 . S
C1543 H1519 0.950 . S
C1543 C1542 1.524 . S
C1543 C1544 1.415 . S
C1544 H1520 0.950 . S
C1544 C1539 1.363 . S
C1544 C1543 1.415 . S
C1545 H1521 0.951 1_455 S
C1545 C1546 1.366 . S
C1545 C1547 1.388 . S
C1546 C1545 1.366 . S
C1546 C1550 1.385 . S
C1547 H1522 0.951 . S
C1547 C1545 1.388 . S
C1547 C1548 1.366 . S
C1548 C1547 1.366 . S
C1548 C1549 1.414 . S
C1548 C1551 1.499 . S
C1549 H1523 0.950 . S
C1549 C1548 1.414 . S
C1549 C1550 1.374 . S
C1550 H1524 0.950 . S
C1550 C1546 1.385 . S
C1550 C1549 1.374 . S
C1551 C1548 1.499 . S
C1551 C1552 1.373 . S
C1551 C1553 1.389 . S
C1552 H1525 0.950 . S
C1552 C1538 1.377 . S
C1552 C1551 1.373 . S
C1553 C1537 1.377 . S
C1553 C1551 1.389 . S
C1553 C1554 1.524 . S
C1554 C1553 1.524 . S
C1554 C1555 1.397 . S
C1554 C1559 1.363 1_455 S
C1555 H1526 0.950 . S
C1555 C1554 1.397 . S
C1555 C1556 1.334 1_455 S
C1556 H1527 0.950 . S
C1556 C1555 1.334 1_655 S
C1556 C1557 1.287 . S
C1557 C1556 1.287 . S
C1557 C1558 1.524 . S
C1557 H1560 0.999 . S
C1558 H1528 0.950 . S
C1558 C1557 1.524 . S
C1558 C1559 1.415 . S
C1559 H1529 0.950 . S
C1559 C1554 1.363 1_655 S
C1559 C1558 1.415 . S
H1560 C1557 0.999 . S
H1561 C1542 0.913 . S
H1562 C1580 0.951 . S
H1563 C1582 0.951 . S
H1564 C1584 0.950 . S
H1565 C1585 0.950 . S
H1566 C1587 0.950 . S
H1567 C1590 0.950 . S
H1568 C1591 0.950 . S
H1569 C1593 0.950 . S
H1570 C1594 0.950 . S
H1571 C1595 0.951 . S
H1572 C1597 0.951 . S
H1573 C1599 0.950 . S
H1574 C1600 0.950 . S
H1575 C1602 0.950 . S
H1576 C1605 0.950 . S
H1577 C1606 0.950 . S
H1578 C1608 0.950 . S
H1579 C1609 0.950 . S
C1580 H1562 0.951 . S
C1580 C1581 1.366 . S
C1580 C1582 1.388 . S
C1581 C1580 1.366 . S
C1581 C1585 1.385 . S
C1582 H1563 0.951 . S
C1582 C1580 1.388 . S
C1582 C1583 1.366 . S
C1583 C1582 1.366 . S
C1583 C1584 1.414 . S
C1583 C1586 1.499 . S
C1584 H1564 0.950 . S
C1584 C1583 1.414 . S
C1584 C1585 1.374 . S
C1585 H1565 0.950 . S
C1585 C1581 1.385 . S
C1585 C1584 1.374 . S
C1586 C1583 1.499 . S
C1586 C1587 1.373 . S
C1586 C1588 1.389 . S
C1587 H1566 0.950 . S
C1587 C1586 1.373 . S
C1587 C1603 1.377 . S
C1588 C1586 1.389 . S
C1588 C1589 1.524 . S
C1588 C1602 1.377 . S
C1589 C1588 1.524 . S
C1589 C1590 1.397 . S
C1589 C1594 1.363 . S
C1590 H1567 0.950 . S
C1590 C1589 1.397 . S
C1590 C1591 1.334 . S
C1591 H1568 0.950 . S
C1591 C1590 1.334 . S
C1591 C1592 1.287 . S
C1592 C1591 1.287 . S
C1592 C1593 1.524 . S
C1592 H1611 0.913 . S
C1593 H1569 0.950 . S
C1593 C1592 1.524 . S
C1593 C1594 1.415 . S
C1594 H1570 0.950 . S
C1594 C1589 1.363 . S
C1594 C1593 1.415 . S
C1595 H1571 0.951 . S
C1595 C1596 1.366 . S
C1595 C1597 1.388 . S
C1596 C1595 1.366 . S
C1596 C1600 1.385 . S
C1597 H1572 0.951 . S
C1597 C1595 1.388 . S
C1597 C1598 1.366 . S
C1598 C1597 1.366 . S
C1598 C1599 1.414 . S
C1598 C1601 1.499 . S
C1599 H1573 0.950 . S
C1599 C1598 1.414 . S
C1599 C1600 1.374 . S
C1600 H1574 0.950 . S
C1600 C1596 1.385 . S
C1600 C1599 1.374 . S
C1601 C1598 1.499 . S
C1601 C1602 1.373 . S
C1601 C1603 1.389 . S
C1602 H1575 0.950 . S
C1602 C1588 1.377 . S
C1602 C1601 1.373 . S
C1603 C1587 1.377 . S
C1603 C1601 1.389 . S
C1603 C1604 1.524 . S
C1604 C1603 1.524 . S
C1604 C1605 1.397 . S
C1604 C1609 1.363 . S
C1605 H1576 0.950 . S
C1605 C1604 1.397 . S
C1605 C1606 1.334 . S
C1606 H1577 0.950 . S
C1606 C1605 1.334 . S
C1606 C1607 1.287 . S
C1607 C1606 1.287 . S
C1607 C1608 1.524 . S
C1607 H1610 0.999 . S
C1608 H1578 0.950 . S
C1608 C1607 1.524 . S
C1608 C1609 1.415 . S
C1609 H1579 0.950 . S
C1609 C1604 1.363 . S
C1609 C1608 1.415 . S
H1610 C1607 0.999 . S
H1611 C1592 0.913 . S
C431 C21 1.665 . S
C446 C338 1.639 . S
C481 C61 1.611 . S
C496 C362 1.614 . S
C546 C382 1.361 . S
C531 C82 1.357 . S
C581 C135 1.437 . S
C596 C405 1.449 . S
C646 C364 1.715 . S
C631 C15 1.753 . S
C696 C340 1.730 . S
C681 C42 1.736 . S
C746 C408 1.615 . S
C731 C101 1.674 . S
C796 C385 1.557 . S
C781 C122 1.607 . S
C831 C2 1.389 . S
C846 C410 1.358 . S
C896 C359 1.636 1_556 S
C881 C95 1.636 . S
C931 C141 1.714 . S
C946 C337 1.713 . S
C981 C55 1.324 . S
C996 C387 1.296 . S
C1046 C341 1.790 . S
C1031 C181 1.705 . S
C1081 C202 1.630 . S
C1096 C363 1.701 . S
C1131 C255 1.843 . S
C1146 C383 1.875 . S
C1181 C295 1.863 . S
C1196 C406 1.887 . S
C1231 C175 1.621 . S
C1246 C361 1.617 1_556 S
C1296 C339 1.679 . S
C1281 C221 1.592 . S
C1346 C409 1.462 . S
C1331 C242 1.437 . S
C1396 C386 1.587 . S
C1381 C301 1.627 . S
C1431 C162 1.956 . S
C1446 C407 2.000 . S
C1496 C360 1.604 . S
C1481 C261 1.527 . S
C1546 C336 1.632 . S
C1531 C282 1.630 . S
C1581 C215 2.027 . S
C1596 C384 2.014 . S
