# Generated by pormake.
# Topology rtl, (3,6)-cn, num edge types: 1
# Building blocks:
#     Node 0, Type 0, BuildingBlock: OLANEW_clean_sbu_2, # of connection points: 3
#     Node 1, Type 0, BuildingBlock: OLANEW_clean_sbu_2, # of connection points: 3
#     Node 2, Type 0, BuildingBlock: OLANEW_clean_sbu_2, # of connection points: 3
#     Node 3, Type 0, BuildingBlock: OLANEW_clean_sbu_2, # of connection points: 3
#     Node 4, Type 1, BuildingBlock: KUMJIN_clean_sbu_1, # of connection points: 6
#     Node 5, Type 1, BuildingBlock: KUMJIN_clean_sbu_1, # of connection points: 6
#     Edge 6, Type (0, 1), BuildingBlock: OJICUG_clean_linker_0, # of connection points: 2
#     Edge 7, Type (0, 1), BuildingBlock: OJICUG_clean_linker_0, # of connection points: 2
#     Edge 8, Type (0, 1), BuildingBlock: OJICUG_clean_linker_0, # of connection points: 2
#     Edge 9, Type (0, 1), BuildingBlock: OJICUG_clean_linker_0, # of connection points: 2
#     Edge 10, Type (0, 1), BuildingBlock: OJICUG_clean_linker_0, # of connection points: 2
#     Edge 11, Type (0, 1), BuildingBlock: OJICUG_clean_linker_0, # of connection points: 2
#     Edge 12, Type (0, 1), BuildingBlock: OJICUG_clean_linker_0, # of connection points: 2
#     Edge 13, Type (0, 1), BuildingBlock: OJICUG_clean_linker_0, # of connection points: 2
#     Edge 14, Type (0, 1), BuildingBlock: OJICUG_clean_linker_0, # of connection points: 2
#     Edge 15, Type (0, 1), BuildingBlock: OJICUG_clean_linker_0, # of connection points: 2
#     Edge 16, Type (0, 1), BuildingBlock: OJICUG_clean_linker_0, # of connection points: 2
#     Edge 17, Type (0, 1), BuildingBlock: OJICUG_clean_linker_0, # of connection points: 2
# Relax obj value: 0.047
# Max RMSD: 0.180
# Mean RMSD: 0.140
data_MOF--net-rtl--node1-OLANEW_clean_sbu_2--node2-KUMJIN_clean_sbu_1--edge1-OJICUG_clean_linker_0
_symmetry_space_group_name_H-M    P1
_symmetry_Int_Tables_number       1
_symmetry_cell_setting            triclinic
loop_
_symmetry_equiv_pos_as_xyz
'x, y, z'
_cell_length_a     28.523882
_cell_length_b     28.657732
_cell_length_c     22.721316
_cell_angle_alpha  71.452305
_cell_angle_beta   103.35372
_cell_angle_gamma 91.50955
loop_
_atom_site_label
_atom_site_type_symbol
_atom_site_fract_x
_atom_site_fract_y
_atom_site_fract_z
_atom_type_partial_charge
O0 O 0.22214 0.86204 0.95063 0.0
Cd1 Cd 0.29231 0.8339 0.04013 0.0
O2 O 0.21684 0.93649 0.95822 0.0
Cd3 Cd 0.26005 0.92209 0.05589 0.0
O4 O 0.24019 0.92841 0.14091 0.0
C5 C 0.20077 0.95349 0.12756 0.0
O6 O 0.17916 0.97412 0.0671 0.0
C7 C 0.20345 0.90575 0.92845 0.0
C8 C 0.3402 0.75326 0.03124 0.0
O9 O 0.31063 0.74722 0.06752 0.0
O10 O 0.3475 0.79741 -0.0006 0.0
O11 O 0.65237 0.74647 0.77311 0.0
Cd12 Cd 0.67818 0.80379 0.67927 0.0
O13 O 0.65267 0.69231 0.72491 0.0
Cd14 Cd 0.64214 0.62698 0.69716 0.0
O15 O 0.62703 0.63026 0.59906 0.0
C16 C 0.58908 0.6526 0.55933 0.0
O17 O 0.55547 0.66975 0.57904 0.0
C18 C 0.64142 0.704 0.76937 0.0
C19 C 0.77056 0.83819 0.67163 0.0
O20 O 0.7442 0.85494 0.69988 0.0
O21 O 0.75494 0.80261 0.65087 0.0
O22 O 0.7626 0.13689 0.24301 0.0
Cd23 Cd 0.69883 0.15981 0.14406 0.0
O24 O 0.80817 0.14265 0.17674 0.0
Cd25 Cd 0.87267 0.13593 0.14613 0.0
O26 O 0.8677 0.12665 0.05455 0.0
C27 C 0.84529 0.09073 0.04213 0.0
O28 O 0.82916 0.05755 0.08678 0.0
C29 C 0.80402 0.132 0.23368 0.0
C30 C 0.65727 0.254 0.11077 0.0
O31 O 0.64614 0.21759 0.15435 0.0
O32 O 0.68868 0.24634 0.08218 0.0
O33 O 0.34618 0.26843 0.59187 0.0
Cd34 Cd 0.32124 0.22818 0.50924 0.0
O35 O 0.36443 0.33356 0.52009 0.0
Cd36 Cd 0.33945 0.30971 0.43713 0.0
O37 O 0.36231 0.33565 0.3484 0.0
C38 C 0.3873 0.37339 0.34498 0.0
O39 O 0.39461 0.39187 0.39221 0.0
C40 C 0.36358 0.31076 0.57769 0.0
C41 C 0.23678 0.17809 0.51575 0.0
O42 O 0.27714 0.16015 0.55448 0.0
O43 O 0.23569 0.22029 0.47323 0.0
Eu44 Eu 0.02874 0.95657 0.54702 0.0
C45 C 0.93129 0.16331 0.52343 0.0
N46 N 0.97573 0.14174 0.55522 0.0
C47 C 0.01163 0.2197 0.52484 0.0
C48 C 0.92544 0.21439 0.49044 0.0
C49 C 0.01568 0.169 0.55698 0.0
C50 C 0.96633 0.24252 0.49137 0.0
C51 C 0.84514 0.15541 0.48895 0.0
C52 C 0.89158 0.13399 0.5224 0.0
C53 C 0.83919 0.20635 0.45664 0.0
C54 C 0.87921 0.23572 0.45727 0.0
Eu55 Eu 0.97807 0.05674 0.61043 0.0
N56 N 0.89852 0.08447 0.55248 0.0
C57 C 0.80602 0.12493 0.48871 0.0
C58 C 0.86035 0.05491 0.55398 0.0
C59 C 0.81365 0.07452 0.52166 0.0
H60 H 0.05054 0.15197 0.58458 0.0
H61 H 0.78349 0.0508 0.52276 0.0
H62 H 0.96088 0.85791 0.57607 0.0
H63 H 0.22251 0.97084 0.63466 0.0
H64 H 0.86538 0.01647 0.58107 0.0
H65 H 0.76978 0.14 0.4637 0.0
H66 H 0.14072 1.0005 0.57112 0.0
H67 H 0.04339 0.24121 0.5264 0.0
H68 H 0.80377 0.22336 0.43068 0.0
H69 H 0.87404 0.27491 0.43174 0.0
H70 H 0.97061 0.7699 0.64017 0.0
H71 H 0.96331 0.28185 0.46657 0.0
H72 H 0.23841 0.88364 0.70244 0.0
N73 N 0.03403 0.87231 0.60787 0.0
C74 C 0.07885 0.85303 0.64207 0.0
C75 C 1.00126 0.79294 0.64166 0.0
C76 C 0.08632 0.80262 0.67851 0.0
C77 C 0.99559 0.84304 0.60629 0.0
C78 C 0.04678 0.77264 0.67815 0.0
N79 N 0.10893 0.93275 0.60708 0.0
C80 C 0.14629 0.96333 0.60281 0.0
C81 C 0.16408 0.86492 0.67728 0.0
C82 C 0.11734 0.88397 0.64151 0.0
C83 C 0.20202 0.89686 0.67561 0.0
C84 C 0.19313 0.94617 0.63778 0.0
H85 H 0.05109 0.73375 0.70542 0.0
H86 H 0.13919 0.7451 0.74235 0.0
H87 H 0.20721 0.79957 0.74129 0.0
O88 O 0.06632 0.96544 0.46897 0.0
O89 O 0.0442 0.94031 0.65584 0.0
O90 O 0.05 0.01777 0.66402 0.0
O91 O 0.01563 0.90742 0.49007 0.0
O92 O 0.05553 0.0349 0.51604 0.0
O93 O 0.05491 0.06137 0.60143 0.0
O94 O 0.94488 0.04224 0.69326 0.0
O95 O 0.9628 0.07454 0.50262 0.0
O96 O 0.95879 0.99903 0.48622 0.0
O97 O 0.99288 0.10311 0.67049 0.0
O98 O 0.95143 0.97911 0.63908 0.0
O99 O 0.95103 0.94814 0.55671 0.0
C100 C 0.05894 0.97015 0.68929 0.0
C101 C 0.05421 0.90859 0.40522 0.0
C102 C 0.09147 0.91203 0.3173 0.0
C103 C 0.06884 0.86897 0.31215 0.0
C104 C 0.03217 0.86533 0.399 0.0
C105 C 0.03955 0.84575 0.35289 0.0
C106 C 0.08443 0.93184 0.36424 0.0
C107 C 0.06996 0.06454 0.55 0.0
C108 C 0.04601 0.92748 0.45583 0.0
C109 C 0.13281 0.78372 0.71412 0.0
C110 C 0.17155 0.81475 0.71352 0.0
C111 C 0.949 0.0469 0.46594 0.0
C112 C 0.96256 0.0935 0.76367 0.0
C113 C 0.92095 0.0958 0.84466 0.0
C114 C 0.95724 0.12422 0.86721 0.0
C115 C 0.9985 0.12205 0.78692 0.0
C116 C 0.92375 0.07987 0.79319 0.0
C117 C 0.99582 0.13714 0.83855 0.0
C118 C 0.9347 0.94949 0.60597 0.0
C119 C 0.96616 0.07919 0.70821 0.0
H120 H 0.07401 0.85322 0.27645 0.0
H121 H 0.00925 0.84629 0.43008 0.0
H122 H 0.02243 0.81242 0.34867 0.0
H123 H 0.10194 0.96505 0.36838 0.0
H124 H 0.95565 0.13634 0.90735 0.0
H125 H 0.02888 0.13268 0.76526 0.0
H126 H 0.89574 0.05793 0.77579 0.0
H127 H 0.02364 0.15901 0.85628 0.0
Eu128 Eu 0.45381 0.49764 0.97395 0.0
C129 C 0.65742 0.57088 0.08628 0.0
N130 N 0.63563 0.52736 0.10309 0.0
C131 C 0.7104 0.48291 0.12048 0.0
C132 C 0.70643 0.57192 0.08386 0.0
C133 C 0.66189 0.48368 0.12275 0.0
C134 C 0.73263 0.5272 0.10021 0.0
C135 C 0.65324 0.66021 0.05828 0.0
C136 C 0.6313 0.61464 0.07401 0.0
C137 C 0.70158 0.66133 0.05404 0.0
C138 C 0.72811 0.61733 0.06685 0.0
Eu139 Eu 0.55468 0.53392 0.10986 0.0
N140 N 0.58426 0.61275 0.07709 0.0
C141 C 0.62578 0.70335 0.0471 0.0
C142 C 0.55778 0.65428 0.06878 0.0
C143 C 0.5779 0.70032 0.05266 0.0
H144 H 0.6464 0.44924 0.14261 0.0
H145 H 0.55658 0.73337 0.0448 0.0
H146 H 0.36181 0.58179 0.93742 0.0
H147 H 0.45924 0.29664 0.07539 0.0
H148 H 0.52112 0.65174 0.07436 0.0
H149 H 0.64127 0.73908 0.03452 0.0
H150 H 0.49186 0.37718 0.03069 0.0
H151 H 0.73086 0.44815 0.13562 0.0
H152 H 0.71895 0.69602 0.04149 0.0
H153 H 0.76563 0.61877 0.06439 0.0
H154 H 0.27794 0.58323 0.94815 0.0
H155 H 0.77039 0.52646 0.09918 0.0
H156 H 0.37521 0.29214 0.08782 0.0
N157 N 0.37352 0.50424 0.98225 0.0
C158 C 0.35343 0.46071 0.00632 0.0
C159 C 0.29891 0.54861 0.96523 0.0
C160 C 0.30512 0.45987 0.01189 0.0
C161 C 0.34677 0.54773 0.96018 0.0
C162 C 0.27806 0.50456 0.99148 0.0
N163 N 0.42846 0.41835 0.02204 0.0
C164 C 0.45597 0.37599 0.03819 0.0
C165 C 0.36101 0.37126 0.05063 0.0
C166 C 0.38139 0.41671 0.02611 0.0
C167 C 0.38958 0.32774 0.0689 0.0
C168 C 0.43715 0.33015 0.06236 0.0
H169 H 0.24086 0.5054 0.995 0.0
H170 H 0.2482 0.41338 0.04192 0.0
H171 H 0.29695 0.33595 0.07549 0.0
O172 O 0.44346 0.45527 0.90712 0.0
O173 O 0.44155 0.48142 0.07426 0.0
O174 O 0.51748 0.46297 0.13922 0.0
O175 O 0.4091 0.52933 0.87704 0.0
O176 O 0.52854 0.46054 -0.00158 0.0
O177 O 0.5608 0.45764 0.10276 0.0
O178 O 0.53857 0.55874 0.18622 0.0
O179 O 0.54891 0.58201 0.00676 0.0
O180 O 0.5158 0.53911 0.93717 0.0
O181 O 0.60534 0.51563 0.20188 0.0
O182 O 0.47802 0.56476 0.08456 0.0
O183 O 0.44978 0.57656 0.97645 0.0
C184 C 0.47073 0.46068 0.13021 0.0
C185 C 0.39401 0.48589 0.79815 0.0
C186 C 0.38461 0.44232 0.71981 0.0
C187 C 0.3546 0.48185 0.67487 0.0
C188 C 0.36337 0.52463 0.75241 0.0
C189 C 0.34385 0.5225 0.69124 0.0
C190 C 0.40412 0.44413 0.78186 0.0
C191 C 0.55934 0.44207 0.05387 0.0
C192 C 0.41568 0.49012 0.86183 0.0
C193 C 0.28522 0.41465 0.03724 0.0
C194 C 0.313 0.37053 0.05635 0.0
C195 C 0.54213 0.57423 0.95135 0.0
C196 C 0.59489 0.53828 0.29136 0.0
C197 C 0.59955 0.57803 0.37204 0.0
C198 C 0.63233 0.54016 0.41562 0.0
C199 C 0.62765 0.50063 0.33564 0.0
C200 C 0.5802 0.57681 0.30998 0.0
C201 C 0.64605 0.50156 0.39754 0.0
C202 C 0.4513 0.5892 0.02797 0.0
C203 C 0.57925 0.53842 0.22513 0.0
H204 H 0.33903 0.48099 0.62697 0.0
H205 H 0.35467 0.55685 0.76372 0.0
H206 H 0.3204 0.55259 0.65625 0.0
H207 H 0.42746 0.41373 0.81656 0.0
H208 H 0.64713 0.54042 0.46396 0.0
H209 H 0.63935 0.47059 0.32226 0.0
H210 H 0.55523 0.60625 0.27617 0.0
H211 H 0.67128 0.47251 0.43143 0.0
C212 C 0.18342 0.13165 0.58304 0.0
C213 C 0.19271 0.15127 0.52232 0.0
H214 H 0.13698 0.08963 0.63895 0.0
C215 C 0.16093 0.14323 0.46957 0.0
H216 H 0.20747 0.13754 0.62428 0.0
C217 C 0.12087 0.11458 0.47805 0.0
C218 C 0.11153 0.09512 0.53903 0.0
H219 H 0.16783 0.15788 0.42233 0.0
H220 H 0.09718 0.10789 0.43716 0.0
C221 C 0.14297 0.1044 0.59123 0.0
C222 C 0.37197 0.66565 0.07773 0.0
C223 C 0.36607 0.71052 0.02764 0.0
H224 H 0.40385 0.59228 0.11688 0.0
C225 C 0.38605 0.71432 0.97521 0.0
H226 H 0.35706 0.66156 0.11873 0.0
C227 C 0.41203 0.6741 0.97348 0.0
C228 C 0.41937 0.62999 0.02486 0.0
H229 H 0.38181 0.74844 0.93575 0.0
H230 H 0.42789 0.67806 0.93328 0.0
C231 C 0.39881 0.62603 0.07669 0.0
C232 C 0.83884 0.89147 0.69465 0.0
C233 C 0.81545 0.86235 0.65851 0.0
H234 H 0.89496 0.94062 0.70746 0.0
C235 C 0.83265 0.86048 0.60598 0.0
H236 H 0.82633 0.89393 0.73515 0.0
C237 C 0.87129 0.88857 0.58866 0.0
C238 C 0.89469 0.91789 0.62475 0.0
H239 H 0.81488 0.83902 0.57649 0.0
H240 H 0.88186 0.88819 0.54604 0.0
C241 C 0.87821 0.91841 0.67847 0.0
C242 C 0.62115 0.31655 0.14352 0.0
C243 C 0.63456 0.30333 0.09521 0.0
H244 H 0.58753 0.37069 0.16837 0.0
C245 C 0.62432 0.33663 0.03262 0.0
H246 H 0.62881 0.29163 0.19217 0.0
C247 C 0.59971 0.38205 0.01847 0.0
C248 C 0.58633 0.39512 0.06714 0.0
H249 H 0.6341 0.32697 0.99448 0.0
H250 H 0.59123 0.40686 0.96977 0.0
C251 C 0.5977 0.36201 0.12981 0.0
C252 C 0.12559 0.96571 0.16057 0.0
C253 C 0.17527 0.95272 0.17782 0.0
H254 H 0.0601 0.96319 0.1922 0.0
C255 C 0.19848 0.93455 0.24306 0.0
H256 H 0.10652 0.97989 0.11084 0.0
C257 C 0.17173 0.92595 0.28981 0.0
C258 C 0.12149 0.93515 0.27186 0.0
H259 H 0.23679 0.92466 0.25784 0.0
H260 H 0.18968 0.90879 0.33955 0.0
C261 C 0.09893 0.95655 0.20709 0.0
C262 C 0.59043 0.63012 0.8016 0.0
C263 C 0.61481 0.67065 0.81429 0.0
H264 H 0.54889 0.56756 0.83456 0.0
C265 C 0.61112 0.68111 0.86932 0.0
H266 H 0.58911 0.62254 0.75782 0.0
C267 C 0.58557 0.65113 0.91138 0.0
C268 C 0.56454 0.60845 0.90176 0.0
H269 H 0.62775 0.71284 0.87993 0.0
H270 H 0.58193 0.66193 0.95127 0.0
C271 C 0.56616 0.59901 0.84518 0.0
C272 C 0.8653 0.14072 0.32635 0.0
C273 C 0.84544 0.11213 0.28797 0.0
H274 H 0.9164 0.14372 0.40954 0.0
C275 C 0.86298 0.06324 0.30463 0.0
H276 H 0.85264 0.17874 0.31378 0.0
C277 C 0.89776 0.04215 0.36161 0.0
C278 C 0.91622 0.07007 0.40204 0.0
H279 H 0.84824 0.04076 0.27505 0.0
H280 H 0.90921 0.00373 0.37465 0.0
C281 C 0.90124 0.12026 0.38187 0.0
C282 C 0.40971 0.37624 0.61228 0.0
C283 C 0.38034 0.33587 0.626 0.0
H284 H 0.43541 0.44126 0.63353 0.0
C285 C 0.3628 0.32436 0.68168 0.0
H286 H 0.42479 0.38539 0.57061 0.0
C287 C 0.36938 0.35643 0.71817 0.0
C288 C 0.39379 0.39995 0.69949 0.0
H289 H 0.34059 0.29313 0.69387 0.0
H290 H 0.35153 0.34968 0.75711 0.0
C291 C 0.41633 0.40799 0.64866 0.0
C292 C 0.62101 0.66393 0.46432 0.0
C293 C 0.58178 0.65371 0.49309 0.0
H294 H 0.65621 0.649 0.39837 0.0
C295 C 0.54122 0.6328 0.46521 0.0
H296 H 0.65236 0.68065 0.48492 0.0
C297 C 0.54358 0.61439 0.41582 0.0
C298 C 0.58627 0.61745 0.39436 0.0
H299 H 0.51059 0.62484 0.48685 0.0
H300 H 0.51491 0.59218 0.40071 0.0
C301 C 0.62307 0.6462 0.41462 0.0
C302 C 0.83323 0.12279 0.925 0.0
C303 C 0.84524 0.08285 0.98164 0.0
H304 H 0.84627 0.15651 0.83219 0.0
C305 C 0.86829 0.04005 0.9822 0.0
H306 H 0.81497 0.15592 0.9237 0.0
C307 C 0.88667 0.04062 0.93005 0.0
C308 C 0.88135 0.08376 0.87737 0.0
H309 H 0.87774 0.00888 0.02565 0.0
H310 H 0.91057 0.01021 0.93474 0.0
C311 C 0.85066 0.12292 0.87253 0.0
C312 C 0.40889 0.37121 0.24529 0.0
C313 C 0.40888 0.39561 0.29 0.0
H314 H 0.43067 0.37229 0.16094 0.0
C315 C 0.43053 0.44118 0.28236 0.0
H316 H 0.39321 0.3357 0.25044 0.0
C317 C 0.45107 0.46225 0.23037 0.0
C318 C 0.45033 0.43801 0.18553 0.0
H319 H 0.43127 0.46079 0.31618 0.0
H320 H 0.467 0.49766 0.22482 0.0
C321 C 0.42983 0.39218 0.19376 0.0
C322 C 0.14845 0.97066 0.84073 0.0
C323 C 0.16555 0.92118 0.8681 0.0
H324 H 0.10173 0.02457 0.76377 0.0
C325 C 0.14555 0.88697 0.83772 0.0
H326 H 0.16259 0.99798 0.86302 0.0
C327 C 0.10965 0.90218 0.78077 0.0
C328 C 0.09394 0.95206 0.75221 0.0
H329 H 0.15744 0.84839 0.85801 0.0
H330 H 0.09449 0.8749 0.75918 0.0
C331 C 0.11329 0.98589 0.78359 0.0
loop_
_geom_bond_atom_site_label_1
_geom_bond_atom_site_label_2
_geom_bond_distance
_geom_bond_site_symmetry_2
_ccdc_geom_bond_type
O0 Cd1 2.300 1_556 S
O0 C7 1.275 . S
Cd1 O0 2.300 1_554 S
Cd1 O9 2.381 . S
Cd1 O10 2.378 . S
O2 Cd3 2.385 1_556 S
O2 C7 1.255 . S
Cd3 O2 2.385 1_554 S
Cd3 O4 2.317 . S
O4 Cd3 2.317 . S
O4 C5 1.232 . S
C5 O4 1.232 . S
C5 O6 1.218 . S
O6 C5 1.218 . S
C7 O0 1.275 . S
C7 O2 1.255 . S
C8 O9 1.258 . S
C8 O10 1.256 . S
O9 Cd1 2.381 . S
O9 C8 1.258 . S
O10 Cd1 2.378 . S
O10 C8 1.256 . S
O11 Cd12 2.300 . S
O11 C18 1.275 . S
Cd12 O11 2.300 . S
Cd12 O20 2.381 . S
Cd12 O21 2.378 . S
O13 Cd14 2.385 . S
O13 C18 1.255 . S
Cd14 O13 2.385 . S
Cd14 O15 2.317 . S
O15 Cd14 2.317 . S
O15 C16 1.232 . S
C16 O15 1.232 . S
C16 O17 1.218 . S
O17 C16 1.218 . S
C18 O11 1.275 . S
C18 O13 1.255 . S
C19 O20 1.258 . S
C19 O21 1.256 . S
O20 Cd12 2.381 . S
O20 C19 1.258 . S
O21 Cd12 2.378 . S
O21 C19 1.256 . S
O22 Cd23 2.300 . S
O22 C29 1.275 . S
Cd23 O22 2.300 . S
Cd23 O31 2.381 . S
Cd23 O32 2.378 . S
O24 Cd25 2.385 . S
O24 C29 1.255 . S
Cd25 O24 2.385 . S
Cd25 O26 2.317 . S
O26 Cd25 2.317 . S
O26 C27 1.232 . S
C27 O26 1.232 . S
C27 O28 1.218 . S
O28 C27 1.218 . S
C29 O22 1.275 . S
C29 O24 1.255 . S
C30 O31 1.258 . S
C30 O32 1.256 . S
O31 Cd23 2.381 . S
O31 C30 1.258 . S
O32 Cd23 2.378 . S
O32 C30 1.256 . S
O33 Cd34 2.300 . S
O33 C40 1.275 . S
Cd34 O33 2.300 . S
Cd34 O42 2.381 . S
Cd34 O43 2.378 . S
O35 Cd36 2.385 . S
O35 C40 1.255 . S
Cd36 O35 2.385 . S
Cd36 O37 2.317 . S
O37 Cd36 2.317 . S
O37 C38 1.232 . S
C38 O37 1.232 . S
C38 O39 1.218 . S
O39 C38 1.218 . S
C40 O33 1.275 . S
C40 O35 1.255 . S
C41 O42 1.258 . S
C41 O43 1.256 . S
O42 Cd34 2.381 . S
O42 C41 1.258 . S
O43 Cd34 2.378 . S
O43 C41 1.256 . S
Eu44 N73 2.600 . S
Eu44 N79 2.562 . S
Eu44 O88 2.462 . S
Eu44 O89 2.373 . S
Eu44 O91 2.432 . S
Eu44 O92 2.291 1_565 S
Eu44 O96 2.335 1_465 S
Eu44 O99 2.372 1_455 S
Eu44 C108 2.787 . S
C45 N46 1.365 . S
C45 C48 1.405 . S
C45 C52 1.448 . S
N46 C45 1.365 . S
N46 C49 1.319 1_655 S
N46 Eu55 2.600 . S
C47 C49 1.397 . S
C47 C50 1.367 1_455 S
C47 H67 0.931 . S
C48 C45 1.405 . S
C48 C50 1.403 . S
C48 C54 1.439 . S
C49 N46 1.319 1_455 S
C49 C47 1.397 . S
C49 H60 0.930 . S
C50 C47 1.367 1_655 S
C50 C48 1.403 . S
C50 H71 0.929 . S
C51 C52 1.430 . S
C51 C53 1.387 . S
C51 C57 1.404 . S
C52 C45 1.448 . S
C52 C51 1.430 . S
C52 N56 1.351 . S
C53 C51 1.387 . S
C53 C54 1.374 . S
C53 H68 0.931 . S
C54 C48 1.439 . S
C54 C53 1.374 . S
C54 H69 0.931 . S
Eu55 N46 2.600 . S
Eu55 N56 2.562 . S
Eu55 O90 2.335 1_655 S
Eu55 O93 2.372 1_655 S
Eu55 O94 2.462 . S
Eu55 O95 2.373 . S
Eu55 O97 2.432 . S
Eu55 O98 2.291 1_545 S
Eu55 C119 2.787 . S
N56 C52 1.351 . S
N56 Eu55 2.562 . S
N56 C58 1.325 . S
C57 C51 1.404 . S
C57 C59 1.366 . S
C57 H65 0.930 . S
C58 N56 1.325 . S
C58 C59 1.416 . S
C58 H64 0.929 . S
C59 C57 1.366 . S
C59 C58 1.416 . S
C59 H61 0.930 . S
H60 C49 0.930 . S
H61 C59 0.930 . S
H62 C77 0.930 1_655 S
H63 C84 0.930 . S
H64 C58 0.929 . S
H65 C57 0.930 . S
H66 C80 0.929 . S
H67 C47 0.931 . S
H68 C53 0.931 . S
H69 C54 0.931 . S
H70 C75 0.931 1_655 S
H71 C50 0.929 . S
H72 C83 0.930 . S
N73 Eu44 2.600 . S
N73 C74 1.365 . S
N73 C77 1.319 . S
C74 N73 1.365 . S
C74 C76 1.405 . S
C74 C82 1.448 . S
C75 H70 0.931 1_455 S
C75 C77 1.397 . S
C75 C78 1.367 . S
C76 C74 1.405 . S
C76 C78 1.403 . S
C76 C109 1.439 . S
C77 H62 0.930 1_455 S
C77 N73 1.319 . S
C77 C75 1.397 . S
C78 C75 1.367 . S
C78 C76 1.403 . S
C78 H85 0.929 . S
N79 Eu44 2.562 . S
N79 C80 1.325 . S
N79 C82 1.351 . S
C80 H66 0.929 . S
C80 N79 1.325 . S
C80 C84 1.416 . S
C81 C82 1.430 . S
C81 C83 1.404 . S
C81 C110 1.387 . S
C82 C74 1.448 . S
C82 N79 1.351 . S
C82 C81 1.430 . S
C83 H72 0.930 . S
C83 C81 1.404 . S
C83 C84 1.366 . S
C84 H63 0.930 . S
C84 C80 1.416 . S
C84 C83 1.366 . S
H85 C78 0.929 . S
H86 C109 0.931 . S
H87 C110 0.931 . S
O88 Eu44 2.462 . S
O88 C108 1.252 . S
O89 Eu44 2.373 . S
O89 C100 1.249 . S
O90 Eu55 2.335 1_455 S
O90 C100 1.264 1_545 S
O91 Eu44 2.432 . S
O91 C108 1.268 . S
O92 Eu44 2.291 1_545 S
O92 C107 1.255 . S
O93 Eu55 2.372 1_455 S
O93 C107 1.257 . S
O94 Eu55 2.462 . S
O94 C119 1.252 . S
O95 Eu55 2.373 . S
O95 C111 1.249 . S
O96 Eu44 2.335 1_645 S
O96 C111 1.264 . S
O97 Eu55 2.432 . S
O97 C119 1.268 . S
O98 Eu55 2.291 1_565 S
O98 C118 1.255 . S
O99 Eu44 2.372 1_655 S
O99 C118 1.257 . S
C100 O89 1.249 . S
C100 O90 1.264 1_565 S
C101 C104 1.382 . S
C101 C106 1.390 . S
C101 C108 1.506 . S
C102 C103 1.398 . S
C102 C106 1.392 . S
C103 C102 1.398 . S
C103 C105 1.372 . S
C103 H120 0.931 . S
C104 C101 1.382 . S
C104 C105 1.390 . S
C104 H121 0.931 . S
C105 C103 1.372 . S
C105 C104 1.390 . S
C105 H122 0.929 . S
C106 C101 1.390 . S
C106 C102 1.392 . S
C106 H123 0.930 . S
C107 O92 1.255 . S
C107 O93 1.257 . S
C108 Eu44 2.787 . S
C108 O88 1.252 . S
C108 O91 1.268 . S
C108 C101 1.506 . S
C109 C76 1.439 . S
C109 H86 0.931 . S
C109 C110 1.374 . S
C110 C81 1.387 . S
C110 H87 0.931 . S
C110 C109 1.374 . S
C111 O95 1.249 . S
C111 O96 1.264 . S
C112 C115 1.382 . S
C112 C116 1.390 . S
C112 C119 1.506 . S
C113 C114 1.398 . S
C113 C116 1.392 . S
C114 C113 1.398 . S
C114 C117 1.372 . S
C114 H124 0.931 . S
C115 C112 1.382 . S
C115 C117 1.390 . S
C115 H125 0.931 . S
C116 C112 1.390 . S
C116 C113 1.392 . S
C116 H126 0.930 . S
C117 C114 1.372 . S
C117 C115 1.390 . S
C117 H127 0.929 . S
C118 O98 1.255 . S
C118 O99 1.257 . S
C119 Eu55 2.787 . S
C119 O94 1.252 . S
C119 O97 1.268 . S
C119 C112 1.506 . S
H120 C103 0.931 . S
H121 C104 0.931 . S
H122 C105 0.929 . S
H123 C106 0.930 . S
H124 C114 0.931 . S
H125 C115 0.931 . S
H126 C116 0.930 . S
H127 C117 0.929 . S
Eu128 N157 2.600 . S
Eu128 N163 2.562 1_556 S
Eu128 O172 2.462 . S
Eu128 O173 2.373 1_556 S
Eu128 O175 2.432 . S
Eu128 O176 2.291 1_556 S
Eu128 O180 2.335 . S
Eu128 O183 2.372 . S
Eu128 C192 2.787 . S
C129 N130 1.365 . S
C129 C132 1.405 . S
C129 C136 1.448 . S
N130 C129 1.365 . S
N130 C133 1.319 . S
N130 Eu139 2.600 . S
C131 C133 1.397 . S
C131 C134 1.367 . S
C131 H151 0.931 . S
C132 C129 1.405 . S
C132 C134 1.403 . S
C132 C138 1.439 . S
C133 N130 1.319 . S
C133 C131 1.397 . S
C133 H144 0.930 . S
C134 C131 1.367 . S
C134 C132 1.403 . S
C134 H155 0.929 . S
C135 C136 1.430 . S
C135 C137 1.387 . S
C135 C141 1.404 . S
C136 C129 1.448 . S
C136 C135 1.430 . S
C136 N140 1.351 . S
C137 C135 1.387 . S
C137 C138 1.374 . S
C137 H152 0.931 . S
C138 C132 1.439 . S
C138 C137 1.374 . S
C138 H153 0.931 . S
Eu139 N130 2.600 . S
Eu139 N140 2.562 . S
Eu139 O174 2.335 . S
Eu139 O177 2.372 . S
Eu139 O178 2.462 . S
Eu139 O179 2.373 . S
Eu139 O181 2.432 . S
Eu139 O182 2.291 . S
Eu139 C203 2.787 . S
N140 C136 1.351 . S
N140 Eu139 2.562 . S
N140 C142 1.325 . S
C141 C135 1.404 . S
C141 C143 1.366 . S
C141 H149 0.930 . S
C142 N140 1.325 . S
C142 C143 1.416 . S
C142 H148 0.929 . S
C143 C141 1.366 . S
C143 C142 1.416 . S
C143 H145 0.930 . S
H144 C133 0.930 . S
H145 C143 0.930 . S
H146 C161 0.930 . S
H147 C168 0.930 . S
H148 C142 0.929 . S
H149 C141 0.930 . S
H150 C164 0.929 . S
H151 C131 0.931 . S
H152 C137 0.931 . S
H153 C138 0.931 . S
H154 C159 0.931 . S
H155 C134 0.929 . S
H156 C167 0.930 . S
N157 Eu128 2.600 . S
N157 C158 1.365 1_556 S
N157 C161 1.319 . S
C158 N157 1.365 1_554 S
C158 C160 1.405 . S
C158 C166 1.448 . S
C159 H154 0.931 . S
C159 C161 1.397 . S
C159 C162 1.367 . S
C160 C158 1.405 . S
C160 C162 1.403 1_554 S
C160 C193 1.439 . S
C161 H146 0.930 . S
C161 N157 1.319 . S
C161 C159 1.397 . S
C162 C159 1.367 . S
C162 C160 1.403 1_556 S
C162 H169 0.929 1_556 S
N163 Eu128 2.562 1_554 S
N163 C164 1.325 . S
N163 C166 1.351 . S
C164 H150 0.929 . S
C164 N163 1.325 . S
C164 C168 1.416 . S
C165 C166 1.430 . S
C165 C167 1.404 . S
C165 C194 1.387 . S
C166 C158 1.448 . S
C166 N163 1.351 . S
C166 C165 1.430 . S
C167 H156 0.930 . S
C167 C165 1.404 . S
C167 C168 1.366 . S
C168 H147 0.930 . S
C168 C164 1.416 . S
C168 C167 1.366 . S
H169 C162 0.929 1_554 S
H170 C193 0.931 . S
H171 C194 0.931 . S
O172 Eu128 2.462 . S
O172 C192 1.252 . S
O173 Eu128 2.373 1_554 S
O173 C184 1.249 . S
O174 Eu139 2.335 . S
O174 C184 1.264 . S
O175 Eu128 2.432 . S
O175 C192 1.268 . S
O176 Eu128 2.291 1_554 S
O176 C191 1.255 . S
O177 Eu139 2.372 . S
O177 C191 1.257 . S
O178 Eu139 2.462 . S
O178 C203 1.252 . S
O179 Eu139 2.373 . S
O179 C195 1.249 1_554 S
O180 Eu128 2.335 . S
O180 C195 1.264 . S
O181 Eu139 2.432 . S
O181 C203 1.268 . S
O182 Eu139 2.291 . S
O182 C202 1.255 . S
O183 Eu128 2.372 . S
O183 C202 1.257 1_556 S
C184 O173 1.249 . S
C184 O174 1.264 . S
C185 C188 1.382 . S
C185 C190 1.390 . S
C185 C192 1.506 . S
C186 C187 1.398 . S
C186 C190 1.392 . S
C187 C186 1.398 . S
C187 C189 1.372 . S
C187 H204 0.931 . S
C188 C185 1.382 . S
C188 C189 1.390 . S
C188 H205 0.931 . S
C189 C187 1.372 . S
C189 C188 1.390 . S
C189 H206 0.929 . S
C190 C185 1.390 . S
C190 C186 1.392 . S
C190 H207 0.930 . S
C191 O176 1.255 . S
C191 O177 1.257 . S
C192 Eu128 2.787 . S
C192 O172 1.252 . S
C192 O175 1.268 . S
C192 C185 1.506 . S
C193 C160 1.439 . S
C193 H170 0.931 . S
C193 C194 1.374 . S
C194 C165 1.387 . S
C194 H171 0.931 . S
C194 C193 1.374 . S
C195 O179 1.249 1_556 S
C195 O180 1.264 . S
C196 C199 1.382 . S
C196 C200 1.390 . S
C196 C203 1.506 . S
C197 C198 1.398 . S
C197 C200 1.392 . S
C198 C197 1.398 . S
C198 C201 1.372 . S
C198 H208 0.931 . S
C199 C196 1.382 . S
C199 C201 1.390 . S
C199 H209 0.931 . S
C200 C196 1.390 . S
C200 C197 1.392 . S
C200 H210 0.930 . S
C201 C198 1.372 . S
C201 C199 1.390 . S
C201 H211 0.929 . S
C202 O182 1.255 . S
C202 O183 1.257 1_554 S
C203 Eu139 2.787 . S
C203 O178 1.252 . S
C203 O181 1.268 . S
C203 C196 1.506 . S
H204 C187 0.931 . S
H205 C188 0.931 . S
H206 C189 0.929 . S
H207 C190 0.930 . S
H208 C198 0.931 . S
H209 C199 0.931 . S
H210 C200 0.930 . S
H211 C201 0.929 . S
C212 C213 1.387 . S
C212 H216 0.950 . S
C212 C221 1.390 . S
C213 C212 1.387 . S
C213 C215 1.387 . S
H214 C221 0.950 . S
C215 C213 1.387 . S
C215 C217 1.390 . S
C215 H219 0.950 . S
H216 C212 0.950 . S
C217 C215 1.390 . S
C217 C218 1.387 . S
C217 H220 0.950 . S
C218 C217 1.387 . S
C218 C221 1.387 . S
H219 C215 0.950 . S
H220 C217 0.950 . S
C221 C212 1.390 . S
C221 H214 0.950 . S
C221 C218 1.387 . S
C222 C223 1.387 . S
C222 H226 0.950 . S
C222 C231 1.390 . S
C223 C222 1.387 . S
C223 C225 1.387 1_554 S
H224 C231 0.950 . S
C225 C223 1.387 1_556 S
C225 C227 1.390 . S
C225 H229 0.950 . S
H226 C222 0.950 . S
C227 C225 1.390 . S
C227 C228 1.387 1_556 S
C227 H230 0.950 . S
C228 C227 1.387 1_554 S
C228 C231 1.387 . S
H229 C225 0.950 . S
H230 C227 0.950 . S
C231 C222 1.390 . S
C231 H224 0.950 . S
C231 C228 1.387 . S
C232 C233 1.387 . S
C232 H236 0.950 . S
C232 C241 1.390 . S
C233 C232 1.387 . S
C233 C235 1.387 . S
H234 C241 0.950 . S
C235 C233 1.387 . S
C235 C237 1.390 . S
C235 H239 0.950 . S
H236 C232 0.950 . S
C237 C235 1.390 . S
C237 C238 1.387 . S
C237 H240 0.950 . S
C238 C237 1.387 . S
C238 C241 1.387 . S
H239 C235 0.950 . S
H240 C237 0.950 . S
C241 C232 1.390 . S
C241 H234 0.950 . S
C241 C238 1.387 . S
C242 C243 1.387 . S
C242 H246 0.950 . S
C242 C251 1.390 . S
C243 C242 1.387 . S
C243 C245 1.387 . S
H244 C251 0.950 . S
C245 C243 1.387 . S
C245 C247 1.390 . S
C245 H249 0.950 1_554 S
H246 C242 0.950 . S
C247 C245 1.390 . S
C247 C248 1.387 . S
C247 H250 0.950 1_554 S
C248 C247 1.387 . S
C248 C251 1.387 . S
H249 C245 0.950 1_556 S
H250 C247 0.950 1_556 S
C251 C242 1.390 . S
C251 H244 0.950 . S
C251 C248 1.387 . S
C252 C253 1.387 . S
C252 H256 0.950 . S
C252 C261 1.390 . S
C253 C252 1.387 . S
C253 C255 1.387 . S
H254 C261 0.950 . S
C255 C253 1.387 . S
C255 C257 1.390 . S
C255 H259 0.950 . S
H256 C252 0.950 . S
C257 C255 1.390 . S
C257 C258 1.387 . S
C257 H260 0.950 . S
C258 C257 1.387 . S
C258 C261 1.387 . S
H259 C255 0.950 . S
H260 C257 0.950 . S
C261 C252 1.390 . S
C261 H254 0.950 . S
C261 C258 1.387 . S
C262 C263 1.387 . S
C262 H266 0.950 . S
C262 C271 1.390 . S
C263 C262 1.387 . S
C263 C265 1.387 . S
H264 C271 0.950 . S
C265 C263 1.387 . S
C265 C267 1.390 . S
C265 H269 0.950 . S
H266 C262 0.950 . S
C267 C265 1.390 . S
C267 C268 1.387 . S
C267 H270 0.950 . S
C268 C267 1.387 . S
C268 C271 1.387 . S
H269 C265 0.950 . S
H270 C267 0.950 . S
C271 C262 1.390 . S
C271 H264 0.950 . S
C271 C268 1.387 . S
C272 C273 1.387 . S
C272 H276 0.950 . S
C272 C281 1.390 . S
C273 C272 1.387 . S
C273 C275 1.387 . S
H274 C281 0.950 . S
C275 C273 1.387 . S
C275 C277 1.390 . S
C275 H279 0.950 . S
H276 C272 0.950 . S
C277 C275 1.390 . S
C277 C278 1.387 . S
C277 H280 0.950 . S
C278 C277 1.387 . S
C278 C281 1.387 . S
H279 C275 0.950 . S
H280 C277 0.950 . S
C281 C272 1.390 . S
C281 H274 0.950 . S
C281 C278 1.387 . S
C282 C283 1.387 . S
C282 H286 0.950 . S
C282 C291 1.390 . S
C283 C282 1.387 . S
C283 C285 1.387 . S
H284 C291 0.950 . S
C285 C283 1.387 . S
C285 C287 1.390 . S
C285 H289 0.950 . S
H286 C282 0.950 . S
C287 C285 1.390 . S
C287 C288 1.387 . S
C287 H290 0.950 . S
C288 C287 1.387 . S
C288 C291 1.387 . S
H289 C285 0.950 . S
H290 C287 0.950 . S
C291 C282 1.390 . S
C291 H284 0.950 . S
C291 C288 1.387 . S
C292 C293 1.387 . S
C292 H296 0.950 . S
C292 C301 1.390 . S
C293 C292 1.387 . S
C293 C295 1.387 . S
H294 C301 0.950 . S
C295 C293 1.387 . S
C295 C297 1.390 . S
C295 H299 0.950 . S
H296 C292 0.950 . S
C297 C295 1.390 . S
C297 C298 1.387 . S
C297 H300 0.950 . S
C298 C297 1.387 . S
C298 C301 1.387 . S
H299 C295 0.950 . S
H300 C297 0.950 . S
C301 C292 1.390 . S
C301 H294 0.950 . S
C301 C298 1.387 . S
C302 C303 1.387 . S
C302 H306 0.950 . S
C302 C311 1.390 . S
C303 C302 1.387 . S
C303 C305 1.387 . S
H304 C311 0.950 . S
C305 C303 1.387 . S
C305 C307 1.390 . S
C305 H309 0.950 1_556 S
H306 C302 0.950 . S
C307 C305 1.390 . S
C307 C308 1.387 . S
C307 H310 0.950 1_545 S
C308 C307 1.387 . S
C308 C311 1.387 . S
H309 C305 0.950 1_554 S
H310 C307 0.950 1_565 S
C311 C302 1.390 . S
C311 H304 0.950 . S
C311 C308 1.387 . S
C312 C313 1.387 . S
C312 H316 0.950 . S
C312 C321 1.390 . S
C313 C312 1.387 . S
C313 C315 1.387 . S
H314 C321 0.950 . S
C315 C313 1.387 . S
C315 C317 1.390 . S
C315 H319 0.950 . S
H316 C312 0.950 . S
C317 C315 1.390 . S
C317 C318 1.387 . S
C317 H320 0.950 . S
C318 C317 1.387 . S
C318 C321 1.387 . S
H319 C315 0.950 . S
H320 C317 0.950 . S
C321 C312 1.390 . S
C321 H314 0.950 . S
C321 C318 1.387 . S
C322 C323 1.387 . S
C322 H326 0.950 . S
C322 C331 1.390 . S
C323 C322 1.387 . S
C323 C325 1.387 . S
H324 C331 0.950 1_545 S
C325 C323 1.387 . S
C325 C327 1.390 . S
C325 H329 0.950 . S
H326 C322 0.950 . S
C327 C325 1.390 . S
C327 C328 1.387 . S
C327 H330 0.950 . S
C328 C327 1.387 . S
C328 C331 1.387 . S
H329 C325 0.950 . S
H330 C327 0.950 . S
C331 C322 1.390 . S
C331 H324 0.950 1_565 S
C331 C328 1.387 . S
C218 C107 1.612 . S
C213 C41 1.606 . S
C223 C8 1.629 . S
C228 C202 1.631 . S
C233 C19 1.733 . S
C238 C118 1.786 . S
C243 C30 1.588 . S
C248 C191 1.603 . S
C258 C102 1.434 . S
C253 C5 1.444 . S
C268 C195 1.793 . S
C263 C18 1.750 . S
C273 C29 1.595 . S
C278 C111 1.713 . S
C283 C40 1.592 . S
C288 C186 1.510 . S
C298 C197 1.397 . S
C293 C16 1.322 . S
C308 C113 1.349 . S
C303 C27 1.293 1_556 S
C318 C184 1.544 . S
C313 C38 1.281 . S
C323 C7 1.497 . S
C328 C100 1.526 . S
