# Generated by pormake.
# Topology rtl, (3,6)-cn, num edge types: 1
# Building blocks:
#     Node 0, Type 0, BuildingBlock: OLANEW_clean_sbu_2, # of connection points: 3
#     Node 1, Type 0, BuildingBlock: OLANEW_clean_sbu_2, # of connection points: 3
#     Node 2, Type 0, BuildingBlock: OLANEW_clean_sbu_2, # of connection points: 3
#     Node 3, Type 0, BuildingBlock: OLANEW_clean_sbu_2, # of connection points: 3
#     Node 4, Type 1, BuildingBlock: FUNLAD_clean_sbu_0, # of connection points: 6
#     Node 5, Type 1, BuildingBlock: FUNLAD_clean_sbu_0, # of connection points: 6
#     Edge 6, Type (0, 1), BuildingBlock: XUDNAN_clean_linker_2, # of connection points: 2
#     Edge 7, Type (0, 1), BuildingBlock: XUDNAN_clean_linker_2, # of connection points: 2
#     Edge 8, Type (0, 1), BuildingBlock: XUDNAN_clean_linker_2, # of connection points: 2
#     Edge 9, Type (0, 1), BuildingBlock: XUDNAN_clean_linker_2, # of connection points: 2
#     Edge 10, Type (0, 1), BuildingBlock: XUDNAN_clean_linker_2, # of connection points: 2
#     Edge 11, Type (0, 1), BuildingBlock: XUDNAN_clean_linker_2, # of connection points: 2
#     Edge 12, Type (0, 1), BuildingBlock: XUDNAN_clean_linker_2, # of connection points: 2
#     Edge 13, Type (0, 1), BuildingBlock: XUDNAN_clean_linker_2, # of connection points: 2
#     Edge 14, Type (0, 1), BuildingBlock: XUDNAN_clean_linker_2, # of connection points: 2
#     Edge 15, Type (0, 1), BuildingBlock: XUDNAN_clean_linker_2, # of connection points: 2
#     Edge 16, Type (0, 1), BuildingBlock: XUDNAN_clean_linker_2, # of connection points: 2
#     Edge 17, Type (0, 1), BuildingBlock: XUDNAN_clean_linker_2, # of connection points: 2
# Relax obj value: 0.014
# Max RMSD: 0.078
# Mean RMSD: 0.052
data_MOF--net-rtl--node1-OLANEW_clean_sbu_2--node2-FUNLAD_clean_sbu_0--edge1-XUDNAN_clean_linker_2
_symmetry_space_group_name_H-M    P1
_symmetry_Int_Tables_number       1
_symmetry_cell_setting            triclinic
loop_
_symmetry_equiv_pos_as_xyz
'x, y, z'
_cell_length_a     43.406227
_cell_length_b     40.871774
_cell_length_c     22.677141
_cell_angle_alpha  87.099912
_cell_angle_beta   93.898148
_cell_angle_gamma 90.304331
loop_
_atom_site_label
_atom_site_type_symbol
_atom_site_fract_x
_atom_site_fract_y
_atom_site_fract_z
_atom_type_partial_charge
O0 O 0.15669 0.81746 0.98699 0.0
Cd1 Cd 0.18487 0.79782 0.0789 0.0
O2 O 0.17628 0.86708 0.99147 0.0
Cd3 Cd 0.18893 0.85971 0.08576 0.0
O4 O 0.16712 0.86829 0.16745 0.0
C5 C 0.14138 0.85409 0.17423 0.0
O6 O 0.13109 0.83336 0.135 0.0
C7 C 0.16043 0.84597 0.96327 0.0
C8 C 0.23459 0.75961 0.05184 0.0
O9 O 0.2093 0.74608 0.06633 0.0
O10 O 0.23645 0.79092 0.05126 0.0
O11 O 0.63917 0.71469 0.63884 0.0
Cd12 Cd 0.65543 0.7412 0.54667 0.0
O13 O 0.65942 0.66641 0.62725 0.0
Cd14 Cd 0.67086 0.6801 0.53734 0.0
O15 O 0.65261 0.67438 0.44658 0.0
C16 C 0.65456 0.64631 0.42547 0.0
O17 O 0.66995 0.62311 0.45692 0.0
C18 C 0.6446 0.68532 0.6579 0.0
C19 C 0.71464 0.76842 0.55262 0.0
O20 O 0.69147 0.78473 0.56734 0.0
O21 O 0.70988 0.73911 0.53651 0.0
O22 O 0.83401 0.1775 0.14715 0.0
Cd23 Cd 0.81324 0.19665 0.04832 0.0
O24 O 0.88234 0.18797 0.12921 0.0
Cd25 Cd 0.87238 0.20176 0.03598 0.0
O26 O 0.88742 0.18996 0.94995 0.0
C27 C 0.8827 0.16106 0.93307 0.0
O28 O 0.86654 0.14064 0.96535 0.0
C29 C 0.86252 0.17764 0.16447 0.0
C30 C 0.77694 0.25304 0.04544 0.0
O31 O 0.76522 0.22464 0.05572 0.0
O32 O 0.80589 0.2548 0.03762 0.0
O33 O 0.34638 0.32853 0.61558 0.0
Cd34 Cd 0.31995 0.30857 0.52501 0.0
O35 O 0.33371 0.38016 0.59592 0.0
Cd36 Cd 0.31765 0.37108 0.50508 0.0
O37 O 0.33565 0.37645 0.41759 0.0
C38 C 0.35891 0.35911 0.40847 0.0
O39 O 0.36883 0.33711 0.44956 0.0
C40 C 0.34664 0.35814 0.63055 0.0
C41 C 0.2809 0.25485 0.54359 0.0
O42 O 0.3101 0.25114 0.54148 0.0
O43 O 0.27006 0.28402 0.53769 0.0
C44 C 0.02732 0.96439 0.4662 0.0
N45 N 0.06385 0.04804 0.54531 0.0
C46 C 0.09189 0.03484 0.53742 0.0
C47 C 0.11834 0.05441 0.53833 0.0
C48 C 0.11624 0.08793 0.54872 0.0
C49 C 0.08685 0.10104 0.55552 0.0
C50 C 0.06086 0.08062 0.5533 0.0
Zn51 Zn 0.02658 0.01705 0.5504 0.0
C52 C 0.97119 0.03993 0.47488 0.0
N53 N 0.94981 0.95148 0.56525 0.0
C54 C 0.95666 0.91897 0.56836 0.0
C55 C 0.91997 0.9619 0.56209 0.0
C56 C 0.89568 0.9392 0.56007 0.0
C57 C 0.90217 0.90544 0.56189 0.0
C58 C 0.93324 0.89556 0.5675 0.0
Zn59 Zn 0.98611 0.98368 0.56015 0.0
O60 O 0.04235 0.98951 0.48233 0.0
C61 C 0.04045 0.96044 0.63675 0.0
O62 O 0.00258 0.95672 0.49056 0.0
H63 H 0.91496 0.98785 0.55957 0.0
H64 H 0.09392 0.00888 0.53148 0.0
H65 H 0.98043 0.91102 0.57026 0.0
O66 O 0.05277 0.9862 0.61486 0.0
O67 O 0.01251 0.95394 0.62179 0.0
H68 H 0.03839 0.09071 0.55947 0.0
O69 O 0.97021 0.01138 0.62935 0.0
O70 O 0.01 0.04399 0.61808 0.0
O71 O 0.9602 0.01406 0.49883 0.0
O72 O 0.99943 0.04738 0.48654 0.0
C73 C 0.98546 0.03685 0.64345 0.0
H74 H 0.14024 0.04318 0.53138 0.0
H75 H 0.08395 0.1266 0.56424 0.0
H76 H 0.87215 0.94809 0.55524 0.0
H77 H 0.93955 0.86991 0.57056 0.0
C78 C 0.47534 0.47152 0.92916 0.0
N79 N 0.56226 0.46094 0.02333 0.0
C80 C 0.55889 0.42818 0.0168 0.0
C81 C 0.58485 0.40801 0.01705 0.0
C82 C 0.61463 0.4216 0.02477 0.0
C83 C 0.61724 0.45543 0.03257 0.0
C84 C 0.59076 0.4747 0.03115 0.0
Zn85 Zn 0.52455 0.49122 0.01988 0.0
C86 C 0.5313 0.549 0.93714 0.0
N87 N 0.44666 0.55552 0.01171 0.0
C88 C 0.41659 0.54583 0.00568 0.0
C89 C 0.45428 0.58777 0.01438 0.0
C90 C 0.43149 0.61169 0.01041 0.0
C91 C 0.40029 0.60267 0.00302 0.0
C92 C 0.39286 0.56917 0.00132 0.0
Zn93 Zn 0.48301 0.52344 0.01559 0.0
O94 O 0.5023 0.4644 0.95151 0.0
C95 C 0.47636 0.46646 0.09958 0.0
O96 O 0.4615 0.4963 0.94649 0.0
H97 H 0.47823 0.59513 0.01924 0.0
H98 H 0.53604 0.41769 0.01067 0.0
H99 H 0.41102 0.52006 0.00364 0.0
O100 O 0.50308 0.46023 0.08311 0.0
O101 O 0.46223 0.49209 0.07843 0.0
H102 H 0.59305 0.50079 0.03601 0.0
O103 O 0.50501 0.54988 0.08457 0.0
O104 O 0.54582 0.51834 0.08905 0.0
O105 O 0.50452 0.55436 0.95366 0.0
O106 O 0.54551 0.5231 0.95641 0.0
C107 C 0.53185 0.54275 0.10706 0.0
H108 H 0.58155 0.38219 0.01008 0.0
H109 H 0.63954 0.46706 0.03994 0.0
H110 H 0.43836 0.6371 0.01336 0.0
H111 H 0.36908 0.56115 0.99551 0.0
H112 H 0.21842 0.25113 0.51589 0.0
H113 H 0.29715 0.1936 0.58833 0.0
H114 H 0.26336 0.14518 0.59972 0.0
H115 H 0.1612 0.21362 0.60714 0.0
H116 H 0.1312 0.21435 0.54809 0.0
H117 H 0.16122 0.24497 0.54827 0.0
H118 H 0.17451 0.22945 0.44353 0.0
H119 H 0.14453 0.19882 0.44308 0.0
H120 H 0.18357 0.18749 0.43085 0.0
H121 H 0.22109 0.10328 0.60413 0.0
H122 H 0.17389 0.0698 0.59678 0.0
H123 H 0.12318 0.15341 0.51426 0.0
C124 C 0.22848 0.22842 0.53468 0.0
C125 C 0.26038 0.22616 0.55167 0.0
C126 C 0.27277 0.19588 0.57511 0.0
C127 C 0.25376 0.16827 0.58187 0.0
C128 C 0.22246 0.17125 0.56437 0.0
C129 C 0.20991 0.20046 0.54086 0.0
C130 C 0.1758 0.19665 0.52316 0.0
C131 C 0.15621 0.21871 0.5588 0.0
C132 C 0.16923 0.2035 0.45618 0.0
C133 C 0.17115 0.16076 0.54054 0.0
C134 C 0.19831 0.14668 0.56465 0.0
C135 C 0.19975 0.11395 0.58474 0.0
C136 C 0.17277 0.09502 0.5798 0.0
C137 C 0.14464 0.10865 0.55416 0.0
C138 C 0.14405 0.14211 0.5345 0.0
H139 H 0.24683 0.69458 0.08079 0.0
H140 H 0.28147 0.78026 0.98519 0.0
H141 H 0.32527 0.74787 0.95616 0.0
H142 H 0.32067 0.66588 0.1393 0.0
H143 H 0.3113 0.62307 0.13393 0.0
H144 H 0.28129 0.65219 0.14344 0.0
H145 H 0.25104 0.6328 0.049 0.0
H146 H 0.2811 0.60373 0.03905 0.0
H147 H 0.26967 0.63342 0.98027 0.0
H148 H 0.36533 0.70702 0.93838 0.0
H149 H 0.4022 0.66139 0.94015 0.0
H150 H 0.34378 0.60257 0.05225 0.0
C151 C 0.2635 0.70638 0.05327 0.0
C152 C 0.2607 0.73988 0.03488 0.0
C153 C 0.28321 0.75465 -0.00021 0.0
C154 C 0.30806 0.73642 0.98279 0.0
C155 C 0.31021 0.70351 0.00168 0.0
C156 C 0.28878 0.68864 0.03664 0.0
C157 C 0.29776 0.65346 0.05409 0.0
C158 C 0.30308 0.64837 0.1217 0.0
C159 C 0.27344 0.62944 0.0291 0.0
C160 C 0.32772 0.65105 0.0239 0.0
C161 C 0.33415 0.6801 0.99325 0.0
C162 C 0.36065 0.68419 0.96245 0.0
C163 C 0.38154 0.65816 0.96406 0.0
C164 C 0.37613 0.6285 -0.00304 0.0
C165 C 0.34849 0.62478 0.02632 0.0
H166 H 0.73434 0.8268 0.59791 0.0
H167 H 0.76523 0.74404 0.50472 0.0
H168 H 0.81632 0.77006 0.49771 0.0
H169 H 0.77353 0.88907 0.5162 0.0
H170 H 0.78376 0.9131 0.57911 0.0
H171 H 0.74963 0.88784 0.57827 0.0
H172 H 0.76964 0.85832 0.6772 0.0
H173 H 0.80374 0.88367 0.67851 0.0
H174 H 0.80735 0.83968 0.68295 0.0
H175 H 0.86269 0.80612 0.49535 0.0
H176 H 0.90314 0.84818 0.50388 0.0
H177 H 0.8438 0.90643 0.6043 0.0
C178 C 0.75191 0.81407 0.57634 0.0
C179 C 0.74576 0.78338 0.55174 0.0
C180 C 0.7694 0.76749 0.52402 0.0
C181 C 0.79848 0.78211 0.51967 0.0
C182 C 0.80368 0.81248 0.54376 0.0
C183 C 0.78123 0.82816 0.57214 0.0
C184 C 0.793 0.86062 0.59443 0.0
C185 C 0.77384 0.88935 0.56524 0.0
C186 C 0.79347 0.86055 0.66231 0.0
C187 C 0.82544 0.86084 0.5735 0.0
C188 C 0.83099 0.83288 0.54417 0.0
C189 C 0.85883 0.82787 0.51911 0.0
C190 C 0.8818 0.85189 0.52467 0.0
C191 C 0.87707 0.88054 0.55575 0.0
C192 C 0.8483 0.88498 0.58016 0.0
H193 H 0.71732 0.25907 0.07719 0.0
H194 H 0.79239 0.31423 0.00253 0.0
H195 H 0.75917 0.36326 0.98973 0.0
H196 H 0.65605 0.29473 0.98327 0.0
H197 H 0.62922 0.29573 0.04042 0.0
H198 H 0.65899 0.26501 0.0449 0.0
H199 H 0.67837 0.28343 0.14869 0.0
H200 H 0.64852 0.31407 0.14467 0.0
H201 H 0.68836 0.32581 0.15813 0.0
H202 H 0.71704 0.40529 0.97991 0.0
H203 H 0.67005 0.43869 0.97964 0.0
H204 H 0.62323 0.35731 0.06665 0.0
C205 C 0.72682 0.2815 0.0584 0.0
C206 C 0.75744 0.2828 0.0407 0.0
C207 C 0.76904 0.31266 0.01654 0.0
C208 C 0.75033 0.34063 0.00895 0.0
C209 C 0.72018 0.33843 0.0263 0.0
C210 C 0.70857 0.30976 0.05112 0.0
C211 C 0.67542 0.31407 0.06639 0.0
C212 C 0.65364 0.29102 0.03166 0.0
C213 C 0.67251 0.30905 0.13346 0.0
C214 C 0.6701 0.34953 0.04559 0.0
C215 C 0.69617 0.36305 0.02242 0.0
C216 C 0.69662 0.39513 -0.00121 0.0
C217 C 0.66978 0.414 -0.00073 0.0
C218 C 0.64283 0.40095 0.02382 0.0
C219 C 0.6432 0.36814 0.04714 0.0
H220 H 0.15009 0.90496 0.24826 0.0
H221 H 0.08722 0.82545 0.20462 0.0
H222 H 0.05141 0.84453 0.27558 0.0
H223 H 0.13639 0.90514 0.40558 0.0
H224 H 0.13873 0.94914 0.40697 0.0
H225 H 0.16026 0.92777 0.35573 0.0
H226 H 0.13442 0.96366 0.26881 0.0
H227 H 0.11255 0.98485 0.31967 0.0
H228 H 0.09288 0.96504 0.25857 0.0
H229 H 0.02135 0.87376 0.34805 0.0
H230 H 1.00004 0.91005 0.41902 0.0
H231 H 0.08221 0.97094 0.4136 0.0
C232 C 0.12904 0.89122 0.25429 0.0
C233 C 0.12151 0.86362 0.221 0.0
C234 C 0.09352 0.84661 0.22969 0.0
C235 C 0.073 0.85728 0.26987 0.0
C236 C 0.08081 0.88499 0.30099 0.0
C237 C 0.10823 0.90163 0.29393 0.0
C238 C 0.11064 0.93135 0.33123 0.0
C239 C 0.13813 0.92814 0.37764 0.0
C240 C 0.11274 0.9631 0.29222 0.0
C241 C 0.08018 0.929 0.35993 0.0
C242 C 0.06335 0.90203 0.34211 0.0
C243 C 0.03437 0.89489 0.3625 0.0
C244 C 0.02242 0.9157 0.40265 0.0
C245 C 0.03938 0.9434 0.42176 0.0
C246 C 0.06858 0.95007 0.39972 0.0
H247 H 0.6487 0.62266 0.70822 0.0
H248 H 0.60622 0.7173 0.7265 0.0
H249 H 0.57444 0.69277 0.80315 0.0
H250 H 0.58267 0.57568 0.71943 0.0
H251 H 0.60058 0.54167 0.76219 0.0
H252 H 0.62302 0.56698 0.7139 0.0
H253 H 0.6622 0.57902 0.80148 0.0
H254 H 0.64019 0.55321 0.84996 0.0
H255 H 0.64856 0.59497 0.86764 0.0
H256 H 0.54244 0.65709 0.86673 0.0
H257 H 0.51636 0.61354 0.92366 0.0
H258 H 0.58062 0.54194 0.86824 0.0
C259 C 0.63333 0.63844 0.72942 0.0
C260 C 0.62998 0.67195 0.71119 0.0
C261 C 0.60932 0.69163 0.73971 0.0
C262 C 0.59108 0.6779 0.78324 0.0
C263 C 0.59404 0.64456 0.79837 0.0
C264 C 0.61507 0.62518 0.77332 0.0
C265 C 0.61268 0.58972 0.79584 0.0
C266 C 0.60423 0.5672 0.74479 0.0
C267 C 0.64269 0.57858 0.83082 0.0
C268 C 0.58639 0.59209 0.8361 0.0
C269 C 0.576 0.62397 0.83671 0.0
C270 C 0.5507 0.63213 0.86748 0.0
C271 C 0.53589 0.60714 0.89926 0.0
C272 C 0.54652 0.57437 0.90049 0.0
C273 C 0.57218 0.56682 0.86852 0.0
H274 H 0.92219 0.16966 0.21117 0.0
H275 H 0.82696 0.14902 0.24821 0.0
H276 H 0.845 0.11492 0.33649 0.0
H277 H 0.95038 0.09203 0.24524 0.0
H278 H 0.98709 0.10417 0.27943 0.0
H279 H 0.96721 0.13096 0.22421 0.0
H280 H 0.96856 0.17771 0.2973 0.0
H281 H 0.98893 0.15122 0.35263 0.0
H282 H 0.95347 0.17053 0.36896 0.0
H283 H 0.87277 0.07722 0.41115 0.0
H284 H 0.90862 0.04169 0.47362 0.0
H285 H 0.98634 0.08737 0.39057 0.0
C286 C 0.90508 0.15874 0.23871 0.0
C287 C 0.8731 0.16208 0.2227 0.0
C288 C 0.85153 0.14697 0.25959 0.0
C289 C 0.86157 0.12751 0.30984 0.0
C290 C 0.89322 0.12371 0.32296 0.0
C291 C 0.9147 0.13931 0.2891 0.0
C292 C 0.94734 0.12942 0.31071 0.0
C293 C 0.96396 0.11318 0.26199 0.0
C294 C 0.96565 0.15899 0.33379 0.0
C295 C 0.94079 0.10494 0.36072 0.0
C296 C 0.9094 0.10219 0.36708 0.0
C297 C 0.89741 0.07957 0.40735 0.0
C298 C 0.91799 0.05931 0.44229 0.0
C299 C 0.95029 0.06183 0.43704 0.0
C300 C 0.96181 0.08518 0.39601 0.0
H301 H 0.34752 0.41759 0.68222 0.0
H302 H 0.38886 0.32075 0.69875 0.0
H303 H 0.42578 0.33923 0.77779 0.0
H304 H 0.41573 0.46272 0.70082 0.0
H305 H 0.40017 0.49369 0.74415 0.0
H306 H 0.37516 0.47246 0.69218 0.0
H307 H 0.33972 0.45451 0.77545 0.0
H308 H 0.36433 0.47619 0.82756 0.0
H309 H 0.35619 0.43333 0.84176 0.0
H310 H 0.46173 0.36973 0.84676 0.0
H311 H 0.49015 0.40822 0.91098 0.0
H312 H 0.42416 0.48468 0.85336 0.0
C313 C 0.36393 0.40006 0.70325 0.0
C314 C 0.36529 0.3677 0.68417 0.0
C315 C 0.38722 0.34559 0.71275 0.0
C316 C 0.40841 0.3559 0.75751 0.0
C317 C 0.4071 0.38825 0.77382 0.0
C318 C 0.38503 0.40983 0.74849 0.0
C319 C 0.38895 0.44342 0.77355 0.0
C320 C 0.39539 0.46961 0.72476 0.0
C321 C 0.36061 0.45238 0.80655 0.0
C322 C 0.41709 0.43753 0.81597 0.0
C323 C 0.42728 0.40559 0.81514 0.0
C324 C 0.45371 0.39467 0.84844 0.0
C325 C 0.46983 0.41681 0.88443 0.0
C326 C 0.45932 0.44943 0.88732 0.0
C327 C 0.43263 0.45985 0.85239 0.0
H328 H 0.65534 0.58956 0.36607 0.0
H329 H 0.61132 0.68489 0.36221 0.0
H330 H 0.57592 0.66907 0.27863 0.0
H331 H 0.64943 0.581 0.20478 0.0
H332 H 0.64212 0.53758 0.21211 0.0
H333 H 0.66536 0.55737 0.26884 0.0
H334 H 0.62896 0.53469 0.34725 0.0
H335 H 0.60539 0.51522 0.29073 0.0
H336 H 0.58822 0.54345 0.33744 0.0
H337 H 0.54223 0.64113 0.20229 0.0
H338 H 0.51567 0.60484 0.13133 0.0
H339 H 0.58271 0.52835 0.1824 0.0
C340 C 0.6386 0.60733 0.34705 0.0
C341 C 0.63608 0.63845 0.37076 0.0
C342 C 0.61378 0.66095 0.34469 0.0
C343 C 0.59349 0.65216 0.29731 0.0
C344 C 0.59606 0.62096 0.27611 0.0
C345 C 0.61835 0.59907 0.29945 0.0
C346 C 0.61576 0.56682 0.26935 0.0
C347 C 0.6449 0.56032 0.23683 0.0
C348 C 0.60919 0.53838 0.31386 0.0
C349 C 0.58815 0.57379 0.22621 0.0
C350 C 0.57707 0.60512 0.23099 0.0
C351 C 0.55091 0.61669 0.1976 0.0
C352 C 0.53588 0.59581 0.15772 0.0
C353 C 0.54719 0.56382 0.15126 0.0
C354 C 0.57368 0.55277 0.18605 0.0
H355 H 0.87602 0.10153 0.88252 0.0
H356 H 0.92652 0.19344 0.87123 0.0
H357 H 0.95787 0.17139 0.79581 0.0
H358 H 0.93908 0.04914 0.86946 0.0
H359 H 0.91811 0.02036 0.82419 0.0
H360 H 0.89809 0.04374 0.87483 0.0
H361 H 0.86029 0.06593 0.78891 0.0
H362 H 0.87991 0.04223 0.73809 0.0
H363 H 0.87543 0.08582 0.72421 0.0
H364 H 0.98641 0.1383 0.7284 0.0
H365 H 0.00719 0.0981 0.6645 0.0
H366 H 0.93728 0.02782 0.71619 0.0
C367 C 0.89338 0.1172 0.86359 0.0
C368 C 0.89886 0.14921 0.88291 0.0
C369 C 0.92182 0.16889 0.85707 0.0
C370 C 0.93984 0.15655 0.81434 0.0
C371 C 0.93438 0.12463 0.79746 0.0
C372 C 0.91142 0.10536 0.82047 0.0
C373 C 0.91058 0.07176 0.79492 0.0
C374 C 0.91684 0.04466 0.84377 0.0
C375 C 0.87972 0.06612 0.75941 0.0
C376 C 0.93704 0.075 0.75474 0.0
C377 C 0.95048 0.10568 0.75719 0.0
C378 C 0.9759 0.11431 0.72558 0.0
C379 C 0.98763 0.09117 0.68965 0.0
C380 C 0.97384 0.05977 0.6852 0.0
C381 C 0.94826 0.05162 0.7185 0.0
H382 H 0.35154 0.41082 0.32667 0.0
H383 H 0.40852 0.32535 0.37484 0.0
H384 H 0.44322 0.34188 0.29679 0.0
H385 H 0.36127 0.41223 0.16565 0.0
H386 H 0.36247 0.45635 0.15958 0.0
H387 H 0.3403 0.43577 0.21475 0.0
H388 H 0.37041 0.46762 0.29627 0.0
H389 H 0.3929 0.48798 0.24155 0.0
H390 H 0.41197 0.46528 0.30369 0.0
H391 H 0.47432 0.37032 0.22005 0.0
H392 H 0.49845 0.40754 0.14732 0.0
H393 H 0.42123 0.47452 0.14953 0.0
C394 C 0.3709 0.39516 0.31996 0.0
C395 C 0.37725 0.36672 0.35679 0.0
C396 C 0.40313 0.3472 0.34711 0.0
C397 C 0.42299 0.35637 0.30286 0.0
C398 C 0.41657 0.38505 0.26849 0.0
C399 C 0.391 0.404 0.27613 0.0
C400 C 0.3903 0.43467 0.23565 0.0
C401 C 0.3619 0.43474 0.19127 0.0
C402 C 0.39148 0.46571 0.27144 0.0
C403 C 0.41983 0.43036 0.20505 0.0
C404 C 0.43454 0.40149 0.22431 0.0
C405 C 0.46284 0.39282 0.20412 0.0
C406 C 0.47642 0.4142 0.16299 0.0
C407 C 0.46173 0.44394 0.14262 0.0
C408 C 0.43299 0.45191 0.16392 0.0
H409 H 0.16237 0.90538 0.90122 0.0
H410 H 0.12092 0.80852 0.8956 0.0
H411 H 0.08872 0.82653 0.80629 0.0
H412 H 0.09553 0.94959 0.86291 0.0
H413 H 0.11308 0.98099 0.8175 0.0
H414 H 0.13578 0.9597 0.87662 0.0
H415 H 0.17507 0.94271 0.80279 0.0
H416 H 0.15264 0.96427 0.74339 0.0
H417 H 0.16165 0.92157 0.73802 0.0
H418 H 0.0566 0.85648 0.72651 0.0
H419 H 0.02877 0.89562 0.6561 0.0
H420 H 0.09185 0.97296 0.71031 0.0
C421 C 0.14703 0.88772 0.88049 0.0
C422 C 0.14419 0.8555 0.90548 0.0
C423 C 0.1236 0.83327 0.87726 0.0
C424 C 0.10519 0.84327 0.82646 0.0
C425 C 0.10792 0.87544 0.80404 0.0
C426 C 0.1286 0.89724 0.82955 0.0
C427 C 0.12572 0.93094 0.79849 0.0
C428 C 0.117 0.95682 0.84145 0.0
C429 C 0.15555 0.94042 0.76891 0.0
C430 C 0.09947 0.92493 0.75279 0.0
C431 C 0.08969 0.89268 0.75673 0.0
C432 C 0.06438 0.88164 0.72225 0.0
C433 C 0.04862 0.90412 0.68268 0.0
C434 C 0.05828 0.93725 0.67762 0.0
C435 C 0.08428 0.94766 0.71268 0.0
loop_
_geom_bond_atom_site_label_1
_geom_bond_atom_site_label_2
_geom_bond_distance
_geom_bond_site_symmetry_2
_ccdc_geom_bond_type
O0 Cd1 2.300 1_556 S
O0 C7 1.275 . S
Cd1 O0 2.300 1_554 S
Cd1 O9 2.381 . S
Cd1 O10 2.378 . S
O2 Cd3 2.385 . S
O2 C7 1.255 1_554 S
Cd3 O2 2.385 . S
Cd3 O4 2.317 . S
O4 Cd3 2.317 . S
O4 C5 1.232 . S
C5 O4 1.232 . S
C5 O6 1.218 . S
O6 C5 1.218 . S
C7 O0 1.275 . S
C7 O2 1.255 1_556 S
C8 O9 1.258 . S
C8 O10 1.256 . S
O9 Cd1 2.381 . S
O9 C8 1.258 . S
O10 Cd1 2.378 . S
O10 C8 1.256 . S
O11 Cd12 2.300 . S
O11 C18 1.275 . S
Cd12 O11 2.300 . S
Cd12 O20 2.381 . S
Cd12 O21 2.378 . S
O13 Cd14 2.385 . S
O13 C18 1.255 . S
Cd14 O13 2.385 . S
Cd14 O15 2.317 . S
O15 Cd14 2.317 . S
O15 C16 1.232 . S
C16 O15 1.232 . S
C16 O17 1.218 . S
O17 C16 1.218 . S
C18 O11 1.275 . S
C18 O13 1.255 . S
C19 O20 1.258 . S
C19 O21 1.256 . S
O20 Cd12 2.381 . S
O20 C19 1.258 . S
O21 Cd12 2.378 . S
O21 C19 1.256 . S
O22 Cd23 2.300 . S
O22 C29 1.275 . S
Cd23 O22 2.300 . S
Cd23 O31 2.381 . S
Cd23 O32 2.378 . S
O24 Cd25 2.385 . S
O24 C29 1.255 . S
Cd25 O24 2.385 . S
Cd25 O26 2.317 1_554 S
O26 Cd25 2.317 1_556 S
O26 C27 1.232 . S
C27 O26 1.232 . S
C27 O28 1.218 . S
O28 C27 1.218 . S
C29 O22 1.275 . S
C29 O24 1.255 . S
C30 O31 1.258 . S
C30 O32 1.256 . S
O31 Cd23 2.381 . S
O31 C30 1.258 . S
O32 Cd23 2.378 . S
O32 C30 1.256 . S
O33 Cd34 2.300 . S
O33 C40 1.275 . S
Cd34 O33 2.300 . S
Cd34 O42 2.381 . S
Cd34 O43 2.378 . S
O35 Cd36 2.385 . S
O35 C40 1.255 . S
Cd36 O35 2.385 . S
Cd36 O37 2.317 . S
O37 Cd36 2.317 . S
O37 C38 1.232 . S
C38 O37 1.232 . S
C38 O39 1.218 . S
O39 C38 1.218 . S
C40 O33 1.275 . S
C40 O35 1.255 . S
C41 O42 1.258 . S
C41 O43 1.256 . S
O42 Cd34 2.381 . S
O42 C41 1.258 . S
O43 Cd34 2.378 . S
O43 C41 1.256 . S
C44 O60 1.251 . S
C44 O62 1.254 . S
N45 C46 1.333 . S
N45 C50 1.307 . S
N45 Zn51 2.020 . S
C46 N45 1.333 . S
C46 C47 1.379 . S
C46 H64 0.952 . S
C47 C46 1.379 . S
C47 C48 1.390 . S
C47 H74 0.949 . S
C48 C47 1.390 . S
C48 C49 1.357 . S
C49 C48 1.357 . S
C49 C50 1.370 . S
C49 H75 0.950 . S
C50 N45 1.307 . S
C50 C49 1.370 . S
C50 H68 0.948 . S
Zn51 N45 2.020 . S
Zn51 O60 2.039 1_545 S
Zn51 O66 2.034 1_545 S
Zn51 O70 2.025 . S
Zn51 O72 2.024 . S
C52 O71 1.246 . S
C52 O72 1.250 1_655 S
N53 C54 1.307 . S
N53 C55 1.333 . S
N53 Zn59 2.020 . S
C54 N53 1.307 . S
C54 C58 1.370 . S
C54 H65 0.948 . S
C55 N53 1.333 . S
C55 C56 1.379 . S
C55 H63 0.952 . S
C56 C55 1.379 . S
C56 C57 1.390 . S
C56 H76 0.949 . S
C57 C56 1.390 . S
C57 C58 1.357 . S
C58 C54 1.370 . S
C58 C57 1.357 . S
C58 H77 0.950 . S
Zn59 N53 2.020 . S
Zn59 O62 2.025 1_655 S
Zn59 O67 2.024 1_655 S
Zn59 O69 2.039 1_565 S
Zn59 O71 2.034 1_565 S
O60 C44 1.251 . S
O60 Zn51 2.039 1_565 S
C61 O66 1.246 . S
C61 O67 1.249 . S
O62 C44 1.254 . S
O62 Zn59 2.025 1_455 S
H63 C55 0.952 . S
H64 C46 0.952 . S
H65 C54 0.948 . S
O66 Zn51 2.034 1_565 S
O66 C61 1.246 . S
O67 Zn59 2.024 1_455 S
O67 C61 1.249 . S
H68 C50 0.948 . S
O69 Zn59 2.039 1_545 S
O69 C73 1.251 . S
O70 Zn51 2.025 . S
O70 C73 1.254 1_455 S
O71 C52 1.246 . S
O71 Zn59 2.034 1_545 S
O72 Zn51 2.024 . S
O72 C52 1.250 1_455 S
C73 O69 1.251 . S
C73 O70 1.254 1_655 S
H74 C47 0.949 . S
H75 C49 0.950 . S
H76 C56 0.949 . S
H77 C58 0.950 . S
C78 O94 1.251 . S
C78 O96 1.254 . S
N79 C80 1.333 . S
N79 C84 1.307 . S
N79 Zn85 2.020 . S
C80 N79 1.333 . S
C80 C81 1.379 . S
C80 H98 0.952 1_554 S
C81 C80 1.379 . S
C81 C82 1.390 . S
C81 H108 0.949 1_554 S
C82 C81 1.390 . S
C82 C83 1.357 . S
C83 C82 1.357 . S
C83 C84 1.370 . S
C83 H109 0.950 . S
C84 N79 1.307 . S
C84 C83 1.370 . S
C84 H102 0.948 . S
Zn85 N79 2.020 . S
Zn85 O94 2.039 1_554 S
Zn85 O100 2.034 . S
Zn85 O104 2.025 . S
Zn85 O106 2.024 1_554 S
C86 O105 1.246 . S
C86 O106 1.249 . S
N87 C88 1.305 1_554 S
N87 C89 1.333 . S
N87 Zn93 2.020 . S
C88 N87 1.305 1_556 S
C88 C92 1.369 . S
C88 H99 0.952 . S
C89 N87 1.333 . S
C89 C90 1.379 . S
C89 H97 0.952 . S
C90 C89 1.379 . S
C90 C91 1.390 . S
C90 H110 0.949 . S
C91 C90 1.390 . S
C91 C92 1.357 1_554 S
C92 C88 1.369 . S
C92 C91 1.357 1_556 S
C92 H111 0.950 . S
Zn93 N87 2.020 . S
Zn93 O96 2.025 1_554 S
Zn93 O101 2.024 . S
Zn93 O103 2.039 . S
Zn93 O105 2.034 1_554 S
O94 C78 1.251 . S
O94 Zn85 2.039 1_556 S
C95 O100 1.246 . S
C95 O101 1.249 . S
O96 C78 1.254 . S
O96 Zn93 2.025 1_556 S
H97 C89 0.952 . S
H98 C80 0.952 1_556 S
H99 C88 0.952 . S
O100 Zn85 2.034 . S
O100 C95 1.246 . S
O101 Zn93 2.024 . S
O101 C95 1.249 . S
H102 C84 0.948 . S
O103 Zn93 2.039 . S
O103 C107 1.251 . S
O104 Zn85 2.025 . S
O104 C107 1.254 . S
O105 C86 1.246 . S
O105 Zn93 2.034 1_556 S
O106 Zn85 2.024 1_556 S
O106 C86 1.249 . S
C107 O103 1.251 . S
C107 O104 1.254 . S
H108 C81 0.949 1_556 S
H109 C83 0.950 . S
H110 C90 0.949 . S
H111 C92 0.950 . S
H112 C124 0.930 . S
H113 C126 0.930 . S
H114 C127 0.930 . S
H115 C131 0.959 . S
H116 C131 0.959 . S
H117 C131 0.961 . S
H118 C132 0.960 . S
H119 C132 0.961 . S
H120 C132 0.959 . S
H121 C135 0.929 . S
H122 C136 0.931 . S
H123 C138 0.930 . S
C124 H112 0.930 . S
C124 C125 1.399 . S
C124 C129 1.399 . S
C125 C124 1.399 . S
C125 C126 1.376 . S
C126 H113 0.930 . S
C126 C125 1.376 . S
C126 C127 1.388 . S
C127 H114 0.930 . S
C127 C126 1.388 . S
C127 C128 1.390 . S
C128 C127 1.390 . S
C128 C129 1.394 . S
C128 C134 1.465 . S
C129 C124 1.399 . S
C129 C128 1.394 . S
C129 C130 1.516 . S
C130 C129 1.516 . S
C130 C131 1.502 . S
C130 C132 1.561 . S
C130 C133 1.526 . S
C131 H115 0.959 . S
C131 H116 0.959 . S
C131 H117 0.961 . S
C131 C130 1.502 . S
C132 H118 0.960 . S
C132 H119 0.961 . S
C132 H120 0.959 . S
C132 C130 1.561 . S
C133 C130 1.526 . S
C133 C134 1.396 . S
C133 C138 1.390 . S
C134 C128 1.465 . S
C134 C133 1.396 . S
C134 C135 1.399 . S
C135 H121 0.929 . S
C135 C134 1.399 . S
C135 C136 1.385 . S
C136 H122 0.931 . S
C136 C135 1.385 . S
C136 C137 1.389 . S
C137 C136 1.389 . S
C137 C138 1.387 . S
C138 H123 0.930 . S
C138 C133 1.390 . S
C138 C137 1.387 . S
H139 C151 0.930 . S
H140 C153 0.930 . S
H141 C154 0.930 . S
H142 C158 0.959 . S
H143 C158 0.959 . S
H144 C158 0.961 . S
H145 C159 0.960 . S
H146 C159 0.961 . S
H147 C159 0.959 . S
H148 C162 0.929 . S
H149 C163 0.931 . S
H150 C165 0.930 . S
C151 H139 0.930 . S
C151 C152 1.399 . S
C151 C156 1.399 . S
C152 C151 1.399 . S
C152 C153 1.376 1_554 S
C153 H140 0.930 . S
C153 C152 1.376 1_556 S
C153 C154 1.388 . S
C154 H141 0.930 . S
C154 C153 1.388 . S
C154 C155 1.390 . S
C155 C154 1.390 . S
C155 C156 1.394 1_556 S
C155 C161 1.465 . S
C156 C151 1.399 . S
C156 C155 1.394 1_554 S
C156 C157 1.516 . S
C157 C156 1.516 . S
C157 C158 1.502 . S
C157 C159 1.561 . S
C157 C160 1.526 . S
C158 H142 0.959 . S
C158 H143 0.959 . S
C158 H144 0.961 . S
C158 C157 1.502 . S
C159 H145 0.960 . S
C159 H146 0.961 . S
C159 H147 0.959 . S
C159 C157 1.561 . S
C160 C157 1.526 . S
C160 C161 1.396 1_554 S
C160 C165 1.390 . S
C161 C155 1.465 . S
C161 C160 1.396 1_556 S
C161 C162 1.399 . S
C162 H148 0.929 . S
C162 C161 1.399 . S
C162 C163 1.385 . S
C163 H149 0.931 . S
C163 C162 1.385 . S
C163 C164 1.389 1_556 S
C164 C163 1.389 1_554 S
C164 C165 1.387 . S
C165 H150 0.930 . S
C165 C160 1.390 . S
C165 C164 1.387 . S
H166 C178 0.930 . S
H167 C180 0.930 . S
H168 C181 0.930 . S
H169 C185 0.959 . S
H170 C185 0.959 . S
H171 C185 0.961 . S
H172 C186 0.960 . S
H173 C186 0.961 . S
H174 C186 0.959 . S
H175 C189 0.929 . S
H176 C190 0.931 . S
H177 C192 0.930 . S
C178 H166 0.930 . S
C178 C179 1.399 . S
C178 C183 1.399 . S
C179 C178 1.399 . S
C179 C180 1.376 . S
C180 H167 0.930 . S
C180 C179 1.376 . S
C180 C181 1.388 . S
C181 H168 0.930 . S
C181 C180 1.388 . S
C181 C182 1.390 . S
C182 C181 1.390 . S
C182 C183 1.394 . S
C182 C188 1.465 . S
C183 C178 1.399 . S
C183 C182 1.394 . S
C183 C184 1.516 . S
C184 C183 1.516 . S
C184 C185 1.502 . S
C184 C186 1.561 . S
C184 C187 1.526 . S
C185 H169 0.959 . S
C185 H170 0.959 . S
C185 H171 0.961 . S
C185 C184 1.502 . S
C186 H172 0.960 . S
C186 H173 0.961 . S
C186 H174 0.959 . S
C186 C184 1.561 . S
C187 C184 1.526 . S
C187 C188 1.396 . S
C187 C192 1.390 . S
C188 C182 1.465 . S
C188 C187 1.396 . S
C188 C189 1.399 . S
C189 H175 0.929 . S
C189 C188 1.399 . S
C189 C190 1.385 . S
C190 H176 0.931 . S
C190 C189 1.385 . S
C190 C191 1.389 . S
C191 C190 1.389 . S
C191 C192 1.387 . S
C192 H177 0.930 . S
C192 C187 1.390 . S
C192 C191 1.387 . S
H193 C205 0.930 . S
H194 C207 0.930 . S
H195 C208 0.930 . S
H196 C212 0.959 . S
H197 C212 0.959 . S
H198 C212 0.961 . S
H199 C213 0.960 . S
H200 C213 0.961 . S
H201 C213 0.959 . S
H202 C216 0.929 . S
H203 C217 0.931 . S
H204 C219 0.930 . S
C205 H193 0.930 . S
C205 C206 1.399 . S
C205 C210 1.399 . S
C206 C205 1.399 . S
C206 C207 1.376 1_554 S
C207 H194 0.930 . S
C207 C206 1.376 1_556 S
C207 C208 1.388 . S
C208 H195 0.930 . S
C208 C207 1.388 . S
C208 C209 1.390 1_556 S
C209 C208 1.390 1_554 S
C209 C210 1.394 . S
C209 C215 1.465 . S
C210 C205 1.399 . S
C210 C209 1.394 . S
C210 C211 1.516 . S
C211 C210 1.516 . S
C211 C212 1.502 . S
C211 C213 1.561 . S
C211 C214 1.526 . S
C212 H196 0.959 . S
C212 H197 0.959 . S
C212 H198 0.961 . S
C212 C211 1.502 . S
C213 H199 0.960 . S
C213 H200 0.961 . S
C213 H201 0.959 . S
C213 C211 1.561 . S
C214 C211 1.526 . S
C214 C215 1.396 . S
C214 C219 1.390 . S
C215 C209 1.465 . S
C215 C214 1.396 . S
C215 C216 1.399 1_554 S
C216 H202 0.929 . S
C216 C215 1.399 1_556 S
C216 C217 1.385 . S
C217 H203 0.931 . S
C217 C216 1.385 . S
C217 C218 1.389 1_556 S
C218 C217 1.389 1_554 S
C218 C219 1.387 . S
C219 H204 0.930 . S
C219 C214 1.390 . S
C219 C218 1.387 . S
H220 C232 0.930 . S
H221 C234 0.930 . S
H222 C235 0.930 . S
H223 C239 0.959 . S
H224 C239 0.959 . S
H225 C239 0.961 . S
H226 C240 0.960 . S
H227 C240 0.961 . S
H228 C240 0.959 . S
H229 C243 0.929 . S
H230 C244 0.963 . S
H231 C246 0.930 . S
C232 H220 0.930 . S
C232 C233 1.399 . S
C232 C237 1.399 . S
C233 C232 1.399 . S
C233 C234 1.376 . S
C234 H221 0.930 . S
C234 C233 1.376 . S
C234 C235 1.388 . S
C235 H222 0.930 . S
C235 C234 1.388 . S
C235 C236 1.390 . S
C236 C235 1.390 . S
C236 C237 1.394 . S
C236 C242 1.465 . S
C237 C232 1.399 . S
C237 C236 1.394 . S
C237 C238 1.516 . S
C238 C237 1.516 . S
C238 C239 1.502 . S
C238 C240 1.561 . S
C238 C241 1.526 . S
C239 H223 0.959 . S
C239 H224 0.959 . S
C239 H225 0.961 . S
C239 C238 1.502 . S
C240 H226 0.960 . S
C240 H227 0.961 . S
C240 H228 0.959 . S
C240 C238 1.561 . S
C241 C238 1.526 . S
C241 C242 1.396 . S
C241 C246 1.390 . S
C242 C236 1.465 . S
C242 C241 1.396 . S
C242 C243 1.399 . S
C243 H229 0.929 . S
C243 C242 1.399 . S
C243 C244 1.385 . S
C244 H230 0.963 . S
C244 C243 1.385 . S
C244 C245 1.389 . S
C245 C244 1.389 . S
C245 C246 1.387 . S
C246 H231 0.930 . S
C246 C241 1.390 . S
C246 C245 1.387 . S
H247 C259 0.930 . S
H248 C261 0.930 . S
H249 C262 0.930 . S
H250 C266 0.959 . S
H251 C266 0.959 . S
H252 C266 0.961 . S
H253 C267 0.960 . S
H254 C267 0.961 . S
H255 C267 0.959 . S
H256 C270 0.929 . S
H257 C271 0.931 . S
H258 C273 0.930 . S
C259 H247 0.930 . S
C259 C260 1.399 . S
C259 C264 1.399 . S
C260 C259 1.399 . S
C260 C261 1.376 . S
C261 H248 0.930 . S
C261 C260 1.376 . S
C261 C262 1.388 . S
C262 H249 0.930 . S
C262 C261 1.388 . S
C262 C263 1.390 . S
C263 C262 1.390 . S
C263 C264 1.394 . S
C263 C269 1.465 . S
C264 C259 1.399 . S
C264 C263 1.394 . S
C264 C265 1.516 . S
C265 C264 1.516 . S
C265 C266 1.502 . S
C265 C267 1.561 . S
C265 C268 1.526 . S
C266 H250 0.959 . S
C266 H251 0.959 . S
C266 H252 0.961 . S
C266 C265 1.502 . S
C267 H253 0.960 . S
C267 H254 0.961 . S
C267 H255 0.959 . S
C267 C265 1.561 . S
C268 C265 1.526 . S
C268 C269 1.396 . S
C268 C273 1.390 . S
C269 C263 1.465 . S
C269 C268 1.396 . S
C269 C270 1.399 . S
C270 H256 0.929 . S
C270 C269 1.399 . S
C270 C271 1.385 . S
C271 H257 0.931 . S
C271 C270 1.385 . S
C271 C272 1.389 . S
C272 C271 1.389 . S
C272 C273 1.387 . S
C273 H258 0.930 . S
C273 C268 1.390 . S
C273 C272 1.387 . S
H274 C286 0.930 . S
H275 C288 0.930 . S
H276 C289 0.930 . S
H277 C293 0.959 . S
H278 C293 0.959 . S
H279 C293 0.961 . S
H280 C294 0.960 . S
H281 C294 0.961 . S
H282 C294 0.959 . S
H283 C297 0.929 . S
H284 C298 0.931 . S
H285 C300 0.930 . S
C286 H274 0.930 . S
C286 C287 1.399 . S
C286 C291 1.399 . S
C287 C286 1.399 . S
C287 C288 1.376 . S
C288 H275 0.930 . S
C288 C287 1.376 . S
C288 C289 1.388 . S
C289 H276 0.930 . S
C289 C288 1.388 . S
C289 C290 1.390 . S
C290 C289 1.390 . S
C290 C291 1.394 . S
C290 C296 1.465 . S
C291 C286 1.399 . S
C291 C290 1.394 . S
C291 C292 1.516 . S
C292 C291 1.516 . S
C292 C293 1.502 . S
C292 C294 1.561 . S
C292 C295 1.526 . S
C293 H277 0.959 . S
C293 H278 0.959 . S
C293 H279 0.961 . S
C293 C292 1.502 . S
C294 H280 0.960 . S
C294 H281 0.961 . S
C294 H282 0.959 . S
C294 C292 1.561 . S
C295 C292 1.526 . S
C295 C296 1.396 . S
C295 C300 1.390 . S
C296 C290 1.465 . S
C296 C295 1.396 . S
C296 C297 1.399 . S
C297 H283 0.929 . S
C297 C296 1.399 . S
C297 C298 1.385 . S
C298 H284 0.931 . S
C298 C297 1.385 . S
C298 C299 1.389 . S
C299 C298 1.389 . S
C299 C300 1.387 . S
C300 H285 0.930 . S
C300 C295 1.390 . S
C300 C299 1.387 . S
H301 C313 0.930 . S
H302 C315 0.930 . S
H303 C316 0.930 . S
H304 C320 0.959 . S
H305 C320 0.959 . S
H306 C320 0.961 . S
H307 C321 0.960 . S
H308 C321 0.961 . S
H309 C321 0.959 . S
H310 C324 0.929 . S
H311 C325 0.931 . S
H312 C327 0.930 . S
C313 H301 0.930 . S
C313 C314 1.399 . S
C313 C318 1.399 . S
C314 C313 1.399 . S
C314 C315 1.376 . S
C315 H302 0.930 . S
C315 C314 1.376 . S
C315 C316 1.388 . S
C316 H303 0.930 . S
C316 C315 1.388 . S
C316 C317 1.390 . S
C317 C316 1.390 . S
C317 C318 1.394 . S
C317 C323 1.465 . S
C318 C313 1.399 . S
C318 C317 1.394 . S
C318 C319 1.516 . S
C319 C318 1.516 . S
C319 C320 1.502 . S
C319 C321 1.561 . S
C319 C322 1.526 . S
C320 H304 0.959 . S
C320 H305 0.959 . S
C320 H306 0.961 . S
C320 C319 1.502 . S
C321 H307 0.960 . S
C321 H308 0.961 . S
C321 H309 0.959 . S
C321 C319 1.561 . S
C322 C319 1.526 . S
C322 C323 1.396 . S
C322 C327 1.390 . S
C323 C317 1.465 . S
C323 C322 1.396 . S
C323 C324 1.399 . S
C324 H310 0.929 . S
C324 C323 1.399 . S
C324 C325 1.385 . S
C325 H311 0.931 . S
C325 C324 1.385 . S
C325 C326 1.389 . S
C326 C325 1.389 . S
C326 C327 1.387 . S
C327 H312 0.930 . S
C327 C322 1.390 . S
C327 C326 1.387 . S
H328 C340 0.930 . S
H329 C342 0.930 . S
H330 C343 0.930 . S
H331 C347 0.959 . S
H332 C347 0.959 . S
H333 C347 0.961 . S
H334 C348 0.960 . S
H335 C348 0.961 . S
H336 C348 0.959 . S
H337 C351 0.929 . S
H338 C352 0.931 . S
H339 C354 0.930 . S
C340 H328 0.930 . S
C340 C341 1.399 . S
C340 C345 1.399 . S
C341 C340 1.399 . S
C341 C342 1.376 . S
C342 H329 0.930 . S
C342 C341 1.376 . S
C342 C343 1.388 . S
C343 H330 0.930 . S
C343 C342 1.388 . S
C343 C344 1.390 . S
C344 C343 1.390 . S
C344 C345 1.394 . S
C344 C350 1.465 . S
C345 C340 1.399 . S
C345 C344 1.394 . S
C345 C346 1.516 . S
C346 C345 1.516 . S
C346 C347 1.502 . S
C346 C348 1.561 . S
C346 C349 1.526 . S
C347 H331 0.959 . S
C347 H332 0.959 . S
C347 H333 0.961 . S
C347 C346 1.502 . S
C348 H334 0.960 . S
C348 H335 0.961 . S
C348 H336 0.959 . S
C348 C346 1.561 . S
C349 C346 1.526 . S
C349 C350 1.396 . S
C349 C354 1.390 . S
C350 C344 1.465 . S
C350 C349 1.396 . S
C350 C351 1.399 . S
C351 H337 0.929 . S
C351 C350 1.399 . S
C351 C352 1.385 . S
C352 H338 0.931 . S
C352 C351 1.385 . S
C352 C353 1.389 . S
C353 C352 1.389 . S
C353 C354 1.387 . S
C354 H339 0.930 . S
C354 C349 1.390 . S
C354 C353 1.387 . S
H355 C367 0.930 . S
H356 C369 0.930 . S
H357 C370 0.930 . S
H358 C374 0.959 . S
H359 C374 0.959 . S
H360 C374 0.961 . S
H361 C375 0.960 . S
H362 C375 0.961 . S
H363 C375 0.959 . S
H364 C378 0.929 . S
H365 C379 0.931 1_455 S
H366 C381 0.930 . S
C367 H355 0.930 . S
C367 C368 1.399 . S
C367 C372 1.399 . S
C368 C367 1.399 . S
C368 C369 1.376 . S
C369 H356 0.930 . S
C369 C368 1.376 . S
C369 C370 1.388 . S
C370 H357 0.930 . S
C370 C369 1.388 . S
C370 C371 1.390 . S
C371 C370 1.390 . S
C371 C372 1.394 . S
C371 C377 1.465 . S
C372 C367 1.399 . S
C372 C371 1.394 . S
C372 C373 1.516 . S
C373 C372 1.516 . S
C373 C374 1.502 . S
C373 C375 1.561 . S
C373 C376 1.526 . S
C374 H358 0.959 . S
C374 H359 0.959 . S
C374 H360 0.961 . S
C374 C373 1.502 . S
C375 H361 0.960 . S
C375 H362 0.961 . S
C375 H363 0.959 . S
C375 C373 1.561 . S
C376 C373 1.526 . S
C376 C377 1.396 . S
C376 C381 1.390 . S
C377 C371 1.465 . S
C377 C376 1.396 . S
C377 C378 1.399 . S
C378 H364 0.929 . S
C378 C377 1.399 . S
C378 C379 1.385 . S
C379 H365 0.931 1_655 S
C379 C378 1.385 . S
C379 C380 1.389 . S
C380 C379 1.389 . S
C380 C381 1.387 . S
C381 H366 0.930 . S
C381 C376 1.390 . S
C381 C380 1.387 . S
H382 C394 0.930 . S
H383 C396 0.930 . S
H384 C397 0.930 . S
H385 C401 0.959 . S
H386 C401 0.959 . S
H387 C401 0.961 . S
H388 C402 0.960 . S
H389 C402 0.961 . S
H390 C402 0.959 . S
H391 C405 0.929 . S
H392 C406 0.931 . S
H393 C408 0.930 . S
C394 H382 0.930 . S
C394 C395 1.399 . S
C394 C399 1.399 . S
C395 C394 1.399 . S
C395 C396 1.376 . S
C396 H383 0.930 . S
C396 C395 1.376 . S
C396 C397 1.388 . S
C397 H384 0.930 . S
C397 C396 1.388 . S
C397 C398 1.390 . S
C398 C397 1.390 . S
C398 C399 1.394 . S
C398 C404 1.465 . S
C399 C394 1.399 . S
C399 C398 1.394 . S
C399 C400 1.516 . S
C400 C399 1.516 . S
C400 C401 1.502 . S
C400 C402 1.561 . S
C400 C403 1.526 . S
C401 H385 0.959 . S
C401 H386 0.959 . S
C401 H387 0.961 . S
C401 C400 1.502 . S
C402 H388 0.960 . S
C402 H389 0.961 . S
C402 H390 0.959 . S
C402 C400 1.561 . S
C403 C400 1.526 . S
C403 C404 1.396 . S
C403 C408 1.390 . S
C404 C398 1.465 . S
C404 C403 1.396 . S
C404 C405 1.399 . S
C405 H391 0.929 . S
C405 C404 1.399 . S
C405 C406 1.385 . S
C406 H392 0.931 . S
C406 C405 1.385 . S
C406 C407 1.389 . S
C407 C406 1.389 . S
C407 C408 1.387 . S
C408 H393 0.930 . S
C408 C403 1.390 . S
C408 C407 1.387 . S
H409 C421 0.930 . S
H410 C423 0.930 . S
H411 C424 0.930 . S
H412 C428 0.959 . S
H413 C428 0.959 . S
H414 C428 0.961 . S
H415 C429 0.960 . S
H416 C429 0.961 . S
H417 C429 0.959 . S
H418 C432 0.929 . S
H419 C433 0.931 . S
H420 C435 0.930 . S
C421 H409 0.930 . S
C421 C422 1.399 . S
C421 C426 1.399 . S
C422 C421 1.399 . S
C422 C423 1.376 . S
C423 H410 0.930 . S
C423 C422 1.376 . S
C423 C424 1.388 . S
C424 H411 0.930 . S
C424 C423 1.388 . S
C424 C425 1.390 . S
C425 C424 1.390 . S
C425 C426 1.394 . S
C425 C431 1.465 . S
C426 C421 1.399 . S
C426 C425 1.394 . S
C426 C427 1.516 . S
C427 C426 1.516 . S
C427 C428 1.502 . S
C427 C429 1.561 . S
C427 C430 1.526 . S
C428 H412 0.959 . S
C428 H413 0.959 . S
C428 H414 0.961 . S
C428 C427 1.502 . S
C429 H415 0.960 . S
C429 H416 0.961 . S
C429 H417 0.959 . S
C429 C427 1.561 . S
C430 C427 1.526 . S
C430 C431 1.396 . S
C430 C435 1.390 . S
C431 C425 1.465 . S
C431 C430 1.396 . S
C431 C432 1.399 . S
C432 H418 0.929 . S
C432 C431 1.399 . S
C432 C433 1.385 . S
C433 H419 0.931 . S
C433 C432 1.385 . S
C433 C434 1.389 . S
C434 C433 1.389 . S
C434 C435 1.387 . S
C435 H420 0.930 . S
C435 C430 1.390 . S
C435 C434 1.387 . S
C137 C48 1.516 . S
C125 C41 1.519 . S
C152 C8 1.490 . S
C164 C91 1.508 . S
C179 C19 1.492 . S
C191 C57 1.524 . S
C206 C30 1.494 . S
C218 C82 1.512 . S
C245 C44 1.566 . S
C233 C5 1.374 . S
C272 C86 1.636 . S
C260 C18 1.573 . S
C287 C29 1.552 . S
C299 C52 1.573 . S
C314 C40 1.584 . S
C326 C78 1.644 . S
C353 C107 1.389 . S
C341 C16 1.247 . S
C380 C73 1.405 . S
C368 C27 1.178 . S
C407 C95 1.385 . S
C395 C38 1.235 . S
C422 C7 1.389 . S
C434 C61 1.395 . S
