# Generated by pormake.
# Topology ssa, (4,4)-cn, num edge types: 1
# Building blocks:
#     Node 0, Type 0, BuildingBlock: NAWXER_clean_sbu_0, # of connection points: 4
#     Node 1, Type 0, BuildingBlock: NAWXER_clean_sbu_0, # of connection points: 4
#     Node 2, Type 0, BuildingBlock: NAWXER_clean_sbu_0, # of connection points: 4
#     Node 3, Type 0, BuildingBlock: NAWXER_clean_sbu_0, # of connection points: 4
#     Node 4, Type 0, BuildingBlock: NAWXER_clean_sbu_0, # of connection points: 4
#     Node 5, Type 0, BuildingBlock: NAWXER_clean_sbu_0, # of connection points: 4
#     Node 6, Type 1, BuildingBlock: NAWXER_clean_sbu_0, # of connection points: 4
#     Node 7, Type 1, BuildingBlock: NAWXER_clean_sbu_0, # of connection points: 4
#     Node 8, Type 1, BuildingBlock: NAWXER_clean_sbu_0, # of connection points: 4
#     Node 9, Type 1, BuildingBlock: NAWXER_clean_sbu_0, # of connection points: 4
#     Node 10, Type 1, BuildingBlock: NAWXER_clean_sbu_0, # of connection points: 4
#     Node 11, Type 1, BuildingBlock: NAWXER_clean_sbu_0, # of connection points: 4
#     Edge 12, Type (0, 1), BuildingBlock: MIFKUJ_clean_linker_0, # of connection points: 2
#     Edge 13, Type (0, 1), BuildingBlock: MIFKUJ_clean_linker_0, # of connection points: 2
#     Edge 14, Type (0, 1), BuildingBlock: MIFKUJ_clean_linker_0, # of connection points: 2
#     Edge 15, Type (0, 1), BuildingBlock: MIFKUJ_clean_linker_0, # of connection points: 2
#     Edge 16, Type (0, 1), BuildingBlock: MIFKUJ_clean_linker_0, # of connection points: 2
#     Edge 17, Type (0, 1), BuildingBlock: MIFKUJ_clean_linker_0, # of connection points: 2
#     Edge 18, Type (0, 1), BuildingBlock: MIFKUJ_clean_linker_0, # of connection points: 2
#     Edge 19, Type (0, 1), BuildingBlock: MIFKUJ_clean_linker_0, # of connection points: 2
#     Edge 20, Type (0, 1), BuildingBlock: MIFKUJ_clean_linker_0, # of connection points: 2
#     Edge 21, Type (0, 1), BuildingBlock: MIFKUJ_clean_linker_0, # of connection points: 2
#     Edge 22, Type (0, 1), BuildingBlock: MIFKUJ_clean_linker_0, # of connection points: 2
#     Edge 23, Type (0, 1), BuildingBlock: MIFKUJ_clean_linker_0, # of connection points: 2
#     Edge 24, Type (0, 1), BuildingBlock: MIFKUJ_clean_linker_0, # of connection points: 2
#     Edge 25, Type (0, 1), BuildingBlock: MIFKUJ_clean_linker_0, # of connection points: 2
#     Edge 26, Type (0, 1), BuildingBlock: MIFKUJ_clean_linker_0, # of connection points: 2
#     Edge 27, Type (0, 1), BuildingBlock: MIFKUJ_clean_linker_0, # of connection points: 2
#     Edge 28, Type (0, 1), BuildingBlock: MIFKUJ_clean_linker_0, # of connection points: 2
#     Edge 29, Type (0, 1), BuildingBlock: MIFKUJ_clean_linker_0, # of connection points: 2
#     Edge 30, Type (0, 1), BuildingBlock: MIFKUJ_clean_linker_0, # of connection points: 2
#     Edge 31, Type (0, 1), BuildingBlock: MIFKUJ_clean_linker_0, # of connection points: 2
#     Edge 32, Type (0, 1), BuildingBlock: MIFKUJ_clean_linker_0, # of connection points: 2
#     Edge 33, Type (0, 1), BuildingBlock: MIFKUJ_clean_linker_0, # of connection points: 2
#     Edge 34, Type (0, 1), BuildingBlock: MIFKUJ_clean_linker_0, # of connection points: 2
#     Edge 35, Type (0, 1), BuildingBlock: MIFKUJ_clean_linker_0, # of connection points: 2
# Relax obj value: 0.024
# Max RMSD: 0.040
# Mean RMSD: 0.033
data_MOF--net-ssa--node1-NAWXER_clean_sbu_0--node2-NAWXER_clean_sbu_0--edge1-MIFKUJ_clean_linker_0
_symmetry_space_group_name_H-M    P1
_symmetry_Int_Tables_number       1
_symmetry_cell_setting            triclinic
loop_
_symmetry_equiv_pos_as_xyz
'x, y, z'
_cell_length_a     57.548984
_cell_length_b     57.540406
_cell_length_c     47.822252
_cell_angle_alpha  89.857302
_cell_angle_beta   90.226425
_cell_angle_gamma 120.04029
loop_
_atom_site_label
_atom_site_type_symbol
_atom_site_fract_x
_atom_site_fract_y
_atom_site_fract_z
_atom_type_partial_charge
C0 C 0.0395 0.56143 0.01812 0.0
C1 C 0.99186 0.48371 0.95717 0.0
O2 O 0.0168 0.54372 0.02818 0.0
Zn3 Zn 0.98435 0.50472 0.01682 0.0
O4 O 0.04723 0.5573 0.99474 0.0
Zn5 Zn 0.01628 0.52265 0.98743 0.0
O6 O 0.98472 0.5317 0.98131 0.0
O7 O 0.95396 0.51037 0.01366 0.0
O8 O 0.0144 0.50462 0.95265 0.0
O9 O 0.97934 0.48148 0.98002 0.0
O10 O 0.98508 0.48197 0.04637 0.0
O11 O 0.02039 0.49807 0.01873 0.0
C12 C 0.9621 0.52562 0.99234 0.0
C13 C 0.00738 0.48386 0.03994 0.0
C14 C 0.51847 0.06651 0.4914 0.0
C15 C 0.53964 0.00348 0.44571 0.0
O16 O 0.5076 0.04341 0.50321 0.0
Zn17 Zn 0.5064 0.00576 0.49841 0.0
O18 O 0.53297 0.07099 0.46981 0.0
Zn19 Zn 0.52919 0.03557 0.46801 0.0
O20 O 0.48722 0.01008 0.45814 0.0
O21 O 0.46874 0.98134 0.49295 0.0
O22 O 0.5475 0.02765 0.43884 0.0
O23 O 0.52451 0.99339 0.46716 0.0
O24 O 0.52298 0.00384 0.53298 0.0
O25 O 0.55058 0.03668 0.50516 0.0
C26 C 0.46649 0.99034 0.46941 0.0
C27 C 0.54607 0.02397 0.52837 0.0
C28 C 0.4836 0.46619 0.96689 0.0
C29 C 0.52868 0.5465 0.02469 0.0
O30 O 0.48965 0.49002 0.9606 0.0
Zn31 Zn 0.50576 0.50655 0.99596 0.0
O32 O 0.48905 0.46119 0.99144 0.0
Zn33 Zn 0.50771 0.48297 0.02908 0.0
O34 O 0.4792 0.46713 0.0563 0.0
O35 O 0.47298 0.4914 0.02458 0.0
O36 O 0.52565 0.52556 0.0376 0.0
O37 O 0.52003 0.54445 0.99981 0.0
O38 O 0.54122 0.50318 0.99733 0.0
O39 O 0.53775 0.47678 0.03268 0.0
C40 C 0.46527 0.47689 0.04671 0.0
C41 C 0.55089 0.49132 0.01204 0.0
C42 C 0.04072 0.5374 0.49711 0.0
C43 C 0.98559 0.44926 0.53955 0.0
O44 O 0.04633 0.52727 0.51788 0.0
Zn45 Zn 0.01255 0.49375 0.51942 0.0
O46 O 0.01727 0.52453 0.48605 0.0
Zn47 Zn 0.98115 0.48644 0.49149 0.0
O48 O 0.95457 0.49567 0.50126 0.0
O49 O 0.98365 0.50388 0.53529 0.0
O50 O 0.97303 0.45398 0.5201 0.0
O51 O 0.00954 0.46697 0.54561 0.0
O52 O 0.01281 0.476 0.47995 0.0
O53 O 0.97797 0.47062 0.45517 0.0
C54 C 0.96244 0.50343 0.52609 0.0
C55 C 0.99883 0.46851 0.45737 0.0
C56 C 0.49697 0.95288 0.00236 0.0
C57 C 0.47292 0.01597 0.96291 0.0
O58 O 0.50804 0.97537 0.01545 0.0
Zn59 Zn 0.50819 0.01293 0.01346 0.0
O60 O 0.4819 0.9494 0.98143 0.0
Zn61 Zn 0.48495 0.98427 0.98286 0.0
O62 O 0.52666 0.01114 0.97184 0.0
O63 O 0.54529 0.03852 0.00769 0.0
O64 O 0.46502 0.99195 0.95564 0.0
O65 O 0.48881 0.02604 0.98392 0.0
O66 O 0.4931 0.01317 0.04939 0.0
O67 O 0.46456 0.98083 0.0216 0.0
C68 C 0.54728 0.0309 0.98337 0.0
C69 C 0.47008 0.99277 0.04534 0.0
C70 C 0.51544 0.51717 0.54595 0.0
C71 C 0.43562 0.48948 0.48769 0.0
O72 O 0.49648 0.52199 0.55027 0.0
Zn73 Zn 0.47544 0.50454 0.51686 0.0
O74 O 0.51544 0.50504 0.52351 0.0
Zn75 Zn 0.49104 0.48822 0.48716 0.0
O76 O 0.51272 0.51043 0.45637 0.0
O77 O 0.49787 0.53091 0.48373 0.0
O78 O 0.45226 0.48315 0.47746 0.0
O79 O 0.44104 0.50238 0.51063 0.0
O80 O 0.46371 0.46294 0.52261 0.0
O81 O 0.48293 0.45153 0.48957 0.0
C82 C 0.51072 0.53095 0.46191 0.0
C83 C 0.46784 0.44527 0.51091 0.0
C84 C 0.23186 0.44327 0.28697 0.0
C85 C 0.17061 0.42578 0.20839 0.0
O86 O 0.21353 0.42043 0.27837 0.0
Zn87 Zn 0.20149 0.43338 0.24735 0.0
O88 O 0.23625 0.46463 0.27397 0.0
Zn89 Zn 0.22093 0.47543 0.23808 0.0
O90 O 0.20795 0.4977 0.2542 0.0
O91 O 0.18604 0.45541 0.26837 0.0
O92 O 0.18838 0.45057 0.21116 0.0
O93 O 0.17053 0.40846 0.225 0.0
O94 O 0.23506 0.44776 0.21979 0.0
O95 O 0.25119 0.49115 0.21298 0.0
C96 C 0.18978 0.47929 0.26911 0.0
C97 C 0.25233 0.46998 0.20846 0.0
C98 C 0.82296 0.23498 0.72141 0.0
C99 C 0.76701 0.18978 0.80261 0.0
O100 O 0.80461 0.24091 0.72583 0.0
Zn101 Zn 0.77371 0.23247 0.75517 0.0
O102 O 0.82545 0.21893 0.73781 0.0
Zn103 Zn 0.79555 0.21189 0.76231 0.0
O104 O 0.76091 0.1914 0.73584 0.0
O105 O 0.74189 0.21638 0.73195 0.0
O106 O 0.78566 0.18645 0.79281 0.0
O107 O 0.76121 0.20627 0.79079 0.0
O108 O 0.78618 0.26763 0.7712 0.0
O109 O 0.81081 0.24962 0.78346 0.0
C110 C 0.74214 0.19496 0.72608 0.0
C111 C 0.80583 0.26895 0.78479 0.0
C112 C 0.56867 0.81609 0.27564 0.0
C113 C 0.57157 0.76019 0.20093 0.0
O114 O 0.58909 0.81819 0.26321 0.0
Zn115 Zn 0.57054 0.78751 0.23868 0.0
O116 O 0.54527 0.7967 0.26936 0.0
Zn117 Zn 0.5282 0.76354 0.2409 0.0
O118 O 0.5118 0.73256 0.26502 0.0
O119 O 0.55607 0.75268 0.26501 0.0
O120 O 0.54763 0.75228 0.20948 0.0
O121 O 0.59144 0.78024 0.21239 0.0
O122 O 0.54823 0.79911 0.21126 0.0
O123 O 0.50504 0.77088 0.21798 0.0
C124 C 0.53326 0.73343 0.27307 0.0
C125 C 0.52357 0.79108 0.20533 0.0
C126 C 0.79457 0.55337 0.79236 0.0
C127 C 0.73012 0.5495 0.72267 0.0
O128 O 0.77765 0.52959 0.7842 0.0
Zn129 Zn 0.74561 0.50994 0.75486 0.0
O130 O 0.79495 0.57349 0.78076 0.0
Zn131 Zn 0.76433 0.55273 0.75589 0.0
O132 O 0.73288 0.53107 0.78581 0.0
O133 O 0.71707 0.48754 0.78024 0.0
O134 O 0.7494 0.57048 0.73358 0.0
O135 O 0.72709 0.52643 0.7288 0.0
O136 O 0.75868 0.49329 0.72937 0.0
O137 O 0.78065 0.53744 0.72573 0.0
C138 C 0.71684 0.50671 0.79318 0.0
C139 C 0.77692 0.51452 0.7179 0.0
C140 C 0.28396 0.79925 0.23552 0.0
C141 C 0.22119 0.73343 0.30227 0.0
O142 O 0.26299 0.80123 0.23951 0.0
Zn143 Zn 0.22728 0.78256 0.26458 0.0
O144 O 0.28665 0.78139 0.24844 0.0
Zn145 Zn 0.25278 0.76562 0.26835 0.0
O146 O 0.22327 0.74906 0.23545 0.0
O147 O 0.19906 0.7691 0.23692 0.0
O148 O 0.24301 0.73561 0.29347 0.0
O149 O 0.2135 0.74942 0.29297 0.0
O150 O 0.23262 0.81197 0.28887 0.0
O151 O 0.26062 0.797 0.29697 0.0
C152 C 0.20407 0.75204 0.2258 0.0
C153 C 0.25199 0.81305 0.30284 0.0
C154 C 0.4725 0.27289 0.77236 0.0
C155 C 0.48538 0.21813 0.70328 0.0
O156 O 0.49446 0.27617 0.76263 0.0
Zn157 Zn 0.47949 0.24478 0.73901 0.0
O158 O 0.4503 0.25238 0.76479 0.0
Zn159 Zn 0.43728 0.21854 0.73742 0.0
O160 O 0.42061 0.18783 0.76204 0.0
O161 O 0.46443 0.21208 0.76811 0.0
O162 O 0.46061 0.20876 0.70965 0.0
O163 O 0.50341 0.23884 0.71581 0.0
O164 O 0.45832 0.25382 0.70774 0.0
O165 O 0.41496 0.22446 0.71131 0.0
C166 C 0.44172 0.1918 0.77473 0.0
C167 C 0.43411 0.24471 0.69933 0.0
H168 H 0.98463 0.44911 0.08428 0.0
H169 H 0.00494 0.4282 0.11247 0.0
H170 H 0.07681 0.46821 0.06257 0.0
H171 H 0.05659 0.48852 0.03413 0.0
H172 H 0.06471 0.41842 0.07163 0.0
H173 H 0.07092 0.49115 0.12859 0.0
H174 H 0.05348 0.51596 0.15499 0.0
H175 H 0.00658 0.44669 0.2063 0.0
H176 H 0.02351 0.42136 0.18004 0.0
H177 H 0.17567 0.44675 0.15666 0.0
H178 H 0.13975 0.44382 0.12689 0.0
H179 H 0.08076 0.38792 0.18468 0.0
H180 H 0.11693 0.39042 0.21444 0.0
H181 H 0.07701 0.43425 0.17388 0.0
H182 H 0.07992 0.36564 0.12192 0.0
H183 H 0.10093 0.34355 0.09682 0.0
H184 H 0.13373 0.40749 0.03658 0.0
H185 H 0.11326 0.43019 0.06153 0.0
C186 C 0.00472 0.45333 0.07927 0.0
C187 C 0.01898 0.47052 0.05695 0.0
C188 C 0.01633 0.44143 0.09546 0.0
C189 C 0.04251 0.44675 0.08978 0.0
C190 C 0.05656 0.46365 0.06731 0.0
C191 C 0.04496 0.47535 0.05108 0.0
C192 C 0.05585 0.43541 0.10733 0.0
C193 C 0.06742 0.42191 0.094 0.0
C194 C 0.05867 0.43913 0.13668 0.0
C195 C 0.04815 0.45423 0.15208 0.0
C196 C 0.05665 0.48112 0.1453 0.0
C197 C 0.04692 0.49529 0.16027 0.0
C198 C 0.02883 0.48286 0.18218 0.0
C199 C 0.0205 0.45625 0.18924 0.0
C200 C 0.03016 0.44198 0.17433 0.0
C201 C 0.15502 0.43313 0.16253 0.0
C202 C 0.14902 0.41871 0.18772 0.0
C203 C 0.13451 0.43146 0.14552 0.0
C204 C 0.10758 0.41563 0.15356 0.0
C205 C 0.10142 0.40014 0.17806 0.0
C206 C 0.12204 0.4014 0.19489 0.0
C207 C 0.08663 0.41818 0.13799 0.0
C208 C 0.07367 0.43009 0.15166 0.0
C209 C 0.08282 0.41331 0.10892 0.0
C210 C 0.09512 0.39969 0.0937 0.0
C211 C 0.09176 0.3751 0.10343 0.0
C212 C 0.10356 0.36245 0.08921 0.0
C213 C 0.11868 0.37412 0.06514 0.0
C214 C 0.122 0.39846 0.05522 0.0
C215 C 0.11026 0.41121 0.06937 0.0
H216 H 0.1278 0.36429 0.05416 0.0
H217 H 0.02136 0.49389 0.19377 0.0
H218 H 0.59686 0.0663 0.52399 0.0
H219 H 0.62917 0.08874 0.5613 0.0
H220 H 0.5755 0.02935 0.62026 0.0
H221 H 0.54241 0.00697 0.58283 0.0
H222 H 0.59357 0.0776 0.6409 0.0
H223 H 0.63447 0.0321 0.60068 0.0
H224 H 0.65184 0.01555 0.56329 0.0
H225 H 0.71014 0.09659 0.54143 0.0
H226 H 0.69288 0.11367 0.57842 0.0
H227 H 0.73514 0.14557 0.7141 0.0
H228 H 0.70052 0.11058 0.68502 0.0
H229 H 0.66663 0.1613 0.66858 0.0
H230 H 0.70103 0.19638 0.69823 0.0
H231 H 0.69087 0.10964 0.63218 0.0
H232 H 0.59831 0.12201 0.65853 0.0
H233 H 0.57952 0.13326 0.69911 0.0
H234 H 0.6233 0.11053 0.75493 0.0
H235 H 0.64172 0.09831 0.71479 0.0
C236 C 0.59198 0.05767 0.54477 0.0
C237 C 0.56698 0.03483 0.55042 0.0
C238 C 0.6106 0.07051 0.56612 0.0
C239 C 0.6049 0.06063 0.59358 0.0
C240 C 0.58032 0.03731 0.59921 0.0
C241 C 0.56152 0.02445 0.57778 0.0
C242 C 0.62403 0.07591 0.61641 0.0
C243 C 0.61482 0.08446 0.63914 0.0
C244 C 0.65166 0.0843 0.61449 0.0
C245 C 0.66226 0.07416 0.59226 0.0
C246 C 0.65089 0.0464 0.58779 0.0
C247 C 0.66073 0.03692 0.56668 0.0
C248 C 0.68206 0.055 0.54997 0.0
C249 C 0.69362 0.08261 0.55439 0.0
C250 C 0.68384 0.0922 0.57546 0.0
C251 C 0.72029 0.14933 0.7044 0.0
C252 C 0.72089 0.17384 0.70845 0.0
C253 C 0.7005 0.12925 0.68775 0.0
C254 C 0.68085 0.13319 0.67477 0.0
C255 C 0.68133 0.15763 0.67876 0.0
C256 C 0.7011 0.17773 0.69557 0.0
C257 C 0.66056 0.11214 0.65615 0.0
C258 C 0.66958 0.10256 0.63418 0.0
C259 C 0.63269 0.10221 0.65927 0.0
C260 C 0.62167 0.10954 0.68357 0.0
C261 C 0.60388 0.11932 0.67945 0.0
C262 C 0.59328 0.12588 0.70239 0.0
C263 C 0.60037 0.12283 0.72955 0.0
C264 C 0.61793 0.11303 0.73387 0.0
C265 C 0.62845 0.10626 0.71102 0.0
H266 H 0.59216 0.12796 0.74726 0.0
H267 H 0.68965 0.04762 0.53364 0.0
H268 H 0.52005 0.58819 0.01467 0.0
H269 H 0.53603 0.62904 0.04218 0.0
H270 H 0.58107 0.60476 0.0952 0.0
H271 H 0.56376 0.56304 0.06859 0.0
H272 H 0.55778 0.62131 0.12654 0.0
H273 H 0.61144 0.65956 0.04612 0.0
H274 H 0.62236 0.66876 0.99606 0.0
H275 H 0.57191 0.7038 0.98977 0.0
H276 H 0.56037 0.69447 0.03971 0.0
H277 H 0.61225 0.74905 0.19572 0.0
H278 H 0.61426 0.71758 0.16241 0.0
H279 H 0.54186 0.706 0.1226 0.0
H280 H 0.53925 0.73658 0.15626 0.0
H281 H 0.58798 0.71122 0.08539 0.0
H282 H 0.53006 0.6639 0.16612 0.0
H283 H 0.52347 0.65741 0.2171 0.0
H284 H 0.58906 0.64204 0.22272 0.0
H285 H 0.59635 0.64896 0.1718 0.0
C286 C 0.53366 0.59175 0.03195 0.0
C287 C 0.5407 0.57248 0.03948 0.0
C288 C 0.54296 0.61524 0.04761 0.0
C289 C 0.56021 0.62036 0.07057 0.0
C290 C 0.56782 0.60136 0.07762 0.0
C291 C 0.55799 0.57756 0.06236 0.0
C292 C 0.56862 0.64451 0.08834 0.0
C293 C 0.56499 0.64103 0.11743 0.0
C294 C 0.578 0.67042 0.07673 0.0
C295 C 0.58491 0.67615 0.04666 0.0
C296 C 0.60253 0.66907 0.03403 0.0
C297 C 0.60885 0.67433 0.00567 0.0
C298 C 0.5978 0.68682 0.98974 0.0
C299 C 0.58045 0.69412 0.00214 0.0
C300 C 0.57404 0.68889 0.03049 0.0
C301 C 0.59714 0.7402 0.17946 0.0
C302 C 0.57552 0.74502 0.17854 0.0
C303 C 0.59831 0.7223 0.16053 0.0
C304 C 0.57821 0.7096 0.14014 0.0
C305 C 0.5576 0.71577 0.13812 0.0
C306 C 0.55606 0.73308 0.15741 0.0
C307 C 0.57664 0.68757 0.12298 0.0
C308 C 0.5814 0.6915 0.09419 0.0
C309 C 0.56891 0.66225 0.13485 0.0
C310 C 0.56394 0.65724 0.16525 0.0
C311 C 0.54319 0.65933 0.17827 0.0
C312 C 0.53932 0.65556 0.20714 0.0
C313 C 0.55589 0.6494 0.22316 0.0
C314 C 0.57628 0.64687 0.2103 0.0
C315 C 0.58029 0.65071 0.18144 0.0
H316 H 0.55288 0.64653 0.24551 0.0
H317 H 0.60271 0.69086 0.96778 0.0
H318 H 0.96899 0.51276 0.58239 0.0
H319 H 0.93795 0.51597 0.61469 0.0
H320 H 0.88725 0.51057 0.54538 0.0
H321 H 0.91789 0.50677 0.51298 0.0
H322 H 0.91887 0.54863 0.62292 0.0
H323 H 0.82214 0.47207 0.56392 0.0
H324 H 0.80696 0.4329 0.53282 0.0
H325 H 0.86724 0.41776 0.56701 0.0
H326 H 0.88252 0.45659 0.59855 0.0
H327 H 0.80969 0.55385 0.68157 0.0
H328 H 0.84128 0.55284 0.64837 0.0
H329 H 0.81686 0.47171 0.67351 0.0
H330 H 0.78449 0.47228 0.70611 0.0
H331 H 0.82364 0.4757 0.61993 0.0
H332 H 0.87566 0.52664 0.69815 0.0
H333 H 0.89213 0.56225 0.73391 0.0
H334 H 0.92377 0.62245 0.66963 0.0
H335 H 0.90715 0.58717 0.63345 0.0
C336 C 0.95142 0.5126 0.57395 0.0
C337 C 0.94577 0.50923 0.54513 0.0
C338 C 0.9337 0.51447 0.59246 0.0
C339 C 0.91004 0.51302 0.5825 0.0
C340 C 0.90513 0.51118 0.55358 0.0
C341 C 0.92273 0.50915 0.53507 0.0
C342 C 0.88993 0.51216 0.60242 0.0
C343 C 0.89803 0.53275 0.62222 0.0
C344 C 0.86291 0.491 0.60205 0.0
C345 C 0.85365 0.46742 0.58337 0.0
C346 C 0.83209 0.46032 0.56486 0.0
C347 C 0.82347 0.43819 0.54715 0.0
C348 C 0.83619 0.42291 0.54787 0.0
C349 C 0.85748 0.42967 0.56639 0.0
C350 C 0.86614 0.45176 0.58416 0.0
C351 C 0.81092 0.53572 0.67991 0.0
C352 C 0.79472 0.51319 0.69657 0.0
C353 C 0.82909 0.53523 0.66102 0.0
C354 C 0.83185 0.5124 0.65884 0.0
C355 C 0.81514 0.48958 0.67488 0.0
C356 C 0.79667 0.48993 0.69352 0.0
C357 C 0.85242 0.51247 0.64014 0.0
C358 C 0.84443 0.49169 0.62057 0.0
C359 C 0.87974 0.53297 0.64139 0.0
C360 C 0.88994 0.55425 0.66309 0.0
C361 C 0.88597 0.54747 0.69164 0.0
C362 C 0.89535 0.56759 0.71198 0.0
C363 C 0.90893 0.59459 0.70404 0.0
C364 C 0.91322 0.60152 0.67574 0.0
C365 C 0.90384 0.58147 0.65531 0.0
H366 H 0.91617 0.61015 0.71982 0.0
H367 H 0.8295 0.40579 0.53413 0.0
H368 H 0.48144 0.99678 0.10127 0.0
H369 H 0.45158 0.96802 0.13847 0.0
H370 H 0.38627 0.93114 0.07934 0.0
H371 H 0.41602 0.9594 0.04202 0.0
H372 H 0.37295 0.94195 0.13605 0.0
H373 H 0.4226 0.90482 0.08811 0.0
H374 H 0.46628 0.91045 0.07415 0.0
H375 H 0.48879 0.91412 0.16042 0.0
H376 H 0.4456 0.90959 0.17491 0.0
H377 H 0.2766 0.81867 0.18682 0.0
H378 H 0.31057 0.8543 0.15781 0.0
H379 H 0.37264 0.86068 0.21368 0.0
H380 H 0.3385 0.82362 0.24188 0.0
H381 H 0.39215 0.87026 0.16491 0.0
H382 H 0.34727 0.90593 0.21582 0.0
H383 H 0.30925 0.90884 0.23556 0.0
H384 H 0.28329 0.91459 0.15284 0.0
H385 H 0.32092 0.91132 0.13261 0.0
C386 C 0.46053 0.98309 0.09638 0.0
C387 C 0.45106 0.98019 0.06871 0.0
C388 C 0.44356 0.96662 0.11761 0.0
C389 C 0.41685 0.94732 0.11151 0.0
C390 C 0.40684 0.94591 0.08441 0.0
C391 C 0.42386 0.96202 0.06312 0.0
C392 C 0.4 0.92661 0.13229 0.0
C393 C 0.37697 0.92616 0.1423 0.0
C394 C 0.40606 0.90678 0.14134 0.0
C395 C 0.43103 0.9073 0.13258 0.0
C396 C 0.43692 0.90701 0.10411 0.0
C397 C 0.46165 0.91012 0.0961 0.0
C398 C 0.48036 0.91278 0.11638 0.0
C399 C 0.47432 0.9122 0.14473 0.0
C400 C 0.44975 0.90944 0.15285 0.0
C401 C 0.29754 0.82745 0.19268 0.0
C402 C 0.30498 0.81858 0.21662 0.0
C403 C 0.31696 0.84802 0.17626 0.0
C404 C 0.34418 0.86098 0.18407 0.0
C405 C 0.35178 0.85126 0.20734 0.0
C406 C 0.33231 0.83007 0.22341 0.0
C407 C 0.3643 0.88493 0.16816 0.0
C408 C 0.38805 0.88608 0.15903 0.0
C409 C 0.35943 0.90604 0.16074 0.0
C410 C 0.3368 0.90816 0.17272 0.0
C411 C 0.33334 0.90763 0.20186 0.0
C412 C 0.31188 0.90936 0.21313 0.0
C413 C 0.29384 0.91183 0.19546 0.0
C414 C 0.29727 0.91265 0.16649 0.0
C415 C 0.31868 0.91089 0.15512 0.0
H416 H 0.27723 0.91317 0.20422 0.0
H417 H 0.49947 0.91511 0.11013 0.0
H418 H 0.42333 0.42035 0.54343 0.0
H419 H 0.40747 0.37884 0.56998 0.0
H420 H 0.47041 0.36837 0.53436 0.0
H421 H 0.48578 0.40948 0.5069 0.0
H422 H 0.42631 0.32062 0.54256 0.0
H423 H 0.47897 0.40104 0.59538 0.0
H424 H 0.49046 0.44554 0.61366 0.0
H425 H 0.41635 0.41034 0.65921 0.0
H426 H 0.40395 0.36569 0.64034 0.0
H427 H 0.46667 0.26816 0.65513 0.0
H428 H 0.46172 0.29463 0.61804 0.0
H429 H 0.38639 0.27901 0.65335 0.0
H430 H 0.39092 0.25169 0.69039 0.0
H431 H 0.42871 0.33588 0.64492 0.0
H432 H 0.38069 0.25289 0.59504 0.0
H433 H 0.37331 0.20981 0.57636 0.0
H434 H 0.4449 0.25146 0.52707 0.0
H435 H 0.45295 0.29479 0.54577 0.0
C436 C 0.43348 0.40893 0.54088 0.0
C437 C 0.45605 0.41831 0.52349 0.0
C438 C 0.42438 0.38522 0.55603 0.0
C439 C 0.43814 0.37086 0.55463 0.0
C440 C 0.45956 0.3792 0.53581 0.0
C441 C 0.46839 0.40272 0.52023 0.0
C442 C 0.43216 0.34905 0.5749 0.0
C443 C 0.42684 0.32394 0.56493 0.0
C444 C 0.43262 0.35335 0.60413 0.0
C445 C 0.44034 0.38007 0.61611 0.0
C446 C 0.465 0.40281 0.60908 0.0
C447 C 0.47165 0.42807 0.61949 0.0
C448 C 0.45411 0.43078 0.63753 0.0
C449 C 0.42987 0.40821 0.64517 0.0
C450 C 0.42297 0.38293 0.63453 0.0
C451 C 0.44883 0.27001 0.65474 0.0
C452 C 0.42921 0.25804 0.6756 0.0
C453 C 0.44598 0.28499 0.63349 0.0
C454 C 0.42366 0.28862 0.63297 0.0
C455 C 0.40366 0.27621 0.6534 0.0
C456 C 0.40622 0.26064 0.67442 0.0
C457 C 0.42296 0.30755 0.61256 0.0
C458 C 0.42741 0.33232 0.62254 0.0
C459 C 0.42236 0.30312 0.58343 0.0
C460 C 0.4175 0.2771 0.57196 0.0
C461 C 0.39498 0.25287 0.58038 0.0
C462 C 0.39065 0.22839 0.56976 0.0
C463 C 0.40865 0.22789 0.55058 0.0
C464 C 0.43098 0.25188 0.54193 0.0
C465 C 0.4354 0.2764 0.55251 0.0
H466 H 0.40527 0.20893 0.54238 0.0
H467 H 0.45935 0.45034 0.64567 0.0
H468 H 0.51824 0.94933 0.44898 0.0
H469 H 0.52958 0.92099 0.42135 0.0
H470 H 0.58975 0.99068 0.37731 0.0
H471 H 0.57778 0.01927 0.40446 0.0
H472 H 0.56317 0.9521 0.34167 0.0
H473 H 0.60675 0.95738 0.42775 0.0
H474 H 0.61175 0.95582 0.47883 0.0
H475 H 0.55129 0.87238 0.47959 0.0
H476 H 0.54563 0.87351 0.42855 0.0
H477 H 0.60916 0.86836 0.27977 0.0
H478 H 0.61051 0.90339 0.31012 0.0
H479 H 0.53562 0.84515 0.3476 0.0
H480 H 0.53382 0.81024 0.31703 0.0
H481 H 0.57739 0.88227 0.38644 0.0
H482 H 0.53119 0.88051 0.30021 0.0
H483 H 0.52803 0.88296 0.24894 0.0
H484 H 0.59745 0.96196 0.249 0.0
H485 H 0.60124 0.95979 0.30027 0.0
C486 C 0.534 0.95873 0.43354 0.0
C487 C 0.5472 0.98662 0.42904 0.0
C488 C 0.5406 0.94247 0.41783 0.0
C489 C 0.56095 0.9537 0.39761 0.0
C490 C 0.5741 0.98155 0.3929 0.0
C491 C 0.56726 0.99787 0.40845 0.0
C492 C 0.56759 0.93604 0.38085 0.0
C493 C 0.56687 0.93725 0.35153 0.0
C494 C 0.57224 0.91644 0.39359 0.0
C495 C 0.57565 0.91559 0.42431 0.0
C496 C 0.59439 0.93874 0.43883 0.0
C497 C 0.59736 0.93792 0.46778 0.0
C498 C 0.58182 0.91403 0.48245 0.0
C499 C 0.56331 0.89087 0.46819 0.0
C500 C 0.56024 0.89158 0.43924 0.0
C501 C 0.5932 0.86297 0.29477 0.0
C502 C 0.57132 0.8366 0.29598 0.0
C503 C 0.59396 0.88299 0.31199 0.0
C504 C 0.57311 0.87681 0.33097 0.0
C505 C 0.55191 0.85027 0.33309 0.0
C506 C 0.55087 0.8304 0.31556 0.0
C507 C 0.57239 0.89813 0.34757 0.0
C508 C 0.57419 0.89752 0.37677 0.0
C509 C 0.5691 0.91848 0.33476 0.0
C510 C 0.5667 0.91985 0.304 0.0
C511 C 0.54593 0.8983 0.28925 0.0
C512 C 0.54399 0.89965 0.26021 0.0
C513 C 0.56258 0.92256 0.24571 0.0
C514 C 0.5831 0.9442 0.26025 0.0
C515 C 0.58514 0.94292 0.2893 0.0
H516 H 0.56105 0.92358 0.22322 0.0
H517 H 0.58415 0.91344 0.50487 0.0
H518 H 0.59487 0.53508 0.9921 0.0
H519 H 0.62921 0.53489 0.96254 0.0
H520 H 0.59657 0.45047 0.97894 0.0
H521 H 0.56256 0.45082 0.00954 0.0
H522 H 0.6556 0.48177 0.96432 0.0
H523 H 0.56839 0.46061 0.93028 0.0
H524 H 0.53037 0.46869 0.92941 0.0
H525 H 0.58048 0.54634 0.89273 0.0
H526 H 0.61926 0.53901 0.89482 0.0
H527 H 0.69035 0.4606 0.82452 0.0
H528 H 0.66507 0.45455 0.86785 0.0
H529 H 0.68022 0.53574 0.86097 0.0
H530 H 0.70512 0.54188 0.81801 0.0
H531 H 0.62802 0.49993 0.87198 0.0
H532 H 0.71581 0.5212 0.90525 0.0
H533 H 0.75456 0.51414 0.9094 0.0
H534 H 0.70408 0.43664 0.94613 0.0
H535 H 0.6649 0.44305 0.94172 0.0
C536 C 0.59581 0.51679 0.99045 0.0
C537 C 0.57592 0.49287 0.00261 0.0
C538 C 0.61549 0.51671 0.97367 0.0
C539 C 0.61502 0.49255 0.96814 0.0
C540 C 0.59724 0.46931 0.98301 0.0
C541 C 0.57778 0.46951 1.00037 0.0
C542 C 0.62812 0.49054 0.94242 0.0
C543 C 0.64942 0.48534 0.94406 0.0
C544 C 0.62003 0.49529 0.91604 0.0
C545 C 0.59664 0.49932 0.91302 0.0
C546 C 0.57125 0.47942 0.92222 0.0
C547 C 0.54958 0.4839 0.92151 0.0
C548 C 0.55287 0.508 0.91089 0.0
C549 C 0.57793 0.52767 0.90096 0.0
C550 C 0.59981 0.52339 0.90201 0.0
C551 C 0.68801 0.47701 0.83216 0.0
C552 C 0.69967 0.5017 0.81787 0.0
C553 C 0.67382 0.47361 0.85699 0.0
C554 C 0.67106 0.49481 0.86767 0.0
C555 C 0.6822 0.51918 0.85308 0.0
C556 C 0.69642 0.52263 0.82852 0.0
C557 C 0.6561 0.49187 0.89372 0.0
C558 C 0.63418 0.49606 0.89212 0.0
C559 C 0.66377 0.48621 0.91992 0.0
C560 C 0.68735 0.48246 0.92284 0.0
C561 C 0.71291 0.50255 0.91398 0.0
C562 C 0.73497 0.49869 0.91641 0.0
C563 C 0.73176 0.47492 0.92794 0.0
C564 C 0.70651 0.45502 0.93714 0.0
C565 C 0.68438 0.45875 0.93469 0.0
H566 H 0.74886 0.47197 0.92981 0.0
H567 H 0.53603 0.51146 0.91039 0.0
H568 H 0.03366 0.56951 0.46023 0.0
H569 H 0.06761 0.6046 0.43066 0.0
H570 H 0.1293 0.595 0.47139 0.0
H571 H 0.09538 0.56025 0.50172 0.0
H572 H 0.14822 0.64701 0.45789 0.0
H573 H 0.10327 0.56344 0.41002 0.0
H574 H 0.06456 0.52165 0.39313 0.0
H575 H 0.0377 0.56686 0.34489 0.0
H576 H 0.07617 0.60912 0.362 0.0
H577 H 0.23607 0.70553 0.33789 0.0
H578 H 0.2085 0.67345 0.37441 0.0
H579 H 0.1417 0.68363 0.35101 0.0
H580 H 0.16896 0.71569 0.31494 0.0
H581 H 0.12893 0.62957 0.35644 0.0
H582 H 0.17557 0.71391 0.40694 0.0
H583 H 0.21601 0.75456 0.42378 0.0
H584 H 0.24222 0.70572 0.466 0.0
H585 H 0.20209 0.66475 0.44904 0.0
C586 C 0.05451 0.57522 0.46332 0.0
C587 C 0.06179 0.56191 0.48313 0.0
C588 C 0.07391 0.5952 0.44629 0.0
C589 C 0.10093 0.60195 0.44829 0.0
C590 C 0.10856 0.59001 0.46934 0.0
C591 C 0.08914 0.57017 0.48668 0.0
C592 C 0.1206 0.61991 0.42705 0.0
C593 C 0.14419 0.64301 0.43572 0.0
C594 C 0.11548 0.61471 0.39807 0.0
C595 C 0.09245 0.58942 0.3875 0.0
C596 C 0.08901 0.56448 0.39596 0.0
C597 C 0.0671 0.54068 0.3863 0.0
C598 C 0.04859 0.54153 0.36792 0.0
C599 C 0.05203 0.56623 0.35913 0.0
C600 C 0.0739 0.59012 0.36881 0.0
C601 C 0.21547 0.70081 0.3405 0.0
C602 C 0.20469 0.71314 0.32355 0.0
C603 C 0.19984 0.68264 0.36144 0.0
C604 C 0.17314 0.67634 0.36548 0.0
C605 C 0.16227 0.68828 0.34826 0.0
C606 C 0.17791 0.70662 0.32767 0.0
C607 C 0.15608 0.65698 0.38725 0.0
C608 C 0.13303 0.63349 0.37862 0.0
C609 C 0.16199 0.66168 0.41614 0.0
C610 C 0.186 0.68628 0.42645 0.0
C611 C 0.19008 0.71184 0.4196 0.0
C612 C 0.21291 0.73494 0.42921 0.0
C613 C 0.23171 0.73273 0.44588 0.0
C614 C 0.22767 0.70741 0.45304 0.0
C615 C 0.20487 0.68424 0.44345 0.0
H616 H 0.24938 0.75063 0.4533 0.0
H617 H 0.03159 0.52311 0.36046 0.0
H618 H 0.499 0.07053 0.96014 0.0
H619 H 0.48837 0.09841 0.93037 0.0
H620 H 0.41847 0.02752 0.8989 0.0
H621 H 0.42986 0.99939 0.92776 0.0
H622 H 0.44247 0.05833 0.85768 0.0
H623 H 0.41489 0.07361 0.94617 0.0
H624 H 0.41869 0.08471 0.99636 0.0
H625 H 0.48528 0.16328 0.97947 0.0
H626 H 0.48212 0.15254 0.92922 0.0
H627 H 0.40053 0.14094 0.78597 0.0
H628 H 0.40036 0.10916 0.82041 0.0
H629 H 0.47998 0.16846 0.84716 0.0
H630 H 0.48043 0.20016 0.81284 0.0
H631 H 0.44465 0.14078 0.89173 0.0
H632 H 0.47365 0.12211 0.80346 0.0
H633 H 0.46835 0.11037 0.75337 0.0
H634 H 0.39569 0.03663 0.77094 0.0
H635 H 0.40038 0.04814 0.82112 0.0
C636 C 0.48119 0.06088 0.94712 0.0
C637 C 0.46518 0.03278 0.94638 0.0
C638 C 0.47502 0.07688 0.93018 0.0
C639 C 0.45228 0.06517 0.91272 0.0
C640 C 0.43607 0.03706 0.91222 0.0
C641 C 0.44255 0.02101 0.92877 0.0
C642 C 0.44632 0.08223 0.89397 0.0
C643 C 0.44237 0.07601 0.86533 0.0
C644 C 0.44649 0.10557 0.90371 0.0
C645 C 0.44836 0.11219 0.93393 0.0
C646 C 0.43045 0.0932 0.95318 0.0
C647 C 0.43248 0.09944 0.98164 0.0
C648 C 0.45224 0.12467 0.99111 0.0
C649 C 0.46998 0.14374 0.97211 0.0
C650 C 0.46805 0.13761 0.94363 0.0
C651 C 0.4179 0.14726 0.79936 0.0
C652 C 0.44056 0.173 0.79658 0.0
C653 C 0.41779 0.12908 0.81895 0.0
C654 C 0.44022 0.13646 0.83619 0.0
C655 C 0.46247 0.16241 0.83406 0.0
C656 C 0.46273 0.18044 0.81433 0.0
C657 C 0.44122 0.11695 0.8557 0.0
C658 C 0.44429 0.12278 0.88438 0.0
C659 C 0.43991 0.0931 0.84608 0.0
C660 C 0.4372 0.08613 0.81597 0.0
C661 C 0.45643 0.1035 0.7966 0.0
C662 C 0.45356 0.09687 0.76821 0.0
C663 C 0.43165 0.07281 0.75896 0.0
C664 C 0.41262 0.05528 0.77812 0.0
C665 C 0.41538 0.06184 0.80653 0.0
H666 H 0.42946 0.0677 0.73697 0.0
H667 H 0.45378 0.12945 0.01315 0.0
H668 H 0.40728 0.51614 0.48603 0.0
H669 H 0.36973 0.50692 0.45476 0.0
H670 H 0.37073 0.43738 0.42256 0.0
H671 H 0.40881 0.44724 0.45272 0.0
H672 H 0.36807 0.46395 0.38134 0.0
H673 H 0.32009 0.43388 0.46788 0.0
H674 H 0.30996 0.43738 0.51722 0.0
H675 H 0.29739 0.50295 0.4966 0.0
H676 H 0.30779 0.50006 0.44716 0.0
H677 H 0.24343 0.40576 0.30763 0.0
H678 H 0.27524 0.41202 0.34525 0.0
H679 H 0.28993 0.4923 0.35902 0.0
H680 H 0.25871 0.48645 0.32118 0.0
H681 H 0.28344 0.46019 0.40979 0.0
H682 H 0.33274 0.48938 0.32274 0.0
H683 H 0.34119 0.48344 0.27348 0.0
H684 H 0.34946 0.4157 0.29626 0.0
H685 H 0.34059 0.42098 0.34563 0.0
C686 C 0.39915 0.49868 0.47256 0.0
C687 C 0.4109 0.48239 0.47178 0.0
C688 C 0.37766 0.49337 0.45473 0.0
C689 C 0.36719 0.4713 0.43637 0.0
C690 C 0.37848 0.4546 0.43635 0.0
C691 C 0.40019 0.46019 0.4537 0.0
C692 C 0.34545 0.4662 0.41609 0.0
C693 C 0.34942 0.4627 0.38777 0.0
C694 C 0.32127 0.46515 0.42417 0.0
C695 C 0.31499 0.46692 0.45387 0.0
C696 C 0.31537 0.44918 0.4739 0.0
C697 C 0.30954 0.45103 0.50188 0.0
C698 C 0.30311 0.47042 0.51005 0.0
C699 C 0.30242 0.48796 0.49024 0.0
C700 C 0.30825 0.48621 0.46224 0.0
C701 C 0.25319 0.42459 0.31893 0.0
C702 C 0.24876 0.44568 0.31137 0.0
C703 C 0.27134 0.42815 0.34034 0.0
C704 C 0.28493 0.45266 0.35478 0.0
C705 C 0.27959 0.47325 0.34813 0.0
C706 C 0.26187 0.46991 0.32643 0.0
C707 C 0.30607 0.45753 0.37549 0.0
C708 C 0.30206 0.46121 0.40367 0.0
C709 C 0.33007 0.45839 0.36742 0.0
C710 C 0.33569 0.45538 0.33781 0.0
C711 C 0.33611 0.47307 0.3172 0.0
C712 C 0.34102 0.46985 0.28927 0.0
C713 C 0.34578 0.44916 0.28173 0.0
C714 C 0.34572 0.43169 0.30213 0.0
C715 C 0.34076 0.43479 0.33008 0.0
H716 H 0.34958 0.4467 0.2601 0.0
H717 H 0.2986 0.47182 0.53173 0.0
H718 H 0.95864 0.43049 0.96574 0.0
H719 H 0.93128 0.39655 0.93089 0.0
H720 H 0.96618 0.45587 0.86552 0.0
H721 H 0.99435 0.48992 0.90036 0.0
H722 H 0.90531 0.42409 0.87121 0.0
H723 H 0.98267 0.41393 0.8607 0.0
H724 H 0.01994 0.408 0.87749 0.0
H725 H 0.9637 0.33298 0.91551 0.0
H726 H 0.92608 0.33864 0.8993 0.0
H727 H 0.82468 0.32156 0.77139 0.0
H728 H 0.85989 0.36095 0.79588 0.0
H729 H 0.86176 0.30924 0.86046 0.0
H730 H 0.82824 0.27001 0.83487 0.0
H731 H 0.90915 0.34199 0.84881 0.0
H732 H 0.83276 0.35354 0.86695 0.0
H733 H 0.79418 0.35924 0.85486 0.0
H734 H 0.84595 0.43008 0.80761 0.0
H735 H 0.88476 0.4247 0.81931 0.0
C736 C 0.96089 0.43616 0.94387 0.0
C737 C 0.97862 0.46275 0.93567 0.0
C738 C 0.94527 0.4168 0.92404 0.0
C739 C 0.94673 0.42381 0.89574 0.0
C740 C 0.96488 0.45017 0.88731 0.0
C741 C 0.98104 0.46948 0.90714 0.0
C742 C 0.92788 0.40372 0.87558 0.0
C743 C 0.90632 0.40632 0.86573 0.0
C744 C 0.92899 0.38036 0.86927 0.0
C745 C 0.95156 0.37683 0.87895 0.0
C746 C 0.97825 0.39628 0.87285 0.0
C747 C 0.99944 0.39294 0.88222 0.0
C748 C 0.99419 0.37015 0.89761 0.0
C749 C 0.96773 0.35062 0.9036 0.0
C750 C 0.94647 0.35387 0.89429 0.0
C751 C 0.83248 0.31879 0.791 0.0
C752 C 0.82386 0.29288 0.80132 0.0
C753 C 0.85253 0.34129 0.80507 0.0
C754 C 0.8635 0.33824 0.83025 0.0
C755 C 0.85393 0.31226 0.84099 0.0
C756 C 0.83462 0.28983 0.8265 0.0
C757 C 0.88569 0.36167 0.84502 0.0
C758 C 0.90805 0.35978 0.85386 0.0
C759 C 0.88497 0.38545 0.85092 0.0
C760 C 0.86158 0.38853 0.84372 0.0
C761 C 0.83585 0.37021 0.85381 0.0
C762 C 0.81396 0.37343 0.8471 0.0
C763 C 0.81759 0.39499 0.83044 0.0
C764 C 0.84313 0.4134 0.82052 0.0
C765 C 0.86509 0.41029 0.8272 0.0
H766 H 0.80061 0.39744 0.82527 0.0
H767 H 0.01063 0.36761 0.90484 0.0
H768 H 0.97762 0.56734 0.95606 0.0
H769 H 0.94875 0.57715 0.92664 0.0
H770 H 0.87873 0.51287 0.96617 0.0
H771 H 0.90755 0.50307 0.99597 0.0
H772 H 0.87977 0.50923 0.90736 0.0
H773 H 0.8923 0.57453 0.97714 0.0
H774 H 0.91875 0.6132 0.00818 0.0
H775 H 0.95706 0.66328 0.93689 0.0
H776 H 0.93111 0.6248 0.90542 0.0
H777 H 0.78079 0.52075 0.83711 0.0
H778 H 0.80953 0.52143 0.87496 0.0
H779 H 0.87643 0.5925 0.8398 0.0
H780 H 0.84708 0.59246 0.80207 0.0
H781 H 0.87821 0.59424 0.89641 0.0
H782 H 0.86838 0.53095 0.82664 0.0
H783 H 0.84389 0.49322 0.79396 0.0
H784 H 0.80417 0.44016 0.86288 0.0
H785 H 0.82804 0.4777 0.89599 0.0
C786 C 0.95608 0.55565 0.95892 0.0
C787 C 0.94483 0.53434 0.97824 0.0
C788 C 0.93963 0.56135 0.94216 0.0
C789 C 0.91163 0.54573 0.94424 0.0
C790 C 0.90033 0.52519 0.96432 0.0
C791 C 0.9168 0.51969 0.9814 0.0
C792 C 0.89429 0.54904 0.92351 0.0
C793 C 0.87903 0.52763 0.90529 0.0
C794 C 0.89437 0.57351 0.92006 0.0
C795 C 0.90994 0.5967 0.93894 0.0
C796 C 0.90654 0.59372 0.96809 0.0
C797 C 0.92141 0.61562 0.98576 0.0
C798 C 0.93963 0.64066 0.97452 0.0
C799 C 0.94296 0.64387 0.94557 0.0
C800 C 0.92816 0.62202 0.92781 0.0
C801 C 0.80158 0.5367 0.83757 0.0
C802 C 0.8119 0.55632 0.81646 0.0
C803 C 0.81799 0.53705 0.85919 0.0
C804 C 0.84532 0.55656 0.85979 0.0
C805 C 0.85543 0.57712 0.83959 0.0
C806 C 0.83874 0.57709 0.81808 0.0
C807 C 0.86329 0.5542 0.88058 0.0
C808 C 0.87884 0.57579 0.89859 0.0
C809 C 0.86391 0.53 0.8836 0.0
C810 C 0.8498 0.50724 0.86379 0.0
C811 C 0.85427 0.51129 0.83483 0.0
C812 C 0.8405 0.48993 0.81623 0.0
C813 C 0.82236 0.46436 0.82633 0.0
C814 C 0.81813 0.46002 0.85509 0.0
C815 C 0.83179 0.48133 0.87378 0.0
H816 H 0.81165 0.44788 0.81189 0.0
H817 H 0.95112 0.6576 0.98823 0.0
H818 H 0.45465 0.00625 0.42013 0.0
H819 H 0.41276 0.98353 0.3936 0.0
H820 H 0.37762 0.92309 0.45796 0.0
H821 H 0.41932 0.94592 0.48486 0.0
H822 H 0.39218 0.93546 0.37191 0.0
H823 H 0.30995 0.89525 0.45839 0.0
H824 H 0.3014 0.91032 0.50344 0.0
H825 H 0.35236 0.99256 0.47926 0.0
H826 H 0.36091 0.97802 0.43391 0.0
H827 H 0.28449 0.81206 0.34326 0.0
H828 H 0.31504 0.84887 0.37333 0.0
H829 H 0.28299 0.89752 0.3422 0.0
H830 H 0.2521 0.86047 0.31146 0.0
H831 H 0.29935 0.89993 0.40699 0.0
H832 H 0.33097 0.91278 0.31164 0.0
H833 H 0.33858 0.89661 0.26684 0.0
H834 H 0.38944 0.87233 0.30795 0.0
H835 H 0.38154 0.88767 0.3532 0.0
C836 C 0.4379 0.98832 0.42885 0.0
C837 C 0.4404 0.97777 0.45452 0.0
C838 C 0.41395 0.9754 0.41367 0.0
C839 C 0.39198 0.95173 0.42386 0.0
C840 C 0.39412 0.9416 0.4499 0.0
C841 C 0.41807 0.95456 0.46516 0.0
C842 C 0.36799 0.93601 0.40596 0.0
C843 C 0.37193 0.92817 0.37946 0.0
C844 C 0.34151 0.92657 0.41566 0.0
C845 C 0.3362 0.9355 0.44278 0.0
C846 C 0.31921 0.91655 0.4626 0.0
C847 C 0.31439 0.92501 0.48822 0.0
C848 C 0.32638 0.95238 0.49424 0.0
C849 C 0.34316 0.97136 0.47462 0.0
C850 C 0.34803 0.96302 0.44896 0.0
C851 C 0.28348 0.83037 0.3431 0.0
C852 C 0.26622 0.83356 0.32463 0.0
C853 C 0.30086 0.85131 0.36044 0.0
C854 C 0.30134 0.87586 0.35972 0.0
C855 C 0.28275 0.87859 0.343 0.0
C856 C 0.26521 0.85748 0.32546 0.0
C857 C 0.32386 0.89921 0.37356 0.0
C858 C 0.31967 0.9081 0.39929 0.0
C859 C 0.35021 0.90994 0.36312 0.0
C860 C 0.35551 0.90124 0.33584 0.0
C861 C 0.3436 0.90379 0.31117 0.0
C862 C 0.34798 0.8948 0.28568 0.0
C863 C 0.36451 0.88349 0.28452 0.0
C864 C 0.37666 0.88112 0.30887 0.0
C865 C 0.37223 0.88995 0.33445 0.0
H866 H 0.36795 0.87663 0.26476 0.0
H867 H 0.32263 0.95888 0.51409 0.0
H868 H 0.45888 0.41205 0.9751 0.0
H869 H 0.45154 0.378 0.94038 0.0
H870 H 0.48049 0.4384 0.87564 0.0
H871 H 0.48586 0.4721 0.90998 0.0
H872 H 0.44589 0.39385 0.8537 0.0
H873 H 0.52173 0.41948 0.91535 0.0
H874 H 0.54345 0.42511 0.96144 0.0
H875 H 0.49662 0.34033 0.97605 0.0
H876 H 0.47394 0.33421 0.93055 0.0
H877 H 0.51547 0.31715 0.79563 0.0
H878 H 0.51444 0.35026 0.82691 0.0
H879 H 0.4279 0.30679 0.82407 0.0
H880 H 0.4287 0.27376 0.79278 0.0
H881 H 0.49294 0.34411 0.87841 0.0
H882 H 0.40593 0.35231 0.82692 0.0
H883 H 0.38629 0.34867 0.78005 0.0
H884 H 0.46197 0.37015 0.74219 0.0
H885 H 0.48215 0.37429 0.7888 0.0
C886 C 0.46299 0.41793 0.95334 0.0
C887 C 0.47359 0.44489 0.94536 0.0
C888 C 0.45901 0.39848 0.93352 0.0
C889 C 0.46659 0.40582 0.90556 0.0
C890 C 0.47485 0.43225 0.89714 0.0
C891 C 0.47793 0.45155 0.91682 0.0
C892 C 0.46807 0.38671 0.88571 0.0
C893 C 0.4561 0.38292 0.85919 0.0
C894 C 0.48188 0.37276 0.89253 0.0
C895 C 0.49598 0.37644 0.91963 0.0
C896 C 0.51598 0.40207 0.92846 0.0
C897 C 0.52845 0.40535 0.95446 0.0
C898 C 0.52149 0.38314 0.97159 0.0
C899 C 0.502 0.35754 0.96277 0.0
C900 C 0.48928 0.35415 0.93691 0.0
C901 C 0.49622 0.31464 0.80165 0.0
C902 C 0.47218 0.29281 0.79169 0.0
C903 C 0.49567 0.33356 0.81954 0.0
C904 C 0.4711 0.33113 0.82758 0.0
C905 C 0.44708 0.30927 0.81782 0.0
C906 C 0.4476 0.29032 0.80005 0.0
C907 C 0.47051 0.35109 0.84669 0.0
C908 C 0.48268 0.35502 0.87302 0.0
C909 C 0.45734 0.36549 0.83951 0.0
C910 C 0.44545 0.36332 0.81137 0.0
C911 C 0.4184 0.35634 0.80859 0.0
C912 C 0.40717 0.35418 0.78207 0.0
C913 C 0.42284 0.35908 0.75816 0.0
C914 C 0.44981 0.36625 0.76072 0.0
C915 C 0.46114 0.36846 0.78719 0.0
H916 H 0.41411 0.35739 0.73765 0.0
H917 H 0.53121 0.38577 0.99169 0.0
H918 H 0.99148 0.47491 0.4019 0.0
H919 H 0.02036 0.47637 0.3637 0.0
H920 H 0.06012 0.44859 0.41997 0.0
H921 H 0.03164 0.44741 0.45811 0.0
H922 H 0.09452 0.49534 0.40023 0.0
H923 H 0.02236 0.41357 0.35933 0.0
H924 H 0.97733 0.38486 0.33911 0.0
H925 H 0.99416 0.44326 0.27467 0.0
H926 H 0.03915 0.47251 0.29477 0.0
H927 H 0.17169 0.4584 0.32012 0.0
H928 H 0.1372 0.46068 0.34749 0.0
H929 H 0.132 0.51228 0.28523 0.0
H930 H 0.16732 0.51053 0.25778 0.0
H931 H 0.0807 0.46283 0.30234 0.0
H932 H 0.15463 0.54174 0.34054 0.0
H933 H 0.20004 0.5696 0.36023 0.0
H934 H 0.17962 0.51547 0.4297 0.0
H935 H 0.1342 0.48707 0.41024 0.0
C936 C 0.0057 0.46815 0.40582 0.0
C937 C 0.00975 0.46155 0.43304 0.0
C938 C 0.02224 0.46904 0.38396 0.0
C939 C 0.04288 0.46329 0.38916 0.0
C940 C 0.0447 0.45369 0.41562 0.0
C941 C 0.02838 0.45295 0.4374 0.0
C942 C 0.06513 0.47113 0.36902 0.0
C943 C 0.09139 0.48791 0.37892 0.0
C944 C 0.06111 0.46291 0.34069 0.0
C945 C 0.034 0.44537 0.32877 0.0
C946 C 0.01636 0.42041 0.34103 0.0
C947 C 0.99086 0.40402 0.32955 0.0
C948 C 0.98285 0.41227 0.30569 0.0
C949 C 0.00035 0.43692 0.2932 0.0
C950 C 0.02586 0.45341 0.30462 0.0
C951 C 0.16357 0.47066 0.31252 0.0
C952 C 0.17212 0.48439 0.28699 0.0
C953 C 0.14389 0.47191 0.32811 0.0
C954 C 0.13211 0.48659 0.31827 0.0
C955 C 0.14097 0.50088 0.29306 0.0
C956 C 0.1612 0.50007 0.27761 0.0
C957 C 0.10975 0.48554 0.33426 0.0
C958 C 0.08359 0.4704 0.32357 0.0
C959 C 0.11372 0.49515 0.36196 0.0
C960 C 0.14103 0.51219 0.37382 0.0
C961 C 0.15988 0.53566 0.3599 0.0
C962 C 0.18561 0.55158 0.37105 0.0
C963 C 0.19272 0.54429 0.39618 0.0
C964 C 0.17409 0.52109 0.41024 0.0
C965 C 0.14832 0.5051 0.39918 0.0
H966 H 0.21266 0.55664 0.40477 0.0
H967 H 0.96311 0.39954 0.29682 0.0
H968 H 0.58853 0.08171 0.99279 0.0
H969 H 0.62917 0.10713 0.96479 0.0
H970 H 0.60484 0.03847 0.91139 0.0
H971 H 0.56369 0.013 0.93888 0.0
H972 H 0.66492 0.07197 0.93168 0.0
H973 H 0.59189 0.07611 0.88421 0.0
H974 H 0.55348 0.08391 0.88351 0.0
H975 H 0.60445 0.16464 0.91235 0.0
H976 H 0.64308 0.15712 0.91368 0.0
H977 H 0.7493 0.13696 0.81375 0.0
H978 H 0.71495 0.10862 0.84776 0.0
H979 H 0.71349 0.17824 0.87906 0.0
H980 H 0.74651 0.20611 0.84396 0.0
H981 H 0.66598 0.14248 0.87089 0.0
H982 H 0.7394 0.14144 0.91706 0.0
H983 H 0.77862 0.13519 0.92167 0.0
H984 H 0.72974 0.05199 0.8999 0.0
H985 H 0.69028 0.05782 0.8948 0.0
C986 C 0.59195 0.0719 0.9753 0.0
C987 C 0.57286 0.04542 0.96791 0.0
C988 C 0.61518 0.08643 0.95938 0.0
C989 C 0.61991 0.07459 0.93614 0.0
C990 C 0.60151 0.04783 0.92938 0.0
C991 C 0.57799 0.03341 0.94497 0.0
C992 C 0.64294 0.09098 0.91763 0.0
C993 C 0.6652 0.08723 0.91808 0.0
C994 C 0.64338 0.11127 0.90062 0.0
C995 C 0.62029 0.11595 0.89934 0.0
C996 C 0.59485 0.09544 0.89064 0.0
C997 C 0.57305 0.09982 0.89009 0.0
C998 C 0.5765 0.12473 0.89796 0.0
C999 C 0.60179 0.14534 0.9063 0.0
C1000 C 0.62365 0.14103 0.90695 0.0
C1001 C 0.74201 0.1462 0.82834 0.0
C1002 C 0.75046 0.17365 0.8263 0.0
C1003 C 0.72242 0.13003 0.84785 0.0
C1004 C 0.71159 0.14122 0.8662 0.0
C1005 C 0.72127 0.169 0.86506 0.0
C1006 C 0.74026 0.18496 0.84512 0.0
C1007 C 0.68864 0.12394 0.88487 0.0
C1008 C 0.66611 0.1274 0.88443 0.0
C1009 C 0.68826 0.10371 0.90223 0.0
C1010 C 0.71194 0.10014 0.90528 0.0
C1011 C 0.73706 0.12186 0.91304 0.0
C1012 C 0.75932 0.11838 0.91578 0.0
C1013 C 0.75669 0.09323 0.91101 0.0
C1014 C 0.73176 0.07147 0.90355 0.0
C1015 C 0.70943 0.07484 0.90076 0.0
H1016 H 0.77395 0.09058 0.91314 0.0
H1017 H 0.5596 0.12808 0.89753 0.0
H1018 H 0.50569 0.57525 0.46718 0.0
H1019 H 0.51294 0.6083 0.43141 0.0
H1020 H 0.54329 0.57131 0.37529 0.0
H1021 H 0.53558 0.5374 0.41103 0.0
H1022 H 0.57206 0.63473 0.38073 0.0
H1023 H 0.4877 0.55375 0.36016 0.0
H1024 H 0.44397 0.51549 0.37415 0.0
H1025 H 0.4188 0.56988 0.40341 0.0
H1026 H 0.46256 0.60849 0.39001 0.0
H1027 H 0.56389 0.71013 0.26774 0.0
H1028 H 0.56213 0.67379 0.29591 0.0
H1029 H 0.49927 0.67243 0.34622 0.0
H1030 H 0.49973 0.70747 0.31662 0.0
H1031 H 0.48804 0.62467 0.33997 0.0
H1032 H 0.56995 0.70449 0.36637 0.0
H1033 H 0.61411 0.74486 0.35856 0.0
H1034 H 0.64421 0.69605 0.32461 0.0
H1035 H 0.60012 0.65541 0.33193 0.0
C1036 C 0.51432 0.57425 0.44745 0.0
C1037 C 0.51981 0.55347 0.44188 0.0
C1038 C 0.51841 0.59319 0.42704 0.0
C1039 C 0.52833 0.59197 0.40075 0.0
C1040 C 0.53553 0.57242 0.39554 0.0
C1041 C 0.53114 0.55313 0.41596 0.0
C1042 C 0.52913 0.61008 0.37841 0.0
C1043 C 0.55383 0.63235 0.37124 0.0
C1044 C 0.50516 0.60721 0.36696 0.0
C1045 C 0.47851 0.58402 0.37426 0.0
C1046 C 0.47291 0.55756 0.36975 0.0
C1047 C 0.44811 0.5358 0.37755 0.0
C1048 C 0.42864 0.54024 0.38972 0.0
C1049 C 0.4339 0.56646 0.39399 0.0
C1050 C 0.45869 0.58829 0.38626 0.0
C1051 C 0.54973 0.70202 0.28486 0.0
C1052 C 0.53216 0.71172 0.29035 0.0
C1053 C 0.54881 0.68133 0.30104 0.0
C1054 C 0.53105 0.67073 0.32374 0.0
C1055 C 0.51321 0.68024 0.3289 0.0
C1056 C 0.51354 0.70034 0.31213 0.0
C1057 C 0.53112 0.64992 0.34227 0.0
C1058 C 0.50646 0.62706 0.3489 0.0
C1059 C 0.55514 0.65258 0.35371 0.0
C1060 C 0.58168 0.67697 0.34943 0.0
C1061 C 0.58595 0.7024 0.35708 0.0
C1062 C 0.61096 0.72532 0.35277 0.0
C1063 C 0.63193 0.72303 0.34102 0.0
C1064 C 0.62794 0.6978 0.33366 0.0
C1065 C 0.60296 0.67482 0.33791 0.0
H1066 H 0.65128 0.7408 0.33769 0.0
H1067 H 0.40947 0.52338 0.3958 0.0
H1068 H 0.47632 0.06067 0.52179 0.0
H1069 H 0.47456 0.09413 0.55151 0.0
H1070 H 0.55306 0.15406 0.52282 0.0
H1071 H 0.55479 0.12044 0.49255 0.0
H1072 H 0.54829 0.14863 0.58151 0.0
H1073 H 0.5027 0.16243 0.5058 0.0
H1074 H 0.4695 0.14947 0.46771 0.0
H1075 H 0.40527 0.1116 0.52698 0.0
H1076 H 0.43807 0.12398 0.56541 0.0
H1077 H 0.53341 0.23816 0.67564 0.0
H1078 H 0.54292 0.21895 0.63454 0.0
H1079 H 0.46253 0.15091 0.63766 0.0
H1080 H 0.45275 0.17015 0.67813 0.0
H1081 H 0.47437 0.16919 0.5861 0.0
H1082 H 0.5186 0.14849 0.66002 0.0
H1083 H 0.55071 0.15892 0.69877 0.0
H1084 H 0.61631 0.20689 0.64362 0.0
H1085 H 0.58452 0.19721 0.60464 0.0
C1086 C 0.49294 0.08113 0.52129 0.0
C1087 C 0.51568 0.088 0.50489 0.0
C1088 C 0.49189 0.10024 0.53823 0.0
C1089 C 0.51366 0.12657 0.53931 0.0
C1090 C 0.53603 0.13384 0.52216 0.0
C1091 C 0.53691 0.11472 0.50477 0.0
C1092 C 0.51366 0.14538 0.56041 0.0
C1093 C 0.53256 0.15379 0.5822 0.0
C1094 C 0.49275 0.15148 0.56154 0.0
C1095 C 0.47289 0.14404 0.5385 0.0
C1096 C 0.4815 0.15117 0.51071 0.0
C1097 C 0.46275 0.14395 0.48905 0.0
C1098 C 0.4353 0.12969 0.49492 0.0
C1099 C 0.42655 0.12266 0.52247 0.0
C1100 C 0.44521 0.12981 0.5442 0.0
C1101 C 0.51787 0.21898 0.66771 0.0
C1102 C 0.49232 0.20569 0.68014 0.0
C1103 C 0.52333 0.20803 0.64421 0.0
C1104 C 0.50343 0.18347 0.633 0.0
C1105 C 0.47813 0.16998 0.64578 0.0
C1106 C 0.47262 0.18096 0.66904 0.0
C1107 C 0.50847 0.17169 0.60773 0.0
C1108 C 0.49048 0.16461 0.58516 0.0
C1109 C 0.53006 0.16656 0.60605 0.0
C1110 C 0.54915 0.17247 0.62952 0.0
C1111 C 0.53985 0.16152 0.65622 0.0
C1112 C 0.55799 0.16728 0.67823 0.0
C1113 C 0.58553 0.18367 0.67369 0.0
C1114 C 0.59497 0.19429 0.64713 0.0
C1115 C 0.5769 0.18871 0.62508 0.0
H1116 H 0.59955 0.18802 0.69074 0.0
H1117 H 0.42081 0.12412 0.47812 0.0
H1118 H 0.43764 0.50305 0.03682 0.0
H1119 H 0.40073 0.50071 0.0639 0.0
H1120 H 0.40185 0.44117 0.11793 0.0
H1121 H 0.43922 0.44354 0.09101 0.0
H1122 H 0.34885 0.43039 0.09923 0.0
H1123 H 0.43023 0.50039 0.14171 0.0
H1124 H 0.47445 0.54176 0.14084 0.0
H1125 H 0.43824 0.58579 0.10822 0.0
H1126 H 0.39383 0.54456 0.10848 0.0
H1127 H 0.27001 0.43421 0.20888 0.0
H1128 H 0.30555 0.43495 0.18076 0.0
H1129 H 0.31848 0.50756 0.14016 0.0
H1130 H 0.28348 0.50752 0.16929 0.0
H1131 H 0.36449 0.51165 0.15106 0.0
H1132 H 0.28404 0.44422 0.10775 0.0
H1133 H 0.23931 0.40359 0.1052 0.0
H1134 H 0.27235 0.35572 0.13502 0.0
H1135 H 0.31723 0.39614 0.13812 0.0
C1136 C 0.42994 0.48923 0.05429 0.0
C1137 C 0.44144 0.47353 0.06185 0.0
C1138 C 0.4089 0.48802 0.06978 0.0
C1139 C 0.39883 0.47097 0.09299 0.0
C1140 C 0.40949 0.4545 0.10006 0.0
C1141 C 0.43082 0.45591 0.08473 0.0
C1142 C 0.37768 0.47108 0.11029 0.0
C1143 C 0.35227 0.44797 0.11093 0.0
C1144 C 0.38209 0.49441 0.12464 0.0
C1145 C 0.40874 0.51932 0.12487 0.0
C1146 C 0.43172 0.51884 0.13415 0.0
C1147 C 0.45682 0.54228 0.1338 0.0
C1148 C 0.45917 0.56638 0.12442 0.0
C1149 C 0.4364 0.56711 0.11546 0.0
C1150 C 0.41125 0.54371 0.11572 0.0
C1151 C 0.28033 0.4503 0.19389 0.0
C1152 C 0.27381 0.4707 0.19108 0.0
C1153 C 0.30059 0.45063 0.17772 0.0
C1154 C 0.31431 0.47097 0.15787 0.0
C1155 C 0.30807 0.49158 0.15525 0.0
C1156 C 0.28806 0.49152 0.17183 0.0
C1157 C 0.33541 0.47083 0.14023 0.0
C1158 C 0.36089 0.49399 0.13943 0.0
C1159 C 0.33092 0.44765 0.12533 0.0
C1160 C 0.30396 0.42326 0.12341 0.0
C1161 C 0.28174 0.42506 0.11396 0.0
C1162 C 0.25636 0.40206 0.11238 0.0
C1163 C 0.25298 0.3771 0.12001 0.0
C1164 C 0.27499 0.37508 0.12915 0.0
C1165 C 0.30041 0.39802 0.13079 0.0
H1166 H 0.23332 0.35932 0.11877 0.0
H1167 H 0.47862 0.5845 0.12415 0.0
H1168 H 0.00696 0.42986 0.5783 0.0
H1169 H 0.98273 0.38953 0.60733 0.0
H1170 H 0.90851 0.37145 0.56673 0.0
H1171 H 0.93242 0.41145 0.53764 0.0
H1172 H 0.90656 0.37228 0.62504 0.0
H1173 H 0.93637 0.33463 0.55246 0.0
H1174 H 0.97046 0.33247 0.52325 0.0
H1175 H 0.00825 0.32337 0.59677 0.0
H1176 H 0.97459 0.32585 0.62646 0.0
H1177 H 0.81156 0.24871 0.67138 0.0
H1178 H 0.84342 0.28117 0.63823 0.0
H1179 H 0.90927 0.2868 0.68698 0.0
H1180 H 0.87714 0.25355 0.72015 0.0
H1181 H 0.91982 0.29342 0.62811 0.0
H1182 H 0.89203 0.33032 0.70086 0.0
H1183 H 0.85966 0.3332 0.73214 0.0
H1184 H 0.82124 0.34616 0.66148 0.0
H1185 H 0.85321 0.34297 0.62969 0.0
C1186 C 0.98552 0.41713 0.57536 0.0
C1187 C 0.97161 0.42392 0.55571 0.0
C1188 C 0.97175 0.39406 0.59188 0.0
C1189 C 0.94386 0.37751 0.58911 0.0
C1190 C 0.93005 0.38397 0.56916 0.0
C1191 C 0.94378 0.40683 0.55251 0.0
C1192 C 0.92859 0.35441 0.60812 0.0
C1193 C 0.9093 0.35494 0.62548 0.0
C1194 C 0.93299 0.33232 0.60955 0.0
C1195 C 0.95314 0.33072 0.59169 0.0
C1196 C 0.95209 0.33241 0.56242 0.0
C1197 C 0.97131 0.33107 0.54577 0.0
C1198 C 0.99156 0.32786 0.55815 0.0
C1199 C 0.99258 0.3259 0.58721 0.0
C1200 C 0.97343 0.32724 0.60395 0.0
C1201 C 0.8328 0.25624 0.6746 0.0
C1202 C 0.84195 0.2489 0.69843 0.0
C1203 C 0.85098 0.2748 0.65568 0.0
C1204 C 0.87868 0.28682 0.66052 0.0
C1205 C 0.88795 0.2778 0.68295 0.0
C1206 C 0.86962 0.25881 0.70183 0.0
C1207 C 0.89728 0.31103 0.64427 0.0
C1208 C 0.91724 0.31084 0.6277 0.0
C1209 C 0.89393 0.33379 0.64386 0.0
C1210 C 0.87488 0.33617 0.66288 0.0
C1211 C 0.87657 0.3336 0.69197 0.0
C1212 C 0.8583 0.33531 0.7098 0.0
C1213 C 0.83834 0.33978 0.69882 0.0
C1214 C 0.83669 0.34266 0.66996 0.0
C1215 C 0.85491 0.34094 0.65202 0.0
H1216 H 0.8242 0.34107 0.71266 0.0
H1217 H 0.00641 0.32683 0.54523 0.0
H1218 H 0.53762 0.95653 0.03449 0.0
H1219 H 0.53835 0.92054 0.06077 0.0
H1220 H 0.46257 0.86289 0.02399 0.0
H1221 H 0.46185 0.89899 0.99718 0.0
H1222 H 0.46329 0.86368 0.08279 0.0
H1223 H 0.51339 0.85527 0.00946 0.0
H1224 H 0.54854 0.87059 0.97342 0.0
H1225 H 0.60953 0.90491 0.03687 0.0
H1226 H 0.57477 0.89017 0.0733 0.0
H1227 H 0.47575 0.77317 0.1776 0.0
H1228 H 0.46719 0.79415 0.13719 0.0
H1229 H 0.54842 0.86061 0.14216 0.0
H1230 H 0.55723 0.83958 0.18188 0.0
H1231 H 0.53777 0.84431 0.09096 0.0
H1232 H 0.49345 0.86428 0.1627 0.0
H1233 H 0.46182 0.85849 0.20022 0.0
H1234 H 0.39539 0.81444 0.14436 0.0
H1235 H 0.42663 0.81939 0.1066 0.0
C1236 C 0.52145 0.9361 0.03141 0.0
C1237 C 0.49967 0.93054 0.01384 0.0
C1238 C 0.52195 0.91553 0.04634 0.0
C1239 C 0.5006 0.88906 0.04415 0.0
C1240 C 0.47933 0.88319 0.02572 0.0
C1241 C 0.47901 0.90378 0.01038 0.0
C1242 C 0.49931 0.86865 0.06393 0.0
C1243 C 0.4793 0.85903 0.08446 0.0
C1244 C 0.52036 0.86286 0.06596 0.0
C1245 C 0.54141 0.87166 0.04413 0.0
C1246 C 0.53429 0.86624 0.01574 0.0
C1247 C 0.55416 0.8748 0.99523 0.0
C1248 C 0.58125 0.88873 0.00285 0.0
C1249 C 0.58853 0.89409 0.031 0.0
C1250 C 0.56875 0.88559 0.0516 0.0
C1251 C 0.49166 0.79239 0.17021 0.0
C1252 C 0.51721 0.80465 0.1828 0.0
C1253 C 0.48674 0.80435 0.14714 0.0
C1254 C 0.5072 0.82891 0.13656 0.0
C1255 C 0.53242 0.84151 0.14973 0.0
C1256 C 0.5374 0.8295 0.17253 0.0
C1257 C 0.50296 0.84131 0.11126 0.0
C1258 C 0.52166 0.84889 0.08942 0.0
C1259 C 0.48135 0.84637 0.1087 0.0
C1260 C 0.46242 0.84167 0.13194 0.0
C1261 C 0.47209 0.85276 0.15856 0.0
C1262 C 0.45422 0.84978 0.17985 0.0
C1263 C 0.4266 0.83597 0.17473 0.0
C1264 C 0.41679 0.82502 0.14834 0.0
C1265 C 0.43457 0.82785 0.127 0.0
H1266 H 0.4128 0.83388 0.19117 0.0
H1267 H 0.5966 0.89534 0.98694 0.0
H1268 H 0.5449 0.49279 0.5533 0.0
H1269 H 0.58044 0.50339 0.58746 0.0
H1270 H 0.57076 0.56781 0.62004 0.0
H1271 H 0.53432 0.55679 0.5861 0.0
H1272 H 0.62786 0.57885 0.60517 0.0
H1273 H 0.55066 0.52347 0.66108 0.0
H1274 H 0.50707 0.48423 0.67354 0.0
H1275 H 0.53992 0.43236 0.66249 0.0
H1276 H 0.58363 0.47124 0.64959 0.0
H1277 H 0.72071 0.59158 0.7153 0.0
H1278 H 0.68427 0.59131 0.68816 0.0
H1279 H 0.6583 0.51044 0.66105 0.0
H1280 H 0.69398 0.51036 0.68843 0.0
H1281 H 0.6171 0.51342 0.67888 0.0
H1282 H 0.692 0.56679 0.61758 0.0
H1283 H 0.73623 0.60518 0.60523 0.0
H1284 H 0.70831 0.65981 0.62504 0.0
H1285 H 0.66399 0.62172 0.63785 0.0
C1286 C 0.55028 0.50925 0.5677 0.0
C1287 C 0.53688 0.52404 0.56696 0.0
C1288 C 0.57054 0.5152 0.58725 0.0
C1289 C 0.57817 0.53634 0.60623 0.0
C1290 C 0.56509 0.5514 0.60551 0.0
C1291 C 0.54429 0.54505 0.58623 0.0
C1292 C 0.60008 0.5424 0.62641 0.0
C1293 C 0.62547 0.56493 0.62176 0.0
C1294 C 0.59697 0.52388 0.64755 0.0
C1295 C 0.5704 0.50029 0.65419 0.0
C1296 C 0.54851 0.50367 0.66095 0.0
C1297 C 0.52382 0.4815 0.66823 0.0
C1298 C 0.52078 0.45585 0.66894 0.0
C1299 C 0.54235 0.45226 0.66206 0.0
C1300 C 0.56709 0.47436 0.65478 0.0
C1301 C 0.70739 0.57389 0.70327 0.0
C1302 C 0.71017 0.55095 0.70414 0.0
C1303 C 0.68658 0.57376 0.68775 0.0
C1304 C 0.66846 0.55082 0.67255 0.0
C1305 C 0.67182 0.52829 0.67278 0.0
C1306 C 0.69234 0.52831 0.68841 0.0
C1307 C 0.64526 0.54945 0.65715 0.0
C1308 C 0.61955 0.5277 0.66267 0.0
C1309 C 0.64819 0.56856 0.63666 0.0
C1310 C 0.67481 0.59144 0.62901 0.0
C1311 C 0.69537 0.587 0.61954 0.0
C1312 C 0.72044 0.6087 0.6124 0.0
C1313 C 0.72511 0.63492 0.61444 0.0
C1314 C 0.70469 0.63949 0.62354 0.0
C1315 C 0.67959 0.61786 0.63072 0.0
H1316 H 0.74452 0.6517 0.6089 0.0
H1317 H 0.50171 0.43873 0.67479 0.0
H1318 H 0.09415 0.59244 0.01591 0.0
H1319 H 0.12327 0.62864 0.04811 0.0
H1320 H 0.05358 0.62108 0.08997 0.0
H1321 H 0.02438 0.58454 0.05832 0.0
H1322 H 0.09836 0.67666 0.08005 0.0
H1323 H 0.07809 0.59025 0.1176 0.0
H1324 H 0.07586 0.54642 0.11471 0.0
H1325 H 0.16126 0.58599 0.10365 0.0
H1326 H 0.1639 0.63011 0.10554 0.0
H1327 H 0.15315 0.73936 0.2106 0.0
H1328 H 0.12602 0.70996 0.1724 0.0
H1329 H 0.19208 0.69894 0.14823 0.0
H1330 H 0.2187 0.7272 0.18715 0.0
H1331 H 0.14968 0.65347 0.14707 0.0
H1332 H 0.1717 0.73957 0.11035 0.0
H1333 H 0.17525 0.7841 0.10999 0.0
H1334 H 0.08961 0.74698 0.11709 0.0
H1335 H 0.08557 0.70223 0.11786 0.0
C1336 C 0.08506 0.59883 0.03166 0.0
C1337 C 0.05703 0.58558 0.03478 0.0
C1338 C 0.10168 0.61944 0.05002 0.0
C1339 C 0.09049 0.62736 0.07142 0.0
C1340 C 0.06253 0.61523 0.07353 0.0
C1341 C 0.04592 0.59431 0.05555 0.0
C1342 C 0.10782 0.64655 0.09311 0.0
C1343 C 0.10949 0.67164 0.09489 0.0
C1344 C 0.12266 0.64002 0.11197 0.0
C1345 C 0.12115 0.6135 0.11136 0.0
C1346 C 0.09637 0.58962 0.11426 0.0
C1347 C 0.09503 0.56471 0.11286 0.0
C1348 C 0.11839 0.56341 0.10903 0.0
C1349 C 0.14316 0.58703 0.10659 0.0
C1350 C 0.14459 0.61199 0.10777 0.0
C1351 C 0.16189 0.73077 0.19701 0.0
C1352 C 0.188 0.73552 0.20188 0.0
C1353 C 0.14644 0.71408 0.17506 0.0
C1354 C 0.15708 0.70244 0.15709 0.0
C1355 C 0.18334 0.70756 0.16177 0.0
C1356 C 0.19857 0.72377 0.18402 0.0
C1357 C 0.14059 0.68404 0.13416 0.0
C1358 C 0.13887 0.65885 0.13219 0.0
C1359 C 0.126 0.69067 0.11491 0.0
C1360 C 0.12836 0.71756 0.11443 0.0
C1361 C 0.15364 0.74091 0.11204 0.0
C1362 C 0.15574 0.76619 0.11173 0.0
C1363 C 0.13268 0.76837 0.11359 0.0
C1364 C 0.10746 0.74527 0.11569 0.0
C1365 C 0.10525 0.71994 0.11604 0.0
H1366 H 0.13434 0.78796 0.11334 0.0
H1367 H 0.11731 0.54409 0.10799 0.0
loop_
_geom_bond_atom_site_label_1
_geom_bond_atom_site_label_2
_geom_bond_distance
_geom_bond_site_symmetry_2
_ccdc_geom_bond_type
C0 O2 1.258 . S
C0 O4 1.258 . S
C1 O8 1.250 . S
C1 O9 1.258 . S
O2 C0 1.258 . S
O2 Zn3 2.025 1_455 S
Zn3 O2 2.025 1_655 S
Zn3 O7 2.035 1_554 S
Zn3 O9 2.035 1_554 S
Zn3 O10 2.014 1_655 S
O4 C0 1.258 . S
O4 Zn5 2.035 1_554 S
Zn5 O4 2.035 1_556 S
Zn5 O6 2.023 1_455 S
Zn5 O8 2.027 1_455 S
Zn5 O11 2.035 1_556 S
O6 Zn5 2.023 1_655 S
O6 C12 1.252 . S
O7 Zn3 2.035 1_556 S
O7 C12 1.258 . S
O8 C1 1.250 . S
O8 Zn5 2.027 1_655 S
O9 C1 1.258 . S
O9 Zn3 2.035 1_556 S
O10 Zn3 2.014 1_455 S
O10 C13 1.262 . S
O11 Zn5 2.035 1_554 S
O11 C13 1.258 . S
C12 O6 1.252 . S
C12 O7 1.258 . S
C13 O10 1.262 . S
C13 O11 1.258 . S
C14 O16 1.262 . S
C14 O18 1.258 . S
C15 O22 1.252 . S
C15 O23 1.258 . S
O16 C14 1.262 . S
O16 Zn17 2.014 1_545 S
Zn17 O16 2.014 1_565 S
Zn17 O21 2.035 . S
Zn17 O23 2.035 . S
Zn17 O24 2.025 1_565 S
O18 C14 1.258 . S
O18 Zn19 2.035 . S
Zn19 O18 2.035 . S
Zn19 O20 2.027 1_545 S
Zn19 O22 2.023 1_545 S
Zn19 O25 2.035 . S
O20 Zn19 2.027 1_565 S
O20 C26 1.250 . S
O21 Zn17 2.035 . S
O21 C26 1.258 . S
O22 C15 1.252 . S
O22 Zn19 2.023 1_565 S
O23 C15 1.258 . S
O23 Zn17 2.035 . S
O24 Zn17 2.025 1_545 S
O24 C27 1.258 . S
O25 Zn19 2.035 . S
O25 C27 1.258 . S
C26 O20 1.250 . S
C26 O21 1.258 . S
C27 O24 1.258 . S
C27 O25 1.258 . S
C28 O30 1.247 . S
C28 O32 1.258 . S
C29 O36 1.247 . S
C29 O37 1.258 . S
O30 C28 1.247 . S
O30 Zn31 2.028 . S
Zn31 O30 2.028 . S
Zn31 O35 2.035 1_556 S
Zn31 O37 2.035 1_556 S
Zn31 O38 2.028 . S
O32 C28 1.258 . S
O32 Zn33 2.035 1_556 S
Zn33 O32 2.035 1_554 S
Zn33 O34 2.028 . S
Zn33 O36 2.028 . S
Zn33 O39 2.035 1_554 S
O34 Zn33 2.028 . S
O34 C40 1.247 . S
O35 Zn31 2.035 1_554 S
O35 C40 1.258 . S
O36 C29 1.247 . S
O36 Zn33 2.028 . S
O37 C29 1.258 . S
O37 Zn31 2.035 1_554 S
O38 Zn31 2.028 . S
O38 C41 1.247 . S
O39 Zn33 2.035 1_556 S
O39 C41 1.258 . S
C40 O34 1.247 . S
C40 O35 1.258 . S
C41 O38 1.247 . S
C41 O39 1.258 . S
C42 O44 1.247 . S
C42 O46 1.271 . S
C43 O50 1.247 . S
C43 O51 1.263 . S
O44 C42 1.247 . S
O44 Zn45 2.028 . S
Zn45 O44 2.028 . S
Zn45 O49 2.029 1_455 S
Zn45 O51 2.034 1_455 S
Zn45 O52 2.028 . S
O46 C42 1.271 . S
O46 Zn47 2.032 1_455 S
Zn47 O46 2.032 1_655 S
Zn47 O48 2.028 . S
Zn47 O50 2.028 . S
Zn47 O53 2.020 1_655 S
O48 Zn47 2.028 . S
O48 C54 1.247 . S
O49 Zn45 2.029 1_655 S
O49 C54 1.265 . S
O50 C43 1.247 . S
O50 Zn47 2.028 . S
O51 C43 1.263 . S
O51 Zn45 2.034 1_655 S
O52 Zn45 2.028 . S
O52 C55 1.247 . S
O53 Zn47 2.020 1_455 S
O53 C55 1.276 . S
C54 O48 1.247 . S
C54 O49 1.265 . S
C55 O52 1.247 . S
C55 O53 1.276 . S
C56 O58 1.252 . S
C56 O60 1.258 . S
C57 O64 1.262 . S
C57 O65 1.258 . S
O58 C56 1.252 . S
O58 Zn59 2.023 1_565 S
Zn59 O58 2.023 1_545 S
Zn59 O63 2.035 1_554 S
Zn59 O65 2.035 1_554 S
Zn59 O66 2.027 1_545 S
O60 C56 1.258 . S
O60 Zn61 2.035 1_554 S
Zn61 O60 2.035 1_556 S
Zn61 O62 2.025 1_565 S
Zn61 O64 2.014 1_565 S
Zn61 O67 2.035 1_556 S
O62 Zn61 2.025 1_545 S
O62 C68 1.258 . S
O63 Zn59 2.035 1_556 S
O63 C68 1.258 . S
O64 C57 1.262 . S
O64 Zn61 2.014 1_545 S
O65 C57 1.258 . S
O65 Zn59 2.035 1_556 S
O66 Zn59 2.027 1_565 S
O66 C69 1.250 . S
O67 Zn61 2.035 1_554 S
O67 C69 1.258 . S
C68 O62 1.258 . S
C68 O63 1.258 . S
C69 O66 1.250 . S
C69 O67 1.258 . S
C70 O72 1.247 . S
C70 O74 1.258 . S
C71 O78 1.247 . S
C71 O79 1.258 . S
O72 C70 1.247 . S
O72 Zn73 2.028 . S
Zn73 O72 2.028 . S
Zn73 O77 2.035 . S
Zn73 O79 2.035 . S
Zn73 O80 2.028 . S
O74 C70 1.258 . S
O74 Zn75 2.035 . S
Zn75 O74 2.035 . S
Zn75 O76 2.028 . S
Zn75 O78 2.028 . S
Zn75 O81 2.035 . S
O76 Zn75 2.028 . S
O76 C82 1.247 . S
O77 Zn73 2.035 . S
O77 C82 1.258 . S
O78 C71 1.247 . S
O78 Zn75 2.028 . S
O79 C71 1.258 . S
O79 Zn73 2.035 . S
O80 Zn73 2.028 . S
O80 C83 1.247 . S
O81 Zn75 2.035 . S
O81 C83 1.258 . S
C82 O76 1.247 . S
C82 O77 1.258 . S
C83 O80 1.247 . S
C83 O81 1.258 . S
C84 O86 1.247 . S
C84 O88 1.258 . S
C85 O92 1.247 . S
C85 O93 1.258 . S
O86 C84 1.247 . S
O86 Zn87 2.028 . S
Zn87 O86 2.028 . S
Zn87 O91 2.035 . S
Zn87 O93 2.035 . S
Zn87 O94 2.028 . S
O88 C84 1.258 . S
O88 Zn89 2.035 . S
Zn89 O88 2.035 . S
Zn89 O90 2.028 . S
Zn89 O92 2.028 . S
Zn89 O95 2.035 . S
O90 Zn89 2.028 . S
O90 C96 1.247 . S
O91 Zn87 2.035 . S
O91 C96 1.258 . S
O92 C85 1.247 . S
O92 Zn89 2.028 . S
O93 C85 1.258 . S
O93 Zn87 2.035 . S
O94 Zn87 2.028 . S
O94 C97 1.247 . S
O95 Zn89 2.035 . S
O95 C97 1.258 . S
C96 O90 1.247 . S
C96 O91 1.258 . S
C97 O94 1.247 . S
C97 O95 1.258 . S
C98 O100 1.247 . S
C98 O102 1.258 . S
C99 O106 1.247 . S
C99 O107 1.258 . S
O100 C98 1.247 . S
O100 Zn101 2.028 . S
Zn101 O100 2.028 . S
Zn101 O105 2.035 . S
Zn101 O107 2.035 . S
Zn101 O108 2.028 . S
O102 C98 1.258 . S
O102 Zn103 2.035 . S
Zn103 O102 2.035 . S
Zn103 O104 2.028 . S
Zn103 O106 2.028 . S
Zn103 O109 2.035 . S
O104 Zn103 2.028 . S
O104 C110 1.247 . S
O105 Zn101 2.035 . S
O105 C110 1.258 . S
O106 C99 1.247 . S
O106 Zn103 2.028 . S
O107 C99 1.258 . S
O107 Zn101 2.035 . S
O108 Zn101 2.028 . S
O108 C111 1.247 . S
O109 Zn103 2.035 . S
O109 C111 1.258 . S
C110 O104 1.247 . S
C110 O105 1.258 . S
C111 O108 1.247 . S
C111 O109 1.258 . S
C112 O114 1.247 . S
C112 O116 1.258 . S
C113 O120 1.247 . S
C113 O121 1.258 . S
O114 C112 1.247 . S
O114 Zn115 2.028 . S
Zn115 O114 2.028 . S
Zn115 O119 2.035 . S
Zn115 O121 2.035 . S
Zn115 O122 2.028 . S
O116 C112 1.258 . S
O116 Zn117 2.035 . S
Zn117 O116 2.035 . S
Zn117 O118 2.028 . S
Zn117 O120 2.028 . S
Zn117 O123 2.035 . S
O118 Zn117 2.028 . S
O118 C124 1.247 . S
O119 Zn115 2.035 . S
O119 C124 1.258 . S
O120 C113 1.247 . S
O120 Zn117 2.028 . S
O121 C113 1.258 . S
O121 Zn115 2.035 . S
O122 Zn115 2.028 . S
O122 C125 1.247 . S
O123 Zn117 2.035 . S
O123 C125 1.258 . S
C124 O118 1.247 . S
C124 O119 1.258 . S
C125 O122 1.247 . S
C125 O123 1.258 . S
C126 O128 1.247 . S
C126 O130 1.258 . S
C127 O134 1.247 . S
C127 O135 1.258 . S
O128 C126 1.247 . S
O128 Zn129 2.028 . S
Zn129 O128 2.028 . S
Zn129 O133 2.035 . S
Zn129 O135 2.035 . S
Zn129 O136 2.028 . S
O130 C126 1.258 . S
O130 Zn131 2.035 . S
Zn131 O130 2.035 . S
Zn131 O132 2.028 . S
Zn131 O134 2.028 . S
Zn131 O137 2.035 . S
O132 Zn131 2.028 . S
O132 C138 1.247 . S
O133 Zn129 2.035 . S
O133 C138 1.258 . S
O134 C127 1.247 . S
O134 Zn131 2.028 . S
O135 C127 1.258 . S
O135 Zn129 2.035 . S
O136 Zn129 2.028 . S
O136 C139 1.247 . S
O137 Zn131 2.035 . S
O137 C139 1.258 . S
C138 O132 1.247 . S
C138 O133 1.258 . S
C139 O136 1.247 . S
C139 O137 1.258 . S
C140 O142 1.247 . S
C140 O144 1.258 . S
C141 O148 1.247 . S
C141 O149 1.258 . S
O142 C140 1.247 . S
O142 Zn143 2.028 . S
Zn143 O142 2.028 . S
Zn143 O147 2.035 . S
Zn143 O149 2.035 . S
Zn143 O150 2.028 . S
O144 C140 1.258 . S
O144 Zn145 2.035 . S
Zn145 O144 2.035 . S
Zn145 O146 2.028 . S
Zn145 O148 2.028 . S
Zn145 O151 2.035 . S
O146 Zn145 2.028 . S
O146 C152 1.247 . S
O147 Zn143 2.035 . S
O147 C152 1.258 . S
O148 C141 1.247 . S
O148 Zn145 2.028 . S
O149 C141 1.258 . S
O149 Zn143 2.035 . S
O150 Zn143 2.028 . S
O150 C153 1.247 . S
O151 Zn145 2.035 . S
O151 C153 1.258 . S
C152 O146 1.247 . S
C152 O147 1.258 . S
C153 O150 1.247 . S
C153 O151 1.258 . S
C154 O156 1.247 . S
C154 O158 1.258 . S
C155 O162 1.247 . S
C155 O163 1.258 . S
O156 C154 1.247 . S
O156 Zn157 2.028 . S
Zn157 O156 2.028 . S
Zn157 O161 2.035 . S
Zn157 O163 2.035 . S
Zn157 O164 2.028 . S
O158 C154 1.258 . S
O158 Zn159 2.035 . S
Zn159 O158 2.035 . S
Zn159 O160 2.028 . S
Zn159 O162 2.028 . S
Zn159 O165 2.035 . S
O160 Zn159 2.028 . S
O160 C166 1.247 . S
O161 Zn157 2.035 . S
O161 C166 1.258 . S
O162 C155 1.247 . S
O162 Zn159 2.028 . S
O163 C155 1.258 . S
O163 Zn157 2.035 . S
O164 Zn157 2.028 . S
O164 C167 1.247 . S
O165 Zn159 2.035 . S
O165 C167 1.258 . S
C166 O160 1.247 . S
C166 O161 1.258 . S
C167 O164 1.247 . S
C167 O165 1.258 . S
H168 C186 0.951 . S
H169 C188 0.951 . S
H170 C190 0.950 . S
H171 C191 0.950 . S
H172 C193 0.950 . S
H173 C196 0.950 . S
H174 C197 0.950 . S
H175 C199 0.950 . S
H176 C200 0.950 . S
H177 C201 0.951 . S
H178 C203 0.951 . S
H179 C205 0.950 . S
H180 C206 0.950 . S
H181 C208 0.950 . S
H182 C211 0.950 . S
H183 C212 0.950 . S
H184 C214 0.950 . S
H185 C215 0.950 . S
C186 H168 0.951 . S
C186 C187 1.366 . S
C186 C188 1.388 . S
C187 C186 1.366 . S
C187 C191 1.385 . S
C188 H169 0.951 . S
C188 C186 1.388 . S
C188 C189 1.366 . S
C189 C188 1.366 . S
C189 C190 1.414 . S
C189 C192 1.499 . S
C190 H170 0.950 . S
C190 C189 1.414 . S
C190 C191 1.374 . S
C191 H171 0.950 . S
C191 C187 1.385 . S
C191 C190 1.374 . S
C192 C189 1.499 . S
C192 C193 1.373 . S
C192 C194 1.389 . S
C193 H172 0.950 . S
C193 C192 1.373 . S
C193 C209 1.377 . S
C194 C192 1.389 . S
C194 C195 1.524 . S
C194 C208 1.377 . S
C195 C194 1.524 . S
C195 C196 1.397 . S
C195 C200 1.363 . S
C196 H173 0.950 . S
C196 C195 1.397 . S
C196 C197 1.334 . S
C197 H174 0.950 . S
C197 C196 1.334 . S
C197 C198 1.287 . S
C198 C197 1.287 . S
C198 C199 1.524 . S
C198 H217 0.913 . S
C199 H175 0.950 . S
C199 C198 1.524 . S
C199 C200 1.415 . S
C200 H176 0.950 . S
C200 C195 1.363 . S
C200 C199 1.415 . S
C201 H177 0.951 . S
C201 C202 1.366 . S
C201 C203 1.388 . S
C202 C201 1.366 . S
C202 C206 1.385 . S
C203 H178 0.951 . S
C203 C201 1.388 . S
C203 C204 1.366 . S
C204 C203 1.366 . S
C204 C205 1.414 . S
C204 C207 1.499 . S
C205 H179 0.950 . S
C205 C204 1.414 . S
C205 C206 1.374 . S
C206 H180 0.950 . S
C206 C202 1.385 . S
C206 C205 1.374 . S
C207 C204 1.499 . S
C207 C208 1.373 . S
C207 C209 1.389 . S
C208 H181 0.950 . S
C208 C194 1.377 . S
C208 C207 1.373 . S
C209 C193 1.377 . S
C209 C207 1.389 . S
C209 C210 1.524 . S
C210 C209 1.524 . S
C210 C211 1.397 . S
C210 C215 1.363 . S
C211 H182 0.950 . S
C211 C210 1.397 . S
C211 C212 1.334 . S
C212 H183 0.950 . S
C212 C211 1.334 . S
C212 C213 1.287 . S
C213 C212 1.287 . S
C213 C214 1.524 . S
C213 H216 0.999 . S
C214 H184 0.950 . S
C214 C213 1.524 . S
C214 C215 1.415 . S
C215 H185 0.950 . S
C215 C210 1.363 . S
C215 C214 1.415 . S
H216 C213 0.999 . S
H217 C198 0.913 . S
H218 C236 0.951 . S
H219 C238 0.951 . S
H220 C240 0.950 . S
H221 C241 0.950 . S
H222 C243 0.950 . S
H223 C246 0.950 . S
H224 C247 0.950 . S
H225 C249 0.950 . S
H226 C250 0.950 . S
H227 C251 0.951 . S
H228 C253 0.951 . S
H229 C255 0.950 . S
H230 C256 0.950 . S
H231 C258 0.950 . S
H232 C261 0.950 . S
H233 C262 0.950 . S
H234 C264 0.950 . S
H235 C265 0.950 . S
C236 H218 0.951 . S
C236 C237 1.366 . S
C236 C238 1.388 . S
C237 C236 1.366 . S
C237 C241 1.385 . S
C238 H219 0.951 . S
C238 C236 1.388 . S
C238 C239 1.366 . S
C239 C238 1.366 . S
C239 C240 1.414 . S
C239 C242 1.499 . S
C240 H220 0.950 . S
C240 C239 1.414 . S
C240 C241 1.374 . S
C241 H221 0.950 . S
C241 C237 1.385 . S
C241 C240 1.374 . S
C242 C239 1.499 . S
C242 C243 1.373 . S
C242 C244 1.389 . S
C243 H222 0.950 . S
C243 C242 1.373 . S
C243 C259 1.377 . S
C244 C242 1.389 . S
C244 C245 1.524 . S
C244 C258 1.377 . S
C245 C244 1.524 . S
C245 C246 1.397 . S
C245 C250 1.363 . S
C246 H223 0.950 . S
C246 C245 1.397 . S
C246 C247 1.334 . S
C247 H224 0.950 . S
C247 C246 1.334 . S
C247 C248 1.287 . S
C248 C247 1.287 . S
C248 C249 1.524 . S
C248 H267 0.913 . S
C249 H225 0.950 . S
C249 C248 1.524 . S
C249 C250 1.415 . S
C250 H226 0.950 . S
C250 C245 1.363 . S
C250 C249 1.415 . S
C251 H227 0.951 . S
C251 C252 1.366 . S
C251 C253 1.388 . S
C252 C251 1.366 . S
C252 C256 1.385 . S
C253 H228 0.951 . S
C253 C251 1.388 . S
C253 C254 1.366 . S
C254 C253 1.366 . S
C254 C255 1.414 . S
C254 C257 1.499 . S
C255 H229 0.950 . S
C255 C254 1.414 . S
C255 C256 1.374 . S
C256 H230 0.950 . S
C256 C252 1.385 . S
C256 C255 1.374 . S
C257 C254 1.499 . S
C257 C258 1.373 . S
C257 C259 1.389 . S
C258 H231 0.950 . S
C258 C244 1.377 . S
C258 C257 1.373 . S
C259 C243 1.377 . S
C259 C257 1.389 . S
C259 C260 1.524 . S
C260 C259 1.524 . S
C260 C261 1.397 . S
C260 C265 1.363 . S
C261 H232 0.950 . S
C261 C260 1.397 . S
C261 C262 1.334 . S
C262 H233 0.950 . S
C262 C261 1.334 . S
C262 C263 1.287 . S
C263 C262 1.287 . S
C263 C264 1.524 . S
C263 H266 0.999 . S
C264 H234 0.950 . S
C264 C263 1.524 . S
C264 C265 1.415 . S
C265 H235 0.950 . S
C265 C260 1.363 . S
C265 C264 1.415 . S
H266 C263 0.999 . S
H267 C248 0.913 . S
H268 C286 0.951 . S
H269 C288 0.951 . S
H270 C290 0.950 . S
H271 C291 0.950 . S
H272 C293 0.950 . S
H273 C296 0.950 . S
H274 C297 0.950 . S
H275 C299 0.950 . S
H276 C300 0.950 . S
H277 C301 0.951 . S
H278 C303 0.951 . S
H279 C305 0.950 . S
H280 C306 0.950 . S
H281 C308 0.950 . S
H282 C311 0.950 . S
H283 C312 0.950 . S
H284 C314 0.950 . S
H285 C315 0.950 . S
C286 H268 0.951 . S
C286 C287 1.366 . S
C286 C288 1.388 . S
C287 C286 1.366 . S
C287 C291 1.385 . S
C288 H269 0.951 . S
C288 C286 1.388 . S
C288 C289 1.366 . S
C289 C288 1.366 . S
C289 C290 1.414 . S
C289 C292 1.499 . S
C290 H270 0.950 . S
C290 C289 1.414 . S
C290 C291 1.374 . S
C291 H271 0.950 . S
C291 C287 1.385 . S
C291 C290 1.374 . S
C292 C289 1.499 . S
C292 C293 1.373 . S
C292 C294 1.389 . S
C293 H272 0.950 . S
C293 C292 1.373 . S
C293 C309 1.377 . S
C294 C292 1.389 . S
C294 C295 1.524 . S
C294 C308 1.377 . S
C295 C294 1.524 . S
C295 C296 1.397 . S
C295 C300 1.363 . S
C296 H273 0.950 . S
C296 C295 1.397 . S
C296 C297 1.334 . S
C297 H274 0.950 . S
C297 C296 1.334 . S
C297 C298 1.287 . S
C298 C297 1.287 . S
C298 C299 1.524 . S
C298 H317 0.913 1_554 S
C299 H275 0.950 . S
C299 C298 1.524 . S
C299 C300 1.415 . S
C300 H276 0.950 . S
C300 C295 1.363 . S
C300 C299 1.415 . S
C301 H277 0.951 . S
C301 C302 1.366 . S
C301 C303 1.388 . S
C302 C301 1.366 . S
C302 C306 1.385 . S
C303 H278 0.951 . S
C303 C301 1.388 . S
C303 C304 1.366 . S
C304 C303 1.366 . S
C304 C305 1.414 . S
C304 C307 1.499 . S
C305 H279 0.950 . S
C305 C304 1.414 . S
C305 C306 1.374 . S
C306 H280 0.950 . S
C306 C302 1.385 . S
C306 C305 1.374 . S
C307 C304 1.499 . S
C307 C308 1.373 . S
C307 C309 1.389 . S
C308 H281 0.950 . S
C308 C294 1.377 . S
C308 C307 1.373 . S
C309 C293 1.377 . S
C309 C307 1.389 . S
C309 C310 1.524 . S
C310 C309 1.524 . S
C310 C311 1.397 . S
C310 C315 1.363 . S
C311 H282 0.950 . S
C311 C310 1.397 . S
C311 C312 1.334 . S
C312 H283 0.950 . S
C312 C311 1.334 . S
C312 C313 1.287 . S
C313 C312 1.287 . S
C313 C314 1.524 . S
C313 H316 0.999 . S
C314 H284 0.950 . S
C314 C313 1.524 . S
C314 C315 1.415 . S
C315 H285 0.950 . S
C315 C310 1.363 . S
C315 C314 1.415 . S
H316 C313 0.999 . S
H317 C298 0.913 1_556 S
H318 C336 0.951 . S
H319 C338 0.951 . S
H320 C340 0.950 . S
H321 C341 0.950 . S
H322 C343 0.950 . S
H323 C346 0.950 . S
H324 C347 0.950 . S
H325 C349 0.950 . S
H326 C350 0.950 . S
H327 C351 0.951 . S
H328 C353 0.951 . S
H329 C355 0.950 . S
H330 C356 0.950 . S
H331 C358 0.950 . S
H332 C361 0.950 . S
H333 C362 0.950 . S
H334 C364 0.950 . S
H335 C365 0.950 . S
C336 H318 0.951 . S
C336 C337 1.366 . S
C336 C338 1.388 . S
C337 C336 1.366 . S
C337 C341 1.385 . S
C338 H319 0.951 . S
C338 C336 1.388 . S
C338 C339 1.366 . S
C339 C338 1.366 . S
C339 C340 1.414 . S
C339 C342 1.499 . S
C340 H320 0.950 . S
C340 C339 1.414 . S
C340 C341 1.374 . S
C341 H321 0.950 . S
C341 C337 1.385 . S
C341 C340 1.374 . S
C342 C339 1.499 . S
C342 C343 1.373 . S
C342 C344 1.389 . S
C343 H322 0.950 . S
C343 C342 1.373 . S
C343 C359 1.377 . S
C344 C342 1.389 . S
C344 C345 1.524 . S
C344 C358 1.377 . S
C345 C344 1.524 . S
C345 C346 1.397 . S
C345 C350 1.363 . S
C346 H323 0.950 . S
C346 C345 1.397 . S
C346 C347 1.334 . S
C347 H324 0.950 . S
C347 C346 1.334 . S
C347 C348 1.287 . S
C348 C347 1.287 . S
C348 C349 1.524 . S
C348 H367 0.913 . S
C349 H325 0.950 . S
C349 C348 1.524 . S
C349 C350 1.415 . S
C350 H326 0.950 . S
C350 C345 1.363 . S
C350 C349 1.415 . S
C351 H327 0.951 . S
C351 C352 1.366 . S
C351 C353 1.388 . S
C352 C351 1.366 . S
C352 C356 1.385 . S
C353 H328 0.951 . S
C353 C351 1.388 . S
C353 C354 1.366 . S
C354 C353 1.366 . S
C354 C355 1.414 . S
C354 C357 1.499 . S
C355 H329 0.950 . S
C355 C354 1.414 . S
C355 C356 1.374 . S
C356 H330 0.950 . S
C356 C352 1.385 . S
C356 C355 1.374 . S
C357 C354 1.499 . S
C357 C358 1.373 . S
C357 C359 1.389 . S
C358 H331 0.950 . S
C358 C344 1.377 . S
C358 C357 1.373 . S
C359 C343 1.377 . S
C359 C357 1.389 . S
C359 C360 1.524 . S
C360 C359 1.524 . S
C360 C361 1.397 . S
C360 C365 1.363 . S
C361 H332 0.950 . S
C361 C360 1.397 . S
C361 C362 1.334 . S
C362 H333 0.950 . S
C362 C361 1.334 . S
C362 C363 1.287 . S
C363 C362 1.287 . S
C363 C364 1.524 . S
C363 H366 0.999 . S
C364 H334 0.950 . S
C364 C363 1.524 . S
C364 C365 1.415 . S
C365 H335 0.950 . S
C365 C360 1.363 . S
C365 C364 1.415 . S
H366 C363 0.999 . S
H367 C348 0.913 . S
H368 C386 0.951 . S
H369 C388 0.951 . S
H370 C390 0.950 . S
H371 C391 0.950 . S
H372 C393 0.950 . S
H373 C396 0.950 . S
H374 C397 0.950 . S
H375 C399 0.950 . S
H376 C400 0.950 . S
H377 C401 0.951 . S
H378 C403 0.951 . S
H379 C405 0.950 . S
H380 C406 0.950 . S
H381 C408 0.950 . S
H382 C411 0.950 . S
H383 C412 0.950 . S
H384 C414 0.950 . S
H385 C415 0.950 . S
C386 H368 0.951 . S
C386 C387 1.366 . S
C386 C388 1.388 . S
C387 C386 1.366 . S
C387 C391 1.385 . S
C388 H369 0.951 . S
C388 C386 1.388 . S
C388 C389 1.366 . S
C389 C388 1.366 . S
C389 C390 1.414 . S
C389 C392 1.499 . S
C390 H370 0.950 . S
C390 C389 1.414 . S
C390 C391 1.374 . S
C391 H371 0.950 . S
C391 C387 1.385 . S
C391 C390 1.374 . S
C392 C389 1.499 . S
C392 C393 1.373 . S
C392 C394 1.389 . S
C393 H372 0.950 . S
C393 C392 1.373 . S
C393 C409 1.377 . S
C394 C392 1.389 . S
C394 C395 1.524 . S
C394 C408 1.377 . S
C395 C394 1.524 . S
C395 C396 1.397 . S
C395 C400 1.363 . S
C396 H373 0.950 . S
C396 C395 1.397 . S
C396 C397 1.334 . S
C397 H374 0.950 . S
C397 C396 1.334 . S
C397 C398 1.287 . S
C398 C397 1.287 . S
C398 C399 1.524 . S
C398 H417 0.913 . S
C399 H375 0.950 . S
C399 C398 1.524 . S
C399 C400 1.415 . S
C400 H376 0.950 . S
C400 C395 1.363 . S
C400 C399 1.415 . S
C401 H377 0.951 . S
C401 C402 1.366 . S
C401 C403 1.388 . S
C402 C401 1.366 . S
C402 C406 1.385 . S
C403 H378 0.951 . S
C403 C401 1.388 . S
C403 C404 1.366 . S
C404 C403 1.366 . S
C404 C405 1.414 . S
C404 C407 1.499 . S
C405 H379 0.950 . S
C405 C404 1.414 . S
C405 C406 1.374 . S
C406 H380 0.950 . S
C406 C402 1.385 . S
C406 C405 1.374 . S
C407 C404 1.499 . S
C407 C408 1.373 . S
C407 C409 1.389 . S
C408 H381 0.950 . S
C408 C394 1.377 . S
C408 C407 1.373 . S
C409 C393 1.377 . S
C409 C407 1.389 . S
C409 C410 1.524 . S
C410 C409 1.524 . S
C410 C411 1.397 . S
C410 C415 1.363 . S
C411 H382 0.950 . S
C411 C410 1.397 . S
C411 C412 1.334 . S
C412 H383 0.950 . S
C412 C411 1.334 . S
C412 C413 1.287 . S
C413 C412 1.287 . S
C413 C414 1.524 . S
C413 H416 0.999 . S
C414 H384 0.950 . S
C414 C413 1.524 . S
C414 C415 1.415 . S
C415 H385 0.950 . S
C415 C410 1.363 . S
C415 C414 1.415 . S
H416 C413 0.999 . S
H417 C398 0.913 . S
H418 C436 0.951 . S
H419 C438 0.951 . S
H420 C440 0.950 . S
H421 C441 0.950 . S
H422 C443 0.950 . S
H423 C446 0.950 . S
H424 C447 0.950 . S
H425 C449 0.950 . S
H426 C450 0.950 . S
H427 C451 0.951 . S
H428 C453 0.951 . S
H429 C455 0.950 . S
H430 C456 0.950 . S
H431 C458 0.950 . S
H432 C461 0.950 . S
H433 C462 0.950 . S
H434 C464 0.950 . S
H435 C465 0.950 . S
C436 H418 0.951 . S
C436 C437 1.366 . S
C436 C438 1.388 . S
C437 C436 1.366 . S
C437 C441 1.385 . S
C438 H419 0.951 . S
C438 C436 1.388 . S
C438 C439 1.366 . S
C439 C438 1.366 . S
C439 C440 1.414 . S
C439 C442 1.499 . S
C440 H420 0.950 . S
C440 C439 1.414 . S
C440 C441 1.374 . S
C441 H421 0.950 . S
C441 C437 1.385 . S
C441 C440 1.374 . S
C442 C439 1.499 . S
C442 C443 1.373 . S
C442 C444 1.389 . S
C443 H422 0.950 . S
C443 C442 1.373 . S
C443 C459 1.377 . S
C444 C442 1.389 . S
C444 C445 1.524 . S
C444 C458 1.377 . S
C445 C444 1.524 . S
C445 C446 1.397 . S
C445 C450 1.363 . S
C446 H423 0.950 . S
C446 C445 1.397 . S
C446 C447 1.334 . S
C447 H424 0.950 . S
C447 C446 1.334 . S
C447 C448 1.287 . S
C448 C447 1.287 . S
C448 C449 1.524 . S
C448 H467 0.913 . S
C449 H425 0.950 . S
C449 C448 1.524 . S
C449 C450 1.415 . S
C450 H426 0.950 . S
C450 C445 1.363 . S
C450 C449 1.415 . S
C451 H427 0.951 . S
C451 C452 1.366 . S
C451 C453 1.388 . S
C452 C451 1.366 . S
C452 C456 1.385 . S
C453 H428 0.951 . S
C453 C451 1.388 . S
C453 C454 1.366 . S
C454 C453 1.366 . S
C454 C455 1.414 . S
C454 C457 1.499 . S
C455 H429 0.950 . S
C455 C454 1.414 . S
C455 C456 1.374 . S
C456 H430 0.950 . S
C456 C452 1.385 . S
C456 C455 1.374 . S
C457 C454 1.499 . S
C457 C458 1.373 . S
C457 C459 1.389 . S
C458 H431 0.950 . S
C458 C444 1.377 . S
C458 C457 1.373 . S
C459 C443 1.377 . S
C459 C457 1.389 . S
C459 C460 1.524 . S
C460 C459 1.524 . S
C460 C461 1.397 . S
C460 C465 1.363 . S
C461 H432 0.950 . S
C461 C460 1.397 . S
C461 C462 1.334 . S
C462 H433 0.950 . S
C462 C461 1.334 . S
C462 C463 1.287 . S
C463 C462 1.287 . S
C463 C464 1.524 . S
C463 H466 0.999 . S
C464 H434 0.950 . S
C464 C463 1.524 . S
C464 C465 1.415 . S
C465 H435 0.950 . S
C465 C460 1.363 . S
C465 C464 1.415 . S
H466 C463 0.999 . S
H467 C448 0.913 . S
H468 C486 0.951 . S
H469 C488 0.951 . S
H470 C490 0.950 . S
H471 C491 0.950 . S
H472 C493 0.950 . S
H473 C496 0.950 . S
H474 C497 0.950 . S
H475 C499 0.950 . S
H476 C500 0.950 . S
H477 C501 0.951 . S
H478 C503 0.951 . S
H479 C505 0.950 . S
H480 C506 0.950 . S
H481 C508 0.950 . S
H482 C511 0.950 . S
H483 C512 0.950 . S
H484 C514 0.950 1_545 S
H485 C515 0.950 . S
C486 H468 0.951 . S
C486 C487 1.366 . S
C486 C488 1.388 . S
C487 C486 1.366 . S
C487 C491 1.385 . S
C488 H469 0.951 . S
C488 C486 1.388 . S
C488 C489 1.366 . S
C489 C488 1.366 . S
C489 C490 1.414 . S
C489 C492 1.499 . S
C490 H470 0.950 . S
C490 C489 1.414 . S
C490 C491 1.374 . S
C491 H471 0.950 . S
C491 C487 1.385 . S
C491 C490 1.374 . S
C492 C489 1.499 . S
C492 C493 1.373 . S
C492 C494 1.389 . S
C493 H472 0.950 . S
C493 C492 1.373 . S
C493 C509 1.377 . S
C494 C492 1.389 . S
C494 C495 1.524 . S
C494 C508 1.377 . S
C495 C494 1.524 . S
C495 C496 1.397 . S
C495 C500 1.363 . S
C496 H473 0.950 . S
C496 C495 1.397 . S
C496 C497 1.334 . S
C497 H474 0.950 . S
C497 C496 1.334 . S
C497 C498 1.287 . S
C498 C497 1.287 . S
C498 C499 1.524 . S
C498 H517 0.913 . S
C499 H475 0.950 . S
C499 C498 1.524 . S
C499 C500 1.415 . S
C500 H476 0.950 . S
C500 C495 1.363 . S
C500 C499 1.415 . S
C501 H477 0.951 . S
C501 C502 1.366 . S
C501 C503 1.388 . S
C502 C501 1.366 . S
C502 C506 1.385 . S
C503 H478 0.951 . S
C503 C501 1.388 . S
C503 C504 1.366 . S
C504 C503 1.366 . S
C504 C505 1.414 . S
C504 C507 1.499 . S
C505 H479 0.950 . S
C505 C504 1.414 . S
C505 C506 1.374 . S
C506 H480 0.950 . S
C506 C502 1.385 . S
C506 C505 1.374 . S
C507 C504 1.499 . S
C507 C508 1.373 . S
C507 C509 1.389 . S
C508 H481 0.950 . S
C508 C494 1.377 . S
C508 C507 1.373 . S
C509 C493 1.377 . S
C509 C507 1.389 . S
C509 C510 1.524 . S
C510 C509 1.524 . S
C510 C511 1.397 . S
C510 C515 1.363 . S
C511 H482 0.950 . S
C511 C510 1.397 . S
C511 C512 1.334 . S
C512 H483 0.950 . S
C512 C511 1.334 . S
C512 C513 1.287 . S
C513 C512 1.287 . S
C513 C514 1.524 . S
C513 H516 0.999 . S
C514 H484 0.950 1_565 S
C514 C513 1.524 . S
C514 C515 1.415 . S
C515 H485 0.950 . S
C515 C510 1.363 . S
C515 C514 1.415 . S
H516 C513 0.999 . S
H517 C498 0.913 . S
H518 C536 0.951 . S
H519 C538 0.951 . S
H520 C540 0.950 . S
H521 C541 0.950 . S
H522 C543 0.950 . S
H523 C546 0.950 . S
H524 C547 0.950 . S
H525 C549 0.950 . S
H526 C550 0.950 . S
H527 C551 0.951 . S
H528 C553 0.951 . S
H529 C555 0.950 . S
H530 C556 0.950 . S
H531 C558 0.950 . S
H532 C561 0.950 . S
H533 C562 0.950 . S
H534 C564 0.950 . S
H535 C565 0.950 . S
C536 H518 0.951 . S
C536 C537 1.366 . S
C536 C538 1.388 . S
C537 C536 1.366 . S
C537 C541 1.385 . S
C538 H519 0.951 . S
C538 C536 1.388 . S
C538 C539 1.366 . S
C539 C538 1.366 . S
C539 C540 1.414 . S
C539 C542 1.499 . S
C540 H520 0.950 . S
C540 C539 1.414 . S
C540 C541 1.374 . S
C541 H521 0.950 . S
C541 C537 1.385 . S
C541 C540 1.374 . S
C542 C539 1.499 . S
C542 C543 1.373 . S
C542 C544 1.389 . S
C543 H522 0.950 . S
C543 C542 1.373 . S
C543 C559 1.377 . S
C544 C542 1.389 . S
C544 C545 1.524 . S
C544 C558 1.377 . S
C545 C544 1.524 . S
C545 C546 1.397 . S
C545 C550 1.363 . S
C546 H523 0.950 . S
C546 C545 1.397 . S
C546 C547 1.334 . S
C547 H524 0.950 . S
C547 C546 1.334 . S
C547 C548 1.287 . S
C548 C547 1.287 . S
C548 C549 1.524 . S
C548 H567 0.913 . S
C549 H525 0.950 . S
C549 C548 1.524 . S
C549 C550 1.415 . S
C550 H526 0.950 . S
C550 C545 1.363 . S
C550 C549 1.415 . S
C551 H527 0.951 . S
C551 C552 1.366 . S
C551 C553 1.388 . S
C552 C551 1.366 . S
C552 C556 1.385 . S
C553 H528 0.951 . S
C553 C551 1.388 . S
C553 C554 1.366 . S
C554 C553 1.366 . S
C554 C555 1.414 . S
C554 C557 1.499 . S
C555 H529 0.950 . S
C555 C554 1.414 . S
C555 C556 1.374 . S
C556 H530 0.950 . S
C556 C552 1.385 . S
C556 C555 1.374 . S
C557 C554 1.499 . S
C557 C558 1.373 . S
C557 C559 1.389 . S
C558 H531 0.950 . S
C558 C544 1.377 . S
C558 C557 1.373 . S
C559 C543 1.377 . S
C559 C557 1.389 . S
C559 C560 1.524 . S
C560 C559 1.524 . S
C560 C561 1.397 . S
C560 C565 1.363 . S
C561 H532 0.950 . S
C561 C560 1.397 . S
C561 C562 1.334 . S
C562 H533 0.950 . S
C562 C561 1.334 . S
C562 C563 1.287 . S
C563 C562 1.287 . S
C563 C564 1.524 . S
C563 H566 0.999 . S
C564 H534 0.950 . S
C564 C563 1.524 . S
C564 C565 1.415 . S
C565 H535 0.950 . S
C565 C560 1.363 . S
C565 C564 1.415 . S
H566 C563 0.999 . S
H567 C548 0.913 . S
H568 C586 0.951 . S
H569 C588 0.951 . S
H570 C590 0.950 . S
H571 C591 0.950 . S
H572 C593 0.950 . S
H573 C596 0.950 . S
H574 C597 0.950 . S
H575 C599 0.950 . S
H576 C600 0.950 . S
H577 C601 0.951 . S
H578 C603 0.951 . S
H579 C605 0.950 . S
H580 C606 0.950 . S
H581 C608 0.950 . S
H582 C611 0.950 . S
H583 C612 0.950 . S
H584 C614 0.950 . S
H585 C615 0.950 . S
C586 H568 0.951 . S
C586 C587 1.366 . S
C586 C588 1.388 . S
C587 C586 1.366 . S
C587 C591 1.385 . S
C588 H569 0.951 . S
C588 C586 1.388 . S
C588 C589 1.366 . S
C589 C588 1.366 . S
C589 C590 1.414 . S
C589 C592 1.499 . S
C590 H570 0.950 . S
C590 C589 1.414 . S
C590 C591 1.374 . S
C591 H571 0.950 . S
C591 C587 1.385 . S
C591 C590 1.374 . S
C592 C589 1.499 . S
C592 C593 1.373 . S
C592 C594 1.389 . S
C593 H572 0.950 . S
C593 C592 1.373 . S
C593 C609 1.377 . S
C594 C592 1.389 . S
C594 C595 1.524 . S
C594 C608 1.377 . S
C595 C594 1.524 . S
C595 C596 1.397 . S
C595 C600 1.363 . S
C596 H573 0.950 . S
C596 C595 1.397 . S
C596 C597 1.334 1_455 S
C597 H574 0.950 . S
C597 C596 1.334 1_655 S
C597 C598 1.287 . S
C598 C597 1.287 . S
C598 C599 1.524 . S
C598 H617 0.913 . S
C599 H575 0.950 . S
C599 C598 1.524 . S
C599 C600 1.415 1_655 S
C600 H576 0.950 . S
C600 C595 1.363 . S
C600 C599 1.415 1_455 S
C601 H577 0.951 . S
C601 C602 1.366 . S
C601 C603 1.388 . S
C602 C601 1.366 . S
C602 C606 1.385 . S
C603 H578 0.951 . S
C603 C601 1.388 . S
C603 C604 1.366 . S
C604 C603 1.366 . S
C604 C605 1.414 . S
C604 C607 1.499 . S
C605 H579 0.950 . S
C605 C604 1.414 . S
C605 C606 1.374 . S
C606 H580 0.950 . S
C606 C602 1.385 . S
C606 C605 1.374 . S
C607 C604 1.499 . S
C607 C608 1.373 . S
C607 C609 1.389 . S
C608 H581 0.950 . S
C608 C594 1.377 . S
C608 C607 1.373 . S
C609 C593 1.377 . S
C609 C607 1.389 . S
C609 C610 1.524 . S
C610 C609 1.524 . S
C610 C611 1.397 . S
C610 C615 1.363 . S
C611 H582 0.950 . S
C611 C610 1.397 . S
C611 C612 1.334 . S
C612 H583 0.950 . S
C612 C611 1.334 . S
C612 C613 1.287 . S
C613 C612 1.287 . S
C613 C614 1.524 . S
C613 H616 0.999 . S
C614 H584 0.950 . S
C614 C613 1.524 . S
C614 C615 1.415 . S
C615 H585 0.950 . S
C615 C610 1.363 . S
C615 C614 1.415 . S
H616 C613 0.999 . S
H617 C598 0.913 . S
H618 C636 0.951 . S
H619 C638 0.951 . S
H620 C640 0.950 . S
H621 C641 0.950 . S
H622 C643 0.950 . S
H623 C646 0.950 . S
H624 C647 0.950 . S
H625 C649 0.950 . S
H626 C650 0.950 . S
H627 C651 0.951 . S
H628 C653 0.951 . S
H629 C655 0.950 . S
H630 C656 0.950 . S
H631 C658 0.950 . S
H632 C661 0.950 . S
H633 C662 0.950 . S
H634 C664 0.950 . S
H635 C665 0.950 . S
C636 H618 0.951 . S
C636 C637 1.366 . S
C636 C638 1.388 . S
C637 C636 1.366 . S
C637 C641 1.385 . S
C638 H619 0.951 . S
C638 C636 1.388 . S
C638 C639 1.366 . S
C639 C638 1.366 . S
C639 C640 1.414 . S
C639 C642 1.499 . S
C640 H620 0.950 . S
C640 C639 1.414 . S
C640 C641 1.374 . S
C641 H621 0.950 . S
C641 C637 1.385 . S
C641 C640 1.374 . S
C642 C639 1.499 . S
C642 C643 1.373 . S
C642 C644 1.389 . S
C643 H622 0.950 . S
C643 C642 1.373 . S
C643 C659 1.377 . S
C644 C642 1.389 . S
C644 C645 1.524 . S
C644 C658 1.377 . S
C645 C644 1.524 . S
C645 C646 1.397 . S
C645 C650 1.363 . S
C646 H623 0.950 . S
C646 C645 1.397 . S
C646 C647 1.334 . S
C647 H624 0.950 . S
C647 C646 1.334 . S
C647 C648 1.287 . S
C648 C647 1.287 . S
C648 C649 1.524 . S
C648 H667 0.913 . S
C649 H625 0.950 . S
C649 C648 1.524 . S
C649 C650 1.415 . S
C650 H626 0.950 . S
C650 C645 1.363 . S
C650 C649 1.415 . S
C651 H627 0.951 . S
C651 C652 1.366 . S
C651 C653 1.388 . S
C652 C651 1.366 . S
C652 C656 1.385 . S
C653 H628 0.951 . S
C653 C651 1.388 . S
C653 C654 1.366 . S
C654 C653 1.366 . S
C654 C655 1.414 . S
C654 C657 1.499 . S
C655 H629 0.950 . S
C655 C654 1.414 . S
C655 C656 1.374 . S
C656 H630 0.950 . S
C656 C652 1.385 . S
C656 C655 1.374 . S
C657 C654 1.499 . S
C657 C658 1.373 . S
C657 C659 1.389 . S
C658 H631 0.950 . S
C658 C644 1.377 . S
C658 C657 1.373 . S
C659 C643 1.377 . S
C659 C657 1.389 . S
C659 C660 1.524 . S
C660 C659 1.524 . S
C660 C661 1.397 . S
C660 C665 1.363 . S
C661 H632 0.950 . S
C661 C660 1.397 . S
C661 C662 1.334 . S
C662 H633 0.950 . S
C662 C661 1.334 . S
C662 C663 1.287 . S
C663 C662 1.287 . S
C663 C664 1.524 . S
C663 H666 0.999 . S
C664 H634 0.950 . S
C664 C663 1.524 . S
C664 C665 1.415 . S
C665 H635 0.950 . S
C665 C660 1.363 . S
C665 C664 1.415 . S
H666 C663 0.999 . S
H667 C648 0.913 . S
H668 C686 0.951 . S
H669 C688 0.951 . S
H670 C690 0.950 . S
H671 C691 0.950 . S
H672 C693 0.950 . S
H673 C696 0.950 . S
H674 C697 0.950 . S
H675 C699 0.950 . S
H676 C700 0.950 . S
H677 C701 0.951 . S
H678 C703 0.951 . S
H679 C705 0.950 . S
H680 C706 0.950 . S
H681 C708 0.950 . S
H682 C711 0.950 . S
H683 C712 0.950 . S
H684 C714 0.950 . S
H685 C715 0.950 . S
C686 H668 0.951 . S
C686 C687 1.366 . S
C686 C688 1.388 . S
C687 C686 1.366 . S
C687 C691 1.385 . S
C688 H669 0.951 . S
C688 C686 1.388 . S
C688 C689 1.366 . S
C689 C688 1.366 . S
C689 C690 1.414 . S
C689 C692 1.499 . S
C690 H670 0.950 . S
C690 C689 1.414 . S
C690 C691 1.374 . S
C691 H671 0.950 . S
C691 C687 1.385 . S
C691 C690 1.374 . S
C692 C689 1.499 . S
C692 C693 1.373 . S
C692 C694 1.389 . S
C693 H672 0.950 . S
C693 C692 1.373 . S
C693 C709 1.377 . S
C694 C692 1.389 . S
C694 C695 1.524 . S
C694 C708 1.377 . S
C695 C694 1.524 . S
C695 C696 1.397 . S
C695 C700 1.363 . S
C696 H673 0.950 . S
C696 C695 1.397 . S
C696 C697 1.334 . S
C697 H674 0.950 . S
C697 C696 1.334 . S
C697 C698 1.287 . S
C698 C697 1.287 . S
C698 C699 1.524 . S
C698 H717 0.913 . S
C699 H675 0.950 . S
C699 C698 1.524 . S
C699 C700 1.415 . S
C700 H676 0.950 . S
C700 C695 1.363 . S
C700 C699 1.415 . S
C701 H677 0.951 . S
C701 C702 1.366 . S
C701 C703 1.388 . S
C702 C701 1.366 . S
C702 C706 1.385 . S
C703 H678 0.951 . S
C703 C701 1.388 . S
C703 C704 1.366 . S
C704 C703 1.366 . S
C704 C705 1.414 . S
C704 C707 1.499 . S
C705 H679 0.950 . S
C705 C704 1.414 . S
C705 C706 1.374 . S
C706 H680 0.950 . S
C706 C702 1.385 . S
C706 C705 1.374 . S
C707 C704 1.499 . S
C707 C708 1.373 . S
C707 C709 1.389 . S
C708 H681 0.950 . S
C708 C694 1.377 . S
C708 C707 1.373 . S
C709 C693 1.377 . S
C709 C707 1.389 . S
C709 C710 1.524 . S
C710 C709 1.524 . S
C710 C711 1.397 . S
C710 C715 1.363 . S
C711 H682 0.950 . S
C711 C710 1.397 . S
C711 C712 1.334 . S
C712 H683 0.950 . S
C712 C711 1.334 . S
C712 C713 1.287 . S
C713 C712 1.287 . S
C713 C714 1.524 . S
C713 H716 0.999 . S
C714 H684 0.950 . S
C714 C713 1.524 . S
C714 C715 1.415 . S
C715 H685 0.950 . S
C715 C710 1.363 . S
C715 C714 1.415 . S
H716 C713 0.999 . S
H717 C698 0.913 . S
H718 C736 0.951 . S
H719 C738 0.951 . S
H720 C740 0.950 . S
H721 C741 0.950 . S
H722 C743 0.950 . S
H723 C746 0.950 . S
H724 C747 0.950 1_455 S
H725 C749 0.950 . S
H726 C750 0.950 . S
H727 C751 0.951 . S
H728 C753 0.951 . S
H729 C755 0.950 . S
H730 C756 0.950 . S
H731 C758 0.950 . S
H732 C761 0.950 . S
H733 C762 0.950 . S
H734 C764 0.950 . S
H735 C765 0.950 . S
C736 H718 0.951 . S
C736 C737 1.366 . S
C736 C738 1.388 . S
C737 C736 1.366 . S
C737 C741 1.385 . S
C738 H719 0.951 . S
C738 C736 1.388 . S
C738 C739 1.366 . S
C739 C738 1.366 . S
C739 C740 1.414 . S
C739 C742 1.499 . S
C740 H720 0.950 . S
C740 C739 1.414 . S
C740 C741 1.374 . S
C741 H721 0.950 . S
C741 C737 1.385 . S
C741 C740 1.374 . S
C742 C739 1.499 . S
C742 C743 1.373 . S
C742 C744 1.389 . S
C743 H722 0.950 . S
C743 C742 1.373 . S
C743 C759 1.377 . S
C744 C742 1.389 . S
C744 C745 1.524 . S
C744 C758 1.377 . S
C745 C744 1.524 . S
C745 C746 1.397 . S
C745 C750 1.363 . S
C746 H723 0.950 . S
C746 C745 1.397 . S
C746 C747 1.334 . S
C747 H724 0.950 1_655 S
C747 C746 1.334 . S
C747 C748 1.287 . S
C748 C747 1.287 . S
C748 C749 1.524 . S
C748 H767 0.913 . S
C749 H725 0.950 . S
C749 C748 1.524 . S
C749 C750 1.415 . S
C750 H726 0.950 . S
C750 C745 1.363 . S
C750 C749 1.415 . S
C751 H727 0.951 . S
C751 C752 1.366 . S
C751 C753 1.388 . S
C752 C751 1.366 . S
C752 C756 1.385 . S
C753 H728 0.951 . S
C753 C751 1.388 . S
C753 C754 1.366 . S
C754 C753 1.366 . S
C754 C755 1.414 . S
C754 C757 1.499 . S
C755 H729 0.950 . S
C755 C754 1.414 . S
C755 C756 1.374 . S
C756 H730 0.950 . S
C756 C752 1.385 . S
C756 C755 1.374 . S
C757 C754 1.499 . S
C757 C758 1.373 . S
C757 C759 1.389 . S
C758 H731 0.950 . S
C758 C744 1.377 . S
C758 C757 1.373 . S
C759 C743 1.377 . S
C759 C757 1.389 . S
C759 C760 1.524 . S
C760 C759 1.524 . S
C760 C761 1.397 . S
C760 C765 1.363 . S
C761 H732 0.950 . S
C761 C760 1.397 . S
C761 C762 1.334 . S
C762 H733 0.950 . S
C762 C761 1.334 . S
C762 C763 1.287 . S
C763 C762 1.287 . S
C763 C764 1.524 . S
C763 H766 0.999 . S
C764 H734 0.950 . S
C764 C763 1.524 . S
C764 C765 1.415 . S
C765 H735 0.950 . S
C765 C760 1.363 . S
C765 C764 1.415 . S
H766 C763 0.999 . S
H767 C748 0.913 . S
H768 C786 0.951 . S
H769 C788 0.951 . S
H770 C790 0.950 . S
H771 C791 0.950 . S
H772 C793 0.950 . S
H773 C796 0.950 . S
H774 C797 0.950 . S
H775 C799 0.950 . S
H776 C800 0.950 . S
H777 C801 0.951 . S
H778 C803 0.951 . S
H779 C805 0.950 . S
H780 C806 0.950 . S
H781 C808 0.950 . S
H782 C811 0.950 . S
H783 C812 0.950 . S
H784 C814 0.950 . S
H785 C815 0.950 . S
C786 H768 0.951 . S
C786 C787 1.366 . S
C786 C788 1.388 . S
C787 C786 1.366 . S
C787 C791 1.385 . S
C788 H769 0.951 . S
C788 C786 1.388 . S
C788 C789 1.366 . S
C789 C788 1.366 . S
C789 C790 1.414 . S
C789 C792 1.499 . S
C790 H770 0.950 . S
C790 C789 1.414 . S
C790 C791 1.374 . S
C791 H771 0.950 . S
C791 C787 1.385 . S
C791 C790 1.374 . S
C792 C789 1.499 . S
C792 C793 1.373 . S
C792 C794 1.389 . S
C793 H772 0.950 . S
C793 C792 1.373 . S
C793 C809 1.377 . S
C794 C792 1.389 . S
C794 C795 1.524 . S
C794 C808 1.377 . S
C795 C794 1.524 . S
C795 C796 1.397 . S
C795 C800 1.363 . S
C796 H773 0.950 . S
C796 C795 1.397 . S
C796 C797 1.334 . S
C797 H774 0.950 . S
C797 C796 1.334 . S
C797 C798 1.287 . S
C798 C797 1.287 . S
C798 C799 1.524 . S
C798 H817 0.913 . S
C799 H775 0.950 . S
C799 C798 1.524 . S
C799 C800 1.415 . S
C800 H776 0.950 . S
C800 C795 1.363 . S
C800 C799 1.415 . S
C801 H777 0.951 . S
C801 C802 1.366 . S
C801 C803 1.388 . S
C802 C801 1.366 . S
C802 C806 1.385 . S
C803 H778 0.951 . S
C803 C801 1.388 . S
C803 C804 1.366 . S
C804 C803 1.366 . S
C804 C805 1.414 . S
C804 C807 1.499 . S
C805 H779 0.950 . S
C805 C804 1.414 . S
C805 C806 1.374 . S
C806 H780 0.950 . S
C806 C802 1.385 . S
C806 C805 1.374 . S
C807 C804 1.499 . S
C807 C808 1.373 . S
C807 C809 1.389 . S
C808 H781 0.950 . S
C808 C794 1.377 . S
C808 C807 1.373 . S
C809 C793 1.377 . S
C809 C807 1.389 . S
C809 C810 1.524 . S
C810 C809 1.524 . S
C810 C811 1.397 . S
C810 C815 1.363 . S
C811 H782 0.950 . S
C811 C810 1.397 . S
C811 C812 1.334 . S
C812 H783 0.950 . S
C812 C811 1.334 . S
C812 C813 1.287 . S
C813 C812 1.287 . S
C813 C814 1.524 . S
C813 H816 0.999 . S
C814 H784 0.950 . S
C814 C813 1.524 . S
C814 C815 1.415 . S
C815 H785 0.950 . S
C815 C810 1.363 . S
C815 C814 1.415 . S
H816 C813 0.999 . S
H817 C798 0.913 . S
H818 C836 0.951 . S
H819 C838 0.951 . S
H820 C840 0.950 . S
H821 C841 0.950 . S
H822 C843 0.950 . S
H823 C846 0.950 . S
H824 C847 0.950 . S
H825 C849 0.950 . S
H826 C850 0.950 . S
H827 C851 0.951 . S
H828 C853 0.951 . S
H829 C855 0.950 . S
H830 C856 0.950 . S
H831 C858 0.950 . S
H832 C861 0.950 . S
H833 C862 0.950 . S
H834 C864 0.950 . S
H835 C865 0.950 . S
C836 H818 0.951 . S
C836 C837 1.366 . S
C836 C838 1.388 . S
C837 C836 1.366 . S
C837 C841 1.385 . S
C838 H819 0.951 . S
C838 C836 1.388 . S
C838 C839 1.366 . S
C839 C838 1.366 . S
C839 C840 1.414 . S
C839 C842 1.499 . S
C840 H820 0.950 . S
C840 C839 1.414 . S
C840 C841 1.374 . S
C841 H821 0.950 . S
C841 C837 1.385 . S
C841 C840 1.374 . S
C842 C839 1.499 . S
C842 C843 1.373 . S
C842 C844 1.389 . S
C843 H822 0.950 . S
C843 C842 1.373 . S
C843 C859 1.377 . S
C844 C842 1.389 . S
C844 C845 1.524 . S
C844 C858 1.377 . S
C845 C844 1.524 . S
C845 C846 1.397 . S
C845 C850 1.363 . S
C846 H823 0.950 . S
C846 C845 1.397 . S
C846 C847 1.334 . S
C847 H824 0.950 . S
C847 C846 1.334 . S
C847 C848 1.287 . S
C848 C847 1.287 . S
C848 C849 1.524 . S
C848 H867 0.913 . S
C849 H825 0.950 . S
C849 C848 1.524 . S
C849 C850 1.415 . S
C850 H826 0.950 . S
C850 C845 1.363 . S
C850 C849 1.415 . S
C851 H827 0.951 . S
C851 C852 1.366 . S
C851 C853 1.388 . S
C852 C851 1.366 . S
C852 C856 1.385 . S
C853 H828 0.951 . S
C853 C851 1.388 . S
C853 C854 1.366 . S
C854 C853 1.366 . S
C854 C855 1.414 . S
C854 C857 1.499 . S
C855 H829 0.950 . S
C855 C854 1.414 . S
C855 C856 1.374 . S
C856 H830 0.950 . S
C856 C852 1.385 . S
C856 C855 1.374 . S
C857 C854 1.499 . S
C857 C858 1.373 . S
C857 C859 1.389 . S
C858 H831 0.950 . S
C858 C844 1.377 . S
C858 C857 1.373 . S
C859 C843 1.377 . S
C859 C857 1.389 . S
C859 C860 1.524 . S
C860 C859 1.524 . S
C860 C861 1.397 . S
C860 C865 1.363 . S
C861 H832 0.950 . S
C861 C860 1.397 . S
C861 C862 1.334 . S
C862 H833 0.950 . S
C862 C861 1.334 . S
C862 C863 1.287 . S
C863 C862 1.287 . S
C863 C864 1.524 . S
C863 H866 0.999 . S
C864 H834 0.950 . S
C864 C863 1.524 . S
C864 C865 1.415 . S
C865 H835 0.950 . S
C865 C860 1.363 . S
C865 C864 1.415 . S
H866 C863 0.999 . S
H867 C848 0.913 . S
H868 C886 0.951 . S
H869 C888 0.951 . S
H870 C890 0.950 . S
H871 C891 0.950 . S
H872 C893 0.950 . S
H873 C896 0.950 . S
H874 C897 0.950 . S
H875 C899 0.950 . S
H876 C900 0.950 . S
H877 C901 0.951 . S
H878 C903 0.951 . S
H879 C905 0.950 . S
H880 C906 0.950 . S
H881 C908 0.950 . S
H882 C911 0.950 . S
H883 C912 0.950 . S
H884 C914 0.950 . S
H885 C915 0.950 . S
C886 H868 0.951 . S
C886 C887 1.366 . S
C886 C888 1.388 . S
C887 C886 1.366 . S
C887 C891 1.385 . S
C888 H869 0.951 . S
C888 C886 1.388 . S
C888 C889 1.366 . S
C889 C888 1.366 . S
C889 C890 1.414 . S
C889 C892 1.499 . S
C890 H870 0.950 . S
C890 C889 1.414 . S
C890 C891 1.374 . S
C891 H871 0.950 . S
C891 C887 1.385 . S
C891 C890 1.374 . S
C892 C889 1.499 . S
C892 C893 1.373 . S
C892 C894 1.389 . S
C893 H872 0.950 . S
C893 C892 1.373 . S
C893 C909 1.377 . S
C894 C892 1.389 . S
C894 C895 1.524 . S
C894 C908 1.377 . S
C895 C894 1.524 . S
C895 C896 1.397 . S
C895 C900 1.363 . S
C896 H873 0.950 . S
C896 C895 1.397 . S
C896 C897 1.334 . S
C897 H874 0.950 . S
C897 C896 1.334 . S
C897 C898 1.287 . S
C898 C897 1.287 . S
C898 C899 1.524 . S
C898 H917 0.913 1_556 S
C899 H875 0.950 . S
C899 C898 1.524 . S
C899 C900 1.415 . S
C900 H876 0.950 . S
C900 C895 1.363 . S
C900 C899 1.415 . S
C901 H877 0.951 . S
C901 C902 1.366 . S
C901 C903 1.388 . S
C902 C901 1.366 . S
C902 C906 1.385 . S
C903 H878 0.951 . S
C903 C901 1.388 . S
C903 C904 1.366 . S
C904 C903 1.366 . S
C904 C905 1.414 . S
C904 C907 1.499 . S
C905 H879 0.950 . S
C905 C904 1.414 . S
C905 C906 1.374 . S
C906 H880 0.950 . S
C906 C902 1.385 . S
C906 C905 1.374 . S
C907 C904 1.499 . S
C907 C908 1.373 . S
C907 C909 1.389 . S
C908 H881 0.950 . S
C908 C894 1.377 . S
C908 C907 1.373 . S
C909 C893 1.377 . S
C909 C907 1.389 . S
C909 C910 1.524 . S
C910 C909 1.524 . S
C910 C911 1.397 . S
C910 C915 1.363 . S
C911 H882 0.950 . S
C911 C910 1.397 . S
C911 C912 1.334 . S
C912 H883 0.950 . S
C912 C911 1.334 . S
C912 C913 1.287 . S
C913 C912 1.287 . S
C913 C914 1.524 . S
C913 H916 0.999 . S
C914 H884 0.950 . S
C914 C913 1.524 . S
C914 C915 1.415 . S
C915 H885 0.950 . S
C915 C910 1.363 . S
C915 C914 1.415 . S
H916 C913 0.999 . S
H917 C898 0.913 1_554 S
H918 C936 0.951 . S
H919 C938 0.951 . S
H920 C940 0.950 . S
H921 C941 0.950 . S
H922 C943 0.950 . S
H923 C946 0.950 . S
H924 C947 0.950 1_655 S
H925 C949 0.950 . S
H926 C950 0.950 . S
H927 C951 0.951 . S
H928 C953 0.951 . S
H929 C955 0.950 . S
H930 C956 0.950 . S
H931 C958 0.950 . S
H932 C961 0.950 . S
H933 C962 0.950 . S
H934 C964 0.950 . S
H935 C965 0.950 . S
C936 H918 0.951 . S
C936 C937 1.366 . S
C936 C938 1.388 . S
C937 C936 1.366 . S
C937 C941 1.385 . S
C938 H919 0.951 . S
C938 C936 1.388 . S
C938 C939 1.366 . S
C939 C938 1.366 . S
C939 C940 1.414 . S
C939 C942 1.499 . S
C940 H920 0.950 . S
C940 C939 1.414 . S
C940 C941 1.374 . S
C941 H921 0.950 . S
C941 C937 1.385 . S
C941 C940 1.374 . S
C942 C939 1.499 . S
C942 C943 1.373 . S
C942 C944 1.389 . S
C943 H922 0.950 . S
C943 C942 1.373 . S
C943 C959 1.377 . S
C944 C942 1.389 . S
C944 C945 1.524 . S
C944 C958 1.377 . S
C945 C944 1.524 . S
C945 C946 1.397 . S
C945 C950 1.363 . S
C946 H923 0.950 . S
C946 C945 1.397 . S
C946 C947 1.334 . S
C947 H924 0.950 1_455 S
C947 C946 1.334 . S
C947 C948 1.287 . S
C948 C947 1.287 . S
C948 C949 1.524 . S
C948 H967 0.913 1_455 S
C949 H925 0.950 . S
C949 C948 1.524 . S
C949 C950 1.415 . S
C950 H926 0.950 . S
C950 C945 1.363 . S
C950 C949 1.415 . S
C951 H927 0.951 . S
C951 C952 1.366 . S
C951 C953 1.388 . S
C952 C951 1.366 . S
C952 C956 1.385 . S
C953 H928 0.951 . S
C953 C951 1.388 . S
C953 C954 1.366 . S
C954 C953 1.366 . S
C954 C955 1.414 . S
C954 C957 1.499 . S
C955 H929 0.950 . S
C955 C954 1.414 . S
C955 C956 1.374 . S
C956 H930 0.950 . S
C956 C952 1.385 . S
C956 C955 1.374 . S
C957 C954 1.499 . S
C957 C958 1.373 . S
C957 C959 1.389 . S
C958 H931 0.950 . S
C958 C944 1.377 . S
C958 C957 1.373 . S
C959 C943 1.377 . S
C959 C957 1.389 . S
C959 C960 1.524 . S
C960 C959 1.524 . S
C960 C961 1.397 . S
C960 C965 1.363 . S
C961 H932 0.950 . S
C961 C960 1.397 . S
C961 C962 1.334 . S
C962 H933 0.950 . S
C962 C961 1.334 . S
C962 C963 1.287 . S
C963 C962 1.287 . S
C963 C964 1.524 . S
C963 H966 0.999 . S
C964 H934 0.950 . S
C964 C963 1.524 . S
C964 C965 1.415 . S
C965 H935 0.950 . S
C965 C960 1.363 . S
C965 C964 1.415 . S
H966 C963 0.999 . S
H967 C948 0.913 1_655 S
H968 C986 0.951 . S
H969 C988 0.951 . S
H970 C990 0.950 . S
H971 C991 0.950 . S
H972 C993 0.950 . S
H973 C996 0.950 . S
H974 C997 0.950 . S
H975 C999 0.950 . S
H976 C1000 0.950 . S
H977 C1001 0.951 . S
H978 C1003 0.951 . S
H979 C1005 0.950 . S
H980 C1006 0.950 . S
H981 C1008 0.950 . S
H982 C1011 0.950 . S
H983 C1012 0.950 . S
H984 C1014 0.950 1_565 S
H985 C1015 0.950 . S
C986 H968 0.951 . S
C986 C987 1.366 . S
C986 C988 1.388 . S
C987 C986 1.366 . S
C987 C991 1.385 . S
C988 H969 0.951 . S
C988 C986 1.388 . S
C988 C989 1.366 . S
C989 C988 1.366 . S
C989 C990 1.414 . S
C989 C992 1.499 . S
C990 H970 0.950 . S
C990 C989 1.414 . S
C990 C991 1.374 . S
C991 H971 0.950 . S
C991 C987 1.385 . S
C991 C990 1.374 . S
C992 C989 1.499 . S
C992 C993 1.373 . S
C992 C994 1.389 . S
C993 H972 0.950 . S
C993 C992 1.373 . S
C993 C1009 1.377 . S
C994 C992 1.389 . S
C994 C995 1.524 . S
C994 C1008 1.377 . S
C995 C994 1.524 . S
C995 C996 1.397 . S
C995 C1000 1.363 . S
C996 H973 0.950 . S
C996 C995 1.397 . S
C996 C997 1.334 . S
C997 H974 0.950 . S
C997 C996 1.334 . S
C997 C998 1.287 . S
C998 C997 1.287 . S
C998 C999 1.524 . S
C998 H1017 0.913 . S
C999 H975 0.950 . S
C999 C998 1.524 . S
C999 C1000 1.415 . S
C1000 H976 0.950 . S
C1000 C995 1.363 . S
C1000 C999 1.415 . S
C1001 H977 0.951 . S
C1001 C1002 1.366 . S
C1001 C1003 1.388 . S
C1002 C1001 1.366 . S
C1002 C1006 1.385 . S
C1003 H978 0.951 . S
C1003 C1001 1.388 . S
C1003 C1004 1.366 . S
C1004 C1003 1.366 . S
C1004 C1005 1.414 . S
C1004 C1007 1.499 . S
C1005 H979 0.950 . S
C1005 C1004 1.414 . S
C1005 C1006 1.374 . S
C1006 H980 0.950 . S
C1006 C1002 1.385 . S
C1006 C1005 1.374 . S
C1007 C1004 1.499 . S
C1007 C1008 1.373 . S
C1007 C1009 1.389 . S
C1008 H981 0.950 . S
C1008 C994 1.377 . S
C1008 C1007 1.373 . S
C1009 C993 1.377 . S
C1009 C1007 1.389 . S
C1009 C1010 1.524 . S
C1010 C1009 1.524 . S
C1010 C1011 1.397 . S
C1010 C1015 1.363 . S
C1011 H982 0.950 . S
C1011 C1010 1.397 . S
C1011 C1012 1.334 . S
C1012 H983 0.950 . S
C1012 C1011 1.334 . S
C1012 C1013 1.287 . S
C1013 C1012 1.287 . S
C1013 C1014 1.524 . S
C1013 H1016 0.999 . S
C1014 H984 0.950 1_545 S
C1014 C1013 1.524 . S
C1014 C1015 1.415 . S
C1015 H985 0.950 . S
C1015 C1010 1.363 . S
C1015 C1014 1.415 . S
H1016 C1013 0.999 . S
H1017 C998 0.913 . S
H1018 C1036 0.951 . S
H1019 C1038 0.951 . S
H1020 C1040 0.950 . S
H1021 C1041 0.950 . S
H1022 C1043 0.950 . S
H1023 C1046 0.950 . S
H1024 C1047 0.950 . S
H1025 C1049 0.950 . S
H1026 C1050 0.950 . S
H1027 C1051 0.951 . S
H1028 C1053 0.951 . S
H1029 C1055 0.950 . S
H1030 C1056 0.950 . S
H1031 C1058 0.950 . S
H1032 C1061 0.950 . S
H1033 C1062 0.950 . S
H1034 C1064 0.950 . S
H1035 C1065 0.950 . S
C1036 H1018 0.951 . S
C1036 C1037 1.366 . S
C1036 C1038 1.388 . S
C1037 C1036 1.366 . S
C1037 C1041 1.385 . S
C1038 H1019 0.951 . S
C1038 C1036 1.388 . S
C1038 C1039 1.366 . S
C1039 C1038 1.366 . S
C1039 C1040 1.414 . S
C1039 C1042 1.499 . S
C1040 H1020 0.950 . S
C1040 C1039 1.414 . S
C1040 C1041 1.374 . S
C1041 H1021 0.950 . S
C1041 C1037 1.385 . S
C1041 C1040 1.374 . S
C1042 C1039 1.499 . S
C1042 C1043 1.373 . S
C1042 C1044 1.389 . S
C1043 H1022 0.950 . S
C1043 C1042 1.373 . S
C1043 C1059 1.377 . S
C1044 C1042 1.389 . S
C1044 C1045 1.524 . S
C1044 C1058 1.377 . S
C1045 C1044 1.524 . S
C1045 C1046 1.397 . S
C1045 C1050 1.363 . S
C1046 H1023 0.950 . S
C1046 C1045 1.397 . S
C1046 C1047 1.334 . S
C1047 H1024 0.950 . S
C1047 C1046 1.334 . S
C1047 C1048 1.287 . S
C1048 C1047 1.287 . S
C1048 C1049 1.524 . S
C1048 H1067 0.913 . S
C1049 H1025 0.950 . S
C1049 C1048 1.524 . S
C1049 C1050 1.415 . S
C1050 H1026 0.950 . S
C1050 C1045 1.363 . S
C1050 C1049 1.415 . S
C1051 H1027 0.951 . S
C1051 C1052 1.366 . S
C1051 C1053 1.388 . S
C1052 C1051 1.366 . S
C1052 C1056 1.385 . S
C1053 H1028 0.951 . S
C1053 C1051 1.388 . S
C1053 C1054 1.366 . S
C1054 C1053 1.366 . S
C1054 C1055 1.414 . S
C1054 C1057 1.499 . S
C1055 H1029 0.950 . S
C1055 C1054 1.414 . S
C1055 C1056 1.374 . S
C1056 H1030 0.950 . S
C1056 C1052 1.385 . S
C1056 C1055 1.374 . S
C1057 C1054 1.499 . S
C1057 C1058 1.373 . S
C1057 C1059 1.389 . S
C1058 H1031 0.950 . S
C1058 C1044 1.377 . S
C1058 C1057 1.373 . S
C1059 C1043 1.377 . S
C1059 C1057 1.389 . S
C1059 C1060 1.524 . S
C1060 C1059 1.524 . S
C1060 C1061 1.397 . S
C1060 C1065 1.363 . S
C1061 H1032 0.950 . S
C1061 C1060 1.397 . S
C1061 C1062 1.334 . S
C1062 H1033 0.950 . S
C1062 C1061 1.334 . S
C1062 C1063 1.287 . S
C1063 C1062 1.287 . S
C1063 C1064 1.524 . S
C1063 H1066 0.999 . S
C1064 H1034 0.950 . S
C1064 C1063 1.524 . S
C1064 C1065 1.415 . S
C1065 H1035 0.950 . S
C1065 C1060 1.363 . S
C1065 C1064 1.415 . S
H1066 C1063 0.999 . S
H1067 C1048 0.913 . S
H1068 C1086 0.951 . S
H1069 C1088 0.951 . S
H1070 C1090 0.950 . S
H1071 C1091 0.950 . S
H1072 C1093 0.950 . S
H1073 C1096 0.950 . S
H1074 C1097 0.950 . S
H1075 C1099 0.950 . S
H1076 C1100 0.950 . S
H1077 C1101 0.951 . S
H1078 C1103 0.951 . S
H1079 C1105 0.950 . S
H1080 C1106 0.950 . S
H1081 C1108 0.950 . S
H1082 C1111 0.950 . S
H1083 C1112 0.950 . S
H1084 C1114 0.950 . S
H1085 C1115 0.950 . S
C1086 H1068 0.951 . S
C1086 C1087 1.366 . S
C1086 C1088 1.388 . S
C1087 C1086 1.366 . S
C1087 C1091 1.385 . S
C1088 H1069 0.951 . S
C1088 C1086 1.388 . S
C1088 C1089 1.366 . S
C1089 C1088 1.366 . S
C1089 C1090 1.414 . S
C1089 C1092 1.499 . S
C1090 H1070 0.950 . S
C1090 C1089 1.414 . S
C1090 C1091 1.374 . S
C1091 H1071 0.950 . S
C1091 C1087 1.385 . S
C1091 C1090 1.374 . S
C1092 C1089 1.499 . S
C1092 C1093 1.373 . S
C1092 C1094 1.389 . S
C1093 H1072 0.950 . S
C1093 C1092 1.373 . S
C1093 C1109 1.377 . S
C1094 C1092 1.389 . S
C1094 C1095 1.524 . S
C1094 C1108 1.377 . S
C1095 C1094 1.524 . S
C1095 C1096 1.397 . S
C1095 C1100 1.363 . S
C1096 H1073 0.950 . S
C1096 C1095 1.397 . S
C1096 C1097 1.334 . S
C1097 H1074 0.950 . S
C1097 C1096 1.334 . S
C1097 C1098 1.287 . S
C1098 C1097 1.287 . S
C1098 C1099 1.524 . S
C1098 H1117 0.913 . S
C1099 H1075 0.950 . S
C1099 C1098 1.524 . S
C1099 C1100 1.415 . S
C1100 H1076 0.950 . S
C1100 C1095 1.363 . S
C1100 C1099 1.415 . S
C1101 H1077 0.951 . S
C1101 C1102 1.366 . S
C1101 C1103 1.388 . S
C1102 C1101 1.366 . S
C1102 C1106 1.385 . S
C1103 H1078 0.951 . S
C1103 C1101 1.388 . S
C1103 C1104 1.366 . S
C1104 C1103 1.366 . S
C1104 C1105 1.414 . S
C1104 C1107 1.499 . S
C1105 H1079 0.950 . S
C1105 C1104 1.414 . S
C1105 C1106 1.374 . S
C1106 H1080 0.950 . S
C1106 C1102 1.385 . S
C1106 C1105 1.374 . S
C1107 C1104 1.499 . S
C1107 C1108 1.373 . S
C1107 C1109 1.389 . S
C1108 H1081 0.950 . S
C1108 C1094 1.377 . S
C1108 C1107 1.373 . S
C1109 C1093 1.377 . S
C1109 C1107 1.389 . S
C1109 C1110 1.524 . S
C1110 C1109 1.524 . S
C1110 C1111 1.397 . S
C1110 C1115 1.363 . S
C1111 H1082 0.950 . S
C1111 C1110 1.397 . S
C1111 C1112 1.334 . S
C1112 H1083 0.950 . S
C1112 C1111 1.334 . S
C1112 C1113 1.287 . S
C1113 C1112 1.287 . S
C1113 C1114 1.524 . S
C1113 H1116 0.999 . S
C1114 H1084 0.950 . S
C1114 C1113 1.524 . S
C1114 C1115 1.415 . S
C1115 H1085 0.950 . S
C1115 C1110 1.363 . S
C1115 C1114 1.415 . S
H1116 C1113 0.999 . S
H1117 C1098 0.913 . S
H1118 C1136 0.951 . S
H1119 C1138 0.951 . S
H1120 C1140 0.950 . S
H1121 C1141 0.950 . S
H1122 C1143 0.950 . S
H1123 C1146 0.950 . S
H1124 C1147 0.950 . S
H1125 C1149 0.950 . S
H1126 C1150 0.950 . S
H1127 C1151 0.951 . S
H1128 C1153 0.951 . S
H1129 C1155 0.950 . S
H1130 C1156 0.950 . S
H1131 C1158 0.950 . S
H1132 C1161 0.950 . S
H1133 C1162 0.950 . S
H1134 C1164 0.950 . S
H1135 C1165 0.950 . S
C1136 H1118 0.951 . S
C1136 C1137 1.366 . S
C1136 C1138 1.388 . S
C1137 C1136 1.366 . S
C1137 C1141 1.385 . S
C1138 H1119 0.951 . S
C1138 C1136 1.388 . S
C1138 C1139 1.366 . S
C1139 C1138 1.366 . S
C1139 C1140 1.414 . S
C1139 C1142 1.499 . S
C1140 H1120 0.950 . S
C1140 C1139 1.414 . S
C1140 C1141 1.374 . S
C1141 H1121 0.950 . S
C1141 C1137 1.385 . S
C1141 C1140 1.374 . S
C1142 C1139 1.499 . S
C1142 C1143 1.373 . S
C1142 C1144 1.389 . S
C1143 H1122 0.950 . S
C1143 C1142 1.373 . S
C1143 C1159 1.377 . S
C1144 C1142 1.389 . S
C1144 C1145 1.524 . S
C1144 C1158 1.377 . S
C1145 C1144 1.524 . S
C1145 C1146 1.397 . S
C1145 C1150 1.363 . S
C1146 H1123 0.950 . S
C1146 C1145 1.397 . S
C1146 C1147 1.334 . S
C1147 H1124 0.950 . S
C1147 C1146 1.334 . S
C1147 C1148 1.287 . S
C1148 C1147 1.287 . S
C1148 C1149 1.524 . S
C1148 H1167 0.913 . S
C1149 H1125 0.950 . S
C1149 C1148 1.524 . S
C1149 C1150 1.415 . S
C1150 H1126 0.950 . S
C1150 C1145 1.363 . S
C1150 C1149 1.415 . S
C1151 H1127 0.951 . S
C1151 C1152 1.366 . S
C1151 C1153 1.388 . S
C1152 C1151 1.366 . S
C1152 C1156 1.385 . S
C1153 H1128 0.951 . S
C1153 C1151 1.388 . S
C1153 C1154 1.366 . S
C1154 C1153 1.366 . S
C1154 C1155 1.414 . S
C1154 C1157 1.499 . S
C1155 H1129 0.950 . S
C1155 C1154 1.414 . S
C1155 C1156 1.374 . S
C1156 H1130 0.950 . S
C1156 C1152 1.385 . S
C1156 C1155 1.374 . S
C1157 C1154 1.499 . S
C1157 C1158 1.373 . S
C1157 C1159 1.389 . S
C1158 H1131 0.950 . S
C1158 C1144 1.377 . S
C1158 C1157 1.373 . S
C1159 C1143 1.377 . S
C1159 C1157 1.389 . S
C1159 C1160 1.524 . S
C1160 C1159 1.524 . S
C1160 C1161 1.397 . S
C1160 C1165 1.363 . S
C1161 H1132 0.950 . S
C1161 C1160 1.397 . S
C1161 C1162 1.334 . S
C1162 H1133 0.950 . S
C1162 C1161 1.334 . S
C1162 C1163 1.287 . S
C1163 C1162 1.287 . S
C1163 C1164 1.524 . S
C1163 H1166 0.999 . S
C1164 H1134 0.950 . S
C1164 C1163 1.524 . S
C1164 C1165 1.415 . S
C1165 H1135 0.950 . S
C1165 C1160 1.363 . S
C1165 C1164 1.415 . S
H1166 C1163 0.999 . S
H1167 C1148 0.913 . S
H1168 C1186 0.951 . S
H1169 C1188 0.951 . S
H1170 C1190 0.950 . S
H1171 C1191 0.950 . S
H1172 C1193 0.950 . S
H1173 C1196 0.950 . S
H1174 C1197 0.950 . S
H1175 C1199 0.950 . S
H1176 C1200 0.950 . S
H1177 C1201 0.951 . S
H1178 C1203 0.951 . S
H1179 C1205 0.950 . S
H1180 C1206 0.950 . S
H1181 C1208 0.950 . S
H1182 C1211 0.950 . S
H1183 C1212 0.950 . S
H1184 C1214 0.950 . S
H1185 C1215 0.950 . S
C1186 H1168 0.951 . S
C1186 C1187 1.366 . S
C1186 C1188 1.388 . S
C1187 C1186 1.366 . S
C1187 C1191 1.385 . S
C1188 H1169 0.951 . S
C1188 C1186 1.388 . S
C1188 C1189 1.366 . S
C1189 C1188 1.366 . S
C1189 C1190 1.414 . S
C1189 C1192 1.499 . S
C1190 H1170 0.950 . S
C1190 C1189 1.414 . S
C1190 C1191 1.374 . S
C1191 H1171 0.950 . S
C1191 C1187 1.385 . S
C1191 C1190 1.374 . S
C1192 C1189 1.499 . S
C1192 C1193 1.373 . S
C1192 C1194 1.389 . S
C1193 H1172 0.950 . S
C1193 C1192 1.373 . S
C1193 C1209 1.377 . S
C1194 C1192 1.389 . S
C1194 C1195 1.524 . S
C1194 C1208 1.377 . S
C1195 C1194 1.524 . S
C1195 C1196 1.397 . S
C1195 C1200 1.363 . S
C1196 H1173 0.950 . S
C1196 C1195 1.397 . S
C1196 C1197 1.334 1_655 S
C1197 H1174 0.950 . S
C1197 C1196 1.334 1_455 S
C1197 C1198 1.287 . S
C1198 C1197 1.287 . S
C1198 C1199 1.524 . S
C1198 H1217 0.913 . S
C1199 H1175 0.950 . S
C1199 C1198 1.524 . S
C1199 C1200 1.415 1_455 S
C1200 H1176 0.950 . S
C1200 C1195 1.363 . S
C1200 C1199 1.415 1_655 S
C1201 H1177 0.951 . S
C1201 C1202 1.366 . S
C1201 C1203 1.388 . S
C1202 C1201 1.366 . S
C1202 C1206 1.385 . S
C1203 H1178 0.951 . S
C1203 C1201 1.388 . S
C1203 C1204 1.366 . S
C1204 C1203 1.366 . S
C1204 C1205 1.414 . S
C1204 C1207 1.499 . S
C1205 H1179 0.950 . S
C1205 C1204 1.414 . S
C1205 C1206 1.374 . S
C1206 H1180 0.950 . S
C1206 C1202 1.385 . S
C1206 C1205 1.374 . S
C1207 C1204 1.499 . S
C1207 C1208 1.373 . S
C1207 C1209 1.389 . S
C1208 H1181 0.950 . S
C1208 C1194 1.377 . S
C1208 C1207 1.373 . S
C1209 C1193 1.377 . S
C1209 C1207 1.389 . S
C1209 C1210 1.524 . S
C1210 C1209 1.524 . S
C1210 C1211 1.397 . S
C1210 C1215 1.363 . S
C1211 H1182 0.950 . S
C1211 C1210 1.397 . S
C1211 C1212 1.334 . S
C1212 H1183 0.950 . S
C1212 C1211 1.334 . S
C1212 C1213 1.287 . S
C1213 C1212 1.287 . S
C1213 C1214 1.524 . S
C1213 H1216 0.999 . S
C1214 H1184 0.950 . S
C1214 C1213 1.524 . S
C1214 C1215 1.415 . S
C1215 H1185 0.950 . S
C1215 C1210 1.363 . S
C1215 C1214 1.415 . S
H1216 C1213 0.999 . S
H1217 C1198 0.913 . S
H1218 C1236 0.951 . S
H1219 C1238 0.951 . S
H1220 C1240 0.950 . S
H1221 C1241 0.950 . S
H1222 C1243 0.950 . S
H1223 C1246 0.950 . S
H1224 C1247 0.950 . S
H1225 C1249 0.950 1_545 S
H1226 C1250 0.950 . S
H1227 C1251 0.951 . S
H1228 C1253 0.951 . S
H1229 C1255 0.950 . S
H1230 C1256 0.950 . S
H1231 C1258 0.950 . S
H1232 C1261 0.950 . S
H1233 C1262 0.950 . S
H1234 C1264 0.950 . S
H1235 C1265 0.950 . S
C1236 H1218 0.951 . S
C1236 C1237 1.366 . S
C1236 C1238 1.388 . S
C1237 C1236 1.366 . S
C1237 C1241 1.385 . S
C1238 H1219 0.951 . S
C1238 C1236 1.388 . S
C1238 C1239 1.366 . S
C1239 C1238 1.366 . S
C1239 C1240 1.414 . S
C1239 C1242 1.499 . S
C1240 H1220 0.950 . S
C1240 C1239 1.414 . S
C1240 C1241 1.374 . S
C1241 H1221 0.950 . S
C1241 C1237 1.385 . S
C1241 C1240 1.374 . S
C1242 C1239 1.499 . S
C1242 C1243 1.373 . S
C1242 C1244 1.389 . S
C1243 H1222 0.950 . S
C1243 C1242 1.373 . S
C1243 C1259 1.377 . S
C1244 C1242 1.389 . S
C1244 C1245 1.524 . S
C1244 C1258 1.377 . S
C1245 C1244 1.524 . S
C1245 C1246 1.397 . S
C1245 C1250 1.363 . S
C1246 H1223 0.950 . S
C1246 C1245 1.397 . S
C1246 C1247 1.334 . S
C1247 H1224 0.950 . S
C1247 C1246 1.334 . S
C1247 C1248 1.287 . S
C1248 C1247 1.287 . S
C1248 C1249 1.524 . S
C1248 H1267 0.913 . S
C1249 H1225 0.950 1_565 S
C1249 C1248 1.524 . S
C1249 C1250 1.415 . S
C1250 H1226 0.950 . S
C1250 C1245 1.363 . S
C1250 C1249 1.415 . S
C1251 H1227 0.951 . S
C1251 C1252 1.366 . S
C1251 C1253 1.388 . S
C1252 C1251 1.366 . S
C1252 C1256 1.385 . S
C1253 H1228 0.951 . S
C1253 C1251 1.388 . S
C1253 C1254 1.366 . S
C1254 C1253 1.366 . S
C1254 C1255 1.414 . S
C1254 C1257 1.499 . S
C1255 H1229 0.950 . S
C1255 C1254 1.414 . S
C1255 C1256 1.374 . S
C1256 H1230 0.950 . S
C1256 C1252 1.385 . S
C1256 C1255 1.374 . S
C1257 C1254 1.499 . S
C1257 C1258 1.373 . S
C1257 C1259 1.389 . S
C1258 H1231 0.950 . S
C1258 C1244 1.377 . S
C1258 C1257 1.373 . S
C1259 C1243 1.377 . S
C1259 C1257 1.389 . S
C1259 C1260 1.524 . S
C1260 C1259 1.524 . S
C1260 C1261 1.397 . S
C1260 C1265 1.363 . S
C1261 H1232 0.950 . S
C1261 C1260 1.397 . S
C1261 C1262 1.334 . S
C1262 H1233 0.950 . S
C1262 C1261 1.334 . S
C1262 C1263 1.287 . S
C1263 C1262 1.287 . S
C1263 C1264 1.524 . S
C1263 H1266 0.999 . S
C1264 H1234 0.950 . S
C1264 C1263 1.524 . S
C1264 C1265 1.415 . S
C1265 H1235 0.950 . S
C1265 C1260 1.363 . S
C1265 C1264 1.415 . S
H1266 C1263 0.999 . S
H1267 C1248 0.913 . S
H1268 C1286 0.951 . S
H1269 C1288 0.951 . S
H1270 C1290 0.950 . S
H1271 C1291 0.950 . S
H1272 C1293 0.950 . S
H1273 C1296 0.950 . S
H1274 C1297 0.950 . S
H1275 C1299 0.950 . S
H1276 C1300 0.950 . S
H1277 C1301 0.951 . S
H1278 C1303 0.951 . S
H1279 C1305 0.950 . S
H1280 C1306 0.950 . S
H1281 C1308 0.950 . S
H1282 C1311 0.950 . S
H1283 C1312 0.950 . S
H1284 C1314 0.950 . S
H1285 C1315 0.950 . S
C1286 H1268 0.951 . S
C1286 C1287 1.366 . S
C1286 C1288 1.388 . S
C1287 C1286 1.366 . S
C1287 C1291 1.385 . S
C1288 H1269 0.951 . S
C1288 C1286 1.388 . S
C1288 C1289 1.366 . S
C1289 C1288 1.366 . S
C1289 C1290 1.414 . S
C1289 C1292 1.499 . S
C1290 H1270 0.950 . S
C1290 C1289 1.414 . S
C1290 C1291 1.374 . S
C1291 H1271 0.950 . S
C1291 C1287 1.385 . S
C1291 C1290 1.374 . S
C1292 C1289 1.499 . S
C1292 C1293 1.373 . S
C1292 C1294 1.389 . S
C1293 H1272 0.950 . S
C1293 C1292 1.373 . S
C1293 C1309 1.377 . S
C1294 C1292 1.389 . S
C1294 C1295 1.524 . S
C1294 C1308 1.377 . S
C1295 C1294 1.524 . S
C1295 C1296 1.397 . S
C1295 C1300 1.363 . S
C1296 H1273 0.950 . S
C1296 C1295 1.397 . S
C1296 C1297 1.334 . S
C1297 H1274 0.950 . S
C1297 C1296 1.334 . S
C1297 C1298 1.287 . S
C1298 C1297 1.287 . S
C1298 C1299 1.524 . S
C1298 H1317 0.913 . S
C1299 H1275 0.950 . S
C1299 C1298 1.524 . S
C1299 C1300 1.415 . S
C1300 H1276 0.950 . S
C1300 C1295 1.363 . S
C1300 C1299 1.415 . S
C1301 H1277 0.951 . S
C1301 C1302 1.366 . S
C1301 C1303 1.388 . S
C1302 C1301 1.366 . S
C1302 C1306 1.385 . S
C1303 H1278 0.951 . S
C1303 C1301 1.388 . S
C1303 C1304 1.366 . S
C1304 C1303 1.366 . S
C1304 C1305 1.414 . S
C1304 C1307 1.499 . S
C1305 H1279 0.950 . S
C1305 C1304 1.414 . S
C1305 C1306 1.374 . S
C1306 H1280 0.950 . S
C1306 C1302 1.385 . S
C1306 C1305 1.374 . S
C1307 C1304 1.499 . S
C1307 C1308 1.373 . S
C1307 C1309 1.389 . S
C1308 H1281 0.950 . S
C1308 C1294 1.377 . S
C1308 C1307 1.373 . S
C1309 C1293 1.377 . S
C1309 C1307 1.389 . S
C1309 C1310 1.524 . S
C1310 C1309 1.524 . S
C1310 C1311 1.397 . S
C1310 C1315 1.363 . S
C1311 H1282 0.950 . S
C1311 C1310 1.397 . S
C1311 C1312 1.334 . S
C1312 H1283 0.950 . S
C1312 C1311 1.334 . S
C1312 C1313 1.287 . S
C1313 C1312 1.287 . S
C1313 C1314 1.524 . S
C1313 H1316 0.999 . S
C1314 H1284 0.950 . S
C1314 C1313 1.524 . S
C1314 C1315 1.415 . S
C1315 H1285 0.950 . S
C1315 C1310 1.363 . S
C1315 C1314 1.415 . S
H1316 C1313 0.999 . S
H1317 C1298 0.913 . S
H1318 C1336 0.951 . S
H1319 C1338 0.951 . S
H1320 C1340 0.950 . S
H1321 C1341 0.950 . S
H1322 C1343 0.950 . S
H1323 C1346 0.950 . S
H1324 C1347 0.950 . S
H1325 C1349 0.950 . S
H1326 C1350 0.950 . S
H1327 C1351 0.951 . S
H1328 C1353 0.951 . S
H1329 C1355 0.950 . S
H1330 C1356 0.950 . S
H1331 C1358 0.950 . S
H1332 C1361 0.950 . S
H1333 C1362 0.950 . S
H1334 C1364 0.950 . S
H1335 C1365 0.950 . S
C1336 H1318 0.951 . S
C1336 C1337 1.366 . S
C1336 C1338 1.388 . S
C1337 C1336 1.366 . S
C1337 C1341 1.385 . S
C1338 H1319 0.951 . S
C1338 C1336 1.388 . S
C1338 C1339 1.366 . S
C1339 C1338 1.366 . S
C1339 C1340 1.414 . S
C1339 C1342 1.499 . S
C1340 H1320 0.950 . S
C1340 C1339 1.414 . S
C1340 C1341 1.374 . S
C1341 H1321 0.950 . S
C1341 C1337 1.385 . S
C1341 C1340 1.374 . S
C1342 C1339 1.499 . S
C1342 C1343 1.373 . S
C1342 C1344 1.389 . S
C1343 H1322 0.950 . S
C1343 C1342 1.373 . S
C1343 C1359 1.377 . S
C1344 C1342 1.389 . S
C1344 C1345 1.524 . S
C1344 C1358 1.377 . S
C1345 C1344 1.524 . S
C1345 C1346 1.397 . S
C1345 C1350 1.363 . S
C1346 H1323 0.950 . S
C1346 C1345 1.397 . S
C1346 C1347 1.334 . S
C1347 H1324 0.950 . S
C1347 C1346 1.334 . S
C1347 C1348 1.287 . S
C1348 C1347 1.287 . S
C1348 C1349 1.524 . S
C1348 H1367 0.913 . S
C1349 H1325 0.950 . S
C1349 C1348 1.524 . S
C1349 C1350 1.415 . S
C1350 H1326 0.950 . S
C1350 C1345 1.363 . S
C1350 C1349 1.415 . S
C1351 H1327 0.951 . S
C1351 C1352 1.366 . S
C1351 C1353 1.388 . S
C1352 C1351 1.366 . S
C1352 C1356 1.385 . S
C1353 H1328 0.951 . S
C1353 C1351 1.388 . S
C1353 C1354 1.366 . S
C1354 C1353 1.366 . S
C1354 C1355 1.414 . S
C1354 C1357 1.499 . S
C1355 H1329 0.950 . S
C1355 C1354 1.414 . S
C1355 C1356 1.374 . S
C1356 H1330 0.950 . S
C1356 C1352 1.385 . S
C1356 C1355 1.374 . S
C1357 C1354 1.499 . S
C1357 C1358 1.373 . S
C1357 C1359 1.389 . S
C1358 H1331 0.950 . S
C1358 C1344 1.377 . S
C1358 C1357 1.373 . S
C1359 C1343 1.377 . S
C1359 C1357 1.389 . S
C1359 C1360 1.524 . S
C1360 C1359 1.524 . S
C1360 C1361 1.397 . S
C1360 C1365 1.363 . S
C1361 H1332 0.950 . S
C1361 C1360 1.397 . S
C1361 C1362 1.334 . S
C1362 H1333 0.950 . S
C1362 C1361 1.334 . S
C1362 C1363 1.287 . S
C1363 C1362 1.287 . S
C1363 C1364 1.524 . S
C1363 H1366 0.999 . S
C1364 H1334 0.950 . S
C1364 C1363 1.524 . S
C1364 C1365 1.415 . S
C1365 H1335 0.950 . S
C1365 C1360 1.363 . S
C1365 C1364 1.415 . S
H1366 C1363 0.999 . S
H1367 C1348 0.913 . S
C187 C13 1.663 . S
C202 C85 1.628 . S
C237 C27 1.664 . S
C252 C110 1.637 . S
C302 C113 1.636 . S
C287 C29 1.661 . S
C352 C139 1.636 . S
C337 C54 1.668 . S
C402 C140 1.638 . S
C387 C69 1.661 . S
C452 C167 1.636 . S
C437 C83 1.664 . S
C487 C15 1.664 . S
C502 C112 1.642 . S
C537 C41 1.664 . S
C552 C138 1.641 . S
C602 C141 1.636 . S
C587 C42 1.663 . S
C652 C166 1.638 . S
C637 C57 1.662 . S
C687 C71 1.664 . S
C702 C84 1.638 . S
C752 C111 1.636 . S
C737 C1 1.667 . S
C802 C126 1.636 . S
C787 C12 1.671 . S
C837 C26 1.664 . S
C852 C153 1.639 . S
C902 C154 1.636 . S
C887 C28 1.666 . S
C937 C55 1.664 . S
C952 C96 1.632 . S
C987 C68 1.663 . S
C1002 C99 1.639 . S
C1037 C82 1.663 . S
C1052 C124 1.636 . S
C1087 C14 1.664 . S
C1102 C155 1.634 . S
C1152 C97 1.638 . S
C1137 C40 1.661 . S
C1187 C43 1.664 . S
C1202 C98 1.638 . S
C1237 C56 1.664 . S
C1252 C125 1.640 . S
C1287 C70 1.664 . S
C1302 C127 1.638 . S
C1337 C0 1.663 . S
C1352 C152 1.632 . S
