# Generated by pormake.
# Topology iac, (4,6)-cn, num edge types: 1
# Building blocks:
#     Node 0, Type 0, BuildingBlock: GALJAG_clean_sbu_0, # of connection points: 4
#     Node 1, Type 0, BuildingBlock: GALJAG_clean_sbu_0, # of connection points: 4
#     Node 2, Type 0, BuildingBlock: GALJAG_clean_sbu_0, # of connection points: 4
#     Node 3, Type 0, BuildingBlock: GALJAG_clean_sbu_0, # of connection points: 4
#     Node 4, Type 0, BuildingBlock: GALJAG_clean_sbu_0, # of connection points: 4
#     Node 5, Type 0, BuildingBlock: GALJAG_clean_sbu_0, # of connection points: 4
#     Node 6, Type 0, BuildingBlock: GALJAG_clean_sbu_0, # of connection points: 4
#     Node 7, Type 0, BuildingBlock: GALJAG_clean_sbu_0, # of connection points: 4
#     Node 8, Type 0, BuildingBlock: GALJAG_clean_sbu_0, # of connection points: 4
#     Node 9, Type 0, BuildingBlock: GALJAG_clean_sbu_0, # of connection points: 4
#     Node 10, Type 0, BuildingBlock: GALJAG_clean_sbu_0, # of connection points: 4
#     Node 11, Type 0, BuildingBlock: GALJAG_clean_sbu_0, # of connection points: 4
#     Node 12, Type 0, BuildingBlock: GALJAG_clean_sbu_0, # of connection points: 4
#     Node 13, Type 0, BuildingBlock: GALJAG_clean_sbu_0, # of connection points: 4
#     Node 14, Type 0, BuildingBlock: GALJAG_clean_sbu_0, # of connection points: 4
#     Node 15, Type 0, BuildingBlock: GALJAG_clean_sbu_0, # of connection points: 4
#     Node 16, Type 0, BuildingBlock: GALJAG_clean_sbu_0, # of connection points: 4
#     Node 17, Type 0, BuildingBlock: GALJAG_clean_sbu_0, # of connection points: 4
#     Node 18, Type 0, BuildingBlock: GALJAG_clean_sbu_0, # of connection points: 4
#     Node 19, Type 0, BuildingBlock: GALJAG_clean_sbu_0, # of connection points: 4
#     Node 20, Type 0, BuildingBlock: GALJAG_clean_sbu_0, # of connection points: 4
#     Node 21, Type 0, BuildingBlock: GALJAG_clean_sbu_0, # of connection points: 4
#     Node 22, Type 0, BuildingBlock: GALJAG_clean_sbu_0, # of connection points: 4
#     Node 23, Type 0, BuildingBlock: GALJAG_clean_sbu_0, # of connection points: 4
#     Node 24, Type 1, BuildingBlock: CIFDUS_clean_sbu_1, # of connection points: 6
#     Node 25, Type 1, BuildingBlock: CIFDUS_clean_sbu_1, # of connection points: 6
#     Node 26, Type 1, BuildingBlock: CIFDUS_clean_sbu_1, # of connection points: 6
#     Node 27, Type 1, BuildingBlock: CIFDUS_clean_sbu_1, # of connection points: 6
#     Node 28, Type 1, BuildingBlock: CIFDUS_clean_sbu_1, # of connection points: 6
#     Node 29, Type 1, BuildingBlock: CIFDUS_clean_sbu_1, # of connection points: 6
#     Node 30, Type 1, BuildingBlock: CIFDUS_clean_sbu_1, # of connection points: 6
#     Node 31, Type 1, BuildingBlock: CIFDUS_clean_sbu_1, # of connection points: 6
#     Node 32, Type 1, BuildingBlock: CIFDUS_clean_sbu_1, # of connection points: 6
#     Node 33, Type 1, BuildingBlock: CIFDUS_clean_sbu_1, # of connection points: 6
#     Node 34, Type 1, BuildingBlock: CIFDUS_clean_sbu_1, # of connection points: 6
#     Node 35, Type 1, BuildingBlock: CIFDUS_clean_sbu_1, # of connection points: 6
#     Node 36, Type 1, BuildingBlock: CIFDUS_clean_sbu_1, # of connection points: 6
#     Node 37, Type 1, BuildingBlock: CIFDUS_clean_sbu_1, # of connection points: 6
#     Node 38, Type 1, BuildingBlock: CIFDUS_clean_sbu_1, # of connection points: 6
#     Node 39, Type 1, BuildingBlock: CIFDUS_clean_sbu_1, # of connection points: 6
#     Edge 40, Type (0, 1), BuildingBlock: EZIPEK_clean_linker_0, # of connection points: 2
#     Edge 41, Type (0, 1), BuildingBlock: EZIPEK_clean_linker_0, # of connection points: 2
#     Edge 42, Type (0, 1), BuildingBlock: EZIPEK_clean_linker_0, # of connection points: 2
#     Edge 43, Type (0, 1), BuildingBlock: EZIPEK_clean_linker_0, # of connection points: 2
#     Edge 44, Type (0, 1), BuildingBlock: EZIPEK_clean_linker_0, # of connection points: 2
#     Edge 45, Type (0, 1), BuildingBlock: EZIPEK_clean_linker_0, # of connection points: 2
#     Edge 46, Type (0, 1), BuildingBlock: EZIPEK_clean_linker_0, # of connection points: 2
#     Edge 47, Type (0, 1), BuildingBlock: EZIPEK_clean_linker_0, # of connection points: 2
#     Edge 48, Type (0, 1), BuildingBlock: EZIPEK_clean_linker_0, # of connection points: 2
#     Edge 49, Type (0, 1), BuildingBlock: EZIPEK_clean_linker_0, # of connection points: 2
#     Edge 50, Type (0, 1), BuildingBlock: EZIPEK_clean_linker_0, # of connection points: 2
#     Edge 51, Type (0, 1), BuildingBlock: EZIPEK_clean_linker_0, # of connection points: 2
#     Edge 52, Type (0, 1), BuildingBlock: EZIPEK_clean_linker_0, # of connection points: 2
#     Edge 53, Type (0, 1), BuildingBlock: EZIPEK_clean_linker_0, # of connection points: 2
#     Edge 54, Type (0, 1), BuildingBlock: EZIPEK_clean_linker_0, # of connection points: 2
#     Edge 55, Type (0, 1), BuildingBlock: EZIPEK_clean_linker_0, # of connection points: 2
#     Edge 56, Type (0, 1), BuildingBlock: EZIPEK_clean_linker_0, # of connection points: 2
#     Edge 57, Type (0, 1), BuildingBlock: EZIPEK_clean_linker_0, # of connection points: 2
#     Edge 58, Type (0, 1), BuildingBlock: EZIPEK_clean_linker_0, # of connection points: 2
#     Edge 59, Type (0, 1), BuildingBlock: EZIPEK_clean_linker_0, # of connection points: 2
#     Edge 60, Type (0, 1), BuildingBlock: EZIPEK_clean_linker_0, # of connection points: 2
#     Edge 61, Type (0, 1), BuildingBlock: EZIPEK_clean_linker_0, # of connection points: 2
#     Edge 62, Type (0, 1), BuildingBlock: EZIPEK_clean_linker_0, # of connection points: 2
#     Edge 63, Type (0, 1), BuildingBlock: EZIPEK_clean_linker_0, # of connection points: 2
#     Edge 64, Type (0, 1), BuildingBlock: EZIPEK_clean_linker_0, # of connection points: 2
#     Edge 65, Type (0, 1), BuildingBlock: EZIPEK_clean_linker_0, # of connection points: 2
#     Edge 66, Type (0, 1), BuildingBlock: EZIPEK_clean_linker_0, # of connection points: 2
#     Edge 67, Type (0, 1), BuildingBlock: EZIPEK_clean_linker_0, # of connection points: 2
#     Edge 68, Type (0, 1), BuildingBlock: EZIPEK_clean_linker_0, # of connection points: 2
#     Edge 69, Type (0, 1), BuildingBlock: EZIPEK_clean_linker_0, # of connection points: 2
#     Edge 70, Type (0, 1), BuildingBlock: EZIPEK_clean_linker_0, # of connection points: 2
#     Edge 71, Type (0, 1), BuildingBlock: EZIPEK_clean_linker_0, # of connection points: 2
#     Edge 72, Type (0, 1), BuildingBlock: EZIPEK_clean_linker_0, # of connection points: 2
#     Edge 73, Type (0, 1), BuildingBlock: EZIPEK_clean_linker_0, # of connection points: 2
#     Edge 74, Type (0, 1), BuildingBlock: EZIPEK_clean_linker_0, # of connection points: 2
#     Edge 75, Type (0, 1), BuildingBlock: EZIPEK_clean_linker_0, # of connection points: 2
#     Edge 76, Type (0, 1), BuildingBlock: EZIPEK_clean_linker_0, # of connection points: 2
#     Edge 77, Type (0, 1), BuildingBlock: EZIPEK_clean_linker_0, # of connection points: 2
#     Edge 78, Type (0, 1), BuildingBlock: EZIPEK_clean_linker_0, # of connection points: 2
#     Edge 79, Type (0, 1), BuildingBlock: EZIPEK_clean_linker_0, # of connection points: 2
#     Edge 80, Type (0, 1), BuildingBlock: EZIPEK_clean_linker_0, # of connection points: 2
#     Edge 81, Type (0, 1), BuildingBlock: EZIPEK_clean_linker_0, # of connection points: 2
#     Edge 82, Type (0, 1), BuildingBlock: EZIPEK_clean_linker_0, # of connection points: 2
#     Edge 83, Type (0, 1), BuildingBlock: EZIPEK_clean_linker_0, # of connection points: 2
#     Edge 84, Type (0, 1), BuildingBlock: EZIPEK_clean_linker_0, # of connection points: 2
#     Edge 85, Type (0, 1), BuildingBlock: EZIPEK_clean_linker_0, # of connection points: 2
#     Edge 86, Type (0, 1), BuildingBlock: EZIPEK_clean_linker_0, # of connection points: 2
#     Edge 87, Type (0, 1), BuildingBlock: EZIPEK_clean_linker_0, # of connection points: 2
#     Edge 88, Type (0, 1), BuildingBlock: EZIPEK_clean_linker_0, # of connection points: 2
#     Edge 89, Type (0, 1), BuildingBlock: EZIPEK_clean_linker_0, # of connection points: 2
#     Edge 90, Type (0, 1), BuildingBlock: EZIPEK_clean_linker_0, # of connection points: 2
#     Edge 91, Type (0, 1), BuildingBlock: EZIPEK_clean_linker_0, # of connection points: 2
#     Edge 92, Type (0, 1), BuildingBlock: EZIPEK_clean_linker_0, # of connection points: 2
#     Edge 93, Type (0, 1), BuildingBlock: EZIPEK_clean_linker_0, # of connection points: 2
#     Edge 94, Type (0, 1), BuildingBlock: EZIPEK_clean_linker_0, # of connection points: 2
#     Edge 95, Type (0, 1), BuildingBlock: EZIPEK_clean_linker_0, # of connection points: 2
#     Edge 96, Type (0, 1), BuildingBlock: EZIPEK_clean_linker_0, # of connection points: 2
#     Edge 97, Type (0, 1), BuildingBlock: EZIPEK_clean_linker_0, # of connection points: 2
#     Edge 98, Type (0, 1), BuildingBlock: EZIPEK_clean_linker_0, # of connection points: 2
#     Edge 99, Type (0, 1), BuildingBlock: EZIPEK_clean_linker_0, # of connection points: 2
#     Edge 100, Type (0, 1), BuildingBlock: EZIPEK_clean_linker_0, # of connection points: 2
#     Edge 101, Type (0, 1), BuildingBlock: EZIPEK_clean_linker_0, # of connection points: 2
#     Edge 102, Type (0, 1), BuildingBlock: EZIPEK_clean_linker_0, # of connection points: 2
#     Edge 103, Type (0, 1), BuildingBlock: EZIPEK_clean_linker_0, # of connection points: 2
#     Edge 104, Type (0, 1), BuildingBlock: EZIPEK_clean_linker_0, # of connection points: 2
#     Edge 105, Type (0, 1), BuildingBlock: EZIPEK_clean_linker_0, # of connection points: 2
#     Edge 106, Type (0, 1), BuildingBlock: EZIPEK_clean_linker_0, # of connection points: 2
#     Edge 107, Type (0, 1), BuildingBlock: EZIPEK_clean_linker_0, # of connection points: 2
#     Edge 108, Type (0, 1), BuildingBlock: EZIPEK_clean_linker_0, # of connection points: 2
#     Edge 109, Type (0, 1), BuildingBlock: EZIPEK_clean_linker_0, # of connection points: 2
#     Edge 110, Type (0, 1), BuildingBlock: EZIPEK_clean_linker_0, # of connection points: 2
#     Edge 111, Type (0, 1), BuildingBlock: EZIPEK_clean_linker_0, # of connection points: 2
#     Edge 112, Type (0, 1), BuildingBlock: EZIPEK_clean_linker_0, # of connection points: 2
#     Edge 113, Type (0, 1), BuildingBlock: EZIPEK_clean_linker_0, # of connection points: 2
#     Edge 114, Type (0, 1), BuildingBlock: EZIPEK_clean_linker_0, # of connection points: 2
#     Edge 115, Type (0, 1), BuildingBlock: EZIPEK_clean_linker_0, # of connection points: 2
#     Edge 116, Type (0, 1), BuildingBlock: EZIPEK_clean_linker_0, # of connection points: 2
#     Edge 117, Type (0, 1), BuildingBlock: EZIPEK_clean_linker_0, # of connection points: 2
#     Edge 118, Type (0, 1), BuildingBlock: EZIPEK_clean_linker_0, # of connection points: 2
#     Edge 119, Type (0, 1), BuildingBlock: EZIPEK_clean_linker_0, # of connection points: 2
#     Edge 120, Type (0, 1), BuildingBlock: EZIPEK_clean_linker_0, # of connection points: 2
#     Edge 121, Type (0, 1), BuildingBlock: EZIPEK_clean_linker_0, # of connection points: 2
#     Edge 122, Type (0, 1), BuildingBlock: EZIPEK_clean_linker_0, # of connection points: 2
#     Edge 123, Type (0, 1), BuildingBlock: EZIPEK_clean_linker_0, # of connection points: 2
#     Edge 124, Type (0, 1), BuildingBlock: EZIPEK_clean_linker_0, # of connection points: 2
#     Edge 125, Type (0, 1), BuildingBlock: EZIPEK_clean_linker_0, # of connection points: 2
#     Edge 126, Type (0, 1), BuildingBlock: EZIPEK_clean_linker_0, # of connection points: 2
#     Edge 127, Type (0, 1), BuildingBlock: EZIPEK_clean_linker_0, # of connection points: 2
#     Edge 128, Type (0, 1), BuildingBlock: EZIPEK_clean_linker_0, # of connection points: 2
#     Edge 129, Type (0, 1), BuildingBlock: EZIPEK_clean_linker_0, # of connection points: 2
#     Edge 130, Type (0, 1), BuildingBlock: EZIPEK_clean_linker_0, # of connection points: 2
#     Edge 131, Type (0, 1), BuildingBlock: EZIPEK_clean_linker_0, # of connection points: 2
#     Edge 132, Type (0, 1), BuildingBlock: EZIPEK_clean_linker_0, # of connection points: 2
#     Edge 133, Type (0, 1), BuildingBlock: EZIPEK_clean_linker_0, # of connection points: 2
#     Edge 134, Type (0, 1), BuildingBlock: EZIPEK_clean_linker_0, # of connection points: 2
#     Edge 135, Type (0, 1), BuildingBlock: EZIPEK_clean_linker_0, # of connection points: 2
# Relax obj value: 0.123
# Max RMSD: 0.166
# Mean RMSD: 0.133
data_MOF--net-iac--node1-GALJAG_clean_sbu_0--node2-CIFDUS_clean_sbu_1--edge1-EZIPEK_clean_linker_0
_symmetry_space_group_name_H-M    P1
_symmetry_Int_Tables_number       1
_symmetry_cell_setting            triclinic
loop_
_symmetry_equiv_pos_as_xyz
'x, y, z'
_cell_length_a     40.183498
_cell_length_b     39.901035
_cell_length_c     40.139582
_cell_angle_alpha  89.715492
_cell_angle_beta   89.648398
_cell_angle_gamma 89.869557
loop_
_atom_site_label
_atom_site_type_symbol
_atom_site_fract_x
_atom_site_fract_y
_atom_site_fract_z
_atom_type_partial_charge
In0 In 0.00355 0.25121 0.12504 0.0
O1 O 0.03113 0.21456 0.08921 0.0
O2 O 0.98461 0.19937 0.10825 0.0
C3 C 0.00573 0.31287 0.09559 0.0
C4 C 0.94158 0.25342 0.15129 0.0
C5 C 0.05503 0.25069 0.16875 0.0
O6 O 0.00751 0.28604 0.07903 0.0
O7 O 0.00187 0.30855 0.12648 0.0
O8 O 0.027 0.23845 0.17605 0.0
O9 O 0.05709 0.26289 0.13985 0.0
C10 C 0.00917 0.19207 0.09009 0.0
O11 O 0.96713 0.24707 0.16846 0.0
O12 O 0.94723 0.25922 0.12078 0.0
In13 In 0.00097 0.76436 0.37944 0.0
O14 O 0.02442 0.7453 0.331 0.0
O15 O 0.05525 0.77156 0.36486 0.0
C16 C 0.93712 0.76037 0.36191 0.0
C17 C 0.01114 0.71587 0.42498 0.0
C18 C 0.99692 0.82915 0.39485 0.0
O19 O 0.96055 0.75987 0.34088 0.0
O20 O 0.9457 0.76175 0.39197 0.0
O21 O 0.00016 0.80647 0.41654 0.0
O22 O 0.99691 0.81946 0.36505 0.0
C23 C 0.053 0.75645 0.33744 0.0
O24 O 0.01976 0.74579 0.42985 0.0
O25 O 0.9977 0.71042 0.39719 0.0
In26 In 0.5023 0.76199 0.62718 0.0
O27 O 0.50545 0.79843 0.58227 0.0
O28 O 0.50183 0.81961 0.63032 0.0
C29 C 0.50772 0.70403 0.59066 0.0
C30 C 0.55498 0.76188 0.66998 0.0
C31 C 0.43908 0.75788 0.65084 0.0
O32 O 0.52008 0.7316 0.58129 0.0
O33 O 0.49318 0.70547 0.61857 0.0
O34 O 0.46426 0.74997 0.66781 0.0
O35 O 0.44552 0.76794 0.62162 0.0
C36 C 0.50443 0.82483 0.59945 0.0
O37 O 0.52562 0.76802 0.67924 0.0
O38 O 0.5579 0.75519 0.63946 0.0
In39 In 0.50143 0.25611 0.88169 0.0
O40 O 0.53511 0.23183 0.84204 0.0
O41 O 0.55312 0.27397 0.86854 0.0
C42 C 0.43973 0.25127 0.85833 0.0
C43 C 0.50964 0.20721 0.92701 0.0
C44 C 0.4945 0.3198 0.89877 0.0
O45 O 0.46482 0.25256 0.83926 0.0
O46 O 0.44571 0.25141 0.88906 0.0
O47 O 0.4983 0.29672 0.9201 0.0
O48 O 0.49471 0.31088 0.86867 0.0
C49 C 0.55887 0.25176 0.84708 0.0
O50 O 0.51653 0.23731 0.93347 0.0
O51 O 0.49863 0.20206 0.89815 0.0
In52 In 0.12651 0.00394 0.25987 0.0
O53 O 0.17204 0.96963 0.25167 0.0
O54 O 0.12662 0.94644 0.26569 0.0
C55 C 0.15833 0.06459 0.25685 0.0
C56 C 0.08866 -0.00015 0.20409 0.0
C57 C 0.10014 0.00917 0.32206 0.0
O58 O 0.17357 0.03717 0.26087 0.0
O59 O 0.12732 0.06145 0.25349 0.0
O60 O 0.08364 0.01476 0.296 0.0
O61 O 0.12987 0.00037 0.31693 0.0
C62 C 0.15692 0.94266 0.25823 0.0
O63 O 0.07686 0.99552 0.23296 0.0
O64 O 0.11937 0.00635 0.2032 0.0
In65 In 0.25593 0.88139 0.50762 0.0
O66 O 0.23023 0.92827 0.52827 0.0
O67 O 0.20255 0.89649 0.49637 0.0
C68 C 0.31747 0.90664 0.50753 0.0
C69 C 0.2464 0.84116 0.56086 0.0
C70 C 0.25912 0.85488 0.44667 0.0
O71 O 0.29191 0.9246 0.50365 0.0
O72 O 0.31219 0.87585 0.51214 0.0
O73 O 0.26111 0.8374 0.47283 0.0
O74 O 0.25484 0.88585 0.45102 0.0
C75 C 0.203 0.92257 0.51394 0.0
O76 O 0.23306 0.83532 0.53315 0.0
O77 O 0.26442 0.86694 0.56164 0.0
In78 In 0.38581 0.00374 0.76059 0.0
O79 O 0.33499 0.02346 0.74357 0.0
O80 O 0.37139 0.05903 0.75792 0.0
C81 C 0.37098 0.93844 0.75852 0.0
C82 C 0.42845 0.01253 0.70907 0.0
C83 C 0.40166 0.00639 0.8254 0.0
O84 O 0.34938 0.96127 0.7559 0.0
O85 O 0.40059 0.94832 0.76146 0.0
O86 O 0.4228 0.00924 0.80225 0.0
O87 O 0.37189 0.00361 0.81614 0.0
C88 C 0.34244 0.05387 0.74719 0.0
O89 O 0.43484 0.02291 0.73796 0.0
O90 O 0.40117 0.99726 0.70642 0.0
In91 In 0.26223 0.13423 0.99355 0.0
O92 O 0.29757 0.08993 0.00067 0.0
O93 O 0.31751 0.13485 0.98013 0.0
C94 C 0.20341 0.10075 0.99148 0.0
C95 C 0.26516 0.16177 0.05523 0.0
C96 C 0.26119 0.17025 0.93653 0.0
O97 O 0.23089 0.0872 0.98411 0.0
O98 O 0.20543 0.13092 0.00049 0.0
O99 O 0.27067 0.1825 0.96381 0.0
O100 O 0.2526 0.13988 0.93806 0.0
C101 C 0.32302 0.10558 0.99062 0.0
O102 O 0.25498 0.17789 0.03011 0.0
O103 O 0.27334 0.13187 0.04947 0.0
In104 In 0.75448 0.38036 0.00797 0.0
O105 O 0.73605 0.3322 0.03345 0.0
O106 O 0.76307 0.36737 0.06237 0.0
C107 C 0.75884 0.35812 0.94524 0.0
C108 C 0.70103 0.42082 0.01443 0.0
C109 C 0.81695 0.40307 0.00707 0.0
O110 O 0.7565 0.33853 0.96993 0.0
O111 O 0.7578 0.38888 0.95202 0.0
O112 O 0.79213 0.4223 0.00439 0.0
O113 O 0.81038 0.37246 0.01123 0.0
C114 C 0.74807 0.33967 0.06143 0.0
O115 O 0.72873 0.42775 0.02725 0.0
O116 O 0.70029 0.39375 -0.00162 0.0
In117 In 0.89073 0.50739 0.25867 0.0
O118 O 0.93984 0.52431 0.23489 0.0
O119 O 0.90553 0.49775 0.20481 0.0
C120 C 0.90909 0.51309 0.32231 0.0
C121 C 0.84942 0.55899 0.24481 0.0
C122 C 0.87226 0.44298 0.26062 0.0
O123 O 0.92955 0.51052 0.29858 0.0
O124 O 0.87884 0.51377 0.31418 0.0
O125 O 0.85196 0.46667 0.25596 0.0
O126 O 0.90225 0.45149 0.26372 0.0
C127 C 0.93318 0.51244 0.20668 0.0
O128 O 0.84059 0.52886 0.24185 0.0
O129 O 0.87878 0.5631 0.25488 0.0
In130 In 0.76664 0.63688 0.49963 0.0
O131 O 0.80066 0.59097 0.50384 0.0
O132 O 0.8225 0.63749 0.48976 0.0
C133 C 0.70596 0.60709 0.49701 0.0
C134 C 0.76862 0.6625 0.56213 0.0
C135 C 0.76696 0.67163 0.44165 0.0
O136 O 0.73274 0.59152 0.49093 0.0
O137 O 0.70971 0.63749 0.50466 0.0
O138 O 0.77636 0.68441 0.46873 0.0
O139 O 0.75795 0.64145 0.44398 0.0
C140 C 0.8269 0.60704 0.49691 0.0
O141 O 0.76068 0.67993 0.53702 0.0
O142 O 0.77537 0.63233 0.55582 0.0
In143 In 0.62625 0.50215 0.76024 0.0
O144 O 0.67023 0.46628 0.7494 0.0
O145 O 0.62781 0.44585 0.77339 0.0
C146 C 0.65724 0.56352 0.75779 0.0
C147 C 0.59041 0.49514 0.70308 0.0
C148 C 0.598 0.50724 0.82168 0.0
O149 O 0.67244 0.53659 0.76443 0.0
O150 O 0.62684 0.55948 0.75141 0.0
O151 O 0.58155 0.51032 0.79512 0.0
O152 O 0.62857 0.50134 0.81735 0.0
C153 C 0.65638 0.44046 0.76142 0.0
O154 O 0.57706 0.49498 0.73162 0.0
O155 O 0.62158 0.49895 0.70329 0.0
In156 In 0.01175 0.74883 0.87577 0.0
O157 O 0.04581 0.73573 0.8316 0.0
O158 O 0.06757 0.7615 0.8719 0.0
C159 C 0.95429 0.74899 0.84034 0.0
C160 C 0.01047 0.68877 0.90886 0.0
C161 C 0.00968 0.80949 0.90749 0.0
O162 O 0.98193 0.75684 0.82753 0.0
O163 O 0.95539 0.74132 0.87083 0.0
O164 O 0.01865 0.78266 0.92175 0.0
O165 O 0.00123 0.80577 0.8775 0.0
C166 C 0.07161 0.74891 0.8434 0.0
O167 O 0.00401 0.71623 0.92299 0.0
O168 O 0.01825 0.69156 0.87855 0.0
In169 In 0.00572 0.26367 0.62682 0.0
O170 O 0.9904 0.28841 0.57813 0.0
O171 O 0.01281 0.31893 0.61533 0.0
C172 C 0.0073 0.20048 0.60608 0.0
C173 C 0.06864 0.25869 0.64696 0.0
C174 C 0.95148 0.27032 0.66552 0.0
O175 O 0.00859 0.22491 0.58602 0.0
O176 O 0.00338 0.20788 0.63631 0.0
O177 O 0.97958 0.28096 0.67457 0.0
O178 O 0.95087 0.2568 0.63719 0.0
C179 C 0.00036 0.31709 0.58659 0.0
O180 O 0.04453 0.25727 0.66721 0.0
O181 O 0.06119 0.26486 0.61714 0.0
In182 In 0.51147 0.25652 0.37215 0.0
O183 O 0.54537 0.24167 0.32861 0.0
O184 O 0.56757 0.26771 0.36857 0.0
C185 C 0.4556 0.25714 0.33438 0.0
C186 C 0.50809 0.19759 0.40709 0.0
C187 C 0.51087 0.31795 0.40245 0.0
O188 O 0.48416 0.26219 0.32227 0.0
O189 O 0.45493 0.25234 0.36548 0.0
O190 O 0.52049 0.29144 0.41685 0.0
O191 O 0.50108 0.31355 0.37297 0.0
C192 C 0.5714 0.25436 0.34039 0.0
O193 O 0.5009 0.22551 0.41988 0.0
O194 O 0.51728 0.19929 0.37712 0.0
In195 In 0.50505 0.75343 0.13681 0.0
O196 O 0.50206 0.71662 0.09423 0.0
O197 O 0.50451 0.69724 0.14387 0.0
C198 C 0.49888 0.81121 0.10273 0.0
C199 C 0.45457 0.75834 0.18111 0.0
C200 C 0.56966 0.74818 0.15017 0.0
O201 O 0.48305 0.78526 0.09451 0.0
O202 O 0.51755 0.80768 0.12766 0.0
O203 O 0.54775 0.74879 0.17292 0.0
O204 O 0.5591 0.75159 0.12085 0.0
C205 C 0.50371 0.69127 0.11313 0.0
O206 O 0.48416 0.7653 0.18893 0.0
O207 O 0.45077 0.74899 0.15141 0.0
In208 In 0.88339 0.00398 0.75105 0.0
O209 O 0.91939 0.02826 0.71325 0.0
O210 O 0.89415 0.98407 0.69872 0.0
C211 C 0.92827 0.99895 0.80154 0.0
C212 C 0.8478 0.06268 0.75152 0.0
C213 C 0.84636 0.94633 0.75736 0.0
O214 O 0.93712 0.00222 0.77154 0.0
O215 O 0.89732 0.99687 0.8059 0.0
O216 O 0.8395 0.97301 0.77282 0.0
O217 O 0.87191 0.94877 0.73912 0.0
C218 C 0.91484 0.00657 0.69096 0.0
O219 O 0.84195 0.03945 0.73118 0.0
O220 O 0.8709 0.0561 0.77152 0.0
In221 In 0.75509 0.14177 0.50313 0.0
O222 O 0.78038 0.09409 0.48395 0.0
O223 O 0.80856 0.12737 0.51397 0.0
C224 C 0.69288 0.11826 0.5008 0.0
C225 C 0.74885 0.16016 0.56682 0.0
C226 C 0.76954 0.18567 0.45404 0.0
O227 O 0.71806 0.09935 0.49995 0.0
O228 O 0.69894 0.14923 0.50108 0.0
O229 O 0.77937 0.18963 0.4835 0.0
O230 O 0.75209 0.15993 0.44928 0.0
C231 C 0.80792 0.10056 0.49745 0.0
O232 O 0.74554 0.18065 0.54302 0.0
O233 O 0.75634 0.13064 0.5586 0.0
In234 In 0.63147 0.00524 0.26304 0.0
O235 O 0.6658 0.96569 0.23976 0.0
O236 O 0.6528 0.95937 0.29052 0.0
C237 C 0.65935 0.06584 0.26925 0.0
C238 C 0.60543 0.01072 0.20214 0.0
C239 C 0.58478 0.00047 0.31084 0.0
O240 O 0.67593 0.03916 0.27288 0.0
O241 O 0.62873 0.06198 0.26442 0.0
O242 O 0.58058 0.98828 0.28217 0.0
O243 O 0.61228 0.01508 0.31524 0.0
C244 C 0.66787 0.9478 0.26554 0.0
O245 O 0.58854 0.001 0.22693 0.0
O246 O 0.63557 0.0169 0.20773 0.0
In247 In 0.74628 0.88452 0.01498 0.0
O248 O 0.71048 0.92891 0.01013 0.0
O249 O 0.69036 0.88171 0.02464 0.0
C250 C 0.80759 0.91402 0.0159 0.0
C251 C 0.74836 0.85562 0.07588 0.0
C252 C 0.74156 0.85372 0.95482 0.0
O253 O 0.78088 0.9308 0.01707 0.0
O254 O 0.80335 0.88284 0.01399 0.0
O255 O 0.74345 0.83778 0.98198 0.0
O256 O 0.74239 0.88515 0.95771 0.0
C257 C 0.68484 0.9121 0.01781 0.0
O258 O 0.75445 0.83966 0.04939 0.0
O259 O 0.74042 0.88592 0.07153 0.0
In260 In 0.25669 0.63797 -0.00059 0.0
O261 O 0.22615 0.6667 0.03733 0.0
O262 O 0.27599 0.6542 0.05004 0.0
C263 C 0.27169 0.68062 0.9491 0.0
C264 C 0.3051 0.59137 0.99529 0.0
C265 C 0.19748 0.60786 0.00083 0.0
O266 O 0.27632 0.6881 0.97912 0.0
O267 O 0.25935 0.6521 0.94445 0.0
O268 O 0.22319 0.59461 0.01322 0.0
O269 O 0.20182 0.636 0.98692 0.0
C270 C 0.24891 0.66783 0.05866 0.0
O271 O 0.27816 0.58879 0.97956 0.0
O272 O 0.30713 0.61675 0.01377 0.0
In273 In 0.1326 0.50171 0.75763 0.0
O274 O 0.17808 0.4732 0.77758 0.0
O275 O 0.1472 0.44857 0.74276 0.0
C276 C 0.15547 0.56439 0.76318 0.0
C277 C 0.10873 0.51356 0.69649 0.0
C278 C 0.08891 0.49238 0.80762 0.0
O279 O 0.17367 0.54032 0.75389 0.0
O280 O 0.12595 0.55686 0.77082 0.0
O281 O 0.08283 0.48314 0.77828 0.0
O282 O 0.11692 0.50592 0.81176 0.0
C283 C 0.1724 0.44698 0.76122 0.0
O284 O 0.09086 0.5024 0.71997 0.0
O285 O 0.13907 0.51689 0.70333 0.0
In286 In 0.25327 0.38158 0.50824 0.0
O287 O 0.26379 0.33586 0.54077 0.0
O288 O 0.24476 0.37942 0.56448 0.0
C289 C 0.24668 0.34692 0.45028 0.0
C290 C 0.1964 0.41709 0.50372 0.0
C291 C 0.31349 0.41186 0.51284 0.0
O292 O 0.22806 0.34256 0.47524 0.0
O293 O 0.26918 0.36836 0.45473 0.0
O294 O 0.28649 0.42828 0.51361 0.0
O295 O 0.31005 0.38066 0.50932 0.0
C296 C 0.25546 0.34988 0.5677 0.0
O297 O 0.22385 0.42839 0.49289 0.0
O298 O 0.19795 0.38867 0.51741 0.0
In299 In 0.37973 0.50491 0.25202 0.0
O300 O 0.38682 0.52305 0.19811 0.0
O301 O 0.42188 0.4879 0.21691 0.0
C302 C 0.42243 0.50921 0.3046 0.0
C303 C 0.34239 0.5625 0.25273 0.0
C304 C 0.34292 0.44657 0.25533 0.0
O305 O 0.42889 0.52199 0.27645 0.0
O306 O 0.39536 0.49329 0.30581 0.0
O307 O 0.33668 0.47192 0.27298 0.0
O308 O 0.36775 0.4505 0.23644 0.0
C309 C 0.41203 0.50509 0.19233 0.0
O310 O 0.33829 0.53957 0.23164 0.0
O311 O 0.3648 0.55615 0.27367 0.0
O312 O 0.05631 0.02377 0.99459 0.0
Mn313 Mn 0.01001 -0.0006 0.00165 0.0
O314 O 0.09639 0.98486 0.00119 0.0
Mn315 Mn 0.0684 0.95251 0.0189 0.0
O316 O 0.96362 0.97538 0.00996 0.0
O317 O 0.98893 0.04566 0.00683 0.0
Mn318 Mn 0.95173 0.04581 0.9833 0.0
O319 O 0.00153 -0.00064 0.94983 0.0
O320 O 0.92357 0.01392 0.00144 0.0
O321 O 0.01884 -0.00081 0.05339 0.0
O322 O 0.05765 0.95963 0.06318 0.0
O323 O 0.95443 0.08784 0.0013 0.0
O324 O 0.96244 0.03823 0.9391 0.0
C325 C 0.03841 0.92258 0.98721 0.0
C326 C 0.08719 0.01482 0.995 0.0
C327 C 0.93272 0.9844 0.00946 0.0
C328 C 0.98161 0.07654 0.0144 0.0
C329 C 0.98257 0.01551 0.92953 0.0
C330 C 0.0379 0.98252 0.07322 0.0
O331 O 0.03108 0.95319 0.99583 0.0
O332 O 0.0656 0.91088 -3e-05 0.0
O333 O 0.30456 0.7554 0.24919 0.0
Mn334 Mn 0.25273 0.75468 0.25671 0.0
O335 O 0.31637 0.7973 0.21349 0.0
Mn336 Mn 0.27299 0.80274 0.19976 0.0
O337 O 0.20118 0.75374 0.2645 0.0
O338 O 0.25855 0.70845 0.27801 0.0
Mn339 Mn 0.23565 0.70848 0.31571 0.0
O340 O 0.25844 0.77917 0.30196 0.0
O341 O 0.19155 0.71582 0.30511 0.0
O342 O 0.24596 0.73117 0.21108 0.0
O343 O 0.25848 0.76943 0.17153 0.0
O344 O 0.25382 0.66652 0.31328 0.0
O345 O 0.25347 0.74089 0.34288 0.0
C346 C 0.2378 0.83092 0.2282 0.0
C347 C 0.32538 0.77346 0.23257 0.0
C348 C 0.18146 0.73756 0.28411 0.0
C349 C 0.2663 0.67761 0.28554 0.0
C350 C 0.25893 0.77064 0.33276 0.0
C351 C 0.24911 0.74019 0.18048 0.0
O352 O 0.24716 0.80059 0.23544 0.0
O353 O 0.25175 0.84353 0.20186 0.0
O354 O 0.46039 0.98631 0.5064 0.0
Mn355 Mn 0.50371 0.01467 0.50794 0.0
O356 O 0.41709 0.02201 0.51015 0.0
Mn357 Mn 0.44197 0.05792 0.52457 0.0
O358 O 0.54679 0.0433 0.50996 0.0
O359 O 0.52901 0.97133 0.51588 0.0
Mn360 Mn 0.56595 0.97214 0.49187 0.0
O361 O 0.50935 0.00982 0.45619 0.0
O362 O 0.59061 0.00839 0.50597 0.0
O363 O 0.49793 0.01889 0.55957 0.0
O364 O 0.45486 0.05398 0.56864 0.0
O365 O 0.56653 0.9318 0.51423 0.0
O366 O 0.55279 0.97498 0.44791 0.0
C367 C 0.46956 0.08759 0.48967 0.0
C368 C 0.42911 0.9927 0.50642 0.0
C369 C 0.57815 0.03747 0.50982 0.0
C370 C 0.53826 0.94187 0.52615 0.0
C371 C 0.52936 0.99355 0.43697 0.0
C372 C 0.47764 0.03434 0.57911 0.0
O373 O 0.47862 0.05815 0.50019 0.0
O374 O 0.44176 0.09828 0.50215 0.0
O375 O 0.29731 0.25012 0.77821 0.0
Mn376 Mn 0.25804 0.24716 0.74506 0.0
O377 O 0.34486 0.25242 0.74826 0.0
Mn378 Mn 0.326 0.2398 0.70855 0.0
O379 O 0.2182 0.24386 0.71185 0.0
O380 O 0.2292 0.23509 0.78485 0.0
Mn381 Mn 0.18976 0.25377 0.78051 0.0
O382 O 0.24725 0.29806 0.75275 0.0
O383 O 0.17178 0.23639 0.74244 0.0
O384 O 0.26875 0.19599 0.73612 0.0
O385 O 0.31573 0.19495 0.70539 0.0
O386 O 0.18899 0.23241 0.82118 0.0
O387 O 0.19728 0.29967 0.77874 0.0
C388 C 0.29797 0.27379 0.67893 0.0
C389 C 0.32895 0.25307 0.77574 0.0
C390 C 0.18683 0.23818 0.71454 0.0
C391 C 0.21992 0.22595 0.81453 0.0
C392 C 0.22248 0.31412 0.76559 0.0
C393 C 0.29091 0.18011 0.71881 0.0
O394 O 0.28744 0.26036 0.70636 0.0
O395 O 0.32815 0.26597 0.67068 0.0
O396 O -0.00198 0.97337 0.47131 0.0
Mn397 Mn 0.00581 0.01216 0.5046 0.0
O398 O 0.99577 0.92523 0.50061 0.0
Mn399 Mn 0.0135 0.94296 0.53894 0.0
O400 O 0.01364 0.05136 0.53746 0.0
O401 O 0.0168 0.04141 0.46496 0.0
Mn402 Mn 0.99683 0.08048 0.46827 0.0
O403 O 0.95524 0.02499 0.50138 0.0
O404 O 0.01275 0.09901 0.50702 0.0
O405 O 0.05636 -0.00057 0.5082 0.0
O406 O 0.05887 0.9507 0.53674 0.0
O407 O 0.02059 0.08193 0.42877 0.0
O408 O 0.95175 0.07143 0.4693 0.0
C409 C 0.98377 0.97175 0.57263 0.0
C410 C 0.99368 0.94166 0.47345 0.0
C411 C 0.01626 0.08326 0.53449 0.0
C412 C 0.02897 0.05166 0.43683 0.0
C413 C 0.9384 0.04809 0.48652 0.0
C414 C 0.07278 0.97513 0.52154 0.0
O415 O 0.99476 0.98259 0.54417 0.0
O416 O 0.99169 0.94104 0.57942 0.0
O417 O 0.29308 0.79441 0.7552 0.0
Mn418 Mn 0.26145 0.75303 0.75586 0.0
O419 O 0.26271 0.83969 0.76807 0.0
Mn420 Mn 0.22422 0.82038 0.75249 0.0
O421 O 0.23042 0.7114 0.75646 0.0
O422 O 0.30066 0.72552 0.74014 0.0
Mn423 Mn 0.30283 0.68779 0.76286 0.0
O424 O 0.27442 0.74452 0.80582 0.0
O425 O 0.26327 0.66551 0.75569 0.0
O426 O 0.24959 0.76265 0.70628 0.0
O427 O 0.22419 0.81325 0.70667 0.0
O428 O 0.33807 0.6867 0.73319 0.0
O429 O 0.30979 0.70095 0.80634 0.0
C430 C 0.1923 0.78917 0.78211 0.0
C431 C 0.29056 0.82538 0.76307 0.0
C432 C 0.2348 0.67957 0.75573 0.0
C433 C 0.32752 0.71619 0.72481 0.0
C434 C 0.29515 0.7252 0.82102 0.0
C435 C 0.23645 0.788 0.69138 0.0
O436 O 0.2213 0.78018 0.77073 0.0
O437 O 0.18481 0.82015 0.77595 0.0
O438 O 0.47423 0.00428 0.97174 0.0
Mn439 Mn 0.50193 0.01096 0.01508 0.0
O440 O 0.51034 0.00387 0.92852 0.0
Mn441 Mn 0.54635 0.01971 0.95219 0.0
O442 O 0.52942 0.01863 0.05775 0.0
O443 O 0.45968 0.02301 0.03858 0.0
Mn444 Mn 0.45639 0.00479 0.07806 0.0
O445 O 0.49705 0.96043 0.02964 0.0
O446 O 0.49343 0.01961 0.10112 0.0
O447 O 0.50697 0.06135 0.0027 0.0
O448 O 0.54432 0.0653 0.96084 0.0
O449 O 0.41816 0.03018 0.07236 0.0
O450 O 0.45673 0.95947 0.06915 0.0
C451 C 0.5734 0.98694 0.98452 0.0
C452 C 0.48092 0.00203 0.94047 0.0
C453 C 0.5228 0.02134 0.08889 0.0
C454 C 0.43099 0.0365 0.0434 0.0
C455 C 0.47842 0.94484 0.05093 0.0
C456 C 0.52418 0.07848 0.98172 0.0
O457 O 0.54452 -0.00051 0.99123 0.0
O458 O 0.58542 0.99564 0.9558 0.0
O459 O 0.30562 0.25531 0.26354 0.0
Mn460 Mn 0.25406 0.25346 0.25328 0.0
O461 O 0.31793 0.21268 0.29796 0.0
Mn462 Mn 0.27427 0.20678 0.31074 0.0
O463 O 0.20249 0.25214 0.24337 0.0
O464 O 0.25922 0.29995 0.23184 0.0
Mn465 Mn 0.23689 0.29843 0.19384 0.0
O466 O 0.26407 0.22904 0.20773 0.0
O467 O 0.19257 0.29025 0.20331 0.0
O468 O 0.24387 0.277 0.29899 0.0
O469 O 0.25878 0.24011 0.3388 0.0
O470 O 0.25352 0.34096 0.19565 0.0
O471 O 0.25611 0.26654 0.16658 0.0
C472 C 0.24057 0.17685 0.28311 0.0
C473 C 0.32664 0.23771 0.28034 0.0
C474 C 0.18253 0.26783 0.22366 0.0
C475 C 0.26606 0.33093 0.22363 0.0
C476 C 0.26383 0.23727 0.17663 0.0
C477 C 0.2477 0.26874 0.32982 0.0
O478 O 0.24899 0.2073 0.2748 0.0
O479 O 0.25459 0.16542 0.30981 0.0
O480 O 0.49606 0.46476 0.97388 0.0
Mn481 Mn 0.50204 0.50505 0.00556 0.0
O482 O 0.49567 0.41784 0.00519 0.0
Mn483 Mn 0.51305 0.43774 0.04268 0.0
O484 O 0.50766 0.54543 0.03714 0.0
O485 O 0.51176 0.53351 0.9648 0.0
Mn486 Mn 0.48996 0.57175 0.96779 0.0
O487 O 0.45088 0.51488 0.00172 0.0
O488 O 0.50507 0.59236 0.00585 0.0
O489 O 0.55312 0.49498 0.0094 0.0
O490 O 0.55801 0.44742 0.03958 0.0
O491 O 0.51319 0.57389 0.92813 0.0
O492 O 0.44533 0.56073 0.96927 0.0
C493 C 0.4821 0.4666 0.07534 0.0
C494 C 0.49276 0.43306 0.9774 0.0
C495 C 0.50887 0.57729 0.0336 0.0
C496 C 0.52322 0.54419 0.93644 0.0
C497 C 0.43295 0.53689 0.98657 0.0
C498 C 0.57069 0.47185 0.0233 0.0
O499 O 0.49265 0.4767 0.04645 0.0
O500 O 0.49136 0.43656 0.08331 0.0
O501 O 0.7953 0.29783 0.2584 0.0
Mn502 Mn 0.76495 0.25544 0.25896 0.0
O503 O 0.76326 0.3423 0.2693 0.0
Mn504 Mn 0.72648 0.3213 0.25209 0.0
O505 O 0.73583 0.21238 0.25977 0.0
O506 O 0.8057 0.22892 0.24614 0.0
Mn507 Mn 0.8093 0.19296 0.27135 0.0
O508 O 0.77568 0.24922 0.30983 0.0
O509 O 0.77096 0.16839 0.26482 0.0
O510 O 0.75504 0.26308 0.20844 0.0
O511 O 0.72869 0.31317 0.20651 0.0
O512 O 0.84511 0.1917 0.2424 0.0
O513 O 0.81442 0.20897 0.31407 0.0
C514 C 0.69332 0.29075 0.28057 0.0
C515 C 0.79164 0.32878 0.26581 0.0
C516 C 0.74189 0.18084 0.26192 0.0
C517 C 0.83309 0.21984 0.23172 0.0
C518 C 0.79685 0.23222 0.327 0.0
C519 C 0.74185 0.28771 0.19235 0.0
O520 O 0.72295 0.28145 0.27107 0.0
O521 O 0.6861 0.3216 0.27337 0.0
O522 O 0.98519 0.51326 0.46591 0.0
Mn523 Mn 0.01211 0.5184 0.50956 0.0
O524 O 0.02053 0.52452 0.4237 0.0
Mn525 Mn 0.05548 0.53741 0.45046 0.0
O526 O 0.03837 0.52651 0.55354 0.0
O527 O 0.9686 0.52496 0.53351 0.0
Mn528 Mn 0.96849 0.50329 0.57178 0.0
O529 O 0.00885 0.46653 0.51753 0.0
O530 O 0.00229 0.52245 0.59611 0.0
O531 O 0.01343 0.57034 0.50197 0.0
O532 O 0.05299 0.58121 0.46416 0.0
O533 O 0.92744 0.52394 0.56878 0.0
O534 O 0.97375 0.45865 0.56075 0.0
C535 C 0.08534 0.50003 0.47308 0.0
C536 C 0.9918 0.51672 0.43481 0.0
C537 C 0.03083 0.53023 0.5844 0.0
C538 C 0.93874 0.53466 0.54045 0.0
C539 C 0.9923 0.44738 0.53742 0.0
C540 C 0.03054 0.59093 0.48427 0.0
O541 O 0.05655 0.50977 0.48518 0.0
O542 O 0.09542 0.51654 0.44701 0.0
O543 O 0.79325 0.75604 0.28539 0.0
Mn544 Mn 0.75497 0.74857 0.25185 0.0
O545 O 0.84056 0.76239 0.25554 0.0
Mn546 Mn 0.82314 0.7499 0.21501 0.0
O547 O 0.71653 0.74096 0.21848 0.0
O548 O 0.72765 0.73167 0.29044 0.0
Mn549 Mn 0.68635 0.74574 0.28824 0.0
O550 O 0.73694 0.79728 0.25965 0.0
O551 O 0.67041 0.72924 0.24849 0.0
O552 O 0.77194 0.69939 0.24214 0.0
O553 O 0.81732 0.70439 0.20958 0.0
O554 O 0.68997 0.72256 0.32805 0.0
O555 O 0.68912 0.79216 0.28913 0.0
C556 C 0.79112 0.78242 0.18736 0.0
C557 C 0.82458 0.76144 0.28303 0.0
C558 C 0.68567 0.73318 0.22078 0.0
C559 C 0.72111 0.72036 0.31995 0.0
C560 C 0.71109 0.80983 0.27414 0.0
C561 C 0.79463 0.68654 0.22315 0.0
O562 O 0.78263 0.76636 0.214 0.0
O563 O 0.82186 0.77835 0.17857 0.0
O564 O 0.80541 0.25892 0.74156 0.0
Mn565 Mn 0.7564 0.25387 0.75869 0.0
O566 O 0.80504 0.29554 0.69874 0.0
Mn567 Mn 0.75931 0.2957 0.69392 0.0
O568 O 0.70757 0.2496 0.77669 0.0
O569 O 0.77114 0.21107 0.78272 0.0
Mn570 Mn 0.75444 0.21261 0.82338 0.0
O571 O 0.76749 0.28396 0.79911 0.0
O572 O 0.70883 0.2121 0.81868 0.0
O573 O 0.74481 0.22413 0.7179 0.0
O574 O 0.74279 0.25809 0.67304 0.0
O575 O 0.77753 0.17315 0.82199 0.0
O576 O 0.77033 0.25053 0.84424 0.0
C577 C 0.72905 0.32507 0.72658 0.0
C578 C 0.82033 0.27644 0.71906 0.0
C579 C 0.69316 0.23202 0.79946 0.0
C580 C 0.7831 0.1819 0.79136 0.0
C581 C 0.77149 0.2793 0.83041 0.0
C582 C 0.74035 0.22927 0.68667 0.0
O583 O 0.74203 0.29628 0.7345 0.0
O584 O 0.73543 0.33497 0.69648 0.0
O585 O 0.80358 0.75175 0.77109 0.0
Mn586 Mn 0.75239 0.75427 0.76025 0.0
O587 O 0.80991 0.7131 0.81158 0.0
Mn588 Mn 0.76487 0.70782 0.82013 0.0
O589 O 0.7009 0.75678 0.74957 0.0
O590 O 0.76102 0.80013 0.73846 0.0
Mn591 Mn 0.73983 0.7991 0.69976 0.0
O592 O 0.76127 0.72851 0.71515 0.0
O593 O 0.69482 0.7937 0.70759 0.0
O594 O 0.74496 0.77978 0.80585 0.0
O595 O 0.74681 0.74102 0.84669 0.0
O596 O 0.75852 0.84064 0.70115 0.0
O597 O 0.75828 0.76606 0.67348 0.0
C598 C 0.73379 0.6782 0.78943 0.0
C599 C 0.8218 0.73485 0.79148 0.0
C600 C 0.68271 0.77287 0.72846 0.0
C601 C 0.76957 0.83056 0.72975 0.0
C602 C 0.76335 0.7364 0.68403 0.0
C603 C 0.74311 0.77118 0.83685 0.0
O604 O 0.74357 0.70846 0.78171 0.0
O605 O 0.74482 0.66679 0.81752 0.0
O606 O 0.55595 0.53365 0.49594 0.0
Mn607 Mn 0.51152 0.5063 0.50308 0.0
O608 O 0.59854 0.49718 0.49663 0.0
Mn609 Mn 0.57277 0.46149 0.5106 0.0
O610 O 0.46705 0.47857 0.51079 0.0
O611 O 0.48993 0.55242 0.51439 0.0
Mn612 Mn 0.45012 0.54887 0.49519 0.0
O613 O 0.49992 0.51206 0.45201 0.0
O614 O 0.42516 0.51525 0.51408 0.0
O615 O 0.52293 0.49844 0.55457 0.0
O616 O 0.56404 0.46045 0.5556 0.0
O617 O 0.44924 0.58995 0.51383 0.0
O618 O 0.45474 0.54502 0.44943 0.0
C619 C 0.54295 0.43275 0.47828 0.0
C620 C 0.58725 0.52683 0.49398 0.0
C621 C 0.43605 0.48546 0.51557 0.0
C622 C 0.47936 0.58258 0.5227 0.0
C623 C 0.47668 0.5268 0.43542 0.0
C624 C 0.54236 0.47816 0.57068 0.0
O625 O 0.53393 0.46195 0.48997 0.0
O626 O 0.57212 0.4224 0.48727 0.0
O627 O 0.96558 0.47388 0.00224 0.0
Mn628 Mn 0.00853 0.50264 0.00556 0.0
O629 O 0.92177 0.5087 0.00776 0.0
Mn630 Mn 0.94624 0.54497 0.02207 0.0
O631 O 0.05137 0.53155 0.00877 0.0
O632 O 0.03406 0.45939 0.01334 0.0
Mn633 Mn 0.07132 0.4608 0.98988 0.0
O634 O 0.01502 0.49842 0.95395 0.0
O635 O 0.09549 0.49698 0.00483 0.0
O636 O 0.00217 0.50664 0.05723 0.0
O637 O 0.95927 0.5419 0.06605 0.0
O638 O 0.07199 0.42017 0.01162 0.0
O639 O 0.05886 0.46411 0.94576 0.0
C640 C 0.97348 0.57538 0.98755 0.0
C641 C 0.93421 0.47977 0.00283 0.0
C642 C 0.08277 0.52589 0.00903 0.0
C643 C 0.04345 0.42983 0.02323 0.0
C644 C 0.03539 0.4826 0.93479 0.0
C645 C 0.98232 0.52272 0.0767 0.0
O646 O 0.98302 0.54597 0.99777 0.0
O647 O 0.94532 0.58536 -0.00019 0.0
C648 C 0.00382 0.12906 0.08903 0.0
C649 C 0.01156 0.15938 0.07183 0.0
C650 C 0.01678 0.12709 0.01995 0.0
C651 C 0.00152 0.09927 0.03571 0.0
N652 N 0.98092 0.07287 0.08559 0.0
N653 N 0.02466 0.18723 0.01965 0.0
C654 C 0.99575 0.09976 0.07053 0.0
C655 C 0.0187 0.1583 0.03703 0.0
N656 N 0.0048 0.12817 0.12303 0.0
N657 N 0.02865 0.12362 0.98821 0.0
H658 H 0.02537 0.21079 0.03061 0.0
H659 H 0.02628 0.18824 0.99376 0.0
H660 H 0.02729 0.10083 0.97558 0.0
H661 H 0.04267 0.1419 0.97599 0.0
H662 H 0.00232 0.10616 0.13688 0.0
H663 H 0.01168 0.14887 0.13718 0.0
H664 H 0.97235 0.07305 0.11012 0.0
H665 H 0.97602 0.05071 0.07282 0.0
C666 C 0.09244 0.72101 0.30318 0.0
C667 C 0.08192 0.75298 0.3146 0.0
C668 C 0.13439 0.77788 0.29563 0.0
C669 C 0.14545 0.74561 0.28544 0.0
N670 N 0.1312 0.68988 0.26844 0.0
N671 N 0.08734 0.81298 0.31055 0.0
C672 C 0.1229 0.71841 0.28524 0.0
C673 C 0.10109 0.78183 0.30699 0.0
N674 N 0.07498 0.69282 0.31158 0.0
N675 N 0.15606 0.80416 0.29704 0.0
H676 H 0.06269 0.81653 0.31813 0.0
H677 H 0.09906 0.83487 0.30254 0.0
H678 H 0.1807 0.80272 0.28913 0.0
H679 H 0.15024 0.82693 0.30828 0.0
H680 H 0.08375 0.66866 0.30711 0.0
H681 H 0.05295 0.69321 0.32535 0.0
H682 H 0.11476 0.67006 0.26498 0.0
H683 H 0.15346 0.68775 0.25504 0.0
C684 C 0.48712 0.86846 0.55698 0.0
C685 C 0.50735 0.85917 0.58453 0.0
C686 C 0.53454 0.91422 0.58122 0.0
C687 C 0.51985 0.91992 0.54983 0.0
N688 N 0.4814 0.9033 0.50743 0.0
N689 N 0.55285 0.87291 0.62135 0.0
C690 C 0.4954 0.89757 0.53785 0.0
C691 C 0.53126 0.88228 0.5968 0.0
N692 N 0.45971 0.84981 0.5495 0.0
N693 N 0.5523 0.93934 0.59566 0.0
H694 H 0.55306 0.84917 0.63217 0.0
H695 H 0.57286 0.8876 0.62873 0.0
H696 H 0.55478 0.96288 0.5844 0.0
H697 H 0.56126 0.93803 0.61993 0.0
H698 H 0.44236 0.85692 0.53163 0.0
H699 H 0.45256 0.82891 0.56351 0.0
H700 H 0.46623 0.8861 0.4954 0.0
H701 H 0.48636 0.9249 0.49352 0.0
C702 C 0.38721 0.22312 0.84206 0.0
C703 C 0.40574 0.25298 0.84543 0.0
C704 C 0.36331 0.28461 0.81529 0.0
C705 C 0.34894 0.25386 0.80602 0.0
N706 N 0.34457 0.19383 0.81123 0.0
N707 N 0.41082 0.3129 0.83907 0.0
C708 C 0.35954 0.22311 0.82033 0.0
C709 C 0.39328 0.28414 0.83367 0.0
N710 N 0.39653 0.1949 0.85909 0.0
N711 N 0.34828 0.31395 0.80603 0.0
H712 H 0.43191 0.31354 0.854 0.0
H713 H 0.40522 0.33589 0.82809 0.0
H714 H 0.32605 0.31437 0.79268 0.0
H715 H 0.356 0.33751 0.81378 0.0
H716 H 0.38246 0.17305 0.85994 0.0
H717 H 0.41718 0.19426 0.87473 0.0
H718 H 0.35339 0.17015 0.81768 0.0
H719 H 0.32379 0.19321 0.7958 0.0
C720 C 0.01672 0.88771 0.40054 0.0
C721 C 0.99089 0.86405 0.40448 0.0
C722 C 0.96018 0.90263 0.44033 0.0
C723 C 0.98934 0.92198 0.44298 0.0
N724 N 0.04527 0.9348 0.42485 0.0
N725 N 0.93633 0.84922 0.42508 0.0
C726 C 0.01726 0.91576 0.42202 0.0
C727 C 0.9617 0.8719 0.42291 0.0
N728 N 0.0412 0.88266 0.37731 0.0
N729 N 0.93151 0.91354 0.45523 0.0
H730 H 0.93627 0.82696 0.4116 0.0
H731 H 0.91605 0.85173 0.44113 0.0
H732 H 0.93036 0.93628 0.46797 0.0
H733 H 0.90854 0.9019 0.45244 0.0
H734 H 0.05919 0.90047 0.37133 0.0
H735 H 0.04173 0.86178 0.36181 0.0
H736 H 0.06791 0.929 0.4135 0.0
H737 H 0.04619 0.95594 0.43981 0.0
C738 C 0.38095 0.73366 0.6507 0.0
C739 C 0.40483 0.75546 0.66493 0.0
C740 C 0.37069 0.76043 0.71553 0.0
C741 C 0.34784 0.7372 0.70207 0.0
N742 N 0.32514 0.71029 0.65407 0.0
N743 N 0.41684 0.79827 0.70513 0.0
C744 C 0.35093 0.72691 0.66852 0.0
C745 C 0.3977 0.77184 0.69546 0.0
N746 N 0.38787 0.71749 0.62153 0.0
N747 N 0.36805 0.76959 0.74819 0.0
H748 H 0.43654 0.8073 0.6906 0.0
H749 H 0.41113 0.81323 0.72559 0.0
H750 H 0.34859 0.76165 0.76359 0.0
H751 H 0.3861 0.78342 0.76054 0.0
H752 H 0.37316 0.69838 0.61205 0.0
H753 H 0.40949 0.72161 0.60767 0.0
H754 H 0.32436 0.70451 0.62882 0.0
H755 H 0.30298 0.70544 0.66694 0.0
C756 C 0.48303 0.16062 0.95788 0.0
C757 C 0.512 0.17965 0.95154 0.0
C758 C 0.54561 0.13695 0.97955 0.0
C759 C 0.51806 0.11489 0.97846 0.0
N760 N 0.4599 0.10549 0.96564 0.0
N761 N 0.57103 0.18778 0.95812 0.0
C762 C 0.4863 0.12683 0.96826 0.0
C763 C 0.54331 0.16876 0.96361 0.0
N764 N 0.45241 0.17496 0.95359 0.0
N765 N 0.57386 0.12722 0.99575 0.0
H766 H 0.56997 0.2118 0.94794 0.0
H767 H 0.59515 0.1793 0.96243 0.0
H768 H 0.57575 0.10409 0.00789 0.0
H769 H 0.59397 0.14304 -0.00014 0.0
H770 H 0.43026 0.16342 0.9608 0.0
H771 H 0.44954 0.1999 0.94613 0.0
H772 H 0.4376 0.11205 0.95422 0.0
H773 H 0.4608 0.08034 0.97249 0.0
C774 C 0.09294 0.28429 0.20492 0.0
C775 C 0.08318 0.25262 0.1925 0.0
C776 C 0.13489 0.22737 0.2133 0.0
C777 C 0.14617 0.25984 0.2225 0.0
N778 N 0.13197 0.316 0.23835 0.0
N779 N 0.08966 0.19267 0.19281 0.0
C780 C 0.12365 0.28723 0.22209 0.0
C781 C 0.10237 0.22363 0.19964 0.0
N782 N 0.07326 0.31172 0.19931 0.0
N783 N 0.15583 0.20054 0.21574 0.0
H784 H 0.06638 0.18933 0.18199 0.0
H785 H 0.10078 0.17025 0.20009 0.0
H786 H 0.17848 0.20173 0.22791 0.0
H787 H 0.15117 0.17715 0.20543 0.0
H788 H 0.08069 0.33623 0.20389 0.0
H789 H 0.04964 0.30999 0.18879 0.0
H790 H 0.11593 0.33629 0.24138 0.0
H791 H 0.15412 0.31813 0.25167 0.0
C792 C 0.0658 0.02638 0.15218 0.0
C793 C 0.06816 0.99792 0.17337 0.0
C794 C 0.03639 0.96517 0.13291 0.0
C795 C 0.04022 0.9913 0.10918 0.0
N796 N 0.05829 0.04765 0.09609 0.0
N797 N 0.0556 0.93974 0.18432 0.0
C798 C 0.05414 0.02249 0.11896 0.0
C799 C 0.05279 0.96732 0.16418 0.0
N800 N 0.07433 0.05723 0.16406 0.0
N801 N 0.01701 0.93823 0.12523 0.0
H802 H 0.067 0.94028 0.20755 0.0
H803 H 0.04854 0.91576 0.17715 0.0
H804 H 0.00453 0.9365 0.10255 0.0
H805 H 0.01065 0.91952 0.14227 0.0
H806 H 0.07002 0.07951 0.15117 0.0
H807 H 0.08274 0.06084 0.18833 0.0
H808 H 0.07212 0.06918 0.10055 0.0
H809 H 0.04958 0.04634 0.07177 0.0
C810 C 0.22825 0.82071 0.40593 0.0
C811 C 0.25712 0.8392 0.41374 0.0
C812 C 0.28633 0.81679 0.36496 0.0
C813 C 0.25789 0.79716 0.35808 0.0
N814 N 0.19893 0.78768 0.36528 0.0
N815 N 0.31006 0.8622 0.39721 0.0
C816 C 0.22791 0.80143 0.37649 0.0
C817 C 0.28502 0.83977 0.39195 0.0
N818 N 0.20145 0.82095 0.42714 0.0
N819 N 0.31481 0.81232 0.34671 0.0
H820 H 0.30933 0.87943 0.41664 0.0
H821 H 0.32999 0.86578 0.38092 0.0
H822 H 0.31619 0.79606 0.32646 0.0
H823 H 0.33751 0.82327 0.35252 0.0
H824 H 0.1815 0.80447 0.42529 0.0
H825 H 0.19977 0.83673 0.44774 0.0
H826 H 0.17561 0.79286 0.37546 0.0
H827 H 0.1977 0.77338 0.34369 0.0
C828 C 0.46012 0.98935 0.66087 0.0
C829 C 0.45076 0.01762 0.67997 0.0
C830 C 0.47555 0.05433 0.63759 0.0
C831 C 0.4773 0.02688 0.6154 0.0
N832 N 0.47044 0.96727 0.60591 0.0
N833 N 0.44891 0.0778 0.68644 0.0
C834 C 0.47025 0.99391 0.6272 0.0
C835 C 0.45901 0.05038 0.66876 0.0
N836 N 0.45913 0.95813 0.67501 0.0
N837 N 0.4893 0.08427 0.6284 0.0
H838 H 0.43649 0.07622 0.70923 0.0
H839 H 0.45074 0.10222 0.67733 0.0
H840 H 0.50177 0.08741 0.6057 0.0
H841 H 0.49134 0.10458 0.64446 0.0
H842 H 0.46864 0.93682 0.66341 0.0
H843 H 0.45202 0.95419 0.69978 0.0
H844 H 0.46128 0.9437 0.61235 0.0
H845 H 0.47743 0.96893 0.581 0.0
C846 C 0.27123 0.17421 0.87505 0.0
C847 C 0.25977 0.18958 0.90485 0.0
C848 C 0.23926 0.23681 0.87178 0.0
C849 C 0.24239 0.21727 0.84258 0.0
N850 N 0.26287 0.16774 0.81581 0.0
N851 N 0.23101 0.23601 0.93131 0.0
C852 C 0.25952 0.18635 0.84389 0.0
C853 C 0.24405 0.22149 0.90334 0.0
N854 N 0.29343 0.14828 0.87664 0.0
N855 N 0.23079 0.26986 0.86914 0.0
H856 H 0.23242 0.22549 0.95501 0.0
H857 H 0.21605 0.25736 0.93058 0.0
H858 H 0.22711 0.28137 0.84605 0.0
H859 H 0.23095 0.28629 0.88924 0.0
H860 H 0.30473 0.13784 0.85568 0.0
H861 H 0.30326 0.1397 0.89914 0.0
H862 H 0.2719 0.14327 0.81568 0.0
H863 H 0.2551 0.17685 0.79288 0.0
C864 C 0.05464 0.99789 0.3636 0.0
C865 C 0.08549 0.01349 0.35589 0.0
C866 C 0.08372 0.04203 0.40986 0.0
C867 C 0.05028 0.03181 0.41413 0.0
N868 N 0.00282 0.00093 0.39478 0.0
N869 N 0.12891 0.05239 0.37113 0.0
C870 C 0.03554 0.00954 0.39119 0.0
C871 C 0.10035 0.03556 0.37918 0.0
N872 N 0.04387 0.97167 0.34477 0.0
N873 N 0.09936 0.05823 0.43524 0.0
H874 H 0.14175 0.04919 0.34876 0.0
H875 H 0.13855 0.07167 0.38552 0.0
H876 H 0.08752 0.06299 0.45798 0.0
H877 H 0.12471 0.06362 0.4351 0.0
H878 H 0.02307 0.95733 0.3509 0.0
H879 H 0.05775 0.96207 0.32492 0.0
H880 H 0.98958 0.98784 0.37684 0.0
H881 H 0.98838 0.00851 0.41508 0.0
C882 C 0.2716 0.8058 0.60525 0.0
C883 C 0.24258 0.81909 0.59031 0.0
C884 C 0.20909 0.79724 0.63662 0.0
C885 C 0.23865 0.79086 0.65462 0.0
N886 N 0.29889 0.79071 0.65654 0.0
N887 N 0.18318 0.82839 0.59174 0.0
C888 C 0.2702 0.79479 0.63886 0.0
C889 C 0.21099 0.81447 0.60559 0.0
N890 N 0.30049 0.80374 0.58721 0.0
N891 N 0.17928 0.78688 0.64945 0.0
H892 H 0.18349 0.84128 0.56909 0.0
H893 H 0.16017 0.82916 0.60379 0.0
H894 H 0.17768 0.77352 0.67181 0.0
H895 H 0.15697 0.78833 0.63645 0.0
H896 H 0.32166 0.79132 0.59572 0.0
H897 H 0.30211 0.81137 0.56233 0.0
H898 H 0.32225 0.79755 0.64743 0.0
H899 H 0.29933 0.78298 0.68131 0.0
C900 C 0.4281 0.03743 0.87087 0.0
C901 C 0.41181 0.0081 0.86057 0.0
C902 C 0.43168 0.97823 0.91021 0.0
C903 C 0.45354 0.00532 0.91626 0.0
N904 N 0.47247 0.06147 0.90292 0.0
N905 N 0.39391 0.95158 0.87134 0.0
C906 C 0.45128 0.03541 0.89712 0.0
C907 C 0.41171 0.97895 0.88096 0.0
N908 N 0.42114 0.0672 0.85535 0.0
N909 N 0.43067 0.95178 0.93194 0.0
H910 H 0.37764 0.9523 0.85122 0.0
H911 H 0.39562 0.92813 0.88265 0.0
H912 H 0.44576 0.95039 0.95295 0.0
H913 H 0.41348 0.93238 0.93056 0.0
H914 H 0.42972 0.0903 0.86363 0.0
H915 H 0.4038 0.06905 0.83615 0.0
H916 H 0.47487 0.08215 0.88718 0.0
H917 H 0.48917 0.06175 0.9226 0.0
C918 C 0.29214 0.20309 0.0937 0.0
C919 C 0.2685 0.17719 0.08872 0.0
C920 C 0.24689 0.18513 0.14553 0.0
C921 C 0.26987 0.21177 0.15019 0.0
N922 N 0.31978 0.24 0.13284 0.0
N923 N 0.22875 0.1382 0.11199 0.0
C924 C 0.29426 0.21873 0.12547 0.0
C925 C 0.24787 0.16627 0.11546 0.0
N926 N 0.31224 0.21305 0.0679 0.0
N927 N 0.22251 0.17937 0.16871 0.0
H928 H 0.22698 0.12497 0.08975 0.0
H929 H 0.21643 0.12656 0.13177 0.0
H930 H 0.22152 0.19163 0.19146 0.0
H931 H 0.2023 0.16362 0.16487 0.0
H932 H 0.32717 0.23431 0.06853 0.0
H933 H 0.31292 0.20087 0.04498 0.0
H934 H 0.34013 0.24423 0.11724 0.0
H935 H 0.3221 0.25109 0.15621 0.0
C936 C 0.16478 0.06174 0.02161 0.0
C937 C 0.17174 0.08152 0.99303 0.0
C938 C 0.12111 0.06023 0.96594 0.0
C939 C 0.11404 0.04067 0.99474 0.0
N940 N 0.12449 0.02916 0.05289 0.0
N941 N 0.15432 0.10457 0.94039 0.0
C942 C 0.13454 0.04337 0.02343 0.0
C943 C 0.14908 0.08241 0.96596 0.0
N944 N 0.18751 0.05986 0.04681 0.0
N945 N 0.10202 0.05646 0.93815 0.0
H946 H 0.17494 0.1204 0.93935 0.0
H947 H 0.13728 0.10898 0.92145 0.0
H948 H 0.08123 0.04087 0.93759 0.0
H949 H 0.10773 0.06714 0.91512 0.0
H950 H 0.18603 0.04259 0.06629 0.0
H951 H 0.20922 0.07413 0.04725 0.0
H952 H 0.13611 0.03344 0.07558 0.0
H953 H 0.10255 0.01551 0.05542 0.0
C954 C 0.65655 0.45518 0.9876 0.0
C955 C 0.6715 0.44289 0.01715 0.0
C956 C 0.62591 0.46679 0.05003 0.0
C957 C 0.60759 0.4718 0.02039 0.0
N958 N 0.60626 0.47397 0.9603 0.0
N959 N 0.67085 0.4369 0.07707 0.0
C960 C 0.62339 0.46771 0.98891 0.0
C961 C 0.65675 0.44939 0.04867 0.0
N962 N 0.67431 0.45516 0.95843 0.0
N963 N 0.6133 0.47846 0.07947 0.0
H964 H 0.69331 0.4238 0.07722 0.0
H965 H 0.65915 0.43749 0.10028 0.0
H966 H 0.59082 0.49161 0.08066 0.0
H967 H 0.62649 0.47817 0.10172 0.0
H968 H 0.66612 0.46653 0.93656 0.0
H969 H 0.69879 0.44647 0.95691 0.0
H970 H 0.61453 0.46694 0.93671 0.0
H971 H 0.58312 0.4856 0.96018 0.0
C972 C 0.84761 0.39573 0.23015 0.0
C973 C 0.86131 0.40785 0.26002 0.0
C974 C 0.83963 0.35925 0.29052 0.0
C975 C 0.82023 0.35147 0.26234 0.0
N976 N 0.80607 0.36066 0.20464 0.0
N977 N 0.87436 0.40038 0.31804 0.0
C978 C 0.82486 0.36878 0.23168 0.0
C979 C 0.85917 0.38895 0.28997 0.0
N980 N 0.85649 0.41021 0.20046 0.0
N981 N 0.83885 0.33845 0.31767 0.0
H982 H 0.89017 0.42105 0.31772 0.0
H983 H 0.8708 0.39008 0.34165 0.0
H984 H 0.82453 0.31665 0.31832 0.0
H985 H 0.85411 0.34121 0.33831 0.0
H986 H 0.84967 0.4008 0.17735 0.0
H987 H 0.87353 0.42988 0.19895 0.0
H988 H 0.80536 0.37477 0.18278 0.0
H989 H 0.78965 0.34053 0.20471 0.0
C990 C 0.88248 0.60633 0.52526 0.0
C991 C 0.8605 0.59237 0.5014 0.0
C992 C 0.89737 0.54372 0.49503 0.0
C993 C 0.91832 0.55721 0.51978 0.0
N994 N 0.93749 0.60506 0.5499 0.0
N995 N 0.85153 0.55322 0.45687 0.0
C996 C 0.91313 0.58998 0.53177 0.0
C997 C 0.86951 0.5628 0.48397 0.0
N998 N 0.87306 0.63345 0.54382 0.0
N999 N 0.90311 0.51205 0.48356 0.0
H1000 H 0.8312 0.567 0.44821 0.0
H1001 H 0.85847 0.53357 0.44132 0.0
H1002 H 0.92388 0.49807 0.49071 0.0
H1003 H 0.88679 0.49918 0.4682 0.0
H1004 H 0.88657 0.64212 0.56407 0.0
H1005 H 0.85037 0.64576 0.54113 0.0
H1006 H 0.9367 0.63018 0.55683 0.0
H1007 H 0.96018 0.59324 0.55477 0.0
C1008 C 0.16526 0.1229 0.28078 0.0
C1009 C 0.17548 0.09788 0.25764 0.0
C1010 C 0.22459 0.13183 0.24289 0.0
C1011 C 0.21482 0.15605 0.26671 0.0
N1012 N 0.17165 0.1801 0.30041 0.0
N1013 N 0.20922 0.08337 0.20998 0.0
C1014 C 0.18352 0.1534 0.28276 0.0
C1015 C 0.20339 0.10394 0.23649 0.0
N1016 N 0.13985 0.11663 0.30273 0.0
N1017 N 0.25486 0.13481 0.22752 0.0
H1018 H 0.19379 0.0632 0.20434 0.0
H1019 H 0.22729 0.08811 0.19187 0.0
H1020 H 0.26988 0.15589 0.23055 0.0
H1021 H 0.26547 0.11614 0.21284 0.0
H1022 H 0.13393 0.13232 0.32256 0.0
H1023 H 0.12629 0.09442 0.30312 0.0
H1024 H 0.14766 0.18123 0.31031 0.0
H1025 H 0.18483 0.20257 0.30201 0.0
C1026 C 0.3732 0.92002 0.48309 0.0
C1027 C 0.35065 0.92166 0.51032 0.0
C1028 C 0.38675 0.96117 0.5387 0.0
C1029 C 0.40551 0.96467 0.50882 0.0
N1030 N 0.41852 0.94699 0.45293 0.0
N1031 N 0.33605 0.94145 0.56511 0.0
C1032 C 0.39977 0.94346 0.48126 0.0
C1033 C 0.35771 0.94122 0.53868 0.0
N1034 N 0.36895 0.89625 0.45914 0.0
N1035 N 0.39711 0.97661 0.56716 0.0
H1036 H 0.3157 0.92532 0.56689 0.0
H1037 H 0.33737 0.95845 0.58465 0.0
H1038 H 0.41835 0.9915 0.56797 0.0
H1039 H 0.38657 0.97238 0.59055 0.0
H1040 H 0.38584 0.89196 0.43985 0.0
H1041 H 0.34984 0.87865 0.46034 0.0
H1042 H 0.41339 0.93483 0.43068 0.0
H1043 H 0.43851 0.96355 0.45116 0.0
C1044 C 0.83973 0.60645 0.20532 0.0
C1045 C 0.82876 0.5874 0.23321 0.0
C1046 C 0.78204 0.62629 0.24093 0.0
C1047 C 0.79834 0.64921 0.21944 0.0
N1048 N 0.82765 0.65215 0.16714 0.0
N1049 N 0.78739 0.57684 0.27588 0.0
C1050 C 0.82271 0.63653 0.19712 0.0
C1051 C 0.79882 0.59618 0.2501 0.0
N1052 N 0.86679 0.59619 0.1872 0.0
N1053 N 0.74968 0.63173 0.24972 0.0
H1054 H 0.79893 0.55454 0.2831 0.0
H1055 H 0.76758 0.58389 0.29118 0.0
H1056 H 0.73607 0.6518 0.24003 0.0
H1057 H 0.73544 0.61447 0.26311 0.0
H1058 H 0.87862 0.61117 0.16944 0.0
H1059 H 0.87822 0.57296 0.19077 0.0
H1060 H 0.84328 0.64298 0.14852 0.0
H1061 H 0.81266 0.6721 0.15941 0.0
C1062 C 0.65624 0.37807 0.74789 0.0
C1063 C 0.67267 0.40658 0.7614 0.0
C1064 C 0.72479 0.37422 0.76459 0.0
C1065 C 0.70897 0.347 0.74875 0.0
N1066 N 0.65857 0.31827 0.73587 0.0
N1067 N 0.71891 0.42757 0.79298 0.0
C1068 C 0.67417 0.34737 0.74428 0.0
C1069 C 0.70585 0.40326 0.77314 0.0
N1070 N 0.62448 0.38078 0.73619 0.0
N1071 N 0.75828 0.37274 0.77003 0.0
H1072 H 0.70528 0.44857 0.80041 0.0
H1073 H 0.74185 0.4254 0.80472 0.0
H1074 H 0.77209 0.35099 0.76563 0.0
H1075 H 0.77239 0.39309 0.77775 0.0
H1076 H 0.61286 0.36212 0.72249 0.0
H1077 H 0.61019 0.40245 0.7381 0.0
H1078 H 0.63281 0.31563 0.73506 0.0
H1079 H 0.67168 0.29582 0.73305 0.0
C1080 C 0.99286 0.84659 0.9556 0.0
C1081 C 0.00989 0.84281 0.92468 0.0
C1082 C 0.03096 0.9005 0.92994 0.0
C1083 C 0.01974 0.90131 0.96339 0.0
N1084 N 0.9888 0.87626 0.00829 0.0
N1085 N 0.04635 0.86632 0.8825 0.0
C1086 C -0.00018 0.87486 0.97607 0.0
C1087 C 0.02861 0.87014 0.91141 0.0
N1088 N 0.96959 0.82344 0.96503 0.0
N1089 N 0.04464 0.92874 0.91628 0.0
H1090 H 0.04626 0.84441 0.86851 0.0
H1091 H 0.06332 0.88392 0.87359 0.0
H1092 H 0.04686 0.95092 0.92976 0.0
H1093 H 0.05055 0.9312 0.8911 0.0
H1094 H 0.95416 0.8262 0.98577 0.0
H1095 H 0.96351 0.80292 0.95027 0.0
H1096 H 0.97767 0.8562 0.0207 0.0
H1097 H 0.99195 0.89755 0.02296 0.0
C1098 C 0.9043 0.24092 0.69317 0.0
C1099 C 0.92145 0.27131 0.68694 0.0
C1100 C 0.87654 0.30239 0.71442 0.0
C1101 C 0.85673 0.27304 0.71421 0.0
N1102 N 0.85099 0.21424 0.70109 0.0
N1103 N 0.92375 0.33166 0.69039 0.0
C1104 C 0.87055 0.24206 0.70358 0.0
C1105 C 0.90789 0.30227 0.69781 0.0
N1106 N 0.92043 0.21098 0.68929 0.0
N1107 N 0.8652 0.33031 0.73051 0.0
H1108 H 0.94667 0.33272 0.67815 0.0
H1109 H 0.91309 0.35515 0.69426 0.0
H1110 H 0.84242 0.33078 0.74316 0.0
H1111 H 0.87963 0.35162 0.73412 0.0
H1112 H 0.91011 0.18804 0.69621 0.0
H1113 H 0.94548 0.2094 0.68242 0.0
H1114 H 0.85872 0.19221 0.68953 0.0
H1115 H 0.82621 0.21376 0.70861 0.0
C1116 C 0.52301 0.15709 0.45311 0.0
C1117 C 0.50323 0.16512 0.42494 0.0
C1118 C 0.47176 0.11302 0.43323 0.0
C1119 C 0.4873 0.1084 0.46448 0.0
N1120 N 0.52782 0.12543 0.5048 0.0
N1121 N 0.45794 0.15123 0.38824 0.0
C1122 C 0.51344 0.12992 0.47435 0.0
C1123 C 0.47778 0.14287 0.4146 0.0
N1124 N 0.55111 0.17521 0.45922 0.0
N1125 N 0.45117 0.0886 0.42152 0.0
H1126 H 0.4613 0.17284 0.37392 0.0
H1127 H 0.43659 0.13805 0.38191 0.0
H1128 H 0.4468 0.06641 0.43473 0.0
H1129 H 0.44135 0.08864 0.39758 0.0
H1130 H 0.56841 0.1687 0.47735 0.0
H1131 H 0.55864 0.19516 0.44406 0.0
H1132 H 0.54443 0.1423 0.51525 0.0
H1133 H 0.52185 0.10528 0.52036 0.0
C1134 C 0.62894 0.76592 0.15419 0.0
C1135 C 0.60466 0.74053 0.15743 0.0
C1136 C 0.64453 0.70442 0.18604 0.0
C1137 C 0.66497 0.7327 0.19064 0.0
N1138 N 0.67901 0.79013 0.17669 0.0
N1139 N 0.59008 0.6835 0.17106 0.0
C1140 C 0.6586 0.76307 0.173 0.0
C1141 C 0.61292 0.70882 0.1712 0.0
N1142 N 0.62311 0.7931 0.13418 0.0
N1143 N 0.65543 0.67374 0.19664 0.0
H1144 H 0.56753 0.68543 0.15849 0.0
H1145 H 0.59298 0.661 0.18394 0.0
H1146 H 0.67889 0.67054 0.20728 0.0
H1147 H 0.64288 0.6514 0.19234 0.0
H1148 H 0.64116 0.81082 0.12813 0.0
H1149 H 0.60101 0.79637 0.12109 0.0
H1150 H 0.67352 0.81402 0.16776 0.0
H1151 H 0.70079 0.78953 0.19051 0.0
C1152 C 0.98916 0.14099 0.60004 0.0
C1153 C 0.01376 0.16598 0.59534 0.0
C1154 C 0.04792 0.12759 0.56244 0.0
C1155 C 0.02164 0.1042 0.56399 0.0
N1156 N 0.9744 0.08255 0.59405 0.0
N1157 N 0.07049 0.18044 0.58117 0.0
C1158 C 0.99477 0.10878 0.58643 0.0
C1159 C 0.0446 0.15834 0.5796 0.0
N1160 N 0.95956 0.14867 0.61523 0.0
N1161 N 0.07507 0.12077 0.54292 0.0
H1162 H 0.06873 0.20338 0.59333 0.0
H1163 H 0.09445 0.17517 0.57273 0.0
H1164 H 0.07849 0.09737 0.53182 0.0
H1165 H 0.09352 0.13811 0.53704 0.0
H1166 H 0.93922 0.13255 0.61586 0.0
H1167 H 0.95433 0.17213 0.62532 0.0
H1168 H 0.95595 0.08338 0.61236 0.0
H1169 H 0.97849 0.05877 0.58444 0.0
C1170 C 0.60468 0.2687 0.28886 0.0
C1171 C 0.60352 0.25535 0.32175 0.0
C1172 C 0.66471 0.25243 0.32242 0.0
C1173 C 0.6655 0.2682 0.29081 0.0
N1174 N 0.63775 0.27751 0.23888 0.0
N1175 N 0.63146 0.22528 0.36572 0.0
C1176 C 0.63583 0.27128 0.27231 0.0
C1177 C 0.63334 0.24414 0.33725 0.0
N1178 N 0.57672 0.28166 0.27437 0.0
N1179 N 0.69386 0.2462 0.33833 0.0
H1180 H 0.60881 0.21825 0.37648 0.0
H1181 H 0.65193 0.21426 0.37716 0.0
H1182 H 0.71658 0.25005 0.32644 0.0
H1183 H 0.69557 0.2374 0.36268 0.0
H1184 H 0.57718 0.29496 0.25197 0.0
H1185 H 0.55345 0.28212 0.2859 0.0
H1186 H 0.61717 0.2772 0.22322 0.0
H1187 H 0.66061 0.27934 0.2265 0.0
C1188 C 0.48879 0.87208 0.10923 0.0
C1189 C 0.4932 0.84461 0.08755 0.0
C1190 C 0.48772 0.88274 0.03948 0.0
C1191 C 0.48702 0.91028 0.06167 0.0
N1192 N 0.49924 0.93061 0.11706 0.0
N1193 N 0.50293 0.82433 0.03168 0.0
C1194 C 0.49151 0.90475 0.09634 0.0
C1195 C 0.49435 0.84997 0.05245 0.0
N1196 N 0.48033 0.86722 0.14196 0.0
N1197 N 0.48112 0.88761 0.00649 0.0
H1198 H 0.50854 0.8003 0.04031 0.0
H1199 H 0.5073 0.82766 0.00627 0.0
H1200 H 0.47643 0.91126 0.99637 0.0
H1201 H 0.478 0.86801 0.98976 0.0
H1202 H 0.47417 0.88693 0.15783 0.0
H1203 H 0.4753 0.84365 0.1521 0.0
H1204 H 0.50562 0.92699 0.14197 0.0
H1205 H 0.50325 0.95493 0.10849 0.0
C1206 C 0.90222 0.77654 0.81932 0.0
C1207 C 0.92291 0.74777 0.82101 0.0
C1208 C 0.88088 0.71527 0.79108 0.0
C1209 C 0.858 0.74214 0.79471 0.0
N1210 N 0.84643 0.79875 0.81271 0.0
N1211 N 0.93307 0.68976 0.80813 0.0
C1212 C 0.86873 0.7732 0.80826 0.0
C1213 C 0.91272 0.71722 0.80637 0.0
N1214 N 0.91464 0.80699 0.82846 0.0
N1215 N 0.872 0.68803 0.77266 0.0
H1216 H 0.95714 0.69078 0.81768 0.0
H1217 H 0.92567 0.66569 0.80168 0.0
H1218 H 0.849 0.68645 0.76081 0.0
H1219 H 0.88823 0.66862 0.76653 0.0
H1220 H 0.90212 0.82956 0.82487 0.0
H1221 H 0.93887 0.81001 0.83716 0.0
H1222 H 0.8515 0.8203 0.82625 0.0
H1223 H 0.82193 0.79781 0.80447 0.0
C1224 C 0.9681 0.02995 0.83858 0.0
C1225 C 0.9517 -0.00031 0.83006 0.0
C1226 C 0.96664 0.9751 0.88412 0.0
C1227 C 0.98083 0.00624 0.89362 0.0
N1228 N 0.0048 0.05873 0.87699 0.0
N1229 N 0.94391 0.94077 0.83982 0.0
C1230 C 0.98495 0.03206 0.86963 0.0
C1231 C 0.95394 0.97131 0.85128 0.0
N1232 N 0.96565 0.05735 0.81816 0.0
N1233 N 0.96327 0.94994 0.90704 0.0
H1234 H 0.93463 0.9375 0.81581 0.0
H1235 H 0.94759 0.91837 0.85268 0.0
H1236 H 0.97379 0.95103 0.93059 0.0
H1237 H 0.94924 0.92842 0.90321 0.0
H1238 H 0.97356 0.0812 0.82483 0.0
H1239 H 0.95392 0.05677 0.79508 0.0
H1240 H 0.01128 0.07728 0.85982 0.0
H1241 H 0.01746 0.06034 0.89958 0.0
C1242 C 0.76788 0.1658 0.62585 0.0
C1243 C 0.74266 0.16989 0.60164 0.0
C1244 C 0.70902 0.20259 0.64073 0.0
C1245 C 0.73541 0.20075 0.66384 0.0
N1246 N 0.7826 0.16943 0.68394 0.0
N1247 N 0.68515 0.18187 0.58943 0.0
C1248 C 0.76227 0.17835 0.65834 0.0
C1249 C 0.71176 0.18493 0.61023 0.0
N1250 N 0.79805 0.15231 0.61733 0.0
N1251 N 0.68204 0.2223 0.64767 0.0
H1252 H 0.68632 0.16827 0.56732 0.0
H1253 H 0.66124 0.19001 0.59545 0.0
H1254 H 0.67872 0.23357 0.67089 0.0
H1255 H 0.66371 0.22821 0.63038 0.0
H1256 H 0.81859 0.15257 0.63304 0.0
H1257 H 0.8036 0.14322 0.59365 0.0
H1258 H 0.80081 0.15089 0.68208 0.0
H1259 H 0.77867 0.17786 0.70805 0.0
C1260 C 0.54809 0.02914 0.35202 0.0
C1261 C 0.55932 0.99881 0.33757 0.0
C1262 C 0.53072 0.9672 0.38143 0.0
C1263 C 0.52771 0.99703 0.40012 0.0
N1264 N 0.52829 0.05747 0.40153 0.0
N1265 N 0.55979 0.93827 0.33701 0.0
C1266 C 0.53394 0.02846 0.38458 0.0
C1267 C 0.54935 0.96753 0.35125 0.0
N1268 N 0.551 0.05843 0.33443 0.0
N1269 N 0.51645 0.93852 0.39342 0.0
H1270 H 0.57346 0.93739 0.3149 0.0
H1271 H 0.55654 0.91485 0.3481 0.0
H1272 H 0.50268 0.93832 0.41559 0.0
H1273 H 0.51543 0.91625 0.38005 0.0
H1274 H 0.54088 0.08114 0.34218 0.0
H1275 H 0.56092 0.05928 0.31034 0.0
H1276 H 0.53649 0.08091 0.39356 0.0
H1277 H 0.51584 0.058 0.42425 0.0
C1278 C 0.76851 0.85556 0.13574 0.0
C1279 C 0.75102 0.83969 0.10936 0.0
C1280 C 0.75052 0.78698 0.14087 0.0
C1281 C 0.76867 0.80268 0.1665 0.0
N1282 N 0.78447 0.85326 0.19401 0.0
N1283 N 0.7148 0.79458 0.09303 0.0
C1284 C 0.7737 0.83761 0.16591 0.0
C1285 C 0.7385 0.80672 0.11398 0.0
N1286 N 0.78278 0.88633 0.13128 0.0
N1287 N 0.74604 0.75307 0.14149 0.0
H1288 H 0.70456 0.80903 0.0739 0.0
H1289 H 0.70272 0.77181 0.09699 0.0
H1290 H 0.75365 0.73813 0.16147 0.0
H1291 H 0.73625 0.73972 0.12159 0.0
H1292 H 0.79877 0.89702 0.14855 0.0
H1293 H 0.78137 0.9001 0.1093 0.0
H1294 H 0.78594 0.87922 0.19619 0.0
H1295 H 0.78843 0.84013 0.21623 0.0
C1296 C 0.91434 0.00271 0.62853 0.0
C1297 C 0.93282 0.00649 0.65837 0.0
C1298 C 0.98463 0.00265 0.6259 0.0
C1299 C 0.96622 0.99207 0.59797 0.0
N1300 N 0.91367 0.98206 0.57167 0.0
N1301 N 0.98631 0.0083 0.6858 0.0
C1302 C 0.93103 0.9926 0.59881 0.0
C1303 C 0.96822 0.00681 0.65711 0.0
N1304 N 0.88095 0.00926 0.6286 0.0
N1305 N 0.01799 0.00837 0.62242 0.0
H1306 H 0.97567 0.01044 0.7094 0.0
H1307 H 0.01196 0.00466 0.68654 0.0
H1308 H 0.03029 0.00557 0.5996 0.0
H1309 H 0.0325 0.01915 0.64089 0.0
H1310 H 0.86652 0.00952 0.60716 0.0
H1311 H 0.86829 0.01768 0.64976 0.0
H1312 H 0.88809 0.97801 0.57183 0.0
H1313 H 0.92535 0.97619 0.54912 0.0
C1314 C 0.76075 0.23222 0.41271 0.0
C1315 C 0.78149 0.20679 0.42622 0.0
C1316 C 0.8221 0.21636 0.38173 0.0
C1317 C 0.79764 0.2348 0.36423 0.0
N1318 N 0.75568 0.27701 0.37167 0.0
N1319 N 0.83368 0.1766 0.42597 0.0
C1320 C 0.77041 0.24809 0.38231 0.0
C1321 C 0.81317 0.20006 0.41193 0.0
N1322 N 0.7315 0.24024 0.42828 0.0
N1323 N 0.85391 0.21548 0.36965 0.0
H1324 H 0.82829 0.16463 0.44851 0.0
H1325 H 0.85521 0.16771 0.41443 0.0
H1326 H 0.86089 0.22931 0.34858 0.0
H1327 H 0.87374 0.20455 0.38231 0.0
H1328 H 0.71378 0.25627 0.41806 0.0
H1329 H 0.72447 0.22972 0.45111 0.0
H1330 H 0.73708 0.28942 0.38494 0.0
H1331 H 0.76499 0.29054 0.35136 0.0
C1332 C 0.56912 0.04561 0.16577 0.0
C1333 C 0.5901 0.01727 0.16965 0.0
C1334 C 0.57255 0.99511 0.11607 0.0
C1335 C 0.55049 0.0229 0.1127 0.0
N1336 N 0.53446 0.07866 0.12864 0.0
N1337 N 0.61926 0.97047 0.14541 0.0
C1338 C 0.55103 0.04956 0.13578 0.0
C1339 C 0.59452 0.99398 0.14357 0.0
N1340 N 0.56589 0.0682 0.19111 0.0
N1341 N 0.57074 0.96856 0.09471 0.0
H1342 H 0.63504 0.96828 0.16585 0.0
H1343 H 0.62605 0.95514 0.12557 0.0
H1344 H 0.55508 0.96787 0.07418 0.0
H1345 H 0.58316 0.94596 0.09853 0.0
H1346 H 0.54807 0.08717 0.1915 0.0
H1347 H 0.58021 0.0671 0.21268 0.0
H1348 H 0.536 0.10022 0.14302 0.0
H1349 H 0.52151 0.08217 0.10641 0.0
C1350 C 0.77269 0.82092 0.91186 0.0
C1351 C 0.74269 0.83665 0.92195 0.0
C1352 C 0.71522 0.81672 0.87094 0.0
C1353 C 0.74383 0.7972 0.86341 0.0
N1354 N 0.80014 0.78035 0.87651 0.0
N1355 N 0.6853 0.8505 0.91178 0.0
C1356 C 0.77275 0.79949 0.88369 0.0
C1357 C 0.71401 0.83525 0.9014 0.0
N1358 N 0.80145 0.82734 0.92874 0.0
N1359 N 0.68926 0.81727 0.84911 0.0
H1360 H 0.68399 0.86493 0.93334 0.0
H1361 H 0.66244 0.84774 0.90012 0.0
H1362 H 0.68927 0.80331 0.8272 0.0
H1363 H 0.66878 0.83309 0.85134 0.0
H1364 H 0.82497 0.82005 0.92048 0.0
H1365 H 0.8023 0.84259 0.94974 0.0
H1366 H 0.82006 0.77707 0.89265 0.0
H1367 H 0.80246 0.76625 0.85487 0.0
C1368 C 0.85031 0.95122 0.04328 0.0
C1369 C 0.84147 0.92944 0.01685 0.0
C1370 C 0.8985 0.93387 0.99451 0.0
C1371 C 0.9053 0.96017 0.01711 0.0
N1372 N 0.88824 0.9935 0.06404 0.0
N1373 N 0.85619 0.90343 0.96457 0.0
C1374 C 0.88136 0.96854 0.04195 0.0
C1375 C 0.86546 0.9213 0.99196 0.0
N1376 N 0.82961 0.95445 0.07023 0.0
N1377 N 0.92351 0.92089 0.97537 0.0
H1378 H 0.83193 0.89521 0.96075 0.0
H1379 H 0.87164 0.8998 0.94397 0.0
H1380 H 0.94802 0.92888 0.97724 0.0
H1381 H 0.92076 0.89962 0.9607 0.0
H1382 H 0.83607 0.96715 0.09183 0.0
H1383 H 0.80695 0.94193 0.0723 0.0
H1384 H 0.87052 0.00409 0.07985 0.0
H1385 H 0.91171 0.00453 0.06562 0.0
C1386 C 0.3478 0.56042 0.9608 0.0
C1387 C 0.33287 0.5671 0.99225 0.0
C1388 C 0.37996 0.54073 0.02073 0.0
C1389 C 0.39603 0.53658 0.98939 0.0
N1390 N 0.39025 0.52957 0.93039 0.0
N1391 N 0.32866 0.55324 0.05053 0.0
C1392 C 0.37792 0.54181 0.95969 0.0
C1393 C 0.34698 0.55369 0.02172 0.0
N1394 N 0.33498 0.57403 0.9323 0.0
N1395 N 0.39667 0.53433 0.04953 0.0
H1396 H 0.30422 0.56212 0.05165 0.0
H1397 H 0.3363 0.54114 0.07223 0.0
H1398 H 0.41975 0.52261 0.04995 0.0
H1399 H 0.38808 0.54143 0.07299 0.0
H1400 H 0.34728 0.57327 0.9094 0.0
H1401 H 0.31326 0.58828 0.93171 0.0
H1402 H 0.37706 0.53012 0.90812 0.0
H1403 H 0.41231 0.51569 0.92942 0.0
C1404 C 0.17272 0.61431 0.73031 0.0
C1405 C 0.16732 0.59922 0.7619 0.0
C1406 C 0.19447 0.64634 0.7891 0.0
C1407 C 0.20579 0.65734 0.75738 0.0
N1408 N 0.20479 0.65421 0.69758 0.0
N1409 N 0.17012 0.6011 0.82176 0.0
C1410 C 0.19416 0.64238 0.72783 0.0
C1411 C 0.17666 0.6157 0.79155 0.0
N1412 N 0.15693 0.60194 0.70296 0.0
N1413 N 0.20139 0.66497 0.81669 0.0
H1414 H 0.15626 0.57913 0.82424 0.0
H1415 H 0.17942 0.60983 0.84424 0.0
H1416 H 0.2149 0.68725 0.81539 0.0
H1417 H 0.19162 0.66002 0.84027 0.0
H1418 H 0.1578 0.6132 0.67953 0.0
H1419 H 0.1401 0.58215 0.70457 0.0
H1420 H 0.20054 0.64201 0.67515 0.0
H1421 H 0.21916 0.67586 0.69514 0.0
C1422 C 0.14349 0.44455 0.52396 0.0
C1423 C 0.16403 0.43362 0.49713 0.0
C1424 C 0.1219 0.45231 0.45741 0.0
C1425 C 0.10536 0.46987 0.4833 0.0
N1426 N 0.09112 0.46999 0.54127 0.0
N1427 N 0.17149 0.42353 0.43827 0.0
C1428 C 0.11332 0.4622 0.51683 0.0
C1429 C 0.1527 0.43618 0.46383 0.0
N1430 N 0.15337 0.43874 0.55603 0.0
N1431 N 0.1069 0.4498 0.42705 0.0
H1432 H 0.19283 0.4091 0.44198 0.0
H1433 H 0.16678 0.42849 0.41325 0.0
H1434 H 0.08317 0.45957 0.4227 0.0
H1435 H 0.11591 0.43506 0.40766 0.0
H1436 H 0.13991 0.44571 0.57702 0.0
H1437 H 0.17575 0.42695 0.56199 0.0
H1438 H 0.09389 0.4642 0.56636 0.0
H1439 H 0.06765 0.4788 0.53538 0.0
C1440 C 0.84258 0.88293 0.75824 0.0
C1441 C 0.8261 0.91461 0.75947 0.0
C1442 C 0.77266 0.8845 0.75962 0.0
C1443 C 0.78907 0.85466 0.75003 0.0
N1444 N 0.84025 0.82537 0.73901 0.0
N1445 N 0.77362 0.94497 0.758 0.0
C1446 C 0.82427 0.85365 0.74953 0.0
C1447 C 0.79058 0.9153 0.76007 0.0
N1448 N 0.87554 0.88063 0.76606 0.0
N1449 N 0.7395 0.88341 0.76712 0.0
H1450 H 0.78499 0.96826 0.75593 0.0
H1451 H 0.74794 0.9463 0.75483 0.0
H1452 H 0.72612 0.86099 0.76671 0.0
H1453 H 0.72646 0.90368 0.77705 0.0
H1454 H 0.88812 0.85785 0.76799 0.0
H1455 H 0.8892 0.9011 0.77443 0.0
H1456 H 0.86578 0.82435 0.73441 0.0
H1457 H 0.8275 0.80338 0.7334 0.0
C1458 C 0.63507 0.10721 0.48096 0.0
C1459 C 0.65924 0.10468 0.50635 0.0
C1460 C 0.62243 0.06839 0.53929 0.0
C1461 C 0.60151 0.06577 0.5113 0.0
N1462 N 0.58587 0.08324 0.45596 0.0
N1463 N 0.67524 0.08688 0.56152 0.0
C1464 C 0.60674 0.08603 0.48255 0.0
C1465 C 0.6525 0.08676 0.53631 0.0
N1466 N 0.63956 0.1293 0.45519 0.0
N1467 N 0.61315 0.05341 0.56862 0.0
H1468 H 0.69617 0.10226 0.56125 0.0
H1469 H 0.67398 0.07136 0.58238 0.0
H1470 H 0.59083 0.04026 0.5712 0.0
H1471 H 0.62582 0.05612 0.59095 0.0
H1472 H 0.62137 0.13483 0.43763 0.0
H1473 H 0.6607 0.14423 0.45271 0.0
H1474 H 0.59033 0.09408 0.43274 0.0
H1475 H 0.56442 0.0687 0.45673 0.0
C1476 C 0.19953 0.40019 0.79399 0.0
C1477 C 0.19346 0.41644 0.76302 0.0
C1478 C 0.21589 0.36793 0.73314 0.0
C1479 C 0.22108 0.35133 0.76402 0.0
N1480 N 0.22905 0.35573 0.823 0.0
N1481 N 0.20591 0.42052 0.70434 0.0
C1482 C 0.21673 0.36901 0.7942 0.0
C1483 C 0.205 0.40182 0.73296 0.0
N1484 N 0.18689 0.41305 0.82293 0.0
N1485 N 0.21933 0.35081 0.70402 0.0
H1486 H 0.19876 0.44568 0.70361 0.0
H1487 H 0.21694 0.41222 0.68231 0.0
H1488 H 0.22865 0.32653 0.70317 0.0
H1489 H 0.21167 0.36015 0.68102 0.0
H1490 H 0.18744 0.40018 0.84556 0.0
H1491 H 0.17342 0.43535 0.82406 0.0
H1492 H 0.22906 0.36847 0.84558 0.0
H1493 H 0.24273 0.33346 0.82313 0.0
C1494 C 0.34033 0.6254 0.25898 0.0
C1495 C 0.32326 0.59481 0.25284 0.0
C1496 C 0.2707 0.62642 0.25138 0.0
C1497 C 0.28689 0.65454 0.26509 0.0
N1498 N 0.33731 0.68111 0.28287 0.0
N1499 N 0.27063 0.56617 0.24563 0.0
C1500 C 0.32188 0.65434 0.26865 0.0
C1501 C 0.28804 0.59535 0.24888 0.0
N1502 N 0.37407 0.62699 0.25489 0.0
N1503 N 0.23834 0.62942 0.24161 0.0
H1504 H 0.28164 0.54255 0.24553 0.0
H1505 H 0.24474 0.56511 0.24624 0.0
H1506 H 0.22543 0.65211 0.24338 0.0
H1507 H 0.22579 0.6108 0.22865 0.0
H1508 H 0.38746 0.64923 0.25655 0.0
H1509 H 0.38815 0.60682 0.24618 0.0
H1510 H 0.36224 0.68093 0.28981 0.0
H1511 H 0.32454 0.70304 0.28906 0.0
C1512 C 0.51906 0.64171 0.58544 0.0
C1513 C 0.50908 0.67249 0.57034 0.0
C1514 C 0.49813 0.64173 0.51863 0.0
C1515 C 0.49999 0.61084 0.53609 0.0
N1516 N 0.51585 0.58086 0.58523 0.0
N1517 N 0.48703 0.70119 0.52195 0.0
C1518 C 0.51211 0.61065 0.56913 0.0
C1519 C 0.49879 0.6725 0.53648 0.0
N1520 N 0.53572 0.6423 0.615 0.0
N1521 N 0.49508 0.64139 0.48476 0.0
H1522 H 0.48556 0.72411 0.53414 0.0
H1523 H 0.47579 0.70163 0.49864 0.0
H1524 H 0.4949 0.61901 0.47136 0.0
H1525 H 0.49643 0.6629 0.47001 0.0
H1526 H 0.54623 0.62118 0.62608 0.0
H1527 H 0.54191 0.6646 0.62692 0.0
H1528 H 0.52137 0.57874 0.61042 0.0
H1529 H 0.51267 0.55825 0.5729 0.0
C1530 C 0.6198 0.24668 0.85576 0.0
C1531 C 0.59274 0.2467 0.83333 0.0
C1532 C 0.63153 0.23666 0.78685 0.0
C1533 C 0.65848 0.23985 0.80927 0.0
N1534 N 0.67782 0.25896 0.86292 0.0
N1535 N 0.57297 0.24766 0.77666 0.0
C1536 C 0.65245 0.24838 0.84303 0.0
C1537 C 0.59855 0.24335 0.79852 0.0
N1538 N 0.61461 0.24315 0.8893 0.0
N1539 N 0.63723 0.22624 0.75496 0.0
H1540 H 0.5487 0.25297 0.78435 0.0
H1541 H 0.57635 0.24882 0.75093 0.0
H1542 H 0.66104 0.22133 0.74569 0.0
H1543 H 0.61826 0.22018 0.7385 0.0
H1544 H 0.63397 0.23978 0.90618 0.0
H1545 H 0.59116 0.23946 0.89987 0.0
H1546 H 0.67385 0.26862 0.88671 0.0
H1547 H 0.7022 0.26175 0.85441 0.0
C1548 C 0.03451 0.36916 0.09306 0.0
C1549 C 0.01017 0.3468 0.08031 0.0
C1550 C 0.00037 0.38539 0.03337 0.0
C1551 C 0.02481 0.40732 0.04613 0.0
N1552 N 0.0573 0.4255 0.09251 0.0
N1553 N 0.96329 0.33852 0.04405 0.0
C1554 C 0.03897 0.40101 0.07767 0.0
C1555 C 0.99092 0.3565 0.05224 0.0
N1556 N 0.05535 0.35911 0.11803 0.0
N1557 N 0.9874 0.39131 0.00252 0.0
H1558 H 0.95541 0.31768 0.05775 0.0
H1559 H 0.94649 0.34616 0.02586 0.0
H1560 H 0.9931 0.41279 0.98871 0.0
H1561 H 0.97234 0.37431 0.99008 0.0
H1562 H 0.0757 0.37313 0.12577 0.0
H1563 H 0.05461 0.3354 0.12892 0.0
H1564 H 0.06582 0.42382 0.11692 0.0
H1565 H 0.06072 0.44901 0.08146 0.0
C1566 C 0.89075 0.79368 0.33769 0.0
C1567 C 0.90231 0.76301 0.35144 0.0
C1568 C 0.85454 0.73322 0.32935 0.0
C1569 C 0.84451 0.76337 0.31337 0.0
N1570 N 0.84567 0.82337 0.31017 0.0
N1571 N 0.89098 0.70662 0.3697 0.0
C1572 C 0.86008 0.7941 0.32053 0.0
C1573 C 0.88247 0.73383 0.35075 0.0
N1574 N 0.90993 0.82184 0.33957 0.0
N1575 N 0.83917 0.70371 0.32183 0.0
H1576 H 0.91182 0.70643 0.38509 0.0
H1577 H 0.87594 0.68556 0.37246 0.0
H1578 H 0.81855 0.70246 0.30627 0.0
H1579 H 0.84776 0.68032 0.32956 0.0
H1580 H 0.90475 0.84403 0.32687 0.0
H1581 H 0.93209 0.82255 0.35286 0.0
H1582 H 0.85429 0.84702 0.31663 0.0
H1583 H 0.82306 0.82373 0.29746 0.0
C1584 C 0.51441 0.37833 0.90452 0.0
C1585 C 0.48876 0.35452 0.90902 0.0
C1586 C 0.45897 0.39249 0.94622 0.0
C1587 C 0.48803 0.4122 0.94782 0.0
N1588 N 0.54304 0.42603 0.92764 0.0
N1589 N 0.43456 0.33947 0.9302 0.0
C1590 C 0.51529 0.40642 0.92592 0.0
C1591 C 0.46002 0.36207 0.92822 0.0
N1592 N 0.53836 0.37348 0.88069 0.0
N1593 N 0.43078 0.40292 0.96237 0.0
H1594 H 0.434 0.31777 0.91582 0.0
H1595 H 0.41455 0.34158 0.94663 0.0
H1596 H 0.42983 0.4255 0.97541 0.0
H1597 H 0.40786 0.39101 0.96056 0.0
H1598 H 0.55603 0.39144 0.87418 0.0
H1599 H 0.53885 0.35257 0.86524 0.0
H1600 H 0.56538 0.42063 0.91553 0.0
H1601 H 0.5442 0.44728 0.94244 0.0
C1602 C 0.90191 0.27244 0.19556 0.0
C1603 C 0.90769 0.25332 0.16636 0.0
C1604 C 0.85323 0.2267 0.17389 0.0
C1605 C 0.85174 0.23948 0.2066 0.0
N1606 N 0.87338 0.27579 0.24891 0.0
N1607 N 0.88822 0.21228 0.1268 0.0
C1608 C 0.87525 0.26346 0.21726 0.0
C1609 C 0.88275 0.23113 0.15465 0.0
N1610 N 0.92201 0.29908 0.20239 0.0
N1611 N 0.82647 0.20975 0.16173 0.0
H1612 H 0.90946 0.21437 0.11198 0.0
H1613 H 0.87261 0.19291 0.11948 0.0
H1614 H 0.80473 0.20654 0.17579 0.0
H1615 H 0.82453 0.20214 0.13704 0.0
H1616 H 0.91745 0.31578 0.22176 0.0
H1617 H 0.94139 0.30637 0.18652 0.0
H1618 H 0.89182 0.29047 0.25957 0.0
H1619 H 0.85389 0.26984 0.26515 0.0
C1620 C 0.04594 0.67991 0.46322 0.0
C1621 C 0.0144 0.68916 0.4504 0.0
C1622 C 0.9897 0.63759 0.47219 0.0
C1623 C 0.02184 0.62706 0.48284 0.0
N1624 N 0.07665 0.64284 0.50016 0.0
N1625 N 0.95486 0.68389 0.45422 0.0
C1626 C 0.04855 0.65014 0.48258 0.0
C1627 C 0.98577 0.67037 0.45897 0.0
N1628 N 0.07369 0.69791 0.45495 0.0
N1629 N 0.96358 0.61576 0.4718 0.0
H1630 H 0.95142 0.70812 0.44489 0.0
H1631 H 0.93304 0.67268 0.46284 0.0
H1632 H 0.96485 0.59138 0.4808 0.0
H1633 H 0.94102 0.62102 0.46021 0.0
H1634 H 0.09776 0.68999 0.46046 0.0
H1635 H 0.07297 0.71975 0.44065 0.0
H1636 H 0.09617 0.65967 0.50315 0.0
H1637 H 0.07864 0.62104 0.51455 0.0
C1638 C 0.59447 0.79358 0.70699 0.0
C1639 C 0.58401 0.76278 0.69289 0.0
C1640 C 0.63448 0.73504 0.71389 0.0
C1641 C 0.64618 0.76647 0.72554 0.0
N1642 N 0.63336 0.82235 0.74319 0.0
N1643 N 0.58875 0.70273 0.69095 0.0
C1644 C 0.62462 0.79461 0.72547 0.0
C1645 C 0.60238 0.73298 0.69899 0.0
N1646 N 0.57671 0.82223 0.70103 0.0
N1647 N 0.65465 0.70754 0.71554 0.0
H1648 H 0.56526 0.70057 0.68024 0.0
H1649 H 0.59919 0.67972 0.69739 0.0
H1650 H 0.67685 0.70744 0.72866 0.0
H1651 H 0.64982 0.68502 0.70357 0.0
H1652 H 0.5851 0.84609 0.70705 0.0
H1653 H 0.55422 0.82247 0.68823 0.0
H1654 H 0.6178 0.84293 0.74673 0.0
H1655 H 0.65518 0.82317 0.75718 0.0
C1656 C 0.546 0.5089 0.66022 0.0
C1657 C 0.57174 0.48734 0.67202 0.0
C1658 C 0.56322 0.45113 0.62364 0.0
C1659 C 0.54375 0.47663 0.60839 0.0
N1660 N 0.5003 0.51578 0.62133 0.0
N1661 N 0.60313 0.43595 0.66604 0.0
C1662 C 0.53017 0.50172 0.62923 0.0
C1663 C 0.57959 0.45767 0.65419 0.0
N1664 N 0.53787 0.53712 0.6776 0.0
N1665 N 0.56365 0.41977 0.61012 0.0
H1666 H 0.61418 0.43849 0.6893 0.0
H1667 H 0.61294 0.41633 0.65204 0.0
H1668 H 0.54867 0.41352 0.58991 0.0
H1669 H 0.57497 0.39915 0.62135 0.0
H1670 H 0.52184 0.55549 0.66846 0.0
H1671 H 0.54885 0.54322 0.70024 0.0
H1672 H 0.48732 0.53179 0.6372 0.0
H1673 H 0.48662 0.50793 0.6008 0.0
C1674 C 0.74189 0.34944 0.88604 0.0
C1675 C 0.76595 0.3457 0.91141 0.0
C1676 C 0.80017 0.31063 0.87484 0.0
C1677 C 0.77301 0.30846 0.85278 0.0
N1678 N 0.71801 0.32656 0.83591 0.0
N1679 N 0.82011 0.327 0.9293 0.0
C1680 C 0.74425 0.32888 0.85734 0.0
C1681 C 0.796 0.32789 0.90542 0.0
N1682 N 0.71646 0.37197 0.88974 0.0
N1683 N 0.8298 0.29608 0.86619 0.0
H1684 H 0.81892 0.3415 0.95082 0.0
H1685 H 0.84089 0.31144 0.92836 0.0
H1686 H 0.83317 0.28386 0.84346 0.0
H1687 H 0.8516 0.29846 0.87981 0.0
H1688 H 0.70034 0.37861 0.87058 0.0
H1689 H 0.71302 0.38625 0.91115 0.0
H1690 H 0.69477 0.33725 0.84037 0.0
H1691 H 0.7185 0.31227 0.81432 0.0
C1692 C 0.96507 0.54637 0.16423 0.0
C1693 C 0.95601 0.51474 0.17775 0.0
C1694 C 0.97768 0.48638 0.12818 0.0
C1695 C 0.98389 0.51824 0.11342 0.0
N1696 N 0.99586 0.57651 0.12133 0.0
N1697 N 0.96386 0.45495 0.17836 0.0
C1698 C 0.98197 0.54753 0.13308 0.0
C1699 C 0.96579 0.48479 0.16157 0.0
N1700 N 0.9554 0.57527 0.17969 0.0
N1701 N 0.98109 0.45785 0.10986 0.0
H1702 H 0.95561 0.45328 0.20302 0.0
H1703 H 0.97337 0.43251 0.16918 0.0
H1704 H 0.99213 0.45753 0.08643 0.0
H1705 H 0.97228 0.43452 0.11753 0.0
H1706 H 0.95777 0.59892 0.16885 0.0
H1707 H 0.94298 0.57566 0.20254 0.0
H1708 H 0.99775 0.59828 0.13539 0.0
H1709 H 0.00854 0.57745 0.09854 0.0
C1710 C 0.77518 0.67213 0.37992 0.0
C1711 C 0.76599 0.68986 0.4092 0.0
C1712 C 0.7455 0.73567 0.37399 0.0
C1713 C 0.74593 0.71389 0.34636 0.0
N1714 N 0.76321 0.66215 0.32174 0.0
N1715 N 0.74177 0.7399 0.43382 0.0
C1716 C 0.76201 0.68254 0.34877 0.0
C1717 C 0.75187 0.72252 0.40629 0.0
N1718 N 0.79658 0.64557 0.382 0.0
N1719 N 0.73799 0.76872 0.3692 0.0
H1720 H 0.74504 0.73157 0.45814 0.0
H1721 H 0.72774 0.76184 0.43245 0.0
H1722 H 0.7334 0.77854 0.34549 0.0
H1723 H 0.73992 0.78667 0.38785 0.0
H1724 H 0.80609 0.63322 0.36121 0.0
H1725 H 0.80762 0.63839 0.40442 0.0
H1726 H 0.77126 0.63735 0.32264 0.0
H1727 H 0.75484 0.67038 0.29863 0.0
C1728 C 0.59531 0.53425 0.87856 0.0
C1729 C 0.58243 0.5109 0.85529 0.0
C1730 C 0.53339 0.50217 0.89118 0.0
C1731 C 0.54616 0.52574 0.91403 0.0
N1732 N 0.59295 0.55618 0.93488 0.0
N1733 N 0.54482 0.46522 0.84464 0.0
C1734 C 0.57853 0.53888 0.9095 0.0
C1735 C 0.55323 0.49241 0.86332 0.0
N1736 N 0.62194 0.55394 0.87025 0.0
N1737 N 0.50167 0.4905 0.8951 0.0
H1738 H 0.5593 0.45697 0.82461 0.0
H1739 H 0.52556 0.44895 0.85104 0.0
H1740 H 0.48686 0.49663 0.91562 0.0
H1741 H 0.48952 0.47623 0.87727 0.0
H1742 H 0.62986 0.57393 0.88475 0.0
H1743 H 0.6345 0.55243 0.84754 0.0
H1744 H 0.61772 0.56384 0.93449 0.0
H1745 H 0.58098 0.55961 0.95779 0.0
C1746 C 0.71498 0.30974 0.10598 0.0
C1747 C 0.74614 0.31744 0.09102 0.0
C1748 C 0.77541 0.29562 0.13989 0.0
C1749 C 0.74421 0.28928 0.1555 0.0
N1750 N 0.68554 0.27993 0.15007 0.0
N1751 N 0.80531 0.30808 0.08863 0.0
C1752 C 0.71438 0.29277 0.13722 0.0
C1753 C 0.77615 0.30704 0.10632 0.0
N1754 N 0.68612 0.32057 0.09159 0.0
N1755 N 0.80415 0.29313 0.15774 0.0
H1756 H 0.80647 0.31608 0.06385 0.0
H1757 H 0.82757 0.29794 0.09728 0.0
H1758 H 0.80477 0.2847 0.18229 0.0
H1759 H 0.82715 0.30152 0.14903 0.0
H1760 H 0.66297 0.31913 0.1033 0.0
H1761 H 0.68547 0.33307 0.06874 0.0
H1762 H 0.66324 0.2792 0.13702 0.0
H1763 H 0.68503 0.26678 0.17262 0.0
C1764 C 0.92029 0.49039 0.37906 0.0
C1765 C 0.92079 0.5178 0.35656 0.0
C1766 C 0.95907 0.54789 0.39243 0.0
C1767 C 0.96411 0.51782 0.4109 0.0
N1768 N 0.94901 0.46059 0.4233 0.0
N1769 N 0.93745 0.57392 0.34232 0.0
C1770 C 0.94401 0.48926 0.40521 0.0
C1771 C 0.93881 0.5472 0.36376 0.0
N1772 N 0.89743 0.4655 0.37503 0.0
N1773 N 0.97346 0.57711 0.40258 0.0
H1774 H 0.92088 0.57496 0.3224 0.0
H1775 H 0.95334 0.59444 0.34346 0.0
H1776 H 0.9889 0.57851 0.42326 0.0
H1777 H 0.96802 0.6005 0.39235 0.0
H1778 H 0.89399 0.4459 0.3919 0.0
H1779 H 0.8796 0.46639 0.35628 0.0
H1780 H 0.93763 0.43784 0.41802 0.0
H1781 H 0.96618 0.45893 0.44261 0.0
C1782 C 0.74957 0.66562 0.62205 0.0
C1783 C 0.77124 0.6768 0.5962 0.0
C1784 C 0.79607 0.71729 0.63463 0.0
C1785 C 0.7704 0.7106 0.6581 0.0
N1786 N 0.72262 0.67787 0.67475 0.0
N1787 N 0.81654 0.71206 0.57788 0.0
C1788 C 0.7476 0.68406 0.65235 0.0
C1789 C 0.79509 0.70215 0.60259 0.0
N1790 N 0.73052 0.63768 0.61753 0.0
N1791 N 0.82171 0.73781 0.6435 0.0
H1792 H 0.81823 0.70003 0.55492 0.0
H1793 H 0.83169 0.7331 0.57946 0.0
H1794 H 0.82325 0.7484 0.66718 0.0
H1795 H 0.84285 0.74174 0.62891 0.0
H1796 H 0.71732 0.62591 0.63666 0.0
H1797 H 0.72973 0.62456 0.59519 0.0
H1798 H 0.70244 0.66233 0.67005 0.0
H1799 H 0.72129 0.68936 0.69786 0.0
C1800 C 0.65079 0.59009 0.52251 0.0
C1801 C 0.67258 0.59101 0.49448 0.0
C1802 C 0.63399 0.5553 0.46329 0.0
C1803 C 0.61243 0.55408 0.4914 0.0
N1804 N 0.59619 0.57637 0.54487 0.0
N1805 N 0.68092 0.58206 0.43567 0.0
C1806 C 0.61936 0.57378 0.51992 0.0
C1807 C 0.66295 0.57586 0.46407 0.0
N1808 N 0.66105 0.60271 0.55235 0.0
N1809 N 0.62708 0.53612 0.43609 0.0
H1810 H 0.70178 0.59758 0.43518 0.0
H1811 H 0.67354 0.57449 0.41208 0.0
H1812 H 0.6049 0.52278 0.43378 0.0
H1813 H 0.64376 0.53228 0.41652 0.0
H1814 H 0.64815 0.59927 0.57467 0.0
H1815 H 0.68393 0.61444 0.55555 0.0
H1816 H 0.59807 0.59322 0.56449 0.0
H1817 H 0.57352 0.56378 0.54458 0.0
C1818 C 0.15785 0.94964 0.54823 0.0
C1819 C 0.17358 0.94473 0.5169 0.0
C1820 C 0.12639 0.971 0.48843 0.0
C1821 C 0.10974 0.97394 0.51962 0.0
N1822 N 0.11393 0.97779 0.57913 0.0
N1823 N 0.17819 0.95996 0.45896 0.0
C1824 C 0.12716 0.96732 0.54952 0.0
C1825 C 0.15955 0.95851 0.48754 0.0
N1826 N 0.17082 0.93542 0.57637 0.0
N1827 N 0.11005 0.97826 0.4596 0.0
H1828 H 0.20272 0.95136 0.45778 0.0
H1829 H 0.17065 0.97249 0.43747 0.0
H1830 H 0.08689 0.98981 0.45928 0.0
H1831 H 0.11898 0.97202 0.43602 0.0
H1832 H 0.1583 0.93485 0.59916 0.0
H1833 H 0.19309 0.92199 0.57657 0.0
H1834 H 0.12654 0.97628 0.60168 0.0
H1835 H 0.09163 0.99124 0.58036 0.0
C1836 C 0.36188 0.88202 0.78476 0.0
C1837 C 0.36156 0.90293 0.7561 0.0
C1838 C 0.32246 0.86604 0.72847 0.0
C1839 C 0.31962 0.84729 0.7585 0.0
N1840 N 0.34229 0.83056 0.81127 0.0
N1841 N 0.35228 0.90899 0.69742 0.0
C1842 C 0.34154 0.85285 0.78533 0.0
C1843 C 0.34549 0.89274 0.72673 0.0
N1844 N 0.38019 0.89111 0.81177 0.0
N1845 N 0.30177 0.85951 0.70241 0.0
H1846 H 0.36955 0.92847 0.6959 0.0
H1847 H 0.34348 0.90129 0.67436 0.0
H1848 H 0.28517 0.83953 0.7026 0.0
H1849 H 0.29984 0.87462 0.68131 0.0
H1850 H 0.37886 0.87925 0.83488 0.0
H1851 H 0.39674 0.91118 0.81102 0.0
H1852 H 0.35911 0.83175 0.83081 0.0
H1853 H 0.3274 0.80916 0.81188 0.0
C1854 C 0.3649 0.06009 0.98183 0.0
C1855 C 0.35701 0.09198 0.99517 0.0
C1856 C 0.40935 0.0915 0.02606 0.0
C1857 C 0.41275 0.05708 0.01907 0.0
N1858 N 0.39539 0.00804 0.98927 0.0
N1859 N 0.37185 0.13861 0.03065 0.0
C1860 C 0.3915 0.04136 0.99592 0.0
C1861 C 0.37972 0.10838 0.01672 0.0
N1862 N 0.34681 0.04786 0.95591 0.0
N1863 N 0.43438 0.10768 0.04227 0.0
H1864 H 0.35028 0.15197 0.02525 0.0
H1865 H 0.38568 0.14952 0.04957 0.0
H1866 H 0.45627 0.09536 0.04916 0.0
H1867 H 0.43501 0.13355 0.04549 0.0
H1868 H 0.35304 0.02604 0.94315 0.0
H1869 H 0.32736 0.06143 0.94515 0.0
H1870 H 0.37852 0.99411 0.97549 0.0
H1871 H 0.41497 0.99392 -0.00099 0.0
C1872 C 0.66016 0.62322 0.77953 0.0
C1873 C 0.67359 0.59732 0.75908 0.0
C1874 C 0.72347 0.63186 0.74882 0.0
C1875 C 0.71046 0.65694 0.77011 0.0
N1876 N 0.66304 0.68149 0.79695 0.0
N1877 N 0.71321 0.58152 0.71662 0.0
C1878 C 0.67745 0.65428 0.78219 0.0
C1879 C 0.70376 0.60313 0.74123 0.0
N1880 N 0.63245 0.61739 0.7986 0.0
N1881 N 0.7553 0.63489 0.7371 0.0
H1882 H 0.69899 0.56073 0.71009 0.0
H1883 H 0.73326 0.58589 0.70064 0.0
H1884 H 0.76936 0.65651 0.7409 0.0
H1885 H 0.76799 0.61582 0.72475 0.0
H1886 H 0.62384 0.63393 0.81671 0.0
H1887 H 0.61949 0.59482 0.79864 0.0
H1888 H 0.63799 0.68254 0.80369 0.0
H1889 H 0.67557 0.70428 0.79908 0.0
C1890 C 0.86052 0.43088 0.97262 0.0
C1891 C 0.85118 0.4155 0.00318 0.0
C1892 C 0.90458 0.43077 0.02743 0.0
C1893 C 0.91059 0.45187 -0.00049 0.0
N1894 N 0.89645 0.47089 0.94443 0.0
N1895 N 0.86383 0.39963 0.05978 0.0
C1896 C 0.8894 0.45119 0.97151 0.0
C1897 C 0.8734 0.41436 0.03041 0.0
N1898 N 0.84202 0.42548 0.94469 0.0
N1899 N 0.92839 0.42706 0.05129 0.0
H1900 H 0.84126 0.38712 0.06285 0.0
H1901 H 0.87724 0.40148 0.0818 0.0
H1902 H 0.95124 0.43917 0.04984 0.0
H1903 H 0.92693 0.40967 0.07065 0.0
H1904 H 0.84896 0.43366 0.921 0.0
H1905 H 0.82116 0.40998 0.94472 0.0
H1906 H 0.88001 0.47489 0.92486 0.0
H1907 H 0.91863 0.48434 0.94218 0.0
C1908 C 0.33116 0.09767 0.70419 0.0
C1909 C 0.32145 0.0814 0.73421 0.0
C1910 C 0.27614 0.12207 0.74129 0.0
C1911 C 0.29159 0.14252 0.71694 0.0
N1912 N 0.31842 0.14091 0.6634 0.0
N1913 N 0.28224 0.07515 0.77955 0.0
C1914 C 0.31429 0.12735 0.69445 0.0
C1915 C 0.29268 0.09226 0.75189 0.0
N1916 N 0.35724 0.08551 0.68581 0.0
N1917 N 0.24471 0.12954 0.75182 0.0
H1918 H 0.29351 0.05295 0.78749 0.0
H1919 H 0.26352 0.08383 0.79538 0.0
H1920 H 0.23123 0.14938 0.74148 0.0
H1921 H 0.23089 0.11411 0.76764 0.0
H1922 H 0.36817 0.09857 0.66608 0.0
H1923 H 0.36893 0.06275 0.69114 0.0
H1924 H 0.33274 0.12995 0.64468 0.0
H1925 H 0.30418 0.16133 0.6554 0.0
C1926 C 0.16228 0.88421 0.23448 0.0
C1927 C 0.17357 0.90917 0.25693 0.0
C1928 C 0.22248 0.87442 0.27021 0.0
C1929 C 0.21221 0.85082 0.24618 0.0
N1930 N 0.16836 0.82723 0.2138 0.0
N1931 N 0.20875 0.92369 0.30304 0.0
C1932 C 0.18053 0.8537 0.23135 0.0
C1933 C 0.2019 0.90281 0.2771 0.0
N1934 N 0.13569 0.89058 0.21431 0.0
N1935 N 0.25265 0.87032 0.28521 0.0
H1936 H 0.19383 0.94431 0.3089 0.0
H1937 H 0.22732 0.91908 0.32044 0.0
H1938 H 0.26711 0.84883 0.28169 0.0
H1939 H 0.26374 0.88832 0.30015 0.0
H1940 H 0.12853 0.87494 0.19497 0.0
H1941 H 0.12208 0.9128 0.21516 0.0
H1942 H 0.14421 0.8262 0.20463 0.0
H1943 H 0.18163 0.80481 0.21148 0.0
C1944 C 0.49673 0.35546 0.45103 0.0
C1945 C 0.51159 0.35157 0.41903 0.0
C1946 C 0.53178 0.40975 0.42209 0.0
C1947 C 0.52299 0.41079 0.45623 0.0
N1948 N 0.49662 0.3852 0.50374 0.0
N1949 N 0.54468 0.37521 0.3742 0.0
C1950 C 0.5048 0.38398 0.47069 0.0
C1951 C 0.52883 0.37908 0.40417 0.0
N1952 N 0.47443 0.33218 0.46232 0.0
N1953 N 0.54372 0.43814 0.40715 0.0
H1954 H 0.5442 0.35309 0.36058 0.0
H1955 H 0.56062 0.39308 0.36395 0.0
H1956 H 0.54607 0.46062 0.42014 0.0
H1957 H 0.54784 0.44036 0.3816 0.0
H1958 H 0.46046 0.33507 0.48405 0.0
H1959 H 0.46744 0.31149 0.4482 0.0
H1960 H 0.4871 0.36487 0.51705 0.0
H1961 H 0.50062 0.40655 0.51811 0.0
C1962 C 0.40547 0.73035 0.20665 0.0
C1963 C 0.42607 0.75903 0.20478 0.0
C1964 C 0.3847 0.79042 0.23714 0.0
C1965 C 0.36128 0.7646 0.23149 0.0
N1966 N 0.34928 0.70945 0.20978 0.0
N1967 N 0.43604 0.81684 0.21916 0.0
C1968 C 0.37179 0.73398 0.21676 0.0
C1969 C 0.41634 0.78904 0.22105 0.0
N1970 N 0.41823 0.69967 0.19848 0.0
N1971 N 0.3762 0.81646 0.25747 0.0
H1972 H 0.45951 0.81682 0.20802 0.0
H1973 H 0.42834 0.84048 0.22698 0.0
H1974 H 0.35313 0.81759 0.26954 0.0
H1975 H 0.39292 0.83484 0.26488 0.0
H1976 H 0.40524 0.67733 0.20179 0.0
H1977 H 0.44316 0.69636 0.19174 0.0
H1978 H 0.35484 0.68865 0.19517 0.0
H1979 H 0.32445 0.71064 0.21698 0.0
C1980 C 0.0257 0.64724 0.95398 0.0
C1981 C 0.00617 0.65562 0.92573 0.0
C1982 C 0.97618 0.60231 0.93185 0.0
C1983 C 0.9913 0.59715 0.96321 0.0
N1984 N 0.03055 0.61412 0.00477 0.0
N1985 N 0.96128 0.64183 0.88844 0.0
C1986 C 0.01657 0.61914 0.97421 0.0
C1987 C 0.98142 0.63301 0.9144 0.0
N1988 N 0.05319 0.6659 0.96113 0.0
N1989 N 0.9566 0.57767 0.91897 0.0
H1990 H 0.96363 0.66429 0.87532 0.0
H1991 H 0.94043 0.62815 0.88149 0.0
H1992 H 0.95272 0.55492 0.93138 0.0
H1993 H 0.94724 0.57822 0.89484 0.0
H1994 H 0.07034 0.6593 0.97937 0.0
H1995 H 0.06045 0.68649 0.9467 0.0
H1996 H 0.04638 0.63119 0.01609 0.0
H1997 H 0.02499 0.59326 0.01955 0.0
C1998 C 0.11064 0.21752 0.66767 0.0
C1999 C 0.10288 0.25057 0.65682 0.0
C2000 C 0.15987 0.26814 0.66744 0.0
C2001 C 0.1652 0.23769 0.68493 0.0
N2002 N 0.14938 0.1811 0.69709 0.0
N2003 N 0.11971 0.30738 0.64486 0.0
C2004 C 0.14189 0.21135 0.68283 0.0
C2005 C 0.12762 0.27571 0.65544 0.0
N2006 N 0.08814 0.19227 0.66348 0.0
N2007 N 0.1855 0.28994 0.66281 0.0
H2008 H 0.09632 0.3139 0.63573 0.0
H2009 H 0.13551 0.32786 0.64713 0.0
H2010 H 0.20924 0.28468 0.6713 0.0
H2011 H 0.18425 0.31112 0.64762 0.0
H2012 H 0.09313 0.16711 0.66821 0.0
H2013 H 0.06476 0.19616 0.65314 0.0
H2014 H 0.13253 0.16158 0.70022 0.0
H2015 H 0.17305 0.17593 0.70648 0.0
C2016 C 0.48292 0.63326 0.10374 0.0
C2017 C 0.50851 0.65735 0.09999 0.0
C2018 C 0.54064 0.61901 0.065 0.0
C2019 C 0.51228 0.59846 0.06309 0.0
N2020 N 0.45767 0.58262 0.08251 0.0
N2021 N 0.56373 0.67241 0.08123 0.0
C2022 C 0.4841 0.60404 0.0838 0.0
C2023 C 0.53826 0.64978 0.08224 0.0
N2024 N 0.4573 0.63875 0.12564 0.0
N2025 N 0.56959 0.60878 0.05008 0.0
H2026 H 0.56374 0.6941 0.09551 0.0
H2027 H 0.5845 0.67031 0.0658 0.0
H2028 H 0.57147 0.58585 0.03776 0.0
H2029 H 0.59219 0.62123 0.05216 0.0
H2030 H 0.43957 0.6208 0.13195 0.0
H2031 H 0.4549 0.66069 0.13944 0.0
H2032 H 0.43464 0.58718 0.09357 0.0
H2033 H 0.45862 0.56021 0.06942 0.0
C2034 C 0.1341 0.74233 0.8406 0.0
C2035 C 0.10373 0.75112 0.82466 0.0
C2036 C 0.1355 0.76715 0.77478 0.0
C2037 C 0.16523 0.76625 0.7934 0.0
N2038 N 0.19403 0.75009 0.84293 0.0
N2039 N 0.07597 0.77482 0.77646 0.0
C2040 C 0.16497 0.7524 0.82587 0.0
C2041 C 0.10442 0.76357 0.79138 0.0
N2042 N 0.13337 0.72389 0.86937 0.0
N2043 N 0.13722 0.77234 0.74118 0.0
H2044 H 0.0527 0.77478 0.78799 0.0
H2045 H 0.07593 0.78738 0.75365 0.0
H2046 H 0.16 0.77489 0.72879 0.0
H2047 H 0.11674 0.77043 0.72552 0.0
H2048 H 0.15459 0.71432 0.88077 0.0
H2049 H 0.11122 0.7154 0.88013 0.0
H2050 H 0.19552 0.74364 0.86802 0.0
H2051 H 0.2167 0.7555 0.83148 0.0
C2052 C 0.96619 0.36046 0.55714 0.0
C2053 C -0.0021 0.34659 0.56444 0.0
C2054 C 0.02521 0.39349 0.53568 0.0
C2055 C 0.99419 0.41023 0.53483 0.0
N2056 N 0.93504 0.40528 0.53015 0.0
N2057 N 0.05769 0.34763 0.55863 0.0
C2058 C 0.96455 0.392 0.54068 0.0
C2059 C 0.02748 0.36222 0.55265 0.0
N2060 N 0.93792 0.34488 0.56827 0.0
N2061 N 0.05177 0.40655 0.51884 0.0
H2062 H 0.06012 0.32375 0.56907 0.0
H2063 H 0.08034 0.35964 0.55457 0.0
H2064 H 0.0494 0.42718 0.50307 0.0
H2065 H 0.07474 0.39462 0.51671 0.0
H2066 H 0.91429 0.35551 0.56708 0.0
H2067 H 0.93809 0.32175 0.58046 0.0
H2068 H 0.91242 0.39267 0.53118 0.0
H2069 H 0.93401 0.42807 0.51726 0.0
C2070 C 0.40152 0.28253 0.31621 0.0
C2071 C 0.42507 0.25618 0.31371 0.0
C2072 C 0.38747 0.22582 0.27654 0.0
C2073 C 0.36173 0.24886 0.28432 0.0
N2074 N 0.3438 0.29946 0.31207 0.0
N2075 N 0.44125 0.2025 0.29148 0.0
C2076 C 0.3688 0.27778 0.30364 0.0
C2077 C 0.41855 0.22801 0.29332 0.0
N2078 N 0.41057 0.31215 0.33048 0.0
N2079 N 0.38186 0.20178 0.25313 0.0
H2080 H 0.46441 0.20343 0.30303 0.0
H2081 H 0.43647 0.17959 0.28022 0.0
H2082 H 0.3593 0.20015 0.24046 0.0
H2083 H 0.40023 0.18575 0.24406 0.0
H2084 H 0.39576 0.3336 0.33006 0.0
H2085 H 0.4343 0.3162 0.34006 0.0
H2086 H 0.34633 0.31842 0.32959 0.0
H2087 H 0.3198 0.29754 0.30277 0.0
C2088 C 0.45368 0.4848 0.35313 0.0
C2089 C 0.4438 0.51352 0.33468 0.0
C2090 C 0.46887 0.54926 0.37755 0.0
C2091 C 0.47258 0.52101 0.39881 0.0
N2092 N 0.46671 0.46126 0.40713 0.0
N2093 N 0.44011 0.5739 0.33052 0.0
C2094 C 0.46512 0.48849 0.38648 0.0
C2095 C 0.45145 0.54602 0.34686 0.0
N2096 N 0.45255 0.45394 0.33857 0.0
N2097 N 0.48206 0.57928 0.3869 0.0
H2098 H 0.42687 0.57297 0.30833 0.0
H2099 H 0.4415 0.59796 0.34036 0.0
H2100 H 0.49523 0.58208 0.40905 0.0
H2101 H 0.48299 0.60021 0.37132 0.0
H2102 H 0.46254 0.43242 0.34944 0.0
H2103 H 0.44474 0.45049 0.31407 0.0
H2104 H 0.45735 0.4378 0.40095 0.0
H2105 H 0.47574 0.46244 0.43129 0.0
C2106 C 0.22847 0.71542 0.09404 0.0
C2107 C 0.24401 0.68356 0.09153 0.0
C2108 C 0.25721 0.68471 0.15095 0.0
C2109 C 0.2414 0.71653 0.15331 0.0
N2110 N 0.20106 0.75492 0.1306 0.0
N2111 N 0.26228 0.6332 0.1197 0.0
C2112 C 0.22317 0.72928 0.12596 0.0
C2113 C 0.25497 0.66666 0.12067 0.0
N2114 N 0.22098 0.73372 0.06617 0.0
N2115 N 0.27573 0.67229 0.1766 0.0
H2116 H 0.25951 0.61879 0.09828 0.0
H2117 H 0.2674 0.61904 0.14095 0.0
H2118 H 0.27704 0.68357 0.19979 0.0
H2119 H 0.29129 0.65149 0.17424 0.0
H2120 H 0.21258 0.75843 0.06718 0.0
H2121 H 0.22649 0.72587 0.04205 0.0
H2122 H 0.18511 0.7634 0.11196 0.0
H2123 H 0.19615 0.76495 0.15411 0.0
C2124 C 0.05542 0.45817 0.84834 0.0
C2125 C 0.06444 0.48984 0.83505 0.0
C2126 C 0.03934 0.51827 0.88287 0.0
C2127 C 0.03395 0.48646 0.898 0.0
N2128 N 0.02417 0.42769 0.89072 0.0
N2129 N 0.05496 0.54932 0.83294 0.0
C2130 C 0.03746 0.45692 0.87889 0.0
C2131 C 0.05292 0.51972 0.85013 0.0
N2132 N 0.06599 0.42945 0.83313 0.0
N2133 N 0.03347 0.54693 0.90033 0.0
H2134 H 0.06447 0.55077 0.80872 0.0
H2135 H 0.04449 0.5717 0.84118 0.0
H2136 H 0.02117 0.54705 0.92313 0.0
H2137 H 0.04131 0.5706 0.89263 0.0
H2138 H 0.0635 0.40571 0.84372 0.0
H2139 H 0.07896 0.42946 0.81055 0.0
H2140 H 0.02359 0.40555 0.87712 0.0
H2141 H 0.01075 0.42679 0.91309 0.0
C2142 C 0.27629 0.3484 0.62715 0.0
C2143 C 0.25902 0.33281 0.60046 0.0
C2144 C 0.26038 0.27911 0.6302 0.0
C2145 C 0.27783 0.29462 0.65645 0.0
N2146 N 0.29486 0.34458 0.68455 0.0
N2147 N 0.2253 0.28673 0.58186 0.0
C2148 C 0.28304 0.32958 0.65648 0.0
C2149 C 0.24811 0.29916 0.60367 0.0
N2150 N 0.2886 0.38013 0.6237 0.0
N2151 N 0.25619 0.24513 0.63032 0.0
H2152 H 0.21487 0.30129 0.56293 0.0
H2153 H 0.21411 0.26337 0.58472 0.0
H2154 H 0.26317 0.23 0.65039 0.0
H2155 H 0.24719 0.23187 0.61 0.0
H2156 H 0.30482 0.39099 0.64062 0.0
H2157 H 0.28481 0.39501 0.60279 0.0
H2158 H 0.2961 0.37046 0.68754 0.0
H2159 H 0.29997 0.33105 0.70627 0.0
C2160 C 0.4606 0.51409 0.15333 0.0
C2161 C 0.42758 0.50248 0.15866 0.0
C2162 C 0.42752 0.47683 0.10314 0.0
C2163 C 0.46127 0.48622 0.09887 0.0
N2164 N 0.50825 0.51895 0.11567 0.0
N2165 N 0.37683 0.4797 0.13623 0.0
C2166 C 0.47714 0.50688 0.12257 0.0
C2167 C 0.41004 0.48637 0.1326 0.0
N2168 N 0.47625 0.53125 0.17812 0.0
N2169 N 0.41281 0.45733 0.07951 0.0
H2170 H 0.36351 0.48439 0.15806 0.0
H2171 H 0.36176 0.47143 0.11698 0.0
H2172 H 0.42433 0.45198 0.05675 0.0
H2173 H 0.38982 0.44573 0.08252 0.0
H2174 H 0.50123 0.53796 0.17758 0.0
H2175 H 0.46416 0.53835 0.20007 0.0
H2176 H 0.52076 0.53615 0.13036 0.0
H2177 H 0.52088 0.51329 0.09362 0.0
C2178 C 0.26678 0.72949 0.90969 0.0
C2179 C 0.28461 0.70102 0.92123 0.0
C2180 C 0.32235 0.70527 0.87358 0.0
C2181 C 0.29912 0.72693 0.85809 0.0
N2182 N 0.26462 0.77484 0.86899 0.0
N2183 N 0.3326 0.66472 0.91747 0.0
C2184 C 0.27586 0.74399 0.87845 0.0
C2185 C 0.31387 0.69022 0.9045 0.0
N2186 N 0.24043 0.74147 0.9277 0.0
N2187 N 0.35282 0.70047 0.85913 0.0
H2188 H 0.32806 0.65441 0.94101 0.0
H2189 H 0.35179 0.65295 0.90445 0.0
H2190 H 0.36001 0.71373 0.83778 0.0
H2191 H 0.37195 0.68679 0.87014 0.0
H2192 H 0.2245 0.76018 0.91913 0.0
H2193 H 0.23384 0.73169 0.95098 0.0
H2194 H 0.24931 0.78976 0.88381 0.0
H2195 H 0.27386 0.78695 0.84778 0.0
C2196 C 0.06589 0.54868 0.66834 0.0
C2197 C 0.09394 0.52711 0.66563 0.0
C2198 C 0.09002 0.5307 0.60506 0.0
C2199 C 0.05651 0.54083 0.60885 0.0
N2200 N 0.01683 0.57182 0.64152 0.0
N2201 N 0.13581 0.50098 0.63063 0.0
C2202 C 0.04595 0.55417 0.63979 0.0
C2203 C 0.10747 0.51967 0.63374 0.0
N2204 N 0.05924 0.56463 0.69773 0.0
N2205 N 0.10543 0.53326 0.57481 0.0
H2206 H 0.14868 0.49108 0.65086 0.0
H2207 H 0.14547 0.49359 0.60772 0.0
H2208 H 0.09396 0.54462 0.55443 0.0
H2209 H 0.13067 0.52834 0.57119 0.0
H2210 H 0.04038 0.58225 0.70085 0.0
H2211 H 0.07478 0.5627 0.71838 0.0
H2212 H 0.00525 0.57879 0.66369 0.0
H2213 H 0.00419 0.57936 0.62007 0.0
C2214 C 0.24817 0.34545 0.38728 0.0
C2215 C 0.24225 0.32874 0.41815 0.0
C2216 C 0.22559 0.27905 0.38695 0.0
C2217 C 0.23966 0.29264 0.35735 0.0
N2218 N 0.26691 0.33988 0.33036 0.0
N2219 N 0.23052 0.27621 0.44661 0.0
C2220 C 0.25136 0.32631 0.35756 0.0
C2221 C 0.23195 0.29468 0.41788 0.0
N2222 N 0.2495 0.37965 0.38592 0.0
N2223 N 0.20628 0.25098 0.3855 0.0
H2224 H 0.23799 0.28519 0.46968 0.0
H2225 H 0.22585 0.25051 0.44677 0.0
H2226 H 0.20013 0.23972 0.36293 0.0
H2227 H 0.19337 0.24155 0.40611 0.0
H2228 H 0.25083 0.39298 0.36355 0.0
H2229 H 0.24508 0.39477 0.40658 0.0
H2230 H 0.2795 0.36268 0.33112 0.0
H2231 H 0.26932 0.32773 0.30768 0.0
C2232 C 0.37115 0.42285 0.49036 0.0
C2233 C 0.34697 0.42766 0.51588 0.0
C2234 C 0.38652 0.46289 0.54649 0.0
C2235 C 0.4103 0.45878 0.52047 0.0
N2236 N 0.42904 0.42602 0.47362 0.0
N2237 N 0.33369 0.44656 0.57136 0.0
C2238 C 0.4039 0.43575 0.49444 0.0
C2239 C 0.3553 0.44598 0.54495 0.0
N2240 N 0.36229 0.40782 0.46118 0.0
N2241 N 0.39377 0.48372 0.57238 0.0
H2242 H 0.31033 0.43537 0.57075 0.0
H2243 H 0.3395 0.4562 0.59464 0.0
H2244 H 0.41748 0.49381 0.57568 0.0
H2245 H 0.37643 0.49172 0.58999 0.0
H2246 H 0.37762 0.40711 0.44018 0.0
H2247 H 0.3384 0.39883 0.45666 0.0
H2248 H 0.42671 0.40691 0.45621 0.0
H2249 H 0.45338 0.4341 0.47645 0.0
C2250 C 0.85107 0.06968 0.46334 0.0
C2251 C 0.83754 0.07851 0.49488 0.0
C2252 C 0.88803 0.05858 0.52253 0.0
C2253 C 0.90182 0.05028 0.49096 0.0
N2254 N 0.89303 0.03787 0.43319 0.0
N2255 N 0.83827 0.07131 0.55451 0.0
C2256 C 0.88194 0.05226 0.46202 0.0
C2257 C 0.85444 0.0695 0.5245 0.0
N2258 N 0.83602 0.08011 0.43464 0.0
N2259 N 0.90752 0.05849 0.55026 0.0
H2260 H 0.81335 0.07849 0.55662 0.0
H2261 H 0.84838 0.06245 0.5767 0.0
H2262 H 0.93204 0.05014 0.55011 0.0
H2263 H 0.89997 0.06849 0.57302 0.0
H2264 H 0.84696 0.07771 0.41118 0.0
H2265 H 0.81382 0.09361 0.43423 0.0
H2266 H 0.87853 0.03591 0.41187 0.0
H2267 H 0.91557 0.02484 0.43191 0.0
C2268 C 0.67827 0.11626 0.23721 0.0
C2269 C 0.67509 0.09912 0.26823 0.0
C2270 C 0.70623 0.1434 0.29597 0.0
C2271 C 0.71401 0.15722 0.2643 0.0
N2272 N 0.70773 0.15853 0.2048 0.0
N2273 N 0.68441 0.09612 0.32742 0.0
C2274 C 0.69958 0.14455 0.23493 0.0
C2275 C 0.68833 0.11282 0.29781 0.0
N2276 N 0.66129 0.10527 0.20994 0.0
N2277 N 0.7159 0.15982 0.32413 0.0
H2278 H 0.66984 0.07462 0.3299 0.0
H2279 H 0.69659 0.10261 0.34925 0.0
H2280 H 0.72902 0.18237 0.32331 0.0
H2281 H 0.70867 0.15288 0.34812 0.0
H2282 H 0.6598 0.11859 0.18765 0.0
H2283 H 0.64661 0.0838 0.21009 0.0
H2284 H 0.70156 0.1481 0.18195 0.0
H2285 H 0.72217 0.18015 0.2026 0.0
C2286 C 0.64605 0.95839 0.03476 0.0
C2287 C 0.65092 0.9272 0.01847 0.0
C2288 C 0.5937 0.93032 0.99769 0.0
C2289 C 0.59269 0.96446 0.00639 0.0
N2290 N 0.61559 0.01106 0.03591 0.0
N2291 N 0.62842 0.88269 0.98435 0.0
C2292 C 0.61789 0.97832 0.02642 0.0
C2293 C 0.62414 0.91236 0.00072 0.0
N2294 N 0.66814 0.9686 0.05834 0.0
N2295 N 0.56569 0.91565 0.98546 0.0
H2296 H 0.65023 0.86866 0.98507 0.0
H2297 H 0.611 0.87298 0.96793 0.0
H2298 H 0.54344 0.929 0.98292 0.0
H2299 H 0.56359 0.89001 0.98122 0.0
H2300 H 0.66451 0.98974 0.07305 0.0
H2301 H 0.68842 0.95393 0.06555 0.0
H2302 H 0.63483 0.02406 0.04728 0.0
H2303 H 0.59439 0.02547 0.03121 0.0
C2304 C 0.33907 0.38318 0.25375 0.0
C2305 C 0.32266 0.41484 0.25574 0.0
C2306 C 0.26909 0.38512 0.25351 0.0
C2307 C 0.2856 0.35538 0.2436 0.0
N2308 N 0.33698 0.32627 0.23277 0.0
N2309 N 0.27053 0.44562 0.25433 0.0
C2310 C 0.32083 0.35423 0.24386 0.0
C2311 C 0.28719 0.41574 0.25552 0.0
N2312 N 0.37192 0.38063 0.26191 0.0
N2313 N 0.23577 0.38407 0.26026 0.0
H2314 H 0.2822 0.46885 0.25376 0.0
H2315 H 0.24496 0.44736 0.25051 0.0
H2316 H 0.22222 0.3618 0.25898 0.0
H2317 H 0.22266 0.40412 0.27053 0.0
H2318 H 0.38438 0.35776 0.26371 0.0
H2319 H 0.38561 0.40095 0.27059 0.0
H2320 H 0.36263 0.32523 0.22892 0.0
H2321 H 0.32434 0.30476 0.22546 0.0
C2322 C 0.14387 0.58798 0.97607 0.0
C2323 C 0.16439 0.59232 0.00436 0.0
C2324 C 0.12613 0.55881 0.03846 0.0
C2325 C 0.10599 0.55427 0.01011 0.0
N2326 N 0.0896 0.57278 0.95538 0.0
N2327 N 0.1697 0.59127 0.0643 0.0
C2328 C 0.11271 0.57194 0.98015 0.0
C2329 C 0.15385 0.58066 0.03622 0.0
N2330 N 0.15507 0.59667 0.94496 0.0
N2331 N 0.11916 0.54162 0.06717 0.0
H2332 H 0.18921 0.60847 0.06367 0.0
H2333 H 0.16135 0.58583 0.08832 0.0
H2334 H 0.0978 0.527 0.07004 0.0
H2335 H 0.13521 0.54065 0.08744 0.0
H2336 H 0.14254 0.59054 0.92319 0.0
H2337 H 0.17835 0.60721 0.94039 0.0
H2338 H 0.09174 0.58803 0.93434 0.0
H2339 H 0.06662 0.56098 0.95764 0.0
C2340 C 0.66438 0.88831 0.24698 0.0
C2341 C 0.6816 0.9133 0.26499 0.0
C2342 C 0.7222 0.87123 0.2842 0.0
C2343 C 0.7029 0.84581 0.26908 0.0
N2344 N 0.65405 0.82943 0.23816 0.0
N2345 N 0.72597 0.92948 0.30154 0.0
C2346 C 0.67374 0.85421 0.25081 0.0
C2347 C 0.7104 0.90504 0.28372 0.0
N2348 N 0.63886 0.89706 0.22619 0.0
N2349 N 0.75158 0.86295 0.29918 0.0
H2350 H 0.71892 0.95465 0.30038 0.0
H2351 H 0.74485 0.92488 0.3186 0.0
H2352 H 0.76001 0.83831 0.30135 0.0
H2353 H 0.76861 0.88042 0.30781 0.0
H2354 H 0.62878 0.88091 0.20866 0.0
H2355 H 0.62886 0.92112 0.22464 0.0
H2356 H 0.63015 0.83346 0.22909 0.0
H2357 H 0.66058 0.80418 0.23824 0.0
C2358 C 0.79466 0.09727 0.75454 0.0
C2359 C 0.82996 0.09564 0.75208 0.0
C2360 C 0.83345 0.15587 0.76479 0.0
C2361 C 0.79848 0.15697 0.76865 0.0
N2362 N 0.74533 0.13264 0.75707 0.0
N2363 N 0.88159 0.12537 0.74403 0.0
C2364 C 0.77899 0.1289 0.75983 0.0
C2365 C 0.84892 0.12569 0.75365 0.0
N2366 N 0.77618 0.06855 0.75454 0.0
N2367 N 0.85191 0.18317 0.77332 0.0
H2368 H 0.89323 0.10395 0.73466 0.0
H2369 H 0.89615 0.14685 0.7422 0.0
H2370 H 0.84093 0.20595 0.77996 0.0
H2371 H 0.87776 0.18293 0.77491 0.0
H2372 H 0.75086 0.06798 0.76017 0.0
H2373 H 0.78639 0.04476 0.75142 0.0
H2374 H 0.72973 0.11412 0.74782 0.0
H2375 H 0.73361 0.15573 0.76079 0.0
loop_
_geom_bond_atom_site_label_1
_geom_bond_atom_site_label_2
_geom_bond_distance
_geom_bond_site_symmetry_2
_ccdc_geom_bond_type
In0 O1 2.294 1_455 S
In0 O2 2.328 . S
In0 O6 2.266 . S
In0 O7 2.326 . S
In0 O8 2.266 . S
In0 O9 2.326 . S
In0 O11 2.294 1_455 S
In0 O12 2.326 1_455 S
O1 In0 2.294 1_655 S
O1 C10 1.240 . S
O2 In0 2.328 . S
O2 C10 1.251 1_455 S
C3 O6 1.252 . S
C3 O7 1.260 . S
C4 O11 1.240 . S
C4 O12 1.252 . S
C5 O8 1.252 . S
C5 O9 1.260 . S
O6 In0 2.266 . S
O6 C3 1.252 . S
O7 In0 2.326 . S
O7 C3 1.260 . S
O8 In0 2.266 . S
O8 C5 1.252 . S
O9 In0 2.326 . S
O9 C5 1.260 . S
C10 O1 1.240 . S
C10 O2 1.251 1_655 S
O11 In0 2.294 1_655 S
O11 C4 1.240 . S
O12 In0 2.326 1_655 S
O12 C4 1.252 . S
In13 O14 2.294 . S
In13 O15 2.326 . S
In13 O19 2.266 1_455 S
In13 O20 2.326 1_455 S
In13 O21 2.266 . S
In13 O22 2.326 . S
In13 O24 2.294 . S
In13 O25 2.326 . S
O14 In13 2.294 . S
O14 C23 1.240 . S
O15 In13 2.326 . S
O15 C23 1.252 . S
C16 O19 1.252 . S
C16 O20 1.260 . S
C17 O24 1.240 . S
C17 O25 1.252 . S
C18 O21 1.252 . S
C18 O22 1.260 . S
O19 In13 2.266 1_655 S
O19 C16 1.252 . S
O20 In13 2.326 1_655 S
O20 C16 1.260 . S
O21 In13 2.266 . S
O21 C18 1.252 . S
O22 In13 2.326 . S
O22 C18 1.260 . S
C23 O14 1.240 . S
C23 O15 1.252 . S
O24 In13 2.294 . S
O24 C17 1.240 . S
O25 In13 2.326 . S
O25 C17 1.252 . S
In26 O27 2.294 . S
In26 O28 2.326 . S
In26 O32 2.266 . S
In26 O33 2.326 . S
In26 O34 2.266 . S
In26 O35 2.326 . S
In26 O37 2.294 . S
In26 O38 2.326 . S
O27 In26 2.294 . S
O27 C36 1.240 . S
O28 In26 2.326 . S
O28 C36 1.252 . S
C29 O32 1.252 . S
C29 O33 1.260 . S
C30 O37 1.240 . S
C30 O38 1.252 . S
C31 O34 1.252 . S
C31 O35 1.260 . S
O32 In26 2.266 . S
O32 C29 1.252 . S
O33 In26 2.326 . S
O33 C29 1.260 . S
O34 In26 2.266 . S
O34 C31 1.252 . S
O35 In26 2.326 . S
O35 C31 1.260 . S
C36 O27 1.240 . S
C36 O28 1.252 . S
O37 In26 2.294 . S
O37 C30 1.240 . S
O38 In26 2.326 . S
O38 C30 1.252 . S
In39 O40 2.294 . S
In39 O41 2.326 . S
In39 O45 2.266 . S
In39 O46 2.326 . S
In39 O47 2.266 . S
In39 O48 2.326 . S
In39 O50 2.294 . S
In39 O51 2.326 . S
O40 In39 2.294 . S
O40 C49 1.240 . S
O41 In39 2.326 . S
O41 C49 1.252 . S
C42 O45 1.252 . S
C42 O46 1.260 . S
C43 O50 1.240 . S
C43 O51 1.252 . S
C44 O47 1.252 . S
C44 O48 1.260 . S
O45 In39 2.266 . S
O45 C42 1.252 . S
O46 In39 2.326 . S
O46 C42 1.260 . S
O47 In39 2.266 . S
O47 C44 1.252 . S
O48 In39 2.326 . S
O48 C44 1.260 . S
C49 O40 1.240 . S
C49 O41 1.252 . S
O50 In39 2.294 . S
O50 C43 1.240 . S
O51 In39 2.326 . S
O51 C43 1.252 . S
In52 O53 2.294 1_545 S
In52 O54 2.326 1_545 S
In52 O58 2.266 . S
In52 O59 2.326 . S
In52 O60 2.266 . S
In52 O61 2.326 . S
In52 O63 2.294 1_545 S
In52 O64 2.328 . S
O53 In52 2.294 1_565 S
O53 C62 1.240 . S
O54 In52 2.326 1_565 S
O54 C62 1.252 . S
C55 O58 1.252 . S
C55 O59 1.260 . S
C56 O63 1.240 . S
C56 O64 1.251 1_565 S
C57 O60 1.252 . S
C57 O61 1.260 . S
O58 In52 2.266 . S
O58 C55 1.252 . S
O59 In52 2.326 . S
O59 C55 1.260 . S
O60 In52 2.266 . S
O60 C57 1.252 . S
O61 In52 2.326 . S
O61 C57 1.260 . S
C62 O53 1.240 . S
C62 O54 1.252 . S
O63 In52 2.294 1_565 S
O63 C56 1.240 . S
O64 In52 2.328 . S
O64 C56 1.251 1_545 S
In65 O66 2.294 . S
In65 O67 2.326 . S
In65 O71 2.266 . S
In65 O72 2.326 . S
In65 O73 2.266 . S
In65 O74 2.326 . S
In65 O76 2.294 . S
In65 O77 2.326 . S
O66 In65 2.294 . S
O66 C75 1.240 . S
O67 In65 2.326 . S
O67 C75 1.252 . S
C68 O71 1.252 . S
C68 O72 1.260 . S
C69 O76 1.240 . S
C69 O77 1.252 . S
C70 O73 1.252 . S
C70 O74 1.260 . S
O71 In65 2.266 . S
O71 C68 1.252 . S
O72 In65 2.326 . S
O72 C68 1.260 . S
O73 In65 2.266 . S
O73 C70 1.252 . S
O74 In65 2.326 . S
O74 C70 1.260 . S
C75 O66 1.240 . S
C75 O67 1.252 . S
O76 In65 2.294 . S
O76 C69 1.240 . S
O77 In65 2.326 . S
O77 C69 1.252 . S
In78 O79 2.294 . S
In78 O80 2.326 . S
In78 O84 2.266 1_545 S
In78 O85 2.326 1_545 S
In78 O86 2.266 . S
In78 O87 2.326 . S
In78 O89 2.294 . S
In78 O90 2.326 . S
O79 In78 2.294 . S
O79 C88 1.240 . S
O80 In78 2.326 . S
O80 C88 1.252 . S
C81 O84 1.252 . S
C81 O85 1.260 . S
C82 O89 1.240 . S
C82 O90 1.252 . S
C83 O86 1.252 . S
C83 O87 1.260 . S
O84 In78 2.266 1_565 S
O84 C81 1.252 . S
O85 In78 2.326 1_565 S
O85 C81 1.260 . S
O86 In78 2.266 . S
O86 C83 1.252 . S
O87 In78 2.326 . S
O87 C83 1.260 . S
C88 O79 1.240 . S
C88 O80 1.252 . S
O89 In78 2.294 . S
O89 C82 1.240 . S
O90 In78 2.326 . S
O90 C82 1.252 . S
In91 O92 2.294 . S
In91 O93 2.326 . S
In91 O97 2.269 . S
In91 O98 2.326 . S
In91 O99 2.266 1_554 S
In91 O100 2.326 1_554 S
In91 O102 2.294 . S
In91 O103 2.326 . S
O92 In91 2.294 . S
O92 C101 1.240 . S
O93 In91 2.326 . S
O93 C101 1.252 . S
C94 O97 1.252 . S
C94 O98 1.260 . S
C95 O102 1.240 . S
C95 O103 1.252 . S
C96 O99 1.252 . S
C96 O100 1.260 . S
O97 In91 2.269 . S
O97 C94 1.252 . S
O98 In91 2.326 . S
O98 C94 1.260 . S
O99 In91 2.266 1_556 S
O99 C96 1.252 . S
O100 In91 2.326 1_556 S
O100 C96 1.260 . S
C101 O92 1.240 . S
C101 O93 1.252 . S
O102 In91 2.294 . S
O102 C95 1.240 . S
O103 In91 2.326 . S
O103 C95 1.252 . S
In104 O105 2.294 . S
In104 O106 2.326 . S
In104 O110 2.266 1_554 S
In104 O111 2.326 1_554 S
In104 O112 2.262 1_554 S
In104 O113 2.326 . S
In104 O115 2.294 . S
In104 O116 2.326 . S
O105 In104 2.294 . S
O105 C114 1.240 . S
O106 In104 2.326 . S
O106 C114 1.252 . S
C107 O110 1.252 . S
C107 O111 1.260 . S
C108 O115 1.240 . S
C108 O116 1.252 . S
C109 O112 1.252 . S
C109 O113 1.259 1_556 S
O110 In104 2.266 1_556 S
O110 C107 1.252 . S
O111 In104 2.326 1_556 S
O111 C107 1.260 . S
O112 In104 2.262 1_556 S
O112 C109 1.252 . S
O113 In104 2.326 . S
O113 C109 1.259 1_554 S
C114 O105 1.240 . S
C114 O106 1.252 . S
O115 In104 2.294 . S
O115 C108 1.240 . S
O116 In104 2.326 . S
O116 C108 1.252 . S
In117 O118 2.294 . S
In117 O119 2.326 . S
In117 O123 2.266 . S
In117 O124 2.326 . S
In117 O125 2.266 . S
In117 O126 2.326 . S
In117 O128 2.294 . S
In117 O129 2.326 . S
O118 In117 2.294 . S
O118 C127 1.240 . S
O119 In117 2.326 . S
O119 C127 1.252 . S
C120 O123 1.252 . S
C120 O124 1.260 . S
C121 O128 1.240 . S
C121 O129 1.252 . S
C122 O125 1.252 . S
C122 O126 1.260 . S
O123 In117 2.266 . S
O123 C120 1.252 . S
O124 In117 2.326 . S
O124 C120 1.260 . S
O125 In117 2.266 . S
O125 C122 1.252 . S
O126 In117 2.326 . S
O126 C122 1.260 . S
C127 O118 1.240 . S
C127 O119 1.252 . S
O128 In117 2.294 . S
O128 C121 1.240 . S
O129 In117 2.326 . S
O129 C121 1.252 . S
In130 O131 2.294 . S
In130 O132 2.326 . S
In130 O136 2.266 . S
In130 O137 2.326 . S
In130 O138 2.266 . S
In130 O139 2.326 . S
In130 O141 2.294 . S
In130 O142 2.326 . S
O131 In130 2.294 . S
O131 C140 1.240 . S
O132 In130 2.326 . S
O132 C140 1.252 . S
C133 O136 1.252 . S
C133 O137 1.260 . S
C134 O141 1.240 . S
C134 O142 1.252 . S
C135 O138 1.252 . S
C135 O139 1.260 . S
O136 In130 2.266 . S
O136 C133 1.252 . S
O137 In130 2.326 . S
O137 C133 1.260 . S
O138 In130 2.266 . S
O138 C135 1.252 . S
O139 In130 2.326 . S
O139 C135 1.260 . S
C140 O131 1.240 . S
C140 O132 1.252 . S
O141 In130 2.294 . S
O141 C134 1.240 . S
O142 In130 2.326 . S
O142 C134 1.252 . S
In143 O144 2.294 . S
In143 O145 2.326 . S
In143 O149 2.266 . S
In143 O150 2.326 . S
In143 O151 2.266 . S
In143 O152 2.326 . S
In143 O154 2.294 . S
In143 O155 2.326 . S
O144 In143 2.294 . S
O144 C153 1.240 . S
O145 In143 2.326 . S
O145 C153 1.252 . S
C146 O149 1.252 . S
C146 O150 1.260 . S
C147 O154 1.240 . S
C147 O155 1.252 . S
C148 O151 1.252 . S
C148 O152 1.260 . S
O149 In143 2.266 . S
O149 C146 1.252 . S
O150 In143 2.326 . S
O150 C146 1.260 . S
O151 In143 2.266 . S
O151 C148 1.252 . S
O152 In143 2.326 . S
O152 C148 1.260 . S
C153 O144 1.240 . S
C153 O145 1.252 . S
O154 In143 2.294 . S
O154 C147 1.240 . S
O155 In143 2.326 . S
O155 C147 1.252 . S
In156 O157 2.294 . S
In156 O158 2.326 . S
In156 O162 2.266 1_455 S
In156 O163 2.326 1_455 S
In156 O164 2.266 . S
In156 O165 2.326 . S
In156 O167 2.294 . S
In156 O168 2.326 . S
O157 In156 2.294 . S
O157 C166 1.240 . S
O158 In156 2.326 . S
O158 C166 1.252 . S
C159 O162 1.252 . S
C159 O163 1.260 . S
C160 O167 1.240 . S
C160 O168 1.252 . S
C161 O164 1.252 . S
C161 O165 1.260 . S
O162 In156 2.266 1_655 S
O162 C159 1.252 . S
O163 In156 2.326 1_655 S
O163 C159 1.260 . S
O164 In156 2.266 . S
O164 C161 1.252 . S
O165 In156 2.326 . S
O165 C161 1.260 . S
C166 O157 1.240 . S
C166 O158 1.252 . S
O167 In156 2.294 . S
O167 C160 1.240 . S
O168 In156 2.326 . S
O168 C160 1.252 . S
In169 O170 2.294 . S
In169 O171 2.326 . S
In169 O175 2.269 . S
In169 O176 2.326 . S
In169 O177 2.266 1_455 S
In169 O178 2.326 1_455 S
In169 O180 2.294 . S
In169 O181 2.326 . S
O170 In169 2.294 . S
O170 C179 1.240 . S
O171 In169 2.326 . S
O171 C179 1.252 . S
C172 O175 1.253 . S
C172 O176 1.260 . S
C173 O180 1.240 . S
C173 O181 1.252 . S
C174 O177 1.252 . S
C174 O178 1.260 . S
O175 In169 2.269 . S
O175 C172 1.253 . S
O176 In169 2.326 . S
O176 C172 1.260 . S
O177 In169 2.266 1_655 S
O177 C174 1.252 . S
O178 In169 2.326 1_655 S
O178 C174 1.260 . S
C179 O170 1.240 . S
C179 O171 1.252 . S
O180 In169 2.294 . S
O180 C173 1.240 . S
O181 In169 2.326 . S
O181 C173 1.252 . S
In182 O183 2.294 . S
In182 O184 2.326 . S
In182 O188 2.266 . S
In182 O189 2.326 . S
In182 O190 2.266 . S
In182 O191 2.326 . S
In182 O193 2.294 . S
In182 O194 2.326 . S
O183 In182 2.294 . S
O183 C192 1.240 . S
O184 In182 2.326 . S
O184 C192 1.252 . S
C185 O188 1.252 . S
C185 O189 1.260 . S
C186 O193 1.240 . S
C186 O194 1.252 . S
C187 O190 1.252 . S
C187 O191 1.260 . S
O188 In182 2.266 . S
O188 C185 1.252 . S
O189 In182 2.326 . S
O189 C185 1.260 . S
O190 In182 2.266 . S
O190 C187 1.252 . S
O191 In182 2.326 . S
O191 C187 1.260 . S
C192 O183 1.240 . S
C192 O184 1.252 . S
O193 In182 2.294 . S
O193 C186 1.240 . S
O194 In182 2.326 . S
O194 C186 1.252 . S
In195 O196 2.294 . S
In195 O197 2.326 . S
In195 O201 2.266 . S
In195 O202 2.326 . S
In195 O203 2.266 . S
In195 O204 2.326 . S
In195 O206 2.294 . S
In195 O207 2.326 . S
O196 In195 2.294 . S
O196 C205 1.240 . S
O197 In195 2.326 . S
O197 C205 1.252 . S
C198 O201 1.252 . S
C198 O202 1.260 . S
C199 O206 1.240 . S
C199 O207 1.252 . S
C200 O203 1.252 . S
C200 O204 1.260 . S
O201 In195 2.266 . S
O201 C198 1.252 . S
O202 In195 2.326 . S
O202 C198 1.260 . S
O203 In195 2.266 . S
O203 C200 1.252 . S
O204 In195 2.326 . S
O204 C200 1.260 . S
C205 O196 1.240 . S
C205 O197 1.252 . S
O206 In195 2.294 . S
O206 C199 1.240 . S
O207 In195 2.326 . S
O207 C199 1.252 . S
In208 O209 2.294 . S
In208 O210 2.326 . S
In208 O214 2.266 1_545 S
In208 O215 2.326 . S
In208 O216 2.266 1_545 S
In208 O217 2.326 1_545 S
In208 O219 2.294 . S
In208 O220 2.326 . S
O209 In208 2.294 . S
O209 C218 1.240 . S
O210 In208 2.326 . S
O210 C218 1.252 . S
C211 O214 1.252 . S
C211 O215 1.260 1_565 S
C212 O219 1.240 . S
C212 O220 1.252 . S
C213 O216 1.252 . S
C213 O217 1.260 . S
O214 In208 2.266 1_565 S
O214 C211 1.252 . S
O215 In208 2.326 . S
O215 C211 1.260 1_545 S
O216 In208 2.266 1_565 S
O216 C213 1.252 . S
O217 In208 2.326 1_565 S
O217 C213 1.260 . S
C218 O209 1.240 . S
C218 O210 1.252 . S
O219 In208 2.294 . S
O219 C212 1.240 . S
O220 In208 2.326 . S
O220 C212 1.252 . S
In221 O222 2.294 . S
In221 O223 2.326 . S
In221 O227 2.266 . S
In221 O228 2.326 . S
In221 O229 2.266 . S
In221 O230 2.326 . S
In221 O232 2.294 . S
In221 O233 2.326 . S
O222 In221 2.294 . S
O222 C231 1.240 . S
O223 In221 2.326 . S
O223 C231 1.252 . S
C224 O227 1.252 . S
C224 O228 1.260 . S
C225 O232 1.240 . S
C225 O233 1.252 . S
C226 O229 1.252 . S
C226 O230 1.260 . S
O227 In221 2.266 . S
O227 C224 1.252 . S
O228 In221 2.326 . S
O228 C224 1.260 . S
O229 In221 2.266 . S
O229 C226 1.252 . S
O230 In221 2.326 . S
O230 C226 1.260 . S
C231 O222 1.240 . S
C231 O223 1.252 . S
O232 In221 2.294 . S
O232 C225 1.240 . S
O233 In221 2.326 . S
O233 C225 1.252 . S
In234 O235 2.294 1_545 S
In234 O236 2.326 1_545 S
In234 O240 2.266 . S
In234 O241 2.326 . S
In234 O242 2.266 . S
In234 O243 2.326 . S
In234 O245 2.294 . S
In234 O246 2.326 . S
O235 In234 2.294 1_565 S
O235 C244 1.240 . S
O236 In234 2.326 1_565 S
O236 C244 1.252 . S
C237 O240 1.252 . S
C237 O241 1.260 . S
C238 O245 1.240 1_565 S
C238 O246 1.252 1_565 S
C239 O242 1.252 . S
C239 O243 1.260 . S
O240 In234 2.266 . S
O240 C237 1.252 . S
O241 In234 2.326 . S
O241 C237 1.260 . S
O242 In234 2.266 . S
O242 C239 1.252 . S
O243 In234 2.326 . S
O243 C239 1.260 . S
C244 O235 1.240 . S
C244 O236 1.252 . S
O245 In234 2.294 . S
O245 C238 1.240 1_545 S
O246 In234 2.326 . S
O246 C238 1.252 1_545 S
In247 O248 2.294 . S
In247 O249 2.326 . S
In247 O253 2.266 . S
In247 O254 2.326 . S
In247 O255 2.266 1_554 S
In247 O256 2.326 1_554 S
In247 O258 2.294 . S
In247 O259 2.326 . S
O248 In247 2.294 . S
O248 C257 1.240 . S
O249 In247 2.326 . S
O249 C257 1.252 . S
C250 O253 1.252 . S
C250 O254 1.260 . S
C251 O258 1.240 . S
C251 O259 1.252 . S
C252 O255 1.252 . S
C252 O256 1.260 . S
O253 In247 2.266 . S
O253 C250 1.252 . S
O254 In247 2.326 . S
O254 C250 1.260 . S
O255 In247 2.266 1_556 S
O255 C252 1.252 . S
O256 In247 2.326 1_556 S
O256 C252 1.260 . S
C257 O248 1.240 . S
C257 O249 1.252 . S
O258 In247 2.294 . S
O258 C251 1.240 . S
O259 In247 2.326 . S
O259 C251 1.252 . S
In260 O261 2.294 . S
In260 O262 2.326 . S
In260 O266 2.266 1_554 S
In260 O267 2.326 1_554 S
In260 O268 2.266 1_554 S
In260 O269 2.326 . S
In260 O271 2.294 . S
In260 O272 2.326 . S
O261 In260 2.294 . S
O261 C270 1.240 . S
O262 In260 2.326 . S
O262 C270 1.252 . S
C263 O266 1.252 . S
C263 O267 1.260 . S
C264 O271 1.240 . S
C264 O272 1.252 . S
C265 O268 1.252 . S
C265 O269 1.260 1_556 S
O266 In260 2.266 1_556 S
O266 C263 1.252 . S
O267 In260 2.326 1_556 S
O267 C263 1.260 . S
O268 In260 2.266 1_556 S
O268 C265 1.252 . S
O269 In260 2.326 . S
O269 C265 1.260 1_554 S
C270 O261 1.240 . S
C270 O262 1.252 . S
O271 In260 2.294 . S
O271 C264 1.240 . S
O272 In260 2.326 . S
O272 C264 1.252 . S
In273 O274 2.294 . S
In273 O275 2.326 . S
In273 O279 2.266 . S
In273 O280 2.326 . S
In273 O281 2.266 . S
In273 O282 2.326 . S
In273 O284 2.294 . S
In273 O285 2.326 . S
O274 In273 2.294 . S
O274 C283 1.240 . S
O275 In273 2.326 . S
O275 C283 1.252 . S
C276 O279 1.252 . S
C276 O280 1.260 . S
C277 O284 1.240 . S
C277 O285 1.252 . S
C278 O281 1.252 . S
C278 O282 1.260 . S
O279 In273 2.266 . S
O279 C276 1.252 . S
O280 In273 2.326 . S
O280 C276 1.260 . S
O281 In273 2.266 . S
O281 C278 1.252 . S
O282 In273 2.326 . S
O282 C278 1.260 . S
C283 O274 1.240 . S
C283 O275 1.252 . S
O284 In273 2.294 . S
O284 C277 1.240 . S
O285 In273 2.326 . S
O285 C277 1.252 . S
In286 O287 2.294 . S
In286 O288 2.326 . S
In286 O292 2.266 . S
In286 O293 2.326 . S
In286 O294 2.266 . S
In286 O295 2.326 . S
In286 O297 2.294 . S
In286 O298 2.326 . S
O287 In286 2.294 . S
O287 C296 1.240 . S
O288 In286 2.326 . S
O288 C296 1.252 . S
C289 O292 1.252 . S
C289 O293 1.260 . S
C290 O297 1.240 . S
C290 O298 1.252 . S
C291 O294 1.252 . S
C291 O295 1.260 . S
O292 In286 2.266 . S
O292 C289 1.252 . S
O293 In286 2.326 . S
O293 C289 1.260 . S
O294 In286 2.266 . S
O294 C291 1.252 . S
O295 In286 2.326 . S
O295 C291 1.260 . S
C296 O287 1.240 . S
C296 O288 1.252 . S
O297 In286 2.294 . S
O297 C290 1.240 . S
O298 In286 2.326 . S
O298 C290 1.252 . S
In299 O300 2.294 . S
In299 O301 2.326 . S
In299 O305 2.266 . S
In299 O306 2.326 . S
In299 O307 2.266 . S
In299 O308 2.326 . S
In299 O310 2.294 . S
In299 O311 2.326 . S
O300 In299 2.294 . S
O300 C309 1.240 . S
O301 In299 2.326 . S
O301 C309 1.252 . S
C302 O305 1.252 . S
C302 O306 1.260 . S
C303 O310 1.240 . S
C303 O311 1.252 . S
C304 O307 1.252 . S
C304 O308 1.260 . S
O305 In299 2.266 . S
O305 C302 1.252 . S
O306 In299 2.326 . S
O306 C302 1.260 . S
O307 In299 2.266 . S
O307 C304 1.252 . S
O308 In299 2.326 . S
O308 C304 1.260 . S
C309 O300 1.240 . S
C309 O301 1.252 . S
O310 In299 2.294 . S
O310 C303 1.240 . S
O311 In299 2.326 . S
O311 C303 1.252 . S
O312 Mn313 2.163 1_556 S
O312 C326 1.244 . S
Mn313 O312 2.163 1_554 S
Mn313 O316 2.160 1_445 S
Mn313 O317 2.221 1_455 S
Mn313 O319 2.163 1_454 S
Mn313 O321 2.160 1_545 S
Mn313 O331 2.221 1_544 S
O314 Mn315 2.087 1_556 S
O314 C326 1.256 1_565 S
Mn315 O314 2.087 1_554 S
Mn315 O322 2.089 . S
Mn315 O331 2.290 1_554 S
Mn315 O332 2.251 1_554 S
O316 Mn313 2.160 1_665 S
O316 C327 1.239 . S
O317 Mn313 2.221 1_655 S
O317 Mn318 2.290 1_554 S
O317 C328 1.278 . S
Mn318 O317 2.290 1_556 S
Mn318 O320 2.085 1_556 S
Mn318 O323 2.251 1_556 S
Mn318 O324 2.087 . S
O319 Mn313 2.163 1_656 S
O319 C329 1.244 . S
O320 Mn318 2.085 1_554 S
O320 C327 1.269 1_545 S
O321 Mn313 2.160 1_565 S
O321 C330 1.239 . S
O322 Mn315 2.089 . S
O322 C330 1.256 . S
O323 Mn318 2.251 1_554 S
O323 C328 1.241 . S
O324 Mn318 2.087 . S
O324 C329 1.256 . S
C325 O331 1.278 . S
C325 O332 1.241 . S
C326 O312 1.244 . S
C326 O314 1.256 1_545 S
C327 O316 1.239 . S
C327 O320 1.269 1_565 S
C328 O317 1.278 . S
C328 O323 1.241 . S
C329 O319 1.244 . S
C329 O324 1.256 . S
C330 O321 1.239 . S
C330 O322 1.256 . S
O331 Mn313 2.221 1_566 S
O331 Mn315 2.290 1_556 S
O331 C325 1.278 . S
O332 Mn315 2.251 1_556 S
O332 C325 1.241 . S
O333 Mn334 2.163 . S
O333 C347 1.244 . S
Mn334 O333 2.163 . S
Mn334 O337 2.160 . S
Mn334 O338 2.221 . S
Mn334 O340 2.163 . S
Mn334 O342 2.160 . S
Mn334 O352 2.221 . S
O335 Mn336 2.087 . S
O335 C347 1.256 . S
Mn336 O335 2.087 . S
Mn336 O343 2.089 . S
Mn336 O352 2.290 . S
Mn336 O353 2.251 . S
O337 Mn334 2.160 . S
O337 C348 1.239 . S
O338 Mn334 2.221 . S
O338 Mn339 2.290 . S
O338 C349 1.278 . S
Mn339 O338 2.290 . S
Mn339 O341 2.089 . S
Mn339 O344 2.251 . S
Mn339 O345 2.087 . S
O340 Mn334 2.163 . S
O340 C350 1.244 . S
O341 Mn339 2.089 . S
O341 C348 1.256 . S
O342 Mn334 2.160 . S
O342 C351 1.239 . S
O343 Mn336 2.089 . S
O343 C351 1.256 . S
O344 Mn339 2.251 . S
O344 C349 1.241 . S
O345 Mn339 2.087 . S
O345 C350 1.256 . S
C346 O352 1.278 . S
C346 O353 1.241 . S
C347 O333 1.244 . S
C347 O335 1.256 . S
C348 O337 1.239 . S
C348 O341 1.256 . S
C349 O338 1.278 . S
C349 O344 1.241 . S
C350 O340 1.244 . S
C350 O345 1.256 . S
C351 O342 1.239 . S
C351 O343 1.256 . S
O352 Mn334 2.221 . S
O352 Mn336 2.290 . S
O352 C346 1.278 . S
O353 Mn336 2.251 . S
O353 C346 1.241 . S
O354 Mn355 2.163 1_565 S
O354 C368 1.244 . S
Mn355 O354 2.163 1_545 S
Mn355 O358 2.160 . S
Mn355 O359 2.221 1_545 S
Mn355 O361 2.163 . S
Mn355 O363 2.160 . S
Mn355 O373 2.221 . S
O356 Mn357 2.087 . S
O356 C368 1.256 1_545 S
Mn357 O356 2.087 . S
Mn357 O364 2.089 . S
Mn357 O373 2.290 . S
Mn357 O374 2.251 . S
O358 Mn355 2.160 . S
O358 C369 1.239 . S
O359 Mn355 2.221 1_565 S
O359 Mn360 2.290 . S
O359 C370 1.278 . S
Mn360 O359 2.290 . S
Mn360 O362 2.089 1_565 S
Mn360 O365 2.251 . S
Mn360 O366 2.087 . S
O361 Mn355 2.163 . S
O361 C371 1.244 1_545 S
O362 Mn360 2.089 1_545 S
O362 C369 1.256 . S
O363 Mn355 2.160 . S
O363 C372 1.239 . S
O364 Mn357 2.089 . S
O364 C372 1.256 . S
O365 Mn360 2.251 . S
O365 C370 1.241 . S
O366 Mn360 2.087 . S
O366 C371 1.256 . S
C367 O373 1.278 . S
C367 O374 1.241 . S
C368 O354 1.244 . S
C368 O356 1.256 1_565 S
C369 O358 1.239 . S
C369 O362 1.256 . S
C370 O359 1.278 . S
C370 O365 1.241 . S
C371 O361 1.244 1_565 S
C371 O366 1.256 . S
C372 O363 1.239 . S
C372 O364 1.256 . S
O373 Mn355 2.221 . S
O373 Mn357 2.290 . S
O373 C367 1.278 . S
O374 Mn357 2.251 . S
O374 C367 1.241 . S
O375 Mn376 2.163 . S
O375 C389 1.244 . S
Mn376 O375 2.163 . S
Mn376 O379 2.160 . S
Mn376 O380 2.221 . S
Mn376 O382 2.163 . S
Mn376 O384 2.160 . S
Mn376 O394 2.221 . S
O377 Mn378 2.087 . S
O377 C389 1.256 . S
Mn378 O377 2.087 . S
Mn378 O385 2.089 . S
Mn378 O394 2.290 . S
Mn378 O395 2.251 . S
O379 Mn376 2.160 . S
O379 C390 1.239 . S
O380 Mn376 2.221 . S
O380 Mn381 2.290 . S
O380 C391 1.278 . S
Mn381 O380 2.290 . S
Mn381 O383 2.089 . S
Mn381 O386 2.251 . S
Mn381 O387 2.087 . S
O382 Mn376 2.163 . S
O382 C392 1.244 . S
O383 Mn381 2.089 . S
O383 C390 1.256 . S
O384 Mn376 2.160 . S
O384 C393 1.239 . S
O385 Mn378 2.089 . S
O385 C393 1.256 . S
O386 Mn381 2.251 . S
O386 C391 1.241 . S
O387 Mn381 2.087 . S
O387 C392 1.256 . S
C388 O394 1.278 . S
C388 O395 1.241 . S
C389 O375 1.244 . S
C389 O377 1.256 . S
C390 O379 1.239 . S
C390 O383 1.256 . S
C391 O380 1.278 . S
C391 O386 1.241 . S
C392 O382 1.244 . S
C392 O387 1.256 . S
C393 O384 1.239 . S
C393 O385 1.256 . S
O394 Mn376 2.221 . S
O394 Mn378 2.290 . S
O394 C388 1.278 . S
O395 Mn378 2.251 . S
O395 C388 1.241 . S
O396 Mn397 2.163 1_565 S
O396 C410 1.244 1_455 S
Mn397 O396 2.163 1_545 S
Mn397 O400 2.160 . S
Mn397 O401 2.221 . S
Mn397 O403 2.163 1_455 S
Mn397 O405 2.160 1_545 S
Mn397 O415 2.221 1_445 S
O398 Mn399 2.087 1_655 S
O398 C410 1.256 . S
Mn399 O398 2.087 1_455 S
Mn399 O406 2.089 . S
Mn399 O415 2.290 1_455 S
Mn399 O416 2.251 1_455 S
O400 Mn397 2.160 . S
O400 C411 1.239 . S
O401 Mn397 2.221 . S
O401 Mn402 2.290 1_455 S
O401 C412 1.278 . S
Mn402 O401 2.290 1_655 S
Mn402 O404 2.089 1_655 S
Mn402 O407 2.251 1_655 S
Mn402 O408 2.087 . S
O403 Mn397 2.163 1_655 S
O403 C413 1.244 . S
O404 Mn402 2.089 1_455 S
O404 C411 1.256 . S
O405 Mn397 2.160 1_565 S
O405 C414 1.239 . S
O406 Mn399 2.089 . S
O406 C414 1.256 . S
O407 Mn402 2.251 1_455 S
O407 C412 1.241 . S
O408 Mn402 2.087 . S
O408 C413 1.256 . S
C409 O415 1.278 . S
C409 O416 1.241 . S
C410 O396 1.244 1_655 S
C410 O398 1.256 . S
C411 O400 1.239 . S
C411 O404 1.256 . S
C412 O401 1.278 . S
C412 O407 1.241 . S
C413 O403 1.244 . S
C413 O408 1.256 . S
C414 O405 1.239 . S
C414 O406 1.256 . S
O415 Mn397 2.221 1_665 S
O415 Mn399 2.290 1_655 S
O415 C409 1.278 . S
O416 Mn399 2.251 1_655 S
O416 C409 1.241 . S
O417 Mn418 2.163 . S
O417 C431 1.244 . S
Mn418 O417 2.163 . S
Mn418 O421 2.160 . S
Mn418 O422 2.221 . S
Mn418 O424 2.163 . S
Mn418 O426 2.160 . S
Mn418 O436 2.221 . S
O419 Mn420 2.087 . S
O419 C431 1.256 . S
Mn420 O419 2.087 . S
Mn420 O427 2.089 . S
Mn420 O436 2.290 . S
Mn420 O437 2.251 . S
O421 Mn418 2.160 . S
O421 C432 1.239 . S
O422 Mn418 2.221 . S
O422 Mn423 2.290 . S
O422 C433 1.278 . S
Mn423 O422 2.290 . S
Mn423 O425 2.089 . S
Mn423 O428 2.251 . S
Mn423 O429 2.087 . S
O424 Mn418 2.163 . S
O424 C434 1.244 . S
O425 Mn423 2.089 . S
O425 C432 1.256 . S
O426 Mn418 2.160 . S
O426 C435 1.239 . S
O427 Mn420 2.089 . S
O427 C435 1.256 . S
O428 Mn423 2.251 . S
O428 C433 1.241 . S
O429 Mn423 2.087 . S
O429 C434 1.256 . S
C430 O436 1.278 . S
C430 O437 1.241 . S
C431 O417 1.244 . S
C431 O419 1.256 . S
C432 O421 1.239 . S
C432 O425 1.256 . S
C433 O422 1.278 . S
C433 O428 1.241 . S
C434 O424 1.244 . S
C434 O429 1.256 . S
C435 O426 1.239 . S
C435 O427 1.256 . S
O436 Mn418 2.221 . S
O436 Mn420 2.290 . S
O436 C430 1.278 . S
O437 Mn420 2.251 . S
O437 C430 1.241 . S
O438 Mn439 2.163 1_566 S
O438 C452 1.244 . S
Mn439 O438 2.163 1_544 S
Mn439 O442 2.160 . S
Mn439 O443 2.221 . S
Mn439 O445 2.163 1_545 S
Mn439 O447 2.153 1_554 S
Mn439 O457 2.221 1_544 S
O440 Mn441 2.087 1_565 S
O440 C452 1.256 . S
Mn441 O440 2.087 1_545 S
Mn441 O448 2.089 . S
Mn441 O457 2.290 1_545 S
Mn441 O458 2.251 1_545 S
O442 Mn439 2.160 . S
O442 C453 1.239 . S
O443 Mn439 2.221 . S
O443 Mn444 2.290 1_545 S
O443 C454 1.278 . S
Mn444 O443 2.290 1_565 S
Mn444 O446 2.088 1_565 S
Mn444 O449 2.251 1_565 S
Mn444 O450 2.087 . S
O445 Mn439 2.163 1_565 S
O445 C455 1.244 . S
O446 Mn444 2.088 1_545 S
O446 C453 1.257 . S
O447 Mn439 2.153 1_556 S
O447 C456 1.261 . S
O448 Mn441 2.089 . S
O448 C456 1.256 . S
O449 Mn444 2.251 1_545 S
O449 C454 1.241 . S
O450 Mn444 2.087 . S
O450 C455 1.256 . S
C451 O457 1.278 . S
C451 O458 1.241 . S
C452 O438 1.244 . S
C452 O440 1.256 . S
C453 O442 1.239 . S
C453 O446 1.257 . S
C454 O443 1.278 . S
C454 O449 1.241 . S
C455 O445 1.244 . S
C455 O450 1.256 . S
C456 O447 1.261 . S
C456 O448 1.256 . S
O457 Mn439 2.221 1_566 S
O457 Mn441 2.290 1_565 S
O457 C451 1.278 . S
O458 Mn441 2.251 1_565 S
O458 C451 1.241 . S
O459 Mn460 2.163 . S
O459 C473 1.244 . S
Mn460 O459 2.163 . S
Mn460 O463 2.160 . S
Mn460 O464 2.221 . S
Mn460 O466 2.163 . S
Mn460 O468 2.160 . S
Mn460 O478 2.221 . S
O461 Mn462 2.087 . S
O461 C473 1.256 . S
Mn462 O461 2.087 . S
Mn462 O469 2.089 . S
Mn462 O478 2.290 . S
Mn462 O479 2.251 . S
O463 Mn460 2.160 . S
O463 C474 1.239 . S
O464 Mn460 2.221 . S
O464 Mn465 2.290 . S
O464 C475 1.278 . S
Mn465 O464 2.290 . S
Mn465 O467 2.089 . S
Mn465 O470 2.251 . S
Mn465 O471 2.087 . S
O466 Mn460 2.163 . S
O466 C476 1.244 . S
O467 Mn465 2.089 . S
O467 C474 1.256 . S
O468 Mn460 2.160 . S
O468 C477 1.239 . S
O469 Mn462 2.089 . S
O469 C477 1.256 . S
O470 Mn465 2.251 . S
O470 C475 1.241 . S
O471 Mn465 2.087 . S
O471 C476 1.256 . S
C472 O478 1.278 . S
C472 O479 1.241 . S
C473 O459 1.244 . S
C473 O461 1.256 . S
C474 O463 1.239 . S
C474 O467 1.256 . S
C475 O464 1.278 . S
C475 O470 1.241 . S
C476 O466 1.244 . S
C476 O471 1.256 . S
C477 O468 1.239 . S
C477 O469 1.256 . S
O478 Mn460 2.221 . S
O478 Mn462 2.290 . S
O478 C472 1.278 . S
O479 Mn462 2.251 . S
O479 C472 1.241 . S
O480 Mn481 2.163 1_556 S
O480 C494 1.244 . S
Mn481 O480 2.163 1_554 S
Mn481 O484 2.160 . S
Mn481 O485 2.221 1_554 S
Mn481 O487 2.163 . S
Mn481 O489 2.160 . S
Mn481 O499 2.221 . S
O482 Mn483 2.087 . S
O482 C494 1.256 1_554 S
Mn483 O482 2.087 . S
Mn483 O490 2.089 . S
Mn483 O499 2.290 . S
Mn483 O500 2.251 . S
O484 Mn481 2.160 . S
O484 C495 1.239 . S
O485 Mn481 2.221 1_556 S
O485 Mn486 2.290 . S
O485 C496 1.278 . S
Mn486 O485 2.290 . S
Mn486 O488 2.089 1_556 S
Mn486 O491 2.251 . S
Mn486 O492 2.087 . S
O487 Mn481 2.163 . S
O487 C497 1.244 1_554 S
O488 Mn486 2.089 1_554 S
O488 C495 1.256 . S
O489 Mn481 2.160 . S
O489 C498 1.239 . S
O490 Mn483 2.089 . S
O490 C498 1.256 . S
O491 Mn486 2.251 . S
O491 C496 1.241 . S
O492 Mn486 2.087 . S
O492 C497 1.256 . S
C493 O499 1.278 . S
C493 O500 1.241 . S
C494 O480 1.244 . S
C494 O482 1.256 1_556 S
C495 O484 1.239 . S
C495 O488 1.256 . S
C496 O485 1.278 . S
C496 O491 1.241 . S
C497 O487 1.244 1_556 S
C497 O492 1.256 . S
C498 O489 1.239 . S
C498 O490 1.256 . S
O499 Mn481 2.221 . S
O499 Mn483 2.290 . S
O499 C493 1.278 . S
O500 Mn483 2.251 . S
O500 C493 1.241 . S
O501 Mn502 2.163 . S
O501 C515 1.244 . S
Mn502 O501 2.163 . S
Mn502 O505 2.160 . S
Mn502 O506 2.221 . S
Mn502 O508 2.163 . S
Mn502 O510 2.160 . S
Mn502 O520 2.221 . S
O503 Mn504 2.087 . S
O503 C515 1.256 . S
Mn504 O503 2.087 . S
Mn504 O511 2.089 . S
Mn504 O520 2.290 . S
Mn504 O521 2.251 . S
O505 Mn502 2.160 . S
O505 C516 1.239 . S
O506 Mn502 2.221 . S
O506 Mn507 2.290 . S
O506 C517 1.278 . S
Mn507 O506 2.290 . S
Mn507 O509 2.089 . S
Mn507 O512 2.251 . S
Mn507 O513 2.087 . S
O508 Mn502 2.163 . S
O508 C518 1.244 . S
O509 Mn507 2.089 . S
O509 C516 1.256 . S
O510 Mn502 2.160 . S
O510 C519 1.239 . S
O511 Mn504 2.089 . S
O511 C519 1.256 . S
O512 Mn507 2.251 . S
O512 C517 1.241 . S
O513 Mn507 2.087 . S
O513 C518 1.256 . S
C514 O520 1.278 . S
C514 O521 1.241 . S
C515 O501 1.244 . S
C515 O503 1.256 . S
C516 O505 1.239 . S
C516 O509 1.256 . S
C517 O506 1.278 . S
C517 O512 1.241 . S
C518 O508 1.244 . S
C518 O513 1.256 . S
C519 O510 1.239 . S
C519 O511 1.256 . S
O520 Mn502 2.221 . S
O520 Mn504 2.290 . S
O520 C514 1.278 . S
O521 Mn504 2.251 . S
O521 C514 1.241 . S
O522 Mn523 2.163 1_655 S
O522 C536 1.244 . S
Mn523 O522 2.163 1_455 S
Mn523 O526 2.160 . S
Mn523 O527 2.221 1_455 S
Mn523 O529 2.163 . S
Mn523 O531 2.160 . S
Mn523 O541 2.221 . S
O524 Mn525 2.087 . S
O524 C536 1.256 1_455 S
Mn525 O524 2.087 . S
Mn525 O532 2.089 . S
Mn525 O541 2.290 . S
Mn525 O542 2.251 . S
O526 Mn523 2.160 . S
O526 C537 1.239 . S
O527 Mn523 2.221 1_655 S
O527 Mn528 2.290 . S
O527 C538 1.278 . S
Mn528 O527 2.290 . S
Mn528 O530 2.089 1_655 S
Mn528 O533 2.251 . S
Mn528 O534 2.087 . S
O529 Mn523 2.163 . S
O529 C539 1.244 1_455 S
O530 Mn528 2.089 1_455 S
O530 C537 1.256 . S
O531 Mn523 2.160 . S
O531 C540 1.239 . S
O532 Mn525 2.089 . S
O532 C540 1.256 . S
O533 Mn528 2.251 . S
O533 C538 1.241 . S
O534 Mn528 2.087 . S
O534 C539 1.256 . S
C535 O541 1.278 . S
C535 O542 1.241 . S
C536 O522 1.244 . S
C536 O524 1.256 1_655 S
C537 O526 1.239 . S
C537 O530 1.256 . S
C538 O527 1.278 . S
C538 O533 1.241 . S
C539 O529 1.244 1_655 S
C539 O534 1.256 . S
C540 O531 1.239 . S
C540 O532 1.256 . S
O541 Mn523 2.221 . S
O541 Mn525 2.290 . S
O541 C535 1.278 . S
O542 Mn525 2.251 . S
O542 C535 1.241 . S
O543 Mn544 2.163 . S
O543 C557 1.244 . S
Mn544 O543 2.163 . S
Mn544 O547 2.160 . S
Mn544 O548 2.221 . S
Mn544 O550 2.163 . S
Mn544 O552 2.160 . S
Mn544 O562 2.221 . S
O545 Mn546 2.087 . S
O545 C557 1.256 . S
Mn546 O545 2.087 . S
Mn546 O553 2.089 . S
Mn546 O562 2.290 . S
Mn546 O563 2.251 . S
O547 Mn544 2.160 . S
O547 C558 1.239 . S
O548 Mn544 2.221 . S
O548 Mn549 2.290 . S
O548 C559 1.278 . S
Mn549 O548 2.290 . S
Mn549 O551 2.089 . S
Mn549 O554 2.251 . S
Mn549 O555 2.087 . S
O550 Mn544 2.163 . S
O550 C560 1.244 . S
O551 Mn549 2.089 . S
O551 C558 1.256 . S
O552 Mn544 2.160 . S
O552 C561 1.239 . S
O553 Mn546 2.089 . S
O553 C561 1.256 . S
O554 Mn549 2.251 . S
O554 C559 1.241 . S
O555 Mn549 2.087 . S
O555 C560 1.256 . S
C556 O562 1.278 . S
C556 O563 1.241 . S
C557 O543 1.244 . S
C557 O545 1.256 . S
C558 O547 1.239 . S
C558 O551 1.256 . S
C559 O548 1.278 . S
C559 O554 1.241 . S
C560 O550 1.244 . S
C560 O555 1.256 . S
C561 O552 1.239 . S
C561 O553 1.256 . S
O562 Mn544 2.221 . S
O562 Mn546 2.290 . S
O562 C556 1.278 . S
O563 Mn546 2.251 . S
O563 C556 1.241 . S
O564 Mn565 2.163 . S
O564 C578 1.244 . S
Mn565 O564 2.163 . S
Mn565 O568 2.160 . S
Mn565 O569 2.221 . S
Mn565 O571 2.163 . S
Mn565 O573 2.160 . S
Mn565 O583 2.221 . S
O566 Mn567 2.087 . S
O566 C578 1.256 . S
Mn567 O566 2.087 . S
Mn567 O574 2.089 . S
Mn567 O583 2.290 . S
Mn567 O584 2.251 . S
O568 Mn565 2.160 . S
O568 C579 1.239 . S
O569 Mn565 2.221 . S
O569 Mn570 2.290 . S
O569 C580 1.278 . S
Mn570 O569 2.290 . S
Mn570 O572 2.089 . S
Mn570 O575 2.251 . S
Mn570 O576 2.087 . S
O571 Mn565 2.163 . S
O571 C581 1.244 . S
O572 Mn570 2.089 . S
O572 C579 1.256 . S
O573 Mn565 2.160 . S
O573 C582 1.239 . S
O574 Mn567 2.089 . S
O574 C582 1.256 . S
O575 Mn570 2.251 . S
O575 C580 1.241 . S
O576 Mn570 2.087 . S
O576 C581 1.256 . S
C577 O583 1.278 . S
C577 O584 1.241 . S
C578 O564 1.244 . S
C578 O566 1.256 . S
C579 O568 1.239 . S
C579 O572 1.256 . S
C580 O569 1.278 . S
C580 O575 1.241 . S
C581 O571 1.244 . S
C581 O576 1.256 . S
C582 O573 1.239 . S
C582 O574 1.256 . S
O583 Mn565 2.221 . S
O583 Mn567 2.290 . S
O583 C577 1.278 . S
O584 Mn567 2.251 . S
O584 C577 1.241 . S
O585 Mn586 2.163 . S
O585 C599 1.244 . S
Mn586 O585 2.163 . S
Mn586 O589 2.160 . S
Mn586 O590 2.221 . S
Mn586 O592 2.163 . S
Mn586 O594 2.160 . S
Mn586 O604 2.221 . S
O587 Mn588 2.087 . S
O587 C599 1.256 . S
Mn588 O587 2.087 . S
Mn588 O595 2.089 . S
Mn588 O604 2.290 . S
Mn588 O605 2.251 . S
O589 Mn586 2.160 . S
O589 C600 1.239 . S
O590 Mn586 2.221 . S
O590 Mn591 2.290 . S
O590 C601 1.278 . S
Mn591 O590 2.290 . S
Mn591 O593 2.089 . S
Mn591 O596 2.251 . S
Mn591 O597 2.087 . S
O592 Mn586 2.163 . S
O592 C602 1.244 . S
O593 Mn591 2.089 . S
O593 C600 1.256 . S
O594 Mn586 2.160 . S
O594 C603 1.239 . S
O595 Mn588 2.089 . S
O595 C603 1.256 . S
O596 Mn591 2.251 . S
O596 C601 1.241 . S
O597 Mn591 2.087 . S
O597 C602 1.256 . S
C598 O604 1.278 . S
C598 O605 1.241 . S
C599 O585 1.244 . S
C599 O587 1.256 . S
C600 O589 1.239 . S
C600 O593 1.256 . S
C601 O590 1.278 . S
C601 O596 1.241 . S
C602 O592 1.244 . S
C602 O597 1.256 . S
C603 O594 1.239 . S
C603 O595 1.256 . S
O604 Mn586 2.221 . S
O604 Mn588 2.290 . S
O604 C598 1.278 . S
O605 Mn588 2.251 . S
O605 C598 1.241 . S
O606 Mn607 2.163 . S
O606 C620 1.244 . S
Mn607 O606 2.163 . S
Mn607 O610 2.160 . S
Mn607 O611 2.221 . S
Mn607 O613 2.163 . S
Mn607 O615 2.160 . S
Mn607 O625 2.221 . S
O608 Mn609 2.087 . S
O608 C620 1.256 . S
Mn609 O608 2.087 . S
Mn609 O616 2.089 . S
Mn609 O625 2.290 . S
Mn609 O626 2.251 . S
O610 Mn607 2.160 . S
O610 C621 1.239 . S
O611 Mn607 2.221 . S
O611 Mn612 2.290 . S
O611 C622 1.278 . S
Mn612 O611 2.290 . S
Mn612 O614 2.089 . S
Mn612 O617 2.251 . S
Mn612 O618 2.087 . S
O613 Mn607 2.163 . S
O613 C623 1.244 . S
O614 Mn612 2.089 . S
O614 C621 1.256 . S
O615 Mn607 2.160 . S
O615 C624 1.239 . S
O616 Mn609 2.089 . S
O616 C624 1.256 . S
O617 Mn612 2.251 . S
O617 C622 1.241 . S
O618 Mn612 2.087 . S
O618 C623 1.256 . S
C619 O625 1.278 . S
C619 O626 1.241 . S
C620 O606 1.244 . S
C620 O608 1.256 . S
C621 O610 1.239 . S
C621 O614 1.256 . S
C622 O611 1.278 . S
C622 O617 1.241 . S
C623 O613 1.244 . S
C623 O618 1.256 . S
C624 O615 1.239 . S
C624 O616 1.256 . S
O625 Mn607 2.221 . S
O625 Mn609 2.290 . S
O625 C619 1.278 . S
O626 Mn609 2.251 . S
O626 C619 1.241 . S
O627 Mn628 2.163 1_656 S
O627 C641 1.244 . S
Mn628 O627 2.163 1_454 S
Mn628 O631 2.160 . S
Mn628 O632 2.221 . S
Mn628 O634 2.163 1_554 S
Mn628 O636 2.163 . S
Mn628 O646 2.221 1_454 S
O629 Mn630 2.087 1_556 S
O629 C641 1.256 . S
Mn630 O629 2.087 1_554 S
Mn630 O637 2.089 . S
Mn630 O646 2.290 1_554 S
Mn630 O647 2.251 1_554 S
O631 Mn628 2.160 . S
O631 C642 1.239 . S
O632 Mn628 2.221 . S
O632 Mn633 2.290 1_554 S
O632 C643 1.278 . S
Mn633 O632 2.290 1_556 S
Mn633 O635 2.089 . S
Mn633 O638 2.251 1_556 S
Mn633 O639 2.087 . S
O634 Mn628 2.163 1_556 S
O634 C644 1.244 . S
O635 Mn633 2.089 . S
O635 C642 1.256 1_556 S
O636 Mn628 2.163 . S
O636 C645 1.228 1_455 S
O637 Mn630 2.089 . S
O637 C645 1.256 . S
O638 Mn633 2.251 1_554 S
O638 C643 1.241 . S
O639 Mn633 2.087 . S
O639 C644 1.256 . S
C640 O646 1.278 . S
C640 O647 1.241 . S
C641 O627 1.244 . S
C641 O629 1.256 . S
C642 O631 1.239 . S
C642 O635 1.256 1_554 S
C643 O632 1.278 . S
C643 O638 1.241 . S
C644 O634 1.244 . S
C644 O639 1.256 . S
C645 O636 1.228 1_655 S
C645 O637 1.256 . S
O646 Mn628 2.221 1_656 S
O646 Mn630 2.290 1_556 S
O646 C640 1.278 . S
O647 Mn630 2.251 1_556 S
O647 C640 1.241 . S
C648 C649 1.363 . S
C648 C654 1.379 . S
C648 N656 1.358 . S
C649 C648 1.363 . S
C649 C655 1.363 . S
C650 C651 1.363 . S
C650 C655 1.379 . S
C650 N657 1.356 1_554 S
C651 C650 1.363 . S
C651 C654 1.363 . S
N652 C654 1.356 . S
N652 H664 0.984 . S
N652 H665 0.985 . S
N653 C655 1.356 . S
N653 H658 0.984 . S
N653 H659 0.985 . S
C654 C648 1.379 . S
C654 C651 1.363 . S
C654 N652 1.356 . S
C655 C649 1.363 . S
C655 C650 1.379 . S
C655 N653 1.356 . S
N656 C648 1.358 . S
N656 H662 0.984 . S
N656 H663 0.984 . S
N657 C650 1.356 1_556 S
N657 H660 0.984 . S
N657 H661 0.985 . S
H658 N653 0.984 . S
H659 N653 0.985 . S
H660 N657 0.984 . S
H661 N657 0.985 . S
H662 N656 0.984 . S
H663 N656 0.984 . S
H664 N652 0.984 . S
H665 N652 0.985 . S
C666 C667 1.363 . S
C666 C672 1.379 . S
C666 N674 1.356 . S
C667 C666 1.363 . S
C667 C673 1.363 . S
C668 C669 1.363 . S
C668 C673 1.379 . S
C668 N675 1.356 . S
C669 C668 1.363 . S
C669 C672 1.363 . S
N670 C672 1.356 . S
N670 H682 0.984 . S
N670 H683 0.985 . S
N671 C673 1.356 . S
N671 H676 0.984 . S
N671 H677 0.985 . S
C672 C666 1.379 . S
C672 C669 1.363 . S
C672 N670 1.356 . S
C673 C667 1.363 . S
C673 C668 1.379 . S
C673 N671 1.356 . S
N674 C666 1.356 . S
N674 H680 0.984 . S
N674 H681 0.984 . S
N675 C668 1.356 . S
N675 H678 0.984 . S
N675 H679 0.985 . S
H676 N671 0.984 . S
H677 N671 0.985 . S
H678 N675 0.984 . S
H679 N675 0.985 . S
H680 N674 0.984 . S
H681 N674 0.984 . S
H682 N670 0.984 . S
H683 N670 0.985 . S
C684 C685 1.363 . S
C684 C690 1.379 . S
C684 N692 1.356 . S
C685 C684 1.363 . S
C685 C691 1.363 . S
C686 C687 1.363 . S
C686 C691 1.379 . S
C686 N693 1.356 . S
C687 C686 1.363 . S
C687 C690 1.363 . S
N688 C690 1.356 . S
N688 H700 0.984 . S
N688 H701 0.985 . S
N689 C691 1.356 . S
N689 H694 0.984 . S
N689 H695 0.985 . S
C690 C684 1.379 . S
C690 C687 1.363 . S
C690 N688 1.356 . S
C691 C685 1.363 . S
C691 C686 1.379 . S
C691 N689 1.356 . S
N692 C684 1.356 . S
N692 H698 0.984 . S
N692 H699 0.984 . S
N693 C686 1.356 . S
N693 H696 0.984 . S
N693 H697 0.985 . S
H694 N689 0.984 . S
H695 N689 0.985 . S
H696 N693 0.984 . S
H697 N693 0.985 . S
H698 N692 0.984 . S
H699 N692 0.984 . S
H700 N688 0.984 . S
H701 N688 0.985 . S
C702 C703 1.363 . S
C702 C708 1.379 . S
C702 N710 1.356 . S
C703 C702 1.363 . S
C703 C709 1.363 . S
C704 C705 1.363 . S
C704 C709 1.379 . S
C704 N711 1.356 . S
C705 C704 1.363 . S
C705 C708 1.363 . S
N706 C708 1.356 . S
N706 H718 0.984 . S
N706 H719 0.985 . S
N707 C709 1.356 . S
N707 H712 0.984 . S
N707 H713 0.985 . S
C708 C702 1.379 . S
C708 C705 1.363 . S
C708 N706 1.356 . S
C709 C703 1.363 . S
C709 C704 1.379 . S
C709 N707 1.356 . S
N710 C702 1.356 . S
N710 H716 0.984 . S
N710 H717 0.984 . S
N711 C704 1.356 . S
N711 H714 0.984 . S
N711 H715 0.985 . S
H712 N707 0.984 . S
H713 N707 0.985 . S
H714 N711 0.984 . S
H715 N711 0.985 . S
H716 N710 0.984 . S
H717 N710 0.984 . S
H718 N706 0.984 . S
H719 N706 0.985 . S
C720 C721 1.364 1_455 S
C720 C726 1.379 . S
C720 N728 1.356 . S
C721 C720 1.364 1_655 S
C721 C727 1.362 . S
C722 C723 1.363 . S
C722 C727 1.379 . S
C722 N729 1.356 . S
C723 C722 1.363 . S
C723 C726 1.363 1_655 S
N724 C726 1.356 . S
N724 H736 0.984 . S
N724 H737 0.985 . S
N725 C727 1.356 . S
N725 H730 0.984 . S
N725 H731 0.985 . S
C726 C720 1.379 . S
C726 C723 1.363 1_455 S
C726 N724 1.356 . S
C727 C721 1.362 . S
C727 C722 1.379 . S
C727 N725 1.356 . S
N728 C720 1.356 . S
N728 H734 0.984 . S
N728 H735 0.984 . S
N729 C722 1.356 . S
N729 H732 0.984 . S
N729 H733 0.985 . S
H730 N725 0.984 . S
H731 N725 0.985 . S
H732 N729 0.984 . S
H733 N729 0.985 . S
H734 N728 0.984 . S
H735 N728 0.984 . S
H736 N724 0.984 . S
H737 N724 0.985 . S
C738 C739 1.363 . S
C738 C744 1.379 . S
C738 N746 1.356 . S
C739 C738 1.363 . S
C739 C745 1.363 . S
C740 C741 1.363 . S
C740 C745 1.379 . S
C740 N747 1.356 . S
C741 C740 1.363 . S
C741 C744 1.363 . S
N742 C744 1.356 . S
N742 H754 0.984 . S
N742 H755 0.985 . S
N743 C745 1.356 . S
N743 H748 0.984 . S
N743 H749 0.985 . S
C744 C738 1.379 . S
C744 C741 1.363 . S
C744 N742 1.356 . S
C745 C739 1.363 . S
C745 C740 1.379 . S
C745 N743 1.356 . S
N746 C738 1.356 . S
N746 H752 0.984 . S
N746 H753 0.984 . S
N747 C740 1.356 . S
N747 H750 0.984 . S
N747 H751 0.985 . S
H748 N743 0.984 . S
H749 N743 0.985 . S
H750 N747 0.984 . S
H751 N747 0.985 . S
H752 N746 0.984 . S
H753 N746 0.984 . S
H754 N742 0.984 . S
H755 N742 0.985 . S
C756 C757 1.363 . S
C756 C762 1.379 . S
C756 N764 1.356 . S
C757 C756 1.363 . S
C757 C763 1.363 . S
C758 C759 1.363 . S
C758 C763 1.379 . S
C758 N765 1.356 . S
C759 C758 1.363 . S
C759 C762 1.363 . S
N760 C762 1.356 . S
N760 H772 0.984 . S
N760 H773 0.985 . S
N761 C763 1.356 . S
N761 H766 0.984 . S
N761 H767 0.985 . S
C762 C756 1.379 . S
C762 C759 1.363 . S
C762 N760 1.356 . S
C763 C757 1.363 . S
C763 C758 1.379 . S
C763 N761 1.356 . S
N764 C756 1.356 . S
N764 H770 0.984 . S
N764 H771 0.984 . S
N765 C758 1.356 . S
N765 H768 0.984 . S
N765 H769 0.985 . S
H766 N761 0.984 . S
H767 N761 0.985 . S
H768 N765 0.984 . S
H769 N765 0.985 . S
H770 N764 0.984 . S
H771 N764 0.984 . S
H772 N760 0.984 . S
H773 N760 0.985 . S
C774 C775 1.363 . S
C774 C780 1.379 . S
C774 N782 1.356 . S
C775 C774 1.363 . S
C775 C781 1.363 . S
C776 C777 1.363 . S
C776 C781 1.379 . S
C776 N783 1.356 . S
C777 C776 1.363 . S
C777 C780 1.363 . S
N778 C780 1.356 . S
N778 H790 0.984 . S
N778 H791 0.985 . S
N779 C781 1.356 . S
N779 H784 0.984 . S
N779 H785 0.985 . S
C780 C774 1.379 . S
C780 C777 1.363 . S
C780 N778 1.356 . S
C781 C775 1.363 . S
C781 C776 1.379 . S
C781 N779 1.356 . S
N782 C774 1.356 . S
N782 H788 0.984 . S
N782 H789 0.984 . S
N783 C776 1.356 . S
N783 H786 0.984 . S
N783 H787 0.985 . S
H784 N779 0.984 . S
H785 N779 0.985 . S
H786 N783 0.984 . S
H787 N783 0.985 . S
H788 N782 0.984 . S
H789 N782 0.984 . S
H790 N778 0.984 . S
H791 N778 0.985 . S
C792 C793 1.363 1_545 S
C792 C798 1.379 . S
C792 N800 1.356 . S
C793 C792 1.363 1_565 S
C793 C799 1.363 . S
C794 C795 1.363 . S
C794 C799 1.379 . S
C794 N801 1.356 . S
C795 C794 1.363 . S
C795 C798 1.363 1_565 S
N796 C798 1.356 . S
N796 H808 0.984 . S
N796 H809 0.985 . S
N797 C799 1.356 . S
N797 H802 0.984 . S
N797 H803 0.985 . S
C798 C792 1.379 . S
C798 C795 1.363 1_545 S
C798 N796 1.356 . S
C799 C793 1.363 . S
C799 C794 1.379 . S
C799 N797 1.356 . S
N800 C792 1.356 . S
N800 H806 0.984 . S
N800 H807 0.984 . S
N801 C794 1.356 . S
N801 H804 0.984 . S
N801 H805 0.985 . S
H802 N797 0.984 . S
H803 N797 0.985 . S
H804 N801 0.984 . S
H805 N801 0.985 . S
H806 N800 0.984 . S
H807 N800 0.984 . S
H808 N796 0.984 . S
H809 N796 0.985 . S
C810 C811 1.363 . S
C810 C816 1.379 . S
C810 N818 1.356 . S
C811 C810 1.363 . S
C811 C817 1.363 . S
C812 C813 1.363 . S
C812 C817 1.379 . S
C812 N819 1.356 . S
C813 C812 1.363 . S
C813 C816 1.363 . S
N814 C816 1.356 . S
N814 H826 0.984 . S
N814 H827 0.985 . S
N815 C817 1.356 . S
N815 H820 0.984 . S
N815 H821 0.985 . S
C816 C810 1.379 . S
C816 C813 1.363 . S
C816 N814 1.356 . S
C817 C811 1.363 . S
C817 C812 1.379 . S
C817 N815 1.356 . S
N818 C810 1.356 . S
N818 H824 0.984 . S
N818 H825 0.984 . S
N819 C812 1.356 . S
N819 H822 0.984 . S
N819 H823 0.985 . S
H820 N815 0.984 . S
H821 N815 0.985 . S
H822 N819 0.984 . S
H823 N819 0.985 . S
H824 N818 0.984 . S
H825 N818 0.984 . S
H826 N814 0.984 . S
H827 N814 0.985 . S
C828 C829 1.363 1_565 S
C828 C834 1.379 . S
C828 N836 1.356 . S
C829 C828 1.363 1_545 S
C829 C835 1.363 . S
C830 C831 1.363 . S
C830 C835 1.379 . S
C830 N837 1.356 . S
C831 C830 1.363 . S
C831 C834 1.360 1_545 S
N832 C834 1.358 . S
N832 H844 0.984 . S
N832 H845 0.985 . S
N833 C835 1.356 . S
N833 H838 0.984 . S
N833 H839 0.985 . S
C834 C828 1.379 . S
C834 C831 1.360 1_565 S
C834 N832 1.358 . S
C835 C829 1.363 . S
C835 C830 1.379 . S
C835 N833 1.356 . S
N836 C828 1.356 . S
N836 H842 0.984 . S
N836 H843 0.984 . S
N837 C830 1.356 . S
N837 H840 0.984 . S
N837 H841 0.985 . S
H838 N833 0.984 . S
H839 N833 0.985 . S
H840 N837 0.984 . S
H841 N837 0.985 . S
H842 N836 0.984 . S
H843 N836 0.984 . S
H844 N832 0.984 . S
H845 N832 0.985 . S
C846 C847 1.363 . S
C846 C852 1.379 . S
C846 N854 1.356 . S
C847 C846 1.363 . S
C847 C853 1.363 . S
C848 C849 1.363 . S
C848 C853 1.379 . S
C848 N855 1.356 . S
C849 C848 1.363 . S
C849 C852 1.363 . S
N850 C852 1.356 . S
N850 H862 0.984 . S
N850 H863 0.985 . S
N851 C853 1.356 . S
N851 H856 0.984 . S
N851 H857 0.985 . S
C852 C846 1.379 . S
C852 C849 1.363 . S
C852 N850 1.356 . S
C853 C847 1.363 . S
C853 C848 1.379 . S
C853 N851 1.356 . S
N854 C846 1.356 . S
N854 H860 0.984 . S
N854 H861 0.984 . S
N855 C848 1.356 . S
N855 H858 0.984 . S
N855 H859 0.985 . S
H856 N851 0.984 . S
H857 N851 0.985 . S
H858 N855 0.984 . S
H859 N855 0.985 . S
H860 N854 0.984 . S
H861 N854 0.984 . S
H862 N850 0.984 . S
H863 N850 0.985 . S
C864 C865 1.363 1_565 S
C864 C870 1.379 . S
C864 N872 1.356 . S
C865 C864 1.363 1_545 S
C865 C871 1.363 . S
C866 C867 1.363 . S
C866 C871 1.379 . S
C866 N873 1.356 . S
C867 C866 1.363 . S
C867 C870 1.363 1_545 S
N868 C870 1.356 . S
N868 H880 0.984 . S
N868 H881 0.985 . S
N869 C871 1.356 . S
N869 H874 0.984 . S
N869 H875 0.985 . S
C870 C864 1.379 . S
C870 C867 1.363 1_565 S
C870 N868 1.356 . S
C871 C865 1.363 . S
C871 C866 1.379 . S
C871 N869 1.356 . S
N872 C864 1.356 . S
N872 H878 0.984 . S
N872 H879 0.984 . S
N873 C866 1.356 . S
N873 H876 0.984 . S
N873 H877 0.985 . S
H874 N869 0.984 . S
H875 N869 0.985 . S
H876 N873 0.984 . S
H877 N873 0.985 . S
H878 N872 0.984 . S
H879 N872 0.984 . S
H880 N868 0.984 . S
H881 N868 0.985 . S
C882 C883 1.363 . S
C882 C888 1.379 . S
C882 N890 1.356 . S
C883 C882 1.363 . S
C883 C889 1.363 . S
C884 C885 1.363 . S
C884 C889 1.379 . S
C884 N891 1.356 . S
C885 C884 1.363 . S
C885 C888 1.363 . S
N886 C888 1.356 . S
N886 H898 0.984 . S
N886 H899 0.985 . S
N887 C889 1.356 . S
N887 H892 0.984 . S
N887 H893 0.985 . S
C888 C882 1.379 . S
C888 C885 1.363 . S
C888 N886 1.356 . S
C889 C883 1.363 . S
C889 C884 1.379 . S
C889 N887 1.356 . S
N890 C882 1.356 . S
N890 H896 0.984 . S
N890 H897 0.984 . S
N891 C884 1.356 . S
N891 H894 0.984 . S
N891 H895 0.985 . S
H892 N887 0.984 . S
H893 N887 0.985 . S
H894 N891 0.984 . S
H895 N891 0.985 . S
H896 N890 0.984 . S
H897 N890 0.984 . S
H898 N886 0.984 . S
H899 N886 0.985 . S
C900 C901 1.363 1_545 S
C900 C906 1.379 . S
C900 N908 1.356 . S
C901 C900 1.363 1_565 S
C901 C907 1.363 . S
C902 C903 1.363 . S
C902 C907 1.379 . S
C902 N909 1.356 . S
C903 C902 1.363 . S
C903 C906 1.363 1_565 S
N904 C906 1.356 . S
N904 H916 0.984 . S
N904 H917 0.985 . S
N905 C907 1.356 . S
N905 H910 0.984 . S
N905 H911 0.985 . S
C906 C900 1.379 . S
C906 C903 1.363 1_545 S
C906 N904 1.356 . S
C907 C901 1.363 . S
C907 C902 1.379 . S
C907 N905 1.356 . S
N908 C900 1.356 . S
N908 H914 0.984 . S
N908 H915 0.984 . S
N909 C902 1.356 . S
N909 H912 0.984 . S
N909 H913 0.985 . S
H910 N905 0.984 . S
H911 N905 0.985 . S
H912 N909 0.984 . S
H913 N909 0.985 . S
H914 N908 0.984 . S
H915 N908 0.984 . S
H916 N904 0.984 . S
H917 N904 0.985 . S
C918 C919 1.363 . S
C918 C924 1.379 . S
C918 N926 1.356 . S
C919 C918 1.363 . S
C919 C925 1.363 . S
C920 C921 1.363 . S
C920 C925 1.379 . S
C920 N927 1.356 . S
C921 C920 1.363 . S
C921 C924 1.363 . S
N922 C924 1.356 . S
N922 H934 0.984 . S
N922 H935 0.985 . S
N923 C925 1.356 . S
N923 H928 0.984 . S
N923 H929 0.985 . S
C924 C918 1.379 . S
C924 C921 1.363 . S
C924 N922 1.356 . S
C925 C919 1.363 . S
C925 C920 1.379 . S
C925 N923 1.356 . S
N926 C918 1.356 . S
N926 H932 0.984 . S
N926 H933 0.984 . S
N927 C920 1.356 . S
N927 H930 0.984 . S
N927 H931 0.985 . S
H928 N923 0.984 . S
H929 N923 0.985 . S
H930 N927 0.984 . S
H931 N927 0.985 . S
H932 N926 0.984 . S
H933 N926 0.984 . S
H934 N922 0.984 . S
H935 N922 0.985 . S
C936 C937 1.363 1_554 S
C936 C942 1.379 . S
C936 N944 1.356 . S
C937 C936 1.363 1_556 S
C937 C943 1.363 . S
C938 C939 1.363 . S
C938 C943 1.379 . S
C938 N945 1.356 . S
C939 C938 1.363 . S
C939 C942 1.363 1_556 S
N940 C942 1.356 . S
N940 H952 0.984 . S
N940 H953 0.985 . S
N941 C943 1.356 . S
N941 H946 0.984 . S
N941 H947 0.985 . S
C942 C936 1.379 . S
C942 C939 1.363 1_554 S
C942 N940 1.356 . S
C943 C937 1.363 . S
C943 C938 1.379 . S
C943 N941 1.356 . S
N944 C936 1.356 . S
N944 H950 0.984 . S
N944 H951 0.984 . S
N945 C938 1.356 . S
N945 H948 0.984 . S
N945 H949 0.985 . S
H946 N941 0.984 . S
H947 N941 0.985 . S
H948 N945 0.984 . S
H949 N945 0.985 . S
H950 N944 0.984 . S
H951 N944 0.984 . S
H952 N940 0.984 . S
H953 N940 0.985 . S
C954 C955 1.363 1_556 S
C954 C960 1.377 1_556 S
C954 N962 1.356 . S
C955 C954 1.363 1_554 S
C955 C961 1.363 . S
C956 C957 1.363 . S
C956 C961 1.379 . S
C956 N963 1.356 . S
C957 C956 1.363 . S
C957 C960 1.374 . S
N958 C960 1.349 1_556 S
N958 H970 0.984 . S
N958 H971 0.985 . S
N959 C961 1.356 . S
N959 H964 0.984 . S
N959 H965 0.985 . S
C960 C954 1.377 1_554 S
C960 C957 1.374 . S
C960 N958 1.349 1_554 S
C961 C955 1.363 . S
C961 C956 1.379 . S
C961 N959 1.356 . S
N962 C954 1.356 . S
N962 H968 0.984 . S
N962 H969 0.984 . S
N963 C956 1.356 . S
N963 H966 0.984 . S
N963 H967 0.985 . S
H964 N959 0.984 . S
H965 N959 0.985 . S
H966 N963 0.984 . S
H967 N963 0.985 . S
H968 N962 0.984 . S
H969 N962 0.984 . S
H970 N958 0.984 . S
H971 N958 0.985 . S
C972 C973 1.363 . S
C972 C978 1.379 . S
C972 N980 1.356 . S
C973 C972 1.363 . S
C973 C979 1.363 . S
C974 C975 1.363 . S
C974 C979 1.379 . S
C974 N981 1.356 . S
C975 C974 1.363 . S
C975 C978 1.363 . S
N976 C978 1.356 . S
N976 H988 0.984 . S
N976 H989 0.985 . S
N977 C979 1.356 . S
N977 H982 0.984 . S
N977 H983 0.985 . S
C978 C972 1.379 . S
C978 C975 1.363 . S
C978 N976 1.356 . S
C979 C973 1.363 . S
C979 C974 1.379 . S
C979 N977 1.356 . S
N980 C972 1.356 . S
N980 H986 0.984 . S
N980 H987 0.984 . S
N981 C974 1.356 . S
N981 H984 0.984 . S
N981 H985 0.985 . S
H982 N977 0.984 . S
H983 N977 0.985 . S
H984 N981 0.984 . S
H985 N981 0.985 . S
H986 N980 0.984 . S
H987 N980 0.984 . S
H988 N976 0.984 . S
H989 N976 0.985 . S
C990 C991 1.363 . S
C990 C996 1.379 . S
C990 N998 1.356 . S
C991 C990 1.363 . S
C991 C997 1.363 . S
C992 C993 1.363 . S
C992 C997 1.379 . S
C992 N999 1.356 . S
C993 C992 1.363 . S
C993 C996 1.363 . S
N994 C996 1.356 . S
N994 H1006 0.984 . S
N994 H1007 0.985 . S
N995 C997 1.356 . S
N995 H1000 0.984 . S
N995 H1001 0.985 . S
C996 C990 1.379 . S
C996 C993 1.363 . S
C996 N994 1.356 . S
C997 C991 1.363 . S
C997 C992 1.379 . S
C997 N995 1.356 . S
N998 C990 1.356 . S
N998 H1004 0.984 . S
N998 H1005 0.984 . S
N999 C992 1.356 . S
N999 H1002 0.984 . S
N999 H1003 0.985 . S
H1000 N995 0.984 . S
H1001 N995 0.985 . S
H1002 N999 0.984 . S
H1003 N999 0.985 . S
H1004 N998 0.984 . S
H1005 N998 0.984 . S
H1006 N994 0.984 . S
H1007 N994 0.985 . S
C1008 C1009 1.363 . S
C1008 C1014 1.379 . S
C1008 N1016 1.356 . S
C1009 C1008 1.363 . S
C1009 C1015 1.363 . S
C1010 C1011 1.363 . S
C1010 C1015 1.379 . S
C1010 N1017 1.356 . S
C1011 C1010 1.363 . S
C1011 C1014 1.363 . S
N1012 C1014 1.356 . S
N1012 H1024 0.984 . S
N1012 H1025 0.985 . S
N1013 C1015 1.356 . S
N1013 H1018 0.984 . S
N1013 H1019 0.985 . S
C1014 C1008 1.379 . S
C1014 C1011 1.363 . S
C1014 N1012 1.356 . S
C1015 C1009 1.363 . S
C1015 C1010 1.379 . S
C1015 N1013 1.356 . S
N1016 C1008 1.356 . S
N1016 H1022 0.984 . S
N1016 H1023 0.984 . S
N1017 C1010 1.356 . S
N1017 H1020 0.984 . S
N1017 H1021 0.985 . S
H1018 N1013 0.984 . S
H1019 N1013 0.985 . S
H1020 N1017 0.984 . S
H1021 N1017 0.985 . S
H1022 N1016 0.984 . S
H1023 N1016 0.984 . S
H1024 N1012 0.984 . S
H1025 N1012 0.985 . S
C1026 C1027 1.363 . S
C1026 C1032 1.379 . S
C1026 N1034 1.356 . S
C1027 C1026 1.363 . S
C1027 C1033 1.363 . S
C1028 C1029 1.363 . S
C1028 C1033 1.379 . S
C1028 N1035 1.356 . S
C1029 C1028 1.363 . S
C1029 C1032 1.363 . S
N1030 C1032 1.356 . S
N1030 H1042 0.984 . S
N1030 H1043 0.985 . S
N1031 C1033 1.356 . S
N1031 H1036 0.984 . S
N1031 H1037 0.985 . S
C1032 C1026 1.379 . S
C1032 C1029 1.363 . S
C1032 N1030 1.356 . S
C1033 C1027 1.363 . S
C1033 C1028 1.379 . S
C1033 N1031 1.356 . S
N1034 C1026 1.356 . S
N1034 H1040 0.984 . S
N1034 H1041 0.984 . S
N1035 C1028 1.356 . S
N1035 H1038 0.984 1_565 S
N1035 H1039 0.985 1_565 S
H1036 N1031 0.984 . S
H1037 N1031 0.985 . S
H1038 N1035 0.984 1_545 S
H1039 N1035 0.985 1_545 S
H1040 N1034 0.984 . S
H1041 N1034 0.984 . S
H1042 N1030 0.984 . S
H1043 N1030 0.985 . S
C1044 C1045 1.363 . S
C1044 C1050 1.379 . S
C1044 N1052 1.356 . S
C1045 C1044 1.363 . S
C1045 C1051 1.363 . S
C1046 C1047 1.363 . S
C1046 C1051 1.379 . S
C1046 N1053 1.356 . S
C1047 C1046 1.363 . S
C1047 C1050 1.363 . S
N1048 C1050 1.356 . S
N1048 H1060 0.984 . S
N1048 H1061 0.985 . S
N1049 C1051 1.356 . S
N1049 H1054 0.984 . S
N1049 H1055 0.985 . S
C1050 C1044 1.379 . S
C1050 C1047 1.363 . S
C1050 N1048 1.356 . S
C1051 C1045 1.363 . S
C1051 C1046 1.379 . S
C1051 N1049 1.356 . S
N1052 C1044 1.356 . S
N1052 H1058 0.984 . S
N1052 H1059 0.984 . S
N1053 C1046 1.356 . S
N1053 H1056 0.984 . S
N1053 H1057 0.985 . S
H1054 N1049 0.984 . S
H1055 N1049 0.985 . S
H1056 N1053 0.984 . S
H1057 N1053 0.985 . S
H1058 N1052 0.984 . S
H1059 N1052 0.984 . S
H1060 N1048 0.984 . S
H1061 N1048 0.985 . S
C1062 C1063 1.363 . S
C1062 C1068 1.379 . S
C1062 N1070 1.356 . S
C1063 C1062 1.363 . S
C1063 C1069 1.363 . S
C1064 C1065 1.363 . S
C1064 C1069 1.379 . S
C1064 N1071 1.356 . S
C1065 C1064 1.363 . S
C1065 C1068 1.363 . S
N1066 C1068 1.356 . S
N1066 H1078 0.984 . S
N1066 H1079 0.985 . S
N1067 C1069 1.356 . S
N1067 H1072 0.984 . S
N1067 H1073 0.985 . S
C1068 C1062 1.379 . S
C1068 C1065 1.363 . S
C1068 N1066 1.356 . S
C1069 C1063 1.363 . S
C1069 C1064 1.379 . S
C1069 N1067 1.356 . S
N1070 C1062 1.356 . S
N1070 H1076 0.984 . S
N1070 H1077 0.984 . S
N1071 C1064 1.356 . S
N1071 H1074 0.984 . S
N1071 H1075 0.985 . S
H1072 N1067 0.984 . S
H1073 N1067 0.985 . S
H1074 N1071 0.984 . S
H1075 N1071 0.985 . S
H1076 N1070 0.984 . S
H1077 N1070 0.984 . S
H1078 N1066 0.984 . S
H1079 N1066 0.985 . S
C1080 C1081 1.363 1_655 S
C1080 C1086 1.379 . S
C1080 N1088 1.356 . S
C1081 C1080 1.363 1_455 S
C1081 C1087 1.363 . S
C1082 C1083 1.363 . S
C1082 C1087 1.379 . S
C1082 N1089 1.356 . S
C1083 C1082 1.363 . S
C1083 C1086 1.363 1_455 S
N1084 C1086 1.356 . S
N1084 H1096 0.984 1_556 S
N1084 H1097 0.989 1_556 S
N1085 C1087 1.356 . S
N1085 H1090 0.984 . S
N1085 H1091 0.985 . S
C1086 C1080 1.379 . S
C1086 C1083 1.363 1_655 S
C1086 N1084 1.356 . S
C1087 C1081 1.363 . S
C1087 C1082 1.379 . S
C1087 N1085 1.356 . S
N1088 C1080 1.356 . S
N1088 H1094 0.984 . S
N1088 H1095 0.984 . S
N1089 C1082 1.356 . S
N1089 H1092 0.984 . S
N1089 H1093 0.985 . S
H1090 N1085 0.984 . S
H1091 N1085 0.985 . S
H1092 N1089 0.984 . S
H1093 N1089 0.985 . S
H1094 N1088 0.984 . S
H1095 N1088 0.984 . S
H1096 N1084 0.984 1_554 S
H1097 N1084 0.989 1_554 S
C1098 C1099 1.363 . S
C1098 C1104 1.379 . S
C1098 N1106 1.356 . S
C1099 C1098 1.363 . S
C1099 C1105 1.363 . S
C1100 C1101 1.363 . S
C1100 C1105 1.379 . S
C1100 N1107 1.356 . S
C1101 C1100 1.363 . S
C1101 C1104 1.363 . S
N1102 C1104 1.356 . S
N1102 H1114 0.984 . S
N1102 H1115 0.985 . S
N1103 C1105 1.356 . S
N1103 H1108 0.984 . S
N1103 H1109 0.985 . S
C1104 C1098 1.379 . S
C1104 C1101 1.363 . S
C1104 N1102 1.356 . S
C1105 C1099 1.363 . S
C1105 C1100 1.379 . S
C1105 N1103 1.356 . S
N1106 C1098 1.356 . S
N1106 H1112 0.984 . S
N1106 H1113 0.984 . S
N1107 C1100 1.356 . S
N1107 H1110 0.984 . S
N1107 H1111 0.985 . S
H1108 N1103 0.984 . S
H1109 N1103 0.985 . S
H1110 N1107 0.984 . S
H1111 N1107 0.985 . S
H1112 N1106 0.984 . S
H1113 N1106 0.984 . S
H1114 N1102 0.984 . S
H1115 N1102 0.985 . S
C1116 C1117 1.363 . S
C1116 C1122 1.379 . S
C1116 N1124 1.356 . S
C1117 C1116 1.363 . S
C1117 C1123 1.363 . S
C1118 C1119 1.363 . S
C1118 C1123 1.379 . S
C1118 N1125 1.356 . S
C1119 C1118 1.363 . S
C1119 C1122 1.363 . S
N1120 C1122 1.356 . S
N1120 H1132 0.984 . S
N1120 H1133 0.985 . S
N1121 C1123 1.356 . S
N1121 H1126 0.984 . S
N1121 H1127 0.985 . S
C1122 C1116 1.379 . S
C1122 C1119 1.363 . S
C1122 N1120 1.356 . S
C1123 C1117 1.363 . S
C1123 C1118 1.379 . S
C1123 N1121 1.356 . S
N1124 C1116 1.356 . S
N1124 H1130 0.984 . S
N1124 H1131 0.984 . S
N1125 C1118 1.356 . S
N1125 H1128 0.984 . S
N1125 H1129 0.985 . S
H1126 N1121 0.984 . S
H1127 N1121 0.985 . S
H1128 N1125 0.984 . S
H1129 N1125 0.985 . S
H1130 N1124 0.984 . S
H1131 N1124 0.984 . S
H1132 N1120 0.984 . S
H1133 N1120 0.985 . S
C1134 C1135 1.363 . S
C1134 C1140 1.379 . S
C1134 N1142 1.356 . S
C1135 C1134 1.363 . S
C1135 C1141 1.363 . S
C1136 C1137 1.363 . S
C1136 C1141 1.379 . S
C1136 N1143 1.356 . S
C1137 C1136 1.363 . S
C1137 C1140 1.363 . S
N1138 C1140 1.356 . S
N1138 H1150 0.984 . S
N1138 H1151 0.985 . S
N1139 C1141 1.356 . S
N1139 H1144 0.984 . S
N1139 H1145 0.985 . S
C1140 C1134 1.379 . S
C1140 C1137 1.363 . S
C1140 N1138 1.356 . S
C1141 C1135 1.363 . S
C1141 C1136 1.379 . S
C1141 N1139 1.356 . S
N1142 C1134 1.356 . S
N1142 H1148 0.984 . S
N1142 H1149 0.984 . S
N1143 C1136 1.356 . S
N1143 H1146 0.984 . S
N1143 H1147 0.985 . S
H1144 N1139 0.984 . S
H1145 N1139 0.985 . S
H1146 N1143 0.984 . S
H1147 N1143 0.985 . S
H1148 N1142 0.984 . S
H1149 N1142 0.984 . S
H1150 N1138 0.984 . S
H1151 N1138 0.985 . S
C1152 C1153 1.363 1_655 S
C1152 C1158 1.379 . S
C1152 N1160 1.356 . S
C1153 C1152 1.363 1_455 S
C1153 C1159 1.363 . S
C1154 C1155 1.363 . S
C1154 C1159 1.379 . S
C1154 N1161 1.356 . S
C1155 C1154 1.363 . S
C1155 C1158 1.363 1_455 S
N1156 C1158 1.356 . S
N1156 H1168 0.984 . S
N1156 H1169 0.985 . S
N1157 C1159 1.356 . S
N1157 H1162 0.984 . S
N1157 H1163 0.985 . S
C1158 C1152 1.379 . S
C1158 C1155 1.363 1_655 S
C1158 N1156 1.356 . S
C1159 C1153 1.363 . S
C1159 C1154 1.379 . S
C1159 N1157 1.356 . S
N1160 C1152 1.356 . S
N1160 H1166 0.984 . S
N1160 H1167 0.984 . S
N1161 C1154 1.356 . S
N1161 H1164 0.984 . S
N1161 H1165 0.985 . S
H1162 N1157 0.984 . S
H1163 N1157 0.985 . S
H1164 N1161 0.984 . S
H1165 N1161 0.985 . S
H1166 N1160 0.984 . S
H1167 N1160 0.984 . S
H1168 N1156 0.984 . S
H1169 N1156 0.985 . S
C1170 C1171 1.363 . S
C1170 C1176 1.379 . S
C1170 N1178 1.356 . S
C1171 C1170 1.363 . S
C1171 C1177 1.363 . S
C1172 C1173 1.363 . S
C1172 C1177 1.379 . S
C1172 N1179 1.356 . S
C1173 C1172 1.363 . S
C1173 C1176 1.363 . S
N1174 C1176 1.356 . S
N1174 H1186 0.984 . S
N1174 H1187 0.985 . S
N1175 C1177 1.356 . S
N1175 H1180 0.984 . S
N1175 H1181 0.985 . S
C1176 C1170 1.379 . S
C1176 C1173 1.363 . S
C1176 N1174 1.356 . S
C1177 C1171 1.363 . S
C1177 C1172 1.379 . S
C1177 N1175 1.356 . S
N1178 C1170 1.356 . S
N1178 H1184 0.984 . S
N1178 H1185 0.984 . S
N1179 C1172 1.356 . S
N1179 H1182 0.984 . S
N1179 H1183 0.985 . S
H1180 N1175 0.984 . S
H1181 N1175 0.985 . S
H1182 N1179 0.984 . S
H1183 N1179 0.985 . S
H1184 N1178 0.984 . S
H1185 N1178 0.984 . S
H1186 N1174 0.984 . S
H1187 N1174 0.985 . S
C1188 C1189 1.363 . S
C1188 C1194 1.379 . S
C1188 N1196 1.356 . S
C1189 C1188 1.363 . S
C1189 C1195 1.363 . S
C1190 C1191 1.363 . S
C1190 C1195 1.379 . S
C1190 N1197 1.356 . S
C1191 C1190 1.363 . S
C1191 C1194 1.363 . S
N1192 C1194 1.356 . S
N1192 H1204 0.984 . S
N1192 H1205 0.985 . S
N1193 C1195 1.356 . S
N1193 H1198 0.984 . S
N1193 H1199 0.985 . S
C1194 C1188 1.379 . S
C1194 C1191 1.363 . S
C1194 N1192 1.356 . S
C1195 C1189 1.363 . S
C1195 C1190 1.379 . S
C1195 N1193 1.356 . S
N1196 C1188 1.356 . S
N1196 H1202 0.984 . S
N1196 H1203 0.984 . S
N1197 C1190 1.356 . S
N1197 H1200 0.984 . S
N1197 H1201 0.985 1_554 S
H1198 N1193 0.984 . S
H1199 N1193 0.985 . S
H1200 N1197 0.984 . S
H1201 N1197 0.985 1_556 S
H1202 N1196 0.984 . S
H1203 N1196 0.984 . S
H1204 N1192 0.984 . S
H1205 N1192 0.985 . S
C1206 C1207 1.363 . S
C1206 C1212 1.379 . S
C1206 N1214 1.356 . S
C1207 C1206 1.363 . S
C1207 C1213 1.363 . S
C1208 C1209 1.363 . S
C1208 C1213 1.379 . S
C1208 N1215 1.356 . S
C1209 C1208 1.363 . S
C1209 C1212 1.363 . S
N1210 C1212 1.356 . S
N1210 H1222 0.984 . S
N1210 H1223 0.985 . S
N1211 C1213 1.356 . S
N1211 H1216 0.984 . S
N1211 H1217 0.985 . S
C1212 C1206 1.379 . S
C1212 C1209 1.363 . S
C1212 N1210 1.356 . S
C1213 C1207 1.363 . S
C1213 C1208 1.379 . S
C1213 N1211 1.356 . S
N1214 C1206 1.356 . S
N1214 H1220 0.984 . S
N1214 H1221 0.984 . S
N1215 C1208 1.356 . S
N1215 H1218 0.984 . S
N1215 H1219 0.985 . S
H1216 N1211 0.984 . S
H1217 N1211 0.985 . S
H1218 N1215 0.984 . S
H1219 N1215 0.985 . S
H1220 N1214 0.984 . S
H1221 N1214 0.984 . S
H1222 N1210 0.984 . S
H1223 N1210 0.985 . S
C1224 C1225 1.351 1_545 S
C1224 C1230 1.379 . S
C1224 N1232 1.356 . S
C1225 C1224 1.351 1_565 S
C1225 C1231 1.372 . S
C1226 C1227 1.363 1_565 S
C1226 C1231 1.379 . S
C1226 N1233 1.356 . S
C1227 C1226 1.363 1_545 S
C1227 C1230 1.363 . S
N1228 C1230 1.356 . S
N1228 H1240 0.992 . S
N1228 H1241 0.985 . S
N1229 C1231 1.356 . S
N1229 H1234 0.984 . S
N1229 H1235 0.985 . S
C1230 C1224 1.379 . S
C1230 C1227 1.363 . S
C1230 N1228 1.356 . S
C1231 C1225 1.372 . S
C1231 C1226 1.379 . S
C1231 N1229 1.356 . S
N1232 C1224 1.356 . S
N1232 H1238 0.984 . S
N1232 H1239 0.984 . S
N1233 C1226 1.356 . S
N1233 H1236 0.984 . S
N1233 H1237 0.985 . S
H1234 N1229 0.984 . S
H1235 N1229 0.985 . S
H1236 N1233 0.984 . S
H1237 N1233 0.985 . S
H1238 N1232 0.984 . S
H1239 N1232 0.984 . S
H1240 N1228 0.992 . S
H1241 N1228 0.985 . S
C1242 C1243 1.363 . S
C1242 C1248 1.379 . S
C1242 N1250 1.356 . S
C1243 C1242 1.363 . S
C1243 C1249 1.363 . S
C1244 C1245 1.363 . S
C1244 C1249 1.379 . S
C1244 N1251 1.356 . S
C1245 C1244 1.363 . S
C1245 C1248 1.363 . S
N1246 C1248 1.356 . S
N1246 H1258 0.984 . S
N1246 H1259 0.985 . S
N1247 C1249 1.356 . S
N1247 H1252 0.984 . S
N1247 H1253 0.985 . S
C1248 C1242 1.379 . S
C1248 C1245 1.363 . S
C1248 N1246 1.356 . S
C1249 C1243 1.363 . S
C1249 C1244 1.379 . S
C1249 N1247 1.356 . S
N1250 C1242 1.356 . S
N1250 H1256 0.984 . S
N1250 H1257 0.984 . S
N1251 C1244 1.356 . S
N1251 H1254 0.984 . S
N1251 H1255 0.985 . S
H1252 N1247 0.984 . S
H1253 N1247 0.985 . S
H1254 N1251 0.984 . S
H1255 N1251 0.985 . S
H1256 N1250 0.984 . S
H1257 N1250 0.984 . S
H1258 N1246 0.984 . S
H1259 N1246 0.985 . S
C1260 C1261 1.363 . S
C1260 C1266 1.379 . S
C1260 N1268 1.356 . S
C1261 C1260 1.363 . S
C1261 C1267 1.363 1_545 S
C1262 C1263 1.363 1_565 S
C1262 C1267 1.379 . S
C1262 N1269 1.356 . S
C1263 C1262 1.363 1_545 S
C1263 C1266 1.363 . S
N1264 C1266 1.356 . S
N1264 H1276 0.984 . S
N1264 H1277 0.985 . S
N1265 C1267 1.356 . S
N1265 H1270 0.984 . S
N1265 H1271 0.985 . S
C1266 C1260 1.379 . S
C1266 C1263 1.363 . S
C1266 N1264 1.356 . S
C1267 C1261 1.363 1_565 S
C1267 C1262 1.379 . S
C1267 N1265 1.356 . S
N1268 C1260 1.356 . S
N1268 H1274 0.984 . S
N1268 H1275 0.984 . S
N1269 C1262 1.356 . S
N1269 H1272 0.984 . S
N1269 H1273 0.985 . S
H1270 N1265 0.984 . S
H1271 N1265 0.985 . S
H1272 N1269 0.984 . S
H1273 N1269 0.985 . S
H1274 N1268 0.984 . S
H1275 N1268 0.984 . S
H1276 N1264 0.984 . S
H1277 N1264 0.985 . S
C1278 C1279 1.363 . S
C1278 C1284 1.379 . S
C1278 N1286 1.356 . S
C1279 C1278 1.363 . S
C1279 C1285 1.363 . S
C1280 C1281 1.363 . S
C1280 C1285 1.379 . S
C1280 N1287 1.356 . S
C1281 C1280 1.363 . S
C1281 C1284 1.363 . S
N1282 C1284 1.356 . S
N1282 H1294 0.984 . S
N1282 H1295 0.985 . S
N1283 C1285 1.356 . S
N1283 H1288 0.984 . S
N1283 H1289 0.985 . S
C1284 C1278 1.379 . S
C1284 C1281 1.363 . S
C1284 N1282 1.356 . S
C1285 C1279 1.363 . S
C1285 C1280 1.379 . S
C1285 N1283 1.356 . S
N1286 C1278 1.356 . S
N1286 H1292 0.984 . S
N1286 H1293 0.984 . S
N1287 C1280 1.356 . S
N1287 H1290 0.984 . S
N1287 H1291 0.985 . S
H1288 N1283 0.984 . S
H1289 N1283 0.985 . S
H1290 N1287 0.984 . S
H1291 N1287 0.985 . S
H1292 N1286 0.984 . S
H1293 N1286 0.984 . S
H1294 N1282 0.984 . S
H1295 N1282 0.985 . S
C1296 C1297 1.363 . S
C1296 C1302 1.379 . S
C1296 N1304 1.356 . S
C1297 C1296 1.363 . S
C1297 C1303 1.363 . S
C1298 C1299 1.363 . S
C1298 C1303 1.379 1_565 S
C1298 N1305 1.356 1_655 S
C1299 C1298 1.363 . S
C1299 C1302 1.363 1_565 S
N1300 C1302 1.356 1_565 S
N1300 H1312 0.985 1_565 S
N1300 H1313 0.985 . S
N1301 C1303 1.356 . S
N1301 H1306 0.984 . S
N1301 H1307 0.985 . S
C1302 C1296 1.379 . S
C1302 C1299 1.363 1_545 S
C1302 N1300 1.356 1_545 S
C1303 C1297 1.363 . S
C1303 C1298 1.379 1_545 S
C1303 N1301 1.356 . S
N1304 C1296 1.356 . S
N1304 H1310 0.984 . S
N1304 H1311 0.984 . S
N1305 C1298 1.356 1_455 S
N1305 H1308 0.984 . S
N1305 H1309 0.985 . S
H1306 N1301 0.984 . S
H1307 N1301 0.985 . S
H1308 N1305 0.984 . S
H1309 N1305 0.985 . S
H1310 N1304 0.984 . S
H1311 N1304 0.984 . S
H1312 N1300 0.985 1_545 S
H1313 N1300 0.985 . S
C1314 C1315 1.363 . S
C1314 C1320 1.379 . S
C1314 N1322 1.356 . S
C1315 C1314 1.363 . S
C1315 C1321 1.363 . S
C1316 C1317 1.363 . S
C1316 C1321 1.379 . S
C1316 N1323 1.356 . S
C1317 C1316 1.363 . S
C1317 C1320 1.363 . S
N1318 C1320 1.356 . S
N1318 H1330 0.984 . S
N1318 H1331 0.985 . S
N1319 C1321 1.356 . S
N1319 H1324 0.984 . S
N1319 H1325 0.985 . S
C1320 C1314 1.379 . S
C1320 C1317 1.363 . S
C1320 N1318 1.356 . S
C1321 C1315 1.363 . S
C1321 C1316 1.379 . S
C1321 N1319 1.356 . S
N1322 C1314 1.356 . S
N1322 H1328 0.984 . S
N1322 H1329 0.984 . S
N1323 C1316 1.356 . S
N1323 H1326 0.984 . S
N1323 H1327 0.985 . S
H1324 N1319 0.984 . S
H1325 N1319 0.985 . S
H1326 N1323 0.984 . S
H1327 N1323 0.985 . S
H1328 N1322 0.984 . S
H1329 N1322 0.984 . S
H1330 N1318 0.984 . S
H1331 N1318 0.985 . S
C1332 C1333 1.363 . S
C1332 C1338 1.379 . S
C1332 N1340 1.356 . S
C1333 C1332 1.363 . S
C1333 C1339 1.363 1_545 S
C1334 C1335 1.363 1_565 S
C1334 C1339 1.379 . S
C1334 N1341 1.356 . S
C1335 C1334 1.363 1_545 S
C1335 C1338 1.363 . S
N1336 C1338 1.356 . S
N1336 H1348 0.984 . S
N1336 H1349 0.985 . S
N1337 C1339 1.356 . S
N1337 H1342 0.984 . S
N1337 H1343 0.985 . S
C1338 C1332 1.379 . S
C1338 C1335 1.363 . S
C1338 N1336 1.356 . S
C1339 C1333 1.363 1_565 S
C1339 C1334 1.379 . S
C1339 N1337 1.356 . S
N1340 C1332 1.356 . S
N1340 H1346 0.984 . S
N1340 H1347 0.984 . S
N1341 C1334 1.356 . S
N1341 H1344 0.984 . S
N1341 H1345 0.985 . S
H1342 N1337 0.984 . S
H1343 N1337 0.985 . S
H1344 N1341 0.984 . S
H1345 N1341 0.985 . S
H1346 N1340 0.984 . S
H1347 N1340 0.984 . S
H1348 N1336 0.984 . S
H1349 N1336 0.985 . S
C1350 C1351 1.363 . S
C1350 C1356 1.379 . S
C1350 N1358 1.356 . S
C1351 C1350 1.363 . S
C1351 C1357 1.363 . S
C1352 C1353 1.363 . S
C1352 C1357 1.379 . S
C1352 N1359 1.356 . S
C1353 C1352 1.363 . S
C1353 C1356 1.363 . S
N1354 C1356 1.356 . S
N1354 H1366 0.984 . S
N1354 H1367 0.985 . S
N1355 C1357 1.356 . S
N1355 H1360 0.984 . S
N1355 H1361 0.985 . S
C1356 C1350 1.379 . S
C1356 C1353 1.363 . S
C1356 N1354 1.356 . S
C1357 C1351 1.363 . S
C1357 C1352 1.379 . S
C1357 N1355 1.356 . S
N1358 C1350 1.356 . S
N1358 H1364 0.984 . S
N1358 H1365 0.984 . S
N1359 C1352 1.356 . S
N1359 H1362 0.984 . S
N1359 H1363 0.985 . S
H1360 N1355 0.984 . S
H1361 N1355 0.985 . S
H1362 N1359 0.984 . S
H1363 N1359 0.985 . S
H1364 N1358 0.984 . S
H1365 N1358 0.984 . S
H1366 N1354 0.984 . S
H1367 N1354 0.985 . S
C1368 C1369 1.363 . S
C1368 C1374 1.379 . S
C1368 N1376 1.356 . S
C1369 C1368 1.363 . S
C1369 C1375 1.363 1_554 S
C1370 C1371 1.363 1_556 S
C1370 C1375 1.379 . S
C1370 N1377 1.356 . S
C1371 C1370 1.363 1_554 S
C1371 C1374 1.363 . S
N1372 C1374 1.356 . S
N1372 H1384 0.984 1_565 S
N1372 H1385 0.991 . S
N1373 C1375 1.356 . S
N1373 H1378 0.984 . S
N1373 H1379 0.985 . S
C1374 C1368 1.379 . S
C1374 C1371 1.363 . S
C1374 N1372 1.356 . S
C1375 C1369 1.363 1_556 S
C1375 C1370 1.379 . S
C1375 N1373 1.356 . S
N1376 C1368 1.356 . S
N1376 H1382 0.984 . S
N1376 H1383 0.984 . S
N1377 C1370 1.356 . S
N1377 H1380 0.984 . S
N1377 H1381 0.985 . S
H1378 N1373 0.984 . S
H1379 N1373 0.985 . S
H1380 N1377 0.984 . S
H1381 N1377 0.985 . S
H1382 N1376 0.984 . S
H1383 N1376 0.984 . S
H1384 N1372 0.984 1_545 S
H1385 N1372 0.991 . S
C1386 C1387 1.363 1_556 S
C1386 C1392 1.379 . S
C1386 N1394 1.356 . S
C1387 C1386 1.363 1_554 S
C1387 C1393 1.363 . S
C1388 C1389 1.378 . S
C1388 C1393 1.379 . S
C1388 N1395 1.356 . S
C1389 C1388 1.378 . S
C1389 C1392 1.351 1_554 S
N1390 C1392 1.356 . S
N1390 H1402 0.984 . S
N1390 H1403 0.985 . S
N1391 C1393 1.356 . S
N1391 H1396 0.984 . S
N1391 H1397 0.985 . S
C1392 C1386 1.379 . S
C1392 C1389 1.351 1_556 S
C1392 N1390 1.356 . S
C1393 C1387 1.363 . S
C1393 C1388 1.379 . S
C1393 N1391 1.356 . S
N1394 C1386 1.356 . S
N1394 H1400 0.984 . S
N1394 H1401 0.984 . S
N1395 C1388 1.356 . S
N1395 H1398 0.984 . S
N1395 H1399 0.985 . S
H1396 N1391 0.984 . S
H1397 N1391 0.985 . S
H1398 N1395 0.984 . S
H1399 N1395 0.985 . S
H1400 N1394 0.984 . S
H1401 N1394 0.984 . S
H1402 N1390 0.984 . S
H1403 N1390 0.985 . S
C1404 C1405 1.363 . S
C1404 C1410 1.379 . S
C1404 N1412 1.356 . S
C1405 C1404 1.363 . S
C1405 C1411 1.363 . S
C1406 C1407 1.363 . S
C1406 C1411 1.379 . S
C1406 N1413 1.356 . S
C1407 C1406 1.363 . S
C1407 C1410 1.363 . S
N1408 C1410 1.356 . S
N1408 H1420 0.984 . S
N1408 H1421 0.985 . S
N1409 C1411 1.356 . S
N1409 H1414 0.984 . S
N1409 H1415 0.985 . S
C1410 C1404 1.379 . S
C1410 C1407 1.363 . S
C1410 N1408 1.356 . S
C1411 C1405 1.363 . S
C1411 C1406 1.379 . S
C1411 N1409 1.356 . S
N1412 C1404 1.356 . S
N1412 H1418 0.984 . S
N1412 H1419 0.984 . S
N1413 C1406 1.356 . S
N1413 H1416 0.984 . S
N1413 H1417 0.985 . S
H1414 N1409 0.984 . S
H1415 N1409 0.985 . S
H1416 N1413 0.984 . S
H1417 N1413 0.985 . S
H1418 N1412 0.984 . S
H1419 N1412 0.984 . S
H1420 N1408 0.984 . S
H1421 N1408 0.985 . S
C1422 C1423 1.363 . S
C1422 C1428 1.379 . S
C1422 N1430 1.356 . S
C1423 C1422 1.363 . S
C1423 C1429 1.363 . S
C1424 C1425 1.363 . S
C1424 C1429 1.379 . S
C1424 N1431 1.356 . S
C1425 C1424 1.363 . S
C1425 C1428 1.363 . S
N1426 C1428 1.356 . S
N1426 H1438 0.984 . S
N1426 H1439 0.985 . S
N1427 C1429 1.356 . S
N1427 H1432 0.984 . S
N1427 H1433 0.985 . S
C1428 C1422 1.379 . S
C1428 C1425 1.363 . S
C1428 N1426 1.356 . S
C1429 C1423 1.363 . S
C1429 C1424 1.379 . S
C1429 N1427 1.356 . S
N1430 C1422 1.356 . S
N1430 H1436 0.984 . S
N1430 H1437 0.984 . S
N1431 C1424 1.356 . S
N1431 H1434 0.984 . S
N1431 H1435 0.985 . S
H1432 N1427 0.984 . S
H1433 N1427 0.985 . S
H1434 N1431 0.984 . S
H1435 N1431 0.985 . S
H1436 N1430 0.984 . S
H1437 N1430 0.984 . S
H1438 N1426 0.984 . S
H1439 N1426 0.985 . S
C1440 C1441 1.363 . S
C1440 C1446 1.379 . S
C1440 N1448 1.356 . S
C1441 C1440 1.363 . S
C1441 C1447 1.363 . S
C1442 C1443 1.363 . S
C1442 C1447 1.379 . S
C1442 N1449 1.356 . S
C1443 C1442 1.363 . S
C1443 C1446 1.363 . S
N1444 C1446 1.356 . S
N1444 H1456 0.984 . S
N1444 H1457 0.985 . S
N1445 C1447 1.356 . S
N1445 H1450 0.984 . S
N1445 H1451 0.985 . S
C1446 C1440 1.379 . S
C1446 C1443 1.363 . S
C1446 N1444 1.356 . S
C1447 C1441 1.363 . S
C1447 C1442 1.379 . S
C1447 N1445 1.356 . S
N1448 C1440 1.356 . S
N1448 H1454 0.984 . S
N1448 H1455 0.984 . S
N1449 C1442 1.356 . S
N1449 H1452 0.984 . S
N1449 H1453 0.985 . S
H1450 N1445 0.984 . S
H1451 N1445 0.985 . S
H1452 N1449 0.984 . S
H1453 N1449 0.985 . S
H1454 N1448 0.984 . S
H1455 N1448 0.984 . S
H1456 N1444 0.984 . S
H1457 N1444 0.985 . S
C1458 C1459 1.363 . S
C1458 C1464 1.379 . S
C1458 N1466 1.356 . S
C1459 C1458 1.363 . S
C1459 C1465 1.363 . S
C1460 C1461 1.363 . S
C1460 C1465 1.379 . S
C1460 N1467 1.356 . S
C1461 C1460 1.363 . S
C1461 C1464 1.363 . S
N1462 C1464 1.356 . S
N1462 H1474 0.984 . S
N1462 H1475 0.985 . S
N1463 C1465 1.356 . S
N1463 H1468 0.984 . S
N1463 H1469 0.985 . S
C1464 C1458 1.379 . S
C1464 C1461 1.363 . S
C1464 N1462 1.356 . S
C1465 C1459 1.363 . S
C1465 C1460 1.379 . S
C1465 N1463 1.356 . S
N1466 C1458 1.356 . S
N1466 H1472 0.984 . S
N1466 H1473 0.984 . S
N1467 C1460 1.356 . S
N1467 H1470 0.984 . S
N1467 H1471 0.985 . S
H1468 N1463 0.984 . S
H1469 N1463 0.985 . S
H1470 N1467 0.984 . S
H1471 N1467 0.985 . S
H1472 N1466 0.984 . S
H1473 N1466 0.984 . S
H1474 N1462 0.984 . S
H1475 N1462 0.985 . S
C1476 C1477 1.363 . S
C1476 C1482 1.379 . S
C1476 N1484 1.356 . S
C1477 C1476 1.363 . S
C1477 C1483 1.363 . S
C1478 C1479 1.363 . S
C1478 C1483 1.379 . S
C1478 N1485 1.356 . S
C1479 C1478 1.363 . S
C1479 C1482 1.363 . S
N1480 C1482 1.356 . S
N1480 H1492 0.984 . S
N1480 H1493 0.985 . S
N1481 C1483 1.356 . S
N1481 H1486 0.984 . S
N1481 H1487 0.985 . S
C1482 C1476 1.379 . S
C1482 C1479 1.363 . S
C1482 N1480 1.356 . S
C1483 C1477 1.363 . S
C1483 C1478 1.379 . S
C1483 N1481 1.356 . S
N1484 C1476 1.356 . S
N1484 H1490 0.984 . S
N1484 H1491 0.984 . S
N1485 C1478 1.356 . S
N1485 H1488 0.984 . S
N1485 H1489 0.985 . S
H1486 N1481 0.984 . S
H1487 N1481 0.985 . S
H1488 N1485 0.984 . S
H1489 N1485 0.985 . S
H1490 N1484 0.984 . S
H1491 N1484 0.984 . S
H1492 N1480 0.984 . S
H1493 N1480 0.985 . S
C1494 C1495 1.363 . S
C1494 C1500 1.379 . S
C1494 N1502 1.356 . S
C1495 C1494 1.363 . S
C1495 C1501 1.363 . S
C1496 C1497 1.363 . S
C1496 C1501 1.379 . S
C1496 N1503 1.356 . S
C1497 C1496 1.363 . S
C1497 C1500 1.363 . S
N1498 C1500 1.356 . S
N1498 H1510 0.984 . S
N1498 H1511 0.985 . S
N1499 C1501 1.356 . S
N1499 H1504 0.984 . S
N1499 H1505 0.985 . S
C1500 C1494 1.379 . S
C1500 C1497 1.363 . S
C1500 N1498 1.356 . S
C1501 C1495 1.363 . S
C1501 C1496 1.379 . S
C1501 N1499 1.356 . S
N1502 C1494 1.356 . S
N1502 H1508 0.984 . S
N1502 H1509 0.984 . S
N1503 C1496 1.356 . S
N1503 H1506 0.984 . S
N1503 H1507 0.985 . S
H1504 N1499 0.984 . S
H1505 N1499 0.985 . S
H1506 N1503 0.984 . S
H1507 N1503 0.985 . S
H1508 N1502 0.984 . S
H1509 N1502 0.984 . S
H1510 N1498 0.984 . S
H1511 N1498 0.985 . S
C1512 C1513 1.363 . S
C1512 C1518 1.379 . S
C1512 N1520 1.356 . S
C1513 C1512 1.363 . S
C1513 C1519 1.363 . S
C1514 C1515 1.363 . S
C1514 C1519 1.379 . S
C1514 N1521 1.356 . S
C1515 C1514 1.363 . S
C1515 C1518 1.363 . S
N1516 C1518 1.356 . S
N1516 H1528 0.984 . S
N1516 H1529 0.985 . S
N1517 C1519 1.356 . S
N1517 H1522 0.984 . S
N1517 H1523 0.985 . S
C1518 C1512 1.379 . S
C1518 C1515 1.363 . S
C1518 N1516 1.356 . S
C1519 C1513 1.363 . S
C1519 C1514 1.379 . S
C1519 N1517 1.356 . S
N1520 C1512 1.356 . S
N1520 H1526 0.984 . S
N1520 H1527 0.984 . S
N1521 C1514 1.356 . S
N1521 H1524 0.984 . S
N1521 H1525 0.985 . S
H1522 N1517 0.984 . S
H1523 N1517 0.985 . S
H1524 N1521 0.984 . S
H1525 N1521 0.985 . S
H1526 N1520 0.984 . S
H1527 N1520 0.984 . S
H1528 N1516 0.984 . S
H1529 N1516 0.985 . S
C1530 C1531 1.363 . S
C1530 C1536 1.379 . S
C1530 N1538 1.356 . S
C1531 C1530 1.363 . S
C1531 C1537 1.363 . S
C1532 C1533 1.363 . S
C1532 C1537 1.379 . S
C1532 N1539 1.356 . S
C1533 C1532 1.363 . S
C1533 C1536 1.363 . S
N1534 C1536 1.356 . S
N1534 H1546 0.984 . S
N1534 H1547 0.985 . S
N1535 C1537 1.356 . S
N1535 H1540 0.984 . S
N1535 H1541 0.985 . S
C1536 C1530 1.379 . S
C1536 C1533 1.363 . S
C1536 N1534 1.356 . S
C1537 C1531 1.363 . S
C1537 C1532 1.379 . S
C1537 N1535 1.356 . S
N1538 C1530 1.356 . S
N1538 H1544 0.984 . S
N1538 H1545 0.984 . S
N1539 C1532 1.356 . S
N1539 H1542 0.984 . S
N1539 H1543 0.985 . S
H1540 N1535 0.984 . S
H1541 N1535 0.985 . S
H1542 N1539 0.984 . S
H1543 N1539 0.985 . S
H1544 N1538 0.984 . S
H1545 N1538 0.984 . S
H1546 N1534 0.984 . S
H1547 N1534 0.985 . S
C1548 C1549 1.363 . S
C1548 C1554 1.379 . S
C1548 N1556 1.356 . S
C1549 C1548 1.363 . S
C1549 C1555 1.363 1_455 S
C1550 C1551 1.363 1_655 S
C1550 C1555 1.379 . S
C1550 N1557 1.356 . S
C1551 C1550 1.363 1_455 S
C1551 C1554 1.363 . S
N1552 C1554 1.356 . S
N1552 H1564 0.984 . S
N1552 H1565 0.985 . S
N1553 C1555 1.356 . S
N1553 H1558 0.984 . S
N1553 H1559 0.985 . S
C1554 C1548 1.379 . S
C1554 C1551 1.363 . S
C1554 N1552 1.356 . S
C1555 C1549 1.363 1_655 S
C1555 C1550 1.379 . S
C1555 N1553 1.356 . S
N1556 C1548 1.356 . S
N1556 H1562 0.984 . S
N1556 H1563 0.984 . S
N1557 C1550 1.356 . S
N1557 H1560 0.984 . S
N1557 H1561 0.985 . S
H1558 N1553 0.984 . S
H1559 N1553 0.985 . S
H1560 N1557 0.984 . S
H1561 N1557 0.985 . S
H1562 N1556 0.984 . S
H1563 N1556 0.984 . S
H1564 N1552 0.984 . S
H1565 N1552 0.985 . S
C1566 C1567 1.363 . S
C1566 C1572 1.379 . S
C1566 N1574 1.356 . S
C1567 C1566 1.363 . S
C1567 C1573 1.363 . S
C1568 C1569 1.363 . S
C1568 C1573 1.379 . S
C1568 N1575 1.356 . S
C1569 C1568 1.363 . S
C1569 C1572 1.363 . S
N1570 C1572 1.356 . S
N1570 H1582 0.984 . S
N1570 H1583 0.985 . S
N1571 C1573 1.356 . S
N1571 H1576 0.984 . S
N1571 H1577 0.985 . S
C1572 C1566 1.379 . S
C1572 C1569 1.363 . S
C1572 N1570 1.356 . S
C1573 C1567 1.363 . S
C1573 C1568 1.379 . S
C1573 N1571 1.356 . S
N1574 C1566 1.356 . S
N1574 H1580 0.984 . S
N1574 H1581 0.984 . S
N1575 C1568 1.356 . S
N1575 H1578 0.984 . S
N1575 H1579 0.985 . S
H1576 N1571 0.984 . S
H1577 N1571 0.985 . S
H1578 N1575 0.984 . S
H1579 N1575 0.985 . S
H1580 N1574 0.984 . S
H1581 N1574 0.984 . S
H1582 N1570 0.984 . S
H1583 N1570 0.985 . S
C1584 C1585 1.363 . S
C1584 C1590 1.379 . S
C1584 N1592 1.356 . S
C1585 C1584 1.363 . S
C1585 C1591 1.363 . S
C1586 C1587 1.363 . S
C1586 C1591 1.379 . S
C1586 N1593 1.356 . S
C1587 C1586 1.363 . S
C1587 C1590 1.363 . S
N1588 C1590 1.356 . S
N1588 H1600 0.984 . S
N1588 H1601 0.985 . S
N1589 C1591 1.356 . S
N1589 H1594 0.984 . S
N1589 H1595 0.985 . S
C1590 C1584 1.379 . S
C1590 C1587 1.363 . S
C1590 N1588 1.356 . S
C1591 C1585 1.363 . S
C1591 C1586 1.379 . S
C1591 N1589 1.356 . S
N1592 C1584 1.356 . S
N1592 H1598 0.984 . S
N1592 H1599 0.984 . S
N1593 C1586 1.356 . S
N1593 H1596 0.984 . S
N1593 H1597 0.985 . S
H1594 N1589 0.984 . S
H1595 N1589 0.985 . S
H1596 N1593 0.984 . S
H1597 N1593 0.985 . S
H1598 N1592 0.984 . S
H1599 N1592 0.984 . S
H1600 N1588 0.984 . S
H1601 N1588 0.985 . S
C1602 C1603 1.363 . S
C1602 C1608 1.379 . S
C1602 N1610 1.356 . S
C1603 C1602 1.363 . S
C1603 C1609 1.363 . S
C1604 C1605 1.363 . S
C1604 C1609 1.379 . S
C1604 N1611 1.356 . S
C1605 C1604 1.363 . S
C1605 C1608 1.363 . S
N1606 C1608 1.356 . S
N1606 H1618 0.984 . S
N1606 H1619 0.985 . S
N1607 C1609 1.356 . S
N1607 H1612 0.984 . S
N1607 H1613 0.985 . S
C1608 C1602 1.379 . S
C1608 C1605 1.363 . S
C1608 N1606 1.356 . S
C1609 C1603 1.363 . S
C1609 C1604 1.379 . S
C1609 N1607 1.356 . S
N1610 C1602 1.356 . S
N1610 H1616 0.984 . S
N1610 H1617 0.984 . S
N1611 C1604 1.356 . S
N1611 H1614 0.984 . S
N1611 H1615 0.985 . S
H1612 N1607 0.984 . S
H1613 N1607 0.985 . S
H1614 N1611 0.984 . S
H1615 N1611 0.985 . S
H1616 N1610 0.984 . S
H1617 N1610 0.984 . S
H1618 N1606 0.984 . S
H1619 N1606 0.985 . S
C1620 C1621 1.363 . S
C1620 C1626 1.379 . S
C1620 N1628 1.356 . S
C1621 C1620 1.363 . S
C1621 C1627 1.363 . S
C1622 C1623 1.363 . S
C1622 C1627 1.379 . S
C1622 N1629 1.356 . S
C1623 C1622 1.363 . S
C1623 C1626 1.363 . S
N1624 C1626 1.356 . S
N1624 H1636 0.984 . S
N1624 H1637 0.985 . S
N1625 C1627 1.356 1_655 S
N1625 H1630 0.984 . S
N1625 H1631 0.985 . S
C1626 C1620 1.379 . S
C1626 C1623 1.363 . S
C1626 N1624 1.356 . S
C1627 C1621 1.363 . S
C1627 C1622 1.379 . S
C1627 N1625 1.356 1_455 S
N1628 C1620 1.356 . S
N1628 H1634 0.984 . S
N1628 H1635 0.984 . S
N1629 C1622 1.356 . S
N1629 H1632 0.984 . S
N1629 H1633 0.985 1_455 S
H1630 N1625 0.984 . S
H1631 N1625 0.985 . S
H1632 N1629 0.984 . S
H1633 N1629 0.985 1_655 S
H1634 N1628 0.984 . S
H1635 N1628 0.984 . S
H1636 N1624 0.984 . S
H1637 N1624 0.985 . S
C1638 C1639 1.363 . S
C1638 C1644 1.379 . S
C1638 N1646 1.356 . S
C1639 C1638 1.363 . S
C1639 C1645 1.363 . S
C1640 C1641 1.363 . S
C1640 C1645 1.379 . S
C1640 N1647 1.356 . S
C1641 C1640 1.363 . S
C1641 C1644 1.363 . S
N1642 C1644 1.356 . S
N1642 H1654 0.984 . S
N1642 H1655 0.985 . S
N1643 C1645 1.356 . S
N1643 H1648 0.984 . S
N1643 H1649 0.985 . S
C1644 C1638 1.379 . S
C1644 C1641 1.363 . S
C1644 N1642 1.356 . S
C1645 C1639 1.363 . S
C1645 C1640 1.379 . S
C1645 N1643 1.356 . S
N1646 C1638 1.356 . S
N1646 H1652 0.984 . S
N1646 H1653 0.984 . S
N1647 C1640 1.356 . S
N1647 H1650 0.984 . S
N1647 H1651 0.985 . S
H1648 N1643 0.984 . S
H1649 N1643 0.985 . S
H1650 N1647 0.984 . S
H1651 N1647 0.985 . S
H1652 N1646 0.984 . S
H1653 N1646 0.984 . S
H1654 N1642 0.984 . S
H1655 N1642 0.985 . S
C1656 C1657 1.363 . S
C1656 C1662 1.379 . S
C1656 N1664 1.356 . S
C1657 C1656 1.363 . S
C1657 C1663 1.363 . S
C1658 C1659 1.363 . S
C1658 C1663 1.379 . S
C1658 N1665 1.356 . S
C1659 C1658 1.363 . S
C1659 C1662 1.363 . S
N1660 C1662 1.356 . S
N1660 H1672 0.984 . S
N1660 H1673 0.985 . S
N1661 C1663 1.356 . S
N1661 H1666 0.984 . S
N1661 H1667 0.985 . S
C1662 C1656 1.379 . S
C1662 C1659 1.363 . S
C1662 N1660 1.356 . S
C1663 C1657 1.363 . S
C1663 C1658 1.379 . S
C1663 N1661 1.356 . S
N1664 C1656 1.356 . S
N1664 H1670 0.984 . S
N1664 H1671 0.984 . S
N1665 C1658 1.356 . S
N1665 H1668 0.984 . S
N1665 H1669 0.985 . S
H1666 N1661 0.984 . S
H1667 N1661 0.985 . S
H1668 N1665 0.984 . S
H1669 N1665 0.985 . S
H1670 N1664 0.984 . S
H1671 N1664 0.984 . S
H1672 N1660 0.984 . S
H1673 N1660 0.985 . S
C1674 C1675 1.363 . S
C1674 C1680 1.379 . S
C1674 N1682 1.356 . S
C1675 C1674 1.363 . S
C1675 C1681 1.363 . S
C1676 C1677 1.363 . S
C1676 C1681 1.379 . S
C1676 N1683 1.356 . S
C1677 C1676 1.363 . S
C1677 C1680 1.363 . S
N1678 C1680 1.356 . S
N1678 H1690 0.984 . S
N1678 H1691 0.985 . S
N1679 C1681 1.356 . S
N1679 H1684 0.984 . S
N1679 H1685 0.985 . S
C1680 C1674 1.379 . S
C1680 C1677 1.363 . S
C1680 N1678 1.356 . S
C1681 C1675 1.363 . S
C1681 C1676 1.379 . S
C1681 N1679 1.356 . S
N1682 C1674 1.356 . S
N1682 H1688 0.984 . S
N1682 H1689 0.984 . S
N1683 C1676 1.356 . S
N1683 H1686 0.984 . S
N1683 H1687 0.985 . S
H1684 N1679 0.984 . S
H1685 N1679 0.985 . S
H1686 N1683 0.984 . S
H1687 N1683 0.985 . S
H1688 N1682 0.984 . S
H1689 N1682 0.984 . S
H1690 N1678 0.984 . S
H1691 N1678 0.985 . S
C1692 C1693 1.363 . S
C1692 C1698 1.379 . S
C1692 N1700 1.356 . S
C1693 C1692 1.363 . S
C1693 C1699 1.363 . S
C1694 C1695 1.363 . S
C1694 C1699 1.379 . S
C1694 N1701 1.356 . S
C1695 C1694 1.363 . S
C1695 C1698 1.363 . S
N1696 C1698 1.356 . S
N1696 H1708 0.984 . S
N1696 H1709 0.985 . S
N1697 C1699 1.356 . S
N1697 H1702 0.984 . S
N1697 H1703 0.985 . S
C1698 C1692 1.379 . S
C1698 C1695 1.363 . S
C1698 N1696 1.356 . S
C1699 C1693 1.363 . S
C1699 C1694 1.379 . S
C1699 N1697 1.356 . S
N1700 C1692 1.356 . S
N1700 H1706 0.984 . S
N1700 H1707 0.984 . S
N1701 C1694 1.356 . S
N1701 H1704 0.984 1_655 S
N1701 H1705 0.985 1_655 S
H1702 N1697 0.984 . S
H1703 N1697 0.985 . S
H1704 N1701 0.984 1_455 S
H1705 N1701 0.985 1_455 S
H1706 N1700 0.984 . S
H1707 N1700 0.984 . S
H1708 N1696 0.984 . S
H1709 N1696 0.985 . S
C1710 C1711 1.363 . S
C1710 C1716 1.379 . S
C1710 N1718 1.356 . S
C1711 C1710 1.363 . S
C1711 C1717 1.363 . S
C1712 C1713 1.363 . S
C1712 C1717 1.379 . S
C1712 N1719 1.356 . S
C1713 C1712 1.363 . S
C1713 C1716 1.363 . S
N1714 C1716 1.356 . S
N1714 H1726 0.984 . S
N1714 H1727 0.985 . S
N1715 C1717 1.356 . S
N1715 H1720 0.984 . S
N1715 H1721 0.985 . S
C1716 C1710 1.379 . S
C1716 C1713 1.363 . S
C1716 N1714 1.356 . S
C1717 C1711 1.363 . S
C1717 C1712 1.379 . S
C1717 N1715 1.356 . S
N1718 C1710 1.356 . S
N1718 H1724 0.984 . S
N1718 H1725 0.984 . S
N1719 C1712 1.356 . S
N1719 H1722 0.984 . S
N1719 H1723 0.985 . S
H1720 N1715 0.984 . S
H1721 N1715 0.985 . S
H1722 N1719 0.984 . S
H1723 N1719 0.985 . S
H1724 N1718 0.984 . S
H1725 N1718 0.984 . S
H1726 N1714 0.984 . S
H1727 N1714 0.985 . S
C1728 C1729 1.363 . S
C1728 C1734 1.379 . S
C1728 N1736 1.356 . S
C1729 C1728 1.363 . S
C1729 C1735 1.363 . S
C1730 C1731 1.363 . S
C1730 C1735 1.379 . S
C1730 N1737 1.356 . S
C1731 C1730 1.363 . S
C1731 C1734 1.363 . S
N1732 C1734 1.356 . S
N1732 H1744 0.984 . S
N1732 H1745 0.985 . S
N1733 C1735 1.356 . S
N1733 H1738 0.984 . S
N1733 H1739 0.985 . S
C1734 C1728 1.379 . S
C1734 C1731 1.363 . S
C1734 N1732 1.356 . S
C1735 C1729 1.363 . S
C1735 C1730 1.379 . S
C1735 N1733 1.356 . S
N1736 C1728 1.356 . S
N1736 H1742 0.984 . S
N1736 H1743 0.984 . S
N1737 C1730 1.356 . S
N1737 H1740 0.984 . S
N1737 H1741 0.985 . S
H1738 N1733 0.984 . S
H1739 N1733 0.985 . S
H1740 N1737 0.984 . S
H1741 N1737 0.985 . S
H1742 N1736 0.984 . S
H1743 N1736 0.984 . S
H1744 N1732 0.984 . S
H1745 N1732 0.985 . S
C1746 C1747 1.363 . S
C1746 C1752 1.379 . S
C1746 N1754 1.356 . S
C1747 C1746 1.363 . S
C1747 C1753 1.363 . S
C1748 C1749 1.363 . S
C1748 C1753 1.379 . S
C1748 N1755 1.356 . S
C1749 C1748 1.363 . S
C1749 C1752 1.363 . S
N1750 C1752 1.356 . S
N1750 H1762 0.984 . S
N1750 H1763 0.985 . S
N1751 C1753 1.356 . S
N1751 H1756 0.984 . S
N1751 H1757 0.985 . S
C1752 C1746 1.379 . S
C1752 C1749 1.363 . S
C1752 N1750 1.356 . S
C1753 C1747 1.363 . S
C1753 C1748 1.379 . S
C1753 N1751 1.356 . S
N1754 C1746 1.356 . S
N1754 H1760 0.984 . S
N1754 H1761 0.984 . S
N1755 C1748 1.356 . S
N1755 H1758 0.984 . S
N1755 H1759 0.985 . S
H1756 N1751 0.984 . S
H1757 N1751 0.985 . S
H1758 N1755 0.984 . S
H1759 N1755 0.985 . S
H1760 N1754 0.984 . S
H1761 N1754 0.984 . S
H1762 N1750 0.984 . S
H1763 N1750 0.985 . S
C1764 C1765 1.363 . S
C1764 C1770 1.379 . S
C1764 N1772 1.356 . S
C1765 C1764 1.363 . S
C1765 C1771 1.363 . S
C1766 C1767 1.363 . S
C1766 C1771 1.379 . S
C1766 N1773 1.356 . S
C1767 C1766 1.363 . S
C1767 C1770 1.363 . S
N1768 C1770 1.356 . S
N1768 H1780 0.984 . S
N1768 H1781 0.985 . S
N1769 C1771 1.356 . S
N1769 H1774 0.984 . S
N1769 H1775 0.985 . S
C1770 C1764 1.379 . S
C1770 C1767 1.363 . S
C1770 N1768 1.356 . S
C1771 C1765 1.363 . S
C1771 C1766 1.379 . S
C1771 N1769 1.356 . S
N1772 C1764 1.356 . S
N1772 H1778 0.984 . S
N1772 H1779 0.984 . S
N1773 C1766 1.356 . S
N1773 H1776 0.984 . S
N1773 H1777 0.985 . S
H1774 N1769 0.984 . S
H1775 N1769 0.985 . S
H1776 N1773 0.984 . S
H1777 N1773 0.985 . S
H1778 N1772 0.984 . S
H1779 N1772 0.984 . S
H1780 N1768 0.984 . S
H1781 N1768 0.985 . S
C1782 C1783 1.363 . S
C1782 C1788 1.379 . S
C1782 N1790 1.356 . S
C1783 C1782 1.363 . S
C1783 C1789 1.363 . S
C1784 C1785 1.363 . S
C1784 C1789 1.379 . S
C1784 N1791 1.356 . S
C1785 C1784 1.363 . S
C1785 C1788 1.363 . S
N1786 C1788 1.356 . S
N1786 H1798 0.984 . S
N1786 H1799 0.985 . S
N1787 C1789 1.356 . S
N1787 H1792 0.984 . S
N1787 H1793 0.985 . S
C1788 C1782 1.379 . S
C1788 C1785 1.363 . S
C1788 N1786 1.356 . S
C1789 C1783 1.363 . S
C1789 C1784 1.379 . S
C1789 N1787 1.356 . S
N1790 C1782 1.356 . S
N1790 H1796 0.984 . S
N1790 H1797 0.984 . S
N1791 C1784 1.356 . S
N1791 H1794 0.984 . S
N1791 H1795 0.985 . S
H1792 N1787 0.984 . S
H1793 N1787 0.985 . S
H1794 N1791 0.984 . S
H1795 N1791 0.985 . S
H1796 N1790 0.984 . S
H1797 N1790 0.984 . S
H1798 N1786 0.984 . S
H1799 N1786 0.985 . S
C1800 C1801 1.363 . S
C1800 C1806 1.379 . S
C1800 N1808 1.356 . S
C1801 C1800 1.363 . S
C1801 C1807 1.363 . S
C1802 C1803 1.363 . S
C1802 C1807 1.379 . S
C1802 N1809 1.356 . S
C1803 C1802 1.363 . S
C1803 C1806 1.363 . S
N1804 C1806 1.356 . S
N1804 H1816 0.984 . S
N1804 H1817 0.985 . S
N1805 C1807 1.356 . S
N1805 H1810 0.984 . S
N1805 H1811 0.985 . S
C1806 C1800 1.379 . S
C1806 C1803 1.363 . S
C1806 N1804 1.356 . S
C1807 C1801 1.363 . S
C1807 C1802 1.379 . S
C1807 N1805 1.356 . S
N1808 C1800 1.356 . S
N1808 H1814 0.984 . S
N1808 H1815 0.984 . S
N1809 C1802 1.356 . S
N1809 H1812 0.984 . S
N1809 H1813 0.985 . S
H1810 N1805 0.984 . S
H1811 N1805 0.985 . S
H1812 N1809 0.984 . S
H1813 N1809 0.985 . S
H1814 N1808 0.984 . S
H1815 N1808 0.984 . S
H1816 N1804 0.984 . S
H1817 N1804 0.985 . S
C1818 C1819 1.363 . S
C1818 C1824 1.379 . S
C1818 N1826 1.356 . S
C1819 C1818 1.363 . S
C1819 C1825 1.363 . S
C1820 C1821 1.363 . S
C1820 C1825 1.379 . S
C1820 N1827 1.356 . S
C1821 C1820 1.363 . S
C1821 C1824 1.363 . S
N1822 C1824 1.356 1_545 S
N1822 H1834 0.984 . S
N1822 H1835 0.985 . S
N1823 C1825 1.356 . S
N1823 H1828 0.984 . S
N1823 H1829 0.985 . S
C1824 C1818 1.379 . S
C1824 C1821 1.363 . S
C1824 N1822 1.356 1_565 S
C1825 C1819 1.363 . S
C1825 C1820 1.379 . S
C1825 N1823 1.356 . S
N1826 C1818 1.356 . S
N1826 H1832 0.984 . S
N1826 H1833 0.984 . S
N1827 C1820 1.356 . S
N1827 H1830 0.984 . S
N1827 H1831 0.985 . S
H1828 N1823 0.984 . S
H1829 N1823 0.985 . S
H1830 N1827 0.984 . S
H1831 N1827 0.985 . S
H1832 N1826 0.984 . S
H1833 N1826 0.984 . S
H1834 N1822 0.984 . S
H1835 N1822 0.985 . S
C1836 C1837 1.363 . S
C1836 C1842 1.379 . S
C1836 N1844 1.356 . S
C1837 C1836 1.363 . S
C1837 C1843 1.363 . S
C1838 C1839 1.363 . S
C1838 C1843 1.379 . S
C1838 N1845 1.356 . S
C1839 C1838 1.363 . S
C1839 C1842 1.363 . S
N1840 C1842 1.356 . S
N1840 H1852 0.984 . S
N1840 H1853 0.985 . S
N1841 C1843 1.356 . S
N1841 H1846 0.984 . S
N1841 H1847 0.985 . S
C1842 C1836 1.379 . S
C1842 C1839 1.363 . S
C1842 N1840 1.356 . S
C1843 C1837 1.363 . S
C1843 C1838 1.379 . S
C1843 N1841 1.356 . S
N1844 C1836 1.356 . S
N1844 H1850 0.984 . S
N1844 H1851 0.984 . S
N1845 C1838 1.356 . S
N1845 H1848 0.984 . S
N1845 H1849 0.985 . S
H1846 N1841 0.984 . S
H1847 N1841 0.985 . S
H1848 N1845 0.984 . S
H1849 N1845 0.985 . S
H1850 N1844 0.984 . S
H1851 N1844 0.984 . S
H1852 N1840 0.984 . S
H1853 N1840 0.985 . S
C1854 C1855 1.363 1_556 S
C1854 C1860 1.379 . S
C1854 N1862 1.356 . S
C1855 C1854 1.363 1_554 S
C1855 C1861 1.363 . S
C1856 C1857 1.363 . S
C1856 C1861 1.379 . S
C1856 N1863 1.356 . S
C1857 C1856 1.363 . S
C1857 C1860 1.363 1_554 S
N1858 C1860 1.356 . S
N1858 H1870 0.984 . S
N1858 H1871 0.985 . S
N1859 C1861 1.356 . S
N1859 H1864 0.984 . S
N1859 H1865 0.985 . S
C1860 C1854 1.379 . S
C1860 C1857 1.363 1_556 S
C1860 N1858 1.356 . S
C1861 C1855 1.363 . S
C1861 C1856 1.379 . S
C1861 N1859 1.356 . S
N1862 C1854 1.356 . S
N1862 H1868 0.984 . S
N1862 H1869 0.984 . S
N1863 C1856 1.356 . S
N1863 H1866 0.984 . S
N1863 H1867 0.985 . S
H1864 N1859 0.984 . S
H1865 N1859 0.985 . S
H1866 N1863 0.984 . S
H1867 N1863 0.985 . S
H1868 N1862 0.984 . S
H1869 N1862 0.984 . S
H1870 N1858 0.984 . S
H1871 N1858 0.985 . S
C1872 C1873 1.363 . S
C1872 C1878 1.379 . S
C1872 N1880 1.356 . S
C1873 C1872 1.363 . S
C1873 C1879 1.363 . S
C1874 C1875 1.363 . S
C1874 C1879 1.379 . S
C1874 N1881 1.356 . S
C1875 C1874 1.363 . S
C1875 C1878 1.363 . S
N1876 C1878 1.356 . S
N1876 H1888 0.984 . S
N1876 H1889 0.985 . S
N1877 C1879 1.356 . S
N1877 H1882 0.984 . S
N1877 H1883 0.985 . S
C1878 C1872 1.379 . S
C1878 C1875 1.363 . S
C1878 N1876 1.356 . S
C1879 C1873 1.363 . S
C1879 C1874 1.379 . S
C1879 N1877 1.356 . S
N1880 C1872 1.356 . S
N1880 H1886 0.984 . S
N1880 H1887 0.984 . S
N1881 C1874 1.356 . S
N1881 H1884 0.984 . S
N1881 H1885 0.985 . S
H1882 N1877 0.984 . S
H1883 N1877 0.985 . S
H1884 N1881 0.984 . S
H1885 N1881 0.985 . S
H1886 N1880 0.984 . S
H1887 N1880 0.984 . S
H1888 N1876 0.984 . S
H1889 N1876 0.985 . S
C1890 C1891 1.363 . S
C1890 C1896 1.379 . S
C1890 N1898 1.356 . S
C1891 C1890 1.363 . S
C1891 C1897 1.363 1_556 S
C1892 C1893 1.363 1_554 S
C1892 C1897 1.379 . S
C1892 N1899 1.356 . S
C1893 C1892 1.363 1_556 S
C1893 C1896 1.363 . S
N1894 C1896 1.356 . S
N1894 H1906 0.984 . S
N1894 H1907 0.985 . S
N1895 C1897 1.356 . S
N1895 H1900 0.984 . S
N1895 H1901 0.985 . S
C1896 C1890 1.379 . S
C1896 C1893 1.363 . S
C1896 N1894 1.356 . S
C1897 C1891 1.363 1_554 S
C1897 C1892 1.379 . S
C1897 N1895 1.356 . S
N1898 C1890 1.356 . S
N1898 H1904 0.984 . S
N1898 H1905 0.984 . S
N1899 C1892 1.356 . S
N1899 H1902 0.984 . S
N1899 H1903 0.985 . S
H1900 N1895 0.984 . S
H1901 N1895 0.985 . S
H1902 N1899 0.984 . S
H1903 N1899 0.985 . S
H1904 N1898 0.984 . S
H1905 N1898 0.984 . S
H1906 N1894 0.984 . S
H1907 N1894 0.985 . S
C1908 C1909 1.363 . S
C1908 C1914 1.379 . S
C1908 N1916 1.356 . S
C1909 C1908 1.363 . S
C1909 C1915 1.363 . S
C1910 C1911 1.363 . S
C1910 C1915 1.379 . S
C1910 N1917 1.356 . S
C1911 C1910 1.363 . S
C1911 C1914 1.363 . S
N1912 C1914 1.356 . S
N1912 H1924 0.984 . S
N1912 H1925 0.985 . S
N1913 C1915 1.356 . S
N1913 H1918 0.984 . S
N1913 H1919 0.985 . S
C1914 C1908 1.379 . S
C1914 C1911 1.363 . S
C1914 N1912 1.356 . S
C1915 C1909 1.363 . S
C1915 C1910 1.379 . S
C1915 N1913 1.356 . S
N1916 C1908 1.356 . S
N1916 H1922 0.984 . S
N1916 H1923 0.984 . S
N1917 C1910 1.356 . S
N1917 H1920 0.984 . S
N1917 H1921 0.985 . S
H1918 N1913 0.984 . S
H1919 N1913 0.985 . S
H1920 N1917 0.984 . S
H1921 N1917 0.985 . S
H1922 N1916 0.984 . S
H1923 N1916 0.984 . S
H1924 N1912 0.984 . S
H1925 N1912 0.985 . S
C1926 C1927 1.363 . S
C1926 C1932 1.379 . S
C1926 N1934 1.356 . S
C1927 C1926 1.363 . S
C1927 C1933 1.363 . S
C1928 C1929 1.363 . S
C1928 C1933 1.379 . S
C1928 N1935 1.356 . S
C1929 C1928 1.363 . S
C1929 C1932 1.363 . S
N1930 C1932 1.356 . S
N1930 H1942 0.984 . S
N1930 H1943 0.985 . S
N1931 C1933 1.356 . S
N1931 H1936 0.984 . S
N1931 H1937 0.985 . S
C1932 C1926 1.379 . S
C1932 C1929 1.363 . S
C1932 N1930 1.356 . S
C1933 C1927 1.363 . S
C1933 C1928 1.379 . S
C1933 N1931 1.356 . S
N1934 C1926 1.356 . S
N1934 H1940 0.984 . S
N1934 H1941 0.984 . S
N1935 C1928 1.356 . S
N1935 H1938 0.984 . S
N1935 H1939 0.985 . S
H1936 N1931 0.984 . S
H1937 N1931 0.985 . S
H1938 N1935 0.984 . S
H1939 N1935 0.985 . S
H1940 N1934 0.984 . S
H1941 N1934 0.984 . S
H1942 N1930 0.984 . S
H1943 N1930 0.985 . S
C1944 C1945 1.363 . S
C1944 C1950 1.379 . S
C1944 N1952 1.356 . S
C1945 C1944 1.363 . S
C1945 C1951 1.363 . S
C1946 C1947 1.363 . S
C1946 C1951 1.379 . S
C1946 N1953 1.356 . S
C1947 C1946 1.363 . S
C1947 C1950 1.363 . S
N1948 C1950 1.356 . S
N1948 H1960 0.984 . S
N1948 H1961 0.985 . S
N1949 C1951 1.356 . S
N1949 H1954 0.984 . S
N1949 H1955 0.985 . S
C1950 C1944 1.379 . S
C1950 C1947 1.363 . S
C1950 N1948 1.356 . S
C1951 C1945 1.363 . S
C1951 C1946 1.379 . S
C1951 N1949 1.356 . S
N1952 C1944 1.356 . S
N1952 H1958 0.984 . S
N1952 H1959 0.984 . S
N1953 C1946 1.356 . S
N1953 H1956 0.984 . S
N1953 H1957 0.985 . S
H1954 N1949 0.984 . S
H1955 N1949 0.985 . S
H1956 N1953 0.984 . S
H1957 N1953 0.985 . S
H1958 N1952 0.984 . S
H1959 N1952 0.984 . S
H1960 N1948 0.984 . S
H1961 N1948 0.985 . S
C1962 C1963 1.363 . S
C1962 C1968 1.379 . S
C1962 N1970 1.356 . S
C1963 C1962 1.363 . S
C1963 C1969 1.363 . S
C1964 C1965 1.363 . S
C1964 C1969 1.379 . S
C1964 N1971 1.356 . S
C1965 C1964 1.363 . S
C1965 C1968 1.363 . S
N1966 C1968 1.356 . S
N1966 H1978 0.984 . S
N1966 H1979 0.985 . S
N1967 C1969 1.356 . S
N1967 H1972 0.984 . S
N1967 H1973 0.985 . S
C1968 C1962 1.379 . S
C1968 C1965 1.363 . S
C1968 N1966 1.356 . S
C1969 C1963 1.363 . S
C1969 C1964 1.379 . S
C1969 N1967 1.356 . S
N1970 C1962 1.356 . S
N1970 H1976 0.984 . S
N1970 H1977 0.984 . S
N1971 C1964 1.356 . S
N1971 H1974 0.984 . S
N1971 H1975 0.985 . S
H1972 N1967 0.984 . S
H1973 N1967 0.985 . S
H1974 N1971 0.984 . S
H1975 N1971 0.985 . S
H1976 N1970 0.984 . S
H1977 N1970 0.984 . S
H1978 N1966 0.984 . S
H1979 N1966 0.985 . S
C1980 C1981 1.363 . S
C1980 C1986 1.379 . S
C1980 N1988 1.356 . S
C1981 C1980 1.363 . S
C1981 C1987 1.363 1_455 S
C1982 C1983 1.365 . S
C1982 C1987 1.379 . S
C1982 N1989 1.356 . S
C1983 C1982 1.365 . S
C1983 C1986 1.360 1_655 S
N1984 C1986 1.356 . S
N1984 H1996 0.984 1_556 S
N1984 H1997 0.985 1_556 S
N1985 C1987 1.356 . S
N1985 H1990 0.984 . S
N1985 H1991 0.985 . S
C1986 C1980 1.379 . S
C1986 C1983 1.360 1_455 S
C1986 N1984 1.356 . S
C1987 C1981 1.363 1_655 S
C1987 C1982 1.379 . S
C1987 N1985 1.356 . S
N1988 C1980 1.356 . S
N1988 H1994 0.984 . S
N1988 H1995 0.984 . S
N1989 C1982 1.356 . S
N1989 H1992 0.984 . S
N1989 H1993 0.985 . S
H1990 N1985 0.984 . S
H1991 N1985 0.985 . S
H1992 N1989 0.984 . S
H1993 N1989 0.985 . S
H1994 N1988 0.984 . S
H1995 N1988 0.984 . S
H1996 N1984 0.984 1_554 S
H1997 N1984 0.985 1_554 S
C1998 C1999 1.363 . S
C1998 C2004 1.379 . S
C1998 N2006 1.356 . S
C1999 C1998 1.363 . S
C1999 C2005 1.363 . S
C2000 C2001 1.363 . S
C2000 C2005 1.379 . S
C2000 N2007 1.356 . S
C2001 C2000 1.363 . S
C2001 C2004 1.363 . S
N2002 C2004 1.356 . S
N2002 H2014 0.984 . S
N2002 H2015 0.985 . S
N2003 C2005 1.356 . S
N2003 H2008 0.984 . S
N2003 H2009 0.985 . S
C2004 C1998 1.379 . S
C2004 C2001 1.363 . S
C2004 N2002 1.356 . S
C2005 C1999 1.363 . S
C2005 C2000 1.379 . S
C2005 N2003 1.356 . S
N2006 C1998 1.356 . S
N2006 H2012 0.984 . S
N2006 H2013 0.984 . S
N2007 C2000 1.356 . S
N2007 H2010 0.984 . S
N2007 H2011 0.985 . S
H2008 N2003 0.984 . S
H2009 N2003 0.985 . S
H2010 N2007 0.984 . S
H2011 N2007 0.985 . S
H2012 N2006 0.984 . S
H2013 N2006 0.984 . S
H2014 N2002 0.984 . S
H2015 N2002 0.985 . S
C2016 C2017 1.363 . S
C2016 C2022 1.379 . S
C2016 N2024 1.356 . S
C2017 C2016 1.363 . S
C2017 C2023 1.363 . S
C2018 C2019 1.363 . S
C2018 C2023 1.379 . S
C2018 N2025 1.356 . S
C2019 C2018 1.363 . S
C2019 C2022 1.363 . S
N2020 C2022 1.356 . S
N2020 H2032 0.984 1_554 S
N2020 H2033 0.985 . S
N2021 C2023 1.356 . S
N2021 H2026 0.984 . S
N2021 H2027 0.985 . S
C2022 C2016 1.379 . S
C2022 C2019 1.363 . S
C2022 N2020 1.356 . S
C2023 C2017 1.363 . S
C2023 C2018 1.379 . S
C2023 N2021 1.356 . S
N2024 C2016 1.356 . S
N2024 H2030 0.984 . S
N2024 H2031 0.984 . S
N2025 C2018 1.356 . S
N2025 H2028 0.984 . S
N2025 H2029 0.985 . S
H2026 N2021 0.984 . S
H2027 N2021 0.985 . S
H2028 N2025 0.984 . S
H2029 N2025 0.985 . S
H2030 N2024 0.984 . S
H2031 N2024 0.984 . S
H2032 N2020 0.984 1_556 S
H2033 N2020 0.985 . S
C2034 C2035 1.363 . S
C2034 C2040 1.379 . S
C2034 N2042 1.356 . S
C2035 C2034 1.363 . S
C2035 C2041 1.363 . S
C2036 C2037 1.363 . S
C2036 C2041 1.379 . S
C2036 N2043 1.356 . S
C2037 C2036 1.363 . S
C2037 C2040 1.363 . S
N2038 C2040 1.356 . S
N2038 H2050 0.984 . S
N2038 H2051 0.985 . S
N2039 C2041 1.356 . S
N2039 H2044 0.984 . S
N2039 H2045 0.985 . S
C2040 C2034 1.379 . S
C2040 C2037 1.363 . S
C2040 N2038 1.356 . S
C2041 C2035 1.363 . S
C2041 C2036 1.379 . S
C2041 N2039 1.356 . S
N2042 C2034 1.356 . S
N2042 H2048 0.984 . S
N2042 H2049 0.984 . S
N2043 C2036 1.356 . S
N2043 H2046 0.984 . S
N2043 H2047 0.985 . S
H2044 N2039 0.984 . S
H2045 N2039 0.985 . S
H2046 N2043 0.984 . S
H2047 N2043 0.985 . S
H2048 N2042 0.984 . S
H2049 N2042 0.984 . S
H2050 N2038 0.984 . S
H2051 N2038 0.985 . S
C2052 C2053 1.363 1_655 S
C2052 C2058 1.379 . S
C2052 N2060 1.356 . S
C2053 C2052 1.363 1_455 S
C2053 C2059 1.363 . S
C2054 C2055 1.389 . S
C2054 C2059 1.379 . S
C2054 N2061 1.356 . S
C2055 C2054 1.389 . S
C2055 C2058 1.343 1_455 S
N2056 C2058 1.356 . S
N2056 H2068 0.984 . S
N2056 H2069 0.985 . S
N2057 C2059 1.356 . S
N2057 H2062 0.984 . S
N2057 H2063 0.985 . S
C2058 C2052 1.379 . S
C2058 C2055 1.343 1_655 S
C2058 N2056 1.356 . S
C2059 C2053 1.363 . S
C2059 C2054 1.379 . S
C2059 N2057 1.356 . S
N2060 C2052 1.356 . S
N2060 H2066 0.984 . S
N2060 H2067 0.984 . S
N2061 C2054 1.356 . S
N2061 H2064 0.984 . S
N2061 H2065 0.985 . S
H2062 N2057 0.984 . S
H2063 N2057 0.985 . S
H2064 N2061 0.984 . S
H2065 N2061 0.985 . S
H2066 N2060 0.984 . S
H2067 N2060 0.984 . S
H2068 N2056 0.984 . S
H2069 N2056 0.985 . S
C2070 C2071 1.363 . S
C2070 C2076 1.379 . S
C2070 N2078 1.356 . S
C2071 C2070 1.363 . S
C2071 C2077 1.363 . S
C2072 C2073 1.363 . S
C2072 C2077 1.379 . S
C2072 N2079 1.356 . S
C2073 C2072 1.363 . S
C2073 C2076 1.363 . S
N2074 C2076 1.356 . S
N2074 H2086 0.984 . S
N2074 H2087 0.985 . S
N2075 C2077 1.356 . S
N2075 H2080 0.984 . S
N2075 H2081 0.985 . S
C2076 C2070 1.379 . S
C2076 C2073 1.363 . S
C2076 N2074 1.356 . S
C2077 C2071 1.363 . S
C2077 C2072 1.379 . S
C2077 N2075 1.356 . S
N2078 C2070 1.356 . S
N2078 H2084 0.984 . S
N2078 H2085 0.984 . S
N2079 C2072 1.356 . S
N2079 H2082 0.984 . S
N2079 H2083 0.985 . S
H2080 N2075 0.984 . S
H2081 N2075 0.985 . S
H2082 N2079 0.984 . S
H2083 N2079 0.985 . S
H2084 N2078 0.984 . S
H2085 N2078 0.984 . S
H2086 N2074 0.984 . S
H2087 N2074 0.985 . S
C2088 C2089 1.363 . S
C2088 C2094 1.379 . S
C2088 N2096 1.356 . S
C2089 C2088 1.363 . S
C2089 C2095 1.363 . S
C2090 C2091 1.363 . S
C2090 C2095 1.379 . S
C2090 N2097 1.356 . S
C2091 C2090 1.363 . S
C2091 C2094 1.363 . S
N2092 C2094 1.356 . S
N2092 H2104 0.984 . S
N2092 H2105 0.985 . S
N2093 C2095 1.356 . S
N2093 H2098 0.984 . S
N2093 H2099 0.985 . S
C2094 C2088 1.379 . S
C2094 C2091 1.363 . S
C2094 N2092 1.356 . S
C2095 C2089 1.363 . S
C2095 C2090 1.379 . S
C2095 N2093 1.356 . S
N2096 C2088 1.356 . S
N2096 H2102 0.984 . S
N2096 H2103 0.984 . S
N2097 C2090 1.356 . S
N2097 H2100 0.984 . S
N2097 H2101 0.985 . S
H2098 N2093 0.984 . S
H2099 N2093 0.985 . S
H2100 N2097 0.984 . S
H2101 N2097 0.985 . S
H2102 N2096 0.984 . S
H2103 N2096 0.984 . S
H2104 N2092 0.984 . S
H2105 N2092 0.985 . S
C2106 C2107 1.363 . S
C2106 C2112 1.379 . S
C2106 N2114 1.356 . S
C2107 C2106 1.363 . S
C2107 C2113 1.363 . S
C2108 C2109 1.363 . S
C2108 C2113 1.379 . S
C2108 N2115 1.356 . S
C2109 C2108 1.363 . S
C2109 C2112 1.363 . S
N2110 C2112 1.356 . S
N2110 H2122 0.984 . S
N2110 H2123 0.985 . S
N2111 C2113 1.356 . S
N2111 H2116 0.984 . S
N2111 H2117 0.985 . S
C2112 C2106 1.379 . S
C2112 C2109 1.363 . S
C2112 N2110 1.356 . S
C2113 C2107 1.363 . S
C2113 C2108 1.379 . S
C2113 N2111 1.356 . S
N2114 C2106 1.356 . S
N2114 H2120 0.984 . S
N2114 H2121 0.984 . S
N2115 C2108 1.356 . S
N2115 H2118 0.984 . S
N2115 H2119 0.985 . S
H2116 N2111 0.984 . S
H2117 N2111 0.985 . S
H2118 N2115 0.984 . S
H2119 N2115 0.985 . S
H2120 N2114 0.984 . S
H2121 N2114 0.984 . S
H2122 N2110 0.984 . S
H2123 N2110 0.985 . S
C2124 C2125 1.363 . S
C2124 C2130 1.379 . S
C2124 N2132 1.356 . S
C2125 C2124 1.363 . S
C2125 C2131 1.363 . S
C2126 C2127 1.363 . S
C2126 C2131 1.379 . S
C2126 N2133 1.356 . S
C2127 C2126 1.363 . S
C2127 C2130 1.363 . S
N2128 C2130 1.356 . S
N2128 H2140 0.984 . S
N2128 H2141 0.985 . S
N2129 C2131 1.356 . S
N2129 H2134 0.984 . S
N2129 H2135 0.985 . S
C2130 C2124 1.379 . S
C2130 C2127 1.363 . S
C2130 N2128 1.356 . S
C2131 C2125 1.363 . S
C2131 C2126 1.379 . S
C2131 N2129 1.356 . S
N2132 C2124 1.356 . S
N2132 H2138 0.984 . S
N2132 H2139 0.984 . S
N2133 C2126 1.356 . S
N2133 H2136 0.984 . S
N2133 H2137 0.985 . S
H2134 N2129 0.984 . S
H2135 N2129 0.985 . S
H2136 N2133 0.984 . S
H2137 N2133 0.985 . S
H2138 N2132 0.984 . S
H2139 N2132 0.984 . S
H2140 N2128 0.984 . S
H2141 N2128 0.985 . S
C2142 C2143 1.363 . S
C2142 C2148 1.379 . S
C2142 N2150 1.356 . S
C2143 C2142 1.363 . S
C2143 C2149 1.363 . S
C2144 C2145 1.363 . S
C2144 C2149 1.379 . S
C2144 N2151 1.356 . S
C2145 C2144 1.363 . S
C2145 C2148 1.363 . S
N2146 C2148 1.356 . S
N2146 H2158 0.984 . S
N2146 H2159 0.985 . S
N2147 C2149 1.356 . S
N2147 H2152 0.984 . S
N2147 H2153 0.985 . S
C2148 C2142 1.379 . S
C2148 C2145 1.363 . S
C2148 N2146 1.356 . S
C2149 C2143 1.363 . S
C2149 C2144 1.379 . S
C2149 N2147 1.356 . S
N2150 C2142 1.356 . S
N2150 H2156 0.984 . S
N2150 H2157 0.984 . S
N2151 C2144 1.356 . S
N2151 H2154 0.984 . S
N2151 H2155 0.985 . S
H2152 N2147 0.984 . S
H2153 N2147 0.985 . S
H2154 N2151 0.984 . S
H2155 N2151 0.985 . S
H2156 N2150 0.984 . S
H2157 N2150 0.984 . S
H2158 N2146 0.984 . S
H2159 N2146 0.985 . S
C2160 C2161 1.363 . S
C2160 C2166 1.379 . S
C2160 N2168 1.356 . S
C2161 C2160 1.363 . S
C2161 C2167 1.363 . S
C2162 C2163 1.363 . S
C2162 C2167 1.379 . S
C2162 N2169 1.356 . S
C2163 C2162 1.363 . S
C2163 C2166 1.363 . S
N2164 C2166 1.356 . S
N2164 H2176 0.984 . S
N2164 H2177 0.985 . S
N2165 C2167 1.356 . S
N2165 H2170 0.984 . S
N2165 H2171 0.985 . S
C2166 C2160 1.379 . S
C2166 C2163 1.363 . S
C2166 N2164 1.356 . S
C2167 C2161 1.363 . S
C2167 C2162 1.379 . S
C2167 N2165 1.356 . S
N2168 C2160 1.356 . S
N2168 H2174 0.984 . S
N2168 H2175 0.984 . S
N2169 C2162 1.356 . S
N2169 H2172 0.984 . S
N2169 H2173 0.985 . S
H2170 N2165 0.984 . S
H2171 N2165 0.985 . S
H2172 N2169 0.984 . S
H2173 N2169 0.985 . S
H2174 N2168 0.984 . S
H2175 N2168 0.984 . S
H2176 N2164 0.984 . S
H2177 N2164 0.985 . S
C2178 C2179 1.363 . S
C2178 C2184 1.379 . S
C2178 N2186 1.356 . S
C2179 C2178 1.363 . S
C2179 C2185 1.363 . S
C2180 C2181 1.363 . S
C2180 C2185 1.379 . S
C2180 N2187 1.356 . S
C2181 C2180 1.363 . S
C2181 C2184 1.363 . S
N2182 C2184 1.356 . S
N2182 H2194 0.984 . S
N2182 H2195 0.985 . S
N2183 C2185 1.356 . S
N2183 H2188 0.984 . S
N2183 H2189 0.985 . S
C2184 C2178 1.379 . S
C2184 C2181 1.363 . S
C2184 N2182 1.356 . S
C2185 C2179 1.363 . S
C2185 C2180 1.379 . S
C2185 N2183 1.356 . S
N2186 C2178 1.356 . S
N2186 H2192 0.984 . S
N2186 H2193 0.984 . S
N2187 C2180 1.356 . S
N2187 H2190 0.984 . S
N2187 H2191 0.985 . S
H2188 N2183 0.984 . S
H2189 N2183 0.985 . S
H2190 N2187 0.984 . S
H2191 N2187 0.985 . S
H2192 N2186 0.984 . S
H2193 N2186 0.984 . S
H2194 N2182 0.984 . S
H2195 N2182 0.985 . S
C2196 C2197 1.363 . S
C2196 C2202 1.379 . S
C2196 N2204 1.356 . S
C2197 C2196 1.363 . S
C2197 C2203 1.363 . S
C2198 C2199 1.363 . S
C2198 C2203 1.379 . S
C2198 N2205 1.356 . S
C2199 C2198 1.363 . S
C2199 C2202 1.363 . S
N2200 C2202 1.356 . S
N2200 H2212 0.984 . S
N2200 H2213 0.985 . S
N2201 C2203 1.356 . S
N2201 H2206 0.984 . S
N2201 H2207 0.985 . S
C2202 C2196 1.379 . S
C2202 C2199 1.363 . S
C2202 N2200 1.356 . S
C2203 C2197 1.363 . S
C2203 C2198 1.379 . S
C2203 N2201 1.356 . S
N2204 C2196 1.356 . S
N2204 H2210 0.984 . S
N2204 H2211 0.984 . S
N2205 C2198 1.356 . S
N2205 H2208 0.984 . S
N2205 H2209 0.985 . S
H2206 N2201 0.984 . S
H2207 N2201 0.985 . S
H2208 N2205 0.984 . S
H2209 N2205 0.985 . S
H2210 N2204 0.984 . S
H2211 N2204 0.984 . S
H2212 N2200 0.984 . S
H2213 N2200 0.985 . S
C2214 C2215 1.363 . S
C2214 C2220 1.379 . S
C2214 N2222 1.356 . S
C2215 C2214 1.363 . S
C2215 C2221 1.363 . S
C2216 C2217 1.363 . S
C2216 C2221 1.379 . S
C2216 N2223 1.356 . S
C2217 C2216 1.363 . S
C2217 C2220 1.363 . S
N2218 C2220 1.356 . S
N2218 H2230 0.984 . S
N2218 H2231 0.985 . S
N2219 C2221 1.356 . S
N2219 H2224 0.984 . S
N2219 H2225 0.985 . S
C2220 C2214 1.379 . S
C2220 C2217 1.363 . S
C2220 N2218 1.356 . S
C2221 C2215 1.363 . S
C2221 C2216 1.379 . S
C2221 N2219 1.356 . S
N2222 C2214 1.356 . S
N2222 H2228 0.984 . S
N2222 H2229 0.984 . S
N2223 C2216 1.356 . S
N2223 H2226 0.984 . S
N2223 H2227 0.985 . S
H2224 N2219 0.984 . S
H2225 N2219 0.985 . S
H2226 N2223 0.984 . S
H2227 N2223 0.985 . S
H2228 N2222 0.984 . S
H2229 N2222 0.984 . S
H2230 N2218 0.984 . S
H2231 N2218 0.985 . S
C2232 C2233 1.363 . S
C2232 C2238 1.379 . S
C2232 N2240 1.356 . S
C2233 C2232 1.363 . S
C2233 C2239 1.363 . S
C2234 C2235 1.363 . S
C2234 C2239 1.379 . S
C2234 N2241 1.356 . S
C2235 C2234 1.363 . S
C2235 C2238 1.363 . S
N2236 C2238 1.356 . S
N2236 H2248 0.984 . S
N2236 H2249 0.985 . S
N2237 C2239 1.356 . S
N2237 H2242 0.984 . S
N2237 H2243 0.985 . S
C2238 C2232 1.379 . S
C2238 C2235 1.363 . S
C2238 N2236 1.356 . S
C2239 C2233 1.363 . S
C2239 C2234 1.379 . S
C2239 N2237 1.356 . S
N2240 C2232 1.356 . S
N2240 H2246 0.984 . S
N2240 H2247 0.984 . S
N2241 C2234 1.356 . S
N2241 H2244 0.984 . S
N2241 H2245 0.985 . S
H2242 N2237 0.984 . S
H2243 N2237 0.985 . S
H2244 N2241 0.984 . S
H2245 N2241 0.985 . S
H2246 N2240 0.984 . S
H2247 N2240 0.984 . S
H2248 N2236 0.984 . S
H2249 N2236 0.985 . S
C2250 C2251 1.363 . S
C2250 C2256 1.379 . S
C2250 N2258 1.356 . S
C2251 C2250 1.363 . S
C2251 C2257 1.363 . S
C2252 C2253 1.363 . S
C2252 C2257 1.379 . S
C2252 N2259 1.356 . S
C2253 C2252 1.363 . S
C2253 C2256 1.363 . S
N2254 C2256 1.356 . S
N2254 H2266 0.984 . S
N2254 H2267 0.985 . S
N2255 C2257 1.356 . S
N2255 H2260 0.984 . S
N2255 H2261 0.985 . S
C2256 C2250 1.379 . S
C2256 C2253 1.363 . S
C2256 N2254 1.356 . S
C2257 C2251 1.363 . S
C2257 C2252 1.379 . S
C2257 N2255 1.356 . S
N2258 C2250 1.356 . S
N2258 H2264 0.984 . S
N2258 H2265 0.984 . S
N2259 C2252 1.356 . S
N2259 H2262 0.984 . S
N2259 H2263 0.985 . S
H2260 N2255 0.984 . S
H2261 N2255 0.985 . S
H2262 N2259 0.984 . S
H2263 N2259 0.985 . S
H2264 N2258 0.984 . S
H2265 N2258 0.984 . S
H2266 N2254 0.984 . S
H2267 N2254 0.985 . S
C2268 C2269 1.363 . S
C2268 C2274 1.379 . S
C2268 N2276 1.356 . S
C2269 C2268 1.363 . S
C2269 C2275 1.363 . S
C2270 C2271 1.363 . S
C2270 C2275 1.379 . S
C2270 N2277 1.356 . S
C2271 C2270 1.363 . S
C2271 C2274 1.363 . S
N2272 C2274 1.356 . S
N2272 H2284 0.984 . S
N2272 H2285 0.985 . S
N2273 C2275 1.356 . S
N2273 H2278 0.984 . S
N2273 H2279 0.985 . S
C2274 C2268 1.379 . S
C2274 C2271 1.363 . S
C2274 N2272 1.356 . S
C2275 C2269 1.363 . S
C2275 C2270 1.379 . S
C2275 N2273 1.356 . S
N2276 C2268 1.356 . S
N2276 H2282 0.984 . S
N2276 H2283 0.984 . S
N2277 C2270 1.356 . S
N2277 H2280 0.984 . S
N2277 H2281 0.985 . S
H2278 N2273 0.984 . S
H2279 N2273 0.985 . S
H2280 N2277 0.984 . S
H2281 N2277 0.985 . S
H2282 N2276 0.984 . S
H2283 N2276 0.984 . S
H2284 N2272 0.984 . S
H2285 N2272 0.985 . S
C2286 C2287 1.363 . S
C2286 C2292 1.379 . S
C2286 N2294 1.356 . S
C2287 C2286 1.363 . S
C2287 C2293 1.363 1_554 S
C2288 C2289 1.387 . S
C2288 C2293 1.379 . S
C2288 N2295 1.356 . S
C2289 C2288 1.387 . S
C2289 C2292 1.330 1_556 S
N2290 C2292 1.356 . S
N2290 H2302 0.984 . S
N2290 H2303 0.985 . S
N2291 C2293 1.356 . S
N2291 H2296 0.984 . S
N2291 H2297 0.985 . S
C2292 C2286 1.379 . S
C2292 C2289 1.330 1_554 S
C2292 N2290 1.356 . S
C2293 C2287 1.363 1_556 S
C2293 C2288 1.379 . S
C2293 N2291 1.356 . S
N2294 C2286 1.356 . S
N2294 H2300 0.984 . S
N2294 H2301 0.984 . S
N2295 C2288 1.356 . S
N2295 H2298 0.984 . S
N2295 H2299 0.985 . S
H2296 N2291 0.984 . S
H2297 N2291 0.985 . S
H2298 N2295 0.984 . S
H2299 N2295 0.985 . S
H2300 N2294 0.984 . S
H2301 N2294 0.984 . S
H2302 N2290 0.984 . S
H2303 N2290 0.985 . S
C2304 C2305 1.363 . S
C2304 C2310 1.379 . S
C2304 N2312 1.356 . S
C2305 C2304 1.363 . S
C2305 C2311 1.363 . S
C2306 C2307 1.363 . S
C2306 C2311 1.379 . S
C2306 N2313 1.356 . S
C2307 C2306 1.363 . S
C2307 C2310 1.363 . S
N2308 C2310 1.356 . S
N2308 H2320 0.984 . S
N2308 H2321 0.985 . S
N2309 C2311 1.356 . S
N2309 H2314 0.984 . S
N2309 H2315 0.985 . S
C2310 C2304 1.379 . S
C2310 C2307 1.363 . S
C2310 N2308 1.356 . S
C2311 C2305 1.363 . S
C2311 C2306 1.379 . S
C2311 N2309 1.356 . S
N2312 C2304 1.356 . S
N2312 H2318 0.984 . S
N2312 H2319 0.984 . S
N2313 C2306 1.356 . S
N2313 H2316 0.984 . S
N2313 H2317 0.985 . S
H2314 N2309 0.984 . S
H2315 N2309 0.985 . S
H2316 N2313 0.984 . S
H2317 N2313 0.985 . S
H2318 N2312 0.984 . S
H2319 N2312 0.984 . S
H2320 N2308 0.984 . S
H2321 N2308 0.985 . S
C2322 C2323 1.384 . S
C2322 C2328 1.379 . S
C2322 N2330 1.356 . S
C2323 C2322 1.384 . S
C2323 C2329 1.334 1_556 S
C2324 C2325 1.363 . S
C2324 C2329 1.379 . S
C2324 N2331 1.356 . S
C2325 C2324 1.363 . S
C2325 C2328 1.363 1_554 S
N2326 C2328 1.356 . S
N2326 H2338 0.984 . S
N2326 H2339 0.985 . S
N2327 C2329 1.356 . S
N2327 H2332 0.984 . S
N2327 H2333 0.985 . S
C2328 C2322 1.379 . S
C2328 C2325 1.363 1_556 S
C2328 N2326 1.356 . S
C2329 C2323 1.334 1_554 S
C2329 C2324 1.379 . S
C2329 N2327 1.356 . S
N2330 C2322 1.356 . S
N2330 H2336 0.984 . S
N2330 H2337 0.984 . S
N2331 C2324 1.356 . S
N2331 H2334 0.984 . S
N2331 H2335 0.985 . S
H2332 N2327 0.984 . S
H2333 N2327 0.985 . S
H2334 N2331 0.984 . S
H2335 N2331 0.985 . S
H2336 N2330 0.984 . S
H2337 N2330 0.984 . S
H2338 N2326 0.984 . S
H2339 N2326 0.985 . S
C2340 C2341 1.363 . S
C2340 C2346 1.379 . S
C2340 N2348 1.356 . S
C2341 C2340 1.363 . S
C2341 C2347 1.363 . S
C2342 C2343 1.363 . S
C2342 C2347 1.379 . S
C2342 N2349 1.356 . S
C2343 C2342 1.363 . S
C2343 C2346 1.363 . S
N2344 C2346 1.356 . S
N2344 H2356 0.984 . S
N2344 H2357 0.985 . S
N2345 C2347 1.356 . S
N2345 H2350 0.984 . S
N2345 H2351 0.985 . S
C2346 C2340 1.379 . S
C2346 C2343 1.363 . S
C2346 N2344 1.356 . S
C2347 C2341 1.363 . S
C2347 C2342 1.379 . S
C2347 N2345 1.356 . S
N2348 C2340 1.356 . S
N2348 H2354 0.984 . S
N2348 H2355 0.984 . S
N2349 C2342 1.356 . S
N2349 H2352 0.984 . S
N2349 H2353 0.985 . S
H2350 N2345 0.984 . S
H2351 N2345 0.985 . S
H2352 N2349 0.984 . S
H2353 N2349 0.985 . S
H2354 N2348 0.984 . S
H2355 N2348 0.984 . S
H2356 N2344 0.984 . S
H2357 N2344 0.985 . S
C2358 C2359 1.363 . S
C2358 C2364 1.379 . S
C2358 N2366 1.356 . S
C2359 C2358 1.363 . S
C2359 C2365 1.363 . S
C2360 C2361 1.363 . S
C2360 C2365 1.379 . S
C2360 N2367 1.356 . S
C2361 C2360 1.363 . S
C2361 C2364 1.363 . S
N2362 C2364 1.356 . S
N2362 H2374 0.984 . S
N2362 H2375 0.985 . S
N2363 C2365 1.356 . S
N2363 H2368 0.984 . S
N2363 H2369 0.985 . S
C2364 C2358 1.379 . S
C2364 C2361 1.363 . S
C2364 N2362 1.356 . S
C2365 C2359 1.363 . S
C2365 C2360 1.379 . S
C2365 N2363 1.356 . S
N2366 C2358 1.356 . S
N2366 H2372 0.984 . S
N2366 H2373 0.984 . S
N2367 C2360 1.356 . S
N2367 H2370 0.984 . S
N2367 H2371 0.985 . S
H2368 N2363 0.984 . S
H2369 N2363 0.985 . S
H2370 N2367 0.984 . S
H2371 N2367 0.985 . S
H2372 N2366 0.984 . S
H2373 N2366 0.984 . S
H2374 N2362 0.984 . S
H2375 N2362 0.985 . S
C651 C328 1.436 . S
C649 C10 1.544 . S
C667 C23 1.425 . S
C669 C348 1.369 . S
C685 C36 1.533 . S
C687 C370 1.437 . S
C705 C389 1.500 . S
C703 C42 1.519 . S
C721 C18 1.505 1_655 S
C723 C410 1.491 . S
C741 C433 1.505 . S
C739 C31 1.598 . S
C759 C456 1.352 . S
C757 C43 1.411 . S
C775 C5 1.519 . S
C777 C474 1.450 . S
C793 C56 1.511 . S
C795 C330 1.444 . S
C811 C70 1.527 . S
C813 C350 1.515 . S
C831 C372 1.369 . S
C829 C82 1.426 . S
C849 C391 1.479 . S
C847 C96 1.582 . S
C865 C57 1.598 . S
C867 C412 1.504 . S
C885 C435 1.345 . S
C883 C69 1.400 . S
C903 C452 1.501 . S
C901 C83 1.520 1_565 S
C921 C476 1.498 . S
C919 C95 1.511 . S
C939 C326 1.500 . S
C937 C94 1.516 1_556 S
C957 C498 1.344 . S
C955 C108 1.399 . S
C973 C122 1.504 . S
C975 C515 1.492 . S
C993 C538 1.476 . S
C991 C140 1.576 . S
C1009 C55 1.550 . S
C1011 C472 1.440 . S
C1029 C368 1.516 . S
C1027 C68 1.527 . S
C1045 C121 1.414 . S
C1047 C561 1.354 . S
C1065 C577 1.438 . S
C1063 C153 1.534 . S
C1081 C161 1.334 . S
C1083 C325 1.273 . S
C1101 C578 1.270 . S
C1099 C174 1.292 . S
C1117 C186 1.392 . S
C1119 C367 1.329 . S
C1135 C200 1.266 . S
C1137 C558 1.241 . S
C1155 C411 1.234 . S
C1153 C172 1.262 . S
C1173 C514 1.295 . S
C1171 C192 1.363 . S
C1191 C455 1.292 . S
C1189 C198 1.310 . S
C1209 C599 1.357 . S
C1207 C159 1.374 . S
C1227 C329 1.355 . S
C1225 C211 1.372 . S
C1243 C225 1.260 . S
C1245 C582 1.228 . S
C1263 C371 1.267 1_545 S
C1261 C239 1.289 . S
C1279 C251 1.347 . S
C1281 C556 1.296 . S
C1297 C218 1.366 . S
C1299 C409 1.298 . S
C1315 C226 1.315 . S
C1317 C518 1.291 . S
C1335 C453 1.230 . S
C1333 C238 1.257 1_545 S
C1351 C252 1.297 . S
C1353 C603 1.265 . S
C1369 C250 1.299 . S
C1371 C327 1.267 . S
C1387 C264 1.312 . S
C1389 C497 1.284 1_554 S
C1405 C276 1.259 . S
C1407 C432 1.231 . S
C1423 C290 1.348 . S
C1425 C535 1.298 . S
C1443 C601 1.272 . S
C1441 C213 1.333 . S
C1461 C369 1.235 . S
C1459 C224 1.266 . S
C1479 C392 1.285 . S
C1477 C283 1.305 . S
C1497 C349 1.335 . S
C1495 C303 1.396 . S
C1513 C29 1.551 . S
C1515 C622 1.440 . S
C1533 C579 1.368 . S
C1531 C49 1.425 . S
C1551 C643 1.442 . S
C1549 C3 1.540 . S
C1567 C16 1.519 . S
C1569 C557 1.499 . S
C1585 C44 1.505 . S
C1587 C494 1.492 . S
C1605 C517 1.500 . S
C1603 C4 1.590 . S
C1623 C540 1.352 . S
C1621 C17 1.412 . S
C1641 C600 1.445 . S
C1639 C30 1.512 . S
C1659 C624 1.445 . S
C1657 C147 1.513 . S
C1675 C107 1.529 . S
C1677 C581 1.517 . S
C1693 C127 1.427 . S
C1695 C645 1.370 . S
C1713 C559 1.481 . S
C1711 C135 1.584 . S
C1731 C496 1.502 . S
C1729 C148 1.595 . S
C1747 C114 1.399 . S
C1749 C519 1.345 . S
C1767 C536 1.499 . S
C1765 C120 1.518 . S
C1783 C134 1.510 . S
C1785 C602 1.496 . S
C1803 C620 1.501 . S
C1801 C133 1.516 . S
C1821 C414 1.346 . S
C1819 C75 1.400 . S
C1839 C431 1.492 . S
C1837 C81 1.505 . S
C1855 C101 1.578 . S
C1857 C454 1.477 . S
C1875 C598 1.439 . S
C1873 C146 1.549 . S
C1891 C109 1.529 . S
C1893 C641 1.516 . S
C1911 C393 1.352 . S
C1909 C88 1.412 . S
C1929 C346 1.436 . S
C1927 C62 1.532 . S
C1945 C187 1.334 . S
C1947 C619 1.273 . S
C1965 C347 1.262 . S
C1963 C199 1.285 . S
C1983 C640 1.331 . S
C1981 C160 1.392 . S
C1999 C173 1.260 . S
C2001 C390 1.233 . S
C2017 C205 1.256 . S
C2019 C495 1.226 . S
C2035 C166 1.363 . S
C2037 C430 1.295 . S
C2053 C179 1.304 . S
C2055 C539 1.277 1_455 S
C2071 C185 1.374 . S
C2073 C473 1.357 . S
C2091 C623 1.356 . S
C2089 C302 1.373 . S
C2107 C270 1.264 . S
C2109 C351 1.231 . S
C2127 C644 1.269 . S
C2125 C278 1.290 . S
C2143 C296 1.350 . S
C2145 C388 1.299 . S
C2161 C309 1.369 . S
C2163 C493 1.302 . S
C2181 C434 1.293 . S
C2179 C263 1.316 . S
C2197 C277 1.261 . S
C2199 C537 1.234 . S
C2217 C477 1.266 . S
C2215 C289 1.298 . S
C2235 C621 1.267 . S
C2233 C291 1.299 . S
C2253 C413 1.285 . S
C2251 C231 1.311 . S
C2269 C237 1.259 . S
C2271 C516 1.231 . S
C2289 C451 1.314 . S
C2287 C257 1.346 . S
C2307 C475 1.272 . S
C2305 C304 1.332 . S
C2323 C265 1.267 . S
C2325 C642 1.235 . S
C2343 C560 1.283 . S
C2341 C244 1.303 . S
C2361 C580 1.333 . S
C2359 C212 1.394 . S
