# Generated by pormake.
# Topology pyr, (3,6)-cn, num edge types: 1
# Building blocks:
#     Node 0, Type 0, BuildingBlock: OLANEW_clean_sbu_2, # of connection points: 3
#     Node 1, Type 0, BuildingBlock: OLANEW_clean_sbu_2, # of connection points: 3
#     Node 2, Type 0, BuildingBlock: OLANEW_clean_sbu_2, # of connection points: 3
#     Node 3, Type 0, BuildingBlock: OLANEW_clean_sbu_2, # of connection points: 3
#     Node 4, Type 0, BuildingBlock: OLANEW_clean_sbu_2, # of connection points: 3
#     Node 5, Type 0, BuildingBlock: OLANEW_clean_sbu_2, # of connection points: 3
#     Node 6, Type 0, BuildingBlock: OLANEW_clean_sbu_2, # of connection points: 3
#     Node 7, Type 0, BuildingBlock: OLANEW_clean_sbu_2, # of connection points: 3
#     Node 8, Type 1, BuildingBlock: MIDCAF_clean_sbu_0, # of connection points: 6
#     Node 9, Type 1, BuildingBlock: MIDCAF_clean_sbu_0, # of connection points: 6
#     Node 10, Type 1, BuildingBlock: MIDCAF_clean_sbu_0, # of connection points: 6
#     Node 11, Type 1, BuildingBlock: MIDCAF_clean_sbu_0, # of connection points: 6
#     Edge 12, Type (0, 1), BuildingBlock: OJICUG_clean_linker_0, # of connection points: 2
#     Edge 13, Type (0, 1), BuildingBlock: OJICUG_clean_linker_0, # of connection points: 2
#     Edge 14, Type (0, 1), BuildingBlock: OJICUG_clean_linker_0, # of connection points: 2
#     Edge 15, Type (0, 1), BuildingBlock: OJICUG_clean_linker_0, # of connection points: 2
#     Edge 16, Type (0, 1), BuildingBlock: OJICUG_clean_linker_0, # of connection points: 2
#     Edge 17, Type (0, 1), BuildingBlock: OJICUG_clean_linker_0, # of connection points: 2
#     Edge 18, Type (0, 1), BuildingBlock: OJICUG_clean_linker_0, # of connection points: 2
#     Edge 19, Type (0, 1), BuildingBlock: OJICUG_clean_linker_0, # of connection points: 2
#     Edge 20, Type (0, 1), BuildingBlock: OJICUG_clean_linker_0, # of connection points: 2
#     Edge 21, Type (0, 1), BuildingBlock: OJICUG_clean_linker_0, # of connection points: 2
#     Edge 22, Type (0, 1), BuildingBlock: OJICUG_clean_linker_0, # of connection points: 2
#     Edge 23, Type (0, 1), BuildingBlock: OJICUG_clean_linker_0, # of connection points: 2
#     Edge 24, Type (0, 1), BuildingBlock: OJICUG_clean_linker_0, # of connection points: 2
#     Edge 25, Type (0, 1), BuildingBlock: OJICUG_clean_linker_0, # of connection points: 2
#     Edge 26, Type (0, 1), BuildingBlock: OJICUG_clean_linker_0, # of connection points: 2
#     Edge 27, Type (0, 1), BuildingBlock: OJICUG_clean_linker_0, # of connection points: 2
#     Edge 28, Type (0, 1), BuildingBlock: OJICUG_clean_linker_0, # of connection points: 2
#     Edge 29, Type (0, 1), BuildingBlock: OJICUG_clean_linker_0, # of connection points: 2
#     Edge 30, Type (0, 1), BuildingBlock: OJICUG_clean_linker_0, # of connection points: 2
#     Edge 31, Type (0, 1), BuildingBlock: OJICUG_clean_linker_0, # of connection points: 2
#     Edge 32, Type (0, 1), BuildingBlock: OJICUG_clean_linker_0, # of connection points: 2
#     Edge 33, Type (0, 1), BuildingBlock: OJICUG_clean_linker_0, # of connection points: 2
#     Edge 34, Type (0, 1), BuildingBlock: OJICUG_clean_linker_0, # of connection points: 2
#     Edge 35, Type (0, 1), BuildingBlock: OJICUG_clean_linker_0, # of connection points: 2
# Relax obj value: 0.080
# Max RMSD: 0.155
# Mean RMSD: 0.117
data_MOF--net-pyr--node1-OLANEW_clean_sbu_2--node2-MIDCAF_clean_sbu_0--edge1-OJICUG_clean_linker_0
_symmetry_space_group_name_H-M    P1
_symmetry_Int_Tables_number       1
_symmetry_cell_setting            triclinic
loop_
_symmetry_equiv_pos_as_xyz
'x, y, z'
_cell_length_a     27.808661
_cell_length_b     27.99012
_cell_length_c     27.362036
_cell_angle_alpha  95.08925
_cell_angle_beta   90.362423
_cell_angle_gamma 95.621032
loop_
_atom_site_label
_atom_site_type_symbol
_atom_site_fract_x
_atom_site_fract_y
_atom_site_fract_z
_atom_type_partial_charge
O0 O 0.33223 0.25066 0.22976 0.0
Cd1 Cd 0.27582 0.30199 0.27291 0.0
O2 O 0.34386 0.20757 0.29167 0.0
Cd3 Cd 0.28948 0.23649 0.34014 0.0
O4 O 0.2374 0.20975 0.39333 0.0
C5 C 0.2519 0.17565 0.41548 0.0
O6 O 0.29558 0.16322 0.40652 0.0
C7 C 0.35315 0.21768 0.24814 0.0
C8 C 0.21977 0.35273 0.21314 0.0
O9 O 0.26045 0.37212 0.23118 0.0
O10 O 0.20629 0.30939 0.22244 0.0
O11 O 0.34802 0.74609 0.92947 0.0
Cd12 Cd 0.30128 0.68091 0.8782 0.0
O13 O 0.30355 0.79118 0.89132 0.0
Cd14 Cd 0.26681 0.84821 0.8603 0.0
O15 O 0.21835 0.86843 0.8031 0.0
C16 C 0.19262 0.90374 0.80655 0.0
O17 O 0.19455 0.93268 0.84718 0.0
C18 C 0.33747 0.78808 0.92214 0.0
C19 C 0.35455 0.64718 0.79834 0.0
O20 O 0.33405 0.68617 0.79774 0.0
O21 O 0.34962 0.62376 0.83647 0.0
O22 O 0.87498 0.35088 0.77531 0.0
Cd23 Cd 0.82112 0.3045 0.71247 0.0
O24 O 0.84006 0.30213 0.82496 0.0
Cd25 Cd 0.81201 0.2633 0.88699 0.0
O26 O 0.75476 0.21571 0.918 0.0
C27 C 0.75928 0.18816 0.95198 0.0
O28 O 0.8018 0.18737 0.97293 0.0
C29 C 0.87092 0.33775 0.81855 0.0
C30 C 0.74618 0.3549 0.68108 0.0
O31 O 0.74311 0.33401 0.72092 0.0
O32 O 0.78474 0.35219 0.65598 0.0
O33 O 0.89431 0.87881 0.27721 0.0
Cd34 Cd 0.85507 0.83428 0.20385 0.0
O35 O 0.84407 0.83038 0.31518 0.0
Cd36 Cd 0.8098 0.8006 0.37855 0.0
O37 O 0.76694 0.75871 0.42892 0.0
C38 C 0.72159 0.74941 0.42223 0.0
O39 O 0.70064 0.76651 0.38522 0.0
C40 C 0.87806 0.86432 0.31718 0.0
C41 C 0.89782 0.75119 0.1699 0.0
O42 O 0.90627 0.79048 0.14931 0.0
O43 O 0.86979 0.75121 0.20688 0.0
O44 O 0.979 0.94478 0.91244 0.0
Cd45 Cd 0.94711 0.90915 0.98596 0.0
O46 O 0.93258 0.89279 0.86348 0.0
Cd47 Cd 0.88337 0.87936 0.92294 0.0
O48 O 0.82663 0.90194 0.97149 0.0
C49 C 0.79885 0.93155 0.95708 0.0
O50 O 0.80471 0.94667 0.9132 0.0
C51 C 0.96701 0.92621 0.8694 0.0
C52 C 0.97994 0.8188 0.99342 0.0
O53 O 0.94345 0.82384 0.96625 0.0
O54 O 1.00088 0.85643 0.01776 0.0
O55 O 0.58336 0.97862 0.39975 0.0
Cd56 Cd 0.62012 0.94289 0.46789 0.0
O57 O 0.60143 0.05104 0.43633 0.0
Cd58 Cd 0.60466 0.12954 0.44561 0.0
O59 O 0.60026 0.20694 0.45927 0.0
C60 C 0.60309 0.22954 0.50182 0.0
O61 O 0.61006 0.2059 0.54023 0.0
C62 C 0.58264 0.024 0.39996 0.0
C63 C 0.71869 0.97181 0.4842 0.0
O64 O 0.70517 0.93178 0.45919 0.0
O65 O 0.6859 0.99793 0.50052 0.0
O66 O 0.59211 0.71603 0.14607 0.0
Cd67 Cd 0.62919 0.6468 0.17255 0.0
O68 O 0.52217 0.68221 0.168 0.0
Cd69 Cd 0.4438 0.67313 0.17548 0.0
O70 O 0.3674 0.64714 0.16577 0.0
C71 C 0.35425 0.6028 0.15367 0.0
O72 O 0.38723 0.57222 0.14879 0.0
C73 C 0.54674 0.71721 0.15034 0.0
C74 C 0.59853 0.62561 0.26578 0.0
O75 O 0.63942 0.64986 0.26053 0.0
O76 O 0.57277 0.61142 0.22728 0.0
O77 O 0.10398 0.56453 0.70943 0.0
Cd78 Cd 0.13655 0.59718 0.63558 0.0
O79 O 0.13156 0.49658 0.68299 0.0
Cd80 Cd 0.14609 0.42109 0.68024 0.0
O81 O 0.1454 0.34431 0.65727 0.0
C82 C 0.13356 0.32938 0.61316 0.0
O83 O 0.1241 0.3609 0.58247 0.0
C84 C 0.11015 0.52115 0.71599 0.0
C85 C 0.22955 0.57029 0.62002 0.0
O86 O 0.22317 0.6109 0.64334 0.0
O87 O 0.19212 0.543 0.60378 0.0
Zn88 Zn 0.97425 0.08208 0.62924 0.0
Zn89 Zn 0.07893 0.95365 0.53568 0.0
Zn90 Zn 0.02565 0.02034 0.57839 0.0
C91 C 0.11951 0.04855 0.51696 0.0
C92 C 0.98774 0.94033 0.48971 0.0
O93 O 0.02111 1.00214 0.655 0.0
O94 O 0.97883 0.05627 0.69418 0.0
C95 C 0.05032 0.13704 0.59128 0.0
O96 O 0.08418 0.06204 0.54321 0.0
O97 O 0.125 0.00423 0.50854 0.0
O98 O 0.02611 0.9199 0.49219 0.0
O99 O 0.98162 0.97827 0.51846 0.0
O100 O 0.01424 0.14178 0.61825 0.0
O101 O 0.05967 0.09506 0.57273 0.0
O102 O 0.9507 0.00768 0.54712 0.0
O103 O 0.91444 0.06456 0.58941 0.0
C104 C 0.91277 0.02983 0.55643 0.0
O105 O 0.05956 0.97833 0.63346 0.0
O106 O 0.10128 0.92412 0.59394 0.0
C107 C 1.00143 0.01934 0.69442 0.0
C108 C 0.08798 0.94448 0.6339 0.0
Zn109 Zn 0.49138 0.05246 0.03012 0.0
Zn110 Zn 0.57829 0.97885 0.15154 0.0
Zn111 Zn 0.53241 0.00977 0.09511 0.0
C112 C 0.63891 0.97935 0.07869 0.0
C113 C 0.50895 0.90817 0.13086 0.0
O114 O 0.49275 0.06382 0.13819 0.0
O115 O 0.45803 0.0953 0.07753 0.0
C116 C 0.58823 0.07664 0.01614 0.0
O117 O 0.60856 0.00961 0.06957 0.0
O118 O 0.63084 0.95323 0.11347 0.0
O119 O 0.52686 0.92874 0.17074 0.0
O120 O 0.51003 0.93202 0.09265 0.0
O121 O 0.54818 0.08389 0.99761 0.0
O122 O 0.58917 0.04842 0.051 0.0
O123 O 0.48148 0.95302 0.05462 0.0
O124 O 0.45327 0.9943 0.99759 0.0
C125 C 0.45416 0.95492 0.01672 0.0
O126 O 0.52258 0.0412 0.17312 0.0
O127 O 0.59752 0.03726 0.19625 0.0
C128 C 0.46517 0.094 0.12301 0.0
C129 C 0.55675 0.05138 0.2057 0.0
Zn130 Zn 0.58873 0.58043 0.63247 0.0
Zn131 Zn 0.47852 0.48461 0.49408 0.0
Zn132 Zn 0.53557 0.5315 0.5599 0.0
C133 C 0.54168 0.42027 0.52015 0.0
C134 C 0.52959 0.55672 0.44707 0.0
O135 O 0.48777 0.56059 0.61812 0.0
O136 O 0.53625 0.60722 0.67109 0.0
C137 C 0.61157 0.48533 0.62832 0.0
O138 O 0.55545 0.45605 0.55171 0.0
O139 O 0.50877 0.4239 0.48919 0.0
O140 O 0.49313 0.52618 0.44056 0.0
O141 O 0.55139 0.56358 0.48926 0.0
O142 O 0.61801 0.52435 0.65549 0.0
O143 O 0.58326 0.48169 0.59034 0.0
O144 O 0.57958 0.59066 0.52788 0.0
O145 O 0.62719 0.62292 0.58988 0.0
C146 C 0.61413 0.62161 0.54546 0.0
O147 O 0.45798 0.53642 0.57994 0.0
O148 O 0.41521 0.4865 0.52521 0.0
C149 C 0.4943 0.58985 0.65733 0.0
C150 C 0.41685 0.51598 0.56293 0.0
Zn151 Zn 0.11973 0.57105 0.97995 0.0
Zn152 Zn 0.99828 0.4817 0.07934 0.0
Zn153 Zn 0.06169 0.52937 0.02601 0.0
C154 C 0.08957 0.45811 0.10754 0.0
C155 C 0.98051 0.44814 0.9792 0.0
O156 O 0.04648 0.60583 0.02903 0.0
O157 O 0.0813 0.62242 0.95944 0.0
C158 C 0.16946 0.56135 0.06103 0.0
O159 O 0.10309 0.49085 0.07864 0.0
O160 O 0.04515 0.44627 0.11353 0.0
O161 O 0.96313 0.44518 0.02155 0.0
O162 O 0.01876 0.4769 0.97321 0.0
O163 O 0.16879 0.59271 0.0309 0.0
O164 O 0.13431 0.52765 0.06125 0.0
O165 O 0.05763 0.50192 0.94656 0.0
O166 O 0.13426 0.51894 0.92991 0.0
C167 C 0.09309 0.49908 0.91657 0.0
O168 O 0.01489 0.58146 0.0618 0.0
O169 O 0.97119 0.53962 0.11362 0.0
C170 C 0.05505 0.63442 0.99497 0.0
C171 C 0.98316 0.57921 0.0959 0.0
C172 C 0.17159 0.15806 0.45567 0.0
C173 C 0.21896 0.14649 0.44615 0.0
H174 H 0.1026 0.1357 0.48545 0.0
C175 C 0.23397 0.10447 0.46348 0.0
H176 H 0.15891 0.19018 0.4428 0.0
C177 C 0.20186 0.07356 0.48769 0.0
C178 C 0.15413 0.08419 0.49579 0.0
H179 H 0.27019 0.09447 0.457 0.0
H180 H 0.21421 0.04079 0.49939 0.0
C181 C 0.13946 0.12715 0.48043 0.0
C182 C 0.39621 0.82618 0.98789 0.0
C183 C 0.36536 0.83115 0.94796 0.0
H184 H 0.4479 0.86095 0.04118 0.0
C185 C 0.36334 0.87712 0.93189 0.0
H186 H 0.39868 0.79124 1.00134 0.0
C187 C 0.39187 0.91693 0.95462 0.0
C188 C 0.42322 0.91201 0.99421 0.0
H189 H 0.3407 0.88237 0.90098 0.0
H190 H 0.38956 0.95166 0.94066 0.0
C191 C 0.42461 0.86616 0.01085 0.0
C192 C 0.67612 0.40228 0.70095 0.0
C193 C 0.70741 0.38332 0.66583 0.0
H194 H 0.62115 0.44989 0.71628 0.0
C195 C 0.70294 0.39404 0.61682 0.0
H196 H 0.6787 0.39469 0.73897 0.0
C197 C 0.66905 0.4247 0.60366 0.0
C198 C 0.63979 0.4457 0.63947 0.0
H199 H 0.72635 0.37961 0.58891 0.0
H200 H 0.66743 0.43393 0.5661 0.0
C201 C 0.64313 0.43373 0.68802 0.0
C202 C 0.93063 0.69945 0.10122 0.0
C203 C 0.9192 0.70694 0.15106 0.0
H204 H 0.95606 0.65112 0.04428 0.0
C205 C 0.92744 0.67131 0.18238 0.0
H206 H 0.9234 0.72565 0.07593 0.0
C207 C 0.94819 0.62972 0.16446 0.0
C208 C 0.96054 0.62276 0.11479 0.0
H209 H 0.91862 0.67596 0.22091 0.0
H210 H 0.95509 0.60326 0.18958 0.0
C211 C 0.95017 0.6573 0.08318 0.0
C212 C 0.40769 0.15068 0.23709 0.0
C213 C 0.38597 0.1887 0.21793 0.0
H214 H 0.44987 0.0908 0.22239 0.0
C215 C 0.39362 0.19692 0.16864 0.0
H216 H 0.40266 0.14337 0.27503 0.0
C217 C 0.42053 0.16687 0.13873 0.0
C218 C 0.44076 0.12776 0.1572 0.0
H219 H 0.37777 0.22588 0.15264 0.0
H220 H 0.42472 0.17392 0.10061 0.0
C221 C 0.43492 0.12057 0.20703 0.0
C222 C 0.14124 0.95653 0.76312 0.0
C223 C 0.16199 0.91278 0.76428 0.0
H224 H 0.10266 1.00141 0.7206 0.0
C225 C 0.15465 0.8782 0.72373 0.0
H226 H 0.14629 0.98403 0.79364 0.0
C227 C 0.12855 0.88772 0.68243 0.0
C228 C 0.10922 0.93209 0.6805 0.0
H229 H 0.16978 0.84397 0.72347 0.0
H230 H 0.12455 0.86069 0.65141 0.0
C231 C 0.11559 0.96627 0.72147 0.0
C232 C 0.93011 0.407 0.85134 0.0
C233 C 0.90058 0.36465 0.8595 0.0
H234 H 0.97764 0.4668 0.88281 0.0
C235 C 0.89964 0.34911 0.90693 0.0
H236 H 0.93182 0.42028 0.81533 0.0
C237 C 0.92642 0.37579 0.94535 0.0
C238 C 0.95526 0.41848 0.93729 0.0
H239 H 0.87824 0.3165 0.91474 0.0
H240 H 0.92435 0.36301 0.98158 0.0
C241 C 0.95701 0.43355 0.88981 0.0
C242 C 0.64288 0.70815 0.44848 0.0
C243 C 0.69328 0.71796 0.45453 0.0
H244 H 0.57792 0.67027 0.47331 0.0
C245 C 0.71681 0.69663 0.49133 0.0
H246 H 0.62364 0.72424 0.42062 0.0
C247 C 0.69075 0.66553 0.52081 0.0
C248 C 0.64067 0.65488 0.51403 0.0
H249 H 0.75553 0.70349 0.49711 0.0
H250 H 0.70997 0.64916 0.54851 0.0
C251 C 0.61673 0.67709 0.4783 0.0
C252 C 0.14533 0.35658 0.16218 0.0
C253 C 0.18831 0.37984 0.18385 0.0
H254 H 0.08104 0.36316 0.12093 0.0
C255 C 0.1995 0.42938 0.17898 0.0
H256 H 0.13546 0.31856 0.16517 0.0
C257 C 0.16786 0.45508 0.15373 0.0
C258 C 0.12491 0.43169 0.13237 0.0
H259 H 0.23201 0.4486 0.19575 0.0
H260 H 0.17591 0.49349 0.15274 0.0
C261 C 0.11405 0.38219 0.13689 0.0
C262 C 0.71857 0.13147 0.00914 0.0
C263 C 0.71653 0.15749 0.96759 0.0
H264 H 0.67966 0.08582 0.0575 0.0
C265 C 0.67273 0.15459 0.94111 0.0
H266 H 0.75177 0.13286 0.03036 0.0
C267 C 0.63175 0.12723 0.95623 0.0
C268 C 0.63329 0.10208 0.99839 0.0
H269 H 0.66986 0.17382 0.90873 0.0
H270 H 0.59856 0.12639 0.93509 0.0
C271 C 0.67729 0.10426 0.02456 0.0
C272 C 0.91246 0.85395 0.39947 0.0
C273 C 0.90006 0.88475 0.36465 0.0
H274 H 0.95072 0.84771 0.46658 0.0
C275 C 0.91215 0.93466 0.37409 0.0
H276 H 0.90391 0.81531 0.39279 0.0
C277 C 0.93749 0.95332 0.41712 0.0
C278 C 0.95248 0.92214 0.45037 0.0
H279 H 0.90284 0.95908 0.34774 0.0
H280 H 0.94782 0.99176 0.42296 0.0
C281 C 0.93918 0.87242 0.44157 0.0
C282 C 0.41174 0.66588 0.73128 0.0
C283 C 0.38567 0.63142 0.7577 0.0
H284 H 0.46751 0.67935 0.67901 0.0
C285 C 0.39225 0.58242 0.74715 0.0
H286 H 0.40745 0.70388 0.73878 0.0
C287 C 0.42553 0.56833 0.71182 0.0
C288 C 0.4535 0.6032 0.68766 0.0
H289 H 0.37236 0.55516 0.76686 0.0
H290 H 0.43112 0.53056 0.70511 0.0
C291 C 0.44602 0.65195 0.69719 0.0
C292 C 0.99897 0.99839 0.82844 0.0
C293 C 0.98676 0.94835 0.82596 0.0
H294 H 0.01245 0.06036 0.78799 0.0
C295 C 0.98605 0.92121 0.78017 0.0
H296 H 0.99952 0.02018 0.86323 0.0
C297 C 0.99434 0.94414 0.73726 0.0
C298 C 1.00229 0.99457 0.73956 0.0
H299 H 0.97683 0.88254 0.77737 0.0
H300 H 0.99141 0.92277 0.70217 0.0
C301 C 0.00597 0.0214 0.78546 0.0
C302 C 0.59044 0.0827 0.33604 0.0
C303 C 0.56395 0.04406 0.35616 0.0
H304 H 0.60736 0.11704 0.27046 0.0
C305 C 0.52472 0.01899 0.32914 0.0
H306 H 0.62105 0.10242 0.35587 0.0
C307 C 0.51578 0.02858 0.28074 0.0
C308 C 0.54707 0.06215 0.25817 0.0
H309 H 0.5035 0.98924 0.344 0.0
H310 H 0.48888 0.00498 0.2591 0.0
C311 C 0.58227 0.09145 0.28721 0.0
C312 C 0.5318 0.60388 0.32233 0.0
C313 C 0.58149 0.61331 0.31453 0.0
H314 H 0.47659 0.58031 0.3712 0.0
C315 C 0.61427 0.60818 0.35261 0.0
H316 H 0.50571 0.60784 0.29375 0.0
C317 C 0.59756 0.59135 0.39681 0.0
C318 C 0.54781 0.58112 0.40417 0.0
H319 H 0.65284 0.61495 0.34739 0.0
H320 H 0.62357 0.58461 0.42438 0.0
C321 C 0.51515 0.58827 0.36673 0.0
C322 C 0.05859 0.52191 0.79007 0.0
C323 C 0.0959 0.50221 0.76311 0.0
H324 H 0.02776 0.53516 0.86072 0.0
C325 C 0.12458 0.47143 0.78545 0.0
H326 H 0.036 0.54585 0.77378 0.0
C327 C 0.11935 0.46479 0.83534 0.0
C328 C 0.085 0.48828 0.86336 0.0
H329 H 0.15422 0.45651 0.76598 0.0
H330 H 0.14515 0.44508 0.85304 0.0
C331 C 0.05322 0.51503 0.83973 0.0
C332 C 0.72284 0.97236 0.97019 0.0
C333 C 0.75971 0.94773 0.98886 0.0
H334 H 0.65497 1.0011 0.98373 0.0
C335 C 0.7582 0.93734 0.03807 0.0
H336 H 0.72303 0.98088 0.93233 0.0
C337 C 0.7199 0.94979 0.06754 0.0
C338 C 0.68202 0.97272 0.04853 0.0
H339 H 0.78625 0.91888 0.05373 0.0
H340 H 0.71946 0.94036 0.10511 0.0
C341 C 0.6841 0.98445 0.99971 0.0
C342 C 0.80499 0.95337 0.49437 0.0
C343 C 0.77031 0.98692 0.4961 0.0
H344 H 0.87727 0.9402 0.51348 0.0
C345 C 0.78457 0.03505 0.51292 0.0
H346 H 0.79497 0.91592 0.48176 0.0
C347 C 0.83169 0.04901 0.52975 0.0
C348 C 0.86583 0.01518 0.53071 0.0
H349 H 0.75893 0.06188 0.51425 0.0
H350 H 0.84095 0.08627 0.54362 0.0
C351 C 0.8523 0.96733 0.51199 0.0
C352 C 0.29052 0.54188 0.1132 0.0
C353 C 0.30346 0.58741 0.13858 0.0
H354 H 0.2366 0.49737 0.06863 0.0
C355 C 0.2684 0.62019 0.14498 0.0
H356 H 0.31668 0.51574 0.10777 0.0
C357 C 0.22278 0.60935 0.12311 0.0
C358 C 0.21109 0.56542 0.09484 0.0
H359 H 0.27698 0.65535 0.16466 0.0
H360 H 0.1975 0.63656 0.12583 0.0
C361 C 0.24468 0.5311 0.0911 0.0
C362 C 0.31956 0.58938 0.61691 0.0
C363 C 0.27856 0.55563 0.61073 0.0
H364 H 0.39553 0.60357 0.60492 0.0
C365 C 0.28446 0.50792 0.59315 0.0
H366 H 0.31612 0.62649 0.63018 0.0
C367 C 0.33005 0.49462 0.58021 0.0
C368 C 0.37074 0.52873 0.58441 0.0
H369 H 0.25367 0.48097 0.58837 0.0
H370 H 0.33324 0.45785 0.56549 0.0
C371 C 0.36519 0.57613 0.60326 0.0
C372 C 0.98802 0.73548 0.95598 0.0
C373 C 0.9981 0.77112 0.99515 0.0
H374 H 0.99915 0.66435 0.92514 0.0
C375 C 0.02634 0.76099 0.03507 0.0
H376 H 0.96662 0.74238 0.9246 0.0
C377 C 0.044 0.71588 0.03578 0.0
C378 C 0.03443 0.68079 0.99614 0.0
H379 H 0.03448 0.78776 0.06582 0.0
H380 H 0.06566 0.70862 0.06682 0.0
C381 C 0.00665 0.69098 0.95615 0.0
C382 C 0.54035 0.78344 0.09626 0.0
C383 C 0.52443 0.76026 0.13752 0.0
H384 H 0.54513 0.84862 0.06034 0.0
C385 C 0.49365 0.78294 0.17063 0.0
H386 H 0.56412 0.76659 0.07023 0.0
C387 C 0.48359 0.83034 0.16553 0.0
C388 C 0.50294 0.85502 0.12644 0.0
H389 H 0.48126 0.76591 0.20293 0.0
H390 H 0.46401 0.849 0.19422 0.0
C391 C 0.52906 0.83019 0.09035 0.0
C392 C 0.09086 0.26115 0.55938 0.0
C393 C 0.12217 0.27719 0.59934 0.0
H394 H 0.04329 0.20252 0.52513 0.0
C395 C 0.1373 0.24329 0.62958 0.0
H396 H 0.07862 0.28636 0.53534 0.0
C397 C 0.11796 0.19514 0.62277 0.0
C398 C 0.08313 0.18035 0.58588 0.0
H399 H 0.16169 0.25451 0.66039 0.0
H400 H 0.12704 0.17047 0.64899 0.0
C401 C 0.07092 0.21314 0.55316 0.0
C402 C 0.58649 0.30521 0.46612 0.0
C403 C 0.59385 0.28091 0.50785 0.0
H404 H 0.56482 0.36858 0.43784 0.0
C405 C 0.58894 0.30521 0.55466 0.0
H406 H 0.59041 0.2879 0.42955 0.0
C407 C 0.57424 0.35192 0.55935 0.0
C408 C 0.56453 0.37485 0.51733 0.0
H409 H 0.59453 0.28749 0.58755 0.0
H410 H 0.56812 0.36901 0.59555 0.0
C411 C 0.57185 0.35149 0.47084 0.0
loop_
_geom_bond_atom_site_label_1
_geom_bond_atom_site_label_2
_geom_bond_distance
_geom_bond_site_symmetry_2
_ccdc_geom_bond_type
O0 Cd1 2.300 . S
O0 C7 1.275 . S
Cd1 O0 2.300 . S
Cd1 O9 2.381 . S
Cd1 O10 2.378 . S
O2 Cd3 2.385 . S
O2 C7 1.255 . S
Cd3 O2 2.385 . S
Cd3 O4 2.317 . S
O4 Cd3 2.317 . S
O4 C5 1.232 . S
C5 O4 1.232 . S
C5 O6 1.218 . S
O6 C5 1.218 . S
C7 O0 1.275 . S
C7 O2 1.255 . S
C8 O9 1.258 . S
C8 O10 1.256 . S
O9 Cd1 2.381 . S
O9 C8 1.258 . S
O10 Cd1 2.378 . S
O10 C8 1.256 . S
O11 Cd12 2.300 . S
O11 C18 1.275 . S
Cd12 O11 2.300 . S
Cd12 O20 2.381 . S
Cd12 O21 2.378 . S
O13 Cd14 2.385 . S
O13 C18 1.255 . S
Cd14 O13 2.385 . S
Cd14 O15 2.317 . S
O15 Cd14 2.317 . S
O15 C16 1.232 . S
C16 O15 1.232 . S
C16 O17 1.218 . S
O17 C16 1.218 . S
C18 O11 1.275 . S
C18 O13 1.255 . S
C19 O20 1.258 . S
C19 O21 1.256 . S
O20 Cd12 2.381 . S
O20 C19 1.258 . S
O21 Cd12 2.378 . S
O21 C19 1.256 . S
O22 Cd23 2.300 . S
O22 C29 1.275 . S
Cd23 O22 2.300 . S
Cd23 O31 2.381 . S
Cd23 O32 2.378 . S
O24 Cd25 2.385 . S
O24 C29 1.255 . S
Cd25 O24 2.385 . S
Cd25 O26 2.317 . S
O26 Cd25 2.317 . S
O26 C27 1.232 . S
C27 O26 1.232 . S
C27 O28 1.218 . S
O28 C27 1.218 . S
C29 O22 1.275 . S
C29 O24 1.255 . S
C30 O31 1.258 . S
C30 O32 1.256 . S
O31 Cd23 2.381 . S
O31 C30 1.258 . S
O32 Cd23 2.378 . S
O32 C30 1.256 . S
O33 Cd34 2.300 . S
O33 C40 1.275 . S
Cd34 O33 2.300 . S
Cd34 O42 2.381 . S
Cd34 O43 2.378 . S
O35 Cd36 2.385 . S
O35 C40 1.255 . S
Cd36 O35 2.385 . S
Cd36 O37 2.317 . S
O37 Cd36 2.317 . S
O37 C38 1.232 . S
C38 O37 1.232 . S
C38 O39 1.218 . S
O39 C38 1.218 . S
C40 O33 1.275 . S
C40 O35 1.255 . S
C41 O42 1.258 . S
C41 O43 1.256 . S
O42 Cd34 2.381 . S
O42 C41 1.258 . S
O43 Cd34 2.378 . S
O43 C41 1.256 . S
O44 Cd45 2.300 . S
O44 C51 1.275 . S
Cd45 O44 2.300 . S
Cd45 O53 2.381 1_655 S
Cd45 O54 2.378 1_656 S
O46 Cd47 2.381 1_566 S
O46 C51 1.259 . S
Cd47 O46 2.381 1_544 S
Cd47 O48 2.317 1_545 S
O48 Cd47 2.317 1_565 S
O48 C49 1.232 1_565 S
C49 O48 1.232 1_545 S
C49 O50 1.218 . S
O50 C49 1.218 . S
C51 O44 1.275 . S
C51 O46 1.259 . S
C52 O53 1.258 1_554 S
C52 O54 1.256 . S
O53 Cd45 2.381 1_455 S
O53 C52 1.258 1_556 S
O54 Cd45 2.378 1_454 S
O54 C52 1.256 . S
O55 Cd56 2.300 . S
O55 C62 1.275 . S
Cd56 O55 2.300 . S
Cd56 O64 2.381 . S
Cd56 O65 2.378 . S
O57 Cd58 2.385 . S
O57 C62 1.255 . S
Cd58 O57 2.385 . S
Cd58 O59 2.317 . S
O59 Cd58 2.317 . S
O59 C60 1.232 . S
C60 O59 1.232 . S
C60 O61 1.218 . S
O61 C60 1.218 . S
C62 O55 1.275 . S
C62 O57 1.255 . S
C63 O64 1.258 . S
C63 O65 1.256 . S
O64 Cd56 2.381 . S
O64 C63 1.258 . S
O65 Cd56 2.378 . S
O65 C63 1.256 . S
O66 Cd67 2.300 . S
O66 C73 1.275 . S
Cd67 O66 2.300 . S
Cd67 O75 2.381 . S
Cd67 O76 2.378 . S
O68 Cd69 2.385 . S
O68 C73 1.255 . S
Cd69 O68 2.385 . S
Cd69 O70 2.317 . S
O70 Cd69 2.317 . S
O70 C71 1.232 . S
C71 O70 1.232 . S
C71 O72 1.218 . S
O72 C71 1.218 . S
C73 O66 1.275 . S
C73 O68 1.255 . S
C74 O75 1.258 . S
C74 O76 1.256 . S
O75 Cd67 2.381 . S
O75 C74 1.258 . S
O76 Cd67 2.378 . S
O76 C74 1.256 . S
O77 Cd78 2.300 . S
O77 C84 1.275 . S
Cd78 O77 2.300 . S
Cd78 O86 2.381 . S
Cd78 O87 2.378 . S
O79 Cd80 2.385 . S
O79 C84 1.255 . S
Cd80 O79 2.385 . S
Cd80 O81 2.317 . S
O81 Cd80 2.317 . S
O81 C82 1.232 . S
C82 O81 1.232 . S
C82 O83 1.218 . S
O83 C82 1.218 . S
C84 O77 1.275 . S
C84 O79 1.255 . S
C85 O86 1.258 . S
C85 O87 1.256 . S
O86 Cd78 2.381 . S
O86 C85 1.258 . S
O87 Cd78 2.378 . S
O87 C85 1.256 . S
Zn88 O94 1.920 . S
Zn88 O100 1.898 . S
Zn88 O103 1.905 . S
Zn89 O97 1.905 1_565 S
Zn89 O98 1.898 . S
Zn89 O106 1.920 . S
Zn90 O93 2.073 1_445 S
Zn90 O96 2.114 . S
Zn90 O99 2.120 1_445 S
Zn90 O101 2.120 . S
Zn90 O102 2.114 1_455 S
Zn90 O105 2.087 . S
C91 O96 1.166 . S
C91 O97 1.182 . S
C92 O98 1.167 1_655 S
C92 O99 1.299 . S
O93 Zn90 2.073 1_665 S
O93 C107 1.298 1_565 S
O94 Zn88 1.920 . S
O94 C107 1.234 . S
C95 O100 1.167 1_455 S
C95 O101 1.299 . S
O96 Zn90 2.114 . S
O96 C91 1.166 . S
O97 Zn89 1.905 1_545 S
O97 C91 1.182 . S
O98 Zn89 1.898 . S
O98 C92 1.167 1_455 S
O99 Zn90 2.120 1_665 S
O99 C92 1.299 . S
O100 Zn88 1.898 . S
O100 C95 1.167 1_655 S
O101 Zn90 2.120 . S
O101 C95 1.299 . S
O102 Zn90 2.114 1_655 S
O102 C104 1.166 . S
O103 Zn88 1.905 . S
O103 C104 1.182 . S
C104 O102 1.166 . S
C104 O103 1.182 . S
O105 Zn90 2.087 . S
O105 C108 1.288 1_545 S
O106 Zn89 1.920 . S
O106 C108 1.234 . S
C107 O93 1.298 1_545 S
C107 O94 1.234 . S
C108 O105 1.288 1_565 S
C108 O106 1.234 . S
Zn109 O115 1.920 . S
Zn109 O121 1.898 . S
Zn109 O124 1.905 1_554 S
Zn110 O118 1.905 . S
Zn110 O119 1.898 . S
Zn110 O127 1.920 . S
Zn111 O114 2.080 . S
Zn111 O117 2.114 1_545 S
Zn111 O120 2.120 1_545 S
Zn111 O122 2.120 . S
Zn111 O123 2.114 1_545 S
Zn111 O126 2.080 . S
C112 O117 1.166 . S
C112 O118 1.182 . S
C113 O119 1.167 . S
C113 O120 1.299 . S
O114 Zn111 2.080 . S
O114 C128 1.305 . S
O115 Zn109 1.920 . S
O115 C128 1.234 . S
C116 O121 1.167 . S
C116 O122 1.299 . S
O117 Zn111 2.114 1_565 S
O117 C112 1.166 . S
O118 Zn110 1.905 . S
O118 C112 1.182 . S
O119 Zn110 1.898 . S
O119 C113 1.167 . S
O120 Zn111 2.120 1_565 S
O120 C113 1.299 . S
O121 Zn109 1.898 . S
O121 C116 1.167 . S
O122 Zn111 2.120 . S
O122 C116 1.299 . S
O123 Zn111 2.114 1_565 S
O123 C125 1.166 1_554 S
O124 Zn109 1.905 1_556 S
O124 C125 1.182 1_545 S
C125 O123 1.166 1_556 S
C125 O124 1.182 1_565 S
O126 Zn111 2.080 . S
O126 C129 1.305 . S
O127 Zn110 1.920 . S
O127 C129 1.234 1_565 S
C128 O114 1.305 . S
C128 O115 1.234 . S
C129 O126 1.305 . S
C129 O127 1.234 1_545 S
Zn130 O136 1.920 . S
Zn130 O142 1.898 . S
Zn130 O145 1.905 . S
Zn131 O139 1.905 . S
Zn131 O140 1.898 . S
Zn131 O148 1.920 . S
Zn132 O135 2.080 . S
Zn132 O138 2.114 . S
Zn132 O141 2.120 . S
Zn132 O143 2.120 . S
Zn132 O144 2.114 . S
Zn132 O147 2.080 . S
C133 O138 1.166 . S
C133 O139 1.182 . S
C134 O140 1.167 . S
C134 O141 1.299 . S
O135 Zn132 2.080 . S
O135 C149 1.305 . S
O136 Zn130 1.920 . S
O136 C149 1.234 . S
C137 O142 1.167 . S
C137 O143 1.299 . S
O138 Zn132 2.114 . S
O138 C133 1.166 . S
O139 Zn131 1.905 . S
O139 C133 1.182 . S
O140 Zn131 1.898 . S
O140 C134 1.167 . S
O141 Zn132 2.120 . S
O141 C134 1.299 . S
O142 Zn130 1.898 . S
O142 C137 1.167 . S
O143 Zn132 2.120 . S
O143 C137 1.299 . S
O144 Zn132 2.114 . S
O144 C146 1.166 . S
O145 Zn130 1.905 . S
O145 C146 1.182 . S
C146 O144 1.166 . S
C146 O145 1.182 . S
O147 Zn132 2.080 . S
O147 C150 1.305 . S
O148 Zn131 1.920 . S
O148 C150 1.234 . S
C149 O135 1.305 . S
C149 O136 1.234 . S
C150 O147 1.305 . S
C150 O148 1.234 . S
Zn151 O157 1.920 . S
Zn151 O163 1.898 . S
Zn151 O166 1.905 . S
Zn152 O160 1.905 1_655 S
Zn152 O161 1.898 . S
Zn152 O169 1.920 . S
Zn153 O156 2.080 1_554 S
Zn153 O159 2.114 . S
Zn153 O162 2.120 1_454 S
Zn153 O164 2.120 . S
Zn153 O165 2.114 1_554 S
Zn153 O168 2.080 . S
C154 O159 1.166 . S
C154 O160 1.182 . S
C155 O161 1.167 1_556 S
C155 O162 1.299 . S
O156 Zn153 2.080 1_556 S
O156 C170 1.305 . S
O157 Zn151 1.920 . S
O157 C170 1.234 . S
C158 O163 1.167 1_554 S
C158 O164 1.299 . S
O159 Zn153 2.114 . S
O159 C154 1.166 . S
O160 Zn152 1.905 1_455 S
O160 C154 1.182 . S
O161 Zn152 1.898 . S
O161 C155 1.167 1_554 S
O162 Zn153 2.120 1_656 S
O162 C155 1.299 . S
O163 Zn151 1.898 . S
O163 C158 1.167 1_556 S
O164 Zn153 2.120 . S
O164 C158 1.299 . S
O165 Zn153 2.114 1_556 S
O165 C167 1.166 . S
O166 Zn151 1.905 . S
O166 C167 1.182 . S
C167 O165 1.166 . S
C167 O166 1.182 . S
O168 Zn153 2.080 . S
O168 C171 1.298 1_455 S
O169 Zn152 1.920 . S
O169 C171 1.239 . S
C170 O156 1.305 . S
C170 O157 1.234 . S
C171 O168 1.298 1_655 S
C171 O169 1.239 . S
C172 C173 1.387 . S
C172 H176 0.950 . S
C172 C181 1.390 . S
C173 C172 1.387 . S
C173 C175 1.387 . S
H174 C181 0.950 . S
C175 C173 1.387 . S
C175 C177 1.390 . S
C175 H179 0.950 . S
H176 C172 0.950 . S
C177 C175 1.390 . S
C177 C178 1.387 . S
C177 H180 0.950 . S
C178 C177 1.387 . S
C178 C181 1.387 . S
H179 C175 0.950 . S
H180 C177 0.950 . S
C181 C172 1.390 . S
C181 H174 0.950 . S
C181 C178 1.387 . S
C182 C183 1.387 . S
C182 H186 0.950 . S
C182 C191 1.390 . S
C183 C182 1.387 . S
C183 C185 1.387 . S
H184 C191 0.950 1_545 S
C185 C183 1.387 . S
C185 C187 1.390 . S
C185 H189 0.950 . S
H186 C182 0.950 . S
C187 C185 1.390 . S
C187 C188 1.387 . S
C187 H190 0.950 . S
C188 C187 1.387 . S
C188 C191 1.387 . S
H189 C185 0.950 . S
H190 C187 0.950 . S
C191 C182 1.390 . S
C191 H184 0.950 1_565 S
C191 C188 1.387 . S
C192 C193 1.387 . S
C192 H196 0.950 . S
C192 C201 1.390 . S
C193 C192 1.387 . S
C193 C195 1.387 . S
H194 C201 0.950 . S
C195 C193 1.387 . S
C195 C197 1.390 . S
C195 H199 0.950 . S
H196 C192 0.950 . S
C197 C195 1.390 . S
C197 C198 1.387 . S
C197 H200 0.950 . S
C198 C197 1.387 . S
C198 C201 1.387 . S
H199 C195 0.950 . S
H200 C197 0.950 . S
C201 C192 1.390 . S
C201 H194 0.950 . S
C201 C198 1.387 . S
C202 C203 1.387 . S
C202 H206 0.950 . S
C202 C211 1.390 1_655 S
C203 C202 1.387 . S
C203 C205 1.387 . S
H204 C211 0.950 . S
C205 C203 1.387 . S
C205 C207 1.390 . S
C205 H209 0.950 . S
H206 C202 0.950 . S
C207 C205 1.390 . S
C207 C208 1.387 . S
C207 H210 0.950 . S
C208 C207 1.387 . S
C208 C211 1.387 1_655 S
H209 C205 0.950 . S
H210 C207 0.950 . S
C211 C202 1.390 1_455 S
C211 H204 0.950 . S
C211 C208 1.387 1_455 S
C212 C213 1.387 . S
C212 H216 0.950 . S
C212 C221 1.390 . S
C213 C212 1.387 . S
C213 C215 1.387 . S
H214 C221 0.950 . S
C215 C213 1.387 . S
C215 C217 1.390 . S
C215 H219 0.950 . S
H216 C212 0.950 . S
C217 C215 1.390 . S
C217 C218 1.387 . S
C217 H220 0.950 . S
C218 C217 1.387 . S
C218 C221 1.387 . S
H219 C215 0.950 . S
H220 C217 0.950 . S
C221 C212 1.390 . S
C221 H214 0.950 . S
C221 C218 1.387 . S
C222 C223 1.387 . S
C222 H226 0.950 . S
C222 C231 1.390 . S
C223 C222 1.387 . S
C223 C225 1.387 . S
H224 C231 0.950 1_545 S
C225 C223 1.387 . S
C225 C227 1.390 . S
C225 H229 0.950 . S
H226 C222 0.950 . S
C227 C225 1.390 . S
C227 C228 1.387 . S
C227 H230 0.950 . S
C228 C227 1.387 . S
C228 C231 1.387 . S
H229 C225 0.950 . S
H230 C227 0.950 . S
C231 C222 1.390 . S
C231 H224 0.950 1_565 S
C231 C228 1.387 . S
C232 C233 1.387 . S
C232 H236 0.950 . S
C232 C241 1.390 . S
C233 C232 1.387 . S
C233 C235 1.387 . S
H234 C241 0.950 . S
C235 C233 1.387 . S
C235 C237 1.390 . S
C235 H239 0.950 . S
H236 C232 0.950 . S
C237 C235 1.390 . S
C237 C238 1.387 . S
C237 H240 0.950 1_556 S
C238 C237 1.387 . S
C238 C241 1.387 . S
H239 C235 0.950 . S
H240 C237 0.950 1_554 S
C241 C232 1.390 . S
C241 H234 0.950 . S
C241 C238 1.387 . S
C242 C243 1.387 . S
C242 H246 0.950 . S
C242 C251 1.390 . S
C243 C242 1.387 . S
C243 C245 1.387 . S
H244 C251 0.950 . S
C245 C243 1.387 . S
C245 C247 1.390 . S
C245 H249 0.950 . S
H246 C242 0.950 . S
C247 C245 1.390 . S
C247 C248 1.387 . S
C247 H250 0.950 . S
C248 C247 1.387 . S
C248 C251 1.387 . S
H249 C245 0.950 . S
H250 C247 0.950 . S
C251 C242 1.390 . S
C251 H244 0.950 . S
C251 C248 1.387 . S
C252 C253 1.387 . S
C252 H256 0.950 . S
C252 C261 1.390 . S
C253 C252 1.387 . S
C253 C255 1.387 . S
H254 C261 0.950 . S
C255 C253 1.387 . S
C255 C257 1.390 . S
C255 H259 0.950 . S
H256 C252 0.950 . S
C257 C255 1.390 . S
C257 C258 1.387 . S
C257 H260 0.950 . S
C258 C257 1.387 . S
C258 C261 1.387 . S
H259 C255 0.950 . S
H260 C257 0.950 . S
C261 C252 1.390 . S
C261 H254 0.950 . S
C261 C258 1.387 . S
C262 C263 1.387 1_554 S
C262 H266 0.950 . S
C262 C271 1.390 . S
C263 C262 1.387 1_556 S
C263 C265 1.387 . S
H264 C271 0.950 . S
C265 C263 1.387 . S
C265 C267 1.390 . S
C265 H269 0.950 . S
H266 C262 0.950 . S
C267 C265 1.390 . S
C267 C268 1.387 1_556 S
C267 H270 0.950 . S
C268 C267 1.387 1_554 S
C268 C271 1.387 . S
H269 C265 0.950 . S
H270 C267 0.950 . S
C271 C262 1.390 . S
C271 H264 0.950 . S
C271 C268 1.387 . S
C272 C273 1.387 . S
C272 H276 0.950 . S
C272 C281 1.390 . S
C273 C272 1.387 . S
C273 C275 1.387 . S
H274 C281 0.950 1_455 S
C275 C273 1.387 . S
C275 C277 1.390 . S
C275 H279 0.950 . S
H276 C272 0.950 . S
C277 C275 1.390 . S
C277 C278 1.387 . S
C277 H280 0.950 . S
C278 C277 1.387 . S
C278 C281 1.387 . S
H279 C275 0.950 . S
H280 C277 0.950 . S
C281 C272 1.390 . S
C281 H274 0.950 1_655 S
C281 C278 1.387 . S
C282 C283 1.387 . S
C282 H286 0.950 . S
C282 C291 1.390 . S
C283 C282 1.387 . S
C283 C285 1.387 . S
H284 C291 0.950 . S
C285 C283 1.387 . S
C285 C287 1.390 . S
C285 H289 0.950 . S
H286 C282 0.950 . S
C287 C285 1.390 . S
C287 C288 1.387 . S
C287 H290 0.950 . S
C288 C287 1.387 . S
C288 C291 1.387 . S
H289 C285 0.950 . S
H290 C287 0.950 . S
C291 C282 1.390 . S
C291 H284 0.950 . S
C291 C288 1.387 . S
C292 C293 1.387 1_455 S
C292 H296 0.950 . S
C292 C301 1.390 . S
C293 C292 1.387 1_655 S
C293 C295 1.387 . S
H294 C301 0.950 . S
C295 C293 1.387 . S
C295 C297 1.390 . S
C295 H299 0.950 . S
H296 C292 0.950 . S
C297 C295 1.390 . S
C297 C298 1.387 . S
C297 H300 0.953 . S
C298 C297 1.387 . S
C298 C301 1.387 1_655 S
H299 C295 0.950 . S
H300 C297 0.953 . S
C301 C292 1.390 . S
C301 H294 0.950 . S
C301 C298 1.387 1_455 S
C302 C303 1.387 . S
C302 H306 0.950 . S
C302 C311 1.390 . S
C303 C302 1.387 . S
C303 C305 1.387 . S
H304 C311 0.950 . S
C305 C303 1.387 . S
C305 C307 1.390 . S
C305 H309 0.950 1_545 S
H306 C302 0.950 . S
C307 C305 1.390 . S
C307 C308 1.387 . S
C307 H310 0.950 1_545 S
C308 C307 1.387 . S
C308 C311 1.387 . S
H309 C305 0.950 1_565 S
H310 C307 0.950 1_565 S
C311 C302 1.390 . S
C311 H304 0.950 . S
C311 C308 1.387 . S
C312 C313 1.387 . S
C312 H316 0.950 . S
C312 C321 1.390 . S
C313 C312 1.387 . S
C313 C315 1.387 . S
H314 C321 0.950 . S
C315 C313 1.387 . S
C315 C317 1.390 . S
C315 H319 0.950 . S
H316 C312 0.950 . S
C317 C315 1.390 . S
C317 C318 1.387 . S
C317 H320 0.950 . S
C318 C317 1.387 . S
C318 C321 1.387 . S
H319 C315 0.950 . S
H320 C317 0.950 . S
C321 C312 1.390 . S
C321 H314 0.950 . S
C321 C318 1.387 . S
C322 C323 1.387 . S
C322 H326 0.950 . S
C322 C331 1.390 . S
C323 C322 1.387 . S
C323 C325 1.387 . S
H324 C331 0.950 . S
C325 C323 1.387 . S
C325 C327 1.390 . S
C325 H329 0.950 . S
H326 C322 0.950 . S
C327 C325 1.390 . S
C327 C328 1.387 . S
C327 H330 0.950 . S
C328 C327 1.387 . S
C328 C331 1.387 . S
H329 C325 0.950 . S
H330 C327 0.950 . S
C331 C322 1.390 . S
C331 H324 0.950 . S
C331 C328 1.387 . S
C332 C333 1.387 . S
C332 H336 0.950 . S
C332 C341 1.390 . S
C333 C332 1.387 . S
C333 C335 1.387 1_545 S
H334 C341 0.950 . S
C335 C333 1.387 1_565 S
C335 C337 1.390 . S
C335 H339 0.950 . S
H336 C332 0.950 . S
C337 C335 1.390 . S
C337 C338 1.387 1_565 S
C337 H340 0.950 . S
C338 C337 1.387 1_545 S
C338 C341 1.387 . S
H339 C335 0.950 . S
H340 C337 0.950 . S
C341 C332 1.390 . S
C341 H334 0.950 . S
C341 C338 1.387 . S
C342 C343 1.387 . S
C342 H346 0.950 1_545 S
C342 C351 1.390 . S
C343 C342 1.387 . S
C343 C345 1.387 . S
H344 C351 0.950 1_565 S
C345 C343 1.387 . S
C345 C347 1.390 . S
C345 H349 0.950 . S
H346 C342 0.950 1_565 S
C347 C345 1.390 . S
C347 C348 1.387 . S
C347 H350 0.950 . S
C348 C347 1.387 . S
C348 C351 1.387 . S
H349 C345 0.950 . S
H350 C347 0.950 . S
C351 C342 1.390 . S
C351 H344 0.950 1_545 S
C351 C348 1.387 . S
C352 C353 1.387 1_556 S
C352 H356 0.950 . S
C352 C361 1.390 . S
C353 C352 1.387 1_554 S
C353 C355 1.387 . S
H354 C361 0.950 . S
C355 C353 1.387 . S
C355 C357 1.390 . S
C355 H359 0.950 . S
H356 C352 0.950 . S
C357 C355 1.390 . S
C357 C358 1.387 . S
C357 H360 0.950 . S
C358 C357 1.387 . S
C358 C361 1.387 1_554 S
H359 C355 0.950 . S
H360 C357 0.950 . S
C361 C352 1.390 . S
C361 H354 0.950 . S
C361 C358 1.387 1_556 S
C362 C363 1.387 . S
C362 H366 0.950 . S
C362 C371 1.390 . S
C363 C362 1.387 . S
C363 C365 1.387 . S
H364 C371 0.950 . S
C365 C363 1.387 . S
C365 C367 1.390 . S
C365 H369 0.950 . S
H366 C362 0.950 . S
C367 C365 1.390 . S
C367 C368 1.387 . S
C367 H370 0.950 . S
C368 C367 1.387 . S
C368 C371 1.387 . S
H369 C365 0.950 . S
H370 C367 0.950 . S
C371 C362 1.390 . S
C371 H364 0.950 . S
C371 C368 1.387 . S
C372 C373 1.387 1_556 S
C372 H376 0.950 . S
C372 C381 1.390 . S
C373 C372 1.387 1_554 S
C373 C375 1.387 . S
H374 C381 0.950 . S
C375 C373 1.387 . S
C375 C377 1.390 . S
C375 H379 0.950 . S
H376 C372 0.950 . S
C377 C375 1.390 . S
C377 C378 1.387 . S
C377 H380 0.950 . S
C378 C377 1.387 . S
C378 C381 1.387 1_554 S
H379 C375 0.950 . S
H380 C377 0.950 . S
C381 C372 1.390 . S
C381 H374 0.950 . S
C381 C378 1.387 1_556 S
C382 C383 1.387 . S
C382 H386 0.950 . S
C382 C391 1.390 . S
C383 C382 1.387 . S
C383 C385 1.387 . S
H384 C391 0.950 . S
C385 C383 1.387 . S
C385 C387 1.390 . S
C385 H389 0.950 . S
H386 C382 0.950 . S
C387 C385 1.390 . S
C387 C388 1.387 . S
C387 H390 0.950 . S
C388 C387 1.387 . S
C388 C391 1.387 . S
H389 C385 0.950 . S
H390 C387 0.950 . S
C391 C382 1.390 . S
C391 H384 0.950 . S
C391 C388 1.387 . S
C392 C393 1.387 . S
C392 H396 0.950 1_455 S
C392 C401 1.390 . S
C393 C392 1.387 . S
C393 C395 1.387 . S
H394 C401 0.950 1_655 S
C395 C393 1.387 . S
C395 C397 1.390 . S
C395 H399 0.950 . S
H396 C392 0.950 1_655 S
C397 C395 1.390 . S
C397 C398 1.387 . S
C397 H400 0.950 . S
C398 C397 1.387 . S
C398 C401 1.387 . S
H399 C395 0.950 . S
H400 C397 0.950 . S
C401 C392 1.390 . S
C401 H394 0.950 1_455 S
C401 C398 1.387 . S
C402 C403 1.387 . S
C402 H406 0.950 . S
C402 C411 1.390 . S
C403 C402 1.387 . S
C403 C405 1.387 . S
H404 C411 0.950 . S
C405 C403 1.387 . S
C405 C407 1.390 . S
C405 H409 0.950 . S
H406 C402 0.950 . S
C407 C405 1.390 . S
C407 C408 1.387 . S
C407 H410 0.950 . S
C408 C407 1.387 . S
C408 C411 1.387 . S
H409 C405 0.950 . S
H410 C407 0.950 . S
C411 C402 1.390 . S
C411 H404 0.950 . S
C411 C408 1.387 . S
C173 C5 1.622 . S
C178 C91 1.668 . S
C183 C18 1.522 . S
C188 C125 1.464 . S
C198 C137 1.283 . S
C193 C30 1.351 . S
C203 C41 1.341 . S
C208 C171 1.304 . S
C218 C128 1.648 . S
C213 C7 1.684 . S
C228 C108 1.676 . S
C223 C16 1.560 . S
C238 C155 1.401 . S
C233 C29 1.483 . S
C248 C146 1.135 . S
C243 C38 1.087 . S
C253 C8 1.655 . S
C258 C154 1.558 . S
C268 C116 1.616 . S
C263 C27 1.523 . S
C273 C40 1.477 . S
C278 C92 1.371 . S
C283 C19 1.310 . S
C288 C149 1.249 . S
C298 C107 1.578 1_565 S
C293 C51 1.674 . S
C303 C62 1.596 . S
C308 C129 1.615 . S
C313 C74 1.507 . S
C318 C134 1.521 . S
C323 C84 1.380 . S
C328 C167 1.463 . S
C333 C49 1.873 . S
C338 C112 1.821 1_545 S
C348 C104 1.549 . S
C343 C63 1.561 . S
C358 C158 1.443 . S
C353 C71 1.190 . S
C368 C150 1.363 . S
C363 C85 1.350 . S
C373 C52 1.689 . S
C378 C170 1.607 1_554 S
C388 C113 1.764 . S
C383 C73 1.718 . S
C398 C95 1.441 . S
C393 C82 1.124 . S
C403 C60 1.341 . S
C408 C133 1.635 . S
