# Generated by pormake.
# Topology gar, (4,6)-cn, num edge types: 1
# Building blocks:
#     Node 0, Type 0, BuildingBlock: KUFVIS_clean_sbu_0, # of connection points: 4
#     Node 1, Type 0, BuildingBlock: KUFVIS_clean_sbu_0, # of connection points: 4
#     Node 2, Type 0, BuildingBlock: KUFVIS_clean_sbu_0, # of connection points: 4
#     Node 3, Type 0, BuildingBlock: KUFVIS_clean_sbu_0, # of connection points: 4
#     Node 4, Type 0, BuildingBlock: KUFVIS_clean_sbu_0, # of connection points: 4
#     Node 5, Type 0, BuildingBlock: KUFVIS_clean_sbu_0, # of connection points: 4
#     Node 6, Type 0, BuildingBlock: KUFVIS_clean_sbu_0, # of connection points: 4
#     Node 7, Type 0, BuildingBlock: KUFVIS_clean_sbu_0, # of connection points: 4
#     Node 8, Type 0, BuildingBlock: KUFVIS_clean_sbu_0, # of connection points: 4
#     Node 9, Type 0, BuildingBlock: KUFVIS_clean_sbu_0, # of connection points: 4
#     Node 10, Type 0, BuildingBlock: KUFVIS_clean_sbu_0, # of connection points: 4
#     Node 11, Type 0, BuildingBlock: KUFVIS_clean_sbu_0, # of connection points: 4
#     Node 12, Type 0, BuildingBlock: KUFVIS_clean_sbu_0, # of connection points: 4
#     Node 13, Type 0, BuildingBlock: KUFVIS_clean_sbu_0, # of connection points: 4
#     Node 14, Type 0, BuildingBlock: KUFVIS_clean_sbu_0, # of connection points: 4
#     Node 15, Type 0, BuildingBlock: KUFVIS_clean_sbu_0, # of connection points: 4
#     Node 16, Type 0, BuildingBlock: KUFVIS_clean_sbu_0, # of connection points: 4
#     Node 17, Type 0, BuildingBlock: KUFVIS_clean_sbu_0, # of connection points: 4
#     Node 18, Type 0, BuildingBlock: KUFVIS_clean_sbu_0, # of connection points: 4
#     Node 19, Type 0, BuildingBlock: KUFVIS_clean_sbu_0, # of connection points: 4
#     Node 20, Type 0, BuildingBlock: KUFVIS_clean_sbu_0, # of connection points: 4
#     Node 21, Type 0, BuildingBlock: KUFVIS_clean_sbu_0, # of connection points: 4
#     Node 22, Type 0, BuildingBlock: KUFVIS_clean_sbu_0, # of connection points: 4
#     Node 23, Type 0, BuildingBlock: KUFVIS_clean_sbu_0, # of connection points: 4
#     Node 24, Type 1, BuildingBlock: BETDIP_clean_sbu_0, # of connection points: 6
#     Node 25, Type 1, BuildingBlock: BETDIP_clean_sbu_0, # of connection points: 6
#     Node 26, Type 1, BuildingBlock: BETDIP_clean_sbu_0, # of connection points: 6
#     Node 27, Type 1, BuildingBlock: BETDIP_clean_sbu_0, # of connection points: 6
#     Node 28, Type 1, BuildingBlock: BETDIP_clean_sbu_0, # of connection points: 6
#     Node 29, Type 1, BuildingBlock: BETDIP_clean_sbu_0, # of connection points: 6
#     Node 30, Type 1, BuildingBlock: BETDIP_clean_sbu_0, # of connection points: 6
#     Node 31, Type 1, BuildingBlock: BETDIP_clean_sbu_0, # of connection points: 6
#     Node 32, Type 1, BuildingBlock: BETDIP_clean_sbu_0, # of connection points: 6
#     Node 33, Type 1, BuildingBlock: BETDIP_clean_sbu_0, # of connection points: 6
#     Node 34, Type 1, BuildingBlock: BETDIP_clean_sbu_0, # of connection points: 6
#     Node 35, Type 1, BuildingBlock: BETDIP_clean_sbu_0, # of connection points: 6
#     Node 36, Type 1, BuildingBlock: BETDIP_clean_sbu_0, # of connection points: 6
#     Node 37, Type 1, BuildingBlock: BETDIP_clean_sbu_0, # of connection points: 6
#     Node 38, Type 1, BuildingBlock: BETDIP_clean_sbu_0, # of connection points: 6
#     Node 39, Type 1, BuildingBlock: BETDIP_clean_sbu_0, # of connection points: 6
#     Edge 40, Type (0, 1), BuildingBlock: ZUJKAS_clean_linker_0, # of connection points: 2
#     Edge 41, Type (0, 1), BuildingBlock: ZUJKAS_clean_linker_0, # of connection points: 2
#     Edge 42, Type (0, 1), BuildingBlock: ZUJKAS_clean_linker_0, # of connection points: 2
#     Edge 43, Type (0, 1), BuildingBlock: ZUJKAS_clean_linker_0, # of connection points: 2
#     Edge 44, Type (0, 1), BuildingBlock: ZUJKAS_clean_linker_0, # of connection points: 2
#     Edge 45, Type (0, 1), BuildingBlock: ZUJKAS_clean_linker_0, # of connection points: 2
#     Edge 46, Type (0, 1), BuildingBlock: ZUJKAS_clean_linker_0, # of connection points: 2
#     Edge 47, Type (0, 1), BuildingBlock: ZUJKAS_clean_linker_0, # of connection points: 2
#     Edge 48, Type (0, 1), BuildingBlock: ZUJKAS_clean_linker_0, # of connection points: 2
#     Edge 49, Type (0, 1), BuildingBlock: ZUJKAS_clean_linker_0, # of connection points: 2
#     Edge 50, Type (0, 1), BuildingBlock: ZUJKAS_clean_linker_0, # of connection points: 2
#     Edge 51, Type (0, 1), BuildingBlock: ZUJKAS_clean_linker_0, # of connection points: 2
#     Edge 52, Type (0, 1), BuildingBlock: ZUJKAS_clean_linker_0, # of connection points: 2
#     Edge 53, Type (0, 1), BuildingBlock: ZUJKAS_clean_linker_0, # of connection points: 2
#     Edge 54, Type (0, 1), BuildingBlock: ZUJKAS_clean_linker_0, # of connection points: 2
#     Edge 55, Type (0, 1), BuildingBlock: ZUJKAS_clean_linker_0, # of connection points: 2
#     Edge 56, Type (0, 1), BuildingBlock: ZUJKAS_clean_linker_0, # of connection points: 2
#     Edge 57, Type (0, 1), BuildingBlock: ZUJKAS_clean_linker_0, # of connection points: 2
#     Edge 58, Type (0, 1), BuildingBlock: ZUJKAS_clean_linker_0, # of connection points: 2
#     Edge 59, Type (0, 1), BuildingBlock: ZUJKAS_clean_linker_0, # of connection points: 2
#     Edge 60, Type (0, 1), BuildingBlock: ZUJKAS_clean_linker_0, # of connection points: 2
#     Edge 61, Type (0, 1), BuildingBlock: ZUJKAS_clean_linker_0, # of connection points: 2
#     Edge 62, Type (0, 1), BuildingBlock: ZUJKAS_clean_linker_0, # of connection points: 2
#     Edge 63, Type (0, 1), BuildingBlock: ZUJKAS_clean_linker_0, # of connection points: 2
#     Edge 64, Type (0, 1), BuildingBlock: ZUJKAS_clean_linker_0, # of connection points: 2
#     Edge 65, Type (0, 1), BuildingBlock: ZUJKAS_clean_linker_0, # of connection points: 2
#     Edge 66, Type (0, 1), BuildingBlock: ZUJKAS_clean_linker_0, # of connection points: 2
#     Edge 67, Type (0, 1), BuildingBlock: ZUJKAS_clean_linker_0, # of connection points: 2
#     Edge 68, Type (0, 1), BuildingBlock: ZUJKAS_clean_linker_0, # of connection points: 2
#     Edge 69, Type (0, 1), BuildingBlock: ZUJKAS_clean_linker_0, # of connection points: 2
#     Edge 70, Type (0, 1), BuildingBlock: ZUJKAS_clean_linker_0, # of connection points: 2
#     Edge 71, Type (0, 1), BuildingBlock: ZUJKAS_clean_linker_0, # of connection points: 2
#     Edge 72, Type (0, 1), BuildingBlock: ZUJKAS_clean_linker_0, # of connection points: 2
#     Edge 73, Type (0, 1), BuildingBlock: ZUJKAS_clean_linker_0, # of connection points: 2
#     Edge 74, Type (0, 1), BuildingBlock: ZUJKAS_clean_linker_0, # of connection points: 2
#     Edge 75, Type (0, 1), BuildingBlock: ZUJKAS_clean_linker_0, # of connection points: 2
#     Edge 76, Type (0, 1), BuildingBlock: ZUJKAS_clean_linker_0, # of connection points: 2
#     Edge 77, Type (0, 1), BuildingBlock: ZUJKAS_clean_linker_0, # of connection points: 2
#     Edge 78, Type (0, 1), BuildingBlock: ZUJKAS_clean_linker_0, # of connection points: 2
#     Edge 79, Type (0, 1), BuildingBlock: ZUJKAS_clean_linker_0, # of connection points: 2
#     Edge 80, Type (0, 1), BuildingBlock: ZUJKAS_clean_linker_0, # of connection points: 2
#     Edge 81, Type (0, 1), BuildingBlock: ZUJKAS_clean_linker_0, # of connection points: 2
#     Edge 82, Type (0, 1), BuildingBlock: ZUJKAS_clean_linker_0, # of connection points: 2
#     Edge 83, Type (0, 1), BuildingBlock: ZUJKAS_clean_linker_0, # of connection points: 2
#     Edge 84, Type (0, 1), BuildingBlock: ZUJKAS_clean_linker_0, # of connection points: 2
#     Edge 85, Type (0, 1), BuildingBlock: ZUJKAS_clean_linker_0, # of connection points: 2
#     Edge 86, Type (0, 1), BuildingBlock: ZUJKAS_clean_linker_0, # of connection points: 2
#     Edge 87, Type (0, 1), BuildingBlock: ZUJKAS_clean_linker_0, # of connection points: 2
#     Edge 88, Type (0, 1), BuildingBlock: ZUJKAS_clean_linker_0, # of connection points: 2
#     Edge 89, Type (0, 1), BuildingBlock: ZUJKAS_clean_linker_0, # of connection points: 2
#     Edge 90, Type (0, 1), BuildingBlock: ZUJKAS_clean_linker_0, # of connection points: 2
#     Edge 91, Type (0, 1), BuildingBlock: ZUJKAS_clean_linker_0, # of connection points: 2
#     Edge 92, Type (0, 1), BuildingBlock: ZUJKAS_clean_linker_0, # of connection points: 2
#     Edge 93, Type (0, 1), BuildingBlock: ZUJKAS_clean_linker_0, # of connection points: 2
#     Edge 94, Type (0, 1), BuildingBlock: ZUJKAS_clean_linker_0, # of connection points: 2
#     Edge 95, Type (0, 1), BuildingBlock: ZUJKAS_clean_linker_0, # of connection points: 2
#     Edge 96, Type (0, 1), BuildingBlock: ZUJKAS_clean_linker_0, # of connection points: 2
#     Edge 97, Type (0, 1), BuildingBlock: ZUJKAS_clean_linker_0, # of connection points: 2
#     Edge 98, Type (0, 1), BuildingBlock: ZUJKAS_clean_linker_0, # of connection points: 2
#     Edge 99, Type (0, 1), BuildingBlock: ZUJKAS_clean_linker_0, # of connection points: 2
#     Edge 100, Type (0, 1), BuildingBlock: ZUJKAS_clean_linker_0, # of connection points: 2
#     Edge 101, Type (0, 1), BuildingBlock: ZUJKAS_clean_linker_0, # of connection points: 2
#     Edge 102, Type (0, 1), BuildingBlock: ZUJKAS_clean_linker_0, # of connection points: 2
#     Edge 103, Type (0, 1), BuildingBlock: ZUJKAS_clean_linker_0, # of connection points: 2
#     Edge 104, Type (0, 1), BuildingBlock: ZUJKAS_clean_linker_0, # of connection points: 2
#     Edge 105, Type (0, 1), BuildingBlock: ZUJKAS_clean_linker_0, # of connection points: 2
#     Edge 106, Type (0, 1), BuildingBlock: ZUJKAS_clean_linker_0, # of connection points: 2
#     Edge 107, Type (0, 1), BuildingBlock: ZUJKAS_clean_linker_0, # of connection points: 2
#     Edge 108, Type (0, 1), BuildingBlock: ZUJKAS_clean_linker_0, # of connection points: 2
#     Edge 109, Type (0, 1), BuildingBlock: ZUJKAS_clean_linker_0, # of connection points: 2
#     Edge 110, Type (0, 1), BuildingBlock: ZUJKAS_clean_linker_0, # of connection points: 2
#     Edge 111, Type (0, 1), BuildingBlock: ZUJKAS_clean_linker_0, # of connection points: 2
#     Edge 112, Type (0, 1), BuildingBlock: ZUJKAS_clean_linker_0, # of connection points: 2
#     Edge 113, Type (0, 1), BuildingBlock: ZUJKAS_clean_linker_0, # of connection points: 2
#     Edge 114, Type (0, 1), BuildingBlock: ZUJKAS_clean_linker_0, # of connection points: 2
#     Edge 115, Type (0, 1), BuildingBlock: ZUJKAS_clean_linker_0, # of connection points: 2
#     Edge 116, Type (0, 1), BuildingBlock: ZUJKAS_clean_linker_0, # of connection points: 2
#     Edge 117, Type (0, 1), BuildingBlock: ZUJKAS_clean_linker_0, # of connection points: 2
#     Edge 118, Type (0, 1), BuildingBlock: ZUJKAS_clean_linker_0, # of connection points: 2
#     Edge 119, Type (0, 1), BuildingBlock: ZUJKAS_clean_linker_0, # of connection points: 2
#     Edge 120, Type (0, 1), BuildingBlock: ZUJKAS_clean_linker_0, # of connection points: 2
#     Edge 121, Type (0, 1), BuildingBlock: ZUJKAS_clean_linker_0, # of connection points: 2
#     Edge 122, Type (0, 1), BuildingBlock: ZUJKAS_clean_linker_0, # of connection points: 2
#     Edge 123, Type (0, 1), BuildingBlock: ZUJKAS_clean_linker_0, # of connection points: 2
#     Edge 124, Type (0, 1), BuildingBlock: ZUJKAS_clean_linker_0, # of connection points: 2
#     Edge 125, Type (0, 1), BuildingBlock: ZUJKAS_clean_linker_0, # of connection points: 2
#     Edge 126, Type (0, 1), BuildingBlock: ZUJKAS_clean_linker_0, # of connection points: 2
#     Edge 127, Type (0, 1), BuildingBlock: ZUJKAS_clean_linker_0, # of connection points: 2
#     Edge 128, Type (0, 1), BuildingBlock: ZUJKAS_clean_linker_0, # of connection points: 2
#     Edge 129, Type (0, 1), BuildingBlock: ZUJKAS_clean_linker_0, # of connection points: 2
#     Edge 130, Type (0, 1), BuildingBlock: ZUJKAS_clean_linker_0, # of connection points: 2
#     Edge 131, Type (0, 1), BuildingBlock: ZUJKAS_clean_linker_0, # of connection points: 2
#     Edge 132, Type (0, 1), BuildingBlock: ZUJKAS_clean_linker_0, # of connection points: 2
#     Edge 133, Type (0, 1), BuildingBlock: ZUJKAS_clean_linker_0, # of connection points: 2
#     Edge 134, Type (0, 1), BuildingBlock: ZUJKAS_clean_linker_0, # of connection points: 2
#     Edge 135, Type (0, 1), BuildingBlock: ZUJKAS_clean_linker_0, # of connection points: 2
# Relax obj value: 0.145
# Max RMSD: 0.268
# Mean RMSD: 0.138
data_MOF--net-gar--node1-KUFVIS_clean_sbu_0--node2-BETDIP_clean_sbu_0--edge1-ZUJKAS_clean_linker_0
_symmetry_space_group_name_H-M    P1
_symmetry_Int_Tables_number       1
_symmetry_cell_setting            triclinic
loop_
_symmetry_equiv_pos_as_xyz
'x, y, z'
_cell_length_a     78.59824
_cell_length_b     72.209629
_cell_length_c     71.079073
_cell_angle_alpha  96.3528
_cell_angle_beta   97.624924
_cell_angle_gamma 100.25834
loop_
_atom_site_label
_atom_site_type_symbol
_atom_site_fract_x
_atom_site_fract_y
_atom_site_fract_z
_atom_type_partial_charge
Mn0 Mn 0.0347 0.29816 0.39452 0.0
Mn1 Mn 0.02312 0.33069 0.36721 0.0
C2 C 1.00556 0.29753 0.38479 0.0
C3 C 0.04372 0.26975 0.398 0.0
C4 C 0.03468 0.33918 0.41018 0.0
O5 O 0.05708 0.3088 0.38529 0.0
O6 O 0.04787 0.32865 0.36574 0.0
C7 C 0.02485 0.3105 0.32912 0.0
N8 N 0.01574 0.31933 0.34116 0.0
C9 C 0.99094 0.31545 0.31627 0.0
C10 C 1.0001 0.30644 0.30356 0.0
C11 C 0.0171 0.3039 0.31004 0.0
C12 C 0.99935 0.32176 0.3351 0.0
H13 H 0.03791 0.30851 0.33406 0.0
C14 C 0.0597 0.32044 0.37332 0.0
O15 O 0.04745 0.2839 0.41177 0.0
O16 O 0.03489 0.27216 0.38196 0.0
N17 N 0.99956 0.33432 0.36675 0.0
C18 C 0.9921 0.34214 0.38114 0.0
C19 C 0.97497 0.34534 0.37713 0.0
C20 C 0.96573 0.34059 0.35838 0.0
C21 C 0.97366 0.33254 0.34383 0.0
C22 C 0.99084 0.3299 0.34862 0.0
H23 H 0.99917 0.34595 0.39554 0.0
O24 O 1.01057 0.28942 0.3994 0.0
O25 O 0.01779 0.30545 0.37581 0.0
O26 O 0.0368 0.32252 0.41266 0.0
O27 O 0.03006 0.34389 0.39375 0.0
C28 C 0.96508 0.32672 0.32484 0.0
C29 C 0.97369 0.3181 0.31108 0.0
H30 H 0.99416 0.30128 0.28884 0.0
H31 H 0.02422 0.29687 0.30035 0.0
H32 H 0.9689 0.35149 0.38845 0.0
H33 H 0.9525 0.34302 0.35535 0.0
H34 H 0.95177 0.32851 0.32073 0.0
H35 H 0.96687 0.31341 0.29661 0.0
Mn36 Mn 0.05167 0.7488 0.68283 0.0
Mn37 Mn 0.0783 0.77258 0.72273 0.0
C38 C 0.08137 0.75126 0.68487 0.0
C39 C 0.0345 0.72151 0.66479 0.0
C40 C 0.06328 0.79222 0.69106 0.0
O41 O 0.03477 0.75072 0.70169 0.0
O42 O 0.05346 0.7674 0.72707 0.0
C43 C 0.07367 0.74128 0.74634 0.0
N44 N 0.0844 0.75444 0.73874 0.0
C45 C 0.11007 0.74536 0.7545 0.0
C46 C 0.0993 0.73178 0.76259 0.0
C47 C 0.08102 0.72969 0.75844 0.0
C48 C 0.10199 0.75645 0.74251 0.0
H49 H 0.05962 0.73966 0.74321 0.0
C50 C 0.03804 0.75922 0.71881 0.0
O51 O 0.03223 0.73828 0.66142 0.0
O52 O 0.04596 0.72065 0.67945 0.0
N53 N 0.10277 0.77888 0.72137 0.0
C54 C 0.11131 0.79229 0.71202 0.0
C55 C 0.12968 0.79608 0.71457 0.0
C56 C 0.1391 0.78627 0.72692 0.0
C57 C 0.13005 0.77274 0.7366 0.0
C58 C 0.11173 0.76965 0.73358 0.0
H59 H 0.10415 0.79996 0.7026 0.0
O60 O 0.07133 0.74765 0.66839 0.0
O61 O 0.07375 0.75289 0.70008 0.0
O62 O 0.05408 0.77717 0.68096 0.0
O63 O 0.0731 0.79222 0.70688 0.0
C64 C 0.13848 0.76195 0.74886 0.0
C65 C 0.12849 0.74821 0.75773 0.0
H66 H 0.10492 0.72282 0.77193 0.0
H67 H 0.07262 0.7192 0.76457 0.0
H68 H 0.13657 0.80653 0.70703 0.0
H69 H 0.15327 0.78915 0.72876 0.0
H70 H 0.15262 0.76394 0.75137 0.0
H71 H 0.13511 0.73986 0.76696 0.0
Mn72 Mn 0.52447 0.79187 0.89039 0.0
Mn73 Mn 0.51759 0.8236 0.86022 0.0
C74 C 0.49699 0.79838 0.88339 0.0
C75 C 0.5269 0.76136 0.89586 0.0
C76 C 0.53507 0.83472 0.90163 0.0
O77 O 0.54586 0.79469 0.87728 0.0
O78 O 0.53915 0.8139 0.85567 0.0
C79 C 0.50984 0.79761 0.82357 0.0
N80 N 0.50496 0.81053 0.83618 0.0
C81 C 0.47746 0.80846 0.81583 0.0
C82 C 0.48227 0.79526 0.80255 0.0
C83 C 0.49851 0.78978 0.80646 0.0
C84 C 0.48932 0.81583 0.8326 0.0
H85 H 0.52226 0.79326 0.82656 0.0
C86 C 0.54904 0.80344 0.86314 0.0
O87 O 0.53467 0.7761 0.90811 0.0
O88 O 0.51789 0.76438 0.8802 0.0
N89 N 0.49701 0.83383 0.86278 0.0
C90 C 0.49399 0.846 0.87748 0.0
C91 C 0.47816 0.85259 0.87598 0.0
C92 C 0.46566 0.84668 0.85938 0.0
C93 C 0.46909 0.83423 0.8444 0.0
C94 C 0.48517 0.82828 0.84662 0.0
H95 H 0.50352 0.85059 0.89029 0.0
O96 O 0.50118 0.79092 0.89873 0.0
O97 O 0.50893 0.80144 0.87244 0.0
O98 O 0.53339 0.81791 0.90586 0.0
O99 O 0.53018 0.8385 0.88483 0.0
C100 C 0.45709 0.82727 0.82748 0.0
C101 C 0.46125 0.81434 0.81324 0.0
H102 H 0.47353 0.78912 0.78938 0.0
H103 H 0.50226 0.77951 0.79634 0.0
H104 H 0.47559 0.86217 0.88762 0.0
H105 H 0.45344 0.85174 0.85833 0.0
H106 H 0.44454 0.83158 0.82537 0.0
H107 H 0.45181 0.80888 0.80041 0.0
Mn108 Mn 0.55009 0.24919 0.17913 0.0
Mn109 Mn 0.51795 0.25039 0.14321 0.0
C110 C 0.53664 0.2218 0.15912 0.0
C111 C 0.5797 0.25303 0.19023 0.0
C112 C 0.51324 0.25283 0.18505 0.0
O113 O 0.55285 0.27721 0.17663 0.0
O114 O 0.53288 0.27616 0.15045 0.0
C115 C 0.53922 0.25831 0.11259 0.0
N116 N 0.5262 0.24695 0.11919 0.0
C117 C 0.52042 0.22482 0.09013 0.0
C118 C 0.5337 0.23634 0.08296 0.0
C119 C 0.54316 0.25314 0.09426 0.0
C120 C 0.51703 0.23074 0.10846 0.0
H121 H 0.54659 0.27118 0.12126 0.0
C122 C 0.54532 0.28511 0.1636 0.0
O123 O 0.56859 0.25472 0.20202 0.0
O124 O 0.57355 0.24902 0.1721 0.0
N125 N 0.50289 0.22614 0.13482 0.0
C126 C 0.49114 0.21613 0.14423 0.0
C127 C 0.48091 0.1987 0.13509 0.0
C128 C 0.48281 0.19179 0.11638 0.0
C129 C 0.49491 0.20242 0.10694 0.0
C130 C 0.50464 0.21976 0.1167 0.0
H131 H 0.48964 0.22135 0.15863 0.0
O132 O 0.54497 0.22078 0.17589 0.0
O133 O 0.53659 0.23874 0.15474 0.0
O134 O 0.52841 0.25028 0.1916 0.0
O135 O 0.5082 0.2536 0.16735 0.0
C136 C 0.49788 0.19633 0.08834 0.0
C137 C 0.51063 0.20752 0.07994 0.0
H138 H 0.53684 0.23234 0.06888 0.0
H139 H 0.55349 0.26205 0.08888 0.0
H140 H 0.47162 0.19057 0.14249 0.0
H141 H 0.47501 0.17826 0.10945 0.0
H142 H 0.4906 0.18295 0.08047 0.0
H143 H 0.51297 0.20257 0.06574 0.0
Mn144 Mn 0.07051 0.78901 0.15071 0.0
Mn145 Mn 0.04 0.77571 0.111 0.0
C146 C 0.06221 0.75713 0.13729 0.0
C147 C 0.09984 0.79807 0.16596 0.0
C148 C 0.03094 0.78584 0.1507 0.0
O149 O 0.06972 0.81442 0.14006 0.0
O150 O 0.05046 0.80315 0.11298 0.0
C151 C 0.06345 0.78064 0.08181 0.0
N152 N 0.05093 0.76948 0.08932 0.0
C153 C 0.04939 0.74332 0.06463 0.0
C154 C 0.06207 0.75463 0.05646 0.0
C155 C 0.06921 0.77333 0.06516 0.0
C156 C 0.0442 0.75136 0.08126 0.0
H157 H 0.06904 0.79497 0.08852 0.0
C158 C 0.06105 0.81672 0.12414 0.0
O159 O 0.08693 0.80152 0.17457 0.0
O160 O 0.09579 0.79063 0.1481 0.0
N161 N 0.02894 0.74944 0.1071 0.0
C162 C 0.01773 0.74002 0.11751 0.0
C163 C 1.01 0.72087 0.11122 0.0
C164 C 0.01367 0.71171 0.09417 0.0
C165 C 0.02509 0.72176 0.08359 0.0
C166 C 0.03247 0.74078 0.09062 0.0
H167 H 0.01475 0.74703 0.13055 0.0
O168 O 0.06922 0.76181 0.15514 0.0
O169 O 0.06021 0.77119 0.12785 0.0
O170 O 0.0466 0.78908 0.15969 0.0
O171 O 0.02723 0.78127 0.13253 0.0
C172 C 0.02957 0.71362 0.06645 0.0
C173 C 0.04184 0.72432 0.05707 0.0
H174 H 0.06655 0.74904 0.04363 0.0
H175 H 0.07912 0.78209 0.05905 0.0
H176 H 1.0012 0.71321 0.11946 0.0
H177 H 1.00771 0.69693 0.08937 0.0
H178 H 0.02386 0.69902 0.06052 0.0
H179 H 0.04547 0.71775 0.04414 0.0
Mn180 Mn 0.51203 0.75596 0.42087 0.0
Mn181 Mn 0.50733 0.77883 0.38186 0.0
C182 C 0.48406 0.7571 0.40569 0.0
C183 C 0.51618 0.7291 0.43562 0.0
C184 C 0.51591 0.79941 0.42251 0.0
O185 O 0.53653 0.75913 0.41293 0.0
O186 O 0.53129 0.77344 0.38688 0.0
C187 C 0.51011 0.74678 0.35335 0.0
N188 N 0.50121 0.76024 0.35951 0.0
C189 C 0.47879 0.75078 0.33187 0.0
C190 C 0.48776 0.73689 0.32516 0.0
C191 C 0.50345 0.73483 0.336 0.0
C192 C 0.48597 0.76214 0.34936 0.0
H193 H 0.52219 0.74519 0.36161 0.0
C194 C 0.54145 0.76642 0.39848 0.0
O195 O 0.52054 0.74618 0.44485 0.0
O196 O 0.50962 0.72753 0.41761 0.0
N197 N 0.48505 0.7853 0.37454 0.0
C198 C 0.47814 0.79958 0.38288 0.0
C199 C 0.4627 0.80387 0.37358 0.0
C200 C 0.45469 0.79368 0.35568 0.0
C201 C 0.46211 0.77919 0.3473 0.0
C202 C 0.47762 0.77569 0.35712 0.0
H203 H 0.48443 0.80772 0.39645 0.0
O204 O 0.4866 0.75335 0.42315 0.0
O205 O 0.49786 0.75937 0.39718 0.0
O206 O 0.51604 0.78454 0.43073 0.0
O207 O 0.51313 0.79891 0.40431 0.0
C208 C 0.45474 0.7681 0.32955 0.0
C209 C 0.463 0.7538 0.32192 0.0
H210 H 0.4827 0.7277 0.31174 0.0
H211 H 0.51042 0.72409 0.33095 0.0
H212 H 0.45706 0.81512 0.38012 0.0
H213 H 0.44291 0.79718 0.34842 0.0
H214 H 0.44267 0.77038 0.32171 0.0
H215 H 0.45714 0.74526 0.30833 0.0
Mn216 Mn 0.57076 0.28963 0.64776 0.0
Mn217 Mn 0.53838 0.2799 0.60966 0.0
C218 C 0.56111 0.2586 0.632 0.0
C219 C 0.60041 0.29716 0.662 0.0
C220 C 0.53142 0.28539 0.65057 0.0
O221 O 0.57046 0.31626 0.63989 0.0
O222 O 0.54821 0.30749 0.61535 0.0
C223 C 0.56027 0.2908 0.58028 0.0
N224 N 0.54842 0.27776 0.58667 0.0
C225 C 0.54486 0.25629 0.55742 0.0
C226 C 0.55699 0.26949 0.55049 0.0
C227 C 0.56483 0.28677 0.56203 0.0
C228 C 0.54113 0.26093 0.57588 0.0
H229 H 0.56611 0.30421 0.58899 0.0
C230 C 0.55989 0.32018 0.62625 0.0
O231 O 0.58797 0.3001 0.67158 0.0
O232 O 0.59574 0.29098 0.64387 0.0
N233 N 0.52745 0.25384 0.60202 0.0
C234 C 0.51642 0.24244 0.61109 0.0
C235 C 0.50747 0.22463 0.60151 0.0
C236 C 0.50964 0.21893 0.58258 0.0
C237 C 0.52108 0.2309 0.57355 0.0
C238 C 0.5298 0.24838 0.58389 0.0
H239 H 0.51435 0.24698 0.62546 0.0
O240 O 0.56883 0.26187 0.64966 0.0
O241 O 0.55923 0.27356 0.6239 0.0
O242 O 0.54748 0.28946 0.65837 0.0
O243 O 0.52664 0.2814 0.63248 0.0
C244 C 0.52409 0.22626 0.55464 0.0
C245 C 0.53618 0.23879 0.5467 0.0
H246 H 0.56037 0.26652 0.53632 0.0
H247 H 0.57421 0.29703 0.55679 0.0
H248 H 0.4987 0.21544 0.60859 0.0
H249 H 0.5025 0.20529 0.57515 0.0
H250 H 0.51733 0.21296 0.54615 0.0
H251 H 0.53862 0.23489 0.53228 0.0
Mn252 Mn 1.01142 0.25485 0.92209 0.0
Mn253 Mn 1.01086 0.27946 0.88417 0.0
C254 C 0.9847 0.25753 0.90468 0.0
C255 C 1.0134 0.22719 0.93643 0.0
C256 C 0.01646 0.29862 0.92513 0.0
O257 O 0.03667 0.25714 0.91646 0.0
O258 O 0.0344 0.27404 0.89191 0.0
C259 C 0.01664 0.2485 0.85625 0.0
N260 N 1.00704 0.26166 0.86136 0.0
C261 C 0.98884 0.25487 0.83052 0.0
C262 C 0.99852 0.24126 0.82488 0.0
C263 C 1.01239 0.23793 0.83788 0.0
C264 C 0.99332 0.2645 0.84922 0.0
H265 H 0.02752 0.24616 0.86607 0.0
C266 C 0.04324 0.26578 0.90358 0.0
O267 O 0.0177 0.24404 0.94617 0.0
O268 O 1.00797 0.22631 0.9182 0.0
N269 N 0.98931 0.28618 0.87426 0.0
C270 C 0.98165 0.30024 0.88172 0.0
C271 C 0.9676 0.3054 0.87052 0.0
C272 C 0.96209 0.29667 0.8515 0.0
C273 C 0.97057 0.2827 0.8439 0.0
C274 C 0.98412 0.27773 0.85593 0.0
H275 H 0.98626 0.30749 0.8961 0.0
O276 O 0.98566 0.25324 0.92199 0.0
O277 O 0.99929 0.25944 0.89759 0.0
O278 O 0.01601 0.28337 0.93281 0.0
O279 O 0.01454 0.29878 0.90702 0.0
C280 C 0.96628 0.27372 0.82477 0.0
C281 C 0.97517 0.25956 0.81819 0.0
H282 H 0.99549 0.23335 0.81059 0.0
H283 H 0.01994 0.22747 0.83364 0.0
H284 H 0.96126 0.31634 0.87641 0.0
H285 H 0.95143 0.3009 0.8428 0.0
H286 H 0.95599 0.27744 0.81505 0.0
H287 H 0.97154 0.25255 0.80355 0.0
Mn288 Mn 0.41812 0.04556 0.27036 0.0
Mn289 Mn 0.38517 0.03957 0.29749 0.0
C290 C 0.40306 1.01392 0.27396 0.0
C291 C 0.43098 0.04766 0.24004 0.0
C292 C 0.42392 0.04899 0.31581 0.0
O293 O 0.40982 0.07287 0.27213 0.0
O294 O 0.3884 0.0658 0.28975 0.0
C295 C 0.35578 0.04144 0.26741 0.0
N296 N 0.36302 0.0322 0.28116 0.0
C297 C 0.33745 1.00722 0.2758 0.0
C298 C 0.32965 0.01659 0.26175 0.0
C299 C 0.33889 0.03373 0.25749 0.0
C300 C 0.35431 0.0156 0.28524 0.0
H301 H 0.36284 0.05457 0.264 0.0
C302 C 0.39699 0.07753 0.28042 0.0
O303 O 0.43966 0.05391 0.25703 0.0
O304 O 0.41445 0.04151 0.24036 0.0
N305 N 0.37973 0.01524 0.30602 0.0
C306 C 0.38945 1.0074 0.31918 0.0
C307 C 0.38225 0.98993 0.32463 0.0
C308 C 0.36509 0.98081 0.31671 0.0
C309 C 0.35524 0.98926 0.30342 0.0
C310 C 0.36307 1.00674 0.29859 0.0
H311 H 0.40263 1.01431 0.32539 0.0
O312 O 0.41867 0.01713 0.26945 0.0
O313 O 0.39654 0.02929 0.27635 0.0
O314 O 0.43 0.04996 0.29984 0.0
O315 O 0.40742 0.04629 0.31618 0.0
C316 C 0.33813 0.9808 0.29442 0.0
C317 C 0.32926 0.98973 0.28057 0.0
H318 H 0.31664 1.01066 0.25402 0.0
H319 H 0.33301 0.04098 0.24656 0.0
H320 H 0.38995 0.9835 0.33488 0.0
H321 H 0.35965 0.96725 0.32081 0.0
H322 H 0.33179 0.96725 0.29779 0.0
H323 H 0.31622 0.98293 0.27352 0.0
Mn324 Mn 0.26524 0.16113 0.51859 0.0
Mn325 Mn 0.2541 0.12354 0.48364 0.0
C326 C 0.23601 0.14536 0.51018 0.0
C327 C 0.27351 0.17458 0.55102 0.0
C328 C 0.26348 0.16438 0.47551 0.0
O329 O 0.2888 0.15268 0.51674 0.0
O330 O 0.2793 0.12668 0.49459 0.0
C331 C 0.25831 0.09241 0.50665 0.0
N332 N 0.24808 0.10051 0.49427 0.0
C333 C 0.22356 0.0748 0.49261 0.0
C334 C 0.23385 0.06614 0.50528 0.0
C335 C 0.25128 0.07501 0.51235 0.0
C336 C 0.23129 0.09209 0.48737 0.0
H337 H 0.2717 0.09919 0.51215 0.0
C338 C 0.29143 0.13788 0.50661 0.0
O339 O 0.27639 0.18442 0.53715 0.0
O340 O 0.26661 0.1567 0.54607 0.0
N341 N 0.23001 0.11888 0.47222 0.0
C342 C 0.22154 0.12971 0.46115 0.0
C343 C 0.20388 0.12306 0.45322 0.0
C344 C 0.19514 0.10535 0.45672 0.0
C345 C 0.20408 0.09455 0.46833 0.0
C346 C 0.22173 0.10181 0.47565 0.0
H347 H 0.2282 0.14331 0.45835 0.0
O348 O 0.2399 0.16292 0.51823 0.0
O349 O 0.24931 0.13779 0.50685 0.0
O350 O 0.26568 0.17213 0.49294 0.0
O351 O 0.25961 0.14638 0.47073 0.0
C352 C 0.19611 0.07699 0.47312 0.0
C353 C 0.20583 0.06715 0.4853 0.0
H354 H 0.22845 0.05278 0.5098 0.0
H355 H 0.25928 0.06846 0.52219 0.0
H356 H 0.19704 0.13152 0.44437 0.0
H357 H 0.18154 0.10025 0.45049 0.0
H358 H 0.18246 0.07104 0.46772 0.0
H359 H 0.19949 0.0538 0.48911 0.0
Mn360 Mn 0.14459 0.05011 0.80627 0.0
Mn361 Mn 0.18028 0.05754 0.84032 0.0
C362 C 0.16153 0.0805 0.81537 0.0
C363 C 0.13169 0.04262 0.77395 0.0
C364 C 0.14306 0.04992 0.84916 0.0
O365 O 0.14989 0.02348 0.80714 0.0
O366 O 0.17486 0.0305 0.82851 0.0
C367 C 0.20717 0.05123 0.81612 0.0
N368 N 0.20117 0.06268 0.8292 0.0
C369 C 0.22661 0.08738 0.83133 0.0
C370 C 0.23309 0.07583 0.81793 0.0
C371 C 0.22331 0.0577 0.81026 0.0
C372 C 0.21047 0.08015 0.83665 0.0
H373 H 0.19967 0.03729 0.8102 0.0
C374 C 0.16308 0.01874 0.81662 0.0
O375 O 0.12252 0.04006 0.7877 0.0
O376 O 0.14833 0.04916 0.779 0.0
N377 N 0.1869 0.08326 0.85259 0.0
C378 C 0.17824 0.09306 0.86435 0.0
C379 C 0.18606 0.11161 0.87293 0.0
C380 C 0.20271 0.11983 0.86939 0.0
C381 C 0.2113 0.10953 0.85708 0.0
C382 C 0.20293 0.09104 0.84909 0.0
H383 H 0.16548 0.08676 0.86721 0.0
O384 O 0.14527 0.07822 0.80754 0.0
O385 O 0.16711 0.06498 0.818 0.0
O386 O 0.13531 0.04929 0.83205 0.0
O387 O 0.15968 0.05269 0.85351 0.0
C388 C 0.22776 0.11693 0.85227 0.0
C389 C 0.23537 0.1059 0.83934 0.0
H390 H 0.2455 0.08079 0.81331 0.0
H391 H 0.22819 0.04873 0.79986 0.0
H392 H 0.17931 0.11953 0.88232 0.0
H393 H 0.20871 0.13412 0.87611 0.0
H394 H 0.23457 0.13119 0.85824 0.0
H395 H 0.24788 0.11187 0.83551 0.0
Mn396 Mn 0.25482 0.88222 0.99095 0.0
Mn397 Mn 0.24071 0.90669 0.95634 0.0
C398 C 0.27462 0.90334 0.97889 0.0
C399 C 0.26088 0.8788 0.023 0.0
C400 C 0.2432 0.8651 0.94914 0.0
O401 O 0.22896 0.87946 0.99225 0.0
O402 O 0.22124 0.89835 0.97073 0.0
C403 C 0.23426 0.9402 0.98033 0.0
N404 N 0.24263 0.93273 0.96659 0.0
C405 C 0.25809 0.96378 0.96316 0.0
C406 C 0.24953 0.9718 0.97715 0.0
C407 C 0.23758 0.95995 0.98578 0.0
C408 C 0.2541 0.94401 0.95814 0.0
H409 H 0.22519 0.93116 0.98714 0.0
C410 C 0.21789 0.88794 0.98382 0.0
O411 O 0.2573 0.86421 1.00971 0.0
O412 O 0.26073 0.8954 0.01769 0.0
N413 N 0.25863 0.9159 0.94195 0.0
C414 C 0.26676 0.90584 0.92978 0.0
C415 C 0.27963 0.91556 0.92054 0.0
C416 C 0.28399 0.93549 0.92389 0.0
C417 C 0.27542 0.94554 0.93643 0.0
C418 C 0.26257 0.9351 0.94508 0.0
H419 H 0.26359 0.89052 0.92726 0.0
O420 O 0.27968 0.88979 0.9874 0.0
O421 O 0.25814 0.90411 0.97779 0.0
O422 O 0.24976 0.86388 0.96619 0.0
O423 O 0.2387 0.8802 0.94409 0.0
C424 C 0.27941 0.96547 0.94102 0.0
C425 C 0.27075 0.97458 0.95437 0.0
H426 H 0.25218 0.98702 0.98154 0.0
H427 H 0.23101 0.96603 0.99668 0.0
H428 H 0.28624 0.90769 0.91095 0.0
H429 H 0.29406 0.94291 0.91689 0.0
H430 H 0.28931 0.97391 0.93459 0.0
H431 H 0.27412 0.98989 0.958 0.0
Mn432 Mn 0.3157 0.39256 0.05961 0.0
Mn433 Mn 0.32129 0.43025 0.03499 0.0
C434 C 0.34402 0.40799 0.05666 0.0
C435 C 0.31165 0.37888 0.08789 0.0
C436 C 0.31048 0.38935 0.01559 0.0
O437 O 0.29146 0.4004 0.05741 0.0
O438 O 0.29799 0.42655 0.04325 0.0
C439 C 0.32152 0.46069 0.0666 0.0
N440 N 0.32935 0.45322 0.05238 0.0
C441 C 0.35171 0.48142 0.05643 0.0
C442 C 0.34389 0.48945 0.07111 0.0
C443 C 0.32883 0.47895 0.07636 0.0
C444 C 0.34421 0.4629 0.04772 0.0
H445 H 0.30971 0.45282 0.07034 0.0
C446 C 0.28744 0.41521 0.05096 0.0
O447 O 0.30666 0.36925 0.07095 0.0
O448 O 0.31866 0.3967 0.0885 0.0
N449 N 0.34318 0.43608 0.02584 0.0
C450 C 0.3488 0.42655 1.01096 0.0
C451 C 0.36388 0.43497 1.00414 0.0
C452 C 0.37259 0.45344 0.01209 0.0
C453 C 0.36616 0.46328 0.02686 0.0
C454 C 0.35143 0.45391 0.03353 0.0
H455 H 0.34184 0.41261 1.00433 0.0
O456 O 0.34117 0.39085 0.06101 0.0
O457 O 0.33038 0.4159 0.05471 0.0
O458 O 0.31111 0.38163 0.03093 0.0
O459 O 0.31337 0.40734 0.01566 0.0
C460 C 0.37346 0.48223 0.0348 0.0
C461 C 0.3664 0.49121 0.04977 0.0
H462 H 0.34928 0.5037 0.07838 0.0
H463 H 0.3227 0.48506 0.08766 0.0
H464 H 0.3686 0.42739 0.99253 0.0
H465 H 0.38403 0.46004 1.00655 0.0
H466 H 0.38472 0.48992 0.02976 0.0
H467 H 0.37235 0.50566 0.05603 0.0
Mn468 Mn 0.8375 0.18521 0.06353 0.0
Mn469 Mn 0.82234 0.15226 0.0245 0.0
C470 C 0.8108 0.16515 0.0616 0.0
C471 C 0.85375 0.1958 0.09373 0.0
C472 C 0.81897 0.19327 0.02542 0.0
O473 O 0.85929 0.18457 0.05133 0.0
O474 O 0.84756 0.16304 0.02557 0.0
C475 C 0.84298 0.12396 0.03684 0.0
N476 N 0.82727 0.12846 0.03063 0.0
C477 C 0.81221 0.09631 0.03026 0.0
C478 C 0.82824 0.0913 0.03655 0.0
C479 C 0.84368 0.10521 0.03992 0.0
C480 C 0.81232 0.11525 0.02757 0.0
H481 H 0.85489 0.13459 0.03942 0.0
C482 C 0.86049 0.17477 0.03573 0.0
O483 O 0.85002 0.20753 0.08197 0.0
O484 O 0.84859 0.17775 0.08769 0.0
N485 N 0.79826 0.14008 0.02089 0.0
C486 C 0.78392 0.14721 0.01468 0.0
C487 C 0.7675 0.13503 1.01 0.0
C488 C 0.76595 0.11565 1.01187 0.0
C489 C 0.7809 0.10859 0.01807 0.0
C490 C 0.797 0.12132 0.02203 0.0
H491 H 0.78502 0.16205 0.01307 0.0
O492 O 0.81464 0.18119 0.07289 0.0
O493 O 0.82293 0.16084 0.05199 0.0
O494 O 0.82736 0.19881 0.04229 0.0
O495 O 0.8163 0.17612 0.01726 0.0
C496 C 0.78049 0.0894 0.02044 0.0
C497 C 0.79612 0.0833 0.02666 0.0
H498 H 0.82884 0.07685 0.0389 0.0
H499 H 0.8561 0.10148 0.04483 0.0
H500 H 0.75606 0.14056 1.00496 0.0
H501 H 0.75321 0.10633 1.00844 0.0
H502 H 0.76821 0.07925 0.01762 0.0
H503 H 0.79562 0.06855 0.02859 0.0
Mn504 Mn 0.16426 0.51361 0.29289 0.0
Mn505 Mn 0.1992 0.5249 0.32846 0.0
C506 C 0.17976 0.5462 0.30163 0.0
C507 C 0.14971 0.5076 0.25921 0.0
C508 C 0.16136 0.51595 0.33731 0.0
O509 O 0.17321 0.48694 0.29387 0.0
O510 O 0.1961 0.49713 0.31765 0.0
C511 C 0.22756 0.51963 0.30592 0.0
N512 N 0.22049 0.53089 0.31813 0.0
C513 C 0.24472 0.55695 0.31984 0.0
C514 C 0.25235 0.54555 0.30747 0.0
C515 C 0.2437 0.52683 0.30045 0.0
C516 C 0.22871 0.54894 0.32499 0.0
H517 H 0.22095 0.50529 0.30032 0.0
C518 C 0.18691 0.48386 0.30473 0.0
O519 O 0.14179 0.50311 0.27342 0.0
O520 O 0.16642 0.51384 0.26421 0.0
N521 N 0.2042 0.55106 0.33963 0.0
C522 C 0.19434 0.56078 0.34991 0.0
C523 C 0.20069 0.58003 0.35709 0.0
C524 C 0.2171 0.5891 0.35366 0.0
C525 C 0.22703 0.57883 0.34306 0.0
C526 C 0.22008 0.55962 0.33636 0.0
H527 H 0.18164 0.55398 0.35249 0.0
O528 O 0.16338 0.54191 0.29411 0.0
O529 O 0.18643 0.53129 0.30481 0.0
O530 O 0.15415 0.51264 0.31952 0.0
O531 O 0.17807 0.51981 0.34174 0.0
C532 C 0.24331 0.58705 0.33841 0.0
C533 C 0.25216 0.57611 0.32682 0.0
H534 H 0.26471 0.55111 0.30306 0.0
H535 H 0.24943 0.51799 0.29076 0.0
H536 H 0.1929 0.5879 0.36516 0.0
H537 H 0.22187 0.60402 0.35904 0.0
H538 H 0.24898 0.60187 0.34336 0.0
H539 H 0.26452 0.58269 0.32307 0.0
Mn540 Mn 0.81494 0.89301 0.56139 0.0
Mn541 Mn 0.82269 0.9316 0.53827 0.0
C542 C 0.8437 0.90719 0.55914 0.0
C543 C 0.81022 0.87861 0.58904 0.0
C544 C 0.81118 0.89135 0.51739 0.0
O545 O 0.79134 0.90201 0.55951 0.0
O546 O 0.79874 0.92771 0.545 0.0
C547 C 0.82193 0.96047 0.57101 0.0
N548 N 0.8303 0.95378 0.55688 0.0
C549 C 0.85431 0.98048 0.56526 0.0
C550 C 0.84592 0.98773 0.57984 0.0
C551 C 0.8297 0.97763 0.58277 0.0
C552 C 0.84602 0.96323 0.55412 0.0
H553 H 0.80944 0.95279 0.57327 0.0
C554 C 0.78775 0.91673 0.55256 0.0
O555 O 0.80501 0.86949 0.57189 0.0
O556 O 0.81773 0.89633 0.59021 0.0
N557 N 0.84525 0.93777 0.53066 0.0
C558 C 0.85164 0.92883 0.51601 0.0
C559 C 0.86756 0.93732 0.51089 0.0
C560 C 0.87662 0.95502 0.52069 0.0
C561 C 0.8698 0.96397 0.53567 0.0
C562 C 0.85376 0.95495 0.53996 0.0
H563 H 0.84459 0.91539 0.5082 0.0
O564 O 0.83994 0.88981 0.56268 0.0
O565 O 0.83065 0.91607 0.5575 0.0
O566 O 0.81023 0.88317 0.53239 0.0
O567 O 0.81543 0.90938 0.51804 0.0
C568 C 0.87827 0.98149 0.54649 0.0
C569 C 0.8706 0.98966 0.56139 0.0
H570 H 0.85183 1.00099 0.58889 0.0
H571 H 0.82316 0.98309 0.59403 0.0
H572 H 0.87277 0.93032 0.49931 0.0
H573 H 0.88877 0.96166 0.51653 0.0
H574 H 0.89076 0.98871 0.54359 0.0
H575 H 0.87732 1.00305 0.56974 0.0
Mn576 Mn 0.9382 1.00483 0.26175 0.0
Mn577 Mn 0.90332 1.00174 0.28535 0.0
C578 C 0.92183 0.9752 0.26404 0.0
C579 C 0.95043 1.00924 0.23381 0.0
C580 C 0.94089 1.00937 0.30567 0.0
O581 O 0.93351 0.03184 0.26386 0.0
O582 O 0.90952 0.02755 0.27816 0.0
C583 C 0.87706 1.00564 0.25283 0.0
N584 N 0.88231 0.99584 0.26712 0.0
C585 C 0.85542 0.9727 0.25974 0.0
C586 C 0.84968 0.98259 0.24499 0.0
C587 C 0.86059 0.99908 0.24146 0.0
C588 C 0.87204 0.9798 0.27042 0.0
H589 H 0.88539 0.01836 0.25015 0.0
C590 C 0.92097 0.03792 0.2706 0.0
O591 O 0.95992 1.01313 0.25068 0.0
O592 O 0.93385 1.00264 0.23316 0.0
N593 N 0.89536 0.97775 0.29347 0.0
C594 C 0.90292 0.9698 0.30812 0.0
C595 C 0.89348 0.95359 0.31395 0.0
C596 C 0.87633 0.94586 0.3048 0.0
C597 C 0.8689 0.95412 0.28961 0.0
C598 C 0.87881 0.97045 0.28466 0.0
H599 H 0.91596 0.97591 0.31549 0.0
O600 O 0.93765 0.97683 0.26015 0.0
O601 O 0.91585 0.99086 0.26603 0.0
O602 O 0.94812 1.00867 0.29058 0.0
O603 O 0.92434 1.00734 0.3052 0.0
C604 C 0.852 0.94688 0.27927 0.0
C605 C 0.84533 0.95606 0.26421 0.0
H606 H 0.83694 0.97763 0.23625 0.0
H607 H 0.85627 1.00676 0.23007 0.0
H608 H 0.89932 0.94723 0.32564 0.0
H609 H 0.86893 0.93364 0.30962 0.0
H610 H 0.84409 0.93416 0.28268 0.0
H611 H 0.8324 0.95024 0.25623 0.0
Mn612 Mn 0.33591 0.68732 0.57211 0.0
Mn613 Mn 0.31869 0.6479 0.54025 0.0
C614 C 0.31163 0.6668 0.57748 0.0
C615 C 0.35549 0.70383 0.59845 0.0
C616 C 0.31157 0.6867 0.53445 0.0
O617 O 0.3554 0.68528 0.55647 0.0
O618 O 0.34264 0.659 0.53606 0.0
C619 C 0.34307 0.62407 0.55498 0.0
N620 N 0.32641 0.62675 0.55016 0.0
C621 C 0.31436 0.5958 0.55739 0.0
C622 C 0.33139 0.59266 0.56236 0.0
C623 C 0.3458 0.60691 0.56124 0.0
C624 C 0.31246 0.6133 0.55152 0.0
H625 H 0.35418 0.63492 0.55401 0.0
C626 C 0.35548 0.67279 0.5424 0.0
O627 O 0.34875 0.71252 0.58518 0.0
O628 O 0.35129 0.6854 0.59618 0.0
N629 N 0.29559 0.63505 0.54204 0.0
C630 C 0.28004 0.64019 0.53639 0.0
C631 C 0.26431 0.62743 0.53644 0.0
C632 C 0.26474 0.60936 0.5418 0.0
C633 C 0.2809 0.60423 0.54715 0.0
C634 C 0.29614 0.61756 0.54689 0.0
H635 H 0.27962 0.65391 0.53187 0.0
O636 O 0.31542 0.68424 0.58584 0.0
O637 O 0.32247 0.66151 0.56656 0.0
O638 O 0.32128 0.69553 0.54974 0.0
O639 O 0.30975 0.66886 0.52929 0.0
C640 C 0.2825 0.58636 0.55262 0.0
C641 C 0.29922 0.58223 0.55793 0.0
H642 H 0.33355 0.57938 0.56705 0.0
H643 H 0.35898 0.60461 0.56508 0.0
H644 H 0.25189 0.63146 0.53218 0.0
H645 H 0.25258 0.59953 0.54168 0.0
H646 H 0.27096 0.5757 0.55284 0.0
H647 H 0.30027 0.56851 0.56228 0.0
Mn648 Mn 0.43833 0.50696 0.76443 0.0
Mn649 Mn 0.40322 0.50603 0.78757 0.0
C650 C 0.42139 0.47786 0.76769 0.0
C651 C 0.45103 0.51024 0.73654 0.0
C652 C 0.44058 0.51309 0.80835 0.0
O653 O 0.43424 0.53418 0.76533 0.0
O654 O 0.41022 0.53128 0.77955 0.0
C655 C 0.37773 0.50967 0.75422 0.0
N656 N 0.38235 0.50032 0.76913 0.0
C657 C 0.35474 0.47835 0.76239 0.0
C658 C 0.34963 0.48779 0.74701 0.0
C659 C 0.36121 0.50346 0.74285 0.0
C660 C 0.37144 0.48506 0.77306 0.0
H661 H 0.38657 0.52177 0.75104 0.0
C662 C 0.42189 0.54093 0.77172 0.0
O663 O 0.46031 0.51432 0.7535 0.0
O664 O 0.43438 0.50392 0.73573 0.0
N665 N 0.39433 0.48279 0.79654 0.0
C666 C 0.40129 0.47531 0.81187 0.0
C667 C 0.39112 0.46008 0.81846 0.0
C668 C 0.37392 0.45267 0.80921 0.0
C669 C 0.36706 0.46053 0.79344 0.0
C670 C 0.37764 0.47603 0.78785 0.0
H671 H 0.41438 0.48117 0.81927 0.0
O672 O 0.43723 0.47899 0.76391 0.0
O673 O 0.41563 0.49374 0.76888 0.0
O674 O 0.44794 0.5115 0.79339 0.0
O675 O 0.42406 0.51164 0.80765 0.0
C676 C 0.35008 0.4537 0.78313 0.0
C677 C 0.34399 0.46249 0.7675 0.0
H678 H 0.33687 0.4831 0.73827 0.0
H679 H 0.35738 0.51079 0.73097 0.0
H680 H 0.39649 0.4541 0.8307 0.0
H681 H 0.36609 0.44091 0.81434 0.0
H682 H 0.34165 0.44162 0.78704 0.0
H683 H 0.33099 0.45699 0.75955 0.0
Mn684 Mn 0.66442 1.01112 0.79112 0.0
Mn685 Mn 0.69903 0.02185 0.82709 0.0
C686 C 0.67988 0.04359 0.80046 0.0
C687 C 0.65012 1.00538 0.75734 0.0
C688 C 0.6611 1.013 0.83548 0.0
O689 O 0.67335 0.98451 0.79175 0.0
O690 O 0.69556 0.99397 0.81641 0.0
C691 C 0.72735 0.01599 0.80469 0.0
N692 N 0.72035 0.02749 0.81676 0.0
C693 C 0.74471 0.05334 0.81816 0.0
C694 C 0.75221 0.04173 0.80586 0.0
C695 C 0.74347 0.02299 0.79908 0.0
C696 C 0.72867 0.04555 0.82339 0.0
H697 H 0.72068 1.00161 0.79933 0.0
C698 C 0.68653 0.98101 0.80309 0.0
O699 O 0.6421 1.00069 0.77142 0.0
O700 O 0.6668 1.01177 0.76252 0.0
N701 N 0.70437 0.04801 0.83829 0.0
C702 C 0.69477 0.05784 0.84884 0.0
C703 C 0.70137 0.07705 0.85604 0.0
C704 C 0.71777 0.08595 0.8524 0.0
C705 C 0.72743 0.07554 0.84156 0.0
C706 C 0.72023 0.0564 0.83483 0.0
H707 H 0.6821 0.05117 0.8516 0.0
O708 O 0.66354 0.03941 0.79275 0.0
O709 O 0.68652 0.02861 0.80345 0.0
O710 O 0.65411 1.00965 0.81762 0.0
O711 O 0.67778 0.01708 0.84018 0.0
C712 C 0.74372 0.08355 0.83679 0.0
C713 C 0.75235 0.07247 0.82508 0.0
H714 H 0.76459 0.0471 0.80139 0.0
H715 H 0.74913 1.01396 0.7895 0.0
H716 H 0.69379 0.08501 0.86431 0.0
H717 H 0.72273 0.10082 0.85782 0.0
H718 H 0.7496 0.09831 0.8418 0.0
H719 H 0.76474 0.07887 0.82126 0.0
Mn720 Mn 0.76851 0.66396 0.02143 0.0
Mn721 Mn 0.75768 0.6258 0.98717 0.0
C722 C 0.7393 0.64861 0.0124 0.0
C723 C 0.77667 0.67767 0.05372 0.0
C724 C 0.76774 0.66628 0.97828 0.0
O725 O 0.79191 0.65507 0.02054 0.0
O726 O 0.78276 0.62884 0.99865 0.0
C727 C 0.76115 0.59545 1.01141 0.0
N728 N 0.75119 0.60331 0.99854 0.0
C729 C 0.72622 0.57835 0.99773 0.0
C730 C 0.73624 0.56993 1.01089 0.0
C731 C 0.75377 0.57855 0.01779 0.0
C732 C 0.7343 0.59516 0.99184 0.0
H733 H 0.77462 0.60205 0.0168 0.0
C734 C 0.79467 0.64012 1.01085 0.0
O735 O 0.7799 0.6873 0.03979 0.0
O736 O 0.76923 0.65992 0.04891 0.0
N737 N 0.73369 0.62118 0.97532 0.0
C738 C 0.72553 0.63167 0.96355 0.0
C739 C 0.70777 0.6253 0.95586 0.0
C740 C 0.69862 0.60819 0.96027 0.0
C741 C 0.70732 0.59758 0.97233 0.0
C742 C 0.72505 0.60458 0.97949 0.0
H743 H 0.73249 0.64486 0.96012 0.0
O744 O 0.74322 0.66622 0.0203 0.0
O745 O 0.75258 0.64075 1.00973 0.0
O746 O 0.76969 0.67434 0.99557 0.0
O747 O 0.76371 0.64823 0.97374 0.0
C748 C 0.69903 0.58047 0.97774 0.0
C749 C 0.70846 0.57088 0.99046 0.0
H750 H 0.73058 0.55694 0.01591 0.0
H751 H 0.76157 0.57219 0.02802 0.0
H752 H 0.70114 0.6336 0.94659 0.0
H753 H 0.68489 0.60339 0.95442 0.0
H754 H 0.68532 0.57471 0.97243 0.0
H755 H 0.70186 0.55789 0.99475 0.0
Mn756 Mn 0.91806 0.5431 0.77148 0.0
Mn757 Mn 0.88585 0.53756 0.79958 0.0
C758 C 0.90293 0.51163 0.7752 0.0
C759 C 0.9305 0.5456 0.74108 0.0
C760 C 0.92475 0.54638 0.81697 0.0
O761 O 0.90988 0.57031 0.77341 0.0
O762 O 0.88942 0.56405 0.79242 0.0
C763 C 0.85617 0.54053 0.77038 0.0
N764 N 0.86349 0.53079 0.78362 0.0
C765 C 0.83774 0.50603 0.77805 0.0
C766 C 0.82988 0.51587 0.76448 0.0
C767 C 0.83916 0.53316 0.76059 0.0
C768 C 0.85471 0.51407 0.78736 0.0
H769 H 0.86324 0.5538 0.7673 0.0
C770 C 0.89775 0.57543 0.78256 0.0
O771 O 0.93938 0.55159 0.758 0.0
O772 O 0.91401 0.53932 0.74153 0.0
N773 N 0.88021 0.51308 0.80772 0.0
C774 C 0.88989 0.50492 0.8206 0.0
C775 C 0.88261 0.48734 0.82576 0.0
C776 C 0.86538 0.47845 0.81784 0.0
C777 C 0.85556 0.48725 0.80487 0.0
C778 C 0.86348 0.50482 0.80033 0.0
H779 H 0.90313 0.51167 0.82683 0.0
O780 O 0.91843 0.51467 0.77036 0.0
O781 O 0.89659 0.52711 0.77789 0.0
O782 O 0.93041 0.54734 0.80077 0.0
O783 O 0.90835 0.54373 0.81786 0.0
C784 C 0.83835 0.47908 0.79594 0.0
C785 C 0.82947 0.48842 0.78249 0.0
H786 H 0.81678 0.51021 0.75686 0.0
H787 H 0.83322 0.54079 0.75007 0.0
H788 H 0.89027 0.48064 0.83578 0.0
H789 H 0.85986 0.46481 0.82171 0.0
H790 H 0.83193 0.46546 0.79908 0.0
H791 H 0.81634 0.48187 0.77552 0.0
Mn792 Mn 0.74812 0.38432 0.48718 0.0
Mn793 Mn 0.73545 0.41851 0.46318 0.0
C794 C 0.76856 0.40559 0.47606 0.0
C795 C 0.75663 0.37329 0.51569 0.0
C796 C 0.7302 0.37736 0.44553 0.0
O797 O 0.72397 0.38483 0.49384 0.0
O798 O 0.71742 0.40924 0.47897 0.0
C799 C 0.737 0.44809 0.49607 0.0
N800 N 0.74227 0.44249 0.47921 0.0
C801 C 0.76099 0.47298 0.48037 0.0
C802 C 0.75567 0.47911 0.49768 0.0
C803 C 0.74364 0.4666 0.50557 0.0
C804 C 0.75382 0.45443 0.47147 0.0
H805 H 0.72783 0.4385 0.50226 0.0
C806 C 0.71401 0.39645 0.48985 0.0
O807 O 0.74959 0.36165 0.50024 0.0
O808 O 0.75857 0.39134 0.51458 0.0
N809 N 0.75206 0.42885 0.44782 0.0
C810 C 0.7567 0.42035 0.4317 0.0
C811 C 0.76906 0.43076 0.42236 0.0
C812 C 0.77648 0.44979 0.42964 0.0
C813 C 0.77146 0.45825 0.44621 0.0
C814 C 0.75897 0.44722 0.45482 0.0
H815 H 0.75111 0.40571 0.42607 0.0
O816 O 0.7719 0.38928 0.47975 0.0
O817 O 0.75338 0.40894 0.47908 0.0
O818 O 0.73766 0.37159 0.46016 0.0
O819 O 0.72824 0.39452 0.44523 0.0
C820 C 0.7786 0.47707 0.45472 0.0
C821 C 0.77339 0.48442 0.47181 0.0
H822 H 0.76086 0.49332 0.50512 0.0
H823 H 0.73954 0.47119 0.51897 0.0
H824 H 0.77291 0.42412 0.40961 0.0
H825 H 0.7861 0.45772 0.42245 0.0
H826 H 0.78826 0.48596 0.44838 0.0
H827 H 0.77916 0.49883 0.47836 0.0
Mn828 Mn 0.64697 0.54825 0.30894 0.0
Mn829 Mn 0.68307 0.55721 0.34258 0.0
C830 C 0.66315 0.57905 0.31767 0.0
C831 C 0.63398 0.54004 0.27668 0.0
C832 C 0.64609 0.54897 0.35209 0.0
O833 O 0.65301 0.52194 0.31016 0.0
O834 O 0.67807 0.53005 0.33133 0.0
C835 C 0.7095 0.55106 0.31774 0.0
N836 N 0.70354 0.56257 0.33079 0.0
C837 C 0.72858 0.58755 0.33212 0.0
C838 C 0.73504 0.57594 0.31875 0.0
C839 C 0.72541 0.55764 0.31147 0.0
C840 C 0.71259 0.58026 0.33772 0.0
H841 H 0.70218 0.53695 0.31218 0.0
C842 C 0.66651 0.51782 0.31968 0.0
O843 O 0.62489 0.53754 0.2905 0.0
O844 O 0.65056 0.54696 0.28161 0.0
N845 N 0.68942 0.58312 0.35438 0.0
C846 C 0.68097 0.59282 0.3665 0.0
C847 C 0.68859 0.61159 0.37459 0.0
C848 C 0.70489 0.62008 0.37032 0.0
C849 C 0.71341 0.60974 0.35796 0.0
C850 C 0.70515 0.59112 0.35028 0.0
H851 H 0.6685 0.58631 0.36992 0.0
O852 O 0.64688 0.57622 0.30976 0.0
O853 O 0.66925 0.56385 0.32034 0.0
O854 O 0.63806 0.54763 0.33497 0.0
O855 O 0.66277 0.55224 0.35623 0.0
C856 C 0.72973 0.6172 0.3529 0.0
C857 C 0.73731 0.60611 0.33998 0.0
H858 H 0.74733 0.58096 0.31391 0.0
H859 H 0.73028 0.54862 0.3011 0.0
H860 H 0.68194 0.61947 0.38412 0.0
H861 H 0.71072 0.63457 0.37656 0.0
H862 H 0.73646 0.63154 0.35866 0.0
H863 H 0.74975 0.6121 0.336 0.0
Tb864 Tb 0.02318 0.01724 0.02726 0.0
Tb865 Tb 0.05899 0.03581 0.04732 0.0
C866 C 0.991 1.01258 0.01648 0.0
C867 C 0.98094 0.02796 0.01498 0.0
C868 C 0.98034 0.04043 0.03145 0.0
C869 C 0.97494 0.0576 0.02981 0.0
C870 C 0.96992 0.06269 1.01171 0.0
C871 C 0.96922 0.04967 0.99526 0.0
C872 C 0.97474 0.03244 0.99689 0.0
C873 C 0.04835 0.01498 1.00646 0.0
C874 C 0.03714 0.06232 0.02841 0.0
C875 C 0.0914 0.04177 0.058 0.0
C876 C 0.10279 0.02769 0.05858 0.0
C877 C 0.09874 1.01145 0.04475 0.0
C878 C 0.10773 0.99667 0.04654 0.0
C879 C 0.12105 0.99787 0.06207 0.0
C880 C 0.1257 1.01439 0.07552 0.0
C881 C 0.11646 0.0292 0.07388 0.0
C882 C 0.03372 0.03829 0.06796 0.0
C883 C 0.04462 0.9908 0.04642 0.0
O884 O 0.99778 1.01068 0.03385 0.0
O885 O 1.0022 1.0118 1.00447 0.0
O886 O 0.04706 0.02888 0.01818 0.0
O887 O 0.03456 1.0017 1.0054 0.0
O888 O 0.02374 0.04791 0.02696 0.0
O889 O 0.05325 0.06065 0.03502 0.0
O890 O 0.08427 0.04393 0.04085 0.0
O891 O 0.08006 0.04038 0.06993 0.0
O892 O 0.03512 0.02434 0.05638 0.0
O893 O 0.04762 0.05144 0.06916 0.0
O894 O 0.05826 1.00487 0.04722 0.0
O895 O 0.02853 0.99285 0.04042 0.0
H896 H 0.98496 0.0375 0.04566 0.0
H897 H 0.97516 0.06717 0.04275 0.0
H898 H 0.96529 0.05324 0.98113 0.0
H899 H 0.97513 0.02315 0.98397 0.0
H900 H 0.08826 1.00989 0.03279 0.0
H901 H 0.10418 0.98416 0.03582 0.0
H902 H 0.13608 0.01558 0.08751 0.0
H903 H 0.11967 0.04157 0.08475 0.0
Tb904 Tb 0.29539 0.7726 0.26857 0.0
Tb905 Tb 0.28976 0.78707 0.30901 0.0
C906 C 0.29698 0.76714 0.23343 0.0
C907 C 0.29942 0.77971 0.21875 0.0
C908 C 0.28985 0.77422 0.2003 0.0
C909 C 0.29111 0.78664 0.18661 0.0
C910 C 0.30185 0.8048 0.19127 0.0
C911 C 0.31168 0.81013 0.20966 0.0
C912 C 0.31056 0.79762 0.22324 0.0
C913 C 0.31808 0.76657 0.29701 0.0
C914 C 0.30928 0.81747 0.28535 0.0
C915 C 0.2937 0.7947 0.3447 0.0
C916 C 0.28283 0.79073 0.3595 0.0
C917 C 0.28871 0.79977 0.37825 0.0
C918 C 0.27956 0.7946 0.39298 0.0
C919 C 0.26438 0.78025 0.38914 0.0
C920 C 0.25797 0.77202 0.37007 0.0
C921 C 0.26715 0.77724 0.35532 0.0
C922 C 0.26165 0.78824 0.28387 0.0
C923 C 0.27403 0.74292 0.29122 0.0
O924 O 0.28224 0.7663 0.24028 0.0
O925 O 0.31043 0.76846 0.24686 0.0
O926 O 0.31156 0.78127 0.29602 0.0
O927 O 0.31235 0.75493 0.2813 0.0
O928 O 0.30554 0.8039 0.27019 0.0
O929 O 0.3053 0.81358 0.3023 0.0
O930 O 0.29826 0.77985 0.33584 0.0
O931 O 0.28866 0.80618 0.33301 0.0
O932 O 0.27559 0.78294 0.28096 0.0
O933 O 0.26312 0.79291 0.30222 0.0
O934 O 0.2792 0.75586 0.30686 0.0
O935 O 0.27737 0.74717 0.27411 0.0
H936 H 0.28115 0.76047 0.19661 0.0
H937 H 0.28326 0.78228 0.17257 0.0
H938 H 0.32016 0.82399 0.21353 0.0
H939 H 0.31823 0.80199 0.23731 0.0
H940 H 0.30079 0.81025 0.38164 0.0
H941 H 0.28503 0.801 0.40752 0.0
H942 H 0.24628 0.76101 0.36668 0.0
H943 H 0.26238 0.77027 0.3408 0.0
Tb944 Tb 0.55897 0.02864 0.52904 0.0
Tb945 Tb 0.52079 0.02398 0.54047 0.0
C946 C 0.59111 0.02843 0.52973 0.0
C947 C 0.60457 0.01738 0.53592 0.0
C948 C 0.62175 0.02706 0.5429 0.0
C949 C 0.6353 0.01705 0.54656 0.0
C950 C 0.63203 0.99704 0.54327 0.0
C951 C 0.61462 0.98734 0.53704 0.0
C952 C 0.60105 0.99739 0.53338 0.0
C953 C 0.53512 0.03438 0.49948 0.0
C954 C 0.53399 0.98771 0.52388 0.0
C955 C 0.48876 0.02485 0.54032 0.0
C956 C 0.47579 0.03735 0.5365 0.0
C957 C 0.46639 0.03676 0.51808 0.0
C958 C 0.45299 0.04719 0.51516 0.0
C959 C 0.44848 0.05838 0.5306 0.0
C960 C 0.45807 0.0591 0.54895 0.0
C961 C 0.47146 0.04874 0.55185 0.0
C962 C 0.54481 0.01829 0.56993 0.0
C963 C 0.54599 0.06479 0.54629 0.0
O964 O 0.58498 0.03819 0.54306 0.0
O965 O 0.57889 0.02023 0.51537 0.0
O966 O 0.533 0.03058 0.5162 0.0
O967 O 0.55183 0.0357 0.49964 0.0
O968 O 0.55013 0.99792 0.52649 0.0
O969 O 0.52018 0.99513 0.52711 0.0
O970 O 0.49483 0.01677 0.52583 0.0
O971 O 0.50091 0.03061 0.55536 0.0
O972 O 0.54679 0.02223 0.55324 0.0
O973 O 0.52808 0.01666 0.5698 0.0
O974 O 0.52981 0.05471 0.54378 0.0
O975 O 0.55966 0.05732 0.54276 0.0
H976 H 0.62482 0.04245 0.54501 0.0
H977 H 0.64842 0.02506 0.55173 0.0
H978 H 0.61156 0.97197 0.53423 0.0
H979 H 0.58792 0.98952 0.52801 0.0
H980 H 0.46913 0.02796 0.50594 0.0
H981 H 0.44611 0.04639 0.50076 0.0
H982 H 0.45488 0.06719 0.5613 0.0
H983 H 0.47813 0.04928 0.56631 0.0
Tb984 Tb 0.27256 0.28038 0.78302 0.0
Tb985 Tb 0.312 0.2735 0.78923 0.0
C986 C 0.24079 0.27991 0.78533 0.0
C987 C 0.22812 0.27657 0.79903 0.0
C988 C 0.21974 0.25809 0.80087 0.0
C989 C 0.20666 0.25517 0.81246 0.0
C990 C 0.20134 0.27066 0.82231 0.0
C991 C 0.20992 0.28914 0.82064 0.0
C992 C 0.2231 0.29204 0.80917 0.0
C993 C 0.29733 0.3075 0.77616 0.0
C994 C 0.29571 0.28795 0.82512 0.0
C995 C 0.34431 0.28022 0.78799 0.0
C996 C 0.35811 0.27435 0.77767 0.0
C997 C 0.35629 0.27239 0.75755 0.0
C998 C 0.37069 0.27082 0.74821 0.0
C999 C 0.38726 0.27104 0.75872 0.0
C1000 C 0.38873 0.27187 0.77879 0.0
C1001 C 0.37436 0.2736 0.78813 0.0
C1002 C 0.28831 0.24303 0.7921 0.0
C1003 C 0.28764 0.26168 0.74792 0.0
O1004 O 0.24662 0.26525 0.77785 0.0
O1005 O 0.25302 0.29535 0.78946 0.0
O1006 O 0.29851 0.29671 0.7888 0.0
O1007 O 0.28122 0.30422 0.7675 0.0
O1008 O 0.27995 0.28392 0.81435 0.0
O1009 O 0.31034 0.28661 0.81799 0.0
O1010 O 0.33282 0.28797 0.77811 0.0
O1011 O 0.3373 0.26918 0.79963 0.0
O1012 O 0.28651 0.25919 0.78862 0.0
O1013 O 0.30504 0.24312 0.79381 0.0
O1014 O 0.30351 0.2653 0.75835 0.0
O1015 O 0.27343 0.26513 0.75488 0.0
H1016 H 0.22301 0.24583 0.79301 0.0
H1017 H 0.20059 0.24072 0.81352 0.0
H1018 H 0.20606 0.30148 0.82764 0.0
H1019 H 0.22902 0.30647 0.80783 0.0
H1020 H 0.34395 0.27299 0.74904 0.0
H1021 H 0.36896 0.27038 0.73279 0.0
H1022 H 0.40112 0.27164 0.78739 0.0
H1023 H 0.37614 0.27517 0.80365 0.0
Tb1024 Tb 0.03848 0.04337 0.54082 0.0
Tb1025 Tb 0.04373 1.00162 0.53299 0.0
C1026 C 0.0373 0.07759 0.53941 0.0
C1027 C 0.03908 0.08965 0.52424 0.0
C1028 C 0.04796 0.08496 0.50904 0.0
C1029 C 0.0487 0.09593 0.49409 0.0
C1030 C 0.04038 0.11158 0.49401 0.0
C1031 C 0.03147 0.1162 0.50925 0.0
C1032 C 0.03085 0.1053 0.52426 0.0
C1033 C 0.01347 0.01667 0.54812 0.0
C1034 C 0.03072 0.02108 0.49813 0.0
C1035 C 0.03902 0.96639 0.53231 0.0
C1036 C 0.04834 0.9543 0.54329 0.0
C1037 C 0.04134 0.9349 0.54183 0.0
C1038 C 0.04842 0.92394 0.55466 0.0
C1039 C 0.06252 0.93234 0.56919 0.0
C1040 C 0.07005 0.95162 0.56995 0.0
C1041 C 0.06301 0.96253 0.55705 0.0
C1042 C 0.07309 0.02628 0.53129 0.0
C1043 C 0.0557 0.02556 0.57488 0.0
O1044 O 0.05147 0.07181 0.54635 0.0
O1045 O 0.02338 0.06399 0.53603 0.0
O1046 O 0.02205 0.01565 0.53437 0.0
O1047 O 0.01826 0.03352 0.55782 0.0
O1048 O 0.03531 0.03763 0.50942 0.0
O1049 O 0.031 1.0047 0.50478 0.0
O1050 O 0.03119 0.97739 0.5427 0.0
O1051 O 0.04757 0.97537 0.52027 0.0
O1052 O 0.05844 0.02924 0.53454 0.0
O1053 O 0.07164 1.00797 0.52895 0.0
O1054 O 0.05086 1.00864 0.5642 0.0
O1055 O 0.05387 0.04158 0.56807 0.0
H1056 H 0.05411 0.0727 0.50858 0.0
H1057 H 0.05553 0.09201 0.48245 0.0
H1058 H 0.02514 0.12836 0.50965 0.0
H1059 H 0.02381 0.109 0.53581 0.0
H1060 H 0.0299 0.92842 0.53138 0.0
H1061 H 0.04221 0.90917 0.55389 0.0
H1062 H 0.08099 0.95841 0.5809 0.0
H1063 H 0.06851 0.97757 0.55838 0.0
Tb1064 Tb 0.29556 0.76086 0.75516 0.0
Tb1065 Tb 0.2934 0.8016 0.77165 0.0
C1066 C 0.30089 0.73216 0.73524 0.0
C1067 C 0.31216 0.718 0.73755 0.0
C1068 C 0.32299 0.71494 0.72379 0.0
C1069 C 0.33438 0.70224 0.72589 0.0
C1070 C 0.33509 0.69222 0.74175 0.0
C1071 C 0.32415 0.69523 0.75549 0.0
C1072 C 0.31285 0.70807 0.75347 0.0
C1073 C 0.28254 0.76448 0.78732 0.0
C1074 C 0.3239 0.78348 0.78903 0.0
C1075 C 0.28473 0.83123 0.78575 0.0
C1076 C 0.26867 0.83902 0.78703 0.0
C1077 C 0.26386 0.84347 0.80506 0.0
C1078 C 0.25006 0.85303 0.8069 0.0
C1079 C 0.24085 0.8585 0.79074 0.0
C1080 C 0.24516 0.85322 0.77257 0.0
C1081 C 0.2589 0.84357 0.77073 0.0
C1082 C 0.31513 0.79828 0.7469 0.0
C1083 C 0.26292 0.77773 0.73934 0.0
O1084 O 0.3093 0.74949 0.73497 0.0
O1085 O 0.28793 0.73167 0.74523 0.0
O1086 O 0.28054 0.77365 0.77353 0.0
O1087 O 0.29161 0.75163 0.78314 0.0
O1088 O 0.32087 0.77112 0.77316 0.0
O1089 O 0.31299 0.79485 0.79301 0.0
O1090 O 0.28683 0.81713 0.79546 0.0
O1091 O 0.28963 0.82911 0.76881 0.0
O1092 O 0.30031 0.78826 0.74651 0.0
O1093 O 0.3183 0.81154 0.76144 0.0
O1094 O 0.26861 0.79308 0.75223 0.0
O1095 O 0.27167 0.76374 0.7373 0.0
H1096 H 0.32273 0.72251 0.71145 0.0
H1097 H 0.3425 0.7001 0.71497 0.0
H1098 H 0.32455 0.68787 0.76797 0.0
H1099 H 0.3048 0.71034 0.76442 0.0
H1100 H 0.27113 0.84006 0.81784 0.0
H1101 H 0.24689 0.85654 0.82106 0.0
H1102 H 0.23847 0.85732 0.75983 0.0
H1103 H 0.26222 0.8403 0.75659 0.0
Tb1104 Tb 0.5259 0.02074 0.02132 0.0
Tb1105 Tb 0.5592 0.03059 0.04907 0.0
C1106 C 0.49724 1.00298 1.00274 0.0
C1107 C 0.47851 1.00169 1.00341 0.0
C1108 C 0.46734 0.98393 0.99839 0.0
C1109 C 0.44938 0.98227 0.99815 0.0
C1110 C 0.44227 0.9984 1.00287 0.0
C1111 C 0.4535 0.01621 1.00807 0.0
C1112 C 0.47154 0.01784 1.00846 0.0
C1113 C 0.53747 0.05746 0.031 0.0
C1114 C 0.52363 0.0272 0.06757 0.0
C1115 C 0.58812 0.04666 0.06851 0.0
C1116 C 0.60694 0.048 0.06818 0.0
C1117 C 0.61419 0.05081 0.05147 0.0
C1118 C 0.63233 0.05425 0.05213 0.0
C1119 C 0.6435 0.05484 0.06949 0.0
C1120 C 0.63609 0.05101 0.08594 0.0
C1121 C 0.61797 0.04768 0.08528 0.0
C1122 C 0.54728 0.99389 0.03803 0.0
C1123 C 0.56155 0.02547 1.00289 0.0
O1124 O 0.50609 0.99633 0.01655 0.0
O1125 O 0.50569 0.01896 0.99856 0.0
O1126 O 0.53833 0.04473 0.04163 0.0
O1127 O 0.52806 0.04974 0.01472 0.0
O1128 O 0.51534 0.02075 0.04963 0.0
O1129 O 0.54095 0.03334 0.07037 0.0
O1130 O 0.57948 0.05437 0.05542 0.0
O1131 O 0.57942 0.03028 0.07144 0.0
O1132 O 0.54696 1.00723 0.02829 0.0
O1133 O 0.55621 1.00085 0.05475 0.0
O1134 O 0.56976 0.03181 0.02088 0.0
O1135 O 0.54429 0.01882 1.00001 0.0
H1136 H 0.47251 0.97135 0.99442 0.0
H1137 H 0.441 0.96841 0.99386 0.0
H1138 H 0.44833 0.02881 1.01189 0.0
H1139 H 0.48 0.03169 0.01252 0.0
H1140 H 0.60592 0.05103 0.03807 0.0
H1141 H 0.63758 0.05736 0.03925 0.0
H1142 H 0.64432 0.05107 0.09944 0.0
H1143 H 0.61257 0.04541 0.09829 0.0
Tb1144 Tb 0.27472 0.26678 0.28121 0.0
Tb1145 Tb 0.3094 0.29423 0.29592 0.0
C1146 C 0.24597 0.24582 0.28216 0.0
C1147 C 0.23139 0.25092 0.29109 0.0
C1148 C 0.23457 0.26724 0.30468 0.0
C1149 C 0.22073 0.2747 0.3106 0.0
C1150 C 0.2034 0.26606 0.30288 0.0
C1151 C 0.20017 0.24917 0.28991 0.0
C1152 C 0.21414 0.24168 0.28397 0.0
C1153 C 0.28908 0.27891 0.25158 0.0
C1154 C 0.27353 0.31168 0.29228 0.0
C1155 C 0.33658 0.31947 0.30001 0.0
C1156 C 0.35398 0.31927 0.29462 0.0
C1157 C 0.35567 0.31259 0.27576 0.0
C1158 C 0.37202 0.31094 0.27107 0.0
C1159 C 0.38698 0.31576 0.28516 0.0
C1160 C 0.38538 0.32276 0.30394 0.0
C1161 C 0.36898 0.32462 0.30861 0.0
C1162 C 0.29603 0.27484 0.32151 0.0
C1163 C 0.31069 0.24998 0.28356 0.0
O1164 O 0.26027 0.24562 0.29394 0.0
O1165 O 0.24918 0.25498 0.26774 0.0
O1166 O 0.29484 0.28254 0.26922 0.0
O1167 O 0.27467 0.26652 0.24996 0.0
O1168 O 0.26469 0.29402 0.28569 0.0
O1169 O 0.29089 0.31465 0.29782 0.0
O1170 O 0.32366 0.31731 0.28585 0.0
O1171 O 0.33247 0.30932 0.31347 0.0
O1172 O 0.28748 0.28183 0.30856 0.0
O1173 O 0.31258 0.27991 0.32108 0.0
O1174 O 0.31937 0.26808 0.28553 0.0
O1175 O 0.29328 0.24645 0.28303 0.0
H1176 H 0.2478 0.2748 0.31001 0.0
H1177 H 0.2236 0.28756 0.32083 0.0
H1178 H 0.18692 0.24228 0.28368 0.0
H1179 H 0.21148 0.22926 0.27319 0.0
H1180 H 0.34434 0.30815 0.26467 0.0
H1181 H 0.37284 0.30518 0.25656 0.0
H1182 H 0.39676 0.32659 0.31502 0.0
H1183 H 0.36793 0.32976 0.32324 0.0
Tb1184 Tb 0.54083 0.54281 0.04407 0.0
Tb1185 Tb 0.54853 0.50524 0.03406 0.0
C1186 C 0.53795 0.57673 0.04361 0.0
C1187 C 0.5364 0.58777 0.02754 0.0
C1188 C 0.54605 0.58533 0.01246 0.0
C1189 C 0.54353 0.59477 0.99654 0.0
C1190 C 0.53121 0.60664 0.99534 0.0
C1191 C 0.52157 0.60905 1.01043 0.0
C1192 C 0.52417 0.59969 0.02643 0.0
C1193 C 0.51724 0.51478 0.05152 0.0
C1194 C 0.5306 0.52204 1.00081 0.0
C1195 C 0.55169 0.47125 0.03364 0.0
C1196 C 0.55802 0.4607 0.04873 0.0
C1197 C 0.54839 0.44282 0.05028 0.0
C1198 C 0.5529 0.43357 0.06587 0.0
C1199 C 0.56714 0.44207 0.08018 0.0
C1200 C 0.57719 0.45968 0.07824 0.0
C1201 C 0.57262 0.46898 0.06266 0.0
C1202 C 0.57197 0.53343 0.02653 0.0
C1203 C 0.55876 0.52614 0.07767 0.0
O1204 O 0.55298 0.57151 0.04772 0.0
O1205 O 0.52462 0.56296 0.04344 0.0
O1206 O 0.52476 0.51488 0.03688 0.0
O1207 O 0.52237 0.53113 0.06215 0.0
O1208 O 0.53526 0.5383 0.01248 0.0
O1209 O 0.53254 0.50589 1.00702 0.0
O1210 O 0.53711 0.47704 0.03571 0.0
O1211 O 0.56333 0.48436 0.02865 0.0
O1212 O 0.56457 0.53315 0.04124 0.0
O1213 O 0.56676 0.51716 0.01579 0.0
O1214 O 0.55605 0.51018 0.06556 0.0
O1215 O 0.55513 0.54195 0.07197 0.0
H1216 H 0.55536 0.57592 0.01283 0.0
H1217 H 0.55103 0.59257 0.98503 0.0
H1218 H 0.51215 0.61833 1.00995 0.0
H1219 H 0.51649 0.60158 0.03783 0.0
H1220 H 0.53708 0.43625 0.0397 0.0
H1221 H 0.54513 0.41982 0.06683 0.0
H1222 H 0.58817 0.46657 0.0891 0.0
H1223 H 0.58017 0.48288 0.06186 0.0
Tb1224 Tb 0.79196 0.2552 0.27249 0.0
Tb1225 Tb 0.79832 0.29858 0.28304 0.0
C1226 C 0.79506 0.22202 0.26096 0.0
C1227 C 0.80957 0.21165 0.26054 0.0
C1228 C 0.82587 0.22005 0.25613 0.0
C1229 C 0.83944 0.20982 0.25602 0.0
C1230 C 0.83697 0.19116 0.26058 0.0
C1231 C 0.82061 0.18286 0.26491 0.0
C1232 C 0.80706 0.19299 0.26485 0.0
C1233 C 0.77567 0.26752 0.29979 0.0
C1234 C 0.82679 0.27803 0.29996 0.0
C1235 C 0.79626 0.33241 0.29349 0.0
C1236 C 0.78253 0.34379 0.29441 0.0
C1237 C 0.78544 0.35986 0.30824 0.0
C1238 C 0.77293 0.37135 0.30896 0.0
C1239 C 0.7572 0.36689 0.29592 0.0
C1240 C 0.75419 0.35053 0.28226 0.0
C1241 C 0.7668 0.33913 0.28146 0.0
C1242 C 0.81442 0.28578 0.25575 0.0
C1243 C 0.76286 0.2756 0.25693 0.0
O1244 O 0.79475 0.23535 0.2499 0.0
O1245 O 0.79131 0.22713 0.27796 0.0
O1246 O 0.79081 0.27449 0.29693 0.0
O1247 O 0.76949 0.25208 0.28789 0.0
O1248 O 0.81886 0.26261 0.28795 0.0
O1249 O 0.82007 0.29348 0.30224 0.0
O1250 O 0.79644 0.31959 0.30515 0.0
O1251 O 0.79894 0.32615 0.27633 0.0
O1252 O 0.79923 0.27922 0.25859 0.0
O1253 O 0.82092 0.30104 0.26773 0.0
O1254 O 0.77094 0.29078 0.26919 0.0
O1255 O 0.76993 0.26048 0.25369 0.0
H1256 H 0.82817 0.23451 0.25289 0.0
H1257 H 0.85192 0.21662 0.25274 0.0
H1258 H 0.81823 0.16841 0.26819 0.0
H1259 H 0.79459 0.18626 0.26824 0.0
H1260 H 0.79747 0.36363 0.31841 0.0
H1261 H 0.77552 0.38365 0.31987 0.0
H1262 H 0.74229 0.3468 0.2719 0.0
H1263 H 0.7644 0.32688 0.27054 0.0
Tb1264 Tb 0.02623 0.52739 0.52284 0.0
Tb1265 Tb 0.05948 0.53718 0.55097 0.0
C1266 C 0.99801 0.51032 0.50266 0.0
C1267 C 0.979 0.50877 0.50087 0.0
C1268 C 0.96933 0.5062 0.48244 0.0
C1269 C 0.95112 0.5032 0.47989 0.0
C1270 C 0.94223 0.50263 0.49576 0.0
C1271 C 0.95198 0.50594 0.51432 0.0
C1272 C 0.97028 0.50899 0.51687 0.0
C1273 C 0.03752 0.56418 0.5341 0.0
C1274 C 0.02357 0.5324 0.56894 0.0
C1275 C 0.08797 0.55409 0.57072 0.0
C1276 C 0.10704 0.55619 0.57104 0.0
C1277 C 0.11591 0.56832 0.55982 0.0
C1278 C 0.13417 0.57192 0.56205 0.0
C1279 C 0.14393 0.5635 0.57555 0.0
C1280 C 0.13501 0.55085 0.58626 0.0
C1281 C 0.11677 0.54731 0.58409 0.0
C1282 C 0.04724 0.50071 0.54065 0.0
C1283 C 0.06221 0.5316 0.5049 0.0
O1284 O 1.00581 0.5036 0.51716 0.0
O1285 O 1.00692 0.52639 0.49925 0.0
O1286 O 0.03834 0.55083 0.54382 0.0
O1287 O 0.02852 0.55702 0.51745 0.0
O1288 O 0.01541 0.52607 0.55091 0.0
O1289 O 0.04082 0.53913 0.57191 0.0
O1290 O 0.07913 0.56167 0.55762 0.0
O1291 O 0.07959 0.53748 0.57349 0.0
O1292 O 0.04714 0.51369 0.53035 0.0
O1293 O 0.05629 0.50776 0.5573 0.0
O1294 O 0.07039 0.5379 0.52291 0.0
O1295 O 0.04492 0.52524 0.50194 0.0
H1296 H 0.97588 0.50611 0.46994 0.0
H1297 H 0.94398 0.50102 0.46544 0.0
H1298 H 0.94547 0.50547 0.52682 0.0
H1299 H 0.97755 0.51106 0.53124 0.0
H1300 H 0.10881 0.57554 0.54977 0.0
H1301 H 0.14063 0.58196 0.55376 0.0
H1302 H 0.14214 0.54396 0.5966 0.0
H1303 H 0.11029 0.53801 0.59304 0.0
Tb1304 Tb 0.77556 0.77859 0.28533 0.0
Tb1305 Tb 0.81303 0.77182 0.29316 0.0
C1306 C 0.74339 0.77767 0.28609 0.0
C1307 C 0.73049 0.77649 0.29973 0.0
C1308 C 0.72326 0.75901 0.30528 0.0
C1309 C 0.70965 0.75774 0.31632 0.0
C1310 C 0.70283 0.77388 0.32204 0.0
C1311 C 0.71045 0.79142 0.31693 0.0
C1312 C 0.72401 0.79268 0.30588 0.0
C1313 C 0.79992 0.80559 0.27762 0.0
C1314 C 0.79756 0.78857 0.32789 0.0
C1315 C 0.84492 0.77033 0.29317 0.0
C1316 C 0.85832 0.77156 0.28033 0.0
C1317 C 0.85703 0.78104 0.26412 0.0
C1318 C 0.87059 0.78291 0.25298 0.0
C1319 C 0.88572 0.77541 0.2579 0.0
C1320 C 0.88669 0.76562 0.27395 0.0
C1321 C 0.87317 0.76374 0.285 0.0
C1322 C 0.78825 0.74536 0.30102 0.0
C1323 C 0.79154 0.76331 0.25038 0.0
O1324 O 0.75004 0.76261 0.28193 0.0
O1325 O 0.75504 0.79343 0.28781 0.0
O1326 O 0.80118 0.79597 0.29129 0.0
O1327 O 0.78398 0.80134 0.26851 0.0
O1328 O 0.78202 0.78363 0.31685 0.0
O1329 O 0.81224 0.7871 0.32108 0.0
O1330 O 0.83927 0.78589 0.29797 0.0
O1331 O 0.83227 0.75534 0.28964 0.0
O1332 O 0.78746 0.75458 0.28707 0.0
O1333 O 0.80392 0.74992 0.31071 0.0
O1334 O 0.80701 0.76808 0.26162 0.0
O1335 O 0.77676 0.76438 0.25709 0.0
H1336 H 0.72775 0.74616 0.30067 0.0
H1337 H 0.70406 0.74394 0.31977 0.0
H1338 H 0.70582 0.80424 0.32131 0.0
H1339 H 0.72916 0.80633 0.30176 0.0
H1340 H 0.84569 0.78724 0.26026 0.0
H1341 H 0.8694 0.79064 0.24081 0.0
H1342 H 0.89792 0.75933 0.278 0.0
H1343 H 0.87442 0.75633 0.29742 0.0
Tb1344 Tb 0.79524 0.27018 0.76915 0.0
Tb1345 Tb 0.78633 0.28436 0.80538 0.0
C1346 C 0.79885 0.26274 0.73476 0.0
C1347 C 0.79953 0.2734 0.71845 0.0
C1348 C 0.79433 0.29102 0.71912 0.0
C1349 C 0.79427 0.30067 0.70316 0.0
C1350 C 0.79948 0.29286 0.68633 0.0
C1351 C 0.80512 0.27542 0.68597 0.0
C1352 C 0.80512 0.26575 0.70193 0.0
C1353 C 0.81576 0.26312 0.79915 0.0
C1354 C 0.80832 0.3149 0.78359 0.0
C1355 C 0.78476 0.29889 0.83868 0.0
C1356 C 0.77448 0.29472 0.85402 0.0
C1357 C 0.7703 0.27619 0.85846 0.0
C1358 C 0.76324 0.27294 0.87504 0.0
C1359 C 0.76 0.28815 0.8874 0.0
C1360 C 0.76271 0.30644 0.88188 0.0
C1361 C 0.77002 0.30971 0.86539 0.0
C1362 C 0.76023 0.27903 0.77645 0.0
C1363 C 0.77358 0.24018 0.79112 0.0
O1364 O 0.78371 0.25972 0.74088 0.0
O1365 O 0.81202 0.26813 0.74876 0.0
O1366 O 0.81018 0.27827 0.79744 0.0
O1367 O 0.8102 0.25155 0.78345 0.0
O1368 O 0.80752 0.30062 0.76977 0.0
O1369 O 0.80088 0.31162 0.79892 0.0
O1370 O 0.79526 0.28725 0.83475 0.0
O1371 O 0.77648 0.30363 0.8233 0.0
O1372 O 0.77605 0.28611 0.77616 0.0
O1373 O 0.75861 0.27498 0.79348 0.0
O1374 O 0.77891 0.25326 0.80652 0.0
O1375 O 0.77643 0.24488 0.77406 0.0
H1376 H 0.79001 0.29713 0.73184 0.0
H1377 H 0.78965 0.31396 0.70382 0.0
H1378 H 0.80944 0.26918 0.67332 0.0
H1379 H 0.80929 0.25221 0.70129 0.0
H1380 H 0.77341 0.26434 0.84971 0.0
H1381 H 0.76157 0.25867 0.87879 0.0
H1382 H 0.76003 0.31841 0.89082 0.0
H1383 H 0.77293 0.32409 0.86199 0.0
Tb1384 Tb 0.7753 0.76546 0.7839 0.0
Tb1385 Tb 0.8091 0.79079 0.79232 0.0
C1386 C 0.74813 0.74135 0.78427 0.0
C1387 C 0.73072 0.74346 0.78856 0.0
C1388 C 0.72907 0.75626 0.80429 0.0
C1389 C 0.7126 0.75898 0.80773 0.0
C1390 C 0.69748 0.7492 0.79537 0.0
C1391 C 0.6991 0.73647 0.77957 0.0
C1392 C 0.71563 0.73354 0.77625 0.0
C1393 C 0.78429 0.78217 0.75458 0.0
C1394 C 0.77393 0.80938 0.79248 0.0
C1395 C 0.83666 0.81467 0.79304 0.0
C1396 C 0.85499 0.81256 0.79483 0.0
C1397 C 0.86685 0.82442 0.78623 0.0
C1398 C 0.88358 0.82069 0.78531 0.0
C1399 C 0.88867 0.80497 0.79294 0.0
C1400 C 0.87694 0.79358 0.80225 0.0
C1401 C 0.86021 0.79729 0.8031 0.0
C1402 C 0.79977 0.77407 0.82162 0.0
C1403 C 0.81061 0.74681 0.78344 0.0
O1404 O 0.761 0.7462 0.79867 0.0
O1405 O 0.75234 0.74775 0.76869 0.0
O1406 O 0.79435 0.77546 0.7663 0.0
O1407 O 0.76853 0.77851 0.75849 0.0
O1408 O 0.76523 0.79174 0.79255 0.0
O1409 O 0.79097 0.81187 0.79107 0.0
O1410 O 0.82686 0.80571 0.7772 0.0
O1411 O 0.82902 0.81226 0.80812 0.0
O1412 O 0.78993 0.78094 0.80985 0.0
O1413 O 0.81554 0.77745 0.81772 0.0
O1414 O 0.81973 0.76454 0.78582 0.0
O1415 O 0.7932 0.74412 0.78251 0.0
H1416 H 0.74049 0.76439 0.8138 0.0
H1417 H 0.7117 0.7691 0.81983 0.0
H1418 H 0.68759 0.72875 0.76987 0.0
H1419 H 0.71667 0.72376 0.76395 0.0
H1420 H 0.86293 0.8361 0.77955 0.0
H1421 H 0.89221 0.82957 0.7778 0.0
H1422 H 0.88052 0.78152 0.80846 0.0
H1423 H 0.85116 0.78784 0.80965 0.0
Tb1424 Tb 0.5272 0.52178 0.53154 0.0
Tb1425 Tb 0.56239 0.54097 0.55251 0.0
C1426 C 0.4951 0.51611 0.51973 0.0
C1427 C 0.4842 0.5307 0.51791 0.0
C1428 C 0.48232 0.54256 0.53427 0.0
C1429 C 0.4754 0.55884 0.53245 0.0
C1430 C 0.47018 0.56365 0.51427 0.0
C1431 C 0.47102 0.55125 0.49788 0.0
C1432 C 0.478 0.5349 0.4997 0.0
C1433 C 0.55301 0.51956 0.51169 0.0
C1434 C 0.54095 0.56679 0.53219 0.0
C1435 C 0.59458 0.54671 0.56429 0.0
C1436 C 0.6053 0.5321 0.56661 0.0
C1437 C 0.60168 0.51555 0.55317 0.0
C1438 C 0.6096 0.50025 0.55659 0.0
C1439 C 0.62153 0.50125 0.57333 0.0
C1440 C 0.62583 0.51803 0.58645 0.0
C1441 C 0.61757 0.53334 0.5832 0.0
C1442 C 0.5364 0.54291 0.57226 0.0
C1443 C 0.54868 0.49582 0.55171 0.0
O1444 O 0.50159 0.51427 0.53723 0.0
O1445 O 0.50677 0.51624 0.50819 0.0
O1446 O 0.55134 0.53357 0.52305 0.0
O1447 O 0.53926 0.50621 0.51045 0.0
O1448 O 0.52746 0.55249 0.53102 0.0
O1449 O 0.557 0.56515 0.53899 0.0
O1450 O 0.58802 0.5478 0.54661 0.0
O1451 O 0.58294 0.54703 0.57582 0.0
O1452 O 0.53831 0.52904 0.5609 0.0
O1453 O 0.55008 0.55641 0.57358 0.0
O1454 O 0.56196 0.51045 0.55374 0.0
O1455 O 0.5327 0.49711 0.54422 0.0
H1456 H 0.48693 0.53982 0.54856 0.0
H1457 H 0.4745 0.56794 0.54532 0.0
H1458 H 0.46699 0.55462 0.4837 0.0
H1459 H 0.47937 0.52605 0.48686 0.0
H1460 H 0.59229 0.51412 0.54024 0.0
H1461 H 0.60636 0.48755 0.54612 0.0
H1462 H 0.63518 0.51908 0.59936 0.0
H1463 H 0.62042 0.54591 0.5938 0.0
Tb1464 Tb 0.05859 0.52804 0.03019 0.0
Tb1465 Tb 0.02137 0.52315 0.04007 0.0
C1466 C 0.08989 0.52575 0.02728 0.0
C1467 C 0.10298 0.51359 0.0316 0.0
C1468 C 0.11887 0.52168 0.04357 0.0
C1469 C 0.13221 0.51129 0.04654 0.0
C1470 C 0.13009 0.49245 0.03757 0.0
C1471 C 0.11395 0.48413 0.02601 0.0
C1472 C 0.10059 0.49459 0.02299 0.0
C1473 C 0.03412 0.53473 1.00255 0.0
C1474 C 0.035 0.4865 0.02688 0.0
C1475 C 0.98918 0.52445 0.03525 0.0
C1476 C 0.97659 0.53677 0.03985 0.0
C1477 C 0.97979 0.5562 0.03779 0.0
C1478 C 0.96649 0.56678 0.03862 0.0
C1479 C 0.94968 0.55825 0.04162 0.0
C1480 C 0.9468 0.53905 0.04461 0.0
C1481 C 0.96007 0.52844 0.04366 0.0
C1482 C 0.04432 0.52131 0.07194 0.0
C1483 C 0.04657 0.56382 0.04927 0.0
O1484 O 0.08531 0.53529 0.04191 0.0
O1485 O 0.07661 0.51907 0.01359 0.0
O1486 O 0.03243 0.52204 0.01367 0.0
O1487 O 0.0503 0.54369 1.00664 0.0
O1488 O 0.05089 0.49721 0.02927 0.0
O1489 O 0.02094 0.49379 0.0289 0.0
O1490 O 1.00011 0.53059 0.02391 0.0
O1491 O 0.99651 0.51616 0.04881 0.0
O1492 O 0.04719 0.52385 0.05512 0.0
O1493 O 0.02744 0.51968 0.07091 0.0
O1494 O 0.03036 0.55389 0.04594 0.0
O1495 O 0.06014 0.55615 0.04587 0.0
H1496 H 0.12115 0.53629 0.05035 0.0
H1497 H 0.1443 0.51811 0.05578 0.0
H1498 H 0.11185 0.46973 0.01874 0.0
H1499 H 0.08857 0.48793 0.01355 0.0
H1500 H 0.99237 0.56306 0.03479 0.0
H1501 H 0.9693 0.58159 0.03656 0.0
H1502 H 0.93402 0.53192 0.04679 0.0
H1503 H 0.95717 0.51347 0.04507 0.0
H1504 H 1.00841 0.19002 0.91961 0.0
H1505 H 1.01111 0.1619 0.93546 0.0
H1506 H 0.02421 0.19718 0.99036 0.0
H1507 H 0.02153 0.22524 0.97469 0.0
H1508 H 0.04073 0.15494 0.9586 0.0
H1509 H 0.98512 0.15431 0.9993 0.0
H1510 H 0.98737 0.16745 0.97927 0.0
H1511 H 0.99998 0.1768 1.00243 0.0
C1512 C 1.01176 0.19178 0.93507 0.0
C1513 C 0.01471 0.20992 0.94585 0.0
C1514 C 1.01332 0.17568 0.94412 0.0
C1515 C 0.01762 0.17733 0.96417 0.0
C1516 C 0.02054 0.19543 0.97494 0.0
H1517 H 0.06031 0.09624 0.03049 0.0
H1518 H 0.0555 0.12414 0.01531 0.0
C1519 C 0.01912 0.21151 0.96591 0.0
C1520 C 0.01979 0.16031 0.97378 0.0
H1521 H 1.00471 0.13389 1.00742 0.0
C1522 C 0.03281 0.1503 0.96923 0.0
C1523 C 1.00933 0.15407 0.98751 0.0
C1524 C 0.99455 0.16357 0.99234 0.0
C1525 C 0.03589 0.13454 0.97826 0.0
C1526 C 0.02587 0.12872 0.99249 0.0
C1527 C 1.01258 0.13847 0.99674 0.0
C1528 C 0.02863 0.11221 1.00269 0.0
C1529 C 0.04967 0.12404 0.9722 0.0
C1530 C 0.01499 0.09641 1.00129 0.0
C1531 C 0.01765 0.08054 1.01014 0.0
C1532 C 0.03401 0.08003 0.02069 0.0
C1533 C 0.04754 0.09607 0.02249 0.0
C1534 C 0.04485 0.11201 0.01367 0.0
H1535 H 0.05292 0.1271 0.95797 0.0
H1536 H 0.06181 0.12858 0.98283 0.0
H1537 H 0.0453 0.10846 0.97156 0.0
H1538 H 1.00236 0.09616 0.99292 0.0
H1539 H 1.00698 0.06843 1.00824 0.0
H1540 H 0.12905 0.79014 0.15196 0.0
H1541 H 0.15747 0.789 0.1703 0.0
H1542 H 0.13995 0.80892 0.22243 0.0
H1543 H 0.11149 0.80999 0.20424 0.0
H1544 H 0.18338 0.81663 0.19586 0.0
H1545 H 0.15381 0.75817 0.23295 0.0
H1546 H 0.14228 0.76504 0.21196 0.0
H1547 H 0.14392 0.77874 0.23507 0.0
C1548 C 0.1313 0.79454 0.1673 0.0
C1549 C 0.11789 0.80007 0.17662 0.0
C1550 C 0.14758 0.79385 0.17778 0.0
C1551 C 0.15078 0.79851 0.19782 0.0
C1552 C 0.13771 0.80489 0.20703 0.0
H1553 H 0.23118 0.79689 0.29211 0.0
H1554 H 0.20526 0.79918 0.27018 0.0
C1555 C 0.12145 0.80563 0.19658 0.0
C1556 C 0.16746 0.79606 0.20917 0.0
H1557 H 0.18353 0.77222 0.24434 0.0
C1558 C 0.18345 0.80684 0.20639 0.0
C1559 C 0.1676 0.78318 0.2228 0.0
C1560 C 0.15102 0.77047 0.22581 0.0
C1561 C 0.19945 0.80564 0.2174 0.0
C1562 C 0.19953 0.79302 0.23133 0.0
C1563 C 0.18355 0.78195 0.23375 0.0
C1564 C 0.21578 0.79178 0.24436 0.0
C1565 C 0.21602 0.81842 0.2145 0.0
C1566 C 0.23049 0.78671 0.2373 0.0
C1567 C 0.2455 0.78546 0.24995 0.0
C1568 C 0.24602 0.78905 0.26988 0.0
C1569 C 0.23125 0.79398 0.27684 0.0
C1570 C 0.21636 0.79528 0.26428 0.0
H1571 H 0.21322 0.83036 0.20676 0.0
H1572 H 0.22441 0.82438 0.22844 0.0
H1573 H 0.22351 0.81005 0.20585 0.0
H1574 H 0.23033 0.78357 0.22202 0.0
H1575 H 0.25665 0.78182 0.24413 0.0
H1576 H 0.51531 0.80659 0.4612 0.0
H1577 H 0.51692 0.83731 0.48042 0.0
H1578 H 0.52366 0.86544 0.43072 0.0
H1579 H 0.52156 0.83483 0.41129 0.0
H1580 H 0.5417 0.86856 0.48957 0.0
H1581 H 0.48379 0.88686 0.4482 0.0
H1582 H 0.48893 0.86346 0.44483 0.0
H1583 H 0.49963 0.88223 0.43324 0.0
C1584 C 0.51717 0.8193 0.45434 0.0
C1585 C 0.51818 0.81815 0.43462 0.0
C1586 C 0.51805 0.83688 0.46537 0.0
C1587 C 0.51998 0.8537 0.45696 0.0
C1588 C 0.52161 0.85265 0.43744 0.0
H1589 H 0.55835 0.96868 0.51131 0.0
H1590 H 0.55413 0.93577 0.49684 0.0
C1591 C 0.52056 0.8351 0.42637 0.0
C1592 C 0.52062 0.87238 0.46861 0.0
H1593 H 0.50294 0.91237 0.46952 0.0
C1594 C 0.53311 0.87805 0.48527 0.0
C1595 C 0.50916 0.88467 0.46333 0.0
C1596 C 0.4945 0.87891 0.44655 0.0
C1597 C 0.53491 0.89591 0.4963 0.0
C1598 C 0.52425 0.90871 0.49026 0.0
C1599 C 0.51129 0.90273 0.47405 0.0
C1600 C 0.52682 0.92862 0.49999 0.0
C1601 C 0.54816 0.90077 0.5144 0.0
C1602 C 0.51276 0.9359 0.50622 0.0
C1603 C 0.51506 0.95497 0.51435 0.0
C1604 C 0.53149 0.96716 0.51639 0.0
C1605 C 0.54554 0.95974 0.51025 0.0
C1606 C 0.5432 0.94079 0.50204 0.0
H1607 H 0.55059 0.88775 0.52043 0.0
H1608 H 0.56077 0.90825 0.51107 0.0
H1609 H 0.5438 0.91013 0.5255 0.0
H1610 H 0.49995 0.92684 0.50468 0.0
H1611 H 0.50393 0.96018 0.51882 0.0
H1612 H 0.53466 0.2967 0.6895 0.0
H1613 H 0.51132 0.29416 0.70945 0.0
H1614 H 0.47327 0.26936 0.65966 0.0
H1615 H 0.49626 0.27191 0.63964 0.0
H1616 H 0.47788 0.30974 0.70302 0.0
H1617 H 0.4672 0.23127 0.70061 0.0
H1618 H 0.48736 0.24519 0.69604 0.0
H1619 H 0.46824 0.24014 0.67802 0.0
C1620 C 0.52133 0.29073 0.68278 0.0
C1621 C 0.51743 0.28449 0.66291 0.0
C1622 C 0.50801 0.2893 0.69421 0.0
C1623 C 0.4906 0.28137 0.68606 0.0
C1624 C 0.48664 0.27532 0.66628 0.0
H1625 H 0.38967 0.25296 0.72315 0.0
H1626 H 0.415 0.25605 0.70634 0.0
C1627 C 0.49986 0.27688 0.65484 0.0
C1628 C 0.4764 0.27955 0.69804 0.0
H1629 H 0.44653 0.24679 0.71387 0.0
C1630 C 0.47111 0.29601 0.70558 0.0
C1631 C 0.46749 0.26161 0.70117 0.0
C1632 C 0.47288 0.2435 0.69368 0.0
C1633 C 0.45682 0.295 0.71571 0.0
C1634 C 0.44786 0.27702 0.71887 0.0
C1635 C 0.45334 0.26057 0.7115 0.0
C1636 C 0.43255 0.27492 0.72942 0.0
C1637 C 0.45105 0.31319 0.72224 0.0
C1638 C 0.43396 0.28415 0.74818 0.0
C1639 C 0.4194 0.28266 0.75774 0.0
C1640 C 0.40306 0.27162 0.74891 0.0
C1641 C 0.40187 0.26187 0.73033 0.0
C1642 C 0.41642 0.2635 0.72073 0.0
H1643 H 0.4558 0.32474 0.71399 0.0
H1644 H 0.43657 0.31108 0.72072 0.0
H1645 H 0.45657 0.31795 0.73756 0.0
H1646 H 0.44633 0.29264 0.75543 0.0
H1647 H 0.4209 0.29057 0.7719 0.0
H1648 H 0.08598 0.82615 0.70357 0.0
H1649 H 0.08876 0.85481 0.68791 0.0
H1650 H 0.04447 0.82807 0.64513 0.0
H1651 H 0.04156 0.79937 0.66053 0.0
H1652 H 0.09439 0.8545 0.64855 0.0
H1653 H 0.03482 0.88172 0.66204 0.0
H1654 H 0.0439 0.86564 0.67642 0.0
H1655 H 0.03073 0.85674 0.65346 0.0
C1656 C 0.07663 0.82644 0.69101 0.0
C1657 C 0.06361 0.81039 0.68323 0.0
C1658 C 0.07828 0.84283 0.6821 0.0
C1659 C 0.06675 0.84353 0.6655 0.0
C1660 C 0.05334 0.82785 0.65811 0.0
H1661 H 0.06795 0.89583 0.56567 0.0
H1662 H 0.0723 0.87656 0.59148 0.0
C1663 C 0.05177 0.81143 0.66689 0.0
C1664 C 0.0695 0.8599 0.65481 0.0
H1665 H 0.04859 0.89276 0.63611 0.0
C1666 C 0.08456 0.86313 0.64608 0.0
C1667 C 0.05672 0.87119 0.65183 0.0
C1668 C 0.0407 0.86881 0.66157 0.0
C1669 C 0.08667 0.8767 0.63348 0.0
C1670 C 0.07331 0.88709 0.6295 0.0
C1671 C 0.05876 0.88464 0.63912 0.0
C1672 C 0.07336 0.89944 0.61429 0.0
C1673 C 0.10295 0.8795 0.6242 0.0
C1674 C 0.07264 0.91866 0.61863 0.0
C1675 C 0.07006 0.92965 0.60393 0.0
C1676 C 0.06799 0.9215 0.58465 0.0
C1677 C 0.06943 0.90243 0.58039 0.0
C1678 C 0.07208 0.89148 0.59511 0.0
H1679 H 0.1139 0.87481 0.63274 0.0
H1680 H 0.10015 0.8709 0.60981 0.0
H1681 H 0.10717 0.89463 0.62239 0.0
H1682 H 0.07344 0.92497 0.63336 0.0
H1683 H 0.06876 0.94423 0.60764 0.0
H1684 H 0.47449 0.81476 0.90249 0.0
H1685 H 0.44309 0.81301 0.89144 0.0
H1686 H 0.44686 0.77887 0.83893 0.0
H1687 H 0.47806 0.78063 0.8499 0.0
H1688 H 0.42786 0.82417 0.85439 0.0
H1689 H 0.40564 0.74847 0.86226 0.0
H1690 H 0.426 0.76268 0.87511 0.0
H1691 H 0.42448 0.75304 0.85039 0.0
C1692 C 0.46852 0.80701 0.88857 0.0
C1693 C 0.47857 0.7983 0.87672 0.0
C1694 C 0.4507 0.80598 0.88233 0.0
C1695 C 0.44276 0.7957 0.86447 0.0
C1696 C 0.45279 0.78672 0.85282 0.0
H1697 H 0.35113 0.76587 0.78358 0.0
H1698 H 0.37899 0.76972 0.80463 0.0
C1699 C 0.47056 0.7879 0.85897 0.0
C1700 C 0.42405 0.79452 0.85756 0.0
H1701 H 0.38596 0.76247 0.84234 0.0
C1702 C 0.41857 0.8108 0.852 0.0
C1703 C 0.41207 0.77703 0.85464 0.0
C1704 C 0.41726 0.75931 0.86106 0.0
C1705 C 0.40161 0.80977 0.84231 0.0
C1706 C 0.38982 0.79206 0.83863 0.0
C1707 C 0.39507 0.776 0.84515 0.0
C1708 C 0.37257 0.78947 0.82653 0.0
C1709 C 0.39681 0.82734 0.8351 0.0
C1710 C 0.35965 0.7991 0.83205 0.0
C1711 C 0.34368 0.79701 0.81997 0.0
C1712 C 0.34038 0.78512 0.80229 0.0
C1713 C 0.35322 0.77513 0.79709 0.0
C1714 C 0.36916 0.7773 0.8091 0.0
H1715 H 0.40847 0.83881 0.83587 0.0
H1716 H 0.39006 0.82399 0.82003 0.0
H1717 H 0.38772 0.83282 0.84399 0.0
H1718 H 0.36195 0.80828 0.84562 0.0
H1719 H 0.33399 0.80477 0.82446 0.0
H1720 H 0.51553 0.18718 0.15796 0.0
H1721 H 0.51196 0.15953 0.1332 0.0
H1722 H 0.54865 0.19203 0.1033 0.0
H1723 H 0.55141 0.2197 0.12734 0.0
H1724 H 0.52292 0.17106 0.07855 0.0
H1725 H 0.54751 0.12664 0.13097 0.0
H1726 H 0.52791 0.1344 0.13586 0.0
H1727 H 0.54788 0.15156 0.13737 0.0
C1728 C 0.5226 0.18831 0.14593 0.0
C1729 C 0.53347 0.20544 0.1442 0.0
C1730 C 0.52069 0.17258 0.13191 0.0
C1731 C 0.53028 0.17365 0.11658 0.0
C1732 C 0.54108 0.19088 0.11494 0.0
H1733 H 0.5633 0.0811 0.05594 0.0
H1734 H 0.56112 0.11073 0.0747 0.0
C1735 C 0.54268 0.20664 0.12866 0.0
C1736 C 0.52991 0.15676 0.10263 0.0
H1737 H 0.53905 0.11224 0.09897 0.0
C1738 C 0.52637 0.15816 0.08299 0.0
C1739 C 0.53474 0.14007 0.10848 0.0
C1740 C 0.53989 0.13809 0.1293 0.0
C1741 C 0.52788 0.1435 0.06902 0.0
C1742 C 0.5325 0.12675 0.0749 0.0
C1743 C 0.53557 0.12515 0.09451 0.0
C1744 C 0.53474 0.11075 0.06118 0.0
C1745 C 0.5252 0.14644 0.04822 0.0
C1746 C 0.52091 0.10133 0.04685 0.0
C1747 C 0.52239 0.08465 0.03576 0.0
C1748 C 0.53753 0.07697 0.03924 0.0
C1749 C 0.55157 0.08677 0.053 0.0
C1750 C 0.55027 0.10365 0.06375 0.0
H1751 H 0.52696 0.16177 0.04663 0.0
H1752 H 0.53443 0.14005 0.04023 0.0
H1753 H 0.51165 0.13958 0.04155 0.0
H1754 H 0.50866 0.10627 0.04492 0.0
H1755 H 0.51125 0.07708 0.02545 0.0
H1756 H 0.0895 0.31022 0.38939 0.0
H1757 H 0.11583 0.30898 0.37521 0.0
H1758 H 0.09526 0.3351 0.32773 0.0
H1759 H 0.06857 0.33617 0.34171 0.0
H1760 H 0.10421 0.30128 0.31649 0.0
H1761 H 0.15872 0.34616 0.36788 0.0
H1762 H 0.14494 0.3303 0.37977 0.0
H1763 H 0.13618 0.34827 0.36813 0.0
C1764 C 0.09068 0.31611 0.37614 0.0
C1765 C 0.07684 0.3231 0.36657 0.0
C1766 C 0.10585 0.31556 0.36815 0.0
C1767 C 0.10756 0.32213 0.35053 0.0
C1768 C 0.09421 0.3301 0.34143 0.0
H1769 H 0.20208 0.30364 0.30446 0.0
H1770 H 0.17866 0.31931 0.31351 0.0
C1771 C 0.07899 0.33071 0.34946 0.0
C1772 C 0.12205 0.31799 0.34054 0.0
H1773 H 0.16613 0.3201 0.3479 0.0
C1774 C 0.1178 0.30575 0.32312 0.0
C1775 C 0.13975 0.32399 0.3491 0.0
C1776 C 0.14517 0.33807 0.36716 0.0
C1777 C 0.1307 0.29828 0.3147 0.0
C1778 C 0.14819 0.30297 0.32417 0.0
C1779 C 0.15263 0.31627 0.34085 0.0
C1780 C 0.16188 0.29339 0.31768 0.0
C1781 C 0.12542 0.2851 0.29602 0.0
C1782 C 0.16018 0.27364 0.31714 0.0
C1783 C 0.17355 0.26465 0.31205 0.0
C1784 C 0.1889 0.27533 0.30766 0.0
C1785 C 0.19049 0.2951 0.30807 0.0
C1786 C 0.17711 0.30405 0.31311 0.0
H1787 H 0.1132 0.28767 0.28782 0.0
H1788 H 0.13591 0.28677 0.28694 0.0
H1789 H 0.12293 0.27018 0.29904 0.0
H1790 H 0.14867 0.26523 0.32106 0.0
H1791 H 0.17208 0.24944 0.31204 0.0
H1792 H 0.93345 1.00443 0.19684 0.0
H1793 H 0.94627 1.00971 0.16781 0.0
H1794 H 0.99755 0.02674 0.20177 0.0
H1795 H 0.98488 0.02143 0.23083 0.0
H1796 H 0.9666 0.04352 0.15872 0.0
H1797 H 1.0035 0.98475 0.16012 0.0
H1798 H 0.9861 0.98648 0.17406 0.0
H1799 H 1.00749 1.00096 0.18203 0.0
C1800 C 0.94746 1.00924 0.19814 0.0
C1801 C 0.95815 1.01239 0.21616 0.0
C1802 C 0.95477 1.0123 0.18152 0.0
C1803 C 0.9729 0.01841 0.18257 0.0
C1804 C 0.98357 0.02174 0.20057 0.0
H1805 H 0.03273 0.06504 0.09803 0.0
H1806 H 0.01677 0.06066 0.12514 0.0
C1807 C 0.97628 0.01876 0.21718 0.0
C1808 C 0.98066 0.02134 0.16488 0.0
H1809 H 1.00936 1.00595 0.13753 0.0
C1810 C 0.97592 0.03528 0.15404 0.0
C1811 C 0.99265 1.01043 0.15865 0.0
C1812 C 0.99766 0.99469 0.16919 0.0
C1813 C 0.98311 0.03884 0.13737 0.0
C1814 C 0.99548 0.0283 0.13147 0.0
C1815 C 0.99996 1.01412 0.14212 0.0
C1816 C 1.00397 0.03163 0.11429 0.0
C1817 C 0.97724 0.05368 0.12607 0.0
C1818 C 1.0021 0.01681 0.09915 0.0
C1819 C 1.01121 0.01928 0.0837 0.0
C1820 C 0.02252 0.03658 0.08313 0.0
C1821 C 0.02405 0.05158 0.09803 0.0
C1822 C 0.01488 0.04912 0.1135 0.0
H1823 H 0.96468 0.05703 0.12964 0.0
H1824 H 0.98731 0.06696 0.1295 0.0
H1825 H 0.97563 0.04892 0.11043 0.0
H1826 H 0.99381 1.00318 0.09947 0.0
H1827 H 1.00983 1.00741 0.0725 0.0
H1828 H 0.29535 0.67605 0.49735 0.0
H1829 H 0.27914 0.6945 0.47732 0.0
H1830 H 0.28765 0.73984 0.5245 0.0
H1831 H 0.30433 0.72177 0.54449 0.0
H1832 H 0.24948 0.71031 0.48077 0.0
H1833 H 0.30901 0.76605 0.48316 0.0
H1834 H 0.31008 0.74363 0.49168 0.0
H1835 H 0.30275 0.76189 0.50595 0.0
C1836 C 0.29379 0.68995 0.50348 0.0
C1837 C 0.30142 0.6976 0.52239 0.0
C1838 C 0.28442 0.70041 0.49206 0.0
C1839 C 0.2824 0.71861 0.49939 0.0
C1840 C 0.28936 0.72597 0.51849 0.0
H1841 H 0.25881 0.79892 0.42288 0.0
H1842 H 0.25652 0.78516 0.45261 0.0
C1843 C 0.29893 0.71563 0.52985 0.0
C1844 C 0.27407 0.73026 0.48651 0.0
H1845 H 0.28369 0.76887 0.46354 0.0
C1846 C 0.25683 0.72329 0.47718 0.0
C1847 C 0.28366 0.74727 0.48201 0.0
C1848 C 0.30243 0.75514 0.49108 0.0
C1849 C 0.24923 0.73241 0.46275 0.0
C1850 C 0.25922 0.74875 0.45747 0.0
C1851 C 0.27599 0.7564 0.46772 0.0
C1852 C 0.25426 0.75618 0.43939 0.0
C1853 C 0.23083 0.72413 0.45287 0.0
C1854 C 0.25275 0.74434 0.42198 0.0
C1855 C 0.25416 0.75215 0.40505 0.0
C1856 C 0.25724 0.77197 0.4053 0.0
C1857 C 0.25673 0.78362 0.42235 0.0
C1858 C 0.2553 0.77578 0.4393 0.0
H1859 H 0.22291 0.71697 0.46279 0.0
H1860 H 0.22422 0.73521 0.44725 0.0
H1861 H 0.23126 0.71327 0.44069 0.0
H1862 H 0.25232 0.72924 0.42172 0.0
H1863 H 0.25464 0.74277 0.39222 0.0
H1864 H 0.66324 0.01622 0.72461 0.0
H1865 H 0.64722 0.01833 0.69295 0.0
H1866 H 0.59861 0.99674 0.71178 0.0
H1867 H 0.61451 0.99483 0.74337 0.0
H1868 H 0.62614 0.99428 0.66342 0.0
H1869 H 0.58537 0.04242 0.69144 0.0
H1870 H 0.60374 0.03693 0.70631 0.0
H1871 H 0.58292 0.02072 0.70175 0.0
C1872 C 0.64913 1.01181 0.72207 0.0
C1873 C 0.6404 1.00534 0.73703 0.0
C1874 C 0.63985 1.01305 0.70373 0.0
C1875 C 0.62135 1.00814 0.69948 0.0
C1876 C 0.6127 1.00123 0.71429 0.0
H1877 H 0.53696 1.00786 0.60388 0.0
H1878 H 0.55578 1.00554 0.63327 0.0
C1879 C 0.62195 0.99992 0.73257 0.0
C1880 C 0.61119 1.01025 0.67986 0.0
H1881 H 0.57705 0.02891 0.65881 0.0
C1882 C 0.61548 1.00198 0.66253 0.0
C1883 C 0.59714 0.02032 0.67799 0.0
C1884 C 0.5921 0.03077 0.69532 0.0
C1885 C 0.606 1.00284 0.64407 0.0
C1886 C 0.59175 1.01269 0.64225 0.0
C1887 C 0.58771 0.0212 0.65959 0.0
C1888 C 0.58034 1.01369 0.62296 0.0
C1889 C 0.61102 0.99243 0.62672 0.0
C1890 C 0.58724 0.01906 0.60638 0.0
C1891 C 0.57618 0.02028 0.58902 0.0
C1892 C 0.55772 0.01635 0.58753 0.0
C1893 C 0.55098 1.01101 0.60407 0.0
C1894 C 0.56191 1.00974 0.62121 0.0
H1895 H 0.61837 0.98126 0.63064 0.0
H1896 H 0.59929 0.98567 0.61609 0.0
H1897 H 0.6196 1.00267 0.61984 0.0
H1898 H 0.60126 0.02277 0.6069 0.0
H1899 H 0.58213 0.0246 0.57692 0.0
H1900 H 0.30264 0.39969 0.98001 0.0
H1901 H 0.29939 0.38043 0.94885 0.0
H1902 H 0.30857 0.33222 0.97668 0.0
H1903 H 0.31136 0.3513 1.00803 0.0
H1904 H 0.32276 0.36427 0.93325 0.0
H1905 H 0.26625 0.30787 0.93807 0.0
H1906 H 0.27262 0.3293 0.95506 0.0
H1907 H 0.28413 0.31002 0.95722 0.0
C1908 C 0.30375 0.38491 0.97958 0.0
C1909 C 0.30718 0.37707 0.99664 0.0
C1910 C 0.30193 0.3739 0.96168 0.0
C1911 C 0.30353 0.35474 0.96028 0.0
C1912 C 0.30684 0.3468 0.97727 0.0
H1913 H 0.32469 0.29587 0.85323 0.0
H1914 H 0.32696 0.31075 0.88635 0.0
C1915 C 0.30851 0.35778 0.99525 0.0
C1916 C 0.30256 0.34355 0.94102 0.0
H1917 H 0.28111 0.30317 0.91146 0.0
C1918 C 0.31363 0.35091 0.92851 0.0
C1919 C 0.29054 0.32618 0.93466 0.0
C1920 C 0.27759 0.31795 0.94687 0.0
C1921 C 0.31301 0.34153 0.90992 0.0
C1922 C 0.30132 0.32392 0.90372 0.0
C1923 C 0.29023 0.31653 0.91622 0.0
C1924 C 0.29979 0.31346 0.88401 0.0
C1925 C 0.3245 0.35097 0.8969 0.0
C1926 C 0.2836 0.30912 0.87182 0.0
C1927 C 0.2822 0.30033 0.85295 0.0
C1928 C 0.29697 0.29566 0.84573 0.0
C1929 C 0.31306 0.29941 0.85817 0.0
C1930 C 0.31441 0.30807 0.87713 0.0
H1931 H 0.32892 0.36645 0.90179 0.0
H1932 H 0.33632 0.34456 0.89691 0.0
H1933 H 0.31753 0.34898 0.88195 0.0
H1934 H 0.27208 0.313 0.87676 0.0
H1935 H 0.26956 0.29767 0.84388 0.0
H1936 H 0.9769 0.01874 0.3146 0.0
H1937 H 0.99472 0.0227 0.34634 0.0
H1938 H 0.94788 1.00962 0.37171 0.0
H1939 H 0.93005 1.00623 0.34038 0.0
H1940 H 0.97 0.03934 0.39239 0.0
H1941 H 1.00599 0.98131 0.37675 0.0
H1942 H 1.00844 0.9993 0.36124 0.0
H1943 H 0.98732 0.98456 0.36066 0.0
C1944 C 0.97039 0.01671 0.32694 0.0
C1945 C 0.952 1.01209 0.32483 0.0
C1946 C 0.98062 0.01885 0.34508 0.0
C1947 C 0.97268 0.01615 0.36144 0.0
C1948 C 0.95434 1.01175 0.35935 0.0
H1949 H 0.01353 0.99058 0.47199 0.0
H1950 H 1.00077 0.99063 0.43875 0.0
C1951 C 0.94414 1.00978 0.34133 0.0
C1952 C 0.98322 0.01805 0.38084 0.0
H1953 H 0.01402 0.99958 0.40738 0.0
C1954 C 0.97968 0.03069 0.39565 0.0
C1955 C 0.99573 1.00662 0.38517 0.0
C1956 C 0.99952 0.99205 0.37019 0.0
C1957 C 0.98802 0.03202 0.41464 0.0
C1958 C 1.00069 0.02077 0.41894 0.0
C1959 C 1.00443 1.00832 0.40408 0.0
C1960 C 1.0094 0.02085 0.43891 0.0
C1961 C 0.9826 0.04489 0.43001 0.0
C1962 C 0.01887 0.03774 0.45004 0.0
C1963 C 0.02603 0.0378 0.46918 0.0
C1964 C 0.02413 0.02089 0.47751 0.0
C1965 C 0.01525 1.00387 0.46609 0.0
C1966 C 1.00794 1.00387 0.44703 0.0
H1967 H 0.96968 0.04847 0.42525 0.0
H1968 H 0.98186 0.03822 0.4433 0.0
H1969 H 0.99239 0.05837 0.43349 0.0
H1970 H 0.02062 0.05094 0.44399 0.0
H1971 H 0.03296 0.05112 0.47746 0.0
H1972 H 0.37757 0.73822 0.60365 0.0
H1973 H 0.38614 0.76002 0.63366 0.0
H1974 H 0.36114 0.7165 0.66363 0.0
H1975 H 0.35395 0.69445 0.63408 0.0
H1976 H 0.36328 0.77273 0.64799 0.0
H1977 H 0.39593 0.74273 0.70675 0.0
H1978 H 0.39517 0.7328 0.68213 0.0
H1979 H 0.37783 0.72457 0.69539 0.0
C1980 C 0.37473 0.73311 0.61688 0.0
C1981 C 0.36502 0.71477 0.61663 0.0
C1982 C 0.37959 0.74556 0.63403 0.0
C1983 C 0.37429 0.74006 0.65107 0.0
C1984 C 0.36591 0.72112 0.65099 0.0
H1985 H 0.30646 0.77924 0.71123 0.0
H1986 H 0.32603 0.7698 0.68973 0.0
C1987 C 0.3616 0.70848 0.63396 0.0
C1988 C 0.37352 0.75472 0.66723 0.0
H1989 H 0.37196 0.75975 0.71527 0.0
C1990 C 0.36591 0.77023 0.66276 0.0
C1991 C 0.37714 0.75201 0.6867 0.0
C1992 C 0.38717 0.73721 0.69293 0.0
C1993 C 0.35992 0.78149 0.67677 0.0
C1994 C 0.36114 0.77685 0.6956 0.0
C1995 C 0.37064 0.76296 0.70065 0.0
C1996 C 0.34983 0.78356 0.7088 0.0
C1997 C 0.35112 0.79737 0.67095 0.0
C1998 C 0.35676 0.79421 0.72679 0.0
C1999 C 0.3455 0.79965 0.73917 0.0
C2000 C 0.32728 0.79415 0.73373 0.0
C2001 C 0.32047 0.78364 0.71571 0.0
C2002 C 0.33163 0.77833 0.70341 0.0
H2003 H 0.3566 0.80346 0.65884 0.0
H2004 H 0.33695 0.79168 0.66609 0.0
H2005 H 0.35258 0.8089 0.68311 0.0
H2006 H 0.37079 0.7982 0.73123 0.0
H2007 H 0.35098 0.80764 0.75312 0.0
H2008 H 0.67213 0.02176 0.87484 0.0
H2009 H 0.65539 0.02344 0.90138 0.0
H2010 H 0.6074 1.00732 0.86145 0.0
H2011 H 0.62424 1.00541 0.83466 0.0
H2012 H 0.63422 0.04435 0.91382 0.0
H2013 H 0.59346 0.97221 0.89828 0.0
H2014 H 0.61161 0.9793 0.88586 0.0
H2015 H 0.59082 0.98573 0.87876 0.0
C2016 C 0.65799 0.01833 0.87145 0.0
C2017 C 0.6499 1.01319 0.852 0.0
C2018 C 0.64825 0.01941 0.88697 0.0
C2019 C 0.62972 0.01524 0.88419 0.0
C2020 C 0.62153 1.01018 0.86474 0.0
H2021 H 0.54916 1.01408 0.96382 0.0
H2022 H 0.56514 1.01215 0.9365 0.0
C2023 C 0.63132 1.00918 0.84911 0.0
C2024 C 0.61939 0.01672 0.90149 0.0
H2025 H 0.58629 0.99307 0.92281 0.0
C2026 C 0.6238 0.03297 0.91565 0.0
C2027 C 0.60551 1.00223 0.90464 0.0
C2028 C 0.60014 0.9838 0.89122 0.0
C2029 C 0.61491 0.03528 0.9319 0.0
C2030 C 0.60112 0.02072 0.93517 0.0
C2031 C 0.59667 1.00448 0.92097 0.0
C2032 C 0.59111 0.02209 0.95276 0.0
C2033 C 0.62014 0.0539 0.94504 0.0
C2034 C 0.59971 0.02809 0.97195 0.0
C2035 C 0.59038 0.02937 0.98788 0.0
C2036 C 0.57186 0.02449 0.98569 0.0
C2037 C 0.56329 0.01817 0.96659 0.0
C2038 C 0.5726 0.01697 0.95067 0.0
H2039 H 0.62616 0.06551 0.93755 0.0
H2040 H 0.60873 0.05812 0.9508 0.0
H2041 H 0.63003 0.05249 0.9572 0.0
H2042 H 0.61385 0.03157 0.97482 0.0
H2043 H 0.59782 0.03405 1.00208 0.0
H2044 H 0.29609 0.34232 0.09028 0.0
H2045 H 0.29405 0.32664 0.1189 0.0
H2046 H 0.32185 0.37835 0.15422 0.0
H2047 H 0.32362 0.39427 0.12558 0.0
H2048 H 0.31951 0.31955 0.14505 0.0
H2049 H 0.28081 0.36509 0.18207 0.0
H2050 H 0.28358 0.36591 0.15737 0.0
H2051 H 0.30075 0.37796 0.17634 0.0
C2052 C 0.30165 0.35046 0.10413 0.0
C2053 C 0.30993 0.36965 0.10556 0.0
C2054 C 0.30051 0.34142 0.12055 0.0
C2055 C 0.30757 0.35129 0.13889 0.0
C2056 C 0.31591 0.37046 0.14036 0.0
H2057 H 0.30898 0.31486 0.25328 0.0
H2058 H 0.31532 0.33225 0.22652 0.0
C2059 C 0.317 0.37955 0.12392 0.0
C2060 C 0.30656 0.34126 0.15626 0.0
H2061 H 0.29145 0.34222 0.19935 0.0
C2062 C 0.31335 0.32454 0.1569 0.0
C2063 C 0.29861 0.3477 0.17188 0.0
C2064 C 0.29037 0.36504 0.17188 0.0
C2065 C 0.31246 0.3142 0.17257 0.0
C2066 C 0.3043 0.32048 0.18805 0.0
C2067 C 0.29776 0.33736 0.18758 0.0
C2068 C 0.30175 0.30937 0.20444 0.0
C2069 C 0.32053 0.29673 0.1725 0.0
C2070 C 0.29208 0.29065 0.20117 0.0
C2071 C 0.2887 0.28063 0.21653 0.0
C2072 C 0.29487 0.28901 0.23562 0.0
C2073 C 0.30466 0.30768 0.23889 0.0
C2074 C 0.30804 0.31775 0.22351 0.0
H2075 H 0.33066 0.29708 0.16297 0.0
H2076 H 0.32656 0.29525 0.18715 0.0
H2077 H 0.31018 0.28396 0.16709 0.0
H2078 H 0.28667 0.28393 0.18671 0.0
H2079 H 0.28083 0.2664 0.21347 0.0
H2080 H 0.207 0.87071 0.01387 0.0
H2081 H 0.18477 0.87895 0.03242 0.0
H2082 H 0.17017 0.91536 0.99141 0.0
H2083 H 0.19198 0.90699 0.97262 0.0
H2084 H 0.1881 0.91431 0.04922 0.0
H2085 H 0.12325 0.89434 1.00455 0.0
H2086 H 0.14152 0.88389 0.99886 0.0
H2087 H 0.13847 0.90618 0.99103 0.0
C2088 C 0.19863 0.87993 1.00839 0.0
C2089 C 0.2015 0.88844 0.99188 0.0
C2090 C 0.18593 0.88463 0.01907 0.0
C2091 C 0.17578 0.89774 0.01332 0.0
C2092 C 0.17758 0.90491 0.99597 0.0
H2093 H 0.15538 0.99754 0.06097 0.0
H2094 H 0.16809 0.96935 0.05484 0.0
C2095 C 0.19021 0.9002 0.98526 0.0
C2096 C 0.16573 0.90661 0.02675 0.0
H2097 H 0.12832 0.92413 0.02687 0.0
C2098 C 0.17481 0.91599 0.0446 0.0
C2099 C 0.14829 0.90849 0.02103 0.0
C2100 C 0.1373 0.89747 1.00289 0.0
C2101 C 0.16755 0.92875 0.0559 0.0
C2102 C 0.15099 0.93249 0.04893 0.0
C2103 C 0.14119 0.92159 0.0321 0.0
C2104 C 0.14462 0.94928 0.0571 0.0
C2105 C 0.17801 0.93866 0.07478 0.0
C2106 C 0.12733 0.94745 0.06074 0.0
C2107 C 0.12004 0.96356 0.06392 0.0
C2108 C 0.12995 0.98169 0.06362 0.0
C2109 C 0.14762 0.98367 0.06151 0.0
C2110 C 0.15487 0.96755 0.05811 0.0
H2111 H 0.18604 0.92925 0.08153 0.0
H2112 H 0.18713 0.95143 0.07226 0.0
H2113 H 0.16943 0.94314 0.08492 0.0
H2114 H 0.11916 0.93353 0.05997 0.0
H2115 H 0.10638 0.96186 0.06553 0.0
H2116 H 0.70754 0.65466 0.9959 0.0
H2117 H 0.6784 0.63615 0.99733 0.0
H2118 H 0.70229 0.59957 0.03221 0.0
H2119 H 0.73127 0.6175 0.02996 0.0
H2120 H 0.6776 0.57876 1.00799 0.0
H2121 H 0.65013 0.63828 0.03935 0.0
H2122 H 0.65682 0.64228 0.01676 0.0
H2123 H 0.67292 0.64085 0.03683 0.0
C2124 C 0.70647 0.64258 1.00375 0.0
C2125 C 0.72162 0.63724 0.01246 0.0
C2126 C 0.68981 0.63213 1.00479 0.0
C2127 C 0.68795 0.61658 0.01524 0.0
C2128 C 0.7032 0.61143 0.02406 0.0
H2129 H 0.59204 0.56199 0.05344 0.0
H2130 H 0.61984 0.58244 0.05048 0.0
C2131 C 0.7198 0.62165 0.02272 0.0
C2132 C 0.67028 0.60537 0.01675 0.0
H2133 H 0.63004 0.60901 0.02867 0.0
C2134 C 0.66724 0.58546 0.01246 0.0
C2135 C 0.65673 0.61388 0.0231 0.0
C2136 C 0.65935 0.63497 0.02948 0.0
C2137 C 0.65118 0.57395 0.01403 0.0
C2138 C 0.63738 0.58251 0.01956 0.0
C2139 C 0.64045 0.60239 0.02414 0.0
C2140 C 0.61986 0.57101 0.02099 0.0
C2141 C 0.64944 0.55265 1.01029 0.0
C2142 C 0.61021 0.55817 1.00529 0.0
C2143 C 0.59447 0.54635 1.00705 0.0
C2144 C 0.58778 0.54731 0.02444 0.0
C2145 C 0.5969 0.56085 0.03987 0.0
C2146 C 0.6128 0.57255 0.03818 0.0
H2147 H 0.66242 0.54844 0.01209 0.0
H2148 H 0.64138 0.54544 0.02005 0.0
H2149 H 0.64304 0.54748 0.9953 0.0
H2150 H 0.61497 0.55709 0.99168 0.0
H2151 H 0.58763 0.53624 0.99481 0.0
H2152 H 0.6892 0.50212 0.34228 0.0
H2153 H 0.69826 0.47196 0.33524 0.0
H2154 H 0.66087 0.4586 0.28314 0.0
H2155 H 0.65179 0.48919 0.28994 0.0
H2156 H 0.6808 0.4339 0.32843 0.0
H2157 H 0.70827 0.45746 0.26472 0.0
H2158 H 0.70155 0.47371 0.2821 0.0
H2159 H 0.68541 0.45731 0.26503 0.0
C2160 C 0.68272 0.49276 0.32938 0.0
C2161 C 0.66991 0.49823 0.31653 0.0
C2162 C 0.68789 0.47544 0.32544 0.0
C2163 C 0.68045 0.46316 0.30854 0.0
C2164 C 0.66697 0.46802 0.29613 0.0
H2165 H 0.72138 0.35673 0.29213 0.0
H2166 H 0.70021 0.37791 0.29313 0.0
C2167 C 0.66172 0.48544 0.3001 0.0
C2168 C 0.68794 0.44611 0.30363 0.0
H2169 H 0.71437 0.42905 0.27433 0.0
C2170 C 0.68787 0.43259 0.3164 0.0
C2171 C 0.69731 0.44461 0.28803 0.0
C2172 C 0.69832 0.45906 0.2742 0.0
C2173 C 0.69756 0.41808 0.31447 0.0
C2174 C 0.70736 0.41695 0.29922 0.0
C2175 C 0.70678 0.42995 0.28596 0.0
C2176 C 0.71981 0.40382 0.29796 0.0
C2177 C 0.69805 0.40477 0.3294 0.0
C2178 C 0.73779 0.41135 0.29994 0.0
C2179 C 0.74984 0.39936 0.29921 0.0
C2180 C 0.74419 0.37951 0.29642 0.0
C2181 C 0.72613 0.37195 0.29418 0.0
C2182 C 0.71404 0.38402 0.29493 0.0
H2183 H 0.69211 0.40954 0.34197 0.0
H2184 H 0.69066 0.39042 0.32297 0.0
H2185 H 0.71174 0.40355 0.33446 0.0
H2186 H 0.74252 0.42659 0.30223 0.0
H2187 H 0.76361 0.40564 0.30068 0.0
H2188 H 0.77802 0.43983 0.49799 0.0
H2189 H 0.8049 0.46333 0.49928 0.0
H2190 H 0.81988 0.42792 0.45381 0.0
H2191 H 0.79267 0.40468 0.45213 0.0
H2192 H 0.83667 0.45398 0.50885 0.0
H2193 H 0.83371 0.48072 0.43867 0.0
H2194 H 0.81449 0.46933 0.44738 0.0
H2195 H 0.82822 0.45527 0.4365 0.0
C2196 C 0.78673 0.43751 0.48774 0.0
C2197 C 0.78313 0.42084 0.47453 0.0
C2198 C 0.80211 0.45084 0.48859 0.0
C2199 C 0.81423 0.44753 0.47642 0.0
C2200 C 0.81046 0.43102 0.46294 0.0
H2201 H 0.9215 0.47451 0.4697 0.0
H2202 H 0.88978 0.46453 0.46549 0.0
C2203 C 0.79504 0.4177 0.46207 0.0
C2204 C 0.83187 0.45974 0.47973 0.0
H2205 H 0.86241 0.48419 0.45705 0.0
C2206 C 0.84222 0.46095 0.49767 0.0
C2207 C 0.83902 0.46872 0.46509 0.0
C2208 C 0.82823 0.46862 0.44588 0.0
C2209 C 0.85988 0.46994 0.50102 0.0
C2210 C 0.86725 0.47825 0.48611 0.0
C2211 C 0.85669 0.47779 0.46844 0.0
C2212 C 0.88625 0.48566 0.48794 0.0
C2213 C 0.87074 0.46948 0.52009 0.0
C2214 C 0.89474 0.50105 0.50181 0.0
C2215 C 0.91295 0.50679 0.50429 0.0
C2216 C 0.92287 0.49734 0.49279 0.0
C2217 C 0.91421 0.48226 0.4786 0.0
C2218 C 0.89609 0.47651 0.47619 0.0
H2219 H 0.86384 0.45945 0.52866 0.0
H2220 H 0.88337 0.46529 0.51802 0.0
H2221 H 0.87369 0.48387 0.5285 0.0
H2222 H 0.88732 0.50846 0.51082 0.0
H2223 H 0.91927 0.5186 0.51518 0.0
H2224 H 0.36578 0.08591 0.28933 0.0
H2225 H 0.35355 0.11437 0.28869 0.0
H2226 H 0.39961 0.14281 0.26931 0.0
H2227 H 0.41173 0.11352 0.26911 0.0
H2228 H 0.35701 0.14614 0.30575 0.0
H2229 H 0.36925 0.16499 0.23494 0.0
H2230 H 0.37298 0.14281 0.24239 0.0
H2231 H 0.38908 0.16437 0.25033 0.0
C2232 C 0.37354 0.09803 0.28472 0.0
C2233 C 0.3901 0.09656 0.27921 0.0
C2234 C 0.36633 0.11479 0.28444 0.0
C2235 C 0.37504 0.13166 0.27871 0.0
C2236 C 0.39175 0.13042 0.27329 0.0
H2237 H 0.34598 0.24897 0.27958 0.0
H2238 H 0.36122 0.22188 0.27836 0.0
C2239 C 0.39898 0.11336 0.27335 0.0
C2240 C 0.36659 0.14997 0.27914 0.0
H2241 H 0.35854 0.18746 0.25467 0.0
C2242 C 0.3574 0.15489 0.29431 0.0
C2243 C 0.36662 0.16235 0.26466 0.0
C2244 C 0.37484 0.15832 0.24707 0.0
C2245 C 0.3488 0.1709 0.29548 0.0
C2246 C 0.34878 0.18318 0.28101 0.0
C2247 C 0.35818 0.17856 0.26598 0.0
C2248 C 0.33903 0.20043 0.28124 0.0
C2249 C 0.34008 0.17474 0.31276 0.0
C2250 C 0.32101 0.19841 0.28294 0.0
C2251 C 0.3121 0.21409 0.28344 0.0
C2252 C 0.32058 0.23297 0.28237 0.0
C2253 C 0.3386 0.23502 0.28051 0.0
C2254 C 0.34748 0.21923 0.27977 0.0
H2255 H 0.3455 0.16817 0.32505 0.0
H2256 H 0.34161 0.19023 0.31735 0.0
H2257 H 0.32589 0.16853 0.3091 0.0
H2258 H 0.31356 0.18446 0.28372 0.0
H2259 H 0.29836 0.21132 0.28484 0.0
H2260 H 0.32149 0.15516 0.53201 0.0
H2261 H 0.34977 0.14479 0.53627 0.0
H2262 H 0.32934 0.09765 0.49156 0.0
H2263 H 0.30148 0.1079 0.487 0.0
H2264 H 0.35761 0.111 0.54641 0.0
H2265 H 0.37477 0.11945 0.47449 0.0
H2266 H 0.35763 0.12972 0.48353 0.0
H2267 H 0.35344 0.10511 0.47322 0.0
C2268 C 0.32309 0.14272 0.52293 0.0
C2269 C 0.3091 0.13254 0.50905 0.0
C2270 C 0.33927 0.13676 0.52542 0.0
C2271 C 0.34189 0.1206 0.51399 0.0
C2272 C 0.32792 0.11043 0.50024 0.0
H2273 H 0.41699 0.04693 0.50629 0.0
H2274 H 0.39222 0.06319 0.50279 0.0
C2275 C 0.31185 0.11632 0.49774 0.0
C2276 C 0.35883 0.11371 0.51675 0.0
H2277 H 0.39027 0.09974 0.49248 0.0
C2278 C 0.36488 0.1088 0.53469 0.0
C2279 C 0.36841 0.11077 0.50149 0.0
C2280 C 0.36334 0.11672 0.48216 0.0
C2281 C 0.37973 0.10036 0.53753 0.0
C2282 C 0.38898 0.0969 0.5221 0.0
C2283 C 0.38316 0.10222 0.5043 0.0
C2284 C 0.40443 0.08737 0.52398 0.0
C2285 C 0.38501 0.09453 0.55686 0.0
C2286 C 0.4198 0.09567 0.53676 0.0
C2287 C 0.43413 0.08648 0.53867 0.0
C2288 C 0.4335 0.06871 0.52783 0.0
C2289 C 0.41817 0.06065 0.51475 0.0
C2290 C 0.40388 0.06989 0.51281 0.0
H2291 H 0.37441 0.09422 0.5658 0.0
H2292 H 0.38854 0.08028 0.55526 0.0
H2293 H 0.39665 0.10488 0.56461 0.0
H2294 H 0.42077 0.10934 0.54524 0.0
H2295 H 0.44576 0.0934 0.5486 0.0
H2296 H 0.66192 0.61436 0.33551 0.0
H2297 H 0.68218 0.64434 0.33476 0.0
H2298 H 0.70988 0.61463 0.29656 0.0
H2299 H 0.69047 0.58474 0.29846 0.0
H2300 H 0.73228 0.63674 0.32072 0.0
H2301 H 0.68391 0.67933 0.29609 0.0
H2302 H 0.68024 0.67109 0.31835 0.0
H2303 H 0.67785 0.65422 0.29704 0.0
C2304 C 0.6724 0.61438 0.32703 0.0
C2305 C 0.67492 0.59731 0.31735 0.0
C2306 C 0.68384 0.63152 0.32638 0.0
C2307 C 0.69747 0.63196 0.31529 0.0
C2308 C 0.69958 0.61482 0.30527 0.0
H2309 H 0.75901 0.72761 0.27616 0.0
H2310 H 0.73655 0.70118 0.28109 0.0
C2311 C 0.68849 0.59771 0.30635 0.0
C2312 C 0.71005 0.64992 0.31458 0.0
H2313 H 0.71329 0.69597 0.30578 0.0
C2314 C 0.72804 0.64968 0.31766 0.0
C2315 C 0.70466 0.66682 0.30997 0.0
C2316 C 0.68562 0.66786 0.30497 0.0
C2317 C 0.74072 0.66562 0.31636 0.0
C2318 C 0.73537 0.68265 0.31233 0.0
C2319 C 0.71741 0.68301 0.30919 0.0
C2320 C 0.74821 0.69978 0.31012 0.0
C2321 C 0.7597 0.66374 0.3186 0.0
C2322 C 0.76204 0.70813 0.32495 0.0
C2323 C 0.77499 0.72311 0.32207 0.0
C2324 C 0.77415 0.73023 0.30445 0.0
C2325 C 0.75994 0.72243 0.28992 0.0
C2326 C 0.74709 0.70734 0.29273 0.0
H2327 H 0.76109 0.64864 0.3165 0.0
H2328 H 0.76665 0.67133 0.30823 0.0
H2329 H 0.76622 0.67002 0.3333 0.0
H2330 H 0.76296 0.70287 0.33866 0.0
H2331 H 0.78571 0.72904 0.33358 0.0
H2332 H 0.91437 0.48242 0.79214 0.0
H2333 H 0.89876 0.44981 0.79245 0.0
H2334 H 0.8533 0.46183 0.7587 0.0
H2335 H 0.86922 0.49413 0.75782 0.0
H2336 H 0.87287 0.43375 0.80656 0.0
H2337 H 0.85191 0.41275 0.72884 0.0
H2338 H 0.86693 0.43465 0.73843 0.0
H2339 H 0.84365 0.43319 0.73724 0.0
C2340 C 0.90105 0.47812 0.7847 0.0
C2341 C 0.89301 0.49142 0.77548 0.0
C2342 C 0.89199 0.45927 0.78491 0.0
C2343 C 0.87457 0.4526 0.77547 0.0
C2344 C 0.86672 0.46584 0.76582 0.0
H2345 H 0.80908 0.34874 0.80676 0.0
H2346 H 0.82416 0.38096 0.80474 0.0
C2347 C 0.8758 0.48469 0.76561 0.0
C2348 C 0.86474 0.4322 0.77622 0.0
H2349 H 0.83852 0.39218 0.74895 0.0
C2350 C 0.86545 0.42476 0.79383 0.0
C2351 C 0.85505 0.4197 0.75982 0.0
C2352 C 0.85447 0.42538 0.74 0.0
C2353 C 0.85691 0.40597 0.79555 0.0
C2354 C 0.84655 0.39377 0.77931 0.0
C2355 C 0.84605 0.40112 0.76164 0.0
C2356 C 0.83651 0.37349 0.78024 0.0
C2357 C 0.85976 0.39927 0.81487 0.0
C2358 C 0.83719 0.3578 0.76668 0.0
C2359 C 0.82809 0.33908 0.76758 0.0
C2360 C 0.81784 0.33509 0.78211 0.0
C2361 C 0.8169 0.35082 0.79545 0.0
C2362 C 0.82583 0.36952 0.79441 0.0
H2363 H 0.87226 0.40714 0.82362 0.0
H2364 H 0.84901 0.40195 0.82282 0.0
H2365 H 0.86001 0.38386 0.81347 0.0
H2366 H 0.84503 0.35993 0.75539 0.0
H2367 H 0.82926 0.32765 0.7569 0.0
H2368 H 0.06844 0.85237 0.14585 0.0
H2369 H 0.06701 0.88299 0.13402 0.0
H2370 H 0.05678 0.85468 0.07585 0.0
H2371 H 0.05749 0.82436 0.08743 0.0
H2372 H 0.08402 0.90466 0.11029 0.0
H2373 H 0.015 0.87931 0.07678 0.0
H2374 H 0.02619 0.8662 0.09288 0.0
H2375 H 0.0288 0.8642 0.06797 0.0
C2376 C 0.06605 0.85276 0.13055 0.0
C2377 C 0.06284 0.83583 0.11763 0.0
C2378 C 0.0652 0.87026 0.12378 0.0
C2379 C 0.06124 0.87113 0.104 0.0
C2380 C 0.05923 0.85439 0.09116 0.0
H2381 H 0.07281 0.97307 0.04605 0.0
H2382 H 0.07706 0.94428 0.06 0.0
C2383 C 0.05979 0.83701 0.09786 0.0
C2384 C 0.05864 0.88919 0.09655 0.0
H2385 H 0.02988 0.90755 0.06703 0.0
C2386 C 0.07212 0.90537 0.10097 0.0
C2387 C 0.043 0.89034 0.08463 0.0
C2388 C 0.02736 0.87415 0.08046 0.0
C2389 C 0.07058 0.92239 0.09342 0.0
C2390 C 0.0553 0.92317 0.08062 0.0
C2391 C 0.0417 0.90708 0.0766 0.0
C2392 C 0.05276 0.94054 0.07161 0.0
C2393 C 0.08526 0.93941 0.09964 0.0
C2394 C 0.03723 0.94753 0.07236 0.0
C2395 C 0.03446 0.96347 0.06369 0.0
C2396 C 0.04729 0.9731 0.05429 0.0
C2397 C 0.06279 0.96611 0.05338 0.0
C2398 C 0.06534 0.94979 0.06161 0.0
H2399 H 0.09275 0.93857 0.11381 0.0
H2400 H 0.09449 0.93978 0.08909 0.0
H2401 H 0.08028 0.95288 0.10055 0.0
H2402 H 0.02722 0.94074 0.07985 0.0
H2403 H 0.02243 0.96858 0.06481 0.0
H2404 H 0.96791 0.23508 0.87173 0.0
H2405 H 0.93802 0.2335 0.85578 0.0
H2406 H 0.93293 0.2804 0.89658 0.0
H2407 H 0.96201 0.28023 0.91378 0.0
H2408 H 0.90426 0.25967 0.89069 0.0
H2409 H 0.92061 0.26146 0.81761 0.0
H2410 H 0.92452 0.23992 0.82617 0.0
H2411 H 0.93698 0.26253 0.83801 0.0
C2412 C 0.96039 0.24512 0.87713 0.0
C2413 C 0.96743 0.25813 0.89367 0.0
C2414 C 0.94328 0.24437 0.86789 0.0
C2415 C 0.93308 0.25731 0.87433 0.0
C2416 C 0.94027 0.27026 0.89102 0.0
H2417 H 0.83494 0.28964 0.82865 0.0
H2418 H 0.86232 0.28744 0.84874 0.0
C2419 C 0.95702 0.27033 0.90081 0.0
C2420 C 0.91487 0.25716 0.86421 0.0
H2421 H 0.89038 0.25504 0.82006 0.0
C2422 C 0.90141 0.25886 0.87524 0.0
C2423 C 0.91062 0.25584 0.84394 0.0
C2424 C 0.92398 0.25498 0.83074 0.0
C2425 C 0.88423 0.25935 0.86672 0.0
C2426 C 0.88023 0.25804 0.84658 0.0
C2427 C 0.89344 0.25602 0.83553 0.0
C2428 C 0.86251 0.2587 0.8364 0.0
C2429 C 0.87041 0.26096 0.8793 0.0
C2430 C 0.85342 0.24331 0.82284 0.0
C2431 C 0.83787 0.24456 0.81137 0.0
C2432 C 0.83109 0.26132 0.81303 0.0
C2433 C 0.83982 0.27653 0.82706 0.0
C2434 C 0.85542 0.27524 0.83862 0.0
H2435 H 0.87446 0.25764 0.89392 0.0
H2436 H 0.86803 0.27571 0.88061 0.0
H2437 H 0.85787 0.25127 0.87287 0.0
H2438 H 0.85863 0.23043 0.82079 0.0
H2439 H 0.83144 0.23257 0.80076 0.0
H2440 H 0.57058 0.24841 0.59741 0.0
H2441 H 0.56942 0.2162 0.58157 0.0
H2442 H 0.54534 0.19296 0.62718 0.0
H2443 H 0.54693 0.22524 0.64325 0.0
H2444 H 0.57158 0.1756 0.61914 0.0
H2445 H 0.52942 0.17801 0.55054 0.0
H2446 H 0.54781 0.1974 0.55736 0.0
H2447 H 0.53069 0.1944 0.5719 0.0
C2448 C 0.56461 0.2364 0.60375 0.0
C2449 C 0.55836 0.23927 0.62125 0.0
C2450 C 0.56397 0.21796 0.59471 0.0
C2451 C 0.55699 0.20202 0.60295 0.0
C2452 C 0.55071 0.20496 0.62045 0.0
H2453 H 0.52109 0.08558 0.55342 0.0
H2454 H 0.52545 0.11879 0.56727 0.0
C2455 C 0.55153 0.22339 0.62958 0.0
C2456 C 0.55686 0.1823 0.59386 0.0
H2457 H 0.54133 0.15076 0.55305 0.0
C2458 C 0.56499 0.1702 0.60467 0.0
C2459 C 0.54828 0.17512 0.57497 0.0
C2460 C 0.53844 0.18681 0.56296 0.0
C2461 C 0.56452 0.15118 0.59723 0.0
C2462 C 0.5559 0.14412 0.57836 0.0
C2463 C 0.54805 0.15625 0.56746 0.0
C2464 C 0.55369 0.12387 0.57005 0.0
C2465 C 0.57274 0.13861 0.60981 0.0
C2466 C 0.56813 0.11569 0.56671 0.0
C2467 C 0.5657 0.09659 0.5587 0.0
C2468 C 0.54875 0.08533 0.55384 0.0
C2469 C 0.53434 0.09372 0.55698 0.0
C2470 C 0.53679 0.11275 0.56493 0.0
H2471 H 0.57579 0.14509 0.62509 0.0
H2472 H 0.56394 0.12455 0.60871 0.0
H2473 H 0.58513 0.13623 0.60497 0.0
H2474 H 0.58128 0.1241 0.57022 0.0
H2475 H 0.5771 0.09063 0.55649 0.0
H2476 H 0.56655 0.74728 0.41368 0.0
H2477 H 0.59589 0.74757 0.40492 0.0
H2478 H 0.58655 0.78653 0.36474 0.0
H2479 H 0.55764 0.78644 0.37329 0.0
H2480 H 0.60468 0.73763 0.36724 0.0
H2481 H 0.63412 0.81239 0.39658 0.0
H2482 H 0.61453 0.79981 0.40371 0.0
H2483 H 0.61333 0.80987 0.38163 0.0
C2484 C 0.57083 0.75604 0.40313 0.0
C2485 C 0.55964 0.76686 0.39428 0.0
C2486 C 0.58758 0.75614 0.39809 0.0
C2487 C 0.59355 0.76728 0.38435 0.0
C2488 C 0.58242 0.77809 0.37562 0.0
H2489 H 0.67513 0.79223 0.3174 0.0
H2490 H 0.64985 0.78968 0.33419 0.0
C2491 C 0.56577 0.77791 0.3805 0.0
C2492 C 0.61107 0.76737 0.37839 0.0
H2493 H 0.64848 0.79746 0.37316 0.0
C2494 C 0.61442 0.75061 0.36883 0.0
C2495 C 0.62378 0.78433 0.38041 0.0
C2496 C 0.62137 0.80259 0.39131 0.0
C2497 C 0.62967 0.7506 0.36036 0.0
C2498 C 0.64205 0.76776 0.36174 0.0
C2499 C 0.63898 0.78433 0.37196 0.0
C2500 C 0.65774 0.76915 0.35179 0.0
C2501 C 0.63197 0.73244 0.34918 0.0
C2502 C 0.67081 0.75863 0.35618 0.0
C2503 C 0.68545 0.76015 0.34664 0.0
C2504 C 0.68741 0.77234 0.33255 0.0
C2505 C 0.67431 0.78295 0.32834 0.0
C2506 C 0.65974 0.78142 0.33787 0.0
H2507 H 0.61963 0.72163 0.34602 0.0
H2508 H 0.63654 0.7352 0.33544 0.0
H2509 H 0.64199 0.72639 0.35768 0.0
H2510 H 0.6698 0.74937 0.36713 0.0
H2511 H 0.69534 0.75197 0.35049 0.0
H2512 H 0.06886 0.26316 0.42499 0.0
H2513 H 0.07167 0.23261 0.43538 0.0
H2514 H 0.03038 0.20413 0.38981 0.0
H2515 H 0.02783 0.23471 0.37899 0.0
H2516 H 0.04295 0.2137 0.44788 0.0
H2517 H 0.06406 0.16659 0.39203 0.0
H2518 H 0.06775 0.19213 0.39286 0.0
H2519 H 0.0465 0.17793 0.3835 0.0
C2520 C 0.06076 0.25033 0.41682 0.0
C2521 C 0.04797 0.25126 0.40136 0.0
C2522 C 0.06242 0.2329 0.42272 0.0
C2523 C 0.05123 0.21614 0.41337 0.0
C2524 C 0.03934 0.21686 0.39701 0.0
H2525 H 0.01363 0.12426 0.47424 0.0
H2526 H 0.01592 0.14763 0.45177 0.0
C2527 C 0.03783 0.23434 0.39092 0.0
C2528 C 0.04984 0.19887 0.42286 0.0
H2529 H 0.05268 0.15199 0.41753 0.0
C2530 C 0.0452 0.20024 0.44127 0.0
C2531 C 0.05271 0.18137 0.41415 0.0
C2532 C 0.05818 0.17937 0.3946 0.0
C2533 C 0.04333 0.1846 0.45128 0.0
C2534 C 0.0458 0.16697 0.44244 0.0
C2535 C 0.05061 0.16553 0.42409 0.0
C2536 C 0.04387 0.1502 0.45261 0.0
C2537 C 0.03893 0.18714 0.47134 0.0
C2538 C 0.05872 0.14339 0.45976 0.0
C2539 C 0.05744 0.13006 0.47257 0.0
C2540 C 0.04131 0.12348 0.47842 0.0
C2541 C 0.02627 0.12941 0.47022 0.0
C2542 C 0.02753 0.14262 0.45733 0.0
H2543 H 0.04123 0.20236 0.4775 0.0
H2544 H 0.0249 0.18096 0.47101 0.0
H2545 H 0.04682 0.17968 0.481 0.0
H2546 H 0.07143 0.14918 0.45628 0.0
H2547 H 0.06923 0.12572 0.47871 0.0
H2548 H 0.60559 0.25251 0.16842 0.0
H2549 H 0.63702 0.25705 0.17946 0.0
H2550 H 0.62811 0.26449 0.23816 0.0
H2551 H 0.59654 0.25991 0.22726 0.0
H2552 H 0.65905 0.28973 0.20416 0.0
H2553 H 0.65748 0.22151 0.23412 0.0
H2554 H 0.63968 0.22562 0.21727 0.0
H2555 H 0.64263 0.23596 0.24191 0.0
C2556 C 0.61029 0.25507 0.18369 0.0
C2557 C 0.59862 0.25577 0.197 0.0
C2558 C 0.62823 0.2577 0.18994 0.0
C2559 C 0.63476 0.26092 0.20957 0.0
C2560 C 0.62321 0.26178 0.22293 0.0
H2561 H 0.74115 0.2994 0.26668 0.0
H2562 H 0.71029 0.29656 0.254 0.0
C2563 C 0.60523 0.25922 0.21669 0.0
C2564 C 0.65372 0.26348 0.21598 0.0
H2565 H 0.68478 0.24274 0.23878 0.0
C2566 C 0.66473 0.27949 0.21174 0.0
C2567 C 0.66095 0.24993 0.22564 0.0
C2568 C 0.64964 0.23219 0.22992 0.0
C2569 C 0.68291 0.28244 0.21714 0.0
C2570 C 0.69011 0.26906 0.22709 0.0
C2571 C 0.67912 0.25295 0.23116 0.0
C2572 C 0.70905 0.27159 0.23365 0.0
C2573 C 0.6943 0.29969 0.21199 0.0
C2574 C 0.71849 0.25841 0.22639 0.0
C2575 C 0.73618 0.26004 0.23352 0.0
C2576 C 0.74465 0.27482 0.24809 0.0
C2577 C 0.73516 0.28812 0.25515 0.0
C2578 C 0.71749 0.2865 0.24798 0.0
H2579 H 0.68717 0.30623 0.20075 0.0
H2580 H 0.69864 0.31047 0.22493 0.0
H2581 H 0.70616 0.29593 0.20687 0.0
H2582 H 0.71208 0.24675 0.21538 0.0
H2583 H 0.74312 0.24953 0.22784 0.0
H2584 H 0.5356 0.87272 0.90093 0.0
H2585 H 0.54224 0.89778 0.92835 0.0
H2586 H 0.55581 0.85771 0.96568 0.0
H2587 H 0.54906 0.83249 0.93845 0.0
H2588 H 0.53128 0.87714 0.97787 0.0
H2589 H 0.58743 0.92727 0.9612 0.0
H2590 H 0.56972 0.92101 0.94152 0.0
H2591 H 0.58102 0.90301 0.94951 0.0
C2592 C 0.54035 0.86929 0.91488 0.0
C2593 C 0.54165 0.85054 0.91747 0.0
C2594 C 0.54422 0.88366 0.93053 0.0
C2595 C 0.54965 0.8796 0.949 0.0
C2596 C 0.55169 0.86112 0.95152 0.0
H2597 H 0.56124 0.96491 0.05203 0.0
H2598 H 0.56282 0.93458 0.03331 0.0
C2599 C 0.5478 0.84673 0.93591 0.0
C2600 C 0.55141 0.89419 0.96583 0.0
H2601 H 0.57034 0.94016 0.98338 0.0
C2602 C 0.54012 0.89077 0.97937 0.0
C2603 C 0.56302 0.91188 0.96778 0.0
C2604 C 0.57611 0.91596 0.95433 0.0
C2605 C 0.53932 0.90509 0.99407 0.0
C2606 C 0.55008 0.92312 0.99519 0.0
C2607 C 0.56209 0.92622 0.98238 0.0
C2608 C 0.54735 0.9397 1.00759 0.0
C2609 C 0.52628 0.90136 1.00762 0.0
C2610 C 0.53774 0.95212 0.99936 0.0
C2611 C 0.53684 0.96923 1.00988 0.0
C2612 C 0.54552 0.97423 0.02883 0.0
C2613 C 0.55434 0.96129 0.03748 0.0
C2614 C 0.55532 0.94408 0.02683 0.0
H2615 H 0.51944 0.88625 1.00549 0.0
H2616 H 0.53302 0.9052 0.02266 0.0
H2617 H 0.51637 0.91045 1.00544 0.0
H2618 H 0.53153 0.9489 0.98451 0.0
H2619 H 0.53006 0.97897 1.0028 0.0
H2620 H 1.00303 0.74656 0.70566 0.0
H2621 H 0.97858 0.75298 0.72157 0.0
H2622 H 0.01469 0.78226 0.77133 0.0
H2623 H 0.0393 0.77584 0.75569 0.0
H2624 H 0.98337 0.75745 0.77903 0.0
H2625 H 0.96955 0.80847 0.72859 0.0
H2626 H 0.97059 0.78517 0.7175 0.0
H2627 H 0.98992 0.80005 0.73144 0.0
C2628 C 1.00583 0.75416 0.72008 0.0
C2629 C 0.02318 0.76091 0.72927 0.0
C2630 C 0.99182 0.75785 0.72911 0.0
C2631 C 0.99491 0.76835 0.74745 0.0
C2632 C 1.0121 0.77422 0.75711 0.0
H2633 H 0.92061 0.82845 0.79514 0.0
H2634 H 0.9475 0.81967 0.78637 0.0
C2635 C 0.02613 0.77056 0.7481 0.0
C2636 C 0.98027 0.77423 0.75604 0.0
H2637 H 0.94929 0.80153 0.74986 0.0
C2638 C 0.97592 0.76712 0.77273 0.0
C2639 C 0.97084 0.7871 0.74791 0.0
C2640 C 0.9755 0.79581 0.73047 0.0
C2641 C 0.96197 0.77219 0.78124 0.0
C2642 C 0.95217 0.78456 0.77272 0.0
C2643 C 0.95682 0.79201 0.75631 0.0
C2644 C 0.93663 0.78956 0.78012 0.0
C2645 C 0.95788 0.76439 0.79931 0.0
C2646 C 0.92171 0.77549 0.77959 0.0
C2647 C 0.90632 0.78046 0.78443 0.0
C2648 C 0.90556 0.79962 0.78981 0.0
C2649 C 0.92072 0.81361 0.79086 0.0
C2650 C 0.9361 0.80862 0.78597 0.0
H2651 H 0.96917 0.75927 0.80667 0.0
H2652 H 0.9542 0.77533 0.80941 0.0
H2653 H 0.94666 0.75222 0.79561 0.0
H2654 H 0.92174 0.76075 0.77469 0.0
H2655 H 0.8948 0.76936 0.78311 0.0
H2656 H 0.10714 0.04009 0.84674 0.0
H2657 H 0.09041 0.03322 0.87279 0.0
H2658 H 0.13829 0.04553 0.9132 0.0
H2659 H 0.15507 0.05226 0.88746 0.0
H2660 H 0.11645 1.01161 0.91687 0.0
H2661 H 0.08013 0.07095 0.91554 0.0
H2662 H 0.07813 0.05612 0.893 0.0
H2663 H 0.09902 0.07038 0.90369 0.0
C2664 C 0.11411 0.0415 0.86119 0.0
C2665 C 0.1325 0.04675 0.8649 0.0
C2666 C 0.10451 0.03761 0.87609 0.0
C2667 C 0.11308 0.03898 0.895 0.0
C2668 C 0.13138 0.04435 0.89874 0.0
H2669 H 0.07236 0.04585 1.00221 0.0
H2670 H 0.08811 0.05054 0.97513 0.0
C2671 C 0.14096 0.04824 0.88393 0.0
C2672 C 0.10319 0.03447 0.91096 0.0
H2673 H 0.0731 0.0489 0.93688 0.0
C2674 C 0.10691 0.01972 0.92121 0.0
C2675 C 0.0909 0.04517 0.91675 0.0
C2676 C 0.08686 0.06165 0.90682 0.0
C2677 C 0.09871 0.01541 0.93706 0.0
C2678 C 0.08629 0.02599 0.94273 0.0
C2679 C 0.08255 0.04072 0.93247 0.0
C2680 C 0.07743 0.02247 0.95964 0.0
C2681 C 0.10378 0.99991 0.94794 0.0
C2682 C 0.0663 1.00503 0.9601 0.0
C2683 C 0.05731 1.00227 0.97567 0.0
C2684 C 0.05924 0.01694 0.99101 0.0
C2685 C 0.07067 0.03422 0.99069 0.0
C2686 C 0.07961 0.03697 0.97515 0.0
H2687 H 0.11627 0.99621 0.94457 0.0
H2688 H 0.10513 1.00423 0.96363 0.0
H2689 H 0.09338 0.98695 0.94395 0.0
H2690 H 0.0642 0.99372 0.94819 0.0
H2691 H 0.0485 0.98885 0.97545 0.0
H2692 H 0.75382 0.33645 0.52229 0.0
H2693 H 0.76354 0.32492 0.55219 0.0
H2694 H 0.78248 0.38265 0.57952 0.0
H2695 H 0.77261 0.39435 0.54975 0.0
H2696 H 0.79787 0.33186 0.57325 0.0
H2697 H 0.75059 0.35895 0.61562 0.0
H2698 H 0.7479 0.3571 0.58982 0.0
H2699 H 0.7635 0.37627 0.60431 0.0
C2700 C 0.75999 0.3467 0.53468 0.0
C2701 C 0.76237 0.3663 0.53372 0.0
C2702 C 0.76556 0.34009 0.55171 0.0
C2703 C 0.77354 0.35296 0.56805 0.0
C2704 C 0.77608 0.37253 0.56712 0.0
H2705 H 0.80814 0.33093 0.68396 0.0
H2706 H 0.80386 0.34664 0.65534 0.0
C2707 C 0.77049 0.37916 0.55009 0.0
C2708 C 0.77929 0.34579 0.58601 0.0
H2709 H 0.77136 0.34402 0.63187 0.0
C2710 C 0.79213 0.33455 0.5861 0.0
C2711 C 0.77181 0.34945 0.60273 0.0
C2712 C 0.75758 0.36097 0.60318 0.0
C2713 C 0.79761 0.3267 0.60249 0.0
C2714 C 0.78982 0.32998 0.61905 0.0
C2715 C 0.77731 0.34161 0.61912 0.0
C2716 C 0.79362 0.32052 0.63606 0.0
C2717 C 0.81166 0.31496 0.60197 0.0
C2718 C 0.78921 0.30067 0.63462 0.0
C2719 C 0.7915 0.29169 0.65089 0.0
C2720 C 0.79818 0.30242 0.66893 0.0
C2721 C 0.80281 0.32231 0.67028 0.0
C2722 C 0.80047 0.33129 0.65397 0.0
H2723 H 0.81964 0.31825 0.59055 0.0
H2724 H 0.82047 0.31738 0.61595 0.0
H2725 H 0.80543 0.29968 0.59895 0.0
H2726 H 0.78351 0.29216 0.62097 0.0
H2727 H 0.78748 0.27639 0.64942 0.0
H2728 H 0.46046 0.05064 0.32405 0.0
H2729 H 0.47825 0.04855 0.35481 0.0
H2730 H 0.43254 0.04594 0.38242 0.0
H2731 H 0.41487 0.04784 0.35208 0.0
H2732 H 0.48724 0.06962 0.39031 0.0
H2733 H 0.44866 1.00108 0.40144 0.0
H2734 H 0.44563 1.01044 0.379 0.0
H2735 H 0.43554 0.01882 0.39875 0.0
C2736 C 0.45413 0.04974 0.33664 0.0
C2737 C 0.43591 0.04944 0.33501 0.0
C2738 C 0.46442 0.04846 0.35446 0.0
C2739 C 0.45698 0.04655 0.37146 0.0
C2740 C 0.43891 0.04676 0.36986 0.0
H2741 H 0.49832 0.03369 0.49368 0.0
H2742 H 0.47952 0.03698 0.46384 0.0
C2743 C 0.4287 0.0481 0.35221 0.0
C2744 C 0.46789 0.04463 0.39072 0.0
H2745 H 0.46952 0.01759 0.42797 0.0
C2746 C 0.4833 0.05811 0.39836 0.0
C2747 C 0.46313 0.02983 0.40194 0.0
C2748 C 0.44745 1.01411 0.39482 0.0
C2749 C 0.49354 0.05747 0.4164 0.0
C2750 C 0.4889 0.04256 0.42754 0.0
C2751 C 0.47343 0.02914 0.41995 0.0
C2752 C 0.50025 0.04031 0.44642 0.0
C2753 C 0.50906 0.07339 0.42357 0.0
C2754 C 0.51833 0.04057 0.44729 0.0
C2755 C 0.52904 0.03874 0.46438 0.0
C2756 C 0.52237 0.03625 0.48169 0.0
C2757 C 0.50418 0.03558 0.48093 0.0
C2758 C 0.49335 0.03748 0.46364 0.0
H2759 H 0.50732 0.08659 0.41751 0.0
H2760 H 0.51124 0.0766 0.43945 0.0
H2761 H 0.52095 0.06923 0.41896 0.0
H2762 H 0.52433 0.042 0.43454 0.0
H2763 H 0.54282 0.03916 0.46392 0.0
H2764 H 0.79202 0.71457 0.06807 0.0
H2765 H 0.79632 0.72986 0.10134 0.0
H2766 H 0.77313 0.67689 0.11854 0.0
H2767 H 0.76909 0.66145 0.08542 0.0
H2768 H 0.772 0.7347 0.12425 0.0
H2769 H 0.81715 0.69266 0.1577 0.0
H2770 H 0.81233 0.69212 0.13208 0.0
H2771 H 0.79734 0.67812 0.1445 0.0
C2772 C 0.78803 0.7061 0.07897 0.0
C2773 C 0.7803 0.68673 0.07406 0.0
C2774 C 0.79045 0.71489 0.098 0.0
C2775 C 0.78528 0.70451 0.11258 0.0
C2776 C 0.77762 0.68514 0.1077 0.0
H2777 H 0.76248 0.74914 0.22328 0.0
H2778 H 0.76139 0.73577 0.18993 0.0
C2779 C 0.77524 0.67634 0.08869 0.0
C2780 C 0.78718 0.7141 0.13268 0.0
H2781 H 0.80421 0.71184 0.17903 0.0
C2782 C 0.77914 0.72976 0.13621 0.0
C2783 C 0.79669 0.70788 0.14833 0.0
C2784 C 0.80653 0.6919 0.14548 0.0
C2785 C 0.77998 0.73904 0.1549 0.0
C2786 C 0.78884 0.73228 0.17063 0.0
C2787 C 0.79725 0.71692 0.16705 0.0
C2788 C 0.7895 0.74087 0.19088 0.0
C2789 C 0.77158 0.75618 0.15756 0.0
C2790 C 0.80565 0.74789 0.20278 0.0
C2791 C 0.80633 0.75543 0.22197 0.0
C2792 C 0.79084 0.75607 0.22976 0.0
C2793 C 0.77468 0.74907 0.21779 0.0
C2794 C 0.77402 0.74148 0.19862 0.0
H2795 H 0.77005 0.76282 0.14422 0.0
H2796 H 0.75834 0.75171 0.16134 0.0
H2797 H 0.77938 0.76704 0.16928 0.0
H2798 H 0.81778 0.74752 0.1972 0.0
H2799 H 0.81902 0.76063 0.23071 0.0
H2800 H 0.0975 0.02723 0.75869 0.0
H2801 H 0.08411 0.02226 0.7249 0.0
H2802 H 0.13391 0.0455 0.70926 0.0
H2803 H 0.14742 0.05006 0.74284 0.0
H2804 H 0.08076 0.04778 0.70049 0.0
H2805 H 0.11946 0.99738 0.67176 0.0
H2806 H 0.11955 1.00332 0.69711 0.0
H2807 H 0.13306 0.01888 0.68452 0.0
C2808 C 0.10563 0.03109 0.74802 0.0
C2809 C 0.12356 0.03893 0.75347 0.0
C2810 C 0.09795 0.02828 0.72871 0.0
C2811 C 0.10804 0.0332 0.71443 0.0
C2812 C 0.12592 0.0411 0.71988 0.0
H2813 H 0.06966 0.05726 0.6011 0.0
H2814 H 0.08189 0.05861 0.63478 0.0
C2815 C 0.13362 0.04382 0.73915 0.0
C2816 C 0.09974 0.03088 0.69397 0.0
H2817 H 0.10311 1.01182 0.64871 0.0
C2818 C 0.08557 0.03979 0.68919 0.0
C2819 C 0.10581 0.02023 0.6792 0.0
C2820 C 0.12018 1.00924 0.6834 0.0
C2821 C 0.07763 0.03878 0.67008 0.0
C2822 C 0.08428 0.02894 0.65521 0.0
C2823 C 0.09814 0.01959 0.66003 0.0
C2824 C 0.07703 0.02812 0.63459 0.0
C2825 C 0.062 0.04803 0.66605 0.0
C2826 C 0.07076 1.01053 0.623 0.0
C2827 C 0.06394 1.00969 0.60363 0.0
C2828 C 0.06325 0.02646 0.59538 0.0
C2829 C 0.06979 0.04406 0.60696 0.0
C2830 C 0.0767 0.04487 0.62631 0.0
H2831 H 0.05541 0.04978 0.67885 0.0
H2832 H 0.06643 0.06237 0.66215 0.0
H2833 H 0.0523 0.03959 0.654 0.0
H2834 H 0.07098 0.9974 0.629 0.0
H2835 H 0.0591 0.99587 0.59518 0.0
H2836 H 0.71419 0.38338 0.41052 0.0
H2837 H 0.71058 0.36277 0.37997 0.0
H2838 H 0.73219 0.32091 0.40922 0.0
H2839 H 0.73515 0.34086 0.43961 0.0
H2840 H 0.73628 0.35471 0.36438 0.0
H2841 H 0.69631 0.2861 0.3711 0.0
H2842 H 0.69679 0.3072 0.38755 0.0
H2843 H 0.7128 0.29242 0.39187 0.0
C2844 C 0.71767 0.36953 0.4105 0.0
C2845 C 0.72512 0.36388 0.42753 0.0
C2846 C 0.71557 0.35775 0.39301 0.0
C2847 C 0.72088 0.34014 0.39225 0.0
C2848 C 0.72745 0.33411 0.40939 0.0
H2849 H 0.78772 0.29512 0.32998 0.0
H2850 H 0.77056 0.31319 0.34848 0.0
C2851 C 0.72937 0.34573 0.42683 0.0
C2852 C 0.7226 0.32954 0.37372 0.0
H2853 H 0.72096 0.28432 0.35265 0.0
C2854 C 0.73242 0.33936 0.3615 0.0
C2855 C 0.71722 0.30955 0.36949 0.0
C2856 C 0.70501 0.29831 0.38063 0.0
C2857 C 0.73863 0.32958 0.34656 0.0
C2858 C 0.73537 0.30951 0.34416 0.0
C2859 C 0.72392 0.29973 0.3549 0.0
C2860 C 0.74545 0.29866 0.33246 0.0
C2861 C 0.74927 0.34085 0.33402 0.0
C2862 C 0.737 0.28403 0.31777 0.0
C2863 C 0.74682 0.27359 0.30727 0.0
C2864 C 0.7652 0.27766 0.31141 0.0
C2865 C 0.77358 0.292 0.32633 0.0
C2866 C 0.7638 0.30237 0.33681 0.0
H2867 H 0.74513 0.35465 0.33274 0.0
H2868 H 0.76327 0.34397 0.34058 0.0
H2869 H 0.748 0.33289 0.31945 0.0
H2870 H 0.72285 0.28082 0.31434 0.0
H2871 H 0.74009 0.2626 0.29574 0.0
H2872 H 0.41661 0.0333 0.20156 0.0
H2873 H 0.43135 0.02979 0.17322 0.0
H2874 H 0.48076 0.05548 0.20799 0.0
H2875 H 0.46614 0.05867 0.23623 0.0
H2876 H 0.44918 0.0513 0.15165 0.0
H2877 H 0.49736 1.01202 0.18309 0.0
H2878 H 0.47938 0.01681 0.1949 0.0
H2879 H 0.49897 0.03471 0.19697 0.0
C2880 C 0.43063 0.03826 0.20331 0.0
C2881 C 0.4399 0.0463 0.22177 0.0
C2882 C 0.43922 0.03621 0.18682 0.0
C2883 C 0.45763 0.04184 0.1878 0.0
C2884 C 0.46678 0.05025 0.2062 0.0
H2885 H 0.53612 0.041 0.10621 0.0
H2886 H 0.52033 0.04436 0.13353 0.0
C2887 C 0.45822 0.05233 0.22264 0.0
C2888 C 0.46706 0.0392 0.16987 0.0
H2889 H 0.50233 0.02319 0.15372 0.0
C2890 C 0.46073 0.045 0.15227 0.0
C2891 C 0.48237 0.03102 0.16978 0.0
C2892 C 0.48984 0.0231 0.18711 0.0
C2893 C 0.46915 0.04347 0.13554 0.0
C2894 C 0.48451 0.03535 0.13548 0.0
C2895 C 0.49077 0.02948 0.15306 0.0
C2896 C 0.49434 0.0331 0.1178 0.0
C2897 C 0.46171 0.0514 0.11821 0.0
C2898 C 0.48571 0.0253 0.09897 0.0
C2899 C 0.49492 0.02336 0.08297 0.0
C2900 C 0.51339 0.02893 0.08481 0.0
C2901 C 0.52202 0.03645 0.10366 0.0
C2902 C 0.51282 0.03839 0.11962 0.0
H2903 H 0.454 0.06232 0.12219 0.0
H2904 H 0.4722 0.05791 0.11058 0.0
H2905 H 0.45277 0.03975 0.10822 0.0
H2906 H 0.47168 0.02035 0.09651 0.0
H2907 H 0.48746 0.01737 0.06904 0.0
H2908 H 0.77208 0.70529 0.98026 0.0
H2909 H 0.77516 0.72456 0.95418 0.0
H2910 H 0.77218 0.67395 0.91456 0.0
H2911 H 0.76859 0.6546 0.94032 0.0
H2912 H 0.79931 0.73069 0.93211 0.0
H2913 H 0.73732 0.69777 0.88468 0.0
H2914 H 0.74189 0.69304 0.90904 0.0
H2915 H 0.75028 0.68042 0.89014 0.0
C2916 C 0.77198 0.69821 0.96599 0.0
C2917 C 0.76997 0.67828 0.96251 0.0
C2918 C 0.77374 0.70929 0.95102 0.0
C2919 C 0.77353 0.70079 0.93216 0.0
C2920 C 0.77184 0.68094 0.92875 0.0
H2921 H 0.8194 0.75429 0.8428 0.0
H2922 H 0.8122 0.73746 0.86948 0.0
C2923 C 0.76994 0.66984 0.94364 0.0
C2924 C 0.77583 0.71267 0.91627 0.0
H2925 H 0.75892 0.71683 0.87026 0.0
C2926 C 0.79035 0.72771 0.91868 0.0
C2927 C 0.76403 0.70921 0.89874 0.0
C2928 C 0.74741 0.69437 0.89555 0.0
C2929 C 0.79373 0.73881 0.90398 0.0
C2930 C 0.78257 0.73454 0.88601 0.0
C2931 C 0.76767 0.72 0.88383 0.0
C2932 C 0.78655 0.74453 0.8692 0.0
C2933 C 0.80921 0.75517 0.90799 0.0
C2934 C 0.77429 0.75358 0.85938 0.0
C2935 C 0.77835 0.76312 0.84379 0.0
C2936 C 0.79472 0.76373 0.83769 0.0
C2937 C 0.80676 0.75433 0.84727 0.0
C2938 C 0.80269 0.74477 0.86268 0.0
H2939 H 0.81262 0.76049 0.92356 0.0
H2940 H 0.82076 0.75026 0.90327 0.0
H2941 H 0.80662 0.76714 0.90023 0.0
H2942 H 0.76167 0.7535 0.86394 0.0
H2943 H 0.7688 0.77021 0.83671 0.0
H2944 H 0.89264 0.19304 0.05556 0.0
H2945 H 0.92118 0.18759 0.04877 0.0
H2946 H 0.89612 0.15162 0.99629 0.0
H2947 H 0.86789 0.15741 1.00258 0.0
H2948 H 0.92685 0.15353 0.04939 0.0
H2949 H 0.94109 0.17272 0.97986 0.0
H2950 H 0.92537 0.18269 0.99211 0.0
H2951 H 0.91885 0.16028 0.97655 0.0
C2952 C 0.89329 0.18454 0.04223 0.0
C2953 C 0.87793 0.17531 0.02983 0.0
C2954 C 0.90964 0.18151 0.03833 0.0
C2955 C 0.91087 0.16927 0.02196 0.0
C2956 C 0.89568 0.16148 1.00877 0.0
H2957 H 0.94214 0.07184 0.98987 0.0
H2958 H 0.9334 0.10281 0.99151 0.0
C2959 C 0.87941 0.16457 0.01259 0.0
C2960 C 0.92667 0.16091 0.02082 0.0
H2961 H 0.94898 0.14214 0.98782 0.0
C2962 C 0.93222 0.15165 0.03618 0.0
C2963 C 0.93376 0.15847 1.00363 0.0
C2964 C 0.92954 0.16929 0.98723 0.0
C2965 C 0.94297 0.1383 0.03407 0.0
C2966 C 0.94855 0.13439 0.01618 0.0
C2967 C 0.94447 0.14501 1.00142 0.0
C2968 C 0.95608 0.11737 1.01186 0.0
C2969 C 0.94688 0.12722 0.05042 0.0
C2970 C 0.97204 0.11558 0.02215 0.0
C2971 C 0.97688 0.09787 0.02148 0.0
C2972 C 0.96596 0.08179 1.01025 0.0
C2973 C 0.95074 0.08399 0.99867 0.0
C2974 C 0.9458 0.10167 0.99953 0.0
H2975 H 0.93967 0.1304 0.06243 0.0
H2976 H 0.94338 0.11171 0.04538 0.0
H2977 H 0.96109 0.13083 0.05606 0.0
H2978 H 0.98025 0.12761 0.03152 0.0
H2979 H 0.9889 0.09663 0.03022 0.0
H2980 H 0.36239 0.43706 0.08324 0.0
H2981 H 0.39307 0.45265 0.08586 0.0
H2982 H 0.39683 0.41883 0.03305 0.0
H2983 H 0.36705 0.40123 0.03238 0.0
H2984 H 0.42526 0.42268 0.05209 0.0
H2985 H 0.41197 0.49535 0.06342 0.0
H2986 H 0.40994 0.48434 0.0846 0.0
H2987 H 0.39497 0.47508 0.06291 0.0
C2988 C 0.36984 0.43305 0.07221 0.0
C2989 C 0.36217 0.41844 0.05719 0.0
C2990 C 0.3874 0.44215 0.07354 0.0
C2991 C 0.39738 0.43785 0.05912 0.0
C2992 C 0.38965 0.42284 0.04433 0.0
H2993 H 0.49751 0.48578 0.0248 0.0
H2994 H 0.46931 0.46592 0.02732 0.0
C2995 C 0.37248 0.41288 0.04375 0.0
C2996 C 0.41587 0.44846 0.05946 0.0
H2997 H 0.44196 0.49282 0.06572 0.0
C2998 C 0.42872 0.43805 0.05489 0.0
C2999 C 0.421 0.46862 0.06362 0.0
C3000 C 0.40868 0.48146 0.06876 0.0
C3001 C 0.44607 0.44699 0.05412 0.0
C3002 C 0.45089 0.46705 0.05776 0.0
C3003 C 0.43831 0.47745 0.06276 0.0
C3004 C 0.46883 0.47775 0.05657 0.0
C3005 C 0.45916 0.43478 0.04981 0.0
C3006 C 0.47802 0.49122 0.07203 0.0
C3007 C 0.49397 0.50275 0.07048 0.0
C3008 C 0.5012 0.50113 0.05346 0.0
C3009 C 0.49234 0.48728 0.03816 0.0
C3010 C 0.47624 0.47582 0.03964 0.0
H3011 H 0.45512 0.42016 0.05326 0.0
H3012 H 0.46006 0.43369 0.0343 0.0
H3013 H 0.47236 0.44101 0.05799 0.0
H3014 H 0.47268 0.49308 0.08524 0.0
H3015 H 0.50049 0.51324 0.08255 0.0
H3016 H 0.43001 0.56071 0.74223 0.0
H3017 H 0.42111 0.59056 0.73536 0.0
H3018 H 0.39973 0.59451 0.78816 0.0
H3019 H 0.40843 0.5649 0.79501 0.0
H3020 H 0.3851 0.5937 0.7316 0.0
H3021 H 0.42583 0.64929 0.78748 0.0
H3022 H 0.43207 0.62687 0.78068 0.0
H3023 H 0.41648 0.62838 0.79688 0.0
C3024 C 0.42388 0.56828 0.75261 0.0
C3025 C 0.41987 0.56049 0.76913 0.0
C3026 C 0.41874 0.58525 0.74864 0.0
C3027 C 0.40991 0.59483 0.76135 0.0
C3028 C 0.4068 0.58756 0.77833 0.0
H3029 H 0.32802 0.65662 0.75206 0.0
H3030 H 0.34771 0.63404 0.75512 0.0
C3031 C 0.41169 0.57056 0.78216 0.0
C3032 C 0.40188 0.61097 0.75604 0.0
H3033 H 0.39845 0.65606 0.77308 0.0
C3034 C 0.38826 0.60748 0.74042 0.0
C3035 C 0.40604 0.62894 0.76753 0.0
C3036 C 0.42102 0.6337 0.78398 0.0
C3037 C 0.37802 0.6211 0.73667 0.0
C3038 C 0.38144 0.63858 0.74893 0.0
C3039 C 0.39573 0.64254 0.76384 0.0
C3040 C 0.36969 0.65242 0.74713 0.0
C3041 C 0.36331 0.61653 0.71991 0.0
C3042 C 0.37567 0.67036 0.74198 0.0
C3043 C 0.36444 0.68331 0.74023 0.0
C3044 C 0.34712 0.67861 0.74385 0.0
C3045 C 0.3413 0.66071 0.74931 0.0
C3046 C 0.35248 0.64774 0.7509 0.0
H3047 H 0.36509 0.60483 0.70927 0.0
H3048 H 0.35075 0.61197 0.72518 0.0
H3049 H 0.36231 0.62922 0.71264 0.0
H3050 H 0.38896 0.67427 0.73917 0.0
H3051 H 0.36936 0.69707 0.73623 0.0
H3052 H 0.27852 0.67243 0.57438 0.0
H3053 H 0.25287 0.65126 0.58119 0.0
H3054 H 0.28533 0.61192 0.59876 0.0
H3055 H 0.31097 0.63292 0.59105 0.0
H3056 H 0.25772 0.59329 0.5768 0.0
H3057 H 0.23515 0.64108 0.62924 0.0
H3058 H 0.23747 0.65266 0.60848 0.0
H3059 H 0.25646 0.64698 0.62215 0.0
C3060 C 0.28011 0.65928 0.57978 0.0
C3061 C 0.29645 0.65393 0.58173 0.0
C3062 C 0.26554 0.64732 0.58395 0.0
C3063 C 0.2672 0.63017 0.59095 0.0
C3064 C 0.28374 0.62512 0.59351 0.0
H3065 H 0.16519 0.57066 0.61031 0.0
H3066 H 0.19672 0.58295 0.61689 0.0
C3067 C 0.29831 0.63699 0.58899 0.0
C3068 C 0.25131 0.61692 0.59378 0.0
H3069 H 0.21211 0.61652 0.60941 0.0
C3070 C 0.24785 0.59831 0.58409 0.0
C3071 C 0.23869 0.62304 0.60415 0.0
C3072 C 0.24227 0.64197 0.61677 0.0
C3073 C 0.23143 0.58644 0.58269 0.0
C3074 C 0.21814 0.59344 0.59115 0.0
C3075 C 0.22216 0.61131 0.60248 0.0
C3076 C 0.19966 0.58335 0.5871 0.0
C3077 C 0.22838 0.56673 0.5717 0.0
C3078 C 0.19089 0.57926 0.56814 0.0
C3079 C 0.17291 0.57205 0.5643 0.0
C3080 C 0.16331 0.569 0.57938 0.0
C3081 C 0.17223 0.57258 0.59834 0.0
C3082 C 0.19023 0.57972 0.60215 0.0
H3083 H 0.24074 0.56119 0.57239 0.0
H3084 H 0.2185 0.55666 0.57728 0.0
H3085 H 0.22362 0.56727 0.5564 0.0
H3086 H 0.19782 0.58237 0.55631 0.0
H3087 H 0.16646 0.56928 0.54955 0.0
H3088 H 0.68128 0.95103 0.77174 0.0
H3089 H 0.69484 0.92282 0.76888 0.0
H3090 H 0.72077 0.93834 0.82722 0.0
H3091 H 0.70795 0.96666 0.82975 0.0
H3092 H 0.74293 0.92534 0.81213 0.0
H3093 H 0.68505 0.87095 0.77943 0.0
H3094 H 0.68919 0.88931 0.76467 0.0
H3095 H 0.6832 0.89482 0.788 0.0
C3096 C 0.68963 0.94838 0.78413 0.0
C3097 C 0.69302 0.9617 0.8011 0.0
C3098 C 0.69751 0.93183 0.78254 0.0
C3099 C 0.70904 0.92733 0.79791 0.0
C3100 C 0.71221 0.94065 0.81482 0.0
H3101 H 0.73978 0.81173 0.79955 0.0
H3102 H 0.72505 0.83909 0.8009 0.0
C3103 C 0.70457 0.95718 0.81633 0.0
C3104 C 0.71827 0.90963 0.79663 0.0
H3105 H 0.71247 0.86137 0.78041 0.0
C3106 C 0.736 0.91144 0.80516 0.0
C3107 C 0.70993 0.89074 0.78796 0.0
C3108 C 0.69076 0.88622 0.77968 0.0
C3109 C 0.7452 0.89589 0.80522 0.0
C3110 C 0.73711 0.87719 0.79582 0.0
C3111 C 0.71932 0.87528 0.78748 0.0
C3112 C 0.74658 0.85968 0.79487 0.0
C3113 C 0.7635 0.89982 0.81628 0.0
C3114 C 0.76393 0.86085 0.79072 0.0
C3115 C 0.7726 0.84498 0.79023 0.0
C3116 C 0.76444 0.82667 0.79344 0.0
C3117 C 0.74694 0.82528 0.7971 0.0
C3118 C 0.73832 0.84124 0.7978 0.0
H3119 H 0.7655 0.91207 0.82781 0.0
H3120 H 0.76642 0.88732 0.82294 0.0
H3121 H 0.77303 0.90351 0.80644 0.0
H3122 H 0.77093 0.87412 0.78749 0.0
H3123 H 0.78584 0.84711 0.787 0.0
H3124 H 0.7773 0.94829 0.54104 0.0
H3125 H 0.74913 0.95752 0.54091 0.0
H3126 H 0.72963 0.90706 0.56477 0.0
H3127 H 0.75827 0.89756 0.56513 0.0
H3128 H 0.71683 0.93768 0.52128 0.0
H3129 H 0.71593 0.94986 0.59983 0.0
H3130 H 0.73576 0.94814 0.59008 0.0
H3131 H 0.71964 0.92713 0.59002 0.0
C3132 C 0.76715 0.93902 0.54634 0.0
C3133 C 0.77022 0.92205 0.55306 0.0
C3134 C 0.75094 0.9444 0.54624 0.0
C3135 C 0.73721 0.93312 0.55292 0.0
C3136 C 0.74009 0.91618 0.55978 0.0
H3137 H 0.63313 0.96319 0.55775 0.0
H3138 H 0.65731 0.94578 0.56 0.0
C3139 C 0.75646 0.91071 0.55989 0.0
C3140 C 0.71994 0.93922 0.55199 0.0
H3141 H 0.69237 0.95689 0.5796 0.0
C3142 C 0.71141 0.94169 0.53404 0.0
C3143 C 0.71274 0.9444 0.5686 0.0
C3144 C 0.72147 0.94241 0.58828 0.0
C3145 C 0.69627 0.94963 0.53227 0.0
C3146 C 0.68953 0.95564 0.54893 0.0
C3147 C 0.69757 0.95241 0.56683 0.0
C3148 C 0.67483 0.96628 0.54802 0.0
C3149 C 0.68769 0.95163 0.51251 0.0
C3150 C 0.67665 0.98377 0.54084 0.0
C3151 C 0.66287 0.9937 0.53947 0.0
C3152 C 0.64686 0.9865 0.54537 0.0
C3153 C 0.64515 0.96909 0.55286 0.0
C3154 C 0.65902 0.95916 0.55427 0.0
H3155 H 0.69102 0.94144 0.50133 0.0
H3156 H 0.67323 0.94929 0.51152 0.0
H3157 H 0.69242 0.9662 0.50935 0.0
H3158 H 0.68879 0.98976 0.5362 0.0
H3159 H 0.6647 1.0069 0.53342 0.0
H3160 H 0.38837 0.46399 0.74879 0.0
H3161 H 0.36968 0.43329 0.75004 0.0
H3162 H 0.41227 0.41711 0.78518 0.0
H3163 H 0.43038 0.44858 0.78529 0.0
H3164 H 0.37146 0.39815 0.73855 0.0
H3165 H 0.37513 0.40692 0.81721 0.0
H3166 H 0.38989 0.42261 0.80615 0.0
H3167 H 0.39452 0.39999 0.81057 0.0
C3168 C 0.39348 0.45409 0.75732 0.0
C3169 C 0.41035 0.45907 0.76799 0.0
C3170 C 0.38293 0.4364 0.75776 0.0
C3171 C 0.38926 0.42302 0.76835 0.0
C3172 C 0.40674 0.42742 0.77763 0.0
H3173 H 0.32992 0.31846 0.79725 0.0
H3174 H 0.35335 0.34388 0.79309 0.0
C3175 C 0.41712 0.44535 0.77761 0.0
C3176 C 0.37748 0.40455 0.7693 0.0
H3177 H 0.35829 0.3775 0.80008 0.0
C3178 C 0.36862 0.3936 0.75203 0.0
C3179 C 0.37416 0.39804 0.78683 0.0
C3180 C 0.3839 0.40764 0.80616 0.0
C3181 C 0.35641 0.37671 0.75177 0.0
C3182 C 0.35202 0.3711 0.76931 0.0
C3183 C 0.36127 0.38176 0.78654 0.0
C3184 C 0.33802 0.35435 0.77037 0.0
C3185 C 0.34887 0.36489 0.73264 0.0
C3186 C 0.32141 0.35135 0.75901 0.0
C3187 C 0.30829 0.3359 0.76055 0.0
C3188 C 0.31125 0.32357 0.77405 0.0
C3189 C 0.32749 0.32712 0.78607 0.0
C3190 C 0.34084 0.34197 0.78392 0.0
H3191 H 0.35821 0.36682 0.72224 0.0
H3192 H 0.34559 0.34953 0.73393 0.0
H3193 H 0.33685 0.36959 0.72659 0.0
H3194 H 0.31839 0.36111 0.74913 0.0
H3195 H 0.29573 0.33383 0.75143 0.0
H3196 H 0.17065 0.58086 0.31175 0.0
H3197 H 0.18631 0.61307 0.30998 0.0
H3198 H 0.22877 0.58974 0.29064 0.0
H3199 H 0.21232 0.55761 0.29078 0.0
H3200 H 0.21242 0.63678 0.32532 0.0
H3201 H 0.22758 0.62319 0.25223 0.0
H3202 H 0.2137 0.60551 0.26223 0.0
H3203 H 0.23724 0.60835 0.26731 0.0
C3204 C 0.18334 0.58256 0.30709 0.0
C3205 C 0.19033 0.56629 0.30208 0.0
C3206 C 0.19246 0.60122 0.30611 0.0
C3207 C 0.20897 0.60461 0.29981 0.0
C3208 C 0.21597 0.58824 0.29495 0.0
H3209 H 0.27338 0.72385 0.3232 0.0
H3210 H 0.25885 0.69147 0.32561 0.0
C3211 C 0.20669 0.56958 0.29559 0.0
C3212 C 0.21861 0.625 0.2985 0.0
H3213 H 0.2427 0.65233 0.27064 0.0
C3214 C 0.2189 0.64002 0.3132 0.0
C3215 C 0.22707 0.63014 0.28269 0.0
C3216 C 0.22623 0.61599 0.26515 0.0
C3217 C 0.22712 0.65924 0.31268 0.0
C3218 C 0.23642 0.66418 0.2974 0.0
C3219 C 0.23602 0.64917 0.28264 0.0
C3220 C 0.24608 0.68457 0.29603 0.0
C3221 C 0.22494 0.67413 0.32834 0.0
C3222 C 0.24508 0.69216 0.27844 0.0
C3223 C 0.25407 0.71073 0.2769 0.0
C3224 C 0.26436 0.72287 0.29292 0.0
C3225 C 0.26546 0.71535 0.31049 0.0
C3226 C 0.25682 0.6966 0.31193 0.0
H3227 H 0.21285 0.66958 0.33452 0.0
H3228 H 0.23617 0.67626 0.34011 0.0
H3229 H 0.22426 0.68788 0.32299 0.0
H3230 H 0.23716 0.68374 0.26569 0.0
H3231 H 0.25274 0.71567 0.26304 0.0
H3232 H 0.5205 0.72736 0.47406 0.0
H3233 H 0.52387 0.69999 0.49051 0.0
H3234 H 0.52073 0.6655 0.43611 0.0
H3235 H 0.51643 0.69275 0.4195 0.0
H3236 H 0.50318 0.64558 0.45795 0.0
H3237 H 0.5668 0.67935 0.50181 0.0
H3238 H 0.55024 0.69269 0.5062 0.0
H3239 H 0.55675 0.69027 0.4828 0.0
C3240 C 0.52058 0.71396 0.46557 0.0
C3241 C 0.51835 0.7123 0.44545 0.0
C3242 C 0.52266 0.6983 0.47504 0.0
C3243 C 0.52309 0.68068 0.46468 0.0
C3244 C 0.5206 0.67892 0.44453 0.0
H3245 H 0.56499 0.59216 0.51885 0.0
H3246 H 0.56009 0.61895 0.50215 0.0
C3247 C 0.51817 0.69453 0.43501 0.0
C3248 C 0.52586 0.66408 0.47486 0.0
H3249 H 0.55231 0.65061 0.51094 0.0
C3250 C 0.51401 0.64666 0.46944 0.0
C3251 C 0.54013 0.66523 0.48971 0.0
C3252 C 0.55429 0.68283 0.49532 0.0
C3253 C 0.51591 0.63055 0.47848 0.0
C3254 C 0.5297 0.63198 0.49397 0.0
C3255 C 0.5416 0.64939 0.49927 0.0
C3256 C 0.53252 0.61556 0.50446 0.0
C3257 C 0.50335 0.61207 0.47079 0.0
C3258 C 0.51883 0.60469 0.51177 0.0
C3259 C 0.52154 0.58901 0.52101 0.0
C3260 C 0.53818 0.58421 0.52378 0.0
C3261 C 0.55204 0.59553 0.51716 0.0
C3262 C 0.54922 0.61089 0.50753 0.0
H3263 H 0.49769 0.6118 0.45556 0.0
H3264 H 0.50986 0.5997 0.47183 0.0
H3265 H 0.49234 0.61048 0.47915 0.0
H3266 H 0.506 0.6083 0.51028 0.0
H3267 H 0.51061 0.58065 0.52601 0.0
H3268 H 0.61397 0.30985 0.69974 0.0
H3269 H 0.64286 0.30833 0.71654 0.0
H3270 H 0.65704 0.28555 0.66346 0.0
H3271 H 0.62813 0.28697 0.64654 0.0
H3272 H 0.66346 0.26424 0.69316 0.0
H3273 H 0.69159 0.34052 0.71713 0.0
H3274 H 0.67022 0.333 0.72326 0.0
H3275 H 0.67288 0.33251 0.69849 0.0
C3276 C 0.62333 0.30484 0.69155 0.0
C3277 C 0.6187 0.2986 0.67175 0.0
C3278 C 0.63991 0.30403 0.70119 0.0
C3279 C 0.65225 0.29698 0.69127 0.0
C3280 C 0.6478 0.29112 0.67143 0.0
H3281 H 0.76048 0.297 0.74427 0.0
H3282 H 0.73499 0.30104 0.72206 0.0
C3283 C 0.63126 0.29202 0.66175 0.0
C3284 C 0.66928 0.2945 0.70182 0.0
H3285 H 0.70625 0.31829 0.73187 0.0
C3286 C 0.67287 0.27609 0.70147 0.0
C3287 C 0.68172 0.30995 0.71254 0.0
C3288 C 0.67904 0.33014 0.71278 0.0
C3289 C 0.68818 0.27266 0.71206 0.0
C3290 C 0.70024 0.288 0.72345 0.0
C3291 C 0.69698 0.30649 0.72325 0.0
C3292 C 0.71583 0.28499 0.73634 0.0
C3293 C 0.69132 0.25258 0.71101 0.0
C3294 C 0.71358 0.27465 0.75173 0.0
C3295 C 0.72806 0.2724 0.76442 0.0
C3296 C 0.74516 0.28044 0.76202 0.0
C3297 C 0.74747 0.29057 0.74644 0.0
C3298 C 0.73292 0.29294 0.73379 0.0
H3299 H 0.68352 0.24341 0.69803 0.0
H3300 H 0.70539 0.25229 0.71092 0.0
H3301 H 0.68739 0.24643 0.72377 0.0
H3302 H 0.70056 0.2686 0.75418 0.0
H3303 H 0.72585 0.26457 0.7763 0.0
H3304 H 0.01488 0.30493 0.96375 0.0
H3305 H 0.01691 0.33546 0.98362 0.0
H3306 H 0.02568 0.36469 0.93503 0.0
H3307 H 0.02322 0.33439 0.91501 0.0
H3308 H 0.04255 0.36657 0.99372 0.0
H3309 H 0.98564 0.3864 0.952 0.0
H3310 H 0.99036 0.36282 0.9485 0.0
H3311 H 1.00155 0.38154 0.93723 0.0
C3312 C 0.01725 0.31786 0.95728 0.0
C3313 C 0.01873 0.31711 0.93768 0.0
C3314 C 0.0184 0.33532 0.96867 0.0
C3315 C 0.02104 0.3524 0.96074 0.0
C3316 C 0.0231 0.35172 0.94137 0.0
H3317 H 0.06001 0.4672 0.01641 0.0
H3318 H 0.05606 0.43413 1.00233 0.0
C3319 C 0.02182 0.33432 0.92995 0.0
C3320 C 0.02183 0.37097 0.97266 0.0
H3321 H 1.00494 0.41146 0.97366 0.0
C3322 C 0.03421 0.37631 0.98944 0.0
C3323 C 1.0107 0.38358 0.96737 0.0
C3324 C 0.99619 0.37822 0.95041 0.0
C3325 C 0.03623 0.39415 1.0006 0.0
C3326 C 0.02589 0.40725 0.99458 0.0
C3327 C 1.01305 0.40159 0.97822 0.0
C3328 C 0.02851 0.42709 1.00453 0.0
C3329 C 0.04934 0.39867 0.0188 0.0
C3330 C 0.0143 0.43445 1.01024 0.0
C3331 C 0.01646 0.45357 0.01806 0.0
C3332 C 0.03291 0.46579 0.02035 0.0
C3333 C 0.04718 0.45825 0.01503 0.0
C3334 C 0.04497 0.43921 1.00707 0.0
H3335 H 0.0515 0.38552 0.02473 0.0
H3336 H 0.06209 0.406 0.01564 0.0
H3337 H 0.04502 0.40806 0.02991 0.0
H3338 H 1.00144 0.42545 1.00836 0.0
H3339 H 1.00516 0.45885 0.02195 0.0
H3340 H 0.03212 0.79213 0.18991 0.0
H3341 H 1.00744 0.79122 0.20777 0.0
H3342 H 0.97151 0.78043 0.15465 0.0
H3343 H 0.99594 0.78099 0.13671 0.0
H3344 H 0.98148 0.81266 0.20821 0.0
H3345 H 0.95176 0.73708 0.18217 0.0
H3346 H 0.97361 0.74756 0.17893 0.0
H3347 H 0.95494 0.75127 0.16327 0.0
C3348 C 0.01898 0.7896 0.18199 0.0
C3349 C 0.01612 0.78651 0.1618 0.0
C3350 C 1.00485 0.78908 0.19225 0.0
C3351 C 0.98753 0.78536 0.1826 0.0
C3352 C 0.98468 0.78283 0.16248 0.0
H3353 H 0.88433 0.77311 0.21873 0.0
H3354 H 0.90888 0.77654 0.20054 0.0
C3355 C 0.99875 0.78331 0.15222 0.0
C3356 C 0.97246 0.78418 0.19351 0.0
H3357 H 0.93492 0.75482 0.19969 0.0
C3358 C 0.97134 0.79998 0.20641 0.0
C3359 C 0.95916 0.76765 0.19117 0.0
C3360 C 0.95996 0.74986 0.17828 0.0
C3361 C 0.95721 0.79982 0.21673 0.0
C3362 C 0.94392 0.7833 0.21437 0.0
C3363 C 0.94502 0.76752 0.20146 0.0
C3364 C 0.92899 0.7819 0.22549 0.0
C3365 C 0.95647 0.81751 0.2298 0.0
C3366 C 0.93205 0.78364 0.24558 0.0
C3367 C 0.91806 0.78175 0.25602 0.0
C3368 C 0.9006 0.77794 0.24663 0.0
C3369 C 0.89757 0.77625 0.22648 0.0
C3370 C 0.9116 0.7781 0.21604 0.0
H3371 H 0.96468 0.83033 0.22601 0.0
H3372 H 0.94282 0.8198 0.22922 0.0
H3373 H 0.96148 0.81593 0.24476 0.0
H3374 H 0.9453 0.78623 0.25324 0.0
H3375 H 0.92096 0.78336 0.2715 0.0
H3376 H 0.53208 0.30752 0.13924 0.0
H3377 H 0.5447 0.33999 0.13559 0.0
H3378 H 0.58633 0.34154 0.18211 0.0
H3379 H 0.57382 0.3088 0.18602 0.0
H3380 H 0.56304 0.37669 0.17592 0.0
H3381 H 0.59947 0.35064 0.11987 0.0
H3382 H 0.57791 0.33702 0.11986 0.0
H3383 H 0.59484 0.33795 0.13975 0.0
C3384 C 0.5438 0.31473 0.1489 0.0
C3385 C 0.55199 0.30546 0.16284 0.0
C3386 C 0.55096 0.33331 0.1468 0.0
C3387 C 0.56641 0.34297 0.15855 0.0
C3388 C 0.57436 0.33418 0.17297 0.0
H3389 H 0.59912 0.43715 0.09717 0.0
H3390 H 0.6048 0.41809 0.12299 0.0
C3391 C 0.56718 0.31551 0.17513 0.0
C3392 C 0.5745 0.36178 0.1545 0.0
H3393 H 0.59218 0.38122 0.11835 0.0
C3394 C 0.56996 0.37793 0.16375 0.0
C3395 C 0.58383 0.36333 0.13892 0.0
C3396 C 0.58946 0.34636 0.12905 0.0
C3397 C 0.57292 0.39529 0.15644 0.0
C3398 C 0.58011 0.39616 0.13926 0.0
C3399 C 0.5865 0.38054 0.13142 0.0
C3400 C 0.5777 0.41106 0.12702 0.0
C3401 C 0.56734 0.41217 0.16652 0.0
C3402 C 0.56065 0.41364 0.12095 0.0
C3403 C 0.5574 0.42441 0.10629 0.0
C3404 C 0.5711 0.43266 0.09723 0.0
C3405 C 0.58833 0.43095 0.10395 0.0
C3406 C 0.59159 0.42012 0.11869 0.0
H3407 H 0.56951 0.41217 0.18228 0.0
H3408 H 0.57456 0.42579 0.16317 0.0
H3409 H 0.55312 0.41126 0.16197 0.0
H3410 H 0.54964 0.40638 0.12673 0.0
H3411 H 0.54404 0.42575 0.10159 0.0
H3412 H 0.98971 0.28769 0.34788 0.0
H3413 H 0.95858 0.28362 0.33564 0.0
H3414 H 0.94776 0.29083 0.39377 0.0
H3415 H 0.97917 0.29788 0.40565 0.0
H3416 H 0.93257 0.26042 0.33626 0.0
H3417 H 0.91994 0.3258 0.37582 0.0
H3418 H 0.9415 0.32051 0.37794 0.0
H3419 H 0.92596 0.30995 0.39204 0.0
C3420 C 0.98068 0.28944 0.35788 0.0
C3421 C 0.9868 0.29465 0.37748 0.0
C3422 C 0.96283 0.28659 0.35099 0.0
C3423 C 0.95067 0.28772 0.36372 0.0
C3424 C 0.9568 0.29105 0.38353 0.0
H3425 H 0.8395 0.24852 0.31359 0.0
H3426 H 0.86894 0.24947 0.33064 0.0
C3427 C 0.97473 0.29487 0.39033 0.0
C3428 C 0.9317 0.285 0.35609 0.0
H3429 H 0.89508 0.30378 0.35904 0.0
C3430 C 0.92448 0.27009 0.34114 0.0
C3431 C 0.92092 0.29743 0.36252 0.0
C3432 C 0.92755 0.31439 0.37782 0.0
C3433 C 0.90719 0.26778 0.33188 0.0
C3434 C 0.89644 0.28004 0.33851 0.0
C3435 C 0.90337 0.29441 0.35396 0.0
C3436 C 0.87836 0.27923 0.32888 0.0
C3437 C 0.90099 0.25278 0.31457 0.0
C3438 C 0.87362 0.2958 0.32303 0.0
C3439 C 0.85669 0.29544 0.31401 0.0
C3440 C 0.8443 0.2784 0.31034 0.0
C3441 C 0.84895 0.26179 0.31617 0.0
C3442 C 0.86578 0.26229 0.32572 0.0
H3443 H 0.91214 0.24864 0.30816 0.0
H3444 H 0.89351 0.23987 0.31896 0.0
H3445 H 0.89238 0.2578 0.30337 0.0
H3446 H 0.88308 0.30904 0.32527 0.0
H3447 H 0.85345 0.30839 0.30947 0.0
H3448 H 0.01506 0.71987 0.62956 0.0
H3449 H 1.0091 0.69334 0.60348 0.0
H3450 H 0.03172 0.65867 0.64167 0.0
H3451 H 0.03752 0.68492 0.66777 0.0
H3452 H 0.03614 0.67934 0.5905 0.0
H3453 H 0.9901 0.62099 0.61159 0.0
H3454 H 0.99282 0.64537 0.62249 0.0
H3455 H 1.00782 0.63072 0.63068 0.0
C3456 C 0.01821 0.70638 0.63257 0.0
C3457 C 0.02688 0.70451 0.65068 0.0
C3458 C 0.01485 0.69127 0.61763 0.0
C3459 C 0.0199 0.67403 0.62065 0.0
C3460 C 0.02741 0.67172 0.63908 0.0
H3461 H 0.05275 0.5798 0.57003 0.0
H3462 H 0.04735 0.60825 0.58829 0.0
C3463 C 0.0308 0.6868 0.65399 0.0
C3464 C 0.01982 0.65945 0.60426 0.0
H3465 H 1.00959 0.61161 0.59009 0.0
C3466 C 0.02995 0.66459 0.59009 0.0
C3467 C 1.01174 0.64025 0.60375 0.0
C3468 C 0.99986 0.63405 0.61785 0.0
C3469 C 0.03323 0.65079 0.57624 0.0
C3470 C 0.02614 0.6315 0.57661 0.0
C3471 C 0.01515 0.62647 0.59002 0.0
C3472 C 0.03125 0.61611 0.56453 0.0
C3473 C 0.0451 0.65671 0.56204 0.0
C3474 C 0.02448 0.61159 0.54495 0.0
C3475 C 0.02764 0.59533 0.5344 0.0
C3476 C 0.03749 0.58343 0.54342 0.0
C3477 C 0.04512 0.58872 0.56272 0.0
C3478 C 0.04198 0.60489 0.5732 0.0
H3479 H 0.05034 0.67226 0.56432 0.0
H3480 H 0.05623 0.64913 0.56315 0.0
H3481 H 0.03776 0.65266 0.54726 0.0
H3482 H 0.01612 0.62011 0.53809 0.0
H3483 H 0.02153 0.5915 0.51956 0.0
H3484 H 0.57654 0.78873 0.87839 0.0
H3485 H 0.60015 0.77999 0.86249 0.0
H3486 H 0.57965 0.80112 0.81151 0.0
H3487 H 0.55604 0.8103 0.82746 0.0
H3488 H 0.59516 0.754 0.82941 0.0
H3489 H 0.63197 0.82462 0.81921 0.0
H3490 H 0.61626 0.82206 0.83557 0.0
H3491 H 0.6089 0.81952 0.81024 0.0
C3492 C 0.57714 0.79178 0.86388 0.0
C3493 C 0.56437 0.80018 0.85417 0.0
C3494 C 0.59063 0.78674 0.85481 0.0
C3495 C 0.59165 0.78996 0.83587 0.0
C3496 C 0.57923 0.79879 0.82625 0.0
H3497 H 0.67164 0.75757 0.76993 0.0
H3498 H 0.644 0.76618 0.77689 0.0
C3499 C 0.56574 0.80398 0.83538 0.0
C3500 C 0.60524 0.78303 0.8261 0.0
H3501 H 0.64259 0.79766 0.80777 0.0
C3502 C 0.60545 0.76353 0.82452 0.0
C3503 C 0.61852 0.79549 0.81959 0.0
C3504 C 0.61907 0.81662 0.82131 0.0
C3505 C 0.61897 0.75622 0.81725 0.0
C3506 C 0.63262 0.76878 0.81153 0.0
C3507 C 0.63201 0.78813 0.8122 0.0
C3508 C 0.64854 0.76243 0.80679 0.0
C3509 C 0.61882 0.73521 0.81617 0.0
C3510 C 0.66005 0.75746 0.82132 0.0
C3511 C 0.67576 0.75267 0.81744 0.0
C3512 C 0.68017 0.75271 0.79894 0.0
C3513 C 0.66842 0.75726 0.78426 0.0
C3514 C 0.65274 0.76225 0.78822 0.0
H3515 H 0.60555 0.72696 0.81657 0.0
H3516 H 0.62343 0.72983 0.80288 0.0
H3517 H 0.62782 0.73266 0.8286 0.0
H3518 H 0.65706 0.75771 0.83578 0.0
H3519 H 0.68457 0.74914 0.82897 0.0
H3520 H 0.48563 0.52216 0.73406 0.0
H3521 H 0.4987 0.52825 0.7054 0.0
H3522 H 0.44777 0.51143 0.67065 0.0
H3523 H 0.43455 0.50541 0.69929 0.0
H3524 H 0.49827 0.50334 0.67212 0.0
H3525 H 0.46659 0.56368 0.65535 0.0
H3526 H 0.46713 0.55505 0.67828 0.0
H3527 H 0.45177 0.54244 0.65796 0.0
C3528 C 0.47718 0.51975 0.72033 0.0
C3529 C 0.45902 0.51334 0.71901 0.0
C3530 C 0.48469 0.52325 0.70394 0.0
C3531 C 0.47421 0.52058 0.68588 0.0
C3532 C 0.45609 0.51395 0.68446 0.0
H3533 H 0.51249 0.51174 0.5761 0.0
H3534 H 0.49662 0.50663 0.60304 0.0
C3535 C 0.44857 0.51038 0.70085 0.0
C3536 C 0.48234 0.52442 0.66854 0.0
H3537 H 0.483 0.55219 0.63251 0.0
C3538 C 0.49492 0.51401 0.66346 0.0
C3539 C 0.47813 0.53851 0.65735 0.0
C3540 C 0.46529 0.55071 0.66254 0.0
C3541 C 0.50323 0.51713 0.64742 0.0
C3542 C 0.49873 0.53091 0.63596 0.0
C3543 C 0.48632 0.54151 0.64117 0.0
C3544 C 0.50705 0.53467 0.61874 0.0
C3545 C 0.51702 0.50587 0.64308 0.0
C3546 C 0.51761 0.55241 0.61815 0.0
C3547 C 0.52664 0.55543 0.60266 0.0
C3548 C 0.52518 0.54077 0.58742 0.0
C3549 C 0.51393 0.52332 0.58762 0.0
C3550 C 0.50494 0.52032 0.6031 0.0
H3551 H 0.5219 0.49931 0.65562 0.0
H3552 H 0.51131 0.49429 0.63111 0.0
H3553 H 0.5283 0.51502 0.63863 0.0
H3554 H 0.51935 0.56374 0.63 0.0
H3555 H 0.53518 0.56902 0.60289 0.0
H3556 H 0.79746 0.18664 0.99081 0.0
H3557 H 0.78299 0.20922 0.97493 0.0
H3558 H 0.80716 0.25373 0.02118 0.0
H3559 H 0.82177 0.23129 0.03733 0.0
H3560 H 0.76008 0.23522 0.99181 0.0
H3561 H 0.82159 0.27119 0.96935 0.0
H3562 H 0.81926 0.24746 0.97574 0.0
H3563 H 0.82178 0.26741 0.99399 0.0
C3564 C 0.79978 0.20122 0.99765 0.0
C3565 C 0.8109 0.20716 0.01531 0.0
C3566 C 0.79136 0.21404 0.98862 0.0
C3567 C 0.79398 0.23302 0.997 0.0
C3568 C 0.80499 0.23908 0.01459 0.0
H3569 H 0.77279 0.31253 0.92066 0.0
H3570 H 0.77623 0.30378 0.95271 0.0
C3571 C 0.81339 0.22625 0.0237 0.0
C3572 C 0.78599 0.2466 0.98651 0.0
H3573 H 0.79545 0.27895 0.9563 0.0
C3574 C 0.76777 0.24511 0.98429 0.0
C3575 C 0.79615 0.25959 0.97704 0.0
C3576 C 0.81578 0.26159 0.979 0.0
C3577 C 0.7593 0.25567 0.97192 0.0
C3578 C 0.76934 0.26754 0.96121 0.0
C3579 C 0.78769 0.26993 0.96453 0.0
C3580 C 0.76141 0.27512 0.94433 0.0
C3581 C 0.73971 0.25361 0.97015 0.0
C3582 C 0.75061 0.26248 0.92922 0.0
C3583 C 0.74815 0.26764 0.91086 0.0
C3584 C 0.75693 0.2853 0.90718 0.0
C3585 C 0.76585 0.29877 0.92281 0.0
C3586 C 0.76795 0.29374 0.94124 0.0
H3587 H 0.73531 0.25153 0.98413 0.0
H3588 H 0.73521 0.26621 0.96513 0.0
H3589 H 0.73334 0.24083 0.9598 0.0
H3590 H 0.74552 0.24796 0.93107 0.0
H3591 H 0.74071 0.25714 0.89926 0.0
H3592 H 0.11386 0.49941 0.24606 0.0
H3593 H 0.09792 0.50163 0.21451 0.0
H3594 H 0.14682 0.51894 0.1944 0.0
H3595 H 0.1628 0.51667 0.22595 0.0
H3596 H 0.09525 0.53064 0.19425 0.0
H3597 H 0.12342 0.48009 0.14942 0.0
H3598 H 0.12658 0.48188 0.17521 0.0
H3599 H 0.13958 0.49891 0.16361 0.0
C3600 C 0.12135 0.50345 0.23492 0.0
C3601 C 0.13987 0.5076 0.23896 0.0
C3602 C 0.11209 0.50483 0.21665 0.0
C3603 C 0.12083 0.5102 0.20133 0.0
C3604 C 0.13937 0.51429 0.20535 0.0
H3605 H 0.08138 0.52615 0.07954 0.0
H3606 H 0.09997 0.52413 0.10993 0.0
C3607 C 0.14864 0.51304 0.22368 0.0
C3608 C 0.11056 0.51215 0.18172 0.0
H3609 H 0.10541 0.49804 0.13284 0.0
C3610 C 0.09754 0.52337 0.18092 0.0
C3611 C 0.11325 0.50304 0.16378 0.0
C3612 C 0.12634 0.49016 0.16295 0.0
C3613 C 0.08762 0.52588 0.16334 0.0
C3614 C 0.09001 0.51644 0.1454 0.0
C3615 C 0.10319 0.50539 0.14616 0.0
C3616 C 0.07866 0.51745 0.12609 0.0
C3617 C 0.075 0.53931 0.16434 0.0
C3618 C 0.0602 0.514 0.12407 0.0
C3619 C 0.04959 0.5153 0.1067 0.0
C3620 C 0.05671 0.5198 0.09012 0.0
C3621 C 0.07517 0.52275 0.09178 0.0
C3622 C 0.0859 0.52155 0.10936 0.0
H3623 H 0.0791 0.55025 0.17719 0.0
H3624 H 0.07392 0.54665 0.15143 0.0
H3625 H 0.06188 0.53119 0.16546 0.0
H3626 H 0.05379 0.5101 0.13602 0.0
H3627 H 0.03553 0.51265 0.10629 0.0
H3628 H 0.8149 0.90324 0.48258 0.0
H3629 H 0.8113 0.88396 0.45144 0.0
H3630 H 0.79673 0.83322 0.47704 0.0
H3631 H 0.80071 0.85243 0.50854 0.0
H3632 H 0.81991 0.82863 0.45276 0.0
H3633 H 0.76676 0.8589 0.4163 0.0
H3634 H 0.78549 0.87689 0.42664 0.0
H3635 H 0.77335 0.86323 0.44194 0.0
C3636 C 0.81077 0.88799 0.48168 0.0
C3637 C 0.808 0.87947 0.49821 0.0
C3638 C 0.80862 0.87696 0.46374 0.0
C3639 C 0.80341 0.85712 0.46173 0.0
C3640 C 0.80065 0.84851 0.47816 0.0
H3641 H 0.77041 0.78972 0.34829 0.0
H3642 H 0.77165 0.80466 0.38115 0.0
C3643 C 0.80288 0.85955 0.49619 0.0
C3644 C 0.80146 0.84542 0.44259 0.0
H3645 H 0.78165 0.84084 0.39603 0.0
C3646 C 0.81142 0.83119 0.44039 0.0
C3647 C 0.79019 0.84848 0.42643 0.0
C3648 C 0.77821 0.86257 0.42796 0.0
C3649 C 0.81083 0.82041 0.42246 0.0
C3650 C 0.80028 0.8242 0.4061 0.0
C3651 C 0.78993 0.83803 0.40844 0.0
C3652 C 0.79979 0.81412 0.38644 0.0
C3653 C 0.82135 0.80488 0.42132 0.0
C3654 C 0.81518 0.81438 0.3783 0.0
C3655 C 0.81453 0.80567 0.35951 0.0
C3656 C 0.79844 0.79673 0.34828 0.0
C3657 C 0.78305 0.79644 0.35647 0.0
C3658 C 0.78373 0.80502 0.3753 0.0
H3659 H 0.82404 0.79981 0.43542 0.0
H3660 H 0.81448 0.79257 0.41059 0.0
H3661 H 0.83414 0.81052 0.41703 0.0
H3662 H 0.82769 0.82171 0.38633 0.0
H3663 H 0.82663 0.80637 0.35365 0.0
H3664 H 0.43063 0.52261 0.84298 0.0
H3665 H 0.44754 0.52565 0.87483 0.0
H3666 H 0.49187 0.51274 0.84984 0.0
H3667 H 0.47509 0.51007 0.8177 0.0
H3668 H 0.46068 0.49873 0.89138 0.0
H3669 H 0.51478 0.55875 0.88858 0.0
H3670 H 0.49524 0.55277 0.87088 0.0
H3671 H 0.5124 0.5394 0.86964 0.0
C3672 C 0.44404 0.52061 0.84415 0.0
C3673 C 0.45146 0.51611 0.82767 0.0
C3674 C 0.45371 0.52234 0.86245 0.0
C3675 C 0.47106 0.51963 0.86482 0.0
C3676 C 0.47864 0.51532 0.84843 0.0
H3677 H 0.52241 0.49205 0.97187 0.0
H3678 H 0.50883 0.49162 0.93881 0.0
C3679 C 0.46898 0.5137 0.83003 0.0
C3680 C 0.48071 0.52026 0.88449 0.0
H3681 H 0.51754 0.5423 0.91569 0.0
C3682 C 0.47311 0.50828 0.89668 0.0
C3683 C 0.49683 0.53289 0.89154 0.0
C3684 C 0.50524 0.54682 0.87957 0.0
C3685 C 0.48114 0.50849 0.91559 0.0
C3686 C 0.49752 0.52069 0.92247 0.0
C3687 C 0.50508 0.5328 0.91037 0.0
C3688 C 0.50678 0.52126 0.94229 0.0
C3689 C 0.47175 0.49597 0.92817 0.0
C3690 C 0.51082 0.53825 0.95513 0.0
C3691 C 0.51877 0.53859 0.97405 0.0
C3692 C 0.52288 0.52194 0.98053 0.0
C3693 C 0.51925 0.50508 0.96747 0.0
C3694 C 0.5114 0.50479 0.94855 0.0
H3695 H 0.4575 0.49174 0.92268 0.0
H3696 H 0.47717 0.48281 0.92843 0.0
H3697 H 0.47349 0.50324 0.9431 0.0
H3698 H 0.50748 0.55117 0.95062 0.0
H3699 H 0.52142 0.55184 0.98367 0.0
H3700 H 0.8756 0.22941 0.10806 0.0
H3701 H 0.87986 0.24517 0.14105 0.0
H3702 H 0.8503 0.1948 0.15747 0.0
H3703 H 0.84696 0.17873 0.12483 0.0
H3704 H 0.85247 0.25286 0.15295 0.0
H3705 H 0.88196 0.21358 0.20659 0.0
H3706 H 0.88392 0.20906 0.18153 0.0
H3707 H 0.86483 0.19763 0.19043 0.0
C3708 C 0.87075 0.22145 0.11896 0.0
C3709 C 0.86082 0.20296 0.11395 0.0
C3710 C 0.87318 0.23045 0.1378 0.0
C3711 C 0.86535 0.22126 0.15181 0.0
C3712 C 0.85682 0.20213 0.14714 0.0
H3713 H 0.80024 0.25992 0.22459 0.0
H3714 H 0.81568 0.24474 0.20144 0.0
C3715 C 0.85479 0.19296 0.12838 0.0
C3716 C 0.86252 0.23265 0.16943 0.0
H3717 H 0.86035 0.23171 0.21704 0.0
C3718 C 0.85473 0.24849 0.16704 0.0
C3719 C 0.86534 0.22704 0.18789 0.0
C3720 C 0.87465 0.211 0.19175 0.0
C3721 C 0.84875 0.25809 0.18222 0.0
C3722 C 0.85031 0.25154 0.20021 0.0
C3723 C 0.85902 0.2365 0.20308 0.0
C3724 C 0.84149 0.25923 0.21547 0.0
C3725 C 0.84004 0.27469 0.17872 0.0
C3726 C 0.851 0.27218 0.23107 0.0
C3727 C 0.84219 0.28088 0.24431 0.0
C3728 C 0.82383 0.27655 0.2421 0.0
C3729 C 0.81441 0.2633 0.22668 0.0
C3730 C 0.82319 0.25466 0.21349 0.0
H3731 H 0.8432 0.2805 0.16549 0.0
H3732 H 0.82563 0.26995 0.1771 0.0
H3733 H 0.84409 0.28624 0.19104 0.0
H3734 H 0.86514 0.2759 0.23269 0.0
H3735 H 0.84969 0.291 0.2562 0.0
H3736 H 0.12453 0.50924 0.33712 0.0
H3737 H 0.10815 0.51182 0.36434 0.0
H3738 H 0.15668 0.52658 0.40344 0.0
H3739 H 0.17292 0.52423 0.37659 0.0
H3740 H 0.10366 0.49462 0.39593 0.0
H3741 H 0.13539 0.56853 0.42475 0.0
H3742 H 0.13834 0.55757 0.40167 0.0
H3743 H 0.15099 0.55331 0.42326 0.0
C3744 C 0.13183 0.51303 0.35147 0.0
C3745 C 0.1504 0.5165 0.35405 0.0
C3746 C 0.12231 0.51455 0.36731 0.0
C3747 C 0.13079 0.51991 0.38661 0.0
C3748 C 0.14931 0.52301 0.38912 0.0
H3749 H 0.09857 0.53998 0.50368 0.0
H3750 H 0.11428 0.53687 0.47607 0.0
C3751 C 0.15877 0.52142 0.37341 0.0
C3752 C 0.12058 0.52199 0.40394 0.0
H3753 H 0.11826 0.55176 0.44491 0.0
C3754 C 0.10689 0.50726 0.40647 0.0
C3755 C 0.12435 0.53827 0.41837 0.0
C3756 C 0.13793 0.5554 0.41683 0.0
C3757 C 0.09759 0.50804 0.42255 0.0
C3758 C 0.10131 0.52436 0.43698 0.0
C3759 C 0.11499 0.5391 0.4344 0.0
C3760 C 0.09133 0.52643 0.45453 0.0
C3761 C 0.08425 0.49074 0.42419 0.0
C3762 C 0.07279 0.52215 0.45263 0.0
C3763 C 0.06369 0.52387 0.46865 0.0
C3764 C 0.07246 0.53025 0.48766 0.0
C3765 C 0.09099 0.53496 0.4896 0.0
C3766 C 0.10013 0.53317 0.47352 0.0
H3767 H 0.08708 0.47767 0.41648 0.0
H3768 H 0.08383 0.48868 0.43938 0.0
H3769 H 0.07112 0.49246 0.41757 0.0
H3770 H 0.06511 0.51762 0.43856 0.0
H3771 H 0.04953 0.52019 0.46601 0.0
H3772 H 0.81467 0.89469 0.62676 0.0
H3773 H 0.81182 0.87845 0.65502 0.0
H3774 H 0.79952 0.82428 0.61887 0.0
H3775 H 0.80159 0.84047 0.59061 0.0
H3776 H 0.77872 0.82339 0.64364 0.0
H3777 H 0.84493 0.85245 0.68403 0.0
H3778 H 0.8333 0.87096 0.67886 0.0
H3779 H 0.83884 0.85597 0.65951 0.0
C3780 C 0.81137 0.87931 0.62485 0.0
C3781 C 0.80837 0.86892 0.60637 0.0
C3782 C 0.80993 0.86999 0.64109 0.0
C3783 C 0.80586 0.85001 0.63932 0.0
C3784 C 0.80276 0.83966 0.62081 0.0
H3785 H 0.81406 0.78437 0.73729 0.0
H3786 H 0.81995 0.80033 0.70921 0.0
C3787 C 0.80394 0.84897 0.60458 0.0
C3788 C 0.80404 0.83982 0.6565 0.0
H3789 H 0.82415 0.83637 0.70148 0.0
C3790 C 0.78876 0.8262 0.6562 0.0
C3791 C 0.8172 0.84304 0.6729 0.0
C3792 C 0.83456 0.85624 0.67379 0.0
C3793 C 0.7861 0.81612 0.67177 0.0
C3794 C 0.79877 0.82016 0.68861 0.0
C3795 C 0.81428 0.8334 0.68878 0.0
C3796 C 0.79586 0.81114 0.70625 0.0
C3797 C 0.7698 0.80095 0.66975 0.0
C3798 C 0.78069 0.81231 0.7144 0.0
C3799 C 0.77724 0.80304 0.73015 0.0
C3800 C 0.78904 0.79266 0.73854 0.0
C3801 C 0.80467 0.79217 0.73107 0.0
C3802 C 0.80803 0.8013 0.71503 0.0
H3803 H 0.76484 0.79517 0.65448 0.0
H3804 H 0.77223 0.789 0.67764 0.0
H3805 H 0.75936 0.80721 0.6756 0.0
H3806 H 0.77137 0.82033 0.70848 0.0
H3807 H 0.76522 0.804 0.73576 0.0
H3808 H 0.70584 0.37727 0.51973 0.0
H3809 H 0.68465 0.38327 0.54081 0.0
H3810 H 0.66759 0.42313 0.5051 0.0
H3811 H 0.68834 0.41704 0.48389 0.0
H3812 H 0.68681 0.41706 0.56127 0.0
H3813 H 0.62167 0.39756 0.51753 0.0
H3814 H 0.64021 0.38853 0.51039 0.0
H3815 H 0.63608 0.41114 0.50438 0.0
C3816 C 0.69718 0.38685 0.51601 0.0
C3817 C 0.6989 0.39681 0.50018 0.0
C3818 C 0.6851 0.39027 0.52811 0.0
C3819 C 0.67442 0.40348 0.52444 0.0
C3820 C 0.67538 0.41251 0.50799 0.0
H3821 H 0.65594 0.4997 0.57588 0.0
H3822 H 0.6679 0.47094 0.57091 0.0
C3823 C 0.68741 0.40914 0.49593 0.0
C3824 C 0.66429 0.41032 0.53897 0.0
H3825 H 0.6266 0.42675 0.54101 0.0
C3826 C 0.67341 0.41866 0.55714 0.0
C3827 C 0.64666 0.41186 0.53396 0.0
C3828 C 0.63558 0.40156 0.51556 0.0
C3829 C 0.66608 0.43057 0.56934 0.0
C3830 C 0.64949 0.43456 0.5629 0.0
C3831 C 0.63953 0.42418 0.54587 0.0
C3832 C 0.6435 0.45153 0.57138 0.0
C3833 C 0.67658 0.43943 0.58855 0.0
C3834 C 0.6259 0.45036 0.57369 0.0
C3835 C 0.61899 0.46683 0.57591 0.0
C3836 C 0.62965 0.48472 0.57631 0.0
C3837 C 0.64758 0.48605 0.5759 0.0
C3838 C 0.65443 0.46955 0.57322 0.0
H3839 H 0.68384 0.42917 0.5949 0.0
H3840 H 0.68643 0.45185 0.5866 0.0
H3841 H 0.66815 0.44415 0.59874 0.0
H3842 H 0.61719 0.43668 0.57227 0.0
H3843 H 0.60509 0.46554 0.57596 0.0
H3844 H 0.22873 0.11167 0.52385 0.0
H3845 H 0.20016 0.09304 0.52636 0.0
H3846 H 0.17511 0.13599 0.50331 0.0
H3847 H 0.20381 0.15395 0.49953 0.0
H3848 H 0.17719 0.10007 0.54706 0.0
H3849 H 0.14435 0.09095 0.47176 0.0
H3850 H 0.16734 0.10074 0.47873 0.0
H3851 H 0.15144 0.11547 0.48179 0.0
C3852 C 0.21707 0.11675 0.51862 0.0
C3853 C 0.21845 0.13377 0.51059 0.0
C3854 C 0.2007 0.10625 0.52036 0.0
C3855 C 0.18523 0.11275 0.51463 0.0
C3856 C 0.18665 0.13017 0.50719 0.0
H3857 H 0.07685 0.06475 0.52971 0.0
H3858 H 0.10351 0.08705 0.5263 0.0
C3859 C 0.20308 0.14054 0.50516 0.0
C3860 C 0.16788 0.10168 0.51746 0.0
H3861 H 0.12653 0.08092 0.49468 0.0
C3862 C 0.16618 0.0959 0.53552 0.0
C3863 C 0.15328 0.09622 0.50256 0.0
C3864 C 0.15419 0.10101 0.48257 0.0
C3865 C 0.15058 0.08475 0.53897 0.0
C3866 C 0.13615 0.07918 0.52404 0.0
C3867 C 0.13759 0.08529 0.50615 0.0
C3868 C 0.11993 0.06597 0.52642 0.0
C3869 C 0.1496 0.07887 0.55857 0.0
C3870 C 0.12023 0.04675 0.52752 0.0
C3871 C 0.10501 0.03405 0.52927 0.0
C3872 C 0.08913 0.04029 0.53013 0.0
C3873 C 0.08885 0.05958 0.5292 0.0
C3874 C 0.10408 0.07229 0.5272 0.0
H3875 H 0.16051 0.08717 0.56949 0.0
H3876 H 0.13697 0.08069 0.56319 0.0
H3877 H 0.1503 0.06361 0.55797 0.0
H3878 H 0.13224 0.0415 0.52679 0.0
H3879 H 0.10567 0.01927 0.52989 0.0
H3880 H 0.14675 0.99037 0.78728 0.0
H3881 H 0.1531 0.95834 0.78116 0.0
H3882 H 0.19154 0.9703 0.8324 0.0
H3883 H 0.18527 1.00196 0.83871 0.0
H3884 H 0.18581 0.95038 0.77556 0.0
H3885 H 0.16408 0.91804 0.83739 0.0
H3886 H 0.15704 0.93894 0.82989 0.0
H3887 H 0.17793 0.94099 0.84467 0.0
C3888 C 0.15632 0.98604 0.79741 0.0
C3889 C 0.1655 0.99877 0.81348 0.0
C3890 C 0.15995 0.96776 0.79387 0.0
C3891 C 0.17259 0.96184 0.8065 0.0
C3892 C 0.18145 0.97438 0.8227 0.0
H3893 H 0.24294 0.88832 0.81875 0.0
H3894 H 0.22316 0.91063 0.82104 0.0
C3895 C 0.17794 0.99259 0.82618 0.0
C3896 C 0.17786 0.9433 0.80213 0.0
H3897 H 0.18611 0.90465 0.82276 0.0
C3898 C 0.18549 0.9401 0.7856 0.0
C3899 C 0.17741 0.92993 0.81526 0.0
C3900 C 0.1685 0.93204 0.8327 0.0
C3901 C 0.19384 0.92461 0.78258 0.0
C3902 C 0.19432 0.91189 0.79634 0.0
C3903 C 0.18579 0.91448 0.81229 0.0
C3904 C 0.2052 0.89712 0.7955 0.0
C3905 C 0.20306 0.92264 0.76535 0.0
C3906 C 0.20141 0.88183 0.78061 0.0
C3907 C 0.21267 0.86888 0.77933 0.0
C3908 C 0.22788 0.87101 0.79295 0.0
C3909 C 0.23124 0.88603 0.80818 0.0
C3910 C 0.21999 0.89889 0.80946 0.0
H3911 H 0.20363 0.93525 0.75763 0.0
H3912 H 0.21661 0.92058 0.76974 0.0
H3913 H 0.19598 0.90997 0.75524 0.0
H3914 H 0.1899 0.88006 0.76986 0.0
H3915 H 0.20955 0.85732 0.76758 0.0
H3916 H 0.27655 0.94018 0.99259 0.0
H3917 H 0.3009 0.96667 0.99305 0.0
H3918 H 0.32785 0.92871 0.96265 0.0
H3919 H 0.30308 0.9025 0.96136 0.0
H3920 H 0.33159 0.96782 1.01201 0.0
H3921 H 0.34062 0.975 0.93756 0.0
H3922 H 0.32039 0.96262 0.94354 0.0
H3923 H 0.33826 0.95048 0.94079 0.0
C3924 C 0.28734 0.93778 0.98522 0.0
C3925 C 0.2878 0.91957 0.97634 0.0
C3926 C 0.30128 0.95286 0.98562 0.0
C3927 C 0.31606 0.94981 0.97754 0.0
C3928 C 0.31634 0.93161 0.96836 0.0
H3929 H 0.4203 0.97196 0.01714 0.0
H3930 H 0.38841 0.96594 1.01201 0.0
C3931 C 0.30231 0.91659 0.9678 0.0
C3932 C 0.33234 0.96445 0.98158 0.0
H3933 H 0.36766 0.98197 0.96126 0.0
C3934 C 0.33925 0.97139 1.00083 0.0
C3935 C 0.34222 0.96958 0.96707 0.0
C3936 C 0.33485 0.96418 0.94608 0.0
C3937 C 0.35645 0.98159 1.00605 0.0
C3938 C 0.36707 0.98449 0.99168 0.0
C3939 C 0.3596 0.97937 0.97232 0.0
C3940 C 0.38633 0.98985 0.9965 0.0
C3941 C 0.36334 0.98832 0.02698 0.0
C3942 C 0.39576 1.0052 0.98936 0.0
C3943 C 0.41406 1.00857 0.99216 0.0
C3944 C 0.42312 0.99644 1.00189 0.0
C3945 C 0.41363 0.98145 1.00949 0.0
C3946 C 0.39543 0.97814 1.00675 0.0
H3947 H 0.3527 0.9917 0.03482 0.0
H3948 H 0.36859 0.97682 0.0335 0.0
H3949 H 0.37395 1.0011 0.02897 0.0
H3950 H 0.38895 1.01426 0.98123 0.0
H3951 H 0.42109 0.02013 0.98601 0.0
H3952 H 0.88396 0.59537 0.81026 0.0
H3953 H 0.87094 0.62349 0.80972 0.0
H3954 H 0.88272 0.6284 0.75288 0.0
H3955 H 0.89664 0.60028 0.75376 0.0
H3956 H 0.88468 0.66306 0.76811 0.0
H3957 H 0.82386 0.62821 0.78994 0.0
H3958 H 0.84198 0.62836 0.80812 0.0
H3959 H 0.84054 0.61518 0.78463 0.0
C3960 C 0.88402 0.60235 0.79754 0.0
C3961 C 0.89172 0.5949 0.7821 0.0
C3962 C 0.87611 0.61863 0.79712 0.0
C3963 C 0.87477 0.62848 0.78097 0.0
C3964 C 0.88302 0.62152 0.76566 0.0
H3965 H 0.797 0.70757 0.77348 0.0
H3966 H 0.81214 0.6806 0.77201 0.0
C3967 C 0.89124 0.6052 0.76619 0.0
C3968 C 0.86503 0.64572 0.78035 0.0
H3969 H 0.82825 0.66192 0.79214 0.0
C3970 C 0.8723 0.66256 0.77335 0.0
C3971 C 0.84842 0.64589 0.78659 0.0
C3972 C 0.83815 0.62838 0.79253 0.0
C3973 C 0.86412 0.67891 0.77289 0.0
C3974 C 0.84801 0.67948 0.7802 0.0
C3975 C 0.84057 0.66244 0.78675 0.0
C3976 C 0.8385 0.69696 0.78079 0.0
C3977 C 0.87278 0.69519 0.76373 0.0
C3978 C 0.84747 0.71613 0.78638 0.0
C3979 C 0.83865 0.73189 0.78689 0.0
C3980 C 0.82018 0.7296 0.78227 0.0
C3981 C 0.81113 0.71048 0.77709 0.0
C3982 C 0.81998 0.69472 0.77632 0.0
H3983 H 0.88082 0.6903 0.75316 0.0
H3984 H 0.863 0.70233 0.75627 0.0
H3985 H 0.88169 0.70569 0.77495 0.0
H3986 H 0.86148 0.71912 0.79083 0.0
H3987 H 0.84644 0.74604 0.79131 0.0
H3988 H 0.80729 0.61366 0.98895 0.0
H3989 H 0.83438 0.60206 0.99604 0.0
H3990 H 0.84884 0.64161 0.0482 0.0
H3991 H 0.82171 0.65368 0.041 0.0
H3992 H 0.87708 0.63908 0.02969 0.0
H3993 H 0.84218 0.56676 0.03525 0.0
H3994 H 0.83556 0.5742 0.01261 0.0
H3995 H 0.83122 0.58664 0.0343 0.0
C3996 C 0.81622 0.62004 1.00192 0.0
C3997 C 0.81213 0.63456 0.01447 0.0
C3998 C 0.83171 0.61324 1.00602 0.0
C3999 C 0.84351 0.62054 0.02292 0.0
C4000 C 0.83989 0.63558 0.03514 0.0
H4001 H 0.92384 0.5579 0.06433 0.0
H4002 H 0.89898 0.57414 0.06132 0.0
C4003 C 0.82437 0.64252 0.03098 0.0
C4004 C 0.85943 0.61224 0.02779 0.0
H4005 H 0.8726 0.57017 0.03309 0.0
C4006 C 0.87609 0.62403 0.03057 0.0
C4007 C 0.85825 0.59266 0.02935 0.0
C4008 C 0.84084 0.57936 0.02793 0.0
C4009 C 0.89151 0.6167 0.03419 0.0
C4010 C 0.89032 0.59692 0.03467 0.0
C4011 C 0.87364 0.58527 0.03251 0.0
C4012 C 0.9061 0.58791 0.03716 0.0
C4013 C 0.90891 0.63032 0.03773 0.0
C4014 C 0.91848 0.59007 0.02458 0.0
C4015 C 0.93278 0.58085 0.02634 0.0
C4016 C 0.93497 0.56897 0.04056 0.0
C4017 C 0.92256 0.56682 0.05314 0.0
C4018 C 0.90833 0.57616 0.05146 0.0
H4019 H 0.90752 0.64496 0.04304 0.0
H4020 H 0.91849 0.62578 0.04831 0.0
H4021 H 0.91424 0.63083 0.02407 0.0
H4022 H 0.91688 0.59852 0.01305 0.0
H4023 H 0.94182 0.58255 0.01613 0.0
H4024 H 0.1914 0.08438 0.80016 0.0
H4025 H 0.21161 0.11352 0.79782 0.0
H4026 H 0.17795 0.14653 0.82371 0.0
H4027 H 0.15828 0.11701 0.82734 0.0
H4028 H 0.2072 0.14043 0.77809 0.0
H4029 H 0.22332 0.17275 0.85435 0.0
H4030 H 0.21022 0.14933 0.84696 0.0
H4031 H 0.20053 0.16988 0.84492 0.0
C4032 C 0.18865 0.09785 0.80599 0.0
C4033 C 0.17378 0.09845 0.81481 0.0
C4034 C 0.20007 0.11455 0.80437 0.0
C4035 C 0.19661 0.13236 0.81094 0.0
C4036 C 0.18132 0.13303 0.81912 0.0
H4037 H 0.25689 0.24537 0.80339 0.0
H4038 H 0.23366 0.21908 0.80732 0.0
C4039 C 0.17 0.11619 0.82107 0.0
C4040 C 0.20872 0.14996 0.80821 0.0
H4041 H 0.23498 0.19121 0.8317 0.0
C4042 C 0.21328 0.15148 0.78988 0.0
C4043 C 0.21651 0.16466 0.82345 0.0
C4044 C 0.21252 0.16405 0.84356 0.0
C4045 C 0.22559 0.16689 0.78647 0.0
C4046 C 0.23377 0.18117 0.80182 0.0
C4047 C 0.2288 0.18012 0.81998 0.0
C4048 C 0.24779 0.19708 0.79938 0.0
C4049 C 0.22966 0.1678 0.76639 0.0
C4050 C 0.2636 0.19345 0.79403 0.0
C4051 C 0.27681 0.20843 0.79174 0.0
C4052 C 0.2744 0.22727 0.79462 0.0
C4053 C 0.25876 0.23093 0.80036 0.0
C4054 C 0.24559 0.21596 0.80281 0.0
H4055 H 0.2191 0.15881 0.75552 0.0
H4056 H 0.23154 0.18263 0.76306 0.0
H4057 H 0.24194 0.16254 0.76513 0.0
H4058 H 0.26575 0.17902 0.79175 0.0
H4059 H 0.28886 0.20527 0.78755 0.0
H4060 H 0.41465 0.98501 0.29132 0.0
H4061 H 0.39917 0.95245 0.29205 0.0
H4062 H 0.35363 0.96389 0.25791 0.0
H4063 H 0.36951 0.99604 0.25646 0.0
H4064 H 0.37403 0.93636 0.30629 0.0
H4065 H 0.35126 0.91456 0.229 0.0
H4066 H 0.36632 0.93657 0.238 0.0
H4067 H 0.34306 0.93505 0.23735 0.0
C4068 C 0.40136 0.98057 0.28385 0.0
C4069 C 0.39327 0.99368 0.27436 0.0
C4070 C 0.39236 0.96175 0.28431 0.0
C4071 C 0.37493 0.95492 0.27493 0.0
C4072 C 0.36706 0.96797 0.26499 0.0
H4073 H 0.31141 0.85117 0.30935 0.0
H4074 H 0.32617 0.88342 0.30689 0.0
C4075 C 0.37611 0.98677 0.26447 0.0
C4076 C 0.36512 0.93459 0.27606 0.0
H4077 H 0.3381 0.89456 0.24972 0.0
C4078 C 0.36628 0.92731 0.29377 0.0
C4079 C 0.355 0.92199 0.25996 0.0
C4080 C 0.35398 0.92735 0.23999 0.0
C4081 C 0.35784 0.90859 0.29585 0.0
C4082 C 0.347 0.89633 0.27995 0.0
C4083 C 0.346 0.90353 0.26219 0.0
C4084 C 0.33705 0.87608 0.28123 0.0
C4085 C 0.36139 0.90203 0.31516 0.0
C4086 C 0.33691 0.86046 0.26721 0.0
C4087 C 0.32788 0.84178 0.26834 0.0
C4088 C 0.31858 0.83769 0.2836 0.0
C4089 C 0.3185 0.85332 0.29745 0.0
C4090 C 0.32726 0.87203 0.29615 0.0
H4091 H 0.37415 0.90984 0.32337 0.0
H4092 H 0.35106 0.90493 0.32366 0.0
H4093 H 0.36155 0.88661 0.31375 0.0
H4094 H 0.34406 0.86259 0.25537 0.0
H4095 H 0.32854 0.83046 0.25735 0.0
H4096 H 0.53582 0.33327 0.6028 0.0
H4097 H 0.53715 0.36464 0.59345 0.0
H4098 H 0.58684 0.3844 0.63015 0.0
H4099 H 0.58579 0.35239 0.63956 0.0
H4100 H 0.53867 0.39886 0.61554 0.0
H4101 H 0.59699 0.40105 0.57849 0.0
H4102 H 0.58551 0.37927 0.58495 0.0
H4103 H 0.59967 0.3966 0.60301 0.0
C4104 C 0.54714 0.34415 0.609 0.0
C4105 C 0.56079 0.3401 0.62193 0.0
C4106 C 0.54783 0.36221 0.60359 0.0
C4107 C 0.56216 0.3769 0.61084 0.0
C4108 C 0.57575 0.3732 0.62407 0.0
H4109 H 0.57687 0.4915 0.57677 0.0
H4110 H 0.5806 0.46373 0.59254 0.0
C4111 C 0.57507 0.35494 0.62959 0.0
C4112 C 0.56235 0.39591 0.60437 0.0
H4113 H 0.58243 0.42674 0.57709 0.0
C4114 C 0.54834 0.40502 0.60727 0.0
C4115 C 0.57497 0.40404 0.59361 0.0
C4116 C 0.59011 0.39475 0.58965 0.0
C4117 C 0.54635 0.42167 0.59937 0.0
C4118 C 0.55853 0.42934 0.58793 0.0
C4119 C 0.57297 0.42073 0.58567 0.0
C4120 C 0.5563 0.44608 0.57795 0.0
C4121 C 0.53118 0.4309 0.60338 0.0
C4122 C 0.54135 0.44543 0.56441 0.0
C4123 C 0.539 0.46141 0.55555 0.0
C4124 C 0.5517 0.4783 0.55979 0.0
C4125 C 0.56689 0.4787 0.57294 0.0
C4126 C 0.56909 0.46281 0.58199 0.0
H4127 H 0.52613 0.42661 0.61645 0.0
H4128 H 0.53502 0.44663 0.60521 0.0
H4129 H 0.52036 0.42639 0.59112 0.0
H4130 H 0.53142 0.43258 0.56079 0.0
H4131 H 0.52717 0.46057 0.54549 0.0
H4132 H 0.46114 0.77758 0.41875 0.0
H4133 H 0.43141 0.77829 0.40333 0.0
H4134 H 0.43663 0.73724 0.3566 0.0
H4135 H 0.46626 0.7364 0.37217 0.0
H4136 H 0.42152 0.78916 0.36868 0.0
H4137 H 0.38899 0.71477 0.36904 0.0
H4138 H 0.40992 0.72521 0.38343 0.0
H4139 H 0.40862 0.71649 0.35846 0.0
C4140 C 0.45585 0.76867 0.40522 0.0
C4141 C 0.46613 0.75739 0.39631 0.0
C4142 C 0.43888 0.76906 0.39643 0.0
C4143 C 0.43164 0.75773 0.37883 0.0
C4144 C 0.44173 0.74589 0.3703 0.0
H4145 H 0.33909 0.74065 0.29371 0.0
H4146 H 0.36603 0.73935 0.31451 0.0
C4147 C 0.45876 0.74562 0.37904 0.0
C4148 C 0.414 0.75907 0.36888 0.0
H4149 H 0.37387 0.7327 0.34872 0.0
C4150 C 0.41118 0.77677 0.36415 0.0
C4151 C 0.40023 0.74306 0.36346 0.0
C4152 C 0.40198 0.72384 0.36902 0.0
C4153 C 0.39554 0.77869 0.35301 0.0
C4154 C 0.38176 0.76262 0.34735 0.0
C4155 C 0.38435 0.74505 0.35284 0.0
C4156 C 0.36492 0.76343 0.33506 0.0
C4157 C 0.39445 0.79778 0.34668 0.0
C4158 C 0.35492 0.7772 0.33965 0.0
C4159 C 0.33965 0.77827 0.32741 0.0
C4160 C 0.33371 0.76519 0.31065 0.0
C4161 C 0.34329 0.75096 0.3065 0.0
C4162 C 0.35873 0.75017 0.31846 0.0
H4163 H 0.40766 0.80652 0.34698 0.0
H4164 H 0.38712 0.7962 0.33194 0.0
H4165 H 0.38765 0.80569 0.35662 0.0
H4166 H 0.35893 0.78721 0.35266 0.0
H4167 H 0.33254 0.78936 0.33103 0.0
H4168 H 0.04622 0.72416 0.14811 0.0
H4169 H 0.04494 0.69158 0.13293 0.0
H4170 H 0.07505 0.71352 0.09089 0.0
H4171 H 0.07596 0.74602 0.10585 0.0
H4172 H 0.0488 0.68612 0.07406 0.0
H4173 H 0.0827 0.66072 0.13646 0.0
H4174 H 0.06378 0.66965 0.14191 0.0
H4175 H 0.08201 0.68548 0.13579 0.0
C4176 C 0.05249 0.72193 0.13559 0.0
C4177 C 0.06078 0.73752 0.12782 0.0
C4178 C 0.05192 0.70334 0.12703 0.0
C4179 C 0.06016 0.7 0.11092 0.0
C4180 C 0.06861 0.71566 0.1033 0.0
H4181 H 0.07773 0.58859 0.06321 0.0
H4182 H 0.08188 0.62188 0.07767 0.0
C4183 C 0.06903 0.73422 0.11176 0.0
C4184 C 0.0596 0.68026 0.10167 0.0
H4185 H 0.06815 0.6369 0.11042 0.0
C4186 C 0.05296 0.6754 0.08206 0.0
C4187 C 0.06561 0.66629 0.1119 0.0
C4188 C 0.0741 0.67083 0.13262 0.0
C4189 C 0.05144 0.6569 0.07261 0.0
C4190 C 0.05667 0.64275 0.08305 0.0
C4191 C 0.06394 0.6477 0.10248 0.0
C4192 C 0.05426 0.62264 0.07411 0.0
C4193 C 0.04431 0.65267 0.05148 0.0
C4194 C 0.03737 0.61199 0.06743 0.0
C4195 C 0.03495 0.59301 0.05923 0.0
C4196 C 0.04939 0.5842 0.0575 0.0
C4197 C 0.06633 0.59492 0.06419 0.0
C4198 C 0.06872 0.61394 0.07253 0.0
H4199 H 0.04512 0.66585 0.04464 0.0
H4200 H 0.0515 0.64298 0.04396 0.0
H4201 H 0.03034 0.64559 0.04954 0.0
H4202 H 0.026 0.61831 0.06876 0.0
H4203 H 0.0217 0.58525 0.05432 0.0
H4204 H 0.06491 0.29324 0.89041 0.0
H4205 H 0.0929 0.29155 0.87982 0.0
H4206 H 0.0913 0.23661 0.89862 0.0
H4207 H 0.06309 0.23835 0.90964 0.0
H4208 H 0.12577 0.26066 0.9055 0.0
H4209 H 0.09352 0.25622 0.83054 0.0
H4210 H 0.09039 0.27648 0.84576 0.0
H4211 H 0.08132 0.25293 0.85011 0.0
C4212 C 0.0706 0.28089 0.8926 0.0
C4213 C 0.06166 0.26583 0.90071 0.0
C4214 C 0.0866 0.27991 0.88643 0.0
C4215 C 0.09401 0.26376 0.88794 0.0
C4216 C 0.08575 0.24917 0.89715 0.0
H4217 H 0.17117 0.24328 0.81402 0.0
H4218 H 0.14616 0.23942 0.83119 0.0
C4219 C 0.06968 0.2502 0.90353 0.0
C4220 C 0.10978 0.26192 0.87882 0.0
H4221 H 0.12471 0.26289 0.83585 0.0
C4222 C 0.12553 0.26096 0.89025 0.0
C4223 C 0.10944 0.26195 0.85885 0.0
C4224 C 0.09273 0.26175 0.84555 0.0
C4225 C 0.14106 0.26079 0.88234 0.0
C4226 C 0.14091 0.26196 0.86252 0.0
C4227 C 0.12498 0.2622 0.85105 0.0
C4228 C 0.15705 0.26326 0.85329 0.0
C4229 C 0.15741 0.25919 0.89529 0.0
C4230 C 0.17169 0.27789 0.85994 0.0
C4231 C 0.18622 0.27998 0.85027 0.0
C4232 C 0.1864 0.26765 0.8335 0.0
C4233 C 0.17176 0.25288 0.82702 0.0
C4234 C 0.15731 0.25073 0.83677 0.0
H4235 H 0.15421 0.25229 0.90794 0.0
H4236 H 0.16562 0.25093 0.88755 0.0
H4237 H 0.1652 0.27364 0.90063 0.0
H4238 H 0.17174 0.28806 0.87235 0.0
H4239 H 0.19725 0.2914 0.85589 0.0
H4240 H 0.50883 0.72766 0.87533 0.0
H4241 H 0.50697 0.69595 0.88528 0.0
H4242 H 0.54402 0.71978 0.9362 0.0
H4243 H 0.54598 0.75137 0.92651 0.0
H4244 H 0.53737 0.67465 0.89978 0.0
H4245 H 0.49409 0.6945 0.95127 0.0
H4246 H 0.4968 0.70601 0.93024 0.0
H4247 H 0.51344 0.71201 0.95103 0.0
C4248 C 0.5168 0.72607 0.88848 0.0
C4249 C 0.5274 0.74199 0.90027 0.0
C4250 C 0.51573 0.70798 0.89408 0.0
C4251 C 0.52526 0.70571 0.91149 0.0
C4252 C 0.53653 0.72139 0.92274 0.0
H4253 H 0.55658 0.62669 0.97889 0.0
H4254 H 0.5527 0.64701 0.95405 0.0
C4255 C 0.5376 0.7394 0.9172 0.0
C4256 C 0.52244 0.68743 0.91904 0.0
H4257 H 0.5069 0.66765 0.95618 0.0
C4258 C 0.53044 0.67286 0.91188 0.0
C4259 C 0.51311 0.68513 0.93454 0.0
C4260 C 0.50372 0.70016 0.94218 0.0
C4261 C 0.53028 0.65641 0.92075 0.0
C4262 C 0.52217 0.65482 0.93729 0.0
C4263 C 0.51318 0.66889 0.94356 0.0
C4264 C 0.52437 0.63997 0.94964 0.0
C4265 C 0.53909 0.64111 0.91257 0.0
C4266 C 0.50973 0.62931 0.95549 0.0
C4267 C 0.51193 0.61793 0.96993 0.0
C4268 C 0.52881 0.61701 0.9787 0.0
C4269 C 0.54343 0.62699 0.97221 0.0
C4270 C 0.54123 0.63848 0.9579 0.0
H4271 H 0.53871 0.64093 0.89687 0.0
H4272 H 0.55304 0.64405 0.91929 0.0
H4273 H 0.53282 0.62684 0.91536 0.0
H4274 H 0.49661 0.63037 0.94939 0.0
H4275 H 0.50045 0.61019 0.97454 0.0
H4276 H 0.10241 0.76867 0.66246 0.0
H4277 H 0.13371 0.76951 0.66311 0.0
H4278 H 0.1334 0.73494 0.70901 0.0
H4279 H 0.10181 0.73287 0.70712 0.0
H4280 H 0.15747 0.78592 0.68889 0.0
H4281 H 0.1652 0.71145 0.68104 0.0
H4282 H 0.14399 0.71775 0.67636 0.0
H4283 H 0.15322 0.71516 0.70038 0.0
C4284 C 0.10908 0.76107 0.67248 0.0
C4285 C 0.10009 0.7515 0.68544 0.0
C4286 C 0.12692 0.7615 0.67283 0.0
C4287 C 0.13603 0.7523 0.68611 0.0
C4288 C 0.12672 0.74181 0.69832 0.0
H4289 H 0.23661 0.79504 0.74848 0.0
H4290 H 0.20656 0.7889 0.73223 0.0
C4291 C 0.10878 0.74107 0.69766 0.0
C4292 C 0.15544 0.75568 0.68882 0.0
H4293 H 0.19025 0.73439 0.69938 0.0
C4294 C 0.1646 0.77454 0.69073 0.0
C4295 C 0.16495 0.74092 0.69078 0.0
C4296 C 0.15627 0.7202 0.68678 0.0
C4297 C 0.18281 0.77915 0.69578 0.0
C4298 C 0.19208 0.76461 0.69986 0.0
C4299 C 0.18312 0.74562 0.69668 0.0
C4300 C 0.21067 0.76895 0.70895 0.0
C4301 C 0.19182 0.79961 0.69686 0.0
C4302 C 0.22292 0.7593 0.70166 0.0
C4303 C 0.2401 0.76241 0.71128 0.0
C4304 C 0.2453 0.77536 0.72821 0.0
C4305 C 0.23309 0.78522 0.73527 0.0
C4306 C 0.2159 0.78183 0.7259 0.0
H4307 H 0.18469 0.80689 0.68629 0.0
H4308 H 0.19184 0.80721 0.71132 0.0
H4309 H 0.20554 0.80084 0.69415 0.0
H4310 H 0.21913 0.74919 0.68868 0.0
H4311 H 0.24926 0.75458 0.70557 0.0
H4312 H 0.02791 0.37514 0.4118 0.0
H4313 H 0.02916 0.39771 0.4404 0.0
H4314 H 0.04665 0.3581 0.47608 0.0
H4315 H 0.04557 0.33535 0.44757 0.0
H4316 H 1.00998 0.38899 0.47298 0.0
H4317 H 0.08255 0.41012 0.49298 0.0
H4318 H 0.07244 0.39981 0.4689 0.0
H4319 H 0.07269 0.38524 0.48774 0.0
C4320 C 0.0322 0.37124 0.42568 0.0
C4321 C 0.03666 0.35342 0.42736 0.0
C4322 C 0.03282 0.38412 0.44199 0.0
C4323 C 0.03801 0.37949 0.46024 0.0
C4324 C 0.04273 0.36191 0.46206 0.0
H4325 H 0.05482 0.47046 0.558 0.0
H4326 H 0.0506 0.43734 0.54268 0.0
C4327 C 0.04208 0.34896 0.44574 0.0
C4328 C 0.03813 0.39317 0.47727 0.0
H4329 H 0.06544 0.42754 0.5097 0.0
C4330 C 0.02208 0.3972 0.4813 0.0
C4331 C 0.05393 0.40355 0.48821 0.0
C4332 C 0.07145 0.39961 0.48432 0.0
C4333 C 0.02148 0.41225 0.49524 0.0
C4334 C 0.03732 0.42368 0.50506 0.0
C4335 C 0.05332 0.4187 0.50211 0.0
C4336 C 0.03775 0.44262 0.51549 0.0
C4337 C 1.00391 0.41636 0.49873 0.0
C4338 C 0.03188 0.45638 0.50524 0.0
C4339 C 0.03443 0.47512 0.5138 0.0
C4340 C 0.04286 0.48047 0.53279 0.0
C4341 C 0.04819 0.46661 0.54335 0.0
C4342 C 0.04579 0.44777 0.53466 0.0
H4343 H 0.99367 0.40319 0.49565 0.0
H4344 H 1.00441 0.4229 0.51373 0.0
H4345 H 0.99998 0.42638 0.48899 0.0
H4346 H 0.02607 0.4528 0.49028 0.0
H4347 H 0.03038 0.48555 0.50525 0.0
H4348 H 0.47881 0.25542 0.1771 0.0
H4349 H 0.46022 0.26509 0.19979 0.0
H4350 H 0.5018 0.26794 0.24677 0.0
H4351 H 0.52062 0.25835 0.22425 0.0
H4352 H 0.45051 0.24876 0.23429 0.0
H4353 H 0.48957 0.3227 0.2485 0.0
H4354 H 0.49069 0.30638 0.22775 0.0
H4355 H 0.50112 0.30349 0.25096 0.0
C4356 C 0.48398 0.25791 0.19226 0.0
C4357 C 0.50128 0.25634 0.19883 0.0
C4358 C 0.47332 0.26337 0.20518 0.0
C4359 C 0.47979 0.26742 0.22483 0.0
C4360 C 0.49671 0.26504 0.23158 0.0
H4361 H 0.40957 0.29739 0.3047 0.0
H4362 H 0.43472 0.28633 0.29346 0.0
C4363 C 0.50739 0.2595 0.21869 0.0
C4364 C 0.46904 0.27518 0.238 0.0
H4365 H 0.46408 0.31672 0.26259 0.0
C4366 C 0.45358 0.26351 0.24079 0.0
C4367 C 0.47314 0.29448 0.24623 0.0
C4368 C 0.48947 0.30762 0.24321 0.0
C4369 C 0.44175 0.27084 0.25119 0.0
C4370 C 0.44563 0.29027 0.25899 0.0
C4371 C 0.46134 0.30179 0.25671 0.0
C4372 C 0.43249 0.29924 0.26744 0.0
C4373 C 0.42477 0.25807 0.25294 0.0
C4374 C 0.42351 0.31073 0.25681 0.0
C4375 C 0.40925 0.31705 0.26316 0.0
C4376 C 0.40384 0.31203 0.28027 0.0
C4377 C 0.41357 0.30154 0.29151 0.0
C4378 C 0.42781 0.29513 0.28509 0.0
H4379 H 0.42304 0.24382 0.24444 0.0
H4380 H 0.42448 0.25621 0.26819 0.0
H4381 H 0.41351 0.26466 0.24807 0.0
H4382 H 0.42702 0.31404 0.24316 0.0
H4383 H 0.40203 0.32527 0.25434 0.0
H4384 H 0.61027 0.53879 0.35046 0.0
H4385 H 0.59408 0.53314 0.37718 0.0
H4386 H 0.64249 0.54732 0.41677 0.0
H4387 H 0.65873 0.55283 0.39038 0.0
H4388 H 0.6212 0.514 0.42243 0.0
H4389 H 0.58408 0.5725 0.41848 0.0
H4390 H 0.5818 0.55666 0.39654 0.0
H4391 H 0.60271 0.5714 0.40632 0.0
C4392 C 0.61747 0.54085 0.36486 0.0
C4393 C 0.63585 0.54628 0.36816 0.0
C4394 C 0.60818 0.53766 0.38015 0.0
C4395 C 0.61705 0.53995 0.39904 0.0
C4396 C 0.63534 0.54545 0.40235 0.0
H4397 H 0.57652 0.55064 0.50666 0.0
H4398 H 0.59234 0.55476 0.47948 0.0
C4399 C 0.64461 0.54863 0.38716 0.0
C4400 C 0.60751 0.53624 0.41543 0.0
H4401 H 0.57752 0.55153 0.44098 0.0
C4402 C 0.61161 0.52217 0.42646 0.0
C4403 C 0.59515 0.54705 0.42084 0.0
C4404 C 0.59073 0.56287 0.41006 0.0
C4405 C 0.60369 0.51859 0.44267 0.0
C4406 C 0.59115 0.52922 0.44791 0.0
C4407 C 0.58707 0.54332 0.43691 0.0
C4408 C 0.58231 0.52618 0.46493 0.0
C4409 C 0.60914 0.5038 0.45432 0.0
C4410 C 0.57152 0.50868 0.46593 0.0
C4411 C 0.56251 0.50627 0.48151 0.0
C4412 C 0.56405 0.52134 0.49635 0.0
C4413 C 0.57514 0.53872 0.49552 0.0
C4414 C 0.58411 0.54113 0.47994 0.0
H4415 H 0.62181 0.50034 0.45127 0.0
H4416 H 0.61035 0.50867 0.4699 0.0
H4417 H 0.59905 0.49056 0.45071 0.0
H4418 H 0.5697 0.49703 0.45441 0.0
H4419 H 0.55398 0.49276 0.48169 0.0
H4420 H 0.25594 0.84609 0.03885 0.0
H4421 H 0.26523 0.84195 0.07206 0.0
H4422 H 0.28597 0.90207 0.08606 0.0
H4423 H 0.27646 0.90646 0.05277 0.0
H4424 H 0.3092 0.87102 0.09518 0.0
H4425 H 0.24584 0.86537 0.12293 0.0
H4426 H 0.245 0.85348 0.09908 0.0
H4427 H 0.25088 0.87893 0.10376 0.0
C4428 C 0.26233 0.85846 0.04901 0.0
C4429 C 0.26551 0.87658 0.04326 0.0
C4430 C 0.26757 0.85608 0.06794 0.0
C4431 C 0.27617 0.87173 0.08136 0.0
C4432 C 0.27924 0.88989 0.07581 0.0
H4433 H 0.29815 0.84172 0.19707 0.0
H4434 H 0.29517 0.86306 0.17277 0.0
C4435 C 0.27379 0.89234 0.05687 0.0
C4436 C 0.2827 0.86856 0.10086 0.0
H4437 H 0.2681 0.85245 0.1402 0.0
C4438 C 0.30037 0.86742 0.10531 0.0
C4439 C 0.27112 0.86407 0.11396 0.0
C4440 C 0.25215 0.86563 0.10985 0.0
C4441 C 0.30647 0.86044 0.12203 0.0
C4442 C 0.29452 0.85441 0.13435 0.0
C4443 C 0.27719 0.85703 0.13064 0.0
C4444 C 0.29895 0.84296 0.14953 0.0
C4445 C 0.32542 0.85874 0.12596 0.0
C4446 C 0.30216 0.82471 0.14442 0.0
C4447 C 0.30371 0.8125 0.15815 0.0
C4448 C 0.30211 0.81839 0.17721 0.0
C4449 C 0.29959 0.83694 0.18247 0.0
C4450 C 0.29786 0.8491 0.16867 0.0
H4451 H 0.33377 0.86895 0.11877 0.0
H4452 H 0.33036 0.86125 0.14158 0.0
H4453 H 0.32668 0.84417 0.1203 0.0
H4454 H 0.30271 0.81962 0.12963 0.0
H4455 H 0.30574 0.79831 0.15379 0.0
H4456 H 0.95998 0.54216 0.82337 0.0
H4457 H 0.97825 0.54017 0.8538 0.0
H4458 H 0.93607 0.54919 0.88438 0.0
H4459 H 0.9179 0.55118 0.85426 0.0
H4460 H 0.96639 0.5692 0.90503 0.0
H4461 H 0.97719 0.49645 0.88499 0.0
H4462 H 0.98419 0.51279 0.86897 0.0
H4463 H 0.96133 0.50656 0.87079 0.0
C4464 C 0.95457 0.54391 0.83654 0.0
C4465 C 0.93719 0.54695 0.83584 0.0
C4466 C 0.96507 0.54251 0.85415 0.0
C4467 C 0.95876 0.54415 0.87196 0.0
C4468 C 0.94161 0.54772 0.87126 0.0
H4469 H 1.00339 0.50984 0.98348 0.0
H4470 H 0.98546 0.51191 0.95273 0.0
C4471 C 0.93109 0.54891 0.85374 0.0
C4472 C 0.96974 0.54235 0.8912 0.0
H4473 H 0.99271 0.51286 0.91481 0.0
C4474 C 0.97213 0.55683 0.90698 0.0
C4475 C 0.97727 0.52619 0.89454 0.0
C4476 C 0.97478 0.5095 0.87903 0.0
C4477 C 0.98179 0.55585 0.92524 0.0
C4478 C 0.98968 0.53991 0.92846 0.0
C4479 C 0.987 0.52524 0.91281 0.0
C4480 C 1.00077 0.53843 0.94771 0.0
C4481 C 0.98311 0.5719 0.94118 0.0
C4482 C 0.01574 0.55238 0.95575 0.0
C4483 C 0.0261 0.55112 0.97336 0.0
C4484 C 0.02206 0.5359 0.984 0.0
C4485 C 1.00706 0.5219 0.97606 0.0
C4486 C 0.99675 0.52306 0.95823 0.0
H4487 H 0.97258 0.58013 0.93842 0.0
H4488 H 0.98236 0.56651 0.95515 0.0
H4489 H 0.99587 0.58176 0.9423 0.0
H4490 H 0.01969 0.56428 0.94822 0.0
H4491 H 0.0375 0.56221 0.97864 0.0
H4492 H 0.2725 0.1572 0.58339 0.0
H4493 H 0.27516 0.1722 0.61654 0.0
H4494 H 0.28285 0.22747 0.59778 0.0
H4495 H 0.2809 0.21256 0.56474 0.0
H4496 H 0.30403 0.2289 0.62958 0.0
H4497 H 0.2384 0.1933 0.64042 0.0
H4498 H 0.25172 0.17653 0.63422 0.0
H4499 H 0.2454 0.1918 0.61725 0.0
C4500 C 0.27487 0.17255 0.58634 0.0
C4501 C 0.27643 0.18365 0.57136 0.0
C4502 C 0.2762 0.18114 0.60532 0.0
C4503 C 0.27872 0.20102 0.60975 0.0
C4504 C 0.28077 0.21212 0.59484 0.0
H4505 H 0.25994 0.25824 0.71868 0.0
H4506 H 0.25784 0.24444 0.68513 0.0
C4507 C 0.27968 0.20356 0.5759 0.0
C4508 C 0.27942 0.21029 0.62985 0.0
H4509 H 0.25749 0.20998 0.66839 0.0
C4510 C 0.29378 0.22479 0.638 0.0
C4511 C 0.26592 0.20533 0.64086 0.0
C4512 C 0.24941 0.19104 0.63268 0.0
C4513 C 0.2952 0.23412 0.65678 0.0
C4514 C 0.28217 0.22844 0.66815 0.0
C4515 C 0.26762 0.21423 0.65988 0.0
C4516 C 0.28344 0.23694 0.68862 0.0
C4517 C 0.3105 0.2503 0.66403 0.0
C4518 C 0.29837 0.23712 0.70198 0.0
C4519 C 0.29969 0.24522 0.72108 0.0
C4520 C 0.28595 0.25304 0.72752 0.0
C4521 C 0.2708 0.25242 0.71427 0.0
C4522 C 0.26958 0.2445 0.69505 0.0
H4523 H 0.31567 0.25692 0.65202 0.0
H4524 H 0.30681 0.26148 0.67382 0.0
H4525 H 0.32124 0.24479 0.67194 0.0
H4526 H 0.30903 0.23085 0.69769 0.0
H4527 H 0.31148 0.24515 0.73085 0.0
H4528 H 0.59907 0.53284 0.26163 0.0
H4529 H 0.58608 0.52868 0.22778 0.0
H4530 H 0.63751 0.5336 0.21158 0.0
H4531 H 0.65056 0.53843 0.24534 0.0
H4532 H 0.61985 0.55504 0.19287 0.0
H4533 H 0.57729 0.48412 0.18657 0.0
H4534 H 0.57268 0.50066 0.20504 0.0
H4535 H 0.59368 0.49373 0.20724 0.0
C4536 C 0.60759 0.53281 0.25083 0.0
C4537 C 0.62585 0.53595 0.25619 0.0
C4538 C 0.60013 0.5303 0.23145 0.0
C4539 C 0.61076 0.53052 0.217 0.0
C4540 C 0.62899 0.53333 0.22238 0.0
H4541 H 0.57232 0.49824 0.09426 0.0
H4542 H 0.58518 0.49916 0.12773 0.0
C4543 C 0.63645 0.53606 0.24172 0.0
C4544 C 0.60309 0.52901 0.19637 0.0
H4545 H 0.57233 0.50194 0.16065 0.0
C4546 C 0.60953 0.54335 0.18583 0.0
C4547 C 0.58979 0.51363 0.18699 0.0
C4548 C 0.58308 0.49706 0.19698 0.0
C4549 C 0.60292 0.54292 0.16639 0.0
C4550 C 0.58903 0.52804 0.15726 0.0
C4551 C 0.58279 0.51349 0.16767 0.0
C4552 C 0.58088 0.52732 0.13693 0.0
C4553 C 0.61121 0.55825 0.15576 0.0
C4554 C 0.57384 0.54265 0.13091 0.0
C4555 C 0.5667 0.54225 0.11172 0.0
C4556 C 0.56612 0.52635 0.09811 0.0
C4557 C 0.57266 0.51076 0.10428 0.0
C4558 C 0.57999 0.51125 0.12346 0.0
H4559 H 0.62479 0.56471 0.16275 0.0
H4560 H 0.61156 0.55259 0.14067 0.0
H4561 H 0.60349 0.5697 0.15577 0.0
H4562 H 0.57385 0.55498 0.14108 0.0
H4563 H 0.56156 0.55442 0.10759 0.0
H4564 H 0.25188 0.83063 0.95393 0.0
H4565 H 0.25525 0.80607 0.92894 0.0
H4566 H 0.23658 0.83807 0.88558 0.0
H4567 H 0.23308 0.86274 0.91038 0.0
H4568 H 0.22402 0.79608 0.87844 0.0
H4569 H 0.29642 0.81957 0.89767 0.0
H4570 H 0.28418 0.81351 0.91654 0.0
H4571 H 0.28145 0.83407 0.90531 0.0
C4572 C 0.2482 0.83235 0.93909 0.0
C4573 C 0.24243 0.84884 0.93418 0.0
C4574 C 0.25017 0.81829 0.92485 0.0
C4575 C 0.2464 0.82045 0.9055 0.0
C4576 C 0.23959 0.83622 0.90049 0.0
H4577 H 0.25892 0.78645 0.7934 0.0
H4578 H 0.24911 0.79576 0.82345 0.0
C4579 C 0.23762 0.85032 0.9147 0.0
C4580 C 0.25099 0.80729 0.89043 0.0
H4581 H 0.28593 0.79705 0.87044 0.0
C4582 C 0.23754 0.79603 0.87682 0.0
C4583 C 0.26865 0.80717 0.88852 0.0
C4584 C 0.28358 0.81927 0.90268 0.0
C4585 C 0.24131 0.78518 0.86084 0.0
C4586 C 0.25897 0.78602 0.85826 0.0
C4587 C 0.27241 0.79642 0.87247 0.0
C4588 C 0.26375 0.77859 0.83985 0.0
C4589 C 0.22634 0.77326 0.84664 0.0
C4590 C 0.27556 0.76611 0.83913 0.0
C4591 C 0.28142 0.76094 0.82188 0.0
C4592 C 0.27568 0.7684 0.8053 0.0
C4593 C 0.26361 0.78055 0.80602 0.0
C4594 C 0.25781 0.78569 0.82314 0.0
H4595 H 0.21486 0.76856 0.85375 0.0
H4596 H 0.2222 0.78192 0.83555 0.0
H4597 H 0.23019 0.76054 0.83944 0.0
H4598 H 0.28047 0.76069 0.85196 0.0
H4599 H 0.29077 0.75159 0.82164 0.0
H4600 H 0.96554 0.55676 0.73704 0.0
H4601 H 0.97981 0.55449 0.70841 0.0
H4602 H 0.93004 0.52946 0.674 0.0
H4603 H 0.91571 0.53204 0.70264 0.0
H4604 H 0.98588 0.5277 0.68406 0.0
H4605 H 0.94499 0.56524 0.63854 0.0
H4606 H 0.94356 0.56496 0.66361 0.0
H4607 H 0.9323 0.54505 0.64617 0.0
C4608 C 0.95746 0.55095 0.72339 0.0
C4609 C 0.93917 0.54484 0.72266 0.0
C4610 C 0.96578 0.54955 0.70674 0.0
C4611 C 0.95635 0.5421 0.68823 0.0
C4612 C 0.93803 0.53586 0.68752 0.0
H4613 H 0.98749 0.52115 0.57045 0.0
H4614 H 0.9718 0.52308 0.59821 0.0
C4615 C 0.92969 0.53723 0.70422 0.0
C4616 C 0.96573 0.54042 0.67022 0.0
H4617 H 0.9645 0.54945 0.62319 0.0
C4618 C 0.98109 0.53262 0.67087 0.0
C4619 C 0.96 0.54656 0.6524 0.0
C4620 C 0.94443 0.55609 0.65011 0.0
C4621 C 0.9903 0.53052 0.65486 0.0
C4622 C 0.98466 0.53679 0.63708 0.0
C4623 C 0.96924 0.54449 0.63637 0.0
C4624 C 0.99453 0.53565 0.61941 0.0
C4625 C 1.00579 0.52085 0.65716 0.0
C4626 C 1.01284 0.54226 0.62102 0.0
C4627 C 0.02194 0.54108 0.60496 0.0
C4628 C 1.01332 0.53338 0.58617 0.0
C4629 C 0.99494 0.52707 0.5844 0.0
C4630 C 0.98582 0.52825 0.60054 0.0
H4631 H 1.00489 0.51132 0.66839 0.0
H4632 H 1.00691 0.51233 0.64355 0.0
H4633 H 0.01794 0.53178 0.66167 0.0
H4634 H 0.02029 0.54869 0.63481 0.0
H4635 H 0.03593 0.54641 0.60738 0.0
H4636 H 0.27028 0.2036 0.47841 0.0
H4637 H 0.27278 0.22322 0.45249 0.0
H4638 H 0.26354 0.17267 0.41123 0.0
H4639 H 0.26066 0.15303 0.43684 0.0
H4640 H 0.2955 0.22682 0.42777 0.0
H4641 H 0.22949 0.20102 0.38576 0.0
H4642 H 0.23519 0.19571 0.40974 0.0
H4643 H 0.24074 0.1819 0.38957 0.0
C4644 C 0.26867 0.19662 0.46381 0.0
C4645 C 0.2652 0.17663 0.45986 0.0
C4646 C 0.2701 0.2079 0.44895 0.0
C4647 C 0.26799 0.19952 0.42972 0.0
C4648 C 0.26471 0.17959 0.42579 0.0
H4649 H 0.3111 0.24812 0.33681 0.0
H4650 H 0.30307 0.23054 0.36275 0.0
C4651 C 0.26324 0.16833 0.44058 0.0
C4652 C 0.27009 0.21152 0.41389 0.0
H4653 H 0.25092 0.21807 0.3695 0.0
C4654 C 0.28564 0.22498 0.41515 0.0
C4655 C 0.25717 0.20953 0.39742 0.0
C4656 C 0.23964 0.1964 0.3956 0.0
C4657 C 0.28892 0.23583 0.40024 0.0
C4658 C 0.27648 0.23298 0.38326 0.0
C4659 C 0.2606 0.22012 0.38231 0.0
C4660 C 0.2802 0.24261 0.36618 0.0
C4661 C 0.30574 0.25034 0.40288 0.0
C4662 C 0.26953 0.25462 0.35859 0.0
C4663 C 0.27403 0.26463 0.34342 0.0
C4664 C 0.28922 0.26268 0.33554 0.0
C4665 C 0.29937 0.25005 0.34265 0.0
C4666 C 0.29486 0.24006 0.35761 0.0
H4667 H 0.311 0.25501 0.41831 0.0
H4668 H 0.3157 0.2439 0.39626 0.0
H4669 H 0.30382 0.26303 0.39597 0.0
H4670 H 0.25808 0.25679 0.36485 0.0
H4671 H 0.26617 0.27455 0.33859 0.0
H4672 H 0.38847 0.69295 0.55708 0.0
H4673 H 0.41589 0.68647 0.54771 0.0
H4674 H 0.38678 0.64563 0.50037 0.0
H4675 H 0.35952 0.65222 0.50932 0.0
H4676 H 0.42076 0.65134 0.55074 0.0
H4677 H 0.42964 0.66527 0.47774 0.0
H4678 H 0.41552 0.67672 0.49124 0.0
H4679 H 0.4076 0.65339 0.4778 0.0
C4680 C 0.38793 0.68313 0.54424 0.0
C4681 C 0.37181 0.67276 0.5342 0.0
C4682 C 0.40363 0.67951 0.53886 0.0
C4683 C 0.40341 0.66562 0.5233 0.0
C4684 C 0.38735 0.65669 0.51218 0.0
H4685 H 0.4413 0.5696 0.49158 0.0
H4686 H 0.42939 0.59876 0.49268 0.0
C4687 C 0.3717 0.66027 0.51752 0.0
C4688 C 0.41894 0.657 0.5215 0.0
H4689 H 0.44024 0.63728 0.48804 0.0
C4690 C 0.4255 0.64879 0.53721 0.0
C4691 C 0.42498 0.65359 0.50381 0.0
C4692 C 0.41916 0.66291 0.48677 0.0
C4693 C 0.43659 0.63579 0.53526 0.0
C4694 C 0.44168 0.63132 0.51719 0.0
C4695 C 0.43623 0.64066 0.50184 0.0
C4696 C 0.45075 0.61533 0.5136 0.0
C4697 C 0.4415 0.62577 0.55218 0.0
C4698 C 0.46699 0.61527 0.52441 0.0
C4699 C 0.47354 0.59855 0.52418 0.0
C4700 C 0.46422 0.58179 0.51267 0.0
C4701 C 0.44871 0.58231 0.50059 0.0
C4702 C 0.44197 0.59897 0.50115 0.0
H4703 H 0.43373 0.62827 0.56384 0.0
H4704 H 0.43955 0.61021 0.54773 0.0
H4705 H 0.45552 0.63111 0.55813 0.0
H4706 H 0.47413 0.62787 0.53381 0.0
H4707 H 0.48567 0.59859 0.53342 0.0
H4708 H 0.8672 0.89421 0.53876 0.0
H4709 H 0.8976 0.90967 0.53823 0.0
H4710 H 0.89218 0.9559 0.57953 0.0
H4711 H 0.86196 0.94021 0.58032 0.0
H4712 H 0.90931 0.943 0.52696 0.0
H4713 H 0.93853 0.94563 0.60247 0.0
H4714 H 0.91742 0.93119 0.5924 0.0
H4715 H 0.91945 0.95613 0.60049 0.0
C4716 C 0.87261 0.90761 0.54781 0.0
C4717 C 0.86213 0.91636 0.55912 0.0
C4718 C 0.88997 0.91643 0.54752 0.0
C4719 C 0.89735 0.93393 0.55895 0.0
C4720 C 0.88701 0.94226 0.57084 0.0
H4721 H 0.9909 0.02095 0.57346 0.0
H4722 H 0.96337 0.99993 0.57544 0.0
C4723 C 0.86964 0.93346 0.57106 0.0
C4724 C 0.91538 0.94406 0.5575 0.0
H4725 H 0.95477 0.96605 0.58403 0.0
C4726 C 0.91917 0.94817 0.53947 0.0
C4727 C 0.92856 0.95035 0.5737 0.0
C4728 C 0.92587 0.94543 0.59332 0.0
C4729 C 0.93516 0.95948 0.53735 0.0
C4730 C 0.94831 0.96604 0.5536 0.0
C4731 C 0.94477 0.96123 0.57154 0.0
C4732 C 0.9655 0.97848 0.55251 0.0
C4733 C 0.93735 0.96499 0.5178 0.0
C4734 C 0.97623 0.97345 0.53918 0.0
C4735 C 0.99186 0.98574 0.53774 0.0
C4736 C 0.9974 1.00305 0.55 0.0
C4737 C 0.98702 1.00773 0.56379 0.0
C4738 C 0.97125 0.99565 0.56496 0.0
H4739 H 0.9245 0.96395 0.50868 0.0
H4740 H 0.94485 0.97973 0.51888 0.0
H4741 H 0.94449 0.95516 0.51044 0.0
H4742 H 0.9725 0.96006 0.52979 0.0
H4743 H 0.99952 0.98174 0.52692 0.0
H4744 H 0.90311 0.05873 0.2921 0.0
H4745 H 0.8964 0.08978 0.28783 0.0
H4746 H 0.92684 0.09325 0.2417 0.0
H4747 H 0.93369 0.06185 0.24587 0.0
H4748 H 0.91976 0.12671 0.28767 0.0
H4749 H 0.87564 0.09786 0.21856 0.0
H4750 H 0.88225 0.08243 0.23528 0.0
H4751 H 0.89769 0.09368 0.22162 0.0
C4752 C 0.90855 0.06611 0.28113 0.0
C4753 C 0.91881 0.05772 0.2692 0.0
C4754 C 0.90475 0.08391 0.27877 0.0
C4755 C 0.91099 0.09371 0.26436 0.0
C4756 C 0.9218 0.0858 0.25283 0.0
H4757 H 0.8592 0.18758 0.23424 0.0
H4758 H 0.88112 0.1672 0.23397 0.0
C4759 C 0.92577 0.06794 0.25529 0.0
C4760 C 0.90505 0.11158 0.261 0.0
H4761 H 0.87392 0.1281 0.23297 0.0
C4762 C 0.91003 0.12722 0.27549 0.0
C4763 C 0.89244 0.11223 0.24505 0.0
C4764 C 0.88655 0.09569 0.2292 0.0
C4765 C 0.902 0.14307 0.275 0.0
C4766 C 0.88838 0.14306 0.25983 0.0
C4767 C 0.88431 0.12804 0.24463 0.0
C4768 C 0.87665 0.15701 0.26075 0.0
C4769 C 0.90776 0.1594 0.29107 0.0
C4770 C 0.86689 0.15804 0.27586 0.0
C4771 C 0.85441 0.16956 0.27603 0.0
C4772 C 0.85131 0.18024 0.261 0.0
C4773 C 0.8614 0.17961 0.24608 0.0
C4774 C 0.87387 0.16795 0.24588 0.0
H4775 H 0.92169 0.16053 0.29733 0.0
H4776 H 0.90608 0.1731 0.28608 0.0
H4777 H 0.89976 0.15692 0.30262 0.0
H4778 H 0.86851 0.14943 0.28728 0.0
H4779 H 0.84698 0.16989 0.28781 0.0
H4780 H 0.80599 0.1274 0.06459 0.0
H4781 H 0.77834 0.10587 0.06557 0.0
H4782 H 0.75167 0.15323 0.06518 0.0
H4783 H 0.77896 0.17422 0.06219 0.0
H4784 H 0.75753 0.10301 0.08976 0.0
H4785 H 0.71974 0.11875 0.02424 0.0
H4786 H 0.74207 0.1305 0.03217 0.0
H4787 H 0.72473 0.1393 0.04209 0.0
C4788 C 0.79403 0.13295 0.06391 0.0
C4789 C 0.79427 0.1521 0.06204 0.0
C4790 C 0.7783 0.12077 0.06485 0.0
C4791 C 0.76269 0.12773 0.0647 0.0
C4792 C 0.76328 0.14726 0.06432 0.0
H4793 H 0.66578 0.07894 0.09828 0.0
H4794 H 0.69621 0.09355 0.09813 0.0
C4795 C 0.77889 0.15928 0.06277 0.0
C4796 C 0.74597 0.11469 0.06561 0.0
H4797 H 0.70305 0.10147 0.04507 0.0
C4798 C 0.74569 0.10254 0.0798 0.0
C4799 C 0.73038 0.11405 0.05272 0.0
C4800 C 0.72932 0.12626 0.03688 0.0
C4801 C 0.73029 0.09005 0.08159 0.0
C4802 C 0.7148 0.08979 0.06893 0.0
C4803 C 0.71506 0.10166 0.05465 0.0
C4804 C 0.6978 0.07818 0.07073 0.0
C4805 C 0.73065 0.07727 0.09697 0.0
C4806 C 0.68875 0.06448 0.05549 0.0
C4807 C 0.67135 0.056 0.05555 0.0
C4808 C 0.66268 0.06128 0.07077 0.0
C4809 C 0.67212 0.07432 0.08647 0.0
C4810 C 0.68953 0.0827 0.08643 0.0
H4811 H 0.74421 0.07595 0.10253 0.0
H4812 H 0.72486 0.08331 0.1091 0.0
H4813 H 0.72276 0.06288 0.09146 0.0
H4814 H 0.69495 0.06091 0.0432 0.0
H4815 H 0.66452 0.04581 0.04338 0.0
H4816 H 0.17262 0.44709 0.28256 0.0
H4817 H 0.18554 0.41818 0.28044 0.0
H4818 H 0.23147 0.44867 0.31858 0.0
H4819 H 0.21856 0.4767 0.32141 0.0
H4820 H 0.21112 0.40442 0.26833 0.0
H4821 H 0.2283 0.4052 0.34588 0.0
H4822 H 0.2152 0.42109 0.3364 0.0
H4823 H 0.23882 0.42706 0.33927 0.0
C4824 C 0.18538 0.44767 0.29076 0.0
C4825 C 0.19405 0.46488 0.3025 0.0
C4826 C 0.19296 0.43084 0.28949 0.0
C4827 C 0.20967 0.43017 0.29984 0.0
C4828 C 0.2184 0.44759 0.31098 0.0
H4829 H 0.28577 0.35 0.3083 0.0
H4830 H 0.27041 0.37687 0.3097 0.0
C4831 C 0.21083 0.46414 0.31243 0.0
C4832 C 0.2182 0.41196 0.29887 0.0
H4833 H 0.24269 0.38601 0.32622 0.0
C4834 C 0.21781 0.40049 0.28117 0.0
C4835 C 0.22721 0.40581 0.31526 0.0
C4836 C 0.22725 0.4153 0.33526 0.0
C4837 C 0.22625 0.38432 0.27941 0.0
C4838 C 0.23566 0.37859 0.29573 0.0
C4839 C 0.2359 0.38991 0.31341 0.0
C4840 C 0.24527 0.36125 0.29485 0.0
C4841 C 0.22543 0.37381 0.25968 0.0
C4842 C 0.23682 0.34254 0.2864 0.0
C4843 C 0.24571 0.3268 0.28579 0.0
C4844 C 0.26368 0.32871 0.29348 0.0
C4845 C 0.27208 0.34739 0.30207 0.0
C4846 C 0.26313 0.36307 0.30289 0.0
H4847 H 0.22224 0.38258 0.2483 0.0
H4848 H 0.23803 0.3694 0.25797 0.0
H4849 H 0.21502 0.36084 0.25751 0.0
H4850 H 0.22309 0.33989 0.28038 0.0
H4851 H 0.23836 0.31298 0.2791 0.0
H4852 H 0.27859 0.44957 0.0478 0.0
H4853 H 0.25005 0.45811 0.04652 0.0
H4854 H 0.22731 0.4013 0.05485 0.0
H4855 H 0.25634 0.39249 0.05635 0.0
H4856 H 0.22098 0.44207 0.01952 0.0
H4857 H 0.20662 0.43479 0.09325 0.0
H4858 H 0.2284 0.43609 0.08729 0.0
H4859 H 0.21233 0.41461 0.08012 0.0
C4860 C 0.26763 0.43877 0.04951 0.0
C4861 C 0.26988 0.42021 0.05205 0.0
C4862 C 0.25123 0.44376 0.04877 0.0
C4863 C 0.23643 0.43044 0.05059 0.0
C4864 C 0.23855 0.41196 0.05364 0.0
H4865 H 0.12905 0.45473 0.04207 0.0
H4866 H 0.15357 0.43778 0.04476 0.0
C4867 C 0.25515 0.40691 0.05446 0.0
C4868 C 0.21893 0.4361 0.04824 0.0
H4869 H 0.18588 0.44574 0.07239 0.0
C4870 C 0.21325 0.44269 0.03106 0.0
C4871 C 0.20871 0.43686 0.0632 0.0
C4872 C 0.21429 0.43034 0.08209 0.0
C4873 C 0.19804 0.45046 0.02861 0.0
C4874 C 0.18824 0.452 0.04384 0.0
C4875 C 0.19343 0.44467 0.06075 0.0
C4876 C 0.17327 0.46224 0.04277 0.0
C4877 C 0.19268 0.45715 1.00974 0.0
C4878 C 0.17614 0.48169 0.041 0.0
C4879 C 0.1622 0.49139 0.03945 0.0
C4880 C 0.14494 0.48194 0.03965 0.0
C4881 C 0.1421 0.46246 0.04164 0.0
C4882 C 0.15613 0.45276 0.04331 0.0
H4883 H 0.19846 0.45031 0.99801 0.0
H4884 H 0.17821 0.45412 1.00572 0.0
H4885 H 0.19738 0.47274 1.01104 0.0
H4886 H 0.18924 0.48941 0.04075 0.0
H4887 H 0.16494 0.50629 0.03772 0.0
H4888 H 0.92959 0.94655 0.28337 0.0
H4889 H 0.91097 0.91532 0.28314 0.0
H4890 H 0.87116 0.92995 0.24273 0.0
H4891 H 0.88997 0.9609 0.24264 0.0
H4892 H 0.88004 0.90892 0.29483 0.0
H4893 H 0.87142 0.87668 0.21923 0.0
H4894 H 0.88806 0.89735 0.22912 0.0
H4895 H 0.8659 0.8998 0.22142 0.0
C4896 C 0.91692 0.94293 0.27432 0.0
C4897 C 0.91089 0.95623 0.2635 0.0
C4898 C 0.90632 0.92512 0.27415 0.0
C4899 C 0.88969 0.92014 0.26277 0.0
C4900 C 0.88404 0.93321 0.25131 0.0
H4901 H 0.7979 0.82975 0.25071 0.0
H4902 H 0.82002 0.8572 0.24716 0.0
C4903 C 0.89464 0.95102 0.25153 0.0
C4904 C 0.87763 0.90214 0.26428 0.0
H4905 H 0.85103 0.86247 0.23818 0.0
C4906 C 0.8735 0.89897 0.2824 0.0
C4907 C 0.86951 0.88871 0.24814 0.0
C4908 C 0.87408 0.89068 0.22842 0.0
C4909 C 0.86061 0.88362 0.28473 0.0
C4910 C 0.85248 0.87006 0.26863 0.0
C4911 C 0.8571 0.87284 0.25054 0.0
C4912 C 0.83924 0.85297 0.2703 0.0
C4913 C 0.85535 0.88278 0.30435 0.0
C4914 C 0.84266 0.84117 0.28422 0.0
C4915 C 0.8298 0.82599 0.28671 0.0
C4916 C 0.81354 0.82156 0.27468 0.0
C4917 C 0.81033 0.83281 0.26019 0.0
C4918 C 0.82301 0.84844 0.2581 0.0
H4919 H 0.85794 0.89715 0.31283 0.0
H4920 H 0.84125 0.87653 0.30342 0.0
H4921 H 0.86321 0.87402 0.31235 0.0
H4922 H 0.85521 0.84384 0.29341 0.0
H4923 H 0.83251 0.81795 0.29831 0.0
H4924 H 0.67112 0.07796 0.81247 0.0
H4925 H 0.68682 0.11046 0.81171 0.0
H4926 H 0.72798 0.08804 0.7884 0.0
H4927 H 0.71209 0.05551 0.7889 0.0
H4928 H 0.74212 0.11984 0.81582 0.0
H4929 H 0.68993 0.1385 0.76549 0.0
H4930 H 0.68261 0.13063 0.78666 0.0
H4931 H 0.68996 0.11439 0.76994 0.0
C4932 C 0.68359 0.07988 0.8073 0.0
C4933 C 0.69045 0.06376 0.80137 0.0
C4934 C 0.6926 0.09867 0.80671 0.0
C4935 C 0.70879 0.10227 0.79982 0.0
C4936 C 0.71567 0.08614 0.79389 0.0
H4937 H 0.75746 0.21065 0.76225 0.0
H4938 H 0.74251 0.17834 0.76473 0.0
C4939 C 0.70658 0.06734 0.79437 0.0
C4940 C 0.71832 0.12261 0.79857 0.0
H4941 H 0.7135 0.16362 0.77939 0.0
C4942 C 0.73574 0.12933 0.80786 0.0
C4943 C 0.7105 0.13543 0.78801 0.0
C4944 C 0.69229 0.12939 0.77679 0.0
C4945 C 0.74515 0.14807 0.80722 0.0
C4946 C 0.73717 0.16105 0.79702 0.0
C4947 C 0.71987 0.15417 0.78744 0.0
C4948 C 0.74658 0.18144 0.7957 0.0
C4949 C 0.76384 0.15359 0.81718 0.0
C4950 C 0.75398 0.19481 0.81215 0.0
C4951 C 0.76255 0.21361 0.81074 0.0
C4952 C 0.76421 0.21998 0.79281 0.0
C4953 C 0.7567 0.20663 0.77639 0.0
C4954 C 0.748 0.18791 0.7778 0.0
H4955 H 0.76958 0.14093 0.81973 0.0
H4956 H 0.77211 0.16238 0.80867 0.0
H4957 H 0.76424 0.16207 0.8313 0.0
H4958 H 0.75296 0.19082 0.82625 0.0
H4959 H 0.76793 0.22319 0.82383 0.0
loop_
_geom_bond_atom_site_label_1
_geom_bond_atom_site_label_2
_geom_bond_distance
_geom_bond_site_symmetry_2
_ccdc_geom_bond_type
Mn0 O5 2.095 . S
Mn0 O15 2.162 . S
Mn0 O16 2.297 1_455 S
Mn0 O24 2.385 1_455 S
Mn0 O25 2.209 1_455 S
Mn0 O26 2.094 . S
Mn1 O6 2.126 1_655 S
Mn1 N8 2.256 . S
Mn1 N17 2.277 . S
Mn1 O25 2.213 . S
Mn1 O27 2.117 1_655 S
C2 O24 1.234 . S
C2 O25 1.283 . S
C3 O15 1.281 1_655 S
C3 O16 1.236 . S
C4 O26 1.240 . S
C4 O27 1.264 . S
O5 Mn0 2.095 . S
O5 C14 1.250 . S
O6 Mn1 2.126 1_455 S
O6 C14 1.258 . S
C7 N8 1.326 . S
C7 C11 1.460 . S
C7 H13 0.929 1_655 S
N8 Mn1 2.256 . S
N8 C7 1.326 . S
N8 C12 1.362 . S
C9 C10 1.258 . S
C9 C12 1.431 . S
C9 C29 1.449 . S
C10 C9 1.258 . S
C10 C11 1.477 . S
C10 H30 0.931 . S
C11 C7 1.460 . S
C11 C10 1.477 . S
C11 H31 0.930 . S
C12 N8 1.362 . S
C12 C9 1.431 . S
C12 C22 1.476 . S
H13 C7 0.929 1_455 S
C14 O5 1.250 . S
C14 O6 1.258 . S
O15 Mn0 2.162 . S
O15 C3 1.281 1_455 S
O16 Mn0 2.297 1_655 S
O16 C3 1.236 . S
N17 Mn1 2.277 . S
N17 C18 1.328 . S
N17 C22 1.318 . S
C18 N17 1.328 . S
C18 C19 1.457 . S
C18 H23 0.929 . S
C19 C18 1.457 . S
C19 C20 1.291 . S
C19 H32 0.931 . S
C20 C19 1.291 . S
C20 C21 1.373 . S
C20 H33 0.929 . S
C21 C20 1.373 . S
C21 C22 1.396 . S
C21 C28 1.403 . S
C22 C12 1.476 . S
C22 N17 1.318 . S
C22 C21 1.396 . S
H23 C18 0.929 . S
O24 Mn0 2.385 1_655 S
O24 C2 1.234 . S
O25 Mn0 2.209 1_655 S
O25 Mn1 2.213 . S
O25 C2 1.283 . S
O26 Mn0 2.094 . S
O26 C4 1.240 . S
O27 Mn1 2.117 1_455 S
O27 C4 1.264 . S
C28 C21 1.403 . S
C28 C29 1.399 . S
C28 H34 0.929 . S
C29 C9 1.449 . S
C29 C28 1.399 . S
C29 H35 0.930 . S
H30 C10 0.931 . S
H31 C11 0.930 . S
H32 C19 0.931 . S
H33 C20 0.929 . S
H34 C28 0.929 . S
H35 C29 0.930 . S
Mn36 O41 2.095 . S
Mn36 O51 2.162 . S
Mn36 O52 2.297 . S
Mn36 O60 2.385 . S
Mn36 O61 2.209 . S
Mn36 O62 2.094 . S
Mn37 O42 2.121 . S
Mn37 N44 2.257 . S
Mn37 N53 2.282 . S
Mn37 O61 2.215 . S
Mn37 O63 2.117 . S
C38 O60 1.234 . S
C38 O61 1.283 . S
C39 O51 1.281 . S
C39 O52 1.236 . S
C40 O62 1.240 . S
C40 O63 1.264 . S
O41 Mn36 2.095 . S
O41 C50 1.250 . S
O42 Mn37 2.121 . S
O42 C50 1.258 . S
C43 N44 1.326 . S
C43 C47 1.460 . S
C43 H49 0.929 . S
N44 Mn37 2.257 . S
N44 C43 1.326 . S
N44 C48 1.362 . S
C45 C46 1.258 . S
C45 C48 1.431 . S
C45 C65 1.449 . S
C46 C45 1.258 . S
C46 C47 1.477 . S
C46 H66 0.931 . S
C47 C43 1.460 . S
C47 C46 1.477 . S
C47 H67 0.930 . S
C48 N44 1.362 . S
C48 C45 1.431 . S
C48 C58 1.476 . S
H49 C43 0.929 . S
C50 O41 1.250 . S
C50 O42 1.258 . S
O51 Mn36 2.162 . S
O51 C39 1.281 . S
O52 Mn36 2.297 . S
O52 C39 1.236 . S
N53 Mn37 2.282 . S
N53 C54 1.328 . S
N53 C58 1.318 . S
C54 N53 1.328 . S
C54 C55 1.457 . S
C54 H59 0.929 . S
C55 C54 1.457 . S
C55 C56 1.291 . S
C55 H68 0.931 . S
C56 C55 1.291 . S
C56 C57 1.373 . S
C56 H69 0.929 . S
C57 C56 1.373 . S
C57 C58 1.396 . S
C57 C64 1.403 . S
C58 C48 1.476 . S
C58 N53 1.318 . S
C58 C57 1.396 . S
H59 C54 0.929 . S
O60 Mn36 2.385 . S
O60 C38 1.234 . S
O61 Mn36 2.209 . S
O61 Mn37 2.215 . S
O61 C38 1.283 . S
O62 Mn36 2.094 . S
O62 C40 1.240 . S
O63 Mn37 2.117 . S
O63 C40 1.264 . S
C64 C57 1.403 . S
C64 C65 1.399 . S
C64 H70 0.929 . S
C65 C45 1.449 . S
C65 C64 1.399 . S
C65 H71 0.930 . S
H66 C46 0.931 . S
H67 C47 0.930 . S
H68 C55 0.931 . S
H69 C56 0.929 . S
H70 C64 0.929 . S
H71 C65 0.930 . S
Mn72 O77 2.095 . S
Mn72 O87 2.162 . S
Mn72 O88 2.297 . S
Mn72 O96 2.385 . S
Mn72 O97 2.209 . S
Mn72 O98 2.094 . S
Mn73 O78 2.121 . S
Mn73 N80 2.257 . S
Mn73 N89 2.282 . S
Mn73 O97 2.215 . S
Mn73 O99 2.117 . S
C74 O96 1.234 . S
C74 O97 1.283 . S
C75 O87 1.281 . S
C75 O88 1.236 . S
C76 O98 1.240 . S
C76 O99 1.264 . S
O77 Mn72 2.095 . S
O77 C86 1.250 . S
O78 Mn73 2.121 . S
O78 C86 1.258 . S
C79 N80 1.326 . S
C79 C83 1.460 . S
C79 H85 0.929 . S
N80 Mn73 2.257 . S
N80 C79 1.326 . S
N80 C84 1.362 . S
C81 C82 1.258 . S
C81 C84 1.431 . S
C81 C101 1.449 . S
C82 C81 1.258 . S
C82 C83 1.477 . S
C82 H102 0.931 . S
C83 C79 1.460 . S
C83 C82 1.477 . S
C83 H103 0.930 . S
C84 N80 1.362 . S
C84 C81 1.431 . S
C84 C94 1.476 . S
H85 C79 0.929 . S
C86 O77 1.250 . S
C86 O78 1.258 . S
O87 Mn72 2.162 . S
O87 C75 1.281 . S
O88 Mn72 2.297 . S
O88 C75 1.236 . S
N89 Mn73 2.282 . S
N89 C90 1.328 . S
N89 C94 1.318 . S
C90 N89 1.328 . S
C90 C91 1.457 . S
C90 H95 0.929 . S
C91 C90 1.457 . S
C91 C92 1.291 . S
C91 H104 0.931 . S
C92 C91 1.291 . S
C92 C93 1.373 . S
C92 H105 0.929 . S
C93 C92 1.373 . S
C93 C94 1.396 . S
C93 C100 1.403 . S
C94 C84 1.476 . S
C94 N89 1.318 . S
C94 C93 1.396 . S
H95 C90 0.929 . S
O96 Mn72 2.385 . S
O96 C74 1.234 . S
O97 Mn72 2.209 . S
O97 Mn73 2.215 . S
O97 C74 1.283 . S
O98 Mn72 2.094 . S
O98 C76 1.240 . S
O99 Mn73 2.117 . S
O99 C76 1.264 . S
C100 C93 1.403 . S
C100 C101 1.399 . S
C100 H106 0.929 . S
C101 C81 1.449 . S
C101 C100 1.399 . S
C101 H107 0.930 . S
H102 C82 0.931 . S
H103 C83 0.930 . S
H104 C91 0.931 . S
H105 C92 0.929 . S
H106 C100 0.929 . S
H107 C101 0.930 . S
Mn108 O113 2.095 . S
Mn108 O123 2.162 . S
Mn108 O124 2.297 . S
Mn108 O132 2.385 . S
Mn108 O133 2.209 . S
Mn108 O134 2.094 . S
Mn109 O114 2.121 . S
Mn109 N116 2.257 . S
Mn109 N125 2.282 . S
Mn109 O133 2.215 . S
Mn109 O135 2.117 . S
C110 O132 1.234 . S
C110 O133 1.283 . S
C111 O123 1.281 . S
C111 O124 1.236 . S
C112 O134 1.240 . S
C112 O135 1.264 . S
O113 Mn108 2.095 . S
O113 C122 1.250 . S
O114 Mn109 2.121 . S
O114 C122 1.258 . S
C115 N116 1.326 . S
C115 C119 1.460 . S
C115 H121 0.929 . S
N116 Mn109 2.257 . S
N116 C115 1.326 . S
N116 C120 1.362 . S
C117 C118 1.258 . S
C117 C120 1.431 . S
C117 C137 1.449 . S
C118 C117 1.258 . S
C118 C119 1.477 . S
C118 H138 0.931 . S
C119 C115 1.460 . S
C119 C118 1.477 . S
C119 H139 0.930 . S
C120 N116 1.362 . S
C120 C117 1.431 . S
C120 C130 1.476 . S
H121 C115 0.929 . S
C122 O113 1.250 . S
C122 O114 1.258 . S
O123 Mn108 2.162 . S
O123 C111 1.281 . S
O124 Mn108 2.297 . S
O124 C111 1.236 . S
N125 Mn109 2.282 . S
N125 C126 1.328 . S
N125 C130 1.318 . S
C126 N125 1.328 . S
C126 C127 1.457 . S
C126 H131 0.929 . S
C127 C126 1.457 . S
C127 C128 1.291 . S
C127 H140 0.931 . S
C128 C127 1.291 . S
C128 C129 1.373 . S
C128 H141 0.929 . S
C129 C128 1.373 . S
C129 C130 1.396 . S
C129 C136 1.403 . S
C130 C120 1.476 . S
C130 N125 1.318 . S
C130 C129 1.396 . S
H131 C126 0.929 . S
O132 Mn108 2.385 . S
O132 C110 1.234 . S
O133 Mn108 2.209 . S
O133 Mn109 2.215 . S
O133 C110 1.283 . S
O134 Mn108 2.094 . S
O134 C112 1.240 . S
O135 Mn109 2.117 . S
O135 C112 1.264 . S
C136 C129 1.403 . S
C136 C137 1.399 . S
C136 H142 0.929 . S
C137 C117 1.449 . S
C137 C136 1.399 . S
C137 H143 0.930 . S
H138 C118 0.931 . S
H139 C119 0.930 . S
H140 C127 0.931 . S
H141 C128 0.929 . S
H142 C136 0.929 . S
H143 C137 0.930 . S
Mn144 O149 2.095 . S
Mn144 O159 2.162 . S
Mn144 O160 2.297 . S
Mn144 O168 2.385 . S
Mn144 O169 2.209 . S
Mn144 O170 2.094 . S
Mn145 O150 2.121 . S
Mn145 N152 2.257 . S
Mn145 N161 2.280 . S
Mn145 O169 2.215 . S
Mn145 O171 2.117 . S
C146 O168 1.234 . S
C146 O169 1.283 . S
C147 O159 1.281 . S
C147 O160 1.236 . S
C148 O170 1.240 . S
C148 O171 1.264 . S
O149 Mn144 2.095 . S
O149 C158 1.250 . S
O150 Mn145 2.121 . S
O150 C158 1.258 . S
C151 N152 1.326 . S
C151 C155 1.460 . S
C151 H157 0.929 . S
N152 Mn145 2.257 . S
N152 C151 1.326 . S
N152 C156 1.362 . S
C153 C154 1.258 . S
C153 C156 1.431 . S
C153 C173 1.449 1_455 S
C154 C153 1.258 . S
C154 C155 1.477 . S
C154 H174 0.931 . S
C155 C151 1.460 . S
C155 C154 1.477 . S
C155 H175 0.930 . S
C156 N152 1.362 . S
C156 C153 1.431 . S
C156 C166 1.476 1_455 S
H157 C151 0.929 . S
C158 O149 1.250 . S
C158 O150 1.258 . S
O159 Mn144 2.162 . S
O159 C147 1.281 . S
O160 Mn144 2.297 . S
O160 C147 1.236 . S
N161 Mn145 2.280 . S
N161 C162 1.330 1_455 S
N161 C166 1.317 1_455 S
C162 N161 1.330 1_655 S
C162 C163 1.457 . S
C162 H167 0.929 . S
C163 C162 1.457 . S
C163 C164 1.291 . S
C163 H176 0.931 . S
C164 C163 1.291 . S
C164 C165 1.373 . S
C164 H177 0.929 . S
C165 C164 1.373 . S
C165 C166 1.396 . S
C165 C172 1.403 . S
C166 C156 1.476 1_655 S
C166 N161 1.317 1_655 S
C166 C165 1.396 . S
H167 C162 0.929 . S
O168 Mn144 2.385 . S
O168 C146 1.234 . S
O169 Mn144 2.209 . S
O169 Mn145 2.215 . S
O169 C146 1.283 . S
O170 Mn144 2.094 . S
O170 C148 1.240 . S
O171 Mn145 2.117 . S
O171 C148 1.264 . S
C172 C165 1.403 . S
C172 C173 1.399 . S
C172 H178 0.929 . S
C173 C153 1.449 1_655 S
C173 C172 1.399 . S
C173 H179 0.930 . S
H174 C154 0.931 . S
H175 C155 0.930 . S
H176 C163 0.931 . S
H177 C164 0.929 . S
H178 C172 0.929 . S
H179 C173 0.930 . S
Mn180 O185 2.095 . S
Mn180 O195 2.162 . S
Mn180 O196 2.297 . S
Mn180 O204 2.385 . S
Mn180 O205 2.209 . S
Mn180 O206 2.094 . S
Mn181 O186 2.121 . S
Mn181 N188 2.257 . S
Mn181 N197 2.282 . S
Mn181 O205 2.215 . S
Mn181 O207 2.117 . S
C182 O204 1.234 . S
C182 O205 1.283 . S
C183 O195 1.281 . S
C183 O196 1.236 . S
C184 O206 1.240 . S
C184 O207 1.264 . S
O185 Mn180 2.095 . S
O185 C194 1.250 . S
O186 Mn181 2.121 . S
O186 C194 1.258 . S
C187 N188 1.326 . S
C187 C191 1.460 . S
C187 H193 0.929 . S
N188 Mn181 2.257 . S
N188 C187 1.326 . S
N188 C192 1.362 . S
C189 C190 1.258 . S
C189 C192 1.431 . S
C189 C209 1.449 . S
C190 C189 1.258 . S
C190 C191 1.477 . S
C190 H210 0.931 . S
C191 C187 1.460 . S
C191 C190 1.477 . S
C191 H211 0.930 . S
C192 N188 1.362 . S
C192 C189 1.431 . S
C192 C202 1.476 . S
H193 C187 0.929 . S
C194 O185 1.250 . S
C194 O186 1.258 . S
O195 Mn180 2.162 . S
O195 C183 1.281 . S
O196 Mn180 2.297 . S
O196 C183 1.236 . S
N197 Mn181 2.282 . S
N197 C198 1.328 . S
N197 C202 1.318 . S
C198 N197 1.328 . S
C198 C199 1.457 . S
C198 H203 0.929 . S
C199 C198 1.457 . S
C199 C200 1.291 . S
C199 H212 0.931 . S
C200 C199 1.291 . S
C200 C201 1.373 . S
C200 H213 0.929 . S
C201 C200 1.373 . S
C201 C202 1.396 . S
C201 C208 1.403 . S
C202 C192 1.476 . S
C202 N197 1.318 . S
C202 C201 1.396 . S
H203 C198 0.929 . S
O204 Mn180 2.385 . S
O204 C182 1.234 . S
O205 Mn180 2.209 . S
O205 Mn181 2.215 . S
O205 C182 1.283 . S
O206 Mn180 2.094 . S
O206 C184 1.240 . S
O207 Mn181 2.117 . S
O207 C184 1.264 . S
C208 C201 1.403 . S
C208 C209 1.399 . S
C208 H214 0.929 . S
C209 C189 1.449 . S
C209 C208 1.399 . S
C209 H215 0.930 . S
H210 C190 0.931 . S
H211 C191 0.930 . S
H212 C199 0.931 . S
H213 C200 0.929 . S
H214 C208 0.929 . S
H215 C209 0.930 . S
Mn216 O221 2.095 . S
Mn216 O231 2.162 . S
Mn216 O232 2.297 . S
Mn216 O240 2.385 . S
Mn216 O241 2.209 . S
Mn216 O242 2.094 . S
Mn217 O222 2.121 . S
Mn217 N224 2.257 . S
Mn217 N233 2.282 . S
Mn217 O241 2.215 . S
Mn217 O243 2.117 . S
C218 O240 1.234 . S
C218 O241 1.283 . S
C219 O231 1.281 . S
C219 O232 1.236 . S
C220 O242 1.240 . S
C220 O243 1.264 . S
O221 Mn216 2.095 . S
O221 C230 1.250 . S
O222 Mn217 2.121 . S
O222 C230 1.258 . S
C223 N224 1.326 . S
C223 C227 1.460 . S
C223 H229 0.929 . S
N224 Mn217 2.257 . S
N224 C223 1.326 . S
N224 C228 1.362 . S
C225 C226 1.258 . S
C225 C228 1.431 . S
C225 C245 1.449 . S
C226 C225 1.258 . S
C226 C227 1.477 . S
C226 H246 0.931 . S
C227 C223 1.460 . S
C227 C226 1.477 . S
C227 H247 0.930 . S
C228 N224 1.362 . S
C228 C225 1.431 . S
C228 C238 1.476 . S
H229 C223 0.929 . S
C230 O221 1.250 . S
C230 O222 1.258 . S
O231 Mn216 2.162 . S
O231 C219 1.281 . S
O232 Mn216 2.297 . S
O232 C219 1.236 . S
N233 Mn217 2.282 . S
N233 C234 1.328 . S
N233 C238 1.318 . S
C234 N233 1.328 . S
C234 C235 1.457 . S
C234 H239 0.929 . S
C235 C234 1.457 . S
C235 C236 1.291 . S
C235 H248 0.931 . S
C236 C235 1.291 . S
C236 C237 1.373 . S
C236 H249 0.929 . S
C237 C236 1.373 . S
C237 C238 1.396 . S
C237 C244 1.403 . S
C238 C228 1.476 . S
C238 N233 1.318 . S
C238 C237 1.396 . S
H239 C234 0.929 . S
O240 Mn216 2.385 . S
O240 C218 1.234 . S
O241 Mn216 2.209 . S
O241 Mn217 2.215 . S
O241 C218 1.283 . S
O242 Mn216 2.094 . S
O242 C220 1.240 . S
O243 Mn217 2.117 . S
O243 C220 1.264 . S
C244 C237 1.403 . S
C244 C245 1.399 . S
C244 H250 0.929 . S
C245 C225 1.449 . S
C245 C244 1.399 . S
C245 H251 0.930 . S
H246 C226 0.931 . S
H247 C227 0.930 . S
H248 C235 0.931 . S
H249 C236 0.929 . S
H250 C244 0.929 . S
H251 C245 0.930 . S
Mn252 O257 2.095 . S
Mn252 O267 2.162 . S
Mn252 O268 2.297 . S
Mn252 O276 2.385 1_455 S
Mn252 O277 2.209 1_455 S
Mn252 O278 2.094 . S
Mn253 O258 2.121 . S
Mn253 N260 2.258 . S
Mn253 N269 2.282 1_455 S
Mn253 O277 2.215 1_455 S
Mn253 O279 2.117 . S
C254 O276 1.234 . S
C254 O277 1.283 . S
C255 O267 1.281 . S
C255 O268 1.236 . S
C256 O278 1.240 . S
C256 O279 1.264 . S
O257 Mn252 2.095 . S
O257 C266 1.250 . S
O258 Mn253 2.121 . S
O258 C266 1.258 . S
C259 N260 1.329 . S
C259 C263 1.472 . S
C259 H265 0.929 . S
N260 Mn253 2.258 . S
N260 C259 1.329 . S
N260 C264 1.359 1_455 S
C261 C262 1.258 . S
C261 C264 1.431 . S
C261 C281 1.449 . S
C262 C261 1.258 . S
C262 C263 1.434 1_655 S
C262 H282 0.931 . S
C263 C259 1.472 . S
C263 C262 1.434 1_455 S
C263 H283 0.962 . S
C264 N260 1.359 1_655 S
C264 C261 1.431 . S
C264 C274 1.476 . S
H265 C259 0.929 . S
C266 O257 1.250 . S
C266 O258 1.258 . S
O267 Mn252 2.162 . S
O267 C255 1.281 . S
O268 Mn252 2.297 . S
O268 C255 1.236 . S
N269 Mn253 2.282 1_655 S
N269 C270 1.328 . S
N269 C274 1.318 . S
C270 N269 1.328 . S
C270 C271 1.457 . S
C270 H275 0.929 . S
C271 C270 1.457 . S
C271 C272 1.291 . S
C271 H284 0.931 . S
C272 C271 1.291 . S
C272 C273 1.373 . S
C272 H285 0.929 . S
C273 C272 1.373 . S
C273 C274 1.396 . S
C273 C280 1.403 . S
C274 C264 1.476 . S
C274 N269 1.318 . S
C274 C273 1.396 . S
H275 C270 0.929 . S
O276 Mn252 2.385 1_655 S
O276 C254 1.234 . S
O277 Mn252 2.209 1_655 S
O277 Mn253 2.215 1_655 S
O277 C254 1.283 . S
O278 Mn252 2.094 . S
O278 C256 1.240 . S
O279 Mn253 2.117 . S
O279 C256 1.264 . S
C280 C273 1.403 . S
C280 C281 1.399 . S
C280 H286 0.929 . S
C281 C261 1.449 . S
C281 C280 1.399 . S
C281 H287 0.930 . S
H282 C262 0.931 . S
H283 C263 0.962 . S
H284 C271 0.931 . S
H285 C272 0.929 . S
H286 C280 0.929 . S
H287 C281 0.930 . S
Mn288 O293 2.095 . S
Mn288 O303 2.162 . S
Mn288 O304 2.297 . S
Mn288 O312 2.385 1_545 S
Mn288 O313 2.209 . S
Mn288 O314 2.094 . S
Mn289 O294 2.121 . S
Mn289 N296 2.257 . S
Mn289 N305 2.282 1_545 S
Mn289 O313 2.215 . S
Mn289 O315 2.117 . S
C290 O312 1.234 . S
C290 O313 1.283 1_565 S
C291 O303 1.281 . S
C291 O304 1.236 . S
C292 O314 1.240 . S
C292 O315 1.264 . S
O293 Mn288 2.095 . S
O293 C302 1.250 . S
O294 Mn289 2.121 . S
O294 C302 1.258 . S
C295 N296 1.326 . S
C295 C299 1.460 . S
C295 H301 0.929 . S
N296 Mn289 2.257 . S
N296 C295 1.326 . S
N296 C300 1.362 1_545 S
C297 C298 1.258 . S
C297 C300 1.431 . S
C297 C317 1.449 . S
C298 C297 1.258 . S
C298 C299 1.477 1_565 S
C298 H318 0.931 . S
C299 C295 1.460 . S
C299 C298 1.477 1_545 S
C299 H319 0.930 . S
C300 N296 1.362 1_565 S
C300 C297 1.431 . S
C300 C310 1.476 . S
H301 C295 0.929 . S
C302 O293 1.250 . S
C302 O294 1.258 . S
O303 Mn288 2.162 . S
O303 C291 1.281 . S
O304 Mn288 2.297 . S
O304 C291 1.236 . S
N305 Mn289 2.282 1_565 S
N305 C306 1.328 . S
N305 C310 1.318 . S
C306 N305 1.328 . S
C306 C307 1.457 . S
C306 H311 0.929 . S
C307 C306 1.457 . S
C307 C308 1.291 . S
C307 H320 0.931 . S
C308 C307 1.291 . S
C308 C309 1.373 . S
C308 H321 0.929 . S
C309 C308 1.373 . S
C309 C310 1.396 . S
C309 C316 1.403 . S
C310 C300 1.476 . S
C310 N305 1.318 . S
C310 C309 1.396 . S
H311 C306 0.929 . S
O312 Mn288 2.385 1_565 S
O312 C290 1.234 . S
O313 Mn288 2.209 . S
O313 Mn289 2.215 . S
O313 C290 1.283 1_545 S
O314 Mn288 2.094 . S
O314 C292 1.240 . S
O315 Mn289 2.117 . S
O315 C292 1.264 . S
C316 C309 1.403 . S
C316 C317 1.399 . S
C316 H322 0.929 . S
C317 C297 1.449 . S
C317 C316 1.399 . S
C317 H323 0.930 . S
H318 C298 0.931 . S
H319 C299 0.930 . S
H320 C307 0.931 . S
H321 C308 0.929 . S
H322 C316 0.929 . S
H323 C317 0.930 . S
Mn324 O329 2.095 . S
Mn324 O339 2.162 . S
Mn324 O340 2.297 . S
Mn324 O348 2.385 . S
Mn324 O349 2.209 . S
Mn324 O350 2.094 . S
Mn325 O330 2.121 . S
Mn325 N332 2.257 . S
Mn325 N341 2.282 . S
Mn325 O349 2.215 . S
Mn325 O351 2.117 . S
C326 O348 1.234 . S
C326 O349 1.283 . S
C327 O339 1.281 . S
C327 O340 1.236 . S
C328 O350 1.240 . S
C328 O351 1.264 . S
O329 Mn324 2.095 . S
O329 C338 1.250 . S
O330 Mn325 2.121 . S
O330 C338 1.258 . S
C331 N332 1.326 . S
C331 C335 1.460 . S
C331 H337 0.929 . S
N332 Mn325 2.257 . S
N332 C331 1.326 . S
N332 C336 1.362 . S
C333 C334 1.258 . S
C333 C336 1.431 . S
C333 C353 1.449 . S
C334 C333 1.258 . S
C334 C335 1.477 . S
C334 H354 0.931 . S
C335 C331 1.460 . S
C335 C334 1.477 . S
C335 H355 0.930 . S
C336 N332 1.362 . S
C336 C333 1.431 . S
C336 C346 1.476 . S
H337 C331 0.929 . S
C338 O329 1.250 . S
C338 O330 1.258 . S
O339 Mn324 2.162 . S
O339 C327 1.281 . S
O340 Mn324 2.297 . S
O340 C327 1.236 . S
N341 Mn325 2.282 . S
N341 C342 1.328 . S
N341 C346 1.318 . S
C342 N341 1.328 . S
C342 C343 1.457 . S
C342 H347 0.929 . S
C343 C342 1.457 . S
C343 C344 1.291 . S
C343 H356 0.931 . S
C344 C343 1.291 . S
C344 C345 1.373 . S
C344 H357 0.929 . S
C345 C344 1.373 . S
C345 C346 1.396 . S
C345 C352 1.403 . S
C346 C336 1.476 . S
C346 N341 1.318 . S
C346 C345 1.396 . S
H347 C342 0.929 . S
O348 Mn324 2.385 . S
O348 C326 1.234 . S
O349 Mn324 2.209 . S
O349 Mn325 2.215 . S
O349 C326 1.283 . S
O350 Mn324 2.094 . S
O350 C328 1.240 . S
O351 Mn325 2.117 . S
O351 C328 1.264 . S
C352 C345 1.403 . S
C352 C353 1.399 . S
C352 H358 0.929 . S
C353 C333 1.449 . S
C353 C352 1.399 . S
C353 H359 0.930 . S
H354 C334 0.931 . S
H355 C335 0.930 . S
H356 C343 0.931 . S
H357 C344 0.929 . S
H358 C352 0.929 . S
H359 C353 0.930 . S
Mn360 O365 2.095 1_545 S
Mn360 O375 2.162 . S
Mn360 O376 2.297 . S
Mn360 O384 2.385 . S
Mn360 O385 2.209 . S
Mn360 O386 2.094 . S
Mn361 O366 2.121 . S
Mn361 N368 2.257 . S
Mn361 N377 2.282 . S
Mn361 O385 2.215 . S
Mn361 O387 2.117 . S
C362 O384 1.234 . S
C362 O385 1.283 . S
C363 O375 1.281 . S
C363 O376 1.236 . S
C364 O386 1.240 . S
C364 O387 1.264 . S
O365 Mn360 2.095 1_565 S
O365 C374 1.250 . S
O366 Mn361 2.121 . S
O366 C374 1.258 1_545 S
C367 N368 1.326 . S
C367 C371 1.460 . S
C367 H373 0.929 . S
N368 Mn361 2.257 . S
N368 C367 1.326 . S
N368 C372 1.362 . S
C369 C370 1.258 . S
C369 C372 1.431 . S
C369 C389 1.449 . S
C370 C369 1.258 . S
C370 C371 1.477 . S
C370 H390 0.931 . S
C371 C367 1.460 . S
C371 C370 1.477 . S
C371 H391 0.930 . S
C372 N368 1.362 . S
C372 C369 1.431 . S
C372 C382 1.476 . S
H373 C367 0.929 . S
C374 O365 1.250 . S
C374 O366 1.258 1_565 S
O375 Mn360 2.162 . S
O375 C363 1.281 . S
O376 Mn360 2.297 . S
O376 C363 1.236 . S
N377 Mn361 2.282 . S
N377 C378 1.328 . S
N377 C382 1.318 . S
C378 N377 1.328 . S
C378 C379 1.457 . S
C378 H383 0.929 . S
C379 C378 1.457 . S
C379 C380 1.291 . S
C379 H392 0.931 . S
C380 C379 1.291 . S
C380 C381 1.373 . S
C380 H393 0.929 . S
C381 C380 1.373 . S
C381 C382 1.396 . S
C381 C388 1.403 . S
C382 C372 1.476 . S
C382 N377 1.318 . S
C382 C381 1.396 . S
H383 C378 0.929 . S
O384 Mn360 2.385 . S
O384 C362 1.234 . S
O385 Mn360 2.209 . S
O385 Mn361 2.215 . S
O385 C362 1.283 . S
O386 Mn360 2.094 . S
O386 C364 1.240 . S
O387 Mn361 2.117 . S
O387 C364 1.264 . S
C388 C381 1.403 . S
C388 C389 1.399 . S
C388 H394 0.929 . S
C389 C369 1.449 . S
C389 C388 1.399 . S
C389 H395 0.930 . S
H390 C370 0.931 . S
H391 C371 0.930 . S
H392 C379 0.931 . S
H393 C380 0.929 . S
H394 C388 0.929 . S
H395 C389 0.930 . S
Mn396 O401 2.095 1_554 S
Mn396 O411 2.162 . S
Mn396 O412 2.297 . S
Mn396 O420 2.385 . S
Mn396 O421 2.213 . S
Mn396 O422 2.094 1_554 S
Mn397 O402 2.121 . S
Mn397 N404 2.257 . S
Mn397 N413 2.282 . S
Mn397 O421 2.198 1_556 S
Mn397 O423 2.117 . S
C398 O420 1.234 . S
C398 O421 1.286 . S
C399 O411 1.281 . S
C399 O412 1.236 . S
C400 O422 1.240 . S
C400 O423 1.264 . S
O401 Mn396 2.095 1_556 S
O401 C410 1.250 . S
O402 Mn397 2.121 . S
O402 C410 1.258 . S
C403 N404 1.326 . S
C403 C407 1.460 . S
C403 H409 0.929 . S
N404 Mn397 2.257 . S
N404 C403 1.326 . S
N404 C408 1.362 . S
C405 C406 1.258 . S
C405 C408 1.431 . S
C405 C425 1.449 . S
C406 C405 1.258 . S
C406 C407 1.477 . S
C406 H426 0.931 . S
C407 C403 1.460 . S
C407 C406 1.477 . S
C407 H427 0.940 . S
C408 N404 1.362 . S
C408 C405 1.431 . S
C408 C418 1.476 . S
H409 C403 0.929 . S
C410 O401 1.250 . S
C410 O402 1.258 . S
O411 Mn396 2.162 . S
O411 C399 1.281 . S
O412 Mn396 2.297 . S
O412 C399 1.236 . S
N413 Mn397 2.282 . S
N413 C414 1.328 . S
N413 C418 1.318 . S
C414 N413 1.328 . S
C414 C415 1.457 . S
C414 H419 0.929 . S
C415 C414 1.457 . S
C415 C416 1.291 . S
C415 H428 0.931 . S
C416 C415 1.291 . S
C416 C417 1.373 . S
C416 H429 0.929 . S
C417 C416 1.373 . S
C417 C418 1.396 . S
C417 C424 1.403 . S
C418 C408 1.476 . S
C418 N413 1.318 . S
C418 C417 1.396 . S
H419 C414 0.929 . S
O420 Mn396 2.385 . S
O420 C398 1.234 . S
O421 Mn396 2.213 . S
O421 Mn397 2.198 1_554 S
O421 C398 1.286 . S
O422 Mn396 2.094 1_556 S
O422 C400 1.240 . S
O423 Mn397 2.117 . S
O423 C400 1.264 . S
C424 C417 1.403 . S
C424 C425 1.399 . S
C424 H430 0.929 . S
C425 C405 1.449 . S
C425 C424 1.399 . S
C425 H431 0.930 . S
H426 C406 0.931 . S
H427 C407 0.940 . S
H428 C415 0.931 . S
H429 C416 0.929 . S
H430 C424 0.929 . S
H431 C425 0.930 . S
Mn432 O437 2.095 . S
Mn432 O447 2.162 . S
Mn432 O448 2.297 . S
Mn432 O456 2.385 . S
Mn432 O457 2.209 . S
Mn432 O458 2.088 . S
Mn433 O438 2.121 1_556 S
Mn433 N440 2.257 1_556 S
Mn433 N449 2.282 . S
Mn433 O457 2.215 1_556 S
Mn433 O459 2.117 . S
C434 O456 1.234 . S
C434 O457 1.283 . S
C435 O447 1.281 . S
C435 O448 1.236 . S
C436 O458 1.247 1_556 S
C436 O459 1.264 . S
O437 Mn432 2.095 . S
O437 C446 1.250 . S
O438 Mn433 2.121 1_554 S
O438 C446 1.258 . S
C439 N440 1.326 . S
C439 C443 1.460 . S
C439 H445 0.929 . S
N440 Mn433 2.257 1_554 S
N440 C439 1.326 . S
N440 C444 1.365 . S
C441 C442 1.258 . S
C441 C444 1.431 . S
C441 C461 1.449 1_554 S
C442 C441 1.258 . S
C442 C443 1.477 . S
C442 H462 0.931 . S
C443 C439 1.460 . S
C443 C442 1.477 . S
C443 H463 0.930 . S
C444 N440 1.365 . S
C444 C441 1.431 . S
C444 C454 1.474 1_554 S
H445 C439 0.929 . S
C446 O437 1.250 . S
C446 O438 1.258 . S
O447 Mn432 2.162 . S
O447 C435 1.281 . S
O448 Mn432 2.297 . S
O448 C435 1.236 . S
N449 Mn433 2.282 . S
N449 C450 1.328 . S
N449 C454 1.318 . S
C450 N449 1.328 . S
C450 C451 1.457 . S
C450 H455 0.929 . S
C451 C450 1.457 . S
C451 C452 1.291 . S
C451 H464 0.931 . S
C452 C451 1.291 . S
C452 C453 1.373 . S
C452 H465 0.929 . S
C453 C452 1.373 . S
C453 C454 1.396 . S
C453 C460 1.403 . S
C454 C444 1.474 1_556 S
C454 N449 1.318 . S
C454 C453 1.396 . S
H455 C450 0.929 . S
O456 Mn432 2.385 . S
O456 C434 1.234 . S
O457 Mn432 2.209 . S
O457 Mn433 2.215 1_554 S
O457 C434 1.283 . S
O458 Mn432 2.088 . S
O458 C436 1.247 1_554 S
O459 Mn433 2.117 . S
O459 C436 1.264 . S
C460 C453 1.403 . S
C460 C461 1.399 . S
C460 H466 0.929 . S
C461 C441 1.449 1_556 S
C461 C460 1.399 . S
C461 H467 0.930 . S
H462 C442 0.931 . S
H463 C443 0.930 . S
H464 C451 0.931 . S
H465 C452 0.929 . S
H466 C460 0.929 . S
H467 C461 0.930 . S
Mn468 O473 2.095 . S
Mn468 O483 2.162 . S
Mn468 O484 2.297 . S
Mn468 O492 2.385 . S
Mn468 O493 2.209 . S
Mn468 O494 2.094 . S
Mn469 O474 2.121 . S
Mn469 N476 2.257 . S
Mn469 N485 2.265 1_554 S
Mn469 O493 2.215 . S
Mn469 O495 2.117 . S
C470 O492 1.234 . S
C470 O493 1.283 . S
C471 O483 1.281 . S
C471 O484 1.236 . S
C472 O494 1.240 . S
C472 O495 1.264 . S
O473 Mn468 2.095 . S
O473 C482 1.250 . S
O474 Mn469 2.121 . S
O474 C482 1.258 . S
C475 N476 1.326 . S
C475 C479 1.460 . S
C475 H481 0.929 . S
N476 Mn469 2.257 . S
N476 C475 1.326 . S
N476 C480 1.362 . S
C477 C478 1.258 . S
C477 C480 1.431 . S
C477 C497 1.449 1_554 S
C478 C477 1.258 . S
C478 C479 1.477 . S
C478 H498 0.931 . S
C479 C475 1.460 . S
C479 C478 1.477 . S
C479 H499 0.930 . S
C480 N476 1.362 . S
C480 C477 1.431 . S
C480 C490 1.476 1_554 S
H481 C475 0.929 . S
C482 O473 1.250 . S
C482 O474 1.258 . S
O483 Mn468 2.162 . S
O483 C471 1.281 . S
O484 Mn468 2.297 . S
O484 C471 1.236 . S
N485 Mn469 2.265 1_556 S
N485 C486 1.349 . S
N485 C490 1.313 . S
C486 N485 1.349 . S
C486 C487 1.457 . S
C486 H491 0.929 . S
C487 C486 1.457 . S
C487 C488 1.291 . S
C487 H500 0.931 . S
C488 C487 1.291 . S
C488 C489 1.373 . S
C488 H501 0.929 . S
C489 C488 1.373 . S
C489 C490 1.396 . S
C489 C496 1.403 . S
C490 C480 1.476 1_556 S
C490 N485 1.313 . S
C490 C489 1.396 . S
H491 C486 0.929 . S
O492 Mn468 2.385 . S
O492 C470 1.234 . S
O493 Mn468 2.209 . S
O493 Mn469 2.215 . S
O493 C470 1.283 . S
O494 Mn468 2.094 . S
O494 C472 1.240 . S
O495 Mn469 2.117 . S
O495 C472 1.264 . S
C496 C489 1.403 . S
C496 C497 1.399 . S
C496 H502 0.929 . S
C497 C477 1.449 1_556 S
C497 C496 1.399 . S
C497 H503 0.930 . S
H498 C478 0.931 . S
H499 C479 0.930 . S
H500 C487 0.931 . S
H501 C488 0.929 . S
H502 C496 0.929 . S
H503 C497 0.930 . S
Mn504 O509 2.095 . S
Mn504 O519 2.162 . S
Mn504 O520 2.297 . S
Mn504 O528 2.385 . S
Mn504 O529 2.209 . S
Mn504 O530 2.094 . S
Mn505 O510 2.121 . S
Mn505 N512 2.257 . S
Mn505 N521 2.282 . S
Mn505 O529 2.215 . S
Mn505 O531 2.117 . S
C506 O528 1.234 . S
C506 O529 1.283 . S
C507 O519 1.281 . S
C507 O520 1.236 . S
C508 O530 1.240 . S
C508 O531 1.264 . S
O509 Mn504 2.095 . S
O509 C518 1.250 . S
O510 Mn505 2.121 . S
O510 C518 1.258 . S
C511 N512 1.326 . S
C511 C515 1.460 . S
C511 H517 0.929 . S
N512 Mn505 2.257 . S
N512 C511 1.326 . S
N512 C516 1.362 . S
C513 C514 1.258 . S
C513 C516 1.431 . S
C513 C533 1.449 . S
C514 C513 1.258 . S
C514 C515 1.477 . S
C514 H534 0.931 . S
C515 C511 1.460 . S
C515 C514 1.477 . S
C515 H535 0.930 . S
C516 N512 1.362 . S
C516 C513 1.431 . S
C516 C526 1.476 . S
H517 C511 0.929 . S
C518 O509 1.250 . S
C518 O510 1.258 . S
O519 Mn504 2.162 . S
O519 C507 1.281 . S
O520 Mn504 2.297 . S
O520 C507 1.236 . S
N521 Mn505 2.282 . S
N521 C522 1.328 . S
N521 C526 1.318 . S
C522 N521 1.328 . S
C522 C523 1.457 . S
C522 H527 0.929 . S
C523 C522 1.457 . S
C523 C524 1.291 . S
C523 H536 0.931 . S
C524 C523 1.291 . S
C524 C525 1.373 . S
C524 H537 0.929 . S
C525 C524 1.373 . S
C525 C526 1.396 . S
C525 C532 1.403 . S
C526 C516 1.476 . S
C526 N521 1.318 . S
C526 C525 1.396 . S
H527 C522 0.929 . S
O528 Mn504 2.385 . S
O528 C506 1.234 . S
O529 Mn504 2.209 . S
O529 Mn505 2.215 . S
O529 C506 1.283 . S
O530 Mn504 2.094 . S
O530 C508 1.240 . S
O531 Mn505 2.117 . S
O531 C508 1.264 . S
C532 C525 1.403 . S
C532 C533 1.399 . S
C532 H538 0.929 . S
C533 C513 1.449 . S
C533 C532 1.399 . S
C533 H539 0.930 . S
H534 C514 0.931 . S
H535 C515 0.930 . S
H536 C523 0.931 . S
H537 C524 0.929 . S
H538 C532 0.929 . S
H539 C533 0.930 . S
Mn540 O545 2.095 . S
Mn540 O555 2.162 . S
Mn540 O556 2.297 . S
Mn540 O564 2.385 . S
Mn540 O565 2.209 . S
Mn540 O566 2.094 . S
Mn541 O546 2.121 . S
Mn541 N548 2.257 . S
Mn541 N557 2.282 . S
Mn541 O565 2.215 . S
Mn541 O567 2.117 . S
C542 O564 1.234 . S
C542 O565 1.283 . S
C543 O555 1.281 . S
C543 O556 1.236 . S
C544 O566 1.240 . S
C544 O567 1.264 . S
O545 Mn540 2.095 . S
O545 C554 1.250 . S
O546 Mn541 2.121 . S
O546 C554 1.258 . S
C547 N548 1.326 . S
C547 C551 1.460 . S
C547 H553 0.929 . S
N548 Mn541 2.257 . S
N548 C547 1.326 . S
N548 C552 1.362 . S
C549 C550 1.258 . S
C549 C552 1.431 . S
C549 C569 1.449 . S
C550 C549 1.258 . S
C550 C551 1.477 . S
C550 H570 0.931 . S
C551 C547 1.460 . S
C551 C550 1.477 . S
C551 H571 0.930 . S
C552 N548 1.362 . S
C552 C549 1.431 . S
C552 C562 1.476 . S
H553 C547 0.929 . S
C554 O545 1.250 . S
C554 O546 1.258 . S
O555 Mn540 2.162 . S
O555 C543 1.281 . S
O556 Mn540 2.297 . S
O556 C543 1.236 . S
N557 Mn541 2.282 . S
N557 C558 1.328 . S
N557 C562 1.318 . S
C558 N557 1.328 . S
C558 C559 1.457 . S
C558 H563 0.929 . S
C559 C558 1.457 . S
C559 C560 1.291 . S
C559 H572 0.931 . S
C560 C559 1.291 . S
C560 C561 1.373 . S
C560 H573 0.929 . S
C561 C560 1.373 . S
C561 C562 1.396 . S
C561 C568 1.403 . S
C562 C552 1.476 . S
C562 N557 1.318 . S
C562 C561 1.396 . S
H563 C558 0.929 . S
O564 Mn540 2.385 . S
O564 C542 1.234 . S
O565 Mn540 2.209 . S
O565 Mn541 2.215 . S
O565 C542 1.283 . S
O566 Mn540 2.094 . S
O566 C544 1.240 . S
O567 Mn541 2.117 . S
O567 C544 1.264 . S
C568 C561 1.403 . S
C568 C569 1.399 . S
C568 H574 0.929 . S
C569 C549 1.449 . S
C569 C568 1.399 . S
C569 H575 0.930 . S
H570 C550 0.931 . S
H571 C551 0.930 . S
H572 C559 0.931 . S
H573 C560 0.929 . S
H574 C568 0.929 . S
H575 C569 0.930 . S
Mn576 O581 2.095 . S
Mn576 O591 2.162 . S
Mn576 O592 2.297 1_545 S
Mn576 O600 2.385 1_545 S
Mn576 O601 2.209 1_545 S
Mn576 O602 2.094 . S
Mn577 O582 2.133 . S
Mn577 N584 2.255 1_545 S
Mn577 N593 2.270 1_545 S
Mn577 O601 2.210 1_545 S
Mn577 O603 2.116 . S
C578 O600 1.234 . S
C578 O601 1.283 . S
C579 O591 1.281 . S
C579 O592 1.236 1_545 S
C580 O602 1.240 . S
C580 O603 1.264 . S
O581 Mn576 2.095 . S
O581 C590 1.250 . S
O582 Mn577 2.133 . S
O582 C590 1.258 . S
C583 N584 1.326 . S
C583 C587 1.460 . S
C583 H589 0.929 1_565 S
N584 Mn577 2.255 1_565 S
N584 C583 1.326 . S
N584 C588 1.362 . S
C585 C586 1.258 . S
C585 C588 1.431 . S
C585 C605 1.449 . S
C586 C585 1.258 . S
C586 C587 1.477 . S
C586 H606 0.931 . S
C587 C583 1.460 . S
C587 C586 1.477 . S
C587 H607 0.930 . S
C588 N584 1.362 . S
C588 C585 1.431 . S
C588 C598 1.476 . S
H589 C583 0.929 1_545 S
C590 O581 1.250 . S
C590 O582 1.258 . S
O591 Mn576 2.162 . S
O591 C579 1.281 . S
O592 Mn576 2.297 1_565 S
O592 C579 1.236 1_565 S
N593 Mn577 2.270 1_565 S
N593 C594 1.328 . S
N593 C598 1.318 . S
C594 N593 1.328 . S
C594 C595 1.457 . S
C594 H599 0.929 . S
C595 C594 1.457 . S
C595 C596 1.291 . S
C595 H608 0.931 . S
C596 C595 1.291 . S
C596 C597 1.373 . S
C596 H609 0.929 . S
C597 C596 1.373 . S
C597 C598 1.396 . S
C597 C604 1.403 . S
C598 C588 1.476 . S
C598 N593 1.318 . S
C598 C597 1.396 . S
H599 C594 0.929 . S
O600 Mn576 2.385 1_565 S
O600 C578 1.234 . S
O601 Mn576 2.209 1_565 S
O601 Mn577 2.210 1_565 S
O601 C578 1.283 . S
O602 Mn576 2.094 . S
O602 C580 1.240 . S
O603 Mn577 2.116 . S
O603 C580 1.264 . S
C604 C597 1.403 . S
C604 C605 1.399 . S
C604 H610 0.929 . S
C605 C585 1.449 . S
C605 C604 1.399 . S
C605 H611 0.930 . S
H606 C586 0.931 . S
H607 C587 0.930 . S
H608 C595 0.931 . S
H609 C596 0.929 . S
H610 C604 0.929 . S
H611 C605 0.930 . S
Mn612 O617 2.095 . S
Mn612 O627 2.162 . S
Mn612 O628 2.297 . S
Mn612 O636 2.385 . S
Mn612 O637 2.209 . S
Mn612 O638 2.094 . S
Mn613 O618 2.121 . S
Mn613 N620 2.257 . S
Mn613 N629 2.282 . S
Mn613 O637 2.215 . S
Mn613 O639 2.117 . S
C614 O636 1.234 . S
C614 O637 1.283 . S
C615 O627 1.281 . S
C615 O628 1.236 . S
C616 O638 1.240 . S
C616 O639 1.264 . S
O617 Mn612 2.095 . S
O617 C626 1.250 . S
O618 Mn613 2.121 . S
O618 C626 1.258 . S
C619 N620 1.326 . S
C619 C623 1.460 . S
C619 H625 0.929 . S
N620 Mn613 2.257 . S
N620 C619 1.326 . S
N620 C624 1.362 . S
C621 C622 1.258 . S
C621 C624 1.431 . S
C621 C641 1.449 . S
C622 C621 1.258 . S
C622 C623 1.477 . S
C622 H642 0.931 . S
C623 C619 1.460 . S
C623 C622 1.477 . S
C623 H643 0.930 . S
C624 N620 1.362 . S
C624 C621 1.431 . S
C624 C634 1.476 . S
H625 C619 0.929 . S
C626 O617 1.250 . S
C626 O618 1.258 . S
O627 Mn612 2.162 . S
O627 C615 1.281 . S
O628 Mn612 2.297 . S
O628 C615 1.236 . S
N629 Mn613 2.282 . S
N629 C630 1.328 . S
N629 C634 1.318 . S
C630 N629 1.328 . S
C630 C631 1.457 . S
C630 H635 0.929 . S
C631 C630 1.457 . S
C631 C632 1.291 . S
C631 H644 0.931 . S
C632 C631 1.291 . S
C632 C633 1.373 . S
C632 H645 0.929 . S
C633 C632 1.373 . S
C633 C634 1.396 . S
C633 C640 1.403 . S
C634 C624 1.476 . S
C634 N629 1.318 . S
C634 C633 1.396 . S
H635 C630 0.929 . S
O636 Mn612 2.385 . S
O636 C614 1.234 . S
O637 Mn612 2.209 . S
O637 Mn613 2.215 . S
O637 C614 1.283 . S
O638 Mn612 2.094 . S
O638 C616 1.240 . S
O639 Mn613 2.117 . S
O639 C616 1.264 . S
C640 C633 1.403 . S
C640 C641 1.399 . S
C640 H646 0.929 . S
C641 C621 1.449 . S
C641 C640 1.399 . S
C641 H647 0.930 . S
H642 C622 0.931 . S
H643 C623 0.930 . S
H644 C631 0.931 . S
H645 C632 0.929 . S
H646 C640 0.929 . S
H647 C641 0.930 . S
Mn648 O653 2.095 . S
Mn648 O663 2.162 . S
Mn648 O664 2.297 . S
Mn648 O672 2.385 . S
Mn648 O673 2.209 . S
Mn648 O674 2.094 . S
Mn649 O654 2.121 . S
Mn649 N656 2.257 . S
Mn649 N665 2.282 . S
Mn649 O673 2.215 . S
Mn649 O675 2.117 . S
C650 O672 1.234 . S
C650 O673 1.283 . S
C651 O663 1.281 . S
C651 O664 1.236 . S
C652 O674 1.240 . S
C652 O675 1.264 . S
O653 Mn648 2.095 . S
O653 C662 1.250 . S
O654 Mn649 2.121 . S
O654 C662 1.258 . S
C655 N656 1.326 . S
C655 C659 1.460 . S
C655 H661 0.929 . S
N656 Mn649 2.257 . S
N656 C655 1.326 . S
N656 C660 1.362 . S
C657 C658 1.258 . S
C657 C660 1.431 . S
C657 C677 1.449 . S
C658 C657 1.258 . S
C658 C659 1.477 . S
C658 H678 0.931 . S
C659 C655 1.460 . S
C659 C658 1.477 . S
C659 H679 0.930 . S
C660 N656 1.362 . S
C660 C657 1.431 . S
C660 C670 1.476 . S
H661 C655 0.929 . S
C662 O653 1.250 . S
C662 O654 1.258 . S
O663 Mn648 2.162 . S
O663 C651 1.281 . S
O664 Mn648 2.297 . S
O664 C651 1.236 . S
N665 Mn649 2.282 . S
N665 C666 1.328 . S
N665 C670 1.318 . S
C666 N665 1.328 . S
C666 C667 1.457 . S
C666 H671 0.929 . S
C667 C666 1.457 . S
C667 C668 1.291 . S
C667 H680 0.931 . S
C668 C667 1.291 . S
C668 C669 1.373 . S
C668 H681 0.929 . S
C669 C668 1.373 . S
C669 C670 1.396 . S
C669 C676 1.403 . S
C670 C660 1.476 . S
C670 N665 1.318 . S
C670 C669 1.396 . S
H671 C666 0.929 . S
O672 Mn648 2.385 . S
O672 C650 1.234 . S
O673 Mn648 2.209 . S
O673 Mn649 2.215 . S
O673 C650 1.283 . S
O674 Mn648 2.094 . S
O674 C652 1.240 . S
O675 Mn649 2.117 . S
O675 C652 1.264 . S
C676 C669 1.403 . S
C676 C677 1.399 . S
C676 H682 0.929 . S
C677 C657 1.449 . S
C677 C676 1.399 . S
C677 H683 0.930 . S
H678 C658 0.931 . S
H679 C659 0.930 . S
H680 C667 0.931 . S
H681 C668 0.929 . S
H682 C676 0.929 . S
H683 C677 0.930 . S
Mn684 O689 2.095 1_545 S
Mn684 O699 2.162 . S
Mn684 O700 2.297 . S
Mn684 O708 2.385 . S
Mn684 O709 2.209 . S
Mn684 O710 2.094 . S
Mn685 O690 2.121 1_545 S
Mn685 N692 2.257 . S
Mn685 N701 2.282 . S
Mn685 O709 2.215 . S
Mn685 O711 2.117 . S
C686 O708 1.234 . S
C686 O709 1.283 . S
C687 O699 1.281 . S
C687 O700 1.236 . S
C688 O710 1.240 . S
C688 O711 1.264 . S
O689 Mn684 2.095 1_565 S
O689 C698 1.250 . S
O690 Mn685 2.121 1_565 S
O690 C698 1.258 . S
C691 N692 1.326 . S
C691 C695 1.460 . S
C691 H697 0.929 . S
N692 Mn685 2.257 . S
N692 C691 1.326 . S
N692 C696 1.362 . S
C693 C694 1.258 . S
C693 C696 1.431 . S
C693 C713 1.449 . S
C694 C693 1.258 . S
C694 C695 1.477 . S
C694 H714 0.931 . S
C695 C691 1.460 . S
C695 C694 1.477 . S
C695 H715 0.930 . S
C696 N692 1.362 . S
C696 C693 1.431 . S
C696 C706 1.476 . S
H697 C691 0.929 . S
C698 O689 1.250 . S
C698 O690 1.258 . S
O699 Mn684 2.162 . S
O699 C687 1.281 . S
O700 Mn684 2.297 . S
O700 C687 1.236 . S
N701 Mn685 2.282 . S
N701 C702 1.328 . S
N701 C706 1.318 . S
C702 N701 1.328 . S
C702 C703 1.457 . S
C702 H707 0.929 . S
C703 C702 1.457 . S
C703 C704 1.291 . S
C703 H716 0.931 . S
C704 C703 1.291 . S
C704 C705 1.373 . S
C704 H717 0.929 . S
C705 C704 1.373 . S
C705 C706 1.396 . S
C705 C712 1.403 . S
C706 C696 1.476 . S
C706 N701 1.318 . S
C706 C705 1.396 . S
H707 C702 0.929 . S
O708 Mn684 2.385 . S
O708 C686 1.234 . S
O709 Mn684 2.209 . S
O709 Mn685 2.215 . S
O709 C686 1.283 . S
O710 Mn684 2.094 . S
O710 C688 1.240 . S
O711 Mn685 2.117 . S
O711 C688 1.264 . S
C712 C705 1.403 . S
C712 C713 1.399 . S
C712 H718 0.929 . S
C713 C693 1.449 . S
C713 C712 1.399 . S
C713 H719 0.930 . S
H714 C694 0.931 . S
H715 C695 0.930 . S
H716 C703 0.931 . S
H717 C704 0.929 . S
H718 C712 0.929 . S
H719 C713 0.930 . S
Mn720 O725 2.095 . S
Mn720 O735 2.162 . S
Mn720 O736 2.297 . S
Mn720 O744 2.385 . S
Mn720 O745 2.209 . S
Mn720 O746 2.094 . S
Mn721 O726 2.121 1_556 S
Mn721 N728 2.257 . S
Mn721 N737 2.282 . S
Mn721 O745 2.215 1_556 S
Mn721 O747 2.117 . S
C722 O744 1.234 . S
C722 O745 1.283 . S
C723 O735 1.281 . S
C723 O736 1.236 . S
C724 O746 1.240 1_556 S
C724 O747 1.264 . S
O725 Mn720 2.095 . S
O725 C734 1.250 . S
O726 Mn721 2.121 1_554 S
O726 C734 1.258 . S
C727 N728 1.326 . S
C727 C731 1.460 . S
C727 H733 0.929 1_556 S
N728 Mn721 2.257 . S
N728 C727 1.326 . S
N728 C732 1.362 . S
C729 C730 1.258 . S
C729 C732 1.431 . S
C729 C749 1.449 . S
C730 C729 1.258 . S
C730 C731 1.477 . S
C730 H750 0.931 . S
C731 C727 1.460 . S
C731 C730 1.477 . S
C731 H751 0.930 1_556 S
C732 N728 1.362 . S
C732 C729 1.431 . S
C732 C742 1.476 . S
H733 C727 0.929 1_554 S
C734 O725 1.250 . S
C734 O726 1.258 . S
O735 Mn720 2.162 . S
O735 C723 1.281 . S
O736 Mn720 2.297 . S
O736 C723 1.236 . S
N737 Mn721 2.282 . S
N737 C738 1.328 . S
N737 C742 1.318 . S
C738 N737 1.328 . S
C738 C739 1.457 . S
C738 H743 0.929 . S
C739 C738 1.457 . S
C739 C740 1.291 . S
C739 H752 0.931 . S
C740 C739 1.291 . S
C740 C741 1.373 . S
C740 H753 0.929 . S
C741 C740 1.373 . S
C741 C742 1.396 . S
C741 C748 1.403 . S
C742 C732 1.476 . S
C742 N737 1.318 . S
C742 C741 1.396 . S
H743 C738 0.929 . S
O744 Mn720 2.385 . S
O744 C722 1.234 . S
O745 Mn720 2.209 . S
O745 Mn721 2.215 1_554 S
O745 C722 1.283 . S
O746 Mn720 2.094 . S
O746 C724 1.240 1_554 S
O747 Mn721 2.117 . S
O747 C724 1.264 . S
C748 C741 1.403 . S
C748 C749 1.399 . S
C748 H754 0.929 . S
C749 C729 1.449 . S
C749 C748 1.399 . S
C749 H755 0.930 . S
H750 C730 0.931 . S
H751 C731 0.930 1_554 S
H752 C739 0.931 . S
H753 C740 0.929 . S
H754 C748 0.929 . S
H755 C749 0.930 . S
Mn756 O761 2.095 . S
Mn756 O771 2.162 . S
Mn756 O772 2.297 . S
Mn756 O780 2.385 . S
Mn756 O781 2.209 . S
Mn756 O782 2.094 . S
Mn757 O762 2.121 . S
Mn757 N764 2.257 . S
Mn757 N773 2.282 . S
Mn757 O781 2.215 . S
Mn757 O783 2.117 . S
C758 O780 1.234 . S
C758 O781 1.283 . S
C759 O771 1.281 . S
C759 O772 1.236 . S
C760 O782 1.240 . S
C760 O783 1.264 . S
O761 Mn756 2.095 . S
O761 C770 1.250 . S
O762 Mn757 2.121 . S
O762 C770 1.258 . S
C763 N764 1.326 . S
C763 C767 1.460 . S
C763 H769 0.929 . S
N764 Mn757 2.257 . S
N764 C763 1.326 . S
N764 C768 1.362 . S
C765 C766 1.258 . S
C765 C768 1.431 . S
C765 C785 1.449 . S
C766 C765 1.258 . S
C766 C767 1.477 . S
C766 H786 0.931 . S
C767 C763 1.460 . S
C767 C766 1.477 . S
C767 H787 0.930 . S
C768 N764 1.362 . S
C768 C765 1.431 . S
C768 C778 1.476 . S
H769 C763 0.929 . S
C770 O761 1.250 . S
C770 O762 1.258 . S
O771 Mn756 2.162 . S
O771 C759 1.281 . S
O772 Mn756 2.297 . S
O772 C759 1.236 . S
N773 Mn757 2.282 . S
N773 C774 1.328 . S
N773 C778 1.318 . S
C774 N773 1.328 . S
C774 C775 1.457 . S
C774 H779 0.929 . S
C775 C774 1.457 . S
C775 C776 1.291 . S
C775 H788 0.931 . S
C776 C775 1.291 . S
C776 C777 1.373 . S
C776 H789 0.929 . S
C777 C776 1.373 . S
C777 C778 1.396 . S
C777 C784 1.403 . S
C778 C768 1.476 . S
C778 N773 1.318 . S
C778 C777 1.396 . S
H779 C774 0.929 . S
O780 Mn756 2.385 . S
O780 C758 1.234 . S
O781 Mn756 2.209 . S
O781 Mn757 2.215 . S
O781 C758 1.283 . S
O782 Mn756 2.094 . S
O782 C760 1.240 . S
O783 Mn757 2.117 . S
O783 C760 1.264 . S
C784 C777 1.403 . S
C784 C785 1.399 . S
C784 H790 0.929 . S
C785 C765 1.449 . S
C785 C784 1.399 . S
C785 H791 0.930 . S
H786 C766 0.931 . S
H787 C767 0.930 . S
H788 C775 0.931 . S
H789 C776 0.929 . S
H790 C784 0.929 . S
H791 C785 0.930 . S
Mn792 O797 2.095 . S
Mn792 O807 2.162 . S
Mn792 O808 2.297 . S
Mn792 O816 2.385 . S
Mn792 O817 2.209 . S
Mn792 O818 2.094 . S
Mn793 O798 2.121 . S
Mn793 N800 2.257 . S
Mn793 N809 2.282 . S
Mn793 O817 2.215 . S
Mn793 O819 2.117 . S
C794 O816 1.234 . S
C794 O817 1.283 . S
C795 O807 1.281 . S
C795 O808 1.236 . S
C796 O818 1.240 . S
C796 O819 1.264 . S
O797 Mn792 2.095 . S
O797 C806 1.250 . S
O798 Mn793 2.121 . S
O798 C806 1.258 . S
C799 N800 1.326 . S
C799 C803 1.460 . S
C799 H805 0.929 . S
N800 Mn793 2.257 . S
N800 C799 1.326 . S
N800 C804 1.362 . S
C801 C802 1.258 . S
C801 C804 1.431 . S
C801 C821 1.449 . S
C802 C801 1.258 . S
C802 C803 1.477 . S
C802 H822 0.931 . S
C803 C799 1.460 . S
C803 C802 1.477 . S
C803 H823 0.930 . S
C804 N800 1.362 . S
C804 C801 1.431 . S
C804 C814 1.476 . S
H805 C799 0.929 . S
C806 O797 1.250 . S
C806 O798 1.258 . S
O807 Mn792 2.162 . S
O807 C795 1.281 . S
O808 Mn792 2.297 . S
O808 C795 1.236 . S
N809 Mn793 2.282 . S
N809 C810 1.328 . S
N809 C814 1.318 . S
C810 N809 1.328 . S
C810 C811 1.457 . S
C810 H815 0.929 . S
C811 C810 1.457 . S
C811 C812 1.291 . S
C811 H824 0.931 . S
C812 C811 1.291 . S
C812 C813 1.373 . S
C812 H825 0.929 . S
C813 C812 1.373 . S
C813 C814 1.396 . S
C813 C820 1.403 . S
C814 C804 1.476 . S
C814 N809 1.318 . S
C814 C813 1.396 . S
H815 C810 0.929 . S
O816 Mn792 2.385 . S
O816 C794 1.234 . S
O817 Mn792 2.209 . S
O817 Mn793 2.215 . S
O817 C794 1.283 . S
O818 Mn792 2.094 . S
O818 C796 1.240 . S
O819 Mn793 2.117 . S
O819 C796 1.264 . S
C820 C813 1.403 . S
C820 C821 1.399 . S
C820 H826 0.929 . S
C821 C801 1.449 . S
C821 C820 1.399 . S
C821 H827 0.930 . S
H822 C802 0.931 . S
H823 C803 0.930 . S
H824 C811 0.931 . S
H825 C812 0.929 . S
H826 C820 0.929 . S
H827 C821 0.930 . S
Mn828 O833 2.095 . S
Mn828 O843 2.162 . S
Mn828 O844 2.297 . S
Mn828 O852 2.385 . S
Mn828 O853 2.209 . S
Mn828 O854 2.094 . S
Mn829 O834 2.121 . S
Mn829 N836 2.257 . S
Mn829 N845 2.282 . S
Mn829 O853 2.215 . S
Mn829 O855 2.117 . S
C830 O852 1.234 . S
C830 O853 1.283 . S
C831 O843 1.281 . S
C831 O844 1.236 . S
C832 O854 1.240 . S
C832 O855 1.264 . S
O833 Mn828 2.095 . S
O833 C842 1.250 . S
O834 Mn829 2.121 . S
O834 C842 1.258 . S
C835 N836 1.326 . S
C835 C839 1.460 . S
C835 H841 0.929 . S
N836 Mn829 2.257 . S
N836 C835 1.326 . S
N836 C840 1.362 . S
C837 C838 1.258 . S
C837 C840 1.431 . S
C837 C857 1.449 . S
C838 C837 1.258 . S
C838 C839 1.477 . S
C838 H858 0.931 . S
C839 C835 1.460 . S
C839 C838 1.477 . S
C839 H859 0.930 . S
C840 N836 1.362 . S
C840 C837 1.431 . S
C840 C850 1.476 . S
H841 C835 0.929 . S
C842 O833 1.250 . S
C842 O834 1.258 . S
O843 Mn828 2.162 . S
O843 C831 1.281 . S
O844 Mn828 2.297 . S
O844 C831 1.236 . S
N845 Mn829 2.282 . S
N845 C846 1.328 . S
N845 C850 1.318 . S
C846 N845 1.328 . S
C846 C847 1.457 . S
C846 H851 0.929 . S
C847 C846 1.457 . S
C847 C848 1.291 . S
C847 H860 0.931 . S
C848 C847 1.291 . S
C848 C849 1.373 . S
C848 H861 0.929 . S
C849 C848 1.373 . S
C849 C850 1.396 . S
C849 C856 1.403 . S
C850 C840 1.476 . S
C850 N845 1.318 . S
C850 C849 1.396 . S
H851 C846 0.929 . S
O852 Mn828 2.385 . S
O852 C830 1.234 . S
O853 Mn828 2.209 . S
O853 Mn829 2.215 . S
O853 C830 1.283 . S
O854 Mn828 2.094 . S
O854 C832 1.240 . S
O855 Mn829 2.117 . S
O855 C832 1.264 . S
C856 C849 1.403 . S
C856 C857 1.399 . S
C856 H862 0.929 . S
C857 C837 1.449 . S
C857 C856 1.399 . S
C857 H863 0.930 . S
H858 C838 0.931 . S
H859 C839 0.930 . S
H860 C847 0.931 . S
H861 C848 0.929 . S
H862 C856 0.929 . S
H863 C857 0.930 . S
Tb864 C866 2.815 . S
Tb864 O884 2.490 . S
Tb864 O885 2.446 1_554 S
Tb864 O886 2.651 1_655 S
Tb864 O887 2.405 1_644 S
Tb864 O888 2.376 1_655 S
Tb864 O892 2.322 1_655 S
Tb864 O895 2.338 1_645 S
Tb865 C875 2.809 1_545 S
Tb865 O886 2.325 . S
Tb865 O889 2.341 . S
Tb865 O890 2.484 1_545 S
Tb865 O891 2.440 . S
Tb865 O892 2.658 . S
Tb865 O893 2.409 . S
Tb865 O894 2.378 1_545 S
C866 Tb864 2.815 . S
C866 C867 1.522 . S
C866 O884 1.248 . S
C866 O885 1.266 1_554 S
C867 C866 1.522 . S
C867 C868 1.401 . S
C867 C872 1.300 1_554 S
C868 C867 1.401 . S
C868 C869 1.380 . S
C868 H896 0.929 . S
C869 C868 1.380 . S
C869 C870 1.347 1_554 S
C869 H897 0.931 . S
C870 C869 1.347 1_556 S
C870 C871 1.369 . S
C871 C870 1.369 . S
C871 C872 1.408 . S
C871 H898 0.930 . S
C872 C867 1.300 1_556 S
C872 C871 1.408 . S
C872 H899 0.930 . S
C873 O886 1.281 1_556 S
C873 O887 1.258 1_545 S
C874 O888 1.236 . S
C874 O889 1.266 . S
C875 Tb865 2.809 1_565 S
C875 C876 1.514 . S
C875 O890 1.248 . S
C875 O891 1.266 1_565 S
C876 C875 1.514 . S
C876 C877 1.359 . S
C876 C881 1.348 . S
C877 C876 1.359 . S
C877 C878 1.380 . S
C877 H900 0.929 . S
C878 C877 1.380 . S
C878 C879 1.347 . S
C878 H901 0.931 . S
C879 C878 1.347 . S
C879 C880 1.369 . S
C880 C879 1.369 . S
C880 C881 1.408 . S
C880 H902 0.930 . S
C881 C876 1.348 . S
C881 C880 1.408 . S
C881 H903 0.930 . S
C882 O892 1.281 . S
C882 O893 1.254 . S
C883 O894 1.236 . S
C883 O895 1.266 . S
O884 Tb864 2.490 . S
O884 C866 1.248 . S
O885 Tb864 2.446 1_556 S
O885 C866 1.266 1_556 S
O886 Tb864 2.651 1_455 S
O886 Tb865 2.325 . S
O886 C873 1.281 1_554 S
O887 Tb864 2.405 1_466 S
O887 C873 1.258 1_565 S
O888 Tb864 2.376 1_455 S
O888 C874 1.236 . S
O889 Tb865 2.341 . S
O889 C874 1.266 . S
O890 Tb865 2.484 1_565 S
O890 C875 1.248 . S
O891 Tb865 2.440 . S
O891 C875 1.266 1_545 S
O892 Tb864 2.322 1_455 S
O892 Tb865 2.658 . S
O892 C882 1.281 . S
O893 Tb865 2.409 . S
O893 C882 1.254 . S
O894 Tb865 2.378 1_565 S
O894 C883 1.236 . S
O895 Tb864 2.338 1_465 S
O895 C883 1.266 . S
H896 C868 0.929 . S
H897 C869 0.931 . S
H898 C871 0.930 . S
H899 C872 0.930 . S
H900 C877 0.929 . S
H901 C878 0.931 . S
H902 C880 0.930 . S
H903 C881 0.930 . S
Tb904 C906 2.809 . S
Tb904 O924 2.484 . S
Tb904 O925 2.440 . S
Tb904 O926 2.658 . S
Tb904 O927 2.409 . S
Tb904 O928 2.378 . S
Tb904 O932 2.325 . S
Tb904 O935 2.341 . S
Tb905 C915 2.809 . S
Tb905 O926 2.325 . S
Tb905 O929 2.341 . S
Tb905 O930 2.484 . S
Tb905 O931 2.440 . S
Tb905 O932 2.658 . S
Tb905 O933 2.409 . S
Tb905 O934 2.378 . S
C906 Tb904 2.809 . S
C906 C907 1.514 . S
C906 O924 1.248 . S
C906 O925 1.266 . S
C907 C906 1.514 . S
C907 C908 1.359 . S
C907 C912 1.348 . S
C908 C907 1.359 . S
C908 C909 1.380 . S
C908 H936 0.929 . S
C909 C908 1.380 . S
C909 C910 1.347 . S
C909 H937 0.931 . S
C910 C909 1.347 . S
C910 C911 1.369 . S
C911 C910 1.369 . S
C911 C912 1.408 . S
C911 H938 0.930 . S
C912 C907 1.348 . S
C912 C911 1.408 . S
C912 H939 0.930 . S
C913 O926 1.281 . S
C913 O927 1.254 . S
C914 O928 1.236 . S
C914 O929 1.266 . S
C915 Tb905 2.809 . S
C915 C916 1.514 . S
C915 O930 1.248 . S
C915 O931 1.266 . S
C916 C915 1.514 . S
C916 C917 1.359 . S
C916 C921 1.348 . S
C917 C916 1.359 . S
C917 C918 1.380 . S
C917 H940 0.929 . S
C918 C917 1.380 . S
C918 C919 1.347 . S
C918 H941 0.931 . S
C919 C918 1.347 . S
C919 C920 1.369 . S
C920 C919 1.369 . S
C920 C921 1.408 . S
C920 H942 0.930 . S
C921 C916 1.348 . S
C921 C920 1.408 . S
C921 H943 0.930 . S
C922 O932 1.281 . S
C922 O933 1.254 . S
C923 O934 1.236 . S
C923 O935 1.266 . S
O924 Tb904 2.484 . S
O924 C906 1.248 . S
O925 Tb904 2.440 . S
O925 C906 1.266 . S
O926 Tb904 2.658 . S
O926 Tb905 2.325 . S
O926 C913 1.281 . S
O927 Tb904 2.409 . S
O927 C913 1.254 . S
O928 Tb904 2.378 . S
O928 C914 1.236 . S
O929 Tb905 2.341 . S
O929 C914 1.266 . S
O930 Tb905 2.484 . S
O930 C915 1.248 . S
O931 Tb905 2.440 . S
O931 C915 1.266 . S
O932 Tb904 2.325 . S
O932 Tb905 2.658 . S
O932 C922 1.281 . S
O933 Tb905 2.409 . S
O933 C922 1.254 . S
O934 Tb905 2.378 . S
O934 C923 1.236 . S
O935 Tb904 2.341 . S
O935 C923 1.266 . S
H936 C908 0.929 . S
H937 C909 0.931 . S
H938 C911 0.930 . S
H939 C912 0.930 . S
H940 C917 0.929 . S
H941 C918 0.931 . S
H942 C920 0.930 . S
H943 C921 0.930 . S
Tb944 C946 2.809 . S
Tb944 O964 2.484 . S
Tb944 O965 2.440 . S
Tb944 O966 2.658 . S
Tb944 O967 2.409 . S
Tb944 O968 2.378 1_545 S
Tb944 O972 2.325 . S
Tb944 O975 2.341 . S
Tb945 C955 2.809 . S
Tb945 O966 2.325 . S
Tb945 O969 2.341 1_545 S
Tb945 O970 2.484 . S
Tb945 O971 2.440 . S
Tb945 O972 2.658 . S
Tb945 O973 2.409 . S
Tb945 O974 2.378 . S
C946 Tb944 2.809 . S
C946 C947 1.514 1_545 S
C946 O964 1.248 . S
C946 O965 1.266 . S
C947 C946 1.514 1_565 S
C947 C948 1.359 . S
C947 C952 1.348 . S
C948 C947 1.359 . S
C948 C949 1.380 . S
C948 H976 0.929 . S
C949 C948 1.380 . S
C949 C950 1.347 . S
C949 H977 0.931 . S
C950 C949 1.347 . S
C950 C951 1.369 . S
C951 C950 1.369 . S
C951 C952 1.408 . S
C951 H978 0.930 . S
C952 C947 1.348 . S
C952 C951 1.408 . S
C952 H979 0.930 . S
C953 O966 1.281 . S
C953 O967 1.254 . S
C954 O968 1.236 . S
C954 O969 1.266 . S
C955 Tb945 2.809 . S
C955 C956 1.514 . S
C955 O970 1.248 . S
C955 O971 1.266 . S
C956 C955 1.514 . S
C956 C957 1.359 . S
C956 C961 1.348 . S
C957 C956 1.359 . S
C957 C958 1.380 . S
C957 H980 0.929 . S
C958 C957 1.380 . S
C958 C959 1.347 . S
C958 H981 0.931 . S
C959 C958 1.347 . S
C959 C960 1.369 . S
C960 C959 1.369 . S
C960 C961 1.408 . S
C960 H982 0.930 . S
C961 C956 1.348 . S
C961 C960 1.408 . S
C961 H983 0.930 . S
C962 O972 1.281 . S
C962 O973 1.254 . S
C963 O974 1.236 . S
C963 O975 1.266 . S
O964 Tb944 2.484 . S
O964 C946 1.248 . S
O965 Tb944 2.440 . S
O965 C946 1.266 . S
O966 Tb944 2.658 . S
O966 Tb945 2.325 . S
O966 C953 1.281 . S
O967 Tb944 2.409 . S
O967 C953 1.254 . S
O968 Tb944 2.378 1_565 S
O968 C954 1.236 . S
O969 Tb945 2.341 1_565 S
O969 C954 1.266 . S
O970 Tb945 2.484 . S
O970 C955 1.248 . S
O971 Tb945 2.440 . S
O971 C955 1.266 . S
O972 Tb944 2.325 . S
O972 Tb945 2.658 . S
O972 C962 1.281 . S
O973 Tb945 2.409 . S
O973 C962 1.254 . S
O974 Tb945 2.378 . S
O974 C963 1.236 . S
O975 Tb944 2.341 . S
O975 C963 1.266 . S
H976 C948 0.929 . S
H977 C949 0.931 . S
H978 C951 0.930 . S
H979 C952 0.930 . S
H980 C957 0.929 . S
H981 C958 0.931 . S
H982 C960 0.930 . S
H983 C961 0.930 . S
Tb984 C986 2.809 . S
Tb984 O1004 2.484 . S
Tb984 O1005 2.440 . S
Tb984 O1006 2.658 . S
Tb984 O1007 2.409 . S
Tb984 O1008 2.378 . S
Tb984 O1012 2.325 . S
Tb984 O1015 2.341 . S
Tb985 C995 2.809 . S
Tb985 O1006 2.325 . S
Tb985 O1009 2.341 . S
Tb985 O1010 2.484 . S
Tb985 O1011 2.440 . S
Tb985 O1012 2.658 . S
Tb985 O1013 2.409 . S
Tb985 O1014 2.378 . S
C986 Tb984 2.809 . S
C986 C987 1.514 . S
C986 O1004 1.248 . S
C986 O1005 1.266 . S
C987 C986 1.514 . S
C987 C988 1.359 . S
C987 C992 1.348 . S
C988 C987 1.359 . S
C988 C989 1.380 . S
C988 H1016 0.929 . S
C989 C988 1.380 . S
C989 C990 1.347 . S
C989 H1017 0.931 . S
C990 C989 1.347 . S
C990 C991 1.369 . S
C991 C990 1.369 . S
C991 C992 1.408 . S
C991 H1018 0.930 . S
C992 C987 1.348 . S
C992 C991 1.408 . S
C992 H1019 0.930 . S
C993 O1006 1.281 . S
C993 O1007 1.254 . S
C994 O1008 1.236 . S
C994 O1009 1.266 . S
C995 Tb985 2.809 . S
C995 C996 1.514 . S
C995 O1010 1.248 . S
C995 O1011 1.266 . S
C996 C995 1.514 . S
C996 C997 1.359 . S
C996 C1001 1.348 . S
C997 C996 1.359 . S
C997 C998 1.380 . S
C997 H1020 0.929 . S
C998 C997 1.380 . S
C998 C999 1.347 . S
C998 H1021 0.931 . S
C999 C998 1.347 . S
C999 C1000 1.369 . S
C1000 C999 1.369 . S
C1000 C1001 1.408 . S
C1000 H1022 0.930 . S
C1001 C996 1.348 . S
C1001 C1000 1.408 . S
C1001 H1023 0.930 . S
C1002 O1012 1.281 . S
C1002 O1013 1.254 . S
C1003 O1014 1.236 . S
C1003 O1015 1.266 . S
O1004 Tb984 2.484 . S
O1004 C986 1.248 . S
O1005 Tb984 2.440 . S
O1005 C986 1.266 . S
O1006 Tb984 2.658 . S
O1006 Tb985 2.325 . S
O1006 C993 1.281 . S
O1007 Tb984 2.409 . S
O1007 C993 1.254 . S
O1008 Tb984 2.378 . S
O1008 C994 1.236 . S
O1009 Tb985 2.341 . S
O1009 C994 1.266 . S
O1010 Tb985 2.484 . S
O1010 C995 1.248 . S
O1011 Tb985 2.440 . S
O1011 C995 1.266 . S
O1012 Tb984 2.325 . S
O1012 Tb985 2.658 . S
O1012 C1002 1.281 . S
O1013 Tb985 2.409 . S
O1013 C1002 1.254 . S
O1014 Tb985 2.378 . S
O1014 C1003 1.236 . S
O1015 Tb984 2.341 . S
O1015 C1003 1.266 . S
H1016 C988 0.929 . S
H1017 C989 0.931 . S
H1018 C991 0.930 . S
H1019 C992 0.930 . S
H1020 C997 0.929 . S
H1021 C998 0.931 . S
H1022 C1000 0.930 . S
H1023 C1001 0.930 . S
Tb1024 C1026 2.809 . S
Tb1024 O1044 2.484 . S
Tb1024 O1045 2.440 . S
Tb1024 O1046 2.658 . S
Tb1024 O1047 2.409 1_455 S
Tb1024 O1048 2.378 . S
Tb1024 O1052 2.325 . S
Tb1024 O1055 2.341 . S
Tb1025 C1035 2.809 . S
Tb1025 O1046 2.325 1_565 S
Tb1025 O1049 2.366 . S
Tb1025 O1050 2.484 . S
Tb1025 O1051 2.440 . S
Tb1025 O1052 2.658 1_565 S
Tb1025 O1053 2.409 1_565 S
Tb1025 O1054 2.378 1_565 S
C1026 Tb1024 2.809 . S
C1026 C1027 1.514 . S
C1026 O1044 1.248 . S
C1026 O1045 1.266 . S
C1027 C1026 1.514 . S
C1027 C1028 1.359 . S
C1027 C1032 1.348 1_455 S
C1028 C1027 1.359 . S
C1028 C1029 1.380 . S
C1028 H1056 0.929 . S
C1029 C1028 1.380 . S
C1029 C1030 1.347 . S
C1029 H1057 0.931 . S
C1030 C1029 1.347 . S
C1030 C1031 1.369 1_455 S
C1031 C1030 1.369 1_655 S
C1031 C1032 1.408 . S
C1031 H1058 0.930 . S
C1032 C1027 1.348 1_655 S
C1032 C1031 1.408 . S
C1032 H1059 0.930 . S
C1033 O1046 1.281 1_655 S
C1033 O1047 1.254 . S
C1034 O1048 1.236 . S
C1034 O1049 1.221 1_545 S
C1035 Tb1025 2.809 . S
C1035 C1036 1.514 . S
C1035 O1050 1.248 . S
C1035 O1051 1.266 . S
C1036 C1035 1.514 . S
C1036 C1037 1.359 . S
C1036 C1041 1.348 . S
C1037 C1036 1.359 . S
C1037 C1038 1.380 . S
C1037 H1060 0.929 . S
C1038 C1037 1.380 . S
C1038 C1039 1.347 . S
C1038 H1061 0.931 . S
C1039 C1038 1.347 . S
C1039 C1040 1.369 . S
C1040 C1039 1.369 . S
C1040 C1041 1.408 . S
C1040 H1062 0.930 . S
C1041 C1036 1.348 . S
C1041 C1040 1.408 . S
C1041 H1063 0.930 . S
C1042 O1052 1.281 . S
C1042 O1053 1.254 . S
C1043 O1054 1.236 . S
C1043 O1055 1.266 . S
O1044 Tb1024 2.484 . S
O1044 C1026 1.248 . S
O1045 Tb1024 2.440 . S
O1045 C1026 1.266 . S
O1046 Tb1024 2.658 . S
O1046 Tb1025 2.325 1_545 S
O1046 C1033 1.281 1_455 S
O1047 Tb1024 2.409 1_655 S
O1047 C1033 1.254 . S
O1048 Tb1024 2.378 . S
O1048 C1034 1.236 . S
O1049 Tb1025 2.366 . S
O1049 C1034 1.221 1_565 S
O1050 Tb1025 2.484 . S
O1050 C1035 1.248 . S
O1051 Tb1025 2.440 . S
O1051 C1035 1.266 . S
O1052 Tb1024 2.325 . S
O1052 Tb1025 2.658 1_545 S
O1052 C1042 1.281 . S
O1053 Tb1025 2.409 1_545 S
O1053 C1042 1.254 . S
O1054 Tb1025 2.378 1_545 S
O1054 C1043 1.236 . S
O1055 Tb1024 2.341 . S
O1055 C1043 1.266 . S
H1056 C1028 0.929 . S
H1057 C1029 0.931 . S
H1058 C1031 0.930 . S
H1059 C1032 0.930 . S
H1060 C1037 0.929 . S
H1061 C1038 0.931 . S
H1062 C1040 0.930 . S
H1063 C1041 0.930 . S
Tb1064 C1066 2.809 . S
Tb1064 O1084 2.484 . S
Tb1064 O1085 2.440 . S
Tb1064 O1086 2.658 . S
Tb1064 O1087 2.409 . S
Tb1064 O1088 2.378 . S
Tb1064 O1092 2.325 . S
Tb1064 O1095 2.341 . S
Tb1065 C1075 2.809 . S
Tb1065 O1086 2.325 . S
Tb1065 O1089 2.341 . S
Tb1065 O1090 2.484 . S
Tb1065 O1091 2.440 . S
Tb1065 O1092 2.658 . S
Tb1065 O1093 2.409 . S
Tb1065 O1094 2.378 . S
C1066 Tb1064 2.809 . S
C1066 C1067 1.514 . S
C1066 O1084 1.248 . S
C1066 O1085 1.266 . S
C1067 C1066 1.514 . S
C1067 C1068 1.359 . S
C1067 C1072 1.348 . S
C1068 C1067 1.359 . S
C1068 C1069 1.380 . S
C1068 H1096 0.929 . S
C1069 C1068 1.380 . S
C1069 C1070 1.347 . S
C1069 H1097 0.931 . S
C1070 C1069 1.347 . S
C1070 C1071 1.369 . S
C1071 C1070 1.369 . S
C1071 C1072 1.408 . S
C1071 H1098 0.930 . S
C1072 C1067 1.348 . S
C1072 C1071 1.408 . S
C1072 H1099 0.930 . S
C1073 O1086 1.281 . S
C1073 O1087 1.254 . S
C1074 O1088 1.236 . S
C1074 O1089 1.266 . S
C1075 Tb1065 2.809 . S
C1075 C1076 1.514 . S
C1075 O1090 1.248 . S
C1075 O1091 1.266 . S
C1076 C1075 1.514 . S
C1076 C1077 1.359 . S
C1076 C1081 1.348 . S
C1077 C1076 1.359 . S
C1077 C1078 1.380 . S
C1077 H1100 0.929 . S
C1078 C1077 1.380 . S
C1078 C1079 1.347 . S
C1078 H1101 0.931 . S
C1079 C1078 1.347 . S
C1079 C1080 1.369 . S
C1080 C1079 1.369 . S
C1080 C1081 1.408 . S
C1080 H1102 0.930 . S
C1081 C1076 1.348 . S
C1081 C1080 1.408 . S
C1081 H1103 0.930 . S
C1082 O1092 1.281 . S
C1082 O1093 1.254 . S
C1083 O1094 1.236 . S
C1083 O1095 1.266 . S
O1084 Tb1064 2.484 . S
O1084 C1066 1.248 . S
O1085 Tb1064 2.440 . S
O1085 C1066 1.266 . S
O1086 Tb1064 2.658 . S
O1086 Tb1065 2.325 . S
O1086 C1073 1.281 . S
O1087 Tb1064 2.409 . S
O1087 C1073 1.254 . S
O1088 Tb1064 2.378 . S
O1088 C1074 1.236 . S
O1089 Tb1065 2.341 . S
O1089 C1074 1.266 . S
O1090 Tb1065 2.484 . S
O1090 C1075 1.248 . S
O1091 Tb1065 2.440 . S
O1091 C1075 1.266 . S
O1092 Tb1064 2.325 . S
O1092 Tb1065 2.658 . S
O1092 C1082 1.281 . S
O1093 Tb1065 2.409 . S
O1093 C1082 1.254 . S
O1094 Tb1065 2.378 . S
O1094 C1083 1.236 . S
O1095 Tb1064 2.341 . S
O1095 C1083 1.266 . S
H1096 C1068 0.929 . S
H1097 C1069 0.931 . S
H1098 C1071 0.930 . S
H1099 C1072 0.930 . S
H1100 C1077 0.929 . S
H1101 C1078 0.931 . S
H1102 C1080 0.930 . S
H1103 C1081 0.930 . S
Tb1104 C1106 2.809 . S
Tb1104 O1124 2.484 1_545 S
Tb1104 O1125 2.440 . S
Tb1104 O1126 2.658 . S
Tb1104 O1127 2.409 . S
Tb1104 O1128 2.378 . S
Tb1104 O1132 2.325 1_545 S
Tb1104 O1135 2.341 1_554 S
Tb1105 C1115 2.809 . S
Tb1105 O1126 2.325 . S
Tb1105 O1129 2.341 . S
Tb1105 O1130 2.484 . S
Tb1105 O1131 2.440 . S
Tb1105 O1132 2.658 1_545 S
Tb1105 O1133 2.409 1_545 S
Tb1105 O1134 2.378 . S
C1106 Tb1104 2.809 . S
C1106 C1107 1.514 1_545 S
C1106 O1124 1.248 1_545 S
C1106 O1125 1.266 . S
C1107 C1106 1.514 1_565 S
C1107 C1108 1.359 . S
C1107 C1112 1.348 1_565 S
C1108 C1107 1.359 . S
C1108 C1109 1.380 . S
C1108 H1136 0.929 . S
C1109 C1108 1.380 . S
C1109 C1110 1.347 . S
C1109 H1137 0.931 . S
C1110 C1109 1.347 . S
C1110 C1111 1.337 1_565 S
C1111 C1110 1.337 1_545 S
C1111 C1112 1.415 . S
C1111 H1138 0.956 . S
C1112 C1107 1.348 1_545 S
C1112 C1111 1.415 . S
C1112 H1139 0.930 . S
C1113 O1126 1.281 . S
C1113 O1127 1.254 . S
C1114 O1128 1.236 . S
C1114 O1129 1.266 . S
C1115 Tb1105 2.809 . S
C1115 C1116 1.514 . S
C1115 O1130 1.248 . S
C1115 O1131 1.266 . S
C1116 C1115 1.514 . S
C1116 C1117 1.359 . S
C1116 C1121 1.348 . S
C1117 C1116 1.359 . S
C1117 C1118 1.380 . S
C1117 H1140 0.929 . S
C1118 C1117 1.380 . S
C1118 C1119 1.347 . S
C1118 H1141 0.931 . S
C1119 C1118 1.347 . S
C1119 C1120 1.369 . S
C1120 C1119 1.369 . S
C1120 C1121 1.408 . S
C1120 H1142 0.930 . S
C1121 C1116 1.348 . S
C1121 C1120 1.408 . S
C1121 H1143 0.930 . S
C1122 O1132 1.281 . S
C1122 O1133 1.254 . S
C1123 O1134 1.236 1_556 S
C1123 O1135 1.266 . S
O1124 Tb1104 2.484 1_565 S
O1124 C1106 1.248 1_565 S
O1125 Tb1104 2.440 . S
O1125 C1106 1.266 . S
O1126 Tb1104 2.658 . S
O1126 Tb1105 2.325 . S
O1126 C1113 1.281 . S
O1127 Tb1104 2.409 . S
O1127 C1113 1.254 . S
O1128 Tb1104 2.378 . S
O1128 C1114 1.236 . S
O1129 Tb1105 2.341 . S
O1129 C1114 1.266 . S
O1130 Tb1105 2.484 . S
O1130 C1115 1.248 . S
O1131 Tb1105 2.440 . S
O1131 C1115 1.266 . S
O1132 Tb1104 2.325 1_565 S
O1132 Tb1105 2.658 1_565 S
O1132 C1122 1.281 . S
O1133 Tb1105 2.409 1_565 S
O1133 C1122 1.254 . S
O1134 Tb1105 2.378 . S
O1134 C1123 1.236 1_554 S
O1135 Tb1104 2.341 1_556 S
O1135 C1123 1.266 . S
H1136 C1108 0.929 . S
H1137 C1109 0.931 . S
H1138 C1111 0.956 . S
H1139 C1112 0.930 . S
H1140 C1117 0.929 . S
H1141 C1118 0.931 . S
H1142 C1120 0.930 . S
H1143 C1121 0.930 . S
Tb1144 C1146 2.809 . S
Tb1144 O1164 2.484 . S
Tb1144 O1165 2.440 . S
Tb1144 O1166 2.658 . S
Tb1144 O1167 2.409 . S
Tb1144 O1168 2.378 . S
Tb1144 O1172 2.325 . S
Tb1144 O1175 2.341 . S
Tb1145 C1155 2.809 . S
Tb1145 O1166 2.325 . S
Tb1145 O1169 2.341 . S
Tb1145 O1170 2.484 . S
Tb1145 O1171 2.440 . S
Tb1145 O1172 2.658 . S
Tb1145 O1173 2.409 . S
Tb1145 O1174 2.378 . S
C1146 Tb1144 2.809 . S
C1146 C1147 1.514 . S
C1146 O1164 1.248 . S
C1146 O1165 1.266 . S
C1147 C1146 1.514 . S
C1147 C1148 1.359 . S
C1147 C1152 1.348 . S
C1148 C1147 1.359 . S
C1148 C1149 1.380 . S
C1148 H1176 0.929 . S
C1149 C1148 1.380 . S
C1149 C1150 1.347 . S
C1149 H1177 0.931 . S
C1150 C1149 1.347 . S
C1150 C1151 1.369 . S
C1151 C1150 1.369 . S
C1151 C1152 1.408 . S
C1151 H1178 0.930 . S
C1152 C1147 1.348 . S
C1152 C1151 1.408 . S
C1152 H1179 0.930 . S
C1153 O1166 1.281 . S
C1153 O1167 1.254 . S
C1154 O1168 1.236 . S
C1154 O1169 1.266 . S
C1155 Tb1145 2.809 . S
C1155 C1156 1.514 . S
C1155 O1170 1.248 . S
C1155 O1171 1.266 . S
C1156 C1155 1.514 . S
C1156 C1157 1.359 . S
C1156 C1161 1.348 . S
C1157 C1156 1.359 . S
C1157 C1158 1.380 . S
C1157 H1180 0.929 . S
C1158 C1157 1.380 . S
C1158 C1159 1.347 . S
C1158 H1181 0.931 . S
C1159 C1158 1.347 . S
C1159 C1160 1.369 . S
C1160 C1159 1.369 . S
C1160 C1161 1.408 . S
C1160 H1182 0.930 . S
C1161 C1156 1.348 . S
C1161 C1160 1.408 . S
C1161 H1183 0.930 . S
C1162 O1172 1.281 . S
C1162 O1173 1.254 . S
C1163 O1174 1.236 . S
C1163 O1175 1.266 . S
O1164 Tb1144 2.484 . S
O1164 C1146 1.248 . S
O1165 Tb1144 2.440 . S
O1165 C1146 1.266 . S
O1166 Tb1144 2.658 . S
O1166 Tb1145 2.325 . S
O1166 C1153 1.281 . S
O1167 Tb1144 2.409 . S
O1167 C1153 1.254 . S
O1168 Tb1144 2.378 . S
O1168 C1154 1.236 . S
O1169 Tb1145 2.341 . S
O1169 C1154 1.266 . S
O1170 Tb1145 2.484 . S
O1170 C1155 1.248 . S
O1171 Tb1145 2.440 . S
O1171 C1155 1.266 . S
O1172 Tb1144 2.325 . S
O1172 Tb1145 2.658 . S
O1172 C1162 1.281 . S
O1173 Tb1145 2.409 . S
O1173 C1162 1.254 . S
O1174 Tb1145 2.378 . S
O1174 C1163 1.236 . S
O1175 Tb1144 2.341 . S
O1175 C1163 1.266 . S
H1176 C1148 0.929 . S
H1177 C1149 0.931 . S
H1178 C1151 0.930 . S
H1179 C1152 0.930 . S
H1180 C1157 0.929 . S
H1181 C1158 0.931 . S
H1182 C1160 0.930 . S
H1183 C1161 0.930 . S
Tb1184 C1186 2.809 . S
Tb1184 O1204 2.484 . S
Tb1184 O1205 2.440 . S
Tb1184 O1206 2.658 . S
Tb1184 O1207 2.409 . S
Tb1184 O1208 2.378 1_554 S
Tb1184 O1212 2.325 . S
Tb1184 O1215 2.341 . S
Tb1185 C1195 2.809 . S
Tb1185 O1206 2.325 . S
Tb1185 O1209 2.341 1_554 S
Tb1185 O1210 2.484 . S
Tb1185 O1211 2.440 . S
Tb1185 O1212 2.658 . S
Tb1185 O1213 2.409 . S
Tb1185 O1214 2.378 . S
C1186 Tb1184 2.809 . S
C1186 C1187 1.514 1_554 S
C1186 O1204 1.248 . S
C1186 O1205 1.266 . S
C1187 C1186 1.514 1_556 S
C1187 C1188 1.359 . S
C1187 C1192 1.348 . S
C1188 C1187 1.359 . S
C1188 C1189 1.380 . S
C1188 H1216 0.929 . S
C1189 C1188 1.380 . S
C1189 C1190 1.347 . S
C1189 H1217 0.931 . S
C1190 C1189 1.347 . S
C1190 C1191 1.369 . S
C1191 C1190 1.369 . S
C1191 C1192 1.408 . S
C1191 H1218 0.930 . S
C1192 C1187 1.348 . S
C1192 C1191 1.408 . S
C1192 H1219 0.930 . S
C1193 O1206 1.281 . S
C1193 O1207 1.254 . S
C1194 O1208 1.236 . S
C1194 O1209 1.266 . S
C1195 Tb1185 2.809 . S
C1195 C1196 1.514 . S
C1195 O1210 1.248 . S
C1195 O1211 1.266 . S
C1196 C1195 1.514 . S
C1196 C1197 1.359 . S
C1196 C1201 1.348 . S
C1197 C1196 1.359 . S
C1197 C1198 1.380 . S
C1197 H1220 0.929 . S
C1198 C1197 1.380 . S
C1198 C1199 1.347 . S
C1198 H1221 0.931 . S
C1199 C1198 1.347 . S
C1199 C1200 1.369 . S
C1200 C1199 1.369 . S
C1200 C1201 1.408 . S
C1200 H1222 0.930 . S
C1201 C1196 1.348 . S
C1201 C1200 1.408 . S
C1201 H1223 0.930 . S
C1202 O1212 1.281 . S
C1202 O1213 1.254 . S
C1203 O1214 1.236 . S
C1203 O1215 1.266 . S
O1204 Tb1184 2.484 . S
O1204 C1186 1.248 . S
O1205 Tb1184 2.440 . S
O1205 C1186 1.266 . S
O1206 Tb1184 2.658 . S
O1206 Tb1185 2.325 . S
O1206 C1193 1.281 . S
O1207 Tb1184 2.409 . S
O1207 C1193 1.254 . S
O1208 Tb1184 2.378 1_556 S
O1208 C1194 1.236 . S
O1209 Tb1185 2.341 1_556 S
O1209 C1194 1.266 . S
O1210 Tb1185 2.484 . S
O1210 C1195 1.248 . S
O1211 Tb1185 2.440 . S
O1211 C1195 1.266 . S
O1212 Tb1184 2.325 . S
O1212 Tb1185 2.658 . S
O1212 C1202 1.281 . S
O1213 Tb1185 2.409 . S
O1213 C1202 1.254 . S
O1214 Tb1185 2.378 . S
O1214 C1203 1.236 . S
O1215 Tb1184 2.341 . S
O1215 C1203 1.266 . S
H1216 C1188 0.929 . S
H1217 C1189 0.931 . S
H1218 C1191 0.930 . S
H1219 C1192 0.930 . S
H1220 C1197 0.929 . S
H1221 C1198 0.931 . S
H1222 C1200 0.930 . S
H1223 C1201 0.930 . S
Tb1224 C1226 2.809 . S
Tb1224 O1244 2.484 . S
Tb1224 O1245 2.440 . S
Tb1224 O1246 2.658 . S
Tb1224 O1247 2.409 . S
Tb1224 O1248 2.378 . S
Tb1224 O1252 2.325 . S
Tb1224 O1255 2.341 . S
Tb1225 C1235 2.809 . S
Tb1225 O1246 2.325 . S
Tb1225 O1249 2.341 . S
Tb1225 O1250 2.484 . S
Tb1225 O1251 2.440 . S
Tb1225 O1252 2.658 . S
Tb1225 O1253 2.409 . S
Tb1225 O1254 2.378 . S
C1226 Tb1224 2.809 . S
C1226 C1227 1.514 . S
C1226 O1244 1.248 . S
C1226 O1245 1.266 . S
C1227 C1226 1.514 . S
C1227 C1228 1.359 . S
C1227 C1232 1.348 . S
C1228 C1227 1.359 . S
C1228 C1229 1.380 . S
C1228 H1256 0.929 . S
C1229 C1228 1.380 . S
C1229 C1230 1.347 . S
C1229 H1257 0.931 . S
C1230 C1229 1.347 . S
C1230 C1231 1.369 . S
C1231 C1230 1.369 . S
C1231 C1232 1.408 . S
C1231 H1258 0.930 . S
C1232 C1227 1.348 . S
C1232 C1231 1.408 . S
C1232 H1259 0.930 . S
C1233 O1246 1.281 . S
C1233 O1247 1.254 . S
C1234 O1248 1.236 . S
C1234 O1249 1.266 . S
C1235 Tb1225 2.809 . S
C1235 C1236 1.514 . S
C1235 O1250 1.248 . S
C1235 O1251 1.266 . S
C1236 C1235 1.514 . S
C1236 C1237 1.359 . S
C1236 C1241 1.348 . S
C1237 C1236 1.359 . S
C1237 C1238 1.380 . S
C1237 H1260 0.929 . S
C1238 C1237 1.380 . S
C1238 C1239 1.347 . S
C1238 H1261 0.931 . S
C1239 C1238 1.347 . S
C1239 C1240 1.369 . S
C1240 C1239 1.369 . S
C1240 C1241 1.408 . S
C1240 H1262 0.930 . S
C1241 C1236 1.348 . S
C1241 C1240 1.408 . S
C1241 H1263 0.930 . S
C1242 O1252 1.281 . S
C1242 O1253 1.254 . S
C1243 O1254 1.236 . S
C1243 O1255 1.266 . S
O1244 Tb1224 2.484 . S
O1244 C1226 1.248 . S
O1245 Tb1224 2.440 . S
O1245 C1226 1.266 . S
O1246 Tb1224 2.658 . S
O1246 Tb1225 2.325 . S
O1246 C1233 1.281 . S
O1247 Tb1224 2.409 . S
O1247 C1233 1.254 . S
O1248 Tb1224 2.378 . S
O1248 C1234 1.236 . S
O1249 Tb1225 2.341 . S
O1249 C1234 1.266 . S
O1250 Tb1225 2.484 . S
O1250 C1235 1.248 . S
O1251 Tb1225 2.440 . S
O1251 C1235 1.266 . S
O1252 Tb1224 2.325 . S
O1252 Tb1225 2.658 . S
O1252 C1242 1.281 . S
O1253 Tb1225 2.409 . S
O1253 C1242 1.254 . S
O1254 Tb1225 2.378 . S
O1254 C1243 1.236 . S
O1255 Tb1224 2.341 . S
O1255 C1243 1.266 . S
H1256 C1228 0.929 . S
H1257 C1229 0.931 . S
H1258 C1231 0.930 . S
H1259 C1232 0.930 . S
H1260 C1237 0.929 . S
H1261 C1238 0.931 . S
H1262 C1240 0.930 . S
H1263 C1241 0.930 . S
Tb1264 C1266 2.809 1_455 S
Tb1264 O1284 2.484 1_455 S
Tb1264 O1285 2.440 1_455 S
Tb1264 O1286 2.658 . S
Tb1264 O1287 2.409 . S
Tb1264 O1288 2.378 . S
Tb1264 O1292 2.325 . S
Tb1264 O1295 2.341 . S
Tb1265 C1275 2.809 . S
Tb1265 O1286 2.325 . S
Tb1265 O1289 2.341 . S
Tb1265 O1290 2.484 . S
Tb1265 O1291 2.440 . S
Tb1265 O1292 2.658 . S
Tb1265 O1293 2.409 . S
Tb1265 O1294 2.378 . S
C1266 Tb1264 2.809 1_655 S
C1266 C1267 1.514 . S
C1266 O1284 1.248 . S
C1266 O1285 1.266 . S
C1267 C1266 1.514 . S
C1267 C1268 1.359 . S
C1267 C1272 1.348 . S
C1268 C1267 1.359 . S
C1268 C1269 1.380 . S
C1268 H1296 0.929 . S
C1269 C1268 1.380 . S
C1269 C1270 1.347 . S
C1269 H1297 0.931 . S
C1270 C1269 1.347 . S
C1270 C1271 1.369 . S
C1271 C1270 1.369 . S
C1271 C1272 1.408 . S
C1271 H1298 0.930 . S
C1272 C1267 1.348 . S
C1272 C1271 1.408 . S
C1272 H1299 0.930 . S
C1273 O1286 1.281 . S
C1273 O1287 1.254 . S
C1274 O1288 1.236 . S
C1274 O1289 1.266 . S
C1275 Tb1265 2.809 . S
C1275 C1276 1.514 . S
C1275 O1290 1.248 . S
C1275 O1291 1.266 . S
C1276 C1275 1.514 . S
C1276 C1277 1.359 . S
C1276 C1281 1.348 . S
C1277 C1276 1.359 . S
C1277 C1278 1.380 . S
C1277 H1300 0.929 . S
C1278 C1277 1.380 . S
C1278 C1279 1.347 . S
C1278 H1301 0.931 . S
C1279 C1278 1.347 . S
C1279 C1280 1.369 . S
C1280 C1279 1.369 . S
C1280 C1281 1.408 . S
C1280 H1302 0.930 . S
C1281 C1276 1.348 . S
C1281 C1280 1.408 . S
C1281 H1303 0.930 . S
C1282 O1292 1.281 . S
C1282 O1293 1.254 . S
C1283 O1294 1.236 . S
C1283 O1295 1.266 . S
O1284 Tb1264 2.484 1_655 S
O1284 C1266 1.248 . S
O1285 Tb1264 2.440 1_655 S
O1285 C1266 1.266 . S
O1286 Tb1264 2.658 . S
O1286 Tb1265 2.325 . S
O1286 C1273 1.281 . S
O1287 Tb1264 2.409 . S
O1287 C1273 1.254 . S
O1288 Tb1264 2.378 . S
O1288 C1274 1.236 . S
O1289 Tb1265 2.341 . S
O1289 C1274 1.266 . S
O1290 Tb1265 2.484 . S
O1290 C1275 1.248 . S
O1291 Tb1265 2.440 . S
O1291 C1275 1.266 . S
O1292 Tb1264 2.325 . S
O1292 Tb1265 2.658 . S
O1292 C1282 1.281 . S
O1293 Tb1265 2.409 . S
O1293 C1282 1.254 . S
O1294 Tb1265 2.378 . S
O1294 C1283 1.236 . S
O1295 Tb1264 2.341 . S
O1295 C1283 1.266 . S
H1296 C1268 0.929 . S
H1297 C1269 0.931 . S
H1298 C1271 0.930 . S
H1299 C1272 0.930 . S
H1300 C1277 0.929 . S
H1301 C1278 0.931 . S
H1302 C1280 0.930 . S
H1303 C1281 0.930 . S
Tb1304 C1306 2.809 . S
Tb1304 O1324 2.484 . S
Tb1304 O1325 2.440 . S
Tb1304 O1326 2.658 . S
Tb1304 O1327 2.409 . S
Tb1304 O1328 2.378 . S
Tb1304 O1332 2.325 . S
Tb1304 O1335 2.341 . S
Tb1305 C1315 2.809 . S
Tb1305 O1326 2.325 . S
Tb1305 O1329 2.341 . S
Tb1305 O1330 2.484 . S
Tb1305 O1331 2.440 . S
Tb1305 O1332 2.658 . S
Tb1305 O1333 2.409 . S
Tb1305 O1334 2.378 . S
C1306 Tb1304 2.809 . S
C1306 C1307 1.514 . S
C1306 O1324 1.248 . S
C1306 O1325 1.266 . S
C1307 C1306 1.514 . S
C1307 C1308 1.359 . S
C1307 C1312 1.348 . S
C1308 C1307 1.359 . S
C1308 C1309 1.380 . S
C1308 H1336 0.929 . S
C1309 C1308 1.380 . S
C1309 C1310 1.347 . S
C1309 H1337 0.931 . S
C1310 C1309 1.347 . S
C1310 C1311 1.369 . S
C1311 C1310 1.369 . S
C1311 C1312 1.408 . S
C1311 H1338 0.930 . S
C1312 C1307 1.348 . S
C1312 C1311 1.408 . S
C1312 H1339 0.930 . S
C1313 O1326 1.281 . S
C1313 O1327 1.254 . S
C1314 O1328 1.236 . S
C1314 O1329 1.266 . S
C1315 Tb1305 2.809 . S
C1315 C1316 1.514 . S
C1315 O1330 1.248 . S
C1315 O1331 1.266 . S
C1316 C1315 1.514 . S
C1316 C1317 1.359 . S
C1316 C1321 1.348 . S
C1317 C1316 1.359 . S
C1317 C1318 1.380 . S
C1317 H1340 0.929 . S
C1318 C1317 1.380 . S
C1318 C1319 1.347 . S
C1318 H1341 0.931 . S
C1319 C1318 1.347 . S
C1319 C1320 1.369 . S
C1320 C1319 1.369 . S
C1320 C1321 1.408 . S
C1320 H1342 0.930 . S
C1321 C1316 1.348 . S
C1321 C1320 1.408 . S
C1321 H1343 0.930 . S
C1322 O1332 1.281 . S
C1322 O1333 1.254 . S
C1323 O1334 1.236 . S
C1323 O1335 1.266 . S
O1324 Tb1304 2.484 . S
O1324 C1306 1.248 . S
O1325 Tb1304 2.440 . S
O1325 C1306 1.266 . S
O1326 Tb1304 2.658 . S
O1326 Tb1305 2.325 . S
O1326 C1313 1.281 . S
O1327 Tb1304 2.409 . S
O1327 C1313 1.254 . S
O1328 Tb1304 2.378 . S
O1328 C1314 1.236 . S
O1329 Tb1305 2.341 . S
O1329 C1314 1.266 . S
O1330 Tb1305 2.484 . S
O1330 C1315 1.248 . S
O1331 Tb1305 2.440 . S
O1331 C1315 1.266 . S
O1332 Tb1304 2.325 . S
O1332 Tb1305 2.658 . S
O1332 C1322 1.281 . S
O1333 Tb1305 2.409 . S
O1333 C1322 1.254 . S
O1334 Tb1305 2.378 . S
O1334 C1323 1.236 . S
O1335 Tb1304 2.341 . S
O1335 C1323 1.266 . S
H1336 C1308 0.929 . S
H1337 C1309 0.931 . S
H1338 C1311 0.930 . S
H1339 C1312 0.930 . S
H1340 C1317 0.929 . S
H1341 C1318 0.931 . S
H1342 C1320 0.930 . S
H1343 C1321 0.930 . S
Tb1344 C1346 2.809 . S
Tb1344 O1364 2.484 . S
Tb1344 O1365 2.440 . S
Tb1344 O1366 2.658 . S
Tb1344 O1367 2.409 . S
Tb1344 O1368 2.378 . S
Tb1344 O1372 2.325 . S
Tb1344 O1375 2.341 . S
Tb1345 C1355 2.809 . S
Tb1345 O1366 2.325 . S
Tb1345 O1369 2.341 . S
Tb1345 O1370 2.484 . S
Tb1345 O1371 2.440 . S
Tb1345 O1372 2.658 . S
Tb1345 O1373 2.409 . S
Tb1345 O1374 2.378 . S
C1346 Tb1344 2.809 . S
C1346 C1347 1.514 . S
C1346 O1364 1.248 . S
C1346 O1365 1.266 . S
C1347 C1346 1.514 . S
C1347 C1348 1.359 . S
C1347 C1352 1.348 . S
C1348 C1347 1.359 . S
C1348 C1349 1.380 . S
C1348 H1376 0.929 . S
C1349 C1348 1.380 . S
C1349 C1350 1.347 . S
C1349 H1377 0.931 . S
C1350 C1349 1.347 . S
C1350 C1351 1.369 . S
C1351 C1350 1.369 . S
C1351 C1352 1.408 . S
C1351 H1378 0.930 . S
C1352 C1347 1.348 . S
C1352 C1351 1.408 . S
C1352 H1379 0.930 . S
C1353 O1366 1.281 . S
C1353 O1367 1.254 . S
C1354 O1368 1.236 . S
C1354 O1369 1.266 . S
C1355 Tb1345 2.809 . S
C1355 C1356 1.514 . S
C1355 O1370 1.248 . S
C1355 O1371 1.266 . S
C1356 C1355 1.514 . S
C1356 C1357 1.359 . S
C1356 C1361 1.348 . S
C1357 C1356 1.359 . S
C1357 C1358 1.380 . S
C1357 H1380 0.929 . S
C1358 C1357 1.380 . S
C1358 C1359 1.347 . S
C1358 H1381 0.931 . S
C1359 C1358 1.347 . S
C1359 C1360 1.369 . S
C1360 C1359 1.369 . S
C1360 C1361 1.408 . S
C1360 H1382 0.930 . S
C1361 C1356 1.348 . S
C1361 C1360 1.408 . S
C1361 H1383 0.930 . S
C1362 O1372 1.281 . S
C1362 O1373 1.254 . S
C1363 O1374 1.236 . S
C1363 O1375 1.266 . S
O1364 Tb1344 2.484 . S
O1364 C1346 1.248 . S
O1365 Tb1344 2.440 . S
O1365 C1346 1.266 . S
O1366 Tb1344 2.658 . S
O1366 Tb1345 2.325 . S
O1366 C1353 1.281 . S
O1367 Tb1344 2.409 . S
O1367 C1353 1.254 . S
O1368 Tb1344 2.378 . S
O1368 C1354 1.236 . S
O1369 Tb1345 2.341 . S
O1369 C1354 1.266 . S
O1370 Tb1345 2.484 . S
O1370 C1355 1.248 . S
O1371 Tb1345 2.440 . S
O1371 C1355 1.266 . S
O1372 Tb1344 2.325 . S
O1372 Tb1345 2.658 . S
O1372 C1362 1.281 . S
O1373 Tb1345 2.409 . S
O1373 C1362 1.254 . S
O1374 Tb1345 2.378 . S
O1374 C1363 1.236 . S
O1375 Tb1344 2.341 . S
O1375 C1363 1.266 . S
H1376 C1348 0.929 . S
H1377 C1349 0.931 . S
H1378 C1351 0.930 . S
H1379 C1352 0.930 . S
H1380 C1357 0.929 . S
H1381 C1358 0.931 . S
H1382 C1360 0.930 . S
H1383 C1361 0.930 . S
Tb1384 C1386 2.809 . S
Tb1384 O1404 2.484 . S
Tb1384 O1405 2.440 . S
Tb1384 O1406 2.658 . S
Tb1384 O1407 2.409 . S
Tb1384 O1408 2.378 . S
Tb1384 O1412 2.325 . S
Tb1384 O1415 2.341 . S
Tb1385 C1395 2.809 . S
Tb1385 O1406 2.325 . S
Tb1385 O1409 2.341 . S
Tb1385 O1410 2.484 . S
Tb1385 O1411 2.440 . S
Tb1385 O1412 2.658 . S
Tb1385 O1413 2.409 . S
Tb1385 O1414 2.378 . S
C1386 Tb1384 2.809 . S
C1386 C1387 1.514 . S
C1386 O1404 1.248 . S
C1386 O1405 1.266 . S
C1387 C1386 1.514 . S
C1387 C1388 1.359 . S
C1387 C1392 1.348 . S
C1388 C1387 1.359 . S
C1388 C1389 1.380 . S
C1388 H1416 0.929 . S
C1389 C1388 1.380 . S
C1389 C1390 1.347 . S
C1389 H1417 0.931 . S
C1390 C1389 1.347 . S
C1390 C1391 1.369 . S
C1391 C1390 1.369 . S
C1391 C1392 1.408 . S
C1391 H1418 0.930 . S
C1392 C1387 1.348 . S
C1392 C1391 1.408 . S
C1392 H1419 0.930 . S
C1393 O1406 1.281 . S
C1393 O1407 1.254 . S
C1394 O1408 1.236 . S
C1394 O1409 1.266 . S
C1395 Tb1385 2.809 . S
C1395 C1396 1.514 . S
C1395 O1410 1.248 . S
C1395 O1411 1.266 . S
C1396 C1395 1.514 . S
C1396 C1397 1.359 . S
C1396 C1401 1.348 . S
C1397 C1396 1.359 . S
C1397 C1398 1.380 . S
C1397 H1420 0.929 . S
C1398 C1397 1.380 . S
C1398 C1399 1.347 . S
C1398 H1421 0.931 . S
C1399 C1398 1.347 . S
C1399 C1400 1.369 . S
C1400 C1399 1.369 . S
C1400 C1401 1.408 . S
C1400 H1422 0.930 . S
C1401 C1396 1.348 . S
C1401 C1400 1.408 . S
C1401 H1423 0.930 . S
C1402 O1412 1.281 . S
C1402 O1413 1.254 . S
C1403 O1414 1.236 . S
C1403 O1415 1.266 . S
O1404 Tb1384 2.484 . S
O1404 C1386 1.248 . S
O1405 Tb1384 2.440 . S
O1405 C1386 1.266 . S
O1406 Tb1384 2.658 . S
O1406 Tb1385 2.325 . S
O1406 C1393 1.281 . S
O1407 Tb1384 2.409 . S
O1407 C1393 1.254 . S
O1408 Tb1384 2.378 . S
O1408 C1394 1.236 . S
O1409 Tb1385 2.341 . S
O1409 C1394 1.266 . S
O1410 Tb1385 2.484 . S
O1410 C1395 1.248 . S
O1411 Tb1385 2.440 . S
O1411 C1395 1.266 . S
O1412 Tb1384 2.325 . S
O1412 Tb1385 2.658 . S
O1412 C1402 1.281 . S
O1413 Tb1385 2.409 . S
O1413 C1402 1.254 . S
O1414 Tb1385 2.378 . S
O1414 C1403 1.236 . S
O1415 Tb1384 2.341 . S
O1415 C1403 1.266 . S
H1416 C1388 0.929 . S
H1417 C1389 0.931 . S
H1418 C1391 0.930 . S
H1419 C1392 0.930 . S
H1420 C1397 0.929 . S
H1421 C1398 0.931 . S
H1422 C1400 0.930 . S
H1423 C1401 0.930 . S
Tb1424 C1426 2.809 . S
Tb1424 O1444 2.484 . S
Tb1424 O1445 2.440 . S
Tb1424 O1446 2.658 . S
Tb1424 O1447 2.409 . S
Tb1424 O1448 2.378 . S
Tb1424 O1452 2.325 . S
Tb1424 O1455 2.341 . S
Tb1425 C1435 2.809 . S
Tb1425 O1446 2.325 . S
Tb1425 O1449 2.341 . S
Tb1425 O1450 2.484 . S
Tb1425 O1451 2.440 . S
Tb1425 O1452 2.658 . S
Tb1425 O1453 2.409 . S
Tb1425 O1454 2.378 . S
C1426 Tb1424 2.809 . S
C1426 C1427 1.514 . S
C1426 O1444 1.248 . S
C1426 O1445 1.266 . S
C1427 C1426 1.514 . S
C1427 C1428 1.359 . S
C1427 C1432 1.348 . S
C1428 C1427 1.359 . S
C1428 C1429 1.380 . S
C1428 H1456 0.929 . S
C1429 C1428 1.380 . S
C1429 C1430 1.347 . S
C1429 H1457 0.931 . S
C1430 C1429 1.347 . S
C1430 C1431 1.369 . S
C1431 C1430 1.369 . S
C1431 C1432 1.408 . S
C1431 H1458 0.930 . S
C1432 C1427 1.348 . S
C1432 C1431 1.408 . S
C1432 H1459 0.930 . S
C1433 O1446 1.281 . S
C1433 O1447 1.254 . S
C1434 O1448 1.236 . S
C1434 O1449 1.266 . S
C1435 Tb1425 2.809 . S
C1435 C1436 1.514 . S
C1435 O1450 1.248 . S
C1435 O1451 1.266 . S
C1436 C1435 1.514 . S
C1436 C1437 1.359 . S
C1436 C1441 1.348 . S
C1437 C1436 1.359 . S
C1437 C1438 1.380 . S
C1437 H1460 0.929 . S
C1438 C1437 1.380 . S
C1438 C1439 1.347 . S
C1438 H1461 0.931 . S
C1439 C1438 1.347 . S
C1439 C1440 1.369 . S
C1440 C1439 1.369 . S
C1440 C1441 1.408 . S
C1440 H1462 0.930 . S
C1441 C1436 1.348 . S
C1441 C1440 1.408 . S
C1441 H1463 0.930 . S
C1442 O1452 1.281 . S
C1442 O1453 1.254 . S
C1443 O1454 1.236 . S
C1443 O1455 1.266 . S
O1444 Tb1424 2.484 . S
O1444 C1426 1.248 . S
O1445 Tb1424 2.440 . S
O1445 C1426 1.266 . S
O1446 Tb1424 2.658 . S
O1446 Tb1425 2.325 . S
O1446 C1433 1.281 . S
O1447 Tb1424 2.409 . S
O1447 C1433 1.254 . S
O1448 Tb1424 2.378 . S
O1448 C1434 1.236 . S
O1449 Tb1425 2.341 . S
O1449 C1434 1.266 . S
O1450 Tb1425 2.484 . S
O1450 C1435 1.248 . S
O1451 Tb1425 2.440 . S
O1451 C1435 1.266 . S
O1452 Tb1424 2.325 . S
O1452 Tb1425 2.658 . S
O1452 C1442 1.281 . S
O1453 Tb1425 2.409 . S
O1453 C1442 1.254 . S
O1454 Tb1425 2.378 . S
O1454 C1443 1.236 . S
O1455 Tb1424 2.341 . S
O1455 C1443 1.266 . S
H1456 C1428 0.929 . S
H1457 C1429 0.931 . S
H1458 C1431 0.930 . S
H1459 C1432 0.930 . S
H1460 C1437 0.929 . S
H1461 C1438 0.931 . S
H1462 C1440 0.930 . S
H1463 C1441 0.930 . S
Tb1464 C1466 2.809 . S
Tb1464 O1484 2.484 . S
Tb1464 O1485 2.440 1_554 S
Tb1464 O1486 2.658 . S
Tb1464 O1487 2.409 1_554 S
Tb1464 O1488 2.378 . S
Tb1464 O1492 2.325 . S
Tb1464 O1495 2.341 . S
Tb1465 C1475 2.809 1_455 S
Tb1465 O1486 2.325 . S
Tb1465 O1489 2.341 . S
Tb1465 O1490 2.484 1_455 S
Tb1465 O1491 2.440 1_455 S
Tb1465 O1492 2.658 . S
Tb1465 O1493 2.409 . S
Tb1465 O1494 2.378 . S
C1466 Tb1464 2.809 . S
C1466 C1467 1.514 . S
C1466 O1484 1.248 . S
C1466 O1485 1.266 1_554 S
C1467 C1466 1.514 . S
C1467 C1468 1.359 . S
C1467 C1472 1.348 1_554 S
C1468 C1467 1.359 . S
C1468 C1469 1.380 . S
C1468 H1496 0.929 . S
C1469 C1468 1.380 . S
C1469 C1470 1.347 . S
C1469 H1497 0.931 . S
C1470 C1469 1.347 . S
C1470 C1471 1.369 1_554 S
C1471 C1470 1.369 1_556 S
C1471 C1472 1.408 . S
C1471 H1498 0.930 . S
C1472 C1467 1.348 1_556 S
C1472 C1471 1.408 . S
C1472 H1499 0.930 . S
C1473 O1486 1.281 1_556 S
C1473 O1487 1.254 . S
C1474 O1488 1.236 . S
C1474 O1489 1.266 . S
C1475 Tb1465 2.809 1_655 S
C1475 C1476 1.514 . S
C1475 O1490 1.248 . S
C1475 O1491 1.266 . S
C1476 C1475 1.514 . S
C1476 C1477 1.359 . S
C1476 C1481 1.348 . S
C1477 C1476 1.359 . S
C1477 C1478 1.380 . S
C1477 H1500 0.929 . S
C1478 C1477 1.380 . S
C1478 C1479 1.347 . S
C1478 H1501 0.931 . S
C1479 C1478 1.347 . S
C1479 C1480 1.369 . S
C1480 C1479 1.369 . S
C1480 C1481 1.408 . S
C1480 H1502 0.930 . S
C1481 C1476 1.348 . S
C1481 C1480 1.408 . S
C1481 H1503 0.930 . S
C1482 O1492 1.281 . S
C1482 O1493 1.254 . S
C1483 O1494 1.236 . S
C1483 O1495 1.266 . S
O1484 Tb1464 2.484 . S
O1484 C1466 1.248 . S
O1485 Tb1464 2.440 1_556 S
O1485 C1466 1.266 1_556 S
O1486 Tb1464 2.658 . S
O1486 Tb1465 2.325 . S
O1486 C1473 1.281 1_554 S
O1487 Tb1464 2.409 1_556 S
O1487 C1473 1.254 . S
O1488 Tb1464 2.378 . S
O1488 C1474 1.236 . S
O1489 Tb1465 2.341 . S
O1489 C1474 1.266 . S
O1490 Tb1465 2.484 1_655 S
O1490 C1475 1.248 . S
O1491 Tb1465 2.440 1_655 S
O1491 C1475 1.266 . S
O1492 Tb1464 2.325 . S
O1492 Tb1465 2.658 . S
O1492 C1482 1.281 . S
O1493 Tb1465 2.409 . S
O1493 C1482 1.254 . S
O1494 Tb1465 2.378 . S
O1494 C1483 1.236 . S
O1495 Tb1464 2.341 . S
O1495 C1483 1.266 . S
H1496 C1468 0.929 . S
H1497 C1469 0.931 . S
H1498 C1471 0.930 . S
H1499 C1472 0.930 . S
H1500 C1477 0.929 . S
H1501 C1478 0.931 . S
H1502 C1480 0.930 . S
H1503 C1481 0.930 . S
H1504 C1512 0.929 . S
H1505 C1514 0.931 . S
H1506 C1516 0.930 . S
H1507 C1519 0.929 . S
H1508 C1522 0.930 . S
H1509 C1524 0.960 . S
H1510 C1524 0.936 1_655 S
H1511 C1524 0.960 . S
C1512 H1504 0.929 . S
C1512 C1513 1.377 1_655 S
C1512 C1514 1.384 . S
C1513 C1512 1.377 1_455 S
C1513 C1519 1.390 . S
C1514 H1505 0.931 . S
C1514 C1512 1.384 . S
C1514 C1515 1.371 1_655 S
C1515 C1514 1.371 1_455 S
C1515 C1516 1.400 . S
C1515 C1520 1.490 . S
C1516 H1506 0.930 . S
C1516 C1515 1.400 . S
C1516 C1519 1.386 . S
H1517 C1533 0.930 . S
H1518 C1534 0.931 . S
C1519 H1507 0.929 . S
C1519 C1513 1.390 . S
C1519 C1516 1.386 . S
C1520 C1515 1.490 . S
C1520 C1522 1.395 . S
C1520 C1523 1.403 . S
H1521 C1527 0.930 1_554 S
C1522 H1508 0.930 . S
C1522 C1520 1.395 . S
C1522 C1525 1.403 . S
C1523 C1520 1.403 . S
C1523 C1524 1.524 1_556 S
C1523 C1527 1.400 . S
C1524 H1509 0.960 . S
C1524 H1510 0.936 1_455 S
C1524 H1511 0.960 . S
C1524 C1523 1.524 1_554 S
C1525 C1522 1.403 . S
C1525 C1526 1.392 . S
C1525 C1529 1.495 . S
C1526 C1525 1.392 . S
C1526 C1527 1.385 . S
C1526 C1528 1.478 . S
C1527 H1521 0.930 1_556 S
C1527 C1523 1.400 . S
C1527 C1526 1.385 . S
C1528 C1526 1.478 . S
C1528 C1530 1.381 . S
C1528 C1534 1.383 1_556 S
C1529 C1525 1.495 . S
C1529 H1535 0.959 . S
C1529 H1536 0.961 . S
C1529 H1537 0.960 . S
C1530 C1528 1.381 . S
C1530 C1531 1.394 . S
C1530 H1538 0.930 1_455 S
C1531 C1530 1.394 . S
C1531 C1532 1.383 1_556 S
C1531 H1539 0.938 . S
C1532 C1531 1.383 1_554 S
C1532 C1533 1.377 . S
C1533 H1517 0.930 . S
C1533 C1532 1.377 . S
C1533 C1534 1.379 . S
C1534 H1518 0.931 . S
C1534 C1528 1.383 1_554 S
C1534 C1533 1.379 . S
H1535 C1529 0.959 . S
H1536 C1529 0.961 . S
H1537 C1529 0.960 . S
H1538 C1530 0.930 1_655 S
H1539 C1531 0.938 . S
H1540 C1548 0.929 . S
H1541 C1550 0.930 . S
H1542 C1552 0.930 . S
H1543 C1555 0.929 . S
H1544 C1558 0.930 . S
H1545 C1560 0.960 . S
H1546 C1560 0.960 . S
H1547 C1560 0.960 . S
C1548 H1540 0.929 . S
C1548 C1549 1.377 . S
C1548 C1550 1.384 . S
C1549 C1548 1.377 . S
C1549 C1555 1.390 . S
C1550 H1541 0.930 . S
C1550 C1548 1.384 . S
C1550 C1551 1.372 . S
C1551 C1550 1.372 . S
C1551 C1552 1.400 . S
C1551 C1556 1.490 . S
C1552 H1542 0.930 . S
C1552 C1551 1.400 . S
C1552 C1555 1.386 . S
H1553 C1569 0.930 . S
H1554 C1570 0.931 . S
C1555 H1543 0.929 . S
C1555 C1549 1.390 . S
C1555 C1552 1.386 . S
C1556 C1551 1.490 . S
C1556 C1558 1.395 . S
C1556 C1559 1.403 . S
H1557 C1563 0.930 . S
C1558 H1544 0.930 . S
C1558 C1556 1.395 . S
C1558 C1561 1.403 . S
C1559 C1556 1.403 . S
C1559 C1560 1.524 . S
C1559 C1563 1.400 . S
C1560 H1545 0.960 . S
C1560 H1546 0.960 . S
C1560 H1547 0.960 . S
C1560 C1559 1.524 . S
C1561 C1558 1.403 . S
C1561 C1562 1.392 . S
C1561 C1565 1.495 . S
C1562 C1561 1.392 . S
C1562 C1563 1.385 . S
C1562 C1564 1.478 . S
C1563 H1557 0.930 . S
C1563 C1559 1.400 . S
C1563 C1562 1.385 . S
C1564 C1562 1.478 . S
C1564 C1566 1.381 . S
C1564 C1570 1.383 . S
C1565 C1561 1.495 . S
C1565 H1571 0.959 . S
C1565 H1572 0.961 . S
C1565 H1573 0.960 . S
C1566 C1564 1.381 . S
C1566 C1567 1.394 . S
C1566 H1574 0.930 . S
C1567 C1566 1.394 . S
C1567 C1568 1.383 . S
C1567 H1575 0.929 . S
C1568 C1567 1.383 . S
C1568 C1569 1.377 . S
C1569 H1553 0.930 . S
C1569 C1568 1.377 . S
C1569 C1570 1.379 . S
C1570 H1554 0.931 . S
C1570 C1564 1.383 . S
C1570 C1569 1.379 . S
H1571 C1565 0.959 . S
H1572 C1565 0.961 . S
H1573 C1565 0.960 . S
H1574 C1566 0.930 . S
H1575 C1567 0.929 . S
H1576 C1584 0.929 . S
H1577 C1586 0.930 . S
H1578 C1588 0.930 . S
H1579 C1591 0.929 . S
H1580 C1594 0.930 . S
H1581 C1596 0.960 . S
H1582 C1596 0.960 . S
H1583 C1596 0.960 . S
C1584 H1576 0.929 . S
C1584 C1585 1.377 . S
C1584 C1586 1.384 . S
C1585 C1584 1.377 . S
C1585 C1591 1.390 . S
C1586 H1577 0.930 . S
C1586 C1584 1.384 . S
C1586 C1587 1.372 . S
C1587 C1586 1.372 . S
C1587 C1588 1.400 . S
C1587 C1592 1.490 . S
C1588 H1578 0.930 . S
C1588 C1587 1.400 . S
C1588 C1591 1.386 . S
H1589 C1605 0.930 . S
H1590 C1606 0.931 . S
C1591 H1579 0.929 . S
C1591 C1585 1.390 . S
C1591 C1588 1.386 . S
C1592 C1587 1.490 . S
C1592 C1594 1.395 . S
C1592 C1595 1.403 . S
H1593 C1599 0.930 . S
C1594 H1580 0.930 . S
C1594 C1592 1.395 . S
C1594 C1597 1.403 . S
C1595 C1592 1.403 . S
C1595 C1596 1.524 . S
C1595 C1599 1.400 . S
C1596 H1581 0.960 . S
C1596 H1582 0.960 . S
C1596 H1583 0.960 . S
C1596 C1595 1.524 . S
C1597 C1594 1.403 . S
C1597 C1598 1.392 . S
C1597 C1601 1.495 . S
C1598 C1597 1.392 . S
C1598 C1599 1.385 . S
C1598 C1600 1.478 . S
C1599 H1593 0.930 . S
C1599 C1595 1.400 . S
C1599 C1598 1.385 . S
C1600 C1598 1.478 . S
C1600 C1602 1.381 . S
C1600 C1606 1.383 . S
C1601 C1597 1.495 . S
C1601 H1607 0.959 . S
C1601 H1608 0.961 . S
C1601 H1609 0.960 . S
C1602 C1600 1.381 . S
C1602 C1603 1.394 . S
C1602 H1610 0.930 . S
C1603 C1602 1.394 . S
C1603 C1604 1.383 . S
C1603 H1611 0.929 . S
C1604 C1603 1.383 . S
C1604 C1605 1.377 . S
C1605 H1589 0.930 . S
C1605 C1604 1.377 . S
C1605 C1606 1.379 . S
C1606 H1590 0.931 . S
C1606 C1600 1.383 . S
C1606 C1605 1.379 . S
H1607 C1601 0.959 . S
H1608 C1601 0.961 . S
H1609 C1601 0.960 . S
H1610 C1602 0.930 . S
H1611 C1603 0.929 . S
H1612 C1620 0.929 . S
H1613 C1622 0.930 . S
H1614 C1624 0.930 . S
H1615 C1627 0.929 . S
H1616 C1630 0.930 . S
H1617 C1632 0.960 . S
H1618 C1632 0.960 . S
H1619 C1632 0.960 . S
C1620 H1612 0.929 . S
C1620 C1621 1.377 . S
C1620 C1622 1.384 . S
C1621 C1620 1.377 . S
C1621 C1627 1.390 . S
C1622 H1613 0.930 . S
C1622 C1620 1.384 . S
C1622 C1623 1.372 . S
C1623 C1622 1.372 . S
C1623 C1624 1.400 . S
C1623 C1628 1.490 . S
C1624 H1614 0.930 . S
C1624 C1623 1.400 . S
C1624 C1627 1.386 . S
H1625 C1641 0.930 . S
H1626 C1642 0.931 . S
C1627 H1615 0.929 . S
C1627 C1621 1.390 . S
C1627 C1624 1.386 . S
C1628 C1623 1.490 . S
C1628 C1630 1.395 . S
C1628 C1631 1.403 . S
H1629 C1635 0.930 . S
C1630 H1616 0.930 . S
C1630 C1628 1.395 . S
C1630 C1633 1.403 . S
C1631 C1628 1.403 . S
C1631 C1632 1.524 . S
C1631 C1635 1.400 . S
C1632 H1617 0.960 . S
C1632 H1618 0.960 . S
C1632 H1619 0.960 . S
C1632 C1631 1.524 . S
C1633 C1630 1.403 . S
C1633 C1634 1.392 . S
C1633 C1637 1.495 . S
C1634 C1633 1.392 . S
C1634 C1635 1.385 . S
C1634 C1636 1.478 . S
C1635 H1629 0.930 . S
C1635 C1631 1.400 . S
C1635 C1634 1.385 . S
C1636 C1634 1.478 . S
C1636 C1638 1.381 . S
C1636 C1642 1.383 . S
C1637 C1633 1.495 . S
C1637 H1643 0.959 . S
C1637 H1644 0.961 . S
C1637 H1645 0.960 . S
C1638 C1636 1.381 . S
C1638 C1639 1.394 . S
C1638 H1646 0.930 . S
C1639 C1638 1.394 . S
C1639 C1640 1.383 . S
C1639 H1647 0.929 . S
C1640 C1639 1.383 . S
C1640 C1641 1.377 . S
C1641 H1625 0.930 . S
C1641 C1640 1.377 . S
C1641 C1642 1.379 . S
C1642 H1626 0.931 . S
C1642 C1636 1.383 . S
C1642 C1641 1.379 . S
H1643 C1637 0.959 . S
H1644 C1637 0.961 . S
H1645 C1637 0.960 . S
H1646 C1638 0.930 . S
H1647 C1639 0.929 . S
H1648 C1656 0.929 . S
H1649 C1658 0.930 . S
H1650 C1660 0.930 . S
H1651 C1663 0.929 . S
H1652 C1666 0.930 . S
H1653 C1668 0.960 . S
H1654 C1668 0.960 . S
H1655 C1668 0.960 . S
C1656 H1648 0.929 . S
C1656 C1657 1.377 . S
C1656 C1658 1.384 . S
C1657 C1656 1.377 . S
C1657 C1663 1.390 . S
C1658 H1649 0.930 . S
C1658 C1656 1.384 . S
C1658 C1659 1.372 . S
C1659 C1658 1.372 . S
C1659 C1660 1.400 . S
C1659 C1664 1.490 . S
C1660 H1650 0.930 . S
C1660 C1659 1.400 . S
C1660 C1663 1.386 . S
H1661 C1677 0.930 . S
H1662 C1678 0.931 . S
C1663 H1651 0.929 . S
C1663 C1657 1.390 . S
C1663 C1660 1.386 . S
C1664 C1659 1.490 . S
C1664 C1666 1.395 . S
C1664 C1667 1.403 . S
H1665 C1671 0.930 . S
C1666 H1652 0.930 . S
C1666 C1664 1.395 . S
C1666 C1669 1.403 . S
C1667 C1664 1.403 . S
C1667 C1668 1.524 . S
C1667 C1671 1.400 . S
C1668 H1653 0.960 . S
C1668 H1654 0.960 . S
C1668 H1655 0.960 . S
C1668 C1667 1.524 . S
C1669 C1666 1.403 . S
C1669 C1670 1.392 . S
C1669 C1673 1.495 . S
C1670 C1669 1.392 . S
C1670 C1671 1.385 . S
C1670 C1672 1.478 . S
C1671 H1665 0.930 . S
C1671 C1667 1.400 . S
C1671 C1670 1.385 . S
C1672 C1670 1.478 . S
C1672 C1674 1.381 . S
C1672 C1678 1.383 . S
C1673 C1669 1.495 . S
C1673 H1679 0.959 . S
C1673 H1680 0.961 . S
C1673 H1681 0.960 . S
C1674 C1672 1.381 . S
C1674 C1675 1.394 . S
C1674 H1682 0.930 . S
C1675 C1674 1.394 . S
C1675 C1676 1.383 . S
C1675 H1683 0.929 . S
C1676 C1675 1.383 . S
C1676 C1677 1.377 . S
C1677 H1661 0.930 . S
C1677 C1676 1.377 . S
C1677 C1678 1.379 . S
C1678 H1662 0.931 . S
C1678 C1672 1.383 . S
C1678 C1677 1.379 . S
H1679 C1673 0.959 . S
H1680 C1673 0.961 . S
H1681 C1673 0.960 . S
H1682 C1674 0.930 . S
H1683 C1675 0.929 . S
H1684 C1692 0.929 . S
H1685 C1694 0.930 . S
H1686 C1696 0.930 . S
H1687 C1699 0.929 . S
H1688 C1702 0.930 . S
H1689 C1704 0.960 . S
H1690 C1704 0.960 . S
H1691 C1704 0.960 . S
C1692 H1684 0.929 . S
C1692 C1693 1.377 . S
C1692 C1694 1.384 . S
C1693 C1692 1.377 . S
C1693 C1699 1.390 . S
C1694 H1685 0.930 . S
C1694 C1692 1.384 . S
C1694 C1695 1.372 . S
C1695 C1694 1.372 . S
C1695 C1696 1.400 . S
C1695 C1700 1.490 . S
C1696 H1686 0.930 . S
C1696 C1695 1.400 . S
C1696 C1699 1.386 . S
H1697 C1713 0.930 . S
H1698 C1714 0.931 . S
C1699 H1687 0.929 . S
C1699 C1693 1.390 . S
C1699 C1696 1.386 . S
C1700 C1695 1.490 . S
C1700 C1702 1.395 . S
C1700 C1703 1.403 . S
H1701 C1707 0.930 . S
C1702 H1688 0.930 . S
C1702 C1700 1.395 . S
C1702 C1705 1.403 . S
C1703 C1700 1.403 . S
C1703 C1704 1.524 . S
C1703 C1707 1.400 . S
C1704 H1689 0.960 . S
C1704 H1690 0.960 . S
C1704 H1691 0.960 . S
C1704 C1703 1.524 . S
C1705 C1702 1.403 . S
C1705 C1706 1.392 . S
C1705 C1709 1.495 . S
C1706 C1705 1.392 . S
C1706 C1707 1.385 . S
C1706 C1708 1.478 . S
C1707 H1701 0.930 . S
C1707 C1703 1.400 . S
C1707 C1706 1.385 . S
C1708 C1706 1.478 . S
C1708 C1710 1.381 . S
C1708 C1714 1.383 . S
C1709 C1705 1.495 . S
C1709 H1715 0.959 . S
C1709 H1716 0.961 . S
C1709 H1717 0.960 . S
C1710 C1708 1.381 . S
C1710 C1711 1.394 . S
C1710 H1718 0.930 . S
C1711 C1710 1.394 . S
C1711 C1712 1.383 . S
C1711 H1719 0.929 . S
C1712 C1711 1.383 . S
C1712 C1713 1.377 . S
C1713 H1697 0.930 . S
C1713 C1712 1.377 . S
C1713 C1714 1.379 . S
C1714 H1698 0.931 . S
C1714 C1708 1.383 . S
C1714 C1713 1.379 . S
H1715 C1709 0.959 . S
H1716 C1709 0.961 . S
H1717 C1709 0.960 . S
H1718 C1710 0.930 . S
H1719 C1711 0.929 . S
H1720 C1728 0.929 . S
H1721 C1730 0.930 . S
H1722 C1732 0.930 . S
H1723 C1735 0.929 . S
H1724 C1738 0.930 . S
H1725 C1740 0.960 . S
H1726 C1740 0.960 . S
H1727 C1740 0.960 . S
C1728 H1720 0.929 . S
C1728 C1729 1.377 . S
C1728 C1730 1.384 . S
C1729 C1728 1.377 . S
C1729 C1735 1.390 . S
C1730 H1721 0.930 . S
C1730 C1728 1.384 . S
C1730 C1731 1.372 . S
C1731 C1730 1.372 . S
C1731 C1732 1.400 . S
C1731 C1736 1.490 . S
C1732 H1722 0.930 . S
C1732 C1731 1.400 . S
C1732 C1735 1.386 . S
H1733 C1749 0.930 . S
H1734 C1750 0.931 . S
C1735 H1723 0.929 . S
C1735 C1729 1.390 . S
C1735 C1732 1.386 . S
C1736 C1731 1.490 . S
C1736 C1738 1.395 . S
C1736 C1739 1.403 . S
H1737 C1743 0.930 . S
C1738 H1724 0.930 . S
C1738 C1736 1.395 . S
C1738 C1741 1.403 . S
C1739 C1736 1.403 . S
C1739 C1740 1.524 . S
C1739 C1743 1.400 . S
C1740 H1725 0.960 . S
C1740 H1726 0.960 . S
C1740 H1727 0.960 . S
C1740 C1739 1.524 . S
C1741 C1738 1.403 . S
C1741 C1742 1.392 . S
C1741 C1745 1.495 . S
C1742 C1741 1.392 . S
C1742 C1743 1.385 . S
C1742 C1744 1.478 . S
C1743 H1737 0.930 . S
C1743 C1739 1.400 . S
C1743 C1742 1.385 . S
C1744 C1742 1.478 . S
C1744 C1746 1.381 . S
C1744 C1750 1.383 . S
C1745 C1741 1.495 . S
C1745 H1751 0.959 . S
C1745 H1752 0.961 . S
C1745 H1753 0.960 . S
C1746 C1744 1.381 . S
C1746 C1747 1.394 . S
C1746 H1754 0.930 . S
C1747 C1746 1.394 . S
C1747 C1748 1.383 . S
C1747 H1755 0.929 . S
C1748 C1747 1.383 . S
C1748 C1749 1.377 . S
C1749 H1733 0.930 . S
C1749 C1748 1.377 . S
C1749 C1750 1.379 . S
C1750 H1734 0.931 . S
C1750 C1744 1.383 . S
C1750 C1749 1.379 . S
H1751 C1745 0.959 . S
H1752 C1745 0.961 . S
H1753 C1745 0.960 . S
H1754 C1746 0.930 . S
H1755 C1747 0.929 . S
H1756 C1764 0.929 . S
H1757 C1766 0.930 . S
H1758 C1768 0.930 . S
H1759 C1771 0.929 . S
H1760 C1774 0.930 . S
H1761 C1776 0.960 . S
H1762 C1776 0.960 . S
H1763 C1776 0.960 . S
C1764 H1756 0.929 . S
C1764 C1765 1.377 . S
C1764 C1766 1.384 . S
C1765 C1764 1.377 . S
C1765 C1771 1.390 . S
C1766 H1757 0.930 . S
C1766 C1764 1.384 . S
C1766 C1767 1.372 . S
C1767 C1766 1.372 . S
C1767 C1768 1.400 . S
C1767 C1772 1.490 . S
C1768 H1758 0.930 . S
C1768 C1767 1.400 . S
C1768 C1771 1.386 . S
H1769 C1785 0.930 . S
H1770 C1786 0.931 . S
C1771 H1759 0.929 . S
C1771 C1765 1.390 . S
C1771 C1768 1.386 . S
C1772 C1767 1.490 . S
C1772 C1774 1.395 . S
C1772 C1775 1.403 . S
H1773 C1779 0.930 . S
C1774 H1760 0.930 . S
C1774 C1772 1.395 . S
C1774 C1777 1.403 . S
C1775 C1772 1.403 . S
C1775 C1776 1.524 . S
C1775 C1779 1.400 . S
C1776 H1761 0.960 . S
C1776 H1762 0.960 . S
C1776 H1763 0.960 . S
C1776 C1775 1.524 . S
C1777 C1774 1.403 . S
C1777 C1778 1.392 . S
C1777 C1781 1.495 . S
C1778 C1777 1.392 . S
C1778 C1779 1.385 . S
C1778 C1780 1.478 . S
C1779 H1773 0.930 . S
C1779 C1775 1.400 . S
C1779 C1778 1.385 . S
C1780 C1778 1.478 . S
C1780 C1782 1.381 . S
C1780 C1786 1.383 . S
C1781 C1777 1.495 . S
C1781 H1787 0.959 . S
C1781 H1788 0.961 . S
C1781 H1789 0.960 . S
C1782 C1780 1.381 . S
C1782 C1783 1.394 . S
C1782 H1790 0.930 . S
C1783 C1782 1.394 . S
C1783 C1784 1.383 . S
C1783 H1791 0.929 . S
C1784 C1783 1.383 . S
C1784 C1785 1.377 . S
C1785 H1769 0.930 . S
C1785 C1784 1.377 . S
C1785 C1786 1.379 . S
C1786 H1770 0.931 . S
C1786 C1780 1.383 . S
C1786 C1785 1.379 . S
H1787 C1781 0.959 . S
H1788 C1781 0.961 . S
H1789 C1781 0.960 . S
H1790 C1782 0.930 . S
H1791 C1783 0.929 . S
H1792 C1800 0.929 . S
H1793 C1802 0.930 . S
H1794 C1804 0.930 . S
H1795 C1807 0.929 . S
H1796 C1810 0.930 . S
H1797 C1812 0.960 . S
H1798 C1812 0.960 . S
H1799 C1812 0.960 1_655 S
C1800 H1792 0.929 . S
C1800 C1801 1.377 1_565 S
C1800 C1802 1.384 . S
C1801 C1800 1.377 1_545 S
C1801 C1807 1.390 . S
C1802 H1793 0.930 . S
C1802 C1800 1.384 . S
C1802 C1803 1.372 1_565 S
C1803 C1802 1.372 1_545 S
C1803 C1804 1.400 . S
C1803 C1808 1.490 . S
C1804 H1794 0.930 . S
C1804 C1803 1.400 . S
C1804 C1807 1.386 . S
H1805 C1821 0.930 . S
H1806 C1822 0.931 . S
C1807 H1795 0.929 . S
C1807 C1801 1.390 . S
C1807 C1804 1.386 . S
C1808 C1803 1.490 . S
C1808 C1810 1.395 1_545 S
C1808 C1811 1.403 . S
H1809 C1815 0.930 1_455 S
C1810 H1796 0.930 . S
C1810 C1808 1.395 1_565 S
C1810 C1813 1.403 . S
C1811 C1808 1.403 . S
C1811 C1812 1.524 1_655 S
C1811 C1815 1.400 . S
C1812 H1797 0.960 . S
C1812 H1798 0.960 . S
C1812 H1799 0.960 1_455 S
C1812 C1811 1.524 1_455 S
C1813 C1810 1.403 . S
C1813 C1814 1.392 1_565 S
C1813 C1817 1.495 . S
C1814 C1813 1.392 1_545 S
C1814 C1815 1.385 . S
C1814 C1816 1.478 . S
C1815 H1809 0.930 1_655 S
C1815 C1811 1.400 . S
C1815 C1814 1.385 . S
C1816 C1814 1.478 . S
C1816 C1818 1.364 1_645 S
C1816 C1822 1.383 . S
C1817 C1813 1.495 . S
C1817 H1823 0.959 . S
C1817 H1824 0.961 . S
C1817 H1825 0.960 . S
C1818 C1816 1.364 1_465 S
C1818 C1819 1.411 . S
C1818 H1826 0.935 1_455 S
C1819 C1818 1.411 . S
C1819 C1820 1.383 1_565 S
C1819 H1827 0.929 . S
C1820 C1819 1.383 1_545 S
C1820 C1821 1.377 . S
C1821 H1805 0.930 . S
C1821 C1820 1.377 . S
C1821 C1822 1.379 1_455 S
C1822 H1806 0.931 . S
C1822 C1816 1.383 . S
C1822 C1821 1.379 1_655 S
H1823 C1817 0.959 . S
H1824 C1817 0.961 . S
H1825 C1817 0.960 . S
H1826 C1818 0.935 1_655 S
H1827 C1819 0.929 . S
H1828 C1836 0.929 . S
H1829 C1838 0.930 . S
H1830 C1840 0.930 . S
H1831 C1843 0.929 . S
H1832 C1846 0.930 . S
H1833 C1848 0.960 . S
H1834 C1848 0.960 . S
H1835 C1848 0.960 . S
C1836 H1828 0.929 . S
C1836 C1837 1.377 . S
C1836 C1838 1.384 . S
C1837 C1836 1.377 . S
C1837 C1843 1.390 . S
C1838 H1829 0.930 . S
C1838 C1836 1.384 . S
C1838 C1839 1.372 . S
C1839 C1838 1.372 . S
C1839 C1840 1.400 . S
C1839 C1844 1.490 . S
C1840 H1830 0.930 . S
C1840 C1839 1.400 . S
C1840 C1843 1.386 . S
H1841 C1857 0.930 . S
H1842 C1858 0.931 . S
C1843 H1831 0.929 . S
C1843 C1837 1.390 . S
C1843 C1840 1.386 . S
C1844 C1839 1.490 . S
C1844 C1846 1.395 . S
C1844 C1847 1.403 . S
H1845 C1851 0.930 . S
C1846 H1832 0.930 . S
C1846 C1844 1.395 . S
C1846 C1849 1.403 . S
C1847 C1844 1.403 . S
C1847 C1848 1.524 . S
C1847 C1851 1.400 . S
C1848 H1833 0.960 . S
C1848 H1834 0.960 . S
C1848 H1835 0.960 . S
C1848 C1847 1.524 . S
C1849 C1846 1.403 . S
C1849 C1850 1.392 . S
C1849 C1853 1.495 . S
C1850 C1849 1.392 . S
C1850 C1851 1.385 . S
C1850 C1852 1.478 . S
C1851 H1845 0.930 . S
C1851 C1847 1.400 . S
C1851 C1850 1.385 . S
C1852 C1850 1.478 . S
C1852 C1854 1.381 . S
C1852 C1858 1.383 . S
C1853 C1849 1.495 . S
C1853 H1859 0.959 . S
C1853 H1860 0.961 . S
C1853 H1861 0.960 . S
C1854 C1852 1.381 . S
C1854 C1855 1.394 . S
C1854 H1862 0.930 . S
C1855 C1854 1.394 . S
C1855 C1856 1.383 . S
C1855 H1863 0.929 . S
C1856 C1855 1.383 . S
C1856 C1857 1.377 . S
C1857 H1841 0.930 . S
C1857 C1856 1.377 . S
C1857 C1858 1.379 . S
C1858 H1842 0.931 . S
C1858 C1852 1.383 . S
C1858 C1857 1.379 . S
H1859 C1853 0.959 . S
H1860 C1853 0.961 . S
H1861 C1853 0.960 . S
H1862 C1854 0.930 . S
H1863 C1855 0.929 . S
H1864 C1872 0.929 . S
H1865 C1874 0.930 . S
H1866 C1876 0.928 1_565 S
H1867 C1879 0.967 . S
H1868 C1882 0.930 . S
H1869 C1884 0.960 . S
H1870 C1884 0.960 . S
H1871 C1884 0.960 . S
C1872 H1864 0.929 . S
C1872 C1873 1.377 . S
C1872 C1874 1.384 . S
C1873 C1872 1.377 . S
C1873 C1879 1.371 1_545 S
C1874 H1865 0.930 . S
C1874 C1872 1.384 . S
C1874 C1875 1.372 . S
C1875 C1874 1.372 . S
C1875 C1876 1.404 . S
C1875 C1880 1.490 . S
C1876 H1866 0.928 1_545 S
C1876 C1875 1.404 . S
C1876 C1879 1.369 1_545 S
H1877 C1893 0.930 1_565 S
H1878 C1894 0.902 1_565 S
C1879 H1867 0.967 . S
C1879 C1873 1.371 1_565 S
C1879 C1876 1.369 1_565 S
C1880 C1875 1.490 . S
C1880 C1882 1.395 . S
C1880 C1883 1.403 . S
H1881 C1887 0.930 . S
C1882 H1868 0.930 . S
C1882 C1880 1.395 . S
C1882 C1885 1.403 . S
C1883 C1880 1.403 . S
C1883 C1884 1.524 . S
C1883 C1887 1.400 . S
C1884 H1869 0.960 . S
C1884 H1870 0.960 . S
C1884 H1871 0.960 . S
C1884 C1883 1.524 . S
C1885 C1882 1.403 . S
C1885 C1886 1.392 . S
C1885 C1889 1.499 . S
C1886 C1885 1.392 . S
C1886 C1887 1.385 . S
C1886 C1888 1.478 . S
C1887 H1881 0.930 . S
C1887 C1883 1.400 . S
C1887 C1886 1.385 . S
C1888 C1886 1.478 . S
C1888 C1890 1.381 . S
C1888 C1894 1.401 . S
C1889 C1885 1.499 . S
C1889 H1895 0.954 1_545 S
C1889 H1896 0.954 1_545 S
C1889 H1897 0.969 . S
C1890 C1888 1.381 . S
C1890 C1891 1.394 . S
C1890 H1898 0.930 . S
C1891 C1890 1.394 . S
C1891 C1892 1.383 . S
C1891 H1899 0.929 . S
C1892 C1891 1.383 . S
C1892 C1893 1.377 . S
C1893 H1877 0.930 1_545 S
C1893 C1892 1.377 . S
C1893 C1894 1.392 . S
C1894 H1878 0.902 1_545 S
C1894 C1888 1.401 . S
C1894 C1893 1.392 . S
H1895 C1889 0.954 1_565 S
H1896 C1889 0.954 1_565 S
H1897 C1889 0.969 . S
H1898 C1890 0.930 . S
H1899 C1891 0.929 . S
H1900 C1908 0.929 . S
H1901 C1910 0.930 . S
H1902 C1912 0.930 . S
H1903 C1915 0.929 . S
H1904 C1918 0.930 . S
H1905 C1920 0.960 . S
H1906 C1920 0.960 . S
H1907 C1920 0.960 . S
C1908 H1900 0.929 . S
C1908 C1909 1.377 . S
C1908 C1910 1.384 . S
C1909 C1908 1.377 . S
C1909 C1915 1.390 . S
C1910 H1901 0.930 . S
C1910 C1908 1.384 . S
C1910 C1911 1.372 . S
C1911 C1910 1.372 . S
C1911 C1912 1.400 . S
C1911 C1916 1.490 . S
C1912 H1902 0.930 . S
C1912 C1911 1.400 . S
C1912 C1915 1.386 . S
H1913 C1929 0.930 . S
H1914 C1930 0.931 . S
C1915 H1903 0.929 . S
C1915 C1909 1.390 . S
C1915 C1912 1.386 . S
C1916 C1911 1.490 . S
C1916 C1918 1.395 . S
C1916 C1919 1.403 . S
H1917 C1923 0.930 . S
C1918 H1904 0.930 . S
C1918 C1916 1.395 . S
C1918 C1921 1.403 . S
C1919 C1916 1.403 . S
C1919 C1920 1.524 . S
C1919 C1923 1.400 . S
C1920 H1905 0.960 . S
C1920 H1906 0.960 . S
C1920 H1907 0.960 . S
C1920 C1919 1.524 . S
C1921 C1918 1.403 . S
C1921 C1922 1.392 . S
C1921 C1925 1.495 . S
C1922 C1921 1.392 . S
C1922 C1923 1.385 . S
C1922 C1924 1.478 . S
C1923 H1917 0.930 . S
C1923 C1919 1.400 . S
C1923 C1922 1.385 . S
C1924 C1922 1.478 . S
C1924 C1926 1.381 . S
C1924 C1930 1.383 . S
C1925 C1921 1.495 . S
C1925 H1931 0.959 . S
C1925 H1932 0.961 . S
C1925 H1933 0.960 . S
C1926 C1924 1.381 . S
C1926 C1927 1.394 . S
C1926 H1934 0.930 . S
C1927 C1926 1.394 . S
C1927 C1928 1.383 . S
C1927 H1935 0.929 . S
C1928 C1927 1.383 . S
C1928 C1929 1.377 . S
C1929 H1913 0.930 . S
C1929 C1928 1.377 . S
C1929 C1930 1.379 . S
C1930 H1914 0.931 . S
C1930 C1924 1.383 . S
C1930 C1929 1.379 . S
H1931 C1925 0.959 . S
H1932 C1925 0.961 . S
H1933 C1925 0.960 . S
H1934 C1926 0.930 . S
H1935 C1927 0.929 . S
H1936 C1944 0.929 . S
H1937 C1946 0.930 . S
H1938 C1948 0.930 . S
H1939 C1951 0.929 . S
H1940 C1954 0.930 . S
H1941 C1956 0.960 . S
H1942 C1956 0.960 . S
H1943 C1956 0.960 . S
C1944 H1936 0.929 . S
C1944 C1945 1.377 . S
C1944 C1946 1.384 . S
C1945 C1944 1.377 . S
C1945 C1951 1.390 1_545 S
C1946 H1937 0.930 . S
C1946 C1944 1.384 . S
C1946 C1947 1.372 . S
C1947 C1946 1.372 . S
C1947 C1948 1.400 1_545 S
C1947 C1952 1.490 . S
C1948 H1938 0.930 . S
C1948 C1947 1.400 1_565 S
C1948 C1951 1.386 . S
H1949 C1965 0.930 1_565 S
H1950 C1966 0.931 1_565 S
C1951 H1939 0.929 . S
C1951 C1945 1.390 1_565 S
C1951 C1948 1.386 . S
C1952 C1947 1.490 . S
C1952 C1954 1.395 . S
C1952 C1955 1.350 1_545 S
H1953 C1959 0.930 1_565 S
C1954 H1940 0.930 . S
C1954 C1952 1.395 . S
C1954 C1957 1.403 . S
C1955 C1952 1.350 1_565 S
C1955 C1956 1.570 . S
C1955 C1959 1.407 1_565 S
C1956 H1941 0.960 . S
C1956 H1942 0.960 . S
C1956 H1943 0.960 . S
C1956 C1955 1.570 . S
C1957 C1954 1.403 . S
C1957 C1958 1.392 . S
C1957 C1961 1.495 . S
C1958 C1957 1.392 . S
C1958 C1959 1.385 . S
C1958 C1960 1.478 . S
C1959 H1953 0.930 1_545 S
C1959 C1955 1.407 1_545 S
C1959 C1958 1.385 . S
C1960 C1958 1.478 . S
C1960 C1962 1.381 1_655 S
C1960 C1966 1.383 . S
C1961 C1957 1.495 . S
C1961 H1967 0.959 . S
C1961 H1968 0.961 . S
C1961 H1969 0.960 . S
C1962 C1960 1.381 1_455 S
C1962 C1963 1.394 . S
C1962 H1970 0.930 . S
C1963 C1962 1.394 . S
C1963 C1964 1.383 . S
C1963 H1971 0.929 . S
C1964 C1963 1.383 . S
C1964 C1965 1.377 1_455 S
C1965 H1949 0.930 1_545 S
C1965 C1964 1.377 1_655 S
C1965 C1966 1.379 . S
C1966 H1950 0.931 1_545 S
C1966 C1960 1.383 . S
C1966 C1965 1.379 . S
H1967 C1961 0.959 . S
H1968 C1961 0.961 . S
H1969 C1961 0.960 . S
H1970 C1962 0.930 . S
H1971 C1963 0.929 . S
H1972 C1980 0.929 . S
H1973 C1982 0.930 . S
H1974 C1984 0.930 . S
H1975 C1987 0.929 . S
H1976 C1990 0.930 . S
H1977 C1992 0.960 . S
H1978 C1992 0.960 . S
H1979 C1992 0.960 . S
C1980 H1972 0.929 . S
C1980 C1981 1.377 . S
C1980 C1982 1.384 . S
C1981 C1980 1.377 . S
C1981 C1987 1.390 . S
C1982 H1973 0.930 . S
C1982 C1980 1.384 . S
C1982 C1983 1.372 . S
C1983 C1982 1.372 . S
C1983 C1984 1.400 . S
C1983 C1988 1.490 . S
C1984 H1974 0.930 . S
C1984 C1983 1.400 . S
C1984 C1987 1.386 . S
H1985 C2001 0.930 . S
H1986 C2002 0.931 . S
C1987 H1975 0.929 . S
C1987 C1981 1.390 . S
C1987 C1984 1.386 . S
C1988 C1983 1.490 . S
C1988 C1990 1.395 . S
C1988 C1991 1.403 . S
H1989 C1995 0.930 . S
C1990 H1976 0.930 . S
C1990 C1988 1.395 . S
C1990 C1993 1.403 . S
C1991 C1988 1.403 . S
C1991 C1992 1.524 . S
C1991 C1995 1.400 . S
C1992 H1977 0.960 . S
C1992 H1978 0.960 . S
C1992 H1979 0.960 . S
C1992 C1991 1.524 . S
C1993 C1990 1.403 . S
C1993 C1994 1.392 . S
C1993 C1997 1.495 . S
C1994 C1993 1.392 . S
C1994 C1995 1.385 . S
C1994 C1996 1.478 . S
C1995 H1989 0.930 . S
C1995 C1991 1.400 . S
C1995 C1994 1.385 . S
C1996 C1994 1.478 . S
C1996 C1998 1.381 . S
C1996 C2002 1.383 . S
C1997 C1993 1.495 . S
C1997 H2003 0.959 . S
C1997 H2004 0.961 . S
C1997 H2005 0.960 . S
C1998 C1996 1.381 . S
C1998 C1999 1.394 . S
C1998 H2006 0.930 . S
C1999 C1998 1.394 . S
C1999 C2000 1.383 . S
C1999 H2007 0.929 . S
C2000 C1999 1.383 . S
C2000 C2001 1.377 . S
C2001 H1985 0.930 . S
C2001 C2000 1.377 . S
C2001 C2002 1.379 . S
C2002 H1986 0.931 . S
C2002 C1996 1.383 . S
C2002 C2001 1.379 . S
H2003 C1997 0.959 . S
H2004 C1997 0.961 . S
H2005 C1997 0.960 . S
H2006 C1998 0.930 . S
H2007 C1999 0.929 . S
H2008 C2016 0.929 1_565 S
H2009 C2018 0.955 . S
H2010 C2020 0.930 . S
H2011 C2023 0.929 . S
H2012 C2026 0.930 . S
H2013 C2028 0.960 . S
H2014 C2028 0.960 1_565 S
H2015 C2028 0.960 . S
C2016 H2008 0.929 1_545 S
C2016 C2017 1.377 . S
C2016 C2018 1.384 . S
C2017 C2016 1.377 . S
C2017 C2023 1.390 . S
C2018 H2009 0.955 . S
C2018 C2016 1.384 . S
C2018 C2019 1.372 . S
C2019 C2018 1.372 . S
C2019 C2020 1.400 . S
C2019 C2024 1.490 . S
C2020 H2010 0.930 . S
C2020 C2019 1.400 . S
C2020 C2023 1.386 . S
H2021 C2037 0.930 . S
H2022 C2038 0.931 . S
C2023 H2011 0.929 . S
C2023 C2017 1.390 . S
C2023 C2020 1.386 . S
C2024 C2019 1.490 . S
C2024 C2026 1.395 . S
C2024 C2027 1.403 . S
H2025 C2031 0.930 . S
C2026 H2012 0.930 . S
C2026 C2024 1.395 . S
C2026 C2029 1.403 . S
C2027 C2024 1.403 . S
C2027 C2028 1.524 . S
C2027 C2031 1.400 . S
C2028 H2013 0.960 . S
C2028 H2014 0.960 1_545 S
C2028 H2015 0.960 . S
C2028 C2027 1.524 . S
C2029 C2026 1.403 . S
C2029 C2030 1.392 . S
C2029 C2033 1.495 . S
C2030 C2029 1.392 . S
C2030 C2031 1.385 . S
C2030 C2032 1.478 . S
C2031 H2025 0.930 . S
C2031 C2027 1.400 . S
C2031 C2030 1.385 . S
C2032 C2030 1.478 . S
C2032 C2034 1.381 . S
C2032 C2038 1.383 . S
C2033 C2029 1.495 . S
C2033 H2039 0.959 . S
C2033 H2040 0.961 . S
C2033 H2041 0.960 . S
C2034 C2032 1.381 . S
C2034 C2035 1.394 . S
C2034 H2042 0.930 . S
C2035 C2034 1.394 . S
C2035 C2036 1.383 . S
C2035 H2043 0.929 . S
C2036 C2035 1.383 . S
C2036 C2037 1.377 . S
C2037 H2021 0.930 . S
C2037 C2036 1.377 . S
C2037 C2038 1.379 . S
C2038 H2022 0.931 . S
C2038 C2032 1.383 . S
C2038 C2037 1.379 . S
H2039 C2033 0.959 . S
H2040 C2033 0.961 . S
H2041 C2033 0.960 . S
H2042 C2034 0.930 . S
H2043 C2035 0.929 . S
H2044 C2052 0.929 . S
H2045 C2054 0.930 . S
H2046 C2056 0.930 . S
H2047 C2059 0.929 . S
H2048 C2062 0.930 . S
H2049 C2064 0.960 . S
H2050 C2064 0.960 . S
H2051 C2064 0.960 . S
C2052 H2044 0.929 . S
C2052 C2053 1.377 . S
C2052 C2054 1.384 . S
C2053 C2052 1.377 . S
C2053 C2059 1.390 . S
C2054 H2045 0.930 . S
C2054 C2052 1.384 . S
C2054 C2055 1.372 . S
C2055 C2054 1.372 . S
C2055 C2056 1.400 . S
C2055 C2060 1.490 . S
C2056 H2046 0.930 . S
C2056 C2055 1.400 . S
C2056 C2059 1.386 . S
H2057 C2073 0.930 . S
H2058 C2074 0.931 . S
C2059 H2047 0.929 . S
C2059 C2053 1.390 . S
C2059 C2056 1.386 . S
C2060 C2055 1.490 . S
C2060 C2062 1.395 . S
C2060 C2063 1.403 . S
H2061 C2067 0.930 . S
C2062 H2048 0.930 . S
C2062 C2060 1.395 . S
C2062 C2065 1.403 . S
C2063 C2060 1.403 . S
C2063 C2064 1.524 . S
C2063 C2067 1.400 . S
C2064 H2049 0.960 . S
C2064 H2050 0.960 . S
C2064 H2051 0.960 . S
C2064 C2063 1.524 . S
C2065 C2062 1.403 . S
C2065 C2066 1.392 . S
C2065 C2069 1.495 . S
C2066 C2065 1.392 . S
C2066 C2067 1.385 . S
C2066 C2068 1.478 . S
C2067 H2061 0.930 . S
C2067 C2063 1.400 . S
C2067 C2066 1.385 . S
C2068 C2066 1.478 . S
C2068 C2070 1.381 . S
C2068 C2074 1.383 . S
C2069 C2065 1.495 . S
C2069 H2075 0.959 . S
C2069 H2076 0.961 . S
C2069 H2077 0.960 . S
C2070 C2068 1.381 . S
C2070 C2071 1.394 . S
C2070 H2078 0.930 . S
C2071 C2070 1.394 . S
C2071 C2072 1.383 . S
C2071 H2079 0.929 . S
C2072 C2071 1.383 . S
C2072 C2073 1.377 . S
C2073 H2057 0.930 . S
C2073 C2072 1.377 . S
C2073 C2074 1.379 . S
C2074 H2058 0.931 . S
C2074 C2068 1.383 . S
C2074 C2073 1.379 . S
H2075 C2069 0.959 . S
H2076 C2069 0.961 . S
H2077 C2069 0.960 . S
H2078 C2070 0.930 . S
H2079 C2071 0.929 . S
H2080 C2088 0.929 . S
H2081 C2090 0.928 . S
H2082 C2092 0.930 . S
H2083 C2095 0.929 . S
H2084 C2098 0.930 . S
H2085 C2100 0.960 . S
H2086 C2100 0.960 . S
H2087 C2100 0.960 . S
C2088 H2080 0.929 . S
C2088 C2089 1.376 . S
C2088 C2090 1.384 1_556 S
C2089 C2088 1.376 . S
C2089 C2095 1.384 1_556 S
C2090 H2081 0.928 . S
C2090 C2088 1.384 1_554 S
C2090 C2091 1.372 . S
C2091 C2090 1.372 . S
C2091 C2092 1.400 . S
C2091 C2096 1.490 . S
C2092 H2082 0.930 . S
C2092 C2091 1.400 . S
C2092 C2095 1.386 . S
H2093 C2109 0.930 . S
H2094 C2110 0.931 . S
C2095 H2083 0.929 . S
C2095 C2089 1.384 1_554 S
C2095 C2092 1.386 . S
C2096 C2091 1.490 . S
C2096 C2098 1.395 . S
C2096 C2099 1.403 . S
H2097 C2103 0.930 . S
C2098 H2084 0.930 . S
C2098 C2096 1.395 . S
C2098 C2101 1.403 . S
C2099 C2096 1.403 . S
C2099 C2100 1.524 1_554 S
C2099 C2103 1.400 . S
C2100 H2085 0.960 . S
C2100 H2086 0.960 . S
C2100 H2087 0.960 . S
C2100 C2099 1.524 1_556 S
C2101 C2098 1.403 . S
C2101 C2102 1.392 . S
C2101 C2105 1.495 . S
C2102 C2101 1.392 . S
C2102 C2103 1.385 . S
C2102 C2104 1.478 . S
C2103 H2097 0.930 . S
C2103 C2099 1.400 . S
C2103 C2102 1.385 . S
C2104 C2102 1.478 . S
C2104 C2106 1.381 . S
C2104 C2110 1.383 . S
C2105 C2101 1.495 . S
C2105 H2111 0.959 . S
C2105 H2112 0.961 . S
C2105 H2113 0.960 . S
C2106 C2104 1.381 . S
C2106 C2107 1.394 . S
C2106 H2114 0.930 . S
C2107 C2106 1.394 . S
C2107 C2108 1.383 . S
C2107 H2115 0.929 . S
C2108 C2107 1.383 . S
C2108 C2109 1.377 . S
C2109 H2093 0.930 . S
C2109 C2108 1.377 . S
C2109 C2110 1.379 . S
C2110 H2094 0.931 . S
C2110 C2104 1.383 . S
C2110 C2109 1.379 . S
H2111 C2105 0.959 . S
H2112 C2105 0.961 . S
H2113 C2105 0.960 . S
H2114 C2106 0.930 . S
H2115 C2107 0.929 . S
H2116 C2124 0.929 1_556 S
H2117 C2126 0.930 1_556 S
H2118 C2128 0.930 . S
H2119 C2131 0.929 . S
H2120 C2134 0.930 . S
H2121 C2136 0.960 . S
H2122 C2136 0.960 . S
H2123 C2136 0.960 . S
C2124 H2116 0.929 1_554 S
C2124 C2125 1.377 . S
C2124 C2126 1.384 . S
C2125 C2124 1.377 . S
C2125 C2131 1.390 . S
C2126 H2117 0.930 1_554 S
C2126 C2124 1.384 . S
C2126 C2127 1.372 . S
C2127 C2126 1.372 . S
C2127 C2128 1.400 . S
C2127 C2132 1.490 . S
C2128 H2118 0.930 . S
C2128 C2127 1.400 . S
C2128 C2131 1.386 . S
H2129 C2145 0.930 . S
H2130 C2146 0.931 . S
C2131 H2119 0.929 . S
C2131 C2125 1.390 . S
C2131 C2128 1.386 . S
C2132 C2127 1.490 . S
C2132 C2134 1.395 . S
C2132 C2135 1.403 . S
H2133 C2139 0.930 . S
C2134 H2120 0.930 . S
C2134 C2132 1.395 . S
C2134 C2137 1.403 . S
C2135 C2132 1.403 . S
C2135 C2136 1.524 . S
C2135 C2139 1.400 . S
C2136 H2121 0.960 . S
C2136 H2122 0.960 . S
C2136 H2123 0.960 . S
C2136 C2135 1.524 . S
C2137 C2134 1.403 . S
C2137 C2138 1.392 . S
C2137 C2141 1.495 . S
C2138 C2137 1.392 . S
C2138 C2139 1.385 . S
C2138 C2140 1.478 . S
C2139 H2133 0.930 . S
C2139 C2135 1.400 . S
C2139 C2138 1.385 . S
C2140 C2138 1.478 . S
C2140 C2142 1.381 . S
C2140 C2146 1.383 . S
C2141 C2137 1.495 . S
C2141 H2147 0.959 . S
C2141 H2148 0.961 . S
C2141 H2149 0.960 . S
C2142 C2140 1.381 . S
C2142 C2143 1.394 . S
C2142 H2150 0.930 1_554 S
C2143 C2142 1.394 . S
C2143 C2144 1.383 . S
C2143 H2151 0.929 1_554 S
C2144 C2143 1.383 . S
C2144 C2145 1.377 . S
C2145 H2129 0.930 . S
C2145 C2144 1.377 . S
C2145 C2146 1.379 . S
C2146 H2130 0.931 . S
C2146 C2140 1.383 . S
C2146 C2145 1.379 . S
H2147 C2141 0.959 . S
H2148 C2141 0.961 . S
H2149 C2141 0.960 . S
H2150 C2142 0.930 1_556 S
H2151 C2143 0.929 1_556 S
H2152 C2160 0.929 . S
H2153 C2162 0.930 . S
H2154 C2164 0.930 . S
H2155 C2167 0.929 . S
H2156 C2170 0.930 . S
H2157 C2172 0.960 . S
H2158 C2172 0.960 . S
H2159 C2172 0.960 . S
C2160 H2152 0.929 . S
C2160 C2161 1.377 . S
C2160 C2162 1.384 . S
C2161 C2160 1.377 . S
C2161 C2167 1.390 . S
C2162 H2153 0.930 . S
C2162 C2160 1.384 . S
C2162 C2163 1.372 . S
C2163 C2162 1.372 . S
C2163 C2164 1.400 . S
C2163 C2168 1.490 . S
C2164 H2154 0.930 . S
C2164 C2163 1.400 . S
C2164 C2167 1.386 . S
H2165 C2181 0.930 . S
H2166 C2182 0.931 . S
C2167 H2155 0.929 . S
C2167 C2161 1.390 . S
C2167 C2164 1.386 . S
C2168 C2163 1.490 . S
C2168 C2170 1.395 . S
C2168 C2171 1.403 . S
H2169 C2175 0.930 . S
C2170 H2156 0.930 . S
C2170 C2168 1.395 . S
C2170 C2173 1.403 . S
C2171 C2168 1.403 . S
C2171 C2172 1.524 . S
C2171 C2175 1.400 . S
C2172 H2157 0.960 . S
C2172 H2158 0.960 . S
C2172 H2159 0.960 . S
C2172 C2171 1.524 . S
C2173 C2170 1.403 . S
C2173 C2174 1.392 . S
C2173 C2177 1.495 . S
C2174 C2173 1.392 . S
C2174 C2175 1.385 . S
C2174 C2176 1.478 . S
C2175 H2169 0.930 . S
C2175 C2171 1.400 . S
C2175 C2174 1.385 . S
C2176 C2174 1.478 . S
C2176 C2178 1.381 . S
C2176 C2182 1.383 . S
C2177 C2173 1.495 . S
C2177 H2183 0.959 . S
C2177 H2184 0.961 . S
C2177 H2185 0.960 . S
C2178 C2176 1.381 . S
C2178 C2179 1.394 . S
C2178 H2186 0.930 . S
C2179 C2178 1.394 . S
C2179 C2180 1.383 . S
C2179 H2187 0.929 . S
C2180 C2179 1.383 . S
C2180 C2181 1.377 . S
C2181 H2165 0.930 . S
C2181 C2180 1.377 . S
C2181 C2182 1.379 . S
C2182 H2166 0.931 . S
C2182 C2176 1.383 . S
C2182 C2181 1.379 . S
H2183 C2177 0.959 . S
H2184 C2177 0.961 . S
H2185 C2177 0.960 . S
H2186 C2178 0.930 . S
H2187 C2179 0.929 . S
H2188 C2196 0.929 . S
H2189 C2198 0.930 . S
H2190 C2200 0.930 . S
H2191 C2203 0.929 . S
H2192 C2206 0.930 . S
H2193 C2208 0.960 . S
H2194 C2208 0.960 . S
H2195 C2208 0.960 . S
C2196 H2188 0.929 . S
C2196 C2197 1.377 . S
C2196 C2198 1.384 . S
C2197 C2196 1.377 . S
C2197 C2203 1.390 . S
C2198 H2189 0.930 . S
C2198 C2196 1.384 . S
C2198 C2199 1.372 . S
C2199 C2198 1.372 . S
C2199 C2200 1.400 . S
C2199 C2204 1.490 . S
C2200 H2190 0.930 . S
C2200 C2199 1.400 . S
C2200 C2203 1.386 . S
H2201 C2217 0.930 . S
H2202 C2218 0.931 . S
C2203 H2191 0.929 . S
C2203 C2197 1.390 . S
C2203 C2200 1.386 . S
C2204 C2199 1.490 . S
C2204 C2206 1.395 . S
C2204 C2207 1.403 . S
H2205 C2211 0.930 . S
C2206 H2192 0.930 . S
C2206 C2204 1.395 . S
C2206 C2209 1.403 . S
C2207 C2204 1.403 . S
C2207 C2208 1.524 . S
C2207 C2211 1.400 . S
C2208 H2193 0.960 . S
C2208 H2194 0.960 . S
C2208 H2195 0.960 . S
C2208 C2207 1.524 . S
C2209 C2206 1.403 . S
C2209 C2210 1.392 . S
C2209 C2213 1.495 . S
C2210 C2209 1.392 . S
C2210 C2211 1.385 . S
C2210 C2212 1.478 . S
C2211 H2205 0.930 . S
C2211 C2207 1.400 . S
C2211 C2210 1.385 . S
C2212 C2210 1.478 . S
C2212 C2214 1.381 . S
C2212 C2218 1.383 . S
C2213 C2209 1.495 . S
C2213 H2219 0.959 . S
C2213 H2220 0.961 . S
C2213 H2221 0.960 . S
C2214 C2212 1.381 . S
C2214 C2215 1.394 . S
C2214 H2222 0.930 . S
C2215 C2214 1.394 . S
C2215 C2216 1.383 . S
C2215 H2223 0.929 . S
C2216 C2215 1.383 . S
C2216 C2217 1.377 . S
C2217 H2201 0.930 . S
C2217 C2216 1.377 . S
C2217 C2218 1.379 . S
C2218 H2202 0.931 . S
C2218 C2212 1.383 . S
C2218 C2217 1.379 . S
H2219 C2213 0.959 . S
H2220 C2213 0.961 . S
H2221 C2213 0.960 . S
H2222 C2214 0.930 . S
H2223 C2215 0.929 . S
H2224 C2232 0.929 . S
H2225 C2234 0.930 . S
H2226 C2236 0.930 . S
H2227 C2239 0.929 . S
H2228 C2242 0.930 . S
H2229 C2244 0.960 . S
H2230 C2244 0.960 . S
H2231 C2244 0.960 . S
C2232 H2224 0.929 . S
C2232 C2233 1.377 . S
C2232 C2234 1.384 . S
C2233 C2232 1.377 . S
C2233 C2239 1.390 . S
C2234 H2225 0.930 . S
C2234 C2232 1.384 . S
C2234 C2235 1.372 . S
C2235 C2234 1.372 . S
C2235 C2236 1.400 . S
C2235 C2240 1.490 . S
C2236 H2226 0.930 . S
C2236 C2235 1.400 . S
C2236 C2239 1.386 . S
H2237 C2253 0.930 . S
H2238 C2254 0.931 . S
C2239 H2227 0.929 . S
C2239 C2233 1.390 . S
C2239 C2236 1.386 . S
C2240 C2235 1.490 . S
C2240 C2242 1.395 . S
C2240 C2243 1.403 . S
H2241 C2247 0.930 . S
C2242 H2228 0.930 . S
C2242 C2240 1.395 . S
C2242 C2245 1.403 . S
C2243 C2240 1.403 . S
C2243 C2244 1.524 . S
C2243 C2247 1.400 . S
C2244 H2229 0.960 . S
C2244 H2230 0.960 . S
C2244 H2231 0.960 . S
C2244 C2243 1.524 . S
C2245 C2242 1.403 . S
C2245 C2246 1.392 . S
C2245 C2249 1.495 . S
C2246 C2245 1.392 . S
C2246 C2247 1.385 . S
C2246 C2248 1.478 . S
C2247 H2241 0.930 . S
C2247 C2243 1.400 . S
C2247 C2246 1.385 . S
C2248 C2246 1.478 . S
C2248 C2250 1.381 . S
C2248 C2254 1.383 . S
C2249 C2245 1.495 . S
C2249 H2255 0.959 . S
C2249 H2256 0.961 . S
C2249 H2257 0.960 . S
C2250 C2248 1.381 . S
C2250 C2251 1.394 . S
C2250 H2258 0.930 . S
C2251 C2250 1.394 . S
C2251 C2252 1.383 . S
C2251 H2259 0.929 . S
C2252 C2251 1.383 . S
C2252 C2253 1.377 . S
C2253 H2237 0.930 . S
C2253 C2252 1.377 . S
C2253 C2254 1.379 . S
C2254 H2238 0.931 . S
C2254 C2248 1.383 . S
C2254 C2253 1.379 . S
H2255 C2249 0.959 . S
H2256 C2249 0.961 . S
H2257 C2249 0.960 . S
H2258 C2250 0.930 . S
H2259 C2251 0.929 . S
H2260 C2268 0.929 . S
H2261 C2270 0.930 . S
H2262 C2272 0.930 . S
H2263 C2275 0.929 . S
H2264 C2278 0.930 . S
H2265 C2280 0.960 . S
H2266 C2280 0.960 . S
H2267 C2280 0.960 . S
C2268 H2260 0.929 . S
C2268 C2269 1.377 . S
C2268 C2270 1.384 . S
C2269 C2268 1.377 . S
C2269 C2275 1.390 . S
C2270 H2261 0.930 . S
C2270 C2268 1.384 . S
C2270 C2271 1.372 . S
C2271 C2270 1.372 . S
C2271 C2272 1.400 . S
C2271 C2276 1.490 . S
C2272 H2262 0.930 . S
C2272 C2271 1.400 . S
C2272 C2275 1.386 . S
H2273 C2289 0.930 . S
H2274 C2290 0.931 . S
C2275 H2263 0.929 . S
C2275 C2269 1.390 . S
C2275 C2272 1.386 . S
C2276 C2271 1.490 . S
C2276 C2278 1.395 . S
C2276 C2279 1.403 . S
H2277 C2283 0.930 . S
C2278 H2264 0.930 . S
C2278 C2276 1.395 . S
C2278 C2281 1.403 . S
C2279 C2276 1.403 . S
C2279 C2280 1.524 . S
C2279 C2283 1.400 . S
C2280 H2265 0.960 . S
C2280 H2266 0.960 . S
C2280 H2267 0.960 . S
C2280 C2279 1.524 . S
C2281 C2278 1.403 . S
C2281 C2282 1.392 . S
C2281 C2285 1.495 . S
C2282 C2281 1.392 . S
C2282 C2283 1.385 . S
C2282 C2284 1.478 . S
C2283 H2277 0.930 . S
C2283 C2279 1.400 . S
C2283 C2282 1.385 . S
C2284 C2282 1.478 . S
C2284 C2286 1.381 . S
C2284 C2290 1.383 . S
C2285 C2281 1.495 . S
C2285 H2291 0.959 . S
C2285 H2292 0.961 . S
C2285 H2293 0.960 . S
C2286 C2284 1.381 . S
C2286 C2287 1.394 . S
C2286 H2294 0.930 . S
C2287 C2286 1.394 . S
C2287 C2288 1.383 . S
C2287 H2295 0.929 . S
C2288 C2287 1.383 . S
C2288 C2289 1.377 . S
C2289 H2273 0.930 . S
C2289 C2288 1.377 . S
C2289 C2290 1.379 . S
C2290 H2274 0.931 . S
C2290 C2284 1.383 . S
C2290 C2289 1.379 . S
H2291 C2285 0.959 . S
H2292 C2285 0.961 . S
H2293 C2285 0.960 . S
H2294 C2286 0.930 . S
H2295 C2287 0.929 . S
H2296 C2304 0.929 . S
H2297 C2306 0.930 . S
H2298 C2308 0.930 . S
H2299 C2311 0.929 . S
H2300 C2314 0.930 . S
H2301 C2316 0.960 . S
H2302 C2316 0.960 . S
H2303 C2316 0.960 . S
C2304 H2296 0.929 . S
C2304 C2305 1.377 . S
C2304 C2306 1.384 . S
C2305 C2304 1.377 . S
C2305 C2311 1.390 . S
C2306 H2297 0.930 . S
C2306 C2304 1.384 . S
C2306 C2307 1.372 . S
C2307 C2306 1.372 . S
C2307 C2308 1.400 . S
C2307 C2312 1.490 . S
C2308 H2298 0.930 . S
C2308 C2307 1.400 . S
C2308 C2311 1.386 . S
H2309 C2325 0.930 . S
H2310 C2326 0.931 . S
C2311 H2299 0.929 . S
C2311 C2305 1.390 . S
C2311 C2308 1.386 . S
C2312 C2307 1.490 . S
C2312 C2314 1.395 . S
C2312 C2315 1.403 . S
H2313 C2319 0.930 . S
C2314 H2300 0.930 . S
C2314 C2312 1.395 . S
C2314 C2317 1.403 . S
C2315 C2312 1.403 . S
C2315 C2316 1.524 . S
C2315 C2319 1.400 . S
C2316 H2301 0.960 . S
C2316 H2302 0.960 . S
C2316 H2303 0.960 . S
C2316 C2315 1.524 . S
C2317 C2314 1.403 . S
C2317 C2318 1.392 . S
C2317 C2321 1.495 . S
C2318 C2317 1.392 . S
C2318 C2319 1.385 . S
C2318 C2320 1.478 . S
C2319 H2313 0.930 . S
C2319 C2315 1.400 . S
C2319 C2318 1.385 . S
C2320 C2318 1.478 . S
C2320 C2322 1.381 . S
C2320 C2326 1.383 . S
C2321 C2317 1.495 . S
C2321 H2327 0.959 . S
C2321 H2328 0.961 . S
C2321 H2329 0.960 . S
C2322 C2320 1.381 . S
C2322 C2323 1.394 . S
C2322 H2330 0.930 . S
C2323 C2322 1.394 . S
C2323 C2324 1.383 . S
C2323 H2331 0.929 . S
C2324 C2323 1.383 . S
C2324 C2325 1.377 . S
C2325 H2309 0.930 . S
C2325 C2324 1.377 . S
C2325 C2326 1.379 . S
C2326 H2310 0.931 . S
C2326 C2320 1.383 . S
C2326 C2325 1.379 . S
H2327 C2321 0.959 . S
H2328 C2321 0.961 . S
H2329 C2321 0.960 . S
H2330 C2322 0.930 . S
H2331 C2323 0.929 . S
H2332 C2340 0.929 . S
H2333 C2342 0.930 . S
H2334 C2344 0.930 . S
H2335 C2347 0.929 . S
H2336 C2350 0.930 . S
H2337 C2352 0.960 . S
H2338 C2352 0.960 . S
H2339 C2352 0.960 . S
C2340 H2332 0.929 . S
C2340 C2341 1.377 . S
C2340 C2342 1.384 . S
C2341 C2340 1.377 . S
C2341 C2347 1.390 . S
C2342 H2333 0.930 . S
C2342 C2340 1.384 . S
C2342 C2343 1.372 . S
C2343 C2342 1.372 . S
C2343 C2344 1.400 . S
C2343 C2348 1.490 . S
C2344 H2334 0.930 . S
C2344 C2343 1.400 . S
C2344 C2347 1.386 . S
H2345 C2361 0.930 . S
H2346 C2362 0.931 . S
C2347 H2335 0.929 . S
C2347 C2341 1.390 . S
C2347 C2344 1.386 . S
C2348 C2343 1.490 . S
C2348 C2350 1.395 . S
C2348 C2351 1.403 . S
H2349 C2355 0.930 . S
C2350 H2336 0.930 . S
C2350 C2348 1.395 . S
C2350 C2353 1.403 . S
C2351 C2348 1.403 . S
C2351 C2352 1.524 . S
C2351 C2355 1.400 . S
C2352 H2337 0.960 . S
C2352 H2338 0.960 . S
C2352 H2339 0.960 . S
C2352 C2351 1.524 . S
C2353 C2350 1.403 . S
C2353 C2354 1.392 . S
C2353 C2357 1.495 . S
C2354 C2353 1.392 . S
C2354 C2355 1.385 . S
C2354 C2356 1.478 . S
C2355 H2349 0.930 . S
C2355 C2351 1.400 . S
C2355 C2354 1.385 . S
C2356 C2354 1.478 . S
C2356 C2358 1.381 . S
C2356 C2362 1.383 . S
C2357 C2353 1.495 . S
C2357 H2363 0.959 . S
C2357 H2364 0.961 . S
C2357 H2365 0.960 . S
C2358 C2356 1.381 . S
C2358 C2359 1.394 . S
C2358 H2366 0.930 . S
C2359 C2358 1.394 . S
C2359 C2360 1.383 . S
C2359 H2367 0.929 . S
C2360 C2359 1.383 . S
C2360 C2361 1.377 . S
C2361 H2345 0.930 . S
C2361 C2360 1.377 . S
C2361 C2362 1.379 . S
C2362 H2346 0.931 . S
C2362 C2356 1.383 . S
C2362 C2361 1.379 . S
H2363 C2357 0.959 . S
H2364 C2357 0.961 . S
H2365 C2357 0.960 . S
H2366 C2358 0.930 . S
H2367 C2359 0.929 . S
H2368 C2376 0.929 . S
H2369 C2378 0.930 . S
H2370 C2380 0.930 . S
H2371 C2383 0.929 . S
H2372 C2386 0.930 . S
H2373 C2388 0.960 . S
H2374 C2388 0.960 . S
H2375 C2388 0.960 . S
C2376 H2368 0.929 . S
C2376 C2377 1.377 . S
C2376 C2378 1.384 . S
C2377 C2376 1.377 . S
C2377 C2383 1.390 . S
C2378 H2369 0.930 . S
C2378 C2376 1.384 . S
C2378 C2379 1.372 . S
C2379 C2378 1.372 . S
C2379 C2380 1.400 . S
C2379 C2384 1.490 . S
C2380 H2370 0.930 . S
C2380 C2379 1.400 . S
C2380 C2383 1.386 . S
H2381 C2397 0.930 . S
H2382 C2398 0.931 . S
C2383 H2371 0.929 . S
C2383 C2377 1.390 . S
C2383 C2380 1.386 . S
C2384 C2379 1.490 . S
C2384 C2386 1.395 . S
C2384 C2387 1.403 . S
H2385 C2391 0.930 . S
C2386 H2372 0.930 . S
C2386 C2384 1.395 . S
C2386 C2389 1.403 . S
C2387 C2384 1.403 . S
C2387 C2388 1.524 . S
C2387 C2391 1.400 . S
C2388 H2373 0.960 . S
C2388 H2374 0.960 . S
C2388 H2375 0.960 . S
C2388 C2387 1.524 . S
C2389 C2386 1.403 . S
C2389 C2390 1.392 . S
C2389 C2393 1.495 . S
C2390 C2389 1.392 . S
C2390 C2391 1.385 . S
C2390 C2392 1.478 . S
C2391 H2385 0.930 . S
C2391 C2387 1.400 . S
C2391 C2390 1.385 . S
C2392 C2390 1.478 . S
C2392 C2394 1.381 . S
C2392 C2398 1.383 . S
C2393 C2389 1.495 . S
C2393 H2399 0.959 . S
C2393 H2400 0.961 . S
C2393 H2401 0.960 . S
C2394 C2392 1.381 . S
C2394 C2395 1.394 . S
C2394 H2402 0.930 . S
C2395 C2394 1.394 . S
C2395 C2396 1.383 . S
C2395 H2403 0.929 . S
C2396 C2395 1.383 . S
C2396 C2397 1.377 . S
C2397 H2381 0.930 . S
C2397 C2396 1.377 . S
C2397 C2398 1.379 . S
C2398 H2382 0.931 . S
C2398 C2392 1.383 . S
C2398 C2397 1.379 . S
H2399 C2393 0.959 . S
H2400 C2393 0.961 . S
H2401 C2393 0.960 . S
H2402 C2394 0.930 . S
H2403 C2395 0.929 . S
H2404 C2412 0.929 . S
H2405 C2414 0.930 . S
H2406 C2416 0.930 . S
H2407 C2419 0.929 . S
H2408 C2422 0.930 . S
H2409 C2424 0.960 . S
H2410 C2424 0.960 . S
H2411 C2424 0.960 . S
C2412 H2404 0.929 . S
C2412 C2413 1.377 . S
C2412 C2414 1.384 . S
C2413 C2412 1.377 . S
C2413 C2419 1.390 . S
C2414 H2405 0.930 . S
C2414 C2412 1.384 . S
C2414 C2415 1.372 . S
C2415 C2414 1.372 . S
C2415 C2416 1.400 . S
C2415 C2420 1.490 . S
C2416 H2406 0.930 . S
C2416 C2415 1.400 . S
C2416 C2419 1.386 . S
H2417 C2433 0.930 . S
H2418 C2434 0.931 . S
C2419 H2407 0.929 . S
C2419 C2413 1.390 . S
C2419 C2416 1.386 . S
C2420 C2415 1.490 . S
C2420 C2422 1.395 . S
C2420 C2423 1.403 . S
H2421 C2427 0.930 . S
C2422 H2408 0.930 . S
C2422 C2420 1.395 . S
C2422 C2425 1.403 . S
C2423 C2420 1.403 . S
C2423 C2424 1.524 . S
C2423 C2427 1.400 . S
C2424 H2409 0.960 . S
C2424 H2410 0.960 . S
C2424 H2411 0.960 . S
C2424 C2423 1.524 . S
C2425 C2422 1.403 . S
C2425 C2426 1.392 . S
C2425 C2429 1.495 . S
C2426 C2425 1.392 . S
C2426 C2427 1.385 . S
C2426 C2428 1.478 . S
C2427 H2421 0.930 . S
C2427 C2423 1.400 . S
C2427 C2426 1.385 . S
C2428 C2426 1.478 . S
C2428 C2430 1.381 . S
C2428 C2434 1.383 . S
C2429 C2425 1.495 . S
C2429 H2435 0.959 . S
C2429 H2436 0.961 . S
C2429 H2437 0.960 . S
C2430 C2428 1.381 . S
C2430 C2431 1.394 . S
C2430 H2438 0.930 . S
C2431 C2430 1.394 . S
C2431 C2432 1.383 . S
C2431 H2439 0.929 . S
C2432 C2431 1.383 . S
C2432 C2433 1.377 . S
C2433 H2417 0.930 . S
C2433 C2432 1.377 . S
C2433 C2434 1.379 . S
C2434 H2418 0.931 . S
C2434 C2428 1.383 . S
C2434 C2433 1.379 . S
H2435 C2429 0.959 . S
H2436 C2429 0.961 . S
H2437 C2429 0.960 . S
H2438 C2430 0.930 . S
H2439 C2431 0.929 . S
H2440 C2448 0.929 . S
H2441 C2450 0.930 . S
H2442 C2452 0.930 . S
H2443 C2455 0.929 . S
H2444 C2458 0.930 . S
H2445 C2460 0.960 . S
H2446 C2460 0.960 . S
H2447 C2460 0.960 . S
C2448 H2440 0.929 . S
C2448 C2449 1.377 . S
C2448 C2450 1.384 . S
C2449 C2448 1.377 . S
C2449 C2455 1.390 . S
C2450 H2441 0.930 . S
C2450 C2448 1.384 . S
C2450 C2451 1.372 . S
C2451 C2450 1.372 . S
C2451 C2452 1.400 . S
C2451 C2456 1.490 . S
C2452 H2442 0.930 . S
C2452 C2451 1.400 . S
C2452 C2455 1.386 . S
H2453 C2469 0.930 . S
H2454 C2470 0.931 . S
C2455 H2443 0.929 . S
C2455 C2449 1.390 . S
C2455 C2452 1.386 . S
C2456 C2451 1.490 . S
C2456 C2458 1.395 . S
C2456 C2459 1.403 . S
H2457 C2463 0.930 . S
C2458 H2444 0.930 . S
C2458 C2456 1.395 . S
C2458 C2461 1.403 . S
C2459 C2456 1.403 . S
C2459 C2460 1.524 . S
C2459 C2463 1.400 . S
C2460 H2445 0.960 . S
C2460 H2446 0.960 . S
C2460 H2447 0.960 . S
C2460 C2459 1.524 . S
C2461 C2458 1.403 . S
C2461 C2462 1.392 . S
C2461 C2465 1.495 . S
C2462 C2461 1.392 . S
C2462 C2463 1.385 . S
C2462 C2464 1.478 . S
C2463 H2457 0.930 . S
C2463 C2459 1.400 . S
C2463 C2462 1.385 . S
C2464 C2462 1.478 . S
C2464 C2466 1.381 . S
C2464 C2470 1.383 . S
C2465 C2461 1.495 . S
C2465 H2471 0.959 . S
C2465 H2472 0.961 . S
C2465 H2473 0.960 . S
C2466 C2464 1.381 . S
C2466 C2467 1.394 . S
C2466 H2474 0.930 . S
C2467 C2466 1.394 . S
C2467 C2468 1.383 . S
C2467 H2475 0.929 . S
C2468 C2467 1.383 . S
C2468 C2469 1.377 . S
C2469 H2453 0.930 . S
C2469 C2468 1.377 . S
C2469 C2470 1.379 . S
C2470 H2454 0.931 . S
C2470 C2464 1.383 . S
C2470 C2469 1.379 . S
H2471 C2465 0.959 . S
H2472 C2465 0.961 . S
H2473 C2465 0.960 . S
H2474 C2466 0.930 . S
H2475 C2467 0.929 . S
H2476 C2484 0.929 . S
H2477 C2486 0.930 . S
H2478 C2488 0.930 . S
H2479 C2491 0.929 . S
H2480 C2494 0.930 . S
H2481 C2496 0.960 . S
H2482 C2496 0.960 . S
H2483 C2496 0.960 . S
C2484 H2476 0.929 . S
C2484 C2485 1.377 . S
C2484 C2486 1.384 . S
C2485 C2484 1.377 . S
C2485 C2491 1.390 . S
C2486 H2477 0.930 . S
C2486 C2484 1.384 . S
C2486 C2487 1.372 . S
C2487 C2486 1.372 . S
C2487 C2488 1.400 . S
C2487 C2492 1.490 . S
C2488 H2478 0.930 . S
C2488 C2487 1.400 . S
C2488 C2491 1.386 . S
H2489 C2505 0.930 . S
H2490 C2506 0.931 . S
C2491 H2479 0.929 . S
C2491 C2485 1.390 . S
C2491 C2488 1.386 . S
C2492 C2487 1.490 . S
C2492 C2494 1.395 . S
C2492 C2495 1.403 . S
H2493 C2499 0.930 . S
C2494 H2480 0.930 . S
C2494 C2492 1.395 . S
C2494 C2497 1.403 . S
C2495 C2492 1.403 . S
C2495 C2496 1.524 . S
C2495 C2499 1.400 . S
C2496 H2481 0.960 . S
C2496 H2482 0.960 . S
C2496 H2483 0.960 . S
C2496 C2495 1.524 . S
C2497 C2494 1.403 . S
C2497 C2498 1.392 . S
C2497 C2501 1.495 . S
C2498 C2497 1.392 . S
C2498 C2499 1.385 . S
C2498 C2500 1.478 . S
C2499 H2493 0.930 . S
C2499 C2495 1.400 . S
C2499 C2498 1.385 . S
C2500 C2498 1.478 . S
C2500 C2502 1.381 . S
C2500 C2506 1.383 . S
C2501 C2497 1.495 . S
C2501 H2507 0.959 . S
C2501 H2508 0.961 . S
C2501 H2509 0.960 . S
C2502 C2500 1.381 . S
C2502 C2503 1.394 . S
C2502 H2510 0.930 . S
C2503 C2502 1.394 . S
C2503 C2504 1.383 . S
C2503 H2511 0.929 . S
C2504 C2503 1.383 . S
C2504 C2505 1.377 . S
C2505 H2489 0.930 . S
C2505 C2504 1.377 . S
C2505 C2506 1.379 . S
C2506 H2490 0.931 . S
C2506 C2500 1.383 . S
C2506 C2505 1.379 . S
H2507 C2501 0.959 . S
H2508 C2501 0.961 . S
H2509 C2501 0.960 . S
H2510 C2502 0.930 . S
H2511 C2503 0.929 . S
H2512 C2520 0.929 . S
H2513 C2522 0.930 . S
H2514 C2524 0.930 . S
H2515 C2527 0.929 . S
H2516 C2530 0.930 . S
H2517 C2532 0.960 . S
H2518 C2532 0.960 . S
H2519 C2532 0.960 . S
C2520 H2512 0.929 . S
C2520 C2521 1.377 1_455 S
C2520 C2522 1.384 . S
C2521 C2520 1.377 1_655 S
C2521 C2527 1.390 . S
C2522 H2513 0.930 . S
C2522 C2520 1.384 . S
C2522 C2523 1.369 1_455 S
C2523 C2522 1.369 1_655 S
C2523 C2524 1.403 . S
C2523 C2528 1.488 1_655 S
C2524 H2514 0.930 . S
C2524 C2523 1.403 . S
C2524 C2527 1.386 . S
H2525 C2541 0.930 . S
H2526 C2542 0.931 . S
C2527 H2515 0.929 . S
C2527 C2521 1.390 . S
C2527 C2524 1.386 . S
C2528 C2523 1.488 1_455 S
C2528 C2530 1.400 . S
C2528 C2531 1.400 1_455 S
H2529 C2535 0.930 . S
C2530 H2516 0.930 . S
C2530 C2528 1.400 . S
C2530 C2533 1.403 . S
C2531 C2528 1.400 1_655 S
C2531 C2532 1.524 . S
C2531 C2535 1.400 . S
C2532 H2517 0.960 . S
C2532 H2518 0.960 . S
C2532 H2519 0.960 . S
C2532 C2531 1.524 . S
C2533 C2530 1.403 . S
C2533 C2534 1.392 . S
C2533 C2537 1.495 . S
C2534 C2533 1.392 . S
C2534 C2535 1.385 1_455 S
C2534 C2536 1.478 . S
C2535 H2529 0.930 . S
C2535 C2531 1.400 . S
C2535 C2534 1.385 1_655 S
C2536 C2534 1.478 . S
C2536 C2538 1.381 . S
C2536 C2542 1.383 1_455 S
C2537 C2533 1.495 . S
C2537 H2543 0.959 . S
C2537 H2544 0.961 . S
C2537 H2545 0.960 . S
C2538 C2536 1.381 . S
C2538 C2539 1.394 . S
C2538 H2546 0.930 . S
C2539 C2538 1.394 . S
C2539 C2540 1.406 . S
C2539 H2547 0.929 . S
C2540 C2539 1.406 . S
C2540 C2541 1.352 1_455 S
C2541 H2525 0.930 . S
C2541 C2540 1.352 1_655 S
C2541 C2542 1.379 . S
C2542 H2526 0.931 . S
C2542 C2536 1.383 1_655 S
C2542 C2541 1.379 . S
H2543 C2537 0.959 . S
H2544 C2537 0.961 . S
H2545 C2537 0.960 . S
H2546 C2538 0.930 . S
H2547 C2539 0.929 . S
H2548 C2556 0.929 . S
H2549 C2558 0.930 . S
H2550 C2560 0.930 . S
H2551 C2563 0.929 . S
H2552 C2566 0.930 . S
H2553 C2568 0.960 . S
H2554 C2568 0.960 . S
H2555 C2568 0.960 . S
C2556 H2548 0.929 . S
C2556 C2557 1.377 . S
C2556 C2558 1.384 . S
C2557 C2556 1.377 . S
C2557 C2563 1.390 . S
C2558 H2549 0.930 . S
C2558 C2556 1.384 . S
C2558 C2559 1.372 . S
C2559 C2558 1.372 . S
C2559 C2560 1.400 . S
C2559 C2564 1.490 . S
C2560 H2550 0.930 . S
C2560 C2559 1.400 . S
C2560 C2563 1.386 . S
H2561 C2577 0.930 . S
H2562 C2578 0.931 . S
C2563 H2551 0.929 . S
C2563 C2557 1.390 . S
C2563 C2560 1.386 . S
C2564 C2559 1.490 . S
C2564 C2566 1.395 . S
C2564 C2567 1.403 . S
H2565 C2571 0.930 . S
C2566 H2552 0.930 . S
C2566 C2564 1.395 . S
C2566 C2569 1.403 . S
C2567 C2564 1.403 . S
C2567 C2568 1.524 . S
C2567 C2571 1.400 . S
C2568 H2553 0.960 . S
C2568 H2554 0.960 . S
C2568 H2555 0.960 . S
C2568 C2567 1.524 . S
C2569 C2566 1.403 . S
C2569 C2570 1.392 . S
C2569 C2573 1.495 . S
C2570 C2569 1.392 . S
C2570 C2571 1.385 . S
C2570 C2572 1.478 . S
C2571 H2565 0.930 . S
C2571 C2567 1.400 . S
C2571 C2570 1.385 . S
C2572 C2570 1.478 . S
C2572 C2574 1.381 . S
C2572 C2578 1.383 . S
C2573 C2569 1.495 . S
C2573 H2579 0.959 . S
C2573 H2580 0.961 . S
C2573 H2581 0.960 . S
C2574 C2572 1.381 . S
C2574 C2575 1.394 . S
C2574 H2582 0.930 . S
C2575 C2574 1.394 . S
C2575 C2576 1.383 . S
C2575 H2583 0.929 . S
C2576 C2575 1.383 . S
C2576 C2577 1.377 . S
C2577 H2561 0.930 . S
C2577 C2576 1.377 . S
C2577 C2578 1.379 . S
C2578 H2562 0.931 . S
C2578 C2572 1.383 . S
C2578 C2577 1.379 . S
H2579 C2573 0.959 . S
H2580 C2573 0.961 . S
H2581 C2573 0.960 . S
H2582 C2574 0.930 . S
H2583 C2575 0.929 . S
H2584 C2592 0.929 . S
H2585 C2594 0.930 . S
H2586 C2596 0.930 . S
H2587 C2599 0.929 . S
H2588 C2602 0.930 . S
H2589 C2604 0.960 . S
H2590 C2604 0.960 . S
H2591 C2604 0.960 . S
C2592 H2584 0.929 . S
C2592 C2593 1.377 . S
C2592 C2594 1.384 . S
C2593 C2592 1.377 . S
C2593 C2599 1.390 . S
C2594 H2585 0.930 . S
C2594 C2592 1.384 . S
C2594 C2595 1.372 . S
C2595 C2594 1.372 . S
C2595 C2596 1.400 . S
C2595 C2600 1.490 . S
C2596 H2586 0.930 . S
C2596 C2595 1.400 . S
C2596 C2599 1.386 . S
H2597 C2613 0.930 . S
H2598 C2614 0.931 . S
C2599 H2587 0.929 . S
C2599 C2593 1.390 . S
C2599 C2596 1.386 . S
C2600 C2595 1.490 . S
C2600 C2602 1.395 . S
C2600 C2603 1.403 . S
H2601 C2607 0.930 . S
C2602 H2588 0.930 . S
C2602 C2600 1.395 . S
C2602 C2605 1.403 . S
C2603 C2600 1.403 . S
C2603 C2604 1.524 . S
C2603 C2607 1.400 . S
C2604 H2589 0.960 . S
C2604 H2590 0.960 . S
C2604 H2591 0.960 . S
C2604 C2603 1.524 . S
C2605 C2602 1.403 . S
C2605 C2606 1.392 . S
C2605 C2609 1.495 . S
C2606 C2605 1.392 . S
C2606 C2607 1.385 . S
C2606 C2608 1.478 . S
C2607 H2601 0.930 . S
C2607 C2603 1.400 . S
C2607 C2606 1.385 . S
C2608 C2606 1.478 . S
C2608 C2610 1.381 . S
C2608 C2614 1.383 . S
C2609 C2605 1.495 . S
C2609 H2615 0.959 . S
C2609 H2616 0.961 . S
C2609 H2617 0.960 . S
C2610 C2608 1.381 . S
C2610 C2611 1.394 . S
C2610 H2618 0.930 . S
C2611 C2610 1.394 . S
C2611 C2612 1.383 1_556 S
C2611 H2619 0.929 . S
C2612 C2611 1.383 1_554 S
C2612 C2613 1.377 . S
C2613 H2597 0.930 . S
C2613 C2612 1.377 . S
C2613 C2614 1.379 1_554 S
C2614 H2598 0.931 . S
C2614 C2608 1.383 . S
C2614 C2613 1.379 1_556 S
H2615 C2609 0.959 . S
H2616 C2609 0.961 . S
H2617 C2609 0.960 . S
H2618 C2610 0.930 . S
H2619 C2611 0.929 . S
H2620 C2628 0.929 . S
H2621 C2630 0.930 . S
H2622 C2632 0.930 . S
H2623 C2635 0.929 . S
H2624 C2638 0.930 . S
H2625 C2640 0.960 . S
H2626 C2640 0.960 . S
H2627 C2640 0.960 . S
C2628 H2620 0.929 . S
C2628 C2629 1.377 . S
C2628 C2630 1.384 1_455 S
C2629 C2628 1.377 . S
C2629 C2635 1.390 . S
C2630 H2621 0.930 . S
C2630 C2628 1.384 1_655 S
C2630 C2631 1.372 . S
C2631 C2630 1.372 . S
C2631 C2632 1.400 . S
C2631 C2636 1.490 . S
C2632 H2622 0.930 . S
C2632 C2631 1.400 . S
C2632 C2635 1.386 1_655 S
H2633 C2649 0.930 . S
H2634 C2650 0.931 . S
C2635 H2623 0.929 . S
C2635 C2629 1.390 . S
C2635 C2632 1.386 1_455 S
C2636 C2631 1.490 . S
C2636 C2638 1.395 . S
C2636 C2639 1.403 . S
H2637 C2643 0.930 . S
C2638 H2624 0.930 . S
C2638 C2636 1.395 . S
C2638 C2641 1.403 . S
C2639 C2636 1.403 . S
C2639 C2640 1.524 . S
C2639 C2643 1.400 . S
C2640 H2625 0.960 . S
C2640 H2626 0.960 . S
C2640 H2627 0.960 . S
C2640 C2639 1.524 . S
C2641 C2638 1.403 . S
C2641 C2642 1.392 . S
C2641 C2645 1.495 . S
C2642 C2641 1.392 . S
C2642 C2643 1.385 . S
C2642 C2644 1.478 . S
C2643 H2637 0.930 . S
C2643 C2639 1.400 . S
C2643 C2642 1.385 . S
C2644 C2642 1.478 . S
C2644 C2646 1.381 . S
C2644 C2650 1.383 . S
C2645 C2641 1.495 . S
C2645 H2651 0.959 . S
C2645 H2652 0.961 . S
C2645 H2653 0.960 . S
C2646 C2644 1.381 . S
C2646 C2647 1.394 . S
C2646 H2654 0.930 . S
C2647 C2646 1.394 . S
C2647 C2648 1.383 . S
C2647 H2655 0.929 . S
C2648 C2647 1.383 . S
C2648 C2649 1.377 . S
C2649 H2633 0.930 . S
C2649 C2648 1.377 . S
C2649 C2650 1.379 . S
C2650 H2634 0.931 . S
C2650 C2644 1.383 . S
C2650 C2649 1.379 . S
H2651 C2645 0.959 . S
H2652 C2645 0.961 . S
H2653 C2645 0.960 . S
H2654 C2646 0.930 . S
H2655 C2647 0.929 . S
H2656 C2664 0.929 . S
H2657 C2666 0.930 . S
H2658 C2668 0.930 . S
H2659 C2671 0.929 . S
H2660 C2674 0.930 . S
H2661 C2676 0.960 . S
H2662 C2676 0.960 . S
H2663 C2676 0.960 . S
C2664 H2656 0.929 . S
C2664 C2665 1.377 . S
C2664 C2666 1.384 . S
C2665 C2664 1.377 . S
C2665 C2671 1.390 . S
C2666 H2657 0.930 . S
C2666 C2664 1.384 . S
C2666 C2667 1.372 . S
C2667 C2666 1.372 . S
C2667 C2668 1.400 . S
C2667 C2672 1.490 . S
C2668 H2658 0.930 . S
C2668 C2667 1.400 . S
C2668 C2671 1.386 . S
H2669 C2685 0.930 . S
H2670 C2686 0.931 . S
C2671 H2659 0.929 . S
C2671 C2665 1.390 . S
C2671 C2668 1.386 . S
C2672 C2667 1.490 . S
C2672 C2674 1.395 1_545 S
C2672 C2675 1.403 . S
H2673 C2679 0.930 . S
C2674 H2660 0.930 . S
C2674 C2672 1.395 1_565 S
C2674 C2677 1.403 . S
C2675 C2672 1.403 . S
C2675 C2676 1.524 . S
C2675 C2679 1.400 . S
C2676 H2661 0.960 . S
C2676 H2662 0.960 . S
C2676 H2663 0.960 . S
C2676 C2675 1.524 . S
C2677 C2674 1.403 . S
C2677 C2678 1.392 1_565 S
C2677 C2681 1.495 . S
C2678 C2677 1.392 1_545 S
C2678 C2679 1.385 . S
C2678 C2680 1.478 . S
C2679 H2673 0.930 . S
C2679 C2675 1.400 . S
C2679 C2678 1.385 . S
C2680 C2678 1.478 . S
C2680 C2682 1.381 1_545 S
C2680 C2686 1.383 . S
C2681 C2677 1.495 . S
C2681 H2687 0.959 . S
C2681 H2688 0.961 . S
C2681 H2689 0.960 . S
C2682 C2680 1.381 1_565 S
C2682 C2683 1.392 . S
C2682 H2690 0.930 . S
C2683 C2682 1.392 . S
C2683 C2684 1.388 1_565 S
C2683 H2691 0.930 . S
C2684 C2683 1.388 1_545 S
C2684 C2685 1.377 . S
C2685 H2669 0.930 . S
C2685 C2684 1.377 . S
C2685 C2686 1.379 . S
C2686 H2670 0.931 . S
C2686 C2680 1.383 . S
C2686 C2685 1.379 . S
H2687 C2681 0.959 . S
H2688 C2681 0.961 . S
H2689 C2681 0.960 . S
H2690 C2682 0.930 . S
H2691 C2683 0.930 . S
H2692 C2700 0.929 . S
H2693 C2702 0.930 . S
H2694 C2704 0.930 . S
H2695 C2707 0.929 . S
H2696 C2710 0.930 . S
H2697 C2712 0.960 . S
H2698 C2712 0.960 . S
H2699 C2712 0.960 . S
C2700 H2692 0.929 . S
C2700 C2701 1.377 . S
C2700 C2702 1.384 . S
C2701 C2700 1.377 . S
C2701 C2707 1.390 . S
C2702 H2693 0.930 . S
C2702 C2700 1.384 . S
C2702 C2703 1.372 . S
C2703 C2702 1.372 . S
C2703 C2704 1.400 . S
C2703 C2708 1.490 . S
C2704 H2694 0.930 . S
C2704 C2703 1.400 . S
C2704 C2707 1.386 . S
H2705 C2721 0.930 . S
H2706 C2722 0.931 . S
C2707 H2695 0.929 . S
C2707 C2701 1.390 . S
C2707 C2704 1.386 . S
C2708 C2703 1.490 . S
C2708 C2710 1.395 . S
C2708 C2711 1.403 . S
H2709 C2715 0.930 . S
C2710 H2696 0.930 . S
C2710 C2708 1.395 . S
C2710 C2713 1.403 . S
C2711 C2708 1.403 . S
C2711 C2712 1.524 . S
C2711 C2715 1.400 . S
C2712 H2697 0.960 . S
C2712 H2698 0.960 . S
C2712 H2699 0.960 . S
C2712 C2711 1.524 . S
C2713 C2710 1.403 . S
C2713 C2714 1.392 . S
C2713 C2717 1.495 . S
C2714 C2713 1.392 . S
C2714 C2715 1.385 . S
C2714 C2716 1.478 . S
C2715 H2709 0.930 . S
C2715 C2711 1.400 . S
C2715 C2714 1.385 . S
C2716 C2714 1.478 . S
C2716 C2718 1.381 . S
C2716 C2722 1.383 . S
C2717 C2713 1.495 . S
C2717 H2723 0.959 . S
C2717 H2724 0.961 . S
C2717 H2725 0.960 . S
C2718 C2716 1.381 . S
C2718 C2719 1.394 . S
C2718 H2726 0.930 . S
C2719 C2718 1.394 . S
C2719 C2720 1.383 . S
C2719 H2727 0.929 . S
C2720 C2719 1.383 . S
C2720 C2721 1.377 . S
C2721 H2705 0.930 . S
C2721 C2720 1.377 . S
C2721 C2722 1.379 . S
C2722 H2706 0.931 . S
C2722 C2716 1.383 . S
C2722 C2721 1.379 . S
H2723 C2717 0.959 . S
H2724 C2717 0.961 . S
H2725 C2717 0.960 . S
H2726 C2718 0.930 . S
H2727 C2719 0.929 . S
H2728 C2736 0.929 . S
H2729 C2738 0.930 . S
H2730 C2740 0.930 . S
H2731 C2743 0.929 . S
H2732 C2746 0.930 . S
H2733 C2748 0.960 . S
H2734 C2748 0.960 . S
H2735 C2748 0.960 . S
C2736 H2728 0.929 . S
C2736 C2737 1.377 . S
C2736 C2738 1.384 . S
C2737 C2736 1.377 . S
C2737 C2743 1.390 . S
C2738 H2729 0.930 . S
C2738 C2736 1.384 . S
C2738 C2739 1.372 . S
C2739 C2738 1.372 . S
C2739 C2740 1.400 . S
C2739 C2744 1.490 . S
C2740 H2730 0.930 . S
C2740 C2739 1.400 . S
C2740 C2743 1.386 . S
H2741 C2757 0.930 . S
H2742 C2758 0.931 . S
C2743 H2731 0.929 . S
C2743 C2737 1.390 . S
C2743 C2740 1.386 . S
C2744 C2739 1.490 . S
C2744 C2746 1.395 . S
C2744 C2747 1.403 . S
H2745 C2751 0.884 1_565 S
C2746 H2732 0.930 . S
C2746 C2744 1.395 . S
C2746 C2749 1.403 . S
C2747 C2744 1.403 . S
C2747 C2748 1.524 1_545 S
C2747 C2751 1.400 . S
C2748 H2733 0.960 . S
C2748 H2734 0.960 . S
C2748 H2735 0.960 . S
C2748 C2747 1.524 1_565 S
C2749 C2746 1.403 . S
C2749 C2750 1.392 . S
C2749 C2753 1.495 . S
C2750 C2749 1.392 . S
C2750 C2751 1.385 . S
C2750 C2752 1.478 . S
C2751 H2745 0.884 1_545 S
C2751 C2747 1.400 . S
C2751 C2750 1.385 . S
C2752 C2750 1.478 . S
C2752 C2754 1.381 . S
C2752 C2758 1.383 . S
C2753 C2749 1.495 . S
C2753 H2759 0.959 . S
C2753 H2760 0.961 . S
C2753 H2761 0.960 . S
C2754 C2752 1.381 . S
C2754 C2755 1.394 . S
C2754 H2762 0.930 . S
C2755 C2754 1.394 . S
C2755 C2756 1.383 . S
C2755 H2763 0.929 . S
C2756 C2755 1.383 . S
C2756 C2757 1.377 . S
C2757 H2741 0.930 . S
C2757 C2756 1.377 . S
C2757 C2758 1.379 . S
C2758 H2742 0.931 . S
C2758 C2752 1.383 . S
C2758 C2757 1.379 . S
H2759 C2753 0.959 . S
H2760 C2753 0.961 . S
H2761 C2753 0.960 . S
H2762 C2754 0.930 . S
H2763 C2755 0.929 . S
H2764 C2772 0.929 . S
H2765 C2774 0.930 . S
H2766 C2776 0.930 . S
H2767 C2779 0.929 . S
H2768 C2782 0.930 . S
H2769 C2784 0.960 . S
H2770 C2784 0.960 . S
H2771 C2784 0.960 . S
C2772 H2764 0.929 . S
C2772 C2773 1.377 . S
C2772 C2774 1.384 . S
C2773 C2772 1.377 . S
C2773 C2779 1.390 . S
C2774 H2765 0.930 . S
C2774 C2772 1.384 . S
C2774 C2775 1.372 . S
C2775 C2774 1.372 . S
C2775 C2776 1.400 . S
C2775 C2780 1.490 . S
C2776 H2766 0.930 . S
C2776 C2775 1.400 . S
C2776 C2779 1.386 . S
H2777 C2793 0.930 . S
H2778 C2794 0.931 . S
C2779 H2767 0.929 . S
C2779 C2773 1.390 . S
C2779 C2776 1.386 . S
C2780 C2775 1.490 . S
C2780 C2782 1.395 . S
C2780 C2783 1.403 . S
H2781 C2787 0.930 . S
C2782 H2768 0.930 . S
C2782 C2780 1.395 . S
C2782 C2785 1.403 . S
C2783 C2780 1.403 . S
C2783 C2784 1.524 . S
C2783 C2787 1.400 . S
C2784 H2769 0.960 . S
C2784 H2770 0.960 . S
C2784 H2771 0.960 . S
C2784 C2783 1.524 . S
C2785 C2782 1.403 . S
C2785 C2786 1.392 . S
C2785 C2789 1.495 . S
C2786 C2785 1.392 . S
C2786 C2787 1.385 . S
C2786 C2788 1.478 . S
C2787 H2781 0.930 . S
C2787 C2783 1.400 . S
C2787 C2786 1.385 . S
C2788 C2786 1.478 . S
C2788 C2790 1.381 . S
C2788 C2794 1.383 . S
C2789 C2785 1.495 . S
C2789 H2795 0.959 . S
C2789 H2796 0.961 . S
C2789 H2797 0.960 . S
C2790 C2788 1.381 . S
C2790 C2791 1.394 . S
C2790 H2798 0.930 . S
C2791 C2790 1.394 . S
C2791 C2792 1.383 . S
C2791 H2799 0.929 . S
C2792 C2791 1.383 . S
C2792 C2793 1.377 . S
C2793 H2777 0.930 . S
C2793 C2792 1.377 . S
C2793 C2794 1.379 . S
C2794 H2778 0.931 . S
C2794 C2788 1.383 . S
C2794 C2793 1.379 . S
H2795 C2789 0.959 . S
H2796 C2789 0.961 . S
H2797 C2789 0.960 . S
H2798 C2790 0.930 . S
H2799 C2791 0.929 . S
H2800 C2808 0.989 . S
H2801 C2810 0.930 . S
H2802 C2812 0.930 . S
H2803 C2815 0.929 . S
H2804 C2818 0.944 . S
H2805 C2820 0.960 . S
H2806 C2820 0.960 . S
H2807 C2820 0.960 . S
C2808 H2800 0.989 . S
C2808 C2809 1.331 1_565 S
C2808 C2810 1.374 . S
C2809 C2808 1.331 1_545 S
C2809 C2815 1.390 . S
C2810 H2801 0.930 . S
C2810 C2808 1.374 . S
C2810 C2811 1.372 1_565 S
C2811 C2810 1.372 1_545 S
C2811 C2812 1.400 . S
C2811 C2816 1.490 . S
C2812 H2802 0.930 . S
C2812 C2811 1.400 . S
C2812 C2815 1.386 . S
H2813 C2829 0.930 . S
H2814 C2830 0.931 . S
C2815 H2803 0.929 . S
C2815 C2809 1.390 . S
C2815 C2812 1.386 . S
C2816 C2811 1.490 . S
C2816 C2818 1.395 . S
C2816 C2819 1.403 . S
H2817 C2823 0.930 . S
C2818 H2804 0.944 . S
C2818 C2816 1.395 . S
C2818 C2821 1.403 . S
C2819 C2816 1.403 . S
C2819 C2820 1.524 . S
C2819 C2823 1.400 . S
C2820 H2805 0.960 . S
C2820 H2806 0.960 . S
C2820 H2807 0.960 . S
C2820 C2819 1.524 . S
C2821 C2818 1.403 . S
C2821 C2822 1.392 . S
C2821 C2825 1.495 1_545 S
C2822 C2821 1.392 . S
C2822 C2823 1.385 . S
C2822 C2824 1.478 . S
C2823 H2817 0.930 . S
C2823 C2819 1.400 . S
C2823 C2822 1.385 . S
C2824 C2822 1.478 . S
C2824 C2826 1.381 1_545 S
C2824 C2830 1.383 . S
C2825 C2821 1.495 1_565 S
C2825 H2831 0.959 . S
C2825 H2832 0.961 1_565 S
C2825 H2833 0.960 . S
C2826 C2824 1.381 1_565 S
C2826 C2827 1.394 . S
C2826 H2834 0.930 . S
C2827 C2826 1.394 . S
C2827 C2828 1.383 1_565 S
C2827 H2835 0.929 . S
C2828 C2827 1.383 1_545 S
C2828 C2829 1.377 . S
C2829 H2813 0.930 . S
C2829 C2828 1.377 . S
C2829 C2830 1.379 . S
C2830 H2814 0.931 . S
C2830 C2824 1.383 . S
C2830 C2829 1.379 . S
H2831 C2825 0.959 . S
H2832 C2825 0.961 1_545 S
H2833 C2825 0.960 . S
H2834 C2826 0.930 . S
H2835 C2827 0.929 . S
H2836 C2844 0.929 . S
H2837 C2846 0.930 . S
H2838 C2848 0.930 . S
H2839 C2851 0.929 . S
H2840 C2854 0.930 . S
H2841 C2856 0.960 . S
H2842 C2856 0.960 . S
H2843 C2856 0.960 . S
C2844 H2836 0.929 . S
C2844 C2845 1.377 . S
C2844 C2846 1.384 . S
C2845 C2844 1.377 . S
C2845 C2851 1.390 . S
C2846 H2837 0.930 . S
C2846 C2844 1.384 . S
C2846 C2847 1.372 . S
C2847 C2846 1.372 . S
C2847 C2848 1.400 . S
C2847 C2852 1.490 . S
C2848 H2838 0.930 . S
C2848 C2847 1.400 . S
C2848 C2851 1.386 . S
H2849 C2865 0.930 . S
H2850 C2866 0.931 . S
C2851 H2839 0.929 . S
C2851 C2845 1.390 . S
C2851 C2848 1.386 . S
C2852 C2847 1.490 . S
C2852 C2854 1.395 . S
C2852 C2855 1.403 . S
H2853 C2859 0.930 . S
C2854 H2840 0.930 . S
C2854 C2852 1.395 . S
C2854 C2857 1.403 . S
C2855 C2852 1.403 . S
C2855 C2856 1.524 . S
C2855 C2859 1.400 . S
C2856 H2841 0.960 . S
C2856 H2842 0.960 . S
C2856 H2843 0.960 . S
C2856 C2855 1.524 . S
C2857 C2854 1.403 . S
C2857 C2858 1.392 . S
C2857 C2861 1.495 . S
C2858 C2857 1.392 . S
C2858 C2859 1.385 . S
C2858 C2860 1.478 . S
C2859 H2853 0.930 . S
C2859 C2855 1.400 . S
C2859 C2858 1.385 . S
C2860 C2858 1.478 . S
C2860 C2862 1.381 . S
C2860 C2866 1.383 . S
C2861 C2857 1.495 . S
C2861 H2867 0.959 . S
C2861 H2868 0.961 . S
C2861 H2869 0.960 . S
C2862 C2860 1.381 . S
C2862 C2863 1.394 . S
C2862 H2870 0.930 . S
C2863 C2862 1.394 . S
C2863 C2864 1.383 . S
C2863 H2871 0.929 . S
C2864 C2863 1.383 . S
C2864 C2865 1.377 . S
C2865 H2849 0.930 . S
C2865 C2864 1.377 . S
C2865 C2866 1.379 . S
C2866 H2850 0.931 . S
C2866 C2860 1.383 . S
C2866 C2865 1.379 . S
H2867 C2861 0.959 . S
H2868 C2861 0.961 . S
H2869 C2861 0.960 . S
H2870 C2862 0.930 . S
H2871 C2863 0.929 . S
H2872 C2880 0.929 . S
H2873 C2882 0.930 . S
H2874 C2884 0.930 . S
H2875 C2887 0.929 . S
H2876 C2890 0.930 . S
H2877 C2892 0.960 . S
H2878 C2892 0.960 . S
H2879 C2892 0.960 . S
C2880 H2872 0.929 . S
C2880 C2881 1.377 . S
C2880 C2882 1.384 . S
C2881 C2880 1.377 . S
C2881 C2887 1.390 . S
C2882 H2873 0.930 . S
C2882 C2880 1.384 . S
C2882 C2883 1.372 . S
C2883 C2882 1.372 . S
C2883 C2884 1.400 . S
C2883 C2888 1.490 . S
C2884 H2874 0.930 . S
C2884 C2883 1.400 . S
C2884 C2887 1.386 . S
H2885 C2901 0.930 . S
H2886 C2902 0.931 . S
C2887 H2875 0.929 . S
C2887 C2881 1.390 . S
C2887 C2884 1.386 . S
C2888 C2883 1.490 . S
C2888 C2890 1.395 . S
C2888 C2891 1.403 . S
H2889 C2895 0.930 1_565 S
C2890 H2876 0.930 . S
C2890 C2888 1.395 . S
C2890 C2893 1.403 . S
C2891 C2888 1.403 . S
C2891 C2892 1.524 1_545 S
C2891 C2895 1.400 . S
C2892 H2877 0.960 . S
C2892 H2878 0.960 . S
C2892 H2879 0.960 . S
C2892 C2891 1.524 1_565 S
C2893 C2890 1.403 . S
C2893 C2894 1.392 . S
C2893 C2897 1.495 . S
C2894 C2893 1.392 . S
C2894 C2895 1.385 . S
C2894 C2896 1.478 . S
C2895 H2889 0.930 1_545 S
C2895 C2891 1.400 . S
C2895 C2894 1.385 . S
C2896 C2894 1.478 . S
C2896 C2898 1.381 . S
C2896 C2902 1.383 . S
C2897 C2893 1.495 . S
C2897 H2903 0.959 . S
C2897 H2904 0.961 . S
C2897 H2905 0.960 . S
C2898 C2896 1.381 . S
C2898 C2899 1.402 . S
C2898 H2906 0.930 1_545 S
C2899 C2898 1.402 . S
C2899 C2900 1.391 . S
C2899 H2907 0.917 1_545 S
C2900 C2899 1.391 . S
C2900 C2901 1.377 . S
C2901 H2885 0.930 . S
C2901 C2900 1.377 . S
C2901 C2902 1.379 . S
C2902 H2886 0.931 . S
C2902 C2896 1.383 . S
C2902 C2901 1.379 . S
H2903 C2897 0.959 . S
H2904 C2897 0.961 . S
H2905 C2897 0.960 . S
H2906 C2898 0.930 1_565 S
H2907 C2899 0.917 1_565 S
H2908 C2916 0.929 . S
H2909 C2918 0.930 . S
H2910 C2920 0.930 . S
H2911 C2923 0.929 . S
H2912 C2926 0.930 . S
H2913 C2928 0.960 . S
H2914 C2928 0.960 . S
H2915 C2928 0.960 . S
C2916 H2908 0.929 . S
C2916 C2917 1.377 . S
C2916 C2918 1.384 . S
C2917 C2916 1.377 . S
C2917 C2923 1.390 . S
C2918 H2909 0.930 . S
C2918 C2916 1.384 . S
C2918 C2919 1.372 . S
C2919 C2918 1.372 . S
C2919 C2920 1.400 . S
C2919 C2924 1.490 . S
C2920 H2910 0.930 . S
C2920 C2919 1.400 . S
C2920 C2923 1.386 . S
H2921 C2937 0.930 . S
H2922 C2938 0.931 . S
C2923 H2911 0.929 . S
C2923 C2917 1.390 . S
C2923 C2920 1.386 . S
C2924 C2919 1.490 . S
C2924 C2926 1.395 . S
C2924 C2927 1.403 . S
H2925 C2931 0.930 . S
C2926 H2912 0.930 . S
C2926 C2924 1.395 . S
C2926 C2929 1.403 . S
C2927 C2924 1.403 . S
C2927 C2928 1.524 . S
C2927 C2931 1.400 . S
C2928 H2913 0.960 . S
C2928 H2914 0.960 . S
C2928 H2915 0.960 . S
C2928 C2927 1.524 . S
C2929 C2926 1.403 . S
C2929 C2930 1.392 . S
C2929 C2933 1.495 . S
C2930 C2929 1.392 . S
C2930 C2931 1.385 . S
C2930 C2932 1.478 . S
C2931 H2925 0.930 . S
C2931 C2927 1.400 . S
C2931 C2930 1.385 . S
C2932 C2930 1.478 . S
C2932 C2934 1.381 . S
C2932 C2938 1.383 . S
C2933 C2929 1.495 . S
C2933 H2939 0.959 . S
C2933 H2940 0.961 . S
C2933 H2941 0.960 . S
C2934 C2932 1.381 . S
C2934 C2935 1.394 . S
C2934 H2942 0.930 . S
C2935 C2934 1.394 . S
C2935 C2936 1.383 . S
C2935 H2943 0.929 . S
C2936 C2935 1.383 . S
C2936 C2937 1.377 . S
C2937 H2921 0.930 . S
C2937 C2936 1.377 . S
C2937 C2938 1.379 . S
C2938 H2922 0.931 . S
C2938 C2932 1.383 . S
C2938 C2937 1.379 . S
H2939 C2933 0.959 . S
H2940 C2933 0.961 . S
H2941 C2933 0.960 . S
H2942 C2934 0.930 . S
H2943 C2935 0.929 . S
H2944 C2952 0.929 . S
H2945 C2954 0.930 . S
H2946 C2956 0.930 . S
H2947 C2959 0.929 . S
H2948 C2962 0.930 . S
H2949 C2964 0.960 . S
H2950 C2964 0.960 . S
H2951 C2964 0.960 1_554 S
C2952 H2944 0.929 . S
C2952 C2953 1.377 . S
C2952 C2954 1.384 . S
C2953 C2952 1.377 . S
C2953 C2959 1.390 . S
C2954 H2945 0.930 . S
C2954 C2952 1.384 . S
C2954 C2955 1.372 . S
C2955 C2954 1.372 . S
C2955 C2956 1.400 . S
C2955 C2960 1.490 . S
C2956 H2946 0.930 . S
C2956 C2955 1.400 . S
C2956 C2959 1.386 . S
H2957 C2973 0.930 . S
H2958 C2974 0.931 . S
C2959 H2947 0.929 . S
C2959 C2953 1.390 . S
C2959 C2956 1.386 . S
C2960 C2955 1.490 . S
C2960 C2962 1.395 . S
C2960 C2963 1.403 . S
H2961 C2967 0.930 1_556 S
C2962 H2948 0.930 . S
C2962 C2960 1.395 . S
C2962 C2965 1.403 . S
C2963 C2960 1.403 . S
C2963 C2964 1.524 1_554 S
C2963 C2967 1.400 . S
C2964 H2949 0.960 . S
C2964 H2950 0.960 . S
C2964 H2951 0.960 1_556 S
C2964 C2963 1.524 1_556 S
C2965 C2962 1.403 . S
C2965 C2966 1.392 . S
C2965 C2969 1.495 . S
C2966 C2965 1.392 . S
C2966 C2967 1.385 . S
C2966 C2968 1.478 . S
C2967 H2961 0.930 1_554 S
C2967 C2963 1.400 . S
C2967 C2966 1.385 . S
C2968 C2966 1.478 . S
C2968 C2970 1.381 . S
C2968 C2974 1.383 . S
C2969 C2965 1.495 . S
C2969 H2975 0.959 . S
C2969 H2976 0.961 . S
C2969 H2977 0.960 . S
C2970 C2968 1.381 . S
C2970 C2971 1.394 1_554 S
C2970 H2978 0.930 . S
C2971 C2970 1.394 1_556 S
C2971 C2972 1.383 . S
C2971 H2979 0.929 . S
C2972 C2971 1.383 . S
C2972 C2973 1.377 1_556 S
C2973 H2957 0.930 . S
C2973 C2972 1.377 1_554 S
C2973 C2974 1.379 . S
C2974 H2958 0.931 . S
C2974 C2968 1.383 . S
C2974 C2973 1.379 . S
H2975 C2969 0.959 . S
H2976 C2969 0.961 . S
H2977 C2969 0.960 . S
H2978 C2970 0.930 . S
H2979 C2971 0.929 . S
H2980 C2988 0.929 . S
H2981 C2990 0.930 . S
H2982 C2992 0.930 . S
H2983 C2995 0.929 . S
H2984 C2998 0.930 . S
H2985 C3000 0.960 . S
H2986 C3000 0.960 . S
H2987 C3000 0.960 . S
C2988 H2980 0.929 . S
C2988 C2989 1.377 . S
C2988 C2990 1.384 . S
C2989 C2988 1.377 . S
C2989 C2995 1.390 . S
C2990 H2981 0.930 . S
C2990 C2988 1.384 . S
C2990 C2991 1.372 . S
C2991 C2990 1.372 . S
C2991 C2992 1.400 . S
C2991 C2996 1.490 . S
C2992 H2982 0.930 . S
C2992 C2991 1.400 . S
C2992 C2995 1.386 . S
H2993 C3009 0.898 1_556 S
H2994 C3010 0.931 . S
C2995 H2983 0.929 . S
C2995 C2989 1.390 . S
C2995 C2992 1.386 . S
C2996 C2991 1.490 . S
C2996 C2998 1.395 . S
C2996 C2999 1.403 . S
H2997 C3003 0.930 . S
C2998 H2984 0.930 . S
C2998 C2996 1.395 . S
C2998 C3001 1.403 . S
C2999 C2996 1.403 . S
C2999 C3000 1.524 . S
C2999 C3003 1.400 . S
C3000 H2985 0.960 . S
C3000 H2986 0.960 . S
C3000 H2987 0.960 . S
C3000 C2999 1.524 . S
C3001 C2998 1.403 . S
C3001 C3002 1.392 . S
C3001 C3005 1.495 . S
C3002 C3001 1.392 . S
C3002 C3003 1.385 . S
C3002 C3004 1.478 . S
C3003 H2997 0.930 . S
C3003 C2999 1.400 . S
C3003 C3002 1.385 . S
C3004 C3002 1.478 . S
C3004 C3006 1.381 . S
C3004 C3010 1.383 . S
C3005 C3001 1.495 . S
C3005 H3011 0.959 . S
C3005 H3012 0.961 . S
C3005 H3013 0.960 . S
C3006 C3004 1.381 . S
C3006 C3007 1.394 . S
C3006 H3014 0.930 . S
C3007 C3006 1.394 . S
C3007 C3008 1.383 . S
C3007 H3015 0.929 . S
C3008 C3007 1.383 . S
C3008 C3009 1.377 . S
C3009 H2993 0.898 1_554 S
C3009 C3008 1.377 . S
C3009 C3010 1.379 . S
C3010 H2994 0.931 . S
C3010 C3004 1.383 . S
C3010 C3009 1.379 . S
H3011 C3005 0.959 . S
H3012 C3005 0.961 . S
H3013 C3005 0.960 . S
H3014 C3006 0.930 . S
H3015 C3007 0.929 . S
H3016 C3024 0.929 . S
H3017 C3026 0.930 . S
H3018 C3028 0.930 . S
H3019 C3031 0.929 . S
H3020 C3034 0.930 . S
H3021 C3036 0.960 . S
H3022 C3036 0.960 . S
H3023 C3036 0.960 . S
C3024 H3016 0.929 . S
C3024 C3025 1.377 . S
C3024 C3026 1.384 . S
C3025 C3024 1.377 . S
C3025 C3031 1.390 . S
C3026 H3017 0.930 . S
C3026 C3024 1.384 . S
C3026 C3027 1.372 . S
C3027 C3026 1.372 . S
C3027 C3028 1.400 . S
C3027 C3032 1.490 . S
C3028 H3018 0.930 . S
C3028 C3027 1.400 . S
C3028 C3031 1.386 . S
H3029 C3045 0.930 . S
H3030 C3046 0.931 . S
C3031 H3019 0.929 . S
C3031 C3025 1.390 . S
C3031 C3028 1.386 . S
C3032 C3027 1.490 . S
C3032 C3034 1.395 . S
C3032 C3035 1.403 . S
H3033 C3039 0.930 . S
C3034 H3020 0.930 . S
C3034 C3032 1.395 . S
C3034 C3037 1.403 . S
C3035 C3032 1.403 . S
C3035 C3036 1.524 . S
C3035 C3039 1.400 . S
C3036 H3021 0.960 . S
C3036 H3022 0.960 . S
C3036 H3023 0.960 . S
C3036 C3035 1.524 . S
C3037 C3034 1.403 . S
C3037 C3038 1.392 . S
C3037 C3041 1.495 . S
C3038 C3037 1.392 . S
C3038 C3039 1.385 . S
C3038 C3040 1.478 . S
C3039 H3033 0.930 . S
C3039 C3035 1.400 . S
C3039 C3038 1.385 . S
C3040 C3038 1.478 . S
C3040 C3042 1.381 . S
C3040 C3046 1.383 . S
C3041 C3037 1.495 . S
C3041 H3047 0.959 . S
C3041 H3048 0.961 . S
C3041 H3049 0.960 . S
C3042 C3040 1.381 . S
C3042 C3043 1.394 . S
C3042 H3050 0.930 . S
C3043 C3042 1.394 . S
C3043 C3044 1.383 . S
C3043 H3051 0.929 . S
C3044 C3043 1.383 . S
C3044 C3045 1.377 . S
C3045 H3029 0.930 . S
C3045 C3044 1.377 . S
C3045 C3046 1.379 . S
C3046 H3030 0.931 . S
C3046 C3040 1.383 . S
C3046 C3045 1.379 . S
H3047 C3041 0.959 . S
H3048 C3041 0.961 . S
H3049 C3041 0.960 . S
H3050 C3042 0.930 . S
H3051 C3043 0.929 . S
H3052 C3060 0.929 . S
H3053 C3062 0.930 . S
H3054 C3064 0.930 . S
H3055 C3067 0.929 . S
H3056 C3070 0.930 . S
H3057 C3072 0.960 . S
H3058 C3072 0.960 . S
H3059 C3072 0.960 . S
C3060 H3052 0.929 . S
C3060 C3061 1.377 . S
C3060 C3062 1.384 . S
C3061 C3060 1.377 . S
C3061 C3067 1.390 . S
C3062 H3053 0.930 . S
C3062 C3060 1.384 . S
C3062 C3063 1.372 . S
C3063 C3062 1.372 . S
C3063 C3064 1.400 . S
C3063 C3068 1.490 . S
C3064 H3054 0.930 . S
C3064 C3063 1.400 . S
C3064 C3067 1.386 . S
H3065 C3081 0.930 . S
H3066 C3082 0.931 . S
C3067 H3055 0.929 . S
C3067 C3061 1.390 . S
C3067 C3064 1.386 . S
C3068 C3063 1.490 . S
C3068 C3070 1.395 . S
C3068 C3071 1.403 . S
H3069 C3075 0.930 . S
C3070 H3056 0.930 . S
C3070 C3068 1.395 . S
C3070 C3073 1.403 . S
C3071 C3068 1.403 . S
C3071 C3072 1.524 . S
C3071 C3075 1.400 . S
C3072 H3057 0.960 . S
C3072 H3058 0.960 . S
C3072 H3059 0.960 . S
C3072 C3071 1.524 . S
C3073 C3070 1.403 . S
C3073 C3074 1.392 . S
C3073 C3077 1.495 . S
C3074 C3073 1.392 . S
C3074 C3075 1.385 . S
C3074 C3076 1.478 . S
C3075 H3069 0.930 . S
C3075 C3071 1.400 . S
C3075 C3074 1.385 . S
C3076 C3074 1.478 . S
C3076 C3078 1.381 . S
C3076 C3082 1.383 . S
C3077 C3073 1.495 . S
C3077 H3083 0.959 . S
C3077 H3084 0.961 . S
C3077 H3085 0.960 . S
C3078 C3076 1.381 . S
C3078 C3079 1.394 . S
C3078 H3086 0.930 . S
C3079 C3078 1.394 . S
C3079 C3080 1.383 . S
C3079 H3087 0.929 . S
C3080 C3079 1.383 . S
C3080 C3081 1.377 . S
C3081 H3065 0.930 . S
C3081 C3080 1.377 . S
C3081 C3082 1.379 . S
C3082 H3066 0.931 . S
C3082 C3076 1.383 . S
C3082 C3081 1.379 . S
H3083 C3077 0.959 . S
H3084 C3077 0.961 . S
H3085 C3077 0.960 . S
H3086 C3078 0.930 . S
H3087 C3079 0.929 . S
H3088 C3096 0.929 . S
H3089 C3098 0.930 . S
H3090 C3100 0.930 . S
H3091 C3103 0.929 . S
H3092 C3106 0.930 . S
H3093 C3108 0.960 . S
H3094 C3108 0.960 . S
H3095 C3108 0.960 . S
C3096 H3088 0.929 . S
C3096 C3097 1.377 . S
C3096 C3098 1.384 . S
C3097 C3096 1.377 . S
C3097 C3103 1.390 . S
C3098 H3089 0.930 . S
C3098 C3096 1.384 . S
C3098 C3099 1.372 . S
C3099 C3098 1.372 . S
C3099 C3100 1.400 . S
C3099 C3104 1.490 . S
C3100 H3090 0.930 . S
C3100 C3099 1.400 . S
C3100 C3103 1.386 . S
H3101 C3117 0.930 . S
H3102 C3118 0.931 . S
C3103 H3091 0.929 . S
C3103 C3097 1.390 . S
C3103 C3100 1.386 . S
C3104 C3099 1.490 . S
C3104 C3106 1.395 . S
C3104 C3107 1.403 . S
H3105 C3111 0.930 . S
C3106 H3092 0.930 . S
C3106 C3104 1.395 . S
C3106 C3109 1.403 . S
C3107 C3104 1.403 . S
C3107 C3108 1.524 . S
C3107 C3111 1.400 . S
C3108 H3093 0.960 . S
C3108 H3094 0.960 . S
C3108 H3095 0.960 . S
C3108 C3107 1.524 . S
C3109 C3106 1.403 . S
C3109 C3110 1.392 . S
C3109 C3113 1.495 . S
C3110 C3109 1.392 . S
C3110 C3111 1.385 . S
C3110 C3112 1.478 . S
C3111 H3105 0.930 . S
C3111 C3107 1.400 . S
C3111 C3110 1.385 . S
C3112 C3110 1.478 . S
C3112 C3114 1.381 . S
C3112 C3118 1.383 . S
C3113 C3109 1.495 . S
C3113 H3119 0.959 . S
C3113 H3120 0.961 . S
C3113 H3121 0.960 . S
C3114 C3112 1.381 . S
C3114 C3115 1.394 . S
C3114 H3122 0.930 . S
C3115 C3114 1.394 . S
C3115 C3116 1.383 . S
C3115 H3123 0.929 . S
C3116 C3115 1.383 . S
C3116 C3117 1.377 . S
C3117 H3101 0.930 . S
C3117 C3116 1.377 . S
C3117 C3118 1.379 . S
C3118 H3102 0.931 . S
C3118 C3112 1.383 . S
C3118 C3117 1.379 . S
H3119 C3113 0.959 . S
H3120 C3113 0.961 . S
H3121 C3113 0.960 . S
H3122 C3114 0.930 . S
H3123 C3115 0.929 . S
H3124 C3132 0.929 . S
H3125 C3134 0.930 . S
H3126 C3136 0.930 . S
H3127 C3139 0.929 . S
H3128 C3142 0.930 . S
H3129 C3144 0.960 . S
H3130 C3144 0.960 . S
H3131 C3144 0.960 . S
C3132 H3124 0.929 . S
C3132 C3133 1.377 . S
C3132 C3134 1.384 . S
C3133 C3132 1.377 . S
C3133 C3139 1.390 . S
C3134 H3125 0.930 . S
C3134 C3132 1.384 . S
C3134 C3135 1.372 . S
C3135 C3134 1.372 . S
C3135 C3136 1.400 . S
C3135 C3140 1.490 . S
C3136 H3126 0.930 . S
C3136 C3135 1.400 . S
C3136 C3139 1.386 . S
H3137 C3153 0.930 . S
H3138 C3154 0.931 . S
C3139 H3127 0.929 . S
C3139 C3133 1.390 . S
C3139 C3136 1.386 . S
C3140 C3135 1.490 . S
C3140 C3142 1.395 . S
C3140 C3143 1.403 . S
H3141 C3147 0.930 . S
C3142 H3128 0.930 . S
C3142 C3140 1.395 . S
C3142 C3145 1.403 . S
C3143 C3140 1.403 . S
C3143 C3144 1.524 . S
C3143 C3147 1.400 . S
C3144 H3129 0.960 . S
C3144 H3130 0.960 . S
C3144 H3131 0.960 . S
C3144 C3143 1.524 . S
C3145 C3142 1.403 . S
C3145 C3146 1.392 . S
C3145 C3149 1.495 . S
C3146 C3145 1.392 . S
C3146 C3147 1.385 . S
C3146 C3148 1.478 . S
C3147 H3141 0.930 . S
C3147 C3143 1.400 . S
C3147 C3146 1.385 . S
C3148 C3146 1.478 . S
C3148 C3150 1.381 . S
C3148 C3154 1.383 . S
C3149 C3145 1.495 . S
C3149 H3155 0.959 . S
C3149 H3156 0.961 . S
C3149 H3157 0.960 . S
C3150 C3148 1.381 . S
C3150 C3151 1.394 . S
C3150 H3158 0.930 . S
C3151 C3150 1.394 . S
C3151 C3152 1.383 . S
C3151 H3159 0.929 . S
C3152 C3151 1.383 . S
C3152 C3153 1.377 . S
C3153 H3137 0.930 . S
C3153 C3152 1.377 . S
C3153 C3154 1.379 . S
C3154 H3138 0.931 . S
C3154 C3148 1.383 . S
C3154 C3153 1.379 . S
H3155 C3149 0.959 . S
H3156 C3149 0.961 . S
H3157 C3149 0.960 . S
H3158 C3150 0.930 . S
H3159 C3151 0.929 . S
H3160 C3168 0.929 . S
H3161 C3170 0.930 . S
H3162 C3172 0.930 . S
H3163 C3175 0.929 . S
H3164 C3178 0.930 . S
H3165 C3180 0.960 . S
H3166 C3180 0.960 . S
H3167 C3180 0.960 . S
C3168 H3160 0.929 . S
C3168 C3169 1.377 . S
C3168 C3170 1.384 . S
C3169 C3168 1.377 . S
C3169 C3175 1.390 . S
C3170 H3161 0.930 . S
C3170 C3168 1.384 . S
C3170 C3171 1.372 . S
C3171 C3170 1.372 . S
C3171 C3172 1.400 . S
C3171 C3176 1.490 . S
C3172 H3162 0.930 . S
C3172 C3171 1.400 . S
C3172 C3175 1.386 . S
H3173 C3189 0.930 . S
H3174 C3190 0.931 . S
C3175 H3163 0.929 . S
C3175 C3169 1.390 . S
C3175 C3172 1.386 . S
C3176 C3171 1.490 . S
C3176 C3178 1.395 . S
C3176 C3179 1.403 . S
H3177 C3183 0.930 . S
C3178 H3164 0.930 . S
C3178 C3176 1.395 . S
C3178 C3181 1.403 . S
C3179 C3176 1.403 . S
C3179 C3180 1.524 . S
C3179 C3183 1.400 . S
C3180 H3165 0.960 . S
C3180 H3166 0.960 . S
C3180 H3167 0.960 . S
C3180 C3179 1.524 . S
C3181 C3178 1.403 . S
C3181 C3182 1.392 . S
C3181 C3185 1.495 . S
C3182 C3181 1.392 . S
C3182 C3183 1.385 . S
C3182 C3184 1.478 . S
C3183 H3177 0.930 . S
C3183 C3179 1.400 . S
C3183 C3182 1.385 . S
C3184 C3182 1.478 . S
C3184 C3186 1.381 . S
C3184 C3190 1.383 . S
C3185 C3181 1.495 . S
C3185 H3191 0.959 . S
C3185 H3192 0.961 . S
C3185 H3193 0.960 . S
C3186 C3184 1.381 . S
C3186 C3187 1.394 . S
C3186 H3194 0.930 . S
C3187 C3186 1.394 . S
C3187 C3188 1.383 . S
C3187 H3195 0.929 . S
C3188 C3187 1.383 . S
C3188 C3189 1.377 . S
C3189 H3173 0.930 . S
C3189 C3188 1.377 . S
C3189 C3190 1.379 . S
C3190 H3174 0.931 . S
C3190 C3184 1.383 . S
C3190 C3189 1.379 . S
H3191 C3185 0.959 . S
H3192 C3185 0.961 . S
H3193 C3185 0.960 . S
H3194 C3186 0.930 . S
H3195 C3187 0.929 . S
H3196 C3204 0.929 . S
H3197 C3206 0.930 . S
H3198 C3208 0.930 . S
H3199 C3211 0.929 . S
H3200 C3214 0.930 . S
H3201 C3216 0.960 . S
H3202 C3216 0.960 . S
H3203 C3216 0.960 . S
C3204 H3196 0.929 . S
C3204 C3205 1.377 . S
C3204 C3206 1.384 . S
C3205 C3204 1.377 . S
C3205 C3211 1.390 . S
C3206 H3197 0.930 . S
C3206 C3204 1.384 . S
C3206 C3207 1.372 . S
C3207 C3206 1.372 . S
C3207 C3208 1.400 . S
C3207 C3212 1.490 . S
C3208 H3198 0.930 . S
C3208 C3207 1.400 . S
C3208 C3211 1.386 . S
H3209 C3225 0.930 . S
H3210 C3226 0.931 . S
C3211 H3199 0.929 . S
C3211 C3205 1.390 . S
C3211 C3208 1.386 . S
C3212 C3207 1.490 . S
C3212 C3214 1.395 . S
C3212 C3215 1.403 . S
H3213 C3219 0.930 . S
C3214 H3200 0.930 . S
C3214 C3212 1.395 . S
C3214 C3217 1.403 . S
C3215 C3212 1.403 . S
C3215 C3216 1.524 . S
C3215 C3219 1.400 . S
C3216 H3201 0.960 . S
C3216 H3202 0.960 . S
C3216 H3203 0.960 . S
C3216 C3215 1.524 . S
C3217 C3214 1.403 . S
C3217 C3218 1.392 . S
C3217 C3221 1.495 . S
C3218 C3217 1.392 . S
C3218 C3219 1.385 . S
C3218 C3220 1.478 . S
C3219 H3213 0.930 . S
C3219 C3215 1.400 . S
C3219 C3218 1.385 . S
C3220 C3218 1.478 . S
C3220 C3222 1.381 . S
C3220 C3226 1.383 . S
C3221 C3217 1.495 . S
C3221 H3227 0.959 . S
C3221 H3228 0.961 . S
C3221 H3229 0.960 . S
C3222 C3220 1.381 . S
C3222 C3223 1.394 . S
C3222 H3230 0.930 . S
C3223 C3222 1.394 . S
C3223 C3224 1.383 . S
C3223 H3231 0.929 . S
C3224 C3223 1.383 . S
C3224 C3225 1.377 . S
C3225 H3209 0.930 . S
C3225 C3224 1.377 . S
C3225 C3226 1.379 . S
C3226 H3210 0.931 . S
C3226 C3220 1.383 . S
C3226 C3225 1.379 . S
H3227 C3221 0.959 . S
H3228 C3221 0.961 . S
H3229 C3221 0.960 . S
H3230 C3222 0.930 . S
H3231 C3223 0.929 . S
H3232 C3240 0.929 . S
H3233 C3242 0.930 . S
H3234 C3244 0.930 . S
H3235 C3247 0.929 . S
H3236 C3250 0.930 . S
H3237 C3252 0.960 . S
H3238 C3252 0.960 . S
H3239 C3252 0.960 . S
C3240 H3232 0.929 . S
C3240 C3241 1.377 . S
C3240 C3242 1.384 . S
C3241 C3240 1.377 . S
C3241 C3247 1.390 . S
C3242 H3233 0.930 . S
C3242 C3240 1.384 . S
C3242 C3243 1.372 . S
C3243 C3242 1.372 . S
C3243 C3244 1.400 . S
C3243 C3248 1.490 . S
C3244 H3234 0.930 . S
C3244 C3243 1.400 . S
C3244 C3247 1.386 . S
H3245 C3261 0.930 . S
H3246 C3262 0.931 . S
C3247 H3235 0.929 . S
C3247 C3241 1.390 . S
C3247 C3244 1.386 . S
C3248 C3243 1.490 . S
C3248 C3250 1.395 . S
C3248 C3251 1.403 . S
H3249 C3255 0.930 . S
C3250 H3236 0.930 . S
C3250 C3248 1.395 . S
C3250 C3253 1.403 . S
C3251 C3248 1.403 . S
C3251 C3252 1.524 . S
C3251 C3255 1.400 . S
C3252 H3237 0.960 . S
C3252 H3238 0.960 . S
C3252 H3239 0.960 . S
C3252 C3251 1.524 . S
C3253 C3250 1.403 . S
C3253 C3254 1.392 . S
C3253 C3257 1.495 . S
C3254 C3253 1.392 . S
C3254 C3255 1.385 . S
C3254 C3256 1.478 . S
C3255 H3249 0.930 . S
C3255 C3251 1.400 . S
C3255 C3254 1.385 . S
C3256 C3254 1.478 . S
C3256 C3258 1.381 . S
C3256 C3262 1.383 . S
C3257 C3253 1.495 . S
C3257 H3263 0.959 . S
C3257 H3264 0.961 . S
C3257 H3265 0.960 . S
C3258 C3256 1.381 . S
C3258 C3259 1.394 . S
C3258 H3266 0.930 . S
C3259 C3258 1.394 . S
C3259 C3260 1.383 . S
C3259 H3267 0.929 . S
C3260 C3259 1.383 . S
C3260 C3261 1.377 . S
C3261 H3245 0.930 . S
C3261 C3260 1.377 . S
C3261 C3262 1.379 . S
C3262 H3246 0.931 . S
C3262 C3256 1.383 . S
C3262 C3261 1.379 . S
H3263 C3257 0.959 . S
H3264 C3257 0.961 . S
H3265 C3257 0.960 . S
H3266 C3258 0.930 . S
H3267 C3259 0.929 . S
H3268 C3276 0.929 . S
H3269 C3278 0.930 . S
H3270 C3280 0.930 . S
H3271 C3283 0.929 . S
H3272 C3286 0.930 . S
H3273 C3288 0.960 . S
H3274 C3288 0.960 . S
H3275 C3288 0.960 . S
C3276 H3268 0.929 . S
C3276 C3277 1.377 . S
C3276 C3278 1.384 . S
C3277 C3276 1.377 . S
C3277 C3283 1.390 . S
C3278 H3269 0.930 . S
C3278 C3276 1.384 . S
C3278 C3279 1.372 . S
C3279 C3278 1.372 . S
C3279 C3280 1.400 . S
C3279 C3284 1.490 . S
C3280 H3270 0.930 . S
C3280 C3279 1.400 . S
C3280 C3283 1.386 . S
H3281 C3297 0.930 . S
H3282 C3298 0.931 . S
C3283 H3271 0.929 . S
C3283 C3277 1.390 . S
C3283 C3280 1.386 . S
C3284 C3279 1.490 . S
C3284 C3286 1.395 . S
C3284 C3287 1.403 . S
H3285 C3291 0.930 . S
C3286 H3272 0.930 . S
C3286 C3284 1.395 . S
C3286 C3289 1.403 . S
C3287 C3284 1.403 . S
C3287 C3288 1.524 . S
C3287 C3291 1.400 . S
C3288 H3273 0.960 . S
C3288 H3274 0.960 . S
C3288 H3275 0.960 . S
C3288 C3287 1.524 . S
C3289 C3286 1.403 . S
C3289 C3290 1.392 . S
C3289 C3293 1.495 . S
C3290 C3289 1.392 . S
C3290 C3291 1.385 . S
C3290 C3292 1.478 . S
C3291 H3285 0.930 . S
C3291 C3287 1.400 . S
C3291 C3290 1.385 . S
C3292 C3290 1.478 . S
C3292 C3294 1.381 . S
C3292 C3298 1.383 . S
C3293 C3289 1.495 . S
C3293 H3299 0.959 . S
C3293 H3300 0.961 . S
C3293 H3301 0.960 . S
C3294 C3292 1.381 . S
C3294 C3295 1.394 . S
C3294 H3302 0.930 . S
C3295 C3294 1.394 . S
C3295 C3296 1.383 . S
C3295 H3303 0.929 . S
C3296 C3295 1.383 . S
C3296 C3297 1.377 . S
C3297 H3281 0.930 . S
C3297 C3296 1.377 . S
C3297 C3298 1.379 . S
C3298 H3282 0.931 . S
C3298 C3292 1.383 . S
C3298 C3297 1.379 . S
H3299 C3293 0.959 . S
H3300 C3293 0.961 . S
H3301 C3293 0.960 . S
H3302 C3294 0.930 . S
H3303 C3295 0.929 . S
H3304 C3312 0.929 1_655 S
H3305 C3314 0.930 1_655 S
H3306 C3316 0.930 . S
H3307 C3319 0.929 . S
H3308 C3322 0.930 . S
H3309 C3324 0.960 . S
H3310 C3324 0.960 . S
H3311 C3324 0.960 . S
C3312 H3304 0.929 1_455 S
C3312 C3313 1.377 . S
C3312 C3314 1.384 . S
C3313 C3312 1.377 . S
C3313 C3319 1.390 . S
C3314 H3305 0.930 1_455 S
C3314 C3312 1.384 . S
C3314 C3315 1.372 . S
C3315 C3314 1.372 . S
C3315 C3316 1.400 . S
C3315 C3320 1.490 . S
C3316 H3306 0.930 . S
C3316 C3315 1.400 . S
C3316 C3319 1.386 . S
H3317 C3333 0.930 . S
H3318 C3334 0.930 1_556 S
C3319 H3307 0.929 . S
C3319 C3313 1.390 . S
C3319 C3316 1.386 . S
C3320 C3315 1.490 . S
C3320 C3322 1.395 . S
C3320 C3323 1.403 . S
H3321 C3327 0.930 . S
C3322 H3308 0.930 . S
C3322 C3320 1.395 . S
C3322 C3325 1.406 . S
C3323 C3320 1.403 . S
C3323 C3324 1.524 . S
C3323 C3327 1.400 . S
C3324 H3309 0.960 . S
C3324 H3310 0.960 . S
C3324 H3311 0.960 . S
C3324 C3323 1.524 . S
C3325 C3322 1.406 . S
C3325 C3326 1.397 . S
C3325 C3329 1.489 1_556 S
C3326 C3325 1.397 . S
C3326 C3327 1.385 . S
C3326 C3328 1.478 . S
C3327 H3321 0.930 . S
C3327 C3323 1.400 . S
C3327 C3326 1.385 . S
C3328 C3326 1.478 . S
C3328 C3330 1.371 1_556 S
C3328 C3334 1.383 1_556 S
C3329 C3325 1.489 1_554 S
C3329 H3335 0.959 . S
C3329 H3336 0.961 . S
C3329 H3337 0.960 . S
C3330 C3328 1.371 1_554 S
C3330 C3331 1.404 . S
C3330 H3338 0.904 1_454 S
C3331 C3330 1.404 . S
C3331 C3332 1.383 . S
C3331 H3339 0.929 . S
C3332 C3331 1.383 . S
C3332 C3333 1.377 . S
C3333 H3317 0.930 . S
C3333 C3332 1.377 . S
C3333 C3334 1.379 . S
C3334 H3318 0.930 1_554 S
C3334 C3328 1.383 1_554 S
C3334 C3333 1.379 . S
H3335 C3329 0.959 . S
H3336 C3329 0.961 . S
H3337 C3329 0.960 . S
H3338 C3330 0.904 1_656 S
H3339 C3331 0.929 . S
H3340 C3348 0.929 1_455 S
H3341 C3350 0.930 . S
H3342 C3352 0.930 . S
H3343 C3355 0.929 . S
H3344 C3358 0.930 . S
H3345 C3360 0.960 . S
H3346 C3360 0.960 . S
H3347 C3360 0.960 . S
C3348 H3340 0.929 1_655 S
C3348 C3349 1.377 . S
C3348 C3350 1.384 . S
C3349 C3348 1.377 . S
C3349 C3355 1.390 . S
C3350 H3341 0.930 . S
C3350 C3348 1.384 . S
C3350 C3351 1.372 . S
C3351 C3350 1.372 . S
C3351 C3352 1.400 . S
C3351 C3356 1.490 . S
C3352 H3342 0.930 . S
C3352 C3351 1.400 . S
C3352 C3355 1.386 . S
H3353 C3369 0.930 . S
H3354 C3370 0.931 . S
C3355 H3343 0.929 . S
C3355 C3349 1.390 . S
C3355 C3352 1.386 . S
C3356 C3351 1.490 . S
C3356 C3358 1.395 . S
C3356 C3359 1.403 . S
H3357 C3363 0.930 . S
C3358 H3344 0.930 . S
C3358 C3356 1.395 . S
C3358 C3361 1.403 . S
C3359 C3356 1.403 . S
C3359 C3360 1.524 . S
C3359 C3363 1.400 . S
C3360 H3345 0.960 . S
C3360 H3346 0.960 . S
C3360 H3347 0.960 . S
C3360 C3359 1.524 . S
C3361 C3358 1.403 . S
C3361 C3362 1.392 . S
C3361 C3365 1.495 . S
C3362 C3361 1.392 . S
C3362 C3363 1.385 . S
C3362 C3364 1.478 . S
C3363 H3357 0.930 . S
C3363 C3359 1.400 . S
C3363 C3362 1.385 . S
C3364 C3362 1.478 . S
C3364 C3366 1.381 . S
C3364 C3370 1.383 . S
C3365 C3361 1.495 . S
C3365 H3371 0.959 . S
C3365 H3372 0.961 . S
C3365 H3373 0.960 . S
C3366 C3364 1.381 . S
C3366 C3367 1.394 . S
C3366 H3374 0.930 . S
C3367 C3366 1.394 . S
C3367 C3368 1.383 . S
C3367 H3375 0.929 . S
C3368 C3367 1.383 . S
C3368 C3369 1.377 . S
C3369 H3353 0.930 . S
C3369 C3368 1.377 . S
C3369 C3370 1.379 . S
C3370 H3354 0.931 . S
C3370 C3364 1.383 . S
C3370 C3369 1.379 . S
H3371 C3365 0.959 . S
H3372 C3365 0.961 . S
H3373 C3365 0.960 . S
H3374 C3366 0.930 . S
H3375 C3367 0.929 . S
H3376 C3384 0.929 . S
H3377 C3386 0.930 . S
H3378 C3388 0.930 . S
H3379 C3391 0.929 . S
H3380 C3394 0.930 . S
H3381 C3396 0.960 . S
H3382 C3396 0.960 . S
H3383 C3396 0.960 . S
C3384 H3376 0.929 . S
C3384 C3385 1.377 . S
C3384 C3386 1.384 . S
C3385 C3384 1.377 . S
C3385 C3391 1.390 . S
C3386 H3377 0.930 . S
C3386 C3384 1.384 . S
C3386 C3387 1.372 . S
C3387 C3386 1.372 . S
C3387 C3388 1.400 . S
C3387 C3392 1.490 . S
C3388 H3378 0.930 . S
C3388 C3387 1.400 . S
C3388 C3391 1.386 . S
H3389 C3405 0.930 . S
H3390 C3406 0.931 . S
C3391 H3379 0.929 . S
C3391 C3385 1.390 . S
C3391 C3388 1.386 . S
C3392 C3387 1.490 . S
C3392 C3394 1.395 . S
C3392 C3395 1.403 . S
H3393 C3399 0.930 . S
C3394 H3380 0.930 . S
C3394 C3392 1.395 . S
C3394 C3397 1.403 . S
C3395 C3392 1.403 . S
C3395 C3396 1.524 . S
C3395 C3399 1.400 . S
C3396 H3381 0.960 . S
C3396 H3382 0.960 . S
C3396 H3383 0.960 . S
C3396 C3395 1.524 . S
C3397 C3394 1.403 . S
C3397 C3398 1.392 . S
C3397 C3401 1.495 . S
C3398 C3397 1.392 . S
C3398 C3399 1.385 . S
C3398 C3400 1.478 . S
C3399 H3393 0.930 . S
C3399 C3395 1.400 . S
C3399 C3398 1.385 . S
C3400 C3398 1.478 . S
C3400 C3402 1.381 . S
C3400 C3406 1.383 . S
C3401 C3397 1.495 . S
C3401 H3407 0.959 . S
C3401 H3408 0.961 . S
C3401 H3409 0.960 . S
C3402 C3400 1.381 . S
C3402 C3403 1.394 . S
C3402 H3410 0.930 . S
C3403 C3402 1.394 . S
C3403 C3404 1.383 . S
C3403 H3411 0.929 . S
C3404 C3403 1.383 . S
C3404 C3405 1.377 . S
C3405 H3389 0.930 . S
C3405 C3404 1.377 . S
C3405 C3406 1.379 . S
C3406 H3390 0.931 . S
C3406 C3400 1.383 . S
C3406 C3405 1.379 . S
H3407 C3401 0.959 . S
H3408 C3401 0.961 . S
H3409 C3401 0.960 . S
H3410 C3402 0.930 . S
H3411 C3403 0.929 . S
H3412 C3420 0.929 . S
H3413 C3422 0.930 . S
H3414 C3424 0.930 . S
H3415 C3427 0.929 . S
H3416 C3430 0.930 . S
H3417 C3432 0.960 . S
H3418 C3432 0.960 . S
H3419 C3432 0.960 . S
C3420 H3412 0.929 . S
C3420 C3421 1.377 . S
C3420 C3422 1.384 . S
C3421 C3420 1.377 . S
C3421 C3427 1.390 . S
C3422 H3413 0.930 . S
C3422 C3420 1.384 . S
C3422 C3423 1.372 . S
C3423 C3422 1.372 . S
C3423 C3424 1.400 . S
C3423 C3428 1.490 . S
C3424 H3414 0.930 . S
C3424 C3423 1.400 . S
C3424 C3427 1.386 . S
H3425 C3441 0.930 . S
H3426 C3442 0.931 . S
C3427 H3415 0.929 . S
C3427 C3421 1.390 . S
C3427 C3424 1.386 . S
C3428 C3423 1.490 . S
C3428 C3430 1.395 . S
C3428 C3431 1.403 . S
H3429 C3435 0.930 . S
C3430 H3416 0.930 . S
C3430 C3428 1.395 . S
C3430 C3433 1.403 . S
C3431 C3428 1.403 . S
C3431 C3432 1.524 . S
C3431 C3435 1.400 . S
C3432 H3417 0.960 . S
C3432 H3418 0.960 . S
C3432 H3419 0.960 . S
C3432 C3431 1.524 . S
C3433 C3430 1.403 . S
C3433 C3434 1.392 . S
C3433 C3437 1.495 . S
C3434 C3433 1.392 . S
C3434 C3435 1.385 . S
C3434 C3436 1.478 . S
C3435 H3429 0.930 . S
C3435 C3431 1.400 . S
C3435 C3434 1.385 . S
C3436 C3434 1.478 . S
C3436 C3438 1.381 . S
C3436 C3442 1.383 . S
C3437 C3433 1.495 . S
C3437 H3443 0.959 . S
C3437 H3444 0.961 . S
C3437 H3445 0.960 . S
C3438 C3436 1.381 . S
C3438 C3439 1.394 . S
C3438 H3446 0.930 . S
C3439 C3438 1.394 . S
C3439 C3440 1.383 . S
C3439 H3447 0.929 . S
C3440 C3439 1.383 . S
C3440 C3441 1.377 . S
C3441 H3425 0.930 . S
C3441 C3440 1.377 . S
C3441 C3442 1.379 . S
C3442 H3426 0.931 . S
C3442 C3436 1.383 . S
C3442 C3441 1.379 . S
H3443 C3437 0.959 . S
H3444 C3437 0.961 . S
H3445 C3437 0.960 . S
H3446 C3438 0.930 . S
H3447 C3439 0.929 . S
H3448 C3456 0.929 . S
H3449 C3458 0.930 . S
H3450 C3460 0.930 . S
H3451 C3463 0.929 . S
H3452 C3466 0.930 . S
H3453 C3468 0.960 . S
H3454 C3468 0.960 . S
H3455 C3468 0.960 . S
C3456 H3448 0.929 . S
C3456 C3457 1.377 . S
C3456 C3458 1.384 . S
C3457 C3456 1.377 . S
C3457 C3463 1.390 . S
C3458 H3449 0.930 . S
C3458 C3456 1.384 . S
C3458 C3459 1.372 . S
C3459 C3458 1.372 . S
C3459 C3460 1.400 . S
C3459 C3464 1.490 . S
C3460 H3450 0.930 . S
C3460 C3459 1.400 . S
C3460 C3463 1.386 . S
H3461 C3477 0.930 . S
H3462 C3478 0.931 . S
C3463 H3451 0.929 . S
C3463 C3457 1.390 . S
C3463 C3460 1.386 . S
C3464 C3459 1.490 . S
C3464 C3466 1.395 . S
C3464 C3467 1.403 . S
H3465 C3471 0.930 . S
C3466 H3452 0.930 . S
C3466 C3464 1.395 . S
C3466 C3469 1.403 . S
C3467 C3464 1.403 . S
C3467 C3468 1.524 . S
C3467 C3471 1.400 . S
C3468 H3453 0.960 . S
C3468 H3454 0.960 . S
C3468 H3455 0.960 . S
C3468 C3467 1.524 . S
C3469 C3466 1.403 . S
C3469 C3470 1.392 . S
C3469 C3473 1.495 . S
C3470 C3469 1.392 . S
C3470 C3471 1.385 . S
C3470 C3472 1.478 . S
C3471 H3465 0.930 . S
C3471 C3467 1.400 . S
C3471 C3470 1.385 . S
C3472 C3470 1.478 . S
C3472 C3474 1.381 . S
C3472 C3478 1.383 . S
C3473 C3469 1.495 . S
C3473 H3479 0.959 . S
C3473 H3480 0.961 . S
C3473 H3481 0.960 . S
C3474 C3472 1.381 . S
C3474 C3475 1.394 . S
C3474 H3482 0.930 . S
C3475 C3474 1.394 . S
C3475 C3476 1.383 . S
C3475 H3483 0.929 . S
C3476 C3475 1.383 . S
C3476 C3477 1.377 . S
C3477 H3461 0.930 . S
C3477 C3476 1.377 . S
C3477 C3478 1.379 . S
C3478 H3462 0.931 . S
C3478 C3472 1.383 . S
C3478 C3477 1.379 . S
H3479 C3473 0.959 . S
H3480 C3473 0.961 . S
H3481 C3473 0.960 . S
H3482 C3474 0.930 . S
H3483 C3475 0.929 . S
H3484 C3492 0.929 . S
H3485 C3494 0.930 . S
H3486 C3496 0.930 . S
H3487 C3499 0.929 . S
H3488 C3502 0.930 . S
H3489 C3504 0.960 . S
H3490 C3504 0.960 . S
H3491 C3504 0.960 . S
C3492 H3484 0.929 . S
C3492 C3493 1.377 . S
C3492 C3494 1.384 . S
C3493 C3492 1.377 . S
C3493 C3499 1.390 . S
C3494 H3485 0.930 . S
C3494 C3492 1.384 . S
C3494 C3495 1.372 . S
C3495 C3494 1.372 . S
C3495 C3496 1.400 . S
C3495 C3500 1.490 . S
C3496 H3486 0.930 . S
C3496 C3495 1.400 . S
C3496 C3499 1.386 . S
H3497 C3513 0.930 . S
H3498 C3514 0.931 . S
C3499 H3487 0.929 . S
C3499 C3493 1.390 . S
C3499 C3496 1.386 . S
C3500 C3495 1.490 . S
C3500 C3502 1.395 . S
C3500 C3503 1.403 . S
H3501 C3507 0.930 . S
C3502 H3488 0.930 . S
C3502 C3500 1.395 . S
C3502 C3505 1.403 . S
C3503 C3500 1.403 . S
C3503 C3504 1.524 . S
C3503 C3507 1.400 . S
C3504 H3489 0.960 . S
C3504 H3490 0.960 . S
C3504 H3491 0.960 . S
C3504 C3503 1.524 . S
C3505 C3502 1.403 . S
C3505 C3506 1.392 . S
C3505 C3509 1.495 . S
C3506 C3505 1.392 . S
C3506 C3507 1.385 . S
C3506 C3508 1.478 . S
C3507 H3501 0.930 . S
C3507 C3503 1.400 . S
C3507 C3506 1.385 . S
C3508 C3506 1.478 . S
C3508 C3510 1.381 . S
C3508 C3514 1.383 . S
C3509 C3505 1.495 . S
C3509 H3515 0.959 . S
C3509 H3516 0.961 . S
C3509 H3517 0.960 . S
C3510 C3508 1.381 . S
C3510 C3511 1.394 . S
C3510 H3518 0.930 . S
C3511 C3510 1.394 . S
C3511 C3512 1.383 . S
C3511 H3519 0.929 . S
C3512 C3511 1.383 . S
C3512 C3513 1.377 . S
C3513 H3497 0.930 . S
C3513 C3512 1.377 . S
C3513 C3514 1.379 . S
C3514 H3498 0.931 . S
C3514 C3508 1.383 . S
C3514 C3513 1.379 . S
H3515 C3509 0.959 . S
H3516 C3509 0.961 . S
H3517 C3509 0.960 . S
H3518 C3510 0.930 . S
H3519 C3511 0.929 . S
H3520 C3528 0.929 . S
H3521 C3530 0.930 . S
H3522 C3532 0.930 . S
H3523 C3535 0.929 . S
H3524 C3538 0.930 . S
H3525 C3540 0.960 . S
H3526 C3540 0.960 . S
H3527 C3540 0.960 . S
C3528 H3520 0.929 . S
C3528 C3529 1.377 . S
C3528 C3530 1.384 . S
C3529 C3528 1.377 . S
C3529 C3535 1.390 . S
C3530 H3521 0.930 . S
C3530 C3528 1.384 . S
C3530 C3531 1.372 . S
C3531 C3530 1.372 . S
C3531 C3532 1.400 . S
C3531 C3536 1.490 . S
C3532 H3522 0.930 . S
C3532 C3531 1.400 . S
C3532 C3535 1.386 . S
H3533 C3549 0.930 . S
H3534 C3550 0.931 . S
C3535 H3523 0.929 . S
C3535 C3529 1.390 . S
C3535 C3532 1.386 . S
C3536 C3531 1.490 . S
C3536 C3538 1.395 . S
C3536 C3539 1.403 . S
H3537 C3543 0.930 . S
C3538 H3524 0.930 . S
C3538 C3536 1.395 . S
C3538 C3541 1.403 . S
C3539 C3536 1.403 . S
C3539 C3540 1.524 . S
C3539 C3543 1.400 . S
C3540 H3525 0.960 . S
C3540 H3526 0.960 . S
C3540 H3527 0.960 . S
C3540 C3539 1.524 . S
C3541 C3538 1.403 . S
C3541 C3542 1.392 . S
C3541 C3545 1.495 . S
C3542 C3541 1.392 . S
C3542 C3543 1.385 . S
C3542 C3544 1.478 . S
C3543 H3537 0.930 . S
C3543 C3539 1.400 . S
C3543 C3542 1.385 . S
C3544 C3542 1.478 . S
C3544 C3546 1.381 . S
C3544 C3550 1.383 . S
C3545 C3541 1.495 . S
C3545 H3551 0.959 . S
C3545 H3552 0.961 . S
C3545 H3553 0.960 . S
C3546 C3544 1.381 . S
C3546 C3547 1.394 . S
C3546 H3554 0.930 . S
C3547 C3546 1.394 . S
C3547 C3548 1.383 . S
C3547 H3555 0.929 . S
C3548 C3547 1.383 . S
C3548 C3549 1.377 . S
C3549 H3533 0.930 . S
C3549 C3548 1.377 . S
C3549 C3550 1.379 . S
C3550 H3534 0.931 . S
C3550 C3544 1.383 . S
C3550 C3549 1.379 . S
H3551 C3545 0.959 . S
H3552 C3545 0.961 . S
H3553 C3545 0.960 . S
H3554 C3546 0.930 . S
H3555 C3547 0.929 . S
H3556 C3564 0.930 1_554 S
H3557 C3566 0.930 . S
H3558 C3568 0.930 . S
H3559 C3571 0.929 . S
H3560 C3574 0.930 . S
H3561 C3576 0.960 . S
H3562 C3576 0.960 . S
H3563 C3576 0.960 . S
C3564 H3556 0.930 1_556 S
C3564 C3565 1.380 1_556 S
C3564 C3566 1.380 . S
C3565 C3564 1.380 1_554 S
C3565 C3571 1.390 . S
C3566 H3557 0.930 . S
C3566 C3564 1.380 . S
C3566 C3567 1.372 . S
C3567 C3566 1.372 . S
C3567 C3568 1.400 . S
C3567 C3572 1.490 . S
C3568 H3558 0.930 . S
C3568 C3567 1.400 . S
C3568 C3571 1.386 1_556 S
H3569 C3585 0.930 . S
H3570 C3586 0.931 . S
C3571 H3559 0.929 . S
C3571 C3565 1.390 . S
C3571 C3568 1.386 1_554 S
C3572 C3567 1.490 . S
C3572 C3574 1.395 . S
C3572 C3575 1.403 . S
H3573 C3579 0.930 . S
C3574 H3560 0.930 . S
C3574 C3572 1.395 . S
C3574 C3577 1.403 . S
C3575 C3572 1.403 . S
C3575 C3576 1.524 . S
C3575 C3579 1.400 . S
C3576 H3561 0.960 . S
C3576 H3562 0.960 . S
C3576 H3563 0.960 . S
C3576 C3575 1.524 . S
C3577 C3574 1.403 . S
C3577 C3578 1.392 . S
C3577 C3581 1.495 . S
C3578 C3577 1.392 . S
C3578 C3579 1.385 . S
C3578 C3580 1.478 . S
C3579 H3573 0.930 . S
C3579 C3575 1.400 . S
C3579 C3578 1.385 . S
C3580 C3578 1.478 . S
C3580 C3582 1.381 . S
C3580 C3586 1.383 . S
C3581 C3577 1.495 . S
C3581 H3587 0.959 . S
C3581 H3588 0.961 . S
C3581 H3589 0.960 . S
C3582 C3580 1.381 . S
C3582 C3583 1.394 . S
C3582 H3590 0.930 . S
C3583 C3582 1.394 . S
C3583 C3584 1.383 . S
C3583 H3591 0.929 . S
C3584 C3583 1.383 . S
C3584 C3585 1.377 . S
C3585 H3569 0.930 . S
C3585 C3584 1.377 . S
C3585 C3586 1.379 . S
C3586 H3570 0.931 . S
C3586 C3580 1.383 . S
C3586 C3585 1.379 . S
H3587 C3581 0.959 . S
H3588 C3581 0.961 . S
H3589 C3581 0.960 . S
H3590 C3582 0.930 . S
H3591 C3583 0.929 . S
H3592 C3600 0.929 . S
H3593 C3602 0.930 . S
H3594 C3604 0.930 . S
H3595 C3607 0.929 . S
H3596 C3610 0.930 . S
H3597 C3612 0.960 . S
H3598 C3612 0.960 . S
H3599 C3612 0.960 . S
C3600 H3592 0.929 . S
C3600 C3601 1.377 . S
C3600 C3602 1.384 . S
C3601 C3600 1.377 . S
C3601 C3607 1.390 . S
C3602 H3593 0.930 . S
C3602 C3600 1.384 . S
C3602 C3603 1.372 . S
C3603 C3602 1.372 . S
C3603 C3604 1.400 . S
C3603 C3608 1.490 . S
C3604 H3594 0.930 . S
C3604 C3603 1.400 . S
C3604 C3607 1.386 . S
H3605 C3621 0.930 . S
H3606 C3622 0.931 . S
C3607 H3595 0.929 . S
C3607 C3601 1.390 . S
C3607 C3604 1.386 . S
C3608 C3603 1.490 . S
C3608 C3610 1.395 . S
C3608 C3611 1.403 . S
H3609 C3615 0.930 . S
C3610 H3596 0.930 . S
C3610 C3608 1.395 . S
C3610 C3613 1.403 . S
C3611 C3608 1.403 . S
C3611 C3612 1.524 . S
C3611 C3615 1.400 . S
C3612 H3597 0.960 . S
C3612 H3598 0.960 . S
C3612 H3599 0.960 . S
C3612 C3611 1.524 . S
C3613 C3610 1.403 . S
C3613 C3614 1.392 . S
C3613 C3617 1.495 . S
C3614 C3613 1.392 . S
C3614 C3615 1.385 . S
C3614 C3616 1.478 . S
C3615 H3609 0.930 . S
C3615 C3611 1.400 . S
C3615 C3614 1.385 . S
C3616 C3614 1.478 . S
C3616 C3618 1.381 . S
C3616 C3622 1.383 . S
C3617 C3613 1.495 . S
C3617 H3623 0.959 . S
C3617 H3624 0.961 . S
C3617 H3625 0.960 . S
C3618 C3616 1.381 . S
C3618 C3619 1.394 . S
C3618 H3626 0.930 . S
C3619 C3618 1.394 . S
C3619 C3620 1.383 . S
C3619 H3627 0.929 . S
C3620 C3619 1.383 . S
C3620 C3621 1.377 . S
C3621 H3605 0.930 . S
C3621 C3620 1.377 . S
C3621 C3622 1.379 . S
C3622 H3606 0.931 . S
C3622 C3616 1.383 . S
C3622 C3621 1.379 . S
H3623 C3617 0.959 . S
H3624 C3617 0.961 . S
H3625 C3617 0.960 . S
H3626 C3618 0.930 . S
H3627 C3619 0.929 . S
H3628 C3636 0.929 . S
H3629 C3638 0.930 . S
H3630 C3640 0.930 . S
H3631 C3643 0.929 . S
H3632 C3646 0.930 . S
H3633 C3648 0.960 . S
H3634 C3648 0.960 . S
H3635 C3648 0.960 . S
C3636 H3628 0.929 . S
C3636 C3637 1.377 . S
C3636 C3638 1.384 . S
C3637 C3636 1.377 . S
C3637 C3643 1.390 . S
C3638 H3629 0.930 . S
C3638 C3636 1.384 . S
C3638 C3639 1.372 . S
C3639 C3638 1.372 . S
C3639 C3640 1.400 . S
C3639 C3644 1.490 . S
C3640 H3630 0.930 . S
C3640 C3639 1.400 . S
C3640 C3643 1.386 . S
H3641 C3657 0.930 . S
H3642 C3658 0.931 . S
C3643 H3631 0.929 . S
C3643 C3637 1.390 . S
C3643 C3640 1.386 . S
C3644 C3639 1.490 . S
C3644 C3646 1.395 . S
C3644 C3647 1.403 . S
H3645 C3651 0.930 . S
C3646 H3632 0.930 . S
C3646 C3644 1.395 . S
C3646 C3649 1.403 . S
C3647 C3644 1.403 . S
C3647 C3648 1.524 . S
C3647 C3651 1.400 . S
C3648 H3633 0.960 . S
C3648 H3634 0.960 . S
C3648 H3635 0.960 . S
C3648 C3647 1.524 . S
C3649 C3646 1.403 . S
C3649 C3650 1.392 . S
C3649 C3653 1.495 . S
C3650 C3649 1.392 . S
C3650 C3651 1.385 . S
C3650 C3652 1.478 . S
C3651 H3645 0.930 . S
C3651 C3647 1.400 . S
C3651 C3650 1.385 . S
C3652 C3650 1.478 . S
C3652 C3654 1.381 . S
C3652 C3658 1.383 . S
C3653 C3649 1.495 . S
C3653 H3659 0.959 . S
C3653 H3660 0.961 . S
C3653 H3661 0.960 . S
C3654 C3652 1.381 . S
C3654 C3655 1.394 . S
C3654 H3662 0.930 . S
C3655 C3654 1.394 . S
C3655 C3656 1.383 . S
C3655 H3663 0.929 . S
C3656 C3655 1.383 . S
C3656 C3657 1.377 . S
C3657 H3641 0.930 . S
C3657 C3656 1.377 . S
C3657 C3658 1.379 . S
C3658 H3642 0.931 . S
C3658 C3652 1.383 . S
C3658 C3657 1.379 . S
H3659 C3653 0.959 . S
H3660 C3653 0.961 . S
H3661 C3653 0.960 . S
H3662 C3654 0.930 . S
H3663 C3655 0.929 . S
H3664 C3672 0.929 . S
H3665 C3674 0.930 . S
H3666 C3676 0.930 . S
H3667 C3679 0.929 . S
H3668 C3682 0.930 . S
H3669 C3684 0.960 . S
H3670 C3684 0.960 . S
H3671 C3684 0.960 . S
C3672 H3664 0.929 . S
C3672 C3673 1.377 . S
C3672 C3674 1.384 . S
C3673 C3672 1.377 . S
C3673 C3679 1.390 . S
C3674 H3665 0.930 . S
C3674 C3672 1.384 . S
C3674 C3675 1.372 . S
C3675 C3674 1.372 . S
C3675 C3676 1.400 . S
C3675 C3680 1.490 . S
C3676 H3666 0.930 . S
C3676 C3675 1.400 . S
C3676 C3679 1.386 . S
H3677 C3693 0.930 . S
H3678 C3694 0.931 . S
C3679 H3667 0.929 . S
C3679 C3673 1.390 . S
C3679 C3676 1.386 . S
C3680 C3675 1.490 . S
C3680 C3682 1.395 . S
C3680 C3683 1.403 . S
H3681 C3687 0.930 . S
C3682 H3668 0.930 . S
C3682 C3680 1.395 . S
C3682 C3685 1.403 . S
C3683 C3680 1.403 . S
C3683 C3684 1.524 . S
C3683 C3687 1.400 . S
C3684 H3669 0.960 . S
C3684 H3670 0.960 . S
C3684 H3671 0.960 . S
C3684 C3683 1.524 . S
C3685 C3682 1.403 . S
C3685 C3686 1.392 . S
C3685 C3689 1.495 . S
C3686 C3685 1.392 . S
C3686 C3687 1.385 . S
C3686 C3688 1.478 . S
C3687 H3681 0.930 . S
C3687 C3683 1.400 . S
C3687 C3686 1.385 . S
C3688 C3686 1.478 . S
C3688 C3690 1.381 . S
C3688 C3694 1.383 . S
C3689 C3685 1.495 . S
C3689 H3695 0.959 . S
C3689 H3696 0.961 . S
C3689 H3697 0.960 . S
C3690 C3688 1.381 . S
C3690 C3691 1.394 . S
C3690 H3698 0.930 . S
C3691 C3690 1.394 . S
C3691 C3692 1.383 . S
C3691 H3699 0.929 . S
C3692 C3691 1.383 . S
C3692 C3693 1.377 . S
C3693 H3677 0.930 . S
C3693 C3692 1.377 . S
C3693 C3694 1.379 . S
C3694 H3678 0.931 . S
C3694 C3688 1.383 . S
C3694 C3693 1.379 . S
H3695 C3689 0.959 . S
H3696 C3689 0.961 . S
H3697 C3689 0.960 . S
H3698 C3690 0.930 . S
H3699 C3691 0.929 . S
H3700 C3708 0.929 . S
H3701 C3710 0.930 . S
H3702 C3712 0.930 . S
H3703 C3715 0.929 . S
H3704 C3718 0.930 . S
H3705 C3720 0.960 . S
H3706 C3720 0.960 . S
H3707 C3720 0.960 . S
C3708 H3700 0.929 . S
C3708 C3709 1.377 . S
C3708 C3710 1.384 . S
C3709 C3708 1.377 . S
C3709 C3715 1.390 . S
C3710 H3701 0.930 . S
C3710 C3708 1.384 . S
C3710 C3711 1.372 . S
C3711 C3710 1.372 . S
C3711 C3712 1.400 . S
C3711 C3716 1.490 . S
C3712 H3702 0.930 . S
C3712 C3711 1.400 . S
C3712 C3715 1.386 . S
H3713 C3729 0.930 . S
H3714 C3730 0.931 . S
C3715 H3703 0.929 . S
C3715 C3709 1.390 . S
C3715 C3712 1.386 . S
C3716 C3711 1.490 . S
C3716 C3718 1.395 . S
C3716 C3719 1.403 . S
H3717 C3723 0.930 . S
C3718 H3704 0.930 . S
C3718 C3716 1.395 . S
C3718 C3721 1.403 . S
C3719 C3716 1.403 . S
C3719 C3720 1.524 . S
C3719 C3723 1.400 . S
C3720 H3705 0.960 . S
C3720 H3706 0.960 . S
C3720 H3707 0.960 . S
C3720 C3719 1.524 . S
C3721 C3718 1.403 . S
C3721 C3722 1.392 . S
C3721 C3725 1.495 . S
C3722 C3721 1.392 . S
C3722 C3723 1.385 . S
C3722 C3724 1.478 . S
C3723 H3717 0.930 . S
C3723 C3719 1.400 . S
C3723 C3722 1.385 . S
C3724 C3722 1.478 . S
C3724 C3726 1.381 . S
C3724 C3730 1.383 . S
C3725 C3721 1.495 . S
C3725 H3731 0.959 . S
C3725 H3732 0.961 . S
C3725 H3733 0.960 . S
C3726 C3724 1.381 . S
C3726 C3727 1.394 . S
C3726 H3734 0.930 . S
C3727 C3726 1.394 . S
C3727 C3728 1.383 . S
C3727 H3735 0.929 . S
C3728 C3727 1.383 . S
C3728 C3729 1.377 . S
C3729 H3713 0.930 . S
C3729 C3728 1.377 . S
C3729 C3730 1.379 . S
C3730 H3714 0.931 . S
C3730 C3724 1.383 . S
C3730 C3729 1.379 . S
H3731 C3725 0.959 . S
H3732 C3725 0.961 . S
H3733 C3725 0.960 . S
H3734 C3726 0.930 . S
H3735 C3727 0.929 . S
H3736 C3744 0.929 . S
H3737 C3746 0.930 . S
H3738 C3748 0.930 . S
H3739 C3751 0.929 . S
H3740 C3754 0.930 . S
H3741 C3756 0.960 . S
H3742 C3756 0.960 . S
H3743 C3756 0.960 . S
C3744 H3736 0.929 . S
C3744 C3745 1.377 . S
C3744 C3746 1.384 . S
C3745 C3744 1.377 . S
C3745 C3751 1.390 . S
C3746 H3737 0.930 . S
C3746 C3744 1.384 . S
C3746 C3747 1.372 . S
C3747 C3746 1.372 . S
C3747 C3748 1.400 . S
C3747 C3752 1.490 . S
C3748 H3738 0.930 . S
C3748 C3747 1.400 . S
C3748 C3751 1.386 . S
H3749 C3765 0.930 . S
H3750 C3766 0.931 . S
C3751 H3739 0.929 . S
C3751 C3745 1.390 . S
C3751 C3748 1.386 . S
C3752 C3747 1.490 . S
C3752 C3754 1.395 . S
C3752 C3755 1.403 . S
H3753 C3759 0.930 . S
C3754 H3740 0.930 . S
C3754 C3752 1.395 . S
C3754 C3757 1.403 . S
C3755 C3752 1.403 . S
C3755 C3756 1.524 . S
C3755 C3759 1.400 . S
C3756 H3741 0.960 . S
C3756 H3742 0.960 . S
C3756 H3743 0.960 . S
C3756 C3755 1.524 . S
C3757 C3754 1.403 . S
C3757 C3758 1.392 . S
C3757 C3761 1.495 . S
C3758 C3757 1.392 . S
C3758 C3759 1.385 . S
C3758 C3760 1.478 . S
C3759 H3753 0.930 . S
C3759 C3755 1.400 . S
C3759 C3758 1.385 . S
C3760 C3758 1.478 . S
C3760 C3762 1.381 . S
C3760 C3766 1.383 . S
C3761 C3757 1.495 . S
C3761 H3767 0.959 . S
C3761 H3768 0.961 . S
C3761 H3769 0.960 . S
C3762 C3760 1.381 . S
C3762 C3763 1.394 . S
C3762 H3770 0.930 . S
C3763 C3762 1.394 . S
C3763 C3764 1.383 . S
C3763 H3771 0.929 . S
C3764 C3763 1.383 . S
C3764 C3765 1.377 . S
C3765 H3749 0.930 . S
C3765 C3764 1.377 . S
C3765 C3766 1.379 . S
C3766 H3750 0.931 . S
C3766 C3760 1.383 . S
C3766 C3765 1.379 . S
H3767 C3761 0.959 . S
H3768 C3761 0.961 . S
H3769 C3761 0.960 . S
H3770 C3762 0.930 . S
H3771 C3763 0.929 . S
H3772 C3780 0.929 . S
H3773 C3782 0.930 . S
H3774 C3784 0.930 . S
H3775 C3787 0.929 . S
H3776 C3790 0.930 . S
H3777 C3792 0.960 . S
H3778 C3792 0.960 . S
H3779 C3792 0.960 . S
C3780 H3772 0.929 . S
C3780 C3781 1.377 . S
C3780 C3782 1.384 . S
C3781 C3780 1.377 . S
C3781 C3787 1.390 . S
C3782 H3773 0.930 . S
C3782 C3780 1.384 . S
C3782 C3783 1.372 . S
C3783 C3782 1.372 . S
C3783 C3784 1.400 . S
C3783 C3788 1.490 . S
C3784 H3774 0.930 . S
C3784 C3783 1.400 . S
C3784 C3787 1.386 . S
H3785 C3801 0.930 . S
H3786 C3802 0.931 . S
C3787 H3775 0.929 . S
C3787 C3781 1.390 . S
C3787 C3784 1.386 . S
C3788 C3783 1.490 . S
C3788 C3790 1.395 . S
C3788 C3791 1.403 . S
H3789 C3795 0.930 . S
C3790 H3776 0.930 . S
C3790 C3788 1.395 . S
C3790 C3793 1.403 . S
C3791 C3788 1.403 . S
C3791 C3792 1.524 . S
C3791 C3795 1.400 . S
C3792 H3777 0.960 . S
C3792 H3778 0.960 . S
C3792 H3779 0.960 . S
C3792 C3791 1.524 . S
C3793 C3790 1.403 . S
C3793 C3794 1.392 . S
C3793 C3797 1.495 . S
C3794 C3793 1.392 . S
C3794 C3795 1.385 . S
C3794 C3796 1.478 . S
C3795 H3789 0.930 . S
C3795 C3791 1.400 . S
C3795 C3794 1.385 . S
C3796 C3794 1.478 . S
C3796 C3798 1.381 . S
C3796 C3802 1.383 . S
C3797 C3793 1.495 . S
C3797 H3803 0.959 . S
C3797 H3804 0.961 . S
C3797 H3805 0.960 . S
C3798 C3796 1.381 . S
C3798 C3799 1.394 . S
C3798 H3806 0.930 . S
C3799 C3798 1.394 . S
C3799 C3800 1.383 . S
C3799 H3807 0.929 . S
C3800 C3799 1.383 . S
C3800 C3801 1.377 . S
C3801 H3785 0.930 . S
C3801 C3800 1.377 . S
C3801 C3802 1.379 . S
C3802 H3786 0.931 . S
C3802 C3796 1.383 . S
C3802 C3801 1.379 . S
H3803 C3797 0.959 . S
H3804 C3797 0.961 . S
H3805 C3797 0.960 . S
H3806 C3798 0.930 . S
H3807 C3799 0.929 . S
H3808 C3816 0.929 . S
H3809 C3818 0.930 . S
H3810 C3820 0.930 . S
H3811 C3823 0.929 . S
H3812 C3826 0.930 . S
H3813 C3828 0.960 . S
H3814 C3828 0.960 . S
H3815 C3828 0.960 . S
C3816 H3808 0.929 . S
C3816 C3817 1.377 . S
C3816 C3818 1.384 . S
C3817 C3816 1.377 . S
C3817 C3823 1.390 . S
C3818 H3809 0.930 . S
C3818 C3816 1.384 . S
C3818 C3819 1.372 . S
C3819 C3818 1.372 . S
C3819 C3820 1.400 . S
C3819 C3824 1.490 . S
C3820 H3810 0.930 . S
C3820 C3819 1.400 . S
C3820 C3823 1.386 . S
H3821 C3837 0.930 . S
H3822 C3838 0.931 . S
C3823 H3811 0.929 . S
C3823 C3817 1.390 . S
C3823 C3820 1.386 . S
C3824 C3819 1.490 . S
C3824 C3826 1.395 . S
C3824 C3827 1.403 . S
H3825 C3831 0.930 . S
C3826 H3812 0.930 . S
C3826 C3824 1.395 . S
C3826 C3829 1.403 . S
C3827 C3824 1.403 . S
C3827 C3828 1.524 . S
C3827 C3831 1.400 . S
C3828 H3813 0.960 . S
C3828 H3814 0.960 . S
C3828 H3815 0.960 . S
C3828 C3827 1.524 . S
C3829 C3826 1.403 . S
C3829 C3830 1.392 . S
C3829 C3833 1.495 . S
C3830 C3829 1.392 . S
C3830 C3831 1.385 . S
C3830 C3832 1.478 . S
C3831 H3825 0.930 . S
C3831 C3827 1.400 . S
C3831 C3830 1.385 . S
C3832 C3830 1.478 . S
C3832 C3834 1.381 . S
C3832 C3838 1.383 . S
C3833 C3829 1.495 . S
C3833 H3839 0.959 . S
C3833 H3840 0.961 . S
C3833 H3841 0.960 . S
C3834 C3832 1.381 . S
C3834 C3835 1.394 . S
C3834 H3842 0.930 . S
C3835 C3834 1.394 . S
C3835 C3836 1.383 . S
C3835 H3843 0.929 . S
C3836 C3835 1.383 . S
C3836 C3837 1.377 . S
C3837 H3821 0.930 . S
C3837 C3836 1.377 . S
C3837 C3838 1.379 . S
C3838 H3822 0.931 . S
C3838 C3832 1.383 . S
C3838 C3837 1.379 . S
H3839 C3833 0.959 . S
H3840 C3833 0.961 . S
H3841 C3833 0.960 . S
H3842 C3834 0.930 . S
H3843 C3835 0.929 . S
H3844 C3852 0.929 . S
H3845 C3854 0.930 . S
H3846 C3856 0.930 . S
H3847 C3859 0.929 . S
H3848 C3862 0.930 . S
H3849 C3864 0.960 . S
H3850 C3864 0.960 . S
H3851 C3864 0.960 . S
C3852 H3844 0.929 . S
C3852 C3853 1.377 . S
C3852 C3854 1.384 . S
C3853 C3852 1.377 . S
C3853 C3859 1.390 . S
C3854 H3845 0.930 . S
C3854 C3852 1.384 . S
C3854 C3855 1.372 . S
C3855 C3854 1.372 . S
C3855 C3856 1.400 . S
C3855 C3860 1.490 . S
C3856 H3846 0.930 . S
C3856 C3855 1.400 . S
C3856 C3859 1.386 . S
H3857 C3873 0.930 . S
H3858 C3874 0.931 . S
C3859 H3847 0.929 . S
C3859 C3853 1.390 . S
C3859 C3856 1.386 . S
C3860 C3855 1.490 . S
C3860 C3862 1.395 . S
C3860 C3863 1.403 . S
H3861 C3867 0.930 . S
C3862 H3848 0.930 . S
C3862 C3860 1.395 . S
C3862 C3865 1.403 . S
C3863 C3860 1.403 . S
C3863 C3864 1.524 . S
C3863 C3867 1.400 . S
C3864 H3849 0.960 . S
C3864 H3850 0.960 . S
C3864 H3851 0.960 . S
C3864 C3863 1.524 . S
C3865 C3862 1.403 . S
C3865 C3866 1.392 . S
C3865 C3869 1.495 . S
C3866 C3865 1.392 . S
C3866 C3867 1.385 . S
C3866 C3868 1.478 . S
C3867 H3861 0.930 . S
C3867 C3863 1.400 . S
C3867 C3866 1.385 . S
C3868 C3866 1.478 . S
C3868 C3870 1.381 . S
C3868 C3874 1.383 . S
C3869 C3865 1.495 . S
C3869 H3875 0.959 . S
C3869 H3876 0.961 . S
C3869 H3877 0.960 . S
C3870 C3868 1.381 . S
C3870 C3871 1.394 . S
C3870 H3878 0.930 . S
C3871 C3870 1.394 . S
C3871 C3872 1.383 . S
C3871 H3879 0.929 . S
C3872 C3871 1.383 . S
C3872 C3873 1.377 . S
C3873 H3857 0.930 . S
C3873 C3872 1.377 . S
C3873 C3874 1.379 . S
C3874 H3858 0.931 . S
C3874 C3868 1.383 . S
C3874 C3873 1.379 . S
H3875 C3869 0.959 . S
H3876 C3869 0.961 . S
H3877 C3869 0.960 . S
H3878 C3870 0.930 . S
H3879 C3871 0.929 . S
H3880 C3888 0.929 . S
H3881 C3890 0.930 . S
H3882 C3892 0.930 . S
H3883 C3895 0.929 . S
H3884 C3898 0.930 . S
H3885 C3900 0.960 . S
H3886 C3900 0.960 . S
H3887 C3900 0.960 . S
C3888 H3880 0.929 . S
C3888 C3889 1.377 . S
C3888 C3890 1.384 . S
C3889 C3888 1.377 . S
C3889 C3895 1.390 . S
C3890 H3881 0.930 . S
C3890 C3888 1.384 . S
C3890 C3891 1.372 . S
C3891 C3890 1.372 . S
C3891 C3892 1.400 . S
C3891 C3896 1.490 . S
C3892 H3882 0.930 . S
C3892 C3891 1.400 . S
C3892 C3895 1.386 . S
H3893 C3909 0.930 . S
H3894 C3910 0.931 . S
C3895 H3883 0.929 . S
C3895 C3889 1.390 . S
C3895 C3892 1.386 . S
C3896 C3891 1.490 . S
C3896 C3898 1.395 . S
C3896 C3899 1.403 . S
H3897 C3903 0.930 . S
C3898 H3884 0.930 . S
C3898 C3896 1.395 . S
C3898 C3901 1.403 . S
C3899 C3896 1.403 . S
C3899 C3900 1.524 . S
C3899 C3903 1.400 . S
C3900 H3885 0.960 . S
C3900 H3886 0.960 . S
C3900 H3887 0.960 . S
C3900 C3899 1.524 . S
C3901 C3898 1.403 . S
C3901 C3902 1.392 . S
C3901 C3905 1.495 . S
C3902 C3901 1.392 . S
C3902 C3903 1.385 . S
C3902 C3904 1.478 . S
C3903 H3897 0.930 . S
C3903 C3899 1.400 . S
C3903 C3902 1.385 . S
C3904 C3902 1.478 . S
C3904 C3906 1.381 . S
C3904 C3910 1.383 . S
C3905 C3901 1.495 . S
C3905 H3911 0.959 . S
C3905 H3912 0.961 . S
C3905 H3913 0.960 . S
C3906 C3904 1.381 . S
C3906 C3907 1.394 . S
C3906 H3914 0.930 . S
C3907 C3906 1.394 . S
C3907 C3908 1.383 . S
C3907 H3915 0.929 . S
C3908 C3907 1.383 . S
C3908 C3909 1.377 . S
C3909 H3893 0.930 . S
C3909 C3908 1.377 . S
C3909 C3910 1.379 . S
C3910 H3894 0.931 . S
C3910 C3904 1.383 . S
C3910 C3909 1.379 . S
H3911 C3905 0.959 . S
H3912 C3905 0.961 . S
H3913 C3905 0.960 . S
H3914 C3906 0.930 . S
H3915 C3907 0.929 . S
H3916 C3924 0.929 . S
H3917 C3926 0.930 . S
H3918 C3928 0.930 . S
H3919 C3931 0.929 . S
H3920 C3934 0.930 . S
H3921 C3936 0.960 . S
H3922 C3936 0.960 1_556 S
H3923 C3936 0.960 . S
C3924 H3916 0.929 . S
C3924 C3925 1.377 1_556 S
C3924 C3926 1.384 . S
C3925 C3924 1.377 1_554 S
C3925 C3931 1.390 . S
C3926 H3917 0.930 . S
C3926 C3924 1.384 . S
C3926 C3927 1.372 1_556 S
C3927 C3926 1.372 1_554 S
C3927 C3928 1.400 . S
C3927 C3932 1.490 . S
C3928 H3918 0.930 . S
C3928 C3927 1.400 . S
C3928 C3931 1.386 . S
H3929 C3945 0.930 . S
H3930 C3946 0.931 . S
C3931 H3919 0.929 . S
C3931 C3925 1.390 . S
C3931 C3928 1.386 . S
C3932 C3927 1.490 . S
C3932 C3934 1.395 . S
C3932 C3935 1.403 . S
H3933 C3939 0.930 . S
C3934 H3920 0.930 . S
C3934 C3932 1.395 . S
C3934 C3937 1.403 . S
C3935 C3932 1.403 . S
C3935 C3936 1.524 . S
C3935 C3939 1.400 . S
C3936 H3921 0.960 . S
C3936 H3922 0.960 1_554 S
C3936 H3923 0.960 . S
C3936 C3935 1.524 . S
C3937 C3934 1.403 . S
C3937 C3938 1.392 . S
C3937 C3941 1.495 . S
C3938 C3937 1.392 . S
C3938 C3939 1.385 . S
C3938 C3940 1.478 . S
C3939 H3933 0.930 . S
C3939 C3935 1.400 . S
C3939 C3938 1.385 . S
C3940 C3938 1.478 . S
C3940 C3942 1.361 1_554 S
C3940 C3946 1.383 . S
C3941 C3937 1.495 . S
C3941 H3947 0.959 . S
C3941 H3948 0.961 . S
C3941 H3949 0.960 . S
C3942 C3940 1.361 1_556 S
C3942 C3943 1.408 1_556 S
C3942 H3950 0.947 . S
C3943 C3942 1.408 1_554 S
C3943 C3944 1.425 . S
C3943 H3951 0.880 1_554 S
C3944 C3943 1.425 . S
C3944 C3945 1.377 . S
C3945 H3929 0.930 . S
C3945 C3944 1.377 . S
C3945 C3946 1.379 . S
C3946 H3930 0.931 . S
C3946 C3940 1.383 . S
C3946 C3945 1.379 . S
H3947 C3941 0.959 . S
H3948 C3941 0.961 . S
H3949 C3941 0.960 . S
H3950 C3942 0.947 . S
H3951 C3943 0.880 1_556 S
H3952 C3960 0.929 . S
H3953 C3962 0.930 . S
H3954 C3964 0.930 . S
H3955 C3967 0.929 . S
H3956 C3970 0.930 . S
H3957 C3972 0.960 . S
H3958 C3972 0.960 . S
H3959 C3972 0.960 . S
C3960 H3952 0.929 . S
C3960 C3961 1.377 . S
C3960 C3962 1.384 . S
C3961 C3960 1.377 . S
C3961 C3967 1.390 . S
C3962 H3953 0.930 . S
C3962 C3960 1.384 . S
C3962 C3963 1.372 . S
C3963 C3962 1.372 . S
C3963 C3964 1.400 . S
C3963 C3968 1.490 . S
C3964 H3954 0.930 . S
C3964 C3963 1.400 . S
C3964 C3967 1.386 . S
H3965 C3981 0.930 . S
H3966 C3982 0.931 . S
C3967 H3955 0.929 . S
C3967 C3961 1.390 . S
C3967 C3964 1.386 . S
C3968 C3963 1.490 . S
C3968 C3970 1.395 . S
C3968 C3971 1.403 . S
H3969 C3975 0.930 . S
C3970 H3956 0.930 . S
C3970 C3968 1.395 . S
C3970 C3973 1.403 . S
C3971 C3968 1.403 . S
C3971 C3972 1.524 . S
C3971 C3975 1.400 . S
C3972 H3957 0.960 . S
C3972 H3958 0.960 . S
C3972 H3959 0.960 . S
C3972 C3971 1.524 . S
C3973 C3970 1.403 . S
C3973 C3974 1.392 . S
C3973 C3977 1.495 . S
C3974 C3973 1.392 . S
C3974 C3975 1.385 . S
C3974 C3976 1.478 . S
C3975 H3969 0.930 . S
C3975 C3971 1.400 . S
C3975 C3974 1.385 . S
C3976 C3974 1.478 . S
C3976 C3978 1.381 . S
C3976 C3982 1.383 . S
C3977 C3973 1.495 . S
C3977 H3983 0.959 . S
C3977 H3984 0.961 . S
C3977 H3985 0.960 . S
C3978 C3976 1.381 . S
C3978 C3979 1.394 . S
C3978 H3986 0.930 . S
C3979 C3978 1.394 . S
C3979 C3980 1.383 . S
C3979 H3987 0.929 . S
C3980 C3979 1.383 . S
C3980 C3981 1.377 . S
C3981 H3965 0.930 . S
C3981 C3980 1.377 . S
C3981 C3982 1.379 . S
C3982 H3966 0.931 . S
C3982 C3976 1.383 . S
C3982 C3981 1.379 . S
H3983 C3977 0.959 . S
H3984 C3977 0.961 . S
H3985 C3977 0.960 . S
H3986 C3978 0.930 . S
H3987 C3979 0.929 . S
H3988 C3996 0.929 1_556 S
H3989 C3998 0.930 . S
H3990 C4000 0.930 . S
H3991 C4003 0.929 . S
H3992 C4006 0.930 . S
H3993 C4008 0.960 . S
H3994 C4008 0.960 . S
H3995 C4008 0.960 . S
C3996 H3988 0.929 1_554 S
C3996 C3997 1.377 . S
C3996 C3998 1.384 . S
C3997 C3996 1.377 . S
C3997 C4003 1.390 . S
C3998 H3989 0.930 . S
C3998 C3996 1.384 . S
C3998 C3999 1.372 . S
C3999 C3998 1.372 . S
C3999 C4000 1.400 . S
C3999 C4004 1.490 . S
C4000 H3990 0.930 . S
C4000 C3999 1.400 . S
C4000 C4003 1.386 . S
H4001 C4017 0.930 . S
H4002 C4018 0.931 . S
C4003 H3991 0.929 . S
C4003 C3997 1.390 . S
C4003 C4000 1.386 . S
C4004 C3999 1.490 . S
C4004 C4006 1.395 . S
C4004 C4007 1.403 . S
H4005 C4011 0.930 . S
C4006 H3992 0.930 . S
C4006 C4004 1.395 . S
C4006 C4009 1.403 . S
C4007 C4004 1.403 . S
C4007 C4008 1.524 . S
C4007 C4011 1.400 . S
C4008 H3993 0.960 . S
C4008 H3994 0.960 . S
C4008 H3995 0.960 . S
C4008 C4007 1.524 . S
C4009 C4006 1.403 . S
C4009 C4010 1.392 . S
C4009 C4013 1.495 . S
C4010 C4009 1.392 . S
C4010 C4011 1.385 . S
C4010 C4012 1.478 . S
C4011 H4005 0.930 . S
C4011 C4007 1.400 . S
C4011 C4010 1.385 . S
C4012 C4010 1.478 . S
C4012 C4014 1.381 . S
C4012 C4018 1.383 . S
C4013 C4009 1.495 . S
C4013 H4019 0.959 . S
C4013 H4020 0.961 . S
C4013 H4021 0.960 . S
C4014 C4012 1.381 . S
C4014 C4015 1.394 . S
C4014 H4022 0.930 . S
C4015 C4014 1.394 . S
C4015 C4016 1.383 . S
C4015 H4023 0.929 . S
C4016 C4015 1.383 . S
C4016 C4017 1.377 . S
C4017 H4001 0.930 . S
C4017 C4016 1.377 . S
C4017 C4018 1.379 . S
C4018 H4002 0.931 . S
C4018 C4012 1.383 . S
C4018 C4017 1.379 . S
H4019 C4013 0.959 . S
H4020 C4013 0.961 . S
H4021 C4013 0.960 . S
H4022 C4014 0.930 . S
H4023 C4015 0.929 . S
H4024 C4032 0.929 . S
H4025 C4034 0.930 . S
H4026 C4036 0.930 . S
H4027 C4039 0.929 . S
H4028 C4042 0.930 . S
H4029 C4044 0.960 . S
H4030 C4044 0.960 . S
H4031 C4044 0.960 . S
C4032 H4024 0.929 . S
C4032 C4033 1.377 . S
C4032 C4034 1.384 . S
C4033 C4032 1.377 . S
C4033 C4039 1.390 . S
C4034 H4025 0.930 . S
C4034 C4032 1.384 . S
C4034 C4035 1.372 . S
C4035 C4034 1.372 . S
C4035 C4036 1.400 . S
C4035 C4040 1.490 . S
C4036 H4026 0.930 . S
C4036 C4035 1.400 . S
C4036 C4039 1.386 . S
H4037 C4053 0.930 . S
H4038 C4054 0.931 . S
C4039 H4027 0.929 . S
C4039 C4033 1.390 . S
C4039 C4036 1.386 . S
C4040 C4035 1.490 . S
C4040 C4042 1.395 . S
C4040 C4043 1.403 . S
H4041 C4047 0.930 . S
C4042 H4028 0.930 . S
C4042 C4040 1.395 . S
C4042 C4045 1.403 . S
C4043 C4040 1.403 . S
C4043 C4044 1.524 . S
C4043 C4047 1.400 . S
C4044 H4029 0.960 . S
C4044 H4030 0.960 . S
C4044 H4031 0.960 . S
C4044 C4043 1.524 . S
C4045 C4042 1.403 . S
C4045 C4046 1.392 . S
C4045 C4049 1.495 . S
C4046 C4045 1.392 . S
C4046 C4047 1.385 . S
C4046 C4048 1.478 . S
C4047 H4041 0.930 . S
C4047 C4043 1.400 . S
C4047 C4046 1.385 . S
C4048 C4046 1.478 . S
C4048 C4050 1.381 . S
C4048 C4054 1.383 . S
C4049 C4045 1.495 . S
C4049 H4055 0.959 . S
C4049 H4056 0.961 . S
C4049 H4057 0.960 . S
C4050 C4048 1.381 . S
C4050 C4051 1.394 . S
C4050 H4058 0.930 . S
C4051 C4050 1.394 . S
C4051 C4052 1.383 . S
C4051 H4059 0.929 . S
C4052 C4051 1.383 . S
C4052 C4053 1.377 . S
C4053 H4037 0.930 . S
C4053 C4052 1.377 . S
C4053 C4054 1.379 . S
C4054 H4038 0.931 . S
C4054 C4048 1.383 . S
C4054 C4053 1.379 . S
H4055 C4049 0.959 . S
H4056 C4049 0.961 . S
H4057 C4049 0.960 . S
H4058 C4050 0.930 . S
H4059 C4051 0.929 . S
H4060 C4068 0.929 . S
H4061 C4070 0.930 . S
H4062 C4072 0.930 . S
H4063 C4075 0.929 . S
H4064 C4078 0.930 . S
H4065 C4080 0.960 . S
H4066 C4080 0.960 . S
H4067 C4080 0.960 . S
C4068 H4060 0.929 . S
C4068 C4069 1.377 . S
C4068 C4070 1.384 . S
C4069 C4068 1.377 . S
C4069 C4075 1.390 . S
C4070 H4061 0.930 . S
C4070 C4068 1.384 . S
C4070 C4071 1.372 . S
C4071 C4070 1.372 . S
C4071 C4072 1.400 . S
C4071 C4076 1.490 . S
C4072 H4062 0.930 . S
C4072 C4071 1.400 . S
C4072 C4075 1.386 . S
H4073 C4089 0.930 . S
H4074 C4090 0.931 . S
C4075 H4063 0.929 . S
C4075 C4069 1.390 . S
C4075 C4072 1.386 . S
C4076 C4071 1.490 . S
C4076 C4078 1.395 . S
C4076 C4079 1.403 . S
H4077 C4083 0.930 . S
C4078 H4064 0.930 . S
C4078 C4076 1.395 . S
C4078 C4081 1.403 . S
C4079 C4076 1.403 . S
C4079 C4080 1.524 . S
C4079 C4083 1.400 . S
C4080 H4065 0.960 . S
C4080 H4066 0.960 . S
C4080 H4067 0.960 . S
C4080 C4079 1.524 . S
C4081 C4078 1.403 . S
C4081 C4082 1.392 . S
C4081 C4085 1.495 . S
C4082 C4081 1.392 . S
C4082 C4083 1.385 . S
C4082 C4084 1.478 . S
C4083 H4077 0.930 . S
C4083 C4079 1.400 . S
C4083 C4082 1.385 . S
C4084 C4082 1.478 . S
C4084 C4086 1.381 . S
C4084 C4090 1.383 . S
C4085 C4081 1.495 . S
C4085 H4091 0.959 . S
C4085 H4092 0.961 . S
C4085 H4093 0.960 . S
C4086 C4084 1.381 . S
C4086 C4087 1.394 . S
C4086 H4094 0.930 . S
C4087 C4086 1.394 . S
C4087 C4088 1.383 . S
C4087 H4095 0.929 . S
C4088 C4087 1.383 . S
C4088 C4089 1.377 . S
C4089 H4073 0.930 . S
C4089 C4088 1.377 . S
C4089 C4090 1.379 . S
C4090 H4074 0.931 . S
C4090 C4084 1.383 . S
C4090 C4089 1.379 . S
H4091 C4085 0.959 . S
H4092 C4085 0.961 . S
H4093 C4085 0.960 . S
H4094 C4086 0.930 . S
H4095 C4087 0.929 . S
H4096 C4104 0.929 . S
H4097 C4106 0.930 . S
H4098 C4108 0.930 . S
H4099 C4111 0.929 . S
H4100 C4114 0.930 . S
H4101 C4116 0.960 . S
H4102 C4116 0.960 . S
H4103 C4116 0.960 . S
C4104 H4096 0.929 . S
C4104 C4105 1.377 . S
C4104 C4106 1.384 . S
C4105 C4104 1.377 . S
C4105 C4111 1.390 . S
C4106 H4097 0.930 . S
C4106 C4104 1.384 . S
C4106 C4107 1.372 . S
C4107 C4106 1.372 . S
C4107 C4108 1.400 . S
C4107 C4112 1.490 . S
C4108 H4098 0.930 . S
C4108 C4107 1.400 . S
C4108 C4111 1.386 . S
H4109 C4125 0.930 . S
H4110 C4126 0.931 . S
C4111 H4099 0.929 . S
C4111 C4105 1.390 . S
C4111 C4108 1.386 . S
C4112 C4107 1.490 . S
C4112 C4114 1.395 . S
C4112 C4115 1.403 . S
H4113 C4119 0.930 . S
C4114 H4100 0.930 . S
C4114 C4112 1.395 . S
C4114 C4117 1.403 . S
C4115 C4112 1.403 . S
C4115 C4116 1.524 . S
C4115 C4119 1.400 . S
C4116 H4101 0.960 . S
C4116 H4102 0.960 . S
C4116 H4103 0.960 . S
C4116 C4115 1.524 . S
C4117 C4114 1.403 . S
C4117 C4118 1.392 . S
C4117 C4121 1.495 . S
C4118 C4117 1.392 . S
C4118 C4119 1.385 . S
C4118 C4120 1.478 . S
C4119 H4113 0.930 . S
C4119 C4115 1.400 . S
C4119 C4118 1.385 . S
C4120 C4118 1.478 . S
C4120 C4122 1.381 . S
C4120 C4126 1.383 . S
C4121 C4117 1.495 . S
C4121 H4127 0.959 . S
C4121 H4128 0.961 . S
C4121 H4129 0.960 . S
C4122 C4120 1.381 . S
C4122 C4123 1.394 . S
C4122 H4130 0.930 . S
C4123 C4122 1.394 . S
C4123 C4124 1.383 . S
C4123 H4131 0.929 . S
C4124 C4123 1.383 . S
C4124 C4125 1.377 . S
C4125 H4109 0.930 . S
C4125 C4124 1.377 . S
C4125 C4126 1.379 . S
C4126 H4110 0.931 . S
C4126 C4120 1.383 . S
C4126 C4125 1.379 . S
H4127 C4121 0.959 . S
H4128 C4121 0.961 . S
H4129 C4121 0.960 . S
H4130 C4122 0.930 . S
H4131 C4123 0.929 . S
H4132 C4140 0.929 . S
H4133 C4142 0.930 . S
H4134 C4144 0.930 . S
H4135 C4147 0.929 . S
H4136 C4150 0.930 . S
H4137 C4152 0.960 . S
H4138 C4152 0.960 . S
H4139 C4152 0.960 . S
C4140 H4132 0.929 . S
C4140 C4141 1.377 . S
C4140 C4142 1.384 . S
C4141 C4140 1.377 . S
C4141 C4147 1.390 . S
C4142 H4133 0.930 . S
C4142 C4140 1.384 . S
C4142 C4143 1.372 . S
C4143 C4142 1.372 . S
C4143 C4144 1.400 . S
C4143 C4148 1.490 . S
C4144 H4134 0.930 . S
C4144 C4143 1.400 . S
C4144 C4147 1.386 . S
H4145 C4161 0.930 . S
H4146 C4162 0.931 . S
C4147 H4135 0.929 . S
C4147 C4141 1.390 . S
C4147 C4144 1.386 . S
C4148 C4143 1.490 . S
C4148 C4150 1.395 . S
C4148 C4151 1.403 . S
H4149 C4155 0.930 . S
C4150 H4136 0.930 . S
C4150 C4148 1.395 . S
C4150 C4153 1.403 . S
C4151 C4148 1.403 . S
C4151 C4152 1.524 . S
C4151 C4155 1.400 . S
C4152 H4137 0.960 . S
C4152 H4138 0.960 . S
C4152 H4139 0.960 . S
C4152 C4151 1.524 . S
C4153 C4150 1.403 . S
C4153 C4154 1.392 . S
C4153 C4157 1.495 . S
C4154 C4153 1.392 . S
C4154 C4155 1.385 . S
C4154 C4156 1.478 . S
C4155 H4149 0.930 . S
C4155 C4151 1.400 . S
C4155 C4154 1.385 . S
C4156 C4154 1.478 . S
C4156 C4158 1.381 . S
C4156 C4162 1.383 . S
C4157 C4153 1.495 . S
C4157 H4163 0.959 . S
C4157 H4164 0.961 . S
C4157 H4165 0.960 . S
C4158 C4156 1.381 . S
C4158 C4159 1.394 . S
C4158 H4166 0.930 . S
C4159 C4158 1.394 . S
C4159 C4160 1.383 . S
C4159 H4167 0.929 . S
C4160 C4159 1.383 . S
C4160 C4161 1.377 . S
C4161 H4145 0.930 . S
C4161 C4160 1.377 . S
C4161 C4162 1.379 . S
C4162 H4146 0.931 . S
C4162 C4156 1.383 . S
C4162 C4161 1.379 . S
H4163 C4157 0.959 . S
H4164 C4157 0.961 . S
H4165 C4157 0.960 . S
H4166 C4158 0.930 . S
H4167 C4159 0.929 . S
H4168 C4176 0.929 . S
H4169 C4178 0.930 . S
H4170 C4180 0.930 . S
H4171 C4183 0.929 . S
H4172 C4186 0.930 . S
H4173 C4188 0.960 . S
H4174 C4188 0.960 . S
H4175 C4188 0.960 . S
C4176 H4168 0.929 . S
C4176 C4177 1.377 . S
C4176 C4178 1.384 . S
C4177 C4176 1.377 . S
C4177 C4183 1.390 . S
C4178 H4169 0.930 . S
C4178 C4176 1.384 . S
C4178 C4179 1.372 . S
C4179 C4178 1.372 . S
C4179 C4180 1.400 . S
C4179 C4184 1.490 . S
C4180 H4170 0.930 . S
C4180 C4179 1.400 . S
C4180 C4183 1.386 . S
H4181 C4197 0.930 . S
H4182 C4198 0.931 . S
C4183 H4171 0.929 . S
C4183 C4177 1.390 . S
C4183 C4180 1.386 . S
C4184 C4179 1.490 . S
C4184 C4186 1.395 . S
C4184 C4187 1.403 . S
H4185 C4191 0.930 . S
C4186 H4172 0.930 . S
C4186 C4184 1.395 . S
C4186 C4189 1.403 . S
C4187 C4184 1.403 . S
C4187 C4188 1.524 . S
C4187 C4191 1.400 . S
C4188 H4173 0.960 . S
C4188 H4174 0.960 . S
C4188 H4175 0.960 . S
C4188 C4187 1.524 . S
C4189 C4186 1.403 . S
C4189 C4190 1.392 . S
C4189 C4193 1.495 1_455 S
C4190 C4189 1.392 . S
C4190 C4191 1.385 . S
C4190 C4192 1.478 . S
C4191 H4185 0.930 . S
C4191 C4187 1.400 . S
C4191 C4190 1.385 . S
C4192 C4190 1.478 . S
C4192 C4194 1.381 . S
C4192 C4198 1.383 . S
C4193 C4189 1.495 1_655 S
C4193 H4199 0.959 . S
C4193 H4200 0.961 . S
C4193 H4201 0.960 . S
C4194 C4192 1.381 . S
C4194 C4195 1.394 . S
C4194 H4202 0.930 . S
C4195 C4194 1.394 . S
C4195 C4196 1.383 . S
C4195 H4203 0.929 . S
C4196 C4195 1.383 . S
C4196 C4197 1.377 . S
C4197 H4181 0.930 . S
C4197 C4196 1.377 . S
C4197 C4198 1.379 . S
C4198 H4182 0.931 . S
C4198 C4192 1.383 . S
C4198 C4197 1.379 . S
H4199 C4193 0.959 . S
H4200 C4193 0.961 . S
H4201 C4193 0.960 . S
H4202 C4194 0.930 . S
H4203 C4195 0.929 . S
H4204 C4212 0.929 . S
H4205 C4214 0.930 . S
H4206 C4216 0.930 . S
H4207 C4219 0.929 . S
H4208 C4222 0.930 . S
H4209 C4224 0.960 . S
H4210 C4224 0.960 . S
H4211 C4224 0.960 . S
C4212 H4204 0.929 . S
C4212 C4213 1.377 . S
C4212 C4214 1.384 . S
C4213 C4212 1.377 . S
C4213 C4219 1.390 . S
C4214 H4205 0.930 . S
C4214 C4212 1.384 . S
C4214 C4215 1.372 . S
C4215 C4214 1.372 . S
C4215 C4216 1.400 . S
C4215 C4220 1.490 . S
C4216 H4206 0.930 . S
C4216 C4215 1.400 . S
C4216 C4219 1.386 . S
H4217 C4233 0.930 . S
H4218 C4234 0.931 . S
C4219 H4207 0.929 . S
C4219 C4213 1.390 . S
C4219 C4216 1.386 . S
C4220 C4215 1.490 . S
C4220 C4222 1.395 . S
C4220 C4223 1.403 . S
H4221 C4227 0.930 . S
C4222 H4208 0.930 . S
C4222 C4220 1.395 . S
C4222 C4225 1.403 . S
C4223 C4220 1.403 . S
C4223 C4224 1.524 . S
C4223 C4227 1.400 . S
C4224 H4209 0.960 . S
C4224 H4210 0.960 . S
C4224 H4211 0.960 . S
C4224 C4223 1.524 . S
C4225 C4222 1.403 . S
C4225 C4226 1.392 . S
C4225 C4229 1.495 . S
C4226 C4225 1.392 . S
C4226 C4227 1.385 . S
C4226 C4228 1.478 . S
C4227 H4221 0.930 . S
C4227 C4223 1.400 . S
C4227 C4226 1.385 . S
C4228 C4226 1.478 . S
C4228 C4230 1.381 . S
C4228 C4234 1.383 . S
C4229 C4225 1.495 . S
C4229 H4235 0.959 . S
C4229 H4236 0.961 . S
C4229 H4237 0.960 . S
C4230 C4228 1.381 . S
C4230 C4231 1.394 . S
C4230 H4238 0.930 . S
C4231 C4230 1.394 . S
C4231 C4232 1.383 . S
C4231 H4239 0.929 . S
C4232 C4231 1.383 . S
C4232 C4233 1.377 . S
C4233 H4217 0.930 . S
C4233 C4232 1.377 . S
C4233 C4234 1.379 . S
C4234 H4218 0.931 . S
C4234 C4228 1.383 . S
C4234 C4233 1.379 . S
H4235 C4229 0.959 . S
H4236 C4229 0.961 . S
H4237 C4229 0.960 . S
H4238 C4230 0.930 . S
H4239 C4231 0.929 . S
H4240 C4248 0.929 . S
H4241 C4250 0.930 . S
H4242 C4252 0.930 . S
H4243 C4255 0.929 . S
H4244 C4258 0.930 . S
H4245 C4260 0.960 . S
H4246 C4260 0.960 . S
H4247 C4260 0.960 . S
C4248 H4240 0.929 . S
C4248 C4249 1.377 . S
C4248 C4250 1.384 . S
C4249 C4248 1.377 . S
C4249 C4255 1.390 . S
C4250 H4241 0.930 . S
C4250 C4248 1.384 . S
C4250 C4251 1.372 . S
C4251 C4250 1.372 . S
C4251 C4252 1.400 . S
C4251 C4256 1.490 . S
C4252 H4242 0.930 . S
C4252 C4251 1.400 . S
C4252 C4255 1.386 . S
H4253 C4269 0.930 . S
H4254 C4270 0.931 . S
C4255 H4243 0.929 . S
C4255 C4249 1.390 . S
C4255 C4252 1.386 . S
C4256 C4251 1.490 . S
C4256 C4258 1.395 . S
C4256 C4259 1.403 . S
H4257 C4263 0.930 . S
C4258 H4244 0.930 . S
C4258 C4256 1.395 . S
C4258 C4261 1.403 . S
C4259 C4256 1.403 . S
C4259 C4260 1.524 . S
C4259 C4263 1.400 . S
C4260 H4245 0.960 . S
C4260 H4246 0.960 . S
C4260 H4247 0.960 . S
C4260 C4259 1.524 . S
C4261 C4258 1.403 . S
C4261 C4262 1.392 . S
C4261 C4265 1.495 . S
C4262 C4261 1.392 . S
C4262 C4263 1.385 . S
C4262 C4264 1.478 . S
C4263 H4257 0.930 . S
C4263 C4259 1.400 . S
C4263 C4262 1.385 . S
C4264 C4262 1.478 . S
C4264 C4266 1.381 . S
C4264 C4270 1.383 . S
C4265 C4261 1.495 . S
C4265 H4271 0.959 . S
C4265 H4272 0.961 . S
C4265 H4273 0.960 . S
C4266 C4264 1.381 . S
C4266 C4267 1.394 . S
C4266 H4274 0.930 . S
C4267 C4266 1.394 . S
C4267 C4268 1.383 . S
C4267 H4275 0.929 . S
C4268 C4267 1.383 . S
C4268 C4269 1.377 . S
C4269 H4253 0.930 . S
C4269 C4268 1.377 . S
C4269 C4270 1.379 . S
C4270 H4254 0.931 . S
C4270 C4264 1.383 . S
C4270 C4269 1.379 . S
H4271 C4265 0.959 . S
H4272 C4265 0.961 . S
H4273 C4265 0.960 . S
H4274 C4266 0.930 . S
H4275 C4267 0.929 . S
H4276 C4284 0.929 . S
H4277 C4286 0.930 . S
H4278 C4288 0.930 . S
H4279 C4291 0.929 . S
H4280 C4294 0.930 . S
H4281 C4296 0.960 . S
H4282 C4296 0.960 . S
H4283 C4296 0.960 . S
C4284 H4276 0.929 . S
C4284 C4285 1.377 . S
C4284 C4286 1.384 . S
C4285 C4284 1.377 . S
C4285 C4291 1.390 . S
C4286 H4277 0.930 . S
C4286 C4284 1.384 . S
C4286 C4287 1.372 . S
C4287 C4286 1.372 . S
C4287 C4288 1.400 . S
C4287 C4292 1.490 . S
C4288 H4278 0.930 . S
C4288 C4287 1.400 . S
C4288 C4291 1.386 . S
H4289 C4305 0.930 . S
H4290 C4306 0.931 . S
C4291 H4279 0.929 . S
C4291 C4285 1.390 . S
C4291 C4288 1.386 . S
C4292 C4287 1.490 . S
C4292 C4294 1.395 . S
C4292 C4295 1.403 . S
H4293 C4299 0.930 . S
C4294 H4280 0.930 . S
C4294 C4292 1.395 . S
C4294 C4297 1.403 . S
C4295 C4292 1.403 . S
C4295 C4296 1.524 . S
C4295 C4299 1.400 . S
C4296 H4281 0.960 . S
C4296 H4282 0.960 . S
C4296 H4283 0.960 . S
C4296 C4295 1.524 . S
C4297 C4294 1.403 . S
C4297 C4298 1.392 . S
C4297 C4301 1.495 . S
C4298 C4297 1.392 . S
C4298 C4299 1.385 . S
C4298 C4300 1.478 . S
C4299 H4293 0.930 . S
C4299 C4295 1.400 . S
C4299 C4298 1.385 . S
C4300 C4298 1.478 . S
C4300 C4302 1.381 . S
C4300 C4306 1.383 . S
C4301 C4297 1.495 . S
C4301 H4307 0.959 . S
C4301 H4308 0.961 . S
C4301 H4309 0.960 . S
C4302 C4300 1.381 . S
C4302 C4303 1.394 . S
C4302 H4310 0.930 . S
C4303 C4302 1.394 . S
C4303 C4304 1.383 . S
C4303 H4311 0.929 . S
C4304 C4303 1.383 . S
C4304 C4305 1.377 . S
C4305 H4289 0.930 . S
C4305 C4304 1.377 . S
C4305 C4306 1.379 . S
C4306 H4290 0.931 . S
C4306 C4300 1.383 . S
C4306 C4305 1.379 . S
H4307 C4301 0.959 . S
H4308 C4301 0.961 . S
H4309 C4301 0.960 . S
H4310 C4302 0.930 . S
H4311 C4303 0.929 . S
H4312 C4320 0.929 . S
H4313 C4322 0.930 . S
H4314 C4324 0.930 . S
H4315 C4327 0.929 . S
H4316 C4330 0.928 1_655 S
H4317 C4332 0.960 . S
H4318 C4332 0.960 . S
H4319 C4332 0.960 . S
C4320 H4312 0.929 . S
C4320 C4321 1.377 . S
C4320 C4322 1.384 . S
C4321 C4320 1.377 . S
C4321 C4327 1.390 . S
C4322 H4313 0.930 . S
C4322 C4320 1.384 . S
C4322 C4323 1.372 . S
C4323 C4322 1.372 . S
C4323 C4324 1.400 . S
C4323 C4328 1.490 . S
C4324 H4314 0.930 . S
C4324 C4323 1.400 . S
C4324 C4327 1.386 . S
H4325 C4341 0.930 . S
H4326 C4342 0.931 . S
C4327 H4315 0.929 . S
C4327 C4321 1.390 . S
C4327 C4324 1.386 . S
C4328 C4323 1.490 . S
C4328 C4330 1.395 . S
C4328 C4331 1.403 . S
H4329 C4335 0.930 . S
C4330 H4316 0.928 1_455 S
C4330 C4328 1.395 . S
C4330 C4333 1.403 . S
C4331 C4328 1.403 . S
C4331 C4332 1.524 . S
C4331 C4335 1.400 . S
C4332 H4317 0.960 . S
C4332 H4318 0.960 . S
C4332 H4319 0.960 . S
C4332 C4331 1.524 . S
C4333 C4330 1.403 . S
C4333 C4334 1.392 . S
C4333 C4337 1.495 1_455 S
C4334 C4333 1.392 . S
C4334 C4335 1.385 . S
C4334 C4336 1.478 . S
C4335 H4329 0.930 . S
C4335 C4331 1.400 . S
C4335 C4334 1.385 . S
C4336 C4334 1.478 . S
C4336 C4338 1.381 . S
C4336 C4342 1.383 . S
C4337 C4333 1.495 1_655 S
C4337 H4343 0.959 . S
C4337 H4344 0.961 . S
C4337 H4345 0.960 1_655 S
C4338 C4336 1.381 . S
C4338 C4339 1.394 . S
C4338 H4346 0.930 . S
C4339 C4338 1.394 . S
C4339 C4340 1.383 . S
C4339 H4347 0.929 . S
C4340 C4339 1.383 . S
C4340 C4341 1.377 . S
C4341 H4325 0.930 . S
C4341 C4340 1.377 . S
C4341 C4342 1.379 . S
C4342 H4326 0.931 . S
C4342 C4336 1.383 . S
C4342 C4341 1.379 . S
H4343 C4337 0.959 . S
H4344 C4337 0.961 . S
H4345 C4337 0.960 1_455 S
H4346 C4338 0.930 . S
H4347 C4339 0.929 . S
H4348 C4356 0.929 . S
H4349 C4358 0.930 . S
H4350 C4360 0.930 . S
H4351 C4363 0.929 . S
H4352 C4366 0.930 . S
H4353 C4368 0.960 . S
H4354 C4368 0.960 . S
H4355 C4368 0.960 . S
C4356 H4348 0.929 . S
C4356 C4357 1.377 . S
C4356 C4358 1.384 . S
C4357 C4356 1.377 . S
C4357 C4363 1.390 . S
C4358 H4349 0.930 . S
C4358 C4356 1.384 . S
C4358 C4359 1.372 . S
C4359 C4358 1.372 . S
C4359 C4360 1.400 . S
C4359 C4364 1.490 . S
C4360 H4350 0.930 . S
C4360 C4359 1.400 . S
C4360 C4363 1.386 . S
H4361 C4377 0.930 . S
H4362 C4378 0.931 . S
C4363 H4351 0.929 . S
C4363 C4357 1.390 . S
C4363 C4360 1.386 . S
C4364 C4359 1.490 . S
C4364 C4366 1.395 . S
C4364 C4367 1.403 . S
H4365 C4371 0.930 . S
C4366 H4352 0.930 . S
C4366 C4364 1.395 . S
C4366 C4369 1.403 . S
C4367 C4364 1.403 . S
C4367 C4368 1.524 . S
C4367 C4371 1.400 . S
C4368 H4353 0.960 . S
C4368 H4354 0.960 . S
C4368 H4355 0.960 . S
C4368 C4367 1.524 . S
C4369 C4366 1.403 . S
C4369 C4370 1.392 . S
C4369 C4373 1.495 . S
C4370 C4369 1.392 . S
C4370 C4371 1.385 . S
C4370 C4372 1.478 . S
C4371 H4365 0.930 . S
C4371 C4367 1.400 . S
C4371 C4370 1.385 . S
C4372 C4370 1.478 . S
C4372 C4374 1.381 . S
C4372 C4378 1.383 . S
C4373 C4369 1.495 . S
C4373 H4379 0.959 . S
C4373 H4380 0.961 . S
C4373 H4381 0.960 . S
C4374 C4372 1.381 . S
C4374 C4375 1.394 . S
C4374 H4382 0.930 . S
C4375 C4374 1.394 . S
C4375 C4376 1.383 . S
C4375 H4383 0.929 . S
C4376 C4375 1.383 . S
C4376 C4377 1.377 . S
C4377 H4361 0.930 . S
C4377 C4376 1.377 . S
C4377 C4378 1.379 . S
C4378 H4362 0.931 . S
C4378 C4372 1.383 . S
C4378 C4377 1.379 . S
H4379 C4373 0.959 . S
H4380 C4373 0.961 . S
H4381 C4373 0.960 . S
H4382 C4374 0.930 . S
H4383 C4375 0.929 . S
H4384 C4392 0.929 . S
H4385 C4394 0.930 . S
H4386 C4396 0.930 . S
H4387 C4399 0.929 . S
H4388 C4402 0.930 . S
H4389 C4404 0.960 . S
H4390 C4404 0.960 . S
H4391 C4404 0.960 . S
C4392 H4384 0.929 . S
C4392 C4393 1.377 . S
C4392 C4394 1.384 . S
C4393 C4392 1.377 . S
C4393 C4399 1.390 . S
C4394 H4385 0.930 . S
C4394 C4392 1.384 . S
C4394 C4395 1.372 . S
C4395 C4394 1.372 . S
C4395 C4396 1.400 . S
C4395 C4400 1.490 . S
C4396 H4386 0.930 . S
C4396 C4395 1.400 . S
C4396 C4399 1.386 . S
H4397 C4413 0.930 . S
H4398 C4414 0.931 . S
C4399 H4387 0.929 . S
C4399 C4393 1.390 . S
C4399 C4396 1.386 . S
C4400 C4395 1.490 . S
C4400 C4402 1.395 . S
C4400 C4403 1.403 . S
H4401 C4407 0.930 . S
C4402 H4388 0.930 . S
C4402 C4400 1.395 . S
C4402 C4405 1.403 . S
C4403 C4400 1.403 . S
C4403 C4404 1.524 . S
C4403 C4407 1.400 . S
C4404 H4389 0.960 . S
C4404 H4390 0.960 . S
C4404 H4391 0.960 . S
C4404 C4403 1.524 . S
C4405 C4402 1.403 . S
C4405 C4406 1.392 . S
C4405 C4409 1.495 . S
C4406 C4405 1.392 . S
C4406 C4407 1.385 . S
C4406 C4408 1.478 . S
C4407 H4401 0.930 . S
C4407 C4403 1.400 . S
C4407 C4406 1.385 . S
C4408 C4406 1.478 . S
C4408 C4410 1.381 . S
C4408 C4414 1.383 . S
C4409 C4405 1.495 . S
C4409 H4415 0.959 . S
C4409 H4416 0.961 . S
C4409 H4417 0.960 . S
C4410 C4408 1.381 . S
C4410 C4411 1.394 . S
C4410 H4418 0.930 . S
C4411 C4410 1.394 . S
C4411 C4412 1.383 . S
C4411 H4419 0.929 . S
C4412 C4411 1.383 . S
C4412 C4413 1.377 . S
C4413 H4397 0.930 . S
C4413 C4412 1.377 . S
C4413 C4414 1.379 . S
C4414 H4398 0.931 . S
C4414 C4408 1.383 . S
C4414 C4413 1.379 . S
H4415 C4409 0.959 . S
H4416 C4409 0.961 . S
H4417 C4409 0.960 . S
H4418 C4410 0.930 . S
H4419 C4411 0.929 . S
H4420 C4428 0.929 . S
H4421 C4430 0.930 . S
H4422 C4432 0.930 . S
H4423 C4435 0.929 . S
H4424 C4438 0.930 . S
H4425 C4440 0.960 . S
H4426 C4440 0.960 . S
H4427 C4440 0.960 . S
C4428 H4420 0.929 . S
C4428 C4429 1.377 . S
C4428 C4430 1.384 . S
C4429 C4428 1.377 . S
C4429 C4435 1.390 . S
C4430 H4421 0.930 . S
C4430 C4428 1.384 . S
C4430 C4431 1.372 . S
C4431 C4430 1.372 . S
C4431 C4432 1.400 . S
C4431 C4436 1.490 . S
C4432 H4422 0.930 . S
C4432 C4431 1.400 . S
C4432 C4435 1.386 . S
H4433 C4449 0.930 . S
H4434 C4450 0.931 . S
C4435 H4423 0.929 . S
C4435 C4429 1.390 . S
C4435 C4432 1.386 . S
C4436 C4431 1.490 . S
C4436 C4438 1.395 . S
C4436 C4439 1.403 . S
H4437 C4443 0.930 . S
C4438 H4424 0.930 . S
C4438 C4436 1.395 . S
C4438 C4441 1.403 . S
C4439 C4436 1.403 . S
C4439 C4440 1.524 . S
C4439 C4443 1.400 . S
C4440 H4425 0.960 . S
C4440 H4426 0.960 . S
C4440 H4427 0.960 . S
C4440 C4439 1.524 . S
C4441 C4438 1.403 . S
C4441 C4442 1.392 . S
C4441 C4445 1.495 . S
C4442 C4441 1.392 . S
C4442 C4443 1.385 . S
C4442 C4444 1.478 . S
C4443 H4437 0.930 . S
C4443 C4439 1.400 . S
C4443 C4442 1.385 . S
C4444 C4442 1.478 . S
C4444 C4446 1.381 . S
C4444 C4450 1.383 . S
C4445 C4441 1.495 . S
C4445 H4451 0.959 . S
C4445 H4452 0.961 . S
C4445 H4453 0.960 . S
C4446 C4444 1.381 . S
C4446 C4447 1.394 . S
C4446 H4454 0.930 . S
C4447 C4446 1.394 . S
C4447 C4448 1.383 . S
C4447 H4455 0.929 . S
C4448 C4447 1.383 . S
C4448 C4449 1.377 . S
C4449 H4433 0.930 . S
C4449 C4448 1.377 . S
C4449 C4450 1.379 . S
C4450 H4434 0.931 . S
C4450 C4444 1.383 . S
C4450 C4449 1.379 . S
H4451 C4445 0.959 . S
H4452 C4445 0.961 . S
H4453 C4445 0.960 . S
H4454 C4446 0.930 . S
H4455 C4447 0.929 . S
H4456 C4464 0.929 . S
H4457 C4466 0.930 . S
H4458 C4468 0.930 . S
H4459 C4471 0.929 . S
H4460 C4474 0.930 . S
H4461 C4476 0.960 . S
H4462 C4476 0.960 . S
H4463 C4476 0.960 . S
C4464 H4456 0.929 . S
C4464 C4465 1.377 . S
C4464 C4466 1.384 . S
C4465 C4464 1.377 . S
C4465 C4471 1.390 . S
C4466 H4457 0.930 . S
C4466 C4464 1.384 . S
C4466 C4467 1.372 . S
C4467 C4466 1.372 . S
C4467 C4468 1.400 . S
C4467 C4472 1.490 . S
C4468 H4458 0.930 . S
C4468 C4467 1.400 . S
C4468 C4471 1.386 . S
H4469 C4485 0.930 . S
H4470 C4486 0.931 . S
C4471 H4459 0.929 . S
C4471 C4465 1.390 . S
C4471 C4468 1.386 . S
C4472 C4467 1.490 . S
C4472 C4474 1.395 . S
C4472 C4475 1.403 . S
H4473 C4479 0.930 . S
C4474 H4460 0.930 . S
C4474 C4472 1.395 . S
C4474 C4477 1.403 . S
C4475 C4472 1.403 . S
C4475 C4476 1.524 . S
C4475 C4479 1.400 . S
C4476 H4461 0.960 . S
C4476 H4462 0.960 . S
C4476 H4463 0.960 . S
C4476 C4475 1.524 . S
C4477 C4474 1.403 . S
C4477 C4478 1.392 . S
C4477 C4481 1.495 . S
C4478 C4477 1.392 . S
C4478 C4479 1.385 . S
C4478 C4480 1.478 . S
C4479 H4473 0.930 . S
C4479 C4475 1.400 . S
C4479 C4478 1.385 . S
C4480 C4478 1.478 . S
C4480 C4482 1.369 1_655 S
C4480 C4486 1.383 . S
C4481 C4477 1.495 . S
C4481 H4487 0.959 . S
C4481 H4488 0.961 . S
C4481 H4489 0.960 . S
C4482 C4480 1.369 1_455 S
C4482 C4483 1.403 . S
C4482 H4490 0.934 . S
C4483 C4482 1.403 . S
C4483 C4484 1.383 . S
C4483 H4491 0.929 . S
C4484 C4483 1.383 . S
C4484 C4485 1.377 1_455 S
C4485 H4469 0.930 . S
C4485 C4484 1.377 1_655 S
C4485 C4486 1.379 . S
C4486 H4470 0.931 . S
C4486 C4480 1.383 . S
C4486 C4485 1.379 . S
H4487 C4481 0.959 . S
H4488 C4481 0.961 . S
H4489 C4481 0.960 . S
H4490 C4482 0.934 . S
H4491 C4483 0.929 . S
H4492 C4500 0.929 . S
H4493 C4502 0.930 . S
H4494 C4504 0.930 . S
H4495 C4507 0.929 . S
H4496 C4510 0.930 . S
H4497 C4512 0.960 . S
H4498 C4512 0.960 . S
H4499 C4512 0.960 . S
C4500 H4492 0.929 . S
C4500 C4501 1.377 . S
C4500 C4502 1.384 . S
C4501 C4500 1.377 . S
C4501 C4507 1.390 . S
C4502 H4493 0.930 . S
C4502 C4500 1.384 . S
C4502 C4503 1.372 . S
C4503 C4502 1.372 . S
C4503 C4504 1.400 . S
C4503 C4508 1.490 . S
C4504 H4494 0.930 . S
C4504 C4503 1.400 . S
C4504 C4507 1.386 . S
H4505 C4521 0.930 . S
H4506 C4522 0.931 . S
C4507 H4495 0.929 . S
C4507 C4501 1.390 . S
C4507 C4504 1.386 . S
C4508 C4503 1.490 . S
C4508 C4510 1.395 . S
C4508 C4511 1.403 . S
H4509 C4515 0.930 . S
C4510 H4496 0.930 . S
C4510 C4508 1.395 . S
C4510 C4513 1.403 . S
C4511 C4508 1.403 . S
C4511 C4512 1.524 . S
C4511 C4515 1.400 . S
C4512 H4497 0.960 . S
C4512 H4498 0.960 . S
C4512 H4499 0.960 . S
C4512 C4511 1.524 . S
C4513 C4510 1.403 . S
C4513 C4514 1.392 . S
C4513 C4517 1.495 . S
C4514 C4513 1.392 . S
C4514 C4515 1.385 . S
C4514 C4516 1.478 . S
C4515 H4509 0.930 . S
C4515 C4511 1.400 . S
C4515 C4514 1.385 . S
C4516 C4514 1.478 . S
C4516 C4518 1.381 . S
C4516 C4522 1.383 . S
C4517 C4513 1.495 . S
C4517 H4523 0.959 . S
C4517 H4524 0.961 . S
C4517 H4525 0.960 . S
C4518 C4516 1.381 . S
C4518 C4519 1.394 . S
C4518 H4526 0.930 . S
C4519 C4518 1.394 . S
C4519 C4520 1.383 . S
C4519 H4527 0.929 . S
C4520 C4519 1.383 . S
C4520 C4521 1.377 . S
C4521 H4505 0.930 . S
C4521 C4520 1.377 . S
C4521 C4522 1.379 . S
C4522 H4506 0.931 . S
C4522 C4516 1.383 . S
C4522 C4521 1.379 . S
H4523 C4517 0.959 . S
H4524 C4517 0.961 . S
H4525 C4517 0.960 . S
H4526 C4518 0.930 . S
H4527 C4519 0.929 . S
H4528 C4536 0.929 . S
H4529 C4538 0.930 . S
H4530 C4540 0.930 . S
H4531 C4543 0.929 . S
H4532 C4546 0.930 . S
H4533 C4548 0.960 . S
H4534 C4548 0.960 . S
H4535 C4548 0.960 . S
C4536 H4528 0.929 . S
C4536 C4537 1.377 . S
C4536 C4538 1.384 . S
C4537 C4536 1.377 . S
C4537 C4543 1.390 . S
C4538 H4529 0.930 . S
C4538 C4536 1.384 . S
C4538 C4539 1.372 . S
C4539 C4538 1.372 . S
C4539 C4540 1.400 . S
C4539 C4544 1.490 . S
C4540 H4530 0.930 . S
C4540 C4539 1.400 . S
C4540 C4543 1.386 . S
H4541 C4557 0.930 . S
H4542 C4558 0.931 . S
C4543 H4531 0.929 . S
C4543 C4537 1.390 . S
C4543 C4540 1.386 . S
C4544 C4539 1.490 . S
C4544 C4546 1.395 . S
C4544 C4547 1.403 . S
H4545 C4551 0.930 . S
C4546 H4532 0.930 . S
C4546 C4544 1.395 . S
C4546 C4549 1.403 . S
C4547 C4544 1.403 . S
C4547 C4548 1.524 . S
C4547 C4551 1.400 . S
C4548 H4533 0.960 . S
C4548 H4534 0.960 . S
C4548 H4535 0.960 . S
C4548 C4547 1.524 . S
C4549 C4546 1.403 . S
C4549 C4550 1.392 . S
C4549 C4553 1.495 . S
C4550 C4549 1.392 . S
C4550 C4551 1.385 . S
C4550 C4552 1.478 . S
C4551 H4545 0.930 . S
C4551 C4547 1.400 . S
C4551 C4550 1.385 . S
C4552 C4550 1.478 . S
C4552 C4554 1.381 . S
C4552 C4558 1.383 . S
C4553 C4549 1.495 . S
C4553 H4559 0.959 . S
C4553 H4560 0.961 . S
C4553 H4561 0.960 . S
C4554 C4552 1.381 . S
C4554 C4555 1.394 . S
C4554 H4562 0.930 . S
C4555 C4554 1.394 . S
C4555 C4556 1.383 . S
C4555 H4563 0.929 . S
C4556 C4555 1.383 . S
C4556 C4557 1.377 . S
C4557 H4541 0.930 . S
C4557 C4556 1.377 . S
C4557 C4558 1.379 . S
C4558 H4542 0.931 . S
C4558 C4552 1.383 . S
C4558 C4557 1.379 . S
H4559 C4553 0.959 . S
H4560 C4553 0.961 . S
H4561 C4553 0.960 . S
H4562 C4554 0.930 . S
H4563 C4555 0.929 . S
H4564 C4572 0.929 . S
H4565 C4574 0.930 . S
H4566 C4576 0.930 . S
H4567 C4579 0.929 . S
H4568 C4582 0.930 . S
H4569 C4584 0.960 . S
H4570 C4584 0.960 . S
H4571 C4584 0.960 . S
C4572 H4564 0.929 . S
C4572 C4573 1.377 . S
C4572 C4574 1.384 . S
C4573 C4572 1.377 . S
C4573 C4579 1.390 . S
C4574 H4565 0.930 . S
C4574 C4572 1.384 . S
C4574 C4575 1.372 . S
C4575 C4574 1.372 . S
C4575 C4576 1.400 . S
C4575 C4580 1.490 . S
C4576 H4566 0.930 . S
C4576 C4575 1.400 . S
C4576 C4579 1.386 . S
H4577 C4593 0.930 . S
H4578 C4594 0.931 . S
C4579 H4567 0.929 . S
C4579 C4573 1.390 . S
C4579 C4576 1.386 . S
C4580 C4575 1.490 . S
C4580 C4582 1.395 . S
C4580 C4583 1.403 . S
H4581 C4587 0.930 . S
C4582 H4568 0.930 . S
C4582 C4580 1.395 . S
C4582 C4585 1.403 . S
C4583 C4580 1.403 . S
C4583 C4584 1.524 . S
C4583 C4587 1.400 . S
C4584 H4569 0.960 . S
C4584 H4570 0.960 . S
C4584 H4571 0.960 . S
C4584 C4583 1.524 . S
C4585 C4582 1.403 . S
C4585 C4586 1.392 . S
C4585 C4589 1.495 . S
C4586 C4585 1.392 . S
C4586 C4587 1.385 . S
C4586 C4588 1.478 . S
C4587 H4581 0.930 . S
C4587 C4583 1.400 . S
C4587 C4586 1.385 . S
C4588 C4586 1.478 . S
C4588 C4590 1.381 . S
C4588 C4594 1.383 . S
C4589 C4585 1.495 . S
C4589 H4595 0.959 . S
C4589 H4596 0.961 . S
C4589 H4597 0.960 . S
C4590 C4588 1.381 . S
C4590 C4591 1.394 . S
C4590 H4598 0.930 . S
C4591 C4590 1.394 . S
C4591 C4592 1.383 . S
C4591 H4599 0.929 . S
C4592 C4591 1.383 . S
C4592 C4593 1.377 . S
C4593 H4577 0.930 . S
C4593 C4592 1.377 . S
C4593 C4594 1.379 . S
C4594 H4578 0.931 . S
C4594 C4588 1.383 . S
C4594 C4593 1.379 . S
H4595 C4589 0.959 . S
H4596 C4589 0.961 . S
H4597 C4589 0.960 . S
H4598 C4590 0.930 . S
H4599 C4591 0.929 . S
H4600 C4608 0.929 . S
H4601 C4610 0.930 . S
H4602 C4612 0.930 . S
H4603 C4615 0.929 . S
H4604 C4618 0.930 . S
H4605 C4620 0.960 . S
H4606 C4620 0.960 . S
H4607 C4620 0.960 . S
C4608 H4600 0.929 . S
C4608 C4609 1.377 . S
C4608 C4610 1.384 . S
C4609 C4608 1.377 . S
C4609 C4615 1.390 . S
C4610 H4601 0.930 . S
C4610 C4608 1.384 . S
C4610 C4611 1.372 . S
C4611 C4610 1.372 . S
C4611 C4612 1.400 . S
C4611 C4616 1.490 . S
C4612 H4602 0.930 . S
C4612 C4611 1.400 . S
C4612 C4615 1.386 . S
H4613 C4629 0.930 . S
H4614 C4630 0.931 . S
C4615 H4603 0.929 . S
C4615 C4609 1.390 . S
C4615 C4612 1.386 . S
C4616 C4611 1.490 . S
C4616 C4618 1.395 . S
C4616 C4619 1.403 . S
H4617 C4623 0.930 . S
C4618 H4604 0.930 . S
C4618 C4616 1.395 . S
C4618 C4621 1.403 . S
C4619 C4616 1.403 . S
C4619 C4620 1.524 . S
C4619 C4623 1.400 . S
C4620 H4605 0.960 . S
C4620 H4606 0.960 . S
C4620 H4607 0.960 . S
C4620 C4619 1.524 . S
C4621 C4618 1.403 . S
C4621 C4622 1.392 . S
C4621 C4625 1.495 1_655 S
C4622 C4621 1.392 . S
C4622 C4623 1.385 . S
C4622 C4624 1.478 . S
C4623 H4617 0.930 . S
C4623 C4619 1.400 . S
C4623 C4622 1.385 . S
C4624 C4622 1.478 . S
C4624 C4626 1.381 . S
C4624 C4630 1.383 . S
C4625 C4621 1.495 1_455 S
C4625 H4631 0.959 . S
C4625 H4632 0.961 . S
C4625 H4633 0.960 . S
C4626 C4624 1.381 . S
C4626 C4627 1.394 1_655 S
C4626 H4634 0.933 1_655 S
C4627 C4626 1.394 1_455 S
C4627 C4628 1.383 . S
C4627 H4635 0.929 . S
C4628 C4627 1.383 . S
C4628 C4629 1.377 1_455 S
C4629 H4613 0.930 . S
C4629 C4628 1.377 1_655 S
C4629 C4630 1.379 . S
C4630 H4614 0.931 . S
C4630 C4624 1.383 . S
C4630 C4629 1.379 . S
H4631 C4625 0.959 . S
H4632 C4625 0.961 . S
H4633 C4625 0.960 . S
H4634 C4626 0.933 1_455 S
H4635 C4627 0.929 . S
H4636 C4644 0.929 . S
H4637 C4646 0.930 . S
H4638 C4648 0.930 . S
H4639 C4651 0.929 . S
H4640 C4654 0.930 . S
H4641 C4656 0.960 . S
H4642 C4656 0.960 . S
H4643 C4656 0.960 . S
C4644 H4636 0.929 . S
C4644 C4645 1.377 . S
C4644 C4646 1.384 . S
C4645 C4644 1.377 . S
C4645 C4651 1.390 . S
C4646 H4637 0.930 . S
C4646 C4644 1.384 . S
C4646 C4647 1.372 . S
C4647 C4646 1.372 . S
C4647 C4648 1.400 . S
C4647 C4652 1.490 . S
C4648 H4638 0.930 . S
C4648 C4647 1.400 . S
C4648 C4651 1.386 . S
H4649 C4665 0.930 . S
H4650 C4666 0.931 . S
C4651 H4639 0.929 . S
C4651 C4645 1.390 . S
C4651 C4648 1.386 . S
C4652 C4647 1.490 . S
C4652 C4654 1.395 . S
C4652 C4655 1.403 . S
H4653 C4659 0.930 . S
C4654 H4640 0.930 . S
C4654 C4652 1.395 . S
C4654 C4657 1.403 . S
C4655 C4652 1.403 . S
C4655 C4656 1.524 . S
C4655 C4659 1.400 . S
C4656 H4641 0.960 . S
C4656 H4642 0.960 . S
C4656 H4643 0.960 . S
C4656 C4655 1.524 . S
C4657 C4654 1.403 . S
C4657 C4658 1.392 . S
C4657 C4661 1.495 . S
C4658 C4657 1.392 . S
C4658 C4659 1.385 . S
C4658 C4660 1.478 . S
C4659 H4653 0.930 . S
C4659 C4655 1.400 . S
C4659 C4658 1.385 . S
C4660 C4658 1.478 . S
C4660 C4662 1.381 . S
C4660 C4666 1.383 . S
C4661 C4657 1.495 . S
C4661 H4667 0.959 . S
C4661 H4668 0.961 . S
C4661 H4669 0.960 . S
C4662 C4660 1.381 . S
C4662 C4663 1.394 . S
C4662 H4670 0.930 . S
C4663 C4662 1.394 . S
C4663 C4664 1.383 . S
C4663 H4671 0.929 . S
C4664 C4663 1.383 . S
C4664 C4665 1.377 . S
C4665 H4649 0.930 . S
C4665 C4664 1.377 . S
C4665 C4666 1.379 . S
C4666 H4650 0.931 . S
C4666 C4660 1.383 . S
C4666 C4665 1.379 . S
H4667 C4661 0.959 . S
H4668 C4661 0.961 . S
H4669 C4661 0.960 . S
H4670 C4662 0.930 . S
H4671 C4663 0.929 . S
H4672 C4680 0.929 . S
H4673 C4682 0.930 . S
H4674 C4684 0.930 . S
H4675 C4687 0.929 . S
H4676 C4690 0.930 . S
H4677 C4692 0.960 . S
H4678 C4692 0.960 . S
H4679 C4692 0.960 . S
C4680 H4672 0.929 . S
C4680 C4681 1.377 . S
C4680 C4682 1.384 . S
C4681 C4680 1.377 . S
C4681 C4687 1.390 . S
C4682 H4673 0.930 . S
C4682 C4680 1.384 . S
C4682 C4683 1.372 . S
C4683 C4682 1.372 . S
C4683 C4684 1.400 . S
C4683 C4688 1.490 . S
C4684 H4674 0.930 . S
C4684 C4683 1.400 . S
C4684 C4687 1.386 . S
H4685 C4701 0.930 . S
H4686 C4702 0.931 . S
C4687 H4675 0.929 . S
C4687 C4681 1.390 . S
C4687 C4684 1.386 . S
C4688 C4683 1.490 . S
C4688 C4690 1.395 . S
C4688 C4691 1.403 . S
H4689 C4695 0.930 . S
C4690 H4676 0.930 . S
C4690 C4688 1.395 . S
C4690 C4693 1.403 . S
C4691 C4688 1.403 . S
C4691 C4692 1.524 . S
C4691 C4695 1.400 . S
C4692 H4677 0.960 . S
C4692 H4678 0.960 . S
C4692 H4679 0.960 . S
C4692 C4691 1.524 . S
C4693 C4690 1.403 . S
C4693 C4694 1.392 . S
C4693 C4697 1.495 . S
C4694 C4693 1.392 . S
C4694 C4695 1.385 . S
C4694 C4696 1.478 . S
C4695 H4689 0.930 . S
C4695 C4691 1.400 . S
C4695 C4694 1.385 . S
C4696 C4694 1.478 . S
C4696 C4698 1.381 . S
C4696 C4702 1.383 . S
C4697 C4693 1.495 . S
C4697 H4703 0.959 . S
C4697 H4704 0.961 . S
C4697 H4705 0.960 . S
C4698 C4696 1.381 . S
C4698 C4699 1.394 . S
C4698 H4706 0.930 . S
C4699 C4698 1.394 . S
C4699 C4700 1.383 . S
C4699 H4707 0.929 . S
C4700 C4699 1.383 . S
C4700 C4701 1.377 . S
C4701 H4685 0.930 . S
C4701 C4700 1.377 . S
C4701 C4702 1.379 . S
C4702 H4686 0.931 . S
C4702 C4696 1.383 . S
C4702 C4701 1.379 . S
H4703 C4697 0.959 . S
H4704 C4697 0.961 . S
H4705 C4697 0.960 . S
H4706 C4698 0.930 . S
H4707 C4699 0.929 . S
H4708 C4716 0.929 . S
H4709 C4718 0.930 . S
H4710 C4720 0.930 . S
H4711 C4723 0.929 . S
H4712 C4726 0.930 . S
H4713 C4728 0.960 . S
H4714 C4728 0.960 . S
H4715 C4728 0.960 . S
C4716 H4708 0.929 . S
C4716 C4717 1.377 . S
C4716 C4718 1.384 . S
C4717 C4716 1.377 . S
C4717 C4723 1.390 . S
C4718 H4709 0.930 . S
C4718 C4716 1.384 . S
C4718 C4719 1.372 . S
C4719 C4718 1.372 . S
C4719 C4720 1.400 . S
C4719 C4724 1.490 . S
C4720 H4710 0.930 . S
C4720 C4719 1.400 . S
C4720 C4723 1.386 . S
H4721 C4737 0.930 1_545 S
H4722 C4738 0.931 . S
C4723 H4711 0.929 . S
C4723 C4717 1.390 . S
C4723 C4720 1.386 . S
C4724 C4719 1.490 . S
C4724 C4726 1.395 . S
C4724 C4727 1.403 . S
H4725 C4731 0.930 . S
C4726 H4712 0.930 . S
C4726 C4724 1.395 . S
C4726 C4729 1.403 . S
C4727 C4724 1.403 . S
C4727 C4728 1.524 . S
C4727 C4731 1.400 . S
C4728 H4713 0.960 . S
C4728 H4714 0.960 . S
C4728 H4715 0.960 . S
C4728 C4727 1.524 . S
C4729 C4726 1.403 . S
C4729 C4730 1.392 . S
C4729 C4733 1.495 . S
C4730 C4729 1.392 . S
C4730 C4731 1.385 . S
C4730 C4732 1.478 . S
C4731 H4725 0.930 . S
C4731 C4727 1.400 . S
C4731 C4730 1.385 . S
C4732 C4730 1.478 . S
C4732 C4734 1.381 . S
C4732 C4738 1.383 . S
C4733 C4729 1.495 . S
C4733 H4739 0.959 . S
C4733 H4740 0.961 . S
C4733 H4741 0.960 . S
C4734 C4732 1.381 . S
C4734 C4735 1.394 . S
C4734 H4742 0.930 . S
C4735 C4734 1.394 . S
C4735 C4736 1.383 . S
C4735 H4743 0.929 . S
C4736 C4735 1.383 . S
C4736 C4737 1.377 . S
C4737 H4721 0.930 1_565 S
C4737 C4736 1.377 . S
C4737 C4738 1.379 . S
C4738 H4722 0.931 . S
C4738 C4732 1.383 . S
C4738 C4737 1.379 . S
H4739 C4733 0.959 . S
H4740 C4733 0.961 . S
H4741 C4733 0.960 . S
H4742 C4734 0.930 . S
H4743 C4735 0.929 . S
H4744 C4752 0.929 . S
H4745 C4754 0.930 . S
H4746 C4756 0.930 . S
H4747 C4759 0.929 . S
H4748 C4762 0.930 . S
H4749 C4764 0.960 . S
H4750 C4764 0.960 . S
H4751 C4764 0.960 . S
C4752 H4744 0.929 . S
C4752 C4753 1.377 . S
C4752 C4754 1.384 . S
C4753 C4752 1.377 . S
C4753 C4759 1.390 . S
C4754 H4745 0.930 . S
C4754 C4752 1.384 . S
C4754 C4755 1.372 . S
C4755 C4754 1.372 . S
C4755 C4756 1.400 . S
C4755 C4760 1.490 . S
C4756 H4746 0.930 . S
C4756 C4755 1.400 . S
C4756 C4759 1.386 . S
H4757 C4773 0.930 . S
H4758 C4774 0.931 . S
C4759 H4747 0.929 . S
C4759 C4753 1.390 . S
C4759 C4756 1.386 . S
C4760 C4755 1.490 . S
C4760 C4762 1.395 . S
C4760 C4763 1.403 . S
H4761 C4767 0.930 . S
C4762 H4748 0.930 . S
C4762 C4760 1.395 . S
C4762 C4765 1.403 . S
C4763 C4760 1.403 . S
C4763 C4764 1.524 . S
C4763 C4767 1.400 . S
C4764 H4749 0.960 . S
C4764 H4750 0.960 . S
C4764 H4751 0.960 . S
C4764 C4763 1.524 . S
C4765 C4762 1.403 . S
C4765 C4766 1.392 . S
C4765 C4769 1.495 . S
C4766 C4765 1.392 . S
C4766 C4767 1.385 . S
C4766 C4768 1.478 . S
C4767 H4761 0.930 . S
C4767 C4763 1.400 . S
C4767 C4766 1.385 . S
C4768 C4766 1.478 . S
C4768 C4770 1.381 . S
C4768 C4774 1.383 . S
C4769 C4765 1.495 . S
C4769 H4775 0.959 . S
C4769 H4776 0.961 . S
C4769 H4777 0.960 . S
C4770 C4768 1.381 . S
C4770 C4771 1.394 . S
C4770 H4778 0.930 . S
C4771 C4770 1.394 . S
C4771 C4772 1.383 . S
C4771 H4779 0.929 . S
C4772 C4771 1.383 . S
C4772 C4773 1.377 . S
C4773 H4757 0.930 . S
C4773 C4772 1.377 . S
C4773 C4774 1.379 . S
C4774 H4758 0.931 . S
C4774 C4768 1.383 . S
C4774 C4773 1.379 . S
H4775 C4769 0.959 . S
H4776 C4769 0.961 . S
H4777 C4769 0.960 . S
H4778 C4770 0.930 . S
H4779 C4771 0.929 . S
H4780 C4788 0.929 . S
H4781 C4790 0.930 . S
H4782 C4792 0.930 . S
H4783 C4795 0.929 . S
H4784 C4798 0.930 . S
H4785 C4800 0.960 . S
H4786 C4800 0.960 . S
H4787 C4800 0.960 . S
C4788 H4780 0.929 . S
C4788 C4789 1.377 . S
C4788 C4790 1.384 . S
C4789 C4788 1.377 . S
C4789 C4795 1.390 . S
C4790 H4781 0.930 . S
C4790 C4788 1.384 . S
C4790 C4791 1.372 . S
C4791 C4790 1.372 . S
C4791 C4792 1.400 . S
C4791 C4796 1.490 . S
C4792 H4782 0.930 . S
C4792 C4791 1.400 . S
C4792 C4795 1.386 . S
H4793 C4809 0.930 . S
H4794 C4810 0.931 . S
C4795 H4783 0.929 . S
C4795 C4789 1.390 . S
C4795 C4792 1.386 . S
C4796 C4791 1.490 . S
C4796 C4798 1.395 . S
C4796 C4799 1.403 . S
H4797 C4803 0.930 . S
C4798 H4784 0.930 . S
C4798 C4796 1.395 . S
C4798 C4801 1.403 . S
C4799 C4796 1.403 . S
C4799 C4800 1.524 . S
C4799 C4803 1.400 . S
C4800 H4785 0.960 . S
C4800 H4786 0.960 . S
C4800 H4787 0.960 . S
C4800 C4799 1.524 . S
C4801 C4798 1.403 . S
C4801 C4802 1.392 . S
C4801 C4805 1.495 . S
C4802 C4801 1.392 . S
C4802 C4803 1.385 . S
C4802 C4804 1.478 . S
C4803 H4797 0.930 . S
C4803 C4799 1.400 . S
C4803 C4802 1.385 . S
C4804 C4802 1.478 . S
C4804 C4806 1.381 . S
C4804 C4810 1.383 . S
C4805 C4801 1.495 . S
C4805 H4811 0.959 . S
C4805 H4812 0.961 . S
C4805 H4813 0.960 . S
C4806 C4804 1.381 . S
C4806 C4807 1.394 . S
C4806 H4814 0.930 . S
C4807 C4806 1.394 . S
C4807 C4808 1.383 . S
C4807 H4815 0.929 . S
C4808 C4807 1.383 . S
C4808 C4809 1.377 . S
C4809 H4793 0.930 . S
C4809 C4808 1.377 . S
C4809 C4810 1.379 . S
C4810 H4794 0.931 . S
C4810 C4804 1.383 . S
C4810 C4809 1.379 . S
H4811 C4805 0.959 . S
H4812 C4805 0.961 . S
H4813 C4805 0.960 . S
H4814 C4806 0.930 . S
H4815 C4807 0.929 . S
H4816 C4824 0.929 . S
H4817 C4826 0.930 . S
H4818 C4828 0.930 . S
H4819 C4831 0.929 . S
H4820 C4834 0.930 . S
H4821 C4836 0.960 . S
H4822 C4836 0.960 . S
H4823 C4836 0.960 . S
C4824 H4816 0.929 . S
C4824 C4825 1.377 . S
C4824 C4826 1.384 . S
C4825 C4824 1.377 . S
C4825 C4831 1.390 . S
C4826 H4817 0.930 . S
C4826 C4824 1.384 . S
C4826 C4827 1.372 . S
C4827 C4826 1.372 . S
C4827 C4828 1.400 . S
C4827 C4832 1.490 . S
C4828 H4818 0.930 . S
C4828 C4827 1.400 . S
C4828 C4831 1.386 . S
H4829 C4845 0.930 . S
H4830 C4846 0.931 . S
C4831 H4819 0.929 . S
C4831 C4825 1.390 . S
C4831 C4828 1.386 . S
C4832 C4827 1.490 . S
C4832 C4834 1.395 . S
C4832 C4835 1.403 . S
H4833 C4839 0.930 . S
C4834 H4820 0.930 . S
C4834 C4832 1.395 . S
C4834 C4837 1.403 . S
C4835 C4832 1.403 . S
C4835 C4836 1.524 . S
C4835 C4839 1.400 . S
C4836 H4821 0.960 . S
C4836 H4822 0.960 . S
C4836 H4823 0.960 . S
C4836 C4835 1.524 . S
C4837 C4834 1.403 . S
C4837 C4838 1.392 . S
C4837 C4841 1.495 . S
C4838 C4837 1.392 . S
C4838 C4839 1.385 . S
C4838 C4840 1.478 . S
C4839 H4833 0.930 . S
C4839 C4835 1.400 . S
C4839 C4838 1.385 . S
C4840 C4838 1.478 . S
C4840 C4842 1.381 . S
C4840 C4846 1.383 . S
C4841 C4837 1.495 . S
C4841 H4847 0.959 . S
C4841 H4848 0.961 . S
C4841 H4849 0.960 . S
C4842 C4840 1.381 . S
C4842 C4843 1.394 . S
C4842 H4850 0.930 . S
C4843 C4842 1.394 . S
C4843 C4844 1.383 . S
C4843 H4851 0.929 . S
C4844 C4843 1.383 . S
C4844 C4845 1.377 . S
C4845 H4829 0.930 . S
C4845 C4844 1.377 . S
C4845 C4846 1.379 . S
C4846 H4830 0.931 . S
C4846 C4840 1.383 . S
C4846 C4845 1.379 . S
H4847 C4841 0.959 . S
H4848 C4841 0.961 . S
H4849 C4841 0.960 . S
H4850 C4842 0.930 . S
H4851 C4843 0.929 . S
H4852 C4860 0.929 . S
H4853 C4862 0.930 . S
H4854 C4864 0.930 . S
H4855 C4867 0.929 . S
H4856 C4870 0.930 1_556 S
H4857 C4872 0.960 . S
H4858 C4872 0.960 . S
H4859 C4872 0.960 . S
C4860 H4852 0.929 . S
C4860 C4861 1.377 . S
C4860 C4862 1.384 . S
C4861 C4860 1.377 . S
C4861 C4867 1.390 . S
C4862 H4853 0.930 . S
C4862 C4860 1.384 . S
C4862 C4863 1.372 . S
C4863 C4862 1.372 . S
C4863 C4864 1.400 . S
C4863 C4868 1.490 . S
C4864 H4854 0.930 . S
C4864 C4863 1.400 . S
C4864 C4867 1.386 . S
H4865 C4881 0.930 . S
H4866 C4882 0.931 . S
C4867 H4855 0.929 . S
C4867 C4861 1.390 . S
C4867 C4864 1.386 . S
C4868 C4863 1.490 . S
C4868 C4870 1.395 . S
C4868 C4871 1.403 . S
H4869 C4875 0.930 . S
C4870 H4856 0.930 1_554 S
C4870 C4868 1.395 . S
C4870 C4873 1.401 1_554 S
C4871 C4868 1.403 . S
C4871 C4872 1.524 . S
C4871 C4875 1.400 . S
C4872 H4857 0.960 . S
C4872 H4858 0.960 . S
C4872 H4859 0.960 . S
C4872 C4871 1.524 . S
C4873 C4870 1.401 1_556 S
C4873 C4874 1.383 1_556 S
C4873 C4877 1.507 . S
C4874 C4873 1.383 1_554 S
C4874 C4875 1.385 . S
C4874 C4876 1.478 . S
C4875 H4869 0.930 . S
C4875 C4871 1.400 . S
C4875 C4874 1.385 . S
C4876 C4874 1.478 . S
C4876 C4878 1.381 . S
C4876 C4882 1.383 1_554 S
C4877 C4873 1.507 . S
C4877 H4883 0.959 . S
C4877 H4884 0.961 . S
C4877 H4885 0.960 . S
C4878 C4876 1.381 . S
C4878 C4879 1.394 . S
C4878 H4886 0.930 . S
C4879 C4878 1.394 . S
C4879 C4880 1.381 . S
C4879 H4887 0.929 . S
C4880 C4879 1.381 . S
C4880 C4881 1.379 1_554 S
C4881 H4865 0.930 . S
C4881 C4880 1.379 1_556 S
C4881 C4882 1.379 . S
C4882 H4866 0.931 . S
C4882 C4876 1.383 1_556 S
C4882 C4881 1.379 . S
H4883 C4877 0.959 . S
H4884 C4877 0.961 . S
H4885 C4877 0.960 . S
H4886 C4878 0.930 . S
H4887 C4879 0.929 . S
H4888 C4896 0.929 . S
H4889 C4898 0.930 . S
H4890 C4900 0.930 . S
H4891 C4903 0.929 . S
H4892 C4906 0.930 . S
H4893 C4908 0.960 . S
H4894 C4908 0.960 . S
H4895 C4908 0.960 . S
C4896 H4888 0.929 . S
C4896 C4897 1.377 . S
C4896 C4898 1.384 . S
C4897 C4896 1.377 . S
C4897 C4903 1.390 . S
C4898 H4889 0.930 . S
C4898 C4896 1.384 . S
C4898 C4899 1.372 . S
C4899 C4898 1.372 . S
C4899 C4900 1.400 . S
C4899 C4904 1.490 . S
C4900 H4890 0.930 . S
C4900 C4899 1.400 . S
C4900 C4903 1.386 . S
H4901 C4917 0.930 . S
H4902 C4918 0.931 . S
C4903 H4891 0.929 . S
C4903 C4897 1.390 . S
C4903 C4900 1.386 . S
C4904 C4899 1.490 . S
C4904 C4906 1.395 . S
C4904 C4907 1.403 . S
H4905 C4911 0.930 . S
C4906 H4892 0.930 . S
C4906 C4904 1.395 . S
C4906 C4909 1.403 . S
C4907 C4904 1.403 . S
C4907 C4908 1.524 . S
C4907 C4911 1.400 . S
C4908 H4893 0.960 . S
C4908 H4894 0.960 . S
C4908 H4895 0.960 . S
C4908 C4907 1.524 . S
C4909 C4906 1.403 . S
C4909 C4910 1.392 . S
C4909 C4913 1.495 . S
C4910 C4909 1.392 . S
C4910 C4911 1.385 . S
C4910 C4912 1.478 . S
C4911 H4905 0.930 . S
C4911 C4907 1.400 . S
C4911 C4910 1.385 . S
C4912 C4910 1.478 . S
C4912 C4914 1.381 . S
C4912 C4918 1.383 . S
C4913 C4909 1.495 . S
C4913 H4919 0.959 . S
C4913 H4920 0.961 . S
C4913 H4921 0.960 . S
C4914 C4912 1.381 . S
C4914 C4915 1.394 . S
C4914 H4922 0.930 . S
C4915 C4914 1.394 . S
C4915 C4916 1.383 . S
C4915 H4923 0.929 . S
C4916 C4915 1.383 . S
C4916 C4917 1.377 . S
C4917 H4901 0.930 . S
C4917 C4916 1.377 . S
C4917 C4918 1.379 . S
C4918 H4902 0.931 . S
C4918 C4912 1.383 . S
C4918 C4917 1.379 . S
H4919 C4913 0.959 . S
H4920 C4913 0.961 . S
H4921 C4913 0.960 . S
H4922 C4914 0.930 . S
H4923 C4915 0.929 . S
H4924 C4932 0.929 . S
H4925 C4934 0.930 . S
H4926 C4936 0.930 . S
H4927 C4939 0.929 . S
H4928 C4942 0.930 . S
H4929 C4944 0.960 . S
H4930 C4944 0.960 . S
H4931 C4944 0.960 . S
C4932 H4924 0.929 . S
C4932 C4933 1.377 . S
C4932 C4934 1.384 . S
C4933 C4932 1.377 . S
C4933 C4939 1.390 . S
C4934 H4925 0.930 . S
C4934 C4932 1.384 . S
C4934 C4935 1.372 . S
C4935 C4934 1.372 . S
C4935 C4936 1.400 . S
C4935 C4940 1.490 . S
C4936 H4926 0.930 . S
C4936 C4935 1.400 . S
C4936 C4939 1.386 . S
H4937 C4953 0.930 . S
H4938 C4954 0.931 . S
C4939 H4927 0.929 . S
C4939 C4933 1.390 . S
C4939 C4936 1.386 . S
C4940 C4935 1.490 . S
C4940 C4942 1.395 . S
C4940 C4943 1.403 . S
H4941 C4947 0.930 . S
C4942 H4928 0.930 . S
C4942 C4940 1.395 . S
C4942 C4945 1.403 . S
C4943 C4940 1.403 . S
C4943 C4944 1.524 . S
C4943 C4947 1.400 . S
C4944 H4929 0.960 . S
C4944 H4930 0.960 . S
C4944 H4931 0.960 . S
C4944 C4943 1.524 . S
C4945 C4942 1.403 . S
C4945 C4946 1.392 . S
C4945 C4949 1.495 . S
C4946 C4945 1.392 . S
C4946 C4947 1.385 . S
C4946 C4948 1.478 . S
C4947 H4941 0.930 . S
C4947 C4943 1.400 . S
C4947 C4946 1.385 . S
C4948 C4946 1.478 . S
C4948 C4950 1.381 . S
C4948 C4954 1.383 . S
C4949 C4945 1.495 . S
C4949 H4955 0.959 . S
C4949 H4956 0.961 . S
C4949 H4957 0.960 . S
C4950 C4948 1.381 . S
C4950 C4951 1.394 . S
C4950 H4958 0.930 . S
C4951 C4950 1.394 . S
C4951 C4952 1.383 . S
C4951 H4959 0.929 . S
C4952 C4951 1.383 . S
C4952 C4953 1.377 . S
C4953 H4937 0.930 . S
C4953 C4952 1.377 . S
C4953 C4954 1.379 . S
C4954 H4938 0.931 . S
C4954 C4948 1.383 . S
C4954 C4953 1.379 . S
H4955 C4949 0.959 . S
H4956 C4949 0.961 . S
H4957 C4949 0.960 . S
H4958 C4950 0.930 . S
H4959 C4951 0.929 . S
C1513 C255 2.200 . S
C1532 C874 2.123 . S
C1549 C147 2.021 . S
C1568 C922 2.009 . S
C1585 C184 1.085 . S
C1604 C954 1.107 . S
C1640 C999 1.546 . S
C1621 C220 1.572 . S
C1657 C40 0.835 . S
C1676 C1039 0.840 . S
C1712 C1074 0.835 . S
C1693 C74 0.862 . S
C1748 C1113 1.147 . S
C1729 C110 1.170 . S
C1765 C14 1.157 . S
C1784 C1150 1.173 . S
C1820 C882 1.997 . S
C1801 C579 2.005 . S
C1837 C616 0.437 . S
C1856 C919 0.532 . S
C1892 C962 2.481 . S
C1873 C687 2.505 . S
C1928 C994 1.005 . S
C1909 C436 1.035 . S
C1945 C580 1.136 . S
C1964 C1034 1.125 . S
C2000 C1082 0.529 . S
C1981 C615 0.493 . S
C2036 C1123 1.874 . S
C2017 C688 1.951 . S
C2072 C1153 1.917 . S
C2053 C435 1.942 . S
C2108 C879 1.086 . S
C2089 C410 1.080 . S
C2125 C722 2.260 . S
C2144 C1202 2.224 . S
C2180 C1239 1.199 . S
C2161 C842 1.197 . S
C2216 C1270 0.409 . S
C2197 C794 0.268 . S
C2233 C302 2.784 . S
C2252 C1163 2.795 . S
C2269 C338 1.421 . S
C2288 C959 1.429 . S
C2305 C830 1.870 . S
C2324 C1322 1.841 . S
C2360 C1354 1.768 . S
C2341 C758 1.783 . S
C2396 C883 2.102 . S
C2377 C158 2.096 . S
C2432 C1353 1.983 . S
C2413 C254 1.990 . S
C2449 C218 1.061 . S
C2468 C963 1.031 . S
C2485 C194 1.480 . S
C2504 C1310 1.504 . S
C2540 C1030 0.817 . S
C2521 C3 0.817 . S
C2557 C111 0.672 . S
C2576 C1243 0.643 . S
C2612 C1122 1.148 . S
C2593 C76 1.146 . S
C2648 C1399 1.218 . S
C2629 C50 1.164 . S
C2684 C873 1.942 . S
C2665 C364 1.957 . S
C2720 C1350 0.484 . S
C2701 C795 0.314 . S
C2737 C292 2.426 . S
C2756 C953 2.409 . S
C2773 C723 0.948 . S
C2792 C1323 0.940 . S
C2809 C363 1.084 . S
C2828 C1043 1.092 . S
C2864 C1233 0.515 . S
C2845 C796 0.490 . S
C2881 C291 1.904 . S
C2900 C1114 1.817 . S
C2917 C724 1.941 . S
C2936 C1402 1.920 . S
C2953 C482 1.035 . S
C2972 C870 1.069 . S
C2989 C434 2.214 . S
C3008 C1193 2.199 . S
C3025 C662 1.137 . S
C3044 C1070 1.169 . S
C3061 C614 0.252 . S
C3080 C1279 0.429 . S
C3116 C1394 2.803 . S
C3097 C698 2.803 . S
C3133 C554 1.363 . S
C3152 C950 1.418 . S
C3188 C993 1.783 . S
C3169 C650 1.802 . S
C3224 C923 1.708 . S
C3205 C506 1.738 . S
C3241 C183 2.198 . S
C3260 C1434 2.139 . S
C3296 C1362 2.009 . S
C3277 C219 2.019 . S
C3313 C256 1.078 . S
C3332 C1474 1.099 . S
C3349 C148 1.567 1_655 S
C3368 C1319 1.538 . S
C3385 C122 0.860 . S
C3404 C1199 0.889 . S
C3440 C1234 0.779 . S
C3421 C2 0.748 . S
C3476 C1273 1.057 . S
C3457 C39 1.041 . S
C3512 C1390 1.217 . S
C3493 C86 1.213 . S
C3548 C1442 1.999 . S
C3529 C651 2.019 . S
C3565 C472 0.441 . S
C3584 C1359 0.539 . S
C3620 C1482 2.452 . S
C3601 C507 2.494 . S
C3656 C1314 1.027 . S
C3637 C544 1.038 . S
C3692 C1194 1.101 . S
C3673 C652 1.130 . S
C3709 C471 0.460 . S
C3728 C1242 0.514 . S
C3764 C1283 1.842 . S
C3745 C508 1.941 . S
C3781 C543 1.966 . S
C3800 C1393 1.929 . S
C3836 C1439 1.119 . S
C3817 C806 1.105 . S
C3853 C326 2.237 . S
C3872 C1042 2.203 . S
C3908 C1079 1.193 . S
C3889 C374 1.180 . S
C3944 C1110 0.476 . S
C3925 C398 0.307 . S
C3980 C1403 2.816 . S
C3961 C770 2.789 . S
C3997 C734 1.402 . S
C4016 C1479 1.416 . S
C4052 C1002 1.846 . S
C4033 C362 1.860 . S
C4088 C914 1.788 . S
C4069 C290 1.805 . S
C4105 C230 2.101 . S
C4124 C1443 2.112 . S
C4160 C913 1.999 . S
C4141 C182 1.999 . S
C4177 C146 1.052 . S
C4196 C1483 1.068 . S
C4213 C266 1.472 . S
C4232 C990 1.515 . S
C4249 C75 0.876 . S
C4268 C1190 0.883 . S
C4304 C1083 0.799 . S
C4285 C38 0.790 . S
C4321 C4 1.057 . S
C4340 C1282 1.058 . S
C4357 C112 1.125 . S
C4376 C1159 1.114 . S
C4412 C1433 1.955 . S
C4393 C832 1.961 . S
C4429 C399 0.301 . S
C4448 C910 0.589 . S
C4484 C1473 2.411 . S
C4465 C760 2.423 . S
C4501 C327 0.940 . S
C4520 C1003 0.955 . S
C4537 C831 1.112 . S
C4556 C1203 1.073 . S
C4592 C1073 0.434 . S
C4573 C400 0.471 . S
C4609 C759 1.904 . S
C4628 C1274 1.832 . S
C4664 C1162 1.920 . S
C4645 C328 1.946 . S
C4700 C1430 1.081 . S
C4681 C626 1.051 . S
C4736 C1033 2.196 1_565 S
C4717 C542 2.213 . S
C4753 C590 1.094 . S
C4772 C1230 1.149 . S
C4808 C1119 0.413 . S
C4789 C470 0.228 . S
C4825 C518 2.788 . S
C4844 C1154 2.781 . S
C4861 C446 1.356 . S
C4880 C1470 1.410 . S
C4916 C1313 1.812 . S
C4897 C578 1.818 . S
C4952 C1363 1.708 . S
C4933 C686 1.710 . S
