# Generated by pormake.
# Topology ocu, (6,8)-cn, num edge types: 1
# Building blocks:
#     Node 0, Type 0, BuildingBlock: BETDEL_clean_sbu_0, # of connection points: 6
#     Node 1, Type 0, BuildingBlock: BETDEL_clean_sbu_0, # of connection points: 6
#     Node 2, Type 0, BuildingBlock: BETDEL_clean_sbu_0, # of connection points: 6
#     Node 3, Type 0, BuildingBlock: BETDEL_clean_sbu_0, # of connection points: 6
#     Node 4, Type 0, BuildingBlock: BETDEL_clean_sbu_0, # of connection points: 6
#     Node 5, Type 0, BuildingBlock: BETDEL_clean_sbu_0, # of connection points: 6
#     Node 6, Type 0, BuildingBlock: BETDEL_clean_sbu_0, # of connection points: 6
#     Node 7, Type 0, BuildingBlock: BETDEL_clean_sbu_0, # of connection points: 6
#     Node 8, Type 1, BuildingBlock: GIZVER_clean_sbu_0, # of connection points: 8
#     Node 9, Type 1, BuildingBlock: GIZVER_clean_sbu_0, # of connection points: 8
#     Node 10, Type 1, BuildingBlock: GIZVER_clean_sbu_0, # of connection points: 8
#     Node 11, Type 1, BuildingBlock: GIZVER_clean_sbu_0, # of connection points: 8
#     Node 12, Type 1, BuildingBlock: GIZVER_clean_sbu_0, # of connection points: 8
#     Node 13, Type 1, BuildingBlock: GIZVER_clean_sbu_0, # of connection points: 8
#     Edge 14, Type (0, 1), BuildingBlock: OJICUG_clean_linker_0, # of connection points: 2
#     Edge 15, Type (0, 1), BuildingBlock: OJICUG_clean_linker_0, # of connection points: 2
#     Edge 16, Type (0, 1), BuildingBlock: OJICUG_clean_linker_0, # of connection points: 2
#     Edge 17, Type (0, 1), BuildingBlock: OJICUG_clean_linker_0, # of connection points: 2
#     Edge 18, Type (0, 1), BuildingBlock: OJICUG_clean_linker_0, # of connection points: 2
#     Edge 19, Type (0, 1), BuildingBlock: OJICUG_clean_linker_0, # of connection points: 2
#     Edge 20, Type (0, 1), BuildingBlock: OJICUG_clean_linker_0, # of connection points: 2
#     Edge 21, Type (0, 1), BuildingBlock: OJICUG_clean_linker_0, # of connection points: 2
#     Edge 22, Type (0, 1), BuildingBlock: OJICUG_clean_linker_0, # of connection points: 2
#     Edge 23, Type (0, 1), BuildingBlock: OJICUG_clean_linker_0, # of connection points: 2
#     Edge 24, Type (0, 1), BuildingBlock: OJICUG_clean_linker_0, # of connection points: 2
#     Edge 25, Type (0, 1), BuildingBlock: OJICUG_clean_linker_0, # of connection points: 2
#     Edge 26, Type (0, 1), BuildingBlock: OJICUG_clean_linker_0, # of connection points: 2
#     Edge 27, Type (0, 1), BuildingBlock: OJICUG_clean_linker_0, # of connection points: 2
#     Edge 28, Type (0, 1), BuildingBlock: OJICUG_clean_linker_0, # of connection points: 2
#     Edge 29, Type (0, 1), BuildingBlock: OJICUG_clean_linker_0, # of connection points: 2
#     Edge 30, Type (0, 1), BuildingBlock: OJICUG_clean_linker_0, # of connection points: 2
#     Edge 31, Type (0, 1), BuildingBlock: OJICUG_clean_linker_0, # of connection points: 2
#     Edge 32, Type (0, 1), BuildingBlock: OJICUG_clean_linker_0, # of connection points: 2
#     Edge 33, Type (0, 1), BuildingBlock: OJICUG_clean_linker_0, # of connection points: 2
#     Edge 34, Type (0, 1), BuildingBlock: OJICUG_clean_linker_0, # of connection points: 2
#     Edge 35, Type (0, 1), BuildingBlock: OJICUG_clean_linker_0, # of connection points: 2
#     Edge 36, Type (0, 1), BuildingBlock: OJICUG_clean_linker_0, # of connection points: 2
#     Edge 37, Type (0, 1), BuildingBlock: OJICUG_clean_linker_0, # of connection points: 2
#     Edge 38, Type (0, 1), BuildingBlock: OJICUG_clean_linker_0, # of connection points: 2
#     Edge 39, Type (0, 1), BuildingBlock: OJICUG_clean_linker_0, # of connection points: 2
#     Edge 40, Type (0, 1), BuildingBlock: OJICUG_clean_linker_0, # of connection points: 2
#     Edge 41, Type (0, 1), BuildingBlock: OJICUG_clean_linker_0, # of connection points: 2
#     Edge 42, Type (0, 1), BuildingBlock: OJICUG_clean_linker_0, # of connection points: 2
#     Edge 43, Type (0, 1), BuildingBlock: OJICUG_clean_linker_0, # of connection points: 2
#     Edge 44, Type (0, 1), BuildingBlock: OJICUG_clean_linker_0, # of connection points: 2
#     Edge 45, Type (0, 1), BuildingBlock: OJICUG_clean_linker_0, # of connection points: 2
#     Edge 46, Type (0, 1), BuildingBlock: OJICUG_clean_linker_0, # of connection points: 2
#     Edge 47, Type (0, 1), BuildingBlock: OJICUG_clean_linker_0, # of connection points: 2
#     Edge 48, Type (0, 1), BuildingBlock: OJICUG_clean_linker_0, # of connection points: 2
#     Edge 49, Type (0, 1), BuildingBlock: OJICUG_clean_linker_0, # of connection points: 2
#     Edge 50, Type (0, 1), BuildingBlock: OJICUG_clean_linker_0, # of connection points: 2
#     Edge 51, Type (0, 1), BuildingBlock: OJICUG_clean_linker_0, # of connection points: 2
#     Edge 52, Type (0, 1), BuildingBlock: OJICUG_clean_linker_0, # of connection points: 2
#     Edge 53, Type (0, 1), BuildingBlock: OJICUG_clean_linker_0, # of connection points: 2
#     Edge 54, Type (0, 1), BuildingBlock: OJICUG_clean_linker_0, # of connection points: 2
#     Edge 55, Type (0, 1), BuildingBlock: OJICUG_clean_linker_0, # of connection points: 2
#     Edge 56, Type (0, 1), BuildingBlock: OJICUG_clean_linker_0, # of connection points: 2
#     Edge 57, Type (0, 1), BuildingBlock: OJICUG_clean_linker_0, # of connection points: 2
#     Edge 58, Type (0, 1), BuildingBlock: OJICUG_clean_linker_0, # of connection points: 2
#     Edge 59, Type (0, 1), BuildingBlock: OJICUG_clean_linker_0, # of connection points: 2
#     Edge 60, Type (0, 1), BuildingBlock: OJICUG_clean_linker_0, # of connection points: 2
#     Edge 61, Type (0, 1), BuildingBlock: OJICUG_clean_linker_0, # of connection points: 2
# Relax obj value: 0.137
# Max RMSD: 0.263
# Mean RMSD: 0.182
data_MOF--net-ocu--node1-BETDEL_clean_sbu_0--node2-GIZVER_clean_sbu_0--edge1-OJICUG_clean_linker_0
_symmetry_space_group_name_H-M    P1
_symmetry_Int_Tables_number       1
_symmetry_cell_setting            triclinic
loop_
_symmetry_equiv_pos_as_xyz
'x, y, z'
_cell_length_a     30.98748
_cell_length_b     32.760316
_cell_length_c     22.799875
_cell_angle_alpha  91.41841
_cell_angle_beta   92.501699
_cell_angle_gamma 109.95058
loop_
_atom_site_label
_atom_site_type_symbol
_atom_site_fract_x
_atom_site_fract_y
_atom_site_fract_z
_atom_type_partial_charge
Dy0 Dy 0.30823 0.27085 0.29963 0.0
C1 C 0.21159 0.30286 0.11372 0.0
C2 C 0.34866 0.23831 0.38629 0.0
Dy3 Dy 0.25088 0.26525 0.19583 0.0
O4 O 0.36983 0.27192 0.3565 0.0
O5 O 0.30511 0.22537 0.37171 0.0
O6 O 0.34701 0.34148 0.28847 0.0
O7 O 0.32459 0.29937 0.21358 0.0
C8 C 0.34461 0.33875 0.2312 0.0
C9 C 0.21542 0.19666 0.26329 0.0
O10 O 0.29083 0.2278 0.15189 0.0
O11 O 0.32773 0.22322 0.24014 0.0
O12 O 0.19075 0.26594 0.13716 0.0
O13 O 0.25473 0.31602 0.13076 0.0
O14 O 0.21217 0.19447 0.20595 0.0
O15 O 0.2348 0.23602 0.28156 0.0
O16 O 0.26806 0.30812 0.34375 0.0
O17 O 0.22916 0.31042 0.25642 0.0
C18 C 0.31915 0.21287 0.18291 0.0
C19 C 0.23827 0.32146 0.31328 0.0
Dy20 Dy 0.81555 0.24538 0.24992 0.0
C21 C 0.68265 0.32304 0.22436 0.0
C22 C 0.88049 0.20938 0.27509 0.0
Dy23 Dy 0.74933 0.29192 0.2559 0.0
O24 O 0.85859 0.20574 0.22434 0.0
O25 O 0.86635 0.23191 0.31231 0.0
O26 O 0.78929 0.22112 0.15613 0.0
O27 O 0.745 0.23054 0.21601 0.0
C28 C 0.74781 0.22092 0.16321 0.0
C29 C 0.81117 0.315 0.34723 0.0
O30 O 0.70861 0.23049 0.29623 0.0
O31 O 0.76917 0.20591 0.31548 0.0
O32 O 0.70039 0.32592 0.27759 0.0
O33 O 0.70264 0.30506 0.18828 0.0
O34 O 0.76806 0.31081 0.35032 0.0
O35 O 0.81861 0.30671 0.2948 0.0
O36 O 0.85879 0.30674 0.2132 0.0
O37 O 0.80223 0.33743 0.19964 0.0
C38 C 0.72606 0.20323 0.32137 0.0
C39 C 0.84489 0.33803 0.19382 0.0
Dy40 Dy 0.75623 0.77179 0.30264 0.0
C41 C 0.83676 0.72757 0.10265 0.0
C42 C 0.72755 0.81303 0.3899 0.0
Dy43 Dy 0.80474 0.76491 0.19073 0.0
O44 O 0.70778 0.77237 0.37285 0.0
O45 O 0.76448 0.82996 0.36152 0.0
O46 O 0.70564 0.70403 0.28402 0.0
O47 O 0.73428 0.74391 0.21508 0.0
C48 C 0.70938 0.70639 0.22736 0.0
C49 C 0.85206 0.82929 0.26808 0.0
O50 O 0.75913 0.79977 0.151 0.0
O51 O 0.7384 0.81912 0.24134 0.0
O52 O 0.85398 0.7683 0.12012 0.0
O53 O 0.80062 0.70811 0.13132 0.0
O54 O 0.85581 0.83245 0.21156 0.0
O55 O 0.82654 0.79175 0.2787 0.0
O56 O 0.80114 0.73596 0.34133 0.0
O57 O 0.82117 0.71613 0.25066 0.0
C58 C 0.73873 0.82183 0.18293 0.0
C59 C 0.82083 0.71339 0.30905 0.0
Dy60 Dy 0.31417 0.75063 0.22924 0.0
C61 C 0.20797 0.83699 0.3316 0.0
C62 C 0.35844 0.70972 0.16248 0.0
Dy63 Dy 0.24937 0.79885 0.25877 0.0
O64 O 0.37451 0.72972 0.21292 0.0
O65 O 0.31798 0.71123 0.14925 0.0
O66 O 0.35424 0.77367 0.31744 0.0
O67 O 0.32102 0.81073 0.27542 0.0
C68 C 0.3425 0.80821 0.32198 0.0
C69 C 0.22144 0.74549 0.1637 0.0
O70 O 0.30243 0.85174 0.21418 0.0
O71 O 0.33075 0.80446 0.16534 0.0
O72 O 0.19765 0.83069 0.2753 0.0
O73 O 0.24076 0.82296 0.34761 0.0
O74 O 0.21326 0.78186 0.16974 0.0
O75 O 0.24133 0.73906 0.21018 0.0
O76 O 0.26654 0.69848 0.27984 0.0
O77 O 0.22431 0.7397 0.31413 0.0
C78 C 0.32893 0.84395 0.17443 0.0
C79 C 0.23382 0.70311 0.31207 0.0
Dy80 Dy 0.31605 0.73814 0.74013 0.0
C81 C 0.18448 0.81996 0.71819 0.0
C82 C 0.38275 0.70721 0.77247 0.0
Dy83 Dy 0.2495 0.78435 0.7448 0.0
O84 O 0.36538 0.70446 0.71907 0.0
O85 O 0.36247 0.72508 0.80829 0.0
O86 O 0.29727 0.71785 0.64611 0.0
O87 O 0.24657 0.72267 0.70102 0.0
C88 C 0.25414 0.71366 0.64891 0.0
C89 C 0.31706 0.80945 0.83186 0.0
O90 O 0.20653 0.72313 0.78205 0.0
O91 O 0.26364 0.69335 0.79745 0.0
O92 O 0.20578 0.82357 0.76936 0.0
O93 O 0.19922 0.79764 0.68139 0.0
O94 O 0.27551 0.80917 0.83861 0.0
O95 O 0.31996 0.7997 0.77913 0.0
O96 O 0.35672 0.79937 0.69941 0.0
O97 O 0.296 0.82349 0.67907 0.0
C98 C 0.22083 0.69242 0.80265 0.0
C99 C 0.33921 0.82636 0.67366 0.0
Dy100 Dy 0.26004 0.26558 0.80197 0.0
C101 C 0.33747 0.21741 0.60292 0.0
C102 C 0.22832 0.30342 0.88997 0.0
Dy103 Dy 0.30858 0.25882 0.68981 0.0
O104 O 0.21098 0.26263 0.87277 0.0
O105 O 0.2644 0.32268 0.86108 0.0
O106 O 0.20883 0.19815 0.78136 0.0
O107 O 0.23821 0.23862 0.71389 0.0
C108 C 0.21256 0.20117 0.72482 0.0
C109 C 0.35531 0.32412 0.76553 0.0
O110 O 0.26364 0.2945 0.65113 0.0
O111 O 0.24358 0.31424 0.74186 0.0
O112 O 0.35712 0.25814 0.61976 0.0
O113 O 0.30047 0.20055 0.63121 0.0
O114 O 0.35914 0.32663 0.70887 0.0
O115 O 0.33038 0.28652 0.77733 0.0
O116 O 0.3059 0.23078 0.84146 0.0
O117 O 0.32675 0.21179 0.75101 0.0
C118 C 0.24394 0.31698 0.68347 0.0
C119 C 0.32655 0.20902 0.80939 0.0
Dy120 Dy 0.81964 0.23064 0.73798 0.0
C121 C 0.70953 0.31763 0.83767 0.0
C122 C 0.85755 0.19063 0.66289 0.0
Dy123 Dy 0.75635 0.27895 0.77115 0.0
O124 O 0.87095 0.19913 0.71818 0.0
O125 O 0.82324 0.20317 0.64914 0.0
O126 O 0.86058 0.24941 0.82363 0.0
O127 O 0.82984 0.29141 0.78559 0.0
C128 C 0.85209 0.28558 0.83035 0.0
C129 C 0.72451 0.21932 0.68138 0.0
O130 O 0.79899 0.32948 0.71414 0.0
O131 O 0.84239 0.28908 0.68089 0.0
O132 O 0.69105 0.28156 0.80679 0.0
O133 O 0.75325 0.33358 0.83024 0.0
O134 O 0.71423 0.2547 0.68472 0.0
O135 O 0.7471 0.21729 0.72726 0.0
O136 O 0.77063 0.1805 0.79071 0.0
O137 O 0.75456 0.23351 0.84381 0.0
C138 C 0.83158 0.325 0.68156 0.0
C139 C 0.75149 0.19244 0.83579 0.0
Dy140 Dy 0.81399 0.7638 0.79721 0.0
C141 C 0.716 0.79007 0.60643 0.0
C142 C 0.85409 0.72675 0.87928 0.0
Dy143 Dy 0.75631 0.75766 0.69327 0.0
O144 O 0.87454 0.7637 0.85569 0.0
O145 O 0.81093 0.71314 0.86228 0.0
O146 O 0.85222 0.83471 0.78713 0.0
O147 O 0.82965 0.79323 0.71152 0.0
C148 C 0.84889 0.83261 0.72979 0.0
C149 C 0.72098 0.68964 0.76162 0.0
O150 O 0.79666 0.72072 0.64915 0.0
O151 O 0.83596 0.71892 0.7364 0.0
O152 O 0.69477 0.75648 0.63625 0.0
O153 O 0.75954 0.80301 0.62107 0.0
O154 O 0.71841 0.6869 0.70433 0.0
O155 O 0.74046 0.72909 0.77928 0.0
O156 O 0.77309 0.80046 0.84099 0.0
O157 O 0.73534 0.80414 0.75293 0.0
C158 C 0.82672 0.70774 0.67959 0.0
C159 C 0.74399 0.81457 0.81012 0.0
Co160 Co 0.0644 0.92955 0.50548 0.0
Co161 Co 0.06606 0.97586 0.60012 0.0
Co162 Co 1.03222 0.01494 0.49671 0.0
O163 O 0.07685 0.98913 0.52331 0.0
H164 H 0.10824 1.00758 0.51881 0.0
O165 O 0.9876 0.04069 0.46995 0.0
Co166 Co 1.00004 0.10039 0.48659 0.0
Co167 Co 0.99851 0.0531 0.39271 0.0
H168 H 0.95618 0.02229 0.47461 0.0
O169 O 0.1102 0.96923 0.64814 0.0
O170 O 0.05638 0.91698 0.59069 0.0
O171 O 1.01441 0.98407 0.63534 0.0
O172 O 0.98049 0.97464 0.54652 0.0
O173 O 0.05336 0.05746 0.56337 0.0
O174 O 1.00544 0.15383 0.5031 0.0
O175 O 0.94149 0.09603 0.47804 0.0
O176 O 0.06426 0.11254 0.50578 0.0
O177 O 0.08392 0.05523 0.44693 0.0
O178 O 0.05022 0.04456 0.35799 0.0
O179 O 1.00863 0.1121 0.40125 0.0
O180 O 0.95467 0.05983 0.34411 0.0
C181 C 0.10329 0.89493 0.48954 0.0
C182 C 0.99061 0.93289 0.43965 0.0
C183 C 0.9782 0.96956 0.60239 0.0
C184 C 0.08952 0.92859 0.63196 0.0
C185 C 0.96106 0.13528 0.50086 0.0
C186 C 0.07373 0.09711 0.55365 0.0
C187 C 0.08632 0.05974 0.391 0.0
C188 C 0.97556 0.1005 0.3599 0.0
O189 O 0.05894 0.87627 0.4876 0.0
O190 O 0.12299 0.93395 0.513 0.0
O191 O 1.01109 0.97251 0.43 0.0
O192 O 1.00012 0.91739 0.4874 0.0
Co193 Co 0.58553 0.93355 0.95934 0.0
Co194 Co 0.58485 0.95661 0.06387 0.0
Co195 Co 0.53315 0.01591 0.99298 0.0
O196 O 0.58493 0.98872 -0.00151 0.0
H197 H 0.61472 1.01111 0.99673 0.0
O198 O 0.48121 0.04317 0.98761 0.0
Co199 Co 0.47805 0.09555 0.03309 0.0
Co200 Co 0.48952 0.08305 0.93016 0.0
H201 H 0.45119 0.02094 0.98213 0.0
O202 O 0.63862 0.96076 0.10389 0.0
O203 O 0.59751 0.90768 0.0373 0.0
O204 O 0.52954 0.94144 0.10441 0.0
O205 O 0.49969 0.98765 0.06295 0.0
O206 O 0.5745 0.06666 0.04275 0.0
O207 O 0.47167 0.13979 0.07661 0.0
O208 O 0.41441 0.08031 0.04199 0.0
O209 O 0.5445 0.12023 0.0346 0.0
O210 O 0.56571 0.04418 0.92146 0.0
O211 O 0.55153 0.10586 0.90965 0.0
O212 O 0.46902 0.12661 0.95865 0.0
O213 O 0.44179 0.08032 0.87919 0.0
C214 C 0.63377 0.90854 0.92078 0.0
C215 C 0.48659 0.92401 0.94764 0.0
C216 C 0.49823 0.95812 0.09905 0.0
C217 C 0.63112 0.92279 0.07845 0.0
C218 C 0.42793 0.11781 0.07195 0.0
C219 C 0.57807 0.10675 0.04678 0.0
C220 C 0.57816 0.08392 0.90727 0.0
C221 C 0.44125 0.11371 0.91091 0.0
O222 O 0.59006 0.88634 0.92039 0.0
O223 O 0.64827 0.94764 0.94634 0.0
O224 O 0.49206 0.96448 0.94402 0.0
O225 O 0.51929 0.9102 0.96358 0.0
Co226 Co 0.07512 0.4333 0.99309 0.0
Co227 Co 0.09011 0.47865 0.09412 0.0
Co228 Co 0.03386 0.51601 6e-05 0.0
O229 O 0.08404 0.49219 0.01539 0.0
H230 H 0.11328 0.51182 0.00381 0.0
O231 O 0.98375 0.5398 0.98473 0.0
Co232 Co 0.99233 0.5987 0.00617 0.0
Co233 Co 0.97748 0.55264 0.90585 0.0
H234 H 0.95455 0.52019 0.99645 0.0
O235 O 0.14392 0.46937 0.12481 0.0
O236 O 0.08316 0.42129 0.07574 0.0
O237 O 0.03872 0.47559 0.14047 0.0
O238 O 0.99552 0.4848 0.06472 0.0
O239 O 0.06905 0.56657 0.05445 0.0
O240 O 0.99401 0.65188 0.02688 0.0
O241 O 0.93291 0.58982 0.01763 0.0
O242 O 0.05607 0.61536 -0.00176 0.0
O243 O 0.0721 0.54714 0.9354 0.0
O244 O 1.02832 0.55462 0.85917 0.0
O245 O 0.98439 0.61019 0.92304 0.0
O246 O 0.92365 0.56134 0.87476 0.0
C247 C 0.11696 0.40018 0.9681 0.0
C248 C 0.98738 0.42663 0.96217 0.0
C249 C 0.99992 0.47329 0.11699 0.0
C250 C 0.1229 0.43026 0.10311 0.0
C251 C 0.95003 0.63158 0.02974 0.0
C252 C 0.08078 0.60544 0.03727 0.0
C253 C 0.06731 0.55761 0.8827 0.0
C254 C 0.94459 0.60074 0.89549 0.0
O255 O 0.07299 0.38011 0.9715 0.0
O256 O 0.13444 0.44185 0.98083 0.0
O257 O 0.99874 0.46557 0.94547 0.0
O258 O 1.0117 0.41703 0.00192 0.0
Co259 Co 0.56769 0.4291 0.99619 0.0
Co260 Co 0.56971 0.47365 0.09245 0.0
Co261 Co 0.53313 0.51415 0.99652 0.0
O262 O 0.57887 0.488 0.01613 0.0
H263 H 0.61003 0.50705 0.01151 0.0
O264 O 0.48739 0.54052 0.97711 0.0
Co265 Co 0.49966 0.59954 -0.00158 0.0
Co266 Co 0.49634 0.55578 0.90128 0.0
H267 H 0.45621 0.52167 0.98198 0.0
O268 O 0.61511 0.46808 0.13733 0.0
O269 O 0.56004 0.41536 0.08099 0.0
O270 O 0.51933 0.48069 0.13311 0.0
O271 O 0.48305 0.47244 0.04629 0.0
O272 O 0.5573 0.55482 0.06522 0.0
O273 O 0.5051 0.65269 0.01972 0.0
O274 O 0.4406 0.59571 0.99476 0.0
O275 O 0.56388 0.61119 0.0115 0.0
O276 O 0.58318 0.55561 0.9465 0.0
O277 O 0.54644 0.5488 0.86006 0.0
O278 O 0.50596 0.61403 0.91382 0.0
O279 O 0.45067 0.56163 0.85728 0.0
C280 C 0.60817 0.39425 0.9803 0.0
C281 C 0.49114 0.43312 0.93546 0.0
C282 C 0.48214 0.46738 0.10203 0.0
C283 C 0.59257 0.4274 0.12294 0.0
C284 C 0.46063 0.63481 0.01811 0.0
C285 C 0.57574 0.59506 0.05716 0.0
C286 C 0.5838 0.56121 0.89086 0.0
C287 C 0.47301 0.60222 0.87239 0.0
O288 O 0.5637 0.37581 0.9766 0.0
O289 O 0.62686 0.43387 0.00234 0.0
O290 O 0.50914 0.47349 0.92792 0.0
O291 O 0.50327 0.41663 0.98067 0.0
Co292 Co 0.11635 0.46462 0.5318 0.0
Co293 Co 0.0892 0.46101 0.42607 0.0
Co294 Co 1.03226 0.51468 0.49636 0.0
O295 O 0.05742 0.46349 0.49223 0.0
H296 H 0.03325 0.43591 0.49629 0.0
O297 O 1.00711 0.56591 0.50037 0.0
Co298 Co 0.9483 0.56509 0.46045 0.0
Co299 Co 0.97488 0.56797 0.5662 0.0
H300 H 1.03133 0.5935 0.49672 0.0
O301 O 0.08704 0.40948 0.39088 0.0
O302 O 0.14312 0.45238 0.45466 0.0
O303 O 0.10696 0.51238 0.38333 0.0
O304 O 0.0749 0.551 0.43737 0.0
O305 O 0.9836 0.48509 0.43433 0.0
O306 O 0.89772 0.56782 0.42066 0.0
O307 O 0.9624 0.62368 0.44534 0.0
O308 O 0.92496 0.50275 0.46724 0.0
O309 O 0.98951 0.47813 0.55529 0.0
O310 O 0.95612 0.51624 0.608 0.0
O311 O 0.92144 0.57724 0.53746 0.0
O312 O 0.97749 0.61934 0.60199 0.0
C313 C 0.14392 0.42081 0.57239 0.0
C314 C 0.12375 0.55432 0.54919 0.0
C315 C 0.1013 0.54786 0.39706 0.0
C316 C 0.12816 0.41943 0.41559 0.0
C317 C 0.92082 0.60917 0.41991 0.0
C318 C 0.94089 0.47517 0.44376 0.0
C319 C 0.96225 0.48092 0.5947 0.0
C320 C 0.93653 0.60988 0.57697 0.0
O321 O 0.16702 0.46214 0.57141 0.0
O322 O 0.10232 0.40616 0.54706 0.0
O323 O 0.08099 0.54442 0.55841 0.0
O324 O 0.13955 0.52695 0.52486 0.0
Co325 Co 0.61106 0.96682 0.53791 0.0
Co326 Co 0.58143 0.96119 0.42787 0.0
Co327 Co 0.53306 0.01516 0.49886 0.0
O328 O 0.55595 0.96634 0.49834 0.0
H329 H 0.53144 0.93934 0.504 0.0
O330 O 0.51001 0.06392 0.49932 0.0
Co331 Co 0.45474 0.06286 0.45916 0.0
Co332 Co 0.48399 0.06901 0.56944 0.0
H333 H 0.53447 0.091 0.49384 0.0
O334 O 0.58237 0.90838 0.40152 0.0
O335 O 0.63591 0.95918 0.46021 0.0
O336 O 0.59703 1.00921 0.37822 0.0
O337 O 0.57808 0.05056 0.44399 0.0
O338 O 0.48944 0.98478 0.43282 0.0
O339 O 0.40572 0.06874 0.42237 0.0
O340 O 0.47333 0.12038 0.45103 0.0
O341 O 0.42845 0.99989 0.46005 0.0
O342 O 0.48809 0.9798 0.55379 0.0
O343 O 0.468 0.02086 0.61884 0.0
O344 O 0.42963 0.07092 0.53643 0.0
O345 O 0.48272 0.12186 0.5954 0.0
C346 C 0.63407 0.91966 0.56755 0.0
C347 C 0.62004 0.05604 0.5612 0.0
C348 C 0.59765 0.0459 0.39774 0.0
C349 C 0.6223 0.92217 0.42991 0.0
C350 C 0.43144 0.10959 0.42843 0.0
C351 C 0.44621 0.97364 0.43716 0.0
C352 C 0.46793 0.98429 0.59959 0.0
C353 C 0.44304 0.10805 0.56642 0.0
O354 O 0.66002 0.96042 0.57412 0.0
O355 O 0.59216 0.90924 0.54517 0.0
O356 O 0.57677 0.04549 0.56484 0.0
O357 O 0.63759 0.02975 0.53798 0.0
C358 C 0.16331 0.11926 0.2724 0.0
C359 C 0.18796 0.16004 0.2998 0.0
H360 H 0.11335 0.05578 0.27981 0.0
C361 C 0.18385 0.16527 0.36076 0.0
H362 H 0.16575 0.1136 0.22585 0.0
C363 C 0.15388 0.13137 0.39239 0.0
C364 C 0.12713 0.09147 0.36376 0.0
H365 H 0.2024 0.19611 0.38356 0.0
H366 H 0.14956 0.13739 0.4383 0.0
C367 C 0.13339 0.08577 0.30364 0.0
C368 C 0.9089 0.14847 0.25848 0.0
C369 C 0.91179 0.18627 0.29076 0.0
H370 H 0.9271 0.09132 0.25564 0.0
C371 C 0.94141 0.19927 0.34125 0.0
H372 H 0.88648 0.13813 0.21908 0.0
C373 C 0.96575 0.17311 0.36137 0.0
C374 C 0.95908 0.13293 0.33251 0.0
H375 H 0.94456 0.22885 0.36615 0.0
H376 H 0.98759 0.18327 0.40111 0.0
C377 C 0.93202 0.12171 0.27956 0.0
C378 C 0.91697 0.89736 0.29825 0.0
C379 C 0.88547 0.85735 0.31279 0.0
H380 H 0.97492 0.95266 0.32725 0.0
C381 C 0.88789 0.84266 0.36997 0.0
H382 H 0.91585 0.90935 0.25455 0.0
C383 C 0.92213 0.86693 0.41137 0.0
C384 C 0.95406 0.90673 0.39665 0.0
H385 H 0.86395 0.81187 0.3825 0.0
H386 H 0.92357 0.85453 0.45475 0.0
C387 C 0.95079 0.92198 0.33992 0.0
C388 C 0.20292 0.87271 0.42643 0.0
C389 C 0.18171 0.85122 0.37329 0.0
H390 H 0.19397 0.90394 0.50651 0.0
C391 C 0.13447 0.84038 0.36191 0.0
H392 H 0.23952 0.88063 0.43582 0.0
C393 C 0.10845 0.85162 0.40299 0.0
C394 C 0.12973 0.8751 0.45499 0.0
H395 H 0.11761 0.82297 0.32152 0.0
H396 H 0.07204 0.84399 0.39237 0.0
C397 C 0.17705 0.88542 0.46688 0.0
C398 C 0.15511 0.88028 0.73446 0.0
C399 C 0.1532 0.84295 0.70178 0.0
H400 H 0.13617 0.93703 0.73737 0.0
C401 C 0.12466 0.83035 0.65031 0.0
H402 H 0.1767 0.89032 0.77458 0.0
C403 C 0.1004 0.85645 0.62974 0.0
C404 C 0.10604 0.89617 0.65926 0.0
H405 H 0.12231 0.80115 0.62503 0.0
H406 H 0.07945 0.84666 0.58924 0.0
C407 C 0.13206 0.90699 0.71301 0.0
C408 C 0.14752 0.13304 0.69496 0.0
C409 C 0.17905 0.17299 0.68023 0.0
H410 H 0.08952 0.07767 0.66623 0.0
C411 C 0.17657 0.18751 0.62296 0.0
H412 H 0.14868 0.12117 0.73873 0.0
C413 C 0.14227 0.16314 0.58167 0.0
C414 C 0.11033 0.12338 0.59657 0.0
H415 H 0.2005 0.21825 0.61027 0.0
H416 H 0.1408 0.17542 0.53822 0.0
C417 C 0.11365 0.10831 0.6534 0.0
C418 C 0.86099 0.15387 0.56807 0.0
C419 C 0.88332 0.17763 0.6193 0.0
H420 H 0.86887 0.12141 0.48853 0.0
C421 C 0.93115 0.19206 0.62692 0.0
H422 H 0.82389 0.14334 0.56144 0.0
C423 C 0.95666 0.18167 0.58447 0.0
C424 C 0.93447 0.15535 0.5349 0.0
H425 H 0.94883 0.21147 0.66562 0.0
H426 H 0.99362 0.19198 0.5926 0.0
C427 C 0.88652 0.14201 0.52629 0.0
C428 C 0.88044 0.86414 0.63233 0.0
C429 C 0.87632 0.86929 0.69331 0.0
H430 H 0.91478 0.89209 0.55486 0.0
C431 C 0.901 0.91004 0.72078 0.0
H432 H 0.86188 0.83333 0.60947 0.0
C433 C 0.93097 0.94355 0.68961 0.0
C434 C 0.93724 0.93793 0.62947 0.0
H435 H 0.89858 0.91565 0.76735 0.0
H436 H 0.95106 0.97349 0.71351 0.0
C437 C 0.91044 0.89807 0.60076 0.0
C438 C 0.33006 0.16352 0.09871 0.0
C439 C 0.3442 0.18564 0.15416 0.0
H440 H 0.34381 0.12348 0.02989 0.0
C441 C 0.38399 0.1821 0.18277 0.0
H442 H 0.2997 0.16518 0.07502 0.0
C443 C 0.40948 0.15893 0.15655 0.0
C444 C 0.39581 0.13704 0.1012 0.0
H445 H 0.39649 0.1984 0.22524 0.0
H446 H 0.44065 0.15861 0.17967 0.0
C447 C 0.35516 0.13914 0.07295 0.0
C448 C 0.92378 0.39004 0.21141 0.0
C449 C 0.88132 0.37817 0.17911 0.0
H450 H 0.9941 0.4308 0.21902 0.0
C451 C 0.87594 0.40349 0.13272 0.0
H452 H 0.92859 0.37162 0.24832 0.0
C453 C 0.91406 0.43761 0.11529 0.0
C454 C 0.95768 0.44699 0.14473 0.0
H455 H 0.84331 0.39525 0.10781 0.0
H456 H 0.90995 0.45472 0.07658 0.0
C457 C 0.96137 0.42432 0.19489 0.0
C458 C 0.70426 0.8815 0.18575 0.0
C459 C 0.71244 0.84789 0.15367 0.0
H460 H 0.67342 0.9308 0.18767 0.0
C461 C 0.693 0.83846 0.09542 0.0
H462 H 0.7182 0.88985 0.2306 0.0
C463 C 0.66581 0.86165 0.0707 0.0
C464 C 0.65825 0.8957 0.10299 0.0
H465 H 0.69795 0.81251 0.06932 0.0
H466 H 0.65119 0.85324 0.02619 0.0
C467 C 0.67829 0.90515 0.16081 0.0
C468 C 0.16555 0.71761 0.07798 0.0
C469 C 0.19153 0.70924 0.12498 0.0
H470 H 0.11055 0.69138 0.01312 0.0
C471 C 0.18425 0.66589 0.13911 0.0
H472 H 0.17066 0.75066 0.06599 0.0
C473 C 0.14928 0.63171 0.10934 0.0
C474 C 0.12135 0.64034 0.06461 0.0
H475 H 0.20392 0.65848 0.17517 0.0
H476 H 0.14311 0.5988 0.12275 0.0
C477 C 0.13097 0.68353 0.04794 0.0
C478 C 0.40074 0.82924 0.85977 0.0
C479 C 0.35863 0.83518 0.86897 0.0
H480 H 0.4736 0.8515 0.87883 0.0
C481 C 0.3585 0.86912 0.90787 0.0
H482 H 0.40244 0.80441 0.82883 0.0
C483 C 0.4 0.89763 0.93464 0.0
C484 C 0.4421 0.89178 0.92458 0.0
H485 H 0.3268 0.87503 0.91521 0.0
H486 H 0.3993 0.92467 0.96242 0.0
C487 C 0.44175 0.85654 0.88812 0.0
C488 C 0.15659 0.30567 0.93248 0.0
C489 C 0.20277 0.32707 0.92091 0.0
H490 H 0.09303 0.31209 0.95545 0.0
C491 C 0.22162 0.37246 0.92941 0.0
H492 H 0.14116 0.2707 0.92613 0.0
C493 C 0.194 0.39629 0.94591 0.0
C494 C 0.14702 0.37511 0.95382 0.0
H495 H 0.25718 0.38975 0.92065 0.0
H496 H 0.20916 0.43135 0.95071 0.0
C497 C 0.12889 0.32948 0.94844 0.0
C498 C 0.6954 0.11655 0.84317 0.0
C499 C 0.71445 0.15989 0.86541 0.0
H500 H 0.63647 0.05754 0.83954 0.0
C501 C 0.69091 0.17491 0.90731 0.0
H502 H 0.71271 0.10406 0.81069 0.0
C503 C 0.64692 0.1495 0.92072 0.0
C504 C 0.62632 0.1075 0.8954 0.0
H505 H 0.70468 0.20779 0.92612 0.0
H506 H 0.6284 0.16338 0.94985 0.0
C507 C 0.65163 0.09016 0.85888 0.0
C508 C 0.85185 0.65139 0.89552 0.0
C509 C 0.87768 0.69598 0.89485 0.0
H510 H 0.85274 0.58628 0.89404 0.0
C511 C 0.92583 0.7091 0.89652 0.0
H512 H 0.81462 0.64022 0.89388 0.0
C513 C 0.94763 0.67807 0.89668 0.0
C514 C 0.92159 0.63345 0.89412 0.0
H515 H 0.94655 0.74318 0.8954 0.0
H516 H 0.98483 0.68894 0.89751 0.0
C517 C 0.87356 0.62042 0.89441 0.0
C518 C 0.21473 0.37869 0.09948 0.0
C519 C 0.18847 0.33416 0.09927 0.0
H520 H 0.2146 0.44406 0.10317 0.0
C521 C 0.14038 0.32147 0.09831 0.0
H522 H 0.25194 0.38952 0.10062 0.0
C523 C 0.11907 0.35282 0.0998 0.0
C524 C 0.14555 0.39733 0.10324 0.0
H525 H 0.11935 0.28744 0.0988 0.0
H526 H 0.08191 0.34226 0.09949 0.0
C527 C 0.1935 0.40999 0.10219 0.0
C528 C 0.19073 0.6279 0.86538 0.0
C529 C 0.18482 0.65237 0.81826 0.0
H530 H 0.15745 0.57738 0.92284 0.0
C531 C 0.14229 0.63967 0.78605 0.0
H532 H 0.22346 0.63679 0.89019 0.0
C533 C 0.10505 0.60542 0.8034 0.0
C534 C 0.10923 0.58367 0.85428 0.0
H535 H 0.13713 0.65741 0.74855 0.0
H536 H 0.0722 0.59829 0.77933 0.0
C537 C 0.15298 0.59381 0.88361 0.0
C538 C 0.37163 0.19195 0.89733 0.0
C539 C 0.35393 0.18379 0.83825 0.0
H540 H 0.41365 0.17754 0.96661 0.0
C541 C 0.36537 0.15268 0.80474 0.0
H542 H 0.36416 0.21598 0.9246 0.0
C543 C 0.39312 0.13051 0.82885 0.0
C544 C 0.41157 0.13881 0.88747 0.0
H545 H 0.35285 0.14533 0.75923 0.0
H546 H 0.40059 0.10695 0.80066 0.0
C547 C 0.40038 0.17008 0.92142 0.0
C548 C 0.90733 0.31361 0.91641 0.0
C549 C 0.8813 0.32182 0.86938 0.0
H550 H 0.9608 0.34029 0.983 0.0
C551 C 0.88714 0.36508 0.85636 0.0
H552 H 0.90324 0.28058 0.92752 0.0
C553 C 0.92065 0.39955 0.88765 0.0
C554 C 0.94844 0.39122 0.9328 0.0
H555 H 0.86736 0.37228 0.82023 0.0
H556 H 0.92571 0.43251 0.8753 0.0
C557 C 0.94038 0.34793 0.94801 0.0
C558 C 0.67542 0.84001 0.81314 0.0
C559 C 0.71784 0.84065 0.83906 0.0
H560 H 0.61641 0.85995 0.81836 0.0
C561 C 0.73377 0.86609 0.89183 0.0
H562 H 0.66151 0.82097 0.77282 0.0
C563 C 0.7081 0.89 0.91733 0.0
C564 C 0.66506 0.88815 0.89178 0.0
H565 H 0.76619 0.86768 0.91335 0.0
H566 H 0.72119 0.90867 0.9581 0.0
C567 C 0.64936 0.86261 0.83937 0.0
C568 C 0.84432 0.65867 0.06448 0.0
C569 C 0.86277 0.7041 0.07241 0.0
H570 H 0.8576 0.59992 0.04516 0.0
C571 C 0.90905 0.72573 0.06155 0.0
H572 H 0.80869 0.64122 0.07269 0.0
C573 C 0.93725 0.7021 0.04706 0.0
C574 C 0.91952 0.65645 0.04247 0.0
H575 H 0.92416 0.76074 0.06748 0.0
H576 H 0.97317 0.71965 0.04062 0.0
C577 C 0.87245 0.63502 0.04947 0.0
C578 C 0.37091 0.91019 0.12003 0.0
C579 C 0.37062 0.87948 0.16162 0.0
H580 H 0.41268 0.96078 0.06821 0.0
C581 C 0.41209 0.88013 0.18966 0.0
H582 H 0.33909 0.91021 0.09841 0.0
C583 C 0.45384 0.90868 0.17292 0.0
C584 C 0.45485 0.93715 0.12771 0.0
H585 H 0.41228 0.85697 0.22275 0.0
H586 H 0.48535 0.90665 0.19298 0.0
C587 C 0.41298 0.93912 0.10323 0.0
C588 C 0.70611 0.1609 0.08802 0.0
C589 C 0.70614 0.19515 0.12638 0.0
H590 H 0.66528 0.10525 0.03391 0.0
C591 C 0.66409 0.20128 0.13544 0.0
H592 H 0.73774 0.15483 0.08081 0.0
C593 C 0.62302 0.174 0.10721 0.0
C594 C 0.62251 0.13854 0.0711 0.0
H595 H 0.66251 0.22632 0.16608 0.0
H596 H 0.59127 0.17937 0.11615 0.0
C597 C 0.66457 0.13236 0.06156 0.0
C598 C 0.68827 0.66027 0.85911 0.0
C599 C 0.6909 0.65452 0.79795 0.0
H600 H 0.65331 0.63485 0.93722 0.0
C601 C 0.66207 0.61518 0.77035 0.0
H602 H 0.70997 0.69006 0.88197 0.0
C603 C 0.62969 0.58383 0.80179 0.0
C604 C 0.62536 0.59022 0.86226 0.0
H605 H 0.66314 0.60924 0.72359 0.0
H606 H 0.60662 0.55506 0.77803 0.0
C607 C 0.65605 0.62839 0.89096 0.0
C608 C 0.43871 0.69911 0.84711 0.0
C609 C 0.41555 0.68715 0.7918 0.0
H610 H 0.47737 0.68175 0.91573 0.0
C611 C 0.41885 0.65187 0.75894 0.0
H612 H 0.43696 0.72688 0.87245 0.0
C613 C 0.4406 0.62551 0.78425 0.0
C614 C 0.45993 0.63498 0.84191 0.0
H615 H 0.40147 0.64257 0.71587 0.0
H616 H 0.4401 0.59647 0.75998 0.0
C617 C 0.46158 0.67336 0.87182 0.0
C618 C 0.41742 0.39455 0.7946 0.0
C619 C 0.38771 0.35378 0.80974 0.0
H620 H 0.47343 0.45193 0.82304 0.0
C621 C 0.39093 0.34001 0.86723 0.0
H622 H 0.41554 0.40587 0.75065 0.0
C623 C 0.42444 0.3658 0.90824 0.0
C624 C 0.45478 0.40624 0.89289 0.0
H625 H 0.36835 0.30873 0.88025 0.0
H626 H 0.42665 0.35399 0.95184 0.0
C627 C 0.45048 0.42076 0.83603 0.0
C628 C 0.70752 0.37594 0.90854 0.0
C629 C 0.68509 0.33576 0.8787 0.0
H630 H 0.70075 0.42591 0.96577 0.0
C631 C 0.63912 0.31253 0.88891 0.0
H632 H 0.74329 0.39406 0.90196 0.0
C633 C 0.61506 0.33025 0.92603 0.0
C634 C 0.63649 0.37173 0.95314 0.0
H635 H 0.6214 0.28104 0.86724 0.0
H636 H 0.57903 0.31224 0.93118 0.0
C637 C 0.68334 0.39388 0.94553 0.0
C638 C 0.62558 0.33013 0.15068 0.0
C639 C 0.64964 0.34293 0.20531 0.0
H640 H 0.58626 0.34667 0.0821 0.0
C641 C 0.64716 0.37888 0.23735 0.0
H642 H 0.62668 0.30181 0.12603 0.0
C643 C 0.62542 0.4051 0.21161 0.0
C644 C 0.60534 0.39482 0.15436 0.0
H645 H 0.66524 0.3888 0.27992 0.0
H646 H 0.62662 0.43467 0.23509 0.0
C647 C 0.60273 0.35575 0.12558 0.0
C648 C 0.64816 0.63527 0.19867 0.0
C649 C 0.67753 0.67612 0.18324 0.0
H650 H 0.59295 0.57721 0.1703 0.0
C651 C 0.67461 0.68932 0.12541 0.0
H652 H 0.64985 0.62438 0.24291 0.0
C653 C 0.64171 0.66289 0.08428 0.0
C654 C 0.61167 0.62238 0.09988 0.0
H655 H 0.69695 0.72065 0.11217 0.0
H656 H 0.6397 0.6743 0.04039 0.0
C657 C 0.61569 0.60842 0.15713 0.0
C658 C 0.36117 0.66138 0.0777 0.0
C659 C 0.38407 0.69169 0.12327 0.0
H660 H 0.36774 0.61915 0.0078 0.0
C661 C 0.43201 0.70575 0.13037 0.0
H662 H 0.32406 0.65048 0.07132 0.0
C663 C 0.45687 0.68909 0.0932 0.0
C664 C 0.4341 0.65725 0.04918 0.0
H665 H 0.45035 0.72959 0.16472 0.0
H666 H 0.49389 0.69985 0.10084 0.0
C667 C 0.38604 0.64377 0.04124 0.0
C668 C 0.4038 0.41309 0.22249 0.0
C669 C 0.37496 0.37377 0.19488 0.0
H670 H 0.45921 0.47325 0.21491 0.0
C671 C 0.37774 0.368 0.13374 0.0
H672 H 0.40264 0.41906 0.26924 0.0
C673 C 0.41004 0.39988 0.10194 0.0
C674 C 0.44067 0.4381 0.13065 0.0
H675 H 0.35603 0.33822 0.11085 0.0
H676 H 0.41282 0.39344 0.05569 0.0
C677 C 0.43623 0.44445 0.19111 0.0
C678 C 0.89161 0.67751 0.6818 0.0
C679 C 0.85301 0.68171 0.65104 0.0
H680 H 0.94705 0.65273 0.68327 0.0
C681 C 0.84114 0.661 0.59442 0.0
H682 H 0.9024 0.69262 0.72528 0.0
C683 C 0.86704 0.63684 0.57001 0.0
C684 C 0.90617 0.63354 0.60097 0.0
H685 H 0.81171 0.66322 0.56909 0.0
H686 H 0.85687 0.62141 0.52664 0.0
C687 C 0.91765 0.6544 0.65727 0.0
C688 C 0.36202 0.90512 0.65768 0.0
C689 C 0.37114 0.86615 0.65159 0.0
H690 H 0.38686 0.97383 0.64818 0.0
C691 C 0.41346 0.86669 0.63166 0.0
H692 H 0.32994 0.9056 0.67423 0.0
C693 C 0.44601 0.9057 0.61699 0.0
C694 C 0.43695 0.9447 0.62333 0.0
H695 H 0.42134 0.837 0.62743 0.0
H696 H 0.47808 0.90537 0.6002 0.0
C697 C 0.39493 0.94424 0.64418 0.0
C698 C 0.21645 0.38135 0.68202 0.0
C699 C 0.21808 0.34311 0.65419 0.0
H700 H 0.19263 0.43568 0.67775 0.0
C701 C 0.19295 0.32933 0.5998 0.0
H702 H 0.23503 0.39294 0.72392 0.0
C703 C 0.16686 0.35305 0.57431 0.0
C704 C 0.16637 0.39193 0.60164 0.0
H705 H 0.19288 0.29978 0.57732 0.0
H706 H 0.14829 0.34172 0.53235 0.0
C707 C 0.19183 0.40576 0.65564 0.0
C708 C 0.66002 0.17545 0.60998 0.0
C709 C 0.70071 0.18003 0.64317 0.0
H710 H 0.60217 0.13212 0.55849 0.0
C711 C 0.71634 0.14438 0.64512 0.0
H712 H 0.64687 0.2021 0.60808 0.0
C713 C 0.69159 0.10484 0.61554 0.0
C714 C 0.64967 0.09949 0.58512 0.0
H715 H 0.74692 0.14636 0.67148 0.0
H716 H 0.70394 0.07775 0.61928 0.0
C717 C 0.63441 0.13534 0.58187 0.0
C718 C 0.83246 0.3764 0.42249 0.0
C719 C 0.84619 0.34997 0.38318 0.0
H720 H 0.85145 0.4369 0.47193 0.0
C721 C 0.8927 0.36235 0.3705 0.0
H722 H 0.79692 0.3676 0.43374 0.0
C723 C 0.92397 0.40233 0.39208 0.0
C724 C 0.90926 0.43066 0.4269 0.0
H725 H 0.90434 0.34219 0.34126 0.0
H726 H 0.95915 0.41182 0.37916 0.0
C727 C 0.86362 0.41643 0.44388 0.0
C728 C 0.72476 0.88486 0.42417 0.0
C729 C 0.70291 0.83964 0.41598 0.0
H730 H 0.71606 0.94683 0.43536 0.0
C731 C 0.65513 0.82171 0.42002 0.0
H732 H 0.76162 0.89947 0.42117 0.0
C733 C 0.62917 0.84876 0.42626 0.0
C734 C 0.65064 0.89412 0.43012 0.0
H735 H 0.63738 0.787 0.41387 0.0
H736 H 0.59209 0.83421 0.42641 0.0
C737 C 0.69877 0.91195 0.43165 0.0
C738 C 0.19963 0.62257 0.3164 0.0
C739 C 0.20096 0.66388 0.33641 0.0
H740 H 0.16635 0.55402 0.31772 0.0
C741 C 0.1675 0.66694 0.37437 0.0
H742 H 0.22424 0.61892 0.28621 0.0
C743 C 0.13382 0.62935 0.39253 0.0
C744 C 0.13264 0.58799 0.37247 0.0
H745 H 0.1673 0.69835 0.39006 0.0
H746 H 0.10924 0.63273 0.42295 0.0
C747 C 0.16582 0.58521 0.33385 0.0
C748 C 0.3432 0.16452 0.41425 0.0
C749 C 0.37069 0.20802 0.4079 0.0
H750 H 0.34083 0.09915 0.4228 0.0
C751 C 0.41869 0.21938 0.40984 0.0
H752 H 0.30603 0.15475 0.41267 0.0
C753 C 0.43875 0.18731 0.41591 0.0
C754 C 0.41096 0.14346 0.4189 0.0
H755 H 0.44055 0.25266 0.40439 0.0
H756 H 0.47586 0.19671 0.41717 0.0
C757 C 0.36308 0.13249 0.41875 0.0
C758 C 0.64611 0.80945 0.58405 0.0
C759 C 0.69407 0.82054 0.58523 0.0
H760 H 0.58922 0.83258 0.57829 0.0
C761 C 0.72173 0.86398 0.57889 0.0
H762 H 0.62413 0.77621 0.5895 0.0
C763 C 0.70211 0.89623 0.57535 0.0
C764 C 0.6543 0.88554 0.57609 0.0
H765 H 0.75887 0.87354 0.57985 0.0
H766 H 0.72449 0.92954 0.57135 0.0
C767 C 0.6263 0.84175 0.57891 0.0
C768 C 0.70294 0.12443 0.33737 0.0
C769 C 0.69415 0.16355 0.34374 0.0
H770 H 0.67794 0.05577 0.34736 0.0
C771 C 0.6522 0.16331 0.36462 0.0
H772 H 0.73472 0.12372 0.32011 0.0
C773 C 0.61975 0.12446 0.38003 0.0
C774 C 0.6285 0.08533 0.37347 0.0
H775 H 0.64457 0.19311 0.3691 0.0
H776 H 0.58799 0.12503 0.39755 0.0
C777 C 0.67011 0.08548 0.3516 0.0
C778 C 0.87162 0.70072 0.3929 0.0
C779 C 0.84666 0.68716 0.33833 0.0
H780 H 0.91612 0.6881 0.46041 0.0
C781 C 0.84847 0.64905 0.31032 0.0
H782 H 0.87157 0.73015 0.41557 0.0
C783 C 0.87308 0.62457 0.33662 0.0
C784 C 0.89839 0.63817 0.39076 0.0
H785 H 0.83004 0.63759 0.26829 0.0
H786 H 0.87239 0.59475 0.3143 0.0
C787 C 0.8977 0.67693 0.41832 0.0
C788 C 0.40817 0.85376 0.39065 0.0
C789 C 0.366 0.84763 0.36014 0.0
H790 H 0.46703 0.8989 0.43826 0.0
C791 C 0.34894 0.8824 0.35943 0.0
H792 H 0.42255 0.82792 0.39133 0.0
C793 C 0.37365 0.92255 0.38748 0.0
C794 C 0.41696 0.92949 0.41501 0.0
H795 H 0.31734 0.87938 0.33481 0.0
H796 H 0.36008 0.94889 0.38458 0.0
C797 C 0.4337 0.89451 0.41717 0.0
C798 C 0.17355 0.35202 0.31083 0.0
C799 C 0.212 0.34764 0.34177 0.0
H800 H 0.11818 0.37692 0.3091 0.0
C801 C 0.22369 0.36827 0.39846 0.0
H802 H 0.16288 0.337 0.26728 0.0
C803 C 0.19777 0.39249 0.42276 0.0
C804 C 0.15875 0.39592 0.39163 0.0
H805 H 0.253 0.36593 0.42396 0.0
H806 H 0.2078 0.40782 0.4662 0.0
C807 C 0.14747 0.37516 0.33525 0.0
C808 C 0.34052 0.14549 0.56958 0.0
C809 C 0.36234 0.19072 0.57759 0.0
H810 H 0.34927 0.08347 0.55942 0.0
C811 C 0.41019 0.2086 0.57428 0.0
H812 H 0.30361 0.1309 0.57203 0.0
C813 C 0.4362 0.1815 0.56895 0.0
C814 C 0.41472 0.13614 0.56529 0.0
H815 H 0.42792 0.24331 0.58033 0.0
H816 H 0.4733 0.19602 0.56937 0.0
C817 C 0.36657 0.11835 0.56301 0.0
C818 C 0.89791 0.36154 0.61922 0.0
C819 C 0.86324 0.36419 0.65544 0.0
H820 H 0.95687 0.39624 0.57202 0.0
C821 C 0.86266 0.40541 0.67286 0.0
H822 H 0.89961 0.33026 0.60546 0.0
C823 C 0.89604 0.443 0.65517 0.0
C824 C 0.93073 0.4406 0.61883 0.0
H825 H 0.83703 0.40886 0.70152 0.0
H826 H 0.89409 0.47406 0.66955 0.0
C827 C 0.93116 0.39936 0.60078 0.0
C828 C 0.23279 0.65235 0.57337 0.0
C829 C 0.21909 0.67859 0.613 0.0
H830 H 0.21363 0.59239 0.52263 0.0
C831 C 0.17252 0.66623 0.62545 0.0
H832 H 0.26838 0.66111 0.56233 0.0
C833 C 0.14109 0.62657 0.60295 0.0
C834 C 0.15568 0.5985 0.56744 0.0
H835 H 0.16088 0.68621 0.65497 0.0
H836 H 0.10582 0.61713 0.61554 0.0
C837 C 0.20148 0.61265 0.55107 0.0
loop_
_geom_bond_atom_site_label_1
_geom_bond_atom_site_label_2
_geom_bond_distance
_geom_bond_site_symmetry_2
_ccdc_geom_bond_type
Dy0 O4 2.398 . S
Dy0 O5 2.491 . S
Dy0 O6 2.403 . S
Dy0 O7 2.664 . S
Dy0 O11 2.326 . S
Dy0 O15 2.310 . S
Dy0 O16 2.351 . S
C1 O12 1.185 . S
C1 O13 1.355 . S
C2 O4 1.185 . S
C2 O5 1.355 . S
Dy3 O7 2.310 . S
Dy3 O10 2.351 . S
Dy3 O12 2.398 . S
Dy3 O13 2.491 . S
Dy3 O14 2.403 . S
Dy3 O15 2.664 . S
Dy3 O17 2.326 . S
O4 Dy0 2.398 . S
O4 C2 1.185 . S
O5 Dy0 2.491 . S
O5 C2 1.355 . S
O6 Dy0 2.403 . S
O6 C8 1.254 . S
O7 Dy0 2.664 . S
O7 Dy3 2.310 . S
O7 C8 1.268 . S
C8 O6 1.254 . S
C8 O7 1.268 . S
C9 O14 1.254 . S
C9 O15 1.268 . S
O10 Dy3 2.351 . S
O10 C18 1.249 . S
O11 Dy0 2.326 . S
O11 C18 1.267 . S
O12 C1 1.185 . S
O12 Dy3 2.398 . S
O13 C1 1.355 . S
O13 Dy3 2.491 . S
O14 Dy3 2.403 . S
O14 C9 1.254 . S
O15 Dy0 2.310 . S
O15 Dy3 2.664 . S
O15 C9 1.268 . S
O16 Dy0 2.351 . S
O16 C19 1.249 . S
O17 Dy3 2.326 . S
O17 C19 1.267 . S
C18 O10 1.249 . S
C18 O11 1.267 . S
C19 O16 1.249 . S
C19 O17 1.267 . S
Dy20 O24 2.398 . S
Dy20 O25 2.491 . S
Dy20 O26 2.403 . S
Dy20 O27 2.664 . S
Dy20 O31 2.326 . S
Dy20 O35 2.310 . S
Dy20 O36 2.351 . S
C21 O32 1.185 . S
C21 O33 1.355 . S
C22 O24 1.185 . S
C22 O25 1.355 . S
Dy23 O27 2.310 . S
Dy23 O30 2.351 . S
Dy23 O32 2.398 . S
Dy23 O33 2.491 . S
Dy23 O34 2.403 . S
Dy23 O35 2.664 . S
Dy23 O37 2.326 . S
O24 Dy20 2.398 . S
O24 C22 1.185 . S
O25 Dy20 2.491 . S
O25 C22 1.355 . S
O26 Dy20 2.403 . S
O26 C28 1.254 . S
O27 Dy20 2.664 . S
O27 Dy23 2.310 . S
O27 C28 1.268 . S
C28 O26 1.254 . S
C28 O27 1.268 . S
C29 O34 1.254 . S
C29 O35 1.268 . S
O30 Dy23 2.351 . S
O30 C38 1.249 . S
O31 Dy20 2.326 . S
O31 C38 1.267 . S
O32 C21 1.185 . S
O32 Dy23 2.398 . S
O33 C21 1.355 . S
O33 Dy23 2.491 . S
O34 Dy23 2.403 . S
O34 C29 1.254 . S
O35 Dy20 2.310 . S
O35 Dy23 2.664 . S
O35 C29 1.268 . S
O36 Dy20 2.351 . S
O36 C39 1.249 . S
O37 Dy23 2.326 . S
O37 C39 1.267 . S
C38 O30 1.249 . S
C38 O31 1.267 . S
C39 O36 1.249 . S
C39 O37 1.267 . S
Dy40 O44 2.398 . S
Dy40 O45 2.491 . S
Dy40 O46 2.403 . S
Dy40 O47 2.664 . S
Dy40 O51 2.326 . S
Dy40 O55 2.310 . S
Dy40 O56 2.351 . S
C41 O52 1.185 . S
C41 O53 1.355 . S
C42 O44 1.185 . S
C42 O45 1.355 . S
Dy43 O47 2.310 . S
Dy43 O50 2.351 . S
Dy43 O52 2.398 . S
Dy43 O53 2.491 . S
Dy43 O54 2.403 . S
Dy43 O55 2.664 . S
Dy43 O57 2.326 . S
O44 Dy40 2.398 . S
O44 C42 1.185 . S
O45 Dy40 2.491 . S
O45 C42 1.355 . S
O46 Dy40 2.403 . S
O46 C48 1.254 . S
O47 Dy40 2.664 . S
O47 Dy43 2.310 . S
O47 C48 1.268 . S
C48 O46 1.254 . S
C48 O47 1.268 . S
C49 O54 1.254 . S
C49 O55 1.268 . S
O50 Dy43 2.351 . S
O50 C58 1.249 . S
O51 Dy40 2.326 . S
O51 C58 1.267 . S
O52 C41 1.185 . S
O52 Dy43 2.398 . S
O53 C41 1.355 . S
O53 Dy43 2.491 . S
O54 Dy43 2.403 . S
O54 C49 1.254 . S
O55 Dy40 2.310 . S
O55 Dy43 2.664 . S
O55 C49 1.268 . S
O56 Dy40 2.351 . S
O56 C59 1.249 . S
O57 Dy43 2.326 . S
O57 C59 1.267 . S
C58 O50 1.249 . S
C58 O51 1.267 . S
C59 O56 1.249 . S
C59 O57 1.267 . S
Dy60 O64 2.398 . S
Dy60 O65 2.491 . S
Dy60 O66 2.403 . S
Dy60 O67 2.664 . S
Dy60 O71 2.326 . S
Dy60 O75 2.310 . S
Dy60 O76 2.351 . S
C61 O72 1.185 . S
C61 O73 1.355 . S
C62 O64 1.185 . S
C62 O65 1.355 . S
Dy63 O67 2.310 . S
Dy63 O70 2.351 . S
Dy63 O72 2.398 . S
Dy63 O73 2.491 . S
Dy63 O74 2.403 . S
Dy63 O75 2.664 . S
Dy63 O77 2.326 . S
O64 Dy60 2.398 . S
O64 C62 1.185 . S
O65 Dy60 2.491 . S
O65 C62 1.355 . S
O66 Dy60 2.403 . S
O66 C68 1.254 . S
O67 Dy60 2.664 . S
O67 Dy63 2.310 . S
O67 C68 1.268 . S
C68 O66 1.254 . S
C68 O67 1.268 . S
C69 O74 1.254 . S
C69 O75 1.268 . S
O70 Dy63 2.351 . S
O70 C78 1.249 . S
O71 Dy60 2.326 . S
O71 C78 1.267 . S
O72 C61 1.185 . S
O72 Dy63 2.398 . S
O73 C61 1.355 . S
O73 Dy63 2.491 . S
O74 Dy63 2.403 . S
O74 C69 1.254 . S
O75 Dy60 2.310 . S
O75 Dy63 2.664 . S
O75 C69 1.268 . S
O76 Dy60 2.351 . S
O76 C79 1.249 . S
O77 Dy63 2.326 . S
O77 C79 1.267 . S
C78 O70 1.249 . S
C78 O71 1.267 . S
C79 O76 1.249 . S
C79 O77 1.267 . S
Dy80 O84 2.398 . S
Dy80 O85 2.491 . S
Dy80 O86 2.403 . S
Dy80 O87 2.664 . S
Dy80 O91 2.326 . S
Dy80 O95 2.310 . S
Dy80 O96 2.351 . S
C81 O92 1.185 . S
C81 O93 1.355 . S
C82 O84 1.185 . S
C82 O85 1.355 . S
Dy83 O87 2.310 . S
Dy83 O90 2.351 . S
Dy83 O92 2.398 . S
Dy83 O93 2.491 . S
Dy83 O94 2.403 . S
Dy83 O95 2.664 . S
Dy83 O97 2.326 . S
O84 Dy80 2.398 . S
O84 C82 1.185 . S
O85 Dy80 2.491 . S
O85 C82 1.355 . S
O86 Dy80 2.403 . S
O86 C88 1.254 . S
O87 Dy80 2.664 . S
O87 Dy83 2.310 . S
O87 C88 1.268 . S
C88 O86 1.254 . S
C88 O87 1.268 . S
C89 O94 1.254 . S
C89 O95 1.268 . S
O90 Dy83 2.351 . S
O90 C98 1.249 . S
O91 Dy80 2.326 . S
O91 C98 1.267 . S
O92 C81 1.185 . S
O92 Dy83 2.398 . S
O93 C81 1.355 . S
O93 Dy83 2.491 . S
O94 Dy83 2.403 . S
O94 C89 1.254 . S
O95 Dy80 2.310 . S
O95 Dy83 2.664 . S
O95 C89 1.268 . S
O96 Dy80 2.351 . S
O96 C99 1.249 . S
O97 Dy83 2.326 . S
O97 C99 1.267 . S
C98 O90 1.249 . S
C98 O91 1.267 . S
C99 O96 1.249 . S
C99 O97 1.267 . S
Dy100 O104 2.398 . S
Dy100 O105 2.491 . S
Dy100 O106 2.403 . S
Dy100 O107 2.664 . S
Dy100 O111 2.326 . S
Dy100 O115 2.310 . S
Dy100 O116 2.351 . S
C101 O112 1.185 . S
C101 O113 1.355 . S
C102 O104 1.185 . S
C102 O105 1.355 . S
Dy103 O107 2.310 . S
Dy103 O110 2.351 . S
Dy103 O112 2.398 . S
Dy103 O113 2.491 . S
Dy103 O114 2.403 . S
Dy103 O115 2.664 . S
Dy103 O117 2.326 . S
O104 Dy100 2.398 . S
O104 C102 1.185 . S
O105 Dy100 2.491 . S
O105 C102 1.355 . S
O106 Dy100 2.403 . S
O106 C108 1.254 . S
O107 Dy100 2.664 . S
O107 Dy103 2.310 . S
O107 C108 1.268 . S
C108 O106 1.254 . S
C108 O107 1.268 . S
C109 O114 1.254 . S
C109 O115 1.268 . S
O110 Dy103 2.351 . S
O110 C118 1.249 . S
O111 Dy100 2.326 . S
O111 C118 1.267 . S
O112 C101 1.185 . S
O112 Dy103 2.398 . S
O113 C101 1.355 . S
O113 Dy103 2.491 . S
O114 Dy103 2.403 . S
O114 C109 1.254 . S
O115 Dy100 2.310 . S
O115 Dy103 2.664 . S
O115 C109 1.268 . S
O116 Dy100 2.351 . S
O116 C119 1.249 . S
O117 Dy103 2.326 . S
O117 C119 1.267 . S
C118 O110 1.249 . S
C118 O111 1.267 . S
C119 O116 1.249 . S
C119 O117 1.267 . S
Dy120 O124 2.398 . S
Dy120 O125 2.491 . S
Dy120 O126 2.403 . S
Dy120 O127 2.664 . S
Dy120 O131 2.326 . S
Dy120 O135 2.310 . S
Dy120 O136 2.351 . S
C121 O132 1.185 . S
C121 O133 1.355 . S
C122 O124 1.185 . S
C122 O125 1.355 . S
Dy123 O127 2.310 . S
Dy123 O130 2.351 . S
Dy123 O132 2.398 . S
Dy123 O133 2.491 . S
Dy123 O134 2.403 . S
Dy123 O135 2.664 . S
Dy123 O137 2.326 . S
O124 Dy120 2.398 . S
O124 C122 1.185 . S
O125 Dy120 2.491 . S
O125 C122 1.355 . S
O126 Dy120 2.403 . S
O126 C128 1.254 . S
O127 Dy120 2.664 . S
O127 Dy123 2.310 . S
O127 C128 1.268 . S
C128 O126 1.254 . S
C128 O127 1.268 . S
C129 O134 1.254 . S
C129 O135 1.268 . S
O130 Dy123 2.351 . S
O130 C138 1.249 . S
O131 Dy120 2.326 . S
O131 C138 1.267 . S
O132 C121 1.185 . S
O132 Dy123 2.398 . S
O133 C121 1.355 . S
O133 Dy123 2.491 . S
O134 Dy123 2.403 . S
O134 C129 1.254 . S
O135 Dy120 2.310 . S
O135 Dy123 2.664 . S
O135 C129 1.268 . S
O136 Dy120 2.351 . S
O136 C139 1.249 . S
O137 Dy123 2.326 . S
O137 C139 1.267 . S
C138 O130 1.249 . S
C138 O131 1.267 . S
C139 O136 1.249 . S
C139 O137 1.267 . S
Dy140 O144 2.398 . S
Dy140 O145 2.491 . S
Dy140 O146 2.403 . S
Dy140 O147 2.664 . S
Dy140 O151 2.326 . S
Dy140 O155 2.310 . S
Dy140 O156 2.351 . S
C141 O152 1.185 . S
C141 O153 1.355 . S
C142 O144 1.185 . S
C142 O145 1.355 . S
Dy143 O147 2.310 . S
Dy143 O150 2.351 . S
Dy143 O152 2.398 . S
Dy143 O153 2.491 . S
Dy143 O154 2.403 . S
Dy143 O155 2.664 . S
Dy143 O157 2.326 . S
O144 Dy140 2.398 . S
O144 C142 1.185 . S
O145 Dy140 2.491 . S
O145 C142 1.355 . S
O146 Dy140 2.403 . S
O146 C148 1.254 . S
O147 Dy140 2.664 . S
O147 Dy143 2.310 . S
O147 C148 1.268 . S
C148 O146 1.254 . S
C148 O147 1.268 . S
C149 O154 1.254 . S
C149 O155 1.268 . S
O150 Dy143 2.351 . S
O150 C158 1.249 . S
O151 Dy140 2.326 . S
O151 C158 1.267 . S
O152 C141 1.185 . S
O152 Dy143 2.398 . S
O153 C141 1.355 . S
O153 Dy143 2.491 . S
O154 Dy143 2.403 . S
O154 C149 1.254 . S
O155 Dy140 2.310 . S
O155 Dy143 2.664 . S
O155 C149 1.268 . S
O156 Dy140 2.351 . S
O156 C159 1.249 . S
O157 Dy143 2.326 . S
O157 C159 1.267 . S
C158 O150 1.249 . S
C158 O151 1.267 . S
C159 O156 1.249 . S
C159 O157 1.267 . S
Co160 O163 2.042 . S
Co160 O170 2.264 . S
Co160 O189 2.286 . S
Co160 O190 2.069 . S
Co160 O192 2.015 1_455 S
Co161 O163 2.122 . S
Co161 O169 2.073 . S
Co161 O170 2.327 . S
Co161 O171 1.976 1_455 S
Co162 O163 2.085 1_545 S
Co162 O165 2.089 1_455 S
Co162 O172 2.110 1_445 S
Co162 O173 2.145 . S
Co162 O177 2.112 . S
Co162 O191 2.142 1_445 S
O163 Co160 2.042 . S
O163 Co161 2.122 . S
O163 Co162 2.085 1_565 S
O163 H164 0.980 . S
H164 O163 0.980 . S
O165 Co162 2.089 1_655 S
O165 Co166 2.042 . S
O165 Co167 2.122 . S
O165 H168 0.980 . S
Co166 O165 2.042 . S
Co166 O174 2.286 . S
Co166 O175 2.069 . S
Co166 O176 2.015 1_655 S
Co166 O179 2.264 . S
Co167 O165 2.122 . S
Co167 O178 1.976 1_655 S
Co167 O179 2.327 . S
Co167 O180 2.073 . S
H168 O165 0.980 . S
O169 Co161 2.073 . S
O169 C184 1.245 . S
O170 Co160 2.264 . S
O170 Co161 2.327 . S
O170 C184 1.257 . S
O171 Co161 1.976 1_655 S
O171 C183 1.251 . S
O172 Co162 2.110 1_665 S
O172 C183 1.274 . S
O173 Co162 2.145 . S
O173 C186 1.246 . S
O174 Co166 2.286 . S
O174 C185 1.259 . S
O175 Co166 2.069 . S
O175 C185 1.289 . S
O176 Co166 2.015 1_455 S
O176 C186 1.257 . S
O177 Co162 2.112 . S
O177 C187 1.274 . S
O178 Co167 1.976 1_455 S
O178 C187 1.251 . S
O179 Co166 2.264 . S
O179 Co167 2.327 . S
O179 C188 1.257 . S
O180 Co167 2.073 . S
O180 C188 1.245 . S
C181 O189 1.259 . S
C181 O190 1.289 . S
C182 O191 1.246 . S
C182 O192 1.257 . S
C183 O171 1.251 . S
C183 O172 1.274 . S
C184 O169 1.245 . S
C184 O170 1.257 . S
C185 O174 1.259 . S
C185 O175 1.289 . S
C186 O173 1.246 . S
C186 O176 1.257 . S
C187 O177 1.274 . S
C187 O178 1.251 . S
C188 O179 1.257 . S
C188 O180 1.245 . S
O189 Co160 2.286 . S
O189 C181 1.259 . S
O190 Co160 2.069 . S
O190 C181 1.289 . S
O191 Co162 2.142 1_665 S
O191 C182 1.246 . S
O192 Co160 2.015 1_655 S
O192 C182 1.257 . S
Co193 O196 2.042 1_556 S
Co193 O203 2.264 1_556 S
Co193 O222 2.286 . S
Co193 O223 2.069 . S
Co193 O225 2.015 . S
Co194 O196 2.122 . S
Co194 O202 2.073 . S
Co194 O203 2.327 . S
Co194 O204 1.976 . S
Co195 O196 2.085 1_545 S
Co195 O198 2.089 1_554 S
Co195 O205 2.111 1_545 S
Co195 O206 2.145 . S
Co195 O210 2.112 1_554 S
Co195 O224 2.142 1_544 S
O196 Co193 2.042 1_554 S
O196 Co194 2.122 . S
O196 Co195 2.085 1_565 S
O196 H197 0.980 . S
H197 O196 0.980 . S
O198 Co195 2.089 1_556 S
O198 Co199 2.042 1_556 S
O198 Co200 2.122 . S
O198 H201 0.980 . S
Co199 O198 2.042 1_554 S
Co199 O207 2.286 . S
Co199 O208 2.069 . S
Co199 O209 2.015 . S
Co199 O212 2.264 1_554 S
Co200 O198 2.122 . S
Co200 O211 1.976 . S
Co200 O212 2.327 . S
Co200 O213 2.073 . S
H201 O198 0.980 . S
O202 Co194 2.073 . S
O202 C217 1.245 . S
O203 Co193 2.264 1_554 S
O203 Co194 2.327 . S
O203 C217 1.257 . S
O204 Co194 1.976 . S
O204 C216 1.251 . S
O205 Co195 2.111 1_565 S
O205 C216 1.274 . S
O206 Co195 2.145 . S
O206 C219 1.246 . S
O207 Co199 2.286 . S
O207 C218 1.259 . S
O208 Co199 2.069 . S
O208 C218 1.289 . S
O209 Co199 2.015 . S
O209 C219 1.257 . S
O210 Co195 2.112 1_556 S
O210 C220 1.274 . S
O211 Co200 1.976 . S
O211 C220 1.251 . S
O212 Co199 2.264 1_556 S
O212 Co200 2.327 . S
O212 C221 1.257 . S
O213 Co200 2.073 . S
O213 C221 1.245 . S
C214 O222 1.259 . S
C214 O223 1.289 . S
C215 O224 1.246 . S
C215 O225 1.257 . S
C216 O204 1.251 . S
C216 O205 1.274 . S
C217 O202 1.245 . S
C217 O203 1.257 . S
C218 O207 1.259 . S
C218 O208 1.289 . S
C219 O206 1.246 . S
C219 O209 1.257 . S
C220 O210 1.274 . S
C220 O211 1.251 . S
C221 O212 1.257 . S
C221 O213 1.245 . S
O222 Co193 2.286 . S
O222 C214 1.259 . S
O223 Co193 2.069 . S
O223 C214 1.289 . S
O224 Co195 2.142 1_566 S
O224 C215 1.246 . S
O225 Co193 2.015 . S
O225 C215 1.257 . S
Co226 O229 2.042 1_556 S
Co226 O236 2.264 1_556 S
Co226 O255 2.286 . S
Co226 O256 2.069 . S
Co226 O258 2.015 1_455 S
Co227 O229 2.122 . S
Co227 O235 2.073 . S
Co227 O236 2.327 . S
Co227 O237 1.976 1_455 S
Co228 O229 2.087 . S
Co228 O231 2.087 1_454 S
Co228 O238 2.111 1_455 S
Co228 O239 2.144 . S
Co228 O243 2.112 1_554 S
Co228 O257 2.143 1_454 S
O229 Co226 2.042 1_554 S
O229 Co227 2.122 . S
O229 Co228 2.087 . S
O229 H230 0.980 . S
H230 O229 0.980 . S
O231 Co228 2.087 1_656 S
O231 Co232 2.042 1_556 S
O231 Co233 2.122 . S
O231 H234 0.980 . S
Co232 O231 2.042 1_554 S
Co232 O240 2.286 . S
Co232 O241 2.069 . S
Co232 O242 2.015 1_655 S
Co232 O245 2.264 1_554 S
Co233 O231 2.122 . S
Co233 O244 1.976 1_655 S
Co233 O245 2.327 . S
Co233 O246 2.073 . S
H234 O231 0.980 . S
O235 Co227 2.073 . S
O235 C250 1.245 . S
O236 Co226 2.264 1_554 S
O236 Co227 2.327 . S
O236 C250 1.257 . S
O237 Co227 1.976 1_655 S
O237 C249 1.251 . S
O238 Co228 2.111 1_655 S
O238 C249 1.274 . S
O239 Co228 2.144 . S
O239 C252 1.246 . S
O240 Co232 2.286 . S
O240 C251 1.259 . S
O241 Co232 2.069 . S
O241 C251 1.289 . S
O242 Co232 2.015 1_455 S
O242 C252 1.257 . S
O243 Co228 2.112 1_556 S
O243 C253 1.274 . S
O244 Co233 1.976 1_455 S
O244 C253 1.251 . S
O245 Co232 2.264 1_556 S
O245 Co233 2.327 . S
O245 C254 1.257 . S
O246 Co233 2.073 . S
O246 C254 1.245 . S
C247 O255 1.259 . S
C247 O256 1.289 . S
C248 O257 1.246 . S
C248 O258 1.257 . S
C249 O237 1.251 . S
C249 O238 1.274 . S
C250 O235 1.245 . S
C250 O236 1.257 . S
C251 O240 1.259 . S
C251 O241 1.289 . S
C252 O239 1.246 . S
C252 O242 1.257 . S
C253 O243 1.274 . S
C253 O244 1.251 . S
C254 O245 1.257 . S
C254 O246 1.245 . S
O255 Co226 2.286 . S
O255 C247 1.259 . S
O256 Co226 2.069 . S
O256 C247 1.289 . S
O257 Co228 2.143 1_656 S
O257 C248 1.246 . S
O258 Co226 2.015 1_655 S
O258 C248 1.257 . S
Co259 O262 2.042 1_556 S
Co259 O269 2.264 1_556 S
Co259 O288 2.286 . S
Co259 O289 2.069 . S
Co259 O291 2.015 . S
Co260 O262 2.122 . S
Co260 O268 2.073 . S
Co260 O269 2.327 . S
Co260 O270 1.976 . S
Co261 O262 2.087 . S
Co261 O264 2.087 1_554 S
Co261 O271 2.111 . S
Co261 O272 2.143 . S
Co261 O276 2.111 1_554 S
Co261 O290 2.143 1_554 S
O262 Co259 2.042 1_554 S
O262 Co260 2.122 . S
O262 Co261 2.087 . S
O262 H263 0.980 . S
H263 O262 0.980 . S
O264 Co261 2.087 1_556 S
O264 Co265 2.042 1_556 S
O264 Co266 2.122 . S
O264 H267 0.980 . S
Co265 O264 2.042 1_554 S
Co265 O273 2.286 . S
Co265 O274 2.069 . S
Co265 O275 2.015 . S
Co265 O278 2.264 1_554 S
Co266 O264 2.122 . S
Co266 O277 1.976 . S
Co266 O278 2.327 . S
Co266 O279 2.073 . S
H267 O264 0.980 . S
O268 Co260 2.073 . S
O268 C283 1.245 . S
O269 Co259 2.264 1_554 S
O269 Co260 2.327 . S
O269 C283 1.257 . S
O270 Co260 1.976 . S
O270 C282 1.251 . S
O271 Co261 2.111 . S
O271 C282 1.274 . S
O272 Co261 2.143 . S
O272 C285 1.246 . S
O273 Co265 2.286 . S
O273 C284 1.259 . S
O274 Co265 2.069 . S
O274 C284 1.289 . S
O275 Co265 2.015 . S
O275 C285 1.257 . S
O276 Co261 2.111 1_556 S
O276 C286 1.274 . S
O277 Co266 1.976 . S
O277 C286 1.251 . S
O278 Co265 2.264 1_556 S
O278 Co266 2.327 . S
O278 C287 1.257 . S
O279 Co266 2.073 . S
O279 C287 1.245 . S
C280 O288 1.259 . S
C280 O289 1.289 . S
C281 O290 1.246 . S
C281 O291 1.257 . S
C282 O270 1.251 . S
C282 O271 1.274 . S
C283 O268 1.245 . S
C283 O269 1.257 . S
C284 O273 1.259 . S
C284 O274 1.289 . S
C285 O272 1.246 . S
C285 O275 1.257 . S
C286 O276 1.274 . S
C286 O277 1.251 . S
C287 O278 1.257 . S
C287 O279 1.245 . S
O288 Co259 2.286 . S
O288 C280 1.259 . S
O289 Co259 2.069 . S
O289 C280 1.289 . S
O290 Co261 2.143 1_556 S
O290 C281 1.246 . S
O291 Co259 2.015 . S
O291 C281 1.257 . S
Co292 O295 2.042 . S
Co292 O302 2.264 . S
Co292 O321 2.286 . S
Co292 O322 2.069 . S
Co292 O324 2.015 . S
Co293 O295 2.122 . S
Co293 O301 2.073 . S
Co293 O302 2.327 . S
Co293 O303 1.976 . S
Co294 O295 2.087 . S
Co294 O297 2.086 1_455 S
Co294 O304 2.111 . S
Co294 O305 2.143 1_455 S
Co294 O309 2.111 1_455 S
Co294 O323 2.144 . S
O295 Co292 2.042 . S
O295 Co293 2.122 . S
O295 Co294 2.087 . S
O295 H296 0.980 . S
H296 O295 0.980 . S
O297 Co294 2.086 1_655 S
O297 Co298 2.042 . S
O297 Co299 2.122 . S
O297 H300 0.980 . S
Co298 O297 2.042 . S
Co298 O306 2.286 . S
Co298 O307 2.069 . S
Co298 O308 2.015 . S
Co298 O311 2.264 . S
Co299 O297 2.122 . S
Co299 O310 1.976 . S
Co299 O311 2.327 . S
Co299 O312 2.073 . S
H300 O297 0.980 . S
O301 Co293 2.073 . S
O301 C316 1.245 . S
O302 Co292 2.264 . S
O302 Co293 2.327 . S
O302 C316 1.257 . S
O303 Co293 1.976 . S
O303 C315 1.251 . S
O304 Co294 2.111 . S
O304 C315 1.274 . S
O305 Co294 2.143 1_655 S
O305 C318 1.246 . S
O306 Co298 2.286 . S
O306 C317 1.259 . S
O307 Co298 2.069 . S
O307 C317 1.289 . S
O308 Co298 2.015 . S
O308 C318 1.257 . S
O309 Co294 2.111 1_655 S
O309 C319 1.274 . S
O310 Co299 1.976 . S
O310 C319 1.251 . S
O311 Co298 2.264 . S
O311 Co299 2.327 . S
O311 C320 1.257 . S
O312 Co299 2.073 . S
O312 C320 1.245 . S
C313 O321 1.259 . S
C313 O322 1.289 . S
C314 O323 1.246 . S
C314 O324 1.257 . S
C315 O303 1.251 . S
C315 O304 1.274 . S
C316 O301 1.245 . S
C316 O302 1.257 . S
C317 O306 1.259 . S
C317 O307 1.289 . S
C318 O305 1.246 . S
C318 O308 1.257 . S
C319 O309 1.274 . S
C319 O310 1.251 . S
C320 O311 1.257 . S
C320 O312 1.245 . S
O321 Co292 2.286 . S
O321 C313 1.259 . S
O322 Co292 2.069 . S
O322 C313 1.289 . S
O323 Co294 2.144 . S
O323 C314 1.246 . S
O324 Co292 2.015 . S
O324 C314 1.257 . S
Co325 O328 2.042 . S
Co325 O335 2.264 . S
Co325 O354 2.286 . S
Co325 O355 2.069 . S
Co325 O357 2.015 1_565 S
Co326 O328 2.122 . S
Co326 O334 2.073 . S
Co326 O335 2.327 . S
Co326 O336 1.976 1_565 S
Co327 O328 2.085 1_545 S
Co327 O330 2.089 . S
Co327 O337 2.113 . S
Co327 O338 2.143 1_545 S
Co327 O342 2.110 1_545 S
Co327 O356 2.144 . S
O328 Co325 2.042 . S
O328 Co326 2.122 . S
O328 Co327 2.085 1_565 S
O328 H329 0.980 . S
H329 O328 0.980 . S
O330 Co327 2.089 . S
O330 Co331 2.042 . S
O330 Co332 2.122 . S
O330 H333 0.980 . S
Co331 O330 2.042 . S
Co331 O339 2.286 . S
Co331 O340 2.069 . S
Co331 O341 2.015 1_545 S
Co331 O344 2.264 . S
Co332 O330 2.122 . S
Co332 O343 1.976 1_545 S
Co332 O344 2.327 . S
Co332 O345 2.073 . S
H333 O330 0.980 . S
O334 Co326 2.073 . S
O334 C349 1.245 . S
O335 Co325 2.264 . S
O335 Co326 2.327 . S
O335 C349 1.257 . S
O336 Co326 1.976 1_545 S
O336 C348 1.251 . S
O337 Co327 2.113 . S
O337 C348 1.274 . S
O338 Co327 2.143 1_565 S
O338 C351 1.246 . S
O339 Co331 2.286 . S
O339 C350 1.259 . S
O340 Co331 2.069 . S
O340 C350 1.289 . S
O341 Co331 2.015 1_565 S
O341 C351 1.257 . S
O342 Co327 2.110 1_565 S
O342 C352 1.274 . S
O343 Co332 1.976 1_565 S
O343 C352 1.251 . S
O344 Co331 2.264 . S
O344 Co332 2.327 . S
O344 C353 1.257 . S
O345 Co332 2.073 . S
O345 C353 1.245 . S
C346 O354 1.259 . S
C346 O355 1.289 . S
C347 O356 1.246 . S
C347 O357 1.257 . S
C348 O336 1.251 . S
C348 O337 1.274 . S
C349 O334 1.245 . S
C349 O335 1.257 . S
C350 O339 1.259 . S
C350 O340 1.289 . S
C351 O338 1.246 . S
C351 O341 1.257 . S
C352 O342 1.274 . S
C352 O343 1.251 . S
C353 O344 1.257 . S
C353 O345 1.245 . S
O354 Co325 2.286 . S
O354 C346 1.259 . S
O355 Co325 2.069 . S
O355 C346 1.289 . S
O356 Co327 2.144 . S
O356 C347 1.246 . S
O357 Co325 2.015 1_545 S
O357 C347 1.257 . S
C358 C359 1.387 . S
C358 H362 0.950 . S
C358 C367 1.390 . S
C359 C358 1.387 . S
C359 C361 1.387 . S
H360 C367 0.950 . S
C361 C359 1.387 . S
C361 C363 1.390 . S
C361 H365 0.950 . S
H362 C358 0.950 . S
C363 C361 1.390 . S
C363 C364 1.387 . S
C363 H366 0.950 . S
C364 C363 1.387 . S
C364 C367 1.387 . S
H365 C361 0.950 . S
H366 C363 0.950 . S
C367 C358 1.390 . S
C367 H360 0.950 . S
C367 C364 1.387 . S
C368 C369 1.387 . S
C368 H372 0.950 . S
C368 C377 1.390 . S
C369 C368 1.387 . S
C369 C371 1.387 . S
H370 C377 0.950 . S
C371 C369 1.387 . S
C371 C373 1.390 . S
C371 H375 0.950 . S
H372 C368 0.950 . S
C373 C371 1.390 . S
C373 C374 1.387 . S
C373 H376 0.950 . S
C374 C373 1.387 . S
C374 C377 1.387 . S
H375 C371 0.950 . S
H376 C373 0.950 . S
C377 C368 1.390 . S
C377 H370 0.950 . S
C377 C374 1.387 . S
C378 C379 1.387 . S
C378 H382 0.950 . S
C378 C387 1.390 . S
C379 C378 1.387 . S
C379 C381 1.387 . S
H380 C387 0.950 . S
C381 C379 1.387 . S
C381 C383 1.390 . S
C381 H385 0.950 . S
H382 C378 0.950 . S
C383 C381 1.390 . S
C383 C384 1.387 . S
C383 H386 0.950 . S
C384 C383 1.387 . S
C384 C387 1.387 . S
H385 C381 0.950 . S
H386 C383 0.950 . S
C387 C378 1.390 . S
C387 H380 0.950 . S
C387 C384 1.387 . S
C388 C389 1.387 . S
C388 H392 0.950 . S
C388 C397 1.390 . S
C389 C388 1.387 . S
C389 C391 1.387 . S
H390 C397 0.950 . S
C391 C389 1.387 . S
C391 C393 1.390 . S
C391 H395 0.950 . S
H392 C388 0.950 . S
C393 C391 1.390 . S
C393 C394 1.387 . S
C393 H396 0.950 . S
C394 C393 1.387 . S
C394 C397 1.387 . S
H395 C391 0.950 . S
H396 C393 0.950 . S
C397 C388 1.390 . S
C397 H390 0.950 . S
C397 C394 1.387 . S
C398 C399 1.387 . S
C398 H402 0.950 . S
C398 C407 1.390 . S
C399 C398 1.387 . S
C399 C401 1.387 . S
H400 C407 0.950 . S
C401 C399 1.387 . S
C401 C403 1.390 . S
C401 H405 0.950 . S
H402 C398 0.950 . S
C403 C401 1.390 . S
C403 C404 1.387 . S
C403 H406 0.950 . S
C404 C403 1.387 . S
C404 C407 1.387 . S
H405 C401 0.950 . S
H406 C403 0.950 . S
C407 C398 1.390 . S
C407 H400 0.950 . S
C407 C404 1.387 . S
C408 C409 1.387 . S
C408 H412 0.950 . S
C408 C417 1.390 . S
C409 C408 1.387 . S
C409 C411 1.387 . S
H410 C417 0.950 . S
C411 C409 1.387 . S
C411 C413 1.390 . S
C411 H415 0.950 . S
H412 C408 0.950 . S
C413 C411 1.390 . S
C413 C414 1.387 . S
C413 H416 0.950 . S
C414 C413 1.387 . S
C414 C417 1.387 . S
H415 C411 0.950 . S
H416 C413 0.950 . S
C417 C408 1.390 . S
C417 H410 0.950 . S
C417 C414 1.387 . S
C418 C419 1.387 . S
C418 H422 0.950 . S
C418 C427 1.390 . S
C419 C418 1.387 . S
C419 C421 1.387 . S
H420 C427 0.950 . S
C421 C419 1.387 . S
C421 C423 1.390 . S
C421 H425 0.950 . S
H422 C418 0.950 . S
C423 C421 1.390 . S
C423 C424 1.387 . S
C423 H426 0.950 . S
C424 C423 1.387 . S
C424 C427 1.387 . S
H425 C421 0.950 . S
H426 C423 0.950 . S
C427 C418 1.390 . S
C427 H420 0.950 . S
C427 C424 1.387 . S
C428 C429 1.387 . S
C428 H432 0.950 . S
C428 C437 1.390 . S
C429 C428 1.387 . S
C429 C431 1.387 . S
H430 C437 0.950 . S
C431 C429 1.387 . S
C431 C433 1.390 . S
C431 H435 0.950 . S
H432 C428 0.950 . S
C433 C431 1.390 . S
C433 C434 1.387 . S
C433 H436 0.950 . S
C434 C433 1.387 . S
C434 C437 1.387 . S
H435 C431 0.950 . S
H436 C433 0.950 . S
C437 C428 1.390 . S
C437 H430 0.950 . S
C437 C434 1.387 . S
C438 C439 1.387 . S
C438 H442 0.950 . S
C438 C447 1.390 . S
C439 C438 1.387 . S
C439 C441 1.387 . S
H440 C447 0.950 . S
C441 C439 1.387 . S
C441 C443 1.390 . S
C441 H445 0.950 . S
H442 C438 0.950 . S
C443 C441 1.390 . S
C443 C444 1.387 . S
C443 H446 0.950 . S
C444 C443 1.387 . S
C444 C447 1.387 . S
H445 C441 0.950 . S
H446 C443 0.950 . S
C447 C438 1.390 . S
C447 H440 0.950 . S
C447 C444 1.387 . S
C448 C449 1.387 . S
C448 H452 0.950 . S
C448 C457 1.390 . S
C449 C448 1.387 . S
C449 C451 1.387 . S
H450 C457 0.950 . S
C451 C449 1.387 . S
C451 C453 1.390 . S
C451 H455 0.950 . S
H452 C448 0.950 . S
C453 C451 1.390 . S
C453 C454 1.387 . S
C453 H456 0.950 . S
C454 C453 1.387 . S
C454 C457 1.387 . S
H455 C451 0.950 . S
H456 C453 0.950 . S
C457 C448 1.390 . S
C457 H450 0.950 . S
C457 C454 1.387 . S
C458 C459 1.387 . S
C458 H462 0.950 . S
C458 C467 1.390 . S
C459 C458 1.387 . S
C459 C461 1.387 . S
H460 C467 0.950 . S
C461 C459 1.387 . S
C461 C463 1.390 . S
C461 H465 0.950 . S
H462 C458 0.950 . S
C463 C461 1.390 . S
C463 C464 1.387 . S
C463 H466 0.950 . S
C464 C463 1.387 . S
C464 C467 1.387 . S
H465 C461 0.950 . S
H466 C463 0.950 . S
C467 C458 1.390 . S
C467 H460 0.950 . S
C467 C464 1.387 . S
C468 C469 1.387 . S
C468 H472 0.950 . S
C468 C477 1.390 . S
C469 C468 1.387 . S
C469 C471 1.387 . S
H470 C477 0.950 . S
C471 C469 1.387 . S
C471 C473 1.390 . S
C471 H475 0.950 . S
H472 C468 0.950 . S
C473 C471 1.390 . S
C473 C474 1.387 . S
C473 H476 0.950 . S
C474 C473 1.387 . S
C474 C477 1.387 . S
H475 C471 0.950 . S
H476 C473 0.950 . S
C477 C468 1.390 . S
C477 H470 0.950 . S
C477 C474 1.387 . S
C478 C479 1.387 . S
C478 H482 0.950 . S
C478 C487 1.390 . S
C479 C478 1.387 . S
C479 C481 1.387 . S
H480 C487 0.950 . S
C481 C479 1.387 . S
C481 C483 1.390 . S
C481 H485 0.950 . S
H482 C478 0.950 . S
C483 C481 1.390 . S
C483 C484 1.387 . S
C483 H486 0.950 . S
C484 C483 1.387 . S
C484 C487 1.387 . S
H485 C481 0.950 . S
H486 C483 0.950 . S
C487 C478 1.390 . S
C487 H480 0.950 . S
C487 C484 1.387 . S
C488 C489 1.387 . S
C488 H492 0.950 . S
C488 C497 1.390 . S
C489 C488 1.387 . S
C489 C491 1.387 . S
H490 C497 0.950 . S
C491 C489 1.387 . S
C491 C493 1.390 . S
C491 H495 0.950 . S
H492 C488 0.950 . S
C493 C491 1.390 . S
C493 C494 1.387 . S
C493 H496 0.950 . S
C494 C493 1.387 . S
C494 C497 1.387 . S
H495 C491 0.950 . S
H496 C493 0.950 . S
C497 C488 1.390 . S
C497 H490 0.950 . S
C497 C494 1.387 . S
C498 C499 1.387 . S
C498 H502 0.950 . S
C498 C507 1.390 . S
C499 C498 1.387 . S
C499 C501 1.387 . S
H500 C507 0.950 . S
C501 C499 1.387 . S
C501 C503 1.390 . S
C501 H505 0.950 . S
H502 C498 0.950 . S
C503 C501 1.390 . S
C503 C504 1.387 . S
C503 H506 0.950 . S
C504 C503 1.387 . S
C504 C507 1.387 . S
H505 C501 0.950 . S
H506 C503 0.950 . S
C507 C498 1.390 . S
C507 H500 0.950 . S
C507 C504 1.387 . S
C508 C509 1.387 . S
C508 H512 0.950 . S
C508 C517 1.390 . S
C509 C508 1.387 . S
C509 C511 1.387 . S
H510 C517 0.950 . S
C511 C509 1.387 . S
C511 C513 1.390 . S
C511 H515 0.950 . S
H512 C508 0.950 . S
C513 C511 1.390 . S
C513 C514 1.387 . S
C513 H516 0.950 . S
C514 C513 1.387 . S
C514 C517 1.387 . S
H515 C511 0.950 . S
H516 C513 0.950 . S
C517 C508 1.390 . S
C517 H510 0.950 . S
C517 C514 1.387 . S
C518 C519 1.387 . S
C518 H522 0.950 . S
C518 C527 1.390 . S
C519 C518 1.387 . S
C519 C521 1.387 . S
H520 C527 0.950 . S
C521 C519 1.387 . S
C521 C523 1.390 . S
C521 H525 0.950 . S
H522 C518 0.950 . S
C523 C521 1.390 . S
C523 C524 1.387 . S
C523 H526 0.950 . S
C524 C523 1.387 . S
C524 C527 1.387 . S
H525 C521 0.950 . S
H526 C523 0.950 . S
C527 C518 1.390 . S
C527 H520 0.950 . S
C527 C524 1.387 . S
C528 C529 1.387 . S
C528 H532 0.950 . S
C528 C537 1.390 . S
C529 C528 1.387 . S
C529 C531 1.387 . S
H530 C537 0.950 . S
C531 C529 1.387 . S
C531 C533 1.390 . S
C531 H535 0.950 . S
H532 C528 0.950 . S
C533 C531 1.390 . S
C533 C534 1.387 . S
C533 H536 0.950 . S
C534 C533 1.387 . S
C534 C537 1.387 . S
H535 C531 0.950 . S
H536 C533 0.950 . S
C537 C528 1.390 . S
C537 H530 0.950 . S
C537 C534 1.387 . S
C538 C539 1.387 . S
C538 H542 0.950 . S
C538 C547 1.390 . S
C539 C538 1.387 . S
C539 C541 1.387 . S
H540 C547 0.950 . S
C541 C539 1.387 . S
C541 C543 1.390 . S
C541 H545 0.950 . S
H542 C538 0.950 . S
C543 C541 1.390 . S
C543 C544 1.387 . S
C543 H546 0.950 . S
C544 C543 1.387 . S
C544 C547 1.387 . S
H545 C541 0.950 . S
H546 C543 0.950 . S
C547 C538 1.390 . S
C547 H540 0.950 . S
C547 C544 1.387 . S
C548 C549 1.387 . S
C548 H552 0.950 . S
C548 C557 1.390 . S
C549 C548 1.387 . S
C549 C551 1.387 . S
H550 C557 0.950 . S
C551 C549 1.387 . S
C551 C553 1.390 . S
C551 H555 0.950 . S
H552 C548 0.950 . S
C553 C551 1.390 . S
C553 C554 1.387 . S
C553 H556 0.950 . S
C554 C553 1.387 . S
C554 C557 1.387 . S
H555 C551 0.950 . S
H556 C553 0.950 . S
C557 C548 1.390 . S
C557 H550 0.950 . S
C557 C554 1.387 . S
C558 C559 1.387 . S
C558 H562 0.950 . S
C558 C567 1.390 . S
C559 C558 1.387 . S
C559 C561 1.387 . S
H560 C567 0.950 . S
C561 C559 1.387 . S
C561 C563 1.390 . S
C561 H565 0.950 . S
H562 C558 0.950 . S
C563 C561 1.390 . S
C563 C564 1.387 . S
C563 H566 0.950 . S
C564 C563 1.387 . S
C564 C567 1.387 . S
H565 C561 0.950 . S
H566 C563 0.950 . S
C567 C558 1.390 . S
C567 H560 0.950 . S
C567 C564 1.387 . S
C568 C569 1.387 . S
C568 H572 0.950 . S
C568 C577 1.390 . S
C569 C568 1.387 . S
C569 C571 1.387 . S
H570 C577 0.950 . S
C571 C569 1.387 . S
C571 C573 1.390 . S
C571 H575 0.950 . S
H572 C568 0.950 . S
C573 C571 1.390 . S
C573 C574 1.387 . S
C573 H576 0.950 . S
C574 C573 1.387 . S
C574 C577 1.387 . S
H575 C571 0.950 . S
H576 C573 0.950 . S
C577 C568 1.390 . S
C577 H570 0.950 . S
C577 C574 1.387 . S
C578 C579 1.387 . S
C578 H582 0.950 . S
C578 C587 1.390 . S
C579 C578 1.387 . S
C579 C581 1.387 . S
H580 C587 0.950 . S
C581 C579 1.387 . S
C581 C583 1.390 . S
C581 H585 0.950 . S
H582 C578 0.950 . S
C583 C581 1.390 . S
C583 C584 1.387 . S
C583 H586 0.950 . S
C584 C583 1.387 . S
C584 C587 1.387 . S
H585 C581 0.950 . S
H586 C583 0.950 . S
C587 C578 1.390 . S
C587 H580 0.950 . S
C587 C584 1.387 . S
C588 C589 1.387 . S
C588 H592 0.950 . S
C588 C597 1.390 . S
C589 C588 1.387 . S
C589 C591 1.387 . S
H590 C597 0.950 . S
C591 C589 1.387 . S
C591 C593 1.390 . S
C591 H595 0.950 . S
H592 C588 0.950 . S
C593 C591 1.390 . S
C593 C594 1.387 . S
C593 H596 0.950 . S
C594 C593 1.387 . S
C594 C597 1.387 . S
H595 C591 0.950 . S
H596 C593 0.950 . S
C597 C588 1.390 . S
C597 H590 0.950 . S
C597 C594 1.387 . S
C598 C599 1.387 . S
C598 H602 0.950 . S
C598 C607 1.390 . S
C599 C598 1.387 . S
C599 C601 1.387 . S
H600 C607 0.950 . S
C601 C599 1.387 . S
C601 C603 1.390 . S
C601 H605 0.950 . S
H602 C598 0.950 . S
C603 C601 1.390 . S
C603 C604 1.387 . S
C603 H606 0.950 . S
C604 C603 1.387 . S
C604 C607 1.387 . S
H605 C601 0.950 . S
H606 C603 0.950 . S
C607 C598 1.390 . S
C607 H600 0.950 . S
C607 C604 1.387 . S
C608 C609 1.387 . S
C608 H612 0.950 . S
C608 C617 1.390 . S
C609 C608 1.387 . S
C609 C611 1.387 . S
H610 C617 0.950 . S
C611 C609 1.387 . S
C611 C613 1.390 . S
C611 H615 0.950 . S
H612 C608 0.950 . S
C613 C611 1.390 . S
C613 C614 1.387 . S
C613 H616 0.950 . S
C614 C613 1.387 . S
C614 C617 1.387 . S
H615 C611 0.950 . S
H616 C613 0.950 . S
C617 C608 1.390 . S
C617 H610 0.950 . S
C617 C614 1.387 . S
C618 C619 1.387 . S
C618 H622 0.950 . S
C618 C627 1.390 . S
C619 C618 1.387 . S
C619 C621 1.387 . S
H620 C627 0.950 . S
C621 C619 1.387 . S
C621 C623 1.390 . S
C621 H625 0.950 . S
H622 C618 0.950 . S
C623 C621 1.390 . S
C623 C624 1.387 . S
C623 H626 0.950 . S
C624 C623 1.387 . S
C624 C627 1.387 . S
H625 C621 0.950 . S
H626 C623 0.950 . S
C627 C618 1.390 . S
C627 H620 0.950 . S
C627 C624 1.387 . S
C628 C629 1.387 . S
C628 H632 0.950 . S
C628 C637 1.390 . S
C629 C628 1.387 . S
C629 C631 1.387 . S
H630 C637 0.950 . S
C631 C629 1.387 . S
C631 C633 1.390 . S
C631 H635 0.950 . S
H632 C628 0.950 . S
C633 C631 1.390 . S
C633 C634 1.387 . S
C633 H636 0.950 . S
C634 C633 1.387 . S
C634 C637 1.387 . S
H635 C631 0.950 . S
H636 C633 0.950 . S
C637 C628 1.390 . S
C637 H630 0.950 . S
C637 C634 1.387 . S
C638 C639 1.387 . S
C638 H642 0.950 . S
C638 C647 1.390 . S
C639 C638 1.387 . S
C639 C641 1.387 . S
H640 C647 0.950 . S
C641 C639 1.387 . S
C641 C643 1.390 . S
C641 H645 0.950 . S
H642 C638 0.950 . S
C643 C641 1.390 . S
C643 C644 1.387 . S
C643 H646 0.950 . S
C644 C643 1.387 . S
C644 C647 1.387 . S
H645 C641 0.950 . S
H646 C643 0.950 . S
C647 C638 1.390 . S
C647 H640 0.950 . S
C647 C644 1.387 . S
C648 C649 1.387 . S
C648 H652 0.950 . S
C648 C657 1.390 . S
C649 C648 1.387 . S
C649 C651 1.387 . S
H650 C657 0.950 . S
C651 C649 1.387 . S
C651 C653 1.390 . S
C651 H655 0.950 . S
H652 C648 0.950 . S
C653 C651 1.390 . S
C653 C654 1.387 . S
C653 H656 0.950 . S
C654 C653 1.387 . S
C654 C657 1.387 . S
H655 C651 0.950 . S
H656 C653 0.950 . S
C657 C648 1.390 . S
C657 H650 0.950 . S
C657 C654 1.387 . S
C658 C659 1.387 . S
C658 H662 0.950 . S
C658 C667 1.390 . S
C659 C658 1.387 . S
C659 C661 1.387 . S
H660 C667 0.950 . S
C661 C659 1.387 . S
C661 C663 1.390 . S
C661 H665 0.950 . S
H662 C658 0.950 . S
C663 C661 1.390 . S
C663 C664 1.387 . S
C663 H666 0.950 . S
C664 C663 1.387 . S
C664 C667 1.387 . S
H665 C661 0.950 . S
H666 C663 0.950 . S
C667 C658 1.390 . S
C667 H660 0.950 . S
C667 C664 1.387 . S
C668 C669 1.387 . S
C668 H672 0.950 . S
C668 C677 1.390 . S
C669 C668 1.387 . S
C669 C671 1.387 . S
H670 C677 0.950 . S
C671 C669 1.387 . S
C671 C673 1.390 . S
C671 H675 0.950 . S
H672 C668 0.950 . S
C673 C671 1.390 . S
C673 C674 1.387 . S
C673 H676 0.950 . S
C674 C673 1.387 . S
C674 C677 1.387 . S
H675 C671 0.950 . S
H676 C673 0.950 . S
C677 C668 1.390 . S
C677 H670 0.950 . S
C677 C674 1.387 . S
C678 C679 1.387 . S
C678 H682 0.950 . S
C678 C687 1.390 . S
C679 C678 1.387 . S
C679 C681 1.387 . S
H680 C687 0.950 . S
C681 C679 1.387 . S
C681 C683 1.390 . S
C681 H685 0.950 . S
H682 C678 0.950 . S
C683 C681 1.390 . S
C683 C684 1.387 . S
C683 H686 0.950 . S
C684 C683 1.387 . S
C684 C687 1.387 . S
H685 C681 0.950 . S
H686 C683 0.950 . S
C687 C678 1.390 . S
C687 H680 0.950 . S
C687 C684 1.387 . S
C688 C689 1.387 . S
C688 H692 0.950 . S
C688 C697 1.390 . S
C689 C688 1.387 . S
C689 C691 1.387 . S
H690 C697 0.950 . S
C691 C689 1.387 . S
C691 C693 1.390 . S
C691 H695 0.950 . S
H692 C688 0.950 . S
C693 C691 1.390 . S
C693 C694 1.387 . S
C693 H696 0.950 . S
C694 C693 1.387 . S
C694 C697 1.387 . S
H695 C691 0.950 . S
H696 C693 0.950 . S
C697 C688 1.390 . S
C697 H690 0.950 . S
C697 C694 1.387 . S
C698 C699 1.387 . S
C698 H702 0.950 . S
C698 C707 1.390 . S
C699 C698 1.387 . S
C699 C701 1.387 . S
H700 C707 0.950 . S
C701 C699 1.387 . S
C701 C703 1.390 . S
C701 H705 0.950 . S
H702 C698 0.950 . S
C703 C701 1.390 . S
C703 C704 1.387 . S
C703 H706 0.950 . S
C704 C703 1.387 . S
C704 C707 1.387 . S
H705 C701 0.950 . S
H706 C703 0.950 . S
C707 C698 1.390 . S
C707 H700 0.950 . S
C707 C704 1.387 . S
C708 C709 1.387 . S
C708 H712 0.950 . S
C708 C717 1.390 . S
C709 C708 1.387 . S
C709 C711 1.387 . S
H710 C717 0.950 . S
C711 C709 1.387 . S
C711 C713 1.390 . S
C711 H715 0.950 . S
H712 C708 0.950 . S
C713 C711 1.390 . S
C713 C714 1.387 . S
C713 H716 0.950 . S
C714 C713 1.387 . S
C714 C717 1.387 . S
H715 C711 0.950 . S
H716 C713 0.950 . S
C717 C708 1.390 . S
C717 H710 0.950 . S
C717 C714 1.387 . S
C718 C719 1.387 . S
C718 H722 0.950 . S
C718 C727 1.390 . S
C719 C718 1.387 . S
C719 C721 1.387 . S
H720 C727 0.950 . S
C721 C719 1.387 . S
C721 C723 1.390 . S
C721 H725 0.950 . S
H722 C718 0.950 . S
C723 C721 1.390 . S
C723 C724 1.387 . S
C723 H726 0.950 . S
C724 C723 1.387 . S
C724 C727 1.387 . S
H725 C721 0.950 . S
H726 C723 0.950 . S
C727 C718 1.390 . S
C727 H720 0.950 . S
C727 C724 1.387 . S
C728 C729 1.387 . S
C728 H732 0.950 . S
C728 C737 1.390 . S
C729 C728 1.387 . S
C729 C731 1.387 . S
H730 C737 0.950 . S
C731 C729 1.387 . S
C731 C733 1.390 . S
C731 H735 0.950 . S
H732 C728 0.950 . S
C733 C731 1.390 . S
C733 C734 1.387 . S
C733 H736 0.950 . S
C734 C733 1.387 . S
C734 C737 1.387 . S
H735 C731 0.950 . S
H736 C733 0.950 . S
C737 C728 1.390 . S
C737 H730 0.950 . S
C737 C734 1.387 . S
C738 C739 1.387 . S
C738 H742 0.950 . S
C738 C747 1.390 . S
C739 C738 1.387 . S
C739 C741 1.387 . S
H740 C747 0.950 . S
C741 C739 1.387 . S
C741 C743 1.390 . S
C741 H745 0.950 . S
H742 C738 0.950 . S
C743 C741 1.390 . S
C743 C744 1.387 . S
C743 H746 0.950 . S
C744 C743 1.387 . S
C744 C747 1.387 . S
H745 C741 0.950 . S
H746 C743 0.950 . S
C747 C738 1.390 . S
C747 H740 0.950 . S
C747 C744 1.387 . S
C748 C749 1.387 . S
C748 H752 0.950 . S
C748 C757 1.390 . S
C749 C748 1.387 . S
C749 C751 1.387 . S
H750 C757 0.950 . S
C751 C749 1.387 . S
C751 C753 1.390 . S
C751 H755 0.950 . S
H752 C748 0.950 . S
C753 C751 1.390 . S
C753 C754 1.387 . S
C753 H756 0.950 . S
C754 C753 1.387 . S
C754 C757 1.387 . S
H755 C751 0.950 . S
H756 C753 0.950 . S
C757 C748 1.390 . S
C757 H750 0.950 . S
C757 C754 1.387 . S
C758 C759 1.387 . S
C758 H762 0.950 . S
C758 C767 1.390 . S
C759 C758 1.387 . S
C759 C761 1.387 . S
H760 C767 0.950 . S
C761 C759 1.387 . S
C761 C763 1.390 . S
C761 H765 0.950 . S
H762 C758 0.950 . S
C763 C761 1.390 . S
C763 C764 1.387 . S
C763 H766 0.950 . S
C764 C763 1.387 . S
C764 C767 1.387 . S
H765 C761 0.950 . S
H766 C763 0.950 . S
C767 C758 1.390 . S
C767 H760 0.950 . S
C767 C764 1.387 . S
C768 C769 1.387 . S
C768 H772 0.950 . S
C768 C777 1.390 . S
C769 C768 1.387 . S
C769 C771 1.387 . S
H770 C777 0.950 . S
C771 C769 1.387 . S
C771 C773 1.390 . S
C771 H775 0.950 . S
H772 C768 0.950 . S
C773 C771 1.390 . S
C773 C774 1.387 . S
C773 H776 0.950 . S
C774 C773 1.387 . S
C774 C777 1.387 . S
H775 C771 0.950 . S
H776 C773 0.950 . S
C777 C768 1.390 . S
C777 H770 0.950 . S
C777 C774 1.387 . S
C778 C779 1.387 . S
C778 H782 0.950 . S
C778 C787 1.390 . S
C779 C778 1.387 . S
C779 C781 1.387 . S
H780 C787 0.950 . S
C781 C779 1.387 . S
C781 C783 1.390 . S
C781 H785 0.950 . S
H782 C778 0.950 . S
C783 C781 1.390 . S
C783 C784 1.387 . S
C783 H786 0.950 . S
C784 C783 1.387 . S
C784 C787 1.387 . S
H785 C781 0.950 . S
H786 C783 0.950 . S
C787 C778 1.390 . S
C787 H780 0.950 . S
C787 C784 1.387 . S
C788 C789 1.387 . S
C788 H792 0.950 . S
C788 C797 1.390 . S
C789 C788 1.387 . S
C789 C791 1.387 . S
H790 C797 0.950 . S
C791 C789 1.387 . S
C791 C793 1.390 . S
C791 H795 0.950 . S
H792 C788 0.950 . S
C793 C791 1.390 . S
C793 C794 1.387 . S
C793 H796 0.950 . S
C794 C793 1.387 . S
C794 C797 1.387 . S
H795 C791 0.950 . S
H796 C793 0.950 . S
C797 C788 1.390 . S
C797 H790 0.950 . S
C797 C794 1.387 . S
C798 C799 1.387 . S
C798 H802 0.950 . S
C798 C807 1.390 . S
C799 C798 1.387 . S
C799 C801 1.387 . S
H800 C807 0.950 . S
C801 C799 1.387 . S
C801 C803 1.390 . S
C801 H805 0.950 . S
H802 C798 0.950 . S
C803 C801 1.390 . S
C803 C804 1.387 . S
C803 H806 0.950 . S
C804 C803 1.387 . S
C804 C807 1.387 . S
H805 C801 0.950 . S
H806 C803 0.950 . S
C807 C798 1.390 . S
C807 H800 0.950 . S
C807 C804 1.387 . S
C808 C809 1.387 . S
C808 H812 0.950 . S
C808 C817 1.390 . S
C809 C808 1.387 . S
C809 C811 1.387 . S
H810 C817 0.950 . S
C811 C809 1.387 . S
C811 C813 1.390 . S
C811 H815 0.950 . S
H812 C808 0.950 . S
C813 C811 1.390 . S
C813 C814 1.387 . S
C813 H816 0.950 . S
C814 C813 1.387 . S
C814 C817 1.387 . S
H815 C811 0.950 . S
H816 C813 0.950 . S
C817 C808 1.390 . S
C817 H810 0.950 . S
C817 C814 1.387 . S
C818 C819 1.387 . S
C818 H822 0.950 . S
C818 C827 1.390 . S
C819 C818 1.387 . S
C819 C821 1.387 . S
H820 C827 0.950 . S
C821 C819 1.387 . S
C821 C823 1.390 . S
C821 H825 0.950 . S
H822 C818 0.950 . S
C823 C821 1.390 . S
C823 C824 1.387 . S
C823 H826 0.950 . S
C824 C823 1.387 . S
C824 C827 1.387 . S
H825 C821 0.950 . S
H826 C823 0.950 . S
C827 C818 1.390 . S
C827 H820 0.950 . S
C827 C824 1.387 . S
C828 C829 1.387 . S
C828 H832 0.950 . S
C828 C837 1.390 . S
C829 C828 1.387 . S
C829 C831 1.387 . S
H830 C837 0.950 . S
C831 C829 1.387 . S
C831 C833 1.390 . S
C831 H835 0.950 . S
H832 C828 0.950 . S
C833 C831 1.390 . S
C833 C834 1.387 . S
C833 H836 0.950 . S
C834 C833 1.387 . S
C834 C837 1.387 . S
H835 C831 0.950 . S
H836 C833 0.950 . S
C837 C828 1.390 . S
C837 H830 0.950 . S
C837 C834 1.387 . S
C364 C187 1.410 . S
C359 C9 1.555 . S
C374 C188 1.474 . S
C369 C22 1.499 . S
C384 C182 1.241 . S
C379 C49 1.250 . S
C389 C61 1.023 . S
C394 C181 1.023 . S
C399 C81 1.497 . S
C404 C184 1.476 . S
C414 C186 1.238 . S
C409 C108 1.252 . S
C419 C122 1.019 . S
C424 C185 1.023 . S
C429 C148 1.555 . S
C434 C183 1.410 . S
C444 C218 2.212 . S
C439 C18 2.130 . S
C449 C39 1.548 . S
C454 C249 1.576 . S
C464 C217 2.080 . S
C459 C58 2.092 . S
C474 C252 1.163 . S
C469 C69 1.181 . S
C479 C89 1.370 . S
C484 C215 1.371 . S
C494 C247 1.291 . S
C489 C102 1.303 . S
C499 C139 1.346 . S
C504 C220 1.396 . S
C509 C142 1.263 . S
C514 C254 1.208 . S
C519 C1 1.262 . S
C524 C250 1.206 . S
C529 C98 1.548 . S
C534 C253 1.578 . S
C544 C221 2.080 . S
C539 C119 2.094 . S
C554 C248 1.161 . S
C549 C128 1.185 . S
C559 C159 2.132 . S
C564 C214 2.213 . S
C569 C41 1.303 . S
C574 C251 1.290 . S
C584 C216 1.395 . S
C579 C78 1.347 . S
C589 C28 1.371 . S
C594 C219 1.369 . S
C599 C149 1.547 . S
C604 C286 1.423 . S
C609 C82 1.271 . S
C614 C287 1.230 . S
C624 C281 1.266 . S
C619 C109 1.294 . S
C634 C280 1.311 . S
C629 C121 1.288 . S
C639 C21 1.272 . S
C644 C283 1.226 . S
C654 C285 1.263 . S
C649 C48 1.293 . S
C659 C62 1.284 . S
C664 C284 1.308 . S
C669 C8 1.547 . S
C674 C282 1.422 . S
C679 C158 2.276 . S
C684 C320 2.222 . S
C694 C352 1.389 . S
C689 C99 1.346 . S
C699 C118 1.995 . S
C704 C313 2.008 . S
C709 C129 1.440 . S
C714 C347 1.442 . S
C724 C318 1.222 . S
C719 C29 1.189 . S
C729 C42 1.525 . S
C734 C349 1.483 . S
C744 C315 1.628 . S
C739 C79 1.575 . S
C754 C350 1.327 . S
C749 C2 1.305 . S
C764 C346 1.327 . S
C759 C141 1.305 . S
C769 C38 1.344 . S
C774 C348 1.388 . S
C779 C59 1.994 . S
C784 C317 2.008 . S
C794 C351 1.441 . S
C789 C68 1.440 . S
C799 C19 2.277 . S
C804 C316 2.222 . S
C809 C101 1.524 . S
C814 C353 1.484 . S
C824 C319 1.630 . S
C819 C138 1.572 . S
C834 C314 1.222 . S
C829 C88 1.189 . S
