# Generated by pormake.
# Topology scu, (8,4)-cn, num edge types: 1
# Building blocks:
#     Node 0, Type 0, BuildingBlock: GIZVER_clean_sbu_0, # of connection points: 8
#     Node 1, Type 1, BuildingBlock: NAWXER_clean_sbu_0, # of connection points: 4
#     Node 2, Type 1, BuildingBlock: NAWXER_clean_sbu_0, # of connection points: 4
#     Edge 3, Type (0, 1), BuildingBlock: UVAHIK_clean_linker_0, # of connection points: 2
#     Edge 4, Type (0, 1), BuildingBlock: UVAHIK_clean_linker_0, # of connection points: 2
#     Edge 5, Type (0, 1), BuildingBlock: UVAHIK_clean_linker_0, # of connection points: 2
#     Edge 6, Type (0, 1), BuildingBlock: UVAHIK_clean_linker_0, # of connection points: 2
#     Edge 7, Type (0, 1), BuildingBlock: UVAHIK_clean_linker_0, # of connection points: 2
#     Edge 8, Type (0, 1), BuildingBlock: UVAHIK_clean_linker_0, # of connection points: 2
#     Edge 9, Type (0, 1), BuildingBlock: UVAHIK_clean_linker_0, # of connection points: 2
#     Edge 10, Type (0, 1), BuildingBlock: UVAHIK_clean_linker_0, # of connection points: 2
# Relax obj value: 0.018
# Max RMSD: 0.085
# Mean RMSD: 0.061
data_MOF--net-scu--node1-GIZVER_clean_sbu_0--node2-NAWXER_clean_sbu_0--edge1-UVAHIK_clean_linker_0
_symmetry_space_group_name_H-M    P1
_symmetry_Int_Tables_number       1
_symmetry_cell_setting            triclinic
loop_
_symmetry_equiv_pos_as_xyz
'x, y, z'
_cell_length_a     29.831359
_cell_length_b     30.420976
_cell_length_c     28.043702
_cell_angle_alpha  97.968429
_cell_angle_beta   83.504236
_cell_angle_gamma 114.00006
loop_
_atom_site_label
_atom_site_type_symbol
_atom_site_fract_x
_atom_site_fract_y
_atom_site_fract_z
_atom_type_partial_charge
Co0 Co 0.01436 0.96535 0.11437 0.0
Co1 Co 0.09258 0.02771 0.0741 0.0
Co2 Co 0.00118 1.01266 1.01636 0.0
O3 O 0.03516 0.98213 0.0498 0.0
H4 H 0.04203 0.95714 0.02909 0.0
O5 O 0.96644 0.04261 0.9831 0.0
Co6 Co 0.9903 0.07004 0.9227 0.0
Co7 Co 0.9125 0.99688 0.95096 0.0
H8 H 0.95543 0.06363 1.00581 0.0
O9 O 0.142 1.01065 0.08856 0.0
O10 O 0.07804 0.0141 0.13791 0.0
O11 O 0.10339 0.09447 0.07389 0.0
O12 O 0.02602 0.07672 0.05832 0.0
O13 O 0.06028 0.03565 0.97085 0.0
O14 O 0.00939 0.09917 0.86888 0.0
O15 O 0.96302 0.11455 0.93261 0.0
O16 O 0.0232 0.02749 0.90397 0.0
O17 O 0.97779 0.94887 0.97427 0.0
O18 O 0.90916 0.93223 0.93821 0.0
O19 O 0.93001 0.02242 0.89243 0.0
O20 O 0.8607 1.01221 0.93909 0.0
C21 C 0.01535 0.91428 0.15466 0.0
C22 C 0.94535 1.00006 0.10766 0.0
C23 C 0.0674 0.10659 0.07397 0.0
C24 C 0.11996 1.00957 0.13133 0.0
C25 C 0.98358 0.12315 0.8893 0.0
C26 C 0.05781 0.02562 0.92532 0.0
C27 C 0.94326 0.92066 0.94763 0.0
C28 C 0.88718 0.02497 0.89939 0.0
O29 O 0.99634 0.94512 0.17258 0.0
O30 O 0.03613 0.91722 0.11092 0.0
O31 O 0.94199 0.98935 0.06223 0.0
O32 O 0.98623 1.01147 0.12592 0.0
C33 C 0.02327 0.56989 0.59425 0.0
C34 C 0.03721 0.46497 0.44916 0.0
O35 O 0.06301 0.56895 0.57325 0.0
Zn36 Zn 0.03281 0.51874 0.52143 0.0
O37 O 0.98205 0.54267 0.57657 0.0
Zn38 Zn 0.9543 0.49017 0.51703 0.0
O39 O 0.91236 0.43405 0.55072 0.0
O40 O 0.99161 0.45612 0.55902 0.0
O41 O 0.99308 0.46061 0.46208 0.0
O42 O 0.07247 0.49468 0.47387 0.0
O43 O 0.0077 0.55581 0.47845 0.0
O44 O 0.92682 0.52167 0.4792 0.0
C45 C 0.94674 0.42757 0.56778 0.0
C46 C 0.96733 0.55396 0.46486 0.0
C47 C 0.58684 0.07509 0.57993 0.0
C48 C 0.45207 0.04875 0.48065 0.0
O49 O 0.56162 0.03029 0.56719 0.0
Zn50 Zn 0.49722 0.98698 0.52882 0.0
O51 O 0.57392 0.10729 0.56912 0.0
Zn52 Zn 0.51814 0.06352 0.53289 0.0
O53 O 0.46597 0.02895 0.58818 0.0
O54 O 0.4492 0.95087 0.57735 0.0
O55 O 0.48144 0.0891 0.50003 0.0
O56 O 0.45479 1.00947 0.4887 0.0
O57 O 0.52448 0.9536 0.47791 0.0
O58 O 0.55232 0.03243 0.47374 0.0
C59 C 0.44235 0.98645 0.60142 0.0
C60 C 0.55186 0.99081 0.45685 0.0
C61 C 0.11304 0.18361 0.1251 0.0
C62 C 0.07067 0.15334 0.10081 0.0
C63 C 0.11294 0.22289 0.15754 0.0
C64 C 0.02511 0.25923 0.23729 0.0
H65 H 0.13566 0.38244 0.25832 0.0
C66 C 0.00713 0.40917 0.37502 0.0
C67 C 0.0457 0.43502 0.40557 0.0
C68 C 0.01306 0.37879 0.3351 0.0
C69 C 0.10468 0.34802 0.25313 0.0
H70 H 0.99624 0.1431 0.08899 0.0
H71 H 0.99641 0.21191 0.14497 0.0
H72 H 0.14081 0.32362 0.1911 0.0
H73 H 0.12143 0.45022 0.41718 0.0
H74 H 0.13164 0.39609 0.34737 0.0
H75 H 0.98917 0.2828 0.2994 0.0
C76 C 0.02934 0.20456 0.13972 0.0
C77 C 0.10756 0.31441 0.21457 0.0
C78 C 0.02939 0.1653 0.10731 0.0
C79 C 0.09099 0.43072 0.39439 0.0
C80 C 0.09688 0.3999 0.35431 0.0
C81 C 0.02228 0.2926 0.2757 0.0
C82 C 0.07051 0.23283 0.16642 0.0
C83 C 0.06765 0.2697 0.2061 0.0
C84 C 0.05762 0.37299 0.32467 0.0
C85 C 0.06185 0.33753 0.28401 0.0
H86 H 0.14558 0.17564 0.12094 0.0
H87 H 0.14521 0.24382 0.17759 0.0
H88 H 0.9942 0.22466 0.23267 0.0
H89 H 0.97193 0.41211 0.38203 0.0
H90 H 0.98245 0.35957 0.31245 0.0
C91 C 0.85506 0.98216 0.12187 0.0
C92 C 0.9018 0.99792 0.13991 0.0
C93 C 0.8141 0.97928 0.15317 0.0
C94 C 0.78153 0.02901 0.27273 0.0
H95 H 0.65705 0.91782 0.26385 0.0
C96 C 0.59253 0.94479 0.39938 0.0
C97 C 0.58507 0.9875 0.41437 0.0
C98 C 0.62768 0.94397 0.36198 0.0
C99 C 0.69166 0.94899 0.26678 0.0
H100 H 0.94202 0.02275 0.20501 0.0
H101 H 0.87098 0.01773 0.25911 0.0
H102 H 0.72622 0.92072 0.20621 0.0
H103 H 0.60665 0.06197 0.39998 0.0
H104 H 0.66719 0.06031 0.33501 0.0
H105 H 0.7478 0.05703 0.33358 0.0
C106 C 0.86594 1.00803 0.22084 0.0
C107 C 0.73103 0.95087 0.23356 0.0
C108 C 0.90667 1.01073 0.18976 0.0
C109 C 0.61185 0.0286 0.38985 0.0
C110 C 0.64675 0.02776 0.35265 0.0
C111 C 0.74231 0.02725 0.30562 0.0
C112 C 0.81924 0.99244 0.20296 0.0
C113 C 0.7765 0.99079 0.2365 0.0
C114 C 0.65592 0.98586 0.33903 0.0
C115 C 0.69695 0.98724 0.30314 0.0
H116 H 0.85007 0.97192 0.08366 0.0
H117 H 0.77858 0.96748 0.13834 0.0
H118 H 0.81593 0.06047 0.27566 0.0
H119 H 0.57241 0.91249 0.41749 0.0
H120 H 0.63408 0.91118 0.35237 0.0
C121 C 0.02598 0.83796 0.16461 0.0
C122 C 0.01248 0.87625 0.18427 0.0
C123 C 0.01984 0.80071 0.19243 0.0
C124 C 0.95077 0.74435 0.30261 0.0
H125 H 0.04925 0.69073 0.29541 0.0
C126 C 0.92708 0.5855 0.41099 0.0
C127 C 0.96931 0.58893 0.43169 0.0
C128 C 0.93047 0.61802 0.3784 0.0
C129 C 0.02144 0.70544 0.29806 0.0
H130 H 0.98342 0.9061 0.24918 0.0
H131 H 0.97371 0.84217 0.29749 0.0
H132 H 0.06004 0.75294 0.24383 0.0
H133 H 0.0481 0.62992 0.43483 0.0
H134 H 0.0537 0.6865 0.37925 0.0
H135 H 0.91302 0.69806 0.35802 0.0
C136 C 0.98783 0.84001 0.26032 0.0
C137 C 0.02737 0.74076 0.268 0.0
C138 C 0.99383 0.877 0.23261 0.0
C139 C 0.01475 0.62585 0.41944 0.0
C140 C 0.0181 0.65821 0.38711 0.0
C141 C 0.94487 0.70908 0.33273 0.0
C142 C 1.00013 0.80101 0.24053 0.0
C143 C 0.99247 0.76122 0.27035 0.0
C144 C 0.97616 0.65463 0.36583 0.0
C145 C 0.98049 0.68964 0.33137 0.0
H146 H 0.04035 0.83623 0.12748 0.0
H147 H 0.02951 0.77114 0.1759 0.0
H148 H 0.92266 0.75863 0.30485 0.0
H149 H 0.89155 0.55741 0.41949 0.0
H150 H 0.89742 0.61398 0.36247 0.0
C151 C 0.13824 0.03132 0.21838 0.0
C152 C 0.14507 1.0079 0.17301 0.0
C153 C 0.16651 0.03465 0.25633 0.0
C154 C 0.23471 0.97906 0.30565 0.0
H155 H 0.32598 0.10796 0.34963 0.0
C156 C 0.39764 1.00615 0.41331 0.0
C157 C 0.41511 0.046 0.44817 0.0
C158 C 0.36175 1.00183 0.38308 0.0
C159 C 0.30013 0.07174 0.33871 0.0
H160 H 0.18458 0.9674 0.13236 0.0
H161 H 0.23258 0.97158 0.1994 0.0
H162 H 0.26549 0.09773 0.29268 0.0
H163 H 0.40868 0.11265 0.47893 0.0
H164 H 0.34421 0.10429 0.42737 0.0
H165 H 0.26787 0.95263 0.35209 0.0
C166 C 0.2061 0.9881 0.20518 0.0
C167 C 0.26565 0.06598 0.30591 0.0
C168 C 0.17881 0.98584 0.16692 0.0
C169 C 0.39604 0.0817 0.45212 0.0
C170 C 0.35922 0.0769 0.4224 0.0
C171 C 0.26837 0.98477 0.3392 0.0
C172 C 0.20093 0.01342 0.24982 0.0
C173 C 0.23342 0.01958 0.28843 0.0
C174 C 0.34143 0.03673 0.38753 0.0
C175 C 0.30247 0.03114 0.35531 0.0
H176 H 0.11258 0.04879 0.22395 0.0
H177 H 0.16193 0.05423 0.29058 0.0
H178 H 0.20985 0.94294 0.29285 0.0
H179 H 0.41213 0.97834 0.40896 0.0
H180 H 0.35041 0.97119 0.35583 0.0
C181 C 0.91765 0.85112 0.88294 0.0
C182 C 0.94764 0.87667 0.92118 0.0
C183 C 0.9269 0.81473 0.85283 0.0
C184 C 0.93998 0.72544 0.80469 0.0
H185 H 0.07588 0.74549 0.76928 0.0
C186 C 0.98435 0.58478 0.67423 0.0
C187 C 0.02287 0.60164 0.63893 0.0
C188 C 0.97865 0.61588 0.71362 0.0
C189 C 0.03774 0.73945 0.77849 0.0
H190 H 0.00959 0.88216 0.95906 0.0
H191 H 0.02462 0.81757 0.90753 0.0
H192 H 0.05712 0.80361 0.82799 0.0
H193 H 0.08688 0.66363 0.61779 0.0
H194 H 0.07593 0.71905 0.6858 0.0
H195 H 0.92038 0.66313 0.75339 0.0
C196 C 0.99474 0.82661 0.89998 0.0
C197 C 0.02691 0.77245 0.81279 0.0
C198 C 0.98573 0.86332 0.92991 0.0
C199 C 0.05704 0.64978 0.64478 0.0
C200 C 0.05072 0.6814 0.68383 0.0
C201 C 0.95076 0.69288 0.77011 0.0
C202 C 0.96608 0.8025 0.86042 0.0
C203 C 0.97784 0.76603 0.82608 0.0
C204 C 0.01057 0.66508 0.71809 0.0
C205 C 0.99977 0.69938 0.75638 0.0
H206 H 0.88828 0.86063 0.87478 0.0
H207 H 0.9044 0.79756 0.82241 0.0
H208 H 0.90177 0.71883 0.81438 0.0
H209 H 0.95786 0.54756 0.67082 0.0
H210 H 0.94834 0.60144 0.73996 0.0
C211 C 0.13109 1.00396 0.91996 0.0
C212 C 0.09517 1.01064 0.89689 0.0
C213 C 0.16716 0.99119 0.89296 0.0
C214 C 0.25776 1.00068 0.82691 0.0
H215 H 0.23214 0.91948 0.70527 0.0
C216 C 0.40591 0.02059 0.67368 0.0
C217 C 0.4058 0.97985 0.64308 0.0
C218 C 0.36885 0.01634 0.70997 0.0
C219 C 0.23988 0.94155 0.73953 0.0
H220 H 0.06823 1.00768 0.8273 0.0
H221 H 0.13159 0.98653 0.78033 0.0
H222 H 0.16352 0.92484 0.75848 0.0
H223 H 0.36755 0.90224 0.62779 0.0
H224 H 0.30226 0.89473 0.6917 0.0
H225 H 0.33404 0.01774 0.80786 0.0
C226 C 0.13154 0.99039 0.81931 0.0
C227 C 0.20058 0.94515 0.76975 0.0
C228 C 0.09541 1.00301 0.84628 0.0
C229 C 0.36864 0.93429 0.65082 0.0
C230 C 0.33113 0.93006 0.68716 0.0
C231 C 0.29697 0.997 0.7968 0.0
C232 C 0.16823 0.98488 0.84226 0.0
C233 C 0.20915 0.97583 0.81317 0.0
C234 C 0.3305 0.97123 0.71668 0.0
C235 C 0.28861 0.96857 0.75208 0.0
H236 H 0.13162 1.00892 0.95893 0.0
H237 H 0.19442 0.98656 0.91184 0.0
H238 H 0.26585 0.02486 0.8599 0.0
H239 H 0.43408 0.05623 0.66888 0.0
H240 H 0.36922 0.04893 0.73148 0.0
C241 C 0.99812 0.16524 0.8152 0.0
C242 C 0.97316 0.15501 0.86051 0.0
C243 C 0.98472 0.18964 0.78457 0.0
C244 C 0.92112 0.27043 0.7802 0.0
H245 H 0.93006 0.2313 0.64298 0.0
C246 C 0.89443 0.37252 0.6301 0.0
C247 C 0.93641 0.38796 0.59811 0.0
C248 C 0.88843 0.33866 0.66224 0.0
C249 C 0.927 0.24241 0.68121 0.0
H250 H 0.91488 0.16342 0.90952 0.0
H251 H 0.89132 0.20635 0.85565 0.0
H252 H 0.93876 0.18256 0.70059 0.0
H253 H 0.00384 0.37876 0.57327 0.0
H254 H 0.99259 0.31887 0.62784 0.0
H255 H 0.91 0.3308 0.76024 0.0
C256 C 0.9216 0.1956 0.84412 0.0
C257 C 0.93234 0.21474 0.71424 0.0
C258 C 0.93523 0.17118 0.87506 0.0
C259 C 0.97115 0.36761 0.59754 0.0
C260 C 0.96461 0.33315 0.62865 0.0
C261 C 0.91524 0.29793 0.747 0.0
C262 C 0.94574 0.20441 0.79812 0.0
C263 C 0.93156 0.22947 0.76407 0.0
C264 C 0.92365 0.31882 0.66185 0.0
C265 C 0.91995 0.2851 0.69713 0.0
H266 H 0.02764 0.15356 0.80279 0.0
H267 H 0.0051 0.19693 0.75004 0.0
H268 H 0.92024 0.28281 0.81827 0.0
H269 H 0.86729 0.38794 0.63153 0.0
H270 H 0.85653 0.32819 0.68753 0.0
C271 C 0.83168 0.06059 0.87576 0.0
C272 C 0.86907 0.04346 0.86285 0.0
C273 C 0.81356 0.07697 0.84119 0.0
C274 C 0.78812 0.04991 0.71701 0.0
H275 H 0.76106 0.1656 0.73214 0.0
C276 C 0.66651 0.06947 0.58551 0.0
C277 C 0.63177 0.08811 0.60522 0.0
C278 C 0.70589 0.07524 0.61179 0.0
C279 C 0.76796 0.13294 0.72749 0.0
H280 H 0.91803 0.0317 0.80399 0.0
H281 H 0.88491 0.05877 0.74309 0.0
H282 H 0.81182 0.15558 0.78915 0.0
H283 H 0.61129 0.12878 0.6668 0.0
H284 H 0.67853 0.13665 0.71436 0.0
H285 H 0.74197 0.02506 0.65808 0.0
C286 C 0.87016 0.05991 0.78014 0.0
C287 C 0.79734 0.12747 0.75995 0.0
C288 C 0.88889 0.04425 0.8149 0.0
C289 C 0.638 0.11442 0.65088 0.0
C290 C 0.67675 0.11905 0.67791 0.0
C291 C 0.75815 0.05488 0.68523 0.0
C292 C 0.83188 0.07578 0.7929 0.0
C293 C 0.80695 0.08549 0.75535 0.0
C294 C 0.71045 0.09824 0.65923 0.0
C295 C 0.74688 0.09608 0.69036 0.0
H296 H 0.81616 0.06107 0.91256 0.0
H297 H 0.78376 0.08866 0.85183 0.0
H298 H 0.79437 0.01687 0.71313 0.0
H299 H 0.66255 0.04942 0.55004 0.0
H300 H 0.73184 0.06016 0.59533 0.0
loop_
_geom_bond_atom_site_label_1
_geom_bond_atom_site_label_2
_geom_bond_distance
_geom_bond_site_symmetry_2
_ccdc_geom_bond_type
Co0 O3 2.042 . S
Co0 O10 2.264 1_565 S
Co0 O29 2.286 1_455 S
Co0 O30 2.069 . S
Co0 O32 2.015 1_455 S
Co1 O3 2.122 1_545 S
Co1 O9 2.073 . S
Co1 O10 2.327 . S
Co1 O11 1.976 . S
Co2 O3 2.094 1_545 S
Co2 O5 2.080 1_454 S
Co2 O12 2.134 . S
Co2 O13 2.142 1_554 S
Co2 O17 2.088 1_444 S
Co2 O31 2.145 1_445 S
O3 Co0 2.042 . S
O3 Co1 2.122 1_565 S
O3 Co2 2.094 1_565 S
O3 H4 0.980 . S
H4 O3 0.980 . S
O5 Co2 2.080 1_656 S
O5 Co6 2.042 . S
O5 Co7 2.122 1_545 S
O5 H8 0.980 . S
Co6 O5 2.042 . S
Co6 O14 2.286 1_655 S
Co6 O15 2.069 . S
Co6 O16 2.015 1_655 S
Co6 O19 2.265 . S
Co7 O5 2.122 1_565 S
Co7 O18 1.976 . S
Co7 O19 2.323 1_565 S
Co7 O20 2.073 . S
H8 O5 0.980 . S
O9 Co1 2.073 . S
O9 C24 1.245 1_545 S
O10 Co0 2.264 1_545 S
O10 Co1 2.327 . S
O10 C24 1.257 1_545 S
O11 Co1 1.976 . S
O11 C23 1.251 . S
O12 Co2 2.134 . S
O12 C23 1.274 . S
O13 Co2 2.142 1_556 S
O13 C26 1.246 . S
O14 Co6 2.286 1_455 S
O14 C25 1.259 1_455 S
O15 Co6 2.069 . S
O15 C25 1.289 . S
O16 Co6 2.015 1_455 S
O16 C26 1.257 . S
O17 Co2 2.088 1_666 S
O17 C27 1.274 . S
O18 Co7 1.976 . S
O18 C27 1.251 . S
O19 Co6 2.265 . S
O19 Co7 2.323 1_545 S
O19 C28 1.260 . S
O20 Co7 2.073 . S
O20 C28 1.245 1_565 S
C21 O29 1.259 1_455 S
C21 O30 1.289 . S
C22 O31 1.246 . S
C22 O32 1.257 . S
C23 O11 1.251 . S
C23 O12 1.274 . S
C24 O9 1.245 1_565 S
C24 O10 1.257 1_565 S
C25 O14 1.259 1_655 S
C25 O15 1.289 . S
C26 O13 1.246 . S
C26 O16 1.257 . S
C27 O17 1.274 . S
C27 O18 1.251 . S
C28 O19 1.260 . S
C28 O20 1.245 1_545 S
O29 Co0 2.286 1_655 S
O29 C21 1.259 1_655 S
O30 Co0 2.069 . S
O30 C21 1.289 . S
O31 Co2 2.145 1_665 S
O31 C22 1.246 . S
O32 Co0 2.015 1_655 S
O32 C22 1.257 . S
C33 O35 1.261 . S
C33 O37 1.248 1_455 S
C34 O41 1.242 1_455 S
C34 O42 1.261 . S
O35 C33 1.261 . S
O35 Zn36 2.028 . S
Zn36 O35 2.028 . S
Zn36 O40 2.035 . S
Zn36 O42 2.035 . S
Zn36 O43 2.028 . S
O37 C33 1.248 1_655 S
O37 Zn38 2.035 . S
Zn38 O37 2.035 . S
Zn38 O39 2.028 . S
Zn38 O41 2.028 . S
Zn38 O44 2.035 . S
O39 Zn38 2.028 . S
O39 C45 1.242 1_655 S
O40 Zn36 2.035 . S
O40 C45 1.261 . S
O41 C34 1.242 1_655 S
O41 Zn38 2.028 . S
O42 C34 1.261 . S
O42 Zn36 2.035 . S
O43 Zn36 2.028 . S
O43 C46 1.262 . S
O44 Zn38 2.035 . S
O44 C46 1.248 1_655 S
C45 O39 1.242 1_455 S
C45 O40 1.261 . S
C46 O43 1.262 . S
C46 O44 1.248 1_455 S
C47 O49 1.236 1_545 S
C47 O51 1.275 . S
C48 O55 1.264 . S
C48 O56 1.230 1_545 S
O49 C47 1.236 1_565 S
O49 Zn50 2.028 . S
Zn50 O49 2.028 . S
Zn50 O54 2.035 . S
Zn50 O56 2.035 . S
Zn50 O57 2.028 . S
O51 C47 1.275 . S
O51 Zn52 2.035 . S
Zn52 O51 2.035 . S
Zn52 O53 2.028 . S
Zn52 O55 2.028 . S
Zn52 O58 2.035 . S
O53 Zn52 2.028 . S
O53 C59 1.266 . S
O54 Zn50 2.035 . S
O54 C59 1.233 1_565 S
O55 C48 1.264 . S
O55 Zn52 2.028 . S
O56 C48 1.230 1_565 S
O56 Zn50 2.035 . S
O57 Zn50 2.028 . S
O57 C60 1.235 1_565 S
O58 Zn52 2.035 . S
O58 C60 1.274 . S
C59 O53 1.266 . S
C59 O54 1.233 1_545 S
C60 O57 1.235 1_545 S
C60 O58 1.274 . S
C61 C62 1.349 . S
C61 C63 1.327 . S
C61 H86 0.950 . S
C62 C61 1.349 . S
C62 C78 1.349 1_455 S
C63 C61 1.327 . S
C63 C82 1.429 . S
C63 H87 0.950 . S
C64 C81 1.574 . S
C64 C83 1.368 1_655 S
C64 H88 0.949 . S
H65 C69 0.949 . S
C66 C67 1.341 1_655 S
C66 C68 1.327 . S
C66 H89 0.950 . S
C67 C66 1.341 1_455 S
C67 C79 1.361 . S
C68 C66 1.327 . S
C68 C84 1.429 1_655 S
C68 H90 0.950 . S
C69 H65 0.949 . S
C69 C77 1.574 . S
C69 C85 1.368 . S
H70 C78 0.950 . S
H71 C76 0.950 . S
H72 C77 0.949 . S
H73 C79 0.950 . S
H74 C80 0.950 . S
H75 C81 0.949 . S
C76 H71 0.950 . S
C76 C78 1.327 . S
C76 C82 1.429 1_655 S
C77 C69 1.574 . S
C77 H72 0.949 . S
C77 C83 1.368 . S
C78 C62 1.349 1_655 S
C78 H70 0.950 . S
C78 C76 1.327 . S
C79 C67 1.361 . S
C79 H73 0.950 . S
C79 C80 1.327 . S
C80 H74 0.950 . S
C80 C79 1.327 . S
C80 C84 1.429 . S
C81 C64 1.574 . S
C81 H75 0.949 . S
C81 C85 1.368 1_655 S
C82 C63 1.429 . S
C82 C76 1.429 1_455 S
C82 C83 1.523 . S
C83 C64 1.368 1_455 S
C83 C77 1.368 . S
C83 C82 1.523 . S
C84 C68 1.429 1_455 S
C84 C80 1.429 . S
C84 C85 1.523 . S
C85 C69 1.368 . S
C85 C81 1.368 1_455 S
C85 C84 1.523 . S
H86 C61 0.950 . S
H87 C63 0.950 . S
H88 C64 0.949 . S
H89 C66 0.950 . S
H90 C68 0.950 . S
C91 C92 1.349 1_545 S
C91 C93 1.327 . S
C91 H116 0.950 . S
C92 C91 1.349 1_565 S
C92 C108 1.349 . S
C93 C91 1.327 . S
C93 C112 1.429 1_545 S
C93 H117 0.950 . S
C94 C111 1.574 . S
C94 C113 1.368 . S
C94 H118 0.949 . S
H95 C99 0.949 . S
C96 C97 1.343 1_565 S
C96 C98 1.327 . S
C96 H119 0.950 . S
C97 C96 1.343 1_545 S
C97 C109 1.353 . S
C98 C96 1.327 . S
C98 C114 1.429 . S
C98 H120 0.950 . S
C99 H95 0.949 . S
C99 C107 1.574 . S
C99 C115 1.368 1_545 S
H100 C108 0.950 . S
H101 C106 0.950 . S
H102 C107 0.949 . S
H103 C109 0.950 . S
H104 C110 0.950 . S
H105 C111 0.949 . S
C106 H101 0.950 . S
C106 C108 1.327 . S
C106 C112 1.429 . S
C107 C99 1.574 . S
C107 H102 0.949 . S
C107 C113 1.368 1_545 S
C108 C92 1.349 . S
C108 H100 0.950 . S
C108 C106 1.327 . S
C109 C97 1.353 . S
C109 H103 0.950 . S
C109 C110 1.327 . S
C110 H104 0.950 . S
C110 C109 1.327 . S
C110 C114 1.429 1_545 S
C111 C94 1.574 . S
C111 H105 0.949 . S
C111 C115 1.368 . S
C112 C93 1.429 1_565 S
C112 C106 1.429 . S
C112 C113 1.523 . S
C113 C94 1.368 . S
C113 C107 1.368 1_565 S
C113 C112 1.523 . S
C114 C98 1.429 . S
C114 C110 1.429 1_565 S
C114 C115 1.523 . S
C115 C99 1.368 1_565 S
C115 C111 1.368 . S
C115 C114 1.523 . S
H116 C91 0.950 . S
H117 C93 0.950 . S
H118 C94 0.949 . S
H119 C96 0.950 . S
H120 C98 0.950 . S
C121 C122 1.349 . S
C121 C123 1.327 . S
C121 H146 0.950 . S
C122 C121 1.349 . S
C122 C138 1.349 1_455 S
C123 C121 1.327 . S
C123 C142 1.429 . S
C123 H147 0.950 . S
C124 C141 1.574 . S
C124 C143 1.368 1_655 S
C124 H148 0.949 . S
H125 C129 0.949 . S
C126 C127 1.349 1_655 S
C126 C128 1.327 . S
C126 H149 0.950 . S
C127 C126 1.349 1_455 S
C127 C139 1.349 . S
C128 C126 1.327 . S
C128 C144 1.429 1_655 S
C128 H150 0.950 . S
C129 H125 0.949 . S
C129 C137 1.574 . S
C129 C145 1.368 . S
H130 C138 0.950 . S
H131 C136 0.950 . S
H132 C137 0.949 . S
H133 C139 0.950 . S
H134 C140 0.950 . S
H135 C141 0.949 . S
C136 H131 0.950 . S
C136 C138 1.327 . S
C136 C142 1.429 1_655 S
C137 C129 1.574 . S
C137 H132 0.949 . S
C137 C143 1.368 . S
C138 C122 1.349 1_655 S
C138 H130 0.950 . S
C138 C136 1.327 . S
C139 C127 1.349 . S
C139 H133 0.950 . S
C139 C140 1.327 . S
C140 H134 0.950 . S
C140 C139 1.327 . S
C140 C144 1.429 . S
C141 C124 1.574 . S
C141 H135 0.949 . S
C141 C145 1.368 1_655 S
C142 C123 1.429 . S
C142 C136 1.429 1_455 S
C142 C143 1.523 . S
C143 C124 1.368 1_455 S
C143 C137 1.368 . S
C143 C142 1.523 . S
C144 C128 1.429 1_455 S
C144 C140 1.429 . S
C144 C145 1.523 . S
C145 C129 1.368 . S
C145 C141 1.368 1_455 S
C145 C144 1.523 . S
H146 C121 0.950 . S
H147 C123 0.950 . S
H148 C124 0.949 . S
H149 C126 0.950 . S
H150 C128 0.950 . S
C151 C152 1.349 1_545 S
C151 C153 1.327 . S
C151 H176 0.950 . S
C152 C151 1.349 1_565 S
C152 C168 1.349 . S
C153 C151 1.327 . S
C153 C172 1.429 1_545 S
C153 H177 0.950 . S
C154 C171 1.574 . S
C154 C173 1.368 . S
C154 H178 0.949 . S
H155 C159 0.949 . S
C156 C157 1.353 . S
C156 C158 1.327 . S
C156 H179 0.950 . S
C157 C156 1.353 . S
C157 C169 1.342 1_565 S
C158 C156 1.327 . S
C158 C174 1.429 . S
C158 H180 0.950 . S
C159 H155 0.949 . S
C159 C167 1.574 . S
C159 C175 1.368 1_545 S
H160 C168 0.950 . S
H161 C166 0.950 . S
H162 C167 0.949 . S
H163 C169 0.950 . S
H164 C170 0.950 . S
H165 C171 0.949 . S
C166 H161 0.950 . S
C166 C168 1.327 . S
C166 C172 1.429 . S
C167 C159 1.574 . S
C167 H162 0.949 . S
C167 C173 1.368 1_545 S
C168 C152 1.349 . S
C168 H160 0.950 . S
C168 C166 1.327 . S
C169 C157 1.342 1_545 S
C169 H163 0.950 . S
C169 C170 1.327 . S
C170 H164 0.950 . S
C170 C169 1.327 . S
C170 C174 1.429 1_545 S
C171 C154 1.574 . S
C171 H165 0.949 . S
C171 C175 1.368 . S
C172 C153 1.429 1_565 S
C172 C166 1.429 . S
C172 C173 1.523 . S
C173 C154 1.368 . S
C173 C167 1.368 1_565 S
C173 C172 1.523 . S
C174 C158 1.429 . S
C174 C170 1.429 1_565 S
C174 C175 1.523 . S
C175 C159 1.368 1_565 S
C175 C171 1.368 . S
C175 C174 1.523 . S
H176 C151 0.950 . S
H177 C153 0.950 . S
H178 C154 0.949 . S
H179 C156 0.950 . S
H180 C158 0.950 . S
C181 C182 1.349 1_455 S
C181 C183 1.327 . S
C181 H206 0.950 . S
C182 C181 1.349 1_655 S
C182 C198 1.349 . S
C183 C181 1.327 . S
C183 C202 1.429 1_455 S
C183 H207 0.950 . S
C184 C201 1.574 . S
C184 C203 1.368 . S
C184 H208 0.949 . S
H185 C189 0.949 . S
C186 C187 1.347 1_655 S
C186 C188 1.327 . S
C186 H209 0.950 . S
C187 C186 1.347 1_455 S
C187 C199 1.350 . S
C188 C186 1.327 . S
C188 C204 1.432 . S
C188 H210 0.950 . S
C189 H185 0.949 . S
C189 C197 1.574 . S
C189 C205 1.368 1_455 S
H190 C198 0.950 . S
H191 C196 0.950 . S
H192 C197 0.949 . S
H193 C199 0.950 . S
H194 C200 0.950 . S
H195 C201 0.949 . S
C196 H191 0.950 . S
C196 C198 1.327 . S
C196 C202 1.429 . S
C197 C189 1.574 . S
C197 H192 0.949 . S
C197 C203 1.368 1_455 S
C198 C182 1.349 . S
C198 H190 0.950 . S
C198 C196 1.327 . S
C199 C187 1.350 . S
C199 H193 0.950 . S
C199 C200 1.327 . S
C200 H194 0.950 . S
C200 C199 1.327 . S
C200 C204 1.421 1_455 S
C201 C184 1.574 . S
C201 H195 0.949 . S
C201 C205 1.368 . S
C202 C183 1.429 1_655 S
C202 C196 1.429 . S
C202 C203 1.523 . S
C203 C184 1.368 . S
C203 C197 1.368 1_655 S
C203 C202 1.523 . S
C204 C188 1.432 . S
C204 C200 1.421 1_655 S
C204 C205 1.527 . S
C205 C189 1.368 1_655 S
C205 C201 1.368 . S
C205 C204 1.527 . S
H206 C181 0.950 . S
H207 C183 0.950 . S
H208 C184 0.949 . S
H209 C186 0.950 . S
H210 C188 0.950 . S
C211 C212 1.349 1_565 S
C211 C213 1.327 . S
C211 H236 0.950 . S
C212 C211 1.349 1_545 S
C212 C228 1.349 . S
C213 C211 1.327 . S
C213 C232 1.429 1_565 S
C213 H237 0.950 . S
C214 C231 1.574 . S
C214 C233 1.368 . S
C214 H238 0.949 . S
H215 C219 0.949 . S
C216 C217 1.349 . S
C216 C218 1.327 . S
C216 H239 0.950 . S
C217 C216 1.349 . S
C217 C229 1.349 1_545 S
C218 C216 1.327 . S
C218 C234 1.429 . S
C218 H240 0.950 . S
C219 H215 0.949 . S
C219 C227 1.574 . S
C219 C235 1.368 1_565 S
H220 C228 0.950 . S
H221 C226 0.950 . S
H222 C227 0.949 . S
H223 C229 0.950 . S
H224 C230 0.950 . S
H225 C231 0.949 . S
C226 H221 0.950 . S
C226 C228 1.327 . S
C226 C232 1.429 . S
C227 C219 1.574 . S
C227 H222 0.949 . S
C227 C233 1.368 1_565 S
C228 C212 1.349 . S
C228 H220 0.950 . S
C228 C226 1.327 . S
C229 C217 1.349 1_565 S
C229 H223 0.950 . S
C229 C230 1.327 . S
C230 H224 0.950 . S
C230 C229 1.327 . S
C230 C234 1.429 1_565 S
C231 C214 1.574 . S
C231 H225 0.949 . S
C231 C235 1.368 . S
C232 C213 1.429 1_545 S
C232 C226 1.429 . S
C232 C233 1.523 . S
C233 C214 1.368 . S
C233 C227 1.368 1_545 S
C233 C232 1.523 . S
C234 C218 1.429 . S
C234 C230 1.429 1_545 S
C234 C235 1.523 . S
C235 C219 1.368 1_545 S
C235 C231 1.368 . S
C235 C234 1.523 . S
H236 C211 0.950 . S
H237 C213 0.950 . S
H238 C214 0.949 . S
H239 C216 0.950 . S
H240 C218 0.950 . S
C241 C242 1.349 . S
C241 C243 1.321 . S
C241 H266 0.950 1_655 S
C242 C241 1.349 . S
C242 C258 1.349 . S
C243 C241 1.321 . S
C243 C262 1.438 . S
C243 H267 0.946 1_655 S
C244 C261 1.574 . S
C244 C263 1.368 . S
C244 H268 0.949 . S
H245 C249 0.949 . S
C246 C247 1.351 . S
C246 C248 1.327 . S
C246 H269 0.950 . S
C247 C246 1.351 . S
C247 C259 1.342 1_655 S
C248 C246 1.327 . S
C248 C264 1.429 . S
C248 H270 0.950 . S
C249 H245 0.949 . S
C249 C257 1.574 . S
C249 C265 1.368 1_455 S
H250 C258 0.950 . S
H251 C256 0.950 . S
H252 C257 0.949 . S
H253 C259 0.950 . S
H254 C260 0.950 . S
H255 C261 0.949 . S
C256 H251 0.950 . S
C256 C258 1.327 . S
C256 C262 1.429 . S
C257 C249 1.574 . S
C257 H252 0.949 . S
C257 C263 1.368 1_455 S
C258 C242 1.349 . S
C258 H250 0.950 . S
C258 C256 1.327 . S
C259 C247 1.342 1_455 S
C259 H253 0.950 . S
C259 C260 1.327 . S
C260 H254 0.950 . S
C260 C259 1.327 . S
C260 C264 1.429 1_455 S
C261 C244 1.574 . S
C261 H255 0.949 . S
C261 C265 1.368 . S
C262 C243 1.438 . S
C262 C256 1.429 . S
C262 C263 1.523 . S
C263 C244 1.368 . S
C263 C257 1.368 1_655 S
C263 C262 1.523 . S
C264 C248 1.429 . S
C264 C260 1.429 1_655 S
C264 C265 1.523 . S
C265 C249 1.368 1_655 S
C265 C261 1.368 . S
C265 C264 1.523 . S
H266 C241 0.950 1_455 S
H267 C243 0.946 1_455 S
H268 C244 0.949 . S
H269 C246 0.950 . S
H270 C248 0.950 . S
C271 C272 1.349 . S
C271 C273 1.327 . S
C271 H296 0.950 . S
C272 C271 1.349 . S
C272 C288 1.349 1_545 S
C273 C271 1.327 . S
C273 C292 1.429 . S
C273 H297 0.950 . S
C274 C291 1.574 . S
C274 C293 1.368 1_565 S
C274 H298 0.949 . S
H275 C279 0.949 . S
C276 C277 1.349 1_565 S
C276 C278 1.327 . S
C276 H299 0.950 . S
C277 C276 1.349 1_545 S
C277 C289 1.349 . S
C278 C276 1.327 . S
C278 C294 1.429 1_565 S
C278 H300 0.950 . S
C279 H275 0.949 . S
C279 C287 1.574 . S
C279 C295 1.368 . S
H280 C288 0.950 . S
H281 C286 0.950 . S
H282 C287 0.949 . S
H283 C289 0.950 . S
H284 C290 0.950 . S
H285 C291 0.949 . S
C286 H281 0.950 . S
C286 C288 1.327 . S
C286 C292 1.429 1_565 S
C287 C279 1.574 . S
C287 H282 0.949 . S
C287 C293 1.368 . S
C288 C272 1.349 1_565 S
C288 H280 0.950 . S
C288 C286 1.327 . S
C289 C277 1.349 . S
C289 H283 0.950 . S
C289 C290 1.327 . S
C290 H284 0.950 . S
C290 C289 1.327 . S
C290 C294 1.429 . S
C291 C274 1.574 . S
C291 H285 0.949 . S
C291 C295 1.368 1_565 S
C292 C273 1.429 . S
C292 C286 1.429 1_545 S
C292 C293 1.523 . S
C293 C274 1.368 1_545 S
C293 C287 1.368 . S
C293 C292 1.523 . S
C294 C278 1.429 1_545 S
C294 C290 1.429 . S
C294 C295 1.523 . S
C295 C279 1.368 . S
C295 C291 1.368 1_545 S
C295 C294 1.523 . S
H296 C271 0.950 . S
H297 C273 0.950 . S
H298 C274 0.949 . S
H299 C276 0.950 . S
H300 C278 0.950 . S
C62 C23 1.277 . S
C67 C34 1.349 . S
C92 C22 1.402 . S
C97 C60 1.446 . S
C122 C21 1.797 . S
C127 C46 1.806 . S
C152 C24 1.481 . S
C157 C48 1.556 1_565 S
C182 C27 1.277 . S
C187 C33 1.349 . S
C212 C26 1.402 . S
C217 C59 1.454 . S
C247 C45 1.818 1_655 S
C242 C25 1.797 . S
C272 C28 1.481 . S
C277 C47 1.535 . S
