# Generated by pormake.
# Topology gar, (4,6)-cn, num edge types: 1
# Building blocks:
#     Node 0, Type 0, BuildingBlock: QUQFOY_clean_sbu_1, # of connection points: 4
#     Node 1, Type 0, BuildingBlock: QUQFOY_clean_sbu_1, # of connection points: 4
#     Node 2, Type 0, BuildingBlock: QUQFOY_clean_sbu_1, # of connection points: 4
#     Node 3, Type 0, BuildingBlock: QUQFOY_clean_sbu_1, # of connection points: 4
#     Node 4, Type 0, BuildingBlock: QUQFOY_clean_sbu_1, # of connection points: 4
#     Node 5, Type 0, BuildingBlock: QUQFOY_clean_sbu_1, # of connection points: 4
#     Node 6, Type 0, BuildingBlock: QUQFOY_clean_sbu_1, # of connection points: 4
#     Node 7, Type 0, BuildingBlock: QUQFOY_clean_sbu_1, # of connection points: 4
#     Node 8, Type 0, BuildingBlock: QUQFOY_clean_sbu_1, # of connection points: 4
#     Node 9, Type 0, BuildingBlock: QUQFOY_clean_sbu_1, # of connection points: 4
#     Node 10, Type 0, BuildingBlock: QUQFOY_clean_sbu_1, # of connection points: 4
#     Node 11, Type 0, BuildingBlock: QUQFOY_clean_sbu_1, # of connection points: 4
#     Node 12, Type 0, BuildingBlock: QUQFOY_clean_sbu_1, # of connection points: 4
#     Node 13, Type 0, BuildingBlock: QUQFOY_clean_sbu_1, # of connection points: 4
#     Node 14, Type 0, BuildingBlock: QUQFOY_clean_sbu_1, # of connection points: 4
#     Node 15, Type 0, BuildingBlock: QUQFOY_clean_sbu_1, # of connection points: 4
#     Node 16, Type 0, BuildingBlock: QUQFOY_clean_sbu_1, # of connection points: 4
#     Node 17, Type 0, BuildingBlock: QUQFOY_clean_sbu_1, # of connection points: 4
#     Node 18, Type 0, BuildingBlock: QUQFOY_clean_sbu_1, # of connection points: 4
#     Node 19, Type 0, BuildingBlock: QUQFOY_clean_sbu_1, # of connection points: 4
#     Node 20, Type 0, BuildingBlock: QUQFOY_clean_sbu_1, # of connection points: 4
#     Node 21, Type 0, BuildingBlock: QUQFOY_clean_sbu_1, # of connection points: 4
#     Node 22, Type 0, BuildingBlock: QUQFOY_clean_sbu_1, # of connection points: 4
#     Node 23, Type 0, BuildingBlock: QUQFOY_clean_sbu_1, # of connection points: 4
#     Node 24, Type 1, BuildingBlock: CUKXOW_clean_sbu_0, # of connection points: 6
#     Node 25, Type 1, BuildingBlock: CUKXOW_clean_sbu_0, # of connection points: 6
#     Node 26, Type 1, BuildingBlock: CUKXOW_clean_sbu_0, # of connection points: 6
#     Node 27, Type 1, BuildingBlock: CUKXOW_clean_sbu_0, # of connection points: 6
#     Node 28, Type 1, BuildingBlock: CUKXOW_clean_sbu_0, # of connection points: 6
#     Node 29, Type 1, BuildingBlock: CUKXOW_clean_sbu_0, # of connection points: 6
#     Node 30, Type 1, BuildingBlock: CUKXOW_clean_sbu_0, # of connection points: 6
#     Node 31, Type 1, BuildingBlock: CUKXOW_clean_sbu_0, # of connection points: 6
#     Node 32, Type 1, BuildingBlock: CUKXOW_clean_sbu_0, # of connection points: 6
#     Node 33, Type 1, BuildingBlock: CUKXOW_clean_sbu_0, # of connection points: 6
#     Node 34, Type 1, BuildingBlock: CUKXOW_clean_sbu_0, # of connection points: 6
#     Node 35, Type 1, BuildingBlock: CUKXOW_clean_sbu_0, # of connection points: 6
#     Node 36, Type 1, BuildingBlock: CUKXOW_clean_sbu_0, # of connection points: 6
#     Node 37, Type 1, BuildingBlock: CUKXOW_clean_sbu_0, # of connection points: 6
#     Node 38, Type 1, BuildingBlock: CUKXOW_clean_sbu_0, # of connection points: 6
#     Node 39, Type 1, BuildingBlock: CUKXOW_clean_sbu_0, # of connection points: 6
#     Edge 40, Type (0, 1), BuildingBlock: AJUNOK_clean_linker_0, # of connection points: 2
#     Edge 41, Type (0, 1), BuildingBlock: AJUNOK_clean_linker_0, # of connection points: 2
#     Edge 42, Type (0, 1), BuildingBlock: AJUNOK_clean_linker_0, # of connection points: 2
#     Edge 43, Type (0, 1), BuildingBlock: AJUNOK_clean_linker_0, # of connection points: 2
#     Edge 44, Type (0, 1), BuildingBlock: AJUNOK_clean_linker_0, # of connection points: 2
#     Edge 45, Type (0, 1), BuildingBlock: AJUNOK_clean_linker_0, # of connection points: 2
#     Edge 46, Type (0, 1), BuildingBlock: AJUNOK_clean_linker_0, # of connection points: 2
#     Edge 47, Type (0, 1), BuildingBlock: AJUNOK_clean_linker_0, # of connection points: 2
#     Edge 48, Type (0, 1), BuildingBlock: AJUNOK_clean_linker_0, # of connection points: 2
#     Edge 49, Type (0, 1), BuildingBlock: AJUNOK_clean_linker_0, # of connection points: 2
#     Edge 50, Type (0, 1), BuildingBlock: AJUNOK_clean_linker_0, # of connection points: 2
#     Edge 51, Type (0, 1), BuildingBlock: AJUNOK_clean_linker_0, # of connection points: 2
#     Edge 52, Type (0, 1), BuildingBlock: AJUNOK_clean_linker_0, # of connection points: 2
#     Edge 53, Type (0, 1), BuildingBlock: AJUNOK_clean_linker_0, # of connection points: 2
#     Edge 54, Type (0, 1), BuildingBlock: AJUNOK_clean_linker_0, # of connection points: 2
#     Edge 55, Type (0, 1), BuildingBlock: AJUNOK_clean_linker_0, # of connection points: 2
#     Edge 56, Type (0, 1), BuildingBlock: AJUNOK_clean_linker_0, # of connection points: 2
#     Edge 57, Type (0, 1), BuildingBlock: AJUNOK_clean_linker_0, # of connection points: 2
#     Edge 58, Type (0, 1), BuildingBlock: AJUNOK_clean_linker_0, # of connection points: 2
#     Edge 59, Type (0, 1), BuildingBlock: AJUNOK_clean_linker_0, # of connection points: 2
#     Edge 60, Type (0, 1), BuildingBlock: AJUNOK_clean_linker_0, # of connection points: 2
#     Edge 61, Type (0, 1), BuildingBlock: AJUNOK_clean_linker_0, # of connection points: 2
#     Edge 62, Type (0, 1), BuildingBlock: AJUNOK_clean_linker_0, # of connection points: 2
#     Edge 63, Type (0, 1), BuildingBlock: AJUNOK_clean_linker_0, # of connection points: 2
#     Edge 64, Type (0, 1), BuildingBlock: AJUNOK_clean_linker_0, # of connection points: 2
#     Edge 65, Type (0, 1), BuildingBlock: AJUNOK_clean_linker_0, # of connection points: 2
#     Edge 66, Type (0, 1), BuildingBlock: AJUNOK_clean_linker_0, # of connection points: 2
#     Edge 67, Type (0, 1), BuildingBlock: AJUNOK_clean_linker_0, # of connection points: 2
#     Edge 68, Type (0, 1), BuildingBlock: AJUNOK_clean_linker_0, # of connection points: 2
#     Edge 69, Type (0, 1), BuildingBlock: AJUNOK_clean_linker_0, # of connection points: 2
#     Edge 70, Type (0, 1), BuildingBlock: AJUNOK_clean_linker_0, # of connection points: 2
#     Edge 71, Type (0, 1), BuildingBlock: AJUNOK_clean_linker_0, # of connection points: 2
#     Edge 72, Type (0, 1), BuildingBlock: AJUNOK_clean_linker_0, # of connection points: 2
#     Edge 73, Type (0, 1), BuildingBlock: AJUNOK_clean_linker_0, # of connection points: 2
#     Edge 74, Type (0, 1), BuildingBlock: AJUNOK_clean_linker_0, # of connection points: 2
#     Edge 75, Type (0, 1), BuildingBlock: AJUNOK_clean_linker_0, # of connection points: 2
#     Edge 76, Type (0, 1), BuildingBlock: AJUNOK_clean_linker_0, # of connection points: 2
#     Edge 77, Type (0, 1), BuildingBlock: AJUNOK_clean_linker_0, # of connection points: 2
#     Edge 78, Type (0, 1), BuildingBlock: AJUNOK_clean_linker_0, # of connection points: 2
#     Edge 79, Type (0, 1), BuildingBlock: AJUNOK_clean_linker_0, # of connection points: 2
#     Edge 80, Type (0, 1), BuildingBlock: AJUNOK_clean_linker_0, # of connection points: 2
#     Edge 81, Type (0, 1), BuildingBlock: AJUNOK_clean_linker_0, # of connection points: 2
#     Edge 82, Type (0, 1), BuildingBlock: AJUNOK_clean_linker_0, # of connection points: 2
#     Edge 83, Type (0, 1), BuildingBlock: AJUNOK_clean_linker_0, # of connection points: 2
#     Edge 84, Type (0, 1), BuildingBlock: AJUNOK_clean_linker_0, # of connection points: 2
#     Edge 85, Type (0, 1), BuildingBlock: AJUNOK_clean_linker_0, # of connection points: 2
#     Edge 86, Type (0, 1), BuildingBlock: AJUNOK_clean_linker_0, # of connection points: 2
#     Edge 87, Type (0, 1), BuildingBlock: AJUNOK_clean_linker_0, # of connection points: 2
#     Edge 88, Type (0, 1), BuildingBlock: AJUNOK_clean_linker_0, # of connection points: 2
#     Edge 89, Type (0, 1), BuildingBlock: AJUNOK_clean_linker_0, # of connection points: 2
#     Edge 90, Type (0, 1), BuildingBlock: AJUNOK_clean_linker_0, # of connection points: 2
#     Edge 91, Type (0, 1), BuildingBlock: AJUNOK_clean_linker_0, # of connection points: 2
#     Edge 92, Type (0, 1), BuildingBlock: AJUNOK_clean_linker_0, # of connection points: 2
#     Edge 93, Type (0, 1), BuildingBlock: AJUNOK_clean_linker_0, # of connection points: 2
#     Edge 94, Type (0, 1), BuildingBlock: AJUNOK_clean_linker_0, # of connection points: 2
#     Edge 95, Type (0, 1), BuildingBlock: AJUNOK_clean_linker_0, # of connection points: 2
#     Edge 96, Type (0, 1), BuildingBlock: AJUNOK_clean_linker_0, # of connection points: 2
#     Edge 97, Type (0, 1), BuildingBlock: AJUNOK_clean_linker_0, # of connection points: 2
#     Edge 98, Type (0, 1), BuildingBlock: AJUNOK_clean_linker_0, # of connection points: 2
#     Edge 99, Type (0, 1), BuildingBlock: AJUNOK_clean_linker_0, # of connection points: 2
#     Edge 100, Type (0, 1), BuildingBlock: AJUNOK_clean_linker_0, # of connection points: 2
#     Edge 101, Type (0, 1), BuildingBlock: AJUNOK_clean_linker_0, # of connection points: 2
#     Edge 102, Type (0, 1), BuildingBlock: AJUNOK_clean_linker_0, # of connection points: 2
#     Edge 103, Type (0, 1), BuildingBlock: AJUNOK_clean_linker_0, # of connection points: 2
#     Edge 104, Type (0, 1), BuildingBlock: AJUNOK_clean_linker_0, # of connection points: 2
#     Edge 105, Type (0, 1), BuildingBlock: AJUNOK_clean_linker_0, # of connection points: 2
#     Edge 106, Type (0, 1), BuildingBlock: AJUNOK_clean_linker_0, # of connection points: 2
#     Edge 107, Type (0, 1), BuildingBlock: AJUNOK_clean_linker_0, # of connection points: 2
#     Edge 108, Type (0, 1), BuildingBlock: AJUNOK_clean_linker_0, # of connection points: 2
#     Edge 109, Type (0, 1), BuildingBlock: AJUNOK_clean_linker_0, # of connection points: 2
#     Edge 110, Type (0, 1), BuildingBlock: AJUNOK_clean_linker_0, # of connection points: 2
#     Edge 111, Type (0, 1), BuildingBlock: AJUNOK_clean_linker_0, # of connection points: 2
#     Edge 112, Type (0, 1), BuildingBlock: AJUNOK_clean_linker_0, # of connection points: 2
#     Edge 113, Type (0, 1), BuildingBlock: AJUNOK_clean_linker_0, # of connection points: 2
#     Edge 114, Type (0, 1), BuildingBlock: AJUNOK_clean_linker_0, # of connection points: 2
#     Edge 115, Type (0, 1), BuildingBlock: AJUNOK_clean_linker_0, # of connection points: 2
#     Edge 116, Type (0, 1), BuildingBlock: AJUNOK_clean_linker_0, # of connection points: 2
#     Edge 117, Type (0, 1), BuildingBlock: AJUNOK_clean_linker_0, # of connection points: 2
#     Edge 118, Type (0, 1), BuildingBlock: AJUNOK_clean_linker_0, # of connection points: 2
#     Edge 119, Type (0, 1), BuildingBlock: AJUNOK_clean_linker_0, # of connection points: 2
#     Edge 120, Type (0, 1), BuildingBlock: AJUNOK_clean_linker_0, # of connection points: 2
#     Edge 121, Type (0, 1), BuildingBlock: AJUNOK_clean_linker_0, # of connection points: 2
#     Edge 122, Type (0, 1), BuildingBlock: AJUNOK_clean_linker_0, # of connection points: 2
#     Edge 123, Type (0, 1), BuildingBlock: AJUNOK_clean_linker_0, # of connection points: 2
#     Edge 124, Type (0, 1), BuildingBlock: AJUNOK_clean_linker_0, # of connection points: 2
#     Edge 125, Type (0, 1), BuildingBlock: AJUNOK_clean_linker_0, # of connection points: 2
#     Edge 126, Type (0, 1), BuildingBlock: AJUNOK_clean_linker_0, # of connection points: 2
#     Edge 127, Type (0, 1), BuildingBlock: AJUNOK_clean_linker_0, # of connection points: 2
#     Edge 128, Type (0, 1), BuildingBlock: AJUNOK_clean_linker_0, # of connection points: 2
#     Edge 129, Type (0, 1), BuildingBlock: AJUNOK_clean_linker_0, # of connection points: 2
#     Edge 130, Type (0, 1), BuildingBlock: AJUNOK_clean_linker_0, # of connection points: 2
#     Edge 131, Type (0, 1), BuildingBlock: AJUNOK_clean_linker_0, # of connection points: 2
#     Edge 132, Type (0, 1), BuildingBlock: AJUNOK_clean_linker_0, # of connection points: 2
#     Edge 133, Type (0, 1), BuildingBlock: AJUNOK_clean_linker_0, # of connection points: 2
#     Edge 134, Type (0, 1), BuildingBlock: AJUNOK_clean_linker_0, # of connection points: 2
#     Edge 135, Type (0, 1), BuildingBlock: AJUNOK_clean_linker_0, # of connection points: 2
# Relax obj value: 0.127
# Max RMSD: 0.243
# Mean RMSD: 0.161
data_MOF--net-gar--node1-QUQFOY_clean_sbu_1--node2-CUKXOW_clean_sbu_0--edge1-AJUNOK_clean_linker_0
_symmetry_space_group_name_H-M    P1
_symmetry_Int_Tables_number       1
_symmetry_cell_setting            triclinic
loop_
_symmetry_equiv_pos_as_xyz
'x, y, z'
_cell_length_a     41.806336
_cell_length_b     40.599096
_cell_length_c     40.708206
_cell_angle_alpha  94.479293
_cell_angle_beta   94.923625
_cell_angle_gamma 100.63172
loop_
_atom_site_label
_atom_site_type_symbol
_atom_site_fract_x
_atom_site_fract_y
_atom_site_fract_z
_atom_type_partial_charge
O0 O 0.03745 0.20863 0.46784 0.0
Cd1 Cd 0.03863 0.23906 0.43061 0.0
Cd2 Cd 0.0193 0.28349 0.48122 0.0
O3 O 0.02185 0.24184 0.50674 0.0
O4 O 0.06196 0.21904 0.39631 0.0
O5 O 0.08023 0.26927 0.42394 0.0
C6 C 0.08395 0.24619 0.40164 0.0
C7 C 0.03161 0.33656 0.5106 0.0
C8 C 0.02994 0.21436 0.49693 0.0
C9 C 0.97858 0.2654 0.41417 0.0
O10 O 0.98443 0.28269 0.44207 0.0
O11 O 0.9962 0.24471 0.40552 0.0
O12 O 1.00545 0.31535 0.51407 0.0
O13 O 0.05208 0.32673 0.49177 0.0
O14 O 0.99425 0.74768 0.57908 0.0
Cd15 Cd 1.00435 0.78311 0.61924 0.0
Cd16 Cd 0.04673 0.81212 0.5834 0.0
O17 O 0.03819 0.76653 0.55509 0.0
O18 O 0.96978 0.76559 0.64679 0.0
O19 O 0.97634 0.81699 0.63075 0.0
C20 C 0.96101 0.79434 0.64729 0.0
C21 C 0.03242 0.85844 0.56119 0.0
C22 C 1.01325 0.74388 0.55694 0.0
C23 C 0.07317 0.80102 0.64989 0.0
O24 O 0.07905 0.81791 0.62541 0.0
O25 O 0.04517 0.78295 0.65078 0.0
O26 O 0.05977 0.84942 0.55598 0.0
O27 O 1.01309 0.84085 0.57919 0.0
O28 O 0.61179 0.78189 0.95321 0.0
Cd29 Cd 0.57779 0.78492 0.98593 0.0
Cd30 Cd 0.53398 0.78752 0.9315 0.0
O31 O 0.57513 0.7793 0.91054 0.0
O32 O 0.58712 0.7583 0.02262 0.0
O33 O 0.54344 0.74367 0.98577 0.0
C34 C 0.56085 0.73696 0.01133 0.0
C35 C 0.48819 0.77212 0.89292 0.0
C36 C 0.60392 0.77802 0.9222 0.0
C37 C 0.54657 0.84345 0.98958 0.0
O38 O 0.53123 0.82971 0.96221 0.0
O39 O 0.56874 0.83055 1.00388 0.0
O40 O 0.51015 0.79838 0.89108 0.0
O41 O 0.49212 0.75412 0.91719 0.0
O42 O 0.49697 0.24895 0.08047 0.0
Cd43 Cd 0.50758 0.28688 0.11855 0.0
Cd44 Cd 0.54647 0.31728 0.07733 0.0
O45 O 0.53507 0.2709 0.04993 0.0
O46 O 0.47792 0.27164 0.15208 0.0
O47 O 0.4771 0.31865 0.12812 0.0
C48 C 0.46625 0.29859 0.14947 0.0
C49 C 0.53609 0.36528 0.05407 0.0
C50 C 0.51284 0.24663 0.0554 0.0
C51 C 0.5792 0.30748 0.14215 0.0
O52 O 0.58287 0.3223 0.11601 0.0
O53 O 0.55132 0.29121 0.14681 0.0
O54 O 0.56114 0.3524 0.04766 0.0
O55 O 0.51633 0.35042 0.07346 0.0
O56 O 1.00426 0.70557 0.16661 0.0
Cd57 Cd 1.00412 0.74342 0.20469 0.0
Cd58 Cd 0.03581 0.78436 0.16224 0.0
O59 O 0.03306 0.73891 0.13519 0.0
O60 O 0.96807 0.72893 0.23359 0.0
O61 O 0.96871 0.77183 0.20351 0.0
C62 C 0.95424 0.75304 0.22417 0.0
C63 C 0.02912 0.82821 0.12976 0.0
C64 C 0.01904 0.70967 0.14063 0.0
C65 C 0.07275 0.78149 0.22842 0.0
O66 O 0.07108 0.79598 0.20195 0.0
O67 O 0.04882 0.75915 0.2345 0.0
O68 O 0.05499 0.81533 0.13055 0.0
O69 O 1.00675 0.81642 0.14804 0.0
O70 O 0.60099 0.80316 0.36861 0.0
Cd71 Cd 0.56247 0.79968 0.39774 0.0
Cd72 Cd 0.53662 0.82912 0.34146 0.0
O73 O 0.57932 0.81863 0.32225 0.0
O74 O 0.57647 0.77516 0.43547 0.0
O75 O 0.53391 0.75433 0.39895 0.0
C76 C 0.55254 0.75081 0.42494 0.0
C77 C 0.48303 0.81296 0.31384 0.0
C78 C 0.60313 0.80953 0.33867 0.0
C79 C 0.54455 0.86792 0.40926 0.0
O80 O 0.54097 0.86894 0.37802 0.0
O81 O 0.55081 0.84178 0.42158 0.0
O82 O 0.50348 0.83827 0.30589 0.0
O83 O 0.49365 0.79544 0.33612 0.0
O84 O 0.50063 0.1963 0.66077 0.0
Cd85 Cd 0.50139 0.23479 0.69862 0.0
Cd86 Cd 0.52748 0.27555 0.65416 0.0
O87 O 0.52519 0.23035 0.62716 0.0
O88 O 0.46688 0.22195 0.72977 0.0
O89 O 0.46599 0.26316 0.6977 0.0
C90 C 0.45262 0.2456 0.71985 0.0
C91 C 0.51724 0.31855 0.62224 0.0
C92 C 0.51336 0.20079 0.63366 0.0
C93 C 0.57017 0.27472 0.71745 0.0
O94 O 0.56568 0.2887 0.69105 0.0
O95 O 0.54749 0.25215 0.72555 0.0
O96 O 0.54392 0.30718 0.62197 0.0
O97 O 0.4958 0.30565 0.64095 0.0
O98 O 0.03681 0.23588 0.87386 0.0
Cd99 Cd 0.04094 0.26918 0.83799 0.0
Cd100 Cd 0.0231 0.31187 0.89427 0.0
O101 O 0.03228 0.27028 0.91737 0.0
O102 O 0.06679 0.25069 0.80375 0.0
O103 O 0.08624 0.2972 0.83668 0.0
C104 C 0.09099 0.27496 0.81404 0.0
C105 C 0.02753 0.36045 0.93144 0.0
C106 C 0.03508 0.24144 0.90479 0.0
C107 C 0.97697 0.29329 0.82855 0.0
O108 O 0.98372 0.30679 0.85822 0.0
O109 O 0.9969 0.27776 0.81474 0.0
O110 O 1.00479 0.33447 0.93149 0.0
O111 O 0.04842 0.35925 0.91004 0.0
O112 O 0.43021 0.09251 0.19682 0.0
Cd113 Cd 0.39629 0.09481 0.23082 0.0
Cd114 Cd 0.44993 0.07102 0.2719 0.0
O115 O 0.47051 0.0766 0.22685 0.0
O116 O 0.36012 0.11492 0.20954 0.0
O117 O 0.39003 0.1379 0.25573 0.0
C118 C 0.36575 0.13812 0.23391 0.0
C119 C 0.48006 0.08117 0.3248 0.0
C120 C 0.45823 0.08421 0.19924 0.0
C121 C 0.38107 0.02793 0.25947 0.0
O122 O 0.41051 0.03227 0.27227 0.0
O123 O 0.3711 0.04958 0.24242 0.0
O124 O 0.48384 0.05734 0.30355 0.0
O125 O 0.46127 0.10124 0.3151 0.0
O126 O 0.27902 0.14512 0.5465 0.0
Cd127 Cd 0.27183 0.11535 0.50278 0.0
Cd128 Cd 0.25953 0.16986 0.47646 0.0
O129 O 0.27237 0.19095 0.52367 0.0
O130 O 0.29181 0.07682 0.51423 0.0
O131 O 0.31126 0.11341 0.47953 0.0
C132 C 0.31455 0.08827 0.49633 0.0
C133 C 0.28422 0.20574 0.44041 0.0
C134 C 0.27909 0.1764 0.54899 0.0
C135 C 0.2036 0.11147 0.47334 0.0
O136 O 0.21233 0.1419 0.46724 0.0
O137 O 0.22471 0.09552 0.48501 0.0
O138 O 0.25916 0.21144 0.45458 0.0
O139 O 0.29373 0.17765 0.44429 0.0
O140 O 0.17291 0.9902 0.73939 0.0
Cd141 Cd 0.20974 0.99894 0.77768 0.0
Cd142 Cd 0.15891 0.0196 0.81531 0.0
O143 O 0.13453 1.00279 0.76932 0.0
O144 O 0.24428 0.97378 0.76376 0.0
O145 O 0.21451 0.9608 0.805 0.0
C146 C 0.23629 0.95392 0.78619 0.0
C147 C 0.12242 0.01283 0.85706 0.0
C148 C 0.14343 0.99311 0.74173 0.0
C149 C 0.21901 0.07229 0.80479 0.0
O150 O 0.19192 0.06514 0.81728 0.0
O151 O 0.23085 0.04923 0.78988 0.0
O152 O 0.12161 0.03462 0.83596 0.0
O153 O 0.1452 0.99537 0.85576 0.0
O154 O 0.22158 0.88768 0.09748 0.0
Cd155 Cd 0.219 0.9244 0.06396 0.0
Cd156 Cd 0.24282 0.86749 0.02152 0.0
O157 O 0.24047 0.84848 0.06783 0.0
O158 O 0.19508 0.9592 0.08434 0.0
O159 O 0.17898 0.93212 0.03502 0.0
C160 C 0.17506 0.95466 0.05775 0.0
C161 C 0.23993 0.83029 0.97229 0.0
C162 C 0.23219 0.86002 0.0953 0.0
C163 C 0.284 0.93977 0.03485 0.0
O164 O 0.27785 0.91019 0.02011 0.0
O165 O 0.26455 0.94991 0.05404 0.0
O166 O 0.26351 0.83404 0.99551 0.0
O167 O 0.21658 0.84624 0.97758 0.0
O168 O 0.25606 0.41662 0.1291 0.0
Cd169 Cd 0.2729 0.45573 0.102 0.0
Cd170 Cd 0.27859 0.40597 0.05387 0.0
O171 O 0.25975 0.37783 0.08927 0.0
O172 O 0.24735 0.49212 0.10418 0.0
O173 O 0.24632 0.45672 0.05946 0.0
C174 C 0.23632 0.48196 0.07371 0.0
C175 C 0.27141 0.37772 1.00158 0.0
C176 C 0.25216 0.38592 0.11782 0.0
C177 C 0.3372 0.46234 0.07988 0.0
O178 O 0.32336 0.43695 0.06037 0.0
O179 O 0.32203 0.4744 0.10212 0.0
O180 O 0.29013 0.36971 0.0251 0.0
O181 O 0.2553 0.40126 1.00813 0.0
O182 O 0.82959 0.18727 0.07431 0.0
Cd183 Cd 0.82513 0.14916 0.03521 0.0
Cd184 Cd 0.79436 0.20177 1.00112 0.0
O185 O 0.80669 0.2251 0.04932 0.0
O186 O 0.85007 0.11446 0.05202 0.0
O187 O 0.86205 0.1397 1.00769 0.0
C188 C 0.86779 0.11777 0.02765 0.0
C189 C 0.79206 0.23405 0.95477 0.0
C190 C 0.81947 0.21519 0.07549 0.0
C191 C 0.75325 0.13214 1.00744 0.0
O192 O 0.75641 0.16108 0.9969 0.0
O193 O 0.77727 0.1228 0.02305 0.0
O194 O 0.77262 0.23505 0.97749 0.0
O195 O 0.81412 0.21589 0.95896 0.0
O196 O 0.11861 0.48238 0.22633 0.0
Cd197 Cd 0.15502 0.48862 0.26557 0.0
Cd198 Cd 0.10549 0.52224 0.29656 0.0
O199 O 0.08166 0.50694 0.24912 0.0
O200 O 0.18986 0.46595 0.24833 0.0
O201 O 0.16557 0.45069 0.29213 0.0
C202 C 0.18744 0.44709 0.2723 0.0
C203 C 0.07578 0.52328 0.34363 0.0
C204 C 0.09132 0.49226 0.224 0.0
C205 C 0.17281 0.56311 0.289 0.0
O206 O 0.14465 0.56175 0.29895 0.0
O207 O 0.18113 0.53707 0.27569 0.0
O208 O 0.07314 0.54319 0.32089 0.0
O209 O 0.09441 0.50158 0.33916 0.0
O210 O 0.74683 0.90404 0.62898 0.0
Cd211 Cd 0.7652 0.94355 0.60223 0.0
Cd212 Cd 0.78557 0.89675 0.5644 0.0
O213 O 0.76002 0.86608 0.59394 0.0
O214 O 0.73803 0.97853 0.60333 0.0
O215 O 0.74148 0.94552 0.55812 0.0
C216 C 0.72984 0.96981 0.57209 0.0
C217 C 0.7838 0.87292 0.51068 0.0
C218 C 0.74646 0.87337 0.61939 0.0
C219 C 0.83641 0.95452 0.5974 0.0
O220 O 0.83011 0.92588 0.581 0.0
O221 O 0.81362 0.96739 0.60858 0.0
O222 O 0.79986 0.86279 0.53497 0.0
O223 O 0.76819 0.89692 0.517 0.0
O224 O 0.89294 0.06343 0.18128 0.0
Cd225 Cd 0.8556 0.05591 0.21197 0.0
Cd226 Cd 0.90393 0.05041 0.26 0.0
O227 O 0.93158 0.06055 0.22086 0.0
O228 O 0.82022 0.08124 0.2002 0.0
O229 O 0.85482 0.09393 0.24593 0.0
C230 C 0.83044 0.10032 0.22737 0.0
C231 C 0.93013 0.06879 0.31317 0.0
C232 C 0.92291 0.06439 0.19092 0.0
C233 C 0.84769 0.99067 0.24199 0.0
O234 O 0.87435 1.00375 0.25932 0.0
O235 O 0.83525 0.00713 0.22061 0.0
O236 O 0.93914 0.04612 0.29424 0.0
O237 O 0.90639 0.08227 0.30169 0.0
O238 O 0.328 0.68577 0.57674 0.0
Cd239 Cd 0.32497 0.64896 0.53728 0.0
Cd240 Cd 0.29361 0.69963 0.50347 0.0
O241 O 0.30392 0.7228 0.55183 0.0
O242 O 0.34985 0.61443 0.5541 0.0
O243 O 0.36268 0.64095 0.51065 0.0
C244 C 0.36811 0.61862 0.53025 0.0
C245 C 0.29422 0.7311 0.45656 0.0
C246 C 0.31661 0.71291 0.57804 0.0
C247 C 0.25349 0.63005 0.50952 0.0
O248 O 0.25584 0.65876 0.49855 0.0
O249 O 0.27788 0.62156 0.52522 0.0
O250 O 0.27368 0.73303 0.47809 0.0
O251 O 0.31572 0.71262 0.46238 0.0
O252 O 0.38769 0.56136 0.67964 0.0
Cd253 Cd 0.35133 0.55387 0.71161 0.0
Cd254 Cd 0.39903 0.54407 0.75555 0.0
O255 O 0.42552 0.54947 0.71539 0.0
O256 O 0.31732 0.58009 0.69808 0.0
O257 O 0.34843 0.59191 0.74578 0.0
C258 C 0.32566 0.59908 0.72557 0.0
C259 C 0.4286 0.5653 0.80614 0.0
C260 C 0.41679 0.55724 0.68688 0.0
C261 C 0.34062 0.48737 0.73985 0.0
O262 O 0.36721 0.4995 0.75766 0.0
O263 O 0.32943 0.50429 0.71803 0.0
O264 O 0.43468 0.53973 0.7889 0.0
O265 O 0.40533 0.57946 0.79471 0.0
O266 O 0.61602 0.97911 0.72078 0.0
Cd267 Cd 0.65028 0.98468 0.76194 0.0
Cd268 Cd 0.60023 0.02002 0.78823 0.0
O269 O 0.5776 1.00391 0.74014 0.0
O270 O 0.68546 0.9618 0.74592 0.0
O271 O 0.65972 0.94661 0.78882 0.0
C272 C 0.68231 0.94301 0.76989 0.0
C273 C 0.57214 0.01972 0.8364 0.0
C274 C 0.58885 0.98891 0.71619 0.0
C275 C 0.66879 0.05941 0.78451 0.0
O276 O 0.63965 0.05938 0.79126 0.0
O277 O 0.67725 0.03244 0.77379 0.0
O278 O 0.56767 0.03941 0.8138 0.0
O279 O 0.59107 0.99853 0.83078 0.0
O280 O 0.76336 0.65086 0.04847 0.0
Cd281 Cd 0.77136 0.6249 1.00582 0.0
Cd282 Cd 0.76968 0.68225 0.983 0.0
O283 O 0.78609 0.69841 0.03099 0.0
O284 O 0.78936 0.58628 0.02031 0.0
O285 O 0.81697 0.62769 0.9953 0.0
C286 C 0.81628 0.60024 0.00963 0.0
C287 C 0.79094 0.72082 0.94727 0.0
C288 C 0.77561 0.68193 0.05424 0.0
C289 C 0.71119 0.62562 0.97005 0.0
O290 O 0.72105 0.65735 0.97479 0.0
O291 O 0.73182 0.60656 0.97311 0.0
O292 O 0.76908 0.72652 0.96617 0.0
O293 O 0.79999 0.6921 0.94759 0.0
O294 O 0.93276 0.59183 0.70274 0.0
Cd295 Cd 0.90071 0.59509 0.73925 0.0
Cd296 Cd 0.95456 0.571 0.77554 0.0
O297 O 0.97663 0.58268 0.73268 0.0
O298 O 0.8634 0.61504 0.72008 0.0
O299 O 0.8967 0.63921 0.76382 0.0
C300 C 0.87115 0.63915 0.74354 0.0
C301 C 0.98099 0.57997 0.83024 0.0
C302 C 0.96239 0.58764 0.70496 0.0
C303 C 0.88781 0.52602 0.76315 0.0
O304 O 0.91842 0.52851 0.76994 0.0
O305 O 0.87595 0.5506 0.75343 0.0
O306 O 0.98847 0.55882 0.80828 0.0
O307 O 0.96039 0.5982 0.82047 0.0
O308 O 0.72783 0.38562 0.59875 0.0
Cd309 Cd 0.72454 0.42213 0.56527 0.0
Cd310 Cd 0.74204 0.3623 0.51999 0.0
O311 O 0.73702 0.34264 0.56581 0.0
O312 O 0.70384 0.45986 0.58476 0.0
O313 O 0.68158 0.42647 0.54022 0.0
C314 C 0.6805 0.45192 0.561 0.0
C315 C 0.73917 0.32687 0.46951 0.0
C316 C 0.73306 0.35555 0.59452 0.0
C317 C 0.78725 0.43305 0.53202 0.0
O318 O 0.77968 0.40261 0.51971 0.0
O319 O 0.76865 0.44569 0.55048 0.0
O320 O 0.76131 0.32786 0.49369 0.0
O321 O 0.71668 0.34401 0.47473 0.0
O322 O 0.66976 0.49629 0.23384 0.0
Cd323 Cd 0.70645 0.50407 0.27187 0.0
Cd324 Cd 0.65584 0.52464 0.30928 0.0
O325 O 0.6312 0.50936 0.26321 0.0
O326 O 0.74061 0.48057 0.25485 0.0
O327 O 0.71271 0.46466 0.29662 0.0
C328 C 0.73381 0.45933 0.27636 0.0
C329 C 0.62036 0.51602 0.35142 0.0
C330 C 0.64035 0.49953 0.23581 0.0
C331 C 0.71739 0.57644 0.30132 0.0
O332 O 0.68999 0.56952 0.31326 0.0
O333 O 0.72861 0.55355 0.28548 0.0
O334 O 0.61938 0.53918 0.3318 0.0
O335 O 0.64255 0.49808 0.34811 0.0
Tb336 Tb 0.03268 0.07435 0.01697 0.0
C337 C 0.04038 0.01588 0.96397 0.0
Tb338 Tb 1.01328 1.00091 0.03287 0.0
O339 O 0.08435 0.06853 0.0185 0.0
O340 O 0.05275 0.04104 0.04715 0.0
O341 O 0.03821 0.04783 0.97015 0.0
C342 C 0.0152 0.94015 0.0529 0.0
O343 O 0.03286 0.99293 0.98506 0.0
C344 C 0.96336 0.02889 0.01343 0.0
C345 C 1.00684 0.05935 0.08555 0.0
O346 O 0.03929 0.9601 0.04247 0.0
O347 O 0.98967 0.95408 0.05122 0.0
O348 O 0.96118 1.00289 0.03033 0.0
O349 O 0.99198 0.03447 1.00427 0.0
O350 O 0.01513 0.02935 0.08095 0.0
O351 O 1.00889 0.08081 0.06236 0.0
C352 C 0.03032 0.13129 0.98893 0.0
O353 O 0.04989 0.12913 0.01514 0.0
O354 O 1.01189 0.10219 0.98032 0.0
C355 C 0.08113 0.04456 0.03806 0.0
Tb356 Tb 0.28204 0.83478 0.28452 0.0
C357 C 0.34224 0.79667 0.27509 0.0
Tb358 Tb 0.26839 0.76016 0.26735 0.0
O359 O 0.27208 0.82886 0.33594 0.0
O360 O 0.29158 0.79291 0.3089 0.0
O361 O 0.33121 0.82545 0.27532 0.0
C362 C 0.24631 0.6965 0.27829 0.0
O363 O 0.32182 0.76737 0.27489 0.0
C364 C 0.26621 0.79548 0.21518 0.0
C365 C 0.20845 0.79789 0.27934 0.0
O366 O 0.26037 0.70578 0.25226 0.0
O367 O 0.24502 0.72293 0.29762 0.0
O368 O 0.2737 0.76566 0.21438 0.0
O369 O 0.25765 0.80192 0.24351 0.0
O370 O 0.21935 0.76912 0.2764 0.0
O371 O 0.22857 0.82754 0.28028 0.0
C372 C 0.30198 0.89987 0.27784 0.0
O373 O 0.29832 0.88707 0.30585 0.0
O374 O 0.29424 0.87608 0.25384 0.0
C375 C 0.28033 0.79946 0.33596 0.0
Tb376 Tb 0.56661 0.04184 0.51817 0.0
C377 C 0.5396 0.00656 0.58149 0.0
Tb378 Tb 0.49457 0.02739 0.52499 0.0
O379 O 0.5685 0.09594 0.52975 0.0
O380 O 0.53548 0.0603 0.55022 0.0
O381 O 0.56313 0.01203 0.56135 0.0
C382 C 0.43652 0.04466 0.5257 0.0
O383 O 0.51047 0.01437 0.5741 0.0
C384 C 0.51643 0.97761 0.49577 0.0
C385 C 0.52199 0.06196 0.46088 0.0
O386 O 0.44105 0.01375 0.52217 0.0
O387 O 0.46452 0.06502 0.5305 0.0
O388 O 0.49128 0.97327 0.51287 0.0
O389 O 0.52546 0.00857 0.49329 0.0
O390 O 0.49746 0.0537 0.47936 0.0
O391 O 0.55192 0.05702 0.46982 0.0
C392 C 0.62691 0.02978 0.51532 0.0
O393 O 0.61965 0.05701 0.52915 0.0
O394 O 0.60016 0.01007 0.50219 0.0
C395 C 0.54397 0.09128 0.54765 0.0
Tb396 Tb 0.28724 0.28982 0.81109 0.0
C397 C 0.29317 0.34751 0.76143 0.0
Tb398 Tb 0.27332 0.26991 0.73679 0.0
O399 O 0.33368 0.27133 0.81264 0.0
O400 O 0.31549 0.28923 0.77012 0.0
O401 O 0.29312 0.33934 0.79239 0.0
C402 C 0.28509 0.24673 0.67767 0.0
O403 O 0.28814 0.32439 0.73555 0.0
C404 C 0.21705 0.27183 0.76207 0.0
C405 C 0.2631 0.21431 0.78722 0.0
O406 O 0.26829 0.27017 0.68321 0.0
O407 O 0.29502 0.23639 0.70535 0.0
O408 O 0.21946 0.26411 0.73089 0.0
O409 O 0.24574 0.2776 0.77646 0.0
O410 O 0.27214 0.22169 0.75778 0.0
O411 O 0.26086 0.23819 0.81058 0.0
C412 C 0.28384 0.31874 0.87113 0.0
O413 O 0.29402 0.29076 0.8651 0.0
O414 O 0.27617 0.33039 0.84353 0.0
C415 C 0.3373 0.2744 0.78159 0.0
Tb416 Tb 0.9989 0.04406 0.50615 0.0
C417 C 0.96143 0.01899 0.56446 0.0
Tb418 Tb 0.03929 0.03424 0.57049 0.0
O419 O 0.98073 0.98919 0.49812 0.0
O420 O 0.02673 0.00928 0.52263 0.0
O421 O 0.96003 0.03654 0.53831 0.0
C422 C 0.06552 0.00978 0.62299 0.0
O423 O 0.98896 0.01082 0.57721 0.0
C424 C 0.03271 0.09615 0.5637 0.0
C425 C 0.07612 0.06207 0.51239 0.0
O426 O 0.0458 0.03095 0.62374 0.0
O427 O 0.07096 1.00266 0.59259 0.0
O428 O 0.05743 0.08854 0.58105 0.0
O429 O 1.01226 0.0697 0.55405 0.0
O430 O 0.07768 0.04378 0.53791 0.0
O431 O 0.04846 0.07013 0.50018 0.0
C432 C 0.97875 0.06304 0.44791 0.0
O433 O 0.99948 0.04348 0.45293 0.0
O434 O 0.96812 0.07148 0.47592 0.0
C435 C 1.00652 0.98254 0.51432 0.0
Tb436 Tb 0.30928 0.77272 0.78874 0.0
C437 C 0.25681 0.77445 0.83945 0.0
Tb438 Tb 0.2382 0.76703 0.76056 0.0
O439 O 0.31238 0.82549 0.80874 0.0
O440 O 0.28031 0.80488 0.76755 0.0
O441 O 0.2867 0.76969 0.8348 0.0
C442 C 0.18276 0.78444 0.73808 0.0
O443 O 0.23448 0.77523 0.81428 0.0
C444 C 0.25854 0.70983 0.75785 0.0
C445 C 0.29182 0.76177 0.71077 0.0
O446 O 0.18476 0.75678 0.75159 0.0
O447 O 0.21185 0.80201 0.73751 0.0
O448 O 0.23412 0.71566 0.73861 0.0
O449 O 0.26709 0.73414 0.78025 0.0
O450 O 0.2624 0.76873 0.71472 0.0
O451 O 0.31296 0.75927 0.73631 0.0
C452 C 0.36773 0.7613 0.80992 0.0
O453 O 0.36256 0.78569 0.79255 0.0
O454 O 0.33995 0.74332 0.81506 0.0
C455 C 0.28793 0.82994 0.78885 0.0
Tb456 Tb 0.47872 0.03129 0.01222 0.0
C457 C 0.52368 0.9768 0.02535 0.0
Tb458 Tb 0.55543 0.05434 0.02634 0.0
O459 O 0.48182 0.04039 0.96008 0.0
O460 O 0.52093 0.02709 0.98769 0.0
O461 O 0.49374 0.9839 0.02261 0.0
C462 C 0.61798 0.07112 0.01478 0.0
O463 O 0.55075 0.99997 0.02557 0.0
C464 C 0.52541 0.06328 0.08061 0.0
C465 C 0.51011 0.10807 0.01328 0.0
O466 O 0.60755 0.05514 0.03945 0.0
O467 O 0.59313 0.07787 0.9969 0.0
O468 O 0.55705 0.06964 0.08029 0.0
O469 O 0.51393 0.05215 0.05148 0.0
O470 O 0.53957 0.10014 0.01202 0.0
O471 O 0.48342 0.08558 0.01652 0.0
C472 C 0.41573 0.00791 0.0195 0.0
O473 O 0.42854 0.00864 0.99154 0.0
O474 O 0.43848 0.02011 0.04328 0.0
C475 C 0.51196 0.03616 0.95998 0.0
Tb476 Tb 0.24392 0.2737 0.28676 0.0
C477 C 0.30712 0.2863 0.33934 0.0
Tb478 Tb 0.31266 0.30684 0.26702 0.0
O479 O 0.24744 0.22512 0.25952 0.0
O480 O 0.28875 0.25932 0.27831 0.0
O481 O 0.2748 0.28139 0.33343 0.0
C482 C 0.364 0.31121 0.23263 0.0
O483 O 0.32738 0.29286 0.31616 0.0
C484 C 0.27755 0.35338 0.28205 0.0
C485 C 0.24868 0.29751 0.21804 0.0
O486 O 0.36548 0.32143 0.26398 0.0
O487 O 0.33413 0.29805 0.22128 0.0
O488 O 0.30719 0.36022 0.27355 0.0
O489 O 0.271 0.32202 0.28286 0.0
O490 O 0.27912 0.29223 0.22185 0.0
O491 O 0.23027 0.29653 0.2429 0.0
C492 C 0.19325 0.26296 0.32244 0.0
O493 O 0.19272 0.25115 0.2917 0.0
O494 O 0.22193 0.28043 0.33249 0.0
C495 C 0.27915 0.23239 0.26025 0.0
Tb496 Tb 0.50808 0.55292 0.99662 0.0
C497 C 0.46494 0.52629 0.04973 0.0
Tb498 Tb 0.54248 0.54188 0.063 0.0
O499 O 0.49115 0.49762 0.98716 0.0
O500 O 0.53512 0.51805 0.01473 0.0
O501 O 0.46649 0.545 0.02452 0.0
C502 C 0.565 0.51507 0.11566 0.0
O503 O 0.4912 0.51842 0.06559 0.0
C504 C 0.53832 0.60449 0.05772 0.0
C505 C 0.58413 0.57401 0.00939 0.0
O506 O 0.54503 0.53597 0.11581 0.0
O507 O 0.57276 0.50957 0.08583 0.0
O508 O 0.56024 0.59506 0.07752 0.0
O509 O 0.51768 0.57891 0.04499 0.0
O510 O 0.58403 0.55467 0.0343 0.0
O511 O 0.55712 0.58128 0.9949 0.0
C512 C 0.48856 0.5718 0.93819 0.0
O513 O 0.51206 0.55563 0.94402 0.0
O514 O 0.47538 0.57706 0.9654 0.0
C515 C 0.51607 0.49103 1.00481 0.0
Tb516 Tb 0.81776 0.28687 0.28528 0.0
C517 C 0.76082 0.28091 0.33492 0.0
Tb518 Tb 0.74397 0.2709 0.25639 0.0
O519 O 0.82196 0.33906 0.27206 0.0
O520 O 0.7778 0.31149 0.28229 0.0
O521 O 0.79254 0.28491 0.33059 0.0
C522 C 0.69147 0.28809 0.22655 0.0
O523 O 0.73736 0.27616 0.3096 0.0
C524 C 0.76897 0.21547 0.25621 0.0
C525 C 0.80095 0.27109 0.20811 0.0
O526 O 0.69086 0.26356 0.24551 0.0
O527 O 0.72152 0.30261 0.22456 0.0
O528 O 0.73843 0.21553 0.24639 0.0
O529 O 0.78182 0.24543 0.26633 0.0
O530 O 0.77073 0.27601 0.21196 0.0
O531 O 0.82294 0.27092 0.23373 0.0
C532 C 0.87131 0.28146 0.32254 0.0
O533 O 0.86923 0.30551 0.30365 0.0
O534 O 0.84364 0.26059 0.32008 0.0
C535 C 0.79079 0.33874 0.27231 0.0
Tb536 Tb 0.98328 0.52917 0.52022 0.0
C537 C 0.02988 0.47751 0.53685 0.0
Tb538 Tb 0.05679 0.55436 0.53198 0.0
O539 O 0.98435 0.54121 0.46848 0.0
O540 O 0.02395 0.52645 0.49307 0.0
O541 O 0.99955 0.48353 0.53441 0.0
C542 C 0.11941 0.56951 0.52075 0.0
O543 O 0.05601 0.50125 0.53546 0.0
C544 C 0.0254 0.56846 0.58336 0.0
C545 C 1.01069 0.60525 0.51748 0.0
O546 O 0.10896 0.55788 0.54762 0.0
O547 O 0.09461 0.57281 0.5007 0.0
O548 O 0.05376 0.58513 0.57785 0.0
O549 O 0.01808 0.54249 0.56278 0.0
O550 O 0.03922 0.59701 0.5126 0.0
O551 O 0.98594 0.58314 0.52574 0.0
C552 C 0.91994 0.50186 0.52052 0.0
O553 O 0.93598 0.52712 0.5404 0.0
O554 O 0.93966 0.4919 0.50071 0.0
C555 C 1.01402 0.53661 0.4664 0.0
Tb556 Tb 0.78769 0.79399 0.31381 0.0
C557 C 0.79371 0.85259 0.26528 0.0
Tb558 Tb 0.76885 0.77629 0.2431 0.0
O559 O 0.83182 0.77217 0.313 0.0
O560 O 0.81467 0.79326 0.27172 0.0
O561 O 0.79544 0.84435 0.29624 0.0
C562 C 0.76687 0.75156 0.18074 0.0
O563 O 0.78524 0.82961 0.23966 0.0
C564 C 0.72136 0.7935 0.27533 0.0
C565 C 0.76545 0.7187 0.29077 0.0
O566 O 0.79001 0.77434 0.19636 0.0
O567 O 0.74437 0.7428 0.20009 0.0
O568 O 0.72486 0.7985 0.2446 0.0
O569 O 0.74216 0.7766 0.28524 0.0
O570 O 0.77249 0.72745 0.26116 0.0
O571 O 0.76386 0.74183 0.31497 0.0
C572 C 0.78803 0.81917 0.37592 0.0
O573 O 0.80516 0.7974 0.36617 0.0
O574 O 0.7711 0.82715 0.35066 0.0
C575 C 0.83544 0.77654 0.28221 0.0
Tb576 Tb 0.78061 0.33279 0.77994 0.0
C577 C 0.84149 0.29337 0.77951 0.0
Tb578 Tb 0.76746 0.25417 0.76659 0.0
O579 O 0.76822 0.3293 0.8312 0.0
O580 O 0.78638 0.29123 0.80657 0.0
O581 O 0.83058 0.32231 0.78147 0.0
C582 C 0.748 0.19142 0.78098 0.0
O583 O 0.82126 0.26343 0.77463 0.0
C584 C 0.76042 0.28369 0.71071 0.0
C585 C 0.70804 0.29365 0.76674 0.0
O586 O 0.76702 0.20016 0.7581 0.0
O587 O 0.74061 0.21807 0.79581 0.0
O588 O 0.75731 0.25126 0.71161 0.0
O589 O 0.76807 0.29601 0.74018 0.0
O590 O 0.71897 0.26578 0.7731 0.0
O591 O 0.72822 0.32248 0.76363 0.0
C592 C 0.80612 0.39586 0.77034 0.0
O593 O 0.78625 0.38734 0.79249 0.0
O594 O 0.81081 0.36907 0.75355 0.0
C595 C 0.77429 0.29906 0.83266 0.0
Tb596 Tb 0.74701 0.77451 0.79233 0.0
C597 C 0.80753 0.80265 0.84214 0.0
Tb598 Tb 0.80967 0.80862 0.76755 0.0
O599 O 0.75301 0.72541 0.76865 0.0
O600 O 0.7933 0.76212 0.786 0.0
O601 O 0.77643 0.80414 0.83503 0.0
C602 C 0.85825 0.81036 0.72958 0.0
O603 O 0.82644 0.80021 0.81789 0.0
C604 C 0.7731 0.85137 0.78758 0.0
C605 C 0.74349 0.78766 0.71846 0.0
O606 O 0.85716 0.83352 0.75328 0.0
O607 O 0.83251 0.7869 0.72783 0.0
O608 O 0.80443 0.85972 0.78527 0.0
O609 O 0.76405 0.82162 0.77453 0.0
O610 O 0.77599 0.79373 0.72216 0.0
O611 O 0.72599 0.78285 0.74385 0.0
C612 C 0.69745 0.75969 0.82908 0.0
O613 O 0.72711 0.75578 0.8367 0.0
O614 O 0.6955 0.77101 0.80022 0.0
C615 C 0.78467 0.73378 0.76994 0.0
Tb616 Tb 0.53502 0.56992 0.51852 0.0
C617 C 0.53984 0.51378 0.46039 0.0
Tb618 Tb 0.50647 0.49194 0.52507 0.0
O619 O 0.58677 0.56726 0.53674 0.0
O620 O 0.54996 0.5268 0.53315 0.0
O621 O 0.54218 0.54601 0.47097 0.0
C622 C 0.50643 0.43378 0.55037 0.0
O623 O 0.52764 0.48818 0.47732 0.0
C624 C 0.46147 0.52853 0.51203 0.0
C625 C 0.50039 0.54943 0.58119 0.0
O626 O 0.48869 0.43722 0.52326 0.0
O627 O 0.52421 0.46254 0.56218 0.0
O628 O 0.45542 0.49867 0.52242 0.0
O629 O 0.49095 0.53373 0.50532 0.0
O630 O 0.50414 0.51791 0.57382 0.0
O631 O 0.50803 0.57378 0.56159 0.0
C632 C 0.53879 0.62811 0.49148 0.0
O633 O 0.54865 0.62535 0.52228 0.0
O634 O 0.52699 0.59844 0.47677 0.0
C635 C 0.58028 0.53507 0.54011 0.0
Tb636 Tb 0.06489 0.54499 0.02681 0.0
C637 C 0.03907 0.51317 0.09161 0.0
Tb638 Tb 0.99371 0.53391 0.0353 0.0
O639 O 0.06764 0.59976 0.03534 0.0
O640 O 0.03544 0.56649 0.05884 0.0
O641 O 0.06171 0.51596 0.07038 0.0
C642 C 0.9366 0.55282 0.038 0.0
O643 O 1.01081 0.52301 0.08483 0.0
C644 C 1.0126 0.48042 0.01076 0.0
C645 C 0.01979 0.56178 0.968 0.0
O646 O 0.94069 0.52178 0.03734 0.0
O647 O 0.96459 0.57272 0.03814 0.0
O648 O 0.98763 0.47951 0.02792 0.0
O649 O 0.02291 0.51037 1.00467 0.0
O650 O 0.99559 0.55582 0.98726 0.0
O651 O 0.04957 0.5567 0.97727 0.0
C652 C 0.12594 0.53511 0.02381 0.0
O653 O 0.11772 0.56134 0.0385 0.0
O654 O 0.0997 0.51485 0.01022 0.0
C655 C 0.04421 0.59699 0.05462 0.0
C656 C 0.04623 0.2195 0.96007 0.0
C657 C 0.0345 0.21339 0.92617 0.0
C658 C 0.04532 0.19294 0.98052 0.0
C659 C 0.0319 0.15959 0.96787 0.0
H660 H 0.05645 0.24492 0.9708 0.0
H661 H 0.05475 0.19859 1.00637 0.0
S662 S 0.99746 0.13036 0.881 0.0
N663 N 1.00896 0.17147 0.88116 0.0
N664 N 1.00693 0.12195 0.91921 0.0
C665 C 0.02002 0.15329 0.93406 0.0
C666 C 0.0214 0.18007 0.91331 0.0
C667 C 0.12695 0.81841 0.24817 0.0
C668 C 0.10478 0.78791 0.24925 0.0
C669 C 0.15994 0.82255 0.26077 0.0
C670 C 0.17237 0.79609 0.27438 0.0
H671 H 0.11915 0.83879 0.23593 0.0
H672 H 0.17617 0.8459 0.2577 0.0
S673 S 0.12365 0.71283 0.28771 0.0
N674 N 0.09689 0.7322 0.26887 0.0
N675 N 0.1589 0.73972 0.29206 0.0
C676 C 0.14994 0.7664 0.27805 0.0
C677 C 0.11617 0.76237 0.26564 0.0
C678 C 0.52506 0.89055 0.46122 0.0
C679 C 0.53949 0.89661 0.43171 0.0
C680 C 0.51805 0.91699 0.48198 0.0
C681 C 0.52589 0.95052 0.4744 0.0
H682 H 0.51824 0.86506 0.46787 0.0
H683 H 0.50622 0.91109 0.50403 0.0
S684 S 0.56623 0.97998 0.40134 0.0
N685 N 0.56266 0.93867 0.39669 0.0
N686 N 0.55034 0.98846 0.43605 0.0
C687 C 0.54139 0.95703 0.44556 0.0
C688 C 0.54793 0.93004 0.4241 0.0
C689 C 0.41427 0.24046 0.76456 0.0
C690 C 0.42242 0.25268 0.73425 0.0
C691 C 0.38675 0.24751 0.77941 0.0
C692 C 0.36578 0.26676 0.7645 0.0
H693 H 0.4296 0.22569 0.77732 0.0
H694 H 0.38192 0.23778 0.80289 0.0
S695 S 0.37479 0.30335 0.68424 0.0
N696 N 0.40625 0.28424 0.68932 0.0
N697 N 0.3546 0.29719 0.71706 0.0
C698 C 0.37316 0.27861 0.73388 0.0
C699 C 0.40141 0.27169 0.71885 0.0
C700 C 0.04996 0.9143 0.54086 0.0
C701 C 0.02438 0.88898 0.54785 0.0
C702 C 0.04365 0.94424 0.52949 0.0
C703 C 1.01151 0.94967 0.52399 0.0
H704 H 0.0752 0.91138 0.54496 0.0
H705 H 0.06418 0.9634 0.5251 0.0
S706 S 0.93572 0.89115 0.53752 0.0
N707 N 0.96549 0.87116 0.54817 0.0
N708 N 0.95368 0.92743 0.52571 0.0
C709 C 0.98555 0.9244 0.53006 0.0
C710 C 0.992 0.89404 0.54236 0.0
C711 C 0.45606 0.78635 0.84365 0.0
C712 C 0.45878 0.76473 0.86875 0.0
C713 C 0.42698 0.78357 0.82319 0.0
C714 C 0.39956 0.75903 0.82698 0.0
H715 H 0.47608 0.8066 0.84055 0.0
H716 H 0.42557 0.80184 0.80534 0.0
S717 S 0.39536 0.6927 0.88506 0.0
N718 N 0.43269 0.71532 0.89352 0.0
N719 N 0.3778 0.71005 0.85476 0.0
C720 C 0.40255 0.73556 0.85015 0.0
C721 C 0.43226 0.73843 0.87114 0.0
C722 C 0.53723 0.20286 0.02581 0.0
C723 C 0.50931 0.21344 0.03639 0.0
C724 C 0.53664 0.16891 0.01585 0.0
C725 C 0.50801 0.14434 0.01581 0.0
H726 H 0.56038 0.22038 0.02766 0.0
H727 H 0.55939 0.16175 0.0101 0.0
S728 S 0.42636 0.16111 0.03349 0.0
N729 N 0.45108 0.19815 0.04104 0.0
N730 N 0.44941 0.13449 0.02129 0.0
C731 C 0.47901 0.15541 0.02278 0.0
C732 C 0.47982 0.18992 0.0334 0.0
C733 C 0.11014 0.23232 0.35093 0.0
C734 C 0.11223 0.25071 0.3821 0.0
C735 C 0.13642 0.23647 0.33153 0.0
C736 C 0.16577 0.25874 0.34293 0.0
H737 H 0.08787 0.21489 0.3412 0.0
H738 H 0.13375 0.22207 0.30757 0.0
S739 S 0.18415 0.3119 0.42327 0.0
N740 N 0.14618 0.29159 0.42365 0.0
N741 N 0.19579 0.29901 0.38754 0.0
C742 C 0.16835 0.27698 0.37422 0.0
C743 C 0.14149 0.27308 0.39373 0.0
C744 C 0.94444 0.08571 0.13916 0.0
C745 C 0.94769 0.06729 0.16673 0.0
C746 C 0.96599 0.08589 0.11445 0.0
C747 C 0.99063 0.06645 0.11569 0.0
H748 H 0.92471 0.09955 0.13631 0.0
H749 H 0.96193 0.09963 0.09322 0.0
S750 S 1.01172 0.01687 0.18444 0.0
N751 N 0.9798 0.03203 0.19549 0.0
N752 N 0.01919 0.0312 0.14848 0.0
C753 C 0.99529 0.04953 0.14406 0.0
C754 C 0.97401 0.05013 0.16964 0.0
C755 C 0.27608 0.77622 0.42471 0.0
C756 C 0.29195 0.74851 0.42569 0.0
C757 C 0.27241 0.79235 0.39563 0.0
C758 C 0.28406 0.78124 0.36611 0.0
H759 H 0.26648 0.7857 0.44667 0.0
H760 H 0.26023 0.81371 0.39633 0.0
S761 S 0.32546 0.70829 0.35475 0.0
N762 N 0.3183 0.70985 0.39404 0.0
N763 N 0.3112 0.73985 0.33951 0.0
C764 C 0.29957 0.75324 0.36659 0.0
C765 C 0.3036 0.73701 0.39631 0.0
C766 C 0.54499 1.00191 0.67506 0.0
C767 C 0.57267 0.98717 0.6815 0.0
C768 C 0.53301 0.00612 0.64251 0.0
C769 C 0.54836 0.99606 0.61496 0.0
H770 H 0.53327 0.01173 0.69537 0.0
H771 H 0.51268 0.01906 0.63913 0.0
S772 S 0.61864 0.95183 0.61735 0.0
N773 N 0.6127 0.95904 0.65662 0.0
N774 N 0.59049 0.96737 0.59602 0.0
C775 C 0.57467 0.97935 0.62081 0.0
C776 C 0.5867 0.97477 0.65385 0.0
C777 C 0.28261 0.33151 0.9635 0.0
C778 C 0.27093 0.36177 0.96786 0.0
C779 C 0.2866 0.31767 0.93201 0.0
C780 C 0.27923 0.33372 0.90386 0.0
H781 H 0.28926 0.31863 0.98463 0.0
H782 H 0.29585 0.29445 0.92978 0.0
S783 S 0.24712 0.41297 0.90167 0.0
N784 N 0.25123 0.40693 0.94133 0.0
N785 N 0.25899 0.38097 0.88191 0.0
C786 C 0.26691 0.36363 0.90769 0.0
C787 C 0.26258 0.37761 0.93979 0.0
C788 C 0.9255 0.08086 0.37373 0.0
C789 C 0.94494 0.07603 0.34783 0.0
C790 C 0.93724 0.07899 0.40688 0.0
C791 C 0.96863 0.07223 0.4148 0.0
H792 H 0.90038 0.08364 0.36821 0.0
H793 H 0.92095 0.08061 0.426 0.0
S794 S 0.03124 0.06504 0.3567 0.0
N795 N 0.99862 0.06956 0.33292 0.0
N796 N 0.02062 0.06616 0.39484 0.0
C797 C 0.98919 0.07055 0.38941 0.0
C798 C 0.97733 0.07244 0.35596 0.0
C799 C 0.33047 0.72183 0.64 0.0
C800 C 0.31364 0.73019 0.61127 0.0
C801 C 0.32423 0.73336 0.67188 0.0
C802 C 0.30051 0.75341 0.67661 0.0
H803 H 0.34794 0.70532 0.63796 0.0
H804 H 0.33717 0.72514 0.69298 0.0
S805 S 0.25109 0.78461 0.60994 0.0
N806 N 0.27343 0.76176 0.58997 0.0
N807 N 0.26154 0.78286 0.64971 0.0
C808 C 0.28434 0.76302 0.6482 0.0
C809 C 0.29099 0.75165 0.61566 0.0
C810 C 0.52994 0.03872 0.86993 0.0
C811 C 0.55705 0.02277 0.86821 0.0
C812 C 0.51588 0.0432 0.89973 0.0
C813 C 0.52857 0.03242 0.92929 0.0
H814 H 0.51928 0.04769 0.84796 0.0
H815 H 0.49481 0.05526 0.89955 0.0
S816 S 0.60022 0.99058 0.93886 0.0
N817 N 0.59657 0.99687 0.89923 0.0
N818 N 0.57042 0.00567 0.95514 0.0
C819 C 0.55597 0.01687 0.92814 0.0
C820 C 0.57007 0.0119 0.89766 0.0
C821 C 0.25827 0.33069 0.13619 0.0
C822 C 0.24344 0.359 0.1393 0.0
C823 C 0.25637 0.30799 0.1602 0.0
C824 C 0.23939 0.31272 0.18795 0.0
H825 H 0.27366 0.32743 0.11653 0.0
H826 H 0.27058 0.28824 0.15839 0.0
S827 S 0.18791 0.37686 0.20156 0.0
N828 N 0.20555 0.38661 0.16791 0.0
N829 N 0.20128 0.34328 0.21315 0.0
C830 C 0.22074 0.33825 0.18891 0.0
C831 C 0.22314 0.36177 0.16462 0.0
C832 C 0.14726 0.99256 0.02364 0.0
C833 C 0.14989 0.9762 0.05277 0.0
C834 C 0.12553 0.01508 0.01943 0.0
C835 C 0.10456 0.02122 0.04358 0.0
H836 H 0.16281 0.98866 1.00431 0.0
H837 H 0.12488 0.02748 0.99684 0.0
S838 S 0.10056 0.98344 0.1236 0.0
N839 N 0.12939 0.96767 0.10609 0.0
N840 N 0.08738 0.00825 0.09736 0.0
C841 C 0.10642 1.00441 0.07247 0.0
C842 C 0.12933 0.98239 0.07725 0.0
C843 C 0.66852 0.57814 0.98224 0.0
C844 C 0.67643 0.61107 0.97259 0.0
C845 C 0.6386 0.56645 0.9942 0.0
C846 C 0.61509 0.58684 0.99611 0.0
H847 H 0.68629 0.56179 0.98255 0.0
H848 H 0.63399 0.54137 1.00233 0.0
S849 S 0.62145 0.67318 0.97012 0.0
N850 N 0.65683 0.66279 0.96317 0.0
N851 N 0.60001 0.64023 0.98484 0.0
C852 C 0.62149 0.61883 0.9844 0.0
C853 C 0.65226 0.63105 0.97272 0.0
C854 C 0.7788 0.42847 0.26401 0.0
C855 C 0.74829 0.42867 0.27619 0.0
C856 C 0.79233 0.39922 0.26253 0.0
C857 C 0.77553 0.36897 0.27256 0.0
H858 H 0.79248 0.45116 0.25582 0.0
H859 H 0.81609 0.40032 0.25347 0.0
S860 S 0.69375 0.35573 0.30419 0.0
N861 N 0.70115 0.39578 0.29722 0.0
N862 N 0.7261 0.3409 0.29402 0.0
C863 C 0.74468 0.36876 0.28415 0.0
C864 C 0.7312 0.39859 0.28611 0.0
C865 C 0.83493 0.48064 0.54876 0.0
C866 C 0.81958 0.45286 0.52644 0.0
C867 C 0.86721 0.4969 0.54625 0.0
C868 C 0.88524 0.48602 0.52129 0.0
H869 H 0.82239 0.48916 0.56906 0.0
H870 H 0.87837 0.51757 0.56451 0.0
S871 S 0.85525 0.417 0.45441 0.0
N872 N 0.82418 0.41708 0.47681 0.0
N873 N 0.88466 0.44753 0.47233 0.0
C874 C 0.86976 0.45931 0.49796 0.0
C875 C 0.83698 0.44276 0.50046 0.0
C876 C 0.35492 0.19324 0.25818 0.0
C877 C 0.34388 0.16297 0.2378 0.0
C878 C 0.33405 0.21596 0.26424 0.0
C879 C 0.30104 0.20905 0.25079 0.0
H880 H 0.37985 0.19936 0.26982 0.0
H881 H 0.34375 0.23874 0.28038 0.0
S882 S 0.26013 0.13404 0.19474 0.0
N883 N 0.29789 0.12801 0.20296 0.0
N884 N 0.25862 0.17042 0.21515 0.0
C885 C 0.2898 0.17929 0.22982 0.0
C886 C 0.31122 0.15635 0.22313 0.0
C887 C 0.34607 0.04306 0.50666 0.0
C888 C 0.34563 0.07638 0.49968 0.0
C889 C 0.37565 0.03273 0.51513 0.0
C890 C 0.40548 0.05572 0.51782 0.0
H891 H 0.32338 0.025 0.506 0.0
H892 H 0.3751 0.00682 0.52011 0.0
S893 S 0.41731 0.14606 0.50276 0.0
N894 N 0.37744 0.13221 0.49584 0.0
N895 N 0.43287 0.11327 0.51277 0.0
C896 C 0.40532 0.0891 0.51083 0.0
C897 C 0.37539 0.09932 0.50141 0.0
C898 C 0.72384 0.6375 0.32214 0.0
C899 C 0.73399 0.61235 0.30194 0.0
C900 C 0.73524 0.67186 0.3194 0.0
C901 C 0.75685 0.68248 0.29597 0.0
H902 H 0.70614 0.63065 0.33957 0.0
H903 H 0.7259 0.69017 0.33478 0.0
S904 S 0.79362 0.6273 0.23938 0.0
N905 N 0.76929 0.60096 0.25947 0.0
N906 N 0.79015 0.66536 0.25414 0.0
C907 C 0.76839 0.65779 0.27669 0.0
C908 C 0.75718 0.62281 0.27976 0.0
C909 C 0.87651 0.46363 0.75544 0.0
C910 C 0.86599 0.49349 0.7651 0.0
C911 C 0.85641 0.43226 0.75655 0.0
C912 C 0.82543 0.4296 0.76819 0.0
H913 H 0.90033 0.46449 0.74656 0.0
H914 H 0.86557 0.40988 0.74886 0.0
S915 S 0.78674 0.50016 0.79704 0.0
N916 N 0.82254 0.51863 0.78652 0.0
N917 N 0.78513 0.45923 0.78983 0.0
C918 C 0.81465 0.45917 0.77826 0.0
C919 C 0.83484 0.49127 0.77634 0.0
C920 C 0.99627 0.8683 0.10644 0.0
C921 C 0.02545 0.85563 0.10853 0.0
C922 C 0.99264 0.89485 0.08727 0.0
C923 C 0.01808 0.90974 0.06959 0.0
H924 H 0.97618 0.85796 0.12002 0.0
H925 H 0.97005 0.90434 0.08702 0.0
S926 S 0.09876 0.88496 0.06514 0.0
N927 N 0.07985 0.85936 0.08996 0.0
N928 N 0.07281 0.90916 0.05409 0.0
C929 C 0.04702 0.89684 0.0707 0.0
C930 C 0.05077 0.86981 0.09014 0.0
C931 C 0.92402 0.26563 0.79481 0.0
C932 C 0.94449 0.29479 0.81117 0.0
C933 C 0.89109 0.26557 0.78358 0.0
C934 C 0.87748 0.29481 0.7877 0.0
H935 H 0.93296 0.24226 0.79224 0.0
H936 H 0.87598 0.24213 0.77239 0.0
S937 S 0.92256 0.37877 0.82581 0.0
N938 N 0.94974 0.35412 0.82887 0.0
N939 N 0.88876 0.35461 0.80717 0.0
C940 C 0.89855 0.32462 0.80237 0.0
C941 C 0.93174 0.32443 0.81426 0.0
C942 C 0.53652 0.17828 0.58365 0.0
C943 C 0.51758 0.17192 0.61043 0.0
C944 C 0.54424 0.15208 0.56318 0.0
C945 C 0.53321 0.11826 0.56829 0.0
H946 H 0.54638 0.20385 0.57886 0.0
H947 H 0.55949 0.15844 0.5435 0.0
S948 S 0.48067 0.08742 0.63295 0.0
N949 N 0.48642 0.12883 0.63955 0.0
N950 N 0.50075 0.0796 0.60095 0.0
C951 C 0.51318 0.11134 0.59405 0.0
C952 C 0.50542 0.13811 0.6151 0.0
C953 C 0.63845 0.81543 0.29105 0.0
C954 C 0.63376 0.80579 0.3231 0.0
C955 C 0.66693 0.81178 0.27603 0.0
C956 C 0.69191 0.79809 0.29223 0.0
H957 H 0.61998 0.82592 0.27735 0.0
H958 H 0.66923 0.81953 0.25134 0.0
S959 S 0.6923 0.76894 0.37641 0.0
N960 N 0.65738 0.78215 0.37064 0.0
N961 N 0.71009 0.77493 0.34216 0.0
C962 C 0.68767 0.78843 0.32424 0.0
C963 C 0.65888 0.79235 0.33968 0.0
C964 C 1.00149 0.1636 0.51927 0.0
C965 C 0.02998 0.18788 0.51903 0.0
C966 C 1.00235 0.13449 0.53524 0.0
C967 C 0.03176 0.12892 0.55125 0.0
H968 H 0.97878 0.16645 0.50584 0.0
H969 H 0.98007 0.11575 0.53414 0.0
S970 S 0.11269 0.18615 0.55837 0.0
N971 N 0.08794 0.20559 0.53663 0.0
N972 N 0.08974 0.15085 0.56707 0.0
C973 C 0.06014 0.15384 0.5523 0.0
C974 C 0.05922 0.18337 0.53591 0.0
C975 C 0.60457 0.28192 0.1891 0.0
C976 C 0.60767 0.30613 0.16596 0.0
C977 C 0.63166 0.27703 0.20945 0.0
C978 C 0.66283 0.2963 0.20761 0.0
H979 H 0.58123 0.26563 0.19077 0.0
H980 H 0.62827 0.25734 0.22603 0.0
S981 S 0.68364 0.36582 0.15444 0.0
N982 N 0.64408 0.35161 0.14461 0.0
N983 N 0.69502 0.34259 0.18316 0.0
C984 C 0.6661 0.32182 0.18598 0.0
C985 C 0.63852 0.32669 0.16505 0.0
C986 C 0.56392 0.90046 0.02063 0.0
C987 C 0.539 0.87541 1.00371 0.0
C988 C 0.55819 0.93278 0.02951 0.0
C989 C 0.52719 0.94102 0.02223 0.0
H990 H 0.58848 0.89568 0.02541 0.0
H991 H 0.5786 0.95179 0.04094 0.0
S992 S 0.45247 0.88228 0.98281 0.0
N993 N 0.48139 0.85956 0.98327 0.0
N994 N 0.47035 0.91998 1.00027 0.0
C995 C 0.50144 0.91527 1.00761 0.0
C996 C 0.50743 0.88256 0.9982 0.0
C997 C 0.91126 0.77266 0.67344 0.0
C998 C 0.93438 0.80047 0.66689 0.0
C999 C 0.88685 0.77656 0.69376 0.0
C1000 C 0.88486 0.80835 0.70876 0.0
H1001 H 0.91201 0.74751 0.66285 0.0
H1002 H 0.86964 0.75425 0.6981 0.0
S1003 S 0.93923 0.88938 0.69946 0.0
N1004 N 0.95364 0.86112 0.67655 0.0
N1005 N 0.90758 0.86832 0.71559 0.0
C1006 C 0.90766 0.83653 0.7025 0.0
C1007 C 0.93242 0.83263 0.68122 0.0
C1008 C 0.10287 0.99095 0.90979 0.0
C1009 C 0.09811 0.00873 0.88193 0.0
C1010 C 0.08191 0.99033 0.93519 0.0
C1011 C 0.05567 0.00766 0.93364 0.0
H1012 H 0.12374 0.97872 0.91277 0.0
H1013 H 0.08765 0.97819 0.95712 0.0
S1014 S 0.02885 0.05238 0.86345 0.0
N1015 N 0.06203 0.03976 0.85238 0.0
N1016 N 0.0235 0.03912 0.90025 0.0
C1017 C 0.04922 0.02322 0.90486 0.0
C1018 C 0.07024 0.02367 0.879 0.0
C1019 C 0.74408 0.353 0.65641 0.0
C1020 C 0.7378 0.33626 0.62408 0.0
C1021 C 0.75162 0.33608 0.68422 0.0
C1022 C 0.75305 0.30161 0.68104 0.0
H1023 H 0.74388 0.37965 0.66029 0.0
H1024 H 0.75631 0.35018 0.70839 0.0
S1025 S 0.73704 0.24538 0.60259 0.0
N1026 N 0.73252 0.2825 0.59114 0.0
N1027 N 0.74642 0.25103 0.64311 0.0
C1028 C 0.74618 0.28439 0.64908 0.0
C1029 C 0.73866 0.30157 0.62076 0.0
C1030 C 0.52185 0.069 0.36805 0.0
C1031 C 0.49369 0.0824 0.36006 0.0
C1032 C 0.53215 0.06465 0.401 0.0
C1033 C 0.51415 0.07252 0.42726 0.0
H1034 H 0.53555 0.06088 0.34855 0.0
H1035 H 0.55344 0.05339 0.40563 0.0
S1036 S 0.43985 0.1105 0.42002 0.0
N1037 N 0.44928 0.10571 0.3816 0.0
N1038 N 0.46797 0.0966 0.44316 0.0
C1039 C 0.48674 0.08727 0.41977 0.0
C1040 C 0.4767 0.09244 0.38632 0.0
C1041 C 0.75242 0.68558 0.10825 0.0
C1042 C 0.7747 0.69972 0.08683 0.0
C1043 C 0.74924 0.70308 0.13832 0.0
C1044 C 0.76854 0.73501 0.148 0.0
H1045 H 0.73692 0.66106 0.10155 0.0
H1046 H 0.73199 0.69129 0.15429 0.0
S1047 S 0.83058 0.78307 0.10114 0.0
N1048 N 0.81638 0.74759 0.07746 0.0
N1049 N 0.81048 0.78033 0.13429 0.0
C1050 C 0.79094 0.74945 0.12699 0.0
C1051 C 0.79403 0.7318 0.09628 0.0
C1052 C 0.13125 0.98479 0.67993 0.0
C1053 C 0.12032 0.99016 0.71137 0.0
C1054 C 0.11235 0.98907 0.65097 0.0
C1055 C 0.0821 0.99912 0.65254 0.0
H1056 H 0.15528 0.979 0.67768 0.0
H1057 H 0.1224 0.98643 0.62745 0.0
S1058 S 0.03939 0.01 0.72759 0.0
N1059 N 0.07473 1.00101 0.74149 0.0
N1060 N 0.03984 0.00969 0.68707 0.0
C1061 C 0.06966 1.00185 0.68333 0.0
C1062 C 0.0886 0.99713 0.71277 0.0
C1063 C 0.71965 0.31211 0.40854 0.0
C1064 C 0.74185 0.30984 0.43603 0.0
C1065 C 0.72468 0.30071 0.37606 0.0
C1066 C 0.75234 0.28688 0.36962 0.0
H1067 H 0.69883 0.32399 0.4119 0.0
H1068 H 0.70762 0.30435 0.35575 0.0
S1069 S 0.81579 0.27127 0.43301 0.0
N1070 N 0.79097 0.28941 0.45452 0.0
N1071 N 0.80044 0.26855 0.39396 0.0
C1072 C 0.77367 0.28273 0.39704 0.0
C1073 C 0.76845 0.29402 0.43004 0.0
C1074 C 0.50666 0.07175 0.1706 0.0
C1075 C 0.47553 0.08066 0.1687 0.0
C1076 C 0.52239 0.06621 0.14199 0.0
C1077 C 0.50754 0.06873 0.11014 0.0
H1078 H 0.519 0.0688 0.19438 0.0
H1079 H 0.54629 0.05945 0.14484 0.0
S1080 S 0.42764 0.09406 0.09121 0.0
N1081 N 0.43132 0.09343 0.13181 0.0
N1082 N 0.46108 0.08324 0.07866 0.0
C1083 C 0.47685 0.07827 0.10784 0.0
C1084 C 0.46086 0.08418 0.1369 0.0
C1085 C 0.79182 0.77654 0.92545 0.0
C1086 C 0.80352 0.74615 0.92493 0.0
C1087 C 0.79761 0.79807 0.90057 0.0
C1088 C 0.81537 0.79006 0.87429 0.0
H1089 H 0.77611 0.78276 0.94387 0.0
H1090 H 0.78539 0.81939 0.90017 0.0
S1091 S 0.8583 0.718 0.86614 0.0
N1092 N 0.8389 0.71243 0.89953 0.0
N1093 N 0.85003 0.75319 0.85283 0.0
C1094 C 0.83093 0.76221 0.87597 0.0
C1095 C 0.82478 0.74003 0.90122 0.0
C1096 C 0.89935 0.07456 0.04696 0.0
C1097 C 0.89312 0.09635 0.0229 0.0
C1098 C 0.92186 0.05309 0.04319 0.0
C1099 C 0.9399 0.05262 0.01554 0.0
H1100 H 0.88662 0.07385 0.06904 0.0
H1101 H 0.92539 0.03688 0.06256 0.0
S1102 S 0.93008 0.10127 0.94317 0.0
N1103 N 0.90541 0.1141 0.96889 0.0
N1104 N 0.94727 0.07324 0.96182 0.0
C1105 C 0.93347 0.07353 0.99079 0.0
C1106 C 0.91032 0.09552 0.99453 0.0
C1107 C 0.39446 0.49304 0.09837 0.0
C1108 C 0.36951 0.47985 0.07287 0.0
C1109 C 0.42576 0.50795 0.0909 0.0
C1110 C 0.43239 0.51086 0.05783 0.0
H1111 H 0.39 0.49107 0.12403 0.0
H1112 H 0.44472 0.51748 0.111 0.0
S1113 S 0.375 0.48087 0.98236 0.0
N1114 N 0.35338 0.471 0.01345 0.0
N1115 N 0.41173 0.49935 0.99961 0.0
C1116 C 0.40745 0.49822 0.03229 0.0
C1117 C 0.37605 0.48264 0.03978 0.0
C1118 C 0.3133 0.64461 0.76582 0.0
C1119 C 0.3095 0.62816 0.73346 0.0
C1120 C 0.29719 0.67136 0.77373 0.0
C1121 C 0.27671 0.68259 0.74958 0.0
H1122 H 0.32841 0.63643 0.78534 0.0
H1123 H 0.3002 0.68275 0.79902 0.0
S1124 S 0.26118 0.65064 0.66047 0.0
N1125 N 0.28549 0.62711 0.67667 0.0
N1126 N 0.25525 0.67671 0.69151 0.0
C1127 C 0.27342 0.66698 0.71701 0.0
C1128 C 0.28982 0.63999 0.70895 0.0
C1129 C 0.21193 0.59115 0.53582 0.0
C1130 C 0.22054 0.60889 0.50851 0.0
C1131 C 0.17917 0.57725 0.53906 0.0
C1132 C 0.15402 0.5803 0.51492 0.0
H1133 H 0.23031 0.58981 0.55587 0.0
H1134 H 0.17342 0.56521 0.56123 0.0
S1135 S 0.16436 0.61971 0.43628 0.0
N1136 N 0.20176 0.62559 0.45528 0.0
N1137 N 0.14034 0.59895 0.461 0.0
C1138 C 0.16259 0.59579 0.48636 0.0
C1139 C 0.19584 0.61023 0.48325 0.0
C1140 C 0.73473 0.9238 0.76099 0.0
C1141 C 0.70522 0.91954 0.77595 0.0
C1142 C 0.75725 0.90256 0.76614 0.0
C1143 C 0.75097 0.87584 0.78604 0.0
H1144 H 0.74063 0.9438 0.7451 0.0
H1145 H 0.77926 0.90648 0.75357 0.0
S1146 S 0.67811 0.85384 0.83148 0.0
N1147 N 0.67159 0.8868 0.81239 0.0
N1148 N 0.71367 0.84634 0.82122 0.0
C1149 C 0.7218 0.87123 0.80128 0.0
C1150 C 0.69903 0.89324 0.79652 0.0
C1151 C 0.7031 0.01913 0.56572 0.0
C1152 C 0.70707 0.98697 0.55335 0.0
C1153 C 0.67887 0.03444 0.55109 0.0
C1154 C 0.65743 0.01786 0.52391 0.0
H1155 H 0.7181 0.03216 0.58759 0.0
H1156 H 0.67557 0.05841 0.56258 0.0
S1157 S 0.65995 0.93514 0.47969 0.0
N1158 N 0.68969 0.94053 0.5102 0.0
N1159 N 0.64359 0.96914 0.48307 0.0
C1160 C 0.6625 0.98675 0.50988 0.0
C1161 C 0.68748 0.97129 0.52454 0.0
C1162 C 0.31398 0.42808 0.71824 0.0
C1163 C 0.32364 0.45306 0.74495 0.0
C1164 C 0.30331 0.39411 0.72365 0.0
C1165 C 0.30155 0.38398 0.75597 0.0
H1166 H 0.31625 0.43453 0.6931 0.0
H1167 H 0.29729 0.37561 0.70232 0.0
S1168 S 0.32021 0.44124 0.83406 0.0
N1169 N 0.32827 0.46621 0.8045 0.0
N1170 N 0.30758 0.4031 0.81494 0.0
C1171 C 0.3094 0.40936 0.78275 0.0
C1172 C 0.32062 0.44367 0.77717 0.0
C1173 C 0.21588 0.60216 0.2646 0.0
C1174 C 0.19477 0.5962 0.28958 0.0
C1175 C 0.23336 0.63458 0.26158 0.0
C1176 C 0.23068 0.66198 0.28374 0.0
H1177 H 0.21776 0.58196 0.24627 0.0
H1178 H 0.24834 0.63832 0.24125 0.0
S1179 S 0.18171 0.65903 0.35576 0.0
N1180 N 0.17418 0.61991 0.33835 0.0
N1181 N 0.20746 0.68064 0.33316 0.0
C1182 C 0.2111 0.65602 0.30993 0.0
C1183 C 0.193 0.62317 0.31272 0.0
C1184 C 0.55926 0.72023 0.47545 0.0
C1185 C 0.54744 0.71957 0.44187 0.0
C1186 C 0.55596 0.69066 0.49167 0.0
C1187 C 0.54121 0.65938 0.47469 0.0
H1188 H 0.57114 0.74378 0.48936 0.0
H1189 H 0.56537 0.69229 0.5175 0.0
S1190 S 0.50749 0.64386 0.38615 0.0
N1191 N 0.52071 0.68497 0.3922 0.0
N1192 N 0.51546 0.6294 0.42211 0.0
C1193 C 0.52949 0.65839 0.44104 0.0
C1194 C 0.53231 0.68849 0.42477 0.0
C1195 C 0.62663 0.31022 0.72894 0.0
C1196 C 0.60369 0.2821 0.73578 0.0
C1197 C 0.65993 0.31474 0.74059 0.0
C1198 C 0.67197 0.29119 0.75941 0.0
H1199 H 0.61908 0.32837 0.71328 0.0
H1200 H 0.67656 0.33606 0.73331 0.0
S1201 S 0.62181 0.21513 0.7876 0.0
N1202 N 0.59521 0.23184 0.76524 0.0
N1203 N 0.65761 0.24023 0.78705 0.0
C1204 C 0.64905 0.26397 0.76812 0.0
C1205 C 0.61502 0.2595 0.75641 0.0
C1206 C 0.04174 0.42315 0.946 0.0
C1207 C 0.02807 0.39088 0.9543 0.0
C1208 C 0.03794 0.45233 0.96515 0.0
C1209 C 0.02047 0.45007 0.99322 0.0
H1210 H 0.0541 0.42595 0.92377 0.0
H1211 H 0.04758 0.4767 0.95715 0.0
S1212 S 0.9849 0.37162 0.02856 0.0
N1213 N 0.99987 0.35857 0.99474 0.0
N1214 N 0.99295 0.41312 0.03056 0.0
C1215 C 1.00868 0.418 1.00294 0.0
C1216 C 1.01241 0.38846 0.98351 0.0
C1217 C 0.91225 0.74279 0.26494 0.0
C1218 C 0.92318 0.75906 0.23744 0.0
C1219 C 0.88384 0.74848 0.27882 0.0
C1220 C 0.86469 0.77041 0.26571 0.0
H1221 H 0.92603 0.72577 0.27628 0.0
H1222 H 0.87685 0.73556 0.30016 0.0
S1223 S 0.88151 0.81865 0.19325 0.0
N1224 N 0.91178 0.79774 0.19717 0.0
N1225 N 0.85843 0.80819 0.22318 0.0
C1226 C 0.87487 0.78645 0.23789 0.0
C1227 C 0.90405 0.78089 0.22384 0.0
C1228 C 0.49917 0.40328 0.03357 0.0
C1229 C 0.53094 0.39679 0.04028 0.0
C1230 C 0.49417 0.43331 0.02067 0.0
C1231 C 0.52084 0.45803 0.01489 0.0
H1232 H 0.47806 0.38501 0.03821 0.0
H1233 H 0.46943 0.43767 0.01622 0.0
S1234 S 0.60872 0.45357 0.02871 0.0
N1235 N 0.58931 0.41769 0.04003 0.0
N1236 N 0.57991 0.47407 0.01647 0.0
C1237 C 0.5526 0.45178 0.02141 0.0
C1238 C 0.55767 0.42117 0.03394 0.0
C1239 C 0.92993 0.24211 0.37456 0.0
C1240 C 0.95161 0.27025 0.3909 0.0
C1241 C 0.90397 0.24613 0.35224 0.0
C1242 C 0.89977 0.27834 0.34468 0.0
H1243 H 0.93266 0.21689 0.3796 0.0
H1244 H 0.88713 0.22387 0.34078 0.0
S1245 S 0.95071 0.3599 0.38021 0.0
N1246 N 0.96754 0.33127 0.39823 0.0
N1247 N 0.91938 0.33877 0.35487 0.0
C1248 C 0.92171 0.30666 0.36029 0.0
C1249 C 0.94753 0.30261 0.38385 0.0
C1250 C 0.98189 0.68547 0.54197 0.0
C1251 C 1.00907 0.71045 0.53789 0.0
C1252 C 0.98136 0.6515 0.53257 0.0
C1253 C 1.00799 0.64119 0.51871 0.0
H1254 H 0.96175 0.69177 0.55463 0.0
H1255 H 0.96087 0.63318 0.53846 0.0
S1256 S 0.08123 0.69743 0.49492 0.0
N1257 N 0.0605 0.72315 0.5133 0.0
N1258 N 0.05941 0.65922 0.49539 0.0
C1259 C 0.03355 0.66621 0.51082 0.0
C1260 C 0.03408 0.70092 0.52044 0.0
C1261 C 0.62106 0.77522 0.86512 0.0
C1262 C 0.62772 0.7713 0.89894 0.0
C1263 C 0.64306 0.76955 0.84234 0.0
C1264 C 0.67256 0.75978 0.85249 0.0
H1265 H 0.59897 0.78346 0.85615 0.0
H1266 H 0.63736 0.77399 0.81679 0.0
S1267 S 0.69996 0.74217 0.93731 0.0
N1268 N 0.66471 0.7542 0.94091 0.0
N1269 N 0.70631 0.74373 0.89794 0.0
C1270 C 0.67897 0.75426 0.88587 0.0
C1271 C 0.65654 0.7601 0.90917 0.0
C1272 C 0.46029 0.53433 0.65999 0.0
C1273 C 0.44012 0.55842 0.66149 0.0
C1274 C 0.48101 0.53283 0.63491 0.0
C1275 C 0.48297 0.55582 0.61066 0.0
H1276 H 0.45911 0.51556 0.6776 0.0
H1277 H 0.49494 0.51282 0.63405 0.0
S1278 S 0.43885 0.62723 0.60703 0.0
N1279 N 0.42542 0.60773 0.63874 0.0
N1280 N 0.46538 0.60596 0.59216 0.0
C1281 C 0.46452 0.58156 0.61327 0.0
C1282 C 0.44273 0.5825 0.63844 0.0
C1283 C 0.80185 0.24225 0.89544 0.0
C1284 C 0.78784 0.2516 0.92418 0.0
C1285 C 0.79673 0.25713 0.8658 0.0
C1286 C 0.77774 0.28234 0.86374 0.0
H1287 H 0.81658 0.22292 0.89564 0.0
H1288 H 0.80809 0.24903 0.84445 0.0
S1289 S 0.73561 0.31612 0.93163 0.0
N1290 N 0.75386 0.28777 0.94835 0.0
N1291 N 0.74479 0.3159 0.89297 0.0
C1292 C 0.76366 0.292 0.89221 0.0
C1293 C 0.76856 0.27663 0.92229 0.0
C1294 C 0.08839 0.48272 0.16201 0.0
C1295 C 0.07347 0.49151 0.19035 0.0
C1296 C 0.07602 0.4882 0.13017 0.0
C1297 C 0.04795 0.50246 0.12496 0.0
H1298 H 0.11088 0.4731 0.16443 0.0
H1299 H 0.08944 0.48227 0.10959 0.0
S1300 S 0.9966 0.52522 0.19001 0.0
N1301 N 0.02678 0.51185 0.2105 0.0
N1302 N 1.00342 0.52175 0.15066 0.0
C1303 C 0.03128 0.50898 0.15269 0.0
C1304 C 0.04405 0.50362 0.18531 0.0
C1305 C 0.76886 0.87113 0.44988 0.0
C1306 C 0.78419 0.85798 0.4766 0.0
C1307 C 0.77013 0.85827 0.41726 0.0
C1308 C 0.7869 0.83199 0.41033 0.0
H1309 H 0.75604 0.89171 0.45409 0.0
H1310 H 0.75814 0.86921 0.39735 0.0
S1311 S 0.82946 0.78734 0.47124 0.0
N1312 N 0.81548 0.81604 0.49386 0.0
N1313 N 0.81796 0.79222 0.43242 0.0
C1314 C 0.80185 0.81819 0.43668 0.0
C1315 C 0.80046 0.8311 0.4699 0.0
C1316 C 0.42989 0.58392 0.8662 0.0
C1317 C 0.44653 0.57569 0.83907 0.0
C1318 C 0.44452 0.58505 0.89875 0.0
C1319 C 0.47614 0.57814 0.90481 0.0
H1320 H 0.40467 0.58696 0.86239 0.0
H1321 H 0.43024 0.58916 0.91914 0.0
S1322 S 0.53212 0.56262 0.84187 0.0
N1323 N 0.49779 0.56576 0.82015 0.0
N1324 N 0.5254 0.56827 0.8811 0.0
C1325 C 0.49405 0.57325 0.87779 0.0
C1326 C 0.47916 0.57191 0.84488 0.0
C1327 C 0.83542 0.22577 0.13738 0.0
C1328 C 0.81845 0.23401 0.10862 0.0
C1329 C 0.83098 0.23931 0.16927 0.0
C1330 C 0.80895 0.2613 0.17397 0.0
H1331 H 0.85158 0.20787 0.13539 0.0
H1332 H 0.84378 0.23111 0.19046 0.0
S1333 S 0.76028 0.29327 0.10727 0.0
N1334 N 0.78025 0.26782 0.08734 0.0
N1335 N 0.77164 0.29248 0.147 0.0
C1336 C 0.79281 0.27083 0.14551 0.0
C1337 C 0.79766 0.25748 0.11299 0.0
C1338 C 0.07015 0.51287 0.40322 0.0
C1339 C 0.0592 0.52644 0.37446 0.0
C1340 C 0.05589 0.51688 0.433 0.0
C1341 C 0.02976 0.5342 0.43512 0.0
H1342 H 0.09021 0.49938 0.40292 0.0
H1343 H 0.0652 0.50597 0.45442 0.0
S1344 S 0.99191 0.57467 0.36728 0.0
N1345 N 0.02066 0.55829 0.35036 0.0
N1346 N 0.99371 0.56525 0.40604 0.0
C1347 C 0.01855 0.54786 0.40666 0.0
C1348 C 0.03328 0.54413 0.37644 0.0
C1349 C 0.72109 0.85358 0.66958 0.0
C1350 C 0.73435 0.84605 0.63993 0.0
C1351 C 0.71824 0.83075 0.69371 0.0
C1352 C 0.7292 0.80015 0.68907 0.0
H1353 H 0.71553 0.87827 0.67547 0.0
H1354 H 0.71152 0.83905 0.71769 0.0
S1355 S 0.75744 0.76466 0.61291 0.0
N1356 N 0.75132 0.80228 0.6045 0.0
N1357 N 0.74762 0.76059 0.651 0.0
C1358 C 0.73819 0.79044 0.65807 0.0
C1359 C 0.74043 0.8132 0.63315 0.0
C1360 C 0.6597 0.50648 0.56899 0.0
C1361 C 0.65401 0.47211 0.55704 0.0
C1362 C 0.63569 0.52639 0.56359 0.0
C1363 C 0.60465 0.51272 0.54669 0.0
H1364 H 0.68322 0.51837 0.58192 0.0
H1365 H 0.64157 0.55281 0.57272 0.0
S1366 S 0.57708 0.42356 0.51152 0.0
N1367 N 0.61471 0.42513 0.52829 0.0
N1368 N 0.57001 0.46211 0.51815 0.0
C1369 C 0.59859 0.47821 0.53517 0.0
C1370 C 0.62311 0.45808 0.54033 0.0
C1371 C 0.1606 0.06449 0.48591 0.0
C1372 C 0.16857 0.09665 0.47458 0.0
C1373 C 0.13026 0.05328 0.49719 0.0
C1374 C 0.1063 0.07331 0.49684 0.0
H1375 H 0.17865 0.04857 0.48819 0.0
H1376 H 0.1259 0.02903 0.50713 0.0
S1377 S 0.11211 0.1567 0.46407 0.0
N1378 N 0.14818 0.14664 0.4599 0.0
N1379 N 0.09055 0.12483 0.48028 0.0
C1380 C 0.11252 0.10406 0.48268 0.0
C1381 C 0.14378 0.11586 0.47162 0.0
C1382 C 0.28174 0.92147 0.78059 0.0
C1383 C 0.24976 0.92269 0.78838 0.0
C1384 C 0.29407 0.89143 0.78119 0.0
C1385 C 0.27451 0.86137 0.78854 0.0
H1386 H 0.29741 0.94391 0.77417 0.0
H1387 H 0.3189 0.8916 0.77535 0.0
S1388 S 0.18877 0.85111 0.80964 0.0
N1389 N 0.1988 0.89119 0.80339 0.0
N1390 N 0.22156 0.83506 0.80377 0.0
C1391 C 0.24249 0.86236 0.79613 0.0
C1392 C 0.23021 0.89295 0.79622 0.0
C1393 C 0.32858 0.95975 1.00005 0.0
C1394 C 0.31581 0.96132 0.03089 0.0
C1395 C 0.36055 0.97592 0.99641 0.0
C1396 C 0.38122 0.99368 0.02363 0.0
H1397 H 0.31393 0.94529 0.97866 0.0
H1398 H 0.36945 0.97354 0.97228 0.0
S1399 S 0.35952 0.00563 0.10973 0.0
N1400 N 0.326 0.98281 0.089 0.0
N1401 N 0.38644 0.01249 0.08241 0.0
C1402 C 0.36858 0.99606 0.0545 0.0
C1403 C 0.33575 0.98009 0.05806 0.0
C1404 C 0.81592 0.65531 0.73994 0.0
C1405 C 0.85002 0.66449 0.74824 0.0
C1406 C 0.79502 0.67798 0.74656 0.0
C1407 C 0.80743 0.71089 0.76128 0.0
H1408 H 0.80514 0.63004 0.72917 0.0
H1409 H 0.76891 0.66945 0.74052 0.0
S1410 S 0.89542 0.74859 0.78387 0.0
N1411 N 0.89544 0.70938 0.7697 0.0
N1412 N 0.85662 0.75221 0.78129 0.0
C1413 C 0.84168 0.72077 0.76832 0.0
C1414 C 0.86284 0.69753 0.76206 0.0
C1415 C 0.87672 0.60802 0.01578 0.0
C1416 C 0.84625 0.58669 0.01607 0.0
C1417 C 0.90572 0.59692 0.02403 0.0
C1418 C 0.90534 0.56392 0.0324 0.0
H1419 H 0.87828 0.63374 0.00967 0.0
H1420 H 0.92864 0.61427 0.02331 0.0
S1421 S 0.83209 0.49789 0.03633 0.0
N1422 N 0.81732 0.5309 0.02538 0.0
N1423 N 0.8723 0.50986 0.04032 0.0
C1424 C 0.87517 0.54218 0.03265 0.0
C1425 C 0.84547 0.55362 0.0246 0.0
C1426 C 0.22286 0.13403 0.82187 0.0
C1427 C 0.23427 0.10845 0.80345 0.0
C1428 C 0.23306 0.16823 0.81729 0.0
C1429 C 0.25472 0.17829 0.79372 0.0
H1430 H 0.20516 0.1276 0.8394 0.0
H1431 H 0.22293 0.18679 0.8315 0.0
S1432 S 0.29424 0.12197 0.74105 0.0
N1433 N 0.27053 0.09624 0.76225 0.0
N1434 N 0.28922 0.16017 0.75351 0.0
C1435 C 0.26735 0.1532 0.77607 0.0
C1436 C 0.25732 0.11843 0.78101 0.0
C1437 C 0.36028 0.98331 0.29511 0.0
C1438 C 0.35825 0.99694 0.26446 0.0
C1439 C 0.34037 0.9527 0.29991 0.0
C1440 C 0.31842 0.93437 0.27394 0.0
H1441 H 0.37767 0.99621 0.31541 0.0
H1442 H 0.3433 0.94262 0.32362 0.0
S1443 S 0.30298 0.95969 0.18934 0.0
N1444 N 0.33146 0.99064 0.20827 0.0
N1445 N 0.29478 0.93243 0.21697 0.0
C1446 C 0.31553 0.9481 0.24345 0.0
C1447 C 0.33527 0.97962 0.23878 0.0
C1448 C 0.54026 0.37239 0.60127 0.0
C1449 C 0.51295 0.3469 0.60301 0.0
C1450 C 0.53769 0.40002 0.58361 0.0
C1451 C 0.50801 0.40263 0.566 0.0
H1452 H 0.56372 0.37141 0.61435 0.0
H1453 H 0.55921 0.41961 0.58388 0.0
S1454 S 0.42946 0.34205 0.56169 0.0
N1455 N 0.45523 0.32569 0.5856 0.0
N1456 N 0.45076 0.37735 0.55089 0.0
C1457 C 0.4806 0.37697 0.56675 0.0
C1458 C 0.48297 0.34916 0.58572 0.0
C1459 C 0.43415 0.83259 0.28725 0.0
C1460 C 0.44779 0.80642 0.30012 0.0
C1461 C 0.40034 0.82872 0.27798 0.0
C1462 C 0.37852 0.79831 0.28059 0.0
H1463 H 0.44951 0.85687 0.2856 0.0
H1464 H 0.39117 0.85019 0.26947 0.0
S1465 S 0.40232 0.72059 0.30924 0.0
N1466 N 0.43708 0.74817 0.31274 0.0
N1467 N 0.37392 0.74048 0.29456 0.0
C1468 C 0.39215 0.77128 0.29169 0.0
C1469 C 0.42658 0.77545 0.30167 0.0
C1470 C 0.04298 0.68562 0.09171 0.0
C1471 C 0.02245 0.68042 0.11743 0.0
C1472 C 0.04925 0.65863 0.07113 0.0
C1473 C 0.03526 0.6252 0.07521 0.0
H1474 H 0.05504 0.71078 0.0878 0.0
H1475 H 0.06571 0.66403 0.05223 0.0
S1476 S 0.97771 0.59766 0.13691 0.0
N1477 N 0.98662 0.63904 0.14433 0.0
N1478 N 0.99851 0.58842 0.10592 0.0
C1479 C 1.01385 0.61961 0.10006 0.0
C1480 C 1.00743 0.64712 0.12104 0.0
C1481 C 0.12545 0.26268 0.76867 0.0
C1482 C 0.12352 0.27598 0.80124 0.0
C1483 C 0.1558 0.26178 0.75647 0.0
C1484 C 0.18561 0.27336 0.77652 0.0
H1485 H 0.1033 0.253 0.75233 0.0
H1486 H 0.15582 0.25155 0.73109 0.0
S1487 S 0.19394 0.30849 0.8644 0.0
N1488 N 0.15409 0.30028 0.85366 0.0
N1489 N 0.21089 0.29731 0.83113 0.0
C1490 C 0.18398 0.28617 0.80932 0.0
C1491 C 0.15305 0.28784 0.82154 0.0
C1492 C 0.52766 0.67867 0.00969 0.0
C1493 C 0.55234 0.70463 0.02592 0.0
C1494 C 0.52202 0.64651 0.02095 0.0
C1495 C 0.54099 0.63926 0.04862 0.0
H1496 H 0.51332 0.68279 0.98746 0.0
H1497 H 0.50353 0.62701 1.00726 0.0
S1498 S 0.60589 0.69932 0.10225 0.0
N1499 N 0.59379 0.72154 0.07301 0.0
N1500 N 0.58333 0.66124 0.09382 0.0
C1501 C 0.56452 0.6654 0.06606 0.0
C1502 C 0.57019 0.69806 0.05478 0.0
C1503 C 0.0981 0.77105 0.69341 0.0
C1504 C 0.09952 0.79985 0.676 0.0
C1505 C 0.12456 0.76708 0.71517 0.0
C1506 C 0.15318 0.79186 0.72041 0.0
H1507 H 0.07706 0.75064 0.68899 0.0
H1508 H 0.12314 0.74374 0.72669 0.0
S1509 S 0.16679 0.87462 0.68579 0.0
N1510 N 0.13016 0.85539 0.66876 0.0
N1511 N 0.17986 0.8481 0.71009 0.0
C1512 C 0.15397 0.82189 0.7052 0.0
C1513 C 0.12714 0.82582 0.68281 0.0
C1514 C 1.00855 0.383 0.53739 0.0
C1515 C 0.03527 0.37218 0.52405 0.0
C1516 C 1.00793 0.41724 0.54356 0.0
C1517 C 0.03415 0.44208 0.537 0.0
H1518 H 0.98696 0.36501 0.5413 0.0
H1519 H 0.98602 0.42421 0.55209 0.0
S1520 S 0.11239 0.42695 0.50738 0.0
N1521 N 0.09036 0.38893 0.50844 0.0
N1522 N 0.08949 0.45339 0.52033 0.0
C1523 C 0.06231 0.43161 0.52648 0.0
C1524 C 0.06278 0.39663 0.51992 0.0
C1525 C 0.44512 0.29994 0.2046 0.0
C1526 C 0.44158 0.30604 0.17104 0.0
C1527 C 0.42065 0.30378 0.22524 0.0
C1528 C 0.39157 0.31277 0.21255 0.0
H1529 H 0.46675 0.29164 0.21483 0.0
H1530 H 0.42378 0.298 0.25072 0.0
S1531 S 0.37101 0.33294 0.12694 0.0
N1532 N 0.40776 0.32343 0.12662 0.0
N1533 N 0.36095 0.32911 0.16502 0.0
C1534 C 0.38807 0.31975 0.17931 0.0
C1535 C 0.41337 0.31682 0.15859 0.0
C1536 C 0.57529 0.53376 0.38062 0.0
C1537 C 0.59684 0.51117 0.37693 0.0
C1538 C 0.55477 0.53226 0.40606 0.0
C1539 C 0.5546 0.50801 0.42899 0.0
H1540 H 0.57504 0.55373 0.3645 0.0
H1541 H 0.53996 0.55141 0.40871 0.0
S1542 S 0.60275 0.43989 0.42746 0.0
N1543 N 0.61422 0.46144 0.3963 0.0
N1544 N 0.57525 0.45857 0.44405 0.0
C1545 C 0.57412 0.48366 0.42414 0.0
C1546 C 0.59541 0.48533 0.39823 0.0
C1547 C 0.25492 0.81518 0.12474 0.0
C1548 C 0.23845 0.84265 0.12599 0.0
C1549 C 0.26384 0.80032 0.15351 0.0
C1550 C 0.25677 0.81209 0.18502 0.0
H1551 H 0.26158 0.8053 0.10135 0.0
H1552 H 0.27662 0.77949 0.15099 0.0
S1553 S 0.2128 0.88225 0.20233 0.0
N1554 N 0.21473 0.88028 0.16193 0.0
N1555 N 0.23106 0.85228 0.21544 0.0
C1556 C 0.23982 0.83911 0.18664 0.0
C1557 C 0.23079 0.85432 0.15737 0.0
C1558 C 0.02048 0.56581 0.87472 0.0
C1559 C 0.99322 0.58039 0.86593 0.0
C1560 C 0.02987 0.56143 0.9079 0.0
C1561 C 1.01204 0.57082 0.93373 0.0
H1562 H 0.03426 0.55686 0.8557 0.0
H1563 H 0.05042 0.54917 0.91309 0.0
S1564 S 0.94002 0.6122 0.92458 0.0
N1565 N 0.94971 0.60612 0.88639 0.0
N1566 N 0.96694 0.59735 0.94841 0.0
C1567 C 0.98545 0.58654 0.92548 0.0
C1568 C 0.97619 0.5915 0.89174 0.0
C1569 C 0.27302 0.22603 0.58561 0.0
C1570 C 0.28477 0.19581 0.58158 0.0
C1571 C 0.27465 0.2433 0.61683 0.0
C1572 C 0.28832 0.23105 0.64492 0.0
H1573 H 0.26119 0.23576 0.56475 0.0
H1574 H 0.26407 0.26571 0.61906 0.0
S1575 S 0.32694 0.1559 0.64706 0.0
N1576 N 0.31362 0.15626 0.60773 0.0
N1577 N 0.31696 0.1891 0.66669 0.0
C1578 C 0.30212 0.20214 0.64108 0.0
C1579 C 0.30022 0.18434 0.60927 0.0
C1580 C 0.6291 0.49012 0.17414 0.0
C1581 C 0.61767 0.49619 0.2052 0.0
C1582 C 0.61071 0.49391 0.14476 0.0
C1583 C 0.58047 0.50411 0.14555 0.0
H1584 H 0.65316 0.48421 0.17247 0.0
H1585 H 0.6212 0.49089 0.12153 0.0
S1586 S 0.53641 0.51625 0.21941 0.0
N1587 N 0.57158 0.50754 0.23423 0.0
N1588 N 0.5375 0.51519 0.17891 0.0
C1589 C 0.56741 0.50728 0.17597 0.0
C1590 C 0.5859 0.50313 0.20587 0.0
C1591 C 0.21889 0.81229 0.91223 0.0
C1592 C 0.24144 0.81101 0.93968 0.0
C1593 C 0.22277 0.79847 0.88028 0.0
C1594 C 0.24957 0.78301 0.87424 0.0
H1595 H 0.1987 0.82525 0.91512 0.0
H1596 H 0.20534 0.80129 0.85999 0.0
S1597 S 0.31291 0.76845 0.93847 0.0
N1598 N 0.28953 0.78941 0.95913 0.0
N1599 N 0.29691 0.76385 0.89953 0.0
C1600 C 0.27107 0.77963 0.90189 0.0
C1601 C 0.26703 0.79352 0.9344 0.0
C1602 C 0.96072 0.57461 0.64324 0.0
C1603 C 0.97928 0.58499 0.67414 0.0
C1604 C 0.97573 0.56899 0.61418 0.0
C1605 C 1.0099 0.57395 0.61452 0.0
H1606 H 0.93424 0.57003 0.6415 0.0
H1607 H 0.96041 0.56133 0.59121 0.0
S1608 S 0.07 0.60274 0.68835 0.0
N1609 N 0.03408 0.60089 0.70288 0.0
N1610 N 0.06208 0.59115 0.64823 0.0
C1611 C 0.02884 0.58522 0.645 0.0
C1612 C 1.01361 0.59042 0.67475 0.0
C1613 C 0.31752 0.22067 0.39348 0.0
C1614 C 0.30069 0.23075 0.41981 0.0
C1615 C 0.32617 0.24242 0.36914 0.0
C1616 C 0.31813 0.27462 0.37063 0.0
H1617 H 0.32125 0.19498 0.38993 0.0
H1618 H 0.33507 0.23235 0.34699 0.0
S1619 S 0.2826 0.3159 0.43904 0.0
N1620 N 0.283 0.27752 0.44962 0.0
N1621 N 0.29882 0.31783 0.4035 0.0
C1622 C 0.3059 0.2865 0.39926 0.0
C1623 C 0.29698 0.26454 0.42389 0.0
C1624 C 0.39419 0.5698 0.54422 0.0
C1625 C 0.39328 0.59724 0.52523 0.0
C1626 C 0.41649 0.5483 0.53967 0.0
C1627 C 0.43932 0.55324 0.51615 0.0
H1628 H 0.37735 0.56461 0.56279 0.0
H1629 H 0.41592 0.52764 0.55505 0.0
S1630 S 0.44625 0.61998 0.45858 0.0
N1631 N 0.41686 0.62748 0.48106 0.0
N1632 N 0.45852 0.5867 0.47243 0.0
C1633 C 0.43874 0.58038 0.49683 0.0
C1634 C 0.41581 0.60238 0.50135 0.0
C1635 C 0.8965 0.95867 0.59996 0.0
C1636 C 0.86944 0.97468 0.59743 0.0
C1637 C 0.92687 0.97421 0.59114 0.0
C1638 C 0.93085 0.00581 0.57851 0.0
H1639 H 0.89374 0.93325 0.60721 0.0
H1640 H 0.94673 0.96042 0.59228 0.0
S1641 S 0.86848 0.05959 0.57027 0.0
N1642 N 0.84928 0.02511 0.58445 0.0
N1643 N 0.90626 0.054 0.56694 0.0
C1644 C 0.90454 0.02292 0.57769 0.0
C1645 C 0.87383 0.00743 0.58746 0.0
C1646 C 0.78118 0.12672 0.23147 0.0
C1647 C 0.81528 0.12943 0.23637 0.0
C1648 C 0.76657 0.15453 0.23898 0.0
C1649 C 0.78552 0.18626 0.25104 0.0
H1650 H 0.76568 0.10291 0.22188 0.0
H1651 H 0.74018 0.15122 0.23478 0.0
S1652 S 0.87633 0.20689 0.26456 0.0
N1653 N 0.86779 0.16623 0.25245 0.0
N1654 N 0.84065 0.21868 0.2652 0.0
C1655 C 0.81976 0.18921 0.25543 0.0
C1656 C 0.83455 0.16075 0.24843 0.0
C1657 C 0.71065 0.09127 0.0308 0.0
C1658 C 0.71983 0.11138 1.00525 0.0
C1659 C 0.67768 0.07715 0.03299 0.0
C1660 C 0.65278 0.08245 0.0096 0.0
H1661 H 0.72876 0.08801 0.05034 0.0
H1662 H 0.67157 0.06313 0.05391 0.0
S1663 S 0.66449 0.12844 0.93495 0.0
N1664 N 0.70171 0.13256 0.95398 0.0
N1665 N 0.63995 0.10578 0.95795 0.0
C1666 C 0.66187 0.10044 0.98266 0.0
C1667 C 0.69535 0.11497 0.98053 0.0
C1668 C 0.24114 0.43013 0.26534 0.0
C1669 C 0.21013 0.42323 0.2771 0.0
C1670 C 0.26291 0.40779 0.26814 0.0
C1671 C 0.25447 0.37725 0.2823 0.0
H1672 H 0.24869 0.45301 0.25369 0.0
H1673 H 0.28629 0.41421 0.25829 0.0
S1674 S 0.17632 0.34719 0.31705 0.0
N1675 N 0.17229 0.38389 0.30408 0.0
N1676 N 0.21297 0.34151 0.30855 0.0
C1677 C 0.22368 0.37012 0.29443 0.0
C1678 C 0.20162 0.39322 0.2921 0.0
C1679 C 0.20606 0.52909 0.06983 0.0
C1680 C 0.21156 0.49788 0.0564 0.0
C1681 C 0.17969 0.54257 0.05705 0.0
C1682 C 0.15769 0.52507 0.0307 0.0
H1683 H 0.22146 0.54266 0.09121 0.0
H1684 H 0.17539 0.56577 0.06934 0.0
S1685 S 0.16375 0.44487 0.9837 0.0
N1686 N 0.19497 0.45177 0.01272 0.0
N1687 N 0.14497 0.47697 0.98913 0.0
C1688 C 0.1642 0.49513 0.01544 0.0
C1689 C 0.1913 0.48154 0.02822 0.0
C1690 C 0.83834 0.94359 0.27811 0.0
C1691 C 0.83145 0.95609 0.24751 0.0
C1692 C 0.82508 0.91055 0.28391 0.0
C1693 C 0.80471 0.88834 0.25921 0.0
H1694 H 0.85437 0.9594 0.29782 0.0
H1695 H 0.83172 0.90214 0.30773 0.0
S1696 S 0.77788 0.90894 0.17514 0.0
N1697 N 0.8018 0.94404 0.19256 0.0
N1698 N 0.77716 0.88167 0.20324 0.0
C1699 C 0.797 0.90067 0.22867 0.0
C1700 C 0.81023 0.93459 0.22291 0.0
C1701 C 0.68596 0.12012 0.8054 0.0
C1702 C 0.69237 0.09178 0.78686 0.0
C1703 C 0.70541 0.15199 0.80479 0.0
C1704 C 0.73179 0.15682 0.78532 0.0
H1705 H 0.66519 0.11791 0.81983 0.0
H1706 H 0.69876 0.17321 0.81857 0.0
S1707 S 0.76089 0.09066 0.73459 0.0
N1708 N 0.72873 0.07033 0.75041 0.0
N1709 N 0.76496 0.13051 0.74904 0.0
C1710 C 0.73957 0.12859 0.76798 0.0
C1711 C 0.71994 0.09598 0.76883 0.0
loop_
_geom_bond_atom_site_label_1
_geom_bond_atom_site_label_2
_geom_bond_distance
_geom_bond_site_symmetry_2
_ccdc_geom_bond_type
O0 Cd1 2.223 . S
O0 C8 1.315 . S
Cd1 O0 2.223 . S
Cd1 O4 2.297 . S
Cd1 O5 2.439 . S
Cd1 O11 2.240 1_455 S
Cd2 O3 2.240 . S
Cd2 O10 2.223 1_455 S
Cd2 O12 2.297 1_455 S
Cd2 O13 2.439 . S
O3 Cd2 2.240 . S
O3 C8 1.279 . S
O4 Cd1 2.297 . S
O4 C6 1.247 . S
O5 Cd1 2.439 . S
O5 C6 1.208 . S
C6 O4 1.247 . S
C6 O5 1.208 . S
C7 O12 1.247 1_455 S
C7 O13 1.208 . S
C8 O0 1.315 . S
C8 O3 1.279 . S
C9 O10 1.315 . S
C9 O11 1.279 . S
O10 Cd2 2.223 1_655 S
O10 C9 1.315 . S
O11 Cd1 2.240 1_655 S
O11 C9 1.279 . S
O12 Cd2 2.297 1_655 S
O12 C7 1.247 1_655 S
O13 Cd2 2.439 . S
O13 C7 1.208 . S
O14 Cd15 2.234 . S
O14 C22 1.318 . S
Cd15 O14 2.234 . S
Cd15 O18 2.297 . S
Cd15 O19 2.439 . S
Cd15 O25 2.240 1_655 S
Cd16 O17 2.240 1_455 S
Cd16 O24 2.223 . S
Cd16 O26 2.297 . S
Cd16 O27 2.432 1_455 S
O17 Cd16 2.240 1_655 S
O17 C22 1.279 . S
O18 Cd15 2.297 . S
O18 C20 1.247 . S
O19 Cd15 2.439 . S
O19 C20 1.208 . S
C20 O18 1.247 . S
C20 O19 1.208 . S
C21 O26 1.247 . S
C21 O27 1.200 1_455 S
C22 O14 1.318 . S
C22 O17 1.279 . S
C23 O24 1.315 . S
C23 O25 1.279 . S
O24 Cd16 2.223 . S
O24 C23 1.315 . S
O25 Cd15 2.240 1_455 S
O25 C23 1.279 . S
O26 Cd16 2.297 . S
O26 C21 1.247 . S
O27 Cd16 2.432 1_655 S
O27 C21 1.200 1_655 S
O28 Cd29 2.223 . S
O28 C36 1.315 . S
Cd29 O28 2.223 . S
Cd29 O32 2.297 . S
Cd29 O33 2.439 . S
Cd29 O39 2.240 . S
Cd30 O31 2.240 . S
Cd30 O38 2.223 . S
Cd30 O40 2.297 . S
Cd30 O41 2.439 . S
O31 Cd30 2.240 . S
O31 C36 1.279 . S
O32 Cd29 2.297 . S
O32 C34 1.247 . S
O33 Cd29 2.439 . S
O33 C34 1.208 . S
C34 O32 1.247 . S
C34 O33 1.208 . S
C35 O40 1.247 . S
C35 O41 1.208 . S
C36 O28 1.315 . S
C36 O31 1.279 . S
C37 O38 1.315 . S
C37 O39 1.279 . S
O38 Cd30 2.223 . S
O38 C37 1.315 . S
O39 Cd29 2.240 . S
O39 C37 1.279 . S
O40 Cd30 2.297 . S
O40 C35 1.247 . S
O41 Cd30 2.439 . S
O41 C35 1.208 . S
O42 Cd43 2.223 . S
O42 C50 1.315 . S
Cd43 O42 2.223 . S
Cd43 O46 2.297 . S
Cd43 O47 2.439 . S
Cd43 O53 2.240 . S
Cd44 O45 2.240 . S
Cd44 O52 2.223 . S
Cd44 O54 2.297 . S
Cd44 O55 2.439 . S
O45 Cd44 2.240 . S
O45 C50 1.279 . S
O46 Cd43 2.297 . S
O46 C48 1.247 . S
O47 Cd43 2.439 . S
O47 C48 1.208 . S
C48 O46 1.247 . S
C48 O47 1.208 . S
C49 O54 1.247 . S
C49 O55 1.208 . S
C50 O42 1.315 . S
C50 O45 1.279 . S
C51 O52 1.315 . S
C51 O53 1.279 . S
O52 Cd44 2.223 . S
O52 C51 1.315 . S
O53 Cd43 2.240 . S
O53 C51 1.279 . S
O54 Cd44 2.297 . S
O54 C49 1.247 . S
O55 Cd44 2.439 . S
O55 C49 1.208 . S
O56 Cd57 2.223 . S
O56 C64 1.315 . S
Cd57 O56 2.223 . S
Cd57 O60 2.297 1_455 S
Cd57 O61 2.439 1_455 S
Cd57 O67 2.240 . S
Cd58 O59 2.240 1_455 S
Cd58 O66 2.223 . S
Cd58 O68 2.297 . S
Cd58 O69 2.439 . S
O59 Cd58 2.240 1_655 S
O59 C64 1.279 1_655 S
O60 Cd57 2.297 1_655 S
O60 C62 1.247 . S
O61 Cd57 2.439 1_655 S
O61 C62 1.208 . S
C62 O60 1.247 . S
C62 O61 1.208 . S
C63 O68 1.247 . S
C63 O69 1.208 . S
C64 O56 1.315 . S
C64 O59 1.279 1_455 S
C65 O66 1.315 . S
C65 O67 1.279 . S
O66 Cd58 2.223 . S
O66 C65 1.315 . S
O67 Cd57 2.240 . S
O67 C65 1.279 . S
O68 Cd58 2.297 . S
O68 C63 1.247 . S
O69 Cd58 2.439 . S
O69 C63 1.208 . S
O70 Cd71 2.223 . S
O70 C78 1.315 . S
Cd71 O70 2.223 . S
Cd71 O74 2.297 . S
Cd71 O75 2.439 . S
Cd71 O81 2.240 . S
Cd72 O73 2.240 . S
Cd72 O80 2.223 . S
Cd72 O82 2.297 . S
Cd72 O83 2.439 . S
O73 Cd72 2.240 . S
O73 C78 1.279 . S
O74 Cd71 2.297 . S
O74 C76 1.247 . S
O75 Cd71 2.439 . S
O75 C76 1.208 . S
C76 O74 1.247 . S
C76 O75 1.208 . S
C77 O82 1.247 . S
C77 O83 1.208 . S
C78 O70 1.315 . S
C78 O73 1.279 . S
C79 O80 1.315 . S
C79 O81 1.279 . S
O80 Cd72 2.223 . S
O80 C79 1.315 . S
O81 Cd71 2.240 . S
O81 C79 1.279 . S
O82 Cd72 2.297 . S
O82 C77 1.247 . S
O83 Cd72 2.439 . S
O83 C77 1.208 . S
O84 Cd85 2.223 . S
O84 C92 1.315 . S
Cd85 O84 2.223 . S
Cd85 O88 2.297 . S
Cd85 O89 2.439 . S
Cd85 O95 2.240 . S
Cd86 O87 2.240 . S
Cd86 O94 2.223 . S
Cd86 O96 2.297 . S
Cd86 O97 2.439 . S
O87 Cd86 2.240 . S
O87 C92 1.279 . S
O88 Cd85 2.297 . S
O88 C90 1.247 . S
O89 Cd85 2.439 . S
O89 C90 1.208 . S
C90 O88 1.247 . S
C90 O89 1.208 . S
C91 O96 1.247 . S
C91 O97 1.208 . S
C92 O84 1.315 . S
C92 O87 1.279 . S
C93 O94 1.315 . S
C93 O95 1.279 . S
O94 Cd86 2.223 . S
O94 C93 1.315 . S
O95 Cd85 2.240 . S
O95 C93 1.279 . S
O96 Cd86 2.297 . S
O96 C91 1.247 . S
O97 Cd86 2.439 . S
O97 C91 1.208 . S
O98 Cd99 2.223 1_655 S
O98 C106 1.315 1_655 S
Cd99 O98 2.223 1_455 S
Cd99 O102 2.297 . S
Cd99 O103 2.439 . S
Cd99 O109 2.240 1_455 S
Cd100 O101 2.240 1_655 S
Cd100 O108 2.223 . S
Cd100 O110 2.297 . S
Cd100 O111 2.439 1_655 S
O101 Cd100 2.240 1_455 S
O101 C106 1.279 . S
O102 Cd99 2.297 . S
O102 C104 1.247 . S
O103 Cd99 2.439 . S
O103 C104 1.208 . S
C104 O102 1.247 . S
C104 O103 1.208 . S
C105 O110 1.247 1_455 S
C105 O111 1.208 . S
C106 O98 1.315 1_455 S
C106 O101 1.279 . S
C107 O108 1.315 . S
C107 O109 1.279 . S
O108 Cd100 2.223 . S
O108 C107 1.315 . S
O109 Cd99 2.240 1_655 S
O109 C107 1.279 . S
O110 Cd100 2.297 . S
O110 C105 1.247 1_655 S
O111 Cd100 2.439 1_455 S
O111 C105 1.208 . S
O112 Cd113 2.223 . S
O112 C120 1.315 . S
Cd113 O112 2.223 . S
Cd113 O116 2.297 . S
Cd113 O117 2.439 . S
Cd113 O123 2.240 . S
Cd114 O115 2.240 . S
Cd114 O122 2.223 1_545 S
Cd114 O124 2.297 . S
Cd114 O125 2.439 . S
O115 Cd114 2.240 . S
O115 C120 1.279 . S
O116 Cd113 2.297 . S
O116 C118 1.247 . S
O117 Cd113 2.439 . S
O117 C118 1.208 . S
C118 O116 1.247 . S
C118 O117 1.208 . S
C119 O124 1.247 . S
C119 O125 1.208 . S
C120 O112 1.315 . S
C120 O115 1.279 . S
C121 O122 1.315 . S
C121 O123 1.279 1_565 S
O122 Cd114 2.223 1_565 S
O122 C121 1.315 . S
O123 Cd113 2.240 . S
O123 C121 1.279 1_545 S
O124 Cd114 2.297 . S
O124 C119 1.247 . S
O125 Cd114 2.439 . S
O125 C119 1.208 . S
O126 Cd127 2.223 . S
O126 C134 1.315 . S
Cd127 O126 2.223 . S
Cd127 O130 2.297 . S
Cd127 O131 2.439 . S
Cd127 O137 2.240 . S
Cd128 O129 2.240 . S
Cd128 O136 2.223 . S
Cd128 O138 2.297 . S
Cd128 O139 2.439 . S
O129 Cd128 2.240 . S
O129 C134 1.279 . S
O130 Cd127 2.297 . S
O130 C132 1.247 . S
O131 Cd127 2.439 . S
O131 C132 1.208 . S
C132 O130 1.247 . S
C132 O131 1.208 . S
C133 O138 1.247 . S
C133 O139 1.208 . S
C134 O126 1.315 . S
C134 O129 1.279 . S
C135 O136 1.315 . S
C135 O137 1.279 . S
O136 Cd128 2.223 . S
O136 C135 1.315 . S
O137 Cd127 2.240 . S
O137 C135 1.279 . S
O138 Cd128 2.297 . S
O138 C133 1.247 . S
O139 Cd128 2.439 . S
O139 C133 1.208 . S
O140 Cd141 2.223 1_545 S
O140 C148 1.315 1_545 S
Cd141 O140 2.223 1_565 S
Cd141 O144 2.297 . S
Cd141 O145 2.439 . S
Cd141 O151 2.240 1_565 S
Cd142 O143 2.240 1_545 S
Cd142 O150 2.223 . S
Cd142 O152 2.297 . S
Cd142 O153 2.439 1_545 S
O143 Cd142 2.240 1_565 S
O143 C148 1.279 . S
O144 Cd141 2.297 . S
O144 C146 1.247 . S
O145 Cd141 2.439 . S
O145 C146 1.208 . S
C146 O144 1.247 . S
C146 O145 1.208 . S
C147 O152 1.247 . S
C147 O153 1.208 1_545 S
C148 O140 1.315 1_565 S
C148 O143 1.279 . S
C149 O150 1.315 . S
C149 O151 1.279 . S
O150 Cd142 2.223 . S
O150 C149 1.315 . S
O151 Cd141 2.240 1_545 S
O151 C149 1.279 . S
O152 Cd142 2.297 . S
O152 C147 1.247 . S
O153 Cd142 2.439 1_565 S
O153 C147 1.208 1_565 S
O154 Cd155 2.223 . S
O154 C162 1.315 . S
Cd155 O154 2.223 . S
Cd155 O158 2.297 . S
Cd155 O159 2.439 . S
Cd155 O165 2.240 . S
Cd156 O157 2.240 . S
Cd156 O164 2.223 . S
Cd156 O166 2.297 1_554 S
Cd156 O167 2.439 1_554 S
O157 Cd156 2.240 . S
O157 C162 1.279 . S
O158 Cd155 2.297 . S
O158 C160 1.247 . S
O159 Cd155 2.439 . S
O159 C160 1.208 . S
C160 O158 1.247 . S
C160 O159 1.208 . S
C161 O166 1.247 . S
C161 O167 1.208 . S
C162 O154 1.315 . S
C162 O157 1.279 . S
C163 O164 1.315 . S
C163 O165 1.279 . S
O164 Cd156 2.223 . S
O164 C163 1.315 . S
O165 Cd155 2.240 . S
O165 C163 1.279 . S
O166 Cd156 2.297 1_556 S
O166 C161 1.247 . S
O167 Cd156 2.439 1_556 S
O167 C161 1.208 . S
O168 Cd169 2.223 . S
O168 C176 1.315 . S
Cd169 O168 2.223 . S
Cd169 O172 2.297 . S
Cd169 O173 2.439 . S
Cd169 O179 2.240 . S
Cd170 O171 2.240 . S
Cd170 O178 2.223 . S
Cd170 O180 2.297 1_554 S
Cd170 O181 2.439 1_554 S
O171 Cd170 2.240 . S
O171 C176 1.279 . S
O172 Cd169 2.297 . S
O172 C174 1.247 . S
O173 Cd169 2.439 . S
O173 C174 1.208 . S
C174 O172 1.247 . S
C174 O173 1.208 . S
C175 O180 1.247 . S
C175 O181 1.208 . S
C176 O168 1.315 . S
C176 O171 1.279 . S
C177 O178 1.315 . S
C177 O179 1.279 . S
O178 Cd170 2.223 . S
O178 C177 1.315 . S
O179 Cd169 2.240 . S
O179 C177 1.279 . S
O180 Cd170 2.297 1_556 S
O180 C175 1.247 . S
O181 Cd170 2.439 1_556 S
O181 C175 1.208 . S
O182 Cd183 2.223 . S
O182 C190 1.315 . S
Cd183 O182 2.223 . S
Cd183 O186 2.297 . S
Cd183 O187 2.439 1_554 S
Cd183 O193 2.240 1_554 S
Cd184 O185 2.240 1_556 S
Cd184 O192 2.223 1_556 S
Cd184 O194 2.297 . S
Cd184 O195 2.439 . S
O185 Cd184 2.240 1_554 S
O185 C190 1.279 . S
O186 Cd183 2.297 . S
O186 C188 1.247 . S
O187 Cd183 2.439 1_556 S
O187 C188 1.208 1_556 S
C188 O186 1.247 . S
C188 O187 1.208 1_554 S
C189 O194 1.247 . S
C189 O195 1.208 . S
C190 O182 1.315 . S
C190 O185 1.279 . S
C191 O192 1.315 1_556 S
C191 O193 1.279 . S
O192 Cd184 2.223 1_554 S
O192 C191 1.315 1_554 S
O193 Cd183 2.240 1_556 S
O193 C191 1.279 . S
O194 Cd184 2.297 . S
O194 C189 1.247 . S
O195 Cd184 2.439 . S
O195 C189 1.208 . S
O196 Cd197 2.223 . S
O196 C204 1.315 . S
Cd197 O196 2.223 . S
Cd197 O200 2.297 . S
Cd197 O201 2.439 . S
Cd197 O207 2.240 . S
Cd198 O199 2.240 . S
Cd198 O206 2.223 . S
Cd198 O208 2.297 . S
Cd198 O209 2.439 . S
O199 Cd198 2.240 . S
O199 C204 1.279 . S
O200 Cd197 2.297 . S
O200 C202 1.247 . S
O201 Cd197 2.439 . S
O201 C202 1.208 . S
C202 O200 1.247 . S
C202 O201 1.208 . S
C203 O208 1.247 . S
C203 O209 1.208 . S
C204 O196 1.315 . S
C204 O199 1.279 . S
C205 O206 1.315 . S
C205 O207 1.279 . S
O206 Cd198 2.223 . S
O206 C205 1.315 . S
O207 Cd197 2.240 . S
O207 C205 1.279 . S
O208 Cd198 2.297 . S
O208 C203 1.247 . S
O209 Cd198 2.439 . S
O209 C203 1.208 . S
O210 Cd211 2.223 . S
O210 C218 1.315 . S
Cd211 O210 2.223 . S
Cd211 O214 2.297 . S
Cd211 O215 2.439 . S
Cd211 O221 2.240 . S
Cd212 O213 2.240 . S
Cd212 O220 2.223 . S
Cd212 O222 2.297 . S
Cd212 O223 2.439 . S
O213 Cd212 2.240 . S
O213 C218 1.279 . S
O214 Cd211 2.297 . S
O214 C216 1.247 . S
O215 Cd211 2.439 . S
O215 C216 1.208 . S
C216 O214 1.247 . S
C216 O215 1.208 . S
C217 O222 1.247 . S
C217 O223 1.208 . S
C218 O210 1.315 . S
C218 O213 1.279 . S
C219 O220 1.315 . S
C219 O221 1.279 . S
O220 Cd212 2.223 . S
O220 C219 1.315 . S
O221 Cd211 2.240 . S
O221 C219 1.279 . S
O222 Cd212 2.297 . S
O222 C217 1.247 . S
O223 Cd212 2.439 . S
O223 C217 1.208 . S
O224 Cd225 2.223 . S
O224 C232 1.315 . S
Cd225 O224 2.223 . S
Cd225 O228 2.297 . S
Cd225 O229 2.439 . S
Cd225 O235 2.240 . S
Cd226 O227 2.240 . S
Cd226 O234 2.223 1_545 S
Cd226 O236 2.297 . S
Cd226 O237 2.439 . S
O227 Cd226 2.240 . S
O227 C232 1.279 . S
O228 Cd225 2.297 . S
O228 C230 1.247 . S
O229 Cd225 2.439 . S
O229 C230 1.208 . S
C230 O228 1.247 . S
C230 O229 1.208 . S
C231 O236 1.247 . S
C231 O237 1.208 . S
C232 O224 1.315 . S
C232 O227 1.279 . S
C233 O234 1.315 . S
C233 O235 1.279 1_565 S
O234 Cd226 2.223 1_565 S
O234 C233 1.315 . S
O235 Cd225 2.240 . S
O235 C233 1.279 1_545 S
O236 Cd226 2.297 . S
O236 C231 1.247 . S
O237 Cd226 2.439 . S
O237 C231 1.208 . S
O238 Cd239 2.223 . S
O238 C246 1.315 . S
Cd239 O238 2.223 . S
Cd239 O242 2.297 . S
Cd239 O243 2.439 . S
Cd239 O249 2.240 . S
Cd240 O241 2.240 . S
Cd240 O248 2.223 . S
Cd240 O250 2.297 . S
Cd240 O251 2.439 . S
O241 Cd240 2.240 . S
O241 C246 1.279 . S
O242 Cd239 2.297 . S
O242 C244 1.247 . S
O243 Cd239 2.439 . S
O243 C244 1.208 . S
C244 O242 1.247 . S
C244 O243 1.208 . S
C245 O250 1.247 . S
C245 O251 1.208 . S
C246 O238 1.315 . S
C246 O241 1.279 . S
C247 O248 1.315 . S
C247 O249 1.279 . S
O248 Cd240 2.223 . S
O248 C247 1.315 . S
O249 Cd239 2.240 . S
O249 C247 1.279 . S
O250 Cd240 2.297 . S
O250 C245 1.247 . S
O251 Cd240 2.439 . S
O251 C245 1.208 . S
O252 Cd253 2.223 . S
O252 C260 1.315 . S
Cd253 O252 2.223 . S
Cd253 O256 2.297 . S
Cd253 O257 2.439 . S
Cd253 O263 2.240 . S
Cd254 O255 2.240 . S
Cd254 O262 2.223 . S
Cd254 O264 2.297 . S
Cd254 O265 2.439 . S
O255 Cd254 2.240 . S
O255 C260 1.279 . S
O256 Cd253 2.297 . S
O256 C258 1.247 . S
O257 Cd253 2.439 . S
O257 C258 1.208 . S
C258 O256 1.247 . S
C258 O257 1.208 . S
C259 O264 1.247 . S
C259 O265 1.208 . S
C260 O252 1.315 . S
C260 O255 1.279 . S
C261 O262 1.315 . S
C261 O263 1.279 . S
O262 Cd254 2.223 . S
O262 C261 1.315 . S
O263 Cd253 2.240 . S
O263 C261 1.279 . S
O264 Cd254 2.297 . S
O264 C259 1.247 . S
O265 Cd254 2.439 . S
O265 C259 1.208 . S
O266 Cd267 2.223 . S
O266 C274 1.315 . S
Cd267 O266 2.223 . S
Cd267 O270 2.297 1_545 S
Cd267 O271 2.439 1_545 S
Cd267 O277 2.240 . S
Cd268 O269 2.240 1_545 S
Cd268 O276 2.223 . S
Cd268 O278 2.297 . S
Cd268 O279 2.439 . S
O269 Cd268 2.240 1_565 S
O269 C274 1.279 1_565 S
O270 Cd267 2.297 1_565 S
O270 C272 1.247 . S
O271 Cd267 2.439 1_565 S
O271 C272 1.208 . S
C272 O270 1.247 . S
C272 O271 1.208 . S
C273 O278 1.247 . S
C273 O279 1.208 . S
C274 O266 1.315 . S
C274 O269 1.279 1_545 S
C275 O276 1.315 . S
C275 O277 1.279 . S
O276 Cd268 2.223 . S
O276 C275 1.315 . S
O277 Cd267 2.240 . S
O277 C275 1.279 . S
O278 Cd268 2.297 . S
O278 C273 1.247 . S
O279 Cd268 2.439 . S
O279 C273 1.208 . S
O280 Cd281 2.223 . S
O280 C288 1.315 . S
Cd281 O280 2.223 . S
Cd281 O284 2.297 . S
Cd281 O285 2.439 . S
Cd281 O291 2.240 1_554 S
Cd282 O283 2.240 1_556 S
Cd282 O290 2.223 1_556 S
Cd282 O292 2.297 . S
Cd282 O293 2.439 . S
O283 Cd282 2.240 1_554 S
O283 C288 1.279 . S
O284 Cd281 2.297 . S
O284 C286 1.247 . S
O285 Cd281 2.439 . S
O285 C286 1.208 . S
C286 O284 1.247 . S
C286 O285 1.208 . S
C287 O292 1.247 . S
C287 O293 1.208 . S
C288 O280 1.315 . S
C288 O283 1.279 . S
C289 O290 1.315 . S
C289 O291 1.279 1_554 S
O290 Cd282 2.223 1_554 S
O290 C289 1.315 . S
O291 Cd281 2.240 1_556 S
O291 C289 1.279 1_556 S
O292 Cd282 2.297 . S
O292 C287 1.247 . S
O293 Cd282 2.439 . S
O293 C287 1.208 . S
O294 Cd295 2.223 . S
O294 C302 1.315 . S
Cd295 O294 2.223 . S
Cd295 O298 2.297 . S
Cd295 O299 2.439 . S
Cd295 O305 2.240 . S
Cd296 O297 2.240 . S
Cd296 O304 2.223 . S
Cd296 O306 2.297 . S
Cd296 O307 2.439 . S
O297 Cd296 2.240 . S
O297 C302 1.279 . S
O298 Cd295 2.297 . S
O298 C300 1.247 . S
O299 Cd295 2.439 . S
O299 C300 1.208 . S
C300 O298 1.247 . S
C300 O299 1.208 . S
C301 O306 1.247 . S
C301 O307 1.208 . S
C302 O294 1.315 . S
C302 O297 1.279 . S
C303 O304 1.315 . S
C303 O305 1.279 . S
O304 Cd296 2.223 . S
O304 C303 1.315 . S
O305 Cd295 2.240 . S
O305 C303 1.279 . S
O306 Cd296 2.297 . S
O306 C301 1.247 . S
O307 Cd296 2.439 . S
O307 C301 1.208 . S
O308 Cd309 2.223 . S
O308 C316 1.315 . S
Cd309 O308 2.223 . S
Cd309 O312 2.297 . S
Cd309 O313 2.439 . S
Cd309 O319 2.240 . S
Cd310 O311 2.240 . S
Cd310 O318 2.223 . S
Cd310 O320 2.297 . S
Cd310 O321 2.439 . S
O311 Cd310 2.240 . S
O311 C316 1.279 . S
O312 Cd309 2.297 . S
O312 C314 1.247 . S
O313 Cd309 2.439 . S
O313 C314 1.208 . S
C314 O312 1.247 . S
C314 O313 1.208 . S
C315 O320 1.247 . S
C315 O321 1.208 . S
C316 O308 1.315 . S
C316 O311 1.279 . S
C317 O318 1.315 . S
C317 O319 1.279 . S
O318 Cd310 2.223 . S
O318 C317 1.315 . S
O319 Cd309 2.240 . S
O319 C317 1.279 . S
O320 Cd310 2.297 . S
O320 C315 1.247 . S
O321 Cd310 2.439 . S
O321 C315 1.208 . S
O322 Cd323 2.223 . S
O322 C330 1.315 . S
Cd323 O322 2.223 . S
Cd323 O326 2.297 . S
Cd323 O327 2.439 . S
Cd323 O333 2.240 . S
Cd324 O325 2.240 . S
Cd324 O332 2.223 . S
Cd324 O334 2.297 . S
Cd324 O335 2.439 . S
O325 Cd324 2.240 . S
O325 C330 1.279 . S
O326 Cd323 2.297 . S
O326 C328 1.247 . S
O327 Cd323 2.439 . S
O327 C328 1.208 . S
C328 O326 1.247 . S
C328 O327 1.208 . S
C329 O334 1.247 . S
C329 O335 1.208 . S
C330 O322 1.315 . S
C330 O325 1.279 . S
C331 O332 1.315 . S
C331 O333 1.279 . S
O332 Cd324 2.223 . S
O332 C331 1.315 . S
O333 Cd323 2.240 . S
O333 C331 1.279 . S
O334 Cd324 2.297 . S
O334 C329 1.247 . S
O335 Cd324 2.439 . S
O335 C329 1.208 . S
Tb336 O339 2.453 . S
Tb336 O340 2.596 . S
Tb336 O341 2.374 1_554 S
Tb336 O349 2.343 1_455 S
Tb336 O351 2.353 . S
Tb336 O353 2.427 . S
Tb336 O354 2.513 1_554 S
C337 O341 1.251 . S
C337 O343 1.263 . S
Tb338 O340 2.343 1_665 S
Tb338 O343 2.353 1_664 S
Tb338 O346 2.425 1_655 S
Tb338 O347 2.521 . S
Tb338 O348 2.453 1_564 S
Tb338 O349 2.596 1_565 S
Tb338 O350 2.374 1_565 S
O339 Tb336 2.453 . S
O339 C355 1.245 . S
O340 Tb336 2.596 . S
O340 Tb338 2.343 1_445 S
O340 C355 1.259 . S
O341 Tb336 2.374 1_556 S
O341 C337 1.251 . S
C342 O346 1.275 . S
C342 O347 1.237 1_455 S
O343 C337 1.263 . S
O343 Tb338 2.353 1_446 S
C344 O348 1.245 1_554 S
C344 O349 1.259 . S
C345 O350 1.250 . S
C345 O351 1.263 1_655 S
O346 Tb338 2.425 1_455 S
O346 C342 1.275 . S
O347 Tb338 2.521 . S
O347 C342 1.237 1_655 S
O348 Tb338 2.453 1_546 S
O348 C344 1.245 1_556 S
O349 Tb336 2.343 1_655 S
O349 Tb338 2.596 1_545 S
O349 C344 1.259 . S
O350 Tb338 2.374 1_545 S
O350 C345 1.250 . S
O351 Tb336 2.353 . S
O351 C345 1.263 1_455 S
C352 O353 1.280 . S
C352 O354 1.242 1_554 S
O353 Tb336 2.427 . S
O353 C352 1.280 . S
O354 Tb336 2.513 1_556 S
O354 C352 1.242 1_556 S
C355 O339 1.245 . S
C355 O340 1.259 . S
Tb356 O359 2.453 . S
Tb356 O360 2.596 . S
Tb356 O361 2.374 . S
Tb356 O369 2.343 . S
Tb356 O371 2.353 . S
Tb356 O373 2.427 . S
Tb356 O374 2.513 . S
C357 O361 1.251 . S
C357 O363 1.263 . S
Tb358 O360 2.343 . S
Tb358 O363 2.353 . S
Tb358 O366 2.427 . S
Tb358 O367 2.513 . S
Tb358 O368 2.453 . S
Tb358 O369 2.596 . S
Tb358 O370 2.374 . S
O359 Tb356 2.453 . S
O359 C375 1.245 . S
O360 Tb356 2.596 . S
O360 Tb358 2.343 . S
O360 C375 1.259 . S
O361 Tb356 2.374 . S
O361 C357 1.251 . S
C362 O366 1.275 . S
C362 O367 1.246 . S
O363 C357 1.263 . S
O363 Tb358 2.353 . S
C364 O368 1.245 . S
C364 O369 1.259 . S
C365 O370 1.250 . S
C365 O371 1.263 . S
O366 Tb358 2.427 . S
O366 C362 1.275 . S
O367 Tb358 2.513 . S
O367 C362 1.246 . S
O368 Tb358 2.453 . S
O368 C364 1.245 . S
O369 Tb356 2.343 . S
O369 Tb358 2.596 . S
O369 C364 1.259 . S
O370 Tb358 2.374 . S
O370 C365 1.250 . S
O371 Tb356 2.353 . S
O371 C365 1.263 . S
C372 O373 1.275 . S
C372 O374 1.246 . S
O373 Tb356 2.427 . S
O373 C372 1.275 . S
O374 Tb356 2.513 . S
O374 C372 1.246 . S
C375 O359 1.245 . S
C375 O360 1.259 . S
Tb376 O379 2.453 . S
Tb376 O380 2.596 . S
Tb376 O381 2.374 . S
Tb376 O389 2.344 1_545 S
Tb376 O391 2.353 . S
Tb376 O393 2.427 . S
Tb376 O394 2.513 . S
C377 O381 1.251 . S
C377 O383 1.263 . S
Tb378 O380 2.343 . S
Tb378 O383 2.353 . S
Tb378 O386 2.427 . S
Tb378 O387 2.513 . S
Tb378 O388 2.453 1_545 S
Tb378 O389 2.597 1_545 S
Tb378 O390 2.374 . S
O379 Tb376 2.453 . S
O379 C395 1.245 . S
O380 Tb376 2.596 . S
O380 Tb378 2.343 . S
O380 C395 1.259 . S
O381 Tb376 2.374 . S
O381 C377 1.251 . S
C382 O386 1.275 . S
C382 O387 1.246 . S
O383 C377 1.263 . S
O383 Tb378 2.353 . S
C384 O388 1.245 . S
C384 O389 1.258 . S
C385 O390 1.250 . S
C385 O391 1.263 . S
O386 Tb378 2.427 . S
O386 C382 1.275 . S
O387 Tb378 2.513 . S
O387 C382 1.246 . S
O388 Tb378 2.453 1_565 S
O388 C384 1.245 . S
O389 Tb376 2.344 1_565 S
O389 Tb378 2.597 1_565 S
O389 C384 1.258 . S
O390 Tb378 2.374 . S
O390 C385 1.250 . S
O391 Tb376 2.353 . S
O391 C385 1.263 . S
C392 O393 1.291 . S
C392 O394 1.247 . S
O393 Tb376 2.427 . S
O393 C392 1.291 . S
O394 Tb376 2.513 . S
O394 C392 1.247 . S
C395 O379 1.245 . S
C395 O380 1.259 . S
Tb396 O399 2.453 . S
Tb396 O400 2.596 . S
Tb396 O401 2.374 . S
Tb396 O409 2.343 . S
Tb396 O411 2.353 . S
Tb396 O413 2.427 . S
Tb396 O414 2.513 . S
C397 O401 1.251 . S
C397 O403 1.263 . S
Tb398 O400 2.343 . S
Tb398 O403 2.353 . S
Tb398 O406 2.427 . S
Tb398 O407 2.513 . S
Tb398 O408 2.453 . S
Tb398 O409 2.596 . S
Tb398 O410 2.374 . S
O399 Tb396 2.453 . S
O399 C415 1.245 . S
O400 Tb396 2.596 . S
O400 Tb398 2.343 . S
O400 C415 1.259 . S
O401 Tb396 2.374 . S
O401 C397 1.251 . S
C402 O406 1.275 . S
C402 O407 1.246 . S
O403 C397 1.263 . S
O403 Tb398 2.353 . S
C404 O408 1.245 . S
C404 O409 1.259 . S
C405 O410 1.250 . S
C405 O411 1.263 . S
O406 Tb398 2.427 . S
O406 C402 1.275 . S
O407 Tb398 2.513 . S
O407 C402 1.246 . S
O408 Tb398 2.453 . S
O408 C404 1.245 . S
O409 Tb396 2.343 . S
O409 Tb398 2.596 . S
O409 C404 1.259 . S
O410 Tb398 2.374 . S
O410 C405 1.250 . S
O411 Tb396 2.353 . S
O411 C405 1.263 . S
C412 O413 1.275 . S
C412 O414 1.246 . S
O413 Tb396 2.427 . S
O413 C412 1.275 . S
O414 Tb396 2.513 . S
O414 C412 1.246 . S
C415 O399 1.245 . S
C415 O400 1.259 . S
Tb416 O419 2.453 1_545 S
Tb416 O420 2.596 . S
Tb416 O421 2.374 1_455 S
Tb416 O429 2.343 . S
Tb416 O431 2.353 . S
Tb416 O433 2.427 . S
Tb416 O434 2.513 1_455 S
C417 O421 1.251 . S
C417 O423 1.263 . S
Tb418 O420 2.343 . S
Tb418 O423 2.353 1_455 S
Tb418 O426 2.427 . S
Tb418 O427 2.513 . S
Tb418 O428 2.453 . S
Tb418 O429 2.596 . S
Tb418 O430 2.374 . S
O419 Tb416 2.453 1_565 S
O419 C435 1.245 . S
O420 Tb416 2.596 . S
O420 Tb418 2.343 . S
O420 C435 1.259 1_545 S
O421 Tb416 2.374 1_655 S
O421 C417 1.251 . S
C422 O426 1.275 . S
C422 O427 1.246 . S
O423 C417 1.263 . S
O423 Tb418 2.353 1_655 S
C424 O428 1.245 . S
C424 O429 1.259 . S
C425 O430 1.250 . S
C425 O431 1.263 . S
O426 Tb418 2.427 . S
O426 C422 1.275 . S
O427 Tb418 2.513 . S
O427 C422 1.246 . S
O428 Tb418 2.453 . S
O428 C424 1.245 . S
O429 Tb416 2.343 . S
O429 Tb418 2.596 . S
O429 C424 1.259 . S
O430 Tb418 2.374 . S
O430 C425 1.250 . S
O431 Tb416 2.353 . S
O431 C425 1.263 . S
C432 O433 1.275 1_655 S
C432 O434 1.246 . S
O433 Tb416 2.427 . S
O433 C432 1.275 1_455 S
O434 Tb416 2.513 1_655 S
O434 C432 1.246 . S
C435 O419 1.245 . S
C435 O420 1.259 1_565 S
Tb436 O439 2.453 . S
Tb436 O440 2.596 . S
Tb436 O441 2.374 . S
Tb436 O449 2.343 . S
Tb436 O451 2.353 . S
Tb436 O453 2.427 . S
Tb436 O454 2.513 . S
C437 O441 1.251 . S
C437 O443 1.263 . S
Tb438 O440 2.343 . S
Tb438 O443 2.353 . S
Tb438 O446 2.427 . S
Tb438 O447 2.513 . S
Tb438 O448 2.453 . S
Tb438 O449 2.596 . S
Tb438 O450 2.374 . S
O439 Tb436 2.453 . S
O439 C455 1.245 . S
O440 Tb436 2.596 . S
O440 Tb438 2.343 . S
O440 C455 1.259 . S
O441 Tb436 2.374 . S
O441 C437 1.251 . S
C442 O446 1.275 . S
C442 O447 1.246 . S
O443 C437 1.263 . S
O443 Tb438 2.353 . S
C444 O448 1.245 . S
C444 O449 1.259 . S
C445 O450 1.250 . S
C445 O451 1.263 . S
O446 Tb438 2.427 . S
O446 C442 1.275 . S
O447 Tb438 2.513 . S
O447 C442 1.246 . S
O448 Tb438 2.453 . S
O448 C444 1.245 . S
O449 Tb436 2.343 . S
O449 Tb438 2.596 . S
O449 C444 1.259 . S
O450 Tb438 2.374 . S
O450 C445 1.250 . S
O451 Tb436 2.353 . S
O451 C445 1.263 . S
C452 O453 1.275 . S
C452 O454 1.246 . S
O453 Tb436 2.427 . S
O453 C452 1.275 . S
O454 Tb436 2.513 . S
O454 C452 1.246 . S
C455 O439 1.245 . S
C455 O440 1.259 . S
Tb456 O459 2.453 . S
Tb456 O460 2.596 . S
Tb456 O461 2.374 1_545 S
Tb456 O469 2.343 1_556 S
Tb456 O471 2.353 1_556 S
Tb456 O473 2.427 1_556 S
Tb456 O474 2.513 1_546 S
C457 O461 1.251 1_554 S
C457 O463 1.263 . S
Tb458 O460 2.343 1_554 S
Tb458 O463 2.353 1_545 S
Tb458 O466 2.427 . S
Tb458 O467 2.513 . S
Tb458 O468 2.453 . S
Tb458 O469 2.596 . S
Tb458 O470 2.374 . S
O459 Tb456 2.453 . S
O459 C475 1.245 . S
O460 Tb456 2.596 . S
O460 Tb458 2.343 1_556 S
O460 C475 1.259 . S
O461 Tb456 2.374 1_565 S
O461 C457 1.251 1_556 S
C462 O466 1.275 . S
C462 O467 1.246 . S
O463 C457 1.263 . S
O463 Tb458 2.353 1_565 S
C464 O468 1.245 . S
C464 O469 1.259 . S
C465 O470 1.250 . S
C465 O471 1.263 . S
O466 Tb458 2.427 . S
O466 C462 1.275 . S
O467 Tb458 2.513 . S
O467 C462 1.246 . S
O468 Tb458 2.453 . S
O468 C464 1.245 . S
O469 Tb456 2.343 1_554 S
O469 Tb458 2.596 . S
O469 C464 1.259 . S
O470 Tb458 2.374 . S
O470 C465 1.250 . S
O471 Tb456 2.353 1_554 S
O471 C465 1.263 . S
C472 O473 1.275 1_565 S
C472 O474 1.246 . S
O473 Tb456 2.427 1_554 S
O473 C472 1.275 1_545 S
O474 Tb456 2.513 1_564 S
O474 C472 1.246 . S
C475 O459 1.245 . S
C475 O460 1.259 . S
Tb476 O479 2.453 . S
Tb476 O480 2.596 . S
Tb476 O481 2.374 . S
Tb476 O489 2.343 . S
Tb476 O491 2.353 . S
Tb476 O493 2.427 . S
Tb476 O494 2.513 . S
C477 O481 1.251 . S
C477 O483 1.263 . S
Tb478 O480 2.343 . S
Tb478 O483 2.353 . S
Tb478 O486 2.427 . S
Tb478 O487 2.513 . S
Tb478 O488 2.453 . S
Tb478 O489 2.596 . S
Tb478 O490 2.374 . S
O479 Tb476 2.453 . S
O479 C495 1.245 . S
O480 Tb476 2.596 . S
O480 Tb478 2.343 . S
O480 C495 1.259 . S
O481 Tb476 2.374 . S
O481 C477 1.251 . S
C482 O486 1.275 . S
C482 O487 1.246 . S
O483 C477 1.263 . S
O483 Tb478 2.353 . S
C484 O488 1.245 . S
C484 O489 1.259 . S
C485 O490 1.250 . S
C485 O491 1.263 . S
O486 Tb478 2.427 . S
O486 C482 1.275 . S
O487 Tb478 2.513 . S
O487 C482 1.246 . S
O488 Tb478 2.453 . S
O488 C484 1.245 . S
O489 Tb476 2.343 . S
O489 Tb478 2.596 . S
O489 C484 1.259 . S
O490 Tb478 2.374 . S
O490 C485 1.250 . S
O491 Tb476 2.353 . S
O491 C485 1.263 . S
C492 O493 1.275 . S
C492 O494 1.246 . S
O493 Tb476 2.427 . S
O493 C492 1.275 . S
O494 Tb476 2.513 . S
O494 C492 1.246 . S
C495 O479 1.245 . S
C495 O480 1.259 . S
Tb496 O499 2.453 1_556 S
Tb496 O500 2.596 1_556 S
Tb496 O501 2.374 1_556 S
Tb496 O509 2.343 1_556 S
Tb496 O511 2.353 . S
Tb496 O513 2.427 . S
Tb496 O514 2.513 . S
C497 O501 1.251 . S
C497 O503 1.263 . S
Tb498 O500 2.343 . S
Tb498 O503 2.353 . S
Tb498 O506 2.427 . S
Tb498 O507 2.513 . S
Tb498 O508 2.453 . S
Tb498 O509 2.596 . S
Tb498 O510 2.374 . S
O499 Tb496 2.453 1_554 S
O499 C515 1.245 . S
O500 Tb496 2.596 1_554 S
O500 Tb498 2.343 . S
O500 C515 1.259 . S
O501 Tb496 2.374 1_554 S
O501 C497 1.251 . S
C502 O506 1.275 . S
C502 O507 1.246 . S
O503 C497 1.263 . S
O503 Tb498 2.353 . S
C504 O508 1.245 . S
C504 O509 1.259 . S
C505 O510 1.250 . S
C505 O511 1.263 1_554 S
O506 Tb498 2.427 . S
O506 C502 1.275 . S
O507 Tb498 2.513 . S
O507 C502 1.246 . S
O508 Tb498 2.453 . S
O508 C504 1.245 . S
O509 Tb496 2.343 1_554 S
O509 Tb498 2.596 . S
O509 C504 1.259 . S
O510 Tb498 2.374 . S
O510 C505 1.250 . S
O511 Tb496 2.353 . S
O511 C505 1.263 1_556 S
C512 O513 1.275 . S
C512 O514 1.246 . S
O513 Tb496 2.427 . S
O513 C512 1.275 . S
O514 Tb496 2.513 . S
O514 C512 1.246 . S
C515 O499 1.245 . S
C515 O500 1.259 . S
Tb516 O519 2.453 . S
Tb516 O520 2.596 . S
Tb516 O521 2.374 . S
Tb516 O529 2.343 . S
Tb516 O531 2.353 . S
Tb516 O533 2.427 . S
Tb516 O534 2.513 . S
C517 O521 1.251 . S
C517 O523 1.263 . S
Tb518 O520 2.343 . S
Tb518 O523 2.353 . S
Tb518 O526 2.427 . S
Tb518 O527 2.513 . S
Tb518 O528 2.453 . S
Tb518 O529 2.596 . S
Tb518 O530 2.374 . S
O519 Tb516 2.453 . S
O519 C535 1.245 . S
O520 Tb516 2.596 . S
O520 Tb518 2.343 . S
O520 C535 1.259 . S
O521 Tb516 2.374 . S
O521 C517 1.251 . S
C522 O526 1.275 . S
C522 O527 1.246 . S
O523 C517 1.263 . S
O523 Tb518 2.353 . S
C524 O528 1.245 . S
C524 O529 1.259 . S
C525 O530 1.250 . S
C525 O531 1.263 . S
O526 Tb518 2.427 . S
O526 C522 1.275 . S
O527 Tb518 2.513 . S
O527 C522 1.246 . S
O528 Tb518 2.453 . S
O528 C524 1.245 . S
O529 Tb516 2.343 . S
O529 Tb518 2.596 . S
O529 C524 1.259 . S
O530 Tb518 2.374 . S
O530 C525 1.250 . S
O531 Tb516 2.353 . S
O531 C525 1.263 . S
C532 O533 1.275 . S
C532 O534 1.246 . S
O533 Tb516 2.427 . S
O533 C532 1.275 . S
O534 Tb516 2.513 . S
O534 C532 1.246 . S
C535 O519 1.245 . S
C535 O520 1.259 . S
Tb536 O539 2.453 . S
Tb536 O540 2.596 1_655 S
Tb536 O541 2.374 . S
Tb536 O549 2.343 . S
Tb536 O551 2.353 . S
Tb536 O553 2.427 . S
Tb536 O554 2.513 . S
C537 O541 1.251 1_455 S
C537 O543 1.263 . S
Tb538 O540 2.343 . S
Tb538 O543 2.353 . S
Tb538 O546 2.427 . S
Tb538 O547 2.513 . S
Tb538 O548 2.453 . S
Tb538 O549 2.596 1_455 S
Tb538 O550 2.374 . S
O539 Tb536 2.453 . S
O539 C555 1.245 1_655 S
O540 Tb536 2.596 1_455 S
O540 Tb538 2.343 . S
O540 C555 1.259 . S
O541 Tb536 2.374 . S
O541 C537 1.251 1_655 S
C542 O546 1.275 . S
C542 O547 1.246 . S
O543 C537 1.263 . S
O543 Tb538 2.353 . S
C544 O548 1.245 1_655 S
C544 O549 1.259 . S
C545 O550 1.250 . S
C545 O551 1.263 1_455 S
O546 Tb538 2.427 . S
O546 C542 1.275 . S
O547 Tb538 2.513 . S
O547 C542 1.246 . S
O548 Tb538 2.453 . S
O548 C544 1.245 1_455 S
O549 Tb536 2.343 . S
O549 Tb538 2.596 1_655 S
O549 C544 1.259 . S
O550 Tb538 2.374 . S
O550 C545 1.250 . S
O551 Tb536 2.353 . S
O551 C545 1.263 1_655 S
C552 O553 1.275 . S
C552 O554 1.246 . S
O553 Tb536 2.427 . S
O553 C552 1.275 . S
O554 Tb536 2.513 . S
O554 C552 1.246 . S
C555 O539 1.245 1_455 S
C555 O540 1.259 . S
Tb556 O559 2.453 . S
Tb556 O560 2.596 . S
Tb556 O561 2.374 . S
Tb556 O569 2.343 . S
Tb556 O571 2.353 . S
Tb556 O573 2.427 . S
Tb556 O574 2.513 . S
C557 O561 1.251 . S
C557 O563 1.263 . S
Tb558 O560 2.343 . S
Tb558 O563 2.353 . S
Tb558 O566 2.427 . S
Tb558 O567 2.513 . S
Tb558 O568 2.453 . S
Tb558 O569 2.596 . S
Tb558 O570 2.374 . S
O559 Tb556 2.453 . S
O559 C575 1.245 . S
O560 Tb556 2.596 . S
O560 Tb558 2.343 . S
O560 C575 1.259 . S
O561 Tb556 2.374 . S
O561 C557 1.251 . S
C562 O566 1.275 . S
C562 O567 1.246 . S
O563 C557 1.263 . S
O563 Tb558 2.353 . S
C564 O568 1.245 . S
C564 O569 1.259 . S
C565 O570 1.250 . S
C565 O571 1.263 . S
O566 Tb558 2.427 . S
O566 C562 1.275 . S
O567 Tb558 2.513 . S
O567 C562 1.246 . S
O568 Tb558 2.453 . S
O568 C564 1.245 . S
O569 Tb556 2.343 . S
O569 Tb558 2.596 . S
O569 C564 1.259 . S
O570 Tb558 2.374 . S
O570 C565 1.250 . S
O571 Tb556 2.353 . S
O571 C565 1.263 . S
C572 O573 1.275 . S
C572 O574 1.246 . S
O573 Tb556 2.427 . S
O573 C572 1.275 . S
O574 Tb556 2.513 . S
O574 C572 1.246 . S
C575 O559 1.245 . S
C575 O560 1.259 . S
Tb576 O579 2.453 . S
Tb576 O580 2.596 . S
Tb576 O581 2.374 . S
Tb576 O589 2.343 . S
Tb576 O591 2.353 . S
Tb576 O593 2.427 . S
Tb576 O594 2.513 . S
C577 O581 1.251 . S
C577 O583 1.263 . S
Tb578 O580 2.343 . S
Tb578 O583 2.353 . S
Tb578 O586 2.427 . S
Tb578 O587 2.513 . S
Tb578 O588 2.453 . S
Tb578 O589 2.596 . S
Tb578 O590 2.374 . S
O579 Tb576 2.453 . S
O579 C595 1.245 . S
O580 Tb576 2.596 . S
O580 Tb578 2.343 . S
O580 C595 1.259 . S
O581 Tb576 2.374 . S
O581 C577 1.251 . S
C582 O586 1.275 . S
C582 O587 1.246 . S
O583 C577 1.263 . S
O583 Tb578 2.353 . S
C584 O588 1.245 . S
C584 O589 1.259 . S
C585 O590 1.250 . S
C585 O591 1.263 . S
O586 Tb578 2.427 . S
O586 C582 1.275 . S
O587 Tb578 2.513 . S
O587 C582 1.246 . S
O588 Tb578 2.453 . S
O588 C584 1.245 . S
O589 Tb576 2.343 . S
O589 Tb578 2.596 . S
O589 C584 1.259 . S
O590 Tb578 2.374 . S
O590 C585 1.250 . S
O591 Tb576 2.353 . S
O591 C585 1.263 . S
C592 O593 1.275 . S
C592 O594 1.246 . S
O593 Tb576 2.427 . S
O593 C592 1.275 . S
O594 Tb576 2.513 . S
O594 C592 1.246 . S
C595 O579 1.245 . S
C595 O580 1.259 . S
Tb596 O599 2.453 . S
Tb596 O600 2.596 . S
Tb596 O601 2.374 . S
Tb596 O609 2.343 . S
Tb596 O611 2.353 . S
Tb596 O613 2.427 . S
Tb596 O614 2.513 . S
C597 O601 1.251 . S
C597 O603 1.263 . S
Tb598 O600 2.343 . S
Tb598 O603 2.353 . S
Tb598 O606 2.427 . S
Tb598 O607 2.513 . S
Tb598 O608 2.453 . S
Tb598 O609 2.596 . S
Tb598 O610 2.374 . S
O599 Tb596 2.453 . S
O599 C615 1.245 . S
O600 Tb596 2.596 . S
O600 Tb598 2.343 . S
O600 C615 1.259 . S
O601 Tb596 2.374 . S
O601 C597 1.251 . S
C602 O606 1.275 . S
C602 O607 1.246 . S
O603 C597 1.263 . S
O603 Tb598 2.353 . S
C604 O608 1.245 . S
C604 O609 1.259 . S
C605 O610 1.250 . S
C605 O611 1.263 . S
O606 Tb598 2.427 . S
O606 C602 1.275 . S
O607 Tb598 2.513 . S
O607 C602 1.246 . S
O608 Tb598 2.453 . S
O608 C604 1.245 . S
O609 Tb596 2.343 . S
O609 Tb598 2.596 . S
O609 C604 1.259 . S
O610 Tb598 2.374 . S
O610 C605 1.250 . S
O611 Tb596 2.353 . S
O611 C605 1.263 . S
C612 O613 1.275 . S
C612 O614 1.246 . S
O613 Tb596 2.427 . S
O613 C612 1.275 . S
O614 Tb596 2.513 . S
O614 C612 1.246 . S
C615 O599 1.245 . S
C615 O600 1.259 . S
Tb616 O619 2.453 . S
Tb616 O620 2.596 . S
Tb616 O621 2.374 . S
Tb616 O629 2.343 . S
Tb616 O631 2.353 . S
Tb616 O633 2.427 . S
Tb616 O634 2.513 . S
C617 O621 1.251 . S
C617 O623 1.263 . S
Tb618 O620 2.343 . S
Tb618 O623 2.353 . S
Tb618 O626 2.427 . S
Tb618 O627 2.513 . S
Tb618 O628 2.453 . S
Tb618 O629 2.596 . S
Tb618 O630 2.374 . S
O619 Tb616 2.453 . S
O619 C635 1.245 . S
O620 Tb616 2.596 . S
O620 Tb618 2.343 . S
O620 C635 1.259 . S
O621 Tb616 2.374 . S
O621 C617 1.251 . S
C622 O626 1.275 . S
C622 O627 1.246 . S
O623 C617 1.263 . S
O623 Tb618 2.353 . S
C624 O628 1.245 . S
C624 O629 1.259 . S
C625 O630 1.250 . S
C625 O631 1.263 . S
O626 Tb618 2.427 . S
O626 C622 1.275 . S
O627 Tb618 2.513 . S
O627 C622 1.246 . S
O628 Tb618 2.453 . S
O628 C624 1.245 . S
O629 Tb616 2.343 . S
O629 Tb618 2.596 . S
O629 C624 1.259 . S
O630 Tb618 2.374 . S
O630 C625 1.250 . S
O631 Tb616 2.353 . S
O631 C625 1.263 . S
C632 O633 1.275 . S
C632 O634 1.246 . S
O633 Tb616 2.427 . S
O633 C632 1.275 . S
O634 Tb616 2.513 . S
O634 C632 1.246 . S
C635 O619 1.245 . S
C635 O620 1.259 . S
Tb636 O639 2.453 . S
Tb636 O640 2.596 . S
Tb636 O641 2.374 . S
Tb636 O649 2.343 . S
Tb636 O651 2.353 1_554 S
Tb636 O653 2.427 1_554 S
Tb636 O654 2.513 . S
C637 O641 1.251 . S
C637 O643 1.263 1_455 S
Tb638 O640 2.343 1_655 S
Tb638 O643 2.353 . S
Tb638 O646 2.427 . S
Tb638 O647 2.513 . S
Tb638 O648 2.453 . S
Tb638 O649 2.596 1_655 S
Tb638 O650 2.374 1_554 S
O639 Tb636 2.453 . S
O639 C655 1.245 . S
O640 Tb636 2.596 . S
O640 Tb638 2.343 1_455 S
O640 C655 1.259 . S
O641 Tb636 2.374 . S
O641 C637 1.251 . S
C642 O646 1.275 . S
C642 O647 1.246 . S
O643 C637 1.263 1_655 S
O643 Tb638 2.353 . S
C644 O648 1.245 1_455 S
C644 O649 1.259 . S
C645 O650 1.250 1_455 S
C645 O651 1.263 . S
O646 Tb638 2.427 . S
O646 C642 1.275 . S
O647 Tb638 2.513 . S
O647 C642 1.246 . S
O648 Tb638 2.453 . S
O648 C644 1.245 1_655 S
O649 Tb636 2.343 . S
O649 Tb638 2.596 1_455 S
O649 C644 1.259 . S
O650 Tb638 2.374 1_556 S
O650 C645 1.250 1_655 S
O651 Tb636 2.353 1_556 S
O651 C645 1.263 . S
C652 O653 1.275 1_554 S
C652 O654 1.246 . S
O653 Tb636 2.427 1_556 S
O653 C652 1.275 1_556 S
O654 Tb636 2.513 . S
O654 C652 1.246 . S
C655 O639 1.245 . S
C655 O640 1.259 . S
C656 C657 1.369 . S
C656 C658 1.419 . S
C656 H660 0.930 . S
C657 C656 1.369 . S
C657 C666 1.429 1_455 S
C658 C656 1.419 . S
C658 C659 1.363 . S
C658 H661 0.929 . S
C659 C658 1.363 . S
C659 C665 1.428 1_455 S
H660 C656 0.930 . S
H661 C658 0.929 . S
S662 N663 1.613 . S
S662 N664 1.610 . S
N663 S662 1.613 . S
N663 C666 1.350 . S
N664 S662 1.610 . S
N664 C665 1.351 . S
C665 C659 1.428 1_655 S
C665 N664 1.351 . S
C665 C666 1.434 . S
C666 C657 1.429 1_655 S
C666 N663 1.350 . S
C666 C665 1.434 . S
C667 C668 1.369 . S
C667 C669 1.419 . S
C667 H671 0.930 . S
C668 C667 1.369 . S
C668 C677 1.429 . S
C669 C667 1.419 . S
C669 C670 1.363 . S
C669 H672 0.929 . S
C670 C669 1.363 . S
C670 C676 1.428 . S
H671 C667 0.930 . S
H672 C669 0.929 . S
S673 N674 1.613 . S
S673 N675 1.610 . S
N674 S673 1.613 . S
N674 C677 1.350 . S
N675 S673 1.610 . S
N675 C676 1.351 . S
C676 C670 1.428 . S
C676 N675 1.351 . S
C676 C677 1.434 . S
C677 C668 1.429 . S
C677 N674 1.350 . S
C677 C676 1.434 . S
C678 C679 1.369 . S
C678 C680 1.419 . S
C678 H682 0.930 . S
C679 C678 1.369 . S
C679 C688 1.429 . S
C680 C678 1.419 . S
C680 C681 1.363 . S
C680 H683 0.929 . S
C681 C680 1.363 . S
C681 C687 1.428 . S
H682 C678 0.930 . S
H683 C680 0.929 . S
S684 N685 1.613 . S
S684 N686 1.610 . S
N685 S684 1.613 . S
N685 C688 1.350 . S
N686 S684 1.610 . S
N686 C687 1.351 . S
C687 C681 1.428 . S
C687 N686 1.351 . S
C687 C688 1.434 . S
C688 C679 1.429 . S
C688 N685 1.350 . S
C688 C687 1.434 . S
C689 C690 1.369 . S
C689 C691 1.419 . S
C689 H693 0.930 . S
C690 C689 1.369 . S
C690 C699 1.429 . S
C691 C689 1.419 . S
C691 C692 1.363 . S
C691 H694 0.929 . S
C692 C691 1.363 . S
C692 C698 1.428 . S
H693 C689 0.930 . S
H694 C691 0.929 . S
S695 N696 1.613 . S
S695 N697 1.610 . S
N696 S695 1.613 . S
N696 C699 1.350 . S
N697 S695 1.610 . S
N697 C698 1.351 . S
C698 C692 1.428 . S
C698 N697 1.351 . S
C698 C699 1.434 . S
C699 C690 1.429 . S
C699 N696 1.350 . S
C699 C698 1.434 . S
C700 C701 1.369 . S
C700 C702 1.419 . S
C700 H704 0.930 . S
C701 C700 1.369 . S
C701 C710 1.429 1_455 S
C702 C700 1.419 . S
C702 C703 1.363 . S
C702 H705 0.929 . S
C703 C702 1.363 . S
C703 C709 1.428 1_455 S
H704 C700 0.930 . S
H705 C702 0.929 . S
S706 N707 1.613 . S
S706 N708 1.610 . S
N707 S706 1.613 . S
N707 C710 1.350 . S
N708 S706 1.610 . S
N708 C709 1.351 . S
C709 C703 1.428 1_655 S
C709 N708 1.351 . S
C709 C710 1.434 . S
C710 C701 1.429 1_655 S
C710 N707 1.350 . S
C710 C709 1.434 . S
C711 C712 1.369 . S
C711 C713 1.419 . S
C711 H715 0.930 . S
C712 C711 1.369 . S
C712 C721 1.429 . S
C713 C711 1.419 . S
C713 C714 1.363 . S
C713 H716 0.929 . S
C714 C713 1.363 . S
C714 C720 1.428 . S
H715 C711 0.930 . S
H716 C713 0.929 . S
S717 N718 1.613 . S
S717 N719 1.610 . S
N718 S717 1.613 . S
N718 C721 1.350 . S
N719 S717 1.610 . S
N719 C720 1.351 . S
C720 C714 1.428 . S
C720 N719 1.351 . S
C720 C721 1.434 . S
C721 C712 1.429 . S
C721 N718 1.350 . S
C721 C720 1.434 . S
C722 C723 1.369 . S
C722 C724 1.419 . S
C722 H726 0.930 . S
C723 C722 1.369 . S
C723 C732 1.429 . S
C724 C722 1.419 . S
C724 C725 1.363 . S
C724 H727 0.929 . S
C725 C724 1.363 . S
C725 C731 1.428 . S
H726 C722 0.930 . S
H727 C724 0.929 . S
S728 N729 1.613 . S
S728 N730 1.610 . S
N729 S728 1.613 . S
N729 C732 1.350 . S
N730 S728 1.610 . S
N730 C731 1.351 . S
C731 C725 1.428 . S
C731 N730 1.351 . S
C731 C732 1.434 . S
C732 C723 1.429 . S
C732 N729 1.350 . S
C732 C731 1.434 . S
C733 C734 1.369 . S
C733 C735 1.419 . S
C733 H737 0.930 . S
C734 C733 1.369 . S
C734 C743 1.429 . S
C735 C733 1.419 . S
C735 C736 1.363 . S
C735 H738 0.929 . S
C736 C735 1.363 . S
C736 C742 1.428 . S
H737 C733 0.930 . S
H738 C735 0.929 . S
S739 N740 1.613 . S
S739 N741 1.610 . S
N740 S739 1.613 . S
N740 C743 1.350 . S
N741 S739 1.610 . S
N741 C742 1.351 . S
C742 C736 1.428 . S
C742 N741 1.351 . S
C742 C743 1.434 . S
C743 C734 1.429 . S
C743 N740 1.350 . S
C743 C742 1.434 . S
C744 C745 1.369 . S
C744 C746 1.419 . S
C744 H748 0.930 . S
C745 C744 1.369 . S
C745 C754 1.429 . S
C746 C744 1.419 . S
C746 C747 1.363 . S
C746 H749 0.929 1_655 S
C747 C746 1.363 . S
C747 C753 1.428 . S
H748 C744 0.930 . S
H749 C746 0.929 1_455 S
S750 N751 1.613 . S
S750 N752 1.610 . S
N751 S750 1.613 . S
N751 C754 1.350 . S
N752 S750 1.610 . S
N752 C753 1.351 . S
C753 C747 1.428 . S
C753 N752 1.351 . S
C753 C754 1.434 . S
C754 C745 1.429 . S
C754 N751 1.350 . S
C754 C753 1.434 . S
C755 C756 1.369 . S
C755 C757 1.419 . S
C755 H759 0.930 . S
C756 C755 1.369 . S
C756 C765 1.429 . S
C757 C755 1.419 . S
C757 C758 1.363 . S
C757 H760 0.929 . S
C758 C757 1.363 . S
C758 C764 1.428 . S
H759 C755 0.930 . S
H760 C757 0.929 . S
S761 N762 1.613 . S
S761 N763 1.610 . S
N762 S761 1.613 . S
N762 C765 1.350 . S
N763 S761 1.610 . S
N763 C764 1.351 . S
C764 C758 1.428 . S
C764 N763 1.351 . S
C764 C765 1.434 . S
C765 C756 1.429 . S
C765 N762 1.350 . S
C765 C764 1.434 . S
C766 C767 1.369 . S
C766 C768 1.419 . S
C766 H770 0.931 . S
C767 C766 1.369 . S
C767 C776 1.429 . S
C768 C766 1.419 . S
C768 C769 1.363 . S
C768 H771 0.929 . S
C769 C768 1.363 . S
C769 C775 1.428 . S
H770 C766 0.931 . S
H771 C768 0.929 . S
S772 N773 1.613 . S
S772 N774 1.610 . S
N773 S772 1.613 . S
N773 C776 1.350 . S
N774 S772 1.610 . S
N774 C775 1.351 . S
C775 C769 1.428 . S
C775 N774 1.351 . S
C775 C776 1.434 . S
C776 C767 1.429 . S
C776 N773 1.350 . S
C776 C775 1.434 . S
C777 C778 1.369 . S
C777 C779 1.419 . S
C777 H781 0.930 . S
C778 C777 1.369 . S
C778 C787 1.429 . S
C779 C777 1.419 . S
C779 C780 1.363 . S
C779 H782 0.929 . S
C780 C779 1.363 . S
C780 C786 1.428 . S
H781 C777 0.930 . S
H782 C779 0.929 . S
S783 N784 1.613 . S
S783 N785 1.610 . S
N784 S783 1.613 . S
N784 C787 1.350 . S
N785 S783 1.610 . S
N785 C786 1.351 . S
C786 C780 1.428 . S
C786 N785 1.351 . S
C786 C787 1.434 . S
C787 C778 1.429 . S
C787 N784 1.350 . S
C787 C786 1.434 . S
C788 C789 1.369 . S
C788 C790 1.419 . S
C788 H792 0.930 . S
C789 C788 1.369 . S
C789 C798 1.429 . S
C790 C788 1.419 . S
C790 C791 1.363 . S
C790 H793 0.929 . S
C791 C790 1.363 . S
C791 C797 1.428 . S
H792 C788 0.930 . S
H793 C790 0.929 . S
S794 N795 1.613 1_455 S
S794 N796 1.610 . S
N795 S794 1.613 1_655 S
N795 C798 1.350 . S
N796 S794 1.610 . S
N796 C797 1.351 1_455 S
C797 C791 1.428 . S
C797 N796 1.351 1_655 S
C797 C798 1.434 . S
C798 C789 1.429 . S
C798 N795 1.350 . S
C798 C797 1.434 . S
C799 C800 1.369 . S
C799 C801 1.419 . S
C799 H803 0.930 . S
C800 C799 1.369 . S
C800 C809 1.429 . S
C801 C799 1.419 . S
C801 C802 1.363 . S
C801 H804 0.929 . S
C802 C801 1.363 . S
C802 C808 1.428 . S
H803 C799 0.930 . S
H804 C801 0.929 . S
S805 N806 1.613 . S
S805 N807 1.610 . S
N806 S805 1.613 . S
N806 C809 1.350 . S
N807 S805 1.610 . S
N807 C808 1.351 . S
C808 C802 1.428 . S
C808 N807 1.351 . S
C808 C809 1.434 . S
C809 C800 1.429 . S
C809 N806 1.350 . S
C809 C808 1.434 . S
C810 C811 1.369 . S
C810 C812 1.419 . S
C810 H814 0.930 . S
C811 C810 1.369 . S
C811 C820 1.429 . S
C812 C810 1.419 . S
C812 C813 1.363 . S
C812 H815 0.929 . S
C813 C812 1.363 . S
C813 C819 1.428 . S
H814 C810 0.930 . S
H815 C812 0.929 . S
S816 N817 1.613 . S
S816 N818 1.610 1_565 S
N817 S816 1.613 . S
N817 C820 1.350 1_565 S
N818 S816 1.610 1_545 S
N818 C819 1.351 . S
C819 C813 1.428 . S
C819 N818 1.351 . S
C819 C820 1.434 . S
C820 C811 1.429 . S
C820 N817 1.350 1_545 S
C820 C819 1.434 . S
C821 C822 1.369 . S
C821 C823 1.419 . S
C821 H825 0.930 . S
C822 C821 1.369 . S
C822 C831 1.429 . S
C823 C821 1.419 . S
C823 C824 1.363 . S
C823 H826 0.929 . S
C824 C823 1.363 . S
C824 C830 1.428 . S
H825 C821 0.930 . S
H826 C823 0.929 . S
S827 N828 1.613 . S
S827 N829 1.610 . S
N828 S827 1.613 . S
N828 C831 1.350 . S
N829 S827 1.610 . S
N829 C830 1.351 . S
C830 C824 1.428 . S
C830 N829 1.351 . S
C830 C831 1.434 . S
C831 C822 1.429 . S
C831 N828 1.350 . S
C831 C830 1.434 . S
C832 C833 1.369 . S
C832 C834 1.419 . S
C832 H836 0.930 1_554 S
C833 C832 1.369 . S
C833 C842 1.429 . S
C834 C832 1.419 . S
C834 C835 1.363 . S
C834 H837 0.928 1_565 S
C835 C834 1.363 . S
C835 C841 1.428 . S
H836 C832 0.930 1_556 S
H837 C834 0.928 1_545 S
S838 N839 1.613 . S
S838 N840 1.610 . S
N839 S838 1.613 . S
N839 C842 1.350 . S
N840 S838 1.610 . S
N840 C841 1.351 . S
C841 C835 1.428 . S
C841 N840 1.351 . S
C841 C842 1.434 . S
C842 C833 1.429 . S
C842 N839 1.350 . S
C842 C841 1.434 . S
C843 C844 1.369 . S
C843 C845 1.419 . S
C843 H847 0.930 . S
C844 C843 1.369 . S
C844 C853 1.429 1_554 S
C845 C843 1.419 . S
C845 C846 1.363 . S
C845 H848 0.929 . S
C846 C845 1.363 . S
C846 C852 1.428 1_554 S
H847 C843 0.930 . S
H848 C845 0.929 . S
S849 N850 1.613 . S
S849 N851 1.610 . S
N850 S849 1.613 . S
N850 C853 1.350 . S
N851 S849 1.610 . S
N851 C852 1.351 . S
C852 C846 1.428 1_556 S
C852 N851 1.351 . S
C852 C853 1.434 . S
C853 C844 1.429 1_556 S
C853 N850 1.350 . S
C853 C852 1.434 . S
C854 C855 1.369 . S
C854 C856 1.419 . S
C854 H858 0.930 . S
C855 C854 1.369 . S
C855 C864 1.429 . S
C856 C854 1.419 . S
C856 C857 1.363 . S
C856 H859 0.929 . S
C857 C856 1.363 . S
C857 C863 1.428 . S
H858 C854 0.930 . S
H859 C856 0.929 . S
S860 N861 1.613 . S
S860 N862 1.610 . S
N861 S860 1.613 . S
N861 C864 1.350 . S
N862 S860 1.610 . S
N862 C863 1.351 . S
C863 C857 1.428 . S
C863 N862 1.351 . S
C863 C864 1.434 . S
C864 C855 1.429 . S
C864 N861 1.350 . S
C864 C863 1.434 . S
C865 C866 1.369 . S
C865 C867 1.419 . S
C865 H869 0.930 . S
C866 C865 1.369 . S
C866 C875 1.429 . S
C867 C865 1.419 . S
C867 C868 1.363 . S
C867 H870 0.929 . S
C868 C867 1.363 . S
C868 C874 1.428 . S
H869 C865 0.930 . S
H870 C867 0.929 . S
S871 N872 1.613 . S
S871 N873 1.610 . S
N872 S871 1.613 . S
N872 C875 1.350 . S
N873 S871 1.610 . S
N873 C874 1.351 . S
C874 C868 1.428 . S
C874 N873 1.351 . S
C874 C875 1.434 . S
C875 C866 1.429 . S
C875 N872 1.350 . S
C875 C874 1.434 . S
C876 C877 1.369 . S
C876 C878 1.419 . S
C876 H880 0.930 . S
C877 C876 1.369 . S
C877 C886 1.429 . S
C878 C876 1.419 . S
C878 C879 1.363 . S
C878 H881 0.929 . S
C879 C878 1.363 . S
C879 C885 1.428 . S
H880 C876 0.930 . S
H881 C878 0.929 . S
S882 N883 1.613 . S
S882 N884 1.610 . S
N883 S882 1.613 . S
N883 C886 1.350 . S
N884 S882 1.610 . S
N884 C885 1.351 . S
C885 C879 1.428 . S
C885 N884 1.351 . S
C885 C886 1.434 . S
C886 C877 1.429 . S
C886 N883 1.350 . S
C886 C885 1.434 . S
C887 C888 1.369 . S
C887 C889 1.419 . S
C887 H891 0.930 . S
C888 C887 1.369 . S
C888 C897 1.429 . S
C889 C887 1.419 . S
C889 C890 1.363 . S
C889 H892 0.929 . S
C890 C889 1.363 . S
C890 C896 1.428 . S
H891 C887 0.930 . S
H892 C889 0.929 . S
S893 N894 1.613 . S
S893 N895 1.610 . S
N894 S893 1.613 . S
N894 C897 1.350 . S
N895 S893 1.610 . S
N895 C896 1.351 . S
C896 C890 1.428 . S
C896 N895 1.351 . S
C896 C897 1.434 . S
C897 C888 1.429 . S
C897 N894 1.350 . S
C897 C896 1.434 . S
C898 C899 1.369 . S
C898 C900 1.419 . S
C898 H902 0.930 . S
C899 C898 1.369 . S
C899 C908 1.429 . S
C900 C898 1.419 . S
C900 C901 1.363 . S
C900 H903 0.929 . S
C901 C900 1.363 . S
C901 C907 1.428 . S
H902 C898 0.930 . S
H903 C900 0.929 . S
S904 N905 1.613 . S
S904 N906 1.610 . S
N905 S904 1.613 . S
N905 C908 1.350 . S
N906 S904 1.610 . S
N906 C907 1.351 . S
C907 C901 1.428 . S
C907 N906 1.351 . S
C907 C908 1.434 . S
C908 C899 1.429 . S
C908 N905 1.350 . S
C908 C907 1.434 . S
C909 C910 1.369 . S
C909 C911 1.419 . S
C909 H913 0.930 . S
C910 C909 1.369 . S
C910 C919 1.429 . S
C911 C909 1.419 . S
C911 C912 1.363 . S
C911 H914 0.929 . S
C912 C911 1.363 . S
C912 C918 1.428 . S
H913 C909 0.930 . S
H914 C911 0.929 . S
S915 N916 1.613 . S
S915 N917 1.610 . S
N916 S915 1.613 . S
N916 C919 1.350 . S
N917 S915 1.610 . S
N917 C918 1.351 . S
C918 C912 1.428 . S
C918 N917 1.351 . S
C918 C919 1.434 . S
C919 C910 1.429 . S
C919 N916 1.350 . S
C919 C918 1.434 . S
C920 C921 1.369 1_655 S
C920 C922 1.419 . S
C920 H924 0.930 . S
C921 C920 1.369 1_455 S
C921 C930 1.429 . S
C922 C920 1.419 . S
C922 C923 1.363 1_655 S
C922 H925 0.929 . S
C923 C922 1.363 1_455 S
C923 C929 1.428 . S
H924 C920 0.930 . S
H925 C922 0.929 . S
S926 N927 1.613 . S
S926 N928 1.610 . S
N927 S926 1.613 . S
N927 C930 1.350 . S
N928 S926 1.610 . S
N928 C929 1.351 . S
C929 C923 1.428 . S
C929 N928 1.351 . S
C929 C930 1.434 . S
C930 C921 1.429 . S
C930 N927 1.350 . S
C930 C929 1.434 . S
C931 C932 1.369 . S
C931 C933 1.419 . S
C931 H935 0.930 . S
C932 C931 1.369 . S
C932 C941 1.429 . S
C933 C931 1.419 . S
C933 C934 1.363 . S
C933 H936 0.929 . S
C934 C933 1.363 . S
C934 C940 1.428 . S
H935 C931 0.930 . S
H936 C933 0.929 . S
S937 N938 1.613 . S
S937 N939 1.610 . S
N938 S937 1.613 . S
N938 C941 1.350 . S
N939 S937 1.610 . S
N939 C940 1.351 . S
C940 C934 1.428 . S
C940 N939 1.351 . S
C940 C941 1.434 . S
C941 C932 1.429 . S
C941 N938 1.350 . S
C941 C940 1.434 . S
C942 C943 1.369 . S
C942 C944 1.419 . S
C942 H946 0.930 . S
C943 C942 1.369 . S
C943 C952 1.429 . S
C944 C942 1.419 . S
C944 C945 1.363 . S
C944 H947 0.929 . S
C945 C944 1.363 . S
C945 C951 1.428 . S
H946 C942 0.930 . S
H947 C944 0.929 . S
S948 N949 1.613 . S
S948 N950 1.610 . S
N949 S948 1.613 . S
N949 C952 1.350 . S
N950 S948 1.610 . S
N950 C951 1.351 . S
C951 C945 1.428 . S
C951 N950 1.351 . S
C951 C952 1.434 . S
C952 C943 1.429 . S
C952 N949 1.350 . S
C952 C951 1.434 . S
C953 C954 1.369 . S
C953 C955 1.419 . S
C953 H957 0.930 . S
C954 C953 1.369 . S
C954 C963 1.429 . S
C955 C953 1.419 . S
C955 C956 1.363 . S
C955 H958 0.929 . S
C956 C955 1.363 . S
C956 C962 1.428 . S
H957 C953 0.930 . S
H958 C955 0.929 . S
S959 N960 1.613 . S
S959 N961 1.610 . S
N960 S959 1.613 . S
N960 C963 1.350 . S
N961 S959 1.610 . S
N961 C962 1.351 . S
C962 C956 1.428 . S
C962 N961 1.351 . S
C962 C963 1.434 . S
C963 C954 1.429 . S
C963 N960 1.350 . S
C963 C962 1.434 . S
C964 C965 1.369 . S
C964 C966 1.419 . S
C964 H968 0.930 . S
C965 C964 1.369 . S
C965 C974 1.429 . S
C966 C964 1.419 . S
C966 C967 1.363 . S
C966 H969 0.929 . S
C967 C966 1.363 . S
C967 C973 1.428 . S
H968 C964 0.930 . S
H969 C966 0.929 . S
S970 N971 1.613 . S
S970 N972 1.610 . S
N971 S970 1.613 . S
N971 C974 1.350 . S
N972 S970 1.610 . S
N972 C973 1.351 . S
C973 C967 1.428 . S
C973 N972 1.351 . S
C973 C974 1.434 . S
C974 C965 1.429 . S
C974 N971 1.350 . S
C974 C973 1.434 . S
C975 C976 1.369 . S
C975 C977 1.419 . S
C975 H979 0.930 . S
C976 C975 1.369 . S
C976 C985 1.429 . S
C977 C975 1.419 . S
C977 C978 1.363 . S
C977 H980 0.929 . S
C978 C977 1.363 . S
C978 C984 1.428 . S
H979 C975 0.930 . S
H980 C977 0.929 . S
S981 N982 1.613 . S
S981 N983 1.610 . S
N982 S981 1.613 . S
N982 C985 1.350 . S
N983 S981 1.610 . S
N983 C984 1.351 . S
C984 C978 1.428 . S
C984 N983 1.351 . S
C984 C985 1.434 . S
C985 C976 1.429 . S
C985 N982 1.350 . S
C985 C984 1.434 . S
C986 C987 1.369 . S
C986 C988 1.419 . S
C986 H990 0.930 . S
C987 C986 1.369 . S
C987 C996 1.429 . S
C988 C986 1.419 . S
C988 C989 1.363 . S
C988 H991 0.929 . S
C989 C988 1.363 . S
C989 C995 1.428 . S
H990 C986 0.930 . S
H991 C988 0.929 . S
S992 N993 1.613 1_554 S
S992 N994 1.610 . S
N993 S992 1.613 1_556 S
N993 C996 1.350 . S
N994 S992 1.610 . S
N994 C995 1.351 1_554 S
C995 C989 1.428 . S
C995 N994 1.351 1_556 S
C995 C996 1.434 . S
C996 C987 1.429 . S
C996 N993 1.350 . S
C996 C995 1.434 . S
C997 C998 1.369 . S
C997 C999 1.419 . S
C997 H1001 0.930 . S
C998 C997 1.369 . S
C998 C1007 1.429 . S
C999 C997 1.419 . S
C999 C1000 1.363 . S
C999 H1002 0.929 . S
C1000 C999 1.363 . S
C1000 C1006 1.428 . S
H1001 C997 0.930 . S
H1002 C999 0.929 . S
S1003 N1004 1.613 . S
S1003 N1005 1.610 . S
N1004 S1003 1.613 . S
N1004 C1007 1.350 . S
N1005 S1003 1.610 . S
N1005 C1006 1.351 . S
C1006 C1000 1.428 . S
C1006 N1005 1.351 . S
C1006 C1007 1.434 . S
C1007 C998 1.429 . S
C1007 N1004 1.350 . S
C1007 C1006 1.434 . S
C1008 C1009 1.369 . S
C1008 C1010 1.419 . S
C1008 H1012 0.930 . S
C1009 C1008 1.369 . S
C1009 C1018 1.429 . S
C1010 C1008 1.419 . S
C1010 C1011 1.363 . S
C1010 H1013 0.929 . S
C1011 C1010 1.363 . S
C1011 C1017 1.428 . S
H1012 C1008 0.930 . S
H1013 C1010 0.929 . S
S1014 N1015 1.613 1_655 S
S1014 N1016 1.609 . S
N1015 S1014 1.613 1_455 S
N1015 C1018 1.350 . S
N1016 S1014 1.609 . S
N1016 C1017 1.341 1_655 S
C1017 C1011 1.428 . S
C1017 N1016 1.341 1_455 S
C1017 C1018 1.434 . S
C1018 C1009 1.429 . S
C1018 N1015 1.350 . S
C1018 C1017 1.434 . S
C1019 C1020 1.369 . S
C1019 C1021 1.419 . S
C1019 H1023 0.930 . S
C1020 C1019 1.369 . S
C1020 C1029 1.429 . S
C1021 C1019 1.419 . S
C1021 C1022 1.363 . S
C1021 H1024 0.929 . S
C1022 C1021 1.363 . S
C1022 C1028 1.428 . S
H1023 C1019 0.930 . S
H1024 C1021 0.929 . S
S1025 N1026 1.613 . S
S1025 N1027 1.610 . S
N1026 S1025 1.613 . S
N1026 C1029 1.350 . S
N1027 S1025 1.610 . S
N1027 C1028 1.351 . S
C1028 C1022 1.428 . S
C1028 N1027 1.351 . S
C1028 C1029 1.434 . S
C1029 C1020 1.429 . S
C1029 N1026 1.350 . S
C1029 C1028 1.434 . S
C1030 C1031 1.369 . S
C1030 C1032 1.419 . S
C1030 H1034 0.930 . S
C1031 C1030 1.369 . S
C1031 C1040 1.429 . S
C1032 C1030 1.419 . S
C1032 C1033 1.363 . S
C1032 H1035 0.929 1_545 S
C1033 C1032 1.363 . S
C1033 C1039 1.428 . S
H1034 C1030 0.930 . S
H1035 C1032 0.929 1_565 S
S1036 N1037 1.613 . S
S1036 N1038 1.610 . S
N1037 S1036 1.613 . S
N1037 C1040 1.350 . S
N1038 S1036 1.610 . S
N1038 C1039 1.351 . S
C1039 C1033 1.428 . S
C1039 N1038 1.351 . S
C1039 C1040 1.434 . S
C1040 C1031 1.429 . S
C1040 N1037 1.350 . S
C1040 C1039 1.434 . S
C1041 C1042 1.369 . S
C1041 C1043 1.419 . S
C1041 H1045 0.930 . S
C1042 C1041 1.369 . S
C1042 C1051 1.429 . S
C1043 C1041 1.419 . S
C1043 C1044 1.363 . S
C1043 H1046 0.929 . S
C1044 C1043 1.363 . S
C1044 C1050 1.428 . S
H1045 C1041 0.930 . S
H1046 C1043 0.929 . S
S1047 N1048 1.613 . S
S1047 N1049 1.610 . S
N1048 S1047 1.613 . S
N1048 C1051 1.350 . S
N1049 S1047 1.610 . S
N1049 C1050 1.351 . S
C1050 C1044 1.428 . S
C1050 N1049 1.351 . S
C1050 C1051 1.434 . S
C1051 C1042 1.429 . S
C1051 N1048 1.350 . S
C1051 C1050 1.434 . S
C1052 C1053 1.369 . S
C1052 C1054 1.419 . S
C1052 H1056 0.930 . S
C1053 C1052 1.369 . S
C1053 C1062 1.429 . S
C1054 C1052 1.419 . S
C1054 C1055 1.363 . S
C1054 H1057 0.929 . S
C1055 C1054 1.363 . S
C1055 C1061 1.428 . S
H1056 C1052 0.930 . S
H1057 C1054 0.929 . S
S1058 N1059 1.613 . S
S1058 N1060 1.610 . S
N1059 S1058 1.613 . S
N1059 C1062 1.350 . S
N1060 S1058 1.610 . S
N1060 C1061 1.351 . S
C1061 C1055 1.428 . S
C1061 N1060 1.351 . S
C1061 C1062 1.434 . S
C1062 C1053 1.429 . S
C1062 N1059 1.350 . S
C1062 C1061 1.434 . S
C1063 C1064 1.369 . S
C1063 C1065 1.419 . S
C1063 H1067 0.930 . S
C1064 C1063 1.369 . S
C1064 C1073 1.429 . S
C1065 C1063 1.419 . S
C1065 C1066 1.363 . S
C1065 H1068 0.929 . S
C1066 C1065 1.363 . S
C1066 C1072 1.428 . S
H1067 C1063 0.930 . S
H1068 C1065 0.929 . S
S1069 N1070 1.613 . S
S1069 N1071 1.610 . S
N1070 S1069 1.613 . S
N1070 C1073 1.350 . S
N1071 S1069 1.610 . S
N1071 C1072 1.351 . S
C1072 C1066 1.428 . S
C1072 N1071 1.351 . S
C1072 C1073 1.434 . S
C1073 C1064 1.429 . S
C1073 N1070 1.350 . S
C1073 C1072 1.434 . S
C1074 C1075 1.369 . S
C1074 C1076 1.419 . S
C1074 H1078 0.930 . S
C1075 C1074 1.369 . S
C1075 C1084 1.429 . S
C1076 C1074 1.419 . S
C1076 C1077 1.363 . S
C1076 H1079 0.929 . S
C1077 C1076 1.363 . S
C1077 C1083 1.428 . S
H1078 C1074 0.930 . S
H1079 C1076 0.929 . S
S1080 N1081 1.613 . S
S1080 N1082 1.610 . S
N1081 S1080 1.613 . S
N1081 C1084 1.350 . S
N1082 S1080 1.610 . S
N1082 C1083 1.351 . S
C1083 C1077 1.428 . S
C1083 N1082 1.351 . S
C1083 C1084 1.434 . S
C1084 C1075 1.429 . S
C1084 N1081 1.350 . S
C1084 C1083 1.434 . S
C1085 C1086 1.369 . S
C1085 C1087 1.419 . S
C1085 H1089 0.930 . S
C1086 C1085 1.369 . S
C1086 C1095 1.429 . S
C1087 C1085 1.419 . S
C1087 C1088 1.363 . S
C1087 H1090 0.929 . S
C1088 C1087 1.363 . S
C1088 C1094 1.428 . S
H1089 C1085 0.930 . S
H1090 C1087 0.929 . S
S1091 N1092 1.613 . S
S1091 N1093 1.610 . S
N1092 S1091 1.613 . S
N1092 C1095 1.350 . S
N1093 S1091 1.610 . S
N1093 C1094 1.351 . S
C1094 C1088 1.428 . S
C1094 N1093 1.351 . S
C1094 C1095 1.434 . S
C1095 C1086 1.429 . S
C1095 N1092 1.350 . S
C1095 C1094 1.434 . S
C1096 C1097 1.369 1_556 S
C1096 C1098 1.419 . S
C1096 H1100 0.930 . S
C1097 C1096 1.369 1_554 S
C1097 C1106 1.429 . S
C1098 C1096 1.419 . S
C1098 C1099 1.363 1_556 S
C1098 H1101 0.929 . S
C1099 C1098 1.363 1_554 S
C1099 C1105 1.428 . S
H1100 C1096 0.930 . S
H1101 C1098 0.929 . S
S1102 N1103 1.613 . S
S1102 N1104 1.610 . S
N1103 S1102 1.613 . S
N1103 C1106 1.350 . S
N1104 S1102 1.610 . S
N1104 C1105 1.351 . S
C1105 C1099 1.428 . S
C1105 N1104 1.351 . S
C1105 C1106 1.434 . S
C1106 C1097 1.429 . S
C1106 N1103 1.350 . S
C1106 C1105 1.434 . S
C1107 C1108 1.369 . S
C1107 C1109 1.419 . S
C1107 H1111 0.930 . S
C1108 C1107 1.369 . S
C1108 C1117 1.429 . S
C1109 C1107 1.419 . S
C1109 C1110 1.363 . S
C1109 H1112 0.929 . S
C1110 C1109 1.363 . S
C1110 C1116 1.428 . S
H1111 C1107 0.930 . S
H1112 C1109 0.929 . S
S1113 N1114 1.613 . S
S1113 N1115 1.610 . S
N1114 S1113 1.613 . S
N1114 C1117 1.350 1_556 S
N1115 S1113 1.610 . S
N1115 C1116 1.351 1_556 S
C1116 C1110 1.428 . S
C1116 N1115 1.351 1_554 S
C1116 C1117 1.434 . S
C1117 C1108 1.429 . S
C1117 N1114 1.350 1_554 S
C1117 C1116 1.434 . S
C1118 C1119 1.369 . S
C1118 C1120 1.419 . S
C1118 H1122 0.930 . S
C1119 C1118 1.369 . S
C1119 C1128 1.429 . S
C1120 C1118 1.419 . S
C1120 C1121 1.363 . S
C1120 H1123 0.929 . S
C1121 C1120 1.363 . S
C1121 C1127 1.428 . S
H1122 C1118 0.930 . S
H1123 C1120 0.929 . S
S1124 N1125 1.613 . S
S1124 N1126 1.610 . S
N1125 S1124 1.613 . S
N1125 C1128 1.350 . S
N1126 S1124 1.610 . S
N1126 C1127 1.351 . S
C1127 C1121 1.428 . S
C1127 N1126 1.351 . S
C1127 C1128 1.434 . S
C1128 C1119 1.429 . S
C1128 N1125 1.350 . S
C1128 C1127 1.434 . S
C1129 C1130 1.369 . S
C1129 C1131 1.419 . S
C1129 H1133 0.930 . S
C1130 C1129 1.369 . S
C1130 C1139 1.429 . S
C1131 C1129 1.419 . S
C1131 C1132 1.363 . S
C1131 H1134 0.929 . S
C1132 C1131 1.363 . S
C1132 C1138 1.428 . S
H1133 C1129 0.930 . S
H1134 C1131 0.929 . S
S1135 N1136 1.613 . S
S1135 N1137 1.610 . S
N1136 S1135 1.613 . S
N1136 C1139 1.350 . S
N1137 S1135 1.610 . S
N1137 C1138 1.351 . S
C1138 C1132 1.428 . S
C1138 N1137 1.351 . S
C1138 C1139 1.434 . S
C1139 C1130 1.429 . S
C1139 N1136 1.350 . S
C1139 C1138 1.434 . S
C1140 C1141 1.369 . S
C1140 C1142 1.419 . S
C1140 H1144 0.930 . S
C1141 C1140 1.369 . S
C1141 C1150 1.429 . S
C1142 C1140 1.419 . S
C1142 C1143 1.363 . S
C1142 H1145 0.929 . S
C1143 C1142 1.363 . S
C1143 C1149 1.428 . S
H1144 C1140 0.930 . S
H1145 C1142 0.929 . S
S1146 N1147 1.613 . S
S1146 N1148 1.610 . S
N1147 S1146 1.613 . S
N1147 C1150 1.350 . S
N1148 S1146 1.610 . S
N1148 C1149 1.351 . S
C1149 C1143 1.428 . S
C1149 N1148 1.351 . S
C1149 C1150 1.434 . S
C1150 C1141 1.429 . S
C1150 N1147 1.350 . S
C1150 C1149 1.434 . S
C1151 C1152 1.369 . S
C1151 C1153 1.419 . S
C1151 H1155 0.930 . S
C1152 C1151 1.369 . S
C1152 C1161 1.429 . S
C1153 C1151 1.419 . S
C1153 C1154 1.363 . S
C1153 H1156 0.929 1_565 S
C1154 C1153 1.363 . S
C1154 C1160 1.428 . S
H1155 C1151 0.930 . S
H1156 C1153 0.929 1_545 S
S1157 N1158 1.613 . S
S1157 N1159 1.610 . S
N1158 S1157 1.613 . S
N1158 C1161 1.350 . S
N1159 S1157 1.610 . S
N1159 C1160 1.351 . S
C1160 C1154 1.428 . S
C1160 N1159 1.351 . S
C1160 C1161 1.434 . S
C1161 C1152 1.429 . S
C1161 N1158 1.350 . S
C1161 C1160 1.434 . S
C1162 C1163 1.369 . S
C1162 C1164 1.419 . S
C1162 H1166 0.930 . S
C1163 C1162 1.369 . S
C1163 C1172 1.429 . S
C1164 C1162 1.419 . S
C1164 C1165 1.363 . S
C1164 H1167 0.929 . S
C1165 C1164 1.363 . S
C1165 C1171 1.428 . S
H1166 C1162 0.930 . S
H1167 C1164 0.929 . S
S1168 N1169 1.613 . S
S1168 N1170 1.610 . S
N1169 S1168 1.613 . S
N1169 C1172 1.350 . S
N1170 S1168 1.610 . S
N1170 C1171 1.351 . S
C1171 C1165 1.428 . S
C1171 N1170 1.351 . S
C1171 C1172 1.434 . S
C1172 C1163 1.429 . S
C1172 N1169 1.350 . S
C1172 C1171 1.434 . S
C1173 C1174 1.369 . S
C1173 C1175 1.419 . S
C1173 H1177 0.930 . S
C1174 C1173 1.369 . S
C1174 C1183 1.429 . S
C1175 C1173 1.419 . S
C1175 C1176 1.363 . S
C1175 H1178 0.929 . S
C1176 C1175 1.363 . S
C1176 C1182 1.428 . S
H1177 C1173 0.930 . S
H1178 C1175 0.929 . S
S1179 N1180 1.613 . S
S1179 N1181 1.610 . S
N1180 S1179 1.613 . S
N1180 C1183 1.350 . S
N1181 S1179 1.610 . S
N1181 C1182 1.351 . S
C1182 C1176 1.428 . S
C1182 N1181 1.351 . S
C1182 C1183 1.434 . S
C1183 C1174 1.429 . S
C1183 N1180 1.350 . S
C1183 C1182 1.434 . S
C1184 C1185 1.369 . S
C1184 C1186 1.419 . S
C1184 H1188 0.930 . S
C1185 C1184 1.369 . S
C1185 C1194 1.429 . S
C1186 C1184 1.419 . S
C1186 C1187 1.363 . S
C1186 H1189 0.929 . S
C1187 C1186 1.363 . S
C1187 C1193 1.428 . S
H1188 C1184 0.930 . S
H1189 C1186 0.929 . S
S1190 N1191 1.613 . S
S1190 N1192 1.610 . S
N1191 S1190 1.613 . S
N1191 C1194 1.350 . S
N1192 S1190 1.610 . S
N1192 C1193 1.351 . S
C1193 C1187 1.428 . S
C1193 N1192 1.351 . S
C1193 C1194 1.434 . S
C1194 C1185 1.429 . S
C1194 N1191 1.350 . S
C1194 C1193 1.434 . S
C1195 C1196 1.369 . S
C1195 C1197 1.419 . S
C1195 H1199 0.930 . S
C1196 C1195 1.369 . S
C1196 C1205 1.429 . S
C1197 C1195 1.419 . S
C1197 C1198 1.363 . S
C1197 H1200 0.929 . S
C1198 C1197 1.363 . S
C1198 C1204 1.428 . S
H1199 C1195 0.930 . S
H1200 C1197 0.929 . S
S1201 N1202 1.613 . S
S1201 N1203 1.610 . S
N1202 S1201 1.613 . S
N1202 C1205 1.350 . S
N1203 S1201 1.610 . S
N1203 C1204 1.351 . S
C1204 C1198 1.428 . S
C1204 N1203 1.351 . S
C1204 C1205 1.434 . S
C1205 C1196 1.429 . S
C1205 N1202 1.350 . S
C1205 C1204 1.434 . S
C1206 C1207 1.369 . S
C1206 C1208 1.419 . S
C1206 H1210 0.930 . S
C1207 C1206 1.369 . S
C1207 C1216 1.429 1_455 S
C1208 C1206 1.419 . S
C1208 C1209 1.363 . S
C1208 H1211 0.929 . S
C1209 C1208 1.363 . S
C1209 C1215 1.428 1_455 S
H1210 C1206 0.930 . S
H1211 C1208 0.929 . S
S1212 N1213 1.613 . S
S1212 N1214 1.610 . S
N1213 S1212 1.613 . S
N1213 C1216 1.350 . S
N1214 S1212 1.610 . S
N1214 C1215 1.351 . S
C1215 C1209 1.428 1_655 S
C1215 N1214 1.351 . S
C1215 C1216 1.434 . S
C1216 C1207 1.429 1_655 S
C1216 N1213 1.350 . S
C1216 C1215 1.434 . S
C1217 C1218 1.369 . S
C1217 C1219 1.419 . S
C1217 H1221 0.930 . S
C1218 C1217 1.369 . S
C1218 C1227 1.429 . S
C1219 C1217 1.419 . S
C1219 C1220 1.363 . S
C1219 H1222 0.929 . S
C1220 C1219 1.363 . S
C1220 C1226 1.428 . S
H1221 C1217 0.930 . S
H1222 C1219 0.929 . S
S1223 N1224 1.613 . S
S1223 N1225 1.610 . S
N1224 S1223 1.613 . S
N1224 C1227 1.350 . S
N1225 S1223 1.610 . S
N1225 C1226 1.351 . S
C1226 C1220 1.428 . S
C1226 N1225 1.351 . S
C1226 C1227 1.434 . S
C1227 C1218 1.429 . S
C1227 N1224 1.350 . S
C1227 C1226 1.434 . S
C1228 C1229 1.369 . S
C1228 C1230 1.419 . S
C1228 H1232 0.930 . S
C1229 C1228 1.369 . S
C1229 C1238 1.429 . S
C1230 C1228 1.419 . S
C1230 C1231 1.363 . S
C1230 H1233 0.929 . S
C1231 C1230 1.363 . S
C1231 C1237 1.428 . S
H1232 C1228 0.930 . S
H1233 C1230 0.929 . S
S1234 N1235 1.613 . S
S1234 N1236 1.610 . S
N1235 S1234 1.613 . S
N1235 C1238 1.350 . S
N1236 S1234 1.610 . S
N1236 C1237 1.351 . S
C1237 C1231 1.428 . S
C1237 N1236 1.351 . S
C1237 C1238 1.434 . S
C1238 C1229 1.429 . S
C1238 N1235 1.350 . S
C1238 C1237 1.434 . S
C1239 C1240 1.369 . S
C1239 C1241 1.419 . S
C1239 H1243 0.930 . S
C1240 C1239 1.369 . S
C1240 C1249 1.429 . S
C1241 C1239 1.419 . S
C1241 C1242 1.363 . S
C1241 H1244 0.929 . S
C1242 C1241 1.363 . S
C1242 C1248 1.428 . S
H1243 C1239 0.930 . S
H1244 C1241 0.929 . S
S1245 N1246 1.613 . S
S1245 N1247 1.610 . S
N1246 S1245 1.613 . S
N1246 C1249 1.350 . S
N1247 S1245 1.610 . S
N1247 C1248 1.351 . S
C1248 C1242 1.428 . S
C1248 N1247 1.351 . S
C1248 C1249 1.434 . S
C1249 C1240 1.429 . S
C1249 N1246 1.350 . S
C1249 C1248 1.434 . S
C1250 C1251 1.369 . S
C1250 C1252 1.419 . S
C1250 H1254 0.930 . S
C1251 C1250 1.369 . S
C1251 C1260 1.429 1_655 S
C1252 C1250 1.419 . S
C1252 C1253 1.363 . S
C1252 H1255 0.929 . S
C1253 C1252 1.363 . S
C1253 C1259 1.428 1_655 S
H1254 C1250 0.930 . S
H1255 C1252 0.929 . S
S1256 N1257 1.613 . S
S1256 N1258 1.610 . S
N1257 S1256 1.613 . S
N1257 C1260 1.350 . S
N1258 S1256 1.610 . S
N1258 C1259 1.351 . S
C1259 C1253 1.428 1_455 S
C1259 N1258 1.351 . S
C1259 C1260 1.434 . S
C1260 C1251 1.429 1_455 S
C1260 N1257 1.350 . S
C1260 C1259 1.434 . S
C1261 C1262 1.369 . S
C1261 C1263 1.419 . S
C1261 H1265 0.930 . S
C1262 C1261 1.369 . S
C1262 C1271 1.429 . S
C1263 C1261 1.419 . S
C1263 C1264 1.363 . S
C1263 H1266 0.929 . S
C1264 C1263 1.363 . S
C1264 C1270 1.428 . S
H1265 C1261 0.930 . S
H1266 C1263 0.929 . S
S1267 N1268 1.613 . S
S1267 N1269 1.610 . S
N1268 S1267 1.613 . S
N1268 C1271 1.350 . S
N1269 S1267 1.610 . S
N1269 C1270 1.351 . S
C1270 C1264 1.428 . S
C1270 N1269 1.351 . S
C1270 C1271 1.434 . S
C1271 C1262 1.429 . S
C1271 N1268 1.350 . S
C1271 C1270 1.434 . S
C1272 C1273 1.369 . S
C1272 C1274 1.419 . S
C1272 H1276 0.930 . S
C1273 C1272 1.369 . S
C1273 C1282 1.429 . S
C1274 C1272 1.419 . S
C1274 C1275 1.363 . S
C1274 H1277 0.929 . S
C1275 C1274 1.363 . S
C1275 C1281 1.428 . S
H1276 C1272 0.930 . S
H1277 C1274 0.929 . S
S1278 N1279 1.613 . S
S1278 N1280 1.610 . S
N1279 S1278 1.613 . S
N1279 C1282 1.350 . S
N1280 S1278 1.610 . S
N1280 C1281 1.351 . S
C1281 C1275 1.428 . S
C1281 N1280 1.351 . S
C1281 C1282 1.434 . S
C1282 C1273 1.429 . S
C1282 N1279 1.350 . S
C1282 C1281 1.434 . S
C1283 C1284 1.369 . S
C1283 C1285 1.419 . S
C1283 H1287 0.930 . S
C1284 C1283 1.369 . S
C1284 C1293 1.429 . S
C1285 C1283 1.419 . S
C1285 C1286 1.363 . S
C1285 H1288 0.929 . S
C1286 C1285 1.363 . S
C1286 C1292 1.428 . S
H1287 C1283 0.930 . S
H1288 C1285 0.929 . S
S1289 N1290 1.613 . S
S1289 N1291 1.610 . S
N1290 S1289 1.613 . S
N1290 C1293 1.350 . S
N1291 S1289 1.610 . S
N1291 C1292 1.351 . S
C1292 C1286 1.428 . S
C1292 N1291 1.351 . S
C1292 C1293 1.434 . S
C1293 C1284 1.429 . S
C1293 N1290 1.350 . S
C1293 C1292 1.434 . S
C1294 C1295 1.369 . S
C1294 C1296 1.419 . S
C1294 H1298 0.930 . S
C1295 C1294 1.369 . S
C1295 C1304 1.429 . S
C1296 C1294 1.419 . S
C1296 C1297 1.363 . S
C1296 H1299 0.929 . S
C1297 C1296 1.363 . S
C1297 C1303 1.428 . S
H1298 C1294 0.930 . S
H1299 C1296 0.929 . S
S1300 N1301 1.613 . S
S1300 N1302 1.610 . S
N1301 S1300 1.613 . S
N1301 C1304 1.350 . S
N1302 S1300 1.610 . S
N1302 C1303 1.351 . S
C1303 C1297 1.428 . S
C1303 N1302 1.351 . S
C1303 C1304 1.434 . S
C1304 C1295 1.429 . S
C1304 N1301 1.350 . S
C1304 C1303 1.434 . S
C1305 C1306 1.369 . S
C1305 C1307 1.419 . S
C1305 H1309 0.930 . S
C1306 C1305 1.369 . S
C1306 C1315 1.429 . S
C1307 C1305 1.419 . S
C1307 C1308 1.363 . S
C1307 H1310 0.929 . S
C1308 C1307 1.363 . S
C1308 C1314 1.428 . S
H1309 C1305 0.930 . S
H1310 C1307 0.929 . S
S1311 N1312 1.613 . S
S1311 N1313 1.610 . S
N1312 S1311 1.613 . S
N1312 C1315 1.350 . S
N1313 S1311 1.610 . S
N1313 C1314 1.351 . S
C1314 C1308 1.428 . S
C1314 N1313 1.351 . S
C1314 C1315 1.434 . S
C1315 C1306 1.429 . S
C1315 N1312 1.350 . S
C1315 C1314 1.434 . S
C1316 C1317 1.369 . S
C1316 C1318 1.419 . S
C1316 H1320 0.930 . S
C1317 C1316 1.369 . S
C1317 C1326 1.429 . S
C1318 C1316 1.419 . S
C1318 C1319 1.363 . S
C1318 H1321 0.929 . S
C1319 C1318 1.363 . S
C1319 C1325 1.428 . S
H1320 C1316 0.930 . S
H1321 C1318 0.929 . S
S1322 N1323 1.613 . S
S1322 N1324 1.610 . S
N1323 S1322 1.613 . S
N1323 C1326 1.350 . S
N1324 S1322 1.610 . S
N1324 C1325 1.351 . S
C1325 C1319 1.428 . S
C1325 N1324 1.351 . S
C1325 C1326 1.434 . S
C1326 C1317 1.429 . S
C1326 N1323 1.350 . S
C1326 C1325 1.434 . S
C1327 C1328 1.369 . S
C1327 C1329 1.419 . S
C1327 H1331 0.930 . S
C1328 C1327 1.369 . S
C1328 C1337 1.429 . S
C1329 C1327 1.419 . S
C1329 C1330 1.363 . S
C1329 H1332 0.929 . S
C1330 C1329 1.363 . S
C1330 C1336 1.428 . S
H1331 C1327 0.930 . S
H1332 C1329 0.929 . S
S1333 N1334 1.613 . S
S1333 N1335 1.610 . S
N1334 S1333 1.613 . S
N1334 C1337 1.350 . S
N1335 S1333 1.610 . S
N1335 C1336 1.351 . S
C1336 C1330 1.428 . S
C1336 N1335 1.351 . S
C1336 C1337 1.434 . S
C1337 C1328 1.429 . S
C1337 N1334 1.350 . S
C1337 C1336 1.434 . S
C1338 C1339 1.369 . S
C1338 C1340 1.419 . S
C1338 H1342 0.930 . S
C1339 C1338 1.369 . S
C1339 C1348 1.429 . S
C1340 C1338 1.419 . S
C1340 C1341 1.363 . S
C1340 H1343 0.929 . S
C1341 C1340 1.363 . S
C1341 C1347 1.428 . S
H1342 C1338 0.930 . S
H1343 C1340 0.929 . S
S1344 N1345 1.613 1_655 S
S1344 N1346 1.610 . S
N1345 S1344 1.613 1_455 S
N1345 C1348 1.350 . S
N1346 S1344 1.610 . S
N1346 C1347 1.351 1_655 S
C1347 C1341 1.428 . S
C1347 N1346 1.351 1_455 S
C1347 C1348 1.434 . S
C1348 C1339 1.429 . S
C1348 N1345 1.350 . S
C1348 C1347 1.434 . S
C1349 C1350 1.369 . S
C1349 C1351 1.419 . S
C1349 H1353 0.930 . S
C1350 C1349 1.369 . S
C1350 C1359 1.429 . S
C1351 C1349 1.419 . S
C1351 C1352 1.363 . S
C1351 H1354 0.929 . S
C1352 C1351 1.363 . S
C1352 C1358 1.428 . S
H1353 C1349 0.930 . S
H1354 C1351 0.929 . S
S1355 N1356 1.613 . S
S1355 N1357 1.610 . S
N1356 S1355 1.613 . S
N1356 C1359 1.350 . S
N1357 S1355 1.610 . S
N1357 C1358 1.351 . S
C1358 C1352 1.428 . S
C1358 N1357 1.351 . S
C1358 C1359 1.434 . S
C1359 C1350 1.429 . S
C1359 N1356 1.350 . S
C1359 C1358 1.434 . S
C1360 C1361 1.369 . S
C1360 C1362 1.419 . S
C1360 H1364 0.930 . S
C1361 C1360 1.369 . S
C1361 C1370 1.429 . S
C1362 C1360 1.419 . S
C1362 C1363 1.363 . S
C1362 H1365 0.929 . S
C1363 C1362 1.363 . S
C1363 C1369 1.428 . S
H1364 C1360 0.930 . S
H1365 C1362 0.929 . S
S1366 N1367 1.613 . S
S1366 N1368 1.610 . S
N1367 S1366 1.613 . S
N1367 C1370 1.350 . S
N1368 S1366 1.610 . S
N1368 C1369 1.351 . S
C1369 C1363 1.428 . S
C1369 N1368 1.351 . S
C1369 C1370 1.434 . S
C1370 C1361 1.429 . S
C1370 N1367 1.350 . S
C1370 C1369 1.434 . S
C1371 C1372 1.369 . S
C1371 C1373 1.419 . S
C1371 H1375 0.930 . S
C1372 C1371 1.369 . S
C1372 C1381 1.429 . S
C1373 C1371 1.419 . S
C1373 C1374 1.363 . S
C1373 H1376 0.929 . S
C1374 C1373 1.363 . S
C1374 C1380 1.428 . S
H1375 C1371 0.930 . S
H1376 C1373 0.929 . S
S1377 N1378 1.613 . S
S1377 N1379 1.610 . S
N1378 S1377 1.613 . S
N1378 C1381 1.350 . S
N1379 S1377 1.610 . S
N1379 C1380 1.351 . S
C1380 C1374 1.428 . S
C1380 N1379 1.351 . S
C1380 C1381 1.434 . S
C1381 C1372 1.429 . S
C1381 N1378 1.350 . S
C1381 C1380 1.434 . S
C1382 C1383 1.369 . S
C1382 C1384 1.419 . S
C1382 H1386 0.930 . S
C1383 C1382 1.369 . S
C1383 C1392 1.429 . S
C1384 C1382 1.419 . S
C1384 C1385 1.363 . S
C1384 H1387 0.929 . S
C1385 C1384 1.363 . S
C1385 C1391 1.428 . S
H1386 C1382 0.930 . S
H1387 C1384 0.929 . S
S1388 N1389 1.613 . S
S1388 N1390 1.610 . S
N1389 S1388 1.613 . S
N1389 C1392 1.350 . S
N1390 S1388 1.610 . S
N1390 C1391 1.351 . S
C1391 C1385 1.428 . S
C1391 N1390 1.351 . S
C1391 C1392 1.434 . S
C1392 C1383 1.429 . S
C1392 N1389 1.350 . S
C1392 C1391 1.434 . S
C1393 C1394 1.369 . S
C1393 C1395 1.419 . S
C1393 H1397 0.930 . S
C1394 C1393 1.369 . S
C1394 C1403 1.429 . S
C1395 C1393 1.419 . S
C1395 C1396 1.363 . S
C1395 H1398 0.929 1_565 S
C1396 C1395 1.363 . S
C1396 C1402 1.428 . S
H1397 C1393 0.930 . S
H1398 C1395 0.929 1_545 S
S1399 N1400 1.613 . S
S1399 N1401 1.610 . S
N1400 S1399 1.613 . S
N1400 C1403 1.350 . S
N1401 S1399 1.610 . S
N1401 C1402 1.351 . S
C1402 C1396 1.428 . S
C1402 N1401 1.351 . S
C1402 C1403 1.434 . S
C1403 C1394 1.429 . S
C1403 N1400 1.350 . S
C1403 C1402 1.434 . S
C1404 C1405 1.369 . S
C1404 C1406 1.419 . S
C1404 H1408 0.930 . S
C1405 C1404 1.369 . S
C1405 C1414 1.429 . S
C1406 C1404 1.419 . S
C1406 C1407 1.363 . S
C1406 H1409 0.929 . S
C1407 C1406 1.363 . S
C1407 C1413 1.428 . S
H1408 C1404 0.930 . S
H1409 C1406 0.929 . S
S1410 N1411 1.613 . S
S1410 N1412 1.610 . S
N1411 S1410 1.613 . S
N1411 C1414 1.350 . S
N1412 S1410 1.610 . S
N1412 C1413 1.351 . S
C1413 C1407 1.428 . S
C1413 N1412 1.351 . S
C1413 C1414 1.434 . S
C1414 C1405 1.429 . S
C1414 N1411 1.350 . S
C1414 C1413 1.434 . S
C1415 C1416 1.369 . S
C1415 C1417 1.419 . S
C1415 H1419 0.930 1_554 S
C1416 C1415 1.369 . S
C1416 C1425 1.429 . S
C1417 C1415 1.419 . S
C1417 C1418 1.363 . S
C1417 H1420 0.929 . S
C1418 C1417 1.363 . S
C1418 C1424 1.428 . S
H1419 C1415 0.930 1_556 S
H1420 C1417 0.929 . S
S1421 N1422 1.613 . S
S1421 N1423 1.610 . S
N1422 S1421 1.613 . S
N1422 C1425 1.350 . S
N1423 S1421 1.610 . S
N1423 C1424 1.351 . S
C1424 C1418 1.428 . S
C1424 N1423 1.351 . S
C1424 C1425 1.434 . S
C1425 C1416 1.429 . S
C1425 N1422 1.350 . S
C1425 C1424 1.434 . S
C1426 C1427 1.369 . S
C1426 C1428 1.419 . S
C1426 H1430 0.930 . S
C1427 C1426 1.369 . S
C1427 C1436 1.429 . S
C1428 C1426 1.419 . S
C1428 C1429 1.363 . S
C1428 H1431 0.929 . S
C1429 C1428 1.363 . S
C1429 C1435 1.428 . S
H1430 C1426 0.930 . S
H1431 C1428 0.929 . S
S1432 N1433 1.613 . S
S1432 N1434 1.610 . S
N1433 S1432 1.613 . S
N1433 C1436 1.350 . S
N1434 S1432 1.610 . S
N1434 C1435 1.351 . S
C1435 C1429 1.428 . S
C1435 N1434 1.351 . S
C1435 C1436 1.434 . S
C1436 C1427 1.429 . S
C1436 N1433 1.350 . S
C1436 C1435 1.434 . S
C1437 C1438 1.369 . S
C1437 C1439 1.419 . S
C1437 H1441 0.930 . S
C1438 C1437 1.369 . S
C1438 C1447 1.429 . S
C1439 C1437 1.419 . S
C1439 C1440 1.363 . S
C1439 H1442 0.929 . S
C1440 C1439 1.363 . S
C1440 C1446 1.428 . S
H1441 C1437 0.930 . S
H1442 C1439 0.929 . S
S1443 N1444 1.613 . S
S1443 N1445 1.610 . S
N1444 S1443 1.613 . S
N1444 C1447 1.350 . S
N1445 S1443 1.610 . S
N1445 C1446 1.351 . S
C1446 C1440 1.428 . S
C1446 N1445 1.351 . S
C1446 C1447 1.434 . S
C1447 C1438 1.429 . S
C1447 N1444 1.350 . S
C1447 C1446 1.434 . S
C1448 C1449 1.369 . S
C1448 C1450 1.419 . S
C1448 H1452 0.930 . S
C1449 C1448 1.369 . S
C1449 C1458 1.429 . S
C1450 C1448 1.419 . S
C1450 C1451 1.363 . S
C1450 H1453 0.929 . S
C1451 C1450 1.363 . S
C1451 C1457 1.428 . S
H1452 C1448 0.930 . S
H1453 C1450 0.929 . S
S1454 N1455 1.613 . S
S1454 N1456 1.610 . S
N1455 S1454 1.613 . S
N1455 C1458 1.350 . S
N1456 S1454 1.610 . S
N1456 C1457 1.351 . S
C1457 C1451 1.428 . S
C1457 N1456 1.351 . S
C1457 C1458 1.434 . S
C1458 C1449 1.429 . S
C1458 N1455 1.350 . S
C1458 C1457 1.434 . S
C1459 C1460 1.369 . S
C1459 C1461 1.419 . S
C1459 H1463 0.930 . S
C1460 C1459 1.369 . S
C1460 C1469 1.429 . S
C1461 C1459 1.419 . S
C1461 C1462 1.363 . S
C1461 H1464 0.929 . S
C1462 C1461 1.363 . S
C1462 C1468 1.428 . S
H1463 C1459 0.930 . S
H1464 C1461 0.929 . S
S1465 N1466 1.613 . S
S1465 N1467 1.610 . S
N1466 S1465 1.613 . S
N1466 C1469 1.350 . S
N1467 S1465 1.610 . S
N1467 C1468 1.351 . S
C1468 C1462 1.428 . S
C1468 N1467 1.351 . S
C1468 C1469 1.434 . S
C1469 C1460 1.429 . S
C1469 N1466 1.350 . S
C1469 C1468 1.434 . S
C1470 C1471 1.369 . S
C1470 C1472 1.419 . S
C1470 H1474 0.930 . S
C1471 C1470 1.369 . S
C1471 C1480 1.429 1_455 S
C1472 C1470 1.419 . S
C1472 C1473 1.363 . S
C1472 H1475 0.929 . S
C1473 C1472 1.363 . S
C1473 C1479 1.428 1_455 S
H1474 C1470 0.930 . S
H1475 C1472 0.929 . S
S1476 N1477 1.613 . S
S1476 N1478 1.610 . S
N1477 S1476 1.613 . S
N1477 C1480 1.350 . S
N1478 S1476 1.610 . S
N1478 C1479 1.351 . S
C1479 C1473 1.428 1_655 S
C1479 N1478 1.351 . S
C1479 C1480 1.434 . S
C1480 C1471 1.429 1_655 S
C1480 N1477 1.350 . S
C1480 C1479 1.434 . S
C1481 C1482 1.369 . S
C1481 C1483 1.419 . S
C1481 H1485 0.930 . S
C1482 C1481 1.369 . S
C1482 C1491 1.429 . S
C1483 C1481 1.419 . S
C1483 C1484 1.363 . S
C1483 H1486 0.929 . S
C1484 C1483 1.363 . S
C1484 C1490 1.428 . S
H1485 C1481 0.930 . S
H1486 C1483 0.929 . S
S1487 N1488 1.613 . S
S1487 N1489 1.610 . S
N1488 S1487 1.613 . S
N1488 C1491 1.350 . S
N1489 S1487 1.610 . S
N1489 C1490 1.351 . S
C1490 C1484 1.428 . S
C1490 N1489 1.351 . S
C1490 C1491 1.434 . S
C1491 C1482 1.429 . S
C1491 N1488 1.350 . S
C1491 C1490 1.434 . S
C1492 C1493 1.369 . S
C1492 C1494 1.419 . S
C1492 H1496 0.930 . S
C1493 C1492 1.369 . S
C1493 C1502 1.429 . S
C1494 C1492 1.419 . S
C1494 C1495 1.363 . S
C1494 H1497 0.929 . S
C1495 C1494 1.363 . S
C1495 C1501 1.428 . S
H1496 C1492 0.930 . S
H1497 C1494 0.929 . S
S1498 N1499 1.613 . S
S1498 N1500 1.610 . S
N1499 S1498 1.613 . S
N1499 C1502 1.350 . S
N1500 S1498 1.610 . S
N1500 C1501 1.351 . S
C1501 C1495 1.428 . S
C1501 N1500 1.351 . S
C1501 C1502 1.434 . S
C1502 C1493 1.429 . S
C1502 N1499 1.350 . S
C1502 C1501 1.434 . S
C1503 C1504 1.369 . S
C1503 C1505 1.419 . S
C1503 H1507 0.930 . S
C1504 C1503 1.369 . S
C1504 C1513 1.429 . S
C1505 C1503 1.419 . S
C1505 C1506 1.363 . S
C1505 H1508 0.929 . S
C1506 C1505 1.363 . S
C1506 C1512 1.428 . S
H1507 C1503 0.930 . S
H1508 C1505 0.929 . S
S1509 N1510 1.613 . S
S1509 N1511 1.610 . S
N1510 S1509 1.613 . S
N1510 C1513 1.350 . S
N1511 S1509 1.610 . S
N1511 C1512 1.351 . S
C1512 C1506 1.428 . S
C1512 N1511 1.351 . S
C1512 C1513 1.434 . S
C1513 C1504 1.429 . S
C1513 N1510 1.350 . S
C1513 C1512 1.434 . S
C1514 C1515 1.369 1_655 S
C1514 C1516 1.419 . S
C1514 H1518 0.930 . S
C1515 C1514 1.369 1_455 S
C1515 C1524 1.429 . S
C1516 C1514 1.419 . S
C1516 C1517 1.363 1_655 S
C1516 H1519 0.929 . S
C1517 C1516 1.363 1_455 S
C1517 C1523 1.428 . S
H1518 C1514 0.930 . S
H1519 C1516 0.929 . S
S1520 N1521 1.613 . S
S1520 N1522 1.610 . S
N1521 S1520 1.613 . S
N1521 C1524 1.350 . S
N1522 S1520 1.610 . S
N1522 C1523 1.351 . S
C1523 C1517 1.428 . S
C1523 N1522 1.351 . S
C1523 C1524 1.434 . S
C1524 C1515 1.429 . S
C1524 N1521 1.350 . S
C1524 C1523 1.434 . S
C1525 C1526 1.369 . S
C1525 C1527 1.419 . S
C1525 H1529 0.930 . S
C1526 C1525 1.369 . S
C1526 C1535 1.429 . S
C1527 C1525 1.419 . S
C1527 C1528 1.363 . S
C1527 H1530 0.929 . S
C1528 C1527 1.363 . S
C1528 C1534 1.428 . S
H1529 C1525 0.930 . S
H1530 C1527 0.929 . S
S1531 N1532 1.613 . S
S1531 N1533 1.610 . S
N1532 S1531 1.613 . S
N1532 C1535 1.350 . S
N1533 S1531 1.610 . S
N1533 C1534 1.351 . S
C1534 C1528 1.428 . S
C1534 N1533 1.351 . S
C1534 C1535 1.434 . S
C1535 C1526 1.429 . S
C1535 N1532 1.350 . S
C1535 C1534 1.434 . S
C1536 C1537 1.369 . S
C1536 C1538 1.419 . S
C1536 H1540 0.930 . S
C1537 C1536 1.369 . S
C1537 C1546 1.429 . S
C1538 C1536 1.419 . S
C1538 C1539 1.363 . S
C1538 H1541 0.929 . S
C1539 C1538 1.363 . S
C1539 C1545 1.428 . S
H1540 C1536 0.930 . S
H1541 C1538 0.929 . S
S1542 N1543 1.613 . S
S1542 N1544 1.610 . S
N1543 S1542 1.613 . S
N1543 C1546 1.350 . S
N1544 S1542 1.610 . S
N1544 C1545 1.351 . S
C1545 C1539 1.428 . S
C1545 N1544 1.351 . S
C1545 C1546 1.434 . S
C1546 C1537 1.429 . S
C1546 N1543 1.350 . S
C1546 C1545 1.434 . S
C1547 C1548 1.369 . S
C1547 C1549 1.419 . S
C1547 H1551 0.930 . S
C1548 C1547 1.369 . S
C1548 C1557 1.429 . S
C1549 C1547 1.419 . S
C1549 C1550 1.363 . S
C1549 H1552 0.929 . S
C1550 C1549 1.363 . S
C1550 C1556 1.428 . S
H1551 C1547 0.930 . S
H1552 C1549 0.929 . S
S1553 N1554 1.613 . S
S1553 N1555 1.610 . S
N1554 S1553 1.613 . S
N1554 C1557 1.350 . S
N1555 S1553 1.610 . S
N1555 C1556 1.351 . S
C1556 C1550 1.428 . S
C1556 N1555 1.351 . S
C1556 C1557 1.434 . S
C1557 C1548 1.429 . S
C1557 N1554 1.350 . S
C1557 C1556 1.434 . S
C1558 C1559 1.369 . S
C1558 C1560 1.419 . S
C1558 H1562 0.930 . S
C1559 C1558 1.369 . S
C1559 C1568 1.429 . S
C1560 C1558 1.419 . S
C1560 C1561 1.363 . S
C1560 H1563 0.929 1_655 S
C1561 C1560 1.363 . S
C1561 C1567 1.428 . S
H1562 C1558 0.930 . S
H1563 C1560 0.929 1_455 S
S1564 N1565 1.613 . S
S1564 N1566 1.610 . S
N1565 S1564 1.613 . S
N1565 C1568 1.350 . S
N1566 S1564 1.610 . S
N1566 C1567 1.351 . S
C1567 C1561 1.428 . S
C1567 N1566 1.351 . S
C1567 C1568 1.434 . S
C1568 C1559 1.429 . S
C1568 N1565 1.350 . S
C1568 C1567 1.434 . S
C1569 C1570 1.369 . S
C1569 C1571 1.419 . S
C1569 H1573 0.930 . S
C1570 C1569 1.369 . S
C1570 C1579 1.429 . S
C1571 C1569 1.419 . S
C1571 C1572 1.363 . S
C1571 H1574 0.929 . S
C1572 C1571 1.363 . S
C1572 C1578 1.428 . S
H1573 C1569 0.930 . S
H1574 C1571 0.929 . S
S1575 N1576 1.613 . S
S1575 N1577 1.610 . S
N1576 S1575 1.613 . S
N1576 C1579 1.350 . S
N1577 S1575 1.610 . S
N1577 C1578 1.351 . S
C1578 C1572 1.428 . S
C1578 N1577 1.351 . S
C1578 C1579 1.434 . S
C1579 C1570 1.429 . S
C1579 N1576 1.350 . S
C1579 C1578 1.434 . S
C1580 C1581 1.369 . S
C1580 C1582 1.419 . S
C1580 H1584 0.930 . S
C1581 C1580 1.369 . S
C1581 C1590 1.429 . S
C1582 C1580 1.419 . S
C1582 C1583 1.363 . S
C1582 H1585 0.929 . S
C1583 C1582 1.363 . S
C1583 C1589 1.428 . S
H1584 C1580 0.930 . S
H1585 C1582 0.929 . S
S1586 N1587 1.613 . S
S1586 N1588 1.610 . S
N1587 S1586 1.613 . S
N1587 C1590 1.350 . S
N1588 S1586 1.610 . S
N1588 C1589 1.351 . S
C1589 C1583 1.428 . S
C1589 N1588 1.351 . S
C1589 C1590 1.434 . S
C1590 C1581 1.429 . S
C1590 N1587 1.350 . S
C1590 C1589 1.434 . S
C1591 C1592 1.369 . S
C1591 C1593 1.419 . S
C1591 H1595 0.930 . S
C1592 C1591 1.369 . S
C1592 C1601 1.429 . S
C1593 C1591 1.419 . S
C1593 C1594 1.363 . S
C1593 H1596 0.929 . S
C1594 C1593 1.363 . S
C1594 C1600 1.428 . S
H1595 C1591 0.930 . S
H1596 C1593 0.929 . S
S1597 N1598 1.613 . S
S1597 N1599 1.610 . S
N1598 S1597 1.613 . S
N1598 C1601 1.350 . S
N1599 S1597 1.610 . S
N1599 C1600 1.351 . S
C1600 C1594 1.428 . S
C1600 N1599 1.351 . S
C1600 C1601 1.434 . S
C1601 C1592 1.429 . S
C1601 N1598 1.350 . S
C1601 C1600 1.434 . S
C1602 C1603 1.369 . S
C1602 C1604 1.419 . S
C1602 H1606 0.930 . S
C1603 C1602 1.369 . S
C1603 C1612 1.429 . S
C1604 C1602 1.419 . S
C1604 C1605 1.363 . S
C1604 H1607 0.929 . S
C1605 C1604 1.363 . S
C1605 C1611 1.428 . S
H1606 C1602 0.930 . S
H1607 C1604 0.929 . S
S1608 N1609 1.613 1_455 S
S1608 N1610 1.610 . S
N1609 S1608 1.613 1_655 S
N1609 C1612 1.350 . S
N1610 S1608 1.610 . S
N1610 C1611 1.351 1_455 S
C1611 C1605 1.428 . S
C1611 N1610 1.351 1_655 S
C1611 C1612 1.434 . S
C1612 C1603 1.429 . S
C1612 N1609 1.350 . S
C1612 C1611 1.434 . S
C1613 C1614 1.369 . S
C1613 C1615 1.419 . S
C1613 H1617 0.930 . S
C1614 C1613 1.369 . S
C1614 C1623 1.429 . S
C1615 C1613 1.419 . S
C1615 C1616 1.363 . S
C1615 H1618 0.929 . S
C1616 C1615 1.363 . S
C1616 C1622 1.428 . S
H1617 C1613 0.930 . S
H1618 C1615 0.929 . S
S1619 N1620 1.613 . S
S1619 N1621 1.610 . S
N1620 S1619 1.613 . S
N1620 C1623 1.350 . S
N1621 S1619 1.610 . S
N1621 C1622 1.351 . S
C1622 C1616 1.428 . S
C1622 N1621 1.351 . S
C1622 C1623 1.434 . S
C1623 C1614 1.429 . S
C1623 N1620 1.350 . S
C1623 C1622 1.434 . S
C1624 C1625 1.369 . S
C1624 C1626 1.419 . S
C1624 H1628 0.930 . S
C1625 C1624 1.369 . S
C1625 C1634 1.429 . S
C1626 C1624 1.419 . S
C1626 C1627 1.363 . S
C1626 H1629 0.929 . S
C1627 C1626 1.363 . S
C1627 C1633 1.428 . S
H1628 C1624 0.930 . S
H1629 C1626 0.929 . S
S1630 N1631 1.613 . S
S1630 N1632 1.610 . S
N1631 S1630 1.613 . S
N1631 C1634 1.350 . S
N1632 S1630 1.610 . S
N1632 C1633 1.351 . S
C1633 C1627 1.428 . S
C1633 N1632 1.351 . S
C1633 C1634 1.434 . S
C1634 C1625 1.429 . S
C1634 N1631 1.350 . S
C1634 C1633 1.434 . S
C1635 C1636 1.369 . S
C1635 C1637 1.419 . S
C1635 H1639 0.930 . S
C1636 C1635 1.369 . S
C1636 C1645 1.429 . S
C1637 C1635 1.419 . S
C1637 C1638 1.363 . S
C1637 H1640 0.929 . S
C1638 C1637 1.363 . S
C1638 C1644 1.428 . S
H1639 C1635 0.930 . S
H1640 C1637 0.929 . S
S1641 N1642 1.613 1_545 S
S1641 N1643 1.610 . S
N1642 S1641 1.613 1_565 S
N1642 C1645 1.350 . S
N1643 S1641 1.610 . S
N1643 C1644 1.351 1_545 S
C1644 C1638 1.428 . S
C1644 N1643 1.351 1_565 S
C1644 C1645 1.434 . S
C1645 C1636 1.429 . S
C1645 N1642 1.350 . S
C1645 C1644 1.434 . S
C1646 C1647 1.369 . S
C1646 C1648 1.419 . S
C1646 H1650 0.930 . S
C1647 C1646 1.369 . S
C1647 C1656 1.429 . S
C1648 C1646 1.419 . S
C1648 C1649 1.363 . S
C1648 H1651 0.929 . S
C1649 C1648 1.363 . S
C1649 C1655 1.428 . S
H1650 C1646 0.930 . S
H1651 C1648 0.929 . S
S1652 N1653 1.613 . S
S1652 N1654 1.610 . S
N1653 S1652 1.613 . S
N1653 C1656 1.350 . S
N1654 S1652 1.610 . S
N1654 C1655 1.351 . S
C1655 C1649 1.428 . S
C1655 N1654 1.351 . S
C1655 C1656 1.434 . S
C1656 C1647 1.429 . S
C1656 N1653 1.350 . S
C1656 C1655 1.434 . S
C1657 C1658 1.369 . S
C1657 C1659 1.419 . S
C1657 H1661 0.930 . S
C1658 C1657 1.369 . S
C1658 C1667 1.429 1_554 S
C1659 C1657 1.419 . S
C1659 C1660 1.363 . S
C1659 H1662 0.929 . S
C1660 C1659 1.363 . S
C1660 C1666 1.428 1_554 S
H1661 C1657 0.930 . S
H1662 C1659 0.929 . S
S1663 N1664 1.613 . S
S1663 N1665 1.610 . S
N1664 S1663 1.613 . S
N1664 C1667 1.350 . S
N1665 S1663 1.610 . S
N1665 C1666 1.351 . S
C1666 C1660 1.428 1_556 S
C1666 N1665 1.351 . S
C1666 C1667 1.434 . S
C1667 C1658 1.429 1_556 S
C1667 N1664 1.350 . S
C1667 C1666 1.434 . S
C1668 C1669 1.369 . S
C1668 C1670 1.419 . S
C1668 H1672 0.930 . S
C1669 C1668 1.369 . S
C1669 C1678 1.429 . S
C1670 C1668 1.419 . S
C1670 C1671 1.363 . S
C1670 H1673 0.929 . S
C1671 C1670 1.363 . S
C1671 C1677 1.428 . S
H1672 C1668 0.930 . S
H1673 C1670 0.929 . S
S1674 N1675 1.613 . S
S1674 N1676 1.610 . S
N1675 S1674 1.613 . S
N1675 C1678 1.350 . S
N1676 S1674 1.610 . S
N1676 C1677 1.351 . S
C1677 C1671 1.428 . S
C1677 N1676 1.351 . S
C1677 C1678 1.434 . S
C1678 C1669 1.429 . S
C1678 N1675 1.350 . S
C1678 C1677 1.434 . S
C1679 C1680 1.369 . S
C1679 C1681 1.419 . S
C1679 H1683 0.930 . S
C1680 C1679 1.369 . S
C1680 C1689 1.429 . S
C1681 C1679 1.419 . S
C1681 C1682 1.363 . S
C1681 H1684 0.929 1_554 S
C1682 C1681 1.363 . S
C1682 C1688 1.428 . S
H1683 C1679 0.930 . S
H1684 C1681 0.929 1_556 S
S1685 N1686 1.613 . S
S1685 N1687 1.610 . S
N1686 S1685 1.613 . S
N1686 C1689 1.350 . S
N1687 S1685 1.610 . S
N1687 C1688 1.351 . S
C1688 C1682 1.428 . S
C1688 N1687 1.351 . S
C1688 C1689 1.434 . S
C1689 C1680 1.429 . S
C1689 N1686 1.350 . S
C1689 C1688 1.434 . S
C1690 C1691 1.369 . S
C1690 C1692 1.419 . S
C1690 H1694 0.930 . S
C1691 C1690 1.369 . S
C1691 C1700 1.429 . S
C1692 C1690 1.419 . S
C1692 C1693 1.363 . S
C1692 H1695 0.929 . S
C1693 C1692 1.363 . S
C1693 C1699 1.428 . S
H1694 C1690 0.930 . S
H1695 C1692 0.929 . S
S1696 N1697 1.613 . S
S1696 N1698 1.610 . S
N1697 S1696 1.613 . S
N1697 C1700 1.350 . S
N1698 S1696 1.610 . S
N1698 C1699 1.351 . S
C1699 C1693 1.428 . S
C1699 N1698 1.351 . S
C1699 C1700 1.434 . S
C1700 C1691 1.429 . S
C1700 N1697 1.350 . S
C1700 C1699 1.434 . S
C1701 C1702 1.369 . S
C1701 C1703 1.419 . S
C1701 H1705 0.930 . S
C1702 C1701 1.369 . S
C1702 C1711 1.429 . S
C1703 C1701 1.419 . S
C1703 C1704 1.363 . S
C1703 H1706 0.929 . S
C1704 C1703 1.363 . S
C1704 C1710 1.428 . S
H1705 C1701 0.930 . S
H1706 C1703 0.929 . S
S1707 N1708 1.613 . S
S1707 N1709 1.610 . S
N1708 S1707 1.613 . S
N1708 C1711 1.350 . S
N1709 S1707 1.610 . S
N1709 C1710 1.351 . S
C1710 C1704 1.428 . S
C1710 N1709 1.351 . S
C1710 C1711 1.434 . S
C1711 C1702 1.429 . S
C1711 N1708 1.350 . S
C1711 C1710 1.434 . S
C657 C106 1.709 . S
C659 C352 1.639 1_556 S
C668 C65 1.417 . S
C670 C365 1.400 . S
C679 C79 1.792 . S
C681 C384 1.834 . S
C692 C415 1.684 . S
C690 C90 1.716 . S
C701 C21 1.475 . S
C703 C435 1.493 . S
C714 C452 1.081 . S
C712 C35 1.043 . S
C725 C465 1.540 . S
C723 C50 1.550 . S
C734 C6 1.210 . S
C736 C492 1.259 . S
C747 C345 1.539 . S
C745 C232 1.588 . S
C756 C245 1.515 . S
C758 C375 1.568 . S
C769 C377 1.689 . S
C767 C274 1.770 . S
C780 C412 0.987 . S
C778 C175 0.979 . S
C789 C231 1.062 . S
C791 C432 1.094 . S
C802 C445 1.744 . S
C800 C246 1.751 . S
C813 C475 1.285 . S
C811 C273 1.277 . S
C824 C485 1.422 . S
C822 C176 1.478 . S
C835 C355 1.734 1_565 S
C833 C160 1.644 . S
C844 C289 1.732 . S
C846 C505 1.721 . S
C857 C535 1.680 . S
C855 C328 1.587 . S
C868 C552 1.397 . S
C866 C317 1.446 . S
C877 C118 1.842 . S
C879 C495 1.992 . S
C888 C132 1.283 . S
C890 C382 1.299 . S
C899 C331 1.862 . S
C901 C565 1.852 . S
C912 C592 1.325 . S
C910 C303 1.373 . S
C923 C342 1.286 . S
C921 C63 1.258 . S
C934 C577 1.705 . S
C932 C107 1.702 . S
C943 C92 1.539 . S
C945 C395 1.519 . S
C954 C78 2.197 . S
C956 C564 2.194 . S
C967 C424 1.961 . S
C965 C8 1.968 . S
C976 C51 1.124 . S
C978 C522 1.096 . S
C989 C457 1.827 1_556 S
C987 C37 1.780 . S
C1000 C602 1.131 . S
C998 C20 1.111 . S
C1011 C337 1.328 . S
C1009 C147 1.277 . S
C1022 C584 1.709 . S
C1020 C316 1.742 . S
C1031 C119 1.658 . S
C1033 C385 1.643 . S
C1042 C288 1.056 . S
C1044 C562 1.049 . S
C1053 C148 1.341 1_545 S
C1055 C422 1.326 . S
C1066 C517 1.720 . S
C1064 C315 1.658 . S
C1075 C120 1.592 . S
C1077 C464 1.562 . S
C1086 C287 1.247 . S
C1088 C597 1.249 . S
C1097 C188 1.537 . S
C1099 C344 1.575 . S
C1108 C177 1.932 . S
C1110 C497 1.961 . S
C1119 C258 1.721 . S
C1121 C444 1.806 . S
C1130 C247 1.460 . S
C1132 C542 1.438 . S
C1143 C604 1.800 . S
C1141 C272 1.723 . S
C1152 C216 1.280 . S
C1154 C392 1.255 1_565 S
C1165 C397 2.041 . S
C1163 C261 2.003 . S
C1176 C362 1.313 . S
C1174 C205 1.365 . S
C1185 C76 1.341 . S
C1187 C632 1.366 . S
C1198 C585 1.459 . S
C1196 C93 1.476 . S
C1207 C105 1.392 . S
C1209 C644 1.483 1_556 S
C1218 C62 1.730 . S
C1220 C575 1.705 . S
C1229 C49 1.460 . S
C1231 C515 1.470 . S
C1242 C532 1.377 . S
C1240 C9 1.393 . S
C1253 C545 1.491 1_655 S
C1251 C22 1.498 . S
C1264 C612 1.505 . S
C1262 C36 1.583 . S
C1275 C625 1.501 . S
C1273 C260 1.540 . S
C1284 C189 1.381 . S
C1286 C595 1.413 . S
C1297 C637 1.644 . S
C1295 C204 1.736 . S
C1308 C572 0.854 . S
C1306 C217 0.855 . S
C1319 C512 1.239 . S
C1317 C259 1.200 . S
C1328 C190 1.801 . S
C1330 C525 1.792 . S
C1341 C555 1.438 . S
C1339 C203 1.396 . S
C1350 C218 1.542 . S
C1352 C605 1.493 . S
C1363 C635 1.707 . S
C1361 C314 1.594 . S
C1372 C135 1.778 . S
C1374 C425 1.767 . S
C1385 C455 1.651 . S
C1383 C146 1.541 . S
C1396 C472 1.431 . S
C1394 C163 1.462 . S
C1407 C615 2.021 . S
C1405 C300 1.900 . S
C1416 C286 1.252 . S
C1418 C642 1.295 . S
C1429 C405 1.796 . S
C1427 C149 1.802 . S
C1440 C372 1.316 . S
C1438 C121 1.383 . S
C1449 C91 1.204 . S
C1451 C622 1.242 . S
C1462 C357 1.392 . S
C1460 C77 1.378 . S
C1471 C64 1.504 . S
C1473 C655 1.489 . S
C1482 C104 1.843 . S
C1484 C404 1.859 . S
C1493 C34 1.622 . S
C1495 C504 1.666 1_556 S
C1506 C442 1.065 . S
C1504 C23 1.079 . S
C1515 C7 1.378 . S
C1517 C537 1.438 . S
C1526 C48 1.064 . S
C1528 C482 1.085 . S
C1539 C617 1.305 . S
C1537 C329 1.263 . S
C1548 C162 1.727 . S
C1550 C364 1.696 . S
C1561 C645 1.623 1_655 S
C1559 C301 1.638 . S
C1570 C134 1.073 . S
C1572 C402 1.061 . S
C1581 C330 1.339 . S
C1583 C502 1.324 . S
C1594 C437 1.693 . S
C1592 C161 1.641 . S
C1603 C302 1.575 . S
C1605 C544 1.541 . S
C1616 C477 1.228 . S
C1614 C133 1.233 . S
C1627 C624 1.771 . S
C1625 C244 1.735 . S
C1638 C417 1.946 1_565 S
C1636 C219 1.908 . S
C1647 C230 1.575 . S
C1649 C524 1.651 . S
C1660 C462 1.412 . S
C1658 C191 1.451 1_554 S
C1669 C202 1.915 . S
C1671 C484 1.987 . S
C1680 C174 1.392 . S
C1682 C652 1.386 . S
C1693 C557 2.041 . S
C1691 C233 1.994 . S
C1704 C582 1.318 . S
C1702 C275 1.383 . S
