# Generated by pormake.
# Topology anh, (6,3)-cn, num edge types: 1
# Building blocks:
#     Node 0, Type 0, BuildingBlock: GEDQOX_clean_sbu_0, # of connection points: 6
#     Node 1, Type 0, BuildingBlock: GEDQOX_clean_sbu_0, # of connection points: 6
#     Node 2, Type 0, BuildingBlock: GEDQOX_clean_sbu_0, # of connection points: 6
#     Node 3, Type 1, BuildingBlock: WUSLED_clean_sbu_0, # of connection points: 3
#     Node 4, Type 1, BuildingBlock: WUSLED_clean_sbu_0, # of connection points: 3
#     Node 5, Type 1, BuildingBlock: WUSLED_clean_sbu_0, # of connection points: 3
#     Node 6, Type 1, BuildingBlock: WUSLED_clean_sbu_0, # of connection points: 3
#     Node 7, Type 1, BuildingBlock: WUSLED_clean_sbu_0, # of connection points: 3
#     Node 8, Type 1, BuildingBlock: WUSLED_clean_sbu_0, # of connection points: 3
#     Edge 9, Type (0, 1), BuildingBlock: AJUNOK_clean_linker_0, # of connection points: 2
#     Edge 10, Type (0, 1), BuildingBlock: AJUNOK_clean_linker_0, # of connection points: 2
#     Edge 11, Type (0, 1), BuildingBlock: AJUNOK_clean_linker_0, # of connection points: 2
#     Edge 12, Type (0, 1), BuildingBlock: AJUNOK_clean_linker_0, # of connection points: 2
#     Edge 13, Type (0, 1), BuildingBlock: AJUNOK_clean_linker_0, # of connection points: 2
#     Edge 14, Type (0, 1), BuildingBlock: AJUNOK_clean_linker_0, # of connection points: 2
#     Edge 15, Type (0, 1), BuildingBlock: AJUNOK_clean_linker_0, # of connection points: 2
#     Edge 16, Type (0, 1), BuildingBlock: AJUNOK_clean_linker_0, # of connection points: 2
#     Edge 17, Type (0, 1), BuildingBlock: AJUNOK_clean_linker_0, # of connection points: 2
#     Edge 18, Type (0, 1), BuildingBlock: AJUNOK_clean_linker_0, # of connection points: 2
#     Edge 19, Type (0, 1), BuildingBlock: AJUNOK_clean_linker_0, # of connection points: 2
#     Edge 20, Type (0, 1), BuildingBlock: AJUNOK_clean_linker_0, # of connection points: 2
#     Edge 21, Type (0, 1), BuildingBlock: AJUNOK_clean_linker_0, # of connection points: 2
#     Edge 22, Type (0, 1), BuildingBlock: AJUNOK_clean_linker_0, # of connection points: 2
#     Edge 23, Type (0, 1), BuildingBlock: AJUNOK_clean_linker_0, # of connection points: 2
#     Edge 24, Type (0, 1), BuildingBlock: AJUNOK_clean_linker_0, # of connection points: 2
#     Edge 25, Type (0, 1), BuildingBlock: AJUNOK_clean_linker_0, # of connection points: 2
#     Edge 26, Type (0, 1), BuildingBlock: AJUNOK_clean_linker_0, # of connection points: 2
# Relax obj value: 0.189
# Max RMSD: 0.216
# Mean RMSD: 0.157
data_MOF--net-anh--node1-GEDQOX_clean_sbu_0--node2-WUSLED_clean_sbu_0--edge1-AJUNOK_clean_linker_0
_symmetry_space_group_name_H-M    P1
_symmetry_Int_Tables_number       1
_symmetry_cell_setting            triclinic
loop_
_symmetry_equiv_pos_as_xyz
'x, y, z'
_cell_length_a     31.163488
_cell_length_b     30.255514
_cell_length_c     54.460581
_cell_angle_alpha  94.411346
_cell_angle_beta   90.392441
_cell_angle_gamma 102.86357
loop_
_atom_site_label
_atom_site_type_symbol
_atom_site_fract_x
_atom_site_fract_y
_atom_site_fract_z
_atom_type_partial_charge
Nd0 Nd 0.10839 0.57094 0.18149 0.0
Nd1 Nd 1.08597 0.46935 0.18201 0.0
C2 C 0.14675 0.65677 0.1755 0.0
C3 C 0.18805 0.68876 0.18505 0.0
C4 C 0.22178 0.70529 0.16887 0.0
C5 C 0.26104 0.73499 0.17771 0.0
C6 C 0.26757 0.74878 0.20299 0.0
C7 C 0.23358 0.73265 0.21911 0.0
C8 C 0.19444 0.70295 0.2103 0.0
C9 C 0.09524 0.54164 0.22793 0.0
C10 C 0.19042 0.5138 0.1781 0.0
C11 C 1.05007 0.38522 0.19293 0.0
C12 C 1.00625 0.35698 0.19886 0.0
C13 C 0.99058 0.35761 0.22305 0.0
C14 C 0.95056 0.32893 0.22874 0.0
C15 C 0.92515 0.29882 0.21042 0.0
C16 C 0.9407 0.29841 0.18623 0.0
C17 C 0.98069 0.32704 0.18053 0.0
C18 C 0.09953 0.50049 0.13623 0.0
C19 C 1.00392 0.52401 0.17693 0.0
O20 O 0.15112 0.62276 0.16009 0.0
O21 O 0.11555 0.64481 0.19122 0.0
O22 O 1.0825 0.57626 0.22039 0.0
O23 O 0.11618 0.52438 0.21136 0.0
O24 O 0.17693 0.55204 0.17608 0.0
O25 O 0.1617 0.476 0.18265 0.0
O26 O 1.06918 0.41771 0.20933 0.0
O27 O 1.05585 0.39696 0.17035 0.0
O28 O 0.11332 0.46555 0.14286 0.0
O29 O 1.07797 0.51601 0.15292 0.0
O30 O 1.01716 0.4887 0.18492 0.0
O31 O 1.03386 0.55984 0.17077 0.0
H32 H 0.21786 0.69506 0.14933 0.0
H33 H 0.28655 0.74677 0.1648 0.0
H34 H 0.23701 0.74341 0.23859 0.0
H35 H 0.16921 0.69116 0.22336 0.0
H36 H 1.00957 0.37972 0.23775 0.0
H37 H 0.94011 0.32948 0.24766 0.0
H38 H 0.92192 0.27576 0.17166 0.0
H39 H 0.99187 0.32527 0.16177 0.0
Nd40 Nd 0.53466 0.02495 0.55779 0.0
Nd41 Nd 0.63826 0.05576 0.54798 0.0
C42 C 0.45424 0.98313 0.56958 0.0
C43 C 0.42431 0.93987 0.56049 0.0
C44 C 0.38248 0.92652 0.57048 0.0
C45 C 0.3537 0.8859 0.56142 0.0
C46 C 0.36635 0.85782 0.54228 0.0
C47 C 0.40836 0.87152 0.53232 0.0
C48 C 0.43706 0.91205 0.54138 0.0
C49 C 0.55901 0.03884 0.51008 0.0
C50 C 0.59642 0.94749 0.55151 0.0
C51 C 0.71039 0.0879 0.52376 0.0
C52 C 0.7455 0.12937 0.52244 0.0
C53 C 0.76689 0.13723 0.50011 0.0
C54 C 0.79993 0.1764 0.49802 0.0
C55 C 0.81244 0.20854 0.51829 0.0
C56 C 0.79068 0.2008 0.54067 0.0
C57 C 0.75738 0.16156 0.54272 0.0
C58 C 0.62338 0.05908 0.59818 0.0
C59 C 0.57939 0.13194 0.56341 0.0
O60 O 0.48983 0.97973 0.58149 0.0
O61 O 0.46212 1.01454 0.55396 0.0
O62 O 0.5242 0.04924 0.51962 0.0
O63 O 0.57826 0.01989 0.52522 0.0
O64 O 0.55817 0.95785 0.55672 0.0
O65 O 0.6315 0.97836 0.54582 0.0
O66 O 0.67091 0.09043 0.51647 0.0
O67 O 0.71025 0.06469 0.54318 0.0
O68 O 0.66248 0.06942 0.58899 0.0
O69 O 0.59559 0.0487 0.58066 0.0
O70 O 0.61213 0.1215 0.55044 0.0
O71 O 0.54819 0.1002 0.57224 0.0
H72 H 0.37201 0.9476 0.5852 0.0
H73 H 0.3216 0.8763 0.56948 0.0
H74 H 0.41877 0.8513 0.5172 0.0
H75 H 0.46912 0.92193 0.5333 0.0
H76 H 0.75801 0.11296 0.4842 0.0
H77 H 0.81611 0.18131 0.48058 0.0
H78 H 0.79904 0.22533 0.55649 0.0
H79 H 0.74085 0.15644 0.56005 0.0
Nd80 Nd 0.52907 0.47794 0.84977 0.0
Nd81 Nd 0.62143 0.49142 0.86752 0.0
C82 C 0.45811 0.46129 0.82097 0.0
C83 C 0.4409 0.49261 0.80649 0.0
C84 C 0.40928 0.47692 0.7876 0.0
C85 C 0.3874 0.50741 0.7776 0.0
C86 C 0.39566 0.55324 0.78736 0.0
C87 C 0.43272 0.56944 0.80319 0.0
C88 C 0.45479 0.53931 0.8127 0.0
C89 C 0.53758 0.48277 0.90055 0.0
C90 C 0.5805 0.58165 0.8629 0.0
C91 C 0.69988 0.51297 0.88908 0.0
C92 C 0.74159 0.53993 0.88137 0.0
C93 C 0.78078 0.53336 0.89145 0.0
C94 C 0.82082 0.5535 0.88164 0.0
C95 C 0.82206 0.58041 0.86163 0.0
C96 C 0.78282 0.58798 0.85191 0.0
C97 C 0.74261 0.56754 0.86167 0.0
C98 C 0.61219 0.49217 0.81697 0.0
C99 C 0.57086 0.38882 0.85418 0.0
O100 O 0.4956 0.45316 0.81366 0.0
O101 O 0.45706 0.46949 0.84493 0.0
O102 O 0.50903 0.4994 0.8889 0.0
O103 O 0.55816 0.46162 0.88554 0.0
O104 O 0.54933 0.55494 0.84879 0.0
O105 O 0.60904 0.56427 0.87493 0.0
O106 O 0.68553 0.47536 0.87521 0.0
O107 O 0.66911 0.53502 0.89455 0.0
O108 O 0.64122 0.47457 0.82733 0.0
O109 O 0.59221 0.51072 0.83314 0.0
O110 O 0.60039 0.41456 0.86964 0.0
O111 O 0.54287 0.4067 0.84229 0.0
H112 H 0.39941 0.44097 0.78184 0.0
H113 H 0.36043 0.49398 0.76454 0.0
H114 H 0.44133 0.60412 0.81125 0.0
H115 H 0.47993 0.55218 0.82675 0.0
H116 H 0.78033 0.51162 0.9064 0.0
H117 H 0.85093 0.54784 0.88959 0.0
H118 H 0.78324 0.60865 0.83649 0.0
H119 H 0.7123 0.57213 0.85343 0.0
C120 C 0.68637 0.10323 0.24324 0.0
C121 C 0.70943 0.13303 0.2624 0.0
C122 C 0.76348 0.16871 0.23343 0.0
C123 C 0.74761 0.16546 0.25754 0.0
C124 C 0.74032 0.13853 0.21438 0.0
C125 C 0.70217 0.10625 0.21924 0.0
U126 U 0.60384 0.03799 0.28702 0.0
O127 O 0.56991 0.96557 0.28548 0.0
O128 O 0.53134 1.01794 0.2848 0.0
C129 C 0.5305 0.97415 0.28353 0.0
C130 C 0.646 0.06885 0.24789 0.0
C131 C 0.4976 0.94321 0.26636 0.0
C132 C 0.42458 0.92476 0.24638 0.0
C133 C 0.4595 0.95647 0.25852 0.0
C134 C 0.46543 0.86601 0.24881 0.0
C135 C 0.42656 0.87883 0.24202 0.0
C136 C 0.50035 0.89768 0.26094 0.0
C137 C 0.62469 0.06686 0.35707 0.0
C138 C 0.59397 0.02075 0.39019 0.0
C139 C 0.62679 0.10084 0.39915 0.0
C140 C 0.63639 0.10475 0.37425 0.0
C141 C 0.60534 0.05886 0.40738 0.0
C142 C 0.60332 0.02475 0.36519 0.0
C143 C 0.63579 0.07224 0.33098 0.0
O144 O 0.65207 0.03268 0.25812 0.0
O145 O 0.6133 0.08476 0.25745 0.0
O146 O 0.60927 0.09031 0.31809 0.0
O147 O 0.6478 0.03793 0.31879 0.0
H148 H 0.69796 0.1311 0.28111 0.0
H149 H 0.76508 0.18754 0.27272 0.0
H150 H 0.75152 0.14017 0.19562 0.0
H151 H 0.68492 0.08359 0.20419 0.0
H152 H 0.39512 0.93578 0.24144 0.0
H153 H 0.45577 0.99098 0.2627 0.0
H154 H 0.46848 0.83114 0.24525 0.0
H155 H 0.52883 0.88598 0.26693 0.0
H156 H 0.57726 0.98804 0.39604 0.0
H157 H 0.63644 0.13061 0.41204 0.0
H158 H 0.65309 0.13748 0.3684 0.0
H159 H 0.59387 0.99503 0.35225 0.0
C160 C 0.5965 0.66307 0.56264 0.0
C161 C 0.58127 0.68864 0.58192 0.0
C162 C 0.60193 0.75705 0.55972 0.0
C163 C 0.58381 0.73519 0.58042 0.0
C164 C 0.61785 0.73142 0.5407 0.0
C165 C 0.61515 0.68491 0.54218 0.0
U166 U 0.58853 0.551 0.59424 0.0
O167 O 0.54513 0.48379 0.58356 0.0
O168 O 0.61695 0.49372 0.58087 0.0
C169 C 0.57846 0.465 0.57812 0.0
C170 C 0.59163 0.61341 0.56277 0.0
C171 C 0.57564 0.41749 0.58422 0.0
C172 C 0.53615 0.33809 0.5779 0.0
C173 C 0.53669 0.38455 0.57822 0.0
C174 C 0.61286 0.35651 0.59096 0.0
C175 C 0.57474 0.32366 0.5833 0.0
C176 C 0.61337 0.40294 0.59139 0.0
C177 C 0.59724 0.55912 0.66614 0.0
C178 C 0.60172 0.50005 0.69334 0.0
C179 C 0.59723 0.57511 0.71051 0.0
C180 C 0.59565 0.58922 0.6868 0.0
C181 C 0.60045 0.53045 0.71414 0.0
C182 C 0.60015 0.51431 0.66946 0.0
C183 C 0.59649 0.57633 0.64162 0.0
O184 O 0.62648 0.59963 0.5699 0.0
O185 O 0.55478 0.5905 0.5715 0.0
O186 O 0.55851 0.56605 0.6295 0.0
O187 O 0.63021 0.5741 0.62758 0.0
H188 H 0.56684 0.67252 0.59793 0.0
H189 H 0.57137 0.75412 0.59538 0.0
H190 H 0.63122 0.74703 0.52434 0.0
H191 H 0.62689 0.66574 0.52704 0.0
H192 H 0.50635 0.31349 0.57191 0.0
H193 H 0.50727 0.39466 0.57229 0.0
H194 H 0.64289 0.34623 0.59557 0.0
H195 H 0.64402 0.42727 0.59601 0.0
H196 H 0.60348 0.46521 0.69553 0.0
H197 H 0.59651 0.59943 0.72609 0.0
H198 H 0.59349 0.62394 0.68459 0.0
H199 H 0.60126 0.49053 0.65367 0.0
C200 C 1.08635 0.65705 0.87581 0.0
C201 C 1.05501 0.67339 0.88993 0.0
C202 C 1.00285 0.65285 0.85534 0.0
C203 C 1.01349 0.67154 0.87967 0.0
C204 C 1.03535 0.63937 0.8408 0.0
C205 C 1.07699 0.64168 0.85099 0.0
U206 U 0.16004 0.63216 0.92846 0.0
O207 O 0.20367 0.58411 0.92522 0.0
O208 O 0.23216 0.65738 0.93146 0.0
C209 C 0.2383 0.61739 0.92298 0.0
C210 C 0.12671 0.65014 0.887 0.0
C211 C 0.25766 0.6168 0.89843 0.0
C212 C 0.24478 0.60598 0.85408 0.0
C213 C 0.22899 0.60409 0.87779 0.0
C214 C 0.31894 0.63348 0.87088 0.0
C215 C 0.28995 0.61968 0.8503 0.0
C216 C 0.30278 0.63246 0.89487 0.0
C217 C 0.12161 0.60846 0.99388 0.0
C218 C 0.13369 0.55105 1.02046 0.0
C219 C 0.11308 0.61907 0.0381 0.0
C220 C 0.11218 0.63467 1.01464 0.0
C221 C 0.12309 0.57671 0.04123 0.0
C222 C 0.13328 0.5669 0.99704 0.0
C223 C 0.11563 0.62318 0.96911 0.0
O224 O 0.14785 0.68199 0.90332 0.0
O225 O 0.12416 0.60877 0.89347 0.0
O226 O 0.11083 0.59123 0.95086 0.0
O227 O 0.14085 0.66219 0.96382 0.0
H228 H 1.06168 0.68492 0.90919 0.0
H229 H 0.98859 0.68105 0.89144 0.0
H230 H 1.0276 0.62429 0.82215 0.0
H231 H 0.10102 0.62877 0.83994 0.0
H232 H 0.22174 0.59495 0.83866 0.0
H233 H 0.19408 0.59192 0.87988 0.0
H234 H 0.35417 0.64314 0.86848 0.0
H235 H 0.32537 0.64318 0.9105 0.0
H236 H 0.14058 0.51785 0.02212 0.0
H237 H 0.10505 0.63977 0.05377 0.0
H238 H 0.10301 0.66674 1.01265 0.0
H239 H 0.14072 0.54586 0.98135 0.0
C240 C 1.02332 0.44149 0.49461 0.0
C241 C 1.00586 0.4083 0.47555 0.0
C242 C 0.95432 0.36672 0.50381 0.0
C243 C 0.97172 0.37129 0.48011 0.0
C244 C 0.97166 0.40041 0.52278 0.0
C245 C 1.0059 0.43736 0.51821 0.0
U246 U 0.0953 0.51466 0.45003 0.0
O247 O 0.16637 0.54613 0.45104 0.0
O248 O 0.11806 0.589 0.45024 0.0
C249 C 0.15992 0.58768 0.45161 0.0
C250 C 1.05917 0.48074 0.48997 0.0
C251 C 0.18924 0.62271 0.46827 0.0
C252 C 0.2023 0.68054 0.5029 0.0
C253 C 0.17388 0.64451 0.48905 0.0
C254 C 0.26167 0.67288 0.47563 0.0
C255 C 0.24653 0.69522 0.49628 0.0
C256 C 0.2334 0.63706 0.46187 0.0
C257 C 1.07583 0.48254 0.38081 0.0
C258 C 0.10501 0.53361 0.34959 0.0
C259 C 1.06619 0.4563 0.33733 0.0
C260 C 1.06009 0.44795 0.36215 0.0
C261 C 1.0878 0.49954 0.33082 0.0
C262 C 0.09913 0.52517 0.37439 0.0
C263 C 1.06603 0.47437 0.40671 0.0
O264 O 0.09486 0.47072 0.48048 0.0
O265 O 1.04691 0.51371 0.4794 0.0
O266 O 1.04805 0.50458 0.41886 0.0
O267 O 0.09711 0.46281 0.41951 0.0
H268 H 1.01869 0.41099 0.45715 0.0
H269 H 0.9592 0.34594 0.46511 0.0
H270 H 0.95838 0.39854 0.54108 0.0
H271 H 1.01865 0.46285 0.53311 0.0
H272 H 0.18965 0.69711 0.51869 0.0
H273 H 0.13988 0.63427 0.49433 0.0
H274 H 0.29513 0.684 0.46962 0.0
H275 H 0.24583 0.62123 0.44573 0.0
H276 H 0.12229 0.56707 0.34505 0.0
H277 H 1.05255 0.42954 0.32321 0.0
H278 H 1.04214 0.41478 0.36678 0.0
H279 H 0.11184 0.55221 0.38853 0.0
C280 C 0.59901 0.86861 0.84978 0.0
C281 C 0.58805 0.83662 0.82941 0.0
C282 C 0.59853 0.77625 0.85459 0.0
C283 C 0.58775 0.79076 0.83182 0.0
C284 C 0.61021 0.80869 0.87477 0.0
C285 C 0.6105 0.85441 0.87235 0.0
U286 U 0.59045 0.97802 0.81806 0.0
O287 O 0.62245 0.04807 0.83167 0.0
O288 O 0.55031 0.02556 0.83172 0.0
C289 C 0.58477 0.05925 0.83652 0.0
C290 C 0.59617 0.91632 0.84871 0.0
C291 C 0.58017 0.10552 0.83185 0.0
C292 C 0.53788 0.16376 0.83885 0.0
C293 C 0.54051 0.11819 0.83773 0.0
C294 C 0.61412 0.18502 0.82724 0.0
C295 C 0.5749 0.19775 0.83413 0.0
C296 C 0.61677 0.13932 0.82612 0.0
C297 C 0.58765 0.98004 0.74661 0.0
C298 C 0.60708 0.04413 0.72126 0.0
C299 C 0.57341 0.96928 0.70232 0.0
C300 C 0.57117 0.95184 0.72545 0.0
C301 C 0.59238 1.01537 0.69984 0.0
C302 C 0.60482 0.02659 0.74447 0.0
C303 C 0.58956 0.95901 0.77008 0.0
O304 O 0.6307 0.94428 0.84062 0.0
O305 O 0.55862 0.92315 0.84051 0.0
O306 O 0.55369 0.95236 0.78315 0.0
O307 O 0.62589 0.97335 0.78356 0.0
H308 H 0.57897 0.84695 0.81186 0.0
H309 H 0.57868 0.7665 0.81594 0.0
H310 H 0.61773 0.79853 0.89265 0.0
H311 H 0.61869 0.87862 0.88833 0.0
H312 H 0.5075 0.1726 0.84471 0.0
H313 H 0.51207 0.09313 0.84283 0.0
H314 H 0.64311 0.21059 0.82345 0.0
H315 H 0.64803 0.13086 0.82189 0.0
H316 H 0.62107 0.07998 0.72001 0.0
H317 H 0.56198 0.9462 0.68623 0.0
H318 H 0.55785 0.91583 0.72668 0.0
H319 H 0.61748 0.04908 0.76059 0.0
C320 C 0.71817 0.51504 0.16071 0.0
C321 C 0.74792 0.53517 0.14317 0.0
C322 C 0.81124 0.51723 0.165 0.0
C323 C 0.79364 0.53623 0.14529 0.0
C324 C 0.78115 0.49773 0.18256 0.0
C325 C 0.73574 0.49647 0.18037 0.0
U326 U 0.59779 0.51172 0.13269 0.0
O327 O 0.53444 0.47402 0.14696 0.0
O328 O 0.54815 0.54827 0.14788 0.0
C329 C 0.52003 0.51097 0.15305 0.0
C330 C 0.66956 0.51499 0.1604 0.0
C331 C 0.47091 0.50899 0.15252 0.0
C332 C 0.39779 0.4768 0.16875 0.0
C333 C 0.44259 0.47603 0.16542 0.0
C334 C 0.40724 0.54294 0.14572 0.0
C335 C 0.37912 0.51074 0.15939 0.0
C336 C 0.4523 0.54236 0.14256 0.0
C337 C 0.59316 0.50597 0.05855 0.0
C338 C 0.53732 0.49004 0.02543 0.0
C339 C 0.61445 0.51097 1.01568 0.0
C340 C 0.62568 0.51482 0.04078 0.0
C341 C 0.57021 0.49835 1.00757 0.0
C342 C 0.54871 0.49366 0.05075 0.0
C343 C 0.60802 0.50814 0.08462 0.0
O344 O 0.65701 0.55115 0.1538 0.0
O345 O 0.64148 0.4771 0.1528 0.0
O346 O 0.59649 0.47174 0.09689 0.0
O347 O 0.61199 0.54651 0.09842 0.0
H348 H 0.73592 0.55027 0.12788 0.0
H349 H 0.81523 0.5517 0.13133 0.0
H350 H 0.79274 0.48409 0.1985 0.0
H351 H 0.7142 0.48144 0.19449 0.0
H352 H 0.3781 0.4514 0.17947 0.0
H353 H 0.45555 0.45021 0.17379 0.0
H354 H 0.39456 0.56892 0.13739 0.0
H355 H 0.47271 0.56862 0.13266 0.0
H356 H 0.50294 0.47975 1.01981 0.0
H357 H 0.64058 0.51797 1.00254 0.0
H358 H 0.66022 0.52427 0.04634 0.0
H359 H 0.52304 0.48639 0.0641 0.0
C360 C 0.25293 0.47266 0.16903 0.0
C361 C 0.23883 0.51365 0.1741 0.0
C362 C 0.29759 0.47208 0.16423 0.0
C363 C 0.33104 0.51244 0.16425 0.0
H364 H 0.22911 0.44049 0.16839 0.0
H365 H 0.30579 0.43941 0.16011 0.0
S366 S 0.31283 0.62916 0.17849 0.0
N367 N 0.26324 0.59597 0.17984 0.0
N368 N 0.34615 0.59484 0.17151 0.0
C369 C 0.31743 0.55366 0.16974 0.0
C370 C 0.27192 0.55426 0.17448 0.0
C371 C 0.84726 0.27618 0.49557 0.0
C372 C 0.84804 0.24993 0.51577 0.0
C373 C 0.8814 0.314 0.49204 0.0
C374 C 0.91786 0.32716 0.50851 0.0
H375 H 0.81995 0.26742 0.48237 0.0
H376 H 0.87912 0.33319 0.47627 0.0
S377 S 0.93693 0.26839 0.56361 0.0
N378 N 0.88897 0.23902 0.55209 0.0
N379 N 0.95323 0.30981 0.54539 0.0
C380 C 0.91902 0.30124 0.52881 0.0
C381 C 0.88414 0.26277 0.53245 0.0
C382 C 0.55213 0.64869 0.85158 0.0
C383 C 0.58548 0.63176 0.86276 0.0
C384 C 0.5568 0.69521 0.84903 0.0
C385 C 0.59494 0.72706 0.85763 0.0
H386 H 0.52207 0.62585 0.84447 0.0
H387 H 0.53008 0.70635 0.84035 0.0
S388 S 0.69232 0.7012 0.88819 0.0
N389 N 0.6582 0.6511 0.88261 0.0
N390 N 0.66692 0.73866 0.87774 0.0
C391 C 0.62839 0.71095 0.86917 0.0
C392 C 0.62368 0.66335 0.87176 0.0
C393 C 0.93884 0.55889 0.16606 0.0
C394 C 0.95471 0.52181 0.1739 0.0
C395 C 0.89309 0.55705 0.16294 0.0
C396 C 0.8604 0.51807 0.16755 0.0
H397 H 0.96199 0.58991 0.16233 0.0
H398 H 0.88328 0.58693 0.15724 0.0
S399 S 0.88359 0.41003 0.18677 0.0
N400 N 0.93282 0.44383 0.18525 0.0
N401 N 0.84828 0.44027 0.17907 0.0
C402 C 0.87588 0.48048 0.175 0.0
C403 C 0.92234 0.48236 0.17822 0.0
C404 C 0.29153 0.81523 0.52596 0.0
C405 C 0.33544 0.81505 0.53221 0.0
C406 C 0.26263 0.77605 0.51505 0.0
C407 C 0.27645 0.7351 0.50996 0.0
H408 H 0.27975 0.84627 0.52883 0.0
H409 H 0.22963 0.7783 0.50982 0.0
S410 S 0.38629 0.71502 0.52565 0.0
N411 N 0.39002 0.7692 0.53451 0.0
N412 N 0.33588 0.6958 0.51407 0.0
C413 C 0.31974 0.73401 0.517 0.0
C414 C 0.34914 0.77386 0.52809 0.0
C415 C 0.60453 0.32193 0.85873 0.0
C416 C 0.57035 0.33972 0.84922 0.0
C417 C 0.60614 0.27627 0.85336 0.0
C418 C 0.57354 0.24649 0.83837 0.0
H419 H 0.63056 0.34344 0.8703 0.0
H420 H 0.6328 0.26402 0.86134 0.0
S421 S 0.47741 0.27569 0.80842 0.0
N422 N 0.50312 0.32351 0.82379 0.0
N423 N 0.5066 0.23792 0.81367 0.0
C424 C 0.53923 0.26366 0.82869 0.0
C425 C 0.53755 0.31018 0.8341 0.0
C426 C 0.56166 0.86668 0.559 0.0
C427 C 0.59923 0.89904 0.55269 0.0
C428 C 0.56307 0.82123 0.56138 0.0
C429 C 0.60197 0.80582 0.55742 0.0
H430 H 0.53065 0.87637 0.56231 0.0
H431 H 0.53317 0.79778 0.56612 0.0
S432 S 0.70983 0.87593 0.54089 0.0
N433 N 0.67687 0.91185 0.54268 0.0
N434 N 0.67925 0.82631 0.54719 0.0
C435 C 0.63977 0.83743 0.55098 0.0
C436 C 0.63847 0.88396 0.54863 0.0
C437 C 0.8939 0.57248 0.84503 0.0
C438 C 0.86502 0.60074 0.85166 0.0
C439 C 0.93886 0.59071 0.84301 0.0
C440 C 0.95612 0.63766 0.8478 0.0
H441 H 0.88223 0.53584 0.84346 0.0
H442 H 0.96059 0.56743 0.84029 0.0
S443 S 0.89271 0.72652 0.86014 0.0
N444 N 0.85527 0.67814 0.85868 0.0
N445 N 0.94036 0.71257 0.85492 0.0
C446 C 0.92689 0.66661 0.85139 0.0
C447 C 0.881 0.64804 0.85331 0.0
C448 C 0.32626 0.82088 0.20121 0.0
C449 C 0.30935 0.78044 0.21252 0.0
C450 C 0.36426 0.85224 0.21066 0.0
C451 C 0.3873 0.84421 0.23162 0.0
H452 H 0.30941 0.82888 0.18525 0.0
H453 H 0.37567 0.88307 0.20148 0.0
S454 S 0.35755 0.74282 0.26761 0.0
N455 N 0.31959 0.73349 0.24537 0.0
N456 N 0.39025 0.79247 0.2633 0.0
C457 C 0.37111 0.80354 0.24284 0.0
C458 C 0.33238 0.77175 0.23329 0.0
C459 C 0.54688 0.19431 0.5839 0.0
C460 C 0.57835 0.18098 0.5682 0.0
C461 C 0.54582 0.24042 0.58884 0.0
C462 C 0.57647 0.275 0.57847 0.0
H463 H 0.52287 0.16902 0.59256 0.0
H464 H 0.52109 0.24911 0.60101 0.0
S465 S 0.66357 0.25895 0.53479 0.0
N466 N 0.63972 0.207 0.54137 0.0
N467 N 0.63749 0.29295 0.55079 0.0
C468 C 0.60765 0.26228 0.56252 0.0
C469 C 0.60866 0.21552 0.55736 0.0
C470 C 0.31738 0.5514 0.79497 0.0
C471 C 0.35897 0.57763 0.78934 0.0
C472 C 0.29225 0.56747 0.81321 0.0
C473 C 0.30704 0.61079 0.82559 0.0
H474 H 0.30733 0.51573 0.78872 0.0
H475 H 0.26406 0.54363 0.8196 0.0
S476 S 0.39932 0.70084 0.807 0.0
N477 N 0.40303 0.65502 0.78928 0.0
N478 N 0.3562 0.68513 0.8244 0.0
C479 C 0.34257 0.64079 0.81586 0.0
C480 C 0.36782 0.62446 0.79694 0.0
C481 C 0.87588 0.2203 0.20796 0.0
C482 C 0.8835 0.26656 0.21658 0.0
C483 C 0.83724 0.18911 0.21354 0.0
C484 C 0.80446 0.20272 0.22804 0.0
H485 H 0.90028 0.20789 0.19702 0.0
H486 H 0.83324 0.15384 0.20665 0.0
S487 S 0.80659 0.32055 0.2536 0.0
N488 N 0.85377 0.32481 0.23935 0.0
N489 N 0.78135 0.26627 0.24989 0.0
C490 C 0.81142 0.24895 0.2366 0.0
C491 C 0.85079 0.28077 0.23087 0.0
C492 C 1.0762 0.54214 0.10284 0.0
C493 C 0.10669 0.51934 0.11209 0.0
C494 C 1.08202 0.56072 0.08003 0.0
C495 C 0.11899 0.55792 0.06577 0.0
H496 H 1.04717 0.54503 0.11313 0.0
H497 H 1.05691 0.57679 0.07334 0.0
S498 S 0.21086 0.50587 0.0833 0.0
N499 N 0.17628 0.49698 0.10619 0.0
N500 N 0.18822 0.5333 0.06356 0.0
C501 C 0.15037 0.53615 0.07518 0.0
C502 C 0.144 0.51656 0.0983 0.0
C503 C 0.5973 1.01783 0.47201 0.0
C504 C 0.5723 0.04568 0.48433 0.0
C505 C 0.60771 0.02208 0.44709 0.0
C506 C 0.59432 0.05501 0.43379 0.0
H507 H 0.60806 0.99189 0.48153 0.0
H508 H 0.62657 0.99961 0.43819 0.0
S509 S 0.53005 0.13766 0.45796 0.0
N510 N 0.53547 0.10805 0.48157 0.0
N511 N 0.55562 0.11651 0.43499 0.0
C512 C 0.5702 0.08371 0.4461 0.0
C513 C 0.55903 0.07891 0.4713 0.0
C514 C 0.57573 0.51919 0.78192 0.0
C515 C 0.60859 0.49827 0.79032 0.0
C516 C 0.57262 0.528 0.75718 0.0
C517 C 0.60222 0.51651 0.73972 0.0
H518 H 0.55258 0.52945 0.79464 0.0
H519 H 0.54691 0.54459 0.75171 0.0
S520 S 0.69402 0.46078 0.75212 0.0
N521 N 0.67082 0.46538 0.7791 0.0
N522 N 0.6654 0.48276 0.73259 0.0
C523 C 0.6347 0.4947 0.74774 0.0
C524 C 0.63777 0.48551 0.77301 0.0
C525 C 0.57263 0.03119 0.63213 0.0
C526 C 0.61454 0.05328 0.62466 0.0
C527 C 0.56524 0.02051 0.65666 0.0
C528 C 0.59936 0.032 0.67473 0.0
H529 H 0.54569 0.02071 0.6188 0.0
H530 H 0.53274 1.00231 0.66142 0.0
S531 S 0.71456 0.09252 0.6649 0.0
N532 N 0.69007 0.08836 0.63758 0.0
N533 N 0.6763 0.06816 0.68345 0.0
C534 C 0.64095 0.05576 0.66766 0.0
C535 C 0.6485 0.0664 0.6427 0.0
C536 C 0.57461 0.46497 0.93858 0.0
C537 C 0.54388 0.48597 0.92793 0.0
C538 C 0.58226 0.46849 0.96424 0.0
C539 C 0.55931 0.49315 0.98045 0.0
H540 H 0.5934 0.44576 0.92699 0.0
H541 H 0.60633 0.45185 0.97141 0.0
S542 S 0.47618 0.55585 0.96204 0.0
N543 N 0.49072 0.53304 0.93575 0.0
N544 N 0.50514 0.53974 0.98381 0.0
C545 C 0.52831 0.51414 0.97009 0.0
C546 C 0.52059 0.51068 0.9439 0.0
C547 C 0.10914 0.4939 0.26181 0.0
C548 C 0.09277 0.53048 0.25406 0.0
C549 C 0.10728 0.4837 0.28664 0.0
C550 C 0.0896 0.51016 0.30459 0.0
H551 H 0.12353 0.47306 0.24865 0.0
H552 H 0.12027 0.45534 0.29189 0.0
S553 S 1.04034 0.60799 0.2938 0.0
N554 N 1.05667 0.59203 0.26643 0.0
N555 N 1.05374 0.57302 0.31278 0.0
C556 C 1.07276 0.5464 0.29703 0.0
C557 C 1.07419 0.5565 0.27186 0.0
loop_
_geom_bond_atom_site_label_1
_geom_bond_atom_site_label_2
_geom_bond_distance
_geom_bond_site_symmetry_2
_ccdc_geom_bond_type
Nd0 C2 2.836 . S
Nd0 O20 2.500 . S
Nd0 O21 2.492 . S
Nd0 O22 2.487 . S
Nd0 O23 2.682 . S
Nd0 O24 2.410 . S
Nd0 O29 2.414 . S
Nd0 O31 2.424 1_455 S
Nd1 C11 2.836 . S
Nd1 O23 2.414 1_655 S
Nd1 O25 2.424 1_655 S
Nd1 O26 2.500 . S
Nd1 O27 2.492 . S
Nd1 O28 2.487 . S
Nd1 O29 2.682 1_655 S
Nd1 O30 2.410 . S
C2 Nd0 2.836 . S
C2 C3 1.498 . S
C2 O20 1.258 . S
C2 O21 1.239 . S
C3 C2 1.498 . S
C3 C4 1.366 . S
C3 C8 1.407 . S
C4 C3 1.366 . S
C4 C5 1.392 . S
C4 H32 0.930 . S
C5 C4 1.392 . S
C5 C6 1.398 . S
C5 H33 0.929 . S
C6 C5 1.398 . S
C6 C7 1.352 . S
C7 C6 1.352 . S
C7 C8 1.384 . S
C7 H34 0.930 . S
C8 C3 1.407 . S
C8 C7 1.384 . S
C8 H35 0.929 . S
C9 O22 1.241 . S
C9 O23 1.273 . S
C10 O24 1.251 . S
C10 O25 1.268 . S
C11 Nd1 2.836 . S
C11 C12 1.498 . S
C11 O26 1.258 . S
C11 O27 1.239 . S
C12 C11 1.498 . S
C12 C13 1.366 . S
C12 C17 1.407 . S
C13 C12 1.366 . S
C13 C14 1.392 . S
C13 H36 0.930 . S
C14 C13 1.392 . S
C14 C15 1.398 . S
C14 H37 0.929 . S
C15 C14 1.398 . S
C15 C16 1.352 . S
C16 C15 1.352 . S
C16 C17 1.384 . S
C16 H38 0.930 . S
C17 C12 1.407 . S
C17 C16 1.384 . S
C17 H39 0.929 . S
C18 O28 1.241 1_455 S
C18 O29 1.273 . S
C19 O30 1.251 . S
C19 O31 1.268 . S
O20 Nd0 2.500 . S
O20 C2 1.258 . S
O21 Nd0 2.492 . S
O21 C2 1.239 . S
O22 Nd0 2.487 . S
O22 C9 1.241 . S
O23 Nd0 2.682 . S
O23 Nd1 2.414 1_455 S
O23 C9 1.273 . S
O24 Nd0 2.410 . S
O24 C10 1.251 . S
O25 Nd1 2.424 1_455 S
O25 C10 1.268 . S
O26 Nd1 2.500 . S
O26 C11 1.258 . S
O27 Nd1 2.492 . S
O27 C11 1.239 . S
O28 Nd1 2.487 . S
O28 C18 1.241 1_655 S
O29 Nd0 2.414 . S
O29 Nd1 2.682 1_455 S
O29 C18 1.273 . S
O30 Nd1 2.410 . S
O30 C19 1.251 . S
O31 Nd0 2.424 1_655 S
O31 C19 1.268 . S
H32 C4 0.930 . S
H33 C5 0.929 . S
H34 C7 0.930 . S
H35 C8 0.929 . S
H36 C13 0.930 . S
H37 C14 0.929 . S
H38 C16 0.930 . S
H39 C17 0.929 . S
Nd40 C42 2.836 . S
Nd40 O60 2.500 . S
Nd40 O61 2.492 . S
Nd40 O62 2.487 . S
Nd40 O63 2.682 1_565 S
Nd40 O64 2.410 . S
Nd40 O69 2.414 1_565 S
Nd40 O71 2.424 1_565 S
Nd41 C51 2.836 . S
Nd41 O63 2.414 . S
Nd41 O65 2.424 1_545 S
Nd41 O66 2.500 . S
Nd41 O67 2.492 . S
Nd41 O68 2.487 . S
Nd41 O69 2.682 . S
Nd41 O70 2.410 . S
C42 Nd40 2.836 . S
C42 C43 1.498 . S
C42 O60 1.258 . S
C42 O61 1.239 . S
C43 C42 1.498 . S
C43 C44 1.366 . S
C43 C48 1.407 . S
C44 C43 1.366 . S
C44 C45 1.392 . S
C44 H72 0.930 . S
C45 C44 1.392 . S
C45 C46 1.398 . S
C45 H73 0.929 . S
C46 C45 1.398 . S
C46 C47 1.352 . S
C47 C46 1.352 . S
C47 C48 1.384 . S
C47 H74 0.930 . S
C48 C43 1.407 . S
C48 C47 1.384 . S
C48 H75 0.929 . S
C49 O62 1.241 1_545 S
C49 O63 1.273 . S
C50 O64 1.251 . S
C50 O65 1.268 . S
C51 Nd41 2.836 . S
C51 C52 1.498 . S
C51 O66 1.258 . S
C51 O67 1.239 . S
C52 C51 1.498 . S
C52 C53 1.366 . S
C52 C57 1.407 . S
C53 C52 1.366 . S
C53 C54 1.392 . S
C53 H76 0.930 . S
C54 C53 1.392 . S
C54 C55 1.398 . S
C54 H77 0.929 . S
C55 C54 1.398 . S
C55 C56 1.352 . S
C56 C55 1.352 . S
C56 C57 1.384 . S
C56 H78 0.930 . S
C57 C52 1.407 . S
C57 C56 1.384 . S
C57 H79 0.929 . S
C58 O68 1.241 . S
C58 O69 1.273 . S
C59 O70 1.251 . S
C59 O71 1.268 . S
O60 Nd40 2.500 . S
O60 C42 1.258 . S
O61 Nd40 2.492 . S
O61 C42 1.239 . S
O62 Nd40 2.487 . S
O62 C49 1.241 1_565 S
O63 Nd40 2.682 1_545 S
O63 Nd41 2.414 . S
O63 C49 1.273 . S
O64 Nd40 2.410 . S
O64 C50 1.251 . S
O65 Nd41 2.424 1_565 S
O65 C50 1.268 . S
O66 Nd41 2.500 . S
O66 C51 1.258 . S
O67 Nd41 2.492 . S
O67 C51 1.239 . S
O68 Nd41 2.487 . S
O68 C58 1.241 . S
O69 Nd40 2.414 1_545 S
O69 Nd41 2.682 . S
O69 C58 1.273 . S
O70 Nd41 2.410 . S
O70 C59 1.251 . S
O71 Nd40 2.424 1_545 S
O71 C59 1.268 . S
H72 C44 0.930 . S
H73 C45 0.929 . S
H74 C47 0.930 . S
H75 C48 0.929 . S
H76 C53 0.930 . S
H77 C54 0.929 . S
H78 C56 0.930 . S
H79 C57 0.929 . S
Nd80 C82 2.836 . S
Nd80 O100 2.500 . S
Nd80 O101 2.492 . S
Nd80 O102 2.487 . S
Nd80 O103 2.682 . S
Nd80 O104 2.410 . S
Nd80 O109 2.414 . S
Nd80 O111 2.424 . S
Nd81 C91 2.836 . S
Nd81 O103 2.414 . S
Nd81 O105 2.424 . S
Nd81 O106 2.500 . S
Nd81 O107 2.492 . S
Nd81 O108 2.487 . S
Nd81 O109 2.682 . S
Nd81 O110 2.410 . S
C82 Nd80 2.836 . S
C82 C83 1.498 . S
C82 O100 1.258 . S
C82 O101 1.239 . S
C83 C82 1.498 . S
C83 C84 1.366 . S
C83 C88 1.407 . S
C84 C83 1.366 . S
C84 C85 1.392 . S
C84 H112 0.930 . S
C85 C84 1.392 . S
C85 C86 1.398 . S
C85 H113 0.929 . S
C86 C85 1.398 . S
C86 C87 1.352 . S
C87 C86 1.352 . S
C87 C88 1.384 . S
C87 H114 0.930 . S
C88 C83 1.407 . S
C88 C87 1.384 . S
C88 H115 0.929 . S
C89 O102 1.241 . S
C89 O103 1.273 . S
C90 O104 1.251 . S
C90 O105 1.268 . S
C91 Nd81 2.836 . S
C91 C92 1.498 . S
C91 O106 1.258 . S
C91 O107 1.239 . S
C92 C91 1.498 . S
C92 C93 1.366 . S
C92 C97 1.407 . S
C93 C92 1.366 . S
C93 C94 1.392 . S
C93 H116 0.930 . S
C94 C93 1.392 . S
C94 C95 1.398 . S
C94 H117 0.929 . S
C95 C94 1.398 . S
C95 C96 1.352 . S
C96 C95 1.352 . S
C96 C97 1.384 . S
C96 H118 0.930 . S
C97 C92 1.407 . S
C97 C96 1.384 . S
C97 H119 0.929 . S
C98 O108 1.241 . S
C98 O109 1.273 . S
C99 O110 1.251 . S
C99 O111 1.268 . S
O100 Nd80 2.500 . S
O100 C82 1.258 . S
O101 Nd80 2.492 . S
O101 C82 1.239 . S
O102 Nd80 2.487 . S
O102 C89 1.241 . S
O103 Nd80 2.682 . S
O103 Nd81 2.414 . S
O103 C89 1.273 . S
O104 Nd80 2.410 . S
O104 C90 1.251 . S
O105 Nd81 2.424 . S
O105 C90 1.268 . S
O106 Nd81 2.500 . S
O106 C91 1.258 . S
O107 Nd81 2.492 . S
O107 C91 1.239 . S
O108 Nd81 2.487 . S
O108 C98 1.241 . S
O109 Nd80 2.414 . S
O109 Nd81 2.682 . S
O109 C98 1.273 . S
O110 Nd81 2.410 . S
O110 C99 1.251 . S
O111 Nd80 2.424 . S
O111 C99 1.268 . S
H112 C84 0.930 . S
H113 C85 0.929 . S
H114 C87 0.930 . S
H115 C88 0.929 . S
H116 C93 0.930 . S
H117 C94 0.929 . S
H118 C96 0.930 . S
H119 C97 0.929 . S
C120 C121 1.264 . S
C120 C125 1.479 . S
C120 C130 1.465 . S
C121 C120 1.264 . S
C121 C123 1.339 . S
C121 H148 0.931 . S
C122 C123 1.395 . S
C122 C124 1.320 . S
C123 C121 1.339 . S
C123 C122 1.395 . S
C123 H149 0.929 . S
C124 C122 1.320 . S
C124 C125 1.405 . S
C124 H150 0.930 . S
C125 C120 1.479 . S
C125 C124 1.405 . S
C125 H151 0.931 . S
U126 O127 2.454 1_545 S
U126 O128 2.458 1_545 S
U126 C129 2.984 1_545 S
U126 C130 2.847 . S
U126 C143 2.882 . S
U126 O144 2.441 . S
U126 O145 2.420 . S
U126 O146 2.455 . S
U126 O147 2.449 . S
O127 U126 2.454 1_565 S
O127 C129 1.353 . S
O128 U126 2.458 1_565 S
O128 C129 1.286 . S
C129 U126 2.984 1_565 S
C129 O127 1.353 . S
C129 O128 1.286 . S
C129 C131 1.363 . S
C130 C120 1.465 . S
C130 U126 2.847 . S
C130 O144 1.249 . S
C130 O145 1.202 . S
C131 C129 1.363 . S
C131 C133 1.408 . S
C131 C136 1.342 . S
C132 C133 1.310 . S
C132 C135 1.461 . S
C132 H152 0.932 . S
C133 C131 1.408 . S
C133 C132 1.310 . S
C133 H153 0.930 . S
C134 C135 1.474 . S
C134 C136 1.285 . S
C134 H154 0.929 . S
C135 C132 1.461 . S
C135 C134 1.474 . S
C136 C131 1.342 . S
C136 C134 1.285 . S
C136 H155 0.930 . S
C137 C140 1.424 . S
C137 C142 1.245 . S
C137 C143 1.428 . S
C138 C141 1.260 . S
C138 C142 1.477 . S
C138 H156 0.932 . S
C139 C140 1.384 . S
C139 C141 1.479 . S
C139 H157 0.929 . S
C140 C137 1.424 . S
C140 C139 1.384 . S
C140 H158 0.928 . S
C141 C138 1.260 . S
C141 C139 1.479 . S
C142 C137 1.245 . S
C142 C138 1.477 . S
C142 H159 0.932 1_545 S
C143 U126 2.882 . S
C143 C137 1.428 . S
C143 O146 1.301 . S
C143 O147 1.282 . S
O144 U126 2.441 . S
O144 C130 1.249 . S
O145 U126 2.420 . S
O145 C130 1.202 . S
O146 U126 2.455 . S
O146 C143 1.301 . S
O147 U126 2.449 . S
O147 C143 1.282 . S
H148 C121 0.931 . S
H149 C123 0.929 . S
H150 C124 0.930 . S
H151 C125 0.931 . S
H152 C132 0.932 . S
H153 C133 0.930 . S
H154 C134 0.929 . S
H155 C136 0.930 . S
H156 C138 0.932 . S
H157 C139 0.929 . S
H158 C140 0.928 . S
H159 C142 0.932 1_565 S
C160 C161 1.264 . S
C160 C165 1.479 . S
C160 C170 1.465 . S
C161 C160 1.264 . S
C161 C163 1.339 . S
C161 H188 0.931 . S
C162 C163 1.395 . S
C162 C164 1.320 . S
C163 C161 1.339 . S
C163 C162 1.395 . S
C163 H189 0.929 . S
C164 C162 1.320 . S
C164 C165 1.405 . S
C164 H190 0.930 . S
C165 C160 1.479 . S
C165 C164 1.405 . S
C165 H191 0.931 . S
U166 O167 2.454 . S
U166 O168 2.458 . S
U166 C169 2.984 . S
U166 C170 2.847 . S
U166 C183 2.882 . S
U166 O184 2.441 . S
U166 O185 2.420 . S
U166 O186 2.455 . S
U166 O187 2.449 . S
O167 U166 2.454 . S
O167 C169 1.353 . S
O168 U166 2.458 . S
O168 C169 1.286 . S
C169 U166 2.984 . S
C169 O167 1.353 . S
C169 O168 1.286 . S
C169 C171 1.363 . S
C170 C160 1.465 . S
C170 U166 2.847 . S
C170 O184 1.249 . S
C170 O185 1.202 . S
C171 C169 1.363 . S
C171 C173 1.408 . S
C171 C176 1.342 . S
C172 C173 1.310 . S
C172 C175 1.461 . S
C172 H192 0.932 . S
C173 C171 1.408 . S
C173 C172 1.310 . S
C173 H193 0.930 . S
C174 C175 1.474 . S
C174 C176 1.285 . S
C174 H194 0.929 . S
C175 C172 1.461 . S
C175 C174 1.474 . S
C176 C171 1.342 . S
C176 C174 1.285 . S
C176 H195 0.930 . S
C177 C180 1.424 . S
C177 C182 1.245 . S
C177 C183 1.428 . S
C178 C181 1.260 . S
C178 C182 1.477 . S
C178 H196 0.932 . S
C179 C180 1.384 . S
C179 C181 1.479 . S
C179 H197 0.929 . S
C180 C177 1.424 . S
C180 C179 1.384 . S
C180 H198 0.928 . S
C181 C178 1.260 . S
C181 C179 1.479 . S
C182 C177 1.245 . S
C182 C178 1.477 . S
C182 H199 0.932 . S
C183 U166 2.882 . S
C183 C177 1.428 . S
C183 O186 1.301 . S
C183 O187 1.282 . S
O184 U166 2.441 . S
O184 C170 1.249 . S
O185 U166 2.420 . S
O185 C170 1.202 . S
O186 U166 2.455 . S
O186 C183 1.301 . S
O187 U166 2.449 . S
O187 C183 1.282 . S
H188 C161 0.931 . S
H189 C163 0.929 . S
H190 C164 0.930 . S
H191 C165 0.931 . S
H192 C172 0.932 . S
H193 C173 0.930 . S
H194 C174 0.929 . S
H195 C176 0.930 . S
H196 C178 0.932 . S
H197 C179 0.929 . S
H198 C180 0.928 . S
H199 C182 0.932 . S
C200 C201 1.264 . S
C200 C205 1.479 . S
C200 C210 1.465 . S
C201 C200 1.264 . S
C201 C203 1.339 . S
C201 H228 0.931 . S
C202 C203 1.395 . S
C202 C204 1.320 . S
C203 C201 1.339 . S
C203 C202 1.395 . S
C203 H229 0.929 . S
C204 C202 1.320 . S
C204 C205 1.405 . S
C204 H230 0.930 . S
C205 C200 1.479 . S
C205 C204 1.405 . S
C205 H231 0.931 . S
U206 O207 2.454 . S
U206 O208 2.458 . S
U206 C209 2.984 . S
U206 C210 2.847 1_455 S
U206 C223 2.882 . S
U206 O224 2.441 1_455 S
U206 O225 2.420 1_455 S
U206 O226 2.455 . S
U206 O227 2.449 1_455 S
O207 U206 2.454 . S
O207 C209 1.353 . S
O208 U206 2.458 . S
O208 C209 1.286 . S
C209 U206 2.984 . S
C209 O207 1.353 . S
C209 O208 1.286 . S
C209 C211 1.363 . S
C210 C200 1.465 . S
C210 U206 2.847 1_655 S
C210 O224 1.249 . S
C210 O225 1.202 . S
C211 C209 1.363 . S
C211 C213 1.408 . S
C211 C216 1.342 . S
C212 C213 1.310 . S
C212 C215 1.461 . S
C212 H232 0.932 . S
C213 C211 1.408 . S
C213 C212 1.310 . S
C213 H233 0.930 . S
C214 C215 1.474 . S
C214 C216 1.285 . S
C214 H234 0.929 . S
C215 C212 1.461 . S
C215 C214 1.474 . S
C216 C211 1.342 . S
C216 C214 1.285 . S
C216 H235 0.930 . S
C217 C220 1.424 1_455 S
C217 C222 1.245 . S
C217 C223 1.428 . S
C218 C221 1.260 . S
C218 C222 1.477 1_554 S
C218 H236 0.932 . S
C219 C220 1.384 1_554 S
C219 C221 1.479 1_655 S
C219 H237 0.929 . S
C220 C217 1.424 1_655 S
C220 C219 1.384 1_556 S
C220 H238 0.928 . S
C221 C218 1.260 . S
C221 C219 1.479 1_455 S
C222 C217 1.245 . S
C222 C218 1.477 1_556 S
C222 H239 0.932 . S
C223 U206 2.882 . S
C223 C217 1.428 . S
C223 O226 1.301 . S
C223 O227 1.282 1_455 S
O224 U206 2.441 1_655 S
O224 C210 1.249 . S
O225 U206 2.420 1_655 S
O225 C210 1.202 . S
O226 U206 2.455 . S
O226 C223 1.301 . S
O227 U206 2.449 1_655 S
O227 C223 1.282 1_655 S
H228 C201 0.931 . S
H229 C203 0.929 . S
H230 C204 0.930 . S
H231 C205 0.931 . S
H232 C212 0.932 . S
H233 C213 0.930 . S
H234 C214 0.929 . S
H235 C216 0.930 . S
H236 C218 0.932 . S
H237 C219 0.929 . S
H238 C220 0.928 . S
H239 C222 0.932 . S
C240 C241 1.264 . S
C240 C245 1.479 . S
C240 C250 1.465 . S
C241 C240 1.264 . S
C241 C243 1.339 . S
C241 H268 0.931 . S
C242 C243 1.395 . S
C242 C244 1.320 . S
C243 C241 1.339 . S
C243 C242 1.395 . S
C243 H269 0.929 . S
C244 C242 1.320 . S
C244 C245 1.405 . S
C244 H270 0.930 . S
C245 C240 1.479 . S
C245 C244 1.405 . S
C245 H271 0.931 . S
U246 O247 2.454 1_655 S
U246 O248 2.458 1_655 S
U246 C249 2.984 1_655 S
U246 C250 2.847 . S
U246 C263 2.882 . S
U246 O264 2.441 . S
U246 O265 2.420 . S
U246 O266 2.455 1_655 S
U246 O267 2.449 . S
O247 U246 2.454 1_455 S
O247 C249 1.353 . S
O248 U246 2.458 1_455 S
O248 C249 1.286 . S
C249 U246 2.984 1_455 S
C249 O247 1.353 . S
C249 O248 1.286 . S
C249 C251 1.363 . S
C250 C240 1.465 . S
C250 U246 2.847 . S
C250 O264 1.249 . S
C250 O265 1.202 . S
C251 C249 1.363 . S
C251 C253 1.408 . S
C251 C256 1.342 . S
C252 C253 1.310 . S
C252 C255 1.461 . S
C252 H272 0.932 . S
C253 C251 1.408 . S
C253 C252 1.310 . S
C253 H273 0.930 . S
C254 C255 1.474 . S
C254 C256 1.285 . S
C254 H274 0.929 . S
C255 C252 1.461 . S
C255 C254 1.474 . S
C256 C251 1.342 . S
C256 C254 1.285 . S
C256 H275 0.930 . S
C257 C260 1.424 . S
C257 C262 1.245 1_655 S
C257 C263 1.428 . S
C258 C261 1.260 1_455 S
C258 C262 1.477 . S
C258 H276 0.932 . S
C259 C260 1.384 . S
C259 C261 1.479 . S
C259 H277 0.929 . S
C260 C257 1.424 . S
C260 C259 1.384 . S
C260 H278 0.928 . S
C261 C258 1.260 1_655 S
C261 C259 1.479 . S
C262 C257 1.245 1_455 S
C262 C258 1.477 . S
C262 H279 0.932 . S
C263 U246 2.882 . S
C263 C257 1.428 . S
C263 O266 1.301 1_655 S
C263 O267 1.282 . S
O264 U246 2.441 . S
O264 C250 1.249 . S
O265 U246 2.420 . S
O265 C250 1.202 . S
O266 U246 2.455 1_455 S
O266 C263 1.301 1_455 S
O267 U246 2.449 . S
O267 C263 1.282 . S
H268 C241 0.931 . S
H269 C243 0.929 . S
H270 C244 0.930 . S
H271 C245 0.931 . S
H272 C252 0.932 . S
H273 C253 0.930 . S
H274 C254 0.929 . S
H275 C256 0.930 . S
H276 C258 0.932 . S
H277 C259 0.929 . S
H278 C260 0.928 . S
H279 C262 0.932 . S
C280 C281 1.264 . S
C280 C285 1.479 . S
C280 C290 1.465 . S
C281 C280 1.264 . S
C281 C283 1.339 . S
C281 H308 0.931 . S
C282 C283 1.395 . S
C282 C284 1.320 . S
C283 C281 1.339 . S
C283 C282 1.395 . S
C283 H309 0.929 . S
C284 C282 1.320 . S
C284 C285 1.405 . S
C284 H310 0.930 . S
C285 C280 1.479 . S
C285 C284 1.405 . S
C285 H311 0.931 . S
U286 O287 2.460 . S
U286 O288 2.469 . S
U286 C289 2.994 . S
U286 C290 2.837 1_545 S
U286 C303 2.883 1_545 S
U286 O304 2.434 1_545 S
U286 O305 2.409 1_545 S
U286 O306 2.460 . S
U286 O307 2.444 1_545 S
O287 U286 2.460 . S
O287 C289 1.353 . S
O288 U286 2.469 . S
O288 C289 1.286 . S
C289 U286 2.994 . S
C289 O287 1.353 . S
C289 O288 1.286 . S
C289 C291 1.363 . S
C290 C280 1.465 . S
C290 U286 2.837 1_565 S
C290 O304 1.249 . S
C290 O305 1.202 . S
C291 C289 1.363 . S
C291 C293 1.408 . S
C291 C296 1.342 . S
C292 C293 1.310 . S
C292 C295 1.461 . S
C292 H312 0.932 . S
C293 C291 1.408 . S
C293 C292 1.310 . S
C293 H313 0.930 . S
C294 C295 1.474 . S
C294 C296 1.285 . S
C294 H314 0.929 . S
C295 C292 1.461 . S
C295 C294 1.474 . S
C296 C291 1.342 . S
C296 C294 1.285 . S
C296 H315 0.930 . S
C297 C300 1.424 . S
C297 C302 1.245 1_565 S
C297 C303 1.428 . S
C298 C301 1.260 1_545 S
C298 C302 1.477 . S
C298 H316 0.932 . S
C299 C300 1.384 . S
C299 C301 1.479 . S
C299 H317 0.929 . S
C300 C297 1.424 . S
C300 C299 1.384 . S
C300 H318 0.928 . S
C301 C298 1.260 1_565 S
C301 C299 1.479 . S
C302 C297 1.245 1_545 S
C302 C298 1.477 . S
C302 H319 0.932 . S
C303 U286 2.883 1_565 S
C303 C297 1.428 . S
C303 O306 1.301 1_565 S
C303 O307 1.282 . S
O304 U286 2.434 1_565 S
O304 C290 1.249 . S
O305 U286 2.409 1_565 S
O305 C290 1.202 . S
O306 U286 2.460 . S
O306 C303 1.301 1_545 S
O307 U286 2.444 1_565 S
O307 C303 1.282 . S
H308 C281 0.931 . S
H309 C283 0.929 . S
H310 C284 0.930 . S
H311 C285 0.931 . S
H312 C292 0.932 . S
H313 C293 0.930 . S
H314 C294 0.929 . S
H315 C296 0.930 . S
H316 C298 0.932 . S
H317 C299 0.929 . S
H318 C300 0.928 . S
H319 C302 0.932 . S
C320 C321 1.264 . S
C320 C325 1.479 . S
C320 C330 1.465 . S
C321 C320 1.264 . S
C321 C323 1.339 . S
C321 H348 0.931 . S
C322 C323 1.395 . S
C322 C324 1.320 . S
C323 C321 1.339 . S
C323 C322 1.395 . S
C323 H349 0.929 . S
C324 C322 1.320 . S
C324 C325 1.405 . S
C324 H350 0.930 . S
C325 C320 1.479 . S
C325 C324 1.405 . S
C325 H351 0.931 . S
U326 O327 2.454 . S
U326 O328 2.458 . S
U326 C329 2.984 . S
U326 C330 2.847 . S
U326 C343 2.882 . S
U326 O344 2.441 . S
U326 O345 2.420 . S
U326 O346 2.455 . S
U326 O347 2.449 . S
O327 U326 2.454 . S
O327 C329 1.353 . S
O328 U326 2.458 . S
O328 C329 1.286 . S
C329 U326 2.984 . S
C329 O327 1.353 . S
C329 O328 1.286 . S
C329 C331 1.363 . S
C330 C320 1.465 . S
C330 U326 2.847 . S
C330 O344 1.249 . S
C330 O345 1.202 . S
C331 C329 1.363 . S
C331 C333 1.408 . S
C331 C336 1.342 . S
C332 C333 1.310 . S
C332 C335 1.461 . S
C332 H352 0.932 . S
C333 C331 1.408 . S
C333 C332 1.310 . S
C333 H353 0.930 . S
C334 C335 1.474 . S
C334 C336 1.285 . S
C334 H354 0.929 . S
C335 C332 1.461 . S
C335 C334 1.474 . S
C336 C331 1.342 . S
C336 C334 1.285 . S
C336 H355 0.930 . S
C337 C340 1.424 . S
C337 C342 1.245 . S
C337 C343 1.428 . S
C338 C341 1.260 . S
C338 C342 1.477 1_556 S
C338 H356 0.932 . S
C339 C340 1.411 . S
C339 C341 1.465 1_554 S
C339 H357 0.917 1_554 S
C340 C337 1.424 . S
C340 C339 1.411 . S
C340 H358 0.928 . S
C341 C338 1.260 . S
C341 C339 1.465 1_556 S
C342 C337 1.245 . S
C342 C338 1.477 1_554 S
C342 H359 0.932 . S
C343 U326 2.882 . S
C343 C337 1.428 . S
C343 O346 1.301 . S
C343 O347 1.282 . S
O344 U326 2.441 . S
O344 C330 1.249 . S
O345 U326 2.420 . S
O345 C330 1.202 . S
O346 U326 2.455 . S
O346 C343 1.301 . S
O347 U326 2.449 . S
O347 C343 1.282 . S
H348 C321 0.931 . S
H349 C323 0.929 . S
H350 C324 0.930 . S
H351 C325 0.931 . S
H352 C332 0.932 . S
H353 C333 0.930 . S
H354 C334 0.929 . S
H355 C336 0.930 . S
H356 C338 0.932 . S
H357 C339 0.917 1_556 S
H358 C340 0.928 . S
H359 C342 0.932 . S
C360 C361 1.369 . S
C360 C362 1.419 . S
C360 H364 0.930 . S
C361 C360 1.369 . S
C361 C370 1.429 . S
C362 C360 1.419 . S
C362 C363 1.363 . S
C362 H365 0.929 . S
C363 C362 1.363 . S
C363 C369 1.428 . S
H364 C360 0.930 . S
H365 C362 0.929 . S
S366 N367 1.613 . S
S366 N368 1.610 . S
N367 S366 1.613 . S
N367 C370 1.350 . S
N368 S366 1.610 . S
N368 C369 1.351 . S
C369 C363 1.428 . S
C369 N368 1.351 . S
C369 C370 1.434 . S
C370 C361 1.429 . S
C370 N367 1.350 . S
C370 C369 1.434 . S
C371 C372 1.369 . S
C371 C373 1.419 . S
C371 H375 0.930 . S
C372 C371 1.369 . S
C372 C381 1.429 . S
C373 C371 1.419 . S
C373 C374 1.363 . S
C373 H376 0.929 . S
C374 C373 1.363 . S
C374 C380 1.428 . S
H375 C371 0.930 . S
H376 C373 0.929 . S
S377 N378 1.613 . S
S377 N379 1.610 . S
N378 S377 1.613 . S
N378 C381 1.350 . S
N379 S377 1.610 . S
N379 C380 1.351 . S
C380 C374 1.428 . S
C380 N379 1.351 . S
C380 C381 1.434 . S
C381 C372 1.429 . S
C381 N378 1.350 . S
C381 C380 1.434 . S
C382 C383 1.369 . S
C382 C384 1.419 . S
C382 H386 0.930 . S
C383 C382 1.369 . S
C383 C392 1.429 . S
C384 C382 1.419 . S
C384 C385 1.363 . S
C384 H387 0.929 . S
C385 C384 1.363 . S
C385 C391 1.428 . S
H386 C382 0.930 . S
H387 C384 0.929 . S
S388 N389 1.613 . S
S388 N390 1.610 . S
N389 S388 1.613 . S
N389 C392 1.350 . S
N390 S388 1.610 . S
N390 C391 1.351 . S
C391 C385 1.428 . S
C391 N390 1.351 . S
C391 C392 1.434 . S
C392 C383 1.429 . S
C392 N389 1.350 . S
C392 C391 1.434 . S
C393 C394 1.369 . S
C393 C395 1.419 . S
C393 H397 0.930 . S
C394 C393 1.369 . S
C394 C403 1.429 . S
C395 C393 1.419 . S
C395 C396 1.363 . S
C395 H398 0.929 . S
C396 C395 1.363 . S
C396 C402 1.428 . S
H397 C393 0.930 . S
H398 C395 0.929 . S
S399 N400 1.613 . S
S399 N401 1.610 . S
N400 S399 1.613 . S
N400 C403 1.350 . S
N401 S399 1.610 . S
N401 C402 1.351 . S
C402 C396 1.428 . S
C402 N401 1.351 . S
C402 C403 1.434 . S
C403 C394 1.429 . S
C403 N400 1.350 . S
C403 C402 1.434 . S
C404 C405 1.369 . S
C404 C406 1.419 . S
C404 H408 0.930 . S
C405 C404 1.369 . S
C405 C414 1.429 . S
C406 C404 1.419 . S
C406 C407 1.363 . S
C406 H409 0.929 . S
C407 C406 1.363 . S
C407 C413 1.428 . S
H408 C404 0.930 . S
H409 C406 0.929 . S
S410 N411 1.613 . S
S410 N412 1.610 . S
N411 S410 1.613 . S
N411 C414 1.350 . S
N412 S410 1.610 . S
N412 C413 1.351 . S
C413 C407 1.428 . S
C413 N412 1.351 . S
C413 C414 1.434 . S
C414 C405 1.429 . S
C414 N411 1.350 . S
C414 C413 1.434 . S
C415 C416 1.369 . S
C415 C417 1.419 . S
C415 H419 0.930 . S
C416 C415 1.369 . S
C416 C425 1.429 . S
C417 C415 1.419 . S
C417 C418 1.363 . S
C417 H420 0.929 . S
C418 C417 1.363 . S
C418 C424 1.428 . S
H419 C415 0.930 . S
H420 C417 0.929 . S
S421 N422 1.613 . S
S421 N423 1.610 . S
N422 S421 1.613 . S
N422 C425 1.350 . S
N423 S421 1.610 . S
N423 C424 1.351 . S
C424 C418 1.428 . S
C424 N423 1.351 . S
C424 C425 1.434 . S
C425 C416 1.429 . S
C425 N422 1.350 . S
C425 C424 1.434 . S
C426 C427 1.369 . S
C426 C428 1.419 . S
C426 H430 0.930 . S
C427 C426 1.369 . S
C427 C436 1.429 . S
C428 C426 1.419 . S
C428 C429 1.363 . S
C428 H431 0.929 . S
C429 C428 1.363 . S
C429 C435 1.428 . S
H430 C426 0.930 . S
H431 C428 0.929 . S
S432 N433 1.613 . S
S432 N434 1.610 . S
N433 S432 1.613 . S
N433 C436 1.350 . S
N434 S432 1.610 . S
N434 C435 1.351 . S
C435 C429 1.428 . S
C435 N434 1.351 . S
C435 C436 1.434 . S
C436 C427 1.429 . S
C436 N433 1.350 . S
C436 C435 1.434 . S
C437 C438 1.369 . S
C437 C439 1.419 . S
C437 H441 0.930 . S
C438 C437 1.369 . S
C438 C447 1.429 . S
C439 C437 1.419 . S
C439 C440 1.363 . S
C439 H442 0.929 . S
C440 C439 1.363 . S
C440 C446 1.428 . S
H441 C437 0.930 . S
H442 C439 0.929 . S
S443 N444 1.613 . S
S443 N445 1.610 . S
N444 S443 1.613 . S
N444 C447 1.350 . S
N445 S443 1.610 . S
N445 C446 1.351 . S
C446 C440 1.428 . S
C446 N445 1.351 . S
C446 C447 1.434 . S
C447 C438 1.429 . S
C447 N444 1.350 . S
C447 C446 1.434 . S
C448 C449 1.369 . S
C448 C450 1.419 . S
C448 H452 0.930 . S
C449 C448 1.369 . S
C449 C458 1.429 . S
C450 C448 1.419 . S
C450 C451 1.363 . S
C450 H453 0.929 . S
C451 C450 1.363 . S
C451 C457 1.428 . S
H452 C448 0.930 . S
H453 C450 0.929 . S
S454 N455 1.613 . S
S454 N456 1.610 . S
N455 S454 1.613 . S
N455 C458 1.350 . S
N456 S454 1.610 . S
N456 C457 1.351 . S
C457 C451 1.428 . S
C457 N456 1.351 . S
C457 C458 1.434 . S
C458 C449 1.429 . S
C458 N455 1.350 . S
C458 C457 1.434 . S
C459 C460 1.369 . S
C459 C461 1.419 . S
C459 H463 0.930 . S
C460 C459 1.369 . S
C460 C469 1.429 . S
C461 C459 1.419 . S
C461 C462 1.363 . S
C461 H464 0.929 . S
C462 C461 1.363 . S
C462 C468 1.428 . S
H463 C459 0.930 . S
H464 C461 0.929 . S
S465 N466 1.613 . S
S465 N467 1.610 . S
N466 S465 1.613 . S
N466 C469 1.350 . S
N467 S465 1.610 . S
N467 C468 1.351 . S
C468 C462 1.428 . S
C468 N467 1.351 . S
C468 C469 1.434 . S
C469 C460 1.429 . S
C469 N466 1.350 . S
C469 C468 1.434 . S
C470 C471 1.369 . S
C470 C472 1.419 . S
C470 H474 0.930 . S
C471 C470 1.369 . S
C471 C480 1.429 . S
C472 C470 1.419 . S
C472 C473 1.363 . S
C472 H475 0.929 . S
C473 C472 1.363 . S
C473 C479 1.428 . S
H474 C470 0.930 . S
H475 C472 0.929 . S
S476 N477 1.613 . S
S476 N478 1.610 . S
N477 S476 1.613 . S
N477 C480 1.350 . S
N478 S476 1.610 . S
N478 C479 1.351 . S
C479 C473 1.428 . S
C479 N478 1.351 . S
C479 C480 1.434 . S
C480 C471 1.429 . S
C480 N477 1.350 . S
C480 C479 1.434 . S
C481 C482 1.369 . S
C481 C483 1.419 . S
C481 H485 0.930 . S
C482 C481 1.369 . S
C482 C491 1.429 . S
C483 C481 1.419 . S
C483 C484 1.363 . S
C483 H486 0.929 . S
C484 C483 1.363 . S
C484 C490 1.428 . S
H485 C481 0.930 . S
H486 C483 0.929 . S
S487 N488 1.613 . S
S487 N489 1.610 . S
N488 S487 1.613 . S
N488 C491 1.350 . S
N489 S487 1.610 . S
N489 C490 1.351 . S
C490 C484 1.428 . S
C490 N489 1.351 . S
C490 C491 1.434 . S
C491 C482 1.429 . S
C491 N488 1.350 . S
C491 C490 1.434 . S
C492 C493 1.369 1_655 S
C492 C494 1.419 . S
C492 H496 0.930 . S
C493 C492 1.369 1_455 S
C493 C502 1.429 . S
C494 C492 1.419 . S
C494 C495 1.363 1_655 S
C494 H497 0.929 . S
C495 C494 1.363 1_455 S
C495 C501 1.428 . S
H496 C492 0.930 . S
H497 C494 0.929 . S
S498 N499 1.613 . S
S498 N500 1.610 . S
N499 S498 1.613 . S
N499 C502 1.350 . S
N500 S498 1.610 . S
N500 C501 1.351 . S
C501 C495 1.428 . S
C501 N500 1.351 . S
C501 C502 1.434 . S
C502 C493 1.429 . S
C502 N499 1.350 . S
C502 C501 1.434 . S
C503 C504 1.369 1_565 S
C503 C505 1.419 1_565 S
C503 H507 0.930 . S
C504 C503 1.369 1_545 S
C504 C513 1.429 . S
C505 C503 1.419 1_545 S
C505 C506 1.363 . S
C505 H508 0.929 1_545 S
C506 C505 1.363 . S
C506 C512 1.428 . S
H507 C503 0.930 . S
H508 C505 0.929 1_565 S
S509 N510 1.613 . S
S509 N511 1.610 . S
N510 S509 1.613 . S
N510 C513 1.350 . S
N511 S509 1.610 . S
N511 C512 1.351 . S
C512 C506 1.428 . S
C512 N511 1.351 . S
C512 C513 1.434 . S
C513 C504 1.429 . S
C513 N510 1.350 . S
C513 C512 1.434 . S
C514 C515 1.369 . S
C514 C516 1.419 . S
C514 H518 0.930 . S
C515 C514 1.369 . S
C515 C524 1.429 . S
C516 C514 1.419 . S
C516 C517 1.363 . S
C516 H519 0.929 . S
C517 C516 1.363 . S
C517 C523 1.428 . S
H518 C514 0.930 . S
H519 C516 0.929 . S
S520 N521 1.613 . S
S520 N522 1.610 . S
N521 S520 1.613 . S
N521 C524 1.350 . S
N522 S520 1.610 . S
N522 C523 1.351 . S
C523 C517 1.428 . S
C523 N522 1.351 . S
C523 C524 1.434 . S
C524 C515 1.429 . S
C524 N521 1.350 . S
C524 C523 1.434 . S
C525 C526 1.369 1_565 S
C525 C527 1.419 . S
C525 H529 0.930 . S
C526 C525 1.369 1_545 S
C526 C535 1.429 . S
C527 C525 1.419 . S
C527 C528 1.363 . S
C527 H530 0.929 . S
C528 C527 1.363 . S
C528 C534 1.428 1_565 S
H529 C525 0.930 . S
H530 C527 0.929 . S
S531 N532 1.613 . S
S531 N533 1.610 . S
N532 S531 1.613 . S
N532 C535 1.350 . S
N533 S531 1.610 . S
N533 C534 1.351 . S
C534 C528 1.428 1_545 S
C534 N533 1.351 . S
C534 C535 1.434 . S
C535 C526 1.429 . S
C535 N532 1.350 . S
C535 C534 1.434 . S
C536 C537 1.369 . S
C536 C538 1.419 . S
C536 H540 0.930 . S
C537 C536 1.369 . S
C537 C546 1.429 . S
C538 C536 1.419 . S
C538 C539 1.363 . S
C538 H541 0.929 . S
C539 C538 1.363 . S
C539 C545 1.428 . S
H540 C536 0.930 . S
H541 C538 0.929 . S
S542 N543 1.613 . S
S542 N544 1.610 . S
N543 S542 1.613 . S
N543 C546 1.350 . S
N544 S542 1.610 . S
N544 C545 1.351 . S
C545 C539 1.428 . S
C545 N544 1.351 . S
C545 C546 1.434 . S
C546 C537 1.429 . S
C546 N543 1.350 . S
C546 C545 1.434 . S
C547 C548 1.369 . S
C547 C549 1.419 . S
C547 H551 0.930 . S
C548 C547 1.369 . S
C548 C557 1.429 1_455 S
C549 C547 1.419 . S
C549 C550 1.357 1_455 S
C549 H552 0.929 . S
C550 C549 1.357 1_655 S
C550 C556 1.433 . S
H551 C547 0.930 . S
H552 C549 0.929 . S
S553 N554 1.613 . S
S553 N555 1.610 . S
N554 S553 1.613 . S
N554 C557 1.350 . S
N555 S553 1.610 . S
N555 C556 1.351 . S
C556 C550 1.433 . S
C556 N555 1.351 . S
C556 C557 1.434 . S
C557 C548 1.429 1_655 S
C557 N554 1.350 . S
C557 C556 1.434 . S
C361 C10 3.270 . S
C363 C335 3.195 . S
C372 C55 1.254 . S
C374 C242 1.258 . S
C383 C90 2.060 . S
C385 C282 2.038 . S
C394 C19 3.167 . S
C396 C322 3.115 . S
C407 C255 1.379 . S
C405 C46 1.361 . S
C418 C295 2.221 . S
C416 C99 2.325 . S
C427 C50 2.068 . S
C429 C162 2.035 . S
C438 C95 0.840 . S
C440 C202 0.865 . S
C449 C6 1.384 . S
C451 C135 1.382 . S
C462 C175 2.169 . S
C460 C59 2.298 . S
C473 C215 0.461 . S
C471 C86 0.585 . S
C482 C15 1.344 . S
C484 C122 1.380 . S
C495 C221 1.100 . S
C493 C18 1.122 . S
C504 C49 1.470 . S
C506 C141 1.509 . S
C515 C98 1.345 . S
C517 C181 1.377 . S
C528 C301 1.385 . S
C526 C58 1.349 . S
C539 C341 1.782 . S
C537 C89 1.714 . S
C548 C9 1.458 . S
C550 C261 1.508 . S
