# Generated by pormake.
# Topology gar, (4,6)-cn, num edge types: 1
# Building blocks:
#     Node 0, Type 0, BuildingBlock: QUQFOY_clean_sbu_3, # of connection points: 4
#     Node 1, Type 0, BuildingBlock: QUQFOY_clean_sbu_3, # of connection points: 4
#     Node 2, Type 0, BuildingBlock: QUQFOY_clean_sbu_3, # of connection points: 4
#     Node 3, Type 0, BuildingBlock: QUQFOY_clean_sbu_3, # of connection points: 4
#     Node 4, Type 0, BuildingBlock: QUQFOY_clean_sbu_3, # of connection points: 4
#     Node 5, Type 0, BuildingBlock: QUQFOY_clean_sbu_3, # of connection points: 4
#     Node 6, Type 0, BuildingBlock: QUQFOY_clean_sbu_3, # of connection points: 4
#     Node 7, Type 0, BuildingBlock: QUQFOY_clean_sbu_3, # of connection points: 4
#     Node 8, Type 0, BuildingBlock: QUQFOY_clean_sbu_3, # of connection points: 4
#     Node 9, Type 0, BuildingBlock: QUQFOY_clean_sbu_3, # of connection points: 4
#     Node 10, Type 0, BuildingBlock: QUQFOY_clean_sbu_3, # of connection points: 4
#     Node 11, Type 0, BuildingBlock: QUQFOY_clean_sbu_3, # of connection points: 4
#     Node 12, Type 0, BuildingBlock: QUQFOY_clean_sbu_3, # of connection points: 4
#     Node 13, Type 0, BuildingBlock: QUQFOY_clean_sbu_3, # of connection points: 4
#     Node 14, Type 0, BuildingBlock: QUQFOY_clean_sbu_3, # of connection points: 4
#     Node 15, Type 0, BuildingBlock: QUQFOY_clean_sbu_3, # of connection points: 4
#     Node 16, Type 0, BuildingBlock: QUQFOY_clean_sbu_3, # of connection points: 4
#     Node 17, Type 0, BuildingBlock: QUQFOY_clean_sbu_3, # of connection points: 4
#     Node 18, Type 0, BuildingBlock: QUQFOY_clean_sbu_3, # of connection points: 4
#     Node 19, Type 0, BuildingBlock: QUQFOY_clean_sbu_3, # of connection points: 4
#     Node 20, Type 0, BuildingBlock: QUQFOY_clean_sbu_3, # of connection points: 4
#     Node 21, Type 0, BuildingBlock: QUQFOY_clean_sbu_3, # of connection points: 4
#     Node 22, Type 0, BuildingBlock: QUQFOY_clean_sbu_3, # of connection points: 4
#     Node 23, Type 0, BuildingBlock: QUQFOY_clean_sbu_3, # of connection points: 4
#     Node 24, Type 1, BuildingBlock: KUMBOL_clean_sbu_0, # of connection points: 6
#     Node 25, Type 1, BuildingBlock: KUMBOL_clean_sbu_0, # of connection points: 6
#     Node 26, Type 1, BuildingBlock: KUMBOL_clean_sbu_0, # of connection points: 6
#     Node 27, Type 1, BuildingBlock: KUMBOL_clean_sbu_0, # of connection points: 6
#     Node 28, Type 1, BuildingBlock: KUMBOL_clean_sbu_0, # of connection points: 6
#     Node 29, Type 1, BuildingBlock: KUMBOL_clean_sbu_0, # of connection points: 6
#     Node 30, Type 1, BuildingBlock: KUMBOL_clean_sbu_0, # of connection points: 6
#     Node 31, Type 1, BuildingBlock: KUMBOL_clean_sbu_0, # of connection points: 6
#     Node 32, Type 1, BuildingBlock: KUMBOL_clean_sbu_0, # of connection points: 6
#     Node 33, Type 1, BuildingBlock: KUMBOL_clean_sbu_0, # of connection points: 6
#     Node 34, Type 1, BuildingBlock: KUMBOL_clean_sbu_0, # of connection points: 6
#     Node 35, Type 1, BuildingBlock: KUMBOL_clean_sbu_0, # of connection points: 6
#     Node 36, Type 1, BuildingBlock: KUMBOL_clean_sbu_0, # of connection points: 6
#     Node 37, Type 1, BuildingBlock: KUMBOL_clean_sbu_0, # of connection points: 6
#     Node 38, Type 1, BuildingBlock: KUMBOL_clean_sbu_0, # of connection points: 6
#     Node 39, Type 1, BuildingBlock: KUMBOL_clean_sbu_0, # of connection points: 6
#     Edge 40, Type (0, 1), BuildingBlock: TEMPAE_clean_linker_10, # of connection points: 2
#     Edge 41, Type (0, 1), BuildingBlock: TEMPAE_clean_linker_10, # of connection points: 2
#     Edge 42, Type (0, 1), BuildingBlock: TEMPAE_clean_linker_10, # of connection points: 2
#     Edge 43, Type (0, 1), BuildingBlock: TEMPAE_clean_linker_10, # of connection points: 2
#     Edge 44, Type (0, 1), BuildingBlock: TEMPAE_clean_linker_10, # of connection points: 2
#     Edge 45, Type (0, 1), BuildingBlock: TEMPAE_clean_linker_10, # of connection points: 2
#     Edge 46, Type (0, 1), BuildingBlock: TEMPAE_clean_linker_10, # of connection points: 2
#     Edge 47, Type (0, 1), BuildingBlock: TEMPAE_clean_linker_10, # of connection points: 2
#     Edge 48, Type (0, 1), BuildingBlock: TEMPAE_clean_linker_10, # of connection points: 2
#     Edge 49, Type (0, 1), BuildingBlock: TEMPAE_clean_linker_10, # of connection points: 2
#     Edge 50, Type (0, 1), BuildingBlock: TEMPAE_clean_linker_10, # of connection points: 2
#     Edge 51, Type (0, 1), BuildingBlock: TEMPAE_clean_linker_10, # of connection points: 2
#     Edge 52, Type (0, 1), BuildingBlock: TEMPAE_clean_linker_10, # of connection points: 2
#     Edge 53, Type (0, 1), BuildingBlock: TEMPAE_clean_linker_10, # of connection points: 2
#     Edge 54, Type (0, 1), BuildingBlock: TEMPAE_clean_linker_10, # of connection points: 2
#     Edge 55, Type (0, 1), BuildingBlock: TEMPAE_clean_linker_10, # of connection points: 2
#     Edge 56, Type (0, 1), BuildingBlock: TEMPAE_clean_linker_10, # of connection points: 2
#     Edge 57, Type (0, 1), BuildingBlock: TEMPAE_clean_linker_10, # of connection points: 2
#     Edge 58, Type (0, 1), BuildingBlock: TEMPAE_clean_linker_10, # of connection points: 2
#     Edge 59, Type (0, 1), BuildingBlock: TEMPAE_clean_linker_10, # of connection points: 2
#     Edge 60, Type (0, 1), BuildingBlock: TEMPAE_clean_linker_10, # of connection points: 2
#     Edge 61, Type (0, 1), BuildingBlock: TEMPAE_clean_linker_10, # of connection points: 2
#     Edge 62, Type (0, 1), BuildingBlock: TEMPAE_clean_linker_10, # of connection points: 2
#     Edge 63, Type (0, 1), BuildingBlock: TEMPAE_clean_linker_10, # of connection points: 2
#     Edge 64, Type (0, 1), BuildingBlock: TEMPAE_clean_linker_10, # of connection points: 2
#     Edge 65, Type (0, 1), BuildingBlock: TEMPAE_clean_linker_10, # of connection points: 2
#     Edge 66, Type (0, 1), BuildingBlock: TEMPAE_clean_linker_10, # of connection points: 2
#     Edge 67, Type (0, 1), BuildingBlock: TEMPAE_clean_linker_10, # of connection points: 2
#     Edge 68, Type (0, 1), BuildingBlock: TEMPAE_clean_linker_10, # of connection points: 2
#     Edge 69, Type (0, 1), BuildingBlock: TEMPAE_clean_linker_10, # of connection points: 2
#     Edge 70, Type (0, 1), BuildingBlock: TEMPAE_clean_linker_10, # of connection points: 2
#     Edge 71, Type (0, 1), BuildingBlock: TEMPAE_clean_linker_10, # of connection points: 2
#     Edge 72, Type (0, 1), BuildingBlock: TEMPAE_clean_linker_10, # of connection points: 2
#     Edge 73, Type (0, 1), BuildingBlock: TEMPAE_clean_linker_10, # of connection points: 2
#     Edge 74, Type (0, 1), BuildingBlock: TEMPAE_clean_linker_10, # of connection points: 2
#     Edge 75, Type (0, 1), BuildingBlock: TEMPAE_clean_linker_10, # of connection points: 2
#     Edge 76, Type (0, 1), BuildingBlock: TEMPAE_clean_linker_10, # of connection points: 2
#     Edge 77, Type (0, 1), BuildingBlock: TEMPAE_clean_linker_10, # of connection points: 2
#     Edge 78, Type (0, 1), BuildingBlock: TEMPAE_clean_linker_10, # of connection points: 2
#     Edge 79, Type (0, 1), BuildingBlock: TEMPAE_clean_linker_10, # of connection points: 2
#     Edge 80, Type (0, 1), BuildingBlock: TEMPAE_clean_linker_10, # of connection points: 2
#     Edge 81, Type (0, 1), BuildingBlock: TEMPAE_clean_linker_10, # of connection points: 2
#     Edge 82, Type (0, 1), BuildingBlock: TEMPAE_clean_linker_10, # of connection points: 2
#     Edge 83, Type (0, 1), BuildingBlock: TEMPAE_clean_linker_10, # of connection points: 2
#     Edge 84, Type (0, 1), BuildingBlock: TEMPAE_clean_linker_10, # of connection points: 2
#     Edge 85, Type (0, 1), BuildingBlock: TEMPAE_clean_linker_10, # of connection points: 2
#     Edge 86, Type (0, 1), BuildingBlock: TEMPAE_clean_linker_10, # of connection points: 2
#     Edge 87, Type (0, 1), BuildingBlock: TEMPAE_clean_linker_10, # of connection points: 2
#     Edge 88, Type (0, 1), BuildingBlock: TEMPAE_clean_linker_10, # of connection points: 2
#     Edge 89, Type (0, 1), BuildingBlock: TEMPAE_clean_linker_10, # of connection points: 2
#     Edge 90, Type (0, 1), BuildingBlock: TEMPAE_clean_linker_10, # of connection points: 2
#     Edge 91, Type (0, 1), BuildingBlock: TEMPAE_clean_linker_10, # of connection points: 2
#     Edge 92, Type (0, 1), BuildingBlock: TEMPAE_clean_linker_10, # of connection points: 2
#     Edge 93, Type (0, 1), BuildingBlock: TEMPAE_clean_linker_10, # of connection points: 2
#     Edge 94, Type (0, 1), BuildingBlock: TEMPAE_clean_linker_10, # of connection points: 2
#     Edge 95, Type (0, 1), BuildingBlock: TEMPAE_clean_linker_10, # of connection points: 2
#     Edge 96, Type (0, 1), BuildingBlock: TEMPAE_clean_linker_10, # of connection points: 2
#     Edge 97, Type (0, 1), BuildingBlock: TEMPAE_clean_linker_10, # of connection points: 2
#     Edge 98, Type (0, 1), BuildingBlock: TEMPAE_clean_linker_10, # of connection points: 2
#     Edge 99, Type (0, 1), BuildingBlock: TEMPAE_clean_linker_10, # of connection points: 2
#     Edge 100, Type (0, 1), BuildingBlock: TEMPAE_clean_linker_10, # of connection points: 2
#     Edge 101, Type (0, 1), BuildingBlock: TEMPAE_clean_linker_10, # of connection points: 2
#     Edge 102, Type (0, 1), BuildingBlock: TEMPAE_clean_linker_10, # of connection points: 2
#     Edge 103, Type (0, 1), BuildingBlock: TEMPAE_clean_linker_10, # of connection points: 2
#     Edge 104, Type (0, 1), BuildingBlock: TEMPAE_clean_linker_10, # of connection points: 2
#     Edge 105, Type (0, 1), BuildingBlock: TEMPAE_clean_linker_10, # of connection points: 2
#     Edge 106, Type (0, 1), BuildingBlock: TEMPAE_clean_linker_10, # of connection points: 2
#     Edge 107, Type (0, 1), BuildingBlock: TEMPAE_clean_linker_10, # of connection points: 2
#     Edge 108, Type (0, 1), BuildingBlock: TEMPAE_clean_linker_10, # of connection points: 2
#     Edge 109, Type (0, 1), BuildingBlock: TEMPAE_clean_linker_10, # of connection points: 2
#     Edge 110, Type (0, 1), BuildingBlock: TEMPAE_clean_linker_10, # of connection points: 2
#     Edge 111, Type (0, 1), BuildingBlock: TEMPAE_clean_linker_10, # of connection points: 2
#     Edge 112, Type (0, 1), BuildingBlock: TEMPAE_clean_linker_10, # of connection points: 2
#     Edge 113, Type (0, 1), BuildingBlock: TEMPAE_clean_linker_10, # of connection points: 2
#     Edge 114, Type (0, 1), BuildingBlock: TEMPAE_clean_linker_10, # of connection points: 2
#     Edge 115, Type (0, 1), BuildingBlock: TEMPAE_clean_linker_10, # of connection points: 2
#     Edge 116, Type (0, 1), BuildingBlock: TEMPAE_clean_linker_10, # of connection points: 2
#     Edge 117, Type (0, 1), BuildingBlock: TEMPAE_clean_linker_10, # of connection points: 2
#     Edge 118, Type (0, 1), BuildingBlock: TEMPAE_clean_linker_10, # of connection points: 2
#     Edge 119, Type (0, 1), BuildingBlock: TEMPAE_clean_linker_10, # of connection points: 2
#     Edge 120, Type (0, 1), BuildingBlock: TEMPAE_clean_linker_10, # of connection points: 2
#     Edge 121, Type (0, 1), BuildingBlock: TEMPAE_clean_linker_10, # of connection points: 2
#     Edge 122, Type (0, 1), BuildingBlock: TEMPAE_clean_linker_10, # of connection points: 2
#     Edge 123, Type (0, 1), BuildingBlock: TEMPAE_clean_linker_10, # of connection points: 2
#     Edge 124, Type (0, 1), BuildingBlock: TEMPAE_clean_linker_10, # of connection points: 2
#     Edge 125, Type (0, 1), BuildingBlock: TEMPAE_clean_linker_10, # of connection points: 2
#     Edge 126, Type (0, 1), BuildingBlock: TEMPAE_clean_linker_10, # of connection points: 2
#     Edge 127, Type (0, 1), BuildingBlock: TEMPAE_clean_linker_10, # of connection points: 2
#     Edge 128, Type (0, 1), BuildingBlock: TEMPAE_clean_linker_10, # of connection points: 2
#     Edge 129, Type (0, 1), BuildingBlock: TEMPAE_clean_linker_10, # of connection points: 2
#     Edge 130, Type (0, 1), BuildingBlock: TEMPAE_clean_linker_10, # of connection points: 2
#     Edge 131, Type (0, 1), BuildingBlock: TEMPAE_clean_linker_10, # of connection points: 2
#     Edge 132, Type (0, 1), BuildingBlock: TEMPAE_clean_linker_10, # of connection points: 2
#     Edge 133, Type (0, 1), BuildingBlock: TEMPAE_clean_linker_10, # of connection points: 2
#     Edge 134, Type (0, 1), BuildingBlock: TEMPAE_clean_linker_10, # of connection points: 2
#     Edge 135, Type (0, 1), BuildingBlock: TEMPAE_clean_linker_10, # of connection points: 2
# Relax obj value: 0.120
# Max RMSD: 0.326
# Mean RMSD: 0.148
data_MOF--net-gar--node1-QUQFOY_clean_sbu_3--node2-KUMBOL_clean_sbu_0--edge1-TEMPAE_clean_linker_10
_symmetry_space_group_name_H-M    P1
_symmetry_Int_Tables_number       1
_symmetry_cell_setting            triclinic
loop_
_symmetry_equiv_pos_as_xyz
'x, y, z'
_cell_length_a     62.188451
_cell_length_b     58.54125
_cell_length_c     57.886357
_cell_angle_alpha  101.47844
_cell_angle_beta   93.136951
_cell_angle_gamma 102.82318
loop_
_atom_site_label
_atom_site_type_symbol
_atom_site_fract_x
_atom_site_fract_y
_atom_site_fract_z
_atom_type_partial_charge
C0 C 0.07214 0.32865 0.35971 0.0
O1 O 0.08338 0.33862 0.34519 0.0
Cd2 Cd 0.12274 0.34764 0.34485 0.0
O3 O 0.08098 0.32039 0.37552 0.0
Cd4 Cd 0.11758 0.31614 0.38843 0.0
C5 C 0.13335 0.37617 0.40357 0.0
O6 O 0.13156 0.31274 0.35203 0.0
O7 O 0.15621 0.31919 0.38191 0.0
O8 O 0.1036 0.27534 0.39079 0.0
C9 C 0.15173 0.31689 0.3598 0.0
O10 O 0.13435 0.37742 0.38189 0.0
C11 C 0.10877 0.27937 0.41302 0.0
O12 O 0.12685 0.35623 0.40957 0.0
O13 O 0.11858 0.30066 0.42358 0.0
C14 C 0.96737 0.74017 0.69756 0.0
O15 O 0.9823 0.73455 0.70946 0.0
Cd16 Cd 0.01759 0.73395 0.69919 0.0
O17 O 0.97124 0.74901 0.67938 0.0
Cd18 Cd 0.00256 0.75984 0.65684 0.0
C19 C 0.99865 0.70137 0.64274 0.0
O20 O 0.03258 0.76988 0.68734 0.0
O21 O 0.0414 0.76162 0.65168 0.0
O22 O 0.99795 0.79874 0.65152 0.0
C23 C 0.04759 0.76803 0.67364 0.0
O24 O 0.00832 0.70347 0.66329 0.0
C25 C -0.00022 0.79344 0.62942 0.0
O26 O 0.99333 0.71904 0.63625 0.0
O27 O 0.00013 0.77195 0.62028 0.0
C28 C 0.57409 0.8298 0.85427 0.0
O29 O 0.58697 0.84014 0.84115 0.0
Cd30 Cd 0.62642 0.85032 0.84555 0.0
O31 O 0.58143 0.82279 0.87187 0.0
Cd32 Cd 0.61617 0.82075 0.8908 0.0
C33 C 0.63293 0.88069 0.90356 0.0
O34 O 0.63119 0.81496 0.85544 0.0
O35 O 0.65365 0.81783 0.88655 0.0
O36 O 0.5982 0.78136 0.89377 0.0
C37 C 0.65021 0.81543 0.86436 0.0
O38 O 0.63542 0.88113 0.88192 0.0
C39 C 0.60554 0.78435 0.91533 0.0
O40 O 0.6254 0.86123 0.91007 0.0
O41 O 0.61725 0.80491 0.92573 0.0
C42 C 0.46803 0.2443 0.2008 0.0
O43 O 0.4815 0.23534 0.21119 0.0
Cd44 Cd 0.5143 0.22849 0.19644 0.0
O45 O 0.47239 0.25292 0.18261 0.0
Cd46 Cd 0.50173 0.2597 0.15729 0.0
C47 C 0.49037 0.20192 0.13908 0.0
O48 O 0.53261 0.26377 0.18539 0.0
O49 O 0.53853 0.25494 0.14866 0.0
O50 O 0.50141 0.30067 0.15482 0.0
C51 C 0.54601 0.25966 0.17026 0.0
O52 O 0.50114 0.20204 0.15846 0.0
C53 C 0.50183 0.29591 0.13245 0.0
O54 O 0.48581 0.2207 0.13453 0.0
O55 O 0.50009 0.27425 0.12212 0.0
C56 C 0.05723 0.80051 0.14364 0.0
O57 O 0.06953 0.79221 0.1564 0.0
Cd58 Cd 0.10525 0.78559 0.14994 0.0
O59 O 0.06409 0.80789 0.12534 0.0
Cd60 Cd 0.10014 0.81456 0.1052 0.0
C61 C 0.094 0.75255 0.09116 0.0
O62 O 0.12444 0.82226 0.14272 0.0
O63 O 0.14214 0.81787 0.11235 0.0
O64 O 0.08705 0.85191 0.10323 0.0
C65 C 0.14276 0.82098 0.13475 0.0
O66 O 0.09973 0.75515 0.11319 0.0
C67 C 0.09313 0.85486 0.08323 0.0
O68 O 0.09101 0.77044 0.08268 0.0
O69 O 0.10323 0.83956 0.073 0.0
C70 C 0.47457 0.7643 0.39273 0.0
O71 O 0.48929 0.77504 0.38175 0.0
Cd72 Cd 0.52801 0.78592 0.39389 0.0
O73 O 0.48026 0.75718 0.41139 0.0
Cd74 Cd 0.51919 0.75853 0.43453 0.0
C75 C 0.53072 0.82022 0.45091 0.0
O76 O 0.54092 0.75208 0.40003 0.0
O77 O 0.55981 0.77281 0.4324 0.0
O78 O 0.51004 0.71491 0.43811 0.0
C79 C 0.55985 0.76143 0.41137 0.0
O80 O 0.53471 0.81822 0.42934 0.0
C81 C 0.51991 0.71799 0.45871 0.0
O82 O 0.52267 0.80136 0.45868 0.0
O83 O 0.52773 0.73981 0.46915 0.0
C84 C 0.555 0.30249 0.64128 0.0
O85 O 0.56498 0.29068 0.65253 0.0
Cd86 Cd 0.60134 0.28357 0.64916 0.0
O87 O 0.56407 0.31263 0.6254 0.0
Cd88 Cd 0.60041 0.31734 0.60599 0.0
C89 C 0.59372 0.25417 0.59001 0.0
O90 O 0.62248 0.3202 0.64324 0.0
O91 O 0.64245 0.32335 0.61459 0.0
O92 O 0.60042 0.36006 0.60529 0.0
C93 C 0.64157 0.32205 0.63619 0.0
O94 O 0.5974 0.25458 0.61195 0.0
C95 C 0.59755 0.35786 0.58298 0.0
O96 O 0.59277 0.27334 0.58271 0.0
O97 O 0.5965 0.33691 0.57072 0.0
C98 C 0.97556 0.26345 0.88902 0.0
O99 O 0.99174 0.27619 0.8814 0.0
Cd100 Cd 0.0302 0.28694 0.89337 0.0
O101 O 0.97926 0.25377 0.90663 0.0
Cd102 Cd 0.01738 0.25546 0.9325 0.0
C103 C 0.02893 0.31781 0.95025 0.0
O104 O 0.03944 0.25125 0.89826 0.0
O105 O 0.05888 0.26456 0.93174 0.0
O106 O 0.00666 0.21239 0.93852 0.0
C107 C 0.05846 0.25701 0.90962 0.0
O108 O 0.03541 0.31733 0.92973 0.0
C109 C 0.01801 0.21641 0.95851 0.0
O110 O 0.01958 0.29828 0.95621 0.0
O111 O 0.02709 0.23832 0.96738 0.0
C112 C 0.45248 0.02502 0.34027 0.0
O113 O 0.46146 0.01235 0.32518 0.0
Cd114 Cd 0.45429 0.00722 0.28379 0.0
O115 O 0.43918 0.03679 0.33459 0.0
Cd116 Cd 0.4195 0.04203 0.30247 0.0
C117 C 0.40049 0.98318 0.28582 0.0
O118 O 0.44671 0.0434 0.27676 0.0
O119 O 0.41391 0.04187 0.26082 0.0
O120 O 0.41826 0.08236 0.31785 0.0
C121 C 0.43397 0.04158 0.25827 0.0
O122 O 0.41859 0.98048 0.27775 0.0
C123 C 0.3973 0.07631 0.31796 0.0
O124 O 0.39797 1.00325 0.29672 0.0
O125 O 0.38798 0.05406 0.31351 0.0
C126 C 0.32877 0.15429 0.50771 0.0
O127 O 0.31426 0.14105 0.51702 0.0
Cd128 Cd 0.27889 0.1461 0.52704 0.0
O129 O 0.32522 0.17297 0.50154 0.0
Cd130 Cd 0.29322 0.19228 0.49917 0.0
C131 C 0.29416 0.2052 0.55965 0.0
O132 O 0.26575 0.15475 0.49205 0.0
O133 O 0.25156 0.18516 0.494 0.0
O134 O 0.30589 0.19319 0.46045 0.0
C135 C 0.24846 0.16264 0.49171 0.0
O136 O 0.28591 0.18282 0.55738 0.0
C137 C 0.30486 0.21452 0.46011 0.0
O138 O 0.30004 0.21406 0.54182 0.0
O139 O 0.29844 0.2262 0.47836 0.0
C140 C 0.14177 0.01242 0.81241 0.0
O141 O 0.13209 0.02427 0.80093 0.0
Cd142 Cd 0.14273 0.03317 0.76307 0.0
O143 O 0.15739 1.00332 0.80287 0.0
Cd144 Cd 0.17791 1.00005 0.76028 0.0
C145 C 0.19715 0.06595 0.76933 0.0
O146 O 0.14223 0.99817 0.7318 0.0
O147 O 0.17231 0.00418 0.71588 0.0
O148 O 0.18253 0.95434 0.75581 0.0
C149 C 0.15141 1.00176 0.71322 0.0
O150 O 0.17662 0.06592 0.76836 0.0
C151 C 0.2036 0.95783 0.75903 0.0
O152 O 0.2029 0.04574 0.76762 0.0
O153 O 0.21317 0.98009 0.76227 0.0
C154 C 0.37175 0.97756 0.001 0.0
O155 O 0.36313 0.99407 0.99654 0.0
Cd156 Cd 0.32659 0.97597 0.97672 0.0
O157 O 0.36157 0.95594 0.99319 0.0
Cd158 Cd 0.33022 0.94008 0.01186 0.0
C159 C 0.32545 0.91521 0.95661 0.0
O160 O 0.31116 0.9709 0.01272 0.0
O161 O 0.29108 0.93456 0.00944 0.0
O162 O 0.34755 0.94143 0.05109 0.0
C163 C 0.29233 0.95673 0.01129 0.0
O164 O 0.3248 0.93548 0.95195 0.0
C165 C 0.33741 0.91967 0.04982 0.0
O166 O 0.32727 0.91224 0.97757 0.0
O167 O 0.32536 0.90823 0.03091 0.0
C168 C 0.36177 0.42485 0.03224 0.0
O169 O 0.35001 0.43327 0.01907 0.0
Cd170 Cd 0.31055 0.42047 0.01068 0.0
O171 O 0.35284 0.40768 0.04182 0.0
Cd172 Cd 0.31329 0.38268 0.03964 0.0
C173 C 0.30721 0.36316 0.98012 0.0
O174 O 0.29301 0.41461 0.04535 0.0
O175 O 0.27369 0.37929 0.02882 0.0
O176 O 0.31985 0.38228 0.08169 0.0
C177 C 0.27401 0.40077 0.03851 0.0
O178 O 0.30303 0.38355 0.98049 0.0
C179 C 0.31002 0.36045 0.0798 0.0
O180 O 0.31421 0.35805 0.99919 0.0
O181 O 0.30298 0.34834 0.05896 0.0
C182 C 0.81866 0.10288 0.043 0.0
O183 O 0.80614 0.09372 0.05706 0.0
Cd184 Cd 0.76773 0.09643 0.05718 0.0
O185 O 0.81208 0.11514 0.02969 0.0
Cd186 Cd 0.78218 0.13069 0.02204 0.0
C187 C 0.77543 0.15566 0.0767 0.0
O188 O 0.75339 0.09428 0.01728 0.0
O189 O 0.74451 0.12849 0.01895 0.0
O190 O 0.78384 0.13259 0.98121 0.0
C191 C 0.73866 0.10581 0.01492 0.0
O192 O 0.76589 0.13522 0.08017 0.0
C193 C 0.78991 0.15533 0.98595 0.0
O194 O 0.78495 0.15782 0.05823 0.0
O195 O 0.79385 0.16623 0.00751 0.0
C196 C 0.16762 0.5379 0.2735 0.0
O197 O 0.15251 0.54328 0.26154 0.0
Cd198 Cd 0.15844 0.55461 0.22531 0.0
O199 O 0.18549 0.53496 0.2652 0.0
Cd200 Cd 0.19949 0.53131 0.22673 0.0
C201 C 0.21252 0.58813 0.24241 0.0
O202 O 0.16798 0.52101 0.20263 0.0
O203 O 0.19684 0.53796 0.18736 0.0
O204 O 0.19655 0.4917 0.22716 0.0
C205 C 0.17668 0.52653 0.18474 0.0
O206 O 0.19201 0.58669 0.23716 0.0
C207 C 0.21665 0.49281 0.22371 0.0
O208 O 0.22031 0.56974 0.24064 0.0
O209 O 0.2287 0.51237 0.22065 0.0
C210 C 0.86242 0.9224 0.53126 0.0
O211 O 0.85156 0.93243 0.51881 0.0
Cd212 Cd 0.81257 0.92137 0.50719 0.0
O213 O 0.85283 0.90432 0.53923 0.0
Cd214 Cd 0.81321 0.88064 0.53704 0.0
C215 C 0.80646 0.86279 0.47721 0.0
O216 O 0.79719 0.91494 0.54229 0.0
O217 O 0.77342 0.88093 0.53299 0.0
O218 O 0.81722 0.87968 0.57852 0.0
C219 C 0.7771 0.90357 0.5391 0.0
O220 O 0.80464 0.88406 0.4774 0.0
C221 C 0.80906 0.85732 0.57572 0.0
O222 O 0.81161 0.85665 0.49633 0.0
O223 O 0.80461 0.84516 0.55454 0.0
C224 C 0.97459 0.06383 0.32286 0.0
O225 O 0.98386 0.05145 0.30775 0.0
Cd226 Cd 0.97095 0.03877 0.26593 0.0
O227 O 0.95876 0.07286 0.31522 0.0
Cd228 Cd 0.9367 0.07425 0.27079 0.0
C229 C 0.9161 0.00876 0.26633 0.0
O230 O 0.97146 0.07228 0.24659 0.0
O231 O 0.94149 0.06753 0.2249 0.0
O232 O 0.93302 0.12024 0.27449 0.0
C233 C 0.96228 0.06914 0.22558 0.0
O234 O 0.93632 0.00817 0.26474 0.0
C235 C 0.91203 0.11765 0.27397 0.0
O236 O 0.91071 0.02919 0.26821 0.0
O237 O 0.90207 0.09582 0.27285 0.0
C238 C 0.31432 0.59879 0.54496 0.0
O239 O 0.29905 0.58931 0.55617 0.0
Cd240 Cd 0.26285 0.59672 0.5554 0.0
O241 O 0.31146 0.61258 0.53139 0.0
Cd242 Cd 0.28579 0.63236 0.51825 0.0
C243 C 0.27799 0.65766 0.573 0.0
O244 O 0.2537 0.60174 0.51693 0.0
O245 O 0.24855 0.63551 0.51065 0.0
O246 O 0.29246 0.63127 0.47782 0.0
C247 C 0.24041 0.61478 0.51404 0.0
O248 O 0.26733 0.63761 0.5765 0.0
C249 C 0.29946 0.65397 0.4815 0.0
O250 O 0.28781 0.65956 0.55459 0.0
O251 O 0.30236 0.66583 0.50279 0.0
C252 C 0.47457 0.56228 0.82114 0.0
O253 O 0.48391 0.55051 0.80558 0.0
Cd254 Cd 0.46959 0.53851 0.76411 0.0
O255 O 0.45843 0.57117 0.81401 0.0
Cd256 Cd 0.4361 0.57353 0.76984 0.0
C257 C 0.41516 0.50839 0.76545 0.0
O258 O 0.4707 0.57246 0.74495 0.0
O259 O 0.44029 0.56697 0.72386 0.0
O260 O 0.43157 0.6196 0.77869 0.0
C261 C 0.46114 0.5693 0.7241 0.0
O262 O 0.4352 0.50737 0.76327 0.0
C263 C 0.41069 0.61624 0.77343 0.0
O264 O 0.41012 0.52901 0.76784 0.0
O265 O 0.40119 0.59391 0.76744 0.0
C266 C 0.66756 0.04602 0.76609 0.0
O267 O 0.6559 0.05436 0.75266 0.0
Cd268 Cd 0.665 0.06175 0.71636 0.0
O269 O 0.68476 0.03907 0.7595 0.0
Cd270 Cd 0.70399 0.03447 0.72314 0.0
C271 C 0.71795 0.09218 0.74005 0.0
O272 O 0.67118 0.0232 0.70354 0.0
O273 O 0.69611 0.02916 0.67971 0.0
O274 O 0.70738 0.99676 0.72713 0.0
C275 C 0.67595 0.02128 0.68265 0.0
O276 O 0.69806 0.09238 0.73385 0.0
C277 C 0.72764 1.00107 0.72343 0.0
O278 O 0.72471 0.07315 0.73637 0.0
O279 O 0.737 0.02158 0.72017 0.0
C280 C 0.82716 0.65379 0.01192 0.0
O281 O 0.81057 0.64017 0.018 0.0
Cd282 Cd 0.77466 0.64602 0.02193 0.0
O283 O 0.82515 0.67275 0.00515 0.0
Cd284 Cd 0.79296 0.69143 0.99858 0.0
C285 C 0.79138 0.70341 0.05777 0.0
O286 O 0.76393 0.65474 0.9859 0.0
O287 O 0.75155 0.68602 0.99706 0.0
O288 O 0.80786 0.69482 0.96114 0.0
C289 C 0.74723 0.66357 0.98865 0.0
O290 O 0.78137 0.68132 0.05406 0.0
C291 C 0.80552 0.71581 0.96122 0.0
O292 O 0.79928 0.71264 0.04091 0.0
O293 O 0.79762 0.72611 0.97913 0.0
C294 C 0.96064 0.5336 0.82772 0.0
O295 O 0.97006 0.52552 0.81007 0.0
Cd296 Cd 0.95161 0.52034 0.77186 0.0
O297 O 0.94245 0.53948 0.82544 0.0
Cd298 Cd 0.91329 0.54328 0.80096 0.0
C299 C 0.90463 0.48536 0.7875 0.0
O300 O 0.93688 0.55471 0.77362 0.0
O301 O 0.90286 0.5412 0.75873 0.0
O302 O 0.91743 0.58131 0.82643 0.0
C303 C 0.92279 0.55027 0.75583 0.0
O304 O 0.92077 0.48763 0.77482 0.0
C305 C 0.89671 0.57979 0.82546 0.0
O306 O 0.89919 0.503 0.80023 0.0
O307 O 0.88388 0.55941 0.81634 0.0
C308 C 0.86567 0.48071 0.50961 0.0
O309 O 0.85591 0.4907 0.49606 0.0
Cd310 Cd 0.81832 0.4729 0.47988 0.0
O311 O 0.85548 0.4619 0.51575 0.0
Cd312 Cd 0.82152 0.43267 0.51416 0.0
C313 C 0.82659 0.41698 0.45688 0.0
O314 O 0.80167 0.4608 0.51261 0.0
O315 O 0.78139 0.4245 0.50622 0.0
O316 O 0.83209 0.4327 0.55454 0.0
C317 C 0.78275 0.44663 0.50751 0.0
O318 O 0.82135 0.43585 0.45301 0.0
C319 C 0.82552 0.41003 0.55139 0.0
O320 O 0.82878 0.41307 0.47752 0.0
O321 O 0.8172 0.39817 0.53082 0.0
C322 C 0.64183 0.51213 0.31294 0.0
O323 O 0.63091 0.52216 0.30056 0.0
Cd324 Cd 0.64319 0.53116 0.26325 0.0
O325 O 0.65841 0.50453 0.30394 0.0
Cd326 Cd 0.67804 0.50098 0.2605 0.0
C327 C 0.6968 0.56627 0.26987 0.0
O328 O 0.64234 0.49727 0.23053 0.0
O329 O 0.67296 0.50877 0.2171 0.0
O330 O 0.6825 0.45557 0.25919 0.0
C331 C 0.65193 0.50336 0.21297 0.0
O332 O 0.67607 0.56532 0.26827 0.0
C333 C 0.70344 0.4583 0.25885 0.0
O334 O 0.70318 0.5465 0.26876 0.0
O335 O 0.71298 0.47994 0.25853 0.0
Gd336 Gd 0.0847 0.05178 0.03438 0.0
Gd337 Gd 0.03108 0.02262 0.00875 0.0
C338 C 0.00397 0.9451 0.01604 0.0
C339 C 0.99421 0.92408 0.97501 0.0
C340 C 0.01276 0.96665 0.98475 0.0
C341 C 0.01257 0.9667 0.00869 0.0
C342 C 0.0033 0.94529 0.96768 0.0
C343 C 0.99466 0.92395 0.99911 0.0
C344 C 0.00519 0.9452 0.04021 0.0
C345 C 0.01523 0.96629 0.05644 0.0
N346 N 0.02131 0.98755 0.02478 0.0
C347 C 0.02327 0.98725 0.04847 0.0
H348 H 0.03187 1.00267 0.0616 0.0
C349 C 0.02018 0.9881 0.95444 0.0
N350 N 0.02169 0.98743 0.97806 0.0
C351 C 0.01113 0.96743 0.93704 0.0
C352 C 0.00274 0.94589 0.94366 0.0
H353 H 0.02532 0.00476 0.94867 0.0
H354 H 0.98781 0.90735 0.0045 0.0
H355 H 0.08558 0.07158 0.98151 0.0
H356 H 0.99891 0.92898 0.04647 0.0
H357 H 0.01696 0.96641 0.07518 0.0
H358 H 0.98681 0.90763 0.96214 0.0
H359 H 0.09145 0.06891 0.09431 0.0
H360 H 0.11533 0.14608 0.99731 0.0
H361 H 0.09935 0.10825 0.96827 0.0
H362 H 0.12681 0.16705 0.08167 0.0
H363 H 0.01015 0.96829 0.91851 0.0
H364 H 0.99545 0.92993 0.93011 0.0
H365 H 0.12546 0.16769 0.03938 0.0
H366 H 0.10634 0.10535 0.12476 0.0
N367 N 0.0943 0.08695 0.01853 0.0
C368 C 0.10942 0.1297 0.00345 0.0
C369 C 0.10058 0.1084 0.98703 0.0
C370 C 0.11025 0.12973 0.0276 0.0
C371 C 0.10213 0.10792 0.03477 0.0
C372 C 0.09312 0.08721 0.99483 0.0
N373 N 0.09402 0.0867 0.06528 0.0
C374 C 0.10211 0.10775 0.05871 0.0
C375 C 0.10495 0.1064 0.1063 0.0
C376 C 0.11242 0.12822 0.09985 0.0
C377 C 0.09617 0.08575 0.08879 0.0
C378 C 0.11128 0.12911 0.07589 0.0
H379 H 0.11952 0.14417 0.11347 0.0
O380 O 0.1034 0.04188 0.06195 0.0
O381 O 0.05894 0.01747 0.03099 0.0
O382 O 0.02435 0.03532 0.04715 0.0
O383 O 0.06011 0.05488 0.06423 0.0
O384 O 0.08934 0.01441 0.02083 0.0
O385 O 0.12054 0.05969 0.03541 0.0
O386 O 0.01318 0.03263 0.98063 0.0
O387 O 0.05692 0.05673 0.01199 0.0
O388 O 0.0914 0.03825 0.99597 0.0
O389 O 0.05527 0.02081 0.97895 0.0
O390 O 0.02667 0.06002 0.02274 0.0
O391 O 0.99525 0.01539 0.00708 0.0
C392 C 0.07018 1.00223 0.02375 0.0
C393 C 0.11965 0.15059 0.06871 0.0
C394 C 0.11899 0.15093 0.04465 0.0
C395 C 0.12207 0.05078 0.05425 0.0
C396 C 0.1433 0.05022 0.0656 0.0
C397 C 0.14802 0.0571 0.09029 0.0
C398 C 0.15869 0.04195 0.0516 0.0
C399 C 0.17882 0.04028 0.06219 0.0
C400 C 0.16836 0.05597 0.10089 0.0
C401 C 0.18376 0.04756 0.08691 0.0
C402 C 0.03828 0.04769 0.06606 0.0
C403 C 0.04578 0.07201 0.01939 0.0
C404 C 0.99427 0.02397 0.98796 0.0
C405 C 0.97339 0.02472 0.97614 0.0
C406 C 0.96824 0.01608 0.95162 0.0
C407 C 0.95865 0.0348 0.98959 0.0
C408 C 0.93861 0.03625 0.97874 0.0
C409 C 0.94796 0.01714 0.94075 0.0
C410 C 0.93306 0.02714 0.9543 0.0
C411 C 0.07707 0.0268 0.9771 0.0
H412 H 0.13607 0.06339 0.10128 0.0
H413 H 0.15479 0.03631 0.03252 0.0
H414 H 0.17207 0.0613 0.11995 0.0
H415 H 0.19922 0.04612 0.09542 0.0
H416 H 0.97976 0.00839 0.94102 0.0
H417 H 0.96285 0.04172 0.00854 0.0
H418 H 0.94385 0.01033 0.92186 0.0
H419 H 0.91746 0.02813 0.94574 0.0
Gd420 Gd 0.29177 0.79548 0.29243 0.0
Gd421 Gd 0.32098 0.78032 0.23928 0.0
C422 C 0.29211 0.70612 0.19032 0.0
C423 C 0.31708 0.68289 0.20159 0.0
C424 C 0.32207 0.72484 0.22157 0.0
C425 C 0.30381 0.72642 0.20764 0.0
C426 C 0.32953 0.70334 0.21763 0.0
C427 C 0.29829 0.68422 0.18811 0.0
C428 C 0.27526 0.70864 0.17479 0.0
C429 C 0.27159 0.73129 0.17534 0.0
N430 N 0.29885 0.7482 0.20928 0.0
C431 C 0.28422 0.75101 0.19196 0.0
H432 H 0.28246 0.76844 0.18994 0.0
C433 C 0.35576 0.7458 0.24431 0.0
N434 N 0.33434 0.74508 0.2364 0.0
C435 C 0.36372 0.72505 0.24115 0.0
C436 C 0.35027 0.70351 0.22834 0.0
H437 H 0.36735 0.76253 0.2524 0.0
H438 H 0.28933 0.66852 0.17508 0.0
H439 H 0.34207 0.81856 0.32454 0.0
H440 H 0.26585 0.69347 0.16144 0.0
H441 H 0.25956 0.73374 0.16238 0.0
H442 H 0.32248 0.66626 0.1986 0.0
H443 H 0.23979 0.80098 0.28614 0.0
H444 H 0.34395 0.88873 0.36358 0.0
H445 H 0.36168 0.85483 0.35275 0.0
H446 H 0.27118 0.89874 0.3455 0.0
H447 H 0.38051 0.72587 0.24794 0.0
H448 H 0.3567 0.68753 0.22537 0.0
H449 H 0.31031 0.90513 0.36038 0.0
H450 H 0.21801 0.83102 0.29846 0.0
N451 N 0.31296 0.831 0.31831 0.0
C452 C 0.3351 0.87266 0.35096 0.0
C453 C 0.34512 0.85355 0.34496 0.0
C454 C 0.31354 0.87051 0.34112 0.0
C455 C 0.30272 0.84916 0.32473 0.0
C456 C 0.33373 0.83276 0.32876 0.0
N457 N 0.27069 0.82443 0.3016 0.0
C458 C 0.28089 0.84576 0.31609 0.0
C459 C 0.23575 0.83557 0.30324 0.0
C460 C 0.24629 0.85815 0.31692 0.0
C461 C 0.24818 0.8187 0.29614 0.0
C462 C 0.26904 0.86334 0.32392 0.0
H463 H 0.23658 0.87108 0.32273 0.0
O464 O 0.26371 0.7733 0.30406 0.0
O465 O 0.30029 0.76751 0.26521 0.0
O466 O 0.28751 0.78832 0.22802 0.0
O467 O 0.27317 0.80564 0.26222 0.0
O468 O 0.26702 0.76446 0.26939 0.0
O469 O 0.2945 0.78738 0.32738 0.0
O470 O 0.35505 0.79954 0.23777 0.0
O471 O 0.31849 0.80721 0.27084 0.0
O472 O 0.3206 0.78061 0.30392 0.0
O473 O 0.34275 0.78086 0.27278 0.0
O474 O 0.31962 0.81784 0.23803 0.0
O475 O 0.33422 0.77914 0.20565 0.0
C476 C 0.28131 0.7545 0.25865 0.0
C477 C 0.27997 0.885 0.33941 0.0
C478 C 0.30223 0.88862 0.34792 0.0
C479 C 0.2741 0.77477 0.32456 0.0
C480 C 0.26139 0.77501 0.34505 0.0
C481 C 0.24011 0.7794 0.34486 0.0
C482 C 0.26907 0.76519 0.36288 0.0
C483 C 0.2547 0.75587 0.37834 0.0
C484 C 0.22638 0.77266 0.36192 0.0
C485 C 0.23333 0.76028 0.37816 0.0
C486 C 0.27244 0.79852 0.23881 0.0
C487 C 0.31875 0.82421 0.26061 0.0
C488 C 0.35363 0.79245 0.21484 0.0
C489 C 0.36491 0.80896 0.20113 0.0
C490 C 0.38785 0.81191 0.20038 0.0
C491 C 0.3529 0.81889 0.18623 0.0
C492 C 0.36375 0.83073 0.16992 0.0
C493 C 0.39868 0.82417 0.18439 0.0
C494 C 0.38664 0.83334 0.16898 0.0
C495 C 0.33925 0.77836 0.29465 0.0
H496 H 0.2338 0.78701 0.33109 0.0
H497 H 0.28591 0.76291 0.3632 0.0
H498 H 0.20984 0.77572 0.36164 0.0
H499 H 0.22164 0.7534 0.38974 0.0
H500 H 0.39723 0.80399 0.21159 0.0
H501 H 0.33511 0.81648 0.18652 0.0
H502 H 0.41632 0.8261 0.18358 0.0
H503 H 0.39513 0.84247 0.15632 0.0
Gd504 Gd 0.52736 0.03493 0.53043 0.0
Gd505 Gd 0.5844 0.0385 0.51378 0.0
C506 C 0.62853 0.11233 0.51574 0.0
C507 C 0.63253 0.11104 0.47402 0.0
C508 C 0.6106 0.07647 0.4863 0.0
C509 C 0.61498 0.08881 0.50975 0.0
C510 C 0.61974 0.08727 0.46823 0.0
C511 C 0.63691 0.12354 0.49772 0.0
C512 C 0.63365 0.12369 0.5397 0.0
C513 C 0.62542 0.11159 0.55701 0.0
N514 N 0.60669 0.07751 0.52678 0.0
C515 C 0.61201 0.08833 0.5502 0.0
H516 H 0.6058 0.07923 0.56371 0.0
C517 C 0.59591 0.03963 0.45885 0.0
N518 N 0.59814 0.05352 0.48127 0.0
C519 C 0.60455 0.04963 0.44031 0.0
C520 C 0.61626 0.07365 0.44496 0.0
H521 H 0.58697 0.02101 0.45531 0.0
H522 H 0.64714 0.1417 0.50198 0.0
H523 H 0.49444 0.00788 0.47847 0.0
H524 H 0.64431 0.14158 0.54503 0.0
H525 H 0.6294 0.12015 0.5756 0.0
H526 H 0.63952 0.11974 0.46035 0.0
H527 H 0.51965 0.03987 0.58936 0.0
H528 H 0.46313 0.9365 0.48279 0.0
H529 H 0.47078 0.96841 0.46004 0.0
H530 H 0.47665 0.93675 0.56467 0.0
H531 H 0.60226 0.0388 0.42248 0.0
H532 H 0.62302 0.08132 0.43059 0.0
H533 H 0.46635 0.92447 0.52168 0.0
H534 H 0.50723 0.0132 0.61615 0.0
N535 N 0.5023 0.9983 0.51122 0.0
C536 C 0.474 0.95377 0.49097 0.0
C537 C 0.47827 0.97172 0.47808 0.0
C538 C 0.48269 0.95881 0.5147 0.0
C539 C 0.49663 0.9817 0.52461 0.0
C540 C 0.4922 0.99407 0.48861 0.0
N541 N 0.51327 0.01172 0.55811 0.0
C542 C 0.50246 0.98859 0.54883 0.0
C543 C 0.50619 0.00588 0.5973 0.0
C544 C 0.49725 0.98152 0.58819 0.0
C545 C 0.51345 0.02089 0.58192 0.0
C546 C 0.49447 0.97276 0.56365 0.0
H547 H 0.49127 0.96998 0.60012 0.0
O548 O 0.51367 0.06005 0.55419 0.0
O549 O 0.56162 0.05881 0.53229 0.0
O550 O 0.58355 0.03856 0.55217 0.0
O551 O 0.54836 0.0401 0.56381 0.0
O552 O 0.53512 0.07219 0.52354 0.0
O553 O 0.49775 0.04458 0.51812 0.0
O554 O 0.59865 0.00793 0.50355 0.0
O555 O 0.55324 0.01428 0.5212 0.0
O556 O 0.53082 0.02871 0.49171 0.0
O557 O 0.56564 0.05031 0.48661 0.0
O558 O 0.56649 1.00306 0.49013 0.0
O559 O 0.61735 0.03897 0.52921 0.0
C560 C 0.55625 0.07703 0.52721 0.0
C561 C 0.48254 0.94923 0.55357 0.0
C562 C 0.47665 0.94226 0.5291 0.0
C563 C 0.49768 0.0593 0.53828 0.0
C564 C 0.47626 0.06102 0.54646 0.0
C565 C 0.46635 0.04742 0.56207 0.0
C566 C 0.46606 0.07761 0.53887 0.0
C567 C 0.44569 0.08068 0.54651 0.0
C568 C 0.44618 0.05051 0.57002 0.0
C569 C 0.43583 0.06693 0.56225 0.0
C570 C 0.56911 0.03981 0.56792 0.0
C571 C 0.55129 0.99683 0.50358 0.0
C572 C 0.61721 0.01783 0.51673 0.0
C573 C 0.63716 0.01461 0.50546 0.0
C574 C 0.64317 0.02439 0.48584 0.0
C575 C 0.64909 0.99939 0.51312 0.0
C576 C 0.6666 0.99337 0.50091 0.0
C577 C 0.6605 0.01833 0.47352 0.0
C578 C 0.67209 1.00273 0.48087 0.0
C579 C 0.54433 0.04229 0.48058 0.0
H580 H 0.47416 0.03459 0.56811 0.0
H581 H 0.47424 0.08838 0.5272 0.0
H582 H 0.43847 0.04005 0.58211 0.0
H583 H 0.41993 0.06849 0.56825 0.0
H584 H 0.6344 0.03641 0.47987 0.0
H585 H 0.64436 0.9917 0.5282 0.0
H586 H 0.6649 0.02566 0.4582 0.0
H587 H 0.68558 0.99831 0.4712 0.0
Gd588 Gd 0.33465 0.28218 0.77181 0.0
Gd589 Gd 0.27914 0.29366 0.76989 0.0
C590 C 0.24264 0.27727 0.69542 0.0
C591 C 0.23644 0.31607 0.69228 0.0
C592 C 0.25613 0.31158 0.72801 0.0
C593 C 0.254 0.2876 0.7182 0.0
C594 C 0.24702 0.32602 0.71531 0.0
C595 C 0.23417 0.2917 0.68239 0.0
C596 C 0.23982 0.25267 0.68654 0.0
C597 C 0.2488 0.23911 0.69995 0.0
N598 N 0.26253 0.2742 0.73116 0.0
C599 C 0.26016 0.25021 0.72224 0.0
H600 H 0.26758 0.23951 0.73177 0.0
C601 C 0.2657 0.34319 0.76197 0.0
N602 N 0.26607 0.3205 0.75045 0.0
C603 C 0.25727 0.35835 0.74999 0.0
C604 C 0.24813 0.34982 0.72644 0.0
H605 H 0.27223 0.34963 0.7804 0.0
H606 H 0.22561 0.28412 0.66479 0.0
H607 H 0.36574 0.33958 0.80034 0.0
H608 H 0.23062 0.24397 0.66948 0.0
H609 H 0.24704 0.22011 0.69312 0.0
H610 H 0.22947 0.32692 0.6822 0.0
H611 H 0.33814 0.22466 0.76762 0.0
H612 H 0.38706 0.33665 0.87023 0.0
H613 H 0.3837 0.35962 0.83941 0.0
H614 H 0.37335 0.25301 0.86835 0.0
H615 H 0.25757 0.3765 0.75901 0.0
H616 H 0.24136 0.3615 0.71727 0.0
H617 H 0.38269 0.29691 0.88099 0.0
H618 H 0.3479 0.19918 0.79343 0.0
N619 N 0.35575 0.30458 0.80835 0.0
C620 C 0.37841 0.32747 0.85297 0.0
C621 C 0.37655 0.34048 0.83563 0.0
C622 C 0.37036 0.3026 0.84736 0.0
C623 C 0.35916 0.29144 0.82458 0.0
C624 C 0.36558 0.32873 0.81328 0.0
N625 N 0.34456 0.25639 0.79507 0.0
C626 C 0.35352 0.26664 0.81766 0.0
C627 C 0.3493 0.21805 0.80062 0.0
C628 C 0.35664 0.22792 0.82441 0.0
C629 C 0.34374 0.23267 0.78606 0.0
C630 C 0.3594 0.25256 0.83309 0.0
H631 H 0.36112 0.21658 0.83564 0.0
O632 O 0.34632 0.25841 0.7442 0.0
O633 O 0.30307 0.27736 0.7489 0.0
O634 O 0.27444 0.25499 0.77412 0.0
O635 O 0.30894 0.24594 0.77067 0.0
O636 O 0.33198 0.29501 0.7381 0.0
O637 O 0.36912 0.29115 0.76379 0.0
O638 O 0.26132 0.30472 0.8 0.0
O639 O 0.30732 0.28942 0.79295 0.0
O640 O 0.33834 0.32216 0.77144 0.0
O641 O 0.30292 0.32875 0.76498 0.0
O642 O 0.2959 0.32031 0.80275 0.0
O643 O 0.24523 0.27448 0.77266 0.0
C644 C 0.31118 0.28612 0.73202 0.0
C645 C 0.36904 0.26359 0.85622 0.0
C646 C 0.37439 0.28858 0.8634 0.0
C647 C 0.36615 0.27245 0.74636 0.0
C648 C 0.38503 0.26168 0.74006 0.0
C649 C 0.38481 0.23829 0.74251 0.0
C650 C 0.40263 0.2742 0.72945 0.0
C651 C 0.41986 0.26337 0.72145 0.0
C652 C 0.40166 0.22748 0.73461 0.0
C653 C 0.41893 0.23977 0.72409 0.0
C654 C 0.28724 0.23955 0.77302 0.0
C655 C 0.30931 0.30814 0.80899 0.0
C656 C 0.24333 0.2881 0.7927 0.0
C657 C 0.22211 0.29535 0.79565 0.0
C658 C 0.21588 0.3108 0.78232 0.0
C659 C 0.20834 0.28761 0.81267 0.0
C660 C 0.18892 0.29597 0.81674 0.0
C661 C 0.19676 0.31911 0.78631 0.0
C662 C 0.18348 0.31193 0.80347 0.0
C663 C 0.32503 0.3364 0.76782 0.0
H664 H 0.37141 0.2281 0.75006 0.0
H665 H 0.4028 0.29222 0.72733 0.0
H666 H 0.40117 0.2093 0.73633 0.0
H667 H 0.43141 0.23053 0.71764 0.0
H668 H 0.22581 0.31653 0.76888 0.0
H669 H 0.21293 0.27556 0.82299 0.0
H670 H 0.19221 0.3312 0.77605 0.0
H671 H 0.16866 0.31857 0.80614 0.0
Gd672 Gd 0.06418 0.00949 0.50787 0.0
Gd673 Gd 0.05286 0.06372 0.53501 0.0
C674 C 0.07831 0.10679 0.61044 0.0
C675 C 0.04429 0.11355 0.62606 0.0
C676 C 0.04319 0.08966 0.58625 0.0
C677 C 0.06598 0.09306 0.58899 0.0
C678 C 0.03211 0.10009 0.60469 0.0
C679 C 0.06733 0.11688 0.62894 0.0
C680 C 0.10133 0.11007 0.61274 0.0
C681 C 0.11156 0.09961 0.59406 0.0
N682 N 0.07612 0.08299 0.57077 0.0
C683 C 0.09875 0.0861 0.57322 0.0
H684 H 0.1074 0.07763 0.55975 0.0
C685 C 0.00954 0.07459 0.56128 0.0
N686 N 0.03187 0.07678 0.56534 0.0
C687 C 0.99784 0.08439 0.57907 0.0
C688 C 0.00915 0.09711 0.60093 0.0
H689 H 0.00077 0.06526 0.54417 0.0
H690 H 0.07653 0.12741 0.64549 0.0
H691 H 0.00944 0.99484 0.48377 0.0
H692 H 0.11132 0.12043 0.62892 0.0
H693 H 0.12936 0.1017 0.59576 0.0
H694 H 0.03606 0.12166 0.64041 0.0
H695 H 0.11603 0.00666 0.49845 0.0
H696 H 0.0062 0.96027 0.4115 0.0
H697 H 0.98788 0.97519 0.44618 0.0
H698 H 0.08134 0.95908 0.39945 0.0
H699 H 0.98014 0.08239 0.57581 0.0
H700 H 9e-05 0.1049 0.61463 0.0
H701 H 0.041 0.95437 0.3943 0.0
H702 H 0.13672 0.99177 0.46576 0.0
N703 N 0.04094 0.99172 0.4717 0.0
C704 C 0.01606 0.96892 0.42825 0.0
C705 C 0.00568 0.97727 0.44776 0.0
C706 C 0.03902 0.97173 0.43059 0.0
C707 C 0.05119 0.98333 0.45278 0.0
C708 C 0.01829 0.98841 0.4694 0.0
N709 N 0.08513 0.99731 0.47705 0.0
C710 C 0.07393 0.98629 0.45554 0.0
C711 C 0.11909 0.99025 0.46258 0.0
C712 C 0.10794 0.97966 0.44012 0.0
C713 C 0.10733 0.9987 0.481 0.0
C714 C 0.08507 0.97734 0.43641 0.0
H715 H 0.11706 0.97298 0.42589 0.0
O716 O 0.0827 0.98643 0.51997 0.0
O717 O 0.06372 0.03207 0.54449 0.0
O718 O 0.08735 0.07061 0.52387 0.0
O719 O 0.09074 0.03726 0.49668 0.0
O720 O 0.09249 0.02227 0.53745 0.0
O721 O 0.04681 0.97391 0.51178 0.0
O722 O 0.03414 0.08614 0.52181 0.0
O723 O 0.05309 0.04107 0.49838 0.0
O724 O 0.02963 1.00254 0.51966 0.0
O725 O 0.0271 0.03635 0.54707 0.0
O726 O 0.024 0.05007 0.50638 0.0
O727 O 0.07 0.0987 0.52989 0.0
C728 C 0.08252 0.03152 0.55462 0.0
C729 C 0.07306 0.96599 0.41433 0.0
C730 C 0.05009 0.96325 0.41142 0.0
C731 C 0.06513 0.9696 0.51994 0.0
C732 C 0.06772 0.94511 0.51648 0.0
C733 C 0.08166 0.93632 0.5005 0.0
C734 C 0.05797 0.93133 0.53193 0.0
C735 C 0.06194 0.90875 0.53151 0.0
C736 C 0.0856 0.91362 0.50001 0.0
C737 C 0.07572 0.89979 0.51544 0.0
C738 C 0.0983 0.05983 0.50803 0.0
C739 C 0.03392 0.04136 0.48893 0.0
C740 C 0.05164 0.1031 0.52197 0.0
C741 C 0.04906 0.12756 0.52753 0.0
C742 C 0.03743 0.13602 0.54618 0.0
C743 C 0.05666 0.14188 0.51179 0.0
C744 C 0.05268 0.16473 0.51422 0.0
C745 C 0.03339 0.15891 0.54876 0.0
C746 C 0.04086 0.17323 0.53276 0.0
C747 C 0.01931 0.01384 0.53588 0.0
H748 H 0.08973 0.94709 0.48882 0.0
H749 H 0.04752 0.93835 0.5446 0.0
H750 H 0.09648 0.90683 0.48784 0.0
H751 H 0.07895 0.88228 0.51503 0.0
H752 H 0.03119 0.12489 0.55832 0.0
H753 H 0.06511 0.13485 0.49703 0.0
H754 H 0.02428 0.16548 0.56302 0.0
H755 H 0.0376 0.19092 0.53498 0.0
Gd756 Gd 0.28308 0.76936 0.77415 0.0
Gd757 Gd 0.33064 0.80446 0.75845 0.0
C758 C 0.33507 0.88238 0.75496 0.0
C759 C 0.34361 0.88236 0.71451 0.0
C760 C 0.33706 0.84517 0.72864 0.0
C761 C 0.33375 0.85747 0.75082 0.0
C762 C 0.34231 0.85762 0.71039 0.0
C763 C 0.33988 0.89467 0.73668 0.0
C764 C 0.33191 0.89436 0.77749 0.0
C765 C 0.328 0.8817 0.79541 0.0
N766 N 0.32982 0.84533 0.76848 0.0
C767 C 0.3273 0.85719 0.7907 0.0
H768 H 0.32406 0.84794 0.80491 0.0
C769 C 0.34078 0.80895 0.70412 0.0
N770 N 0.33591 0.82127 0.72508 0.0
C771 C 0.34591 0.82051 0.68552 0.0
C772 C 0.34663 0.84494 0.68864 0.0
H773 H 0.34068 0.79013 0.70186 0.0
H774 H 0.34108 0.9138 0.73962 0.0
H775 H 0.28909 0.71956 0.73592 0.0
H776 H 0.33266 0.91343 0.78128 0.0
H777 H 0.3256 0.89081 0.81293 0.0
H778 H 0.34769 0.8922 0.70072 0.0
H779 H 0.26399 0.79011 0.82512 0.0
H780 H 0.2837 0.66272 0.77256 0.0
H781 H 0.29003 0.67819 0.73617 0.0
H782 H 0.26364 0.6962 0.84832 0.0
H783 H 0.34956 0.81064 0.66891 0.0
H784 H 0.35085 0.85392 0.67427 0.0
H785 H 0.27383 0.66961 0.81434 0.0
H786 H 0.25338 0.77645 0.86146 0.0
N787 N 0.28382 0.72883 0.77232 0.0
C788 C 0.28365 0.68124 0.77269 0.0
C789 C 0.2872 0.68987 0.75214 0.0
C790 C 0.27928 0.69637 0.7929 0.0
C791 C 0.27946 0.72039 0.79217 0.0
C792 C 0.28684 0.71364 0.75216 0.0
N793 N 0.27316 0.75799 0.80956 0.0
C794 C 0.27384 0.73537 0.81133 0.0
C795 C 0.25918 0.76476 0.84753 0.0
C796 C 0.26065 0.7419 0.85003 0.0
C797 C 0.26524 0.77245 0.82693 0.0
C798 C 0.26773 0.72675 0.83169 0.0
H799 H 0.25581 0.73593 0.86596 0.0
O800 O 0.25052 0.77647 0.77409 0.0
O801 O 0.29453 0.80425 0.76161 0.0
O802 O 0.33189 0.81011 0.79796 0.0
O803 O 0.30542 0.7799 0.8078 0.0
O804 O 0.2773 0.80619 0.7906 0.0
O805 O 0.25551 0.7446 0.75073 0.0
O806 O 0.36168 0.80068 0.74563 0.0
O807 O 0.31945 0.7698 0.77102 0.0
O808 O 0.28864 0.75943 0.73601 0.0
O809 O 0.3053 0.79511 0.72732 0.0
O810 O 0.33704 0.7677 0.74234 0.0
O811 O 0.36133 0.8258 0.77969 0.0
C812 C 0.2855 0.81853 0.77563 0.0
C813 C 0.26821 0.70311 0.83279 0.0
C814 C 0.27401 0.68797 0.81345 0.0
C815 C 0.24147 0.75714 0.75827 0.0
C816 C 0.21962 0.74446 0.76237 0.0
C817 C 0.21596 0.73389 0.78197 0.0
C818 C 0.20173 0.74617 0.74784 0.0
C819 C 0.18016 0.73838 0.75327 0.0
C820 C 0.19427 0.72552 0.78714 0.0
C821 C 0.17634 0.72809 0.77302 0.0
C822 C 0.32269 0.79829 0.81345 0.0
C823 C 0.32874 0.75548 0.75738 0.0
C824 C 0.37292 0.81652 0.76378 0.0
C825 C 0.39681 0.82419 0.76456 0.0
C826 C 0.40675 0.83052 0.74483 0.0
C827 C 0.40982 0.82408 0.78491 0.0
C828 C 0.43283 0.83032 0.7856 0.0
C829 C 0.42982 0.83703 0.74566 0.0
C830 C 0.44289 0.83696 0.76602 0.0
C831 C 0.29349 0.77308 0.72071 0.0
H832 H 0.22971 0.73271 0.79355 0.0
H833 H 0.20462 0.75495 0.73305 0.0
H834 H 0.19138 0.71767 0.80245 0.0
H835 H 0.15962 0.72232 0.77757 0.0
H836 H 0.3967 0.83037 0.72888 0.0
H837 H 0.40211 0.81862 0.79994 0.0
H838 H 0.43757 0.84183 0.73045 0.0
H839 H 0.46079 0.84149 0.76633 0.0
Gd840 Gd 0.54343 0.04167 0.98956 0.0
Gd841 Gd 0.56149 0.02798 0.04682 0.0
C842 C 0.62773 0.06428 0.09075 0.0
C843 C 0.64633 0.03153 0.08708 0.0
C844 C 0.60958 0.02519 0.06663 0.0
C845 C 0.60951 0.04895 0.07552 0.0
C846 C 0.62787 0.01613 0.07255 0.0
C847 C 0.64625 0.05554 0.0962 0.0
C848 C 0.62644 0.08767 0.10081 0.0
C849 C 0.6071 0.09505 0.09609 0.0
N850 N 0.59111 0.05666 0.07045 0.0
C851 C 0.58943 0.07917 0.08092 0.0
H852 H 0.57457 0.0851 0.07754 0.0
C853 C 0.58942 0.98642 0.04658 0.0
N854 N 0.59122 0.01058 0.05331 0.0
C855 C 0.60731 0.9767 0.05152 0.0
C856 C 0.6267 0.99166 0.06439 0.0
H857 H 0.57429 0.97481 0.03687 0.0
H858 H 0.66042 0.06709 0.10779 0.0
H859 H 0.52556 0.98248 0.96376 0.0
H860 H 0.64006 0.09999 0.11261 0.0
H861 H 0.6058 0.11298 0.10409 0.0
H862 H 0.66056 0.02492 0.09178 0.0
H863 H 0.53729 0.0966 0.99158 0.0
H864 H 0.46657 0.97273 0.91817 0.0
H865 H 0.49533 0.9561 0.93543 0.0
H866 H 0.45585 0.05238 0.92604 0.0
H867 H 0.60604 0.95767 0.04559 0.0
H868 H 0.64043 0.98403 0.06851 0.0
H869 H 0.45181 0.00869 0.91499 0.0
H870 H 0.51154 0.11696 0.97449 0.0
N871 N 0.51464 0.01443 0.9629 0.0
C872 C 0.47997 0.98458 0.93063 0.0
C873 C 0.49619 0.97514 0.94029 0.0
C874 C 0.48129 0.0092 0.93707 0.0
C875 C 0.499 0.02381 0.95349 0.0
C876 C 0.51355 0.99037 0.95634 0.0
N877 N 0.51821 0.06153 0.97581 0.0
C878 C 0.50086 0.04816 0.96019 0.0
C879 C 0.50815 0.09757 0.97055 0.0
C880 C 0.48934 0.08395 0.95566 0.0
C881 C 0.52267 0.08598 0.98022 0.0
C882 C 0.48566 0.05893 0.95 0.0
H883 H 0.47814 0.09294 0.9481 0.0
O884 O 0.56527 0.06706 0.9743 0.0
O885 O 0.56756 0.04907 0.02032 0.0
O886 O 0.5434 0.05821 0.05153 0.0
O887 O 0.52214 0.05616 0.01574 0.0
O888 O 0.56668 0.07783 0.00699 0.0
O889 O 0.55815 0.02879 0.9578 0.0
O890 O 0.54783 1.00064 0.06499 0.0
O891 O 0.53488 0.02217 0.01822 0.0
O892 O 0.55681 0.00834 0.98658 0.0
O893 O 0.58276 0.01715 0.01942 0.0
O894 O 0.53752 0.99256 0.02995 0.0
O895 O 0.55003 0.03866 0.08109 0.0
C896 C 0.5777 0.07039 0.02232 0.0
C897 C 0.4678 0.04448 0.93393 0.0
C898 C 0.46556 0.01963 0.92755 0.0
C899 C 0.56826 0.05063 0.95691 0.0
C900 C 0.56907 0.0571 0.93414 0.0
C901 C 0.55566 0.07121 0.92668 0.0
C902 C 0.58649 0.05227 0.92162 0.0
C903 C 0.5914 0.06229 0.9022 0.0
C904 C 0.56031 0.08093 0.90682 0.0
C905 C 0.57838 0.07674 0.89469 0.0
C906 C 0.52753 0.06394 0.03895 0.0
C907 C 0.52459 1.00096 0.01738 0.0
C908 C 0.54438 0.01627 0.08298 0.0
C909 C 0.5465 0.01077 0.10607 0.0
C910 C 0.5604 0.99647 0.11204 0.0
C911 C 0.5304 0.01602 0.12038 0.0
C912 C 0.52676 0.00571 0.13977 0.0
C913 C 0.55741 0.98695 0.13231 0.0
C914 C 0.54023 0.99116 0.14601 0.0
C915 C 0.57488 0.00557 0.99773 0.0
H916 H 0.54223 0.07534 0.93656 0.0
H917 H 0.59704 0.04169 0.92775 0.0
H918 H 0.55023 0.09208 0.90114 0.0
H919 H 0.5821 0.08456 0.87948 0.0
H920 H 0.57278 0.99194 0.10064 0.0
H921 H 0.51931 0.02659 0.1153 0.0
H922 H 0.56779 0.97558 0.13687 0.0
H923 H 0.53729 0.98296 0.16111 0.0
Gd924 Gd 0.28644 0.25125 0.24907 0.0
Gd925 Gd 0.31371 0.3123 0.28335 0.0
C926 C 0.38368 0.3508 0.27019 0.0
C927 C 0.40467 0.35537 0.30803 0.0
C928 C 0.36536 0.33529 0.30165 0.0
C929 C 0.36443 0.33853 0.27863 0.0
C930 C 0.38531 0.3446 0.31687 0.0
C931 C 0.40387 0.35834 0.28468 0.0
C932 C 0.38188 0.3566 0.24805 0.0
C933 C 0.36114 0.35146 0.23541 0.0
N934 N 0.34438 0.33206 0.26543 0.0
C935 C 0.34254 0.33962 0.2445 0.0
H936 H 0.32704 0.3373 0.23426 0.0
C937 C 0.34561 0.32675 0.33381 0.0
N938 N 0.3463 0.32543 0.30998 0.0
C939 C 0.36491 0.33561 0.34949 0.0
C940 C 0.38495 0.34417 0.34091 0.0
H941 H 0.33008 0.3204 0.34068 0.0
H942 H 0.41874 0.36759 0.27837 0.0
H943 H 0.2664 0.2449 0.30276 0.0
H944 H 0.39623 0.36602 0.24104 0.0
H945 H 0.35938 0.35678 0.21866 0.0
H946 H 0.42012 0.36241 0.31941 0.0
H947 H 0.27281 0.2428 0.19111 0.0
H948 H 0.20404 0.19503 0.28889 0.0
H949 H 0.23619 0.21916 0.3168 0.0
H950 H 0.18661 0.18338 0.20532 0.0
H951 H 0.36426 0.336 0.36821 0.0
H952 H 0.39986 0.35135 0.35315 0.0
H953 H 0.18545 0.18245 0.24751 0.0
H954 H 0.24179 0.22043 0.16094 0.0
N955 N 0.25467 0.23278 0.26601 0.0
C956 C 0.2181 0.20543 0.2823 0.0
C957 C 0.23631 0.21873 0.29802 0.0
C958 C 0.21807 0.20612 0.25833 0.0
C959 C 0.23684 0.22001 0.25061 0.0
C960 C 0.25425 0.23259 0.28963 0.0
N961 N 0.25581 0.23378 0.2202 0.0
C962 C 0.23738 0.22068 0.227 0.0
C963 C 0.24019 0.22057 0.17949 0.0
C964 C 0.2209 0.20755 0.18633 0.0
C965 C 0.25763 0.23341 0.19668 0.0
C966 C 0.21935 0.20733 0.21029 0.0
H967 H 0.20748 0.1974 0.17297 0.0
O968 O 0.29737 0.22777 0.22073 0.0
O969 O 0.31751 0.27899 0.26154 0.0
O970 O 0.29976 0.31224 0.2459 0.0
O971 O 0.27502 0.27574 0.22836 0.0
O972 O 0.31282 0.26372 0.22625 0.0
O973 O 0.29841 0.22139 0.2566 0.0
O974 O 0.30472 0.33545 0.31359 0.0
O975 O 0.28236 0.28546 0.26955 0.0
O976 O 0.29903 0.25064 0.28667 0.0
O977 O 0.32518 0.28648 0.30269 0.0
O978 O 0.28562 0.30046 0.30465 0.0
O979 O 0.30561 0.34501 0.27903 0.0
C980 C 0.32679 0.2782 0.2429 0.0
C981 C 0.20059 0.19373 0.21789 0.0
C982 C 0.19995 0.19315 0.24188 0.0
C983 C 0.30179 0.21413 0.23458 0.0
C984 C 0.29648 0.18842 0.2253 0.0
C985 C 0.27975 0.17609 0.20697 0.0
C986 C 0.30946 0.17605 0.23558 0.0
C987 C 0.30552 0.15125 0.22876 0.0
C988 C 0.27631 0.15115 0.19928 0.0
C989 C 0.28919 0.13862 0.2102 0.0
C990 C 0.28519 0.2981 0.22839 0.0
C991 C 0.27172 0.28718 0.28721 0.0
C992 C 0.30373 0.35182 0.30158 0.0
C993 C 0.31396 0.37692 0.31274 0.0
C994 C 0.31934 0.38489 0.33737 0.0
C995 C 0.31257 0.39353 0.29902 0.0
C996 C 0.31003 0.41612 0.30972 0.0
C997 C 0.32123 0.40908 0.3479 0.0
C998 C 0.31556 0.42453 0.33425 0.0
C999 C 0.31442 0.2645 0.30357 0.0
H1000 H 0.26953 0.18559 0.19871 0.0
H1001 H 0.32257 0.18587 0.24954 0.0
H1002 H 0.26351 0.1415 0.1851 0.0
H1003 H 0.28609 0.11929 0.20464 0.0
H1004 H 0.32088 0.37237 0.34849 0.0
H1005 H 0.30902 0.38753 0.27991 0.0
H1006 H 0.32505 0.41525 0.36689 0.0
H1007 H 0.314 0.44217 0.34296 0.0
Gd1008 Gd 0.56462 0.50872 0.00651 0.0
Gd1009 Gd 0.55563 0.56422 0.03389 0.0
C1010 C 0.57562 0.59769 0.1127 0.0
C1011 C 0.54075 0.60414 0.1262 0.0
C1012 C 0.54229 0.58517 0.08506 0.0
C1013 C 0.5648 0.58705 0.0897 0.0
C1014 C 0.53012 0.59408 0.10323 0.0
C1015 C 0.56342 0.60588 0.13093 0.0
C1016 C 0.59853 0.60051 0.11661 0.0
C1017 C 0.61026 0.5936 0.09772 0.0
N1018 N 0.57635 0.57969 0.07154 0.0
C1019 C 0.59897 0.58363 0.0752 0.0
H1020 H 0.60869 0.57881 0.06109 0.0
C1021 C 0.51099 0.57631 0.0568 0.0
N1022 N 0.53252 0.5759 0.06257 0.0
C1023 C 0.49821 0.58457 0.07426 0.0
C1024 C 0.50777 0.59335 0.09762 0.0
H1025 H 0.50381 0.57042 0.03856 0.0
H1026 H 0.57148 0.61411 0.14864 0.0
H1027 H 0.50982 0.49529 0.98408 0.0
H1028 H 0.60739 0.60853 0.13401 0.0
H1029 H 0.62807 0.59611 0.10041 0.0
H1030 H 0.53166 0.61107 0.14034 0.0
H1031 H 0.61599 0.50528 0.996 0.0
H1032 H 0.50419 0.45786 0.9123 0.0
H1033 H 0.48708 0.47479 0.94716 0.0
H1034 H 0.57859 0.45418 0.89858 0.0
H1035 H 0.48111 0.58454 0.06961 0.0
H1036 H 0.49793 0.60009 0.11107 0.0
H1037 H 0.53831 0.45028 0.89439 0.0
H1038 H 0.63567 0.48861 0.96314 0.0
N1039 N 0.54054 0.49043 0.97121 0.0
C1040 C 0.5145 0.46682 0.92871 0.0
C1041 C 0.50479 0.47632 0.94833 0.0
C1042 C 0.53739 0.46895 0.93049 0.0
C1043 C 0.55014 0.48097 0.95224 0.0
C1044 C 0.51801 0.48792 0.96952 0.0
N1045 N 0.58462 0.49518 0.97547 0.0
C1046 C 0.57285 0.4835 0.95443 0.0
C1047 C 0.61803 0.48719 0.96039 0.0
C1048 C 0.60626 0.47576 0.93838 0.0
C1049 C 0.60686 0.49665 0.9789 0.0
C1050 C 0.58338 0.47366 0.9352 0.0
H1051 H 0.61493 0.46836 0.92407 0.0
O1052 O 0.58294 0.48582 0.01946 0.0
O1053 O 0.56628 0.53233 0.04302 0.0
O1054 O 0.59066 0.56812 0.02334 0.0
O1055 O 0.58959 0.53581 0.99265 0.0
O1056 O 0.59441 0.52129 0.03411 0.0
O1057 O 0.54698 0.47372 0.01135 0.0
O1058 O 0.54488 0.58746 0.0136 0.0
O1059 O 0.55426 0.54071 0.99725 0.0
O1060 O 0.53075 0.50276 0.02005 0.0
O1061 O 0.52753 0.53813 0.04461 0.0
O1062 O 0.52637 0.55225 0.00551 0.0
O1063 O 0.5728 0.60231 0.0402 0.0
C1064 C 0.58545 0.53129 0.05176 0.0
C1065 C 0.57078 0.46178 0.91356 0.0
C1066 C 0.54784 0.4595 0.91119 0.0
C1067 C 0.56519 0.46925 0.01965 0.0
C1068 C 0.56739 0.44461 0.01588 0.0
C1069 C 0.58065 0.43545 0.99928 0.0
C1070 C 0.55778 0.43092 0.03145 0.0
C1071 C 0.56122 0.40805 0.03057 0.0
C1072 C 0.58403 0.41245 0.99831 0.0
C1073 C 0.57429 0.3987 0.01386 0.0
C1074 C 0.59928 0.55745 0.00513 0.0
C1075 C 0.5352 0.54165 0.98799 0.0
C1076 C 0.5598 0.60638 0.02395 0.0
C1077 C 0.55242 0.62871 0.0278 0.0
C1078 C 0.53264 0.63056 0.03765 0.0
C1079 C 0.56284 0.64625 0.01633 0.0
C1080 C 0.55263 0.66444 0.01237 0.0
C1081 C 0.52279 0.64914 0.03486 0.0
C1082 C 0.53234 0.66563 0.02178 0.0
C1083 C 0.52004 0.51507 0.03504 0.0
H1084 H 0.58859 0.44614 0.98748 0.0
H1085 H 0.54784 0.43821 0.04456 0.0
H1086 H 0.59439 0.40538 0.98567 0.0
H1087 H 0.57716 0.38099 0.01311 0.0
H1088 H 0.52432 0.61724 0.04653 0.0
H1089 H 0.57843 0.64475 0.00943 0.0
H1090 H 0.50719 0.65015 0.04194 0.0
H1091 H 0.52342 0.67879 0.01859 0.0
Gd1092 Gd 0.78412 0.27144 0.27523 0.0
Gd1093 Gd 0.83202 0.30568 0.25857 0.0
C1094 C 0.83491 0.38398 0.2585 0.0
C1095 C 0.84027 0.38525 0.2175 0.0
C1096 C 0.83527 0.34734 0.23019 0.0
C1097 C 0.83365 0.35905 0.25331 0.0
C1098 C 0.83891 0.3605 0.21221 0.0
C1099 C 0.83812 0.39691 0.2405 0.0
C1100 C 0.83325 0.39537 0.28175 0.0
C1101 C 0.83081 0.38213 0.29934 0.0
N1102 N 0.83136 0.34639 0.27075 0.0
C1103 C 0.83013 0.35765 0.2936 0.0
H1104 H 0.82786 0.34795 0.30755 0.0
C1105 C 0.83737 0.31176 0.20328 0.0
N1106 N 0.83407 0.32336 0.22539 0.0
C1107 C 0.8409 0.32408 0.18502 0.0
C1108 C 0.84162 0.34854 0.18947 0.0
H1109 H 0.8374 0.2929 0.19991 0.0
H1110 H 0.83927 0.41605 0.24427 0.0
H1111 H 0.78718 0.22136 0.23414 0.0
H1112 H 0.83397 0.41441 0.28634 0.0
H1113 H 0.82945 0.39077 0.31738 0.0
H1114 H 0.84315 0.39561 0.20392 0.0
H1115 H 0.76662 0.29089 0.32712 0.0
H1116 H 0.77903 0.1623 0.26768 0.0
H1117 H 0.78535 0.17926 0.23219 0.0
H1118 H 0.76222 0.19423 0.34531 0.0
H1119 H 0.84336 0.31476 0.16761 0.0
H1120 H 0.84463 0.35812 0.17532 0.0
H1121 H 0.77064 0.16812 0.30988 0.0
H1122 H 0.75531 0.27572 0.3626 0.0
N1123 N 0.78312 0.22998 0.27114 0.0
C1124 C 0.78011 0.18124 0.26885 0.0
C1125 C 0.78363 0.19071 0.24881 0.0
C1126 C 0.77713 0.1961 0.28992 0.0
C1127 C 0.77866 0.22068 0.29051 0.0
C1128 C 0.78484 0.21505 0.25018 0.0
N1129 N 0.77442 0.25853 0.30998 0.0
C1130 C 0.77406 0.23538 0.3105 0.0
C1131 C 0.7607 0.26424 0.34815 0.0
C1132 C 0.76123 0.24081 0.34944 0.0
C1133 C 0.76712 0.27277 0.32806 0.0
C1134 C 0.76763 0.22593 0.33035 0.0
H1135 H 0.75611 0.23418 0.36496 0.0
O1136 O 0.75193 0.27922 0.27837 0.0
O1137 O 0.79603 0.30609 0.26243 0.0
O1138 O 0.83542 0.3102 0.29814 0.0
O1139 O 0.80693 0.2822 0.30866 0.0
O1140 O 0.77933 0.30879 0.29179 0.0
O1141 O 0.75577 0.24985 0.25071 0.0
O1142 O 0.86105 0.30432 0.2409 0.0
O1143 O 0.82043 0.27122 0.27142 0.0
O1144 O 0.78902 0.2611 0.23714 0.0
O1145 O 0.80524 0.29674 0.22867 0.0
O1146 O 0.83828 0.26853 0.24317 0.0
O1147 O 0.86462 0.32578 0.27683 0.0
C1148 C 0.78742 0.32075 0.27649 0.0
C1149 C 0.76699 0.20176 0.33018 0.0
C1150 C 0.77178 0.1869 0.31001 0.0
C1151 C 0.74224 0.26183 0.26076 0.0
C1152 C 0.72022 0.2485 0.26379 0.0
C1153 C 0.71565 0.23926 0.28406 0.0
C1154 C 0.70293 0.2477 0.24705 0.0
C1155 C 0.68105 0.2384 0.25071 0.0
C1156 C 0.69371 0.2296 0.28757 0.0
C1157 C 0.67636 0.22937 0.27104 0.0
C1158 C 0.82532 0.29932 0.3139 0.0
C1159 C 0.82935 0.25637 0.25797 0.0
C1160 C 0.87463 0.31857 0.25837 0.0
C1161 C 0.89668 0.31353 0.26114 0.0
C1162 C 0.90538 0.30327 0.24068 0.0
C1163 C 0.9103 0.32155 0.28278 0.0
C1164 C 0.9324 0.31956 0.2836 0.0
C1165 C 0.92716 0.30098 0.24169 0.0
C1166 C 0.94066 0.30913 0.26299 0.0
C1167 C 0.79336 0.27481 0.22193 0.0
H1168 H 0.72885 0.24006 0.29735 0.0
H1169 H 0.70639 0.25543 0.23168 0.0
H1170 H 0.69011 0.22286 0.30339 0.0
H1171 H 0.65936 0.22262 0.27426 0.0
H1172 H 0.89552 0.29757 0.22363 0.0
H1173 H 0.9041 0.33002 0.29859 0.0
H1174 H 0.93371 0.29323 0.22583 0.0
H1175 H 0.95766 0.30737 0.26341 0.0
Gd1176 Gd 0.04493 0.54178 0.48671 0.0
Gd1177 Gd 0.06318 0.52868 0.54528 0.0
C1178 C 0.1296 0.56178 0.59095 0.0
C1179 C 0.14664 0.52787 0.58703 0.0
C1180 C 0.11031 0.52339 0.56637 0.0
C1181 C 0.11114 0.54721 0.57549 0.0
C1182 C 0.12782 0.51326 0.57247 0.0
C1183 C 0.1475 0.55209 0.59631 0.0
C1184 C 0.1291 0.58533 0.60137 0.0
C1185 C 0.11017 0.59349 0.59702 0.0
N1186 N 0.0932 0.55566 0.57063 0.0
C1187 C 0.0922 0.57828 0.58181 0.0
H1188 H 0.07769 0.58498 0.57905 0.0
C1189 C 0.08852 0.48529 0.54683 0.0
N1190 N 0.0916 0.50967 0.55301 0.0
C1191 C 0.10554 0.47443 0.55207 0.0
C1192 C 0.12541 0.48853 0.56468 0.0
H1193 H 0.07304 0.47434 0.5373 0.0
H1194 H 0.1618 0.56299 0.60813 0.0
H1195 H 0.0354 0.48704 0.4491 0.0
H1196 H 0.14295 0.5971 0.61327 0.0
H1197 H 0.10938 0.61151 0.6054 0.0
H1198 H 0.1603 0.52045 0.59185 0.0
H1199 H 0.02929 0.59433 0.49992 0.0
H1200 H 0.97125 0.47254 0.41211 0.0
H1201 H 0.0059 0.46032 0.4203 0.0
H1202 H 0.94715 0.54441 0.43792 0.0
H1203 H 0.10325 0.4552 0.54655 0.0
H1204 H 0.13846 0.48005 0.56902 0.0
H1205 H 0.94951 0.5038 0.41891 0.0
H1206 H 0.9972 0.6103 0.49065 0.0
N1207 N 0.01735 0.51368 0.4595 0.0
C1208 C 0.98402 0.48422 0.42542 0.0
C1209 C 0.00353 0.47724 0.43002 0.0
C1210 C 0.98152 0.50651 0.43744 0.0
C1211 C 0.99866 0.52114 0.45465 0.0
C1212 C 0.02023 0.49242 0.44684 0.0
N1213 N 0.0144 0.55857 0.48092 0.0
C1214 C 0.99718 0.54412 0.46558 0.0
C1215 C 0.99686 0.59163 0.48365 0.0
C1216 C 0.97853 0.5767 0.469 0.0
C1217 C 0.01497 0.58245 0.48889 0.0
C1218 C 0.97872 0.55287 0.4593 0.0
H1219 H 0.96464 0.58398 0.46462 0.0
O1220 O 0.05778 0.57654 0.47843 0.0
O1221 O 0.06733 0.5531 0.52057 0.0
O1222 O 0.05112 0.56259 0.54745 0.0
O1223 O 0.02456 0.55416 0.51538 0.0
O1224 O 0.08131 0.55912 0.49024 0.0
O1225 O 0.0553 0.54229 0.45199 0.0
O1226 O 0.04165 0.50362 0.56136 0.0
O1227 O 0.03931 0.52124 0.51402 0.0
O1228 O 0.05991 0.50927 0.48136 0.0
O1229 O 0.08227 0.51355 0.51707 0.0
O1230 O 0.03803 0.4934 0.52939 0.0
O1231 O 0.0519 0.54097 0.57966 0.0
C1232 C 0.08488 0.56191 0.51267 0.0
C1233 C 0.96144 0.53799 0.44282 0.0
C1234 C 0.96279 0.51487 0.432 0.0
C1235 C 0.06142 0.56592 0.45734 0.0
C1236 C 0.07115 0.57924 0.4402 0.0
C1237 C 0.06999 0.60313 0.44163 0.0
C1238 C 0.08375 0.56877 0.42385 0.0
C1239 C 0.09536 0.58205 0.409 0.0
C1240 C 0.08131 0.61637 0.42659 0.0
C1241 C 0.094 0.60592 0.41033 0.0
C1242 C 0.03257 0.5652 0.53723 0.0
C1243 C 0.02794 0.50062 0.51313 0.0
C1244 C 0.04107 0.51943 0.58033 0.0
C1245 C 0.04223 0.51144 0.60255 0.0
C1246 C 0.05364 0.49393 0.60561 0.0
C1247 C 0.02821 0.5184 0.6191 0.0
C1248 C 0.02376 0.50657 0.63775 0.0
C1249 C 0.05019 0.48283 0.62477 0.0
C1250 C 0.03504 0.48876 0.64055 0.0
C1251 C 0.07595 0.50419 0.49428 0.0
H1252 H 0.06057 0.6116 0.45451 0.0
H1253 H 0.08482 0.55036 0.42291 0.0
H1254 H 0.08048 0.63482 0.42773 0.0
H1255 H 0.10296 0.61654 0.39903 0.0
H1256 H 0.06444 0.4882 0.59276 0.0
H1257 H 0.01995 0.53234 0.61661 0.0
H1258 H 0.05861 0.46895 0.62687 0.0
H1259 H 0.03176 0.47893 0.65446 0.0
Gd1260 Gd 0.83477 0.78251 0.27088 0.0
Gd1261 Gd 0.77888 0.79337 0.26782 0.0
C1262 C 0.7413 0.77758 0.19415 0.0
C1263 C 0.73435 0.81625 0.19179 0.0
C1264 C 0.75541 0.81188 0.22674 0.0
C1265 C 0.75313 0.78783 0.21673 0.0
C1266 C 0.74586 0.8263 0.21439 0.0
C1267 C 0.73202 0.79193 0.18173 0.0
C1268 C 0.73916 0.75319 0.18465 0.0
C1269 C 0.74922 0.73976 0.19726 0.0
N1270 N 0.76254 0.77445 0.22897 0.0
C1271 C 0.76091 0.75074 0.2194 0.0
H1272 H 0.76952 0.74041 0.22815 0.0
C1273 C 0.76716 0.84419 0.25993 0.0
N1274 N 0.76639 0.82102 0.24876 0.0
C1275 C 0.75827 0.85924 0.24824 0.0
C1276 C 0.7477 0.85031 0.2253 0.0
H1277 H 0.77457 0.85098 0.27806 0.0
H1278 H 0.723 0.78437 0.16434 0.0
H1279 H 0.86592 0.83938 0.29994 0.0
H1280 H 0.73 0.74467 0.16751 0.0
H1281 H 0.74816 0.721 0.18986 0.0
H1282 H 0.72696 0.82708 0.18206 0.0
H1283 H 0.83847 0.72468 0.26616 0.0
H1284 H 0.8868 0.83577 0.36975 0.0
H1285 H 0.88387 0.85906 0.33912 0.0
H1286 H 0.87233 0.75198 0.36723 0.0
H1287 H 0.75925 0.87761 0.25709 0.0
H1288 H 0.74058 0.86193 0.21638 0.0
H1289 H 0.88201 0.79585 0.38019 0.0
H1290 H 0.84714 0.69877 0.292 0.0
N1291 N 0.85548 0.80435 0.30775 0.0
C1292 C 0.87814 0.82677 0.35245 0.0
C1293 C 0.87652 0.83996 0.33523 0.0
C1294 C 0.86988 0.80193 0.34666 0.0
C1295 C 0.85871 0.791 0.32381 0.0
C1296 C 0.86555 0.82844 0.31282 0.0
N1297 N 0.84438 0.75623 0.2939 0.0
C1298 C 0.85304 0.76622 0.31664 0.0
C1299 C 0.84856 0.71763 0.29929 0.0
C1300 C 0.85569 0.72728 0.32316 0.0
C1301 C 0.84351 0.73248 0.28475 0.0
C1302 C 0.85863 0.75192 0.33198 0.0
H1303 H 0.85991 0.71578 0.33434 0.0
O1304 O 0.84892 0.75886 0.24519 0.0
O1305 O 0.80325 0.77699 0.24742 0.0
O1306 O 0.77415 0.75412 0.27056 0.0
O1307 O 0.80921 0.74607 0.26925 0.0
O1308 O 0.83221 0.79458 0.23681 0.0
O1309 O 0.86826 0.79448 0.26209 0.0
O1310 O 0.76193 0.79914 0.29989 0.0
O1311 O 0.80707 0.78982 0.29114 0.0
O1312 O 0.83824 0.82256 0.27115 0.0
O1313 O 0.80283 0.82839 0.26301 0.0
O1314 O 0.79509 0.82042 0.30072 0.0
O1315 O 0.74328 0.77822 0.26781 0.0
C1316 C 0.81152 0.78553 0.23047 0.0
C1317 C 0.86819 0.76272 0.35519 0.0
C1318 C 0.87372 0.7877 0.36255 0.0
C1319 C 0.86749 0.77491 0.24639 0.0
C1320 C 0.88831 0.76702 0.24408 0.0
C1321 C 0.89572 0.75477 0.26015 0.0
C1322 C 0.90147 0.77292 0.22599 0.0
C1323 C 0.92185 0.76626 0.22375 0.0
C1324 C 0.91582 0.74808 0.25804 0.0
C1325 C 0.92877 0.75373 0.24006 0.0
C1326 C 0.78736 0.73916 0.2705 0.0
C1327 C 0.80881 0.80856 0.30706 0.0
C1328 C 0.74247 0.7871 0.29005 0.0
C1329 C 0.72354 0.79791 0.29654 0.0
C1330 C 0.722 0.81926 0.28991 0.0
C1331 C 0.70709 0.78733 0.30981 0.0
C1332 C 0.68925 0.79806 0.31592 0.0
C1333 C 0.70482 0.83015 0.29629 0.0
C1334 C 0.6886 0.8197 0.30915 0.0
C1335 C 0.82487 0.83643 0.26673 0.0
H1336 H 0.88617 0.75065 0.27447 0.0
H1337 H 0.89581 0.78261 0.21369 0.0
H1338 H 0.92153 0.73868 0.27057 0.0
H1339 H 0.9445 0.7487 0.23925 0.0
H1340 H 0.7341 0.82762 0.27985 0.0
H1341 H 0.70799 0.77075 0.31502 0.0
H1342 H 0.70405 0.84679 0.29119 0.0
H1343 H 0.6755 0.82869 0.31395 0.0
Gd1344 Gd 0.79069 0.2966 0.79241 0.0
Gd1345 Gd 0.81731 0.27518 0.73933 0.0
C1346 C 0.79009 0.20267 0.68701 0.0
C1347 C 0.82025 0.18307 0.69019 0.0
C1348 C 0.82193 0.22211 0.71575 0.0
C1349 C 0.80148 0.22242 0.70512 0.0
C1350 C 0.8316 0.20251 0.70809 0.0
C1351 C 0.79956 0.18314 0.6797 0.0
C1352 C 0.76946 0.20298 0.67657 0.0
C1353 C 0.76015 0.22212 0.68476 0.0
N1354 N 0.79276 0.2418 0.71226 0.0
C1355 C 0.77176 0.24109 0.70284 0.0
H1356 H 0.76254 0.25376 0.70993 0.0
C1357 C 0.85442 0.24273 0.74101 0.0
N1358 N 0.83293 0.24135 0.73266 0.0
C1359 C 0.86437 0.22365 0.73434 0.0
C1360 C 0.85285 0.20333 0.71794 0.0
H1361 H 0.86436 0.25881 0.75268 0.0
H1362 H 0.79104 0.16802 0.66578 0.0
H1363 H 0.84465 0.3261 0.81093 0.0
H1364 H 0.7603 0.18821 0.66266 0.0
H1365 H 0.74366 0.22201 0.6776 0.0
H1366 H 0.82751 0.16802 0.68409 0.0
H1367 H 0.73906 0.30216 0.78568 0.0
H1368 H 0.84476 0.39034 0.86084 0.0
H1369 H 0.86484 0.36169 0.84004 0.0
H1370 H 0.76864 0.39459 0.85513 0.0
H1371 H 0.88118 0.22493 0.74143 0.0
H1372 H 0.86079 0.18872 0.7124 0.0
H1373 H 0.80886 0.40268 0.86608 0.0
H1374 H 0.7164 0.33004 0.80223 0.0
N1375 N 0.81274 0.33338 0.81536 0.0
C1376 C 0.83567 0.37457 0.848 0.0
C1377 C 0.84703 0.35839 0.83643 0.0
C1378 C 0.81278 0.37044 0.84252 0.0
C1379 C 0.80171 0.3495 0.82582 0.0
C1380 C 0.8353 0.33786 0.8201 0.0
N1381 N 0.76949 0.32496 0.80312 0.0
C1382 C 0.77932 0.3452 0.81937 0.0
C1383 C 0.73414 0.3347 0.807 0.0
C1384 C 0.74417 0.35594 0.82328 0.0
C1385 C 0.74706 0.31914 0.79738 0.0
C1386 C 0.76702 0.36135 0.82983 0.0
H1387 H 0.7341 0.36781 0.83099 0.0
O1388 O 0.76303 0.27523 0.80543 0.0
O1389 O 0.79728 0.26649 0.7668 0.0
O1390 O 0.78669 0.28775 0.72692 0.0
O1391 O 0.77297 0.30632 0.76135 0.0
O1392 O 0.76468 0.26494 0.77143 0.0
O1393 O 0.79478 0.28783 0.82697 0.0
O1394 O 0.85212 0.29268 0.7405 0.0
O1395 O 0.81731 0.3046 0.76967 0.0
O1396 O 0.82191 0.28754 0.80621 0.0
O1397 O 0.83332 0.26636 0.77251 0.0
O1398 O 0.81918 0.31303 0.73636 0.0
O1399 O 0.83226 0.27578 0.70665 0.0
C1400 C 0.77832 0.25331 0.76164 0.0
C1401 C 0.77782 0.38204 0.84678 0.0
C1402 C 0.80068 0.3866 0.85309 0.0
C1403 C 0.77423 0.27591 0.8252 0.0
C1404 C 0.76257 0.27722 0.8464 0.0
C1405 C 0.74346 0.28621 0.84861 0.0
C1406 C 0.76906 0.26543 0.86315 0.0
C1407 C 0.75604 0.26106 0.88141 0.0
C1408 C 0.73092 0.28297 0.86756 0.0
C1409 C 0.73703 0.27022 0.88384 0.0
C1410 C 0.77229 0.29927 0.73782 0.0
C1411 C 0.81883 0.32128 0.75871 0.0
C1412 C 0.85162 0.28803 0.71746 0.0
C1413 C 0.86417 0.30669 0.70668 0.0
C1414 C 0.88733 0.31345 0.71158 0.0
C1415 C 0.85379 0.31589 0.68976 0.0
C1416 C 0.86662 0.33086 0.67706 0.0
C1417 C 0.90007 0.32882 0.69927 0.0
C1418 C 0.88979 0.3373 0.68184 0.0
C1419 C 0.83513 0.27468 0.79586 0.0
H1420 H 0.73792 0.29503 0.83548 0.0
H1421 H 0.78382 0.25848 0.86119 0.0
H1422 H 0.71604 0.28963 0.86916 0.0
H1423 H 0.72659 0.26686 0.89776 0.0
H1424 H 0.89559 0.30631 0.72449 0.0
H1425 H 0.83592 0.31064 0.68568 0.0
H1426 H 0.91794 0.33377 0.70289 0.0
H1427 H 0.89987 0.34886 0.67205 0.0
Gd1428 Gd 0.78794 0.75701 0.75298 0.0
Gd1429 Gd 0.82191 0.81733 0.78139 0.0
C1430 C 0.89271 0.84645 0.76405 0.0
C1431 C 0.91466 0.84795 0.80043 0.0
C1432 C 0.87457 0.83194 0.79613 0.0
C1433 C 0.87316 0.83612 0.77337 0.0
C1434 C 0.89526 0.83923 0.8103 0.0
C1435 C 0.91341 0.85129 0.77726 0.0
C1436 C 0.89087 0.85332 0.74243 0.0
C1437 C 0.86999 0.85213 0.73174 0.0
N1438 N 0.85272 0.83319 0.76168 0.0
C1439 C 0.85118 0.84322 0.74229 0.0
H1440 H 0.83572 0.84561 0.73506 0.0
C1441 C 0.85597 0.82763 0.82992 0.0
N1442 N 0.85554 0.8244 0.80572 0.0
C1443 C 0.87589 0.83452 0.84451 0.0
C1444 C 0.89573 0.83972 0.83456 0.0
H1445 H 0.8408 0.82504 0.83836 0.0
H1446 H 0.92845 0.85912 0.77026 0.0
H1447 H 0.76857 0.76281 0.80699 0.0
H1448 H 0.90547 0.86109 0.73467 0.0
H1449 H 0.86838 0.85906 0.7159 0.0
H1450 H 0.9306 0.85343 0.81103 0.0
H1451 H 0.77491 0.74435 0.69455 0.0
H1452 H 0.70371 0.71679 0.79758 0.0
H1453 H 0.73694 0.7415 0.82382 0.0
H1454 H 0.68512 0.69794 0.71351 0.0
H1455 H 0.87586 0.83638 0.8635 0.0
H1456 H 0.91118 0.84567 0.84601 0.0
H1457 H 0.68386 0.70226 0.75656 0.0
H1458 H 0.74288 0.72201 0.6655 0.0
N1459 N 0.75492 0.74824 0.77108 0.0
C1460 C 0.71782 0.72587 0.78997 0.0
C1461 C 0.73648 0.73983 0.80483 0.0
C1462 C 0.71741 0.72418 0.76554 0.0
C1463 C 0.73662 0.73538 0.7565 0.0
C1464 C 0.75465 0.75156 0.7951 0.0
N1465 N 0.75679 0.74238 0.72451 0.0
C1466 C 0.73745 0.73273 0.73241 0.0
C1467 C 0.741 0.72521 0.68427 0.0
C1468 C 0.72083 0.71571 0.69218 0.0
C1469 C 0.759 0.73817 0.70075 0.0
C1470 C 0.71893 0.71911 0.71652 0.0
H1471 H 0.70705 0.70521 0.67941 0.0
O1472 O 0.79743 0.7291 0.72834 0.0
O1473 O 0.82209 0.78055 0.76408 0.0
O1474 O 0.81088 0.81433 0.74224 0.0
O1475 O 0.7805 0.78114 0.72954 0.0
O1476 O 0.81475 0.7632 0.72905 0.0
O1477 O 0.78714 0.72258 0.76252 0.0
O1478 O 0.8122 0.83518 0.81438 0.0
O1479 O 0.7894 0.79146 0.77771 0.0
O1480 O 0.8002 0.7545 0.78925 0.0
O1481 O 0.82386 0.7917 0.80603 0.0
O1482 O 0.78925 0.82576 0.77334 0.0
O1483 O 0.83175 0.85584 0.79212 0.0
C1484 C 0.83031 0.77638 0.74486 0.0
C1485 C 0.69948 0.70852 0.72542 0.0
C1486 C 0.69877 0.71095 0.74991 0.0
C1487 C 0.79403 0.71427 0.74243 0.0
C1488 C 0.7904 0.68863 0.7327 0.0
C1489 C 0.78294 0.6781 0.70884 0.0
C1490 C 0.79982 0.676 0.74667 0.0
C1491 C 0.80543 0.65466 0.73645 0.0
C1492 C 0.786 0.6553 0.69907 0.0
C1493 C 0.7978 0.64386 0.71259 0.0
C1494 C 0.79422 0.80078 0.72643 0.0
C1495 C 0.77706 0.80497 0.77395 0.0
C1496 C 0.82266 0.85633 0.81197 0.0
C1497 C 0.81275 0.87635 0.81989 0.0
C1498 C 0.81765 0.88927 0.84345 0.0
C1499 C 0.8006 0.88433 0.8036 0.0
C1500 C 0.79369 0.90545 0.81065 0.0
C1501 C 0.8104 0.91028 0.8506 0.0
C1502 C 0.79843 0.91845 0.8342 0.0
C1503 C 0.81382 0.76943 0.80679 0.0
H1504 H 0.77567 0.68779 0.69767 0.0
H1505 H 0.80491 0.68424 0.76525 0.0
H1506 H 0.78047 0.64718 0.68061 0.0
H1507 H 0.80173 0.62728 0.70411 0.0
H1508 H 0.82754 0.88344 0.85609 0.0
H1509 H 0.79721 0.87464 0.78524 0.0
H1510 H 0.81448 0.92048 0.86868 0.0
H1511 H 0.79341 0.93514 0.83964 0.0
Gd1512 Gd 0.5833 0.55262 0.53711 0.0
Gd1513 Gd 0.53114 0.52186 0.50533 0.0
C1514 C 0.4952 0.44454 0.50738 0.0
C1515 C 0.48778 0.42547 0.46564 0.0
C1516 C 0.50837 0.46722 0.47818 0.0
C1517 C 0.50672 0.46603 0.50155 0.0
C1518 C 0.49865 0.44702 0.4599 0.0
C1519 C 0.48603 0.42425 0.48935 0.0
C1520 C 0.49263 0.44418 0.53111 0.0
C1521 C 0.50141 0.46484 0.54836 0.0
N1522 N 0.51556 0.48608 0.51854 0.0
C1523 C 0.51295 0.48551 0.5418 0.0
H1524 H 0.52072 0.50029 0.55596 0.0
C1525 C 0.51827 0.49095 0.45015 0.0
N1526 N 0.51845 0.48846 0.4732 0.0
C1527 C 0.50919 0.47138 0.43148 0.0
C1528 C 0.49946 0.44925 0.43636 0.0
H1529 H 0.5251 0.50821 0.44613 0.0
H1530 H 0.4772 0.40767 0.49354 0.0
H1531 H 0.59659 0.57348 0.48623 0.0
H1532 H 0.48382 0.42812 0.53628 0.0
H1533 H 0.49976 0.46479 0.56688 0.0
H1534 H 0.48025 0.40981 0.45186 0.0
H1535 H 0.58887 0.56647 0.5963 0.0
H1536 H 0.62841 0.64723 0.5061 0.0
H1537 H 0.61519 0.60993 0.4756 0.0
H1538 H 0.63051 0.66568 0.59032 0.0
H1539 H 0.50938 0.4735 0.41333 0.0
H1540 H 0.49213 0.43418 0.42188 0.0
H1541 H 0.63375 0.66784 0.54869 0.0
H1542 H 0.60351 0.60155 0.62901 0.0
N1543 N 0.59885 0.5883 0.52363 0.0
C1544 C 0.62021 0.6309 0.51121 0.0
C1545 C 0.61292 0.6099 0.49401 0.0
C1546 C 0.61726 0.63048 0.53485 0.0
C1547 C 0.60645 0.60868 0.54063 0.0
C1548 C 0.6024 0.58879 0.50049 0.0
N1549 N 0.5951 0.58617 0.56912 0.0
C1550 C 0.6045 0.60756 0.56404 0.0
C1551 C 0.60371 0.60359 0.61084 0.0
C1552 C 0.61267 0.62587 0.60587 0.0
C1553 C 0.59531 0.5838 0.59221 0.0
C1554 C 0.61345 0.62804 0.5823 0.0
H1555 H 0.61945 0.64115 0.62033 0.0
O1556 O 0.60581 0.54355 0.56165 0.0
O1557 O 0.56189 0.51601 0.52199 0.0
O1558 O 0.52556 0.53567 0.54493 0.0
O1559 O 0.55829 0.56184 0.56361 0.0
O1560 O 0.57263 0.52368 0.55752 0.0
O1561 O 0.6145 0.54627 0.52618 0.0
O1562 O 0.50991 0.53348 0.48179 0.0
O1563 O 0.55282 0.55846 0.52017 0.0
O1564 O 0.58872 0.53847 0.49751 0.0
O1565 O 0.55568 0.51315 0.47834 0.0
O1566 O 0.54232 0.55023 0.48445 0.0
O1567 O 0.49935 0.52738 0.51577 0.0
C1568 C 0.56278 0.50671 0.53997 0.0
C1569 C 0.6236 0.64981 0.57655 0.0
C1570 C 0.62546 0.65103 0.55286 0.0
C1571 C 0.62051 0.54241 0.54669 0.0
C1572 C 0.64362 0.55181 0.55579 0.0
C1573 C 0.6518 0.57329 0.57265 0.0
C1574 C 0.65781 0.53792 0.54687 0.0
C1575 C 0.68049 0.54539 0.55375 0.0
C1576 C 0.67451 0.58057 0.58035 0.0
C1577 C 0.68892 0.56667 0.57091 0.0
C1578 C 0.53714 0.55102 0.56418 0.0
C1579 C 0.55239 0.56729 0.50183 0.0
C1580 C 0.49458 0.53359 0.49606 0.0
C1581 C 0.47179 0.5262 0.48547 0.0
C1582 C 0.46477 0.50968 0.46376 0.0
C1583 C 0.45732 0.53865 0.4965 0.0
C1584 C 0.43603 0.53537 0.48586 0.0
C1585 C 0.44317 0.50614 0.45315 0.0
C1586 C 0.42877 0.51915 0.46411 0.0
C1587 C 0.57693 0.52364 0.47809 0.0
H1588 H 0.64081 0.58423 0.57983 0.0
H1589 H 0.65103 0.52097 0.53436 0.0
H1590 H 0.68096 0.59704 0.59347 0.0
H1591 H 0.7065 0.57262 0.57669 0.0
H1592 H 0.47596 0.50002 0.45485 0.0
H1593 H 0.46284 0.55159 0.5132 0.0
H1594 H 0.4377 0.49357 0.43634 0.0
H1595 H 0.4121 0.51651 0.45582 0.0
Gd1596 Gd 0.02631 0.53136 0.02945 0.0
Gd1597 Gd 0.08095 0.53535 0.00744 0.0
C1598 C 0.12868 0.60878 0.01777 0.0
C1599 C 0.13584 0.61087 0.97732 0.0
C1600 C 0.11026 0.576 0.98528 0.0
C1601 C 0.11401 0.58608 0.00933 0.0
C1602 C 0.12133 0.58819 0.96902 0.0
C1603 C 0.13953 0.62113 0.00165 0.0
C1604 C 0.13188 0.61849 0.04217 0.0
C1605 C 0.12019 0.60589 0.05744 0.0
N1606 N 0.10304 0.57387 0.02444 0.0
C1607 C 0.10576 0.58352 0.04821 0.0
H1608 H 0.09625 0.57445 0.06006 0.0
C1609 C 0.09334 0.54263 0.95448 0.0
N1610 N 0.09607 0.55412 0.9778 0.0
C1611 C 0.10382 0.55408 0.93766 0.0
C1612 C 0.11773 0.57704 0.94493 0.0
H1613 H 0.08289 0.52468 0.94894 0.0
H1614 H 0.15076 0.63863 0.0078 0.0
H1615 H 0.99476 0.4965 0.97824 0.0
H1616 H 0.14317 0.63575 0.04935 0.0
H1617 H 0.12216 0.61346 0.0763 0.0
H1618 H 0.14442 0.62055 0.96509 0.0
H1619 H 0.02183 0.54225 0.08835 0.0
H1620 H 0.96845 0.42723 0.99101 0.0
H1621 H 0.97432 0.45508 0.96383 0.0
H1622 H 0.98072 0.43894 0.07499 0.0
H1623 H 0.1013 0.54511 0.91913 0.0
H1624 H 0.12592 0.58582 0.93189 0.0
H1625 H 0.97131 0.42126 0.03247 0.0
H1626 H 0.00968 0.51956 0.1187 0.0
N1627 N 0.00302 0.4926 0.01352 0.0
C1628 C 0.97804 0.4455 0.99754 0.0
C1629 C 0.98127 0.46117 0.98216 0.0
C1630 C 0.98598 0.45403 0.02145 0.0
C1631 C 0.99849 0.47801 0.02908 0.0
C1632 C 0.99342 0.48483 0.99054 0.0
N1633 N 0.01469 0.51137 0.05991 0.0
C1634 C 0.00432 0.48776 0.05303 0.0
C1635 C 0.0084 0.51028 0.10035 0.0
C1636 C -0.00018 0.48554 0.09385 0.0
C1637 C 0.01535 0.52304 0.08303 0.0
C1638 C 0.99709 0.47407 0.06989 0.0
H1639 H 0.99431 0.4757 0.10729 0.0
O1640 O 0.01381 0.5585 0.05176 0.0
O1641 O 0.05985 0.55613 0.02914 0.0
O1642 O 0.08105 0.52722 0.04313 0.0
O1643 O 0.05069 0.53701 0.06103 0.0
O1644 O 0.03207 0.56792 0.02107 0.0
O1645 O 0.99354 0.53616 0.01965 0.0
O1646 O 0.09586 0.50689 0.99114 0.0
O1647 O 0.05098 0.51065 0.01587 0.0
O1648 O 0.02626 0.52606 0.9904 0.0
O1649 O 0.05989 0.54709 0.98182 0.0
O1650 O 0.06174 0.50121 0.98269 0.0
O1651 O 0.11322 0.5328 0.02224 0.0
C1652 C 0.05332 0.57392 0.02413 0.0
C1653 C 0.98607 0.44979 0.06228 0.0
C1654 C 0.98066 0.43974 0.03808 0.0
C1655 C 0.99562 0.55425 0.03765 0.0
C1656 C 0.97599 0.5594 0.04817 0.0
C1657 C 0.96884 0.55113 0.06822 0.0
C1658 C 0.96584 0.57541 0.03931 0.0
C1659 C 0.949 0.58385 0.05077 0.0
C1660 C 0.95181 0.55924 0.07955 0.0
C1661 C 0.94204 0.57569 0.07103 0.0
C1662 C 0.07021 0.53189 0.06166 0.0
C1663 C 0.04812 0.49407 0.99735 0.0
C1664 C 0.1134 0.51362 0.0064 0.0
C1665 C 0.13446 0.51125 0.99698 0.0
C1666 C 0.14098 0.52024 0.9771 0.0
C1667 C 0.14721 0.4978 0.00684 0.0
C1668 C 0.16635 0.49319 0.99679 0.0
C1669 C 0.15983 0.51561 0.96695 0.0
C1670 C 0.17239 0.50212 0.97662 0.0
C1671 C 0.03815 0.53984 0.97817 0.0
H1672 H 0.97663 0.53886 0.07531 0.0
H1673 H 0.97161 0.58199 0.02394 0.0
H1674 H 0.94634 0.55298 0.09511 0.0
H1675 H 0.92886 0.5818 0.08004 0.0
H1676 H 0.13133 0.53044 0.96916 0.0
H1677 H 0.14214 0.49085 0.02222 0.0
H1678 H 0.1646 0.52227 0.95137 0.0
H1679 H 0.1867 0.49841 0.9681 0.0
C1680 C 0.04525 0.19418 0.97158 0.0
C1681 C 0.02326 0.19657 0.96919 0.0
C1682 C 0.05077 0.17498 0.98023 0.0
C1683 C 0.03405 0.15785 0.9875 0.0
C1684 C 0.01189 0.1607 0.98591 0.0
C1685 C 0.00672 0.17965 0.9764 0.0
C1686 C 0.07447 0.17262 0.98093 0.0
C1687 C 0.9936 0.14368 0.99434 0.0
C1688 C 0.04132 0.09405 0.98701 0.0
C1689 C 0.04672 0.09485 0.01106 0.0
C1690 C 0.03765 0.1144 0.97916 0.0
C1691 C 0.03945 0.13641 0.99567 0.0
C1692 C 0.04577 0.1375 0.01994 0.0
C1693 C 0.04902 0.11671 0.02733 0.0
C1694 C 0.03103 0.11205 0.95318 0.0
C1695 C 0.04863 0.1605 0.03825 0.0
H1696 H 0.05815 0.20704 0.96593 0.0
H1697 H 0.98975 0.18139 0.97486 0.0
H1698 H 0.08042 0.17109 0.99885 0.0
H1699 H 0.07543 0.15595 0.9684 0.0
H1700 H 0.08582 0.18808 0.97611 0.0
H1701 H 0.97728 0.14815 0.99202 0.0
H1702 H 0.99223 0.125 0.98453 0.0
H1703 H 0.99761 0.14423 0.01339 0.0
H1704 H 0.0391 0.07714 0.97436 0.0
H1705 H 0.05291 0.11741 0.04599 0.0
H1706 H 0.04234 0.12608 0.94632 0.0
H1707 H 0.01404 0.11484 0.95074 0.0
H1708 H 0.03131 0.09417 0.94241 0.0
H1709 H 0.06228 0.17446 0.03426 0.0
H1710 H 0.05254 0.15821 0.05648 0.0
H1711 H 0.03332 0.16723 0.03765 0.0
C1712 C 0.1609 0.81964 0.17461 0.0
C1713 C 0.16186 0.81776 0.15008 0.0
C1714 C 0.17813 0.81578 0.18929 0.0
C1715 C 0.19718 0.80999 0.17947 0.0
C1716 C 0.19819 0.80788 0.15467 0.0
C1717 C 0.18065 0.81176 0.14037 0.0
C1718 C 0.17594 0.81809 0.21544 0.0
C1719 C 0.21786 0.80142 0.14319 0.0
C1720 C 0.25167 0.82413 0.22032 0.0
C1721 C 0.25323 0.80148 0.22376 0.0
C1722 C 0.23371 0.82708 0.20602 0.0
C1723 C 0.21634 0.80695 0.19512 0.0
C1724 C 0.21757 0.78403 0.19905 0.0
C1725 C 0.23604 0.78156 0.21303 0.0
C1726 C 0.23352 0.85182 0.20232 0.0
C1727 C 0.19921 0.76211 0.18877 0.0
H1728 H 0.14651 0.82407 0.18245 0.0
H1729 H 0.18162 0.80992 0.12148 0.0
H1730 H 0.17948 0.8023 0.22139 0.0
H1731 H 0.18825 0.8342 0.22559 0.0
H1732 H 0.15914 0.8198 0.21991 0.0
H1733 H 0.21667 0.80125 0.12394 0.0
H1734 H 0.23339 0.81438 0.15192 0.0
H1735 H 0.21916 0.7834 0.14554 0.0
H1736 H 0.26469 0.83964 0.22844 0.0
H1737 H 0.23691 0.764 0.21585 0.0
H1738 H 0.21831 0.85693 0.20845 0.0
H1739 H 0.23323 0.85183 0.18313 0.0
H1740 H 0.2482 0.86565 0.21191 0.0
H1741 H 0.1836 0.76436 0.19634 0.0
H1742 H 0.20298 0.74544 0.19251 0.0
H1743 H 0.19619 0.75999 0.16931 0.0
C1744 C 0.52365 0.85138 0.48558 0.0
C1745 C 0.53522 0.84518 0.46598 0.0
C1746 C 0.52578 0.87577 0.49688 0.0
C1747 C 0.53984 0.89437 0.48848 0.0
C1748 C 0.55274 0.88797 0.4699 0.0
C1749 C 0.55024 0.8637 0.45897 0.0
C1750 C 0.51207 0.88165 0.51694 0.0
C1751 C 0.56844 0.90689 0.46061 0.0
C1752 C 0.52895 0.95536 0.48619 0.0
C1753 C 0.54419 0.97101 0.50426 0.0
C1754 C 0.52557 0.93027 0.48292 0.0
C1755 C 0.5393 0.92039 0.49655 0.0
C1756 C 0.55475 0.93617 0.51502 0.0
C1757 C 0.5566 0.96122 0.51901 0.0
C1758 C 0.5083 0.91435 0.46366 0.0
C1759 C 0.57038 0.92683 0.52951 0.0
H1760 H 0.51213 0.83734 0.49135 0.0
H1761 H 0.55969 0.85926 0.44423 0.0
H1762 H 0.52217 0.89583 0.53155 0.0
H1763 H 0.49826 0.88872 0.5105 0.0
H1764 H 0.50497 0.86564 0.52407 0.0
H1765 H 0.57845 0.899 0.44729 0.0
H1766 H 0.5589 0.91756 0.45223 0.0
H1767 H 0.57988 0.91945 0.47542 0.0
H1768 H 0.52028 0.96276 0.47389 0.0
H1769 H 0.56907 0.97329 0.53242 0.0
H1770 H 0.49764 0.90003 0.47076 0.0
H1771 H 0.51651 0.90549 0.4491 0.0
H1772 H 0.4976 0.92453 0.45616 0.0
H1773 H 0.56078 0.91451 0.53956 0.0
H1774 H 0.58228 0.94151 0.54223 0.0
H1775 H 0.57991 0.91639 0.51768 0.0
C1776 C 0.5146 0.28412 0.6383 0.0
C1777 C 0.5324 0.30388 0.64712 0.0
C1778 C 0.49446 0.28166 0.64862 0.0
C1779 C 0.49218 0.29924 0.66848 0.0
C1780 C 0.50949 0.32031 0.67601 0.0
C1781 C 0.52947 0.32228 0.66534 0.0
C1782 C 0.47636 0.25917 0.6396 0.0
C1783 C 0.50775 0.33977 0.69674 0.0
C1784 C 0.43546 0.28911 0.69286 0.0
C1785 C 0.43876 0.27585 0.70997 0.0
C1786 C 0.4529 0.29799 0.67991 0.0
C1787 C 0.47404 0.29324 0.68393 0.0
C1788 C 0.47767 0.28098 0.70203 0.0
C1789 C 0.46016 0.27274 0.71488 0.0
C1790 C 0.44842 0.3116 0.66134 0.0
C1791 C 0.49984 0.27546 0.7071 0.0
H1792 H 0.51695 0.26979 0.62433 0.0
H1793 H 0.54334 0.33746 0.67236 0.0
H1794 H 0.47448 0.24811 0.6532 0.0
H1795 H 0.46029 0.26384 0.63637 0.0
H1796 H 0.47992 0.24816 0.62293 0.0
H1797 H 0.51993 0.35689 0.69697 0.0
H1798 H 0.49082 0.34297 0.69631 0.0
H1799 H 0.51112 0.33409 0.71348 0.0
H1800 H 0.41906 0.29173 0.68889 0.0
H1801 H 0.46313 0.26316 0.72848 0.0
H1802 H 0.44674 0.29975 0.6435 0.0
H1803 H 0.46241 0.32732 0.66201 0.0
H1804 H 0.43291 0.3179 0.66354 0.0
H1805 H 0.50346 0.26314 0.69138 0.0
H1806 H 0.50032 0.26692 0.72257 0.0
H1807 H 0.51326 0.29212 0.71059 0.0
C1808 C 0.99753 0.83204 0.61834 0.0
C1809 C 0.00684 0.81217 0.61622 0.0
C1810 C 0.00551 0.85029 0.60628 0.0
C1811 C 0.02362 0.84875 0.59269 0.0
C1812 C 0.03361 0.82914 0.59147 0.0
C1813 C 0.02481 0.81087 0.60289 0.0
C1814 C 0.99418 0.87069 0.60746 0.0
C1815 C 0.05359 0.82739 0.57805 0.0
C1816 C 0.03348 0.87496 0.53883 0.0
C1817 C 0.0513 0.89453 0.5477 0.0
C1818 C 0.02319 0.8609 0.55383 0.0
C1819 C 0.03134 0.8664 0.5781 0.0
C1820 C 0.04892 0.88676 0.58732 0.0
C1821 C 0.05858 0.90086 0.57193 0.0
C1822 C 0.00439 0.83941 0.54345 0.0
C1823 C 0.05818 0.89293 0.61305 0.0
H1824 H 0.98382 0.83304 0.62898 0.0
H1825 H 0.03244 0.79579 0.60196 0.0
H1826 H 0.00653 0.88819 0.61133 0.0
H1827 H 0.98496 0.86891 0.58998 0.0
H1828 H 0.98232 0.87088 0.62113 0.0
H1829 H 0.05988 0.81139 0.57971 0.0
H1830 H 0.04931 0.82646 0.55897 0.0
H1831 H 0.06717 0.84367 0.58474 0.0
H1832 H 0.02775 0.87056 0.52008 0.0
H1833 H 0.07223 0.91636 0.57863 0.0
H1834 H 0.99047 0.83882 0.55468 0.0
H1835 H 0.01018 0.82272 0.54293 0.0
H1836 H 0.99811 0.83955 0.52515 0.0
H1837 H 0.04475 0.89456 0.62466 0.0
H1838 H 0.07124 0.90996 0.61757 0.0
H1839 H 0.0654 0.87828 0.6171 0.0
C1840 C 0.54139 0.825 0.82609 0.0
C1841 C 0.55015 0.82578 0.84902 0.0
C1842 C 0.51877 0.82263 0.82094 0.0
C1843 C 0.50474 0.82143 0.83939 0.0
C1844 C 0.51333 0.82116 0.8624 0.0
C1845 C 0.53607 0.82312 0.86691 0.0
C1846 C 0.51015 0.82261 0.79598 0.0
C1847 C 0.49873 0.8196 0.88229 0.0
C1848 C 0.46076 0.84857 0.81995 0.0
C1849 C 0.44653 0.82809 0.80591 0.0
C1850 C 0.47834 0.84645 0.83476 0.0
C1851 C 0.48183 0.82334 0.8346 0.0
C1852 C 0.46557 0.8026 0.82311 0.0
C1853 C 0.44788 0.80527 0.80875 0.0
C1854 C 0.49501 0.86897 0.8475 0.0
C1855 C 0.46856 0.77769 0.82292 0.0
H1856 H 0.55228 0.82655 0.81218 0.0
H1857 H 0.54294 0.82346 0.88464 0.0
H1858 H 0.49584 0.80711 0.7893 0.0
H1859 H 0.50437 0.83921 0.79589 0.0
H1860 H 0.52302 0.82173 0.78347 0.0
H1861 H 0.50839 0.82147 0.89956 0.0
H1862 H 0.48927 0.83375 0.88405 0.0
H1863 H 0.48646 0.80205 0.87823 0.0
H1864 H 0.45921 0.86617 0.81788 0.0
H1865 H 0.43647 0.7895 0.79795 0.0
H1866 H 0.5091 0.87252 0.83669 0.0
H1867 H 0.50171 0.86694 0.86493 0.0
H1868 H 0.48762 0.8848 0.85027 0.0
H1869 H 0.4789 0.77262 0.80861 0.0
H1870 H 0.45237 0.76428 0.81942 0.0
H1871 H 0.47711 0.77683 0.83993 0.0
C1872 C 0.47363 0.16367 0.11057 0.0
C1873 C 0.49151 0.18319 0.11927 0.0
C1874 C 0.47692 0.14379 0.09453 0.0
C1875 C 0.49851 0.14385 0.08797 0.0
C1876 C 0.51616 0.16435 0.09562 0.0
C1877 C 0.5123 0.18399 0.11113 0.0
C1878 C 0.45783 0.12217 0.08585 0.0
C1879 C 0.53938 0.16502 0.08875 0.0
C1880 C 0.51772 0.08673 0.07602 0.0
C1881 C 0.51693 0.08205 0.05131 0.0
C1882 C 0.51063 0.10632 0.08819 0.0
C1883 C 0.50335 0.12175 0.0752 0.0
C1884 C 0.50212 0.11687 0.0503 0.0
C1885 C 0.50805 0.09639 0.03862 0.0
C1886 C 0.51194 0.11116 0.11493 0.0
C1887 C 0.49534 0.1336 0.03602 0.0
H1888 H 0.45759 0.16353 0.11708 0.0
H1889 H 0.5259 0.19953 0.11806 0.0
H1890 H 0.45686 0.11612 0.06632 0.0
H1891 H 0.46061 0.10711 0.09372 0.0
H1892 H 0.44171 0.12593 0.09062 0.0
H1893 H 0.55104 0.18268 0.09617 0.0
H1894 H 0.54587 0.15099 0.09524 0.0
H1895 H 0.53916 0.16112 0.06918 0.0
H1896 H 0.52425 0.07538 0.08587 0.0
H1897 H 0.50661 0.09234 0.01962 0.0
H1898 H 0.49557 0.11276 0.12085 0.0
H1899 H 0.52398 0.12845 0.12262 0.0
H1900 H 0.51714 0.09678 0.12218 0.0
H1901 H 0.47727 0.13218 0.03612 0.0
H1902 H 0.4991 0.12933 0.01733 0.0
H1903 H 0.50393 0.15254 0.04389 0.0
C1904 C 0.19133 0.32871 0.35323 0.0
C1905 C 0.16898 0.32302 0.34446 0.0
C1906 C 0.20765 0.33013 0.33765 0.0
C1907 C 0.20106 0.32508 0.31298 0.0
C1908 C 0.17899 0.3235 0.30462 0.0
C1909 C 0.16301 0.32233 0.32057 0.0
C1910 C 0.23146 0.33327 0.34724 0.0
C1911 C 0.17169 0.31913 0.27853 0.0
C1912 C 0.2497 0.31582 0.28071 0.0
C1913 C 0.25025 0.29319 0.28496 0.0
C1914 C 0.23228 0.32631 0.28753 0.0
C1915 C 0.21469 0.31299 0.29726 0.0
C1916 C 0.2133 0.2885 0.29711 0.0
C1917 C 0.2316 0.27929 0.29186 0.0
C1918 C 0.23437 0.35234 0.28703 0.0
C1919 C 0.19423 0.27301 0.30626 0.0
H1920 H 0.19601 0.33035 0.37192 0.0
H1921 H 0.14571 0.31904 0.31393 0.0
H1922 H 0.23551 0.31545 0.34469 0.0
H1923 H 0.24293 0.34451 0.33766 0.0
H1924 H 0.23441 0.34164 0.36648 0.0
H1925 H 0.15626 0.32518 0.2755 0.0
H1926 H 0.18481 0.32846 0.2691 0.0
H1927 H 0.16827 0.29961 0.27073 0.0
H1928 H 0.26387 0.32631 0.27445 0.0
H1929 H 0.23163 0.26213 0.29536 0.0
H1930 H 0.24618 0.36369 0.3022 0.0
H1931 H 0.21831 0.35757 0.28819 0.0
H1932 H 0.24126 0.35614 0.27056 0.0
H1933 H 0.19645 0.27728 0.32593 0.0
H1934 H 0.19353 0.2536 0.30007 0.0
H1935 H 0.17812 0.27625 0.30042 0.0
C1936 C 0.96958 0.07762 0.18396 0.0
C1937 C 0.97496 0.06748 0.20311 0.0
C1938 C 0.98105 0.07624 0.16302 0.0
C1939 C 0.99795 0.06319 0.15969 0.0
C1940 C 0.00334 0.05278 0.17896 0.0
C1941 C 0.99239 0.05552 0.20025 0.0
C1942 C 0.97498 0.08903 0.14437 0.0
C1943 C 0.02061 0.03822 0.177 0.0
C1944 C 0.00798 0.03779 0.0939 0.0
C1945 C 0.0286 0.0521 0.0904 0.0
C1946 C 0.99839 0.04091 0.11593 0.0
C1947 C 0.00891 0.05942 0.13586 0.0
C1948 C 0.0297 0.07414 0.13246 0.0
C1949 C 0.03922 0.07023 0.11028 0.0
C1950 C 0.97681 0.02393 0.11792 0.0
C1951 C 0.04174 0.09479 0.15209 0.0
H1952 H 0.95651 0.0872 0.18551 0.0
H1953 H 0.99706 0.04748 0.21449 0.0
H1954 H 0.99012 0.09862 0.13785 0.0
H1955 H 0.96498 0.07575 0.12904 0.0
H1956 H 0.96516 0.10217 0.15118 0.0
H1957 H 0.02109 0.0287 0.19174 0.0
H1958 H 0.0173 0.02481 0.15992 0.0
H1959 H 0.03721 0.05018 0.17726 0.0
H1960 H 0.99923 0.02358 0.07927 0.0
H1961 H 0.05485 0.0819 0.10841 0.0
H1962 H 0.96362 0.03391 0.12063 0.0
H1963 H 0.97848 0.01589 0.13356 0.0
H1964 H 0.97144 0.00926 0.10187 0.0
H1965 H 0.03225 0.10892 0.15448 0.0
H1966 H 0.05874 0.10275 0.14821 0.0
H1967 H 0.04286 0.08898 0.16912 0.0
C1968 C 0.30867 0.69096 0.466 0.0
C1969 C 0.29819 0.66658 0.46228 0.0
C1970 C 0.30231 0.70517 0.45139 0.0
C1971 C 0.28473 0.69471 0.4332 0.0
C1972 C 0.27486 0.66984 0.42864 0.0
C1973 C 0.28216 0.65591 0.44294 0.0
C1974 C 0.31366 0.73153 0.45612 0.0
C1975 C 0.25592 0.65804 0.40946 0.0
C1976 C 0.2537 0.73777 0.41439 0.0
C1977 C 0.26167 0.73968 0.3925 0.0
C1978 C 0.26047 0.72244 0.42751 0.0
C1979 C 0.27651 0.70991 0.41912 0.0
C1980 C 0.28466 0.71173 0.39719 0.0
C1981 C 0.27644 0.72573 0.38372 0.0
C1982 C 0.25035 0.71945 0.45017 0.0
C1983 C 0.30226 0.69913 0.38805 0.0
H1984 H 0.321 0.69917 0.48107 0.0
H1985 H 0.27389 0.63707 0.44022 0.0
H1986 H 0.31908 0.73655 0.43947 0.0
H1987 H 0.30185 0.74243 0.46262 0.0
H1988 H 0.32831 0.73631 0.46953 0.0
H1989 H 0.24652 0.64052 0.41235 0.0
H1990 H 0.24419 0.66968 0.40847 0.0
H1991 H 0.26259 0.65471 0.39206 0.0
H1992 H 0.24226 0.74825 0.42139 0.0
H1993 H 0.28178 0.72565 0.36622 0.0
H1994 H 0.2633 0.72607 0.46546 0.0
H1995 H 0.24324 0.70013 0.44942 0.0
H1996 H 0.23705 0.72926 0.45341 0.0
H1997 H 0.31668 0.7036 0.4017 0.0
H1998 H 0.30819 0.70415 0.37157 0.0
H1999 H 0.29562 0.67942 0.38435 0.0
C2000 C 0.66127 0.0147 0.64058 0.0
C2001 C 0.65796 0.01797 0.66453 0.0
C2002 C 0.6441 0.01469 0.62405 0.0
C2003 C 0.62408 0.01898 0.63236 0.0
C2004 C 0.62036 0.02109 0.65631 0.0
C2005 C 0.63724 0.01993 0.67206 0.0
C2006 C 0.64787 0.01182 0.59818 0.0
C2007 C 0.5994 0.02675 0.66567 0.0
C2008 C 0.59392 0.05523 0.60311 0.0
C2009 C 0.57642 0.03718 0.59055 0.0
C2010 C 0.61031 0.04927 0.61619 0.0
C2011 C 0.60806 0.02491 0.61713 0.0
C2012 C 0.58913 0.00702 0.6063 0.0
C2013 C 0.5731 0.01357 0.59322 0.0
C2014 C 0.63025 0.06878 0.62821 0.0
C2015 C 0.58655 0.98099 0.60738 0.0
H2016 H 0.67726 0.01285 0.63495 0.0
H2017 H 0.63452 0.02226 0.69064 0.0
H2018 H 0.63283 1.0006 0.58673 0.0
H2019 H 0.65148 0.02969 0.59355 0.0
H2020 H 0.66208 1.00358 0.59414 0.0
H2021 H 0.59909 0.0271 0.68491 0.0
H2022 H 0.59798 0.04459 0.66282 0.0
H2023 H 0.58456 0.01335 0.65598 0.0
H2024 H 0.59591 0.07345 0.60067 0.0
H2025 H 0.55944 0.99983 0.58279 0.0
H2026 H 0.64575 0.064 0.62262 0.0
H2027 H 0.63085 0.07064 0.6477 0.0
H2028 H 0.62993 0.08645 0.62407 0.0
H2029 H 0.60072 0.97446 0.59996 0.0
H2030 H 0.57089 0.96934 0.59739 0.0
H2031 H 0.58679 0.97906 0.62607 0.0
C2032 C 0.31973 0.33147 0.95145 0.0
C2033 C 0.30511 0.34647 0.95672 0.0
C2034 C 0.32074 0.31983 0.92786 0.0
C2035 C 0.30668 0.32313 0.9093 0.0
C2036 C 0.29043 0.33632 0.91496 0.0
C2037 C 0.28996 0.34792 0.93851 0.0
C2038 C 0.33809 0.30568 0.9226 0.0
C2039 C 0.27456 0.33971 0.89591 0.0
C2040 C 0.32451 0.33085 0.84941 0.0
C2041 C 0.31337 0.3091 0.83452 0.0
C2042 C 0.32442 0.33445 0.87406 0.0
C2043 C 0.31114 0.31664 0.88401 0.0
C2044 C 0.29995 0.29441 0.86904 0.0
C2045 C 0.30171 0.29067 0.84446 0.0
C2046 C 0.33723 0.35812 0.88929 0.0
C2047 C 0.28495 0.2753 0.87869 0.0
H2048 H 0.3314 0.33017 0.96546 0.0
H2049 H 0.27829 0.35909 0.94254 0.0
H2050 H 0.33113 0.2888 0.90926 0.0
H2051 H 0.35186 0.31638 0.915 0.0
H2052 H 0.34498 0.30124 0.9388 0.0
H2053 H 0.26158 0.34843 0.90343 0.0
H2054 H 0.28385 0.35107 0.88478 0.0
H2055 H 0.26636 0.32216 0.88414 0.0
H2056 H 0.33267 0.34546 0.84166 0.0
H2057 H 0.29238 0.27413 0.83281 0.0
H2058 H 0.34652 0.35518 0.90492 0.0
H2059 H 0.32553 0.36913 0.89591 0.0
H2060 H 0.34916 0.36844 0.87933 0.0
H2061 H 0.29477 0.26882 0.89147 0.0
H2062 H 0.27625 0.25973 0.86448 0.0
H2063 H 0.27234 0.28285 0.88844 0.0
C2064 C 0.00335 0.07803 0.35981 0.0
C2065 C 0.98195 0.06504 0.34914 0.0
C2066 C 0.01278 0.07515 0.38198 0.0
C2067 C 0.00133 0.05784 0.39411 0.0
C2068 C 0.9798 0.04449 0.38327 0.0
C2069 C 0.97053 0.04826 0.36144 0.0
C2070 C 0.03548 0.09044 0.39201 0.0
C2071 C 0.96667 0.02539 0.3944 0.0
C2072 C 0.03463 0.03581 0.44244 0.0
C2073 C 0.02771 0.04617 0.46413 0.0
C2074 C 0.02612 0.03894 0.41986 0.0
C2075 C 0.01123 0.05421 0.41824 0.0
C2076 C 0.00557 0.06602 0.4402 0.0
C2077 C 0.01317 0.06144 0.4622 0.0
C2078 C 0.03286 0.02541 0.39757 0.0
C2079 C 0.99162 0.08411 0.44059 0.0
H2080 H 0.01314 0.09029 0.35046 0.0
H2081 H 0.95455 0.03708 0.35333 0.0
H2082 H 0.03656 0.09621 0.41159 0.0
H2083 H 0.04801 0.07983 0.38774 0.0
H2084 H 0.03983 0.10664 0.38437 0.0
H2085 H 0.95104 0.01524 0.38332 0.0
H2086 H 0.97681 0.0126 0.39728 0.0
H2087 H 0.9625 0.0337 0.41201 0.0
H2088 H 0.04637 0.02481 0.4429 0.0
H2089 H 0.00772 0.07037 0.47826 0.0
H2090 H 0.04262 0.03824 0.38813 0.0
H2091 H 0.01788 0.01505 0.3855 0.0
H2092 H 0.04297 0.01286 0.40126 0.0
H2093 H -0.00015 0.09855 0.43193 0.0
H2094 H 0.98896 0.0924 0.45888 0.0
H2095 H 0.97523 0.07548 0.43038 0.0
C2096 C 0.29754 0.69824 0.59443 0.0
C2097 C 0.27852 0.67946 0.59025 0.0
C2098 C 0.29913 0.71839 0.61243 0.0
C2099 C 0.28111 0.71954 0.62608 0.0
C2100 C 0.26099 0.70176 0.62022 0.0
C2101 C 0.26004 0.68156 0.60244 0.0
C2102 C 0.32097 0.73683 0.61869 0.0
C2103 C 0.24142 0.70276 0.63442 0.0
C2104 C 0.29731 0.73899 0.69107 0.0
C2105 C 0.2918 0.76114 0.69611 0.0
C2106 C 0.2938 0.72531 0.66822 0.0
C2107 C 0.28546 0.7347 0.64989 0.0
C2108 C 0.28118 0.75783 0.65458 0.0
C2109 C 0.28446 0.77101 0.678 0.0
C2110 C 0.2985 0.70058 0.66398 0.0
C2111 C 0.27298 0.76837 0.63503 0.0
H2112 H 0.3117 0.69649 0.58465 0.0
H2113 H 0.24512 0.66715 0.59852 0.0
H2114 H 0.31832 0.7552 0.6239 0.0
H2115 H 0.33023 0.73332 0.63403 0.0
H2116 H 0.33143 0.73611 0.60373 0.0
H2117 H 0.22607 0.68972 0.62527 0.0
H2118 H 0.24504 0.69852 0.65187 0.0
H2119 H 0.23838 0.72105 0.6378 0.0
H2120 H 0.30427 0.73221 0.70511 0.0
H2121 H 0.28078 0.78854 0.68223 0.0
H2122 H 0.31096 0.69923 0.6511 0.0
H2123 H 0.28313 0.68675 0.65637 0.0
H2124 H 0.30481 0.69622 0.68052 0.0
H2125 H 0.28607 0.77156 0.62298 0.0
H2126 H 0.26854 0.78563 0.64201 0.0
H2127 H 0.25828 0.75561 0.62427 0.0
C2128 C 0.64067 0.04989 0.79538 0.0
C2129 C 0.66107 0.04514 0.78986 0.0
C2130 C 0.63431 0.05073 0.81806 0.0
C2131 C 0.64879 0.04665 0.83574 0.0
C2132 C 0.6693 0.04144 0.83034 0.0
C2133 C 0.6752 0.04062 0.80723 0.0
C2134 C 0.61214 0.05635 0.82299 0.0
C2135 C 0.68486 0.03657 0.84869 0.0
C2136 C 0.62797 0.0762 0.88848 0.0
C2137 C 0.61025 0.05738 0.88997 0.0
C2138 C 0.64432 0.07192 0.87374 0.0
C2139 C 0.64191 0.04858 0.85974 0.0
C2140 C 0.62611 0.02901 0.86429 0.0
C2141 C 0.61024 0.03371 0.87948 0.0
C2142 C 0.6619 0.09294 0.87031 0.0
C2143 C 0.62354 1.00377 0.8502 0.0
H2144 H 0.62961 0.05322 0.78196 0.0
H2145 H 0.69098 0.03686 0.80291 0.0
H2146 H 0.60156 0.04165 0.82964 0.0
H2147 H 0.61459 0.0731 0.83677 0.0
H2148 H 0.60294 0.05873 0.80699 0.0
H2149 H 0.70205 0.03911 0.84356 0.0
H2150 H 0.6851 0.04831 0.86634 0.0
H2151 H 0.67914 0.01771 0.85044 0.0
H2152 H 0.62834 0.09435 0.89771 0.0
H2153 H 0.59678 0.01913 0.88154 0.0
H2154 H 0.65606 0.09972 0.85511 0.0
H2155 H 0.67755 0.08757 0.86633 0.0
H2156 H 0.66532 0.10784 0.88627 0.0
H2157 H 0.61298 1.00127 0.83336 0.0
H2158 H 0.6154 0.99033 0.86006 0.0
H2159 H 0.6398 1.00033 0.84574 0.0
C2160 C 0.3175 0.36193 0.12308 0.0
C2161 C 0.30553 0.3503 0.10106 0.0
C2162 C 0.31264 0.35331 0.14364 0.0
C2163 C 0.29506 0.33285 0.14226 0.0
C2164 C 0.28273 0.32121 0.12014 0.0
C2165 C 0.28827 0.32992 0.09975 0.0
C2166 C 0.32663 0.36577 0.16676 0.0
C2167 C 0.26359 0.29966 0.11807 0.0
C2168 C 0.29822 0.29621 0.18883 0.0
C2169 C 0.28515 0.3054 0.20556 0.0
C2170 C 0.30141 0.30487 0.16812 0.0
C2171 C 0.29067 0.3227 0.16365 0.0
C2172 C 0.27667 0.33138 0.18011 0.0
C2173 C 0.27446 0.32296 0.20122 0.0
C2174 C 0.31702 0.29563 0.15154 0.0
C2175 C 0.26457 0.35005 0.17583 0.0
H2176 H 0.33083 0.37771 0.12421 0.0
H2177 H 0.27872 0.32107 0.08286 0.0
H2178 H 0.31596 0.37081 0.1807 0.0
H2179 H 0.33568 0.35333 0.17282 0.0
H2180 H 0.33891 0.3822 0.16513 0.0
H2181 H 0.25519 0.29311 0.09974 0.0
H2182 H 0.26953 0.28481 0.12351 0.0
H2183 H 0.25126 0.3043 0.13023 0.0
H2184 H 0.30676 0.28286 0.19235 0.0
H2185 H 0.26458 0.33021 0.21438 0.0
H2186 H 0.33101 0.31067 0.15023 0.0
H2187 H 0.30834 0.28806 0.13347 0.0
H2188 H 0.3239 0.28157 0.15753 0.0
H2189 H 0.27645 0.36785 0.17931 0.0
H2190 H 0.25117 0.35127 0.18762 0.0
H2191 H 0.25726 0.34599 0.15712 0.0
C2192 C 0.26131 0.9649 0.03263 0.0
C2193 C 0.27287 0.96606 0.01284 0.0
C2194 C 0.24476 0.97733 0.03658 0.0
C2195 C 0.23939 0.99026 0.01971 0.0
C2196 C 0.25021 0.9901 0.99886 0.0
C2197 C 0.26738 0.97835 0.99594 0.0
C2198 C 0.23377 0.97747 0.05925 0.0
C2199 C 0.24439 1.00311 0.98026 0.0
C2200 C 0.18601 0.00693 0.03217 0.0
C2201 C 0.19397 0.0294 0.04757 0.0
C2202 C 0.2007 0.99471 0.0208 0.0
C2203 C 0.22364 0.00532 0.02519 0.0
C2204 C 0.23156 0.02889 0.03898 0.0
C2205 C 0.21651 0.04067 0.05017 0.0
C2206 C 0.19188 0.96968 0.00583 0.0
C2207 C 0.25603 0.04069 0.04398 0.0
H2208 H 0.26612 0.95543 0.04564 0.0
H2209 H 0.27675 0.97902 0.98071 0.0
H2210 H 0.23513 0.99618 0.06897 0.0
H2211 H 0.21587 0.96865 0.05504 0.0
H2212 H 0.24122 0.96798 0.07122 0.0
H2213 H 0.25134 0.99736 0.96337 0.0
H2214 H 0.22615 0.99998 0.97668 0.0
H2215 H 0.2512 0.02269 0.98672 0.0
H2216 H 0.16847 0.9983 0.03014 0.0
H2217 H 0.22245 0.05827 0.06176 0.0
H2218 H 0.19497 0.95635 0.01602 0.0
H2219 H 0.20055 0.96711 0.9896 0.0
H2220 H 0.17377 0.96584 1.00061 0.0
H2221 H 0.26364 0.03249 0.05705 0.0
H2222 H 0.25909 0.06029 0.05136 0.0
H2223 H 0.26454 0.03784 0.02769 0.0
C2224 C 0.70707 0.65714 0.99647 0.0
C2225 C 0.7248 0.64775 0.98815 0.0
C2226 C 0.68641 0.6419 0.99791 0.0
C2227 C 0.68337 0.61665 0.99093 0.0
C2228 C 0.7011 0.60715 0.98214 0.0
C2229 C 0.72149 0.62277 0.98077 0.0
C2230 C 0.66802 0.65281 0.00755 0.0
C2231 C 0.69871 0.58042 0.97463 0.0
C2232 C 0.63874 0.57792 0.01848 0.0
C2233 C 0.62135 0.57004 1.00018 0.0
C2234 C 0.6591 0.59267 0.01554 0.0
C2235 C 0.66205 0.60011 0.99384 0.0
C2236 C 0.64462 0.59176 0.9751 0.0
C2237 C 0.6245 0.57662 0.97843 0.0
C2238 C 0.67731 0.60062 0.03582 0.0
C2239 C 0.64692 0.59961 0.95188 0.0
H2240 H 0.70948 0.67639 0.00236 0.0
H2241 H 0.73506 0.61531 0.97433 0.0
H2242 H 0.65251 0.64537 0.99541 0.0
H2243 H 0.66461 0.64815 0.02487 0.0
H2244 H 0.67226 0.67267 0.01011 0.0
H2245 H 0.7143 0.57587 0.96893 0.0
H2246 H 0.69376 0.57165 0.98948 0.0
H2247 H 0.68542 0.57273 0.95975 0.0
H2248 H 0.63634 0.57265 0.03525 0.0
H2249 H 0.61092 0.5708 0.96441 0.0
H2250 H 0.68128 0.62044 0.04181 0.0
H2251 H 0.69264 0.59564 0.02988 0.0
H2252 H 0.67266 0.59252 0.05119 0.0
H2253 H 0.64822 0.61921 0.95488 0.0
H2254 H 0.63258 0.59021 0.9385 0.0
H2255 H 0.66233 0.59626 0.94457 0.0
C2256 C 0.70518 0.4144 0.26206 0.0
C2257 C 0.71599 0.43767 0.25936 0.0
C2258 C 0.71659 0.39557 0.26327 0.0
C2259 C 0.74002 0.39907 0.26185 0.0
C2260 C 0.75092 0.42234 0.25864 0.0
C2261 C 0.73912 0.44087 0.25751 0.0
C2262 C 0.70334 0.37165 0.26624 0.0
C2263 C 0.77544 0.42777 0.25627 0.0
C2264 C 0.77292 0.35895 0.29064 0.0
C2265 C 0.77735 0.3419 0.27152 0.0
C2266 C 0.7616 0.37731 0.28768 0.0
C2267 C 0.75311 0.37922 0.26486 0.0
C2268 C 0.75744 0.36195 0.24533 0.0
C2269 C 0.7694 0.34404 0.24879 0.0
C2270 C 0.75857 0.39482 0.30944 0.0
C2271 C 0.74859 0.36164 0.22051 0.0
H2272 H 0.6875 0.41081 0.26347 0.0
H2273 H 0.74826 0.45816 0.25519 0.0
H2274 H 0.70654 0.357 0.25246 0.0
H2275 H 0.70863 0.3685 0.28373 0.0
H2276 H 0.68524 0.37057 0.26509 0.0
H2277 H 0.78219 0.44678 0.25544 0.0
H2278 H 0.78455 0.42374 0.27141 0.0
H2279 H 0.77866 0.41607 0.23988 0.0
H2280 H 0.77841 0.35794 0.30843 0.0
H2281 H 0.77177 0.33107 0.23355 0.0
H2282 H 0.74063 0.39282 0.31136 0.0
H2283 H 0.76538 0.41347 0.30753 0.0
H2284 H 0.76685 0.39216 0.32586 0.0
H2285 H 0.73038 0.35413 0.21821 0.0
H2286 H 0.75613 0.35046 0.20697 0.0
H2287 H 0.75159 0.38008 0.21728 0.0
C2288 C 0.90059 0.47254 0.52419 0.0
C2289 C 0.88979 0.48807 0.51519 0.0
C2290 C 0.92345 0.47588 0.52483 0.0
C2291 C 0.93576 0.49555 0.51684 0.0
C2292 C 0.92535 0.5126 0.50985 0.0
C2293 C 0.90225 0.5085 0.50882 0.0
C2294 C 0.93422 0.45752 0.53267 0.0
C2295 C 0.93842 0.53428 0.50216 0.0
C2296 C 0.99691 0.51053 0.53357 0.0
C2297 C 0.0042 0.49802 0.51346 0.0
C2298 C 0.97463 0.51008 0.53487 0.0
C2299 C 0.95945 0.49754 0.5151 0.0
C2300 C 0.96665 0.485 0.49456 0.0
C2301 C 0.98912 0.4849 0.49423 0.0
C2302 C 0.96734 0.52236 0.55763 0.0
C2303 C 0.95059 0.47163 0.47315 0.0
H2304 H 0.8911 0.45682 0.5294 0.0
H2305 H 0.89395 0.52069 0.50218 0.0
H2306 H 0.94097 0.44775 0.51739 0.0
H2307 H 0.94832 0.46649 0.54641 0.0
H2308 H 0.9224 0.44418 0.53989 0.0
H2309 H 0.92835 0.54745 0.50047 0.0
H2310 H 0.95331 0.54339 0.51483 0.0
H2311 H 0.94425 0.5283 0.48475 0.0
H2312 H 0.00873 0.52093 0.54833 0.0
H2313 H 0.99485 0.47481 0.47906 0.0
H2314 H 0.95806 0.50861 0.56644 0.0
H2315 H 0.95599 0.53366 0.55392 0.0
H2316 H 0.98159 0.53372 0.57024 0.0
H2317 H 0.95876 0.46213 0.45896 0.0
H2318 H 0.94284 0.48446 0.46597 0.0
H2319 H 0.93706 0.45829 0.47819 0.0
C2320 C 0.39423 0.11501 0.30943 0.0
C2321 C 0.38384 0.09297 0.31436 0.0
C2322 C 0.38283 0.12589 0.29505 0.0
C2323 C 0.36067 0.11441 0.28598 0.0
C2324 C 0.34963 0.09328 0.29263 0.0
C2325 C 0.36115 0.08336 0.30766 0.0
C2326 C 0.39473 0.14904 0.28896 0.0
C2327 C 0.32614 0.08024 0.28258 0.0
C2328 C 0.31913 0.14585 0.26737 0.0
C2329 C 0.31825 0.13955 0.24262 0.0
C2330 C 0.33428 0.13927 0.28167 0.0
C2331 C 0.34803 0.12506 0.27087 0.0
C2332 C 0.34714 0.1183 0.24587 0.0
C2333 C 0.33221 0.12588 0.23188 0.0
C2334 C 0.33525 0.14707 0.30832 0.0
C2335 C 0.36186 0.10314 0.23404 0.0
H2336 H 0.41174 0.12262 0.31494 0.0
H2337 H 0.35302 0.06647 0.31181 0.0
H2338 H 0.39107 0.1488 0.26994 0.0
H2339 H 0.3889 0.16413 0.29938 0.0
H2340 H 0.41299 0.15265 0.29312 0.0
H2341 H 0.32045 0.06328 0.28869 0.0
H2342 H 0.31461 0.0919 0.28778 0.0
H2343 H 0.325 0.0759 0.26292 0.0
H2344 H 0.30836 0.15668 0.27553 0.0
H2345 H 0.33182 0.12171 0.21273 0.0
H2346 H 0.35267 0.15483 0.31618 0.0
H2347 H 0.32873 0.13127 0.31596 0.0
H2348 H 0.32541 0.16057 0.31373 0.0
H2349 H 0.37952 0.11262 0.23915 0.0
H2350 H 0.35867 0.09905 0.2144 0.0
H2351 H 0.35924 0.08599 0.24011 0.0
C2352 C 0.34964 0.12286 0.49944 0.0
C2353 C 0.3499 0.14731 0.50425 0.0
C2354 C 0.3692 0.11517 0.50152 0.0
C2355 C 0.38954 0.13244 0.50872 0.0
C2356 C 0.39025 0.15711 0.51064 0.0
C2357 C 0.37025 0.16436 0.5084 0.0
C2358 C 0.36764 0.0886 0.49871 0.0
C2359 C 0.41192 0.17577 0.51674 0.0
C2360 C 0.42236 0.11067 0.55252 0.0
C2361 C 0.43453 0.09768 0.53762 0.0
C2362 C 0.409 0.12391 0.54361 0.0
C2363 C 0.40828 0.12476 0.51929 0.0
C2364 C 0.42244 0.11399 0.50475 0.0
C2365 C 0.43512 0.10018 0.51397 0.0
C2366 C 0.39428 0.13531 0.55987 0.0
C2367 C 0.42309 0.11546 0.47905 0.0
H2368 H 0.3339 0.10968 0.49547 0.0
H2369 H 0.37046 0.1833 0.5116 0.0
H2370 H 0.38049 0.08309 0.48785 0.0
H2371 H 0.37049 0.08457 0.51641 0.0
H2372 H 0.35114 0.07757 0.49024 0.0
H2373 H 0.4099 0.19397 0.51585 0.0
H2374 H 0.41909 0.17634 0.53488 0.0
H2375 H 0.42405 0.17093 0.50441 0.0
H2376 H 0.42257 0.1097 0.57103 0.0
H2377 H 0.44458 0.0904 0.50222 0.0
H2378 H 0.37662 0.1264 0.55376 0.0
H2379 H 0.39665 0.15454 0.55941 0.0
H2380 H 0.39762 0.13392 0.57853 0.0
H2381 H 0.41023 0.10047 0.46797 0.0
H2382 H 0.43942 0.11382 0.47293 0.0
H2383 H 0.41978 0.13256 0.47605 0.0
C2384 C 0.73357 0.59443 0.26349 0.0
C2385 C 0.71272 0.59101 0.27245 0.0
C2386 C 0.74675 0.61787 0.26351 0.0
C2387 C 0.73957 0.63897 0.27334 0.0
C2388 C 0.71891 0.63552 0.28316 0.0
C2389 C 0.70584 0.61201 0.28224 0.0
C2390 C 0.76819 0.62002 0.25225 0.0
C2391 C 0.71012 0.65674 0.29429 0.0
C2392 C 0.78206 0.70171 0.28868 0.0
C2393 C 0.77639 0.71298 0.27062 0.0
C2394 C 0.77028 0.6781 0.28999 0.0
C2395 C 0.75283 0.66439 0.27224 0.0
C2396 C 0.74744 0.67558 0.25375 0.0
C2397 C 0.75869 0.69954 0.25355 0.0
C2398 C 0.776 0.66816 0.311 0.0
C2399 C 0.72972 0.66212 0.23384 0.0
H2400 H 0.73924 0.57873 0.25554 0.0
H2401 H 0.68987 0.61011 0.28923 0.0
H2402 H 0.76817 0.63079 0.23848 0.0
H2403 H 0.78228 0.62961 0.2658 0.0
H2404 H 0.77099 0.60225 0.244 0.0
H2405 H 0.69658 0.65162 0.30538 0.0
H2406 H 0.72353 0.67108 0.30544 0.0
H2407 H 0.70343 0.66436 0.28017 0.0
H2408 H 0.79517 0.71178 0.30243 0.0
H2409 H 0.75352 0.70762 0.23966 0.0
H2410 H 0.78141 0.65133 0.30496 0.0
H2411 H 0.76104 0.66363 0.32037 0.0
H2412 H 0.78934 0.68103 0.32374 0.0
H2413 H 0.73407 0.64541 0.22482 0.0
H2414 H 0.72758 0.67292 0.2205 0.0
H2415 H 0.71361 0.65677 0.24095 0.0
C2416 C 0.87915 0.44821 0.76667 0.0
C2417 C 0.8917 0.46179 0.78746 0.0
C2418 C 0.86569 0.42581 0.76652 0.0
C2419 C 0.8655 0.41701 0.78762 0.0
C2420 C 0.8782 0.43084 0.80874 0.0
C2421 C 0.89105 0.45351 0.80849 0.0
C2422 C 0.85218 0.41134 0.74366 0.0
C2423 C 0.87839 0.42163 0.83131 0.0
C2424 C 0.81905 0.36279 0.7777 0.0
C2425 C 0.83044 0.3454 0.76924 0.0
C2426 C 0.83088 0.38629 0.7872 0.0
C2427 C 0.85407 0.39218 0.78622 0.0
C2428 C 0.86557 0.37428 0.77837 0.0
C2429 C 0.85346 0.35087 0.77013 0.0
C2430 C 0.81857 0.40502 0.79683 0.0
C2431 C 0.89021 0.38008 0.77625 0.0
H2432 H 0.8797 0.45527 0.75069 0.0
H2433 H 0.90089 0.4646 0.8245 0.0
H2434 H 0.85725 0.39422 0.73804 0.0
H2435 H 0.83435 0.40679 0.74638 0.0
H2436 H 0.85414 0.42114 0.72903 0.0
H2437 H 0.89097 0.43371 0.84543 0.0
H2438 H 0.86183 0.42007 0.83788 0.0
H2439 H 0.88177 0.40349 0.828 0.0
H2440 H 0.80111 0.358 0.77684 0.0
H2441 H 0.86193 0.33699 0.76345 0.0
H2442 H 0.81786 0.41678 0.7841 0.0
H2443 H 0.82741 0.41651 0.81377 0.0
H2444 H 0.80136 0.3968 0.79988 0.0
H2445 H 0.89348 0.38882 0.76103 0.0
H2446 H 0.89687 0.36373 0.77323 0.0
H2447 H 0.89943 0.39275 0.79239 0.0
C2448 C 0.10214 0.88588 0.05759 0.0
C2449 C 0.08812 0.87495 0.07259 0.0
C2450 C 0.09801 0.90571 0.04886 0.0
C2451 C 0.07897 0.91458 0.05451 0.0
C2452 C 0.06428 0.90286 0.06877 0.0
C2453 C 0.0692 0.88367 0.07791 0.0
C2454 C 0.11446 0.9177 0.03418 0.0
C2455 C 0.04317 0.91057 0.07427 0.0
C2456 C 0.07945 0.98061 0.05492 0.0
C2457 C 0.06933 0.97947 0.03231 0.0
C2458 C 0.08274 0.95984 0.06217 0.0
C2459 C 0.07508 0.93687 0.04681 0.0
C2460 C 0.064 0.93554 0.02422 0.0
C2461 C 0.06199 0.95682 0.01698 0.0
C2462 C 0.09519 0.96264 0.08607 0.0
C2463 C 0.05468 0.91171 0.00734 0.0
H2464 H 0.1168 0.87945 0.0533 0.0
H2465 H 0.058 0.87524 0.08912 0.0
H2466 H 0.10595 0.91851 0.01713 0.0
H2467 H 0.12201 0.93645 0.04371 0.0
H2468 H 0.12791 0.9082 0.03039 0.0
H2469 H 0.03318 0.89947 0.08518 0.0
H2470 H 0.04706 0.92963 0.08386 0.0
H2471 H 0.03296 0.90921 0.0575 0.0
H2472 H 0.08565 0.998 0.06673 0.0
H2473 H 0.05488 0.95572 0.99917 0.0
H2474 H 0.11016 0.95537 0.08379 0.0
H2475 H 0.08468 0.95221 0.09709 0.0
H2476 H 0.10044 0.98168 0.0958 0.0
H2477 H 0.06836 0.90521 0.99877 0.0
H2478 H 0.04253 0.91316 0.99322 0.0
H2479 H 0.04644 0.89808 0.0169 0.0
C2480 C 0.95167 0.26985 0.85551 0.0
C2481 C 0.95281 0.261 0.87643 0.0
C2482 C 0.93145 0.2701 0.84348 0.0
C2483 C 0.91113 0.26097 0.85203 0.0
C2484 C 0.91186 0.25137 0.8728 0.0
C2485 C 0.9326 0.25149 0.88474 0.0
C2486 C 0.932 0.28096 0.82185 0.0
C2487 C 0.89067 0.24089 0.88233 0.0
C2488 C 0.8629 0.28643 0.8323 0.0
C2489 C 0.85314 0.26977 0.81132 0.0
C2490 C 0.88111 0.28335 0.84611 0.0
C2491 C 0.88958 0.26262 0.83947 0.0
C2492 C 0.87895 0.24507 0.819 0.0
C2493 C 0.86119 0.249 0.80507 0.0
C2494 C 0.89194 0.30292 0.86729 0.0
C2495 C 0.88674 0.22237 0.81135 0.0
H2496 H 0.96685 0.27714 0.84845 0.0
H2497 H 0.93296 0.2445 0.9007 0.0
H2498 H 0.92177 0.26795 0.80649 0.0
H2499 H 0.92483 0.29692 0.82528 0.0
H2500 H 0.94908 0.28656 0.8169 0.0
H2501 H 0.8938 0.23642 0.89979 0.0
H2502 H 0.87968 0.25356 0.88418 0.0
H2503 H 0.88161 0.22429 0.8696 0.0
H2504 H 0.85687 0.30249 0.83754 0.0
H2505 H 0.85356 0.2357 0.78927 0.0
H2506 H 0.90928 0.31075 0.86439 0.0
H2507 H 0.89261 0.29538 0.88336 0.0
H2508 H 0.88303 0.31756 0.87067 0.0
H2509 H 0.903 0.22663 0.8042 0.0
H2510 H 0.87487 0.20898 0.79744 0.0
H2511 H 0.8891 0.21419 0.82675 0.0
C2512 C 0.60828 0.21928 0.57155 0.0
C2513 C 0.5905 0.23042 0.57354 0.0
C2514 C 0.60494 0.19456 0.56175 0.0
C2515 C 0.58318 0.18033 0.55415 0.0
C2516 C 0.5652 0.19173 0.55514 0.0
C2517 C 0.56908 0.21662 0.56482 0.0
C2518 C 0.62462 0.18343 0.56058 0.0
C2519 C 0.54166 0.17739 0.5476 0.0
C2520 C 0.57243 0.11613 0.51701 0.0
C2521 C 0.56852 0.10244 0.5343 0.0
C2522 C 0.57812 0.14143 0.52321 0.0
C2523 C 0.57907 0.1534 0.54724 0.0
C2524 C 0.57547 0.1395 0.56479 0.0
C2525 C 0.57034 0.11426 0.55811 0.0
C2526 C 0.58203 0.15531 0.50388 0.0
C2527 C 0.576 0.15127 0.59056 0.0
H2528 H 0.62479 0.22976 0.57874 0.0
H2529 H 0.55519 0.22496 0.56699 0.0
H2530 H 0.62297 0.17003 0.57189 0.0
H2531 H 0.62514 0.17383 0.54213 0.0
H2532 H 0.64056 0.19697 0.56646 0.0
H2533 H 0.53007 0.1891 0.546 0.0
H2534 H 0.54054 0.16461 0.53039 0.0
H2535 H 0.53614 0.16669 0.56094 0.0
H2536 H 0.57022 0.10699 0.49849 0.0
H2537 H 0.56646 0.10367 0.57139 0.0
H2538 H 0.5979 0.16914 0.50841 0.0
H2539 H 0.5686 0.16477 0.50226 0.0
H2540 H 0.58252 0.14348 0.48644 0.0
H2541 H 0.5926 0.16325 0.59703 0.0
H2542 H 0.57223 0.13795 0.60192 0.0
H2543 H 0.56375 0.16254 0.59265 0.0
C2544 C 0.58445 0.74484 0.38294 0.0
C2545 C 0.58025 0.76426 0.39901 0.0
C2546 C 0.6033 0.74766 0.37034 0.0
C2547 C 0.61782 0.77067 0.37316 0.0
C2548 C 0.61366 0.79029 0.38959 0.0
C2549 C 0.59518 0.78674 0.4026 0.0
C2550 C 0.60755 0.72607 0.35383 0.0
C2551 C 0.62805 0.81532 0.39255 0.0
C2552 C 0.67536 0.78094 0.35071 0.0
C2553 C 0.67096 0.78741 0.32917 0.0
C2554 C 0.65816 0.77461 0.36492 0.0
C2555 C 0.63607 0.7748 0.35743 0.0
C2556 C 0.6315 0.78027 0.3352 0.0
C2557 C 0.64889 0.78633 0.32137 0.0
C2558 C 0.66374 0.76862 0.38836 0.0
C2559 C 0.6083 0.78066 0.32636 0.0
H2560 H 0.57302 0.7274 0.38034 0.0
H2561 H 0.59184 0.80184 0.41486 0.0
H2562 H 0.60775 0.72898 0.33548 0.0
H2563 H 0.62411 0.7235 0.3592 0.0
H2564 H 0.59486 0.70939 0.35381 0.0
H2565 H 0.62361 0.82827 0.40722 0.0
H2566 H 0.64577 0.81536 0.39605 0.0
H2567 H 0.62621 0.82166 0.37588 0.0
H2568 H 0.69235 0.78187 0.35696 0.0
H2569 H 0.6453 0.791 0.3046 0.0
H2570 H 0.6525 0.75151 0.38989 0.0
H2571 H 0.66122 0.78282 0.40306 0.0
H2572 H 0.68117 0.76707 0.39067 0.0
H2573 H 0.59696 0.76278 0.32482 0.0
H2574 H 0.60754 0.7856 0.30882 0.0
H2575 H 0.60199 0.79372 0.33923 0.0
C2576 C 0.104 0.26644 0.45102 0.0
C2577 C 0.10235 0.26047 0.42624 0.0
C2578 C 0.09594 0.2491 0.46384 0.0
C2579 C 0.08634 0.22527 0.45151 0.0
C2580 C 0.0854 0.2189 0.42655 0.0
C2581 C 0.09331 0.23671 0.41414 0.0
C2582 C 0.09729 0.25639 0.49054 0.0
C2583 C 0.07546 0.19355 0.41292 0.0
C2584 C 0.08252 0.18094 0.49084 0.0
C2585 C 0.06084 0.17926 0.49708 0.0
C2586 C 0.09068 0.19479 0.47477 0.0
C2587 C 0.07684 0.20734 0.46501 0.0
C2588 C 0.05462 0.20484 0.47037 0.0
C2589 C 0.04687 0.19081 0.48648 0.0
C2590 C 0.11436 0.1968 0.46904 0.0
C2591 C 0.03939 0.21787 0.45999 0.0
H2592 H 0.11098 0.28482 0.4604 0.0
H2593 H 0.09211 0.23209 0.39495 0.0
H2594 H 0.08051 0.25193 0.49651 0.0
H2595 H 0.10755 0.24624 0.49871 0.0
H2596 H 0.10461 0.27588 0.49729 0.0
H2597 H 0.07904 0.19092 0.3941 0.0
H2598 H 0.08185 0.18048 0.42116 0.0
H2599 H 0.05722 0.18939 0.41333 0.0
H2600 H 0.0933 0.17187 0.49898 0.0
H2601 H 0.02993 0.18894 0.49087 0.0
H2602 H 0.12444 0.2151 0.47716 0.0
H2603 H 0.11518 0.19404 0.44962 0.0
H2604 H 0.12197 0.1836 0.47576 0.0
H2605 H 0.04489 0.23737 0.46794 0.0
H2606 H 0.0219 0.21148 0.4634 0.0
H2607 H 0.04012 0.21557 0.44059 0.0
C2608 C 0.56794 0.24217 0.19566 0.0
C2609 C 0.56685 0.25411 0.17716 0.0
C2610 C 0.58772 0.23714 0.20307 0.0
C2611 C 0.60706 0.24536 0.19245 0.0
C2612 C 0.60589 0.25656 0.17304 0.0
C2613 C 0.58551 0.26039 0.16525 0.0
C2614 C 0.58813 0.22429 0.22324 0.0
C2615 C 0.62628 0.26551 0.16139 0.0
C2616 C 0.65516 0.26141 0.2392 0.0
C2617 C 0.66324 0.24072 0.23449 0.0
C2618 C 0.63795 0.26405 0.22421 0.0
C2619 C 0.62861 0.24535 0.20432 0.0
C2620 C 0.63772 0.22506 0.1987 0.0
C2621 C 0.65509 0.22299 0.214 0.0
C2622 C 0.62887 0.28615 0.2305 0.0
C2623 C 0.62824 0.2048 0.17763 0.0
H2624 H 0.55338 0.23687 0.20453 0.0
H2625 H 0.58437 0.26927 0.15063 0.0
H2626 H 0.59737 0.21003 0.21915 0.0
H2627 H 0.59678 0.23723 0.23953 0.0
H2628 H 0.57118 0.21599 0.22701 0.0
H2629 H 0.62243 0.27354 0.14628 0.0
H2630 H 0.6386 0.27922 0.17455 0.0
H2631 H 0.63417 0.25054 0.15487 0.0
H2632 H 0.66206 0.27528 0.25488 0.0
H2633 H 0.66192 0.20729 0.21031 0.0
H2634 H 0.61248 0.28128 0.23726 0.0
H2635 H 0.62637 0.29352 0.21458 0.0
H2636 H 0.63999 0.30043 0.24432 0.0
H2637 H 0.61406 0.19225 0.18273 0.0
H2638 H 0.64075 0.19459 0.17172 0.0
H2639 H 0.62203 0.2114 0.16251 0.0
C2640 C 0.63077 0.90199 0.94425 0.0
C2641 C 0.6345 0.9031 0.92079 0.0
C2642 C 0.62395 0.92038 0.95885 0.0
C2643 C 0.62186 0.94058 0.9499 0.0
C2644 C 0.62857 0.9433 0.92748 0.0
C2645 C 0.63482 0.92432 0.91299 0.0
C2646 C 0.61636 0.91672 0.98252 0.0
C2647 C 0.62695 0.96515 0.91792 0.0
C2648 C 0.57545 0.96925 0.96809 0.0
C2649 C 0.58676 0.98883 0.98569 0.0
C2650 C 0.5867 0.95297 0.95661 0.0
C2651 C 0.60983 0.95711 0.9625 0.0
C2652 C 0.62128 0.97673 0.98042 0.0
C2653 C 0.60945 0.99225 0.99217 0.0
C2654 C 0.57383 0.93133 0.93835 0.0
C2655 C 0.64599 0.98155 0.9868 0.0
H2656 H 0.63101 0.88576 0.9505 0.0
H2657 H 0.63802 0.92534 0.89496 0.0
H2658 H 0.62179 0.93345 0.99639 0.0
H2659 H 0.59796 0.91156 0.98087 0.0
H2660 H 0.62264 0.90229 0.98851 0.0
H2661 H 0.63535 0.96582 0.90153 0.0
H2662 H 0.60925 0.9649 0.91376 0.0
H2663 H 0.63436 0.98179 0.93144 0.0
H2664 H 0.55777 0.96639 0.96364 0.0
H2665 H 0.61806 0.00735 0.00608 0.0
H2666 H 0.57663 0.91464 0.94297 0.0
H2667 H 0.5797 0.93205 0.9207 0.0
H2668 H 0.55571 0.93022 0.93695 0.0
H2669 H 0.6507 0.96515 0.98995 0.0
H2670 H 0.65188 0.99608 0.00285 0.0
H2671 H 0.65476 0.98679 0.97178 0.0
C2672 C 0.92689 0.73486 0.68995 0.0
C2673 C 0.94551 0.73756 0.70582 0.0
C2674 C 0.90656 0.73608 0.69844 0.0
C2675 C 0.90553 0.74123 0.7232 0.0
C2676 C 0.92363 0.74137 0.73904 0.0
C2677 C 0.9435 0.73911 0.73001 0.0
C2678 C 0.88677 0.73394 0.6811 0.0
C2679 C 0.92263 0.74609 0.76553 0.0
C2680 C 0.86917 0.78402 0.73626 0.0
C2681 C 0.85137 0.76996 0.74436 0.0
C2682 C 0.88805 0.77553 0.73177 0.0
C2683 C 0.88752 0.75134 0.73238 0.0
C2684 C 0.86928 0.73688 0.7401 0.0
C2685 C 0.85195 0.74702 0.74751 0.0
C2686 C 0.90792 0.79193 0.72489 0.0
C2687 C 0.86715 0.7105 0.73919 0.0
H2688 H 0.92838 0.73266 0.6711 0.0
H2689 H 0.95788 0.74047 0.74212 0.0
H2690 H 0.87122 0.72483 0.68729 0.0
H2691 H 0.88524 0.75211 0.67955 0.0
H2692 H 0.88852 0.72384 0.66318 0.0
H2693 H 0.93875 0.74701 0.77539 0.0
H2694 H 0.91775 0.76324 0.77172 0.0
H2695 H 0.90992 0.73156 0.77002 0.0
H2696 H 0.86805 0.80105 0.73246 0.0
H2697 H 0.83793 0.73623 0.75377 0.0
H2698 H 0.90792 0.78792 0.70535 0.0
H2699 H 0.92362 0.78929 0.73278 0.0
H2700 H 0.90766 0.81108 0.7307 0.0
H2701 H 0.87657 0.70227 0.72547 0.0
H2702 H 0.84949 0.7005 0.73537 0.0
H2703 H 0.87343 0.70819 0.75667 0.0
C2704 C 0.14529 0.02681 0.8579 0.0
C2705 C 0.13435 0.01039 0.8371 0.0
C2706 C 0.13602 0.02886 0.88019 0.0
C2707 C 0.11502 0.01405 0.88265 0.0
C2708 C 0.10409 0.99711 0.86174 0.0
C2709 C 0.11352 0.99586 0.83957 0.0
C2710 C 0.14852 0.04767 0.90112 0.0
C2711 C 0.08196 0.98051 0.86255 0.0
C2712 C 0.10112 0.00805 0.94712 0.0
C2713 C 0.08582 0.02243 0.95252 0.0
C2714 C 0.10995 0.00457 0.92463 0.0
C2715 C 0.1045 0.01656 0.90669 0.0
C2716 C 0.0891 0.03124 0.91219 0.0
C2717 C 0.07984 0.03361 0.93447 0.0
C2718 C 0.12512 0.98772 0.91998 0.0
C2719 C 0.08293 0.04533 0.89478 0.0
H2720 H 0.16087 0.03894 0.85654 0.0
H2721 H 0.1042 0.98366 0.82383 0.0
H2722 H 0.13767 0.05931 0.90875 0.0
H2723 H 0.1535 0.03889 0.91516 0.0
H2724 H 0.16365 0.0591 0.89631 0.0
H2725 H 0.07696 0.96618 0.84618 0.0
H2726 H 0.08243 0.97203 0.87804 0.0
H2727 H 0.06904 0.99092 0.86462 0.0
H2728 H 0.10604 0.99912 0.96052 0.0
H2729 H 0.06833 0.04502 0.93808 0.0
H2730 H 0.14198 0.99792 0.91806 0.0
H2731 H 0.11908 0.97439 0.90308 0.0
H2732 H 0.1263 0.97799 0.93446 0.0
H2733 H 0.09773 0.05926 0.89305 0.0
H2734 H 0.06951 0.05428 0.90043 0.0
H2735 H 0.07752 0.03351 0.87699 0.0
C2736 C 0.81306 0.37612 0.57081 0.0
C2737 C 0.82801 0.39778 0.57059 0.0
C2738 C 0.81595 0.36349 0.58838 0.0
C2739 C 0.83446 0.37268 0.60562 0.0
C2740 C 0.84943 0.39476 0.6056 0.0
C2741 C 0.84585 0.40724 0.58814 0.0
C2742 C 0.79935 0.34034 0.58836 0.0
C2743 C 0.86972 0.4047 0.6234 0.0
C2744 C 0.84068 0.35318 0.66326 0.0
C2745 C 0.85593 0.33902 0.65811 0.0
C2746 C 0.8323 0.36321 0.64576 0.0
C2747 C 0.8393 0.35862 0.62282 0.0
C2748 C 0.8534 0.34284 0.61716 0.0
C2749 C 0.86172 0.33332 0.63504 0.0
C2750 C 0.8172 0.37993 0.65221 0.0
C2751 C 0.86068 0.33713 0.59262 0.0
H2752 H 0.79912 0.36909 0.55724 0.0
H2753 H 0.85747 0.42393 0.58767 0.0
H2754 H 0.80788 0.32578 0.58946 0.0
H2755 H 0.79011 0.34281 0.60417 0.0
H2756 H 0.78721 0.3345 0.57228 0.0
H2757 H 0.87906 0.42267 0.6216 0.0
H2758 H 0.8649 0.40612 0.6417 0.0
H2759 H 0.88096 0.39229 0.62096 0.0
H2760 H 0.83618 0.35729 0.68119 0.0
H2761 H 0.87317 0.32187 0.63118 0.0
H2762 H 0.80291 0.37574 0.63848 0.0
H2763 H 0.82644 0.39867 0.65306 0.0
H2764 H 0.81087 0.37891 0.66965 0.0
H2765 H 0.84606 0.33096 0.57913 0.0
H2766 H 0.87026 0.32306 0.59074 0.0
H2767 H 0.8712 0.35358 0.58868 0.0
C2768 C 0.45791 0.01485 0.3788 0.0
C2769 C 0.46146 0.03138 0.36434 0.0
C2770 C 0.46892 0.02113 0.40152 0.0
C2771 C 0.48409 0.04377 0.40849 0.0
C2772 C 0.48586 0.06119 0.39465 0.0
C2773 C 0.4741 0.05474 0.37254 0.0
C2774 C 0.46614 1.00289 0.41697 0.0
C2775 C 0.50252 0.08516 0.40147 0.0
C2776 C 0.51689 0.06086 0.46712 0.0
C2777 C 0.53416 0.04966 0.46175 0.0
C2778 C 0.50011 0.05912 0.4498 0.0
C2779 C 0.50176 0.04696 0.42673 0.0
C2780 C 0.52048 0.0378 0.42073 0.0
C2781 C 0.53665 0.03913 0.43871 0.0
C2782 C 0.47994 0.06834 0.45657 0.0
C2783 C 0.52256 0.02495 0.39586 0.0
H2784 H 0.44729 0.99706 0.37212 0.0
H2785 H 0.47611 0.06735 0.36091 0.0
H2786 H 0.48067 0.99477 0.41659 0.0
H2787 H 0.46531 0.0116 0.43566 0.0
H2788 H 0.45096 0.98825 0.41082 0.0
H2789 H 0.49866 0.09807 0.39111 0.0
H2790 H 0.50328 0.09323 0.4206 0.0
H2791 H 0.51924 0.08244 0.39789 0.0
H2792 H 0.51527 0.06888 0.48523 0.0
H2793 H 0.54997 0.03011 0.43515 0.0
H2794 H 0.46534 0.05297 0.45446 0.0
H2795 H 0.47608 0.07994 0.44471 0.0
H2796 H 0.48214 0.07867 0.47521 0.0
H2797 H 0.51031 0.00737 0.39136 0.0
H2798 H 0.53936 0.02163 0.39395 0.0
H2799 H 0.51901 0.03549 0.38279 0.0
C2800 C 0.77873 0.71024 0.09797 0.0
C2801 C 0.79384 0.7178 0.08234 0.0
C2802 C 0.78117 0.722 0.12183 0.0
C2803 C 0.79932 0.74183 0.13055 0.0
C2804 C 0.81469 0.74974 0.11488 0.0
C2805 C 0.81164 0.73775 0.09083 0.0
C2806 C 0.76416 0.71317 0.13766 0.0
C2807 C 0.83491 0.77003 0.12374 0.0
C2808 C 0.797 0.78434 0.18905 0.0
C2809 C 0.80594 0.77334 0.20533 0.0
C2810 C 0.79414 0.77394 0.16465 0.0
C2811 C 0.80246 0.75346 0.15627 0.0
C2812 C 0.81271 0.74317 0.17268 0.0
C2813 C 0.81349 0.75267 0.19701 0.0
C2814 C 0.7821 0.78473 0.14789 0.0
C2815 C 0.82309 0.72231 0.16462 0.0
H2816 H 0.76486 0.69492 0.09152 0.0
H2817 H 0.8236 0.74341 0.07893 0.0
H2818 H 0.77224 0.70889 0.15328 0.0
H2819 H 0.75573 0.7276 0.14426 0.0
H2820 H 0.75145 0.69697 0.1283 0.0
H2821 H 0.84384 0.7758 0.109 0.0
H2822 H 0.83031 0.78573 0.13462 0.0
H2823 H 0.84644 0.7641 0.13529 0.0
H2824 H 0.79211 0.80094 0.19541 0.0
H2825 H 0.82086 0.74443 0.20954 0.0
H2826 H 0.76761 0.77092 0.13791 0.0
H2827 H 0.79315 0.79072 0.13476 0.0
H2828 H 0.77616 0.80025 0.15732 0.0
H2829 H 0.80994 0.70577 0.15752 0.0
H2830 H 0.83349 0.71906 0.1793 0.0
H2831 H 0.83358 0.72563 0.15016 0.0
C2832 C 0.15074 0.01434 0.6727 0.0
C2833 C 0.13904 0.00515 0.69046 0.0
C2834 C 0.13992 0.01826 0.65181 0.0
C2835 C 0.11632 0.01265 0.64741 0.0
C2836 C 0.10432 1.00308 0.66512 0.0
C2837 C 0.11561 0.99972 0.68614 0.0
C2838 C 0.15398 0.02884 0.63437 0.0
C2839 C 0.07935 0.99552 0.66159 0.0
C2840 C 0.08795 0.04141 0.60137 0.0
C2841 C 0.08714 0.02552 0.57928 0.0
C2842 C 0.09721 0.03766 0.62326 0.0
C2843 C 0.10463 0.01639 0.62425 0.0
C2844 C 0.10166 0.99914 0.60244 0.0
C2845 C 0.0939 0.00418 0.58067 0.0
C2846 C 0.09988 0.05715 0.64531 0.0
C2847 C 0.10696 0.97513 0.60186 0.0
H2848 H 0.16869 0.01885 0.67526 0.0
H2849 H 0.10592 0.99247 0.69915 0.0
H2850 H 0.15064 0.01621 0.61683 0.0
H2851 H 0.14957 0.04564 0.63194 0.0
H2852 H 0.17199 0.03287 0.6402 0.0
H2853 H 0.07214 0.99203 0.67805 0.0
H2854 H 0.07226 0.00935 0.65549 0.0
H2855 H 0.07416 0.97883 0.64759 0.0
H2856 H 0.08203 0.05733 0.60175 0.0
H2857 H 0.0933 0.99106 0.56447 0.0
H2858 H 0.1178 0.06446 0.65134 0.0
H2859 H 0.09204 0.04975 0.65984 0.0
H2860 H 0.09253 0.0721 0.64233 0.0
H2861 H 0.12518 0.97741 0.60402 0.0
H2862 H 0.10016 0.9621 0.58493 0.0
H2863 H 0.10009 0.96744 0.61671 0.0
C2864 C 0.84411 0.38416 0.44124 0.0
C2865 C 0.82948 0.3984 0.43734 0.0
C2866 C 0.84578 0.36473 0.42373 0.0
C2867 C 0.83248 0.35964 0.40199 0.0
C2868 C 0.81753 0.37387 0.39796 0.0
C2869 C 0.81634 0.39336 0.41577 0.0
C2870 C 0.86195 0.34992 0.42833 0.0
C2871 C 0.80283 0.36848 0.37491 0.0
C2872 C 0.84952 0.33124 0.34468 0.0
C2873 C 0.83302 0.30982 0.33891 0.0
C2874 C 0.85065 0.34717 0.36626 0.0
C2875 C 0.83552 0.34082 0.38254 0.0
C2876 C 0.82139 0.3176 0.3784 0.0
C2877 C 0.82056 0.30206 0.35652 0.0
C2878 C 0.86591 0.37191 0.37019 0.0
C2879 C 0.8056 0.31015 0.39595 0.0
H2880 H 0.85426 0.38823 0.45805 0.0
H2881 H 0.80476 0.40421 0.41312 0.0
H2882 H 0.85344 0.3306 0.42449 0.0
H2883 H 0.87522 0.35207 0.41633 0.0
H2884 H 0.86978 0.3552 0.44692 0.0
H2885 H 0.79209 0.38131 0.37477 0.0
H2886 H 0.8131 0.36915 0.35986 0.0
H2887 H 0.79206 0.35007 0.37182 0.0
H2888 H 0.85989 0.3369 0.33142 0.0
H2889 H 0.80876 0.28483 0.35253 0.0
H2890 H 0.8747 0.37734 0.38833 0.0
H2891 H 0.85593 0.38513 0.36837 0.0
H2892 H 0.87839 0.37292 0.35719 0.0
H2893 H 0.81477 0.31304 0.41366 0.0
H2894 H 0.79648 0.29101 0.39043 0.0
H2895 H 0.79332 0.32139 0.39783 0.0
C2896 C 0.45582 0.01846 0.23338 0.0
C2897 C 0.44028 0.03246 0.23502 0.0
C2898 C 0.46289 0.00997 0.2118 0.0
C2899 C 0.45555 0.01747 0.19167 0.0
C2900 C 0.43858 0.03009 0.19266 0.0
C2901 C 0.43074 0.03714 0.21455 0.0
C2902 C 0.48028 0.99545 0.21133 0.0
C2903 C 0.43013 0.03774 0.17122 0.0
C2904 C 0.5085 0.0315 0.16639 0.0
C2905 C 0.50754 0.00923 0.15178 0.0
C2906 C 0.48986 0.03602 0.17692 0.0
C2907 C 0.47007 0.01758 0.17265 0.0
C2908 C 0.46837 0.99621 0.15554 0.0
C2909 C 0.48738 0.99216 0.14533 0.0
C2910 C 0.49231 0.05925 0.19493 0.0
C2911 C 0.44734 0.97658 0.14986 0.0
H2912 H 0.46323 0.01469 0.24899 0.0
H2913 H 0.41825 0.04753 0.21589 0.0
H2914 H 0.47653 0.98021 0.19575 0.0
H2915 H 0.49676 0.00699 0.21013 0.0
H2916 H 0.48139 0.98811 0.22754 0.0
H2917 H 0.41482 0.04428 0.1741 0.0
H2918 H 0.44301 0.05241 0.16714 0.0
H2919 H 0.42669 0.02262 0.15552 0.0
H2920 H 0.52401 0.04507 0.17008 0.0
H2921 H 0.48661 0.97557 0.13265 0.0
H2922 H 0.49495 0.056 0.21301 0.0
H2923 H 0.47716 0.06618 0.19395 0.0
H2924 H 0.50671 0.07329 0.19241 0.0
H2925 H 0.4485 0.96278 0.16023 0.0
H2926 H 0.44519 0.96764 0.13078 0.0
H2927 H 0.43247 0.98342 0.15424 0.0
C2928 C 0.80078 0.74518 0.93628 0.0
C2929 C 0.81053 0.7268 0.94058 0.0
C2930 C 0.80318 0.75343 0.91512 0.0
C2931 C 0.81585 0.74324 0.89809 0.0
C2932 C 0.82672 0.72565 0.90296 0.0
C2933 C 0.82381 0.71753 0.92406 0.0
C2934 C 0.7913 0.77218 0.91049 0.0
C2935 C 0.84082 0.71481 0.88549 0.0
C2936 C 0.80003 0.74193 0.83352 0.0
C2937 C 0.81601 0.76135 0.82938 0.0
C2938 C 0.79991 0.73583 0.85574 0.0
C2939 C 0.81622 0.74941 0.87437 0.0
C2940 C 0.83293 0.7684 0.8701 0.0
C2941 C 0.83276 0.77387 0.84756 0.0
C2942 C 0.78207 0.71507 0.85937 0.0
C2943 C 0.85065 0.78333 0.88944 0.0
H2944 H 0.79048 0.75238 0.94895 0.0
H2945 H 0.83161 0.70353 0.92743 0.0
H2946 H 0.80297 0.7871 0.90523 0.0
H2947 H 0.77811 0.76414 0.89554 0.0
H2948 H 0.78357 0.77966 0.92622 0.0
H2949 H 0.8484 0.70152 0.89207 0.0
H2950 H 0.83064 0.7058 0.86842 0.0
H2951 H 0.85427 0.72916 0.88177 0.0
H2952 H 0.78715 0.73176 0.81958 0.0
H2953 H 0.84581 0.78792 0.84427 0.0
H2954 H 0.77234 0.72137 0.8738 0.0
H2955 H 0.78975 0.70134 0.86487 0.0
H2956 H 0.77052 0.70644 0.8431 0.0
H2957 H 0.84297 0.79398 0.90324 0.0
H2958 H 0.86363 0.7959 0.88264 0.0
H2959 H 0.85865 0.77164 0.89813 0.0
C2960 C 0.85202 0.09009 0.05659 0.0
C2961 C 0.84011 0.09735 0.03937 0.0
C2962 C 0.87151 0.08274 0.05147 0.0
C2963 C 0.87849 0.08223 0.02854 0.0
C2964 C 0.86711 0.09086 0.01165 0.0
C2965 C 0.84817 0.09852 0.01739 0.0
C2966 C 0.8841 0.07462 0.07006 0.0
C2967 C 0.87367 0.09006 0.98674 0.0
C2968 C 0.93133 0.07128 0.00609 0.0
C2969 C 0.92381 0.04755 0.99329 0.0
C2970 C 0.91722 0.08251 0.0197 0.0
C2971 C 0.89536 0.06943 0.02046 0.0
C2972 C 0.88823 0.04497 0.00875 0.0
C2973 C 0.90259 0.03433 0.99504 0.0
C2974 C 0.92507 0.10874 0.03161 0.0
C2975 C 0.86491 0.03059 0.00922 0.0
H2976 H 0.84593 0.08975 0.07374 0.0
H2977 H 0.83896 0.10415 0.00398 0.0
H2978 H 0.88457 0.05558 0.06372 0.0
H2979 H 0.90151 0.08536 0.07326 0.0
H2980 H 0.8766 0.07648 0.08712 0.0
H2981 H 0.86456 0.10005 0.97685 0.0
H2982 H 0.89168 0.09768 0.98702 0.0
H2983 H 0.86998 0.07112 0.9768 0.0
H2984 H 0.94797 0.08125 0.00473 0.0
H2985 H 0.8972 0.0158 0.98545 0.0
H2986 H 0.91958 0.11219 0.04962 0.0
H2987 H 0.91771 0.11963 0.02119 0.0
H2988 H 0.94341 0.11501 0.03293 0.0
H2989 H 0.86026 0.03283 0.02762 0.0
H2990 H 0.86296 0.01115 0.0017 0.0
H2991 H 0.85309 0.03721 0.99871 0.0
C2992 C 0.39757 0.43581 0.01539 0.0
C2993 C 0.38604 0.43493 0.03544 0.0
C2994 C 0.42 0.44798 0.01738 0.0
C2995 C 0.43111 0.46021 0.03998 0.0
C2996 C 0.41964 0.45891 0.0604 0.0
C2997 C 0.39726 0.44607 0.0579 0.0
C2998 C 0.43161 0.44833 0.99517 0.0
C2999 C 0.43065 0.47203 0.08474 0.0
C3000 C 0.4942 0.47844 0.04232 0.0
C3001 C 0.49783 0.50226 0.03969 0.0
C3002 C 0.47273 0.46493 0.04376 0.0
C3003 C 0.45431 0.47525 0.04184 0.0
C3004 C 0.45799 0.49951 0.03973 0.0
C3005 C 0.47969 0.51275 0.03887 0.0
C3006 C 0.4697 0.43935 0.04652 0.0
C3007 C 0.43888 0.51115 0.03709 0.0
H3008 H 0.38886 0.42721 0.99802 0.0
H3009 H 0.38823 0.44572 0.07338 0.0
H3010 H 0.43701 0.46704 0.99285 0.0
H3011 H 0.4467 0.44136 0.99671 0.0
H3012 H 0.42082 0.43737 0.97905 0.0
H3013 H 0.42061 0.46683 0.09899 0.0
H3014 H 0.44729 0.46852 0.08766 0.0
H3015 H 0.43302 0.49164 0.08622 0.0
H3016 H 0.50817 0.47023 0.0429 0.0
H3017 H 0.48227 0.53087 0.03616 0.0
H3018 H 0.46039 0.42692 0.03028 0.0
H3019 H 0.4598 0.43644 0.0615 0.0
H3020 H 0.48579 0.43462 0.04971 0.0
H3021 H 0.42884 0.50247 0.01987 0.0
H3022 H 0.44458 0.53067 0.03776 0.0
H3023 H 0.42785 0.50859 0.05125 0.0
C3024 C 0.37469 0.63262 0.77025 0.0
C3025 C 0.39818 0.63699 0.77361 0.0
C3026 C 0.36297 0.65129 0.76967 0.0
C3027 C 0.37437 0.67589 0.77205 0.0
C3028 C 0.39808 0.68049 0.77579 0.0
C3029 C 0.40938 0.66152 0.77669 0.0
C3030 C 0.33799 0.64451 0.76626 0.0
C3031 C 0.41182 0.70581 0.77903 0.0
C3032 C 0.3463 0.71964 0.7433 0.0
C3033 C 0.33853 0.73411 0.76216 0.0
C3034 C 0.35734 0.70112 0.74629 0.0
C3035 C 0.36175 0.69609 0.76901 0.0
C3036 C 0.3539 0.71059 0.7883 0.0
C3037 C 0.34246 0.72889 0.78472 0.0
C3038 C 0.36471 0.68697 0.72475 0.0
C3039 C 0.35777 0.70695 0.81307 0.0
H3040 H 0.36519 0.61427 0.76799 0.0
H3041 H 0.42732 0.66602 0.77951 0.0
H3042 H 0.33123 0.65598 0.78029 0.0
H3043 H 0.33214 0.64772 0.749 0.0
H3044 H 0.33114 0.6254 0.76666 0.0
H3045 H 0.42978 0.70653 0.77857 0.0
H3046 H 0.40642 0.71449 0.76509 0.0
H3047 H 0.40938 0.71649 0.79639 0.0
H3048 H 0.3438 0.72295 0.7257 0.0
H3049 H 0.33709 0.73956 0.79983 0.0
H3050 H 0.35733 0.66753 0.7229 0.0
H3051 H 0.383 0.68962 0.72692 0.0
H3052 H 0.35991 0.69229 0.70819 0.0
H3053 H 0.3478 0.68909 0.81434 0.0
H3054 H 0.35313 0.72089 0.82654 0.0
H3055 H 0.37546 0.70721 0.81727 0.0
C3056 C 0.21387 0.60093 0.54146 0.0
C3057 C 0.21805 0.60951 0.52085 0.0
C3058 C 0.19252 0.59615 0.54831 0.0
C3059 C 0.17511 0.59937 0.53366 0.0
C3060 C 0.17947 0.60957 0.51364 0.0
C3061 C 0.20113 0.61484 0.50766 0.0
C3062 C 0.1884 0.58612 0.57017 0.0
C3063 C 0.1611 0.61286 0.49731 0.0
C3064 C 0.12181 0.55486 0.51584 0.0
C3065 C 0.10706 0.56845 0.52445 0.0
C3066 C 0.14446 0.56359 0.52171 0.0
C3067 C 0.15233 0.58712 0.53552 0.0
C3068 C 0.1375 0.60043 0.54555 0.0
C3069 C 0.11478 0.59107 0.53931 0.0
C3070 C 0.15987 0.54905 0.51025 0.0
C3071 C 0.14565 0.62534 0.56083 0.0
H3072 H 0.22711 0.5979 0.55231 0.0
H3073 H 0.20471 0.62212 0.49208 0.0
H3074 H 0.17612 0.59403 0.58013 0.0
H3075 H 0.18154 0.56644 0.56486 0.0
H3076 H 0.20389 0.5895 0.58213 0.0
H3077 H 0.1676 0.62294 0.48381 0.0
H3078 H 0.15084 0.59503 0.48792 0.0
H3079 H 0.15008 0.62256 0.50757 0.0
H3080 H 0.11583 0.53848 0.5026 0.0
H3081 H 0.10319 0.60197 0.54479 0.0
H3082 H 0.17297 0.54819 0.5236 0.0
H3083 H 0.16814 0.55771 0.49662 0.0
H3084 H 0.15096 0.53045 0.50148 0.0
H3085 H 0.15884 0.62555 0.57464 0.0
H3086 H 0.13206 0.63194 0.56958 0.0
H3087 H 0.153 0.63797 0.54984 0.0
C3088 C 0.7339 0.96073 0.71774 0.0
C3089 C 0.74061 0.98504 0.72848 0.0
C3090 C 0.74259 0.94416 0.72713 0.0
C3091 C 0.75714 0.95248 0.74823 0.0
C3092 C 0.76434 0.97726 0.75864 0.0
C3093 C 0.75638 0.99341 0.74808 0.0
C3094 C 0.73522 0.91787 0.7154 0.0
C3095 C 0.77931 0.98667 0.78167 0.0
C3096 C 0.76153 0.91767 0.79475 0.0
C3097 C 0.78302 0.91469 0.79281 0.0
C3098 C 0.75174 0.92795 0.77854 0.0
C3099 C 0.76414 0.93556 0.76052 0.0
C3100 C 0.78532 0.93116 0.75762 0.0
C3101 C 0.7946 0.92063 0.77395 0.0
C3102 C 0.7291 0.9327 0.78208 0.0
C3103 C 0.79875 0.93928 0.73847 0.0
H3104 H 0.7213 0.9547 0.7027 0.0
H3105 H 0.76088 0.01239 0.75642 0.0
H3106 H 0.74963 0.90956 0.71419 0.0
H3107 H 0.7236 0.90841 0.7262 0.0
H3108 H 0.72669 0.915 0.69732 0.0
H3109 H 0.78114 0.0062 0.78853 0.0
H3110 H 0.7727 0.97712 0.79546 0.0
H3111 H 0.796 0.98347 0.77896 0.0
H3112 H 0.7527 0.91255 0.80928 0.0
H3113 H 0.81125 0.91801 0.77263 0.0
H3114 H 0.71856 0.9281 0.76496 0.0
H3115 H 0.73094 0.9521 0.78959 0.0
H3116 H 0.72043 0.92235 0.79439 0.0
H3117 H 0.78838 0.93419 0.72118 0.0
H3118 H 0.8135 0.93155 0.73657 0.0
H3119 H 0.80453 0.95913 0.74284 0.0
C3120 C 0.73766 0.90602 0.54147 0.0
C3121 C 0.75933 0.91619 0.53737 0.0
C3122 C 0.72056 0.91766 0.53855 0.0
C3123 C 0.72527 0.93937 0.53049 0.0
C3124 C 0.74725 0.94985 0.52679 0.0
C3125 C 0.76407 0.9383 0.53065 0.0
C3126 C 0.69743 0.90636 0.54336 0.0
C3127 C 0.75289 0.97283 0.51788 0.0
C3128 C 0.68331 0.958 0.49333 0.0
C3129 C 0.67934 0.97761 0.50926 0.0
C3130 C 0.69708 0.94423 0.50055 0.0
C3131 C 0.70725 0.9505 0.52416 0.0
C3132 C 0.7023 0.96948 0.54064 0.0
C3133 C 0.68827 0.98279 0.53298 0.0
C3134 C 0.70173 0.92384 0.4826 0.0
C3135 C 0.71261 0.97638 0.56603 0.0
H3136 H 0.7341 0.889 0.54692 0.0
H3137 H 0.78084 0.94613 0.52741 0.0
H3138 H 0.68932 0.92015 0.55262 0.0
H3139 H 0.68722 0.89741 0.52631 0.0
H3140 H 0.69747 0.89273 0.55424 0.0
H3141 H 0.77083 0.97852 0.51586 0.0
H3142 H 0.74336 0.97042 0.50043 0.0
H3143 H 0.74814 0.98748 0.53029 0.0
H3144 H 0.67598 0.95376 0.4751 0.0
H3145 H 0.68506 0.99793 0.5453 0.0
H3146 H 0.6988 0.90722 0.48959 0.0
H3147 H 0.71941 0.92823 0.47919 0.0
H3148 H 0.69124 0.92018 0.46549 0.0
H3149 H 0.70933 0.9605 0.5742 0.0
H3150 H 0.70617 0.99081 0.57687 0.0
H3151 H 0.73086 0.98269 0.56661 0.0
C3152 C 0.4041 0.47165 0.78328 0.0
C3153 C 0.39878 0.48511 0.76703 0.0
C3154 C 0.39113 0.44841 0.7837 0.0
C3155 C 0.37244 0.4371 0.76674 0.0
C3156 C 0.367 0.45055 0.75012 0.0
C3157 C 0.37987 0.47427 0.75068 0.0
C3158 C 0.39794 0.43577 0.80219 0.0
C3159 C 0.34793 0.43951 0.73109 0.0
C3160 C 0.35557 0.36712 0.75506 0.0
C3161 C 0.33609 0.36214 0.76642 0.0
C3162 C 0.36681 0.39094 0.75423 0.0
C3163 C 0.35932 0.41112 0.76596 0.0
C3164 C 0.33975 0.40617 0.77768 0.0
C3165 C 0.32827 0.38204 0.77737 0.0
C3166 C 0.38689 0.39445 0.74067 0.0
C3167 C 0.3314 0.42649 0.79158 0.0
H3168 H 0.41877 0.47933 0.7958 0.0
H3169 H 0.37569 0.48387 0.73756 0.0
H3170 H 0.38324 0.42664 0.80973 0.0
H3171 H 0.4064 0.42189 0.79391 0.0
H3172 H 0.40953 0.44839 0.81688 0.0
H3173 H 0.34689 0.45102 0.71815 0.0
H3174 H 0.34965 0.42173 0.72142 0.0
H3175 H 0.33211 0.43653 0.73927 0.0
H3176 H 0.36199 0.35218 0.74647 0.0
H3177 H 0.31357 0.3788 0.78661 0.0
H3178 H 0.40202 0.40264 0.75322 0.0
H3179 H 0.38563 0.40691 0.72876 0.0
H3180 H 0.38893 0.37726 0.72988 0.0
H3181 H 0.34379 0.43635 0.80685 0.0
H3182 H 0.3153 0.42007 0.79839 0.0
H3183 H 0.32943 0.43943 0.78049 0.0
C3184 C 0.24979 0.61431 0.24445 0.0
C3185 C 0.22773 0.61148 0.24965 0.0
C3186 C 0.26368 0.63714 0.24793 0.0
C3187 C 0.25515 0.65702 0.2572 0.0
C3188 C 0.23364 0.65407 0.26476 0.0
C3189 C 0.21996 0.63113 0.26052 0.0
C3190 C 0.28657 0.64012 0.23967 0.0
C3191 C 0.22429 0.67521 0.27505 0.0
C3192 C 0.28712 0.72045 0.27379 0.0
C3193 C 0.2781 0.72913 0.25562 0.0
C3194 C 0.28095 0.69625 0.27401 0.0
C3195 C 0.26655 0.68076 0.25485 0.0
C3196 C 0.25927 0.6893 0.23529 0.0
C3197 C 0.26416 0.71386 0.23661 0.0
C3198 C 0.28764 0.68799 0.29586 0.0
C3199 C 0.24497 0.6727 0.21392 0.0
H3200 H 0.25572 0.59888 0.2362 0.0
H3201 H 0.20298 0.62865 0.26491 0.0
H3202 H 0.28708 0.64842 0.22402 0.0
H3203 H 0.29913 0.65233 0.25366 0.0
H3204 H 0.29132 0.62271 0.2347 0.0
H3205 H 0.20913 0.66968 0.28382 0.0
H3206 H 0.23673 0.68889 0.2881 0.0
H3207 H 0.21984 0.68384 0.26062 0.0
H3208 H 0.29745 0.73286 0.28881 0.0
H3209 H 0.25709 0.72114 0.22299 0.0
H3210 H 0.29176 0.67028 0.29117 0.0
H3211 H 0.2735 0.68598 0.30681 0.0
H3212 H 0.30203 0.70111 0.30688 0.0
H3213 H 0.2529 0.65792 0.20678 0.0
H3214 H 0.2422 0.68218 0.19962 0.0
H3215 H 0.22858 0.6645 0.21904 0.0
C3216 C 0.512 0.6735 0.45899 0.0
C3217 C 0.52376 0.69721 0.46902 0.0
C3218 C 0.51676 0.65363 0.46704 0.0
C3219 C 0.53416 0.65713 0.48531 0.0
C3220 C 0.54588 0.68106 0.49578 0.0
C3221 C 0.54042 0.70066 0.48774 0.0
C3222 C 0.50329 0.62872 0.45565 0.0
C3223 C 0.56505 0.68594 0.51464 0.0
C3224 C 0.53818 0.60473 0.51582 0.0
C3225 C 0.55105 0.59245 0.50101 0.0
C3226 C 0.53265 0.62581 0.51117 0.0
C3227 C 0.54107 0.63571 0.49197 0.0
C3228 C 0.55513 0.62401 0.47795 0.0
C3229 C 0.5589 0.60212 0.48186 0.0
C3230 C 0.51668 0.63662 0.52592 0.0
C3231 C 0.56565 0.63405 0.45809 0.0
H3232 H 0.4991 0.6704 0.44458 0.0
H3233 H 0.54989 0.71874 0.49555 0.0
H3234 H 0.51406 0.61806 0.44613 0.0
H3235 H 0.49641 0.61935 0.46948 0.0
H3236 H 0.48941 0.62896 0.44285 0.0
H3237 H 0.57086 0.70534 0.52298 0.0
H3238 H 0.56041 0.6759 0.52868 0.0
H3239 H 0.57906 0.67962 0.50659 0.0
H3240 H 0.53113 0.59693 0.53001 0.0
H3241 H 0.56783 0.59227 0.46951 0.0
H3242 H 0.50122 0.635 0.51454 0.0
H3243 H 0.52379 0.65603 0.5332 0.0
H3244 H 0.51235 0.62766 0.54082 0.0
H3245 H 0.55312 0.63019 0.44258 0.0
H3246 H 0.57964 0.62602 0.45244 0.0
H3247 H 0.57195 0.65382 0.46355 0.0
C3248 C 0.68213 0.33401 0.65206 0.0
C3249 C 0.66083 0.3193 0.65125 0.0
C3250 C 0.7002 0.33187 0.66679 0.0
C3251 C 0.6973 0.31376 0.68022 0.0
C3252 C 0.67583 0.29854 0.67904 0.0
C3253 C 0.65787 0.30189 0.6651 0.0
C3254 C 0.7224 0.34919 0.66815 0.0
C3255 C 0.67172 0.27857 0.6924 0.0
C3256 C 0.74965 0.29404 0.69832 0.0
C3257 C 0.7539 0.3042 0.72277 0.0
C3258 C 0.73113 0.2965 0.68457 0.0
C3259 C 0.71678 0.31044 0.69502 0.0
C3260 C 0.7213 0.32137 0.71952 0.0
C3261 C 0.73959 0.31803 0.733 0.0
C3262 C 0.72666 0.28368 0.65883 0.0
C3263 C 0.70703 0.33696 0.73152 0.0
H3264 H 0.68455 0.34765 0.64161 0.0
H3265 H 0.64153 0.29036 0.66456 0.0
H3266 H 0.7288 0.35741 0.68694 0.0
H3267 H 0.73457 0.33945 0.6603 0.0
H3268 H 0.7215 0.36373 0.65865 0.0
H3269 H 0.65531 0.26588 0.68645 0.0
H3270 H 0.6848 0.26837 0.69014 0.0
H3271 H 0.67223 0.28629 0.71159 0.0
H3272 H 0.76059 0.28372 0.68982 0.0
H3273 H 0.7427 0.32651 0.75164 0.0
H3274 H 0.72823 0.29696 0.6474 0.0
H3275 H 0.70943 0.27245 0.65515 0.0
H3276 H 0.73825 0.27202 0.65374 0.0
H3277 H 0.70874 0.35318 0.72393 0.0
H3278 H 0.71164 0.34273 0.75097 0.0
H3279 H 0.6893 0.3273 0.72824 0.0
C3280 C 0.05089 0.35983 0.96551 0.0
C3281 C 0.03172 0.34203 0.96604 0.0
C3282 C 0.05234 0.38421 0.97515 0.0
C3283 C 0.03403 0.39132 0.98541 0.0
C3284 C 0.01521 0.3733 0.98759 0.0
C3285 C 0.01429 0.34882 0.97796 0.0
C3286 C 0.07299 0.40254 0.97284 0.0
C3287 C 0.99535 0.38001 0.99843 0.0
C3288 C 0.04514 0.45801 0.01555 0.0
C3289 C 0.04021 0.46799 0.99636 0.0
C3290 C 0.04224 0.43293 0.01276 0.0
C3291 C 0.03365 0.41746 0.99044 0.0
C3292 C 0.02717 0.42757 0.97162 0.0
C3293 C 0.0311 0.45262 0.97463 0.0
C3294 C 0.0498 0.42321 0.03321 0.0
C3295 C 0.01731 0.412 0.94773 0.0
H3296 H 0.06448 0.35474 0.95644 0.0
H3297 H 0.99934 0.33528 0.97827 0.0
H3298 H 0.06902 0.41352 0.96036 0.0
H3299 H 0.07925 0.41491 0.99022 0.0
H3300 H 0.08643 0.39407 0.96621 0.0
H3301 H 0.98379 0.36428 0.00255 0.0
H3302 H 0.00058 0.39412 0.0149 0.0
H3303 H 0.98628 0.38747 0.98583 0.0
H3304 H 0.05263 0.46987 0.03227 0.0
H3305 H 0.02747 0.46031 0.95973 0.0
H3306 H 0.06514 0.41706 0.0294 0.0
H3307 H 0.0371 0.40747 0.03555 0.0
H3308 H 0.05336 0.43695 0.05009 0.0
H3309 H 0.03037 0.4047 0.93861 0.0
H3310 H 0.01017 0.42215 0.93624 0.0
H3311 H 0.0041 0.39656 0.9498 0.0
C3312 C 0.01593 0.79589 0.13487 0.0
C3313 C 0.03495 0.80172 0.15113 0.0
C3314 C 0.99454 0.79261 0.14277 0.0
C3315 C 0.99228 0.79548 0.16741 0.0
C3316 C 0.01159 0.8034 0.18376 0.0
C3317 C 0.03254 0.8063 0.17542 0.0
C3318 C 0.97441 0.78517 0.1248 0.0
C3319 C 0.01024 0.80693 0.21017 0.0
C3320 C 0.94106 0.79591 0.20057 0.0
C3321 C 0.93649 0.77271 0.20517 0.0
C3322 C 0.95783 0.80309 0.1862 0.0
C3323 C 0.97047 0.7868 0.17644 0.0
C3324 C 0.96452 0.76281 0.17935 0.0
C3325 C 0.94758 0.75607 0.19348 0.0
C3326 C 0.96294 0.82852 0.18268 0.0
C3327 C 0.97704 0.74454 0.16882 0.0
H3328 H 0.01771 0.79254 0.11605 0.0
H3329 H 0.0472 0.81127 0.18807 0.0
H3330 H 0.96422 0.76744 0.12613 0.0
H3331 H 0.96388 0.79822 0.12853 0.0
H3332 H 0.97891 0.78405 0.10637 0.0
H3333 H 0.02668 0.81518 0.2205 0.0
H3334 H 0.99879 0.81854 0.21585 0.0
H3335 H 0.00359 0.78932 0.21467 0.0
H3336 H 0.93243 0.80887 0.20925 0.0
H3337 H 0.94363 0.73788 0.19623 0.0
H3338 H 0.96473 0.82869 0.16375 0.0
H3339 H 0.97893 0.83875 0.19295 0.0
H3340 H 0.94984 0.8379 0.18852 0.0
H3341 H 0.9756 0.74204 0.14925 0.0
H3342 H 0.97077 0.72682 0.1733 0.0
H3343 H 0.99492 0.751 0.17529 0.0
C3344 C 0.4988 0.33367 0.12019 0.0
C3345 C 0.50926 0.31482 0.11967 0.0
C3346 C 0.50617 0.35125 0.10719 0.0
C3347 C 0.52475 0.35004 0.09426 0.0
C3348 C 0.5359 0.33154 0.09474 0.0
C3349 C 0.52775 0.31391 0.10715 0.0
C3350 C 0.49361 0.37042 0.1065 0.0
C3351 C 0.55628 0.33016 0.08193 0.0
C3352 C 0.5342 0.37344 0.03873 0.0
C3353 C 0.55103 0.39411 0.04723 0.0
C3354 C 0.52429 0.35983 0.05428 0.0
C3355 C 0.53189 0.36688 0.07873 0.0
C3356 C 0.54849 0.38824 0.0875 0.0
C3357 C 0.55771 0.40185 0.07156 0.0
C3358 C 0.50648 0.33727 0.04438 0.0
C3359 C 0.55722 0.39601 0.11342 0.0
H3360 H 0.48455 0.33421 0.13009 0.0
H3361 H 0.53603 0.29945 0.10733 0.0
H3362 H 0.50516 0.38841 0.10991 0.0
H3363 H 0.48477 0.36724 0.08856 0.0
H3364 H 0.48125 0.37052 0.11966 0.0
H3365 H 0.56341 0.31505 0.0849 0.0
H3366 H 0.55211 0.32787 0.0626 0.0
H3367 H 0.56918 0.34714 0.08798 0.0
H3368 H 0.52889 0.36792 0.01989 0.0
H3369 H 0.57061 0.41813 0.07796 0.0
H3370 H 0.49226 0.33637 0.0552 0.0
H3371 H 0.5132 0.32134 0.04504 0.0
H3372 H 0.50035 0.33616 0.0257 0.0
H3373 H 0.54337 0.39726 0.12452 0.0
H3374 H 0.56948 0.41363 0.11749 0.0
H3375 H 0.56527 0.38239 0.11859 0.0
C3376 C 0.03509 0.30936 0.33921 0.0
C3377 C 0.04833 0.32632 0.35781 0.0
C3378 C 0.01289 0.30949 0.33433 0.0
C3379 C 0.0041 0.32741 0.34822 0.0
C3380 C 0.01702 0.34327 0.36836 0.0
C3381 C 0.0392 0.34253 0.37296 0.0
C3382 C -0.00039 0.29195 0.31287 0.0
C3383 C 0.0079 0.36201 0.38394 0.0
C3384 C 0.96759 0.34483 0.30512 0.0
C3385 C 0.9476 0.32837 0.30549 0.0
C3386 C 0.9858 0.34702 0.32129 0.0
C3387 C 0.98368 0.33248 0.33829 0.0
C3388 C 0.96259 0.3186 0.34095 0.0
C3389 C 0.94465 0.31652 0.32424 0.0
C3390 C 0.00797 0.36219 0.31787 0.0
C3391 C 0.95951 0.30364 0.35946 0.0
H3392 H 0.04242 0.29676 0.32779 0.0
H3393 H 0.04973 0.35548 0.3875 0.0
H3394 H 0.98303 0.28345 0.31728 0.0
H3395 H 0.99713 0.30165 0.29867 0.0
H3396 H 0.00804 0.27756 0.30577 0.0
H3397 H 0.01969 0.37203 0.39968 0.0
H3398 H 0.00415 0.37503 0.37369 0.0
H3399 H 0.99211 0.3534 0.39002 0.0
H3400 H 0.96961 0.35414 0.29065 0.0
H3401 H 0.92904 0.30391 0.32453 0.0
H3402 H 0.01853 0.35032 0.30994 0.0
H3403 H 0.01676 0.37299 0.33509 0.0
H3404 H 0.00624 0.37453 0.30595 0.0
H3405 H 0.9626 0.28578 0.35215 0.0
H3406 H 0.94227 0.30079 0.36446 0.0
H3407 H 0.97123 0.3121 0.3756 0.0
C3408 C 0.99082 0.67786 0.60123 0.0
C3409 C 0.99622 0.67889 0.62532 0.0
C3410 C 0.99336 0.65852 0.58401 0.0
C3411 C 0.00119 0.63998 0.59131 0.0
C3412 C 0.00489 0.63995 0.61561 0.0
C3413 C 0.00223 0.65945 0.63239 0.0
C3414 C 0.98946 0.6589 0.55811 0.0
C3415 C 0.01365 0.6205 0.62391 0.0
C3416 C 0.00122 0.5816 0.55054 0.0
C3417 C 0.02382 0.58503 0.54821 0.0
C3418 C 0.99319 0.59989 0.56389 0.0
C3419 C 0.00819 0.62208 0.57389 0.0
C3420 C 0.03076 0.6262 0.5696 0.0
C3421 C 0.03841 0.60731 0.55702 0.0
C3422 C 0.96921 0.59489 0.56882 0.0
C3423 C 0.04698 0.65008 0.57922 0.0
H3424 H 0.98598 0.69281 0.59572 0.0
H3425 H 0.00616 0.66008 0.65103 0.0
H3426 H 0.0056 0.66224 0.55057 0.0
H3427 H 0.97943 0.64128 0.54798 0.0
H3428 H 0.98092 0.67308 0.55541 0.0
H3429 H 0.0125 0.62134 0.64313 0.0
H3430 H 0.00447 0.60246 0.61387 0.0
H3431 H 0.03134 0.6226 0.62068 0.0
H3432 H 0.99015 0.5643 0.54303 0.0
H3433 H 0.05584 0.60979 0.55432 0.0
H3434 H 0.96177 0.60995 0.56653 0.0
H3435 H 0.96824 0.59317 0.58751 0.0
H3436 H 0.95919 0.57806 0.55711 0.0
H3437 H 0.04105 0.66451 0.57288 0.0
H3438 H 0.06386 0.65021 0.57376 0.0
H3439 H 0.04818 0.65448 0.59887 0.0
C3440 C 0.67579 0.79291 0.84768 0.0
C3441 C 0.66731 0.81306 0.8493 0.0
C3442 C 0.69081 0.78875 0.83152 0.0
C3443 C 0.69797 0.80573 0.8176 0.0
C3444 C 0.68919 0.82622 0.81918 0.0
C3445 C 0.67342 0.82942 0.83491 0.0
C3446 C 0.69939 0.76655 0.82979 0.0
C3447 C 0.69723 0.84518 0.80527 0.0
C3448 C 0.75756 0.81355 0.80824 0.0
C3449 C 0.75638 0.8038 0.78411 0.0
C3450 C 0.73852 0.8147 0.81914 0.0
C3451 C 0.7178 0.80471 0.80557 0.0
C3452 C 0.71637 0.79399 0.78119 0.0
C3453 C 0.736 0.79416 0.77043 0.0
C3454 C 0.7407 0.82683 0.8451 0.0
C3455 C 0.69432 0.78232 0.76677 0.0
H3456 H 0.67028 0.7802 0.85871 0.0
H3457 H 0.66629 0.8449 0.83643 0.0
H3458 H 0.69649 0.75675 0.81109 0.0
H3459 H 0.71744 0.77165 0.83542 0.0
H3460 H 0.69111 0.75445 0.84089 0.0
H3461 H 0.6892 0.86047 0.8094 0.0
H3462 H 0.71546 0.85223 0.80916 0.0
H3463 H 0.69377 0.83718 0.78601 0.0
H3464 H 0.77345 0.82061 0.81866 0.0
H3465 H 0.73549 0.7866 0.75166 0.0
H3466 H 0.73356 0.81361 0.8556 0.0
H3467 H 0.73138 0.84111 0.84766 0.0
H3468 H 0.75823 0.83507 0.8524 0.0
H3469 H 0.68519 0.76769 0.77463 0.0
H3470 H 0.69621 0.77471 0.74803 0.0
H3471 H 0.68399 0.79557 0.76716 0.0
C3472 C 0.4642 0.57295 0.68031 0.0
C3473 C 0.47337 0.56822 0.70129 0.0
C3474 C 0.4751 0.57198 0.65901 0.0
C3475 C 0.49565 0.56492 0.6573 0.0
C3476 C 0.50498 0.56003 0.67846 0.0
C3477 C 0.49418 0.56222 0.69989 0.0
C3478 C 0.46445 0.57882 0.6382 0.0
C3479 C 0.52649 0.5522 0.67862 0.0
C3480 C 0.50818 0.53802 0.59278 0.0
C3481 C 0.52622 0.55523 0.58781 0.0
C3482 C 0.49902 0.54054 0.61512 0.0
C3483 C 0.50658 0.56168 0.63341 0.0
C3484 C 0.52436 0.57956 0.62827 0.0
C3485 C 0.53411 0.57593 0.60622 0.0
C3486 C 0.48138 0.51994 0.61929 0.0
C3487 C 0.5327 0.60316 0.64575 0.0
H3488 H 0.44841 0.57787 0.6806 0.0
H3489 H 0.5019 0.55854 0.71554 0.0
H3490 H 0.47709 0.5902 0.62983 0.0
H3491 H 0.45652 0.56242 0.62465 0.0
H3492 H 0.45153 0.58868 0.64347 0.0
H3493 H 0.52886 0.54352 0.69367 0.0
H3494 H 0.52722 0.5395 0.66183 0.0
H3495 H 0.54054 0.56808 0.68042 0.0
H3496 H 0.5013 0.52198 0.57932 0.0
H3497 H 0.54776 0.58976 0.60321 0.0
H3498 H 0.46521 0.52494 0.61974 0.0
H3499 H 0.48544 0.51581 0.6367 0.0
H3500 H 0.47954 0.50346 0.60525 0.0
H3501 H 0.51968 0.61347 0.64646 0.0
H3502 H 0.54803 0.61415 0.64082 0.0
H3503 H 0.53607 0.60031 0.66382 0.0
C3504 C 0.76624 0.16502 0.95617 0.0
C3505 C 0.78735 0.16877 0.96794 0.0
C3506 C 0.76179 0.18064 0.94225 0.0
C3507 C 0.77919 0.19973 0.9395 0.0
C3508 C 0.80081 0.20296 0.95064 0.0
C3509 C 0.80451 0.18767 0.96536 0.0
C3510 C 0.7384 0.17714 0.9311 0.0
C3511 C 0.81978 0.2228 0.94742 0.0
C3512 C 0.76843 0.22465 0.88626 0.0
C3513 C 0.76186 0.2455 0.89658 0.0
C3514 C 0.77512 0.21014 0.90022 0.0
C3515 C 0.77454 0.21629 0.92497 0.0
C3516 C 0.76789 0.23724 0.93556 0.0
C3517 C 0.76162 0.2517 0.92114 0.0
C3518 C 0.78238 0.18803 0.88844 0.0
C3519 C 0.76667 0.24396 0.96195 0.0
H3520 H 0.75291 0.15068 0.95896 0.0
H3521 H 0.82067 0.19058 0.97503 0.0
H3522 H 0.73273 0.194 0.93594 0.0
H3523 H 0.73796 0.17263 0.91152 0.0
H3524 H 0.72648 0.16259 0.93668 0.0
H3525 H 0.83586 0.22166 0.95591 0.0
H3526 H 0.82119 0.22205 0.92826 0.0
H3527 H 0.81658 0.24048 0.95521 0.0
H3528 H 0.76822 0.21957 0.86717 0.0
H3529 H 0.75669 0.2679 0.92906 0.0
H3530 H 0.76974 0.17171 0.88952 0.0
H3531 H 0.79818 0.18713 0.89771 0.0
H3532 H 0.78468 0.18761 0.86947 0.0
H3533 H 0.7524 0.23135 0.96682 0.0
H3534 H 0.76448 0.26251 0.96767 0.0
H3535 H 0.78185 0.24247 0.97193 0.0
C3536 C 0.14951 0.50877 0.1514 0.0
C3537 C 0.16178 0.52942 0.16683 0.0
C3538 C 0.13 0.50931 0.13903 0.0
C3539 C 0.123 0.53104 0.14279 0.0
C3540 C 0.13476 0.55153 0.15952 0.0
C3541 C 0.15461 0.55069 0.17097 0.0
C3542 C 0.1181 0.48738 0.12056 0.0
C3543 C 0.12717 0.57467 0.16397 0.0
C3544 C 0.10578 0.54166 0.08503 0.0
C3545 C 0.0827 0.53436 0.08405 0.0
C3546 C 0.11902 0.54199 0.10487 0.0
C3547 C 0.10873 0.53462 0.12413 0.0
C3548 C 0.08547 0.52846 0.12402 0.0
C3549 C 0.07251 0.52838 0.1036 0.0
C3550 C 0.144 0.54869 0.10442 0.0
C3551 C 0.0744 0.52059 0.14462 0.0
H3552 H 0.15499 0.49219 0.14942 0.0
H3553 H 0.16395 0.56618 0.18405 0.0
H3554 H 0.09987 0.48468 0.12027 0.0
H3555 H 0.12264 0.48991 0.1028 0.0
H3556 H 0.12273 0.47088 0.12364 0.0
H3557 H 0.13567 0.58714 0.18063 0.0
H3558 H 0.13081 0.58378 0.14906 0.0
H3559 H 0.10898 0.57101 0.16493 0.0
H3560 H 0.11373 0.54634 0.06989 0.0
H3561 H 0.05473 0.52244 0.10256 0.0
H3562 H 0.15108 0.53323 0.10613 0.0
H3563 H 0.15171 0.56376 0.11947 0.0
H3564 H 0.14892 0.55416 0.08779 0.0
H3565 H 0.07494 0.50172 0.14429 0.0
H3566 H 0.05674 0.5216 0.14378 0.0
H3567 H 0.08319 0.53172 0.16174 0.0
C3568 C 0.81794 0.83026 0.44901 0.0
C3569 C 0.80391 0.84596 0.45398 0.0
C3570 C 0.81899 0.8185 0.42552 0.0
C3571 C 0.80546 0.82236 0.40685 0.0
C3572 C 0.78961 0.83615 0.41224 0.0
C3573 C 0.78921 0.84797 0.43569 0.0
C3574 C 0.83596 0.80382 0.42053 0.0
C3575 C 0.77425 0.84001 0.393 0.0
C3576 C 0.82412 0.83069 0.34762 0.0
C3577 C 0.81269 0.80926 0.33249 0.0
C3578 C 0.82401 0.83384 0.37222 0.0
C3579 C 0.8103 0.816 0.38177 0.0
C3580 C 0.79888 0.79406 0.36654 0.0
C3581 C 0.80076 0.79067 0.34204 0.0
C3582 C 0.83721 0.85711 0.38783 0.0
C3583 C 0.78341 0.77499 0.37582 0.0
H3584 H 0.82926 0.8286 0.46316 0.0
H3585 H 0.77804 0.85974 0.4396 0.0
H3586 H 0.82907 0.78733 0.40668 0.0
H3587 H 0.85036 0.8145 0.41377 0.0
H3588 H 0.84198 0.79866 0.43672 0.0
H3589 H 0.76136 0.849 0.40035 0.0
H3590 H 0.78396 0.85134 0.38212 0.0
H3591 H 0.76592 0.82261 0.38104 0.0
H3592 H 0.83255 0.84539 0.34014 0.0
H3593 H 0.79129 0.77435 0.33017 0.0
H3594 H 0.84609 0.85363 0.40343 0.0
H3595 H 0.82583 0.86851 0.39445 0.0
H3596 H 0.84955 0.86728 0.37814 0.0
H3597 H 0.79277 0.76846 0.38895 0.0
H3598 H 0.77495 0.75944 0.36146 0.0
H3599 H 0.77059 0.78264 0.38506 0.0
C3600 C 0.47051 0.54805 0.86063 0.0
C3601 C 0.48257 0.5633 0.84726 0.0
C3602 C 0.47992 0.54411 0.88236 0.0
C3603 C 0.50221 0.55585 0.89208 0.0
C3604 C 0.51436 0.57157 0.87879 0.0
C3605 C 0.50477 0.57451 0.85673 0.0
C3606 C 0.46607 0.52644 0.89455 0.0
C3607 C 0.53795 0.58506 0.88745 0.0
C3608 C 0.51537 0.56185 0.96048 0.0
C3609 C 0.52885 0.54561 0.96279 0.0
C3610 C 0.50781 0.56596 0.93823 0.0
C3611 C 0.51218 0.55256 0.91639 0.0
C3612 C 0.52601 0.53626 0.91835 0.0
C3613 C 0.53467 0.53368 0.94112 0.0
C3614 C 0.49525 0.58524 0.93822 0.0
C3615 C 0.53114 0.52074 0.89629 0.0
H3616 H 0.45384 0.53812 0.85346 0.0
H3617 H 0.51499 0.58548 0.84654 0.0
H3618 H 0.47521 0.51282 0.89752 0.0
H3619 H 0.46292 0.53586 0.91218 0.0
H3620 H 0.44988 0.51712 0.88415 0.0
H3621 H 0.54307 0.60084 0.87934 0.0
H3622 H 0.54022 0.59127 0.90702 0.0
H3623 H 0.54921 0.57301 0.88249 0.0
H3624 H 0.51077 0.57198 0.97643 0.0
H3625 H 0.54564 0.52189 0.94176 0.0
H3626 H 0.47791 0.57704 0.93039 0.0
H3627 H 0.50292 0.59764 0.92711 0.0
H3628 H 0.495 0.59588 0.95634 0.0
H3629 H 0.51561 0.50786 0.88743 0.0
H3630 H 0.54339 0.51046 0.90021 0.0
H3631 H 0.5376 0.53181 0.88358 0.0
C3632 C 0.79259 0.1979 0.09535 0.0
C3633 C 0.7754 0.17748 0.09386 0.0
C3634 C 0.79392 0.21849 0.11272 0.0
C3635 C 0.77759 0.21841 0.12869 0.0
C3636 C 0.75897 0.19877 0.12571 0.0
C3637 C 0.75824 0.17821 0.10839 0.0
C3638 C 0.81416 0.23904 0.11574 0.0
C3639 C 0.7411 0.19851 0.14237 0.0
C3640 C 0.79943 0.24221 0.19212 0.0
C3641 C 0.79155 0.26295 0.19737 0.0
C3642 C 0.79519 0.22778 0.1696 0.0
C3643 C 0.78326 0.23484 0.15184 0.0
C3644 C 0.77652 0.25671 0.15663 0.0
C3645 C 0.78086 0.27078 0.17971 0.0
C3646 C 0.80269 0.20451 0.16523 0.0
C3647 C 0.76439 0.26484 0.13768 0.0
H3648 H 0.80573 0.19734 0.08383 0.0
H3649 H 0.7446 0.16257 0.10662 0.0
H3650 H 0.80974 0.25656 0.12087 0.0
H3651 H 0.82611 0.23776 0.13012 0.0
H3652 H 0.82261 0.23862 0.09929 0.0
H3653 H 0.72615 0.18381 0.13534 0.0
H3654 H 0.74758 0.19595 0.15968 0.0
H3655 H 0.73618 0.21588 0.14564 0.0
H3656 H 0.80844 0.23692 0.20592 0.0
H3657 H 0.77519 0.28719 0.18415 0.0
H3658 H 0.81351 0.20391 0.15062 0.0
H3659 H 0.7881 0.18906 0.15987 0.0
H3660 H 0.81197 0.2021 0.18118 0.0
H3661 H 0.77567 0.26911 0.12413 0.0
H3662 H 0.75833 0.28101 0.14498 0.0
H3663 H 0.75008 0.25028 0.12853 0.0
C3664 C 0.14797 0.51823 0.30236 0.0
C3665 C 0.1647 0.53645 0.29778 0.0
C3666 C 0.14006 0.52047 0.32458 0.0
C3667 C 0.14866 0.54189 0.34183 0.0
C3668 C 0.16772 0.55868 0.3382 0.0
C3669 C 0.17561 0.5557 0.31593 0.0
C3670 C 0.12032 0.50172 0.32811 0.0
C3671 C 0.17755 0.58154 0.3564 0.0
C3672 C 0.1062 0.57292 0.36839 0.0
C3673 C 0.10859 0.57079 0.3919 0.0
C3674 C 0.11874 0.56284 0.3518 0.0
C3675 C 0.13407 0.55031 0.35906 0.0
C3676 C 0.13602 0.54727 0.3826 0.0
C3677 C 0.12321 0.55767 0.3989 0.0
C3678 C 0.11589 0.56615 0.32664 0.0
C3679 C 0.15183 0.5335 0.39061 0.0
H3680 H 0.13988 0.50326 0.28805 0.0
H3681 H 0.18869 0.56963 0.31202 0.0
H3682 H 0.12026 0.50025 0.34691 0.0
H3683 H 0.10489 0.5068 0.32287 0.0
H3684 H 0.12008 0.48387 0.3169 0.0
H3685 H 0.19373 0.59126 0.35196 0.0
H3686 H 0.16598 0.59359 0.35742 0.0
H3687 H 0.17993 0.5776 0.37419 0.0
H3688 H 0.09444 0.58252 0.36296 0.0
H3689 H 0.12493 0.55596 0.41717 0.0
H3690 H 0.11129 0.54846 0.31407 0.0
H3691 H 0.13175 0.57633 0.322 0.0
H3692 H 0.1029 0.57597 0.324 0.0
H3693 H 0.14961 0.51587 0.37821 0.0
H3694 H 0.1495 0.53047 0.40875 0.0
H3695 H 0.16917 0.54354 0.3905 0.0
C3696 C 0.80278 0.86135 0.61824 0.0
C3697 C 0.80357 0.84648 0.59624 0.0
C3698 C 0.79748 0.85169 0.63803 0.0
C3699 C 0.79331 0.82657 0.63588 0.0
C3700 C 0.79311 0.81135 0.61352 0.0
C3701 C 0.79813 0.82151 0.59385 0.0
C3702 C 0.7973 0.86845 0.6615 0.0
C3703 C 0.78837 0.78445 0.61061 0.0
C3704 C 0.81284 0.81096 0.69214 0.0
C3705 C 0.79316 0.8059 0.7027 0.0
C3706 C 0.81286 0.8166 0.66984 0.0
C3707 C 0.79259 0.81692 0.65769 0.0
C3708 C 0.7724 0.81028 0.66762 0.0
C3709 C 0.77292 0.80468 0.69013 0.0
C3710 C 0.83473 0.82311 0.65972 0.0
C3711 C 0.75042 0.81029 0.65523 0.0
H3712 H 0.80638 0.88065 0.62006 0.0
H3713 H 0.79829 0.80994 0.57676 0.0
H3714 H 0.78199 0.86224 0.66973 0.0
H3715 H 0.81161 0.86844 0.67383 0.0
H3716 H 0.79834 0.88717 0.65962 0.0
H3717 H 0.78769 0.77504 0.59183 0.0
H3718 H 0.80144 0.77964 0.62121 0.0
H3719 H 0.77235 0.77781 0.61743 0.0
H3720 H 0.8283 0.81044 0.70136 0.0
H3721 H 0.75764 0.80008 0.69817 0.0
H3722 H 0.83836 0.84228 0.65862 0.0
H3723 H 0.83385 0.81229 0.64149 0.0
H3724 H 0.84873 0.82027 0.67069 0.0
H3725 H 0.74798 0.82883 0.65901 0.0
H3726 H 0.73642 0.79857 0.6616 0.0
H3727 H 0.74985 0.80429 0.63574 0.0
C3728 C 0.76707 0.47939 0.49977 0.0
C3729 C 0.76354 0.4561 0.50365 0.0
C3730 C 0.75081 0.49213 0.50347 0.0
C3731 C 0.73058 0.48089 0.51072 0.0
C3732 C 0.72578 0.45623 0.51126 0.0
C3733 C 0.74256 0.44392 0.50761 0.0
C3734 C 0.75652 0.51846 0.50277 0.0
C3735 C 0.7037 0.44348 0.51751 0.0
C3736 C 0.71002 0.52343 0.55667 0.0
C3737 C 0.69455 0.53018 0.54268 0.0
C3738 C 0.72136 0.50653 0.54647 0.0
C3739 C 0.71674 0.49616 0.52189 0.0
C3740 C 0.70092 0.5026 0.50778 0.0
C3741 C 0.69038 0.52005 0.51826 0.0
C3742 C 0.73835 0.49987 0.56191 0.0
C3743 C 0.6954 0.49135 0.48166 0.0
H3744 H 0.78324 0.48844 0.49591 0.0
H3745 H 0.73985 0.42559 0.5099 0.0
H3746 H 0.74255 0.52343 0.49388 0.0
H3747 H 0.75985 0.52936 0.52119 0.0
H3748 H 0.77148 0.52332 0.49346 0.0
H3749 H 0.70376 0.42519 0.52011 0.0
H3750 H 0.69906 0.45388 0.53389 0.0
H3751 H 0.69068 0.44185 0.50299 0.0
H3752 H 0.71284 0.53092 0.57558 0.0
H3753 H 0.67846 0.52545 0.50742 0.0
H3754 H 0.75495 0.50471 0.55561 0.0
H3755 H 0.73417 0.48019 0.56068 0.0
H3756 H 0.73939 0.50905 0.58083 0.0
H3757 H 0.70961 0.49762 0.47188 0.0
H3758 H 0.68053 0.49592 0.47402 0.0
H3759 H 0.69242 0.47153 0.47867 0.0
C3760 C 0.22472 0.12851 0.50526 0.0
C3761 C 0.22645 0.14706 0.49292 0.0
C3762 C 0.20401 0.11391 0.50734 0.0
C3763 C 0.18459 0.11714 0.49579 0.0
C3764 C 0.18631 0.13556 0.48285 0.0
C3765 C 0.20718 0.15064 0.482 0.0
C3766 C 0.20294 0.09537 0.52231 0.0
C3767 C 0.16606 0.1395 0.4701 0.0
C3768 C 0.13264 0.06563 0.48614 0.0
C3769 C 0.12029 0.07414 0.50408 0.0
C3770 C 0.15351 0.07951 0.48301 0.0
C3771 C 0.16238 0.10222 0.49842 0.0
C3772 C 0.15006 0.11075 0.51664 0.0
C3773 C 0.12919 0.09683 0.51902 0.0
C3774 C 0.16602 0.06999 0.46313 0.0
C3775 C 0.15915 0.13434 0.53412 0.0
H3776 H 0.23954 0.1258 0.51392 0.0
H3777 H 0.2085 0.16496 0.47243 0.0
H3778 H 0.1908 0.09745 0.53547 0.0
H3779 H 0.19721 0.07712 0.51092 0.0
H3780 H 0.21928 0.09672 0.53194 0.0
H3781 H 0.17045 0.1525 0.45852 0.0
H3782 H 0.15607 0.12226 0.45913 0.0
H3783 H 0.15543 0.14646 0.48322 0.0
H3784 H 0.12597 0.04826 0.47442 0.0
H3785 H 0.11997 0.10383 0.53297 0.0
H3786 H 0.18203 0.06762 0.47047 0.0
H3787 H 0.16991 0.08314 0.45163 0.0
H3788 H 0.15652 0.05252 0.45207 0.0
H3789 H 0.17414 0.13328 0.54477 0.0
H3790 H 0.14693 0.13906 0.54643 0.0
H3791 H 0.16422 0.14911 0.52471 0.0
C3792 C 0.20538 0.91253 0.75403 0.0
C3793 C 0.21625 0.93731 0.75945 0.0
C3794 C 0.21678 0.89362 0.75479 0.0
C3795 C 0.24017 0.89862 0.76155 0.0
C3796 C 0.25124 0.92357 0.76682 0.0
C3797 C 0.2395 0.9421 0.76559 0.0
C3798 C 0.2035 0.86797 0.74839 0.0
C3799 C 0.27588 0.93087 0.77398 0.0
C3800 C 0.26491 0.85198 0.78926 0.0
C3801 C 0.27554 0.83994 0.77117 0.0
C3802 C 0.25387 0.87052 0.78636 0.0
C3803 C 0.25262 0.87829 0.76455 0.0
C3804 C 0.26353 0.86643 0.74612 0.0
C3805 C 0.27458 0.84778 0.74954 0.0
C3806 C 0.24329 0.88188 0.80704 0.0
C3807 C 0.26303 0.87292 0.72225 0.0
H3808 H 0.18764 0.90773 0.74911 0.0
H3809 H 0.24873 0.96067 0.7698 0.0
H3810 H 0.21178 0.85695 0.73556 0.0
H3811 H 0.20254 0.86036 0.7645 0.0
H3812 H 0.18636 0.86637 0.74061 0.0
H3813 H 0.28216 0.95065 0.7793 0.0
H3814 H 0.28006 0.92281 0.78894 0.0
H3815 H 0.28468 0.92395 0.75894 0.0
H3816 H 0.26507 0.84668 0.80615 0.0
H3817 H 0.28216 0.83903 0.73498 0.0
H3818 H 0.22514 0.87837 0.80232 0.0
H3819 H 0.24992 0.90163 0.81123 0.0
H3820 H 0.2462 0.87495 0.82317 0.0
H3821 H 0.24605 0.86572 0.71296 0.0
H3822 H 0.27484 0.86544 0.71103 0.0
H3823 H 0.26701 0.89269 0.72421 0.0
C3824 C 0.40232 0.00603 0.02912 0.0
C3825 C 0.3923 0.9827 0.01657 0.0
C3826 C 0.4236 0.01102 0.04095 0.0
C3827 C 0.43497 0.99245 0.03873 0.0
C3828 C 0.42333 0.96832 0.03008 0.0
C3829 C 0.40196 0.96373 0.019 0.0
C3830 C 0.43502 0.0366 0.05245 0.0
C3831 C 0.43466 0.94778 0.02817 0.0
C3832 C 0.48549 1.00104 0.00676 0.0
C3833 C 0.50128 0.99729 0.02254 0.0
C3834 C 0.46412 1.00114 0.01242 0.0
C3835 C 0.45852 0.99812 0.03519 0.0
C3836 C 0.47457 0.99561 0.05199 0.0
C3837 C 0.49556 0.99433 0.04514 0.0
C3838 C 0.44744 1.00345 0.99344 0.0
C3839 C 0.46974 0.99469 0.07715 0.0
H3840 H 0.3942 0.02053 0.02859 0.0
H3841 H 0.3937 0.9454 0.01044 0.0
H3842 H 0.44878 0.03748 0.06589 0.0
H3843 H 0.44196 0.04609 0.03873 0.0
H3844 H 0.42303 0.04621 0.06101 0.0
H3845 H 0.4225 0.93014 0.02492 0.0
H3846 H 0.44503 0.94776 0.01315 0.0
H3847 H 0.44567 0.94968 0.04449 0.0
H3848 H 0.48945 1.00351 0.98977 0.0
H3849 H 0.5074 0.99136 0.05774 0.0
H3850 H 0.44018 0.01891 0.99988 0.0
H3851 H 0.43378 0.987 0.98886 0.0
H3852 H 0.45491 0.00616 0.97692 0.0
H3853 H 0.46789 0.01257 0.08637 0.0
H3854 H 0.48324 0.99002 0.08726 0.0
H3855 H 0.45391 0.98165 0.07759 0.0
C3856 C 0.86853 0.60352 0.82846 0.0
C3857 C 0.88909 0.60053 0.82173 0.0
C3858 C 0.85638 0.6154 0.81595 0.0
C3859 C 0.86446 0.62252 0.79544 0.0
C3860 C 0.88585 0.62079 0.78954 0.0
C3861 C 0.89844 0.611 0.80372 0.0
C3862 C 0.8342 0.61861 0.82351 0.0
C3863 C 0.89487 0.62728 0.76732 0.0
C3864 C 0.81979 0.62131 0.74814 0.0
C3865 C 0.82128 0.64587 0.75037 0.0
C3866 C 0.83432 0.61339 0.76231 0.0
C3867 C 0.85004 0.6305 0.77946 0.0
C3868 C 0.8521 0.65521 0.78131 0.0
C3869 C 0.83803 0.66257 0.7664 0.0
C3870 C 0.83296 0.58683 0.7589 0.0
C3871 C 0.86877 0.67386 0.79943 0.0
H3872 H 0.86136 0.59513 0.84226 0.0
H3873 H 0.91433 0.60836 0.79839 0.0
H3874 H 0.83239 0.63694 0.82291 0.0
H3875 H 0.82071 0.60564 0.81111 0.0
H3876 H 0.83205 0.61567 0.8417 0.0
H3877 H 0.90799 0.61783 0.76164 0.0
H3878 H 0.88166 0.62281 0.75235 0.0
H3879 H 0.90237 0.64682 0.77079 0.0
H3880 H 0.80709 0.60831 0.73571 0.0
H3881 H 0.84001 0.68162 0.76773 0.0
H3882 H 0.82804 0.58062 0.77516 0.0
H3883 H 0.84949 0.58326 0.75582 0.0
H3884 H 0.82082 0.57606 0.74373 0.0
H3885 H 0.86638 0.67054 0.81745 0.0
H3886 H 0.8674 0.69243 0.7993 0.0
H3887 H 0.88584 0.67258 0.79593 0.0
C3888 C 0.86825 0.66067 0.00702 0.0
C3889 C 0.84897 0.64764 0.01433 0.0
C3890 C 0.88878 0.65463 0.01044 0.0
C3891 C 0.88983 0.6352 0.02134 0.0
C3892 C 0.87039 0.62212 0.02864 0.0
C3893 C 0.85036 0.62843 0.02498 0.0
C3894 C 0.90917 0.66882 0.00226 0.0
C3895 C 0.87066 0.60147 0.04071 0.0
C3896 C 0.92909 0.5949 0.01765 0.0
C3897 C 0.9383 0.60071 0.04131 0.0
C3898 C 0.9153 0.6083 0.00962 0.0
C3899 C 0.91084 0.62793 0.02567 0.0
C3900 C 0.92254 0.63568 0.04861 0.0
C3901 C 0.93593 0.62173 0.0563 0.0
C3902 C 0.90343 0.59967 0.98492 0.0
C3903 C 0.91901 0.65719 0.06586 0.0
H3904 H 0.86734 0.67553 0.99873 0.0
H3905 H 0.83571 0.61828 0.03087 0.0
H3906 H 0.92358 0.67314 0.01588 0.0
H3907 H 0.91353 0.6579 0.98603 0.0
H3908 H 0.90652 0.68578 0.9981 0.0
H3909 H 0.85391 0.59284 0.04475 0.0
H3910 H 0.87728 0.58759 0.02931 0.0
H3911 H 0.88165 0.60798 0.05759 0.0
H3912 H 0.93126 0.57882 0.00594 0.0
H3913 H 0.94372 0.62661 0.07438 0.0
H3914 H 0.90301 0.61503 0.97651 0.0
H3915 H 0.88602 0.59026 0.98588 0.0
H3916 H 0.9114 0.58703 0.97348 0.0
H3917 H 0.91998 0.67257 0.05714 0.0
H3918 H 0.93142 0.66269 0.08171 0.0
H3919 H 0.90222 0.65286 0.07184 0.0
C3920 C 0.23032 0.09448 0.75693 0.0
C3921 C 0.21362 0.09026 0.77214 0.0
C3922 C 0.24292 0.11816 0.75704 0.0
C3923 C 0.23964 0.13859 0.77332 0.0
C3924 C 0.22332 0.1342 0.78927 0.0
C3925 C 0.21039 0.11055 0.7881 0.0
C3926 C 0.25922 0.12143 0.73895 0.0
C3927 C 0.21889 0.15459 0.80737 0.0
C3928 C 0.28528 0.19886 0.78487 0.0
C3929 C 0.27574 0.21343 0.77278 0.0
C3930 C 0.27381 0.17497 0.78552 0.0
C3931 C 0.25234 0.16441 0.77299 0.0
C3932 C 0.24276 0.17905 0.7606 0.0
C3933 C 0.25416 0.20315 0.76116 0.0
C3934 C 0.28442 0.16126 0.80041 0.0
C3935 C 0.22046 0.16911 0.74624 0.0
H3936 H 0.23277 0.07936 0.74402 0.0
H3937 H 0.19741 0.10796 0.79975 0.0
H3938 H 0.25549 0.1345 0.72872 0.0
H3939 H 0.27624 0.12891 0.74801 0.0
H3940 H 0.2589 0.10431 0.72638 0.0
H3941 H 0.2101 0.14807 0.82187 0.0
H3942 H 0.23456 0.16782 0.81522 0.0
H3943 H 0.20832 0.16405 0.79867 0.0
H3944 H 0.30143 0.20645 0.79469 0.0
H3945 H 0.24606 0.21392 0.75209 0.0
H3946 H 0.28698 0.14463 0.7891 0.0
H3947 H 0.27321 0.1558 0.81365 0.0
H3948 H 0.30064 0.172 0.80988 0.0
H3949 H 0.22139 0.15369 0.73197 0.0
H3950 H 0.21488 0.1827 0.73803 0.0
H3951 H 0.20774 0.16231 0.75749 0.0
C3952 C 0.36719 0.9622 0.30078 0.0
C3953 C 0.3823 0.96247 0.28368 0.0
C3954 C 0.35117 0.94141 0.30059 0.0
C3955 C 0.35043 0.92099 0.28275 0.0
C3956 C 0.36469 0.92169 0.26447 0.0
C3957 C 0.38072 0.94258 0.26534 0.0
C3958 C 0.33638 0.94068 0.32042 0.0
C3959 C 0.36431 0.89991 0.24514 0.0
C3960 C 0.34218 0.85861 0.28745 0.0
C3961 C 0.32257 0.84873 0.27263 0.0
C3962 C 0.34951 0.88325 0.29483 0.0
C3963 C 0.33778 0.89777 0.28507 0.0
C3964 C 0.31706 0.88788 0.27151 0.0
C3965 C 0.30953 0.86307 0.26556 0.0
C3966 C 0.37161 0.89347 0.30968 0.0
C3967 C 0.30474 0.90305 0.26024 0.0
H3968 H 0.36866 0.97778 0.31504 0.0
H3969 H 0.39239 0.94314 0.25209 0.0
H3970 H 0.31906 0.93116 0.31344 0.0
H3971 H 0.34217 0.93059 0.33285 0.0
H3972 H 0.33652 0.95896 0.33054 0.0
H3973 H 0.37488 0.90444 0.23105 0.0
H3974 H 0.37049 0.88637 0.25284 0.0
H3975 H 0.34715 0.89146 0.23683 0.0
H3976 H 0.35264 0.84714 0.29171 0.0
H3977 H 0.29463 0.8549 0.2537 0.0
H3978 H 0.37091 0.90943 0.32337 0.0
H3979 H 0.38458 0.89921 0.29821 0.0
H3980 H 0.37675 0.88009 0.31855 0.0
H3981 H 0.30439 0.91971 0.2731 0.0
H3982 H 0.28747 0.89315 0.25329 0.0
H3983 H 0.31349 0.9084 0.24523 0.0
C3984 C 0.60268 0.40235 0.58519 0.0
C3985 C 0.59477 0.37863 0.57222 0.0
C3986 C 0.59888 0.42214 0.5764 0.0
C3987 C 0.58594 0.41843 0.55438 0.0
C3988 C 0.57845 0.39453 0.54081 0.0
C3989 C 0.58328 0.37507 0.54966 0.0
C3990 C 0.60834 0.44713 0.59113 0.0
C3991 C 0.5647 0.38937 0.51725 0.0
C3992 C 0.55602 0.46907 0.5559 0.0
C3993 C 0.56603 0.48193 0.53971 0.0
C3994 C 0.56058 0.44713 0.55845 0.0
C3995 C 0.57818 0.4392 0.54736 0.0
C3996 C 0.58931 0.45269 0.53173 0.0
C3997 C 0.58261 0.47335 0.5275 0.0
C3998 C 0.5469 0.43287 0.57385 0.0
C3999 C 0.60948 0.44671 0.52105 0.0
H4000 H 0.61184 0.40551 0.60246 0.0
H4001 H 0.57719 0.35692 0.53931 0.0
H4002 H 0.61552 0.45947 0.57976 0.0
H4003 H 0.59495 0.45415 0.5998 0.0
H4004 H 0.62137 0.44743 0.60517 0.0
H4005 H 0.55757 0.36986 0.51042 0.0
H4006 H 0.55096 0.39872 0.51876 0.0
H4007 H 0.57516 0.3962 0.50404 0.0
H4008 H 0.54497 0.47647 0.56733 0.0
H4009 H 0.59157 0.48386 0.51608 0.0
H4010 H 0.55647 0.43534 0.59125 0.0
H4011 H 0.54271 0.41343 0.56547 0.0
H4012 H 0.53123 0.43858 0.57699 0.0
H4013 H 0.62398 0.45367 0.53469 0.0
H4014 H 0.61323 0.45507 0.50565 0.0
H4015 H 0.60751 0.42707 0.51541 0.0
C4016 C 0.43966 0.77921 0.39106 0.0
C4017 C 0.45095 0.76128 0.38319 0.0
C4018 C 0.4204 0.78095 0.37784 0.0
C4019 C 0.41197 0.76431 0.35608 0.0
C4020 C 0.42276 0.74549 0.34869 0.0
C4021 C 0.44216 0.74443 0.36206 0.0
C4022 C 0.40983 0.80149 0.38651 0.0
C4023 C 0.41461 0.72718 0.32584 0.0
C4024 C 0.35325 0.76145 0.32811 0.0
C4025 C 0.35772 0.77429 0.31011 0.0
C4026 C 0.37055 0.75769 0.34284 0.0
C4027 C 0.39308 0.76765 0.34022 0.0
C4028 C 0.3976 0.78085 0.32219 0.0
C4029 C 0.38001 0.78369 0.30727 0.0
C4030 C 0.36467 0.74281 0.36108 0.0
C4031 C 0.42112 0.79248 0.31893 0.0
H4032 H 0.44669 0.79284 0.40686 0.0
H4033 H 0.45112 0.73101 0.35534 0.0
H4034 H 0.41038 0.81283 0.37321 0.0
H4035 H 0.39213 0.79448 0.38864 0.0
H4036 H 0.41823 0.81292 0.40371 0.0
H4037 H 0.42232 0.71163 0.32445 0.0
H4038 H 0.39632 0.72054 0.32431 0.0
H4039 H 0.41871 0.73566 0.31062 0.0
H4040 H 0.33614 0.75394 0.33045 0.0
H4041 H 0.38376 0.79388 0.29367 0.0
H4042 H 0.37051 0.75394 0.37912 0.0
H4043 H 0.37317 0.72784 0.35853 0.0
H4044 H 0.34652 0.7352 0.36013 0.0
H4045 H 0.42883 0.80591 0.33529 0.0
H4046 H 0.42201 0.80159 0.30379 0.0
H4047 H 0.43114 0.77887 0.31595 0.0
C4048 C 0.10496 0.71353 0.08149 0.0
C4049 C 0.0908 0.72786 0.07617 0.0
C4050 C 0.10064 0.68891 0.07111 0.0
C4051 C 0.08141 0.67785 0.05509 0.0
C4052 C 0.06748 0.69241 0.04877 0.0
C4053 C 0.07243 0.71727 0.05925 0.0
C4054 C 0.11639 0.67453 0.07787 0.0
C4055 C 0.0465 0.68149 0.03225 0.0
C4056 C 0.07465 0.61383 0.01819 0.0
C4057 C 0.06394 0.59982 0.03311 0.0
C4058 C 0.08109 0.63914 0.0253 0.0
C4059 C 0.07502 0.65089 0.047 0.0
C4060 C 0.06331 0.63671 0.06161 0.0
C4061 C 0.05842 0.61149 0.05477 0.0
C4062 C 0.0942 0.65328 0.00947 0.0
C4063 C 0.05539 0.64817 0.08427 0.0
H4064 H 0.11927 0.72156 0.09444 0.0
H4065 H 0.06122 0.72806 0.05526 0.0
H4066 H 0.10766 0.66022 0.08637 0.0
H4067 H 0.12251 0.66566 0.06167 0.0
H4068 H 0.13086 0.68581 0.09021 0.0
H4069 H 0.03983 0.69534 0.02561 0.0
H4070 H 0.04931 0.66819 0.01688 0.0
H4071 H 0.03376 0.67187 0.04189 0.0
H4072 H 0.07768 0.60503 1.00079 0.0
H4073 H 0.04918 0.60079 0.06587 0.0
H4074 H 0.11022 0.66407 0.01932 0.0
H4075 H 0.08507 0.666 0.00418 0.0
H4076 H 0.09765 0.64152 0.99323 0.0
H4077 H 0.06984 0.65788 0.09734 0.0
H4078 H 0.04448 0.63478 0.09229 0.0
H4079 H 0.04612 0.66152 0.08083 0.0
C4080 C 0.09944 0.26 0.90873 0.0
C4081 C 0.07899 0.26027 0.89738 0.0
C4082 C 0.11902 0.2638 0.89734 0.0
C4083 C 0.11829 0.26887 0.87437 0.0
C4084 C 0.09762 0.26915 0.86292 0.0
C4085 C 0.07825 0.26447 0.87437 0.0
C4086 C 0.1405 0.26277 0.91007 0.0
C4087 C 0.09597 0.27488 0.83867 0.0
C4088 C 0.16794 0.30567 0.85171 0.0
C4089 C 0.17384 0.2883 0.83443 0.0
C4090 C 0.15086 0.29937 0.86589 0.0
C4091 C 0.13905 0.27509 0.86255 0.0
C4092 C 0.14577 0.25729 0.84603 0.0
C4093 C 0.16316 0.26409 0.83224 0.0
C4094 C 0.14458 0.31894 0.88348 0.0
C4095 C 0.13392 0.23117 0.84218 0.0
H4096 H 0.10011 0.25667 0.92649 0.0
H4097 H 0.06256 0.26488 0.86554 0.0
H4098 H 0.1498 0.25231 0.89796 0.0
H4099 H 0.15109 0.28119 0.91619 0.0
H4100 H 0.13771 0.25459 0.92573 0.0
H4101 H 0.07889 0.2756 0.83272 0.0
H4102 H 0.10737 0.29243 0.83877 0.0
H4103 H 0.1011 0.26107 0.82554 0.0
H4104 H 0.17625 0.32439 0.85356 0.0
H4105 H 0.16758 0.25062 0.81885 0.0
H4106 H 0.14412 0.31443 0.9012 0.0
H4107 H 0.12771 0.32047 0.87783 0.0
H4108 H 0.15632 0.33666 0.88516 0.0
H4109 H 0.13374 0.2254 0.85932 0.0
H4110 H 0.14179 0.21938 0.82962 0.0
H4111 H 0.11641 0.22862 0.8351 0.0
C4112 C 0.61342 0.76556 0.94858 0.0
C4113 C 0.60044 0.76475 0.92778 0.0
C4114 C 0.60791 0.74755 0.96131 0.0
C4115 C 0.58873 0.72883 0.9532 0.0
C4116 C 0.57618 0.72736 0.9316 0.0
C4117 C 0.58236 0.74533 0.91899 0.0
C4118 C 0.62217 0.74889 0.98375 0.0
C4119 C 0.55534 0.70788 0.92266 0.0
C4120 C 0.57544 0.67399 0.97937 0.0
C4121 C 0.5625 0.68117 0.99745 0.0
C4122 C 0.58505 0.68975 0.96552 0.0
C4123 C 0.58026 0.71253 0.96865 0.0
C4124 C 0.5668 0.71975 0.98625 0.0
C4125 C 0.55875 0.70431 1.00097 0.0
C4126 C 0.60013 0.682 0.94746 0.0
C4127 C 0.56074 0.74373 0.98945 0.0
H4128 H 0.62775 0.78037 0.955 0.0
H4129 H 0.57245 0.7447 0.90276 0.0
H4130 H 0.61245 0.75107 0.99921 0.0
H4131 H 0.62755 0.73191 0.98273 0.0
H4132 H 0.6371 0.76406 0.98697 0.0
H4133 H 0.54954 0.70728 0.904 0.0
H4134 H 0.55794 0.69001 0.92384 0.0
H4135 H 0.54201 0.71129 0.9339 0.0
H4136 H 0.57799 0.65598 0.97567 0.0
H4137 H 0.54942 0.71049 0.01518 0.0
H4138 H 0.61613 0.69562 0.95009 0.0
H4139 H 0.59254 0.68063 0.9293 0.0
H4140 H 0.60357 0.66439 0.94857 0.0
H4141 H 0.57578 0.75843 0.99578 0.0
H4142 H 0.54834 0.74554 0.00238 0.0
H4143 H 0.55387 0.74618 0.97225 0.0
C4144 C 0.08869 0.77764 0.67688 0.0
C4145 C 0.06874 0.76453 0.68243 0.0
C4146 C 0.10894 0.77442 0.68591 0.0
C4147 C 0.10879 0.75732 0.70014 0.0
C4148 C 0.08856 0.74319 0.70458 0.0
C4149 C 0.0688 0.74709 0.69572 0.0
C4150 C 0.13036 0.78952 0.68067 0.0
C4151 C 0.08768 0.72446 0.71937 0.0
C4152 C 0.15666 0.73179 0.71553 0.0
C4153 C 0.16214 0.7434 0.73937 0.0
C4154 C 0.14015 0.73731 0.70175 0.0
C4155 C 0.1294 0.7551 0.71218 0.0
C4156 C 0.13587 0.76782 0.7359 0.0
C4157 C 0.15211 0.76161 0.74936 0.0
C4158 C 0.13332 0.72314 0.67662 0.0
C4159 C 0.12489 0.78717 0.74736 0.0
H4160 H 0.08842 0.79071 0.66604 0.0
H4161 H 0.05348 0.73617 0.69907 0.0
H4162 H 0.14081 0.79909 0.69744 0.0
H4163 H 0.13984 0.7778 0.67036 0.0
H4164 H 0.12752 0.80293 0.67042 0.0
H4165 H 0.07057 0.71362 0.7193 0.0
H4166 H 0.09826 0.71211 0.71274 0.0
H4167 H 0.09419 0.73337 0.73798 0.0
H4168 H 0.165 0.7181 0.70788 0.0
H4169 H 0.15707 0.77101 0.76766 0.0
H4170 H 0.13104 0.73512 0.66453 0.0
H4171 H 0.11718 0.71016 0.67588 0.0
H4172 H 0.14567 0.71299 0.66999 0.0
H4173 H 0.12424 0.8 0.73572 0.0
H4174 H 0.13369 0.79729 0.76488 0.0
H4175 H 0.10755 0.77894 0.74992 0.0
C4176 C 0.12742 0.39607 0.44363 0.0
C4177 C 0.13489 0.39814 0.42153 0.0
C4178 C 0.12072 0.41491 0.45767 0.0
C4179 C 0.12267 0.43653 0.44983 0.0
C4180 C 0.13313 0.43991 0.42929 0.0
C4181 C 0.13905 0.42046 0.41516 0.0
C4182 C 0.10896 0.41047 0.47913 0.0
C4183 C 0.13596 0.46321 0.42105 0.0
C4184 C 0.07761 0.46907 0.46306 0.0
C4185 C 0.08785 0.4869 0.48278 0.0
C4186 C 0.08882 0.4524 0.45216 0.0
C4187 C 0.11089 0.4541 0.4611 0.0
C4188 C 0.12124 0.47182 0.48118 0.0
C4189 C 0.10939 0.48777 0.49211 0.0
C4190 C 0.0769 0.43277 0.43141 0.0
C4191 C 0.14476 0.47388 0.49107 0.0
H4192 H 0.12456 0.37897 0.44889 0.0
H4193 H 0.14525 0.42224 0.3983 0.0
H4194 H 0.11408 0.42616 0.49422 0.0
H4195 H 0.09083 0.40751 0.47464 0.0
H4196 H 0.11207 0.39441 0.48493 0.0
H4197 H 0.14695 0.46398 0.40659 0.0
H4198 H 0.11954 0.46522 0.41441 0.0
H4199 H 0.14292 0.47868 0.43603 0.0
H4200 H 0.06066 0.46762 0.45656 0.0
H4201 H 0.11711 0.50097 0.50793 0.0
H4202 H 0.07654 0.41493 0.4354 0.0
H4203 H 0.08589 0.43391 0.41549 0.0
H4204 H 0.05957 0.43384 0.42706 0.0
H4205 H 0.14629 0.45687 0.4959 0.0
H4206 H 0.15027 0.48866 0.50702 0.0
H4207 H 0.15615 0.47708 0.47733 0.0
C4208 C 0.44685 0.25344 0.23459 0.0
C4209 C 0.44719 0.24549 0.21026 0.0
C4210 C 0.42766 0.25853 0.24347 0.0
C4211 C 0.40846 0.25436 0.22756 0.0
C4212 C 0.40825 0.24418 0.20322 0.0
C4213 C 0.42793 0.24036 0.19471 0.0
C4214 C 0.42831 0.26968 0.26945 0.0
C4215 C 0.38771 0.2388 0.18593 0.0
C4216 C 0.35356 0.25529 0.25064 0.0
C4217 C 0.34932 0.27541 0.24339 0.0
C4218 C 0.37294 0.24801 0.2457 0.0
C4219 C 0.38922 0.26282 0.23568 0.0
C4220 C 0.38593 0.28458 0.23071 0.0
C4221 C 0.36528 0.28978 0.23321 0.0
C4222 C 0.37472 0.2234 0.2487 0.0
C4223 C 0.40386 0.30179 0.22192 0.0
H4224 H 0.46196 0.25717 0.24639 0.0
H4225 H 0.42842 0.23382 0.17588 0.0
H4226 H 0.42308 0.28685 0.27155 0.0
H4227 H 0.41654 0.25763 0.27801 0.0
H4228 H 0.4451 0.27321 0.27901 0.0
H4229 H 0.38921 0.22674 0.16897 0.0
H4230 H 0.37281 0.23038 0.19365 0.0
H4231 H 0.38505 0.25578 0.18189 0.0
H4232 H 0.3409 0.2441 0.25831 0.0
H4233 H 0.36145 0.30445 0.22649 0.0
H4234 H 0.39157 0.22358 0.25609 0.0
H4235 H 0.37139 0.21096 0.23102 0.0
H4236 H 0.3625 0.21606 0.26025 0.0
H4237 H 0.41862 0.30782 0.23524 0.0
H4238 H 0.39839 0.31782 0.21875 0.0
H4239 H 0.40913 0.29282 0.2052 0.0
C4240 C 0.64733 0.5227 0.35907 0.0
C4241 C 0.63431 0.50999 0.33768 0.0
C4242 C 0.63861 0.52466 0.38174 0.0
C4243 C 0.61617 0.51327 0.38399 0.0
C4244 C 0.60319 0.49988 0.36245 0.0
C4245 C 0.6121 0.4989 0.34002 0.0
C4246 C 0.65339 0.53975 0.40339 0.0
C4247 C 0.57944 0.48692 0.36291 0.0
C4248 C 0.59856 0.50268 0.44638 0.0
C4249 C 0.58725 0.52077 0.45424 0.0
C4250 C 0.60779 0.50002 0.42402 0.0
C4251 C 0.60618 0.51585 0.40841 0.0
C4252 C 0.59461 0.53405 0.41633 0.0
C4253 C 0.58544 0.53619 0.43866 0.0
C4254 C 0.61917 0.47988 0.41691 0.0
C4255 C 0.59214 0.55176 0.40128 0.0
H4256 H 0.66419 0.53218 0.35802 0.0
H4257 H 0.60136 0.48951 0.324 0.0
H4258 H 0.6453 0.55356 0.41267 0.0
H4259 H 0.65599 0.52831 0.41592 0.0
H4260 H 0.66981 0.54886 0.39896 0.0
H4261 H 0.57241 0.47457 0.34567 0.0
H4262 H 0.57813 0.47643 0.37699 0.0
H4263 H 0.56917 0.50018 0.36705 0.0
H4264 H 0.60013 0.49037 0.45775 0.0
H4265 H 0.57674 0.5502 0.44402 0.0
H4266 H 0.6368 0.48735 0.41481 0.0
H4267 H 0.61132 0.46852 0.39949 0.0
H4268 H 0.61848 0.46841 0.43013 0.0
H4269 H 0.60872 0.56313 0.40011 0.0
H4270 H 0.5813 0.56359 0.40861 0.0
H4271 H 0.58513 0.54223 0.38298 0.0
C4272 C 0.31794 0.89374 0.07421 0.0
C4273 C 0.33783 0.90805 0.06976 0.0
C4274 C 0.31765 0.88017 0.09147 0.0
C4275 C 0.33784 0.88081 0.1042 0.0
C4276 C 0.35799 0.8957 0.10012 0.0
C4277 C 0.3577 0.90949 0.08298 0.0
C4278 C 0.29585 0.86494 0.09574 0.0
C4279 C 0.37991 0.89622 0.11308 0.0
C4280 C 0.34449 0.86121 0.16148 0.0
C4281 C 0.35141 0.84017 0.15338 0.0
C4282 C 0.33794 0.87385 0.14534 0.0
C4283 C 0.33839 0.86493 0.12085 0.0
C4284 C 0.34289 0.84222 0.11263 0.0
C4285 C 0.34958 0.83011 0.12915 0.0
C4286 C 0.33277 0.89782 0.15456 0.0
C4287 C 0.34266 0.8318 0.08651 0.0
H4288 H 0.30259 0.89298 0.06392 0.0
H4289 H 0.37302 0.92043 0.07915 0.0
H4290 H 0.29702 0.84615 0.09477 0.0
H4291 H 0.29177 0.8719 0.11382 0.0
H4292 H 0.28199 0.86492 0.08277 0.0
H4293 H 0.39387 0.9095 0.10854 0.0
H4294 H 0.37911 0.90061 0.13252 0.0
H4295 H 0.38351 0.8782 0.10854 0.0
H4296 H 0.34583 0.86867 0.18037 0.0
H4297 H 0.35469 0.81354 0.12318 0.0
H4298 H 0.31842 0.90004 0.14371 0.0
H4299 H 0.34725 0.91238 0.15337 0.0
H4300 H 0.32914 0.90003 0.17335 0.0
H4301 H 0.32714 0.83253 0.0766 0.0
H4302 H 0.34416 0.81289 0.0831 0.0
H4303 H 0.35668 0.84262 0.07935 0.0
C4304 C 0.97822 0.51898 0.8589 0.0
C4305 C 0.97062 0.53726 0.8515 0.0
C4306 C 0.98648 0.52221 0.88242 0.0
C4307 C 0.98771 0.54452 0.898 0.0
C4308 C 0.97901 0.5625 0.89084 0.0
C4309 C 0.97033 0.55853 0.86744 0.0
C4310 C 0.99447 0.50217 0.89043 0.0
C4311 C 0.98003 0.58635 0.90729 0.0
C4312 C 0.00292 0.54315 0.9601 0.0
C4313 C 0.02596 0.54674 0.95989 0.0
C4314 C 0.98988 0.54409 0.94039 0.0
C4315 C 0.00052 0.54985 0.9208 0.0
C4316 C 0.02389 0.55704 0.92186 0.0
C4317 C 0.03654 0.55518 0.94162 0.0
C4318 C 0.96495 0.53611 0.93971 0.0
C4319 C 0.03544 0.5642 0.90122 0.0
H4320 H 0.97735 0.5022 0.84646 0.0
H4321 H 0.96379 0.57229 0.86143 0.0
H4322 H 0.01281 0.50728 0.89406 0.0
H4323 H 0.9876 0.49906 0.90714 0.0
H4324 H 0.98968 0.48507 0.87689 0.0
H4325 H 0.96787 0.59558 0.90084 0.0
H4326 H 0.97691 0.58427 0.92552 0.0
H4327 H 0.99689 0.59806 0.90831 0.0
H4328 H 0.99481 0.5379 0.97495 0.0
H4329 H 0.05443 0.55882 0.94202 0.0
H4330 H 0.95945 0.51701 0.93026 0.0
H4331 H 0.95641 0.54667 0.93005 0.0
H4332 H 0.95952 0.53759 0.95782 0.0
H4333 H 0.03458 0.54789 0.88726 0.0
H4334 H 0.05318 0.57337 0.90655 0.0
H4335 H 0.02716 0.57624 0.89339 0.0
C4336 C 0.27814 0.21584 0.59733 0.0
C4337 C 0.29573 0.2206 0.58355 0.0
C4338 C 0.27962 0.22775 0.62106 0.0
C4339 C 0.29936 0.2447 0.63159 0.0
C4340 C 0.31714 0.25003 0.61762 0.0
C4341 C 0.31502 0.23806 0.59359 0.0
C4342 C 0.25993 0.22217 0.63481 0.0
C4343 C 0.33882 0.26727 0.62835 0.0
C4344 C 0.29893 0.28744 0.69065 0.0
C4345 C 0.30495 0.27452 0.7068 0.0
C4346 C 0.29647 0.27775 0.6661 0.0
C4347 C 0.30173 0.25541 0.65755 0.0
C4348 C 0.30834 0.24261 0.67395 0.0
C4349 C 0.30927 0.25202 0.69834 0.0
C4350 C 0.28843 0.29148 0.64934 0.0
C4351 C 0.31473 0.2191 0.66576 0.0
H4352 H 0.26315 0.20245 0.58951 0.0
H4353 H 0.32879 0.24148 0.58304 0.0
H4354 H 0.26489 0.2177 0.65175 0.0
H4355 H 0.2532 0.23833 0.63908 0.0
H4356 H 0.24654 0.20704 0.62468 0.0
H4357 H 0.34982 0.2719 0.61464 0.0
H4358 H 0.33593 0.28404 0.63909 0.0
H4359 H 0.34757 0.25897 0.64043 0.0
H4360 H 0.29619 0.30513 0.69725 0.0
H4361 H 0.31426 0.24219 0.71085 0.0
H4362 H 0.27373 0.27989 0.63759 0.0
H4363 H 0.30152 0.29676 0.63784 0.0
H4364 H 0.28388 0.30789 0.65887 0.0
H4365 H 0.29994 0.20514 0.65675 0.0
H4366 H 0.32181 0.21279 0.68069 0.0
H4367 H 0.32711 0.22097 0.65273 0.0
C4368 C 0.64601 0.52985 0.18331 0.0
C4369 C 0.63973 0.50786 0.19066 0.0
C4370 C 0.63541 0.53455 0.16265 0.0
C4371 C 0.61827 0.51665 0.14745 0.0
C4372 C 0.61178 0.49437 0.1548 0.0
C4373 C 0.62208 0.49049 0.17615 0.0
C4374 C 0.64261 0.55903 0.1571 0.0
C4375 C 0.59442 0.47402 0.13951 0.0
C4376 C 0.58126 0.53239 0.09726 0.0
C4377 C 0.5929 0.52859 0.07704 0.0
C4378 C 0.58912 0.52893 0.11999 0.0
C4379 C 0.60892 0.52058 0.12315 0.0
C4380 C 0.62031 0.51637 0.10262 0.0
C4381 C 0.61255 0.52069 0.08056 0.0
C4382 C 0.57616 0.53436 0.14077 0.0
C4383 C 0.64097 0.50699 0.1038 0.0
H4384 H 0.65925 0.54379 0.19405 0.0
H4385 H 0.61677 0.47332 0.18102 0.0
H4386 H 0.64971 0.55753 0.13985 0.0
H4387 H 0.62801 0.56682 0.15541 0.0
H4388 H 0.65514 0.57158 0.17095 0.0
H4389 H 0.5889 0.45905 0.14863 0.0
H4390 H 0.57976 0.48037 0.13417 0.0
H4391 H 0.60134 0.46698 0.12303 0.0
H4392 H 0.566 0.53818 0.09544 0.0
H4393 H 0.62206 0.51743 0.06563 0.0
H4394 H 0.58717 0.54742 0.1556 0.0
H4395 H 0.56976 0.51776 0.1472 0.0
H4396 H 0.56194 0.54183 0.13619 0.0
H4397 H 0.65436 0.52063 0.11572 0.0
H4398 H 0.64699 0.50251 0.08613 0.0
H4399 H 0.63773 0.49066 0.11131 0.0
C4400 C 0.34166 0.8815 0.94132 0.0
C4401 C 0.32617 0.89494 0.93797 0.0
C4402 C 0.34277 0.86162 0.92412 0.0
C4403 C 0.32787 0.85515 0.9034 0.0
C4404 C 0.31142 0.86799 0.90046 0.0
C4405 C 0.31097 0.88814 0.91783 0.0
C4406 C 0.36066 0.84848 0.92751 0.0
C4407 C 0.29497 0.86104 0.87859 0.0
C4408 C 0.34476 0.83148 0.84448 0.0
C4409 C 0.32992 0.8089 0.83848 0.0
C4410 C 0.3454 0.84637 0.86653 0.0
C4411 C 0.33168 0.83776 0.88311 0.0
C4412 C 0.31949 0.81364 0.87855 0.0
C4413 C 0.31883 0.79926 0.85604 0.0
C4414 C 0.35849 0.87217 0.87081 0.0
C4415 C 0.30557 0.8038 0.89652 0.0
H4416 H 0.35331 0.88698 0.95718 0.0
H4417 H 0.29874 0.89842 0.91581 0.0
H4418 H 0.35388 0.82878 0.92241 0.0
H4419 H 0.37381 0.85314 0.91588 0.0
H4420 H 0.36842 0.85327 0.94612 0.0
H4421 H 0.28234 0.87189 0.87994 0.0
H4422 H 0.30382 0.86353 0.8628 0.0
H4423 H 0.28632 0.8418 0.8756 0.0
H4424 H 0.35414 0.83865 0.83121 0.0
H4425 H 0.3083 0.78127 0.85172 0.0
H4426 H 0.36843 0.8776 0.88834 0.0
H4427 H 0.34687 0.88409 0.87081 0.0
H4428 H 0.36982 0.87525 0.85696 0.0
H4429 H 0.31579 0.80716 0.91371 0.0
H4430 H 0.29817 0.78423 0.89062 0.0
H4431 H 0.29197 0.81316 0.89965 0.0
C4432 C 0.92576 0.52252 0.71883 0.0
C4433 C 0.93106 0.54586 0.73275 0.0
C4434 C 0.93951 0.51553 0.70177 0.0
C4435 C 0.95868 0.53244 0.69865 0.0
C4436 C 0.96317 0.55647 0.71164 0.0
C4437 C 0.94915 0.56288 0.72851 0.0
C4438 C 0.93455 0.48966 0.68852 0.0
C4439 C 0.98308 0.57541 0.70859 0.0
C4440 C 0.00887 0.51154 0.67737 0.0
C4441 C 0.00657 0.51218 0.6533 0.0
C4442 C 0.99296 0.51736 0.6922 0.0
C4443 C 0.97472 0.52468 0.68285 0.0
C4444 C 0.97231 0.52554 0.65872 0.0
C4445 C 0.98792 0.51865 0.64408 0.0
C4446 C 0.99602 0.51643 0.71804 0.0
C4447 C 0.9535 0.53421 0.6485 0.0
H4448 H 0.91211 0.50922 0.72276 0.0
H4449 H 0.95326 0.58081 0.73966 0.0
H4450 H 0.93439 0.4886 0.66917 0.0
H4451 H 0.9478 0.48121 0.69381 0.0
H4452 H 0.91837 0.47911 0.6921 0.0
H4453 H 0.98871 0.58926 0.72524 0.0
H4454 H 0.9973 0.56785 0.70309 0.0
H4455 H 0.97829 0.5845 0.69472 0.0
H4456 H 0.02332 0.50697 0.68478 0.0
H4457 H 0.98547 0.51848 0.62537 0.0
H4458 H 0.98093 0.50507 0.72296 0.0
H4459 H 0.99845 0.53474 0.72921 0.0
H4460 H 0.0105 0.50919 0.72221 0.0
H4461 H 0.93739 0.52223 0.65017 0.0
H4462 H 0.95458 0.53485 0.62954 0.0
H4463 H 0.95359 0.55245 0.65864 0.0
C4464 C 0.31983 0.21193 0.42075 0.0
C4465 C 0.31008 0.22452 0.43886 0.0
C4466 C 0.32319 0.21964 0.39951 0.0
C4467 C 0.31638 0.24034 0.39602 0.0
C4468 C 0.30704 0.25355 0.41447 0.0
C4469 C 0.30421 0.2456 0.43578 0.0
C4470 C 0.33276 0.20474 0.38019 0.0
C4471 C 0.29854 0.27502 0.41111 0.0
C4472 C 0.33428 0.26875 0.34406 0.0
C4473 C 0.31719 0.2563 0.32613 0.0
C4474 C 0.33451 0.26351 0.3668 0.0
C4475 C 0.31667 0.24622 0.37209 0.0
C4476 C 0.29979 0.23314 0.35382 0.0
C4477 C 0.30104 0.23744 0.33094 0.0
C4478 C 0.35393 0.27626 0.38505 0.0
C4479 C 0.27968 0.21505 0.35795 0.0
H4480 H 0.32443 0.19561 0.42293 0.0
H4481 H 0.29653 0.25533 0.44962 0.0
H4482 H 0.31936 0.19473 0.36596 0.0
H4483 H 0.34544 0.21642 0.37215 0.0
H4484 H 0.3404 0.19153 0.38685 0.0
H4485 H 0.29459 0.28519 0.42805 0.0
H4486 H 0.31079 0.28736 0.40332 0.0
H4487 H 0.28324 0.2688 0.39854 0.0
H4488 H 0.3476 0.2824 0.34028 0.0
H4489 H 0.28873 0.22625 0.31705 0.0
H4490 H 0.36174 0.26285 0.39106 0.0
H4491 H 0.34822 0.28643 0.40085 0.0
H4492 H 0.36667 0.28889 0.37803 0.0
H4493 H 0.27707 0.19822 0.3442 0.0
H4494 H 0.2648 0.22231 0.35591 0.0
H4495 H 0.28054 0.21062 0.37565 0.0
C4496 C 0.35394 0.604 0.55633 0.0
C4497 C 0.33421 0.59031 0.54313 0.0
C4498 C 0.37422 0.59945 0.55006 0.0
C4499 C 0.37425 0.5814 0.5298 0.0
C4500 C 0.35417 0.56786 0.51632 0.0
C4501 C 0.3343 0.57228 0.52348 0.0
C4502 C 0.39544 0.61429 0.56452 0.0
C4503 C 0.3536 0.54888 0.49417 0.0
C4504 C 0.41885 0.56995 0.49223 0.0
C4505 C 0.42168 0.54885 0.49839 0.0
C4506 C 0.40546 0.58321 0.50475 0.0
C4507 C 0.3947 0.57461 0.52331 0.0
C4508 C 0.39942 0.55464 0.53098 0.0
C4509 C 0.41294 0.54187 0.51828 0.0
C4510 C 0.40121 0.60493 0.49665 0.0
C4511 C 0.38834 0.54526 0.55094 0.0
H4512 H 0.35349 0.61869 0.57091 0.0
H4513 H 0.31881 0.56259 0.51291 0.0
H4514 H 0.40593 0.60253 0.5693 0.0
H4515 H 0.40506 0.62592 0.55385 0.0
H4516 H 0.39227 0.62589 0.58102 0.0
H4517 H 0.33662 0.54151 0.48485 0.0
H4518 H 0.3645 0.55643 0.48163 0.0
H4519 H 0.35982 0.53386 0.49885 0.0
H4520 H 0.42671 0.57572 0.47741 0.0
H4521 H 0.41615 0.52599 0.52338 0.0
H4522 H 0.39924 0.61891 0.51186 0.0
H4523 H 0.38562 0.59955 0.48458 0.0
H4524 H 0.41487 0.6128 0.48689 0.0
H4525 H 0.38833 0.56023 0.56609 0.0
H4526 H 0.39659 0.53233 0.55727 0.0
H4527 H 0.37079 0.53599 0.54465 0.0
C4528 C 0.90115 0.92363 0.52199 0.0
C4529 C 0.88643 0.93262 0.53663 0.0
C4530 C 0.92346 0.93621 0.5237 0.0
C4531 C 0.93113 0.95817 0.5406 0.0
C4532 C 0.91644 0.96662 0.55619 0.0
C4533 C 0.89417 0.95385 0.55384 0.0
C4534 C 0.93848 0.92668 0.50658 0.0
C4535 C 0.92388 0.98987 0.57445 0.0
C4536 C 0.9936 0.98412 0.55314 0.0
C4537 C 0.99684 1.00132 0.53921 0.0
C4538 C 0.97222 0.97025 0.55422 0.0
C4539 C 0.95386 0.97332 0.54054 0.0
C4540 C 0.95721 0.99081 0.52647 0.0
C4541 C 0.97868 0.00471 0.52611 0.0
C4542 C 0.9693 0.95213 0.56973 0.0
C4543 C 0.93825 0.99432 0.51119 0.0
H4544 H 0.89493 0.90742 0.5084 0.0
H4545 H 0.88258 0.96094 0.56485 0.0
H4546 H 0.94411 0.93966 0.4953 0.0
H4547 H 0.95348 0.9246 0.51643 0.0
H4548 H 0.93011 0.90909 0.4949 0.0
H4549 H 0.91154 0.99213 0.58738 0.0
H4550 H 0.93999 0.99077 0.58426 0.0
H4551 H 0.92632 0.00517 0.56544 0.0
H4552 H 0.00782 0.98136 0.56294 0.0
H4553 H 0.9814 0.01773 0.51496 0.0
H4554 H 0.96287 0.93379 0.55866 0.0
H4555 H 0.9569 0.9555 0.58226 0.0
H4556 H 0.98508 0.95267 0.58003 0.0
H4557 H 0.93115 0.97759 0.49767 0.0
H4558 H 0.94351 0.00924 0.50194 0.0
H4559 H 0.92483 0.99811 0.52211 0.0
C4560 C 0.87919 0.13884 0.28309 0.0
C4561 C 0.89991 0.13866 0.27392 0.0
C4562 C 0.86789 0.15794 0.28287 0.0
C4563 C 0.87641 0.17781 0.27226 0.0
C4564 C 0.89732 0.1777 0.263 0.0
C4565 C 0.90869 0.15888 0.26431 0.0
C4566 C 0.84647 0.1567 0.29407 0.0
C4567 C 0.90788 0.19772 0.25146 0.0
C4568 C 0.8371 0.2139 0.2465 0.0
C4569 C 0.83918 0.2354 0.26376 0.0
C4570 C 0.84797 0.19521 0.24957 0.0
C4571 C 0.86324 0.19774 0.26984 0.0
C4572 C 0.86595 0.21977 0.28718 0.0
C4573 C 0.85389 0.23772 0.28419 0.0
C4574 C 0.84322 0.17253 0.23057 0.0
C4575 C 0.88199 0.22469 0.30903 0.0
H4576 H 0.87176 0.12401 0.29091 0.0
H4577 H 0.92448 0.15976 0.25707 0.0
H4578 H 0.84654 0.17429 0.30564 0.0
H4579 H 0.83245 0.15255 0.28001 0.0
H4580 H 0.84351 0.14274 0.30479 0.0
H4581 H 0.923 0.19453 0.24329 0.0
H4582 H 0.89592 0.19988 0.23758 0.0
H4583 H 0.91246 0.21487 0.26489 0.0
H4584 H 0.82674 0.21156 0.23014 0.0
H4585 H 0.8568 0.25421 0.29757 0.0
H4586 H 0.83755 0.15675 0.23851 0.0
H4587 H 0.85865 0.17055 0.22246 0.0
H4588 H 0.83033 0.17234 0.21643 0.0
H4589 H 0.8755 0.21224 0.32055 0.0
H4590 H 0.88468 0.24342 0.31936 0.0
H4591 H 0.89822 0.22139 0.30416 0.0
C4592 C 0.70117 0.10495 0.99991 0.0
C4593 C 0.71526 0.09444 0.01162 0.0
C4594 C 0.67855 0.09917 0.00163 0.0
C4595 C 0.67014 0.08249 0.01541 0.0
C4596 C 0.68407 0.07035 0.02573 0.0
C4597 C 0.70677 0.07643 0.02357 0.0
C4598 C 0.66391 0.11197 0.9899 0.0
C4599 C 0.67514 0.0519 0.03984 0.0
C4600 C 0.61663 0.09217 0.03784 0.0
C4601 C 0.60155 0.07453 0.02136 0.0
C4602 C 0.63937 0.09373 0.0373 0.0
C4603 C 0.64669 0.07824 0.01894 0.0
C4604 C 0.63147 0.06112 0.00173 0.0
C4605 C 0.60909 0.05957 0.0032 0.0
C4606 C 0.6556 0.11211 0.05594 0.0
C4607 C 0.63878 0.0452 0.98122 0.0
H4608 H 0.70806 0.11872 0.99048 0.0
H4609 H 0.71796 0.06844 0.03257 0.0
H4610 H 0.64974 0.09885 0.97862 0.0
H4611 H 0.65695 0.1235 0.00367 0.0
H4612 H 0.67307 0.12342 0.97874 0.0
H4613 H 0.68855 0.04651 0.04935 0.0
H4614 H 0.66458 0.05901 0.0529 0.0
H4615 H 0.66453 0.03571 0.02782 0.0
H4616 H 0.61071 0.10455 0.05099 0.0
H4617 H 0.59741 0.0466 0.98988 0.0
H4618 H 0.66647 0.12511 0.04749 0.0
H4619 H 0.66642 0.1031 0.06497 0.0
H4620 H 0.64715 0.12215 0.06947 0.0
H4621 H 0.64826 0.05631 0.97002 0.0
H4622 H 0.62456 0.03222 0.96978 0.0
H4623 H 0.64998 0.03513 0.98794 0.0
C4624 C 0.24579 0.47073 0.2205 0.0
C4625 C 0.22707 0.47546 0.23076 0.0
C4626 C 0.25994 0.46031 0.23212 0.0
C4627 C 0.25533 0.4558 0.25465 0.0
C4628 C 0.23583 0.45964 0.26448 0.0
C4629 C 0.22148 0.46881 0.25192 0.0
C4630 C 0.27985 0.45456 0.2206 0.0
C4631 C 0.23085 0.45562 0.28886 0.0
C4632 C 0.27797 0.41218 0.28086 0.0
C4633 C 0.29645 0.4272 0.29584 0.0
C4634 C 0.26538 0.42121 0.26611 0.0
C4635 C 0.27035 0.4461 0.26778 0.0
C4636 C 0.28821 0.4617 0.28349 0.0
C4637 C 0.30142 0.45192 0.29725 0.0
C4638 C 0.24642 0.40422 0.24926 0.0
C4639 C 0.29306 0.48856 0.28591 0.0
H4640 H 0.24977 0.47611 0.20406 0.0
H4641 H 0.20705 0.47305 0.25988 0.0
H4642 H 0.29517 0.46241 0.23293 0.0
H4643 H 0.27783 0.43481 0.21629 0.0
H4644 H 0.28201 0.46126 0.20401 0.0
H4645 H 0.21496 0.45994 0.29383 0.0
H4646 H 0.22997 0.4367 0.28971 0.0
H4647 H 0.2444 0.46704 0.30228 0.0
H4648 H 0.27333 0.39313 0.28051 0.0
H4649 H 0.31549 0.46347 0.30899 0.0
H4650 H 0.24607 0.40889 0.2316 0.0
H4651 H 0.2304 0.40562 0.25626 0.0
H4652 H 0.24761 0.38528 0.24681 0.0
H4653 H 0.297 0.49311 0.26867 0.0
H4654 H 0.30716 0.49818 0.29951 0.0
H4655 H 0.27818 0.49521 0.29081 0.0
C4656 C 0.24249 0.4054 0.01314 0.0
C4657 C 0.2545 0.41062 0.03547 0.0
C4658 C 0.22589 0.41725 0.00885 0.0
C4659 C 0.22073 0.43412 0.02759 0.0
C4660 C 0.23164 0.43796 0.05066 0.0
C4661 C 0.24881 0.42654 0.05423 0.0
C4662 C 0.2151 0.41303 0.98387 0.0
C4663 C 0.22576 0.45483 0.07132 0.0
C4664 C 0.20319 0.48618 0.00871 0.0
C4665 C 0.18 0.47892 0.00693 0.0
C4666 C 0.21653 0.47206 0.01613 0.0
C4667 C 0.2065 0.45017 0.02221 0.0
C4668 C 0.18312 0.44322 0.02158 0.0
C4669 C 0.17011 0.45765 0.01383 0.0
C4670 C 0.24141 0.48023 0.01666 0.0
C4671 C 0.17178 0.42016 0.02819 0.0
H4672 H 0.24703 0.39313 0.99863 0.0
H4673 H 0.25797 0.43026 0.07157 0.0
H4674 H 0.19682 0.40958 0.98365 0.0
H4675 H 0.22073 0.42937 0.97675 0.0
H4676 H 0.2193 0.39767 0.97187 0.0
H4677 H 0.23475 0.45463 0.08838 0.0
H4678 H 0.22978 0.47342 0.06845 0.0
H4679 H 0.20766 0.44981 0.0727 0.0
H4680 H 0.21096 0.50285 0.00393 0.0
H4681 H 0.15219 0.45184 0.01242 0.0
H4682 H 0.24766 0.46685 0.00411 0.0
H4683 H 0.24948 0.48155 0.03459 0.0
H4684 H 0.2466 0.49794 0.01182 0.0
H4685 H 0.17221 0.40473 0.01371 0.0
H4686 H 0.15418 0.41959 0.03111 0.0
H4687 H 0.18052 0.41777 0.04446 0.0
C4688 C 0.90763 0.9689 0.27931 0.0
C4689 C 0.89999 0.98506 0.26759 0.0
C4690 C 0.89453 0.9457 0.27956 0.0
C4691 C 0.87299 0.93716 0.267 0.0
C4692 C 0.86506 0.95335 0.25508 0.0
C4693 C 0.87833 0.97698 0.25583 0.0
C4694 C 0.90417 0.93015 0.29312 0.0
C4695 C 0.84265 0.9454 0.24087 0.0
C4696 C 0.85161 0.86735 0.24985 0.0
C4697 C 0.83571 0.86229 0.26571 0.0
C4698 C 0.86292 0.89129 0.24939 0.0
C4699 C 0.85933 0.91131 0.26595 0.0
C4700 C 0.84345 0.90619 0.28226 0.0
C4701 C 0.83169 0.88208 0.28165 0.0
C4702 C 0.87896 0.89506 0.23112 0.0
C4703 C 0.83964 0.92614 0.30126 0.0
H4704 H 0.92422 0.97446 0.28849 0.0
H4705 H 0.87205 0.98873 0.24634 0.0
H4706 H 0.89154 0.92076 0.30303 0.0
H4707 H 0.90977 0.9163 0.28052 0.0
H4708 H 0.91864 0.94075 0.30583 0.0
H4709 H 0.83942 0.95888 0.23092 0.0
H4710 H 0.84138 0.92814 0.22813 0.0
H4711 H 0.82949 0.94226 0.25285 0.0
H4712 H 0.85516 0.85243 0.23752 0.0
H4713 H 0.81991 0.87866 0.29441 0.0
H4714 H 0.89616 0.90112 0.23991 0.0
H4715 H 0.87585 0.90929 0.22216 0.0
H4716 H 0.87774 0.87839 0.2175 0.0
H4717 H 0.85499 0.93386 0.31362 0.0
H4718 H 0.82583 0.91981 0.31158 0.0
H4719 H 0.83594 0.94079 0.29338 0.0
C4720 C 0.72464 0.13152 0.76748 0.0
C4721 C 0.73307 0.11389 0.7535 0.0
C4722 C 0.73862 0.1537 0.77776 0.0
C4723 C 0.76094 0.15815 0.77264 0.0
C4724 C 0.77026 0.13915 0.76251 0.0
C4725 C 0.756 0.11691 0.75277 0.0
C4726 C 0.7286 0.17354 0.79003 0.0
C4727 C 0.7944 0.14338 0.75828 0.0
C4728 C 0.76364 0.21037 0.74535 0.0
C4729 C 0.77574 0.22871 0.7633 0.0
C4730 C 0.762 0.18671 0.74672 0.0
C4731 C 0.77016 0.18176 0.76814 0.0
C4732 C 0.78258 0.20036 0.78644 0.0
C4733 C 0.78566 0.22381 0.78351 0.0
C4734 C 0.74994 0.16721 0.72592 0.0
C4735 C 0.79111 0.19608 0.80974 0.0
H4736 H 0.70701 0.12852 0.76922 0.0
H4737 H 0.76258 0.10267 0.74291 0.0
H4738 H 0.74043 0.18595 0.80458 0.0
H4739 H 0.72461 0.18404 0.77706 0.0
H4740 H 0.71302 0.16626 0.79736 0.0
H4741 H 0.80005 0.12641 0.75547 0.0
H4742 H 0.79681 0.15093 0.74221 0.0
H4743 H 0.8049 0.1565 0.77342 0.0
H4744 H 0.75507 0.21436 0.73052 0.0
H4745 H 0.79483 0.2384 0.79759 0.0
H4746 H 0.73322 0.15896 0.73021 0.0
H4747 H 0.75917 0.15298 0.72178 0.0
H4748 H 0.74784 0.17428 0.70971 0.0
H4749 H 0.77948 0.19987 0.82308 0.0
H4750 H 0.80749 0.20855 0.81643 0.0
H4751 H 0.79265 0.17737 0.80844 0.0
loop_
_geom_bond_atom_site_label_1
_geom_bond_atom_site_label_2
_geom_bond_distance
_geom_bond_site_symmetry_2
_ccdc_geom_bond_type
C0 O1 1.306 . S
C0 O3 1.160 . S
O1 C0 1.306 . S
O1 Cd2 2.228 . S
Cd2 O1 2.228 . S
Cd2 O6 2.273 . S
Cd2 O10 2.277 . S
O3 C0 1.160 . S
O3 Cd4 2.203 . S
Cd4 O3 2.203 . S
Cd4 O6 2.411 . S
Cd4 O7 2.333 . S
Cd4 O8 2.352 . S
Cd4 O12 2.277 . S
Cd4 O13 2.356 . S
C5 O10 1.209 . S
C5 O12 1.226 . S
O6 Cd2 2.273 . S
O6 Cd4 2.411 . S
O6 C9 1.320 . S
O7 Cd4 2.333 . S
O7 C9 1.214 . S
O8 Cd4 2.352 . S
O8 C11 1.258 . S
C9 O6 1.320 . S
C9 O7 1.214 . S
O10 Cd2 2.277 . S
O10 C5 1.209 . S
C11 O8 1.258 . S
C11 O13 1.282 . S
O12 Cd4 2.277 . S
O12 C5 1.226 . S
O13 Cd4 2.356 . S
O13 C11 1.282 . S
C14 O15 1.306 . S
C14 O17 1.160 . S
O15 C14 1.306 . S
O15 Cd16 2.228 1_655 S
Cd16 O15 2.228 1_455 S
Cd16 O20 2.273 . S
Cd16 O24 2.277 1_455 S
O17 C14 1.160 . S
O17 Cd18 2.203 1_655 S
Cd18 O17 2.203 1_455 S
Cd18 O20 2.411 . S
Cd18 O21 2.333 . S
Cd18 O22 2.352 . S
Cd18 O26 2.277 1_455 S
Cd18 O27 2.356 . S
C19 O24 1.209 . S
C19 O26 1.226 . S
O20 Cd16 2.273 . S
O20 Cd18 2.411 . S
O20 C23 1.320 . S
O21 Cd18 2.333 . S
O21 C23 1.214 . S
O22 Cd18 2.352 . S
O22 C25 1.258 . S
C23 O20 1.320 . S
C23 O21 1.214 . S
O24 Cd16 2.277 1_655 S
O24 C19 1.209 . S
C25 O22 1.258 . S
C25 O27 1.282 . S
O26 Cd18 2.277 1_655 S
O26 C19 1.226 . S
O27 Cd18 2.356 . S
O27 C25 1.282 . S
C28 O29 1.306 . S
C28 O31 1.160 . S
O29 C28 1.306 . S
O29 Cd30 2.228 . S
Cd30 O29 2.228 . S
Cd30 O34 2.273 . S
Cd30 O38 2.277 . S
O31 C28 1.160 . S
O31 Cd32 2.203 . S
Cd32 O31 2.203 . S
Cd32 O34 2.411 . S
Cd32 O35 2.333 . S
Cd32 O36 2.352 . S
Cd32 O40 2.277 . S
Cd32 O41 2.356 . S
C33 O38 1.209 . S
C33 O40 1.226 . S
O34 Cd30 2.273 . S
O34 Cd32 2.411 . S
O34 C37 1.320 . S
O35 Cd32 2.333 . S
O35 C37 1.214 . S
O36 Cd32 2.352 . S
O36 C39 1.258 . S
C37 O34 1.320 . S
C37 O35 1.214 . S
O38 Cd30 2.277 . S
O38 C33 1.209 . S
C39 O36 1.258 . S
C39 O41 1.282 . S
O40 Cd32 2.277 . S
O40 C33 1.226 . S
O41 Cd32 2.356 . S
O41 C39 1.282 . S
C42 O43 1.306 . S
C42 O45 1.160 . S
O43 C42 1.306 . S
O43 Cd44 2.228 . S
Cd44 O43 2.228 . S
Cd44 O48 2.273 . S
Cd44 O52 2.277 . S
O45 C42 1.160 . S
O45 Cd46 2.203 . S
Cd46 O45 2.203 . S
Cd46 O48 2.411 . S
Cd46 O49 2.333 . S
Cd46 O50 2.352 . S
Cd46 O54 2.277 . S
Cd46 O55 2.356 . S
C47 O52 1.209 . S
C47 O54 1.226 . S
O48 Cd44 2.273 . S
O48 Cd46 2.411 . S
O48 C51 1.320 . S
O49 Cd46 2.333 . S
O49 C51 1.214 . S
O50 Cd46 2.352 . S
O50 C53 1.258 . S
C51 O48 1.320 . S
C51 O49 1.214 . S
O52 Cd44 2.277 . S
O52 C47 1.209 . S
C53 O50 1.258 . S
C53 O55 1.282 . S
O54 Cd46 2.277 . S
O54 C47 1.226 . S
O55 Cd46 2.356 . S
O55 C53 1.282 . S
C56 O57 1.306 . S
C56 O59 1.160 . S
O57 C56 1.306 . S
O57 Cd58 2.228 . S
Cd58 O57 2.228 . S
Cd58 O62 2.273 . S
Cd58 O66 2.277 . S
O59 C56 1.160 . S
O59 Cd60 2.203 . S
Cd60 O59 2.203 . S
Cd60 O62 2.411 . S
Cd60 O63 2.333 . S
Cd60 O64 2.352 . S
Cd60 O68 2.277 . S
Cd60 O69 2.356 . S
C61 O66 1.209 . S
C61 O68 1.226 . S
O62 Cd58 2.273 . S
O62 Cd60 2.411 . S
O62 C65 1.320 . S
O63 Cd60 2.333 . S
O63 C65 1.214 . S
O64 Cd60 2.352 . S
O64 C67 1.258 . S
C65 O62 1.320 . S
C65 O63 1.214 . S
O66 Cd58 2.277 . S
O66 C61 1.209 . S
C67 O64 1.258 . S
C67 O69 1.282 . S
O68 Cd60 2.277 . S
O68 C61 1.226 . S
O69 Cd60 2.356 . S
O69 C67 1.282 . S
C70 O71 1.306 . S
C70 O73 1.160 . S
O71 C70 1.306 . S
O71 Cd72 2.228 . S
Cd72 O71 2.228 . S
Cd72 O76 2.273 . S
Cd72 O80 2.277 . S
O73 C70 1.160 . S
O73 Cd74 2.203 . S
Cd74 O73 2.203 . S
Cd74 O76 2.411 . S
Cd74 O77 2.333 . S
Cd74 O78 2.352 . S
Cd74 O82 2.277 . S
Cd74 O83 2.356 . S
C75 O80 1.209 . S
C75 O82 1.226 . S
O76 Cd72 2.273 . S
O76 Cd74 2.411 . S
O76 C79 1.320 . S
O77 Cd74 2.333 . S
O77 C79 1.214 . S
O78 Cd74 2.352 . S
O78 C81 1.258 . S
C79 O76 1.320 . S
C79 O77 1.214 . S
O80 Cd72 2.277 . S
O80 C75 1.209 . S
C81 O78 1.258 . S
C81 O83 1.282 . S
O82 Cd74 2.277 . S
O82 C75 1.226 . S
O83 Cd74 2.356 . S
O83 C81 1.282 . S
C84 O85 1.306 . S
C84 O87 1.160 . S
O85 C84 1.306 . S
O85 Cd86 2.228 . S
Cd86 O85 2.228 . S
Cd86 O90 2.273 . S
Cd86 O94 2.277 . S
O87 C84 1.160 . S
O87 Cd88 2.203 . S
Cd88 O87 2.203 . S
Cd88 O90 2.411 . S
Cd88 O91 2.333 . S
Cd88 O92 2.352 . S
Cd88 O96 2.277 . S
Cd88 O97 2.356 . S
C89 O94 1.209 . S
C89 O96 1.226 . S
O90 Cd86 2.273 . S
O90 Cd88 2.411 . S
O90 C93 1.320 . S
O91 Cd88 2.333 . S
O91 C93 1.214 . S
O92 Cd88 2.352 . S
O92 C95 1.258 . S
C93 O90 1.320 . S
C93 O91 1.214 . S
O94 Cd86 2.277 . S
O94 C89 1.209 . S
C95 O92 1.258 . S
C95 O97 1.282 . S
O96 Cd88 2.277 . S
O96 C89 1.226 . S
O97 Cd88 2.356 . S
O97 C95 1.282 . S
C98 O99 1.306 . S
C98 O101 1.160 . S
O99 C98 1.306 . S
O99 Cd100 2.228 1_655 S
Cd100 O99 2.228 1_455 S
Cd100 O104 2.273 . S
Cd100 O108 2.277 . S
O101 C98 1.160 . S
O101 Cd102 2.203 1_655 S
Cd102 O101 2.203 1_455 S
Cd102 O104 2.411 . S
Cd102 O105 2.333 . S
Cd102 O106 2.352 . S
Cd102 O110 2.277 . S
Cd102 O111 2.356 . S
C103 O108 1.209 . S
C103 O110 1.226 . S
O104 Cd100 2.273 . S
O104 Cd102 2.411 . S
O104 C107 1.320 . S
O105 Cd102 2.333 . S
O105 C107 1.214 . S
O106 Cd102 2.352 . S
O106 C109 1.258 . S
C107 O104 1.320 . S
C107 O105 1.214 . S
O108 Cd100 2.277 . S
O108 C103 1.209 . S
C109 O106 1.258 . S
C109 O111 1.282 . S
O110 Cd102 2.277 . S
O110 C103 1.226 . S
O111 Cd102 2.356 . S
O111 C109 1.282 . S
C112 O113 1.306 . S
C112 O115 1.160 . S
O113 C112 1.306 . S
O113 Cd114 2.228 1_545 S
Cd114 O113 2.228 1_565 S
Cd114 O118 2.273 1_565 S
Cd114 O122 2.277 . S
O115 C112 1.160 . S
O115 Cd116 2.203 . S
Cd116 O115 2.203 . S
Cd116 O118 2.411 . S
Cd116 O119 2.333 . S
Cd116 O120 2.352 . S
Cd116 O124 2.277 1_545 S
Cd116 O125 2.356 . S
C117 O122 1.209 . S
C117 O124 1.226 . S
O118 Cd114 2.273 1_545 S
O118 Cd116 2.411 . S
O118 C121 1.320 . S
O119 Cd116 2.333 . S
O119 C121 1.214 . S
O120 Cd116 2.352 . S
O120 C123 1.258 . S
C121 O118 1.320 . S
C121 O119 1.214 . S
O122 Cd114 2.277 . S
O122 C117 1.209 . S
C123 O120 1.258 . S
C123 O125 1.282 . S
O124 Cd116 2.277 1_565 S
O124 C117 1.226 . S
O125 Cd116 2.356 . S
O125 C123 1.282 . S
C126 O127 1.306 . S
C126 O129 1.160 . S
O127 C126 1.306 . S
O127 Cd128 2.228 . S
Cd128 O127 2.228 . S
Cd128 O132 2.273 . S
Cd128 O136 2.277 . S
O129 C126 1.160 . S
O129 Cd130 2.203 . S
Cd130 O129 2.203 . S
Cd130 O132 2.411 . S
Cd130 O133 2.333 . S
Cd130 O134 2.352 . S
Cd130 O138 2.277 . S
Cd130 O139 2.356 . S
C131 O136 1.209 . S
C131 O138 1.226 . S
O132 Cd128 2.273 . S
O132 Cd130 2.411 . S
O132 C135 1.320 . S
O133 Cd130 2.333 . S
O133 C135 1.214 . S
O134 Cd130 2.352 . S
O134 C137 1.258 . S
C135 O132 1.320 . S
C135 O133 1.214 . S
O136 Cd128 2.277 . S
O136 C131 1.209 . S
C137 O134 1.258 . S
C137 O139 1.282 . S
O138 Cd130 2.277 . S
O138 C131 1.226 . S
O139 Cd130 2.356 . S
O139 C137 1.282 . S
C140 O141 1.306 . S
C140 O143 1.160 . S
O141 C140 1.306 . S
O141 Cd142 2.228 . S
Cd142 O141 2.228 . S
Cd142 O146 2.273 1_545 S
Cd142 O150 2.277 . S
O143 C140 1.160 . S
O143 Cd144 2.203 1_545 S
Cd144 O143 2.203 1_565 S
Cd144 O146 2.411 . S
Cd144 O147 2.333 . S
Cd144 O148 2.352 . S
Cd144 O152 2.277 1_565 S
Cd144 O153 2.356 . S
C145 O150 1.209 . S
C145 O152 1.226 . S
O146 Cd142 2.273 1_565 S
O146 Cd144 2.411 . S
O146 C149 1.320 . S
O147 Cd144 2.333 . S
O147 C149 1.214 . S
O148 Cd144 2.352 . S
O148 C151 1.258 . S
C149 O146 1.320 . S
C149 O147 1.214 . S
O150 Cd142 2.277 . S
O150 C145 1.209 . S
C151 O148 1.258 . S
C151 O153 1.282 . S
O152 Cd144 2.277 1_545 S
O152 C145 1.226 . S
O153 Cd144 2.356 . S
O153 C151 1.282 . S
C154 O155 1.306 . S
C154 O157 1.160 . S
O155 C154 1.306 . S
O155 Cd156 2.228 1_554 S
Cd156 O155 2.228 1_556 S
Cd156 O160 2.273 1_556 S
Cd156 O164 2.277 . S
O157 C154 1.160 . S
O157 Cd158 2.203 . S
Cd158 O157 2.203 . S
Cd158 O160 2.411 . S
Cd158 O161 2.333 . S
Cd158 O162 2.352 . S
Cd158 O166 2.277 1_554 S
Cd158 O167 2.356 . S
C159 O164 1.209 . S
C159 O166 1.226 . S
O160 Cd156 2.273 1_554 S
O160 Cd158 2.411 . S
O160 C163 1.320 . S
O161 Cd158 2.333 . S
O161 C163 1.214 . S
O162 Cd158 2.352 . S
O162 C165 1.258 . S
C163 O160 1.320 . S
C163 O161 1.214 . S
O164 Cd156 2.277 . S
O164 C159 1.209 . S
C165 O162 1.258 . S
C165 O167 1.282 . S
O166 Cd158 2.277 1_556 S
O166 C159 1.226 . S
O167 Cd158 2.356 . S
O167 C165 1.282 . S
C168 O169 1.306 . S
C168 O171 1.160 . S
O169 C168 1.306 . S
O169 Cd170 2.228 . S
Cd170 O169 2.228 . S
Cd170 O174 2.273 . S
Cd170 O178 2.277 1_554 S
O171 C168 1.160 . S
O171 Cd172 2.203 . S
Cd172 O171 2.203 . S
Cd172 O174 2.411 . S
Cd172 O175 2.333 . S
Cd172 O176 2.352 . S
Cd172 O180 2.277 . S
Cd172 O181 2.356 . S
C173 O178 1.209 . S
C173 O180 1.226 1_556 S
O174 Cd170 2.273 . S
O174 Cd172 2.411 . S
O174 C177 1.320 . S
O175 Cd172 2.333 . S
O175 C177 1.214 . S
O176 Cd172 2.352 . S
O176 C179 1.258 . S
C177 O174 1.320 . S
C177 O175 1.214 . S
O178 Cd170 2.277 1_556 S
O178 C173 1.209 . S
C179 O176 1.258 . S
C179 O181 1.282 . S
O180 Cd172 2.277 . S
O180 C173 1.226 1_554 S
O181 Cd172 2.356 . S
O181 C179 1.282 . S
C182 O183 1.306 . S
C182 O185 1.160 . S
O183 C182 1.306 . S
O183 Cd184 2.228 . S
Cd184 O183 2.228 . S
Cd184 O188 2.273 . S
Cd184 O192 2.277 . S
O185 C182 1.160 . S
O185 Cd186 2.203 . S
Cd186 O185 2.203 . S
Cd186 O188 2.411 . S
Cd186 O189 2.333 . S
Cd186 O190 2.352 1_554 S
Cd186 O194 2.277 . S
Cd186 O195 2.356 . S
C187 O192 1.209 . S
C187 O194 1.226 . S
O188 Cd184 2.273 . S
O188 Cd186 2.411 . S
O188 C191 1.320 . S
O189 Cd186 2.333 . S
O189 C191 1.214 . S
O190 Cd186 2.352 1_556 S
O190 C193 1.258 . S
C191 O188 1.320 . S
C191 O189 1.214 . S
O192 Cd184 2.277 . S
O192 C187 1.209 . S
C193 O190 1.258 . S
C193 O195 1.282 1_556 S
O194 Cd186 2.277 . S
O194 C187 1.226 . S
O195 Cd186 2.356 . S
O195 C193 1.282 1_554 S
C196 O197 1.306 . S
C196 O199 1.160 . S
O197 C196 1.306 . S
O197 Cd198 2.228 . S
Cd198 O197 2.228 . S
Cd198 O202 2.273 . S
Cd198 O206 2.277 . S
O199 C196 1.160 . S
O199 Cd200 2.203 . S
Cd200 O199 2.203 . S
Cd200 O202 2.411 . S
Cd200 O203 2.333 . S
Cd200 O204 2.352 . S
Cd200 O208 2.277 . S
Cd200 O209 2.356 . S
C201 O206 1.209 . S
C201 O208 1.226 . S
O202 Cd198 2.273 . S
O202 Cd200 2.411 . S
O202 C205 1.320 . S
O203 Cd200 2.333 . S
O203 C205 1.214 . S
O204 Cd200 2.352 . S
O204 C207 1.258 . S
C205 O202 1.320 . S
C205 O203 1.214 . S
O206 Cd198 2.277 . S
O206 C201 1.209 . S
C207 O204 1.258 . S
C207 O209 1.282 . S
O208 Cd200 2.277 . S
O208 C201 1.226 . S
O209 Cd200 2.356 . S
O209 C207 1.282 . S
C210 O211 1.306 . S
C210 O213 1.160 . S
O211 C210 1.306 . S
O211 Cd212 2.228 . S
Cd212 O211 2.228 . S
Cd212 O216 2.273 . S
Cd212 O220 2.277 . S
O213 C210 1.160 . S
O213 Cd214 2.203 . S
Cd214 O213 2.203 . S
Cd214 O216 2.411 . S
Cd214 O217 2.333 . S
Cd214 O218 2.352 . S
Cd214 O222 2.277 . S
Cd214 O223 2.356 . S
C215 O220 1.209 . S
C215 O222 1.226 . S
O216 Cd212 2.273 . S
O216 Cd214 2.411 . S
O216 C219 1.320 . S
O217 Cd214 2.333 . S
O217 C219 1.214 . S
O218 Cd214 2.352 . S
O218 C221 1.258 . S
C219 O216 1.320 . S
C219 O217 1.214 . S
O220 Cd212 2.277 . S
O220 C215 1.209 . S
C221 O218 1.258 . S
C221 O223 1.282 . S
O222 Cd214 2.277 . S
O222 C215 1.226 . S
O223 Cd214 2.356 . S
O223 C221 1.282 . S
C224 O225 1.306 . S
C224 O227 1.160 . S
O225 C224 1.306 . S
O225 Cd226 2.228 . S
Cd226 O225 2.228 . S
Cd226 O230 2.273 . S
Cd226 O234 2.277 . S
O227 C224 1.160 . S
O227 Cd228 2.203 . S
Cd228 O227 2.203 . S
Cd228 O230 2.411 . S
Cd228 O231 2.333 . S
Cd228 O232 2.352 . S
Cd228 O236 2.277 . S
Cd228 O237 2.356 . S
C229 O234 1.209 . S
C229 O236 1.226 . S
O230 Cd226 2.273 . S
O230 Cd228 2.411 . S
O230 C233 1.320 . S
O231 Cd228 2.333 . S
O231 C233 1.214 . S
O232 Cd228 2.352 . S
O232 C235 1.258 . S
C233 O230 1.320 . S
C233 O231 1.214 . S
O234 Cd226 2.277 . S
O234 C229 1.209 . S
C235 O232 1.258 . S
C235 O237 1.282 . S
O236 Cd228 2.277 . S
O236 C229 1.226 . S
O237 Cd228 2.356 . S
O237 C235 1.282 . S
C238 O239 1.306 . S
C238 O241 1.160 . S
O239 C238 1.306 . S
O239 Cd240 2.228 . S
Cd240 O239 2.228 . S
Cd240 O244 2.273 . S
Cd240 O248 2.277 . S
O241 C238 1.160 . S
O241 Cd242 2.203 . S
Cd242 O241 2.203 . S
Cd242 O244 2.411 . S
Cd242 O245 2.333 . S
Cd242 O246 2.352 . S
Cd242 O250 2.277 . S
Cd242 O251 2.356 . S
C243 O248 1.209 . S
C243 O250 1.226 . S
O244 Cd240 2.273 . S
O244 Cd242 2.411 . S
O244 C247 1.320 . S
O245 Cd242 2.333 . S
O245 C247 1.214 . S
O246 Cd242 2.352 . S
O246 C249 1.258 . S
C247 O244 1.320 . S
C247 O245 1.214 . S
O248 Cd240 2.277 . S
O248 C243 1.209 . S
C249 O246 1.258 . S
C249 O251 1.282 . S
O250 Cd242 2.277 . S
O250 C243 1.226 . S
O251 Cd242 2.356 . S
O251 C249 1.282 . S
C252 O253 1.306 . S
C252 O255 1.160 . S
O253 C252 1.306 . S
O253 Cd254 2.228 . S
Cd254 O253 2.228 . S
Cd254 O258 2.273 . S
Cd254 O262 2.277 . S
O255 C252 1.160 . S
O255 Cd256 2.203 . S
Cd256 O255 2.203 . S
Cd256 O258 2.411 . S
Cd256 O259 2.333 . S
Cd256 O260 2.352 . S
Cd256 O264 2.277 . S
Cd256 O265 2.356 . S
C257 O262 1.209 . S
C257 O264 1.226 . S
O258 Cd254 2.273 . S
O258 Cd256 2.411 . S
O258 C261 1.320 . S
O259 Cd256 2.333 . S
O259 C261 1.214 . S
O260 Cd256 2.352 . S
O260 C263 1.258 . S
C261 O258 1.320 . S
C261 O259 1.214 . S
O262 Cd254 2.277 . S
O262 C257 1.209 . S
C263 O260 1.258 . S
C263 O265 1.282 . S
O264 Cd256 2.277 . S
O264 C257 1.226 . S
O265 Cd256 2.356 . S
O265 C263 1.282 . S
C266 O267 1.306 . S
C266 O269 1.160 . S
O267 C266 1.306 . S
O267 Cd268 2.228 . S
Cd268 O267 2.228 . S
Cd268 O272 2.273 . S
Cd268 O276 2.277 . S
O269 C266 1.160 . S
O269 Cd270 2.203 . S
Cd270 O269 2.203 . S
Cd270 O272 2.411 . S
Cd270 O273 2.333 . S
Cd270 O274 2.352 . S
Cd270 O278 2.277 . S
Cd270 O279 2.356 . S
C271 O276 1.209 . S
C271 O278 1.226 . S
O272 Cd268 2.273 . S
O272 Cd270 2.411 . S
O272 C275 1.320 . S
O273 Cd270 2.333 . S
O273 C275 1.214 . S
O274 Cd270 2.352 . S
O274 C277 1.258 . S
C275 O272 1.320 . S
C275 O273 1.214 . S
O276 Cd268 2.277 . S
O276 C271 1.209 . S
C277 O274 1.258 . S
C277 O279 1.282 . S
O278 Cd270 2.277 . S
O278 C271 1.226 . S
O279 Cd270 2.356 . S
O279 C277 1.282 . S
C280 O281 1.306 . S
C280 O283 1.160 1_554 S
O281 C280 1.306 . S
O281 Cd282 2.228 . S
Cd282 O281 2.228 . S
Cd282 O286 2.273 1_554 S
Cd282 O290 2.277 . S
O283 C280 1.160 1_556 S
O283 Cd284 2.203 . S
Cd284 O283 2.203 . S
Cd284 O286 2.411 . S
Cd284 O287 2.333 . S
Cd284 O288 2.352 . S
Cd284 O292 2.277 1_556 S
Cd284 O293 2.356 . S
C285 O290 1.209 . S
C285 O292 1.226 . S
O286 Cd282 2.273 1_556 S
O286 Cd284 2.411 . S
O286 C289 1.320 . S
O287 Cd284 2.333 . S
O287 C289 1.214 . S
O288 Cd284 2.352 . S
O288 C291 1.258 . S
C289 O286 1.320 . S
C289 O287 1.214 . S
O290 Cd282 2.277 . S
O290 C285 1.209 . S
C291 O288 1.258 . S
C291 O293 1.282 . S
O292 Cd284 2.277 1_554 S
O292 C285 1.226 . S
O293 Cd284 2.356 . S
O293 C291 1.282 . S
C294 O295 1.306 . S
C294 O297 1.160 . S
O295 C294 1.306 . S
O295 Cd296 2.228 . S
Cd296 O295 2.228 . S
Cd296 O300 2.273 . S
Cd296 O304 2.277 . S
O297 C294 1.160 . S
O297 Cd298 2.203 . S
Cd298 O297 2.203 . S
Cd298 O300 2.411 . S
Cd298 O301 2.333 . S
Cd298 O302 2.352 . S
Cd298 O306 2.277 . S
Cd298 O307 2.356 . S
C299 O304 1.209 . S
C299 O306 1.226 . S
O300 Cd296 2.273 . S
O300 Cd298 2.411 . S
O300 C303 1.320 . S
O301 Cd298 2.333 . S
O301 C303 1.214 . S
O302 Cd298 2.352 . S
O302 C305 1.258 . S
C303 O300 1.320 . S
C303 O301 1.214 . S
O304 Cd296 2.277 . S
O304 C299 1.209 . S
C305 O302 1.258 . S
C305 O307 1.282 . S
O306 Cd298 2.277 . S
O306 C299 1.226 . S
O307 Cd298 2.356 . S
O307 C305 1.282 . S
C308 O309 1.306 . S
C308 O311 1.160 . S
O309 C308 1.306 . S
O309 Cd310 2.228 . S
Cd310 O309 2.228 . S
Cd310 O314 2.273 . S
Cd310 O318 2.277 . S
O311 C308 1.160 . S
O311 Cd312 2.203 . S
Cd312 O311 2.203 . S
Cd312 O314 2.411 . S
Cd312 O315 2.333 . S
Cd312 O316 2.352 . S
Cd312 O320 2.277 . S
Cd312 O321 2.356 . S
C313 O318 1.209 . S
C313 O320 1.226 . S
O314 Cd310 2.273 . S
O314 Cd312 2.411 . S
O314 C317 1.320 . S
O315 Cd312 2.333 . S
O315 C317 1.214 . S
O316 Cd312 2.352 . S
O316 C319 1.258 . S
C317 O314 1.320 . S
C317 O315 1.214 . S
O318 Cd310 2.277 . S
O318 C313 1.209 . S
C319 O316 1.258 . S
C319 O321 1.282 . S
O320 Cd312 2.277 . S
O320 C313 1.226 . S
O321 Cd312 2.356 . S
O321 C319 1.282 . S
C322 O323 1.306 . S
C322 O325 1.160 . S
O323 C322 1.306 . S
O323 Cd324 2.228 . S
Cd324 O323 2.228 . S
Cd324 O328 2.273 . S
Cd324 O332 2.277 . S
O325 C322 1.160 . S
O325 Cd326 2.203 . S
Cd326 O325 2.203 . S
Cd326 O328 2.411 . S
Cd326 O329 2.333 . S
Cd326 O330 2.352 . S
Cd326 O334 2.277 . S
Cd326 O335 2.356 . S
C327 O332 1.209 . S
C327 O334 1.226 . S
O328 Cd324 2.273 . S
O328 Cd326 2.411 . S
O328 C331 1.320 . S
O329 Cd326 2.333 . S
O329 C331 1.214 . S
O330 Cd326 2.352 . S
O330 C333 1.258 . S
C331 O328 1.320 . S
C331 O329 1.214 . S
O332 Cd324 2.277 . S
O332 C327 1.209 . S
C333 O330 1.258 . S
C333 O335 1.282 . S
O334 Cd326 2.277 . S
O334 C327 1.226 . S
O335 Cd326 2.356 . S
O335 C333 1.282 . S
Gd336 N367 2.661 . S
Gd336 N373 2.601 . S
Gd336 O380 2.545 . S
Gd336 O381 2.606 . S
Gd336 O383 2.429 . S
Gd336 O384 2.545 . S
Gd336 O385 2.412 . S
Gd336 O387 2.362 . S
Gd336 O388 2.324 1_554 S
Gd336 C395 2.828 . S
Gd337 N346 2.661 1_545 S
Gd337 N350 2.601 1_544 S
Gd337 O381 2.362 . S
Gd337 O382 2.324 . S
Gd337 O386 2.545 1_454 S
Gd337 O387 2.606 . S
Gd337 O389 2.429 1_554 S
Gd337 O390 2.545 . S
Gd337 O391 2.412 1_455 S
Gd337 C404 2.828 1_454 S
C338 C341 1.408 1_655 S
C338 C343 1.431 1_554 S
C338 C344 1.412 . S
C339 C342 1.437 . S
C339 C343 1.317 . S
C339 H358 0.929 . S
C340 C341 1.428 1_556 S
C340 C342 1.410 1_455 S
C340 N350 1.363 . S
C341 C338 1.408 1_455 S
C341 C340 1.428 1_554 S
C341 N346 1.359 . S
C342 C339 1.437 . S
C342 C340 1.410 1_655 S
C342 C352 1.391 . S
C343 C338 1.431 1_556 S
C343 C339 1.317 . S
C343 H354 0.930 1_556 S
C344 C338 1.412 . S
C344 C345 1.355 1_655 S
C344 H356 0.930 . S
C345 C344 1.355 1_455 S
C345 C347 1.402 . S
C345 H357 0.930 . S
N346 Gd337 2.661 1_565 S
N346 C341 1.359 . S
N346 C347 1.307 . S
C347 C345 1.402 . S
C347 N346 1.307 . S
C347 H348 0.930 . S
H348 C347 0.930 . S
C349 N350 1.334 . S
C349 C351 1.383 1_455 S
C349 H353 0.930 . S
N350 Gd337 2.601 1_566 S
N350 C340 1.363 . S
N350 C349 1.334 . S
C351 C349 1.383 1_655 S
C351 C352 1.371 . S
C351 H363 0.932 . S
C352 C342 1.391 . S
C352 C351 1.371 . S
C352 H364 0.929 . S
H353 C349 0.930 . S
H354 C343 0.930 1_554 S
H355 C372 0.930 . S
H356 C344 0.930 . S
H357 C345 0.930 . S
H358 C339 0.929 . S
H359 C377 0.930 . S
H360 C368 0.905 1_556 S
H361 C369 0.930 . S
H362 C393 0.929 . S
H363 C351 0.932 . S
H364 C352 0.929 . S
H365 C394 0.930 . S
H366 C375 0.930 . S
N367 Gd336 2.661 . S
N367 C371 1.350 . S
N367 C372 1.307 1_554 S
C368 H360 0.905 1_554 S
C368 C369 1.336 1_554 S
C368 C370 1.456 . S
C369 H361 0.930 . S
C369 C368 1.336 1_556 S
C369 C372 1.402 . S
C370 C368 1.456 . S
C370 C371 1.417 . S
C370 C394 1.431 . S
C371 N367 1.350 . S
C371 C370 1.417 . S
C371 C374 1.426 . S
C372 H355 0.930 . S
C372 N367 1.307 1_556 S
C372 C369 1.402 . S
N373 Gd336 2.601 . S
N373 C374 1.359 . S
N373 C377 1.334 . S
C374 C371 1.426 . S
C374 N373 1.359 . S
C374 C378 1.413 . S
C375 H366 0.930 . S
C375 C376 1.359 . S
C375 C377 1.394 . S
C376 C375 1.359 . S
C376 C378 1.391 . S
C376 H379 0.929 . S
C377 H359 0.930 . S
C377 N373 1.334 . S
C377 C375 1.394 . S
C378 C374 1.413 . S
C378 C376 1.391 . S
C378 C393 1.437 . S
H379 C376 0.929 . S
O380 Gd336 2.545 . S
O380 C395 1.258 . S
O381 Gd336 2.606 . S
O381 Gd337 2.362 . S
O381 C392 1.284 1_545 S
O382 Gd337 2.324 . S
O382 C402 1.254 . S
O383 Gd336 2.429 . S
O383 C402 1.268 . S
O384 Gd336 2.545 . S
O384 C392 1.250 1_545 S
O385 Gd336 2.412 . S
O385 C395 1.252 . S
O386 Gd337 2.545 1_656 S
O386 C404 1.258 . S
O387 Gd336 2.362 . S
O387 Gd337 2.606 . S
O387 C403 1.284 . S
O388 Gd336 2.324 1_556 S
O388 C411 1.254 . S
O389 Gd337 2.429 1_556 S
O389 C411 1.268 . S
O390 Gd337 2.545 . S
O390 C403 1.250 . S
O391 Gd337 2.412 1_655 S
O391 C404 1.252 1_554 S
C392 O381 1.284 1_565 S
C392 O384 1.250 1_565 S
C393 H362 0.929 . S
C393 C378 1.437 . S
C393 C394 1.317 . S
C394 H365 0.930 . S
C394 C370 1.431 . S
C394 C393 1.317 . S
C395 Gd336 2.828 . S
C395 O380 1.258 . S
C395 O385 1.252 . S
C395 C396 1.497 . S
C396 C395 1.497 . S
C396 C397 1.395 . S
C396 C398 1.380 . S
C397 C396 1.395 . S
C397 C400 1.398 . S
C397 H412 0.930 . S
C398 C396 1.380 . S
C398 C399 1.391 . S
C398 H413 0.930 . S
C399 C398 1.391 . S
C399 C401 1.387 . S
C400 C397 1.398 . S
C400 C401 1.380 . S
C400 H414 0.930 . S
C401 C399 1.387 . S
C401 C400 1.380 . S
C401 H415 0.930 . S
C402 O382 1.254 . S
C402 O383 1.268 . S
C403 O387 1.284 . S
C403 O390 1.250 . S
C404 Gd337 2.828 1_656 S
C404 O386 1.258 . S
C404 O391 1.252 1_556 S
C404 C405 1.497 . S
C405 C404 1.497 . S
C405 C406 1.395 . S
C405 C407 1.380 1_556 S
C406 C405 1.395 . S
C406 C409 1.398 . S
C406 H416 0.930 . S
C407 C405 1.380 1_554 S
C407 C408 1.390 . S
C407 H417 0.930 . S
C408 C407 1.390 . S
C408 C410 1.390 1_554 S
C409 C406 1.398 . S
C409 C410 1.380 . S
C409 H418 0.930 . S
C410 C408 1.390 1_556 S
C410 C409 1.380 . S
C410 H419 0.930 . S
C411 O388 1.254 . S
C411 O389 1.268 . S
H412 C397 0.930 . S
H413 C398 0.930 . S
H414 C400 0.930 . S
H415 C401 0.930 . S
H416 C406 0.930 . S
H417 C407 0.930 . S
H418 C409 0.930 . S
H419 C410 0.930 . S
Gd420 N451 2.661 . S
Gd420 N457 2.601 . S
Gd420 O464 2.545 . S
Gd420 O465 2.606 . S
Gd420 O467 2.429 . S
Gd420 O468 2.545 . S
Gd420 O469 2.412 . S
Gd420 O471 2.362 . S
Gd420 O472 2.324 . S
Gd420 C479 2.828 . S
Gd421 N430 2.661 . S
Gd421 N434 2.601 . S
Gd421 O465 2.362 . S
Gd421 O466 2.324 . S
Gd421 O470 2.545 . S
Gd421 O471 2.606 . S
Gd421 O473 2.429 . S
Gd421 O474 2.545 . S
Gd421 O475 2.412 . S
Gd421 C488 2.828 . S
C422 C425 1.417 . S
C422 C427 1.431 . S
C422 C428 1.412 . S
C423 C426 1.437 . S
C423 C427 1.317 . S
C423 H442 0.929 . S
C424 C425 1.426 . S
C424 C426 1.413 . S
C424 N434 1.359 . S
C425 C422 1.417 . S
C425 C424 1.426 . S
C425 N430 1.350 . S
C426 C423 1.437 . S
C426 C424 1.413 . S
C426 C436 1.391 . S
C427 C422 1.431 . S
C427 C423 1.317 . S
C427 H438 0.930 . S
C428 C422 1.412 . S
C428 C429 1.355 . S
C428 H440 0.930 . S
C429 C428 1.355 . S
C429 C431 1.402 . S
C429 H441 0.930 . S
N430 Gd421 2.661 . S
N430 C425 1.350 . S
N430 C431 1.307 . S
C431 C429 1.402 . S
C431 N430 1.307 . S
C431 H432 0.930 . S
H432 C431 0.930 . S
C433 N434 1.334 . S
C433 C435 1.394 . S
C433 H437 0.930 . S
N434 Gd421 2.601 . S
N434 C424 1.359 . S
N434 C433 1.334 . S
C435 C433 1.394 . S
C435 C436 1.359 . S
C435 H447 0.930 . S
C436 C426 1.391 . S
C436 C435 1.359 . S
C436 H448 0.929 . S
H437 C433 0.930 . S
H438 C427 0.930 . S
H439 C456 0.930 . S
H440 C428 0.930 . S
H441 C429 0.930 . S
H442 C423 0.929 . S
H443 C461 0.930 . S
H444 C452 0.930 . S
H445 C453 0.930 . S
H446 C477 0.929 . S
H447 C435 0.930 . S
H448 C436 0.929 . S
H449 C478 0.930 . S
H450 C459 0.930 . S
N451 Gd420 2.661 . S
N451 C455 1.350 . S
N451 C456 1.307 . S
C452 H444 0.930 . S
C452 C453 1.355 . S
C452 C454 1.412 . S
C453 H445 0.930 . S
C453 C452 1.355 . S
C453 C456 1.402 . S
C454 C452 1.412 . S
C454 C455 1.417 . S
C454 C478 1.431 . S
C455 N451 1.350 . S
C455 C454 1.417 . S
C455 C458 1.426 . S
C456 H439 0.930 . S
C456 N451 1.307 . S
C456 C453 1.402 . S
N457 Gd420 2.601 . S
N457 C458 1.359 . S
N457 C461 1.334 . S
C458 C455 1.426 . S
C458 N457 1.359 . S
C458 C462 1.413 . S
C459 H450 0.930 . S
C459 C460 1.359 . S
C459 C461 1.394 . S
C460 C459 1.359 . S
C460 C462 1.391 . S
C460 H463 0.929 . S
C461 H443 0.930 . S
C461 N457 1.334 . S
C461 C459 1.394 . S
C462 C458 1.413 . S
C462 C460 1.391 . S
C462 C477 1.437 . S
H463 C460 0.929 . S
O464 Gd420 2.545 . S
O464 C479 1.258 . S
O465 Gd420 2.606 . S
O465 Gd421 2.362 . S
O465 C476 1.284 . S
O466 Gd421 2.324 . S
O466 C486 1.254 . S
O467 Gd420 2.429 . S
O467 C486 1.268 . S
O468 Gd420 2.545 . S
O468 C476 1.250 . S
O469 Gd420 2.412 . S
O469 C479 1.252 . S
O470 Gd421 2.545 . S
O470 C488 1.258 . S
O471 Gd420 2.362 . S
O471 Gd421 2.606 . S
O471 C487 1.284 . S
O472 Gd420 2.324 . S
O472 C495 1.254 . S
O473 Gd421 2.429 . S
O473 C495 1.268 . S
O474 Gd421 2.545 . S
O474 C487 1.250 . S
O475 Gd421 2.412 . S
O475 C488 1.252 . S
C476 O465 1.284 . S
C476 O468 1.250 . S
C477 H446 0.929 . S
C477 C462 1.437 . S
C477 C478 1.317 . S
C478 H449 0.930 . S
C478 C454 1.431 . S
C478 C477 1.317 . S
C479 Gd420 2.828 . S
C479 O464 1.258 . S
C479 O469 1.252 . S
C479 C480 1.497 . S
C480 C479 1.497 . S
C480 C481 1.395 . S
C480 C482 1.380 . S
C481 C480 1.395 . S
C481 C484 1.398 . S
C481 H496 0.930 . S
C482 C480 1.380 . S
C482 C483 1.391 . S
C482 H497 0.930 . S
C483 C482 1.391 . S
C483 C485 1.387 . S
C484 C481 1.398 . S
C484 C485 1.380 . S
C484 H498 0.930 . S
C485 C483 1.387 . S
C485 C484 1.380 . S
C485 H499 0.930 . S
C486 O466 1.254 . S
C486 O467 1.268 . S
C487 O471 1.284 . S
C487 O474 1.250 . S
C488 Gd421 2.828 . S
C488 O470 1.258 . S
C488 O475 1.252 . S
C488 C489 1.497 . S
C489 C488 1.497 . S
C489 C490 1.395 . S
C489 C491 1.380 . S
C490 C489 1.395 . S
C490 C493 1.398 . S
C490 H500 0.930 . S
C491 C489 1.380 . S
C491 C492 1.391 . S
C491 H501 0.930 . S
C492 C491 1.391 . S
C492 C494 1.387 . S
C493 C490 1.398 . S
C493 C494 1.380 . S
C493 H502 0.930 . S
C494 C492 1.387 . S
C494 C493 1.380 . S
C494 H503 0.930 . S
C495 O472 1.254 . S
C495 O473 1.268 . S
H496 C481 0.930 . S
H497 C482 0.930 . S
H498 C484 0.930 . S
H499 C485 0.930 . S
H500 C490 0.930 . S
H501 C491 0.930 . S
H502 C493 0.930 . S
H503 C494 0.930 . S
Gd504 N535 2.661 1_545 S
Gd504 N541 2.601 . S
Gd504 O548 2.545 . S
Gd504 O549 2.606 . S
Gd504 O551 2.429 . S
Gd504 O552 2.545 . S
Gd504 O553 2.412 . S
Gd504 O555 2.362 . S
Gd504 O556 2.324 . S
Gd504 C563 2.828 . S
Gd505 N514 2.661 . S
Gd505 N518 2.601 . S
Gd505 O549 2.362 . S
Gd505 O550 2.324 . S
Gd505 O554 2.545 . S
Gd505 O555 2.606 . S
Gd505 O557 2.429 . S
Gd505 O558 2.545 1_545 S
Gd505 O559 2.412 . S
Gd505 C572 2.828 . S
C506 C509 1.417 . S
C506 C511 1.431 . S
C506 C512 1.412 . S
C507 C510 1.437 . S
C507 C511 1.317 . S
C507 H526 0.929 . S
C508 C509 1.426 . S
C508 C510 1.413 . S
C508 N518 1.359 . S
C509 C506 1.417 . S
C509 C508 1.426 . S
C509 N514 1.350 . S
C510 C507 1.437 . S
C510 C508 1.413 . S
C510 C520 1.391 . S
C511 C506 1.431 . S
C511 C507 1.317 . S
C511 H522 0.930 . S
C512 C506 1.412 . S
C512 C513 1.355 . S
C512 H524 0.930 . S
C513 C512 1.355 . S
C513 C515 1.402 . S
C513 H525 0.930 . S
N514 Gd505 2.661 . S
N514 C509 1.350 . S
N514 C515 1.307 . S
C515 C513 1.402 . S
C515 N514 1.307 . S
C515 H516 0.930 . S
H516 C515 0.930 . S
C517 N518 1.334 . S
C517 C519 1.394 . S
C517 H521 0.930 . S
N518 Gd505 2.601 . S
N518 C508 1.359 . S
N518 C517 1.334 . S
C519 C517 1.394 . S
C519 C520 1.359 . S
C519 H531 0.930 . S
C520 C510 1.391 . S
C520 C519 1.359 . S
C520 H532 0.929 . S
H521 C517 0.930 . S
H522 C511 0.930 . S
H523 C540 0.930 . S
H524 C512 0.930 . S
H525 C513 0.930 . S
H526 C507 0.929 . S
H527 C545 0.930 . S
H528 C536 0.930 . S
H529 C537 0.930 . S
H530 C561 0.929 . S
H531 C519 0.930 . S
H532 C520 0.929 . S
H533 C562 0.930 . S
H534 C543 0.929 1_545 S
N535 Gd504 2.661 1_565 S
N535 C539 1.350 . S
N535 C540 1.307 . S
C536 H528 0.930 . S
C536 C537 1.355 . S
C536 C538 1.412 . S
C537 H529 0.930 . S
C537 C536 1.355 . S
C537 C540 1.402 . S
C538 C536 1.412 . S
C538 C539 1.417 . S
C538 C562 1.431 . S
C539 N535 1.350 . S
C539 C538 1.417 . S
C539 C542 1.426 . S
C540 H523 0.930 . S
C540 N535 1.307 . S
C540 C537 1.402 . S
N541 Gd504 2.601 . S
N541 C542 1.359 1_545 S
N541 C545 1.334 . S
C542 C539 1.426 . S
C542 N541 1.359 1_565 S
C542 C546 1.413 . S
C543 H534 0.929 1_565 S
C543 C544 1.362 . S
C543 C545 1.392 1_565 S
C544 C543 1.362 . S
C544 C546 1.391 . S
C544 H547 0.929 . S
C545 H527 0.930 . S
C545 N541 1.334 . S
C545 C543 1.392 1_545 S
C546 C542 1.413 . S
C546 C544 1.391 . S
C546 C561 1.437 . S
H547 C544 0.929 . S
O548 Gd504 2.545 . S
O548 C563 1.258 . S
O549 Gd504 2.606 . S
O549 Gd505 2.362 . S
O549 C560 1.284 . S
O550 Gd505 2.324 . S
O550 C570 1.254 . S
O551 Gd504 2.429 . S
O551 C570 1.268 . S
O552 Gd504 2.545 . S
O552 C560 1.250 . S
O553 Gd504 2.412 . S
O553 C563 1.252 . S
O554 Gd505 2.545 . S
O554 C572 1.258 . S
O555 Gd504 2.362 . S
O555 Gd505 2.606 . S
O555 C571 1.284 1_545 S
O556 Gd504 2.324 . S
O556 C579 1.254 . S
O557 Gd505 2.429 . S
O557 C579 1.268 . S
O558 Gd505 2.545 1_565 S
O558 C571 1.250 . S
O559 Gd505 2.412 . S
O559 C572 1.252 . S
C560 O549 1.284 . S
C560 O552 1.250 . S
C561 H530 0.929 . S
C561 C546 1.437 . S
C561 C562 1.317 . S
C562 H533 0.930 . S
C562 C538 1.431 . S
C562 C561 1.317 . S
C563 Gd504 2.828 . S
C563 O548 1.258 . S
C563 O553 1.252 . S
C563 C564 1.497 . S
C564 C563 1.497 . S
C564 C565 1.395 . S
C564 C566 1.380 . S
C565 C564 1.395 . S
C565 C568 1.398 . S
C565 H580 0.930 . S
C566 C564 1.380 . S
C566 C567 1.391 . S
C566 H581 0.930 . S
C567 C566 1.391 . S
C567 C569 1.387 . S
C568 C565 1.398 . S
C568 C569 1.380 . S
C568 H582 0.930 . S
C569 C567 1.387 . S
C569 C568 1.380 . S
C569 H583 0.930 . S
C570 O550 1.254 . S
C570 O551 1.268 . S
C571 O555 1.284 1_565 S
C571 O558 1.250 . S
C572 Gd505 2.828 . S
C572 O554 1.258 . S
C572 O559 1.252 . S
C572 C573 1.497 . S
C573 C572 1.497 . S
C573 C574 1.395 . S
C573 C575 1.380 1_545 S
C574 C573 1.395 . S
C574 C577 1.398 1_545 S
C574 H584 0.930 . S
C575 C573 1.380 1_565 S
C575 C576 1.391 . S
C575 H585 0.930 . S
C576 C575 1.391 . S
C576 C578 1.387 . S
C577 C574 1.398 1_565 S
C577 C578 1.380 . S
C577 H586 0.930 . S
C578 C576 1.387 . S
C578 C577 1.380 . S
C578 H587 0.930 . S
C579 O556 1.254 . S
C579 O557 1.268 . S
H580 C565 0.930 . S
H581 C566 0.930 . S
H582 C568 0.930 . S
H583 C569 0.930 . S
H584 C574 0.930 . S
H585 C575 0.930 . S
H586 C577 0.930 . S
H587 C578 0.930 . S
Gd588 N619 2.661 . S
Gd588 N625 2.601 . S
Gd588 O632 2.545 . S
Gd588 O633 2.606 . S
Gd588 O635 2.429 . S
Gd588 O636 2.545 . S
Gd588 O637 2.412 . S
Gd588 O639 2.362 . S
Gd588 O640 2.324 . S
Gd588 C647 2.828 . S
Gd589 N598 2.661 . S
Gd589 N602 2.601 . S
Gd589 O633 2.362 . S
Gd589 O634 2.324 . S
Gd589 O638 2.545 . S
Gd589 O639 2.606 . S
Gd589 O641 2.429 . S
Gd589 O642 2.545 . S
Gd589 O643 2.412 . S
Gd589 C656 2.828 . S
C590 C593 1.417 . S
C590 C595 1.431 . S
C590 C596 1.412 . S
C591 C594 1.437 . S
C591 C595 1.317 . S
C591 H610 0.929 . S
C592 C593 1.426 . S
C592 C594 1.413 . S
C592 N602 1.359 . S
C593 C590 1.417 . S
C593 C592 1.426 . S
C593 N598 1.350 . S
C594 C591 1.437 . S
C594 C592 1.413 . S
C594 C604 1.391 . S
C595 C590 1.431 . S
C595 C591 1.317 . S
C595 H606 0.930 . S
C596 C590 1.412 . S
C596 C597 1.355 . S
C596 H608 0.930 . S
C597 C596 1.355 . S
C597 C599 1.402 . S
C597 H609 0.930 . S
N598 Gd589 2.661 . S
N598 C593 1.350 . S
N598 C599 1.307 . S
C599 C597 1.402 . S
C599 N598 1.307 . S
C599 H600 0.930 . S
H600 C599 0.930 . S
C601 N602 1.334 . S
C601 C603 1.394 . S
C601 H605 0.930 . S
N602 Gd589 2.601 . S
N602 C592 1.359 . S
N602 C601 1.334 . S
C603 C601 1.394 . S
C603 C604 1.359 . S
C603 H615 0.930 . S
C604 C594 1.391 . S
C604 C603 1.359 . S
C604 H616 0.929 . S
H605 C601 0.930 . S
H606 C595 0.930 . S
H607 C624 0.930 . S
H608 C596 0.930 . S
H609 C597 0.930 . S
H610 C591 0.929 . S
H611 C629 0.930 . S
H612 C620 0.930 . S
H613 C621 0.930 . S
H614 C645 0.929 . S
H615 C603 0.930 . S
H616 C604 0.929 . S
H617 C646 0.930 . S
H618 C627 0.930 . S
N619 Gd588 2.661 . S
N619 C623 1.350 . S
N619 C624 1.307 . S
C620 H612 0.930 . S
C620 C621 1.355 . S
C620 C622 1.412 . S
C621 H613 0.930 . S
C621 C620 1.355 . S
C621 C624 1.402 . S
C622 C620 1.412 . S
C622 C623 1.417 . S
C622 C646 1.431 . S
C623 N619 1.350 . S
C623 C622 1.417 . S
C623 C626 1.426 . S
C624 H607 0.930 . S
C624 N619 1.307 . S
C624 C621 1.402 . S
N625 Gd588 2.601 . S
N625 C626 1.359 . S
N625 C629 1.334 . S
C626 C623 1.426 . S
C626 N625 1.359 . S
C626 C630 1.413 . S
C627 H618 0.930 . S
C627 C628 1.359 . S
C627 C629 1.394 . S
C628 C627 1.359 . S
C628 C630 1.391 . S
C628 H631 0.929 . S
C629 H611 0.930 . S
C629 N625 1.334 . S
C629 C627 1.394 . S
C630 C626 1.413 . S
C630 C628 1.391 . S
C630 C645 1.437 . S
H631 C628 0.929 . S
O632 Gd588 2.545 . S
O632 C647 1.258 . S
O633 Gd588 2.606 . S
O633 Gd589 2.362 . S
O633 C644 1.284 . S
O634 Gd589 2.324 . S
O634 C654 1.254 . S
O635 Gd588 2.429 . S
O635 C654 1.268 . S
O636 Gd588 2.545 . S
O636 C644 1.250 . S
O637 Gd588 2.412 . S
O637 C647 1.252 . S
O638 Gd589 2.545 . S
O638 C656 1.258 . S
O639 Gd588 2.362 . S
O639 Gd589 2.606 . S
O639 C655 1.284 . S
O640 Gd588 2.324 . S
O640 C663 1.254 . S
O641 Gd589 2.429 . S
O641 C663 1.268 . S
O642 Gd589 2.545 . S
O642 C655 1.250 . S
O643 Gd589 2.412 . S
O643 C656 1.252 . S
C644 O633 1.284 . S
C644 O636 1.250 . S
C645 H614 0.929 . S
C645 C630 1.437 . S
C645 C646 1.317 . S
C646 H617 0.930 . S
C646 C622 1.431 . S
C646 C645 1.317 . S
C647 Gd588 2.828 . S
C647 O632 1.258 . S
C647 O637 1.252 . S
C647 C648 1.497 . S
C648 C647 1.497 . S
C648 C649 1.395 . S
C648 C650 1.380 . S
C649 C648 1.395 . S
C649 C652 1.398 . S
C649 H664 0.930 . S
C650 C648 1.380 . S
C650 C651 1.391 . S
C650 H665 0.930 . S
C651 C650 1.391 . S
C651 C653 1.387 . S
C652 C649 1.398 . S
C652 C653 1.380 . S
C652 H666 0.930 . S
C653 C651 1.387 . S
C653 C652 1.380 . S
C653 H667 0.930 . S
C654 O634 1.254 . S
C654 O635 1.268 . S
C655 O639 1.284 . S
C655 O642 1.250 . S
C656 Gd589 2.828 . S
C656 O638 1.258 . S
C656 O643 1.252 . S
C656 C657 1.497 . S
C657 C656 1.497 . S
C657 C658 1.395 . S
C657 C659 1.380 . S
C658 C657 1.395 . S
C658 C661 1.398 . S
C658 H668 0.930 . S
C659 C657 1.380 . S
C659 C660 1.391 . S
C659 H669 0.930 . S
C660 C659 1.391 . S
C660 C662 1.387 . S
C661 C658 1.398 . S
C661 C662 1.380 . S
C661 H670 0.930 . S
C662 C660 1.387 . S
C662 C661 1.380 . S
C662 H671 0.930 . S
C663 O640 1.254 . S
C663 O641 1.268 . S
H664 C649 0.930 . S
H665 C650 0.930 . S
H666 C652 0.930 . S
H667 C653 0.930 . S
H668 C658 0.930 . S
H669 C659 0.930 . S
H670 C661 0.930 . S
H671 C662 0.930 . S
Gd672 N703 2.661 . S
Gd672 N709 2.602 . S
Gd672 O716 2.548 . S
Gd672 O717 2.604 1_565 S
Gd672 O719 2.427 1_565 S
Gd672 O720 2.545 1_565 S
Gd672 O721 2.416 . S
Gd672 O723 2.359 1_565 S
Gd672 O724 2.327 . S
Gd672 C731 2.832 . S
Gd673 N682 2.661 . S
Gd673 N686 2.601 . S
Gd673 O717 2.362 . S
Gd673 O718 2.324 . S
Gd673 O722 2.545 . S
Gd673 O723 2.606 . S
Gd673 O725 2.429 . S
Gd673 O726 2.545 . S
Gd673 O727 2.412 . S
Gd673 C740 2.828 . S
C674 C677 1.417 . S
C674 C679 1.431 . S
C674 C680 1.412 . S
C675 C678 1.437 . S
C675 C679 1.317 . S
C675 H694 0.929 . S
C676 C677 1.426 . S
C676 C678 1.413 . S
C676 N686 1.359 . S
C677 C674 1.417 . S
C677 C676 1.426 . S
C677 N682 1.350 . S
C678 C675 1.437 . S
C678 C676 1.413 . S
C678 C688 1.391 . S
C679 C674 1.431 . S
C679 C675 1.317 . S
C679 H690 0.930 . S
C680 C674 1.412 . S
C680 C681 1.355 . S
C680 H692 0.930 . S
C681 C680 1.355 . S
C681 C683 1.402 . S
C681 H693 0.930 . S
N682 Gd673 2.661 . S
N682 C677 1.350 . S
N682 C683 1.307 . S
C683 C681 1.402 . S
C683 N682 1.307 . S
C683 H684 0.930 . S
H684 C683 0.930 . S
C685 N686 1.334 . S
C685 C687 1.394 . S
C685 H689 0.930 . S
N686 Gd673 2.601 . S
N686 C676 1.359 . S
N686 C685 1.334 . S
C687 C685 1.394 . S
C687 C688 1.359 . S
C687 H699 0.930 1_455 S
C688 C678 1.391 . S
C688 C687 1.359 . S
C688 H700 0.929 . S
H689 C685 0.930 . S
H690 C679 0.930 . S
H691 C708 0.930 . S
H692 C680 0.930 . S
H693 C681 0.930 . S
H694 C675 0.929 . S
H695 C713 0.930 . S
H696 C704 0.930 . S
H697 C705 0.930 1_655 S
H698 C729 0.929 . S
H699 C687 0.930 1_655 S
H700 C688 0.929 . S
H701 C730 0.930 . S
H702 C711 0.930 . S
N703 Gd672 2.661 . S
N703 C707 1.350 . S
N703 C708 1.307 . S
C704 H696 0.930 . S
C704 C705 1.355 . S
C704 C706 1.412 . S
C705 H697 0.930 1_455 S
C705 C704 1.355 . S
C705 C708 1.402 . S
C706 C704 1.412 . S
C706 C707 1.417 . S
C706 C730 1.431 . S
C707 N703 1.350 . S
C707 C706 1.417 . S
C707 C710 1.426 . S
C708 H691 0.930 . S
C708 N703 1.307 . S
C708 C705 1.402 . S
N709 Gd672 2.602 . S
N709 C710 1.359 . S
N709 C713 1.334 . S
C710 C707 1.426 . S
C710 N709 1.359 . S
C710 C714 1.413 . S
C711 H702 0.930 . S
C711 C712 1.359 . S
C711 C713 1.394 . S
C712 C711 1.359 . S
C712 C714 1.391 . S
C712 H715 0.929 . S
C713 H695 0.930 . S
C713 N709 1.334 . S
C713 C711 1.394 . S
C714 C710 1.413 . S
C714 C712 1.391 . S
C714 C729 1.437 . S
H715 C712 0.929 . S
O716 Gd672 2.548 . S
O716 C731 1.258 . S
O717 Gd672 2.604 1_545 S
O717 Gd673 2.362 . S
O717 C728 1.284 . S
O718 Gd673 2.324 . S
O718 C738 1.254 . S
O719 Gd672 2.427 1_545 S
O719 C738 1.268 . S
O720 Gd672 2.545 1_545 S
O720 C728 1.250 . S
O721 Gd672 2.416 . S
O721 C731 1.252 . S
O722 Gd673 2.545 . S
O722 C740 1.258 . S
O723 Gd672 2.359 1_545 S
O723 Gd673 2.606 . S
O723 C739 1.284 . S
O724 Gd672 2.327 . S
O724 C747 1.239 1_565 S
O725 Gd673 2.429 . S
O725 C747 1.268 . S
O726 Gd673 2.545 . S
O726 C739 1.250 . S
O727 Gd673 2.412 . S
O727 C740 1.252 . S
C728 O717 1.284 . S
C728 O720 1.250 . S
C729 H698 0.929 . S
C729 C714 1.437 . S
C729 C730 1.317 . S
C730 H701 0.930 . S
C730 C706 1.431 . S
C730 C729 1.317 . S
C731 Gd672 2.832 . S
C731 O716 1.258 . S
C731 O721 1.252 . S
C731 C732 1.497 . S
C732 C731 1.497 . S
C732 C733 1.395 . S
C732 C734 1.380 . S
C733 C732 1.395 . S
C733 C736 1.398 . S
C733 H748 0.930 . S
C734 C732 1.380 . S
C734 C735 1.391 . S
C734 H749 0.930 . S
C735 C734 1.391 . S
C735 C737 1.387 . S
C736 C733 1.398 . S
C736 C737 1.380 . S
C736 H750 0.930 . S
C737 C735 1.387 . S
C737 C736 1.380 . S
C737 H751 0.930 . S
C738 O718 1.254 . S
C738 O719 1.268 . S
C739 O723 1.284 . S
C739 O726 1.250 . S
C740 Gd673 2.828 . S
C740 O722 1.258 . S
C740 O727 1.252 . S
C740 C741 1.497 . S
C741 C740 1.497 . S
C741 C742 1.395 . S
C741 C743 1.380 . S
C742 C741 1.395 . S
C742 C745 1.398 . S
C742 H752 0.930 . S
C743 C741 1.380 . S
C743 C744 1.391 . S
C743 H753 0.930 . S
C744 C743 1.391 . S
C744 C746 1.387 . S
C745 C742 1.398 . S
C745 C746 1.380 . S
C745 H754 0.930 . S
C746 C744 1.387 . S
C746 C745 1.380 . S
C746 H755 0.930 . S
C747 O724 1.239 1_545 S
C747 O725 1.268 . S
H748 C733 0.930 . S
H749 C734 0.930 . S
H750 C736 0.930 . S
H751 C737 0.930 . S
H752 C742 0.930 . S
H753 C743 0.930 . S
H754 C745 0.930 . S
H755 C746 0.930 . S
Gd756 N787 2.661 . S
Gd756 N793 2.601 . S
Gd756 O800 2.545 . S
Gd756 O801 2.606 . S
Gd756 O803 2.429 . S
Gd756 O804 2.545 . S
Gd756 O805 2.412 . S
Gd756 O807 2.362 . S
Gd756 O808 2.324 . S
Gd756 C815 2.828 . S
Gd757 N766 2.661 . S
Gd757 N770 2.601 . S
Gd757 O801 2.362 . S
Gd757 O802 2.324 . S
Gd757 O806 2.545 . S
Gd757 O807 2.606 . S
Gd757 O809 2.429 . S
Gd757 O810 2.545 . S
Gd757 O811 2.412 . S
Gd757 C824 2.828 . S
C758 C761 1.417 . S
C758 C763 1.431 . S
C758 C764 1.412 . S
C759 C762 1.437 . S
C759 C763 1.317 . S
C759 H778 0.929 . S
C760 C761 1.426 . S
C760 C762 1.413 . S
C760 N770 1.359 . S
C761 C758 1.417 . S
C761 C760 1.426 . S
C761 N766 1.350 . S
C762 C759 1.437 . S
C762 C760 1.413 . S
C762 C772 1.391 . S
C763 C758 1.431 . S
C763 C759 1.317 . S
C763 H774 0.930 . S
C764 C758 1.412 . S
C764 C765 1.355 . S
C764 H776 0.930 . S
C765 C764 1.355 . S
C765 C767 1.402 . S
C765 H777 0.930 . S
N766 Gd757 2.661 . S
N766 C761 1.350 . S
N766 C767 1.307 . S
C767 C765 1.402 . S
C767 N766 1.307 . S
C767 H768 0.930 . S
H768 C767 0.930 . S
C769 N770 1.334 . S
C769 C771 1.394 . S
C769 H773 0.930 . S
N770 Gd757 2.601 . S
N770 C760 1.359 . S
N770 C769 1.334 . S
C771 C769 1.394 . S
C771 C772 1.359 . S
C771 H783 0.930 . S
C772 C762 1.391 . S
C772 C771 1.359 . S
C772 H784 0.929 . S
H773 C769 0.930 . S
H774 C763 0.930 . S
H775 C792 0.930 . S
H776 C764 0.930 . S
H777 C765 0.930 . S
H778 C759 0.929 . S
H779 C797 0.930 . S
H780 C788 0.930 . S
H781 C789 0.930 . S
H782 C813 0.929 . S
H783 C771 0.930 . S
H784 C772 0.929 . S
H785 C814 0.930 . S
H786 C795 0.930 . S
N787 Gd756 2.661 . S
N787 C791 1.350 . S
N787 C792 1.307 . S
C788 H780 0.930 . S
C788 C789 1.355 . S
C788 C790 1.412 . S
C789 H781 0.930 . S
C789 C788 1.355 . S
C789 C792 1.402 . S
C790 C788 1.412 . S
C790 C791 1.417 . S
C790 C814 1.431 . S
C791 N787 1.350 . S
C791 C790 1.417 . S
C791 C794 1.426 . S
C792 H775 0.930 . S
C792 N787 1.307 . S
C792 C789 1.402 . S
N793 Gd756 2.601 . S
N793 C794 1.359 . S
N793 C797 1.334 . S
C794 C791 1.426 . S
C794 N793 1.359 . S
C794 C798 1.413 . S
C795 H786 0.930 . S
C795 C796 1.359 . S
C795 C797 1.394 . S
C796 C795 1.359 . S
C796 C798 1.391 . S
C796 H799 0.929 . S
C797 H779 0.930 . S
C797 N793 1.334 . S
C797 C795 1.394 . S
C798 C794 1.413 . S
C798 C796 1.391 . S
C798 C813 1.437 . S
H799 C796 0.929 . S
O800 Gd756 2.545 . S
O800 C815 1.258 . S
O801 Gd756 2.606 . S
O801 Gd757 2.362 . S
O801 C812 1.284 . S
O802 Gd757 2.324 . S
O802 C822 1.254 . S
O803 Gd756 2.429 . S
O803 C822 1.268 . S
O804 Gd756 2.545 . S
O804 C812 1.250 . S
O805 Gd756 2.412 . S
O805 C815 1.252 . S
O806 Gd757 2.545 . S
O806 C824 1.258 . S
O807 Gd756 2.362 . S
O807 Gd757 2.606 . S
O807 C823 1.284 . S
O808 Gd756 2.324 . S
O808 C831 1.254 . S
O809 Gd757 2.429 . S
O809 C831 1.268 . S
O810 Gd757 2.545 . S
O810 C823 1.250 . S
O811 Gd757 2.412 . S
O811 C824 1.252 . S
C812 O801 1.284 . S
C812 O804 1.250 . S
C813 H782 0.929 . S
C813 C798 1.437 . S
C813 C814 1.317 . S
C814 H785 0.930 . S
C814 C790 1.431 . S
C814 C813 1.317 . S
C815 Gd756 2.828 . S
C815 O800 1.258 . S
C815 O805 1.252 . S
C815 C816 1.497 . S
C816 C815 1.497 . S
C816 C817 1.395 . S
C816 C818 1.380 . S
C817 C816 1.395 . S
C817 C820 1.398 . S
C817 H832 0.930 . S
C818 C816 1.380 . S
C818 C819 1.391 . S
C818 H833 0.930 . S
C819 C818 1.391 . S
C819 C821 1.387 . S
C820 C817 1.398 . S
C820 C821 1.380 . S
C820 H834 0.930 . S
C821 C819 1.387 . S
C821 C820 1.380 . S
C821 H835 0.930 . S
C822 O802 1.254 . S
C822 O803 1.268 . S
C823 O807 1.284 . S
C823 O810 1.250 . S
C824 Gd757 2.828 . S
C824 O806 1.258 . S
C824 O811 1.252 . S
C824 C825 1.497 . S
C825 C824 1.497 . S
C825 C826 1.395 . S
C825 C827 1.380 . S
C826 C825 1.395 . S
C826 C829 1.398 . S
C826 H836 0.930 . S
C827 C825 1.380 . S
C827 C828 1.391 . S
C827 H837 0.930 . S
C828 C827 1.391 . S
C828 C830 1.387 . S
C829 C826 1.398 . S
C829 C830 1.380 . S
C829 H838 0.930 . S
C830 C828 1.387 . S
C830 C829 1.380 . S
C830 H839 0.930 . S
C831 O808 1.254 . S
C831 O809 1.268 . S
H832 C817 0.930 . S
H833 C818 0.930 . S
H834 C820 0.930 . S
H835 C821 0.930 . S
H836 C826 0.930 . S
H837 C827 0.930 . S
H838 C829 0.930 . S
H839 C830 0.930 . S
Gd840 N871 2.661 . S
Gd840 N877 2.601 . S
Gd840 O884 2.545 . S
Gd840 O885 2.606 1_556 S
Gd840 O887 2.429 1_556 S
Gd840 O888 2.545 . S
Gd840 O889 2.412 . S
Gd840 O891 2.362 1_556 S
Gd840 O892 2.324 . S
Gd840 C899 2.828 . S
Gd841 N850 2.661 . S
Gd841 N854 2.601 . S
Gd841 O885 2.362 . S
Gd841 O886 2.324 . S
Gd841 O890 2.545 1_545 S
Gd841 O891 2.606 . S
Gd841 O893 2.429 1_545 S
Gd841 O894 2.545 . S
Gd841 O895 2.412 . S
Gd841 C908 2.828 . S
C842 C845 1.417 . S
C842 C847 1.431 . S
C842 C848 1.412 . S
C843 C846 1.437 . S
C843 C847 1.317 . S
C843 H862 0.929 . S
C844 C845 1.426 . S
C844 C846 1.413 . S
C844 N854 1.359 . S
C845 C842 1.417 . S
C845 C844 1.426 . S
C845 N850 1.350 . S
C846 C843 1.437 . S
C846 C844 1.413 . S
C846 C856 1.391 1_545 S
C847 C842 1.431 . S
C847 C843 1.317 . S
C847 H858 0.930 . S
C848 C842 1.412 . S
C848 C849 1.355 . S
C848 H860 0.930 . S
C849 C848 1.355 . S
C849 C851 1.402 . S
C849 H861 0.930 . S
N850 Gd841 2.661 . S
N850 C845 1.350 . S
N850 C851 1.307 . S
C851 C849 1.402 . S
C851 N850 1.307 . S
C851 H852 0.930 . S
H852 C851 0.930 . S
C853 N854 1.334 1_565 S
C853 C855 1.394 . S
C853 H857 0.930 . S
N854 Gd841 2.601 . S
N854 C844 1.359 . S
N854 C853 1.334 1_545 S
C855 C853 1.394 . S
C855 C856 1.359 . S
C855 H867 0.930 . S
C856 C846 1.391 1_565 S
C856 C855 1.359 . S
C856 H868 0.929 . S
H857 C853 0.930 . S
H858 C847 0.930 . S
H859 C876 0.930 . S
H860 C848 0.930 . S
H861 C849 0.930 . S
H862 C843 0.929 . S
H863 C881 0.930 . S
H864 C872 0.930 . S
H865 C873 0.930 . S
H866 C897 0.929 . S
H867 C855 0.930 . S
H868 C856 0.929 . S
H869 C898 0.930 . S
H870 C879 0.930 . S
N871 Gd840 2.661 . S
N871 C875 1.350 . S
N871 C876 1.307 1_545 S
C872 H864 0.930 . S
C872 C873 1.355 . S
C872 C874 1.412 1_565 S
C873 H865 0.930 . S
C873 C872 1.355 . S
C873 C876 1.402 . S
C874 C872 1.412 1_545 S
C874 C875 1.417 . S
C874 C898 1.431 . S
C875 N871 1.350 . S
C875 C874 1.417 . S
C875 C878 1.426 . S
C876 H859 0.930 . S
C876 N871 1.307 1_565 S
C876 C873 1.402 . S
N877 Gd840 2.601 . S
N877 C878 1.359 . S
N877 C881 1.334 . S
C878 C875 1.426 . S
C878 N877 1.359 . S
C878 C882 1.413 . S
C879 H870 0.930 . S
C879 C880 1.359 . S
C879 C881 1.394 . S
C880 C879 1.359 . S
C880 C882 1.391 . S
C880 H883 0.929 . S
C881 H863 0.930 . S
C881 N877 1.334 . S
C881 C879 1.394 . S
C882 C878 1.413 . S
C882 C880 1.391 . S
C882 C897 1.437 . S
H883 C880 0.929 . S
O884 Gd840 2.545 . S
O884 C899 1.258 . S
O885 Gd840 2.606 1_554 S
O885 Gd841 2.362 . S
O885 C896 1.284 . S
O886 Gd841 2.324 . S
O886 C906 1.254 . S
O887 Gd840 2.429 1_554 S
O887 C906 1.268 . S
O888 Gd840 2.545 . S
O888 C896 1.250 1_556 S
O889 Gd840 2.412 . S
O889 C899 1.252 . S
O890 Gd841 2.545 1_565 S
O890 C908 1.258 1_565 S
O891 Gd840 2.362 1_554 S
O891 Gd841 2.606 . S
O891 C907 1.284 . S
O892 Gd840 2.324 . S
O892 C915 1.254 1_545 S
O893 Gd841 2.429 1_565 S
O893 C915 1.268 1_554 S
O894 Gd841 2.545 . S
O894 C907 1.250 . S
O895 Gd841 2.412 . S
O895 C908 1.252 . S
C896 O885 1.284 . S
C896 O888 1.250 1_554 S
C897 H866 0.929 . S
C897 C882 1.437 . S
C897 C898 1.317 . S
C898 H869 0.930 . S
C898 C874 1.431 . S
C898 C897 1.317 . S
C899 Gd840 2.828 . S
C899 O884 1.258 . S
C899 O889 1.252 . S
C899 C900 1.497 . S
C900 C899 1.497 . S
C900 C901 1.395 . S
C900 C902 1.380 . S
C901 C900 1.395 . S
C901 C904 1.398 . S
C901 H916 0.930 . S
C902 C900 1.380 . S
C902 C903 1.391 . S
C902 H917 0.930 . S
C903 C902 1.391 . S
C903 C905 1.387 . S
C904 C901 1.398 . S
C904 C905 1.380 . S
C904 H918 0.930 . S
C905 C903 1.387 . S
C905 C904 1.380 . S
C905 H919 0.930 . S
C906 O886 1.254 . S
C906 O887 1.268 . S
C907 O891 1.284 . S
C907 O894 1.250 . S
C908 Gd841 2.828 . S
C908 O890 1.258 1_545 S
C908 O895 1.252 . S
C908 C909 1.497 . S
C909 C908 1.497 . S
C909 C910 1.395 1_545 S
C909 C911 1.380 . S
C910 C909 1.395 1_565 S
C910 C913 1.398 . S
C910 H920 0.930 . S
C911 C909 1.380 . S
C911 C912 1.391 . S
C911 H921 0.930 . S
C912 C911 1.391 . S
C912 C914 1.387 1_545 S
C913 C910 1.398 . S
C913 C914 1.380 . S
C913 H922 0.930 . S
C914 C912 1.387 1_565 S
C914 C913 1.380 . S
C914 H923 0.930 . S
C915 O892 1.254 1_565 S
C915 O893 1.268 1_556 S
H916 C901 0.930 . S
H917 C902 0.930 . S
H918 C904 0.930 . S
H919 C905 0.930 . S
H920 C910 0.930 . S
H921 C911 0.930 . S
H922 C913 0.930 . S
H923 C914 0.930 . S
Gd924 N955 2.661 . S
Gd924 N961 2.601 . S
Gd924 O968 2.545 . S
Gd924 O969 2.606 . S
Gd924 O971 2.429 . S
Gd924 O972 2.545 . S
Gd924 O973 2.412 . S
Gd924 O975 2.362 . S
Gd924 O976 2.324 . S
Gd924 C983 2.828 . S
Gd925 N934 2.661 . S
Gd925 N938 2.601 . S
Gd925 O969 2.362 . S
Gd925 O970 2.324 . S
Gd925 O974 2.545 . S
Gd925 O975 2.606 . S
Gd925 O977 2.429 . S
Gd925 O978 2.545 . S
Gd925 O979 2.412 . S
Gd925 C992 2.828 . S
C926 C929 1.417 . S
C926 C931 1.431 . S
C926 C932 1.412 . S
C927 C930 1.437 . S
C927 C931 1.317 . S
C927 H946 0.929 . S
C928 C929 1.426 . S
C928 C930 1.413 . S
C928 N938 1.359 . S
C929 C926 1.417 . S
C929 C928 1.426 . S
C929 N934 1.350 . S
C930 C927 1.437 . S
C930 C928 1.413 . S
C930 C940 1.391 . S
C931 C926 1.431 . S
C931 C927 1.317 . S
C931 H942 0.930 . S
C932 C926 1.412 . S
C932 C933 1.355 . S
C932 H944 0.930 . S
C933 C932 1.355 . S
C933 C935 1.402 . S
C933 H945 0.930 . S
N934 Gd925 2.661 . S
N934 C929 1.350 . S
N934 C935 1.307 . S
C935 C933 1.402 . S
C935 N934 1.307 . S
C935 H936 0.930 . S
H936 C935 0.930 . S
C937 N938 1.334 . S
C937 C939 1.394 . S
C937 H941 0.930 . S
N938 Gd925 2.601 . S
N938 C928 1.359 . S
N938 C937 1.334 . S
C939 C937 1.394 . S
C939 C940 1.359 . S
C939 H951 0.930 . S
C940 C930 1.391 . S
C940 C939 1.359 . S
C940 H952 0.929 . S
H941 C937 0.930 . S
H942 C931 0.930 . S
H943 C960 0.930 . S
H944 C932 0.930 . S
H945 C933 0.930 . S
H946 C927 0.929 . S
H947 C965 0.930 . S
H948 C956 0.930 . S
H949 C957 0.930 . S
H950 C981 0.929 . S
H951 C939 0.930 . S
H952 C940 0.929 . S
H953 C982 0.930 . S
H954 C963 0.930 . S
N955 Gd924 2.661 . S
N955 C959 1.350 . S
N955 C960 1.307 . S
C956 H948 0.930 . S
C956 C957 1.355 . S
C956 C958 1.412 . S
C957 H949 0.930 . S
C957 C956 1.355 . S
C957 C960 1.402 . S
C958 C956 1.412 . S
C958 C959 1.417 . S
C958 C982 1.431 . S
C959 N955 1.350 . S
C959 C958 1.417 . S
C959 C962 1.426 . S
C960 H943 0.930 . S
C960 N955 1.307 . S
C960 C957 1.402 . S
N961 Gd924 2.601 . S
N961 C962 1.359 . S
N961 C965 1.334 . S
C962 C959 1.426 . S
C962 N961 1.359 . S
C962 C966 1.413 . S
C963 H954 0.930 . S
C963 C964 1.359 . S
C963 C965 1.394 . S
C964 C963 1.359 . S
C964 C966 1.391 . S
C964 H967 0.929 . S
C965 H947 0.930 . S
C965 N961 1.334 . S
C965 C963 1.394 . S
C966 C962 1.413 . S
C966 C964 1.391 . S
C966 C981 1.437 . S
H967 C964 0.929 . S
O968 Gd924 2.545 . S
O968 C983 1.258 . S
O969 Gd924 2.606 . S
O969 Gd925 2.362 . S
O969 C980 1.284 . S
O970 Gd925 2.324 . S
O970 C990 1.254 . S
O971 Gd924 2.429 . S
O971 C990 1.268 . S
O972 Gd924 2.545 . S
O972 C980 1.250 . S
O973 Gd924 2.412 . S
O973 C983 1.252 . S
O974 Gd925 2.545 . S
O974 C992 1.258 . S
O975 Gd924 2.362 . S
O975 Gd925 2.606 . S
O975 C991 1.284 . S
O976 Gd924 2.324 . S
O976 C999 1.254 . S
O977 Gd925 2.429 . S
O977 C999 1.268 . S
O978 Gd925 2.545 . S
O978 C991 1.250 . S
O979 Gd925 2.412 . S
O979 C992 1.252 . S
C980 O969 1.284 . S
C980 O972 1.250 . S
C981 H950 0.929 . S
C981 C966 1.437 . S
C981 C982 1.317 . S
C982 H953 0.930 . S
C982 C958 1.431 . S
C982 C981 1.317 . S
C983 Gd924 2.828 . S
C983 O968 1.258 . S
C983 O973 1.252 . S
C983 C984 1.497 . S
C984 C983 1.497 . S
C984 C985 1.395 . S
C984 C986 1.380 . S
C985 C984 1.395 . S
C985 C988 1.398 . S
C985 H1000 0.930 . S
C986 C984 1.380 . S
C986 C987 1.391 . S
C986 H1001 0.930 . S
C987 C986 1.391 . S
C987 C989 1.387 . S
C988 C985 1.398 . S
C988 C989 1.380 . S
C988 H1002 0.930 . S
C989 C987 1.387 . S
C989 C988 1.380 . S
C989 H1003 0.930 . S
C990 O970 1.254 . S
C990 O971 1.268 . S
C991 O975 1.284 . S
C991 O978 1.250 . S
C992 Gd925 2.828 . S
C992 O974 1.258 . S
C992 O979 1.252 . S
C992 C993 1.497 . S
C993 C992 1.497 . S
C993 C994 1.395 . S
C993 C995 1.380 . S
C994 C993 1.395 . S
C994 C997 1.398 . S
C994 H1004 0.930 . S
C995 C993 1.380 . S
C995 C996 1.391 . S
C995 H1005 0.930 . S
C996 C995 1.391 . S
C996 C998 1.387 . S
C997 C994 1.398 . S
C997 C998 1.380 . S
C997 H1006 0.930 . S
C998 C996 1.387 . S
C998 C997 1.380 . S
C998 H1007 0.930 . S
C999 O976 1.254 . S
C999 O977 1.268 . S
H1000 C985 0.930 . S
H1001 C986 0.930 . S
H1002 C988 0.930 . S
H1003 C989 0.930 . S
H1004 C994 0.930 . S
H1005 C995 0.930 . S
H1006 C997 0.930 . S
H1007 C998 0.930 . S
Gd1008 N1039 2.661 1_554 S
Gd1008 N1045 2.601 1_554 S
Gd1008 O1052 2.545 . S
Gd1008 O1053 2.606 . S
Gd1008 O1055 2.429 . S
Gd1008 O1056 2.545 . S
Gd1008 O1057 2.412 . S
Gd1008 O1059 2.362 1_554 S
Gd1008 O1060 2.324 . S
Gd1008 C1067 2.828 . S
Gd1009 N1018 2.661 . S
Gd1009 N1022 2.601 . S
Gd1009 O1053 2.362 . S
Gd1009 O1054 2.324 . S
Gd1009 O1058 2.545 . S
Gd1009 O1059 2.606 1_554 S
Gd1009 O1061 2.429 . S
Gd1009 O1062 2.545 1_554 S
Gd1009 O1063 2.412 . S
Gd1009 C1076 2.828 . S
C1010 C1013 1.417 . S
C1010 C1015 1.431 . S
C1010 C1016 1.412 . S
C1011 C1014 1.437 . S
C1011 C1015 1.317 . S
C1011 H1030 0.929 . S
C1012 C1013 1.426 . S
C1012 C1014 1.413 . S
C1012 N1022 1.359 . S
C1013 C1010 1.417 . S
C1013 C1012 1.426 . S
C1013 N1018 1.350 . S
C1014 C1011 1.437 . S
C1014 C1012 1.413 . S
C1014 C1024 1.391 . S
C1015 C1010 1.431 . S
C1015 C1011 1.317 . S
C1015 H1026 0.930 . S
C1016 C1010 1.412 . S
C1016 C1017 1.355 . S
C1016 H1028 0.930 . S
C1017 C1016 1.355 . S
C1017 C1019 1.402 . S
C1017 H1029 0.930 . S
N1018 Gd1009 2.661 . S
N1018 C1013 1.350 . S
N1018 C1019 1.307 . S
C1019 C1017 1.402 . S
C1019 N1018 1.307 . S
C1019 H1020 0.930 . S
H1020 C1019 0.930 . S
C1021 N1022 1.334 . S
C1021 C1023 1.394 . S
C1021 H1025 0.930 . S
N1022 Gd1009 2.601 . S
N1022 C1012 1.359 . S
N1022 C1021 1.334 . S
C1023 C1021 1.394 . S
C1023 C1024 1.359 . S
C1023 H1035 0.930 . S
C1024 C1014 1.391 . S
C1024 C1023 1.359 . S
C1024 H1036 0.929 . S
H1025 C1021 0.930 . S
H1026 C1015 0.930 . S
H1027 C1044 0.930 . S
H1028 C1016 0.930 . S
H1029 C1017 0.930 . S
H1030 C1011 0.929 . S
H1031 C1049 0.930 . S
H1032 C1040 0.930 . S
H1033 C1041 0.930 . S
H1034 C1065 0.929 . S
H1035 C1023 0.930 . S
H1036 C1024 0.929 . S
H1037 C1066 0.930 . S
H1038 C1047 0.930 . S
N1039 Gd1008 2.661 1_556 S
N1039 C1043 1.350 . S
N1039 C1044 1.307 . S
C1040 H1032 0.930 . S
C1040 C1041 1.355 . S
C1040 C1042 1.412 . S
C1041 H1033 0.930 . S
C1041 C1040 1.355 . S
C1041 C1044 1.402 . S
C1042 C1040 1.412 . S
C1042 C1043 1.417 . S
C1042 C1066 1.431 . S
C1043 N1039 1.350 . S
C1043 C1042 1.417 . S
C1043 C1046 1.426 . S
C1044 H1027 0.930 . S
C1044 N1039 1.307 . S
C1044 C1041 1.402 . S
N1045 Gd1008 2.601 1_556 S
N1045 C1046 1.359 . S
N1045 C1049 1.334 . S
C1046 C1043 1.426 . S
C1046 N1045 1.359 . S
C1046 C1050 1.413 . S
C1047 H1038 0.930 . S
C1047 C1048 1.359 . S
C1047 C1049 1.394 . S
C1048 C1047 1.359 . S
C1048 C1050 1.391 . S
C1048 H1051 0.929 . S
C1049 H1031 0.930 . S
C1049 N1045 1.334 . S
C1049 C1047 1.394 . S
C1050 C1046 1.413 . S
C1050 C1048 1.391 . S
C1050 C1065 1.437 . S
H1051 C1048 0.929 . S
O1052 Gd1008 2.545 . S
O1052 C1067 1.258 . S
O1053 Gd1008 2.606 . S
O1053 Gd1009 2.362 . S
O1053 C1064 1.284 . S
O1054 Gd1009 2.324 . S
O1054 C1074 1.254 . S
O1055 Gd1008 2.429 . S
O1055 C1074 1.268 . S
O1056 Gd1008 2.545 . S
O1056 C1064 1.250 . S
O1057 Gd1008 2.412 . S
O1057 C1067 1.252 . S
O1058 Gd1009 2.545 . S
O1058 C1076 1.258 . S
O1059 Gd1008 2.362 1_556 S
O1059 Gd1009 2.606 1_556 S
O1059 C1075 1.284 . S
O1060 Gd1008 2.324 . S
O1060 C1083 1.254 . S
O1061 Gd1009 2.429 . S
O1061 C1083 1.268 . S
O1062 Gd1009 2.545 1_556 S
O1062 C1075 1.250 . S
O1063 Gd1009 2.412 . S
O1063 C1076 1.252 . S
C1064 O1053 1.284 . S
C1064 O1056 1.250 . S
C1065 H1034 0.929 . S
C1065 C1050 1.437 . S
C1065 C1066 1.317 . S
C1066 H1037 0.930 . S
C1066 C1042 1.431 . S
C1066 C1065 1.317 . S
C1067 Gd1008 2.828 . S
C1067 O1052 1.258 . S
C1067 O1057 1.252 . S
C1067 C1068 1.497 . S
C1068 C1067 1.497 . S
C1068 C1069 1.395 . S
C1068 C1070 1.380 . S
C1069 C1068 1.395 . S
C1069 C1072 1.398 . S
C1069 H1084 0.930 . S
C1070 C1068 1.380 . S
C1070 C1071 1.391 . S
C1070 H1085 0.930 . S
C1071 C1070 1.391 . S
C1071 C1073 1.387 . S
C1072 C1069 1.398 . S
C1072 C1073 1.380 . S
C1072 H1086 0.930 . S
C1073 C1071 1.387 . S
C1073 C1072 1.380 . S
C1073 H1087 0.930 . S
C1074 O1054 1.254 . S
C1074 O1055 1.268 . S
C1075 O1059 1.284 . S
C1075 O1062 1.250 . S
C1076 Gd1009 2.828 . S
C1076 O1058 1.258 . S
C1076 O1063 1.252 . S
C1076 C1077 1.497 . S
C1077 C1076 1.497 . S
C1077 C1078 1.395 . S
C1077 C1079 1.380 . S
C1078 C1077 1.395 . S
C1078 C1081 1.398 . S
C1078 H1088 0.930 . S
C1079 C1077 1.380 . S
C1079 C1080 1.391 1_554 S
C1079 H1089 0.930 1_554 S
C1080 C1079 1.391 1_556 S
C1080 C1082 1.387 1_556 S
C1081 C1078 1.398 . S
C1081 C1082 1.380 . S
C1081 H1090 0.930 . S
C1082 C1080 1.387 1_554 S
C1082 C1081 1.380 . S
C1082 H1091 0.930 . S
C1083 O1060 1.254 . S
C1083 O1061 1.268 . S
H1084 C1069 0.930 . S
H1085 C1070 0.930 . S
H1086 C1072 0.930 . S
H1087 C1073 0.930 . S
H1088 C1078 0.930 . S
H1089 C1079 0.930 1_556 S
H1090 C1081 0.930 . S
H1091 C1082 0.930 . S
Gd1092 N1123 2.661 . S
Gd1092 N1129 2.601 . S
Gd1092 O1136 2.545 . S
Gd1092 O1137 2.606 . S
Gd1092 O1139 2.429 . S
Gd1092 O1140 2.545 . S
Gd1092 O1141 2.412 . S
Gd1092 O1143 2.362 . S
Gd1092 O1144 2.324 . S
Gd1092 C1151 2.828 . S
Gd1093 N1102 2.661 . S
Gd1093 N1106 2.601 . S
Gd1093 O1137 2.362 . S
Gd1093 O1138 2.324 . S
Gd1093 O1142 2.545 . S
Gd1093 O1143 2.606 . S
Gd1093 O1145 2.429 . S
Gd1093 O1146 2.545 . S
Gd1093 O1147 2.412 . S
Gd1093 C1160 2.828 . S
C1094 C1097 1.417 . S
C1094 C1099 1.431 . S
C1094 C1100 1.412 . S
C1095 C1098 1.437 . S
C1095 C1099 1.317 . S
C1095 H1114 0.929 . S
C1096 C1097 1.426 . S
C1096 C1098 1.413 . S
C1096 N1106 1.359 . S
C1097 C1094 1.417 . S
C1097 C1096 1.426 . S
C1097 N1102 1.350 . S
C1098 C1095 1.437 . S
C1098 C1096 1.413 . S
C1098 C1108 1.391 . S
C1099 C1094 1.431 . S
C1099 C1095 1.317 . S
C1099 H1110 0.930 . S
C1100 C1094 1.412 . S
C1100 C1101 1.355 . S
C1100 H1112 0.930 . S
C1101 C1100 1.355 . S
C1101 C1103 1.402 . S
C1101 H1113 0.930 . S
N1102 Gd1093 2.661 . S
N1102 C1097 1.350 . S
N1102 C1103 1.307 . S
C1103 C1101 1.402 . S
C1103 N1102 1.307 . S
C1103 H1104 0.930 . S
H1104 C1103 0.930 . S
C1105 N1106 1.334 . S
C1105 C1107 1.394 . S
C1105 H1109 0.930 . S
N1106 Gd1093 2.601 . S
N1106 C1096 1.359 . S
N1106 C1105 1.334 . S
C1107 C1105 1.394 . S
C1107 C1108 1.359 . S
C1107 H1119 0.930 . S
C1108 C1098 1.391 . S
C1108 C1107 1.359 . S
C1108 H1120 0.929 . S
H1109 C1105 0.930 . S
H1110 C1099 0.930 . S
H1111 C1128 0.930 . S
H1112 C1100 0.930 . S
H1113 C1101 0.930 . S
H1114 C1095 0.929 . S
H1115 C1133 0.930 . S
H1116 C1124 0.930 . S
H1117 C1125 0.930 . S
H1118 C1149 0.929 . S
H1119 C1107 0.930 . S
H1120 C1108 0.929 . S
H1121 C1150 0.930 . S
H1122 C1131 0.930 . S
N1123 Gd1092 2.661 . S
N1123 C1127 1.350 . S
N1123 C1128 1.307 . S
C1124 H1116 0.930 . S
C1124 C1125 1.355 . S
C1124 C1126 1.412 . S
C1125 H1117 0.930 . S
C1125 C1124 1.355 . S
C1125 C1128 1.402 . S
C1126 C1124 1.412 . S
C1126 C1127 1.417 . S
C1126 C1150 1.431 . S
C1127 N1123 1.350 . S
C1127 C1126 1.417 . S
C1127 C1130 1.426 . S
C1128 H1111 0.930 . S
C1128 N1123 1.307 . S
C1128 C1125 1.402 . S
N1129 Gd1092 2.601 . S
N1129 C1130 1.359 . S
N1129 C1133 1.334 . S
C1130 C1127 1.426 . S
C1130 N1129 1.359 . S
C1130 C1134 1.413 . S
C1131 H1122 0.930 . S
C1131 C1132 1.359 . S
C1131 C1133 1.394 . S
C1132 C1131 1.359 . S
C1132 C1134 1.391 . S
C1132 H1135 0.929 . S
C1133 H1115 0.930 . S
C1133 N1129 1.334 . S
C1133 C1131 1.394 . S
C1134 C1130 1.413 . S
C1134 C1132 1.391 . S
C1134 C1149 1.437 . S
H1135 C1132 0.929 . S
O1136 Gd1092 2.545 . S
O1136 C1151 1.258 . S
O1137 Gd1092 2.606 . S
O1137 Gd1093 2.362 . S
O1137 C1148 1.284 . S
O1138 Gd1093 2.324 . S
O1138 C1158 1.254 . S
O1139 Gd1092 2.429 . S
O1139 C1158 1.268 . S
O1140 Gd1092 2.545 . S
O1140 C1148 1.250 . S
O1141 Gd1092 2.412 . S
O1141 C1151 1.252 . S
O1142 Gd1093 2.545 . S
O1142 C1160 1.258 . S
O1143 Gd1092 2.362 . S
O1143 Gd1093 2.606 . S
O1143 C1159 1.284 . S
O1144 Gd1092 2.324 . S
O1144 C1167 1.254 . S
O1145 Gd1093 2.429 . S
O1145 C1167 1.268 . S
O1146 Gd1093 2.545 . S
O1146 C1159 1.250 . S
O1147 Gd1093 2.412 . S
O1147 C1160 1.252 . S
C1148 O1137 1.284 . S
C1148 O1140 1.250 . S
C1149 H1118 0.929 . S
C1149 C1134 1.437 . S
C1149 C1150 1.317 . S
C1150 H1121 0.930 . S
C1150 C1126 1.431 . S
C1150 C1149 1.317 . S
C1151 Gd1092 2.828 . S
C1151 O1136 1.258 . S
C1151 O1141 1.252 . S
C1151 C1152 1.497 . S
C1152 C1151 1.497 . S
C1152 C1153 1.395 . S
C1152 C1154 1.380 . S
C1153 C1152 1.395 . S
C1153 C1156 1.398 . S
C1153 H1168 0.930 . S
C1154 C1152 1.380 . S
C1154 C1155 1.391 . S
C1154 H1169 0.930 . S
C1155 C1154 1.391 . S
C1155 C1157 1.387 . S
C1156 C1153 1.398 . S
C1156 C1157 1.380 . S
C1156 H1170 0.930 . S
C1157 C1155 1.387 . S
C1157 C1156 1.380 . S
C1157 H1171 0.930 . S
C1158 O1138 1.254 . S
C1158 O1139 1.268 . S
C1159 O1143 1.284 . S
C1159 O1146 1.250 . S
C1160 Gd1093 2.828 . S
C1160 O1142 1.258 . S
C1160 O1147 1.252 . S
C1160 C1161 1.497 . S
C1161 C1160 1.497 . S
C1161 C1162 1.395 . S
C1161 C1163 1.380 . S
C1162 C1161 1.395 . S
C1162 C1165 1.398 . S
C1162 H1172 0.930 . S
C1163 C1161 1.380 . S
C1163 C1164 1.391 . S
C1163 H1173 0.930 . S
C1164 C1163 1.391 . S
C1164 C1166 1.387 . S
C1165 C1162 1.398 . S
C1165 C1166 1.380 . S
C1165 H1174 0.930 . S
C1166 C1164 1.387 . S
C1166 C1165 1.380 . S
C1166 H1175 0.930 . S
C1167 O1144 1.254 . S
C1167 O1145 1.268 . S
H1168 C1153 0.930 . S
H1169 C1154 0.930 . S
H1170 C1156 0.930 . S
H1171 C1157 0.930 . S
H1172 C1162 0.930 . S
H1173 C1163 0.930 . S
H1174 C1165 0.930 . S
H1175 C1166 0.930 . S
Gd1176 N1207 2.661 . S
Gd1176 N1213 2.601 . S
Gd1176 O1220 2.545 . S
Gd1176 O1221 2.606 . S
Gd1176 O1223 2.429 . S
Gd1176 O1224 2.545 . S
Gd1176 O1225 2.412 . S
Gd1176 O1227 2.362 . S
Gd1176 O1228 2.324 . S
Gd1176 C1235 2.828 . S
Gd1177 N1186 2.661 . S
Gd1177 N1190 2.601 . S
Gd1177 O1221 2.362 . S
Gd1177 O1222 2.324 . S
Gd1177 O1226 2.545 . S
Gd1177 O1227 2.606 . S
Gd1177 O1229 2.429 . S
Gd1177 O1230 2.545 . S
Gd1177 O1231 2.412 . S
Gd1177 C1244 2.828 . S
C1178 C1181 1.417 . S
C1178 C1183 1.431 . S
C1178 C1184 1.412 . S
C1179 C1182 1.437 . S
C1179 C1183 1.317 . S
C1179 H1198 0.929 . S
C1180 C1181 1.426 . S
C1180 C1182 1.413 . S
C1180 N1190 1.359 . S
C1181 C1178 1.417 . S
C1181 C1180 1.426 . S
C1181 N1186 1.350 . S
C1182 C1179 1.437 . S
C1182 C1180 1.413 . S
C1182 C1192 1.391 . S
C1183 C1178 1.431 . S
C1183 C1179 1.317 . S
C1183 H1194 0.930 . S
C1184 C1178 1.412 . S
C1184 C1185 1.355 . S
C1184 H1196 0.930 . S
C1185 C1184 1.355 . S
C1185 C1187 1.402 . S
C1185 H1197 0.930 . S
N1186 Gd1177 2.661 . S
N1186 C1181 1.350 . S
N1186 C1187 1.307 . S
C1187 C1185 1.402 . S
C1187 N1186 1.307 . S
C1187 H1188 0.930 . S
H1188 C1187 0.930 . S
C1189 N1190 1.334 . S
C1189 C1191 1.394 . S
C1189 H1193 0.930 . S
N1190 Gd1177 2.601 . S
N1190 C1180 1.359 . S
N1190 C1189 1.334 . S
C1191 C1189 1.394 . S
C1191 C1192 1.359 . S
C1191 H1203 0.930 . S
C1192 C1182 1.391 . S
C1192 C1191 1.359 . S
C1192 H1204 0.929 . S
H1193 C1189 0.930 . S
H1194 C1183 0.930 . S
H1195 C1212 0.930 . S
H1196 C1184 0.930 . S
H1197 C1185 0.930 . S
H1198 C1179 0.929 . S
H1199 C1217 0.930 . S
H1200 C1208 0.930 . S
H1201 C1209 0.930 . S
H1202 C1233 0.929 . S
H1203 C1191 0.930 . S
H1204 C1192 0.929 . S
H1205 C1234 0.930 . S
H1206 C1215 0.930 . S
N1207 Gd1176 2.661 . S
N1207 C1211 1.350 . S
N1207 C1212 1.307 . S
C1208 H1200 0.930 . S
C1208 C1209 1.355 . S
C1208 C1210 1.412 . S
C1209 H1201 0.930 . S
C1209 C1208 1.355 . S
C1209 C1212 1.402 1_655 S
C1210 C1208 1.412 . S
C1210 C1211 1.417 1_655 S
C1210 C1234 1.431 . S
C1211 N1207 1.350 . S
C1211 C1210 1.417 1_455 S
C1211 C1214 1.426 . S
C1212 H1195 0.930 . S
C1212 N1207 1.307 . S
C1212 C1209 1.402 1_455 S
N1213 Gd1176 2.601 . S
N1213 C1214 1.359 . S
N1213 C1217 1.334 . S
C1214 C1211 1.426 . S
C1214 N1213 1.359 . S
C1214 C1218 1.413 1_455 S
C1215 H1206 0.930 . S
C1215 C1216 1.359 1_455 S
C1215 C1217 1.394 . S
C1216 C1215 1.359 1_655 S
C1216 C1218 1.391 . S
C1216 H1219 0.929 . S
C1217 H1199 0.930 . S
C1217 N1213 1.334 . S
C1217 C1215 1.394 . S
C1218 C1214 1.413 1_655 S
C1218 C1216 1.391 . S
C1218 C1233 1.437 . S
H1219 C1216 0.929 . S
O1220 Gd1176 2.545 . S
O1220 C1235 1.258 . S
O1221 Gd1176 2.606 . S
O1221 Gd1177 2.362 . S
O1221 C1232 1.284 . S
O1222 Gd1177 2.324 . S
O1222 C1242 1.254 . S
O1223 Gd1176 2.429 . S
O1223 C1242 1.268 . S
O1224 Gd1176 2.545 . S
O1224 C1232 1.250 . S
O1225 Gd1176 2.412 . S
O1225 C1235 1.252 . S
O1226 Gd1177 2.545 . S
O1226 C1244 1.258 . S
O1227 Gd1176 2.362 . S
O1227 Gd1177 2.606 . S
O1227 C1243 1.284 . S
O1228 Gd1176 2.324 . S
O1228 C1251 1.254 . S
O1229 Gd1177 2.429 . S
O1229 C1251 1.268 . S
O1230 Gd1177 2.545 . S
O1230 C1243 1.250 . S
O1231 Gd1177 2.412 . S
O1231 C1244 1.252 . S
C1232 O1221 1.284 . S
C1232 O1224 1.250 . S
C1233 H1202 0.929 . S
C1233 C1218 1.437 . S
C1233 C1234 1.317 . S
C1234 H1205 0.930 . S
C1234 C1210 1.431 . S
C1234 C1233 1.317 . S
C1235 Gd1176 2.828 . S
C1235 O1220 1.258 . S
C1235 O1225 1.252 . S
C1235 C1236 1.497 . S
C1236 C1235 1.497 . S
C1236 C1237 1.395 . S
C1236 C1238 1.380 . S
C1237 C1236 1.395 . S
C1237 C1240 1.398 . S
C1237 H1252 0.930 . S
C1238 C1236 1.380 . S
C1238 C1239 1.391 . S
C1238 H1253 0.930 . S
C1239 C1238 1.391 . S
C1239 C1241 1.387 . S
C1240 C1237 1.398 . S
C1240 C1241 1.380 . S
C1240 H1254 0.930 . S
C1241 C1239 1.387 . S
C1241 C1240 1.380 . S
C1241 H1255 0.930 . S
C1242 O1222 1.254 . S
C1242 O1223 1.268 . S
C1243 O1227 1.284 . S
C1243 O1230 1.250 . S
C1244 Gd1177 2.828 . S
C1244 O1226 1.258 . S
C1244 O1231 1.252 . S
C1244 C1245 1.497 . S
C1245 C1244 1.497 . S
C1245 C1246 1.395 . S
C1245 C1247 1.380 . S
C1246 C1245 1.395 . S
C1246 C1249 1.398 . S
C1246 H1256 0.930 . S
C1247 C1245 1.380 . S
C1247 C1248 1.391 . S
C1247 H1257 0.930 . S
C1248 C1247 1.391 . S
C1248 C1250 1.387 . S
C1249 C1246 1.398 . S
C1249 C1250 1.380 . S
C1249 H1258 0.930 . S
C1250 C1248 1.387 . S
C1250 C1249 1.380 . S
C1250 H1259 0.930 . S
C1251 O1228 1.254 . S
C1251 O1229 1.268 . S
H1252 C1237 0.930 . S
H1253 C1238 0.930 . S
H1254 C1240 0.930 . S
H1255 C1241 0.930 . S
H1256 C1246 0.930 . S
H1257 C1247 0.930 . S
H1258 C1249 0.930 . S
H1259 C1250 0.930 . S
Gd1260 N1291 2.661 . S
Gd1260 N1297 2.601 . S
Gd1260 O1304 2.545 . S
Gd1260 O1305 2.606 . S
Gd1260 O1307 2.429 . S
Gd1260 O1308 2.545 . S
Gd1260 O1309 2.412 . S
Gd1260 O1311 2.362 . S
Gd1260 O1312 2.324 . S
Gd1260 C1319 2.828 . S
Gd1261 N1270 2.661 . S
Gd1261 N1274 2.601 . S
Gd1261 O1305 2.362 . S
Gd1261 O1306 2.324 . S
Gd1261 O1310 2.545 . S
Gd1261 O1311 2.606 . S
Gd1261 O1313 2.429 . S
Gd1261 O1314 2.545 . S
Gd1261 O1315 2.412 . S
Gd1261 C1328 2.828 . S
C1262 C1265 1.417 . S
C1262 C1267 1.431 . S
C1262 C1268 1.412 . S
C1263 C1266 1.437 . S
C1263 C1267 1.317 . S
C1263 H1282 0.929 . S
C1264 C1265 1.426 . S
C1264 C1266 1.413 . S
C1264 N1274 1.359 . S
C1265 C1262 1.417 . S
C1265 C1264 1.426 . S
C1265 N1270 1.350 . S
C1266 C1263 1.437 . S
C1266 C1264 1.413 . S
C1266 C1276 1.391 . S
C1267 C1262 1.431 . S
C1267 C1263 1.317 . S
C1267 H1278 0.930 . S
C1268 C1262 1.412 . S
C1268 C1269 1.355 . S
C1268 H1280 0.930 . S
C1269 C1268 1.355 . S
C1269 C1271 1.402 . S
C1269 H1281 0.930 . S
N1270 Gd1261 2.661 . S
N1270 C1265 1.350 . S
N1270 C1271 1.307 . S
C1271 C1269 1.402 . S
C1271 N1270 1.307 . S
C1271 H1272 0.930 . S
H1272 C1271 0.930 . S
C1273 N1274 1.334 . S
C1273 C1275 1.394 . S
C1273 H1277 0.930 . S
N1274 Gd1261 2.601 . S
N1274 C1264 1.359 . S
N1274 C1273 1.334 . S
C1275 C1273 1.394 . S
C1275 C1276 1.359 . S
C1275 H1287 0.930 . S
C1276 C1266 1.391 . S
C1276 C1275 1.359 . S
C1276 H1288 0.929 . S
H1277 C1273 0.930 . S
H1278 C1267 0.930 . S
H1279 C1296 0.930 . S
H1280 C1268 0.930 . S
H1281 C1269 0.930 . S
H1282 C1263 0.929 . S
H1283 C1301 0.930 . S
H1284 C1292 0.930 . S
H1285 C1293 0.930 . S
H1286 C1317 0.929 . S
H1287 C1275 0.930 . S
H1288 C1276 0.929 . S
H1289 C1318 0.930 . S
H1290 C1299 0.930 . S
N1291 Gd1260 2.661 . S
N1291 C1295 1.350 . S
N1291 C1296 1.307 . S
C1292 H1284 0.930 . S
C1292 C1293 1.355 . S
C1292 C1294 1.412 . S
C1293 H1285 0.930 . S
C1293 C1292 1.355 . S
C1293 C1296 1.402 . S
C1294 C1292 1.412 . S
C1294 C1295 1.417 . S
C1294 C1318 1.431 . S
C1295 N1291 1.350 . S
C1295 C1294 1.417 . S
C1295 C1298 1.426 . S
C1296 H1279 0.930 . S
C1296 N1291 1.307 . S
C1296 C1293 1.402 . S
N1297 Gd1260 2.601 . S
N1297 C1298 1.359 . S
N1297 C1301 1.334 . S
C1298 C1295 1.426 . S
C1298 N1297 1.359 . S
C1298 C1302 1.413 . S
C1299 H1290 0.930 . S
C1299 C1300 1.359 . S
C1299 C1301 1.394 . S
C1300 C1299 1.359 . S
C1300 C1302 1.391 . S
C1300 H1303 0.929 . S
C1301 H1283 0.930 . S
C1301 N1297 1.334 . S
C1301 C1299 1.394 . S
C1302 C1298 1.413 . S
C1302 C1300 1.391 . S
C1302 C1317 1.437 . S
H1303 C1300 0.929 . S
O1304 Gd1260 2.545 . S
O1304 C1319 1.258 . S
O1305 Gd1260 2.606 . S
O1305 Gd1261 2.362 . S
O1305 C1316 1.284 . S
O1306 Gd1261 2.324 . S
O1306 C1326 1.254 . S
O1307 Gd1260 2.429 . S
O1307 C1326 1.268 . S
O1308 Gd1260 2.545 . S
O1308 C1316 1.250 . S
O1309 Gd1260 2.412 . S
O1309 C1319 1.252 . S
O1310 Gd1261 2.545 . S
O1310 C1328 1.258 . S
O1311 Gd1260 2.362 . S
O1311 Gd1261 2.606 . S
O1311 C1327 1.284 . S
O1312 Gd1260 2.324 . S
O1312 C1335 1.254 . S
O1313 Gd1261 2.429 . S
O1313 C1335 1.268 . S
O1314 Gd1261 2.545 . S
O1314 C1327 1.250 . S
O1315 Gd1261 2.412 . S
O1315 C1328 1.252 . S
C1316 O1305 1.284 . S
C1316 O1308 1.250 . S
C1317 H1286 0.929 . S
C1317 C1302 1.437 . S
C1317 C1318 1.317 . S
C1318 H1289 0.930 . S
C1318 C1294 1.431 . S
C1318 C1317 1.317 . S
C1319 Gd1260 2.828 . S
C1319 O1304 1.258 . S
C1319 O1309 1.252 . S
C1319 C1320 1.497 . S
C1320 C1319 1.497 . S
C1320 C1321 1.395 . S
C1320 C1322 1.380 . S
C1321 C1320 1.395 . S
C1321 C1324 1.398 . S
C1321 H1336 0.930 . S
C1322 C1320 1.380 . S
C1322 C1323 1.391 . S
C1322 H1337 0.930 . S
C1323 C1322 1.391 . S
C1323 C1325 1.387 . S
C1324 C1321 1.398 . S
C1324 C1325 1.380 . S
C1324 H1338 0.930 . S
C1325 C1323 1.387 . S
C1325 C1324 1.380 . S
C1325 H1339 0.930 . S
C1326 O1306 1.254 . S
C1326 O1307 1.268 . S
C1327 O1311 1.284 . S
C1327 O1314 1.250 . S
C1328 Gd1261 2.828 . S
C1328 O1310 1.258 . S
C1328 O1315 1.252 . S
C1328 C1329 1.497 . S
C1329 C1328 1.497 . S
C1329 C1330 1.395 . S
C1329 C1331 1.380 . S
C1330 C1329 1.395 . S
C1330 C1333 1.398 . S
C1330 H1340 0.930 . S
C1331 C1329 1.380 . S
C1331 C1332 1.391 . S
C1331 H1341 0.930 . S
C1332 C1331 1.391 . S
C1332 C1334 1.387 . S
C1333 C1330 1.398 . S
C1333 C1334 1.380 . S
C1333 H1342 0.930 . S
C1334 C1332 1.387 . S
C1334 C1333 1.380 . S
C1334 H1343 0.930 . S
C1335 O1312 1.254 . S
C1335 O1313 1.268 . S
H1336 C1321 0.930 . S
H1337 C1322 0.930 . S
H1338 C1324 0.930 . S
H1339 C1325 0.930 . S
H1340 C1330 0.930 . S
H1341 C1331 0.930 . S
H1342 C1333 0.930 . S
H1343 C1334 0.930 . S
Gd1344 N1375 2.661 . S
Gd1344 N1381 2.601 . S
Gd1344 O1388 2.545 . S
Gd1344 O1389 2.606 . S
Gd1344 O1391 2.429 . S
Gd1344 O1392 2.545 . S
Gd1344 O1393 2.412 . S
Gd1344 O1395 2.362 . S
Gd1344 O1396 2.324 . S
Gd1344 C1403 2.828 . S
Gd1345 N1354 2.661 . S
Gd1345 N1358 2.601 . S
Gd1345 O1389 2.362 . S
Gd1345 O1390 2.324 . S
Gd1345 O1394 2.545 . S
Gd1345 O1395 2.606 . S
Gd1345 O1397 2.429 . S
Gd1345 O1398 2.545 . S
Gd1345 O1399 2.412 . S
Gd1345 C1412 2.828 . S
C1346 C1349 1.417 . S
C1346 C1351 1.431 . S
C1346 C1352 1.412 . S
C1347 C1350 1.437 . S
C1347 C1351 1.317 . S
C1347 H1366 0.929 . S
C1348 C1349 1.426 . S
C1348 C1350 1.413 . S
C1348 N1358 1.359 . S
C1349 C1346 1.417 . S
C1349 C1348 1.426 . S
C1349 N1354 1.350 . S
C1350 C1347 1.437 . S
C1350 C1348 1.413 . S
C1350 C1360 1.391 . S
C1351 C1346 1.431 . S
C1351 C1347 1.317 . S
C1351 H1362 0.930 . S
C1352 C1346 1.412 . S
C1352 C1353 1.355 . S
C1352 H1364 0.930 . S
C1353 C1352 1.355 . S
C1353 C1355 1.402 . S
C1353 H1365 0.930 . S
N1354 Gd1345 2.661 . S
N1354 C1349 1.350 . S
N1354 C1355 1.307 . S
C1355 C1353 1.402 . S
C1355 N1354 1.307 . S
C1355 H1356 0.930 . S
H1356 C1355 0.930 . S
C1357 N1358 1.334 . S
C1357 C1359 1.394 . S
C1357 H1361 0.930 . S
N1358 Gd1345 2.601 . S
N1358 C1348 1.359 . S
N1358 C1357 1.334 . S
C1359 C1357 1.394 . S
C1359 C1360 1.359 . S
C1359 H1371 0.930 . S
C1360 C1350 1.391 . S
C1360 C1359 1.359 . S
C1360 H1372 0.929 . S
H1361 C1357 0.930 . S
H1362 C1351 0.930 . S
H1363 C1380 0.930 . S
H1364 C1352 0.930 . S
H1365 C1353 0.930 . S
H1366 C1347 0.929 . S
H1367 C1385 0.930 . S
H1368 C1376 0.930 . S
H1369 C1377 0.930 . S
H1370 C1401 0.929 . S
H1371 C1359 0.930 . S
H1372 C1360 0.929 . S
H1373 C1402 0.930 . S
H1374 C1383 0.930 . S
N1375 Gd1344 2.661 . S
N1375 C1379 1.350 . S
N1375 C1380 1.307 . S
C1376 H1368 0.930 . S
C1376 C1377 1.355 . S
C1376 C1378 1.412 . S
C1377 H1369 0.930 . S
C1377 C1376 1.355 . S
C1377 C1380 1.402 . S
C1378 C1376 1.412 . S
C1378 C1379 1.417 . S
C1378 C1402 1.431 . S
C1379 N1375 1.350 . S
C1379 C1378 1.417 . S
C1379 C1382 1.426 . S
C1380 H1363 0.930 . S
C1380 N1375 1.307 . S
C1380 C1377 1.402 . S
N1381 Gd1344 2.601 . S
N1381 C1382 1.359 . S
N1381 C1385 1.334 . S
C1382 C1379 1.426 . S
C1382 N1381 1.359 . S
C1382 C1386 1.413 . S
C1383 H1374 0.930 . S
C1383 C1384 1.359 . S
C1383 C1385 1.394 . S
C1384 C1383 1.359 . S
C1384 C1386 1.391 . S
C1384 H1387 0.929 . S
C1385 H1367 0.930 . S
C1385 N1381 1.334 . S
C1385 C1383 1.394 . S
C1386 C1382 1.413 . S
C1386 C1384 1.391 . S
C1386 C1401 1.437 . S
H1387 C1384 0.929 . S
O1388 Gd1344 2.545 . S
O1388 C1403 1.258 . S
O1389 Gd1344 2.606 . S
O1389 Gd1345 2.362 . S
O1389 C1400 1.284 . S
O1390 Gd1345 2.324 . S
O1390 C1410 1.254 . S
O1391 Gd1344 2.429 . S
O1391 C1410 1.268 . S
O1392 Gd1344 2.545 . S
O1392 C1400 1.250 . S
O1393 Gd1344 2.412 . S
O1393 C1403 1.252 . S
O1394 Gd1345 2.545 . S
O1394 C1412 1.258 . S
O1395 Gd1344 2.362 . S
O1395 Gd1345 2.606 . S
O1395 C1411 1.284 . S
O1396 Gd1344 2.324 . S
O1396 C1419 1.254 . S
O1397 Gd1345 2.429 . S
O1397 C1419 1.268 . S
O1398 Gd1345 2.545 . S
O1398 C1411 1.250 . S
O1399 Gd1345 2.412 . S
O1399 C1412 1.252 . S
C1400 O1389 1.284 . S
C1400 O1392 1.250 . S
C1401 H1370 0.929 . S
C1401 C1386 1.437 . S
C1401 C1402 1.317 . S
C1402 H1373 0.930 . S
C1402 C1378 1.431 . S
C1402 C1401 1.317 . S
C1403 Gd1344 2.828 . S
C1403 O1388 1.258 . S
C1403 O1393 1.252 . S
C1403 C1404 1.497 . S
C1404 C1403 1.497 . S
C1404 C1405 1.395 . S
C1404 C1406 1.380 . S
C1405 C1404 1.395 . S
C1405 C1408 1.398 . S
C1405 H1420 0.930 . S
C1406 C1404 1.380 . S
C1406 C1407 1.391 . S
C1406 H1421 0.930 . S
C1407 C1406 1.391 . S
C1407 C1409 1.387 . S
C1408 C1405 1.398 . S
C1408 C1409 1.380 . S
C1408 H1422 0.930 . S
C1409 C1407 1.387 . S
C1409 C1408 1.380 . S
C1409 H1423 0.930 . S
C1410 O1390 1.254 . S
C1410 O1391 1.268 . S
C1411 O1395 1.284 . S
C1411 O1398 1.250 . S
C1412 Gd1345 2.828 . S
C1412 O1394 1.258 . S
C1412 O1399 1.252 . S
C1412 C1413 1.497 . S
C1413 C1412 1.497 . S
C1413 C1414 1.395 . S
C1413 C1415 1.380 . S
C1414 C1413 1.395 . S
C1414 C1417 1.398 . S
C1414 H1424 0.930 . S
C1415 C1413 1.380 . S
C1415 C1416 1.391 . S
C1415 H1425 0.930 . S
C1416 C1415 1.391 . S
C1416 C1418 1.387 . S
C1417 C1414 1.398 . S
C1417 C1418 1.380 . S
C1417 H1426 0.930 . S
C1418 C1416 1.387 . S
C1418 C1417 1.380 . S
C1418 H1427 0.930 . S
C1419 O1396 1.254 . S
C1419 O1397 1.268 . S
H1420 C1405 0.930 . S
H1421 C1406 0.930 . S
H1422 C1408 0.930 . S
H1423 C1409 0.930 . S
H1424 C1414 0.930 . S
H1425 C1415 0.930 . S
H1426 C1417 0.930 . S
H1427 C1418 0.930 . S
Gd1428 N1459 2.661 . S
Gd1428 N1465 2.601 . S
Gd1428 O1472 2.545 . S
Gd1428 O1473 2.606 . S
Gd1428 O1475 2.429 . S
Gd1428 O1476 2.545 . S
Gd1428 O1477 2.412 . S
Gd1428 O1479 2.362 . S
Gd1428 O1480 2.324 . S
Gd1428 C1487 2.828 . S
Gd1429 N1438 2.661 . S
Gd1429 N1442 2.601 . S
Gd1429 O1473 2.362 . S
Gd1429 O1474 2.324 . S
Gd1429 O1478 2.545 . S
Gd1429 O1479 2.606 . S
Gd1429 O1481 2.429 . S
Gd1429 O1482 2.545 . S
Gd1429 O1483 2.412 . S
Gd1429 C1496 2.828 . S
C1430 C1433 1.417 . S
C1430 C1435 1.431 . S
C1430 C1436 1.412 . S
C1431 C1434 1.437 . S
C1431 C1435 1.317 . S
C1431 H1450 0.929 . S
C1432 C1433 1.426 . S
C1432 C1434 1.413 . S
C1432 N1442 1.359 . S
C1433 C1430 1.417 . S
C1433 C1432 1.426 . S
C1433 N1438 1.350 . S
C1434 C1431 1.437 . S
C1434 C1432 1.413 . S
C1434 C1444 1.391 . S
C1435 C1430 1.431 . S
C1435 C1431 1.317 . S
C1435 H1446 0.930 . S
C1436 C1430 1.412 . S
C1436 C1437 1.355 . S
C1436 H1448 0.930 . S
C1437 C1436 1.355 . S
C1437 C1439 1.402 . S
C1437 H1449 0.930 . S
N1438 Gd1429 2.661 . S
N1438 C1433 1.350 . S
N1438 C1439 1.307 . S
C1439 C1437 1.402 . S
C1439 N1438 1.307 . S
C1439 H1440 0.930 . S
H1440 C1439 0.930 . S
C1441 N1442 1.334 . S
C1441 C1443 1.394 . S
C1441 H1445 0.930 . S
N1442 Gd1429 2.601 . S
N1442 C1432 1.359 . S
N1442 C1441 1.334 . S
C1443 C1441 1.394 . S
C1443 C1444 1.359 . S
C1443 H1455 0.930 . S
C1444 C1434 1.391 . S
C1444 C1443 1.359 . S
C1444 H1456 0.929 . S
H1445 C1441 0.930 . S
H1446 C1435 0.930 . S
H1447 C1464 0.930 . S
H1448 C1436 0.930 . S
H1449 C1437 0.930 . S
H1450 C1431 0.929 . S
H1451 C1469 0.930 . S
H1452 C1460 0.930 . S
H1453 C1461 0.930 . S
H1454 C1485 0.929 . S
H1455 C1443 0.930 . S
H1456 C1444 0.929 . S
H1457 C1486 0.930 . S
H1458 C1467 0.930 . S
N1459 Gd1428 2.661 . S
N1459 C1463 1.350 . S
N1459 C1464 1.307 . S
C1460 H1452 0.930 . S
C1460 C1461 1.355 . S
C1460 C1462 1.412 . S
C1461 H1453 0.930 . S
C1461 C1460 1.355 . S
C1461 C1464 1.402 . S
C1462 C1460 1.412 . S
C1462 C1463 1.417 . S
C1462 C1486 1.431 . S
C1463 N1459 1.350 . S
C1463 C1462 1.417 . S
C1463 C1466 1.426 . S
C1464 H1447 0.930 . S
C1464 N1459 1.307 . S
C1464 C1461 1.402 . S
N1465 Gd1428 2.601 . S
N1465 C1466 1.359 . S
N1465 C1469 1.334 . S
C1466 C1463 1.426 . S
C1466 N1465 1.359 . S
C1466 C1470 1.413 . S
C1467 H1458 0.930 . S
C1467 C1468 1.359 . S
C1467 C1469 1.394 . S
C1468 C1467 1.359 . S
C1468 C1470 1.391 . S
C1468 H1471 0.929 . S
C1469 H1451 0.930 . S
C1469 N1465 1.334 . S
C1469 C1467 1.394 . S
C1470 C1466 1.413 . S
C1470 C1468 1.391 . S
C1470 C1485 1.437 . S
H1471 C1468 0.929 . S
O1472 Gd1428 2.545 . S
O1472 C1487 1.258 . S
O1473 Gd1428 2.606 . S
O1473 Gd1429 2.362 . S
O1473 C1484 1.284 . S
O1474 Gd1429 2.324 . S
O1474 C1494 1.254 . S
O1475 Gd1428 2.429 . S
O1475 C1494 1.268 . S
O1476 Gd1428 2.545 . S
O1476 C1484 1.250 . S
O1477 Gd1428 2.412 . S
O1477 C1487 1.252 . S
O1478 Gd1429 2.545 . S
O1478 C1496 1.258 . S
O1479 Gd1428 2.362 . S
O1479 Gd1429 2.606 . S
O1479 C1495 1.284 . S
O1480 Gd1428 2.324 . S
O1480 C1503 1.254 . S
O1481 Gd1429 2.429 . S
O1481 C1503 1.268 . S
O1482 Gd1429 2.545 . S
O1482 C1495 1.250 . S
O1483 Gd1429 2.412 . S
O1483 C1496 1.252 . S
C1484 O1473 1.284 . S
C1484 O1476 1.250 . S
C1485 H1454 0.929 . S
C1485 C1470 1.437 . S
C1485 C1486 1.317 . S
C1486 H1457 0.930 . S
C1486 C1462 1.431 . S
C1486 C1485 1.317 . S
C1487 Gd1428 2.828 . S
C1487 O1472 1.258 . S
C1487 O1477 1.252 . S
C1487 C1488 1.497 . S
C1488 C1487 1.497 . S
C1488 C1489 1.395 . S
C1488 C1490 1.380 . S
C1489 C1488 1.395 . S
C1489 C1492 1.398 . S
C1489 H1504 0.930 . S
C1490 C1488 1.380 . S
C1490 C1491 1.391 . S
C1490 H1505 0.930 . S
C1491 C1490 1.391 . S
C1491 C1493 1.387 . S
C1492 C1489 1.398 . S
C1492 C1493 1.380 . S
C1492 H1506 0.930 . S
C1493 C1491 1.387 . S
C1493 C1492 1.380 . S
C1493 H1507 0.930 . S
C1494 O1474 1.254 . S
C1494 O1475 1.268 . S
C1495 O1479 1.284 . S
C1495 O1482 1.250 . S
C1496 Gd1429 2.828 . S
C1496 O1478 1.258 . S
C1496 O1483 1.252 . S
C1496 C1497 1.497 . S
C1497 C1496 1.497 . S
C1497 C1498 1.395 . S
C1497 C1499 1.380 . S
C1498 C1497 1.395 . S
C1498 C1501 1.398 . S
C1498 H1508 0.930 . S
C1499 C1497 1.380 . S
C1499 C1500 1.391 . S
C1499 H1509 0.930 . S
C1500 C1499 1.391 . S
C1500 C1502 1.387 . S
C1501 C1498 1.398 . S
C1501 C1502 1.380 . S
C1501 H1510 0.930 . S
C1502 C1500 1.387 . S
C1502 C1501 1.380 . S
C1502 H1511 0.930 . S
C1503 O1480 1.254 . S
C1503 O1481 1.268 . S
H1504 C1489 0.930 . S
H1505 C1490 0.930 . S
H1506 C1492 0.930 . S
H1507 C1493 0.930 . S
H1508 C1498 0.930 . S
H1509 C1499 0.930 . S
H1510 C1501 0.930 . S
H1511 C1502 0.930 . S
Gd1512 N1543 2.661 . S
Gd1512 N1549 2.601 . S
Gd1512 O1556 2.545 . S
Gd1512 O1557 2.606 . S
Gd1512 O1559 2.429 . S
Gd1512 O1560 2.545 . S
Gd1512 O1561 2.412 . S
Gd1512 O1563 2.362 . S
Gd1512 O1564 2.324 . S
Gd1512 C1571 2.828 . S
Gd1513 N1522 2.661 . S
Gd1513 N1526 2.601 . S
Gd1513 O1557 2.362 . S
Gd1513 O1558 2.324 . S
Gd1513 O1562 2.545 . S
Gd1513 O1563 2.606 . S
Gd1513 O1565 2.429 . S
Gd1513 O1566 2.545 . S
Gd1513 O1567 2.412 . S
Gd1513 C1580 2.828 . S
C1514 C1517 1.417 . S
C1514 C1519 1.431 . S
C1514 C1520 1.412 . S
C1515 C1518 1.437 . S
C1515 C1519 1.317 . S
C1515 H1534 0.929 . S
C1516 C1517 1.426 . S
C1516 C1518 1.413 . S
C1516 N1526 1.359 . S
C1517 C1514 1.417 . S
C1517 C1516 1.426 . S
C1517 N1522 1.350 . S
C1518 C1515 1.437 . S
C1518 C1516 1.413 . S
C1518 C1528 1.391 . S
C1519 C1514 1.431 . S
C1519 C1515 1.317 . S
C1519 H1530 0.930 . S
C1520 C1514 1.412 . S
C1520 C1521 1.355 . S
C1520 H1532 0.930 . S
C1521 C1520 1.355 . S
C1521 C1523 1.402 . S
C1521 H1533 0.930 . S
N1522 Gd1513 2.661 . S
N1522 C1517 1.350 . S
N1522 C1523 1.307 . S
C1523 C1521 1.402 . S
C1523 N1522 1.307 . S
C1523 H1524 0.930 . S
H1524 C1523 0.930 . S
C1525 N1526 1.334 . S
C1525 C1527 1.394 . S
C1525 H1529 0.930 . S
N1526 Gd1513 2.601 . S
N1526 C1516 1.359 . S
N1526 C1525 1.334 . S
C1527 C1525 1.394 . S
C1527 C1528 1.359 . S
C1527 H1539 0.930 . S
C1528 C1518 1.391 . S
C1528 C1527 1.359 . S
C1528 H1540 0.929 . S
H1529 C1525 0.930 . S
H1530 C1519 0.930 . S
H1531 C1548 0.930 . S
H1532 C1520 0.930 . S
H1533 C1521 0.930 . S
H1534 C1515 0.929 . S
H1535 C1553 0.930 . S
H1536 C1544 0.930 . S
H1537 C1545 0.930 . S
H1538 C1569 0.929 . S
H1539 C1527 0.930 . S
H1540 C1528 0.929 . S
H1541 C1570 0.930 . S
H1542 C1551 0.930 . S
N1543 Gd1512 2.661 . S
N1543 C1547 1.350 . S
N1543 C1548 1.307 . S
C1544 H1536 0.930 . S
C1544 C1545 1.355 . S
C1544 C1546 1.412 . S
C1545 H1537 0.930 . S
C1545 C1544 1.355 . S
C1545 C1548 1.402 . S
C1546 C1544 1.412 . S
C1546 C1547 1.417 . S
C1546 C1570 1.431 . S
C1547 N1543 1.350 . S
C1547 C1546 1.417 . S
C1547 C1550 1.426 . S
C1548 H1531 0.930 . S
C1548 N1543 1.307 . S
C1548 C1545 1.402 . S
N1549 Gd1512 2.601 . S
N1549 C1550 1.359 . S
N1549 C1553 1.334 . S
C1550 C1547 1.426 . S
C1550 N1549 1.359 . S
C1550 C1554 1.413 . S
C1551 H1542 0.930 . S
C1551 C1552 1.359 . S
C1551 C1553 1.394 . S
C1552 C1551 1.359 . S
C1552 C1554 1.391 . S
C1552 H1555 0.929 . S
C1553 H1535 0.930 . S
C1553 N1549 1.334 . S
C1553 C1551 1.394 . S
C1554 C1550 1.413 . S
C1554 C1552 1.391 . S
C1554 C1569 1.437 . S
H1555 C1552 0.929 . S
O1556 Gd1512 2.545 . S
O1556 C1571 1.258 . S
O1557 Gd1512 2.606 . S
O1557 Gd1513 2.362 . S
O1557 C1568 1.284 . S
O1558 Gd1513 2.324 . S
O1558 C1578 1.254 . S
O1559 Gd1512 2.429 . S
O1559 C1578 1.268 . S
O1560 Gd1512 2.545 . S
O1560 C1568 1.250 . S
O1561 Gd1512 2.412 . S
O1561 C1571 1.252 . S
O1562 Gd1513 2.545 . S
O1562 C1580 1.258 . S
O1563 Gd1512 2.362 . S
O1563 Gd1513 2.606 . S
O1563 C1579 1.284 . S
O1564 Gd1512 2.324 . S
O1564 C1587 1.254 . S
O1565 Gd1513 2.429 . S
O1565 C1587 1.268 . S
O1566 Gd1513 2.545 . S
O1566 C1579 1.250 . S
O1567 Gd1513 2.412 . S
O1567 C1580 1.252 . S
C1568 O1557 1.284 . S
C1568 O1560 1.250 . S
C1569 H1538 0.929 . S
C1569 C1554 1.437 . S
C1569 C1570 1.317 . S
C1570 H1541 0.930 . S
C1570 C1546 1.431 . S
C1570 C1569 1.317 . S
C1571 Gd1512 2.828 . S
C1571 O1556 1.258 . S
C1571 O1561 1.252 . S
C1571 C1572 1.497 . S
C1572 C1571 1.497 . S
C1572 C1573 1.395 . S
C1572 C1574 1.380 . S
C1573 C1572 1.395 . S
C1573 C1576 1.398 . S
C1573 H1588 0.930 . S
C1574 C1572 1.380 . S
C1574 C1575 1.391 . S
C1574 H1589 0.930 . S
C1575 C1574 1.391 . S
C1575 C1577 1.387 . S
C1576 C1573 1.398 . S
C1576 C1577 1.380 . S
C1576 H1590 0.930 . S
C1577 C1575 1.387 . S
C1577 C1576 1.380 . S
C1577 H1591 0.930 . S
C1578 O1558 1.254 . S
C1578 O1559 1.268 . S
C1579 O1563 1.284 . S
C1579 O1566 1.250 . S
C1580 Gd1513 2.828 . S
C1580 O1562 1.258 . S
C1580 O1567 1.252 . S
C1580 C1581 1.497 . S
C1581 C1580 1.497 . S
C1581 C1582 1.395 . S
C1581 C1583 1.380 . S
C1582 C1581 1.395 . S
C1582 C1585 1.398 . S
C1582 H1592 0.930 . S
C1583 C1581 1.380 . S
C1583 C1584 1.391 . S
C1583 H1593 0.930 . S
C1584 C1583 1.391 . S
C1584 C1586 1.387 . S
C1585 C1582 1.398 . S
C1585 C1586 1.380 . S
C1585 H1594 0.930 . S
C1586 C1584 1.387 . S
C1586 C1585 1.380 . S
C1586 H1595 0.930 . S
C1587 O1564 1.254 . S
C1587 O1565 1.268 . S
H1588 C1573 0.930 . S
H1589 C1574 0.930 . S
H1590 C1576 0.930 . S
H1591 C1577 0.930 . S
H1592 C1582 0.930 . S
H1593 C1583 0.930 . S
H1594 C1585 0.930 . S
H1595 C1586 0.930 . S
Gd1596 N1627 2.678 . S
Gd1596 N1633 2.601 . S
Gd1596 O1640 2.545 . S
Gd1596 O1641 2.606 . S
Gd1596 O1643 2.429 . S
Gd1596 O1644 2.545 . S
Gd1596 O1645 2.412 1_455 S
Gd1596 O1647 2.362 . S
Gd1596 O1648 2.324 1_554 S
Gd1596 C1655 2.828 1_455 S
Gd1597 N1606 2.661 . S
Gd1597 N1610 2.601 1_554 S
Gd1597 O1641 2.362 . S
Gd1597 O1642 2.324 . S
Gd1597 O1646 2.545 1_554 S
Gd1597 O1647 2.606 . S
Gd1597 O1649 2.429 1_554 S
Gd1597 O1650 2.542 . S
Gd1597 O1651 2.412 . S
Gd1597 C1664 2.828 1_554 S
C1598 C1601 1.417 . S
C1598 C1603 1.431 . S
C1598 C1604 1.412 . S
C1599 C1602 1.437 . S
C1599 C1603 1.317 1_556 S
C1599 H1618 0.929 . S
C1600 C1601 1.426 1_556 S
C1600 C1602 1.413 . S
C1600 N1610 1.359 . S
C1601 C1598 1.417 . S
C1601 C1600 1.426 1_554 S
C1601 N1606 1.350 . S
C1602 C1599 1.437 . S
C1602 C1600 1.413 . S
C1602 C1612 1.391 . S
C1603 C1598 1.431 . S
C1603 C1599 1.317 1_554 S
C1603 H1614 0.930 . S
C1604 C1598 1.412 . S
C1604 C1605 1.355 . S
C1604 H1616 0.930 . S
C1605 C1604 1.355 . S
C1605 C1607 1.402 . S
C1605 H1617 0.930 . S
N1606 Gd1597 2.661 . S
N1606 C1601 1.350 . S
N1606 C1607 1.307 . S
C1607 C1605 1.402 . S
C1607 N1606 1.307 . S
C1607 H1608 0.930 . S
H1608 C1607 0.930 . S
C1609 N1610 1.334 . S
C1609 C1611 1.394 . S
C1609 H1613 0.930 . S
N1610 Gd1597 2.601 1_556 S
N1610 C1600 1.359 . S
N1610 C1609 1.334 . S
C1611 C1609 1.394 . S
C1611 C1612 1.359 . S
C1611 H1623 0.930 . S
C1612 C1602 1.391 . S
C1612 C1611 1.359 . S
C1612 H1624 0.929 . S
H1613 C1609 0.930 . S
H1614 C1603 0.930 . S
H1615 C1632 0.930 1_455 S
H1616 C1604 0.930 . S
H1617 C1605 0.930 . S
H1618 C1599 0.929 . S
H1619 C1637 0.930 . S
H1620 C1628 0.930 . S
H1621 C1629 0.930 . S
H1622 C1653 0.929 . S
H1623 C1611 0.930 . S
H1624 C1612 0.929 . S
H1625 C1654 0.930 . S
H1626 C1635 0.930 . S
N1627 Gd1596 2.678 . S
N1627 C1631 1.336 1_455 S
N1627 C1632 1.306 1_454 S
C1628 H1620 0.930 . S
C1628 C1629 1.355 . S
C1628 C1630 1.412 1_556 S
C1629 H1621 0.930 . S
C1629 C1628 1.355 . S
C1629 C1632 1.402 . S
C1630 C1628 1.412 1_554 S
C1630 C1631 1.417 . S
C1630 C1654 1.431 . S
C1631 N1627 1.336 1_655 S
C1631 C1630 1.417 . S
C1631 C1634 1.426 . S
C1632 H1615 0.930 1_655 S
C1632 N1627 1.306 1_656 S
C1632 C1629 1.402 . S
N1633 Gd1596 2.601 . S
N1633 C1634 1.359 1_455 S
N1633 C1637 1.334 . S
C1634 C1631 1.426 . S
C1634 N1633 1.359 1_655 S
C1634 C1638 1.413 . S
C1635 H1626 0.930 . S
C1635 C1636 1.359 1_455 S
C1635 C1637 1.394 . S
C1636 C1635 1.359 1_655 S
C1636 C1638 1.391 . S
C1636 H1639 0.929 . S
C1637 H1619 0.930 . S
C1637 N1633 1.334 . S
C1637 C1635 1.394 . S
C1638 C1634 1.413 . S
C1638 C1636 1.391 . S
C1638 C1653 1.437 . S
H1639 C1636 0.929 . S
O1640 Gd1596 2.545 . S
O1640 C1655 1.258 1_455 S
O1641 Gd1596 2.606 . S
O1641 Gd1597 2.362 . S
O1641 C1652 1.284 . S
O1642 Gd1597 2.324 . S
O1642 C1662 1.254 . S
O1643 Gd1596 2.429 . S
O1643 C1662 1.268 . S
O1644 Gd1596 2.545 . S
O1644 C1652 1.250 . S
O1645 Gd1596 2.412 1_655 S
O1645 C1655 1.252 . S
O1646 Gd1597 2.545 1_556 S
O1646 C1664 1.258 . S
O1647 Gd1596 2.362 . S
O1647 Gd1597 2.606 . S
O1647 C1663 1.284 . S
O1648 Gd1596 2.324 1_556 S
O1648 C1671 1.254 . S
O1649 Gd1597 2.429 1_556 S
O1649 C1671 1.268 . S
O1650 Gd1597 2.542 . S
O1650 C1663 1.265 . S
O1651 Gd1597 2.412 . S
O1651 C1664 1.252 1_554 S
C1652 O1641 1.284 . S
C1652 O1644 1.250 . S
C1653 H1622 0.929 . S
C1653 C1638 1.437 . S
C1653 C1654 1.317 . S
C1654 H1625 0.930 . S
C1654 C1630 1.431 . S
C1654 C1653 1.317 . S
C1655 Gd1596 2.828 1_655 S
C1655 O1640 1.258 1_655 S
C1655 O1645 1.252 . S
C1655 C1656 1.497 . S
C1656 C1655 1.497 . S
C1656 C1657 1.395 . S
C1656 C1658 1.380 . S
C1657 C1656 1.395 . S
C1657 C1660 1.398 . S
C1657 H1672 0.930 . S
C1658 C1656 1.380 . S
C1658 C1659 1.391 . S
C1658 H1673 0.930 . S
C1659 C1658 1.391 . S
C1659 C1661 1.387 . S
C1660 C1657 1.398 . S
C1660 C1661 1.380 . S
C1660 H1674 0.930 . S
C1661 C1659 1.387 . S
C1661 C1660 1.380 . S
C1661 H1675 0.930 . S
C1662 O1642 1.254 . S
C1662 O1643 1.268 . S
C1663 O1647 1.284 . S
C1663 O1650 1.265 . S
C1664 Gd1597 2.828 1_556 S
C1664 O1646 1.258 . S
C1664 O1651 1.252 1_556 S
C1664 C1665 1.497 . S
C1665 C1664 1.497 . S
C1665 C1666 1.395 . S
C1665 C1667 1.380 1_556 S
C1666 C1665 1.395 . S
C1666 C1669 1.398 . S
C1666 H1676 0.930 . S
C1667 C1665 1.380 1_554 S
C1667 C1668 1.391 1_554 S
C1667 H1677 0.930 . S
C1668 C1667 1.391 1_556 S
C1668 C1670 1.387 . S
C1669 C1666 1.398 . S
C1669 C1670 1.380 . S
C1669 H1678 0.930 . S
C1670 C1668 1.387 . S
C1670 C1669 1.380 . S
C1670 H1679 0.930 . S
C1671 O1648 1.254 . S
C1671 O1649 1.268 . S
H1672 C1657 0.930 . S
H1673 C1658 0.930 . S
H1674 C1660 0.930 . S
H1675 C1661 0.930 . S
H1676 C1666 0.930 . S
H1677 C1667 0.930 . S
H1678 C1669 0.930 . S
H1679 C1670 0.930 . S
C1680 C1681 1.391 . S
C1680 C1682 1.394 . S
C1680 H1696 0.931 . S
C1681 C1680 1.391 . S
C1681 C1685 1.376 . S
C1682 C1680 1.394 . S
C1682 C1683 1.369 . S
C1682 C1686 1.531 . S
C1683 C1682 1.369 . S
C1683 C1684 1.410 . S
C1683 C1691 1.503 . S
C1684 C1683 1.410 . S
C1684 C1685 1.392 . S
C1684 C1687 1.511 1_456 S
C1685 C1681 1.376 . S
C1685 C1684 1.392 . S
C1685 H1697 0.929 1_455 S
C1686 C1682 1.531 . S
C1686 H1698 0.960 . S
C1686 H1699 0.962 . S
C1686 H1700 0.960 . S
C1687 C1684 1.511 1_654 S
C1687 H1701 0.961 1_554 S
C1687 H1702 0.959 . S
C1687 H1703 0.961 . S
C1688 C1689 1.370 1_556 S
C1688 C1690 1.363 . S
C1688 H1704 0.931 . S
C1689 C1688 1.370 1_554 S
C1689 C1693 1.408 . S
C1690 C1688 1.363 . S
C1690 C1691 1.370 . S
C1690 C1694 1.524 . S
C1691 C1683 1.503 . S
C1691 C1690 1.370 . S
C1691 C1692 1.403 1_556 S
C1692 C1691 1.403 1_554 S
C1692 C1693 1.404 . S
C1692 C1695 1.539 . S
C1693 C1689 1.408 . S
C1693 C1692 1.404 . S
C1693 H1705 0.930 . S
C1694 C1690 1.524 . S
C1694 H1706 0.956 . S
C1694 H1707 0.961 . S
C1694 H1708 0.961 . S
C1695 C1692 1.539 . S
C1695 H1709 0.958 . S
C1695 H1710 0.961 . S
C1695 H1711 0.960 . S
H1696 C1680 0.931 . S
H1697 C1685 0.929 1_655 S
H1698 C1686 0.960 . S
H1699 C1686 0.962 . S
H1700 C1686 0.960 . S
H1701 C1687 0.961 1_556 S
H1702 C1687 0.959 . S
H1703 C1687 0.961 . S
H1704 C1688 0.931 . S
H1705 C1693 0.930 . S
H1706 C1694 0.956 . S
H1707 C1694 0.961 . S
H1708 C1694 0.961 . S
H1709 C1695 0.958 . S
H1710 C1695 0.961 . S
H1711 C1695 0.960 . S
C1712 C1713 1.391 . S
C1712 C1714 1.394 . S
C1712 H1728 0.931 . S
C1713 C1712 1.391 . S
C1713 C1717 1.376 . S
C1714 C1712 1.394 . S
C1714 C1715 1.369 . S
C1714 C1718 1.531 . S
C1715 C1714 1.369 . S
C1715 C1716 1.410 . S
C1715 C1723 1.503 . S
C1716 C1715 1.410 . S
C1716 C1717 1.392 . S
C1716 C1719 1.511 . S
C1717 C1713 1.376 . S
C1717 C1716 1.392 . S
C1717 H1729 0.929 . S
C1718 C1714 1.531 . S
C1718 H1730 0.960 . S
C1718 H1731 0.962 . S
C1718 H1732 0.960 . S
C1719 C1716 1.511 . S
C1719 H1733 0.961 . S
C1719 H1734 0.961 . S
C1719 H1735 0.961 . S
C1720 C1721 1.370 . S
C1720 C1722 1.363 . S
C1720 H1736 0.931 . S
C1721 C1720 1.370 . S
C1721 C1725 1.408 . S
C1722 C1720 1.363 . S
C1722 C1723 1.370 . S
C1722 C1726 1.524 . S
C1723 C1715 1.503 . S
C1723 C1722 1.370 . S
C1723 C1724 1.403 . S
C1724 C1723 1.403 . S
C1724 C1725 1.404 . S
C1724 C1727 1.539 . S
C1725 C1721 1.408 . S
C1725 C1724 1.404 . S
C1725 H1737 0.930 . S
C1726 C1722 1.524 . S
C1726 H1738 0.956 . S
C1726 H1739 0.961 . S
C1726 H1740 0.961 . S
C1727 C1724 1.539 . S
C1727 H1741 0.958 . S
C1727 H1742 0.961 . S
C1727 H1743 0.960 . S
H1728 C1712 0.931 . S
H1729 C1717 0.929 . S
H1730 C1718 0.960 . S
H1731 C1718 0.962 . S
H1732 C1718 0.960 . S
H1733 C1719 0.961 . S
H1734 C1719 0.961 . S
H1735 C1719 0.961 . S
H1736 C1720 0.931 . S
H1737 C1725 0.930 . S
H1738 C1726 0.956 . S
H1739 C1726 0.961 . S
H1740 C1726 0.961 . S
H1741 C1727 0.958 . S
H1742 C1727 0.961 . S
H1743 C1727 0.960 . S
C1744 C1745 1.391 . S
C1744 C1746 1.394 . S
C1744 H1760 0.931 . S
C1745 C1744 1.391 . S
C1745 C1749 1.376 . S
C1746 C1744 1.394 . S
C1746 C1747 1.369 . S
C1746 C1750 1.531 . S
C1747 C1746 1.369 . S
C1747 C1748 1.410 . S
C1747 C1755 1.503 . S
C1748 C1747 1.410 . S
C1748 C1749 1.392 . S
C1748 C1751 1.511 . S
C1749 C1745 1.376 . S
C1749 C1748 1.392 . S
C1749 H1761 0.929 . S
C1750 C1746 1.531 . S
C1750 H1762 0.960 . S
C1750 H1763 0.962 . S
C1750 H1764 0.960 . S
C1751 C1748 1.511 . S
C1751 H1765 0.961 . S
C1751 H1766 0.961 . S
C1751 H1767 0.961 . S
C1752 C1753 1.370 . S
C1752 C1754 1.363 . S
C1752 H1768 0.931 . S
C1753 C1752 1.370 . S
C1753 C1757 1.408 . S
C1754 C1752 1.363 . S
C1754 C1755 1.370 . S
C1754 C1758 1.524 . S
C1755 C1747 1.503 . S
C1755 C1754 1.370 . S
C1755 C1756 1.403 . S
C1756 C1755 1.403 . S
C1756 C1757 1.404 . S
C1756 C1759 1.539 . S
C1757 C1753 1.408 . S
C1757 C1756 1.404 . S
C1757 H1769 0.930 . S
C1758 C1754 1.524 . S
C1758 H1770 0.956 . S
C1758 H1771 0.961 . S
C1758 H1772 0.961 . S
C1759 C1756 1.539 . S
C1759 H1773 0.958 . S
C1759 H1774 0.961 . S
C1759 H1775 0.960 . S
H1760 C1744 0.931 . S
H1761 C1749 0.929 . S
H1762 C1750 0.960 . S
H1763 C1750 0.962 . S
H1764 C1750 0.960 . S
H1765 C1751 0.961 . S
H1766 C1751 0.961 . S
H1767 C1751 0.961 . S
H1768 C1752 0.931 . S
H1769 C1757 0.930 . S
H1770 C1758 0.956 . S
H1771 C1758 0.961 . S
H1772 C1758 0.961 . S
H1773 C1759 0.958 . S
H1774 C1759 0.961 . S
H1775 C1759 0.960 . S
C1776 C1777 1.391 . S
C1776 C1778 1.394 . S
C1776 H1792 0.931 . S
C1777 C1776 1.391 . S
C1777 C1781 1.376 . S
C1778 C1776 1.394 . S
C1778 C1779 1.369 . S
C1778 C1782 1.531 . S
C1779 C1778 1.369 . S
C1779 C1780 1.410 . S
C1779 C1787 1.503 . S
C1780 C1779 1.410 . S
C1780 C1781 1.392 . S
C1780 C1783 1.511 . S
C1781 C1777 1.376 . S
C1781 C1780 1.392 . S
C1781 H1793 0.929 . S
C1782 C1778 1.531 . S
C1782 H1794 0.960 . S
C1782 H1795 0.962 . S
C1782 H1796 0.960 . S
C1783 C1780 1.511 . S
C1783 H1797 0.961 . S
C1783 H1798 0.961 . S
C1783 H1799 0.961 . S
C1784 C1785 1.370 . S
C1784 C1786 1.363 . S
C1784 H1800 0.931 . S
C1785 C1784 1.370 . S
C1785 C1789 1.408 . S
C1786 C1784 1.363 . S
C1786 C1787 1.370 . S
C1786 C1790 1.524 . S
C1787 C1779 1.503 . S
C1787 C1786 1.370 . S
C1787 C1788 1.403 . S
C1788 C1787 1.403 . S
C1788 C1789 1.404 . S
C1788 C1791 1.539 . S
C1789 C1785 1.408 . S
C1789 C1788 1.404 . S
C1789 H1801 0.930 . S
C1790 C1786 1.524 . S
C1790 H1802 0.956 . S
C1790 H1803 0.961 . S
C1790 H1804 0.961 . S
C1791 C1788 1.539 . S
C1791 H1805 0.958 . S
C1791 H1806 0.961 . S
C1791 H1807 0.960 . S
H1792 C1776 0.931 . S
H1793 C1781 0.929 . S
H1794 C1782 0.960 . S
H1795 C1782 0.962 . S
H1796 C1782 0.960 . S
H1797 C1783 0.961 . S
H1798 C1783 0.961 . S
H1799 C1783 0.961 . S
H1800 C1784 0.931 . S
H1801 C1789 0.930 . S
H1802 C1790 0.956 . S
H1803 C1790 0.961 . S
H1804 C1790 0.961 . S
H1805 C1791 0.958 . S
H1806 C1791 0.961 . S
H1807 C1791 0.960 . S
C1808 C1809 1.414 . S
C1808 C1810 1.401 . S
C1808 H1824 0.902 1_455 S
C1809 C1808 1.414 . S
C1809 C1813 1.376 . S
C1810 C1808 1.401 . S
C1810 C1811 1.369 . S
C1810 C1814 1.531 1_455 S
C1811 C1810 1.369 . S
C1811 C1812 1.410 . S
C1811 C1819 1.503 . S
C1812 C1811 1.410 . S
C1812 C1813 1.392 . S
C1812 C1815 1.511 . S
C1813 C1809 1.376 . S
C1813 C1812 1.392 . S
C1813 H1825 0.929 . S
C1814 C1810 1.531 1_655 S
C1814 H1826 0.960 1_655 S
C1814 H1827 0.962 . S
C1814 H1828 0.960 . S
C1815 C1812 1.511 . S
C1815 H1829 0.961 . S
C1815 H1830 0.961 . S
C1815 H1831 0.961 . S
C1816 C1817 1.370 . S
C1816 C1818 1.363 . S
C1816 H1832 0.931 . S
C1817 C1816 1.370 . S
C1817 C1821 1.408 . S
C1818 C1816 1.363 . S
C1818 C1819 1.370 . S
C1818 C1822 1.524 . S
C1819 C1811 1.503 . S
C1819 C1818 1.370 . S
C1819 C1820 1.403 . S
C1820 C1819 1.403 . S
C1820 C1821 1.404 . S
C1820 C1823 1.539 . S
C1821 C1817 1.408 . S
C1821 C1820 1.404 . S
C1821 H1833 0.930 . S
C1822 C1818 1.524 . S
C1822 H1834 0.956 1_455 S
C1822 H1835 0.961 . S
C1822 H1836 0.961 . S
C1823 C1820 1.539 . S
C1823 H1837 0.958 . S
C1823 H1838 0.961 . S
C1823 H1839 0.960 . S
H1824 C1808 0.902 1_655 S
H1825 C1813 0.929 . S
H1826 C1814 0.960 1_455 S
H1827 C1814 0.962 . S
H1828 C1814 0.960 . S
H1829 C1815 0.961 . S
H1830 C1815 0.961 . S
H1831 C1815 0.961 . S
H1832 C1816 0.931 . S
H1833 C1821 0.930 . S
H1834 C1822 0.956 1_655 S
H1835 C1822 0.961 . S
H1836 C1822 0.961 . S
H1837 C1823 0.958 . S
H1838 C1823 0.961 . S
H1839 C1823 0.960 . S
C1840 C1841 1.391 . S
C1840 C1842 1.394 . S
C1840 H1856 0.931 . S
C1841 C1840 1.391 . S
C1841 C1845 1.376 . S
C1842 C1840 1.394 . S
C1842 C1843 1.369 . S
C1842 C1846 1.531 . S
C1843 C1842 1.369 . S
C1843 C1844 1.410 . S
C1843 C1851 1.503 . S
C1844 C1843 1.410 . S
C1844 C1845 1.392 . S
C1844 C1847 1.511 . S
C1845 C1841 1.376 . S
C1845 C1844 1.392 . S
C1845 H1857 0.929 . S
C1846 C1842 1.531 . S
C1846 H1858 0.960 . S
C1846 H1859 0.962 . S
C1846 H1860 0.960 . S
C1847 C1844 1.511 . S
C1847 H1861 0.961 . S
C1847 H1862 0.961 . S
C1847 H1863 0.961 . S
C1848 C1849 1.370 . S
C1848 C1850 1.363 . S
C1848 H1864 0.931 . S
C1849 C1848 1.370 . S
C1849 C1853 1.408 . S
C1850 C1848 1.363 . S
C1850 C1851 1.370 . S
C1850 C1854 1.524 . S
C1851 C1843 1.503 . S
C1851 C1850 1.370 . S
C1851 C1852 1.403 . S
C1852 C1851 1.403 . S
C1852 C1853 1.404 . S
C1852 C1855 1.539 . S
C1853 C1849 1.408 . S
C1853 C1852 1.404 . S
C1853 H1865 0.930 . S
C1854 C1850 1.524 . S
C1854 H1866 0.956 . S
C1854 H1867 0.961 . S
C1854 H1868 0.961 . S
C1855 C1852 1.539 . S
C1855 H1869 0.958 . S
C1855 H1870 0.961 . S
C1855 H1871 0.960 . S
H1856 C1840 0.931 . S
H1857 C1845 0.929 . S
H1858 C1846 0.960 . S
H1859 C1846 0.962 . S
H1860 C1846 0.960 . S
H1861 C1847 0.961 . S
H1862 C1847 0.961 . S
H1863 C1847 0.961 . S
H1864 C1848 0.931 . S
H1865 C1853 0.930 . S
H1866 C1854 0.956 . S
H1867 C1854 0.961 . S
H1868 C1854 0.961 . S
H1869 C1855 0.958 . S
H1870 C1855 0.961 . S
H1871 C1855 0.960 . S
C1872 C1873 1.391 . S
C1872 C1874 1.394 . S
C1872 H1888 0.931 . S
C1873 C1872 1.391 . S
C1873 C1877 1.376 . S
C1874 C1872 1.394 . S
C1874 C1875 1.369 . S
C1874 C1878 1.531 . S
C1875 C1874 1.369 . S
C1875 C1876 1.410 . S
C1875 C1883 1.503 . S
C1876 C1875 1.410 . S
C1876 C1877 1.392 . S
C1876 C1879 1.511 . S
C1877 C1873 1.376 . S
C1877 C1876 1.392 . S
C1877 H1889 0.929 . S
C1878 C1874 1.531 . S
C1878 H1890 0.960 . S
C1878 H1891 0.962 . S
C1878 H1892 0.960 . S
C1879 C1876 1.511 . S
C1879 H1893 0.961 . S
C1879 H1894 0.961 . S
C1879 H1895 0.961 . S
C1880 C1881 1.370 . S
C1880 C1882 1.363 . S
C1880 H1896 0.931 . S
C1881 C1880 1.370 . S
C1881 C1885 1.408 . S
C1882 C1880 1.363 . S
C1882 C1883 1.370 . S
C1882 C1886 1.524 . S
C1883 C1875 1.503 . S
C1883 C1882 1.370 . S
C1883 C1884 1.403 . S
C1884 C1883 1.403 . S
C1884 C1885 1.404 . S
C1884 C1887 1.539 . S
C1885 C1881 1.408 . S
C1885 C1884 1.404 . S
C1885 H1897 0.930 . S
C1886 C1882 1.524 . S
C1886 H1898 0.956 . S
C1886 H1899 0.961 . S
C1886 H1900 0.961 . S
C1887 C1884 1.539 . S
C1887 H1901 0.958 . S
C1887 H1902 0.961 . S
C1887 H1903 0.960 . S
H1888 C1872 0.931 . S
H1889 C1877 0.929 . S
H1890 C1878 0.960 . S
H1891 C1878 0.962 . S
H1892 C1878 0.960 . S
H1893 C1879 0.961 . S
H1894 C1879 0.961 . S
H1895 C1879 0.961 . S
H1896 C1880 0.931 . S
H1897 C1885 0.930 . S
H1898 C1886 0.956 . S
H1899 C1886 0.961 . S
H1900 C1886 0.961 . S
H1901 C1887 0.958 . S
H1902 C1887 0.961 . S
H1903 C1887 0.960 . S
C1904 C1905 1.391 . S
C1904 C1906 1.394 . S
C1904 H1920 0.931 . S
C1905 C1904 1.391 . S
C1905 C1909 1.376 . S
C1906 C1904 1.394 . S
C1906 C1907 1.369 . S
C1906 C1910 1.531 . S
C1907 C1906 1.369 . S
C1907 C1908 1.410 . S
C1907 C1915 1.503 . S
C1908 C1907 1.410 . S
C1908 C1909 1.392 . S
C1908 C1911 1.511 . S
C1909 C1905 1.376 . S
C1909 C1908 1.392 . S
C1909 H1921 0.929 . S
C1910 C1906 1.531 . S
C1910 H1922 0.960 . S
C1910 H1923 0.962 . S
C1910 H1924 0.960 . S
C1911 C1908 1.511 . S
C1911 H1925 0.961 . S
C1911 H1926 0.961 . S
C1911 H1927 0.961 . S
C1912 C1913 1.370 . S
C1912 C1914 1.363 . S
C1912 H1928 0.931 . S
C1913 C1912 1.370 . S
C1913 C1917 1.408 . S
C1914 C1912 1.363 . S
C1914 C1915 1.370 . S
C1914 C1918 1.524 . S
C1915 C1907 1.503 . S
C1915 C1914 1.370 . S
C1915 C1916 1.403 . S
C1916 C1915 1.403 . S
C1916 C1917 1.404 . S
C1916 C1919 1.539 . S
C1917 C1913 1.408 . S
C1917 C1916 1.404 . S
C1917 H1929 0.930 . S
C1918 C1914 1.524 . S
C1918 H1930 0.956 . S
C1918 H1931 0.961 . S
C1918 H1932 0.961 . S
C1919 C1916 1.539 . S
C1919 H1933 0.958 . S
C1919 H1934 0.961 . S
C1919 H1935 0.960 . S
H1920 C1904 0.931 . S
H1921 C1909 0.929 . S
H1922 C1910 0.960 . S
H1923 C1910 0.962 . S
H1924 C1910 0.960 . S
H1925 C1911 0.961 . S
H1926 C1911 0.961 . S
H1927 C1911 0.961 . S
H1928 C1912 0.931 . S
H1929 C1917 0.930 . S
H1930 C1918 0.956 . S
H1931 C1918 0.961 . S
H1932 C1918 0.961 . S
H1933 C1919 0.958 . S
H1934 C1919 0.961 . S
H1935 C1919 0.960 . S
C1936 C1937 1.391 . S
C1936 C1938 1.394 . S
C1936 H1952 0.931 . S
C1937 C1936 1.391 . S
C1937 C1941 1.376 . S
C1938 C1936 1.394 . S
C1938 C1939 1.369 1_655 S
C1938 C1942 1.531 . S
C1939 C1938 1.369 1_455 S
C1939 C1940 1.410 . S
C1939 C1947 1.503 . S
C1940 C1939 1.410 . S
C1940 C1941 1.392 1_455 S
C1940 C1943 1.511 . S
C1941 C1937 1.376 . S
C1941 C1940 1.392 1_655 S
C1941 H1953 0.943 . S
C1942 C1938 1.531 . S
C1942 H1954 0.960 . S
C1942 H1955 0.962 . S
C1942 H1956 0.960 . S
C1943 C1940 1.511 . S
C1943 H1957 0.961 . S
C1943 H1958 0.961 . S
C1943 H1959 0.961 . S
C1944 C1945 1.370 . S
C1944 C1946 1.363 . S
C1944 H1960 0.931 . S
C1945 C1944 1.370 . S
C1945 C1949 1.408 . S
C1946 C1944 1.363 . S
C1946 C1947 1.370 . S
C1946 C1950 1.524 1_455 S
C1947 C1939 1.503 . S
C1947 C1946 1.370 . S
C1947 C1948 1.403 . S
C1948 C1947 1.403 . S
C1948 C1949 1.404 . S
C1948 C1951 1.539 . S
C1949 C1945 1.408 . S
C1949 C1948 1.404 . S
C1949 H1961 0.930 . S
C1950 C1946 1.524 1_655 S
C1950 H1962 0.956 . S
C1950 H1963 0.961 . S
C1950 H1964 0.961 . S
C1951 C1948 1.539 . S
C1951 H1965 0.958 . S
C1951 H1966 0.961 . S
C1951 H1967 0.960 . S
H1952 C1936 0.931 . S
H1953 C1941 0.943 . S
H1954 C1942 0.960 . S
H1955 C1942 0.962 . S
H1956 C1942 0.960 . S
H1957 C1943 0.961 . S
H1958 C1943 0.961 . S
H1959 C1943 0.961 . S
H1960 C1944 0.931 . S
H1961 C1949 0.930 . S
H1962 C1950 0.956 . S
H1963 C1950 0.961 . S
H1964 C1950 0.961 . S
H1965 C1951 0.958 . S
H1966 C1951 0.961 . S
H1967 C1951 0.960 . S
C1968 C1969 1.391 . S
C1968 C1970 1.394 . S
C1968 H1984 0.931 . S
C1969 C1968 1.391 . S
C1969 C1973 1.376 . S
C1970 C1968 1.394 . S
C1970 C1971 1.369 . S
C1970 C1974 1.531 . S
C1971 C1970 1.369 . S
C1971 C1972 1.410 . S
C1971 C1979 1.503 . S
C1972 C1971 1.410 . S
C1972 C1973 1.392 . S
C1972 C1975 1.511 . S
C1973 C1969 1.376 . S
C1973 C1972 1.392 . S
C1973 H1985 0.929 . S
C1974 C1970 1.531 . S
C1974 H1986 0.960 . S
C1974 H1987 0.962 . S
C1974 H1988 0.960 . S
C1975 C1972 1.511 . S
C1975 H1989 0.961 . S
C1975 H1990 0.961 . S
C1975 H1991 0.961 . S
C1976 C1977 1.370 . S
C1976 C1978 1.363 . S
C1976 H1992 0.931 . S
C1977 C1976 1.370 . S
C1977 C1981 1.408 . S
C1978 C1976 1.363 . S
C1978 C1979 1.370 . S
C1978 C1982 1.524 . S
C1979 C1971 1.503 . S
C1979 C1978 1.370 . S
C1979 C1980 1.403 . S
C1980 C1979 1.403 . S
C1980 C1981 1.404 . S
C1980 C1983 1.539 . S
C1981 C1977 1.408 . S
C1981 C1980 1.404 . S
C1981 H1993 0.930 . S
C1982 C1978 1.524 . S
C1982 H1994 0.956 . S
C1982 H1995 0.961 . S
C1982 H1996 0.961 . S
C1983 C1980 1.539 . S
C1983 H1997 0.958 . S
C1983 H1998 0.961 . S
C1983 H1999 0.960 . S
H1984 C1968 0.931 . S
H1985 C1973 0.929 . S
H1986 C1974 0.960 . S
H1987 C1974 0.962 . S
H1988 C1974 0.960 . S
H1989 C1975 0.961 . S
H1990 C1975 0.961 . S
H1991 C1975 0.961 . S
H1992 C1976 0.931 . S
H1993 C1981 0.930 . S
H1994 C1982 0.956 . S
H1995 C1982 0.961 . S
H1996 C1982 0.961 . S
H1997 C1983 0.958 . S
H1998 C1983 0.961 . S
H1999 C1983 0.960 . S
C2000 C2001 1.391 . S
C2000 C2002 1.394 . S
C2000 H2016 0.931 . S
C2001 C2000 1.391 . S
C2001 C2005 1.376 . S
C2002 C2000 1.394 . S
C2002 C2003 1.369 . S
C2002 C2006 1.531 . S
C2003 C2002 1.369 . S
C2003 C2004 1.410 . S
C2003 C2011 1.503 . S
C2004 C2003 1.410 . S
C2004 C2005 1.392 . S
C2004 C2007 1.511 . S
C2005 C2001 1.376 . S
C2005 C2004 1.392 . S
C2005 H2017 0.929 . S
C2006 C2002 1.531 . S
C2006 H2018 0.960 . S
C2006 H2019 0.962 . S
C2006 H2020 0.968 . S
C2007 C2004 1.511 . S
C2007 H2021 0.961 . S
C2007 H2022 0.961 . S
C2007 H2023 0.961 . S
C2008 C2009 1.370 . S
C2008 C2010 1.363 . S
C2008 H2024 0.931 . S
C2009 C2008 1.370 . S
C2009 C2013 1.408 . S
C2010 C2008 1.363 . S
C2010 C2011 1.370 . S
C2010 C2014 1.524 . S
C2011 C2003 1.503 . S
C2011 C2010 1.370 . S
C2011 C2012 1.403 . S
C2012 C2011 1.403 . S
C2012 C2013 1.404 . S
C2012 C2015 1.539 1_545 S
C2013 C2009 1.408 . S
C2013 C2012 1.404 . S
C2013 H2025 0.930 1_545 S
C2014 C2010 1.524 . S
C2014 H2026 0.956 . S
C2014 H2027 0.961 . S
C2014 H2028 0.961 . S
C2015 C2012 1.539 1_565 S
C2015 H2029 0.958 . S
C2015 H2030 0.961 . S
C2015 H2031 0.960 . S
H2016 C2000 0.931 . S
H2017 C2005 0.929 . S
H2018 C2006 0.960 . S
H2019 C2006 0.962 . S
H2020 C2006 0.968 . S
H2021 C2007 0.961 . S
H2022 C2007 0.961 . S
H2023 C2007 0.961 . S
H2024 C2008 0.931 . S
H2025 C2013 0.930 1_565 S
H2026 C2014 0.956 . S
H2027 C2014 0.961 . S
H2028 C2014 0.961 . S
H2029 C2015 0.958 . S
H2030 C2015 0.961 . S
H2031 C2015 0.960 . S
C2032 C2033 1.391 . S
C2032 C2034 1.394 . S
C2032 H2048 0.931 . S
C2033 C2032 1.391 . S
C2033 C2037 1.376 . S
C2034 C2032 1.394 . S
C2034 C2035 1.369 . S
C2034 C2038 1.531 . S
C2035 C2034 1.369 . S
C2035 C2036 1.410 . S
C2035 C2043 1.503 . S
C2036 C2035 1.410 . S
C2036 C2037 1.392 . S
C2036 C2039 1.511 . S
C2037 C2033 1.376 . S
C2037 C2036 1.392 . S
C2037 H2049 0.929 . S
C2038 C2034 1.531 . S
C2038 H2050 0.960 . S
C2038 H2051 0.962 . S
C2038 H2052 0.960 . S
C2039 C2036 1.511 . S
C2039 H2053 0.961 . S
C2039 H2054 0.961 . S
C2039 H2055 0.961 . S
C2040 C2041 1.370 . S
C2040 C2042 1.363 . S
C2040 H2056 0.931 . S
C2041 C2040 1.370 . S
C2041 C2045 1.408 . S
C2042 C2040 1.363 . S
C2042 C2043 1.370 . S
C2042 C2046 1.524 . S
C2043 C2035 1.503 . S
C2043 C2042 1.370 . S
C2043 C2044 1.403 . S
C2044 C2043 1.403 . S
C2044 C2045 1.404 . S
C2044 C2047 1.539 . S
C2045 C2041 1.408 . S
C2045 C2044 1.404 . S
C2045 H2057 0.930 . S
C2046 C2042 1.524 . S
C2046 H2058 0.956 . S
C2046 H2059 0.961 . S
C2046 H2060 0.961 . S
C2047 C2044 1.539 . S
C2047 H2061 0.958 . S
C2047 H2062 0.961 . S
C2047 H2063 0.960 . S
H2048 C2032 0.931 . S
H2049 C2037 0.929 . S
H2050 C2038 0.960 . S
H2051 C2038 0.962 . S
H2052 C2038 0.960 . S
H2053 C2039 0.961 . S
H2054 C2039 0.961 . S
H2055 C2039 0.961 . S
H2056 C2040 0.931 . S
H2057 C2045 0.930 . S
H2058 C2046 0.956 . S
H2059 C2046 0.961 . S
H2060 C2046 0.961 . S
H2061 C2047 0.958 . S
H2062 C2047 0.961 . S
H2063 C2047 0.960 . S
C2064 C2065 1.391 1_455 S
C2064 C2066 1.394 . S
C2064 H2080 0.931 . S
C2065 C2064 1.391 1_655 S
C2065 C2069 1.376 . S
C2066 C2064 1.394 . S
C2066 C2067 1.369 . S
C2066 C2070 1.531 . S
C2067 C2066 1.369 . S
C2067 C2068 1.410 1_455 S
C2067 C2075 1.503 . S
C2068 C2067 1.410 1_655 S
C2068 C2069 1.392 . S
C2068 C2071 1.511 . S
C2069 C2065 1.376 . S
C2069 C2068 1.392 . S
C2069 H2081 0.929 . S
C2070 C2066 1.531 . S
C2070 H2082 0.960 . S
C2070 H2083 0.962 . S
C2070 H2084 0.960 . S
C2071 C2068 1.511 . S
C2071 H2085 0.961 . S
C2071 H2086 0.961 . S
C2071 H2087 0.961 . S
C2072 C2073 1.370 . S
C2072 C2074 1.363 . S
C2072 H2088 0.931 . S
C2073 C2072 1.370 . S
C2073 C2077 1.408 . S
C2074 C2072 1.363 . S
C2074 C2075 1.370 . S
C2074 C2078 1.524 . S
C2075 C2067 1.503 . S
C2075 C2074 1.370 . S
C2075 C2076 1.403 . S
C2076 C2075 1.403 . S
C2076 C2077 1.404 . S
C2076 C2079 1.530 1_455 S
C2077 C2073 1.408 . S
C2077 C2076 1.404 . S
C2077 H2089 0.930 . S
C2078 C2074 1.524 . S
C2078 H2090 0.956 . S
C2078 H2091 0.961 . S
C2078 H2092 0.961 . S
C2079 C2076 1.530 1_655 S
C2079 H2093 0.954 1_655 S
C2079 H2094 0.966 . S
C2079 H2095 0.968 . S
H2080 C2064 0.931 . S
H2081 C2069 0.929 . S
H2082 C2070 0.960 . S
H2083 C2070 0.962 . S
H2084 C2070 0.960 . S
H2085 C2071 0.961 . S
H2086 C2071 0.961 . S
H2087 C2071 0.961 . S
H2088 C2072 0.931 . S
H2089 C2077 0.930 . S
H2090 C2078 0.956 . S
H2091 C2078 0.961 . S
H2092 C2078 0.961 . S
H2093 C2079 0.954 1_455 S
H2094 C2079 0.966 . S
H2095 C2079 0.968 . S
C2096 C2097 1.391 . S
C2096 C2098 1.394 . S
C2096 H2112 0.931 . S
C2097 C2096 1.391 . S
C2097 C2101 1.376 . S
C2098 C2096 1.394 . S
C2098 C2099 1.369 . S
C2098 C2102 1.531 . S
C2099 C2098 1.369 . S
C2099 C2100 1.410 . S
C2099 C2107 1.503 . S
C2100 C2099 1.410 . S
C2100 C2101 1.392 . S
C2100 C2103 1.511 . S
C2101 C2097 1.376 . S
C2101 C2100 1.392 . S
C2101 H2113 0.929 . S
C2102 C2098 1.531 . S
C2102 H2114 0.960 . S
C2102 H2115 0.962 . S
C2102 H2116 0.960 . S
C2103 C2100 1.511 . S
C2103 H2117 0.961 . S
C2103 H2118 0.961 . S
C2103 H2119 0.961 . S
C2104 C2105 1.370 . S
C2104 C2106 1.363 . S
C2104 H2120 0.931 . S
C2105 C2104 1.370 . S
C2105 C2109 1.408 . S
C2106 C2104 1.363 . S
C2106 C2107 1.370 . S
C2106 C2110 1.524 . S
C2107 C2099 1.503 . S
C2107 C2106 1.370 . S
C2107 C2108 1.403 . S
C2108 C2107 1.403 . S
C2108 C2109 1.404 . S
C2108 C2111 1.539 . S
C2109 C2105 1.408 . S
C2109 C2108 1.404 . S
C2109 H2121 0.930 . S
C2110 C2106 1.524 . S
C2110 H2122 0.956 . S
C2110 H2123 0.961 . S
C2110 H2124 0.961 . S
C2111 C2108 1.539 . S
C2111 H2125 0.958 . S
C2111 H2126 0.961 . S
C2111 H2127 0.960 . S
H2112 C2096 0.931 . S
H2113 C2101 0.929 . S
H2114 C2102 0.960 . S
H2115 C2102 0.962 . S
H2116 C2102 0.960 . S
H2117 C2103 0.961 . S
H2118 C2103 0.961 . S
H2119 C2103 0.961 . S
H2120 C2104 0.931 . S
H2121 C2109 0.930 . S
H2122 C2110 0.956 . S
H2123 C2110 0.961 . S
H2124 C2110 0.961 . S
H2125 C2111 0.958 . S
H2126 C2111 0.961 . S
H2127 C2111 0.960 . S
C2128 C2129 1.391 . S
C2128 C2130 1.394 . S
C2128 H2144 0.931 . S
C2129 C2128 1.391 . S
C2129 C2133 1.376 . S
C2130 C2128 1.394 . S
C2130 C2131 1.369 . S
C2130 C2134 1.531 . S
C2131 C2130 1.369 . S
C2131 C2132 1.410 . S
C2131 C2139 1.503 . S
C2132 C2131 1.410 . S
C2132 C2133 1.392 . S
C2132 C2135 1.511 . S
C2133 C2129 1.376 . S
C2133 C2132 1.392 . S
C2133 H2145 0.929 . S
C2134 C2130 1.531 . S
C2134 H2146 0.960 . S
C2134 H2147 0.962 . S
C2134 H2148 0.960 . S
C2135 C2132 1.511 . S
C2135 H2149 0.961 . S
C2135 H2150 0.961 . S
C2135 H2151 0.961 . S
C2136 C2137 1.370 . S
C2136 C2138 1.363 . S
C2136 H2152 0.931 . S
C2137 C2136 1.370 . S
C2137 C2141 1.408 . S
C2138 C2136 1.363 . S
C2138 C2139 1.370 . S
C2138 C2142 1.524 . S
C2139 C2131 1.503 . S
C2139 C2138 1.370 . S
C2139 C2140 1.403 . S
C2140 C2139 1.403 . S
C2140 C2141 1.404 . S
C2140 C2143 1.539 . S
C2141 C2137 1.408 . S
C2141 C2140 1.404 . S
C2141 H2153 0.930 . S
C2142 C2138 1.524 . S
C2142 H2154 0.956 . S
C2142 H2155 0.961 . S
C2142 H2156 0.961 . S
C2143 C2140 1.539 . S
C2143 H2157 0.958 1_545 S
C2143 H2158 0.961 1_545 S
C2143 H2159 0.960 . S
H2144 C2128 0.931 . S
H2145 C2133 0.929 . S
H2146 C2134 0.960 . S
H2147 C2134 0.962 . S
H2148 C2134 0.960 . S
H2149 C2135 0.961 . S
H2150 C2135 0.961 . S
H2151 C2135 0.961 . S
H2152 C2136 0.931 . S
H2153 C2141 0.930 . S
H2154 C2142 0.956 . S
H2155 C2142 0.961 . S
H2156 C2142 0.961 . S
H2157 C2143 0.958 1_565 S
H2158 C2143 0.961 1_565 S
H2159 C2143 0.960 . S
C2160 C2161 1.391 . S
C2160 C2162 1.394 . S
C2160 H2176 0.931 . S
C2161 C2160 1.391 . S
C2161 C2165 1.376 . S
C2162 C2160 1.394 . S
C2162 C2163 1.369 . S
C2162 C2166 1.531 . S
C2163 C2162 1.369 . S
C2163 C2164 1.410 . S
C2163 C2171 1.503 . S
C2164 C2163 1.410 . S
C2164 C2165 1.392 . S
C2164 C2167 1.511 . S
C2165 C2161 1.376 . S
C2165 C2164 1.392 . S
C2165 H2177 0.929 . S
C2166 C2162 1.531 . S
C2166 H2178 0.960 . S
C2166 H2179 0.962 . S
C2166 H2180 0.960 . S
C2167 C2164 1.511 . S
C2167 H2181 0.961 . S
C2167 H2182 0.961 . S
C2167 H2183 0.961 . S
C2168 C2169 1.370 . S
C2168 C2170 1.363 . S
C2168 H2184 0.931 . S
C2169 C2168 1.370 . S
C2169 C2173 1.408 . S
C2170 C2168 1.363 . S
C2170 C2171 1.370 . S
C2170 C2174 1.524 . S
C2171 C2163 1.503 . S
C2171 C2170 1.370 . S
C2171 C2172 1.403 . S
C2172 C2171 1.403 . S
C2172 C2173 1.404 . S
C2172 C2175 1.539 . S
C2173 C2169 1.408 . S
C2173 C2172 1.404 . S
C2173 H2185 0.930 . S
C2174 C2170 1.524 . S
C2174 H2186 0.956 . S
C2174 H2187 0.961 . S
C2174 H2188 0.961 . S
C2175 C2172 1.539 . S
C2175 H2189 0.958 . S
C2175 H2190 0.961 . S
C2175 H2191 0.960 . S
H2176 C2160 0.931 . S
H2177 C2165 0.929 . S
H2178 C2166 0.960 . S
H2179 C2166 0.962 . S
H2180 C2166 0.960 . S
H2181 C2167 0.961 . S
H2182 C2167 0.961 . S
H2183 C2167 0.961 . S
H2184 C2168 0.931 . S
H2185 C2173 0.930 . S
H2186 C2174 0.956 . S
H2187 C2174 0.961 . S
H2188 C2174 0.961 . S
H2189 C2175 0.958 . S
H2190 C2175 0.961 . S
H2191 C2175 0.960 . S
C2192 C2193 1.391 . S
C2192 C2194 1.394 . S
C2192 H2208 0.931 . S
C2193 C2192 1.391 . S
C2193 C2197 1.376 1_554 S
C2194 C2192 1.394 . S
C2194 C2195 1.369 . S
C2194 C2198 1.531 . S
C2195 C2194 1.369 . S
C2195 C2196 1.410 . S
C2195 C2203 1.503 . S
C2196 C2195 1.410 . S
C2196 C2197 1.392 1_554 S
C2196 C2199 1.511 1_554 S
C2197 C2193 1.376 1_556 S
C2197 C2196 1.392 1_556 S
C2197 H2209 0.929 . S
C2198 C2194 1.531 . S
C2198 H2210 0.960 . S
C2198 H2211 0.962 . S
C2198 H2212 0.960 . S
C2199 C2196 1.511 1_556 S
C2199 H2213 0.961 . S
C2199 H2214 0.961 . S
C2199 H2215 0.961 1_565 S
C2200 C2201 1.370 1_565 S
C2200 C2202 1.363 . S
C2200 H2216 0.931 . S
C2201 C2200 1.370 1_545 S
C2201 C2205 1.408 . S
C2202 C2200 1.363 . S
C2202 C2203 1.370 . S
C2202 C2206 1.524 . S
C2203 C2195 1.503 . S
C2203 C2202 1.370 . S
C2203 C2204 1.403 1_565 S
C2204 C2203 1.403 1_545 S
C2204 C2205 1.404 . S
C2204 C2207 1.539 . S
C2205 C2201 1.408 . S
C2205 C2204 1.404 . S
C2205 H2217 0.930 . S
C2206 C2202 1.524 . S
C2206 H2218 0.956 . S
C2206 H2219 0.961 1_554 S
C2206 H2220 0.961 1_554 S
C2207 C2204 1.539 . S
C2207 H2221 0.958 . S
C2207 H2222 0.961 . S
C2207 H2223 0.960 . S
H2208 C2192 0.931 . S
H2209 C2197 0.929 . S
H2210 C2198 0.960 . S
H2211 C2198 0.962 . S
H2212 C2198 0.960 . S
H2213 C2199 0.961 . S
H2214 C2199 0.961 . S
H2215 C2199 0.961 1_545 S
H2216 C2200 0.931 . S
H2217 C2205 0.930 . S
H2218 C2206 0.956 . S
H2219 C2206 0.961 1_556 S
H2220 C2206 0.961 1_556 S
H2221 C2207 0.958 . S
H2222 C2207 0.961 . S
H2223 C2207 0.960 . S
C2224 C2225 1.382 1_554 S
C2224 C2226 1.401 . S
C2224 H2240 0.935 . S
C2225 C2224 1.382 1_556 S
C2225 C2229 1.376 . S
C2226 C2224 1.401 . S
C2226 C2227 1.369 1_554 S
C2226 C2230 1.530 . S
C2227 C2226 1.369 1_556 S
C2227 C2228 1.410 . S
C2227 C2235 1.503 . S
C2228 C2227 1.410 . S
C2228 C2229 1.392 . S
C2228 C2231 1.511 . S
C2229 C2225 1.376 . S
C2229 C2228 1.392 . S
C2229 H2241 0.929 . S
C2230 C2226 1.530 . S
C2230 H2242 0.946 1_554 S
C2230 H2243 0.962 . S
C2230 H2244 0.960 . S
C2231 C2228 1.511 . S
C2231 H2245 0.961 . S
C2231 H2246 0.961 . S
C2231 H2247 0.961 . S
C2232 C2233 1.343 1_554 S
C2232 C2234 1.363 . S
C2232 H2248 0.931 . S
C2233 C2232 1.343 1_556 S
C2233 C2237 1.447 . S
C2234 C2232 1.363 . S
C2234 C2235 1.370 1_554 S
C2234 C2238 1.524 . S
C2235 C2227 1.503 . S
C2235 C2234 1.370 1_556 S
C2235 C2236 1.403 . S
C2236 C2235 1.403 . S
C2236 C2237 1.404 . S
C2236 C2239 1.539 . S
C2237 C2233 1.447 . S
C2237 C2236 1.404 . S
C2237 H2249 0.930 . S
C2238 C2234 1.524 . S
C2238 H2250 0.956 . S
C2238 H2251 0.961 . S
C2238 H2252 0.961 . S
C2239 C2236 1.539 . S
C2239 H2253 0.958 . S
C2239 H2254 0.961 . S
C2239 H2255 0.960 . S
H2240 C2224 0.935 . S
H2241 C2229 0.929 . S
H2242 C2230 0.946 1_556 S
H2243 C2230 0.962 . S
H2244 C2230 0.960 . S
H2245 C2231 0.961 . S
H2246 C2231 0.961 . S
H2247 C2231 0.961 . S
H2248 C2232 0.931 . S
H2249 C2237 0.930 . S
H2250 C2238 0.956 . S
H2251 C2238 0.961 . S
H2252 C2238 0.961 . S
H2253 C2239 0.958 . S
H2254 C2239 0.961 . S
H2255 C2239 0.960 . S
C2256 C2257 1.391 . S
C2256 C2258 1.394 . S
C2256 H2272 0.931 . S
C2257 C2256 1.391 . S
C2257 C2261 1.376 . S
C2258 C2256 1.394 . S
C2258 C2259 1.369 . S
C2258 C2262 1.531 . S
C2259 C2258 1.369 . S
C2259 C2260 1.410 . S
C2259 C2267 1.503 . S
C2260 C2259 1.410 . S
C2260 C2261 1.392 . S
C2260 C2263 1.511 . S
C2261 C2257 1.376 . S
C2261 C2260 1.392 . S
C2261 H2273 0.929 . S
C2262 C2258 1.531 . S
C2262 H2274 0.960 . S
C2262 H2275 0.962 . S
C2262 H2276 0.960 . S
C2263 C2260 1.511 . S
C2263 H2277 0.961 . S
C2263 H2278 0.961 . S
C2263 H2279 0.961 . S
C2264 C2265 1.370 . S
C2264 C2266 1.363 . S
C2264 H2280 0.931 . S
C2265 C2264 1.370 . S
C2265 C2269 1.408 . S
C2266 C2264 1.363 . S
C2266 C2267 1.370 . S
C2266 C2270 1.524 . S
C2267 C2259 1.503 . S
C2267 C2266 1.370 . S
C2267 C2268 1.403 . S
C2268 C2267 1.403 . S
C2268 C2269 1.404 . S
C2268 C2271 1.539 . S
C2269 C2265 1.408 . S
C2269 C2268 1.404 . S
C2269 H2281 0.930 . S
C2270 C2266 1.524 . S
C2270 H2282 0.956 . S
C2270 H2283 0.961 . S
C2270 H2284 0.961 . S
C2271 C2268 1.539 . S
C2271 H2285 0.958 . S
C2271 H2286 0.961 . S
C2271 H2287 0.960 . S
H2272 C2256 0.931 . S
H2273 C2261 0.929 . S
H2274 C2262 0.960 . S
H2275 C2262 0.962 . S
H2276 C2262 0.960 . S
H2277 C2263 0.961 . S
H2278 C2263 0.961 . S
H2279 C2263 0.961 . S
H2280 C2264 0.931 . S
H2281 C2269 0.930 . S
H2282 C2270 0.956 . S
H2283 C2270 0.961 . S
H2284 C2270 0.961 . S
H2285 C2271 0.958 . S
H2286 C2271 0.961 . S
H2287 C2271 0.960 . S
C2288 C2289 1.391 . S
C2288 C2290 1.394 . S
C2288 H2304 0.931 . S
C2289 C2288 1.391 . S
C2289 C2293 1.376 . S
C2290 C2288 1.394 . S
C2290 C2291 1.369 . S
C2290 C2294 1.531 . S
C2291 C2290 1.369 . S
C2291 C2292 1.410 . S
C2291 C2299 1.503 . S
C2292 C2291 1.410 . S
C2292 C2293 1.392 . S
C2292 C2295 1.511 . S
C2293 C2289 1.376 . S
C2293 C2292 1.392 . S
C2293 H2305 0.929 . S
C2294 C2290 1.531 . S
C2294 H2306 0.960 . S
C2294 H2307 0.962 . S
C2294 H2308 0.960 . S
C2295 C2292 1.511 . S
C2295 H2309 0.961 . S
C2295 H2310 0.961 . S
C2295 H2311 0.961 . S
C2296 C2297 1.370 1_655 S
C2296 C2298 1.363 . S
C2296 H2312 0.931 1_655 S
C2297 C2296 1.370 1_455 S
C2297 C2301 1.408 1_455 S
C2298 C2296 1.363 . S
C2298 C2299 1.370 . S
C2298 C2302 1.524 . S
C2299 C2291 1.503 . S
C2299 C2298 1.370 . S
C2299 C2300 1.403 . S
C2300 C2299 1.403 . S
C2300 C2301 1.404 . S
C2300 C2303 1.539 . S
C2301 C2297 1.408 1_655 S
C2301 C2300 1.404 . S
C2301 H2313 0.930 1_655 S
C2302 C2298 1.524 . S
C2302 H2314 0.956 . S
C2302 H2315 0.961 . S
C2302 H2316 0.961 . S
C2303 C2300 1.539 . S
C2303 H2317 0.958 . S
C2303 H2318 0.961 . S
C2303 H2319 0.960 . S
H2304 C2288 0.931 . S
H2305 C2293 0.929 . S
H2306 C2294 0.960 . S
H2307 C2294 0.962 . S
H2308 C2294 0.960 . S
H2309 C2295 0.961 . S
H2310 C2295 0.961 . S
H2311 C2295 0.961 . S
H2312 C2296 0.931 1_455 S
H2313 C2301 0.930 1_455 S
H2314 C2302 0.956 . S
H2315 C2302 0.961 . S
H2316 C2302 0.961 . S
H2317 C2303 0.958 . S
H2318 C2303 0.961 . S
H2319 C2303 0.960 . S
C2320 C2321 1.391 . S
C2320 C2322 1.394 . S
C2320 H2336 0.931 . S
C2321 C2320 1.391 . S
C2321 C2325 1.376 . S
C2322 C2320 1.394 . S
C2322 C2323 1.369 . S
C2322 C2326 1.531 . S
C2323 C2322 1.369 . S
C2323 C2324 1.410 . S
C2323 C2331 1.503 . S
C2324 C2323 1.410 . S
C2324 C2325 1.392 . S
C2324 C2327 1.511 . S
C2325 C2321 1.376 . S
C2325 C2324 1.392 . S
C2325 H2337 0.929 . S
C2326 C2322 1.531 . S
C2326 H2338 0.960 . S
C2326 H2339 0.962 . S
C2326 H2340 0.960 . S
C2327 C2324 1.511 . S
C2327 H2341 0.961 . S
C2327 H2342 0.961 . S
C2327 H2343 0.961 . S
C2328 C2329 1.370 . S
C2328 C2330 1.363 . S
C2328 H2344 0.931 . S
C2329 C2328 1.370 . S
C2329 C2333 1.408 . S
C2330 C2328 1.363 . S
C2330 C2331 1.370 . S
C2330 C2334 1.524 . S
C2331 C2323 1.503 . S
C2331 C2330 1.370 . S
C2331 C2332 1.403 . S
C2332 C2331 1.403 . S
C2332 C2333 1.404 . S
C2332 C2335 1.539 . S
C2333 C2329 1.408 . S
C2333 C2332 1.404 . S
C2333 H2345 0.930 . S
C2334 C2330 1.524 . S
C2334 H2346 0.956 . S
C2334 H2347 0.961 . S
C2334 H2348 0.961 . S
C2335 C2332 1.539 . S
C2335 H2349 0.958 . S
C2335 H2350 0.961 . S
C2335 H2351 0.960 . S
H2336 C2320 0.931 . S
H2337 C2325 0.929 . S
H2338 C2326 0.960 . S
H2339 C2326 0.962 . S
H2340 C2326 0.960 . S
H2341 C2327 0.961 . S
H2342 C2327 0.961 . S
H2343 C2327 0.961 . S
H2344 C2328 0.931 . S
H2345 C2333 0.930 . S
H2346 C2334 0.956 . S
H2347 C2334 0.961 . S
H2348 C2334 0.961 . S
H2349 C2335 0.958 . S
H2350 C2335 0.961 . S
H2351 C2335 0.960 . S
C2352 C2353 1.391 . S
C2352 C2354 1.394 . S
C2352 H2368 0.931 . S
C2353 C2352 1.391 . S
C2353 C2357 1.376 . S
C2354 C2352 1.394 . S
C2354 C2355 1.369 . S
C2354 C2358 1.531 . S
C2355 C2354 1.369 . S
C2355 C2356 1.410 . S
C2355 C2363 1.503 . S
C2356 C2355 1.410 . S
C2356 C2357 1.392 . S
C2356 C2359 1.511 . S
C2357 C2353 1.376 . S
C2357 C2356 1.392 . S
C2357 H2369 0.929 . S
C2358 C2354 1.531 . S
C2358 H2370 0.960 . S
C2358 H2371 0.962 . S
C2358 H2372 0.960 . S
C2359 C2356 1.511 . S
C2359 H2373 0.961 . S
C2359 H2374 0.961 . S
C2359 H2375 0.961 . S
C2360 C2361 1.370 . S
C2360 C2362 1.363 . S
C2360 H2376 0.931 . S
C2361 C2360 1.370 . S
C2361 C2365 1.408 . S
C2362 C2360 1.363 . S
C2362 C2363 1.370 . S
C2362 C2366 1.524 . S
C2363 C2355 1.503 . S
C2363 C2362 1.370 . S
C2363 C2364 1.403 . S
C2364 C2363 1.403 . S
C2364 C2365 1.404 . S
C2364 C2367 1.539 . S
C2365 C2361 1.408 . S
C2365 C2364 1.404 . S
C2365 H2377 0.930 . S
C2366 C2362 1.524 . S
C2366 H2378 0.956 . S
C2366 H2379 0.961 . S
C2366 H2380 0.961 . S
C2367 C2364 1.539 . S
C2367 H2381 0.958 . S
C2367 H2382 0.961 . S
C2367 H2383 0.960 . S
H2368 C2352 0.931 . S
H2369 C2357 0.929 . S
H2370 C2358 0.960 . S
H2371 C2358 0.962 . S
H2372 C2358 0.960 . S
H2373 C2359 0.961 . S
H2374 C2359 0.961 . S
H2375 C2359 0.961 . S
H2376 C2360 0.931 . S
H2377 C2365 0.930 . S
H2378 C2366 0.956 . S
H2379 C2366 0.961 . S
H2380 C2366 0.961 . S
H2381 C2367 0.958 . S
H2382 C2367 0.961 . S
H2383 C2367 0.960 . S
C2384 C2385 1.391 . S
C2384 C2386 1.394 . S
C2384 H2400 0.931 . S
C2385 C2384 1.391 . S
C2385 C2389 1.376 . S
C2386 C2384 1.394 . S
C2386 C2387 1.369 . S
C2386 C2390 1.531 . S
C2387 C2386 1.369 . S
C2387 C2388 1.410 . S
C2387 C2395 1.503 . S
C2388 C2387 1.410 . S
C2388 C2389 1.392 . S
C2388 C2391 1.511 . S
C2389 C2385 1.376 . S
C2389 C2388 1.392 . S
C2389 H2401 0.929 . S
C2390 C2386 1.531 . S
C2390 H2402 0.960 . S
C2390 H2403 0.962 . S
C2390 H2404 0.960 . S
C2391 C2388 1.511 . S
C2391 H2405 0.961 . S
C2391 H2406 0.961 . S
C2391 H2407 0.961 . S
C2392 C2393 1.370 . S
C2392 C2394 1.363 . S
C2392 H2408 0.931 . S
C2393 C2392 1.370 . S
C2393 C2397 1.408 . S
C2394 C2392 1.363 . S
C2394 C2395 1.370 . S
C2394 C2398 1.524 . S
C2395 C2387 1.503 . S
C2395 C2394 1.370 . S
C2395 C2396 1.403 . S
C2396 C2395 1.403 . S
C2396 C2397 1.404 . S
C2396 C2399 1.539 . S
C2397 C2393 1.408 . S
C2397 C2396 1.404 . S
C2397 H2409 0.930 . S
C2398 C2394 1.524 . S
C2398 H2410 0.956 . S
C2398 H2411 0.961 . S
C2398 H2412 0.961 . S
C2399 C2396 1.539 . S
C2399 H2413 0.958 . S
C2399 H2414 0.961 . S
C2399 H2415 0.960 . S
H2400 C2384 0.931 . S
H2401 C2389 0.929 . S
H2402 C2390 0.960 . S
H2403 C2390 0.962 . S
H2404 C2390 0.960 . S
H2405 C2391 0.961 . S
H2406 C2391 0.961 . S
H2407 C2391 0.961 . S
H2408 C2392 0.931 . S
H2409 C2397 0.930 . S
H2410 C2398 0.956 . S
H2411 C2398 0.961 . S
H2412 C2398 0.961 . S
H2413 C2399 0.958 . S
H2414 C2399 0.961 . S
H2415 C2399 0.960 . S
C2416 C2417 1.391 . S
C2416 C2418 1.394 . S
C2416 H2432 0.931 . S
C2417 C2416 1.391 . S
C2417 C2421 1.376 . S
C2418 C2416 1.394 . S
C2418 C2419 1.369 . S
C2418 C2422 1.531 . S
C2419 C2418 1.369 . S
C2419 C2420 1.410 . S
C2419 C2427 1.503 . S
C2420 C2419 1.410 . S
C2420 C2421 1.392 . S
C2420 C2423 1.511 . S
C2421 C2417 1.376 . S
C2421 C2420 1.392 . S
C2421 H2433 0.929 . S
C2422 C2418 1.531 . S
C2422 H2434 0.960 . S
C2422 H2435 0.962 . S
C2422 H2436 0.960 . S
C2423 C2420 1.511 . S
C2423 H2437 0.961 . S
C2423 H2438 0.961 . S
C2423 H2439 0.961 . S
C2424 C2425 1.370 . S
C2424 C2426 1.363 . S
C2424 H2440 0.931 . S
C2425 C2424 1.370 . S
C2425 C2429 1.408 . S
C2426 C2424 1.363 . S
C2426 C2427 1.370 . S
C2426 C2430 1.524 . S
C2427 C2419 1.503 . S
C2427 C2426 1.370 . S
C2427 C2428 1.403 . S
C2428 C2427 1.403 . S
C2428 C2429 1.404 . S
C2428 C2431 1.539 . S
C2429 C2425 1.408 . S
C2429 C2428 1.404 . S
C2429 H2441 0.930 . S
C2430 C2426 1.524 . S
C2430 H2442 0.956 . S
C2430 H2443 0.961 . S
C2430 H2444 0.961 . S
C2431 C2428 1.539 . S
C2431 H2445 0.958 . S
C2431 H2446 0.961 . S
C2431 H2447 0.960 . S
H2432 C2416 0.931 . S
H2433 C2421 0.929 . S
H2434 C2422 0.960 . S
H2435 C2422 0.962 . S
H2436 C2422 0.960 . S
H2437 C2423 0.961 . S
H2438 C2423 0.961 . S
H2439 C2423 0.961 . S
H2440 C2424 0.931 . S
H2441 C2429 0.930 . S
H2442 C2430 0.956 . S
H2443 C2430 0.961 . S
H2444 C2430 0.961 . S
H2445 C2431 0.958 . S
H2446 C2431 0.961 . S
H2447 C2431 0.960 . S
C2448 C2449 1.391 . S
C2448 C2450 1.394 . S
C2448 H2464 0.931 . S
C2449 C2448 1.391 . S
C2449 C2453 1.376 . S
C2450 C2448 1.394 . S
C2450 C2451 1.369 . S
C2450 C2454 1.531 . S
C2451 C2450 1.369 . S
C2451 C2452 1.410 . S
C2451 C2459 1.503 . S
C2452 C2451 1.410 . S
C2452 C2453 1.392 . S
C2452 C2455 1.511 . S
C2453 C2449 1.376 . S
C2453 C2452 1.392 . S
C2453 H2465 0.929 . S
C2454 C2450 1.531 . S
C2454 H2466 0.960 . S
C2454 H2467 0.962 . S
C2454 H2468 0.960 . S
C2455 C2452 1.511 . S
C2455 H2469 0.961 . S
C2455 H2470 0.961 . S
C2455 H2471 0.961 . S
C2456 C2457 1.370 . S
C2456 C2458 1.363 . S
C2456 H2472 0.931 . S
C2457 C2456 1.370 . S
C2457 C2461 1.408 . S
C2458 C2456 1.363 . S
C2458 C2459 1.370 . S
C2458 C2462 1.524 . S
C2459 C2451 1.503 . S
C2459 C2458 1.370 . S
C2459 C2460 1.403 . S
C2460 C2459 1.403 . S
C2460 C2461 1.404 . S
C2460 C2463 1.539 . S
C2461 C2457 1.408 . S
C2461 C2460 1.404 . S
C2461 H2473 0.930 1_554 S
C2462 C2458 1.524 . S
C2462 H2474 0.956 . S
C2462 H2475 0.961 . S
C2462 H2476 0.961 . S
C2463 C2460 1.539 . S
C2463 H2477 0.958 1_554 S
C2463 H2478 0.961 1_554 S
C2463 H2479 0.960 . S
H2464 C2448 0.931 . S
H2465 C2453 0.929 . S
H2466 C2454 0.960 . S
H2467 C2454 0.962 . S
H2468 C2454 0.960 . S
H2469 C2455 0.961 . S
H2470 C2455 0.961 . S
H2471 C2455 0.961 . S
H2472 C2456 0.931 . S
H2473 C2461 0.930 1_556 S
H2474 C2462 0.956 . S
H2475 C2462 0.961 . S
H2476 C2462 0.961 . S
H2477 C2463 0.958 1_556 S
H2478 C2463 0.961 1_556 S
H2479 C2463 0.960 . S
C2480 C2481 1.391 . S
C2480 C2482 1.394 . S
C2480 H2496 0.931 . S
C2481 C2480 1.391 . S
C2481 C2485 1.376 . S
C2482 C2480 1.394 . S
C2482 C2483 1.369 . S
C2482 C2486 1.531 . S
C2483 C2482 1.369 . S
C2483 C2484 1.410 . S
C2483 C2491 1.503 . S
C2484 C2483 1.410 . S
C2484 C2485 1.392 . S
C2484 C2487 1.511 . S
C2485 C2481 1.376 . S
C2485 C2484 1.392 . S
C2485 H2497 0.929 . S
C2486 C2482 1.531 . S
C2486 H2498 0.960 . S
C2486 H2499 0.962 . S
C2486 H2500 0.960 . S
C2487 C2484 1.511 . S
C2487 H2501 0.961 . S
C2487 H2502 0.961 . S
C2487 H2503 0.961 . S
C2488 C2489 1.370 . S
C2488 C2490 1.363 . S
C2488 H2504 0.931 . S
C2489 C2488 1.370 . S
C2489 C2493 1.408 . S
C2490 C2488 1.363 . S
C2490 C2491 1.370 . S
C2490 C2494 1.524 . S
C2491 C2483 1.503 . S
C2491 C2490 1.370 . S
C2491 C2492 1.403 . S
C2492 C2491 1.403 . S
C2492 C2493 1.404 . S
C2492 C2495 1.539 . S
C2493 C2489 1.408 . S
C2493 C2492 1.404 . S
C2493 H2505 0.930 . S
C2494 C2490 1.524 . S
C2494 H2506 0.956 . S
C2494 H2507 0.961 . S
C2494 H2508 0.961 . S
C2495 C2492 1.539 . S
C2495 H2509 0.958 . S
C2495 H2510 0.961 . S
C2495 H2511 0.960 . S
H2496 C2480 0.931 . S
H2497 C2485 0.929 . S
H2498 C2486 0.960 . S
H2499 C2486 0.962 . S
H2500 C2486 0.960 . S
H2501 C2487 0.961 . S
H2502 C2487 0.961 . S
H2503 C2487 0.961 . S
H2504 C2488 0.931 . S
H2505 C2493 0.930 . S
H2506 C2494 0.956 . S
H2507 C2494 0.961 . S
H2508 C2494 0.961 . S
H2509 C2495 0.958 . S
H2510 C2495 0.961 . S
H2511 C2495 0.960 . S
C2512 C2513 1.391 . S
C2512 C2514 1.394 . S
C2512 H2528 0.931 . S
C2513 C2512 1.391 . S
C2513 C2517 1.376 . S
C2514 C2512 1.394 . S
C2514 C2515 1.369 . S
C2514 C2518 1.531 . S
C2515 C2514 1.369 . S
C2515 C2516 1.410 . S
C2515 C2523 1.503 . S
C2516 C2515 1.410 . S
C2516 C2517 1.392 . S
C2516 C2519 1.511 . S
C2517 C2513 1.376 . S
C2517 C2516 1.392 . S
C2517 H2529 0.929 . S
C2518 C2514 1.531 . S
C2518 H2530 0.960 . S
C2518 H2531 0.962 . S
C2518 H2532 0.960 . S
C2519 C2516 1.511 . S
C2519 H2533 0.961 . S
C2519 H2534 0.961 . S
C2519 H2535 0.961 . S
C2520 C2521 1.370 . S
C2520 C2522 1.363 . S
C2520 H2536 0.931 . S
C2521 C2520 1.370 . S
C2521 C2525 1.408 . S
C2522 C2520 1.363 . S
C2522 C2523 1.370 . S
C2522 C2526 1.524 . S
C2523 C2515 1.503 . S
C2523 C2522 1.370 . S
C2523 C2524 1.403 . S
C2524 C2523 1.403 . S
C2524 C2525 1.404 . S
C2524 C2527 1.539 . S
C2525 C2521 1.408 . S
C2525 C2524 1.404 . S
C2525 H2537 0.930 . S
C2526 C2522 1.524 . S
C2526 H2538 0.956 . S
C2526 H2539 0.961 . S
C2526 H2540 0.961 . S
C2527 C2524 1.539 . S
C2527 H2541 0.958 . S
C2527 H2542 0.961 . S
C2527 H2543 0.960 . S
H2528 C2512 0.931 . S
H2529 C2517 0.929 . S
H2530 C2518 0.960 . S
H2531 C2518 0.962 . S
H2532 C2518 0.960 . S
H2533 C2519 0.961 . S
H2534 C2519 0.961 . S
H2535 C2519 0.961 . S
H2536 C2520 0.931 . S
H2537 C2525 0.930 . S
H2538 C2526 0.956 . S
H2539 C2526 0.961 . S
H2540 C2526 0.961 . S
H2541 C2527 0.958 . S
H2542 C2527 0.961 . S
H2543 C2527 0.960 . S
C2544 C2545 1.391 . S
C2544 C2546 1.394 . S
C2544 H2560 0.931 . S
C2545 C2544 1.391 . S
C2545 C2549 1.376 . S
C2546 C2544 1.394 . S
C2546 C2547 1.369 . S
C2546 C2550 1.531 . S
C2547 C2546 1.369 . S
C2547 C2548 1.410 . S
C2547 C2555 1.503 . S
C2548 C2547 1.410 . S
C2548 C2549 1.392 . S
C2548 C2551 1.511 . S
C2549 C2545 1.376 . S
C2549 C2548 1.392 . S
C2549 H2561 0.929 . S
C2550 C2546 1.531 . S
C2550 H2562 0.960 . S
C2550 H2563 0.962 . S
C2550 H2564 0.960 . S
C2551 C2548 1.511 . S
C2551 H2565 0.961 . S
C2551 H2566 0.961 . S
C2551 H2567 0.961 . S
C2552 C2553 1.370 . S
C2552 C2554 1.363 . S
C2552 H2568 0.931 . S
C2553 C2552 1.370 . S
C2553 C2557 1.408 . S
C2554 C2552 1.363 . S
C2554 C2555 1.370 . S
C2554 C2558 1.524 . S
C2555 C2547 1.503 . S
C2555 C2554 1.370 . S
C2555 C2556 1.403 . S
C2556 C2555 1.403 . S
C2556 C2557 1.404 . S
C2556 C2559 1.539 . S
C2557 C2553 1.408 . S
C2557 C2556 1.404 . S
C2557 H2569 0.930 . S
C2558 C2554 1.524 . S
C2558 H2570 0.956 . S
C2558 H2571 0.961 . S
C2558 H2572 0.961 . S
C2559 C2556 1.539 . S
C2559 H2573 0.958 . S
C2559 H2574 0.961 . S
C2559 H2575 0.960 . S
H2560 C2544 0.931 . S
H2561 C2549 0.929 . S
H2562 C2550 0.960 . S
H2563 C2550 0.962 . S
H2564 C2550 0.960 . S
H2565 C2551 0.961 . S
H2566 C2551 0.961 . S
H2567 C2551 0.961 . S
H2568 C2552 0.931 . S
H2569 C2557 0.930 . S
H2570 C2558 0.956 . S
H2571 C2558 0.961 . S
H2572 C2558 0.961 . S
H2573 C2559 0.958 . S
H2574 C2559 0.961 . S
H2575 C2559 0.960 . S
C2576 C2577 1.391 . S
C2576 C2578 1.394 . S
C2576 H2592 0.931 . S
C2577 C2576 1.391 . S
C2577 C2581 1.376 . S
C2578 C2576 1.394 . S
C2578 C2579 1.369 . S
C2578 C2582 1.531 . S
C2579 C2578 1.369 . S
C2579 C2580 1.410 . S
C2579 C2587 1.503 . S
C2580 C2579 1.410 . S
C2580 C2581 1.392 . S
C2580 C2583 1.511 . S
C2581 C2577 1.376 . S
C2581 C2580 1.392 . S
C2581 H2593 0.929 . S
C2582 C2578 1.531 . S
C2582 H2594 0.960 . S
C2582 H2595 0.962 . S
C2582 H2596 0.960 . S
C2583 C2580 1.511 . S
C2583 H2597 0.961 . S
C2583 H2598 0.961 . S
C2583 H2599 0.961 . S
C2584 C2585 1.370 . S
C2584 C2586 1.363 . S
C2584 H2600 0.931 . S
C2585 C2584 1.370 . S
C2585 C2589 1.408 . S
C2586 C2584 1.363 . S
C2586 C2587 1.370 . S
C2586 C2590 1.524 . S
C2587 C2579 1.503 . S
C2587 C2586 1.370 . S
C2587 C2588 1.403 . S
C2588 C2587 1.403 . S
C2588 C2589 1.404 . S
C2588 C2591 1.539 . S
C2589 C2585 1.408 . S
C2589 C2588 1.404 . S
C2589 H2601 0.930 . S
C2590 C2586 1.524 . S
C2590 H2602 0.956 . S
C2590 H2603 0.961 . S
C2590 H2604 0.961 . S
C2591 C2588 1.539 . S
C2591 H2605 0.958 . S
C2591 H2606 0.961 . S
C2591 H2607 0.960 . S
H2592 C2576 0.931 . S
H2593 C2581 0.929 . S
H2594 C2582 0.960 . S
H2595 C2582 0.962 . S
H2596 C2582 0.960 . S
H2597 C2583 0.961 . S
H2598 C2583 0.961 . S
H2599 C2583 0.961 . S
H2600 C2584 0.931 . S
H2601 C2589 0.930 . S
H2602 C2590 0.956 . S
H2603 C2590 0.961 . S
H2604 C2590 0.961 . S
H2605 C2591 0.958 . S
H2606 C2591 0.961 . S
H2607 C2591 0.960 . S
C2608 C2609 1.391 . S
C2608 C2610 1.394 . S
C2608 H2624 0.931 . S
C2609 C2608 1.391 . S
C2609 C2613 1.376 . S
C2610 C2608 1.394 . S
C2610 C2611 1.369 . S
C2610 C2614 1.531 . S
C2611 C2610 1.369 . S
C2611 C2612 1.410 . S
C2611 C2619 1.503 . S
C2612 C2611 1.410 . S
C2612 C2613 1.392 . S
C2612 C2615 1.511 . S
C2613 C2609 1.376 . S
C2613 C2612 1.392 . S
C2613 H2625 0.929 . S
C2614 C2610 1.531 . S
C2614 H2626 0.960 . S
C2614 H2627 0.962 . S
C2614 H2628 0.960 . S
C2615 C2612 1.511 . S
C2615 H2629 0.961 . S
C2615 H2630 0.961 . S
C2615 H2631 0.961 . S
C2616 C2617 1.370 . S
C2616 C2618 1.363 . S
C2616 H2632 0.931 . S
C2617 C2616 1.370 . S
C2617 C2621 1.408 . S
C2618 C2616 1.363 . S
C2618 C2619 1.370 . S
C2618 C2622 1.524 . S
C2619 C2611 1.503 . S
C2619 C2618 1.370 . S
C2619 C2620 1.403 . S
C2620 C2619 1.403 . S
C2620 C2621 1.404 . S
C2620 C2623 1.539 . S
C2621 C2617 1.408 . S
C2621 C2620 1.404 . S
C2621 H2633 0.930 . S
C2622 C2618 1.524 . S
C2622 H2634 0.956 . S
C2622 H2635 0.961 . S
C2622 H2636 0.961 . S
C2623 C2620 1.539 . S
C2623 H2637 0.958 . S
C2623 H2638 0.961 . S
C2623 H2639 0.960 . S
H2624 C2608 0.931 . S
H2625 C2613 0.929 . S
H2626 C2614 0.960 . S
H2627 C2614 0.962 . S
H2628 C2614 0.960 . S
H2629 C2615 0.961 . S
H2630 C2615 0.961 . S
H2631 C2615 0.961 . S
H2632 C2616 0.931 . S
H2633 C2621 0.930 . S
H2634 C2622 0.956 . S
H2635 C2622 0.961 . S
H2636 C2622 0.961 . S
H2637 C2623 0.958 . S
H2638 C2623 0.961 . S
H2639 C2623 0.960 . S
C2640 C2641 1.391 . S
C2640 C2642 1.394 . S
C2640 H2656 0.931 . S
C2641 C2640 1.391 . S
C2641 C2645 1.376 . S
C2642 C2640 1.394 . S
C2642 C2643 1.369 . S
C2642 C2646 1.531 . S
C2643 C2642 1.369 . S
C2643 C2644 1.410 . S
C2643 C2651 1.503 . S
C2644 C2643 1.410 . S
C2644 C2645 1.392 . S
C2644 C2647 1.511 . S
C2645 C2641 1.376 . S
C2645 C2644 1.392 . S
C2645 H2657 0.929 . S
C2646 C2642 1.531 . S
C2646 H2658 0.960 . S
C2646 H2659 0.962 . S
C2646 H2660 0.960 . S
C2647 C2644 1.511 . S
C2647 H2661 0.961 . S
C2647 H2662 0.961 . S
C2647 H2663 0.961 . S
C2648 C2649 1.370 . S
C2648 C2650 1.363 . S
C2648 H2664 0.931 . S
C2649 C2648 1.370 . S
C2649 C2653 1.408 . S
C2650 C2648 1.363 . S
C2650 C2651 1.370 . S
C2650 C2654 1.524 . S
C2651 C2643 1.503 . S
C2651 C2650 1.370 . S
C2651 C2652 1.403 . S
C2652 C2651 1.403 . S
C2652 C2653 1.404 . S
C2652 C2655 1.539 . S
C2653 C2649 1.408 . S
C2653 C2652 1.404 . S
C2653 H2665 0.930 1_566 S
C2654 C2650 1.524 . S
C2654 H2666 0.956 . S
C2654 H2667 0.961 . S
C2654 H2668 0.961 . S
C2655 C2652 1.539 . S
C2655 H2669 0.958 . S
C2655 H2670 0.961 . S
C2655 H2671 0.960 . S
H2656 C2640 0.931 . S
H2657 C2645 0.929 . S
H2658 C2646 0.960 . S
H2659 C2646 0.962 . S
H2660 C2646 0.960 . S
H2661 C2647 0.961 . S
H2662 C2647 0.961 . S
H2663 C2647 0.961 . S
H2664 C2648 0.931 . S
H2665 C2653 0.930 1_544 S
H2666 C2654 0.956 . S
H2667 C2654 0.961 . S
H2668 C2654 0.961 . S
H2669 C2655 0.958 . S
H2670 C2655 0.961 . S
H2671 C2655 0.960 . S
C2672 C2673 1.391 . S
C2672 C2674 1.394 . S
C2672 H2688 0.931 . S
C2673 C2672 1.391 . S
C2673 C2677 1.376 . S
C2674 C2672 1.394 . S
C2674 C2675 1.369 . S
C2674 C2678 1.531 . S
C2675 C2674 1.369 . S
C2675 C2676 1.410 . S
C2675 C2683 1.503 . S
C2676 C2675 1.410 . S
C2676 C2677 1.392 . S
C2676 C2679 1.511 . S
C2677 C2673 1.376 . S
C2677 C2676 1.392 . S
C2677 H2689 0.929 . S
C2678 C2674 1.531 . S
C2678 H2690 0.960 . S
C2678 H2691 0.962 . S
C2678 H2692 0.960 . S
C2679 C2676 1.511 . S
C2679 H2693 0.961 . S
C2679 H2694 0.961 . S
C2679 H2695 0.961 . S
C2680 C2681 1.370 . S
C2680 C2682 1.363 . S
C2680 H2696 0.931 . S
C2681 C2680 1.370 . S
C2681 C2685 1.408 . S
C2682 C2680 1.363 . S
C2682 C2683 1.370 . S
C2682 C2686 1.524 . S
C2683 C2675 1.503 . S
C2683 C2682 1.370 . S
C2683 C2684 1.403 . S
C2684 C2683 1.403 . S
C2684 C2685 1.404 . S
C2684 C2687 1.539 . S
C2685 C2681 1.408 . S
C2685 C2684 1.404 . S
C2685 H2697 0.930 . S
C2686 C2682 1.524 . S
C2686 H2698 0.956 . S
C2686 H2699 0.961 . S
C2686 H2700 0.961 . S
C2687 C2684 1.539 . S
C2687 H2701 0.958 . S
C2687 H2702 0.961 . S
C2687 H2703 0.960 . S
H2688 C2672 0.931 . S
H2689 C2677 0.929 . S
H2690 C2678 0.960 . S
H2691 C2678 0.962 . S
H2692 C2678 0.960 . S
H2693 C2679 0.961 . S
H2694 C2679 0.961 . S
H2695 C2679 0.961 . S
H2696 C2680 0.931 . S
H2697 C2685 0.930 . S
H2698 C2686 0.956 . S
H2699 C2686 0.961 . S
H2700 C2686 0.961 . S
H2701 C2687 0.958 . S
H2702 C2687 0.961 . S
H2703 C2687 0.960 . S
C2704 C2705 1.391 . S
C2704 C2706 1.394 . S
C2704 H2720 0.931 . S
C2705 C2704 1.391 . S
C2705 C2709 1.376 1_545 S
C2706 C2704 1.394 . S
C2706 C2707 1.369 . S
C2706 C2710 1.531 . S
C2707 C2706 1.369 . S
C2707 C2708 1.410 1_545 S
C2707 C2715 1.503 . S
C2708 C2707 1.410 1_565 S
C2708 C2709 1.392 . S
C2708 C2711 1.511 . S
C2709 C2705 1.376 1_565 S
C2709 C2708 1.392 . S
C2709 H2721 0.929 . S
C2710 C2706 1.531 . S
C2710 H2722 0.960 . S
C2710 H2723 0.962 . S
C2710 H2724 0.960 . S
C2711 C2708 1.511 . S
C2711 H2725 0.961 . S
C2711 H2726 0.961 . S
C2711 H2727 0.961 . S
C2712 C2713 1.370 1_565 S
C2712 C2714 1.363 . S
C2712 H2728 0.931 . S
C2713 C2712 1.370 1_545 S
C2713 C2717 1.408 . S
C2714 C2712 1.363 . S
C2714 C2715 1.370 1_565 S
C2714 C2718 1.524 . S
C2715 C2707 1.503 . S
C2715 C2714 1.370 1_545 S
C2715 C2716 1.403 . S
C2716 C2715 1.403 . S
C2716 C2717 1.404 . S
C2716 C2719 1.539 . S
C2717 C2713 1.408 . S
C2717 C2716 1.404 . S
C2717 H2729 0.930 . S
C2718 C2714 1.524 . S
C2718 H2730 0.956 . S
C2718 H2731 0.961 . S
C2718 H2732 0.961 . S
C2719 C2716 1.539 . S
C2719 H2733 0.958 . S
C2719 H2734 0.961 . S
C2719 H2735 0.960 . S
H2720 C2704 0.931 . S
H2721 C2709 0.929 . S
H2722 C2710 0.960 . S
H2723 C2710 0.962 . S
H2724 C2710 0.960 . S
H2725 C2711 0.961 . S
H2726 C2711 0.961 . S
H2727 C2711 0.961 . S
H2728 C2712 0.931 . S
H2729 C2717 0.930 . S
H2730 C2718 0.956 . S
H2731 C2718 0.961 . S
H2732 C2718 0.961 . S
H2733 C2719 0.958 . S
H2734 C2719 0.961 . S
H2735 C2719 0.960 . S
C2736 C2737 1.391 . S
C2736 C2738 1.394 . S
C2736 H2752 0.931 . S
C2737 C2736 1.391 . S
C2737 C2741 1.376 . S
C2738 C2736 1.394 . S
C2738 C2739 1.369 . S
C2738 C2742 1.531 . S
C2739 C2738 1.369 . S
C2739 C2740 1.410 . S
C2739 C2747 1.503 . S
C2740 C2739 1.410 . S
C2740 C2741 1.392 . S
C2740 C2743 1.511 . S
C2741 C2737 1.376 . S
C2741 C2740 1.392 . S
C2741 H2753 0.929 . S
C2742 C2738 1.531 . S
C2742 H2754 0.960 . S
C2742 H2755 0.962 . S
C2742 H2756 0.960 . S
C2743 C2740 1.511 . S
C2743 H2757 0.961 . S
C2743 H2758 0.961 . S
C2743 H2759 0.961 . S
C2744 C2745 1.370 . S
C2744 C2746 1.363 . S
C2744 H2760 0.931 . S
C2745 C2744 1.370 . S
C2745 C2749 1.408 . S
C2746 C2744 1.363 . S
C2746 C2747 1.370 . S
C2746 C2750 1.524 . S
C2747 C2739 1.503 . S
C2747 C2746 1.370 . S
C2747 C2748 1.403 . S
C2748 C2747 1.403 . S
C2748 C2749 1.404 . S
C2748 C2751 1.539 . S
C2749 C2745 1.408 . S
C2749 C2748 1.404 . S
C2749 H2761 0.930 . S
C2750 C2746 1.524 . S
C2750 H2762 0.956 . S
C2750 H2763 0.961 . S
C2750 H2764 0.961 . S
C2751 C2748 1.539 . S
C2751 H2765 0.958 . S
C2751 H2766 0.961 . S
C2751 H2767 0.960 . S
H2752 C2736 0.931 . S
H2753 C2741 0.929 . S
H2754 C2742 0.960 . S
H2755 C2742 0.962 . S
H2756 C2742 0.960 . S
H2757 C2743 0.961 . S
H2758 C2743 0.961 . S
H2759 C2743 0.961 . S
H2760 C2744 0.931 . S
H2761 C2749 0.930 . S
H2762 C2750 0.956 . S
H2763 C2750 0.961 . S
H2764 C2750 0.961 . S
H2765 C2751 0.958 . S
H2766 C2751 0.961 . S
H2767 C2751 0.960 . S
C2768 C2769 1.391 . S
C2768 C2770 1.394 . S
C2768 H2784 0.931 1_545 S
C2769 C2768 1.391 . S
C2769 C2773 1.376 . S
C2770 C2768 1.394 . S
C2770 C2771 1.369 . S
C2770 C2774 1.531 1_545 S
C2771 C2770 1.369 . S
C2771 C2772 1.410 . S
C2771 C2779 1.503 . S
C2772 C2771 1.410 . S
C2772 C2773 1.392 . S
C2772 C2775 1.511 . S
C2773 C2769 1.376 . S
C2773 C2772 1.392 . S
C2773 H2785 0.929 . S
C2774 C2770 1.531 1_565 S
C2774 H2786 0.960 . S
C2774 H2787 0.962 . S
C2774 H2788 0.960 . S
C2775 C2772 1.511 . S
C2775 H2789 0.961 . S
C2775 H2790 0.961 . S
C2775 H2791 0.961 . S
C2776 C2777 1.370 . S
C2776 C2778 1.363 . S
C2776 H2792 0.931 . S
C2777 C2776 1.370 . S
C2777 C2781 1.408 . S
C2778 C2776 1.363 . S
C2778 C2779 1.370 . S
C2778 C2782 1.524 . S
C2779 C2771 1.503 . S
C2779 C2778 1.370 . S
C2779 C2780 1.403 . S
C2780 C2779 1.403 . S
C2780 C2781 1.404 . S
C2780 C2783 1.539 . S
C2781 C2777 1.408 . S
C2781 C2780 1.404 . S
C2781 H2793 0.930 . S
C2782 C2778 1.524 . S
C2782 H2794 0.956 . S
C2782 H2795 0.961 . S
C2782 H2796 0.961 . S
C2783 C2780 1.539 . S
C2783 H2797 0.958 1_545 S
C2783 H2798 0.961 . S
C2783 H2799 0.960 . S
H2784 C2768 0.931 1_565 S
H2785 C2773 0.929 . S
H2786 C2774 0.960 . S
H2787 C2774 0.962 . S
H2788 C2774 0.960 . S
H2789 C2775 0.961 . S
H2790 C2775 0.961 . S
H2791 C2775 0.961 . S
H2792 C2776 0.931 . S
H2793 C2781 0.930 . S
H2794 C2782 0.956 . S
H2795 C2782 0.961 . S
H2796 C2782 0.961 . S
H2797 C2783 0.958 1_565 S
H2798 C2783 0.961 . S
H2799 C2783 0.960 . S
C2800 C2801 1.391 . S
C2800 C2802 1.394 . S
C2800 H2816 0.931 . S
C2801 C2800 1.391 . S
C2801 C2805 1.376 . S
C2802 C2800 1.394 . S
C2802 C2803 1.369 . S
C2802 C2806 1.531 . S
C2803 C2802 1.369 . S
C2803 C2804 1.410 . S
C2803 C2811 1.503 . S
C2804 C2803 1.410 . S
C2804 C2805 1.392 . S
C2804 C2807 1.511 . S
C2805 C2801 1.376 . S
C2805 C2804 1.392 . S
C2805 H2817 0.929 . S
C2806 C2802 1.531 . S
C2806 H2818 0.960 . S
C2806 H2819 0.962 . S
C2806 H2820 0.960 . S
C2807 C2804 1.511 . S
C2807 H2821 0.961 . S
C2807 H2822 0.961 . S
C2807 H2823 0.961 . S
C2808 C2809 1.370 . S
C2808 C2810 1.363 . S
C2808 H2824 0.931 . S
C2809 C2808 1.370 . S
C2809 C2813 1.408 . S
C2810 C2808 1.363 . S
C2810 C2811 1.370 . S
C2810 C2814 1.524 . S
C2811 C2803 1.503 . S
C2811 C2810 1.370 . S
C2811 C2812 1.403 . S
C2812 C2811 1.403 . S
C2812 C2813 1.404 . S
C2812 C2815 1.539 . S
C2813 C2809 1.408 . S
C2813 C2812 1.404 . S
C2813 H2825 0.930 . S
C2814 C2810 1.524 . S
C2814 H2826 0.956 . S
C2814 H2827 0.961 . S
C2814 H2828 0.961 . S
C2815 C2812 1.539 . S
C2815 H2829 0.958 . S
C2815 H2830 0.961 . S
C2815 H2831 0.960 . S
H2816 C2800 0.931 . S
H2817 C2805 0.929 . S
H2818 C2806 0.960 . S
H2819 C2806 0.962 . S
H2820 C2806 0.960 . S
H2821 C2807 0.961 . S
H2822 C2807 0.961 . S
H2823 C2807 0.961 . S
H2824 C2808 0.931 . S
H2825 C2813 0.930 . S
H2826 C2814 0.956 . S
H2827 C2814 0.961 . S
H2828 C2814 0.961 . S
H2829 C2815 0.958 . S
H2830 C2815 0.961 . S
H2831 C2815 0.960 . S
C2832 C2833 1.391 1_545 S
C2832 C2834 1.394 . S
C2832 H2848 0.931 . S
C2833 C2832 1.391 1_565 S
C2833 C2837 1.376 . S
C2834 C2832 1.394 . S
C2834 C2835 1.369 . S
C2834 C2838 1.531 . S
C2835 C2834 1.369 . S
C2835 C2836 1.410 1_545 S
C2835 C2843 1.503 . S
C2836 C2835 1.410 1_565 S
C2836 C2837 1.392 . S
C2836 C2839 1.511 . S
C2837 C2833 1.376 . S
C2837 C2836 1.392 . S
C2837 H2849 0.929 . S
C2838 C2834 1.531 . S
C2838 H2850 0.960 . S
C2838 H2851 0.962 . S
C2838 H2852 0.960 . S
C2839 C2836 1.511 . S
C2839 H2853 0.961 . S
C2839 H2854 0.961 . S
C2839 H2855 0.961 . S
C2840 C2841 1.370 . S
C2840 C2842 1.363 . S
C2840 H2856 0.931 . S
C2841 C2840 1.370 . S
C2841 C2845 1.408 1_545 S
C2842 C2840 1.363 . S
C2842 C2843 1.370 . S
C2842 C2846 1.524 . S
C2843 C2835 1.503 . S
C2843 C2842 1.370 . S
C2843 C2844 1.403 1_545 S
C2844 C2843 1.403 1_565 S
C2844 C2845 1.404 . S
C2844 C2847 1.539 . S
C2845 C2841 1.408 1_565 S
C2845 C2844 1.404 . S
C2845 H2857 0.930 . S
C2846 C2842 1.524 . S
C2846 H2858 0.956 . S
C2846 H2859 0.961 . S
C2846 H2860 0.961 . S
C2847 C2844 1.539 . S
C2847 H2861 0.958 . S
C2847 H2862 0.961 . S
C2847 H2863 0.960 . S
H2848 C2832 0.931 . S
H2849 C2837 0.929 . S
H2850 C2838 0.960 . S
H2851 C2838 0.962 . S
H2852 C2838 0.960 . S
H2853 C2839 0.961 . S
H2854 C2839 0.961 . S
H2855 C2839 0.961 . S
H2856 C2840 0.931 . S
H2857 C2845 0.930 . S
H2858 C2846 0.956 . S
H2859 C2846 0.961 . S
H2860 C2846 0.961 . S
H2861 C2847 0.958 . S
H2862 C2847 0.961 . S
H2863 C2847 0.960 . S
C2864 C2865 1.391 . S
C2864 C2866 1.394 . S
C2864 H2880 0.931 . S
C2865 C2864 1.391 . S
C2865 C2869 1.376 . S
C2866 C2864 1.394 . S
C2866 C2867 1.369 . S
C2866 C2870 1.531 . S
C2867 C2866 1.369 . S
C2867 C2868 1.410 . S
C2867 C2875 1.503 . S
C2868 C2867 1.410 . S
C2868 C2869 1.392 . S
C2868 C2871 1.511 . S
C2869 C2865 1.376 . S
C2869 C2868 1.392 . S
C2869 H2881 0.929 . S
C2870 C2866 1.531 . S
C2870 H2882 0.960 . S
C2870 H2883 0.962 . S
C2870 H2884 0.960 . S
C2871 C2868 1.511 . S
C2871 H2885 0.961 . S
C2871 H2886 0.961 . S
C2871 H2887 0.961 . S
C2872 C2873 1.370 . S
C2872 C2874 1.363 . S
C2872 H2888 0.931 . S
C2873 C2872 1.370 . S
C2873 C2877 1.408 . S
C2874 C2872 1.363 . S
C2874 C2875 1.370 . S
C2874 C2878 1.524 . S
C2875 C2867 1.503 . S
C2875 C2874 1.370 . S
C2875 C2876 1.403 . S
C2876 C2875 1.403 . S
C2876 C2877 1.404 . S
C2876 C2879 1.539 . S
C2877 C2873 1.408 . S
C2877 C2876 1.404 . S
C2877 H2889 0.930 . S
C2878 C2874 1.524 . S
C2878 H2890 0.956 . S
C2878 H2891 0.961 . S
C2878 H2892 0.961 . S
C2879 C2876 1.539 . S
C2879 H2893 0.958 . S
C2879 H2894 0.961 . S
C2879 H2895 0.960 . S
H2880 C2864 0.931 . S
H2881 C2869 0.929 . S
H2882 C2870 0.960 . S
H2883 C2870 0.962 . S
H2884 C2870 0.960 . S
H2885 C2871 0.961 . S
H2886 C2871 0.961 . S
H2887 C2871 0.961 . S
H2888 C2872 0.931 . S
H2889 C2877 0.930 . S
H2890 C2878 0.956 . S
H2891 C2878 0.961 . S
H2892 C2878 0.961 . S
H2893 C2879 0.958 . S
H2894 C2879 0.961 . S
H2895 C2879 0.960 . S
C2896 C2897 1.391 . S
C2896 C2898 1.394 . S
C2896 H2912 0.931 1_545 S
C2897 C2896 1.391 . S
C2897 C2901 1.376 . S
C2898 C2896 1.394 . S
C2898 C2899 1.369 . S
C2898 C2902 1.531 1_545 S
C2899 C2898 1.369 . S
C2899 C2900 1.410 . S
C2899 C2907 1.503 . S
C2900 C2899 1.410 . S
C2900 C2901 1.392 . S
C2900 C2903 1.511 . S
C2901 C2897 1.376 . S
C2901 C2900 1.392 . S
C2901 H2913 0.929 . S
C2902 C2898 1.531 1_565 S
C2902 H2914 0.960 . S
C2902 H2915 0.962 1_565 S
C2902 H2916 0.960 . S
C2903 C2900 1.511 . S
C2903 H2917 0.961 . S
C2903 H2918 0.961 . S
C2903 H2919 0.961 . S
C2904 C2905 1.370 . S
C2904 C2906 1.363 . S
C2904 H2920 0.931 . S
C2905 C2904 1.370 . S
C2905 C2909 1.408 1_545 S
C2906 C2904 1.363 . S
C2906 C2907 1.370 . S
C2906 C2910 1.524 . S
C2907 C2899 1.503 . S
C2907 C2906 1.370 . S
C2907 C2908 1.403 1_545 S
C2908 C2907 1.403 1_565 S
C2908 C2909 1.404 . S
C2908 C2911 1.539 . S
C2909 C2905 1.408 1_565 S
C2909 C2908 1.404 . S
C2909 H2921 0.930 . S
C2910 C2906 1.524 . S
C2910 H2922 0.956 . S
C2910 H2923 0.961 . S
C2910 H2924 0.961 . S
C2911 C2908 1.539 . S
C2911 H2925 0.958 . S
C2911 H2926 0.961 . S
C2911 H2927 0.960 . S
H2912 C2896 0.931 1_565 S
H2913 C2901 0.929 . S
H2914 C2902 0.960 . S
H2915 C2902 0.962 1_545 S
H2916 C2902 0.960 . S
H2917 C2903 0.961 . S
H2918 C2903 0.961 . S
H2919 C2903 0.961 . S
H2920 C2904 0.931 . S
H2921 C2909 0.930 . S
H2922 C2910 0.956 . S
H2923 C2910 0.961 . S
H2924 C2910 0.961 . S
H2925 C2911 0.958 . S
H2926 C2911 0.961 . S
H2927 C2911 0.960 . S
C2928 C2929 1.391 . S
C2928 C2930 1.394 . S
C2928 H2944 0.931 . S
C2929 C2928 1.391 . S
C2929 C2933 1.376 . S
C2930 C2928 1.394 . S
C2930 C2931 1.369 . S
C2930 C2934 1.531 . S
C2931 C2930 1.369 . S
C2931 C2932 1.410 . S
C2931 C2939 1.503 . S
C2932 C2931 1.410 . S
C2932 C2933 1.392 . S
C2932 C2935 1.511 . S
C2933 C2929 1.376 . S
C2933 C2932 1.392 . S
C2933 H2945 0.929 . S
C2934 C2930 1.531 . S
C2934 H2946 0.960 . S
C2934 H2947 0.962 . S
C2934 H2948 0.960 . S
C2935 C2932 1.511 . S
C2935 H2949 0.961 . S
C2935 H2950 0.961 . S
C2935 H2951 0.961 . S
C2936 C2937 1.370 . S
C2936 C2938 1.363 . S
C2936 H2952 0.931 . S
C2937 C2936 1.370 . S
C2937 C2941 1.408 . S
C2938 C2936 1.363 . S
C2938 C2939 1.370 . S
C2938 C2942 1.524 . S
C2939 C2931 1.503 . S
C2939 C2938 1.370 . S
C2939 C2940 1.403 . S
C2940 C2939 1.403 . S
C2940 C2941 1.404 . S
C2940 C2943 1.539 . S
C2941 C2937 1.408 . S
C2941 C2940 1.404 . S
C2941 H2953 0.930 . S
C2942 C2938 1.524 . S
C2942 H2954 0.956 . S
C2942 H2955 0.961 . S
C2942 H2956 0.961 . S
C2943 C2940 1.539 . S
C2943 H2957 0.958 . S
C2943 H2958 0.961 . S
C2943 H2959 0.960 . S
H2944 C2928 0.931 . S
H2945 C2933 0.929 . S
H2946 C2934 0.960 . S
H2947 C2934 0.962 . S
H2948 C2934 0.960 . S
H2949 C2935 0.961 . S
H2950 C2935 0.961 . S
H2951 C2935 0.961 . S
H2952 C2936 0.931 . S
H2953 C2941 0.930 . S
H2954 C2942 0.956 . S
H2955 C2942 0.961 . S
H2956 C2942 0.961 . S
H2957 C2943 0.958 . S
H2958 C2943 0.961 . S
H2959 C2943 0.960 . S
C2960 C2961 1.391 . S
C2960 C2962 1.394 . S
C2960 H2976 0.931 . S
C2961 C2960 1.391 . S
C2961 C2965 1.376 . S
C2962 C2960 1.394 . S
C2962 C2963 1.369 . S
C2962 C2966 1.531 . S
C2963 C2962 1.369 . S
C2963 C2964 1.422 . S
C2963 C2971 1.503 . S
C2964 C2963 1.422 . S
C2964 C2965 1.394 . S
C2964 C2967 1.497 1_554 S
C2965 C2961 1.376 . S
C2965 C2964 1.394 . S
C2965 H2977 0.929 1_554 S
C2966 C2962 1.531 . S
C2966 H2978 0.960 . S
C2966 H2979 0.962 . S
C2966 H2980 0.960 . S
C2967 C2964 1.497 1_556 S
C2967 H2981 0.961 . S
C2967 H2982 0.961 . S
C2967 H2983 0.961 . S
C2968 C2969 1.370 . S
C2968 C2970 1.363 . S
C2968 H2984 0.931 . S
C2969 C2968 1.370 . S
C2969 C2973 1.408 . S
C2970 C2968 1.363 . S
C2970 C2971 1.370 . S
C2970 C2974 1.524 . S
C2971 C2963 1.503 . S
C2971 C2970 1.370 . S
C2971 C2972 1.403 . S
C2972 C2971 1.403 . S
C2972 C2973 1.404 . S
C2972 C2975 1.539 . S
C2973 C2969 1.408 . S
C2973 C2972 1.404 . S
C2973 H2985 0.930 . S
C2974 C2970 1.524 . S
C2974 H2986 0.956 . S
C2974 H2987 0.961 . S
C2974 H2988 0.961 . S
C2975 C2972 1.539 . S
C2975 H2989 0.958 . S
C2975 H2990 0.961 1_554 S
C2975 H2991 0.960 1_554 S
H2976 C2960 0.931 . S
H2977 C2965 0.929 1_556 S
H2978 C2966 0.960 . S
H2979 C2966 0.962 . S
H2980 C2966 0.960 . S
H2981 C2967 0.961 . S
H2982 C2967 0.961 . S
H2983 C2967 0.961 . S
H2984 C2968 0.931 . S
H2985 C2973 0.930 . S
H2986 C2974 0.956 . S
H2987 C2974 0.961 . S
H2988 C2974 0.961 . S
H2989 C2975 0.958 . S
H2990 C2975 0.961 1_556 S
H2991 C2975 0.960 1_556 S
C2992 C2993 1.391 . S
C2992 C2994 1.394 . S
C2992 H3008 0.931 . S
C2993 C2992 1.391 . S
C2993 C2997 1.376 . S
C2994 C2992 1.394 . S
C2994 C2995 1.369 . S
C2994 C2998 1.531 1_554 S
C2995 C2994 1.369 . S
C2995 C2996 1.410 . S
C2995 C3003 1.503 . S
C2996 C2995 1.410 . S
C2996 C2997 1.392 . S
C2996 C2999 1.511 . S
C2997 C2993 1.376 . S
C2997 C2996 1.392 . S
C2997 H3009 0.929 . S
C2998 C2994 1.531 1_556 S
C2998 H3010 0.960 . S
C2998 H3011 0.962 . S
C2998 H3012 0.960 . S
C2999 C2996 1.511 . S
C2999 H3013 0.961 . S
C2999 H3014 0.961 . S
C2999 H3015 0.961 . S
C3000 C3001 1.370 . S
C3000 C3002 1.363 . S
C3000 H3016 0.931 . S
C3001 C3000 1.370 . S
C3001 C3005 1.408 . S
C3002 C3000 1.363 . S
C3002 C3003 1.370 . S
C3002 C3006 1.524 . S
C3003 C2995 1.503 . S
C3003 C3002 1.370 . S
C3003 C3004 1.403 . S
C3004 C3003 1.403 . S
C3004 C3005 1.404 . S
C3004 C3007 1.539 . S
C3005 C3001 1.408 . S
C3005 C3004 1.404 . S
C3005 H3017 0.930 . S
C3006 C3002 1.524 . S
C3006 H3018 0.956 . S
C3006 H3019 0.961 . S
C3006 H3020 0.961 . S
C3007 C3004 1.539 . S
C3007 H3021 0.958 . S
C3007 H3022 0.961 . S
C3007 H3023 0.960 . S
H3008 C2992 0.931 . S
H3009 C2997 0.929 . S
H3010 C2998 0.960 . S
H3011 C2998 0.962 . S
H3012 C2998 0.960 . S
H3013 C2999 0.961 . S
H3014 C2999 0.961 . S
H3015 C2999 0.961 . S
H3016 C3000 0.931 . S
H3017 C3005 0.930 . S
H3018 C3006 0.956 . S
H3019 C3006 0.961 . S
H3020 C3006 0.961 . S
H3021 C3007 0.958 . S
H3022 C3007 0.961 . S
H3023 C3007 0.960 . S
C3024 C3025 1.391 . S
C3024 C3026 1.394 . S
C3024 H3040 0.931 . S
C3025 C3024 1.391 . S
C3025 C3029 1.376 . S
C3026 C3024 1.394 . S
C3026 C3027 1.369 . S
C3026 C3030 1.531 . S
C3027 C3026 1.369 . S
C3027 C3028 1.410 . S
C3027 C3035 1.503 . S
C3028 C3027 1.410 . S
C3028 C3029 1.392 . S
C3028 C3031 1.511 . S
C3029 C3025 1.376 . S
C3029 C3028 1.392 . S
C3029 H3041 0.929 . S
C3030 C3026 1.531 . S
C3030 H3042 0.960 . S
C3030 H3043 0.962 . S
C3030 H3044 0.960 . S
C3031 C3028 1.511 . S
C3031 H3045 0.961 . S
C3031 H3046 0.961 . S
C3031 H3047 0.961 . S
C3032 C3033 1.370 . S
C3032 C3034 1.363 . S
C3032 H3048 0.931 . S
C3033 C3032 1.370 . S
C3033 C3037 1.408 . S
C3034 C3032 1.363 . S
C3034 C3035 1.370 . S
C3034 C3038 1.524 . S
C3035 C3027 1.503 . S
C3035 C3034 1.370 . S
C3035 C3036 1.403 . S
C3036 C3035 1.403 . S
C3036 C3037 1.404 . S
C3036 C3039 1.539 . S
C3037 C3033 1.408 . S
C3037 C3036 1.404 . S
C3037 H3049 0.930 . S
C3038 C3034 1.524 . S
C3038 H3050 0.956 . S
C3038 H3051 0.961 . S
C3038 H3052 0.961 . S
C3039 C3036 1.539 . S
C3039 H3053 0.958 . S
C3039 H3054 0.961 . S
C3039 H3055 0.960 . S
H3040 C3024 0.931 . S
H3041 C3029 0.929 . S
H3042 C3030 0.960 . S
H3043 C3030 0.962 . S
H3044 C3030 0.960 . S
H3045 C3031 0.961 . S
H3046 C3031 0.961 . S
H3047 C3031 0.961 . S
H3048 C3032 0.931 . S
H3049 C3037 0.930 . S
H3050 C3038 0.956 . S
H3051 C3038 0.961 . S
H3052 C3038 0.961 . S
H3053 C3039 0.958 . S
H3054 C3039 0.961 . S
H3055 C3039 0.960 . S
C3056 C3057 1.391 . S
C3056 C3058 1.394 . S
C3056 H3072 0.931 . S
C3057 C3056 1.391 . S
C3057 C3061 1.376 . S
C3058 C3056 1.394 . S
C3058 C3059 1.369 . S
C3058 C3062 1.531 . S
C3059 C3058 1.369 . S
C3059 C3060 1.410 . S
C3059 C3067 1.503 . S
C3060 C3059 1.410 . S
C3060 C3061 1.392 . S
C3060 C3063 1.511 . S
C3061 C3057 1.376 . S
C3061 C3060 1.392 . S
C3061 H3073 0.929 . S
C3062 C3058 1.531 . S
C3062 H3074 0.960 . S
C3062 H3075 0.962 . S
C3062 H3076 0.960 . S
C3063 C3060 1.511 . S
C3063 H3077 0.961 . S
C3063 H3078 0.961 . S
C3063 H3079 0.961 . S
C3064 C3065 1.370 . S
C3064 C3066 1.363 . S
C3064 H3080 0.931 . S
C3065 C3064 1.370 . S
C3065 C3069 1.408 . S
C3066 C3064 1.363 . S
C3066 C3067 1.370 . S
C3066 C3070 1.524 . S
C3067 C3059 1.503 . S
C3067 C3066 1.370 . S
C3067 C3068 1.403 . S
C3068 C3067 1.403 . S
C3068 C3069 1.404 . S
C3068 C3071 1.539 . S
C3069 C3065 1.408 . S
C3069 C3068 1.404 . S
C3069 H3081 0.930 . S
C3070 C3066 1.524 . S
C3070 H3082 0.956 . S
C3070 H3083 0.961 . S
C3070 H3084 0.961 . S
C3071 C3068 1.539 . S
C3071 H3085 0.958 . S
C3071 H3086 0.961 . S
C3071 H3087 0.960 . S
H3072 C3056 0.931 . S
H3073 C3061 0.929 . S
H3074 C3062 0.960 . S
H3075 C3062 0.962 . S
H3076 C3062 0.960 . S
H3077 C3063 0.961 . S
H3078 C3063 0.961 . S
H3079 C3063 0.961 . S
H3080 C3064 0.931 . S
H3081 C3069 0.930 . S
H3082 C3070 0.956 . S
H3083 C3070 0.961 . S
H3084 C3070 0.961 . S
H3085 C3071 0.958 . S
H3086 C3071 0.961 . S
H3087 C3071 0.960 . S
C3088 C3089 1.391 . S
C3088 C3090 1.394 . S
C3088 H3104 0.931 . S
C3089 C3088 1.391 . S
C3089 C3093 1.376 1_565 S
C3090 C3088 1.394 . S
C3090 C3091 1.369 . S
C3090 C3094 1.531 . S
C3091 C3090 1.369 . S
C3091 C3092 1.410 . S
C3091 C3099 1.503 . S
C3092 C3091 1.410 . S
C3092 C3093 1.392 1_565 S
C3092 C3095 1.516 . S
C3093 C3089 1.376 1_545 S
C3093 C3092 1.392 1_545 S
C3093 H3105 0.929 . S
C3094 C3090 1.531 . S
C3094 H3106 0.960 . S
C3094 H3107 0.962 . S
C3094 H3108 0.960 . S
C3095 C3092 1.516 . S
C3095 H3109 0.935 1_565 S
C3095 H3110 0.992 . S
C3095 H3111 0.952 1_565 S
C3096 C3097 1.370 . S
C3096 C3098 1.363 . S
C3096 H3112 0.931 . S
C3097 C3096 1.370 . S
C3097 C3101 1.408 . S
C3098 C3096 1.363 . S
C3098 C3099 1.370 . S
C3098 C3102 1.524 . S
C3099 C3091 1.503 . S
C3099 C3098 1.370 . S
C3099 C3100 1.403 . S
C3100 C3099 1.403 . S
C3100 C3101 1.404 . S
C3100 C3103 1.539 . S
C3101 C3097 1.408 . S
C3101 C3100 1.404 . S
C3101 H3113 0.930 . S
C3102 C3098 1.524 . S
C3102 H3114 0.956 . S
C3102 H3115 0.961 . S
C3102 H3116 0.961 . S
C3103 C3100 1.539 . S
C3103 H3117 0.958 . S
C3103 H3118 0.961 . S
C3103 H3119 0.960 . S
H3104 C3088 0.931 . S
H3105 C3093 0.929 . S
H3106 C3094 0.960 . S
H3107 C3094 0.962 . S
H3108 C3094 0.960 . S
H3109 C3095 0.935 1_545 S
H3110 C3095 0.992 . S
H3111 C3095 0.952 1_545 S
H3112 C3096 0.931 . S
H3113 C3101 0.930 . S
H3114 C3102 0.956 . S
H3115 C3102 0.961 . S
H3116 C3102 0.961 . S
H3117 C3103 0.958 . S
H3118 C3103 0.961 . S
H3119 C3103 0.960 . S
C3120 C3121 1.391 . S
C3120 C3122 1.394 . S
C3120 H3136 0.931 . S
C3121 C3120 1.391 . S
C3121 C3125 1.376 . S
C3122 C3120 1.394 . S
C3122 C3123 1.369 . S
C3122 C3126 1.531 . S
C3123 C3122 1.369 . S
C3123 C3124 1.410 . S
C3123 C3131 1.503 . S
C3124 C3123 1.410 . S
C3124 C3125 1.392 . S
C3124 C3127 1.511 . S
C3125 C3121 1.376 . S
C3125 C3124 1.392 . S
C3125 H3137 0.929 . S
C3126 C3122 1.531 . S
C3126 H3138 0.960 . S
C3126 H3139 0.962 . S
C3126 H3140 0.960 . S
C3127 C3124 1.511 . S
C3127 H3141 0.961 . S
C3127 H3142 0.961 . S
C3127 H3143 0.961 . S
C3128 C3129 1.370 . S
C3128 C3130 1.363 . S
C3128 H3144 0.931 . S
C3129 C3128 1.370 . S
C3129 C3133 1.408 . S
C3130 C3128 1.363 . S
C3130 C3131 1.370 . S
C3130 C3134 1.524 . S
C3131 C3123 1.503 . S
C3131 C3130 1.370 . S
C3131 C3132 1.403 . S
C3132 C3131 1.403 . S
C3132 C3133 1.404 . S
C3132 C3135 1.539 . S
C3133 C3129 1.408 . S
C3133 C3132 1.404 . S
C3133 H3145 0.930 . S
C3134 C3130 1.524 . S
C3134 H3146 0.956 . S
C3134 H3147 0.961 . S
C3134 H3148 0.961 . S
C3135 C3132 1.539 . S
C3135 H3149 0.958 . S
C3135 H3150 0.961 . S
C3135 H3151 0.960 . S
H3136 C3120 0.931 . S
H3137 C3125 0.929 . S
H3138 C3126 0.960 . S
H3139 C3126 0.962 . S
H3140 C3126 0.960 . S
H3141 C3127 0.961 . S
H3142 C3127 0.961 . S
H3143 C3127 0.961 . S
H3144 C3128 0.931 . S
H3145 C3133 0.930 . S
H3146 C3134 0.956 . S
H3147 C3134 0.961 . S
H3148 C3134 0.961 . S
H3149 C3135 0.958 . S
H3150 C3135 0.961 . S
H3151 C3135 0.960 . S
C3152 C3153 1.391 . S
C3152 C3154 1.394 . S
C3152 H3168 0.931 . S
C3153 C3152 1.391 . S
C3153 C3157 1.376 . S
C3154 C3152 1.394 . S
C3154 C3155 1.369 . S
C3154 C3158 1.531 . S
C3155 C3154 1.369 . S
C3155 C3156 1.410 . S
C3155 C3163 1.503 . S
C3156 C3155 1.410 . S
C3156 C3157 1.392 . S
C3156 C3159 1.511 . S
C3157 C3153 1.376 . S
C3157 C3156 1.392 . S
C3157 H3169 0.929 . S
C3158 C3154 1.531 . S
C3158 H3170 0.960 . S
C3158 H3171 0.962 . S
C3158 H3172 0.960 . S
C3159 C3156 1.511 . S
C3159 H3173 0.961 . S
C3159 H3174 0.961 . S
C3159 H3175 0.961 . S
C3160 C3161 1.370 . S
C3160 C3162 1.363 . S
C3160 H3176 0.931 . S
C3161 C3160 1.370 . S
C3161 C3165 1.408 . S
C3162 C3160 1.363 . S
C3162 C3163 1.370 . S
C3162 C3166 1.524 . S
C3163 C3155 1.503 . S
C3163 C3162 1.370 . S
C3163 C3164 1.403 . S
C3164 C3163 1.403 . S
C3164 C3165 1.404 . S
C3164 C3167 1.539 . S
C3165 C3161 1.408 . S
C3165 C3164 1.404 . S
C3165 H3177 0.930 . S
C3166 C3162 1.524 . S
C3166 H3178 0.956 . S
C3166 H3179 0.961 . S
C3166 H3180 0.961 . S
C3167 C3164 1.539 . S
C3167 H3181 0.958 . S
C3167 H3182 0.961 . S
C3167 H3183 0.960 . S
H3168 C3152 0.931 . S
H3169 C3157 0.929 . S
H3170 C3158 0.960 . S
H3171 C3158 0.962 . S
H3172 C3158 0.960 . S
H3173 C3159 0.961 . S
H3174 C3159 0.961 . S
H3175 C3159 0.961 . S
H3176 C3160 0.931 . S
H3177 C3165 0.930 . S
H3178 C3166 0.956 . S
H3179 C3166 0.961 . S
H3180 C3166 0.961 . S
H3181 C3167 0.958 . S
H3182 C3167 0.961 . S
H3183 C3167 0.960 . S
C3184 C3185 1.391 . S
C3184 C3186 1.394 . S
C3184 H3200 0.931 . S
C3185 C3184 1.391 . S
C3185 C3189 1.376 . S
C3186 C3184 1.394 . S
C3186 C3187 1.369 . S
C3186 C3190 1.531 . S
C3187 C3186 1.369 . S
C3187 C3188 1.410 . S
C3187 C3195 1.503 . S
C3188 C3187 1.410 . S
C3188 C3189 1.392 . S
C3188 C3191 1.511 . S
C3189 C3185 1.376 . S
C3189 C3188 1.392 . S
C3189 H3201 0.929 . S
C3190 C3186 1.531 . S
C3190 H3202 0.960 . S
C3190 H3203 0.962 . S
C3190 H3204 0.960 . S
C3191 C3188 1.511 . S
C3191 H3205 0.961 . S
C3191 H3206 0.961 . S
C3191 H3207 0.961 . S
C3192 C3193 1.370 . S
C3192 C3194 1.363 . S
C3192 H3208 0.931 . S
C3193 C3192 1.370 . S
C3193 C3197 1.408 . S
C3194 C3192 1.363 . S
C3194 C3195 1.370 . S
C3194 C3198 1.524 . S
C3195 C3187 1.503 . S
C3195 C3194 1.370 . S
C3195 C3196 1.403 . S
C3196 C3195 1.403 . S
C3196 C3197 1.404 . S
C3196 C3199 1.539 . S
C3197 C3193 1.408 . S
C3197 C3196 1.404 . S
C3197 H3209 0.930 . S
C3198 C3194 1.524 . S
C3198 H3210 0.956 . S
C3198 H3211 0.961 . S
C3198 H3212 0.961 . S
C3199 C3196 1.539 . S
C3199 H3213 0.958 . S
C3199 H3214 0.961 . S
C3199 H3215 0.960 . S
H3200 C3184 0.931 . S
H3201 C3189 0.929 . S
H3202 C3190 0.960 . S
H3203 C3190 0.962 . S
H3204 C3190 0.960 . S
H3205 C3191 0.961 . S
H3206 C3191 0.961 . S
H3207 C3191 0.961 . S
H3208 C3192 0.931 . S
H3209 C3197 0.930 . S
H3210 C3198 0.956 . S
H3211 C3198 0.961 . S
H3212 C3198 0.961 . S
H3213 C3199 0.958 . S
H3214 C3199 0.961 . S
H3215 C3199 0.960 . S
C3216 C3217 1.391 . S
C3216 C3218 1.394 . S
C3216 H3232 0.931 . S
C3217 C3216 1.391 . S
C3217 C3221 1.376 . S
C3218 C3216 1.394 . S
C3218 C3219 1.369 . S
C3218 C3222 1.531 . S
C3219 C3218 1.369 . S
C3219 C3220 1.410 . S
C3219 C3227 1.503 . S
C3220 C3219 1.410 . S
C3220 C3221 1.392 . S
C3220 C3223 1.511 . S
C3221 C3217 1.376 . S
C3221 C3220 1.392 . S
C3221 H3233 0.929 . S
C3222 C3218 1.531 . S
C3222 H3234 0.960 . S
C3222 H3235 0.962 . S
C3222 H3236 0.960 . S
C3223 C3220 1.511 . S
C3223 H3237 0.961 . S
C3223 H3238 0.961 . S
C3223 H3239 0.961 . S
C3224 C3225 1.370 . S
C3224 C3226 1.363 . S
C3224 H3240 0.931 . S
C3225 C3224 1.370 . S
C3225 C3229 1.408 . S
C3226 C3224 1.363 . S
C3226 C3227 1.370 . S
C3226 C3230 1.524 . S
C3227 C3219 1.503 . S
C3227 C3226 1.370 . S
C3227 C3228 1.403 . S
C3228 C3227 1.403 . S
C3228 C3229 1.404 . S
C3228 C3231 1.539 . S
C3229 C3225 1.408 . S
C3229 C3228 1.404 . S
C3229 H3241 0.930 . S
C3230 C3226 1.524 . S
C3230 H3242 0.956 . S
C3230 H3243 0.961 . S
C3230 H3244 0.961 . S
C3231 C3228 1.539 . S
C3231 H3245 0.958 . S
C3231 H3246 0.961 . S
C3231 H3247 0.960 . S
H3232 C3216 0.931 . S
H3233 C3221 0.929 . S
H3234 C3222 0.960 . S
H3235 C3222 0.962 . S
H3236 C3222 0.960 . S
H3237 C3223 0.961 . S
H3238 C3223 0.961 . S
H3239 C3223 0.961 . S
H3240 C3224 0.931 . S
H3241 C3229 0.930 . S
H3242 C3230 0.956 . S
H3243 C3230 0.961 . S
H3244 C3230 0.961 . S
H3245 C3231 0.958 . S
H3246 C3231 0.961 . S
H3247 C3231 0.960 . S
C3248 C3249 1.391 . S
C3248 C3250 1.394 . S
C3248 H3264 0.931 . S
C3249 C3248 1.391 . S
C3249 C3253 1.376 . S
C3250 C3248 1.394 . S
C3250 C3251 1.369 . S
C3250 C3254 1.531 . S
C3251 C3250 1.369 . S
C3251 C3252 1.410 . S
C3251 C3259 1.503 . S
C3252 C3251 1.410 . S
C3252 C3253 1.392 . S
C3252 C3255 1.511 . S
C3253 C3249 1.376 . S
C3253 C3252 1.392 . S
C3253 H3265 0.929 . S
C3254 C3250 1.531 . S
C3254 H3266 0.960 . S
C3254 H3267 0.962 . S
C3254 H3268 0.960 . S
C3255 C3252 1.511 . S
C3255 H3269 0.961 . S
C3255 H3270 0.961 . S
C3255 H3271 0.961 . S
C3256 C3257 1.370 . S
C3256 C3258 1.363 . S
C3256 H3272 0.931 . S
C3257 C3256 1.370 . S
C3257 C3261 1.408 . S
C3258 C3256 1.363 . S
C3258 C3259 1.370 . S
C3258 C3262 1.524 . S
C3259 C3251 1.503 . S
C3259 C3258 1.370 . S
C3259 C3260 1.403 . S
C3260 C3259 1.403 . S
C3260 C3261 1.404 . S
C3260 C3263 1.539 . S
C3261 C3257 1.408 . S
C3261 C3260 1.404 . S
C3261 H3273 0.930 . S
C3262 C3258 1.524 . S
C3262 H3274 0.956 . S
C3262 H3275 0.961 . S
C3262 H3276 0.961 . S
C3263 C3260 1.539 . S
C3263 H3277 0.958 . S
C3263 H3278 0.961 . S
C3263 H3279 0.960 . S
H3264 C3248 0.931 . S
H3265 C3253 0.929 . S
H3266 C3254 0.960 . S
H3267 C3254 0.962 . S
H3268 C3254 0.960 . S
H3269 C3255 0.961 . S
H3270 C3255 0.961 . S
H3271 C3255 0.961 . S
H3272 C3256 0.931 . S
H3273 C3261 0.930 . S
H3274 C3262 0.956 . S
H3275 C3262 0.961 . S
H3276 C3262 0.961 . S
H3277 C3263 0.958 . S
H3278 C3263 0.961 . S
H3279 C3263 0.960 . S
C3280 C3281 1.391 . S
C3280 C3282 1.394 . S
C3280 H3296 0.931 . S
C3281 C3280 1.391 . S
C3281 C3285 1.376 . S
C3282 C3280 1.394 . S
C3282 C3283 1.369 . S
C3282 C3286 1.531 . S
C3283 C3282 1.369 . S
C3283 C3284 1.410 . S
C3283 C3291 1.503 . S
C3284 C3283 1.410 . S
C3284 C3285 1.392 . S
C3284 C3287 1.511 1_455 S
C3285 C3281 1.376 . S
C3285 C3284 1.392 . S
C3285 H3297 0.970 . S
C3286 C3282 1.531 . S
C3286 H3298 0.960 . S
C3286 H3299 0.962 . S
C3286 H3300 0.960 . S
C3287 C3284 1.511 1_655 S
C3287 H3301 0.961 1_556 S
C3287 H3302 0.961 1_656 S
C3287 H3303 0.961 . S
C3288 C3289 1.370 . S
C3288 C3290 1.363 . S
C3288 H3304 0.931 . S
C3289 C3288 1.370 . S
C3289 C3293 1.408 1_554 S
C3290 C3288 1.363 . S
C3290 C3291 1.370 1_554 S
C3290 C3294 1.524 . S
C3291 C3283 1.503 . S
C3291 C3290 1.370 1_556 S
C3291 C3292 1.403 . S
C3292 C3291 1.403 . S
C3292 C3293 1.404 . S
C3292 C3295 1.539 . S
C3293 C3289 1.408 1_556 S
C3293 C3292 1.404 . S
C3293 H3305 0.930 . S
C3294 C3290 1.524 . S
C3294 H3306 0.956 . S
C3294 H3307 0.961 . S
C3294 H3308 0.961 . S
C3295 C3292 1.539 . S
C3295 H3309 0.958 . S
C3295 H3310 0.961 . S
C3295 H3311 0.960 . S
H3296 C3280 0.931 . S
H3297 C3285 0.970 . S
H3298 C3286 0.960 . S
H3299 C3286 0.962 . S
H3300 C3286 0.960 . S
H3301 C3287 0.961 1_554 S
H3302 C3287 0.961 1_454 S
H3303 C3287 0.961 . S
H3304 C3288 0.931 . S
H3305 C3293 0.930 . S
H3306 C3294 0.956 . S
H3307 C3294 0.961 . S
H3308 C3294 0.961 . S
H3309 C3295 0.958 . S
H3310 C3295 0.961 . S
H3311 C3295 0.960 . S
C3312 C3313 1.391 . S
C3312 C3314 1.394 1_455 S
C3312 H3328 0.931 . S
C3313 C3312 1.391 . S
C3313 C3317 1.376 . S
C3314 C3312 1.394 1_655 S
C3314 C3315 1.369 . S
C3314 C3318 1.531 . S
C3315 C3314 1.369 . S
C3315 C3316 1.410 1_655 S
C3315 C3323 1.503 . S
C3316 C3315 1.410 1_455 S
C3316 C3317 1.392 . S
C3316 C3319 1.511 . S
C3317 C3313 1.376 . S
C3317 C3316 1.392 . S
C3317 H3329 0.929 . S
C3318 C3314 1.531 . S
C3318 H3330 0.960 . S
C3318 H3331 0.962 . S
C3318 H3332 0.960 . S
C3319 C3316 1.511 . S
C3319 H3333 0.961 . S
C3319 H3334 0.961 . S
C3319 H3335 0.961 . S
C3320 C3321 1.370 . S
C3320 C3322 1.363 . S
C3320 H3336 0.931 . S
C3321 C3320 1.370 . S
C3321 C3325 1.408 . S
C3322 C3320 1.363 . S
C3322 C3323 1.370 . S
C3322 C3326 1.524 . S
C3323 C3315 1.503 . S
C3323 C3322 1.370 . S
C3323 C3324 1.403 . S
C3324 C3323 1.403 . S
C3324 C3325 1.404 . S
C3324 C3327 1.539 . S
C3325 C3321 1.408 . S
C3325 C3324 1.404 . S
C3325 H3337 0.930 . S
C3326 C3322 1.524 . S
C3326 H3338 0.956 . S
C3326 H3339 0.961 . S
C3326 H3340 0.961 . S
C3327 C3324 1.539 . S
C3327 H3341 0.958 . S
C3327 H3342 0.961 . S
C3327 H3343 0.960 . S
H3328 C3312 0.931 . S
H3329 C3317 0.929 . S
H3330 C3318 0.960 . S
H3331 C3318 0.962 . S
H3332 C3318 0.960 . S
H3333 C3319 0.961 . S
H3334 C3319 0.961 . S
H3335 C3319 0.961 . S
H3336 C3320 0.931 . S
H3337 C3325 0.930 . S
H3338 C3326 0.956 . S
H3339 C3326 0.961 . S
H3340 C3326 0.961 . S
H3341 C3327 0.958 . S
H3342 C3327 0.961 . S
H3343 C3327 0.960 . S
C3344 C3345 1.391 . S
C3344 C3346 1.394 . S
C3344 H3360 0.931 . S
C3345 C3344 1.391 . S
C3345 C3349 1.376 . S
C3346 C3344 1.394 . S
C3346 C3347 1.369 . S
C3346 C3350 1.531 . S
C3347 C3346 1.369 . S
C3347 C3348 1.410 . S
C3347 C3355 1.503 . S
C3348 C3347 1.410 . S
C3348 C3349 1.392 . S
C3348 C3351 1.511 . S
C3349 C3345 1.376 . S
C3349 C3348 1.392 . S
C3349 H3361 0.929 . S
C3350 C3346 1.531 . S
C3350 H3362 0.960 . S
C3350 H3363 0.962 . S
C3350 H3364 0.960 . S
C3351 C3348 1.511 . S
C3351 H3365 0.961 . S
C3351 H3366 0.961 . S
C3351 H3367 0.961 . S
C3352 C3353 1.370 . S
C3352 C3354 1.363 . S
C3352 H3368 0.931 . S
C3353 C3352 1.370 . S
C3353 C3357 1.408 . S
C3354 C3352 1.363 . S
C3354 C3355 1.370 . S
C3354 C3358 1.524 . S
C3355 C3347 1.503 . S
C3355 C3354 1.370 . S
C3355 C3356 1.403 . S
C3356 C3355 1.403 . S
C3356 C3357 1.404 . S
C3356 C3359 1.539 . S
C3357 C3353 1.408 . S
C3357 C3356 1.404 . S
C3357 H3369 0.930 . S
C3358 C3354 1.524 . S
C3358 H3370 0.956 . S
C3358 H3371 0.961 . S
C3358 H3372 0.961 . S
C3359 C3356 1.539 . S
C3359 H3373 0.958 . S
C3359 H3374 0.961 . S
C3359 H3375 0.960 . S
H3360 C3344 0.931 . S
H3361 C3349 0.929 . S
H3362 C3350 0.960 . S
H3363 C3350 0.962 . S
H3364 C3350 0.960 . S
H3365 C3351 0.961 . S
H3366 C3351 0.961 . S
H3367 C3351 0.961 . S
H3368 C3352 0.931 . S
H3369 C3357 0.930 . S
H3370 C3358 0.956 . S
H3371 C3358 0.961 . S
H3372 C3358 0.961 . S
H3373 C3359 0.958 . S
H3374 C3359 0.961 . S
H3375 C3359 0.960 . S
C3376 C3377 1.391 . S
C3376 C3378 1.394 . S
C3376 H3392 0.931 . S
C3377 C3376 1.391 . S
C3377 C3381 1.376 . S
C3378 C3376 1.394 . S
C3378 C3379 1.369 . S
C3378 C3382 1.531 . S
C3379 C3378 1.369 . S
C3379 C3380 1.410 . S
C3379 C3387 1.503 1_455 S
C3380 C3379 1.410 . S
C3380 C3381 1.392 . S
C3380 C3383 1.511 . S
C3381 C3377 1.376 . S
C3381 C3380 1.392 . S
C3381 H3393 0.929 . S
C3382 C3378 1.531 . S
C3382 H3394 0.960 1_455 S
C3382 H3395 0.962 . S
C3382 H3396 0.960 . S
C3383 C3380 1.511 . S
C3383 H3397 0.961 . S
C3383 H3398 0.961 . S
C3383 H3399 0.961 . S
C3384 C3385 1.370 . S
C3384 C3386 1.363 . S
C3384 H3400 0.931 . S
C3385 C3384 1.370 . S
C3385 C3389 1.408 . S
C3386 C3384 1.363 . S
C3386 C3387 1.370 . S
C3386 C3390 1.524 1_655 S
C3387 C3379 1.503 1_655 S
C3387 C3386 1.370 . S
C3387 C3388 1.403 . S
C3388 C3387 1.403 . S
C3388 C3389 1.404 . S
C3388 C3391 1.539 . S
C3389 C3385 1.408 . S
C3389 C3388 1.404 . S
C3389 H3401 0.930 . S
C3390 C3386 1.524 1_455 S
C3390 H3402 0.956 . S
C3390 H3403 0.961 . S
C3390 H3404 0.961 . S
C3391 C3388 1.539 . S
C3391 H3405 0.958 . S
C3391 H3406 0.961 . S
C3391 H3407 0.960 . S
H3392 C3376 0.931 . S
H3393 C3381 0.929 . S
H3394 C3382 0.960 1_655 S
H3395 C3382 0.962 . S
H3396 C3382 0.960 . S
H3397 C3383 0.961 . S
H3398 C3383 0.961 . S
H3399 C3383 0.961 . S
H3400 C3384 0.931 . S
H3401 C3389 0.930 . S
H3402 C3390 0.956 . S
H3403 C3390 0.961 . S
H3404 C3390 0.961 . S
H3405 C3391 0.958 . S
H3406 C3391 0.961 . S
H3407 C3391 0.960 . S
C3408 C3409 1.391 . S
C3408 C3410 1.394 1_655 S
C3408 H3424 0.931 . S
C3409 C3408 1.391 . S
C3409 C3413 1.376 1_655 S
C3410 C3408 1.394 1_455 S
C3410 C3411 1.369 . S
C3410 C3414 1.531 . S
C3411 C3410 1.369 . S
C3411 C3412 1.410 . S
C3411 C3419 1.503 . S
C3412 C3411 1.410 . S
C3412 C3413 1.392 . S
C3412 C3415 1.511 . S
C3413 C3409 1.376 1_455 S
C3413 C3412 1.392 . S
C3413 H3425 0.929 . S
C3414 C3410 1.531 . S
C3414 H3426 0.979 . S
C3414 H3427 0.948 1_455 S
C3414 H3428 0.947 1_455 S
C3415 C3412 1.511 . S
C3415 H3429 0.961 . S
C3415 H3430 0.961 . S
C3415 H3431 0.961 . S
C3416 C3417 1.370 . S
C3416 C3418 1.363 . S
C3416 H3432 0.931 . S
C3417 C3416 1.370 . S
C3417 C3421 1.408 . S
C3418 C3416 1.363 . S
C3418 C3419 1.370 . S
C3418 C3422 1.524 1_455 S
C3419 C3411 1.503 . S
C3419 C3418 1.370 . S
C3419 C3420 1.403 . S
C3420 C3419 1.403 . S
C3420 C3421 1.404 . S
C3420 C3423 1.539 . S
C3421 C3417 1.408 . S
C3421 C3420 1.404 . S
C3421 H3433 0.930 . S
C3422 C3418 1.524 1_655 S
C3422 H3434 0.956 . S
C3422 H3435 0.961 . S
C3422 H3436 0.961 . S
C3423 C3420 1.539 . S
C3423 H3437 0.958 . S
C3423 H3438 0.961 . S
C3423 H3439 0.960 . S
H3424 C3408 0.931 . S
H3425 C3413 0.929 . S
H3426 C3414 0.979 . S
H3427 C3414 0.948 1_655 S
H3428 C3414 0.947 1_655 S
H3429 C3415 0.961 . S
H3430 C3415 0.961 . S
H3431 C3415 0.961 . S
H3432 C3416 0.931 . S
H3433 C3421 0.930 . S
H3434 C3422 0.956 . S
H3435 C3422 0.961 . S
H3436 C3422 0.961 . S
H3437 C3423 0.958 . S
H3438 C3423 0.961 . S
H3439 C3423 0.960 . S
C3440 C3441 1.391 . S
C3440 C3442 1.394 . S
C3440 H3456 0.931 . S
C3441 C3440 1.391 . S
C3441 C3445 1.376 . S
C3442 C3440 1.394 . S
C3442 C3443 1.369 . S
C3442 C3446 1.531 . S
C3443 C3442 1.369 . S
C3443 C3444 1.410 . S
C3443 C3451 1.503 . S
C3444 C3443 1.410 . S
C3444 C3445 1.392 . S
C3444 C3447 1.511 . S
C3445 C3441 1.376 . S
C3445 C3444 1.392 . S
C3445 H3457 0.929 . S
C3446 C3442 1.531 . S
C3446 H3458 0.960 . S
C3446 H3459 0.962 . S
C3446 H3460 0.960 . S
C3447 C3444 1.511 . S
C3447 H3461 0.961 . S
C3447 H3462 0.961 . S
C3447 H3463 0.961 . S
C3448 C3449 1.370 . S
C3448 C3450 1.363 . S
C3448 H3464 0.931 . S
C3449 C3448 1.370 . S
C3449 C3453 1.408 . S
C3450 C3448 1.363 . S
C3450 C3451 1.370 . S
C3450 C3454 1.524 . S
C3451 C3443 1.503 . S
C3451 C3450 1.370 . S
C3451 C3452 1.403 . S
C3452 C3451 1.403 . S
C3452 C3453 1.404 . S
C3452 C3455 1.539 . S
C3453 C3449 1.408 . S
C3453 C3452 1.404 . S
C3453 H3465 0.930 . S
C3454 C3450 1.524 . S
C3454 H3466 0.956 . S
C3454 H3467 0.961 . S
C3454 H3468 0.961 . S
C3455 C3452 1.539 . S
C3455 H3469 0.958 . S
C3455 H3470 0.961 . S
C3455 H3471 0.960 . S
H3456 C3440 0.931 . S
H3457 C3445 0.929 . S
H3458 C3446 0.960 . S
H3459 C3446 0.962 . S
H3460 C3446 0.960 . S
H3461 C3447 0.961 . S
H3462 C3447 0.961 . S
H3463 C3447 0.961 . S
H3464 C3448 0.931 . S
H3465 C3453 0.930 . S
H3466 C3454 0.956 . S
H3467 C3454 0.961 . S
H3468 C3454 0.961 . S
H3469 C3455 0.958 . S
H3470 C3455 0.961 . S
H3471 C3455 0.960 . S
C3472 C3473 1.391 . S
C3472 C3474 1.394 . S
C3472 H3488 0.931 . S
C3473 C3472 1.391 . S
C3473 C3477 1.376 . S
C3474 C3472 1.394 . S
C3474 C3475 1.369 . S
C3474 C3478 1.531 . S
C3475 C3474 1.369 . S
C3475 C3476 1.410 . S
C3475 C3483 1.503 . S
C3476 C3475 1.410 . S
C3476 C3477 1.392 . S
C3476 C3479 1.511 . S
C3477 C3473 1.376 . S
C3477 C3476 1.392 . S
C3477 H3489 0.929 . S
C3478 C3474 1.531 . S
C3478 H3490 0.960 . S
C3478 H3491 0.962 . S
C3478 H3492 0.960 . S
C3479 C3476 1.511 . S
C3479 H3493 0.961 . S
C3479 H3494 0.961 . S
C3479 H3495 0.961 . S
C3480 C3481 1.370 . S
C3480 C3482 1.363 . S
C3480 H3496 0.931 . S
C3481 C3480 1.370 . S
C3481 C3485 1.408 . S
C3482 C3480 1.363 . S
C3482 C3483 1.370 . S
C3482 C3486 1.524 . S
C3483 C3475 1.503 . S
C3483 C3482 1.370 . S
C3483 C3484 1.403 . S
C3484 C3483 1.403 . S
C3484 C3485 1.404 . S
C3484 C3487 1.539 . S
C3485 C3481 1.408 . S
C3485 C3484 1.404 . S
C3485 H3497 0.930 . S
C3486 C3482 1.524 . S
C3486 H3498 0.956 . S
C3486 H3499 0.961 . S
C3486 H3500 0.961 . S
C3487 C3484 1.539 . S
C3487 H3501 0.958 . S
C3487 H3502 0.961 . S
C3487 H3503 0.960 . S
H3488 C3472 0.931 . S
H3489 C3477 0.929 . S
H3490 C3478 0.960 . S
H3491 C3478 0.962 . S
H3492 C3478 0.960 . S
H3493 C3479 0.961 . S
H3494 C3479 0.961 . S
H3495 C3479 0.961 . S
H3496 C3480 0.931 . S
H3497 C3485 0.930 . S
H3498 C3486 0.956 . S
H3499 C3486 0.961 . S
H3500 C3486 0.961 . S
H3501 C3487 0.958 . S
H3502 C3487 0.961 . S
H3503 C3487 0.960 . S
C3504 C3505 1.391 . S
C3504 C3506 1.394 . S
C3504 H3520 0.931 . S
C3505 C3504 1.391 . S
C3505 C3509 1.376 . S
C3506 C3504 1.394 . S
C3506 C3507 1.369 . S
C3506 C3510 1.531 . S
C3507 C3506 1.369 . S
C3507 C3508 1.410 . S
C3507 C3515 1.503 . S
C3508 C3507 1.410 . S
C3508 C3509 1.392 . S
C3508 C3511 1.511 . S
C3509 C3505 1.376 . S
C3509 C3508 1.392 . S
C3509 H3521 0.929 . S
C3510 C3506 1.531 . S
C3510 H3522 0.960 . S
C3510 H3523 0.962 . S
C3510 H3524 0.960 . S
C3511 C3508 1.511 . S
C3511 H3525 0.961 . S
C3511 H3526 0.961 . S
C3511 H3527 0.961 . S
C3512 C3513 1.370 . S
C3512 C3514 1.363 . S
C3512 H3528 0.931 . S
C3513 C3512 1.370 . S
C3513 C3517 1.408 . S
C3514 C3512 1.363 . S
C3514 C3515 1.370 . S
C3514 C3518 1.524 . S
C3515 C3507 1.503 . S
C3515 C3514 1.370 . S
C3515 C3516 1.403 . S
C3516 C3515 1.403 . S
C3516 C3517 1.404 . S
C3516 C3519 1.539 . S
C3517 C3513 1.408 . S
C3517 C3516 1.404 . S
C3517 H3529 0.930 . S
C3518 C3514 1.524 . S
C3518 H3530 0.956 . S
C3518 H3531 0.961 . S
C3518 H3532 0.961 . S
C3519 C3516 1.539 . S
C3519 H3533 0.958 . S
C3519 H3534 0.961 . S
C3519 H3535 0.960 . S
H3520 C3504 0.931 . S
H3521 C3509 0.929 . S
H3522 C3510 0.960 . S
H3523 C3510 0.962 . S
H3524 C3510 0.960 . S
H3525 C3511 0.961 . S
H3526 C3511 0.961 . S
H3527 C3511 0.961 . S
H3528 C3512 0.931 . S
H3529 C3517 0.930 . S
H3530 C3518 0.956 . S
H3531 C3518 0.961 . S
H3532 C3518 0.961 . S
H3533 C3519 0.958 . S
H3534 C3519 0.961 . S
H3535 C3519 0.960 . S
C3536 C3537 1.391 . S
C3536 C3538 1.394 . S
C3536 H3552 0.931 . S
C3537 C3536 1.391 . S
C3537 C3541 1.376 . S
C3538 C3536 1.394 . S
C3538 C3539 1.369 . S
C3538 C3542 1.531 . S
C3539 C3538 1.369 . S
C3539 C3540 1.410 . S
C3539 C3547 1.503 . S
C3540 C3539 1.410 . S
C3540 C3541 1.392 . S
C3540 C3543 1.511 . S
C3541 C3537 1.376 . S
C3541 C3540 1.392 . S
C3541 H3553 0.929 . S
C3542 C3538 1.531 . S
C3542 H3554 0.960 . S
C3542 H3555 0.962 . S
C3542 H3556 0.960 . S
C3543 C3540 1.511 . S
C3543 H3557 0.961 . S
C3543 H3558 0.961 . S
C3543 H3559 0.961 . S
C3544 C3545 1.370 . S
C3544 C3546 1.363 . S
C3544 H3560 0.931 . S
C3545 C3544 1.370 . S
C3545 C3549 1.408 . S
C3546 C3544 1.363 . S
C3546 C3547 1.370 . S
C3546 C3550 1.524 . S
C3547 C3539 1.503 . S
C3547 C3546 1.370 . S
C3547 C3548 1.403 . S
C3548 C3547 1.403 . S
C3548 C3549 1.404 . S
C3548 C3551 1.539 . S
C3549 C3545 1.408 . S
C3549 C3548 1.404 . S
C3549 H3561 0.930 . S
C3550 C3546 1.524 . S
C3550 H3562 0.956 . S
C3550 H3563 0.961 . S
C3550 H3564 0.961 . S
C3551 C3548 1.539 . S
C3551 H3565 0.958 . S
C3551 H3566 0.961 . S
C3551 H3567 0.960 . S
H3552 C3536 0.931 . S
H3553 C3541 0.929 . S
H3554 C3542 0.960 . S
H3555 C3542 0.962 . S
H3556 C3542 0.960 . S
H3557 C3543 0.961 . S
H3558 C3543 0.961 . S
H3559 C3543 0.961 . S
H3560 C3544 0.931 . S
H3561 C3549 0.930 . S
H3562 C3550 0.956 . S
H3563 C3550 0.961 . S
H3564 C3550 0.961 . S
H3565 C3551 0.958 . S
H3566 C3551 0.961 . S
H3567 C3551 0.960 . S
C3568 C3569 1.391 . S
C3568 C3570 1.394 . S
C3568 H3584 0.931 . S
C3569 C3568 1.391 . S
C3569 C3573 1.376 . S
C3570 C3568 1.394 . S
C3570 C3571 1.369 . S
C3570 C3574 1.531 . S
C3571 C3570 1.369 . S
C3571 C3572 1.410 . S
C3571 C3579 1.503 . S
C3572 C3571 1.410 . S
C3572 C3573 1.392 . S
C3572 C3575 1.511 . S
C3573 C3569 1.376 . S
C3573 C3572 1.392 . S
C3573 H3585 0.929 . S
C3574 C3570 1.531 . S
C3574 H3586 0.960 . S
C3574 H3587 0.962 . S
C3574 H3588 0.960 . S
C3575 C3572 1.511 . S
C3575 H3589 0.961 . S
C3575 H3590 0.961 . S
C3575 H3591 0.961 . S
C3576 C3577 1.370 . S
C3576 C3578 1.363 . S
C3576 H3592 0.931 . S
C3577 C3576 1.370 . S
C3577 C3581 1.408 . S
C3578 C3576 1.363 . S
C3578 C3579 1.370 . S
C3578 C3582 1.524 . S
C3579 C3571 1.503 . S
C3579 C3578 1.370 . S
C3579 C3580 1.403 . S
C3580 C3579 1.403 . S
C3580 C3581 1.404 . S
C3580 C3583 1.539 . S
C3581 C3577 1.408 . S
C3581 C3580 1.404 . S
C3581 H3593 0.930 . S
C3582 C3578 1.524 . S
C3582 H3594 0.956 . S
C3582 H3595 0.961 . S
C3582 H3596 0.961 . S
C3583 C3580 1.539 . S
C3583 H3597 0.958 . S
C3583 H3598 0.961 . S
C3583 H3599 0.960 . S
H3584 C3568 0.931 . S
H3585 C3573 0.929 . S
H3586 C3574 0.960 . S
H3587 C3574 0.962 . S
H3588 C3574 0.960 . S
H3589 C3575 0.961 . S
H3590 C3575 0.961 . S
H3591 C3575 0.961 . S
H3592 C3576 0.931 . S
H3593 C3581 0.930 . S
H3594 C3582 0.956 . S
H3595 C3582 0.961 . S
H3596 C3582 0.961 . S
H3597 C3583 0.958 . S
H3598 C3583 0.961 . S
H3599 C3583 0.960 . S
C3600 C3601 1.391 . S
C3600 C3602 1.394 . S
C3600 H3616 0.931 . S
C3601 C3600 1.391 . S
C3601 C3605 1.376 . S
C3602 C3600 1.394 . S
C3602 C3603 1.369 . S
C3602 C3606 1.531 . S
C3603 C3602 1.369 . S
C3603 C3604 1.410 . S
C3603 C3611 1.503 . S
C3604 C3603 1.410 . S
C3604 C3605 1.392 . S
C3604 C3607 1.511 . S
C3605 C3601 1.376 . S
C3605 C3604 1.392 . S
C3605 H3617 0.929 . S
C3606 C3602 1.531 . S
C3606 H3618 0.960 . S
C3606 H3619 0.962 . S
C3606 H3620 0.960 . S
C3607 C3604 1.511 . S
C3607 H3621 0.961 . S
C3607 H3622 0.961 . S
C3607 H3623 0.961 . S
C3608 C3609 1.370 . S
C3608 C3610 1.363 . S
C3608 H3624 0.931 . S
C3609 C3608 1.370 . S
C3609 C3613 1.408 . S
C3610 C3608 1.363 . S
C3610 C3611 1.370 . S
C3610 C3614 1.524 . S
C3611 C3603 1.503 . S
C3611 C3610 1.370 . S
C3611 C3612 1.403 . S
C3612 C3611 1.403 . S
C3612 C3613 1.404 . S
C3612 C3615 1.539 . S
C3613 C3609 1.408 . S
C3613 C3612 1.404 . S
C3613 H3625 0.930 . S
C3614 C3610 1.524 . S
C3614 H3626 0.956 . S
C3614 H3627 0.961 . S
C3614 H3628 0.961 . S
C3615 C3612 1.539 . S
C3615 H3629 0.958 . S
C3615 H3630 0.961 . S
C3615 H3631 0.960 . S
H3616 C3600 0.931 . S
H3617 C3605 0.929 . S
H3618 C3606 0.960 . S
H3619 C3606 0.962 . S
H3620 C3606 0.960 . S
H3621 C3607 0.961 . S
H3622 C3607 0.961 . S
H3623 C3607 0.961 . S
H3624 C3608 0.931 . S
H3625 C3613 0.930 . S
H3626 C3614 0.956 . S
H3627 C3614 0.961 . S
H3628 C3614 0.961 . S
H3629 C3615 0.958 . S
H3630 C3615 0.961 . S
H3631 C3615 0.960 . S
C3632 C3633 1.391 . S
C3632 C3634 1.394 . S
C3632 H3648 0.931 . S
C3633 C3632 1.391 . S
C3633 C3637 1.376 . S
C3634 C3632 1.394 . S
C3634 C3635 1.369 . S
C3634 C3638 1.531 . S
C3635 C3634 1.369 . S
C3635 C3636 1.410 . S
C3635 C3643 1.503 . S
C3636 C3635 1.410 . S
C3636 C3637 1.392 . S
C3636 C3639 1.511 . S
C3637 C3633 1.376 . S
C3637 C3636 1.392 . S
C3637 H3649 0.929 . S
C3638 C3634 1.531 . S
C3638 H3650 0.960 . S
C3638 H3651 0.962 . S
C3638 H3652 0.960 . S
C3639 C3636 1.511 . S
C3639 H3653 0.961 . S
C3639 H3654 0.961 . S
C3639 H3655 0.961 . S
C3640 C3641 1.370 . S
C3640 C3642 1.363 . S
C3640 H3656 0.931 . S
C3641 C3640 1.370 . S
C3641 C3645 1.408 . S
C3642 C3640 1.363 . S
C3642 C3643 1.370 . S
C3642 C3646 1.524 . S
C3643 C3635 1.503 . S
C3643 C3642 1.370 . S
C3643 C3644 1.403 . S
C3644 C3643 1.403 . S
C3644 C3645 1.404 . S
C3644 C3647 1.539 . S
C3645 C3641 1.408 . S
C3645 C3644 1.404 . S
C3645 H3657 0.930 . S
C3646 C3642 1.524 . S
C3646 H3658 0.956 . S
C3646 H3659 0.961 . S
C3646 H3660 0.961 . S
C3647 C3644 1.539 . S
C3647 H3661 0.958 . S
C3647 H3662 0.961 . S
C3647 H3663 0.960 . S
H3648 C3632 0.931 . S
H3649 C3637 0.929 . S
H3650 C3638 0.960 . S
H3651 C3638 0.962 . S
H3652 C3638 0.960 . S
H3653 C3639 0.961 . S
H3654 C3639 0.961 . S
H3655 C3639 0.961 . S
H3656 C3640 0.931 . S
H3657 C3645 0.930 . S
H3658 C3646 0.956 . S
H3659 C3646 0.961 . S
H3660 C3646 0.961 . S
H3661 C3647 0.958 . S
H3662 C3647 0.961 . S
H3663 C3647 0.960 . S
C3664 C3665 1.391 . S
C3664 C3666 1.394 . S
C3664 H3680 0.931 . S
C3665 C3664 1.391 . S
C3665 C3669 1.376 . S
C3666 C3664 1.394 . S
C3666 C3667 1.369 . S
C3666 C3670 1.531 . S
C3667 C3666 1.369 . S
C3667 C3668 1.410 . S
C3667 C3675 1.503 . S
C3668 C3667 1.410 . S
C3668 C3669 1.392 . S
C3668 C3671 1.511 . S
C3669 C3665 1.376 . S
C3669 C3668 1.392 . S
C3669 H3681 0.929 . S
C3670 C3666 1.531 . S
C3670 H3682 0.960 . S
C3670 H3683 0.962 . S
C3670 H3684 0.960 . S
C3671 C3668 1.511 . S
C3671 H3685 0.961 . S
C3671 H3686 0.961 . S
C3671 H3687 0.961 . S
C3672 C3673 1.370 . S
C3672 C3674 1.363 . S
C3672 H3688 0.931 . S
C3673 C3672 1.370 . S
C3673 C3677 1.408 . S
C3674 C3672 1.363 . S
C3674 C3675 1.370 . S
C3674 C3678 1.524 . S
C3675 C3667 1.503 . S
C3675 C3674 1.370 . S
C3675 C3676 1.403 . S
C3676 C3675 1.403 . S
C3676 C3677 1.404 . S
C3676 C3679 1.539 . S
C3677 C3673 1.408 . S
C3677 C3676 1.404 . S
C3677 H3689 0.930 . S
C3678 C3674 1.524 . S
C3678 H3690 0.956 . S
C3678 H3691 0.961 . S
C3678 H3692 0.961 . S
C3679 C3676 1.539 . S
C3679 H3693 0.958 . S
C3679 H3694 0.961 . S
C3679 H3695 0.960 . S
H3680 C3664 0.931 . S
H3681 C3669 0.929 . S
H3682 C3670 0.960 . S
H3683 C3670 0.962 . S
H3684 C3670 0.960 . S
H3685 C3671 0.961 . S
H3686 C3671 0.961 . S
H3687 C3671 0.961 . S
H3688 C3672 0.931 . S
H3689 C3677 0.930 . S
H3690 C3678 0.956 . S
H3691 C3678 0.961 . S
H3692 C3678 0.961 . S
H3693 C3679 0.958 . S
H3694 C3679 0.961 . S
H3695 C3679 0.960 . S
C3696 C3697 1.391 . S
C3696 C3698 1.394 . S
C3696 H3712 0.931 . S
C3697 C3696 1.391 . S
C3697 C3701 1.376 . S
C3698 C3696 1.394 . S
C3698 C3699 1.369 . S
C3698 C3702 1.531 . S
C3699 C3698 1.369 . S
C3699 C3700 1.410 . S
C3699 C3707 1.503 . S
C3700 C3699 1.410 . S
C3700 C3701 1.392 . S
C3700 C3703 1.511 . S
C3701 C3697 1.376 . S
C3701 C3700 1.392 . S
C3701 H3713 0.929 . S
C3702 C3698 1.531 . S
C3702 H3714 0.960 . S
C3702 H3715 0.962 . S
C3702 H3716 0.960 . S
C3703 C3700 1.511 . S
C3703 H3717 0.961 . S
C3703 H3718 0.961 . S
C3703 H3719 0.961 . S
C3704 C3705 1.370 . S
C3704 C3706 1.363 . S
C3704 H3720 0.931 . S
C3705 C3704 1.370 . S
C3705 C3709 1.408 . S
C3706 C3704 1.363 . S
C3706 C3707 1.370 . S
C3706 C3710 1.524 . S
C3707 C3699 1.503 . S
C3707 C3706 1.370 . S
C3707 C3708 1.403 . S
C3708 C3707 1.403 . S
C3708 C3709 1.404 . S
C3708 C3711 1.539 . S
C3709 C3705 1.408 . S
C3709 C3708 1.404 . S
C3709 H3721 0.930 . S
C3710 C3706 1.524 . S
C3710 H3722 0.956 . S
C3710 H3723 0.961 . S
C3710 H3724 0.961 . S
C3711 C3708 1.539 . S
C3711 H3725 0.958 . S
C3711 H3726 0.961 . S
C3711 H3727 0.960 . S
H3712 C3696 0.931 . S
H3713 C3701 0.929 . S
H3714 C3702 0.960 . S
H3715 C3702 0.962 . S
H3716 C3702 0.960 . S
H3717 C3703 0.961 . S
H3718 C3703 0.961 . S
H3719 C3703 0.961 . S
H3720 C3704 0.931 . S
H3721 C3709 0.930 . S
H3722 C3710 0.956 . S
H3723 C3710 0.961 . S
H3724 C3710 0.961 . S
H3725 C3711 0.958 . S
H3726 C3711 0.961 . S
H3727 C3711 0.960 . S
C3728 C3729 1.391 . S
C3728 C3730 1.394 . S
C3728 H3744 0.931 . S
C3729 C3728 1.391 . S
C3729 C3733 1.376 . S
C3730 C3728 1.394 . S
C3730 C3731 1.369 . S
C3730 C3734 1.531 . S
C3731 C3730 1.369 . S
C3731 C3732 1.410 . S
C3731 C3739 1.503 . S
C3732 C3731 1.410 . S
C3732 C3733 1.392 . S
C3732 C3735 1.511 . S
C3733 C3729 1.376 . S
C3733 C3732 1.392 . S
C3733 H3745 0.929 . S
C3734 C3730 1.531 . S
C3734 H3746 0.960 . S
C3734 H3747 0.962 . S
C3734 H3748 0.960 . S
C3735 C3732 1.511 . S
C3735 H3749 0.961 . S
C3735 H3750 0.961 . S
C3735 H3751 0.961 . S
C3736 C3737 1.370 . S
C3736 C3738 1.363 . S
C3736 H3752 0.931 . S
C3737 C3736 1.370 . S
C3737 C3741 1.408 . S
C3738 C3736 1.363 . S
C3738 C3739 1.370 . S
C3738 C3742 1.524 . S
C3739 C3731 1.503 . S
C3739 C3738 1.370 . S
C3739 C3740 1.403 . S
C3740 C3739 1.403 . S
C3740 C3741 1.404 . S
C3740 C3743 1.539 . S
C3741 C3737 1.408 . S
C3741 C3740 1.404 . S
C3741 H3753 0.930 . S
C3742 C3738 1.524 . S
C3742 H3754 0.956 . S
C3742 H3755 0.961 . S
C3742 H3756 0.961 . S
C3743 C3740 1.539 . S
C3743 H3757 0.958 . S
C3743 H3758 0.961 . S
C3743 H3759 0.960 . S
H3744 C3728 0.931 . S
H3745 C3733 0.929 . S
H3746 C3734 0.960 . S
H3747 C3734 0.962 . S
H3748 C3734 0.960 . S
H3749 C3735 0.961 . S
H3750 C3735 0.961 . S
H3751 C3735 0.961 . S
H3752 C3736 0.931 . S
H3753 C3741 0.930 . S
H3754 C3742 0.956 . S
H3755 C3742 0.961 . S
H3756 C3742 0.961 . S
H3757 C3743 0.958 . S
H3758 C3743 0.961 . S
H3759 C3743 0.960 . S
C3760 C3761 1.391 . S
C3760 C3762 1.394 . S
C3760 H3776 0.931 . S
C3761 C3760 1.391 . S
C3761 C3765 1.376 . S
C3762 C3760 1.394 . S
C3762 C3763 1.369 . S
C3762 C3766 1.531 . S
C3763 C3762 1.369 . S
C3763 C3764 1.410 . S
C3763 C3771 1.503 . S
C3764 C3763 1.410 . S
C3764 C3765 1.392 . S
C3764 C3767 1.511 . S
C3765 C3761 1.376 . S
C3765 C3764 1.392 . S
C3765 H3777 0.929 . S
C3766 C3762 1.531 . S
C3766 H3778 0.960 . S
C3766 H3779 0.962 . S
C3766 H3780 0.960 . S
C3767 C3764 1.511 . S
C3767 H3781 0.961 . S
C3767 H3782 0.961 . S
C3767 H3783 0.961 . S
C3768 C3769 1.370 . S
C3768 C3770 1.363 . S
C3768 H3784 0.931 . S
C3769 C3768 1.370 . S
C3769 C3773 1.408 . S
C3770 C3768 1.363 . S
C3770 C3771 1.370 . S
C3770 C3774 1.524 . S
C3771 C3763 1.503 . S
C3771 C3770 1.370 . S
C3771 C3772 1.403 . S
C3772 C3771 1.403 . S
C3772 C3773 1.404 . S
C3772 C3775 1.539 . S
C3773 C3769 1.408 . S
C3773 C3772 1.404 . S
C3773 H3785 0.930 . S
C3774 C3770 1.524 . S
C3774 H3786 0.956 . S
C3774 H3787 0.961 . S
C3774 H3788 0.961 . S
C3775 C3772 1.539 . S
C3775 H3789 0.958 . S
C3775 H3790 0.961 . S
C3775 H3791 0.960 . S
H3776 C3760 0.931 . S
H3777 C3765 0.929 . S
H3778 C3766 0.960 . S
H3779 C3766 0.962 . S
H3780 C3766 0.960 . S
H3781 C3767 0.961 . S
H3782 C3767 0.961 . S
H3783 C3767 0.961 . S
H3784 C3768 0.931 . S
H3785 C3773 0.930 . S
H3786 C3774 0.956 . S
H3787 C3774 0.961 . S
H3788 C3774 0.961 . S
H3789 C3775 0.958 . S
H3790 C3775 0.961 . S
H3791 C3775 0.960 . S
C3792 C3793 1.391 . S
C3792 C3794 1.394 . S
C3792 H3808 0.931 . S
C3793 C3792 1.391 . S
C3793 C3797 1.376 . S
C3794 C3792 1.394 . S
C3794 C3795 1.369 . S
C3794 C3798 1.531 . S
C3795 C3794 1.369 . S
C3795 C3796 1.410 . S
C3795 C3803 1.503 . S
C3796 C3795 1.410 . S
C3796 C3797 1.392 . S
C3796 C3799 1.511 . S
C3797 C3793 1.376 . S
C3797 C3796 1.392 . S
C3797 H3809 0.929 . S
C3798 C3794 1.531 . S
C3798 H3810 0.960 . S
C3798 H3811 0.962 . S
C3798 H3812 0.960 . S
C3799 C3796 1.511 . S
C3799 H3813 0.961 . S
C3799 H3814 0.961 . S
C3799 H3815 0.961 . S
C3800 C3801 1.370 . S
C3800 C3802 1.363 . S
C3800 H3816 0.931 . S
C3801 C3800 1.370 . S
C3801 C3805 1.408 . S
C3802 C3800 1.363 . S
C3802 C3803 1.370 . S
C3802 C3806 1.524 . S
C3803 C3795 1.503 . S
C3803 C3802 1.370 . S
C3803 C3804 1.403 . S
C3804 C3803 1.403 . S
C3804 C3805 1.404 . S
C3804 C3807 1.539 . S
C3805 C3801 1.408 . S
C3805 C3804 1.404 . S
C3805 H3817 0.930 . S
C3806 C3802 1.524 . S
C3806 H3818 0.956 . S
C3806 H3819 0.961 . S
C3806 H3820 0.961 . S
C3807 C3804 1.539 . S
C3807 H3821 0.958 . S
C3807 H3822 0.961 . S
C3807 H3823 0.960 . S
H3808 C3792 0.931 . S
H3809 C3797 0.929 . S
H3810 C3798 0.960 . S
H3811 C3798 0.962 . S
H3812 C3798 0.960 . S
H3813 C3799 0.961 . S
H3814 C3799 0.961 . S
H3815 C3799 0.961 . S
H3816 C3800 0.931 . S
H3817 C3805 0.930 . S
H3818 C3806 0.956 . S
H3819 C3806 0.961 . S
H3820 C3806 0.961 . S
H3821 C3807 0.958 . S
H3822 C3807 0.961 . S
H3823 C3807 0.960 . S
C3824 C3825 1.391 . S
C3824 C3826 1.394 . S
C3824 H3840 0.931 . S
C3825 C3824 1.391 . S
C3825 C3829 1.376 . S
C3826 C3824 1.394 . S
C3826 C3827 1.369 . S
C3826 C3830 1.531 1_565 S
C3827 C3826 1.369 . S
C3827 C3828 1.410 . S
C3827 C3835 1.503 . S
C3828 C3827 1.410 . S
C3828 C3829 1.392 . S
C3828 C3831 1.511 . S
C3829 C3825 1.376 . S
C3829 C3828 1.392 . S
C3829 H3841 0.929 . S
C3830 C3826 1.531 1_545 S
C3830 H3842 0.960 . S
C3830 H3843 0.962 . S
C3830 H3844 0.960 . S
C3831 C3828 1.511 . S
C3831 H3845 0.964 . S
C3831 H3846 0.961 . S
C3831 H3847 0.961 . S
C3832 C3833 1.370 1_556 S
C3832 C3834 1.364 1_545 S
C3832 H3848 0.931 . S
C3833 C3832 1.370 1_554 S
C3833 C3837 1.408 . S
C3834 C3832 1.364 1_565 S
C3834 C3835 1.339 1_556 S
C3834 C3838 1.556 . S
C3835 C3827 1.503 . S
C3835 C3834 1.339 1_554 S
C3835 C3836 1.403 1_565 S
C3836 C3835 1.403 1_545 S
C3836 C3837 1.404 . S
C3836 C3839 1.539 1_545 S
C3837 C3833 1.408 . S
C3837 C3836 1.404 . S
C3837 H3849 0.930 . S
C3838 C3834 1.556 . S
C3838 H3850 0.929 1_565 S
C3838 H3851 0.961 . S
C3838 H3852 0.961 . S
C3839 C3836 1.539 1_565 S
C3839 H3853 0.958 1_565 S
C3839 H3854 0.961 . S
C3839 H3855 0.960 . S
H3840 C3824 0.931 . S
H3841 C3829 0.929 . S
H3842 C3830 0.960 . S
H3843 C3830 0.962 . S
H3844 C3830 0.960 . S
H3845 C3831 0.964 . S
H3846 C3831 0.961 . S
H3847 C3831 0.961 . S
H3848 C3832 0.931 . S
H3849 C3837 0.930 . S
H3850 C3838 0.929 1_545 S
H3851 C3838 0.961 . S
H3852 C3838 0.961 . S
H3853 C3839 0.958 1_545 S
H3854 C3839 0.961 . S
H3855 C3839 0.960 . S
C3856 C3857 1.391 . S
C3856 C3858 1.394 . S
C3856 H3872 0.931 . S
C3857 C3856 1.391 . S
C3857 C3861 1.376 . S
C3858 C3856 1.394 . S
C3858 C3859 1.369 . S
C3858 C3862 1.531 . S
C3859 C3858 1.369 . S
C3859 C3860 1.410 . S
C3859 C3867 1.503 . S
C3860 C3859 1.410 . S
C3860 C3861 1.392 . S
C3860 C3863 1.511 . S
C3861 C3857 1.376 . S
C3861 C3860 1.392 . S
C3861 H3873 0.929 . S
C3862 C3858 1.531 . S
C3862 H3874 0.960 . S
C3862 H3875 0.962 . S
C3862 H3876 0.960 . S
C3863 C3860 1.511 . S
C3863 H3877 0.961 . S
C3863 H3878 0.961 . S
C3863 H3879 0.961 . S
C3864 C3865 1.370 . S
C3864 C3866 1.363 . S
C3864 H3880 0.931 . S
C3865 C3864 1.370 . S
C3865 C3869 1.408 . S
C3866 C3864 1.363 . S
C3866 C3867 1.370 . S
C3866 C3870 1.524 . S
C3867 C3859 1.503 . S
C3867 C3866 1.370 . S
C3867 C3868 1.403 . S
C3868 C3867 1.403 . S
C3868 C3869 1.404 . S
C3868 C3871 1.539 . S
C3869 C3865 1.408 . S
C3869 C3868 1.404 . S
C3869 H3881 0.930 . S
C3870 C3866 1.524 . S
C3870 H3882 0.956 . S
C3870 H3883 0.961 . S
C3870 H3884 0.961 . S
C3871 C3868 1.539 . S
C3871 H3885 0.958 . S
C3871 H3886 0.961 . S
C3871 H3887 0.960 . S
H3872 C3856 0.931 . S
H3873 C3861 0.929 . S
H3874 C3862 0.960 . S
H3875 C3862 0.962 . S
H3876 C3862 0.960 . S
H3877 C3863 0.961 . S
H3878 C3863 0.961 . S
H3879 C3863 0.961 . S
H3880 C3864 0.931 . S
H3881 C3869 0.930 . S
H3882 C3870 0.956 . S
H3883 C3870 0.961 . S
H3884 C3870 0.961 . S
H3885 C3871 0.958 . S
H3886 C3871 0.961 . S
H3887 C3871 0.960 . S
C3888 C3889 1.391 . S
C3888 C3890 1.394 . S
C3888 H3904 0.931 1_554 S
C3889 C3888 1.391 . S
C3889 C3893 1.376 . S
C3890 C3888 1.394 . S
C3890 C3891 1.369 . S
C3890 C3894 1.531 . S
C3891 C3890 1.369 . S
C3891 C3892 1.410 . S
C3891 C3899 1.503 . S
C3892 C3891 1.410 . S
C3892 C3893 1.392 . S
C3892 C3895 1.511 . S
C3893 C3889 1.376 . S
C3893 C3892 1.392 . S
C3893 H3905 0.929 . S
C3894 C3890 1.531 . S
C3894 H3906 0.960 . S
C3894 H3907 0.962 1_554 S
C3894 H3908 0.960 . S
C3895 C3892 1.511 . S
C3895 H3909 0.961 . S
C3895 H3910 0.961 . S
C3895 H3911 0.961 . S
C3896 C3897 1.370 . S
C3896 C3898 1.363 . S
C3896 H3912 0.931 1_554 S
C3897 C3896 1.370 . S
C3897 C3901 1.408 . S
C3898 C3896 1.363 . S
C3898 C3899 1.370 . S
C3898 C3902 1.524 1_554 S
C3899 C3891 1.503 . S
C3899 C3898 1.370 . S
C3899 C3900 1.403 . S
C3900 C3899 1.403 . S
C3900 C3901 1.404 . S
C3900 C3903 1.539 . S
C3901 C3897 1.408 . S
C3901 C3900 1.404 . S
C3901 H3913 0.930 . S
C3902 C3898 1.524 1_556 S
C3902 H3914 0.956 . S
C3902 H3915 0.961 . S
C3902 H3916 0.961 . S
C3903 C3900 1.539 . S
C3903 H3917 0.958 . S
C3903 H3918 0.961 . S
C3903 H3919 0.960 . S
H3904 C3888 0.931 1_556 S
H3905 C3893 0.929 . S
H3906 C3894 0.960 . S
H3907 C3894 0.962 1_556 S
H3908 C3894 0.960 . S
H3909 C3895 0.961 . S
H3910 C3895 0.961 . S
H3911 C3895 0.961 . S
H3912 C3896 0.931 1_556 S
H3913 C3901 0.930 . S
H3914 C3902 0.956 . S
H3915 C3902 0.961 . S
H3916 C3902 0.961 . S
H3917 C3903 0.958 . S
H3918 C3903 0.961 . S
H3919 C3903 0.960 . S
C3920 C3921 1.391 . S
C3920 C3922 1.394 . S
C3920 H3936 0.931 . S
C3921 C3920 1.391 . S
C3921 C3925 1.376 . S
C3922 C3920 1.394 . S
C3922 C3923 1.369 . S
C3922 C3926 1.531 . S
C3923 C3922 1.369 . S
C3923 C3924 1.410 . S
C3923 C3931 1.503 . S
C3924 C3923 1.410 . S
C3924 C3925 1.392 . S
C3924 C3927 1.511 . S
C3925 C3921 1.376 . S
C3925 C3924 1.392 . S
C3925 H3937 0.929 . S
C3926 C3922 1.531 . S
C3926 H3938 0.960 . S
C3926 H3939 0.962 . S
C3926 H3940 0.960 . S
C3927 C3924 1.511 . S
C3927 H3941 0.961 . S
C3927 H3942 0.961 . S
C3927 H3943 0.961 . S
C3928 C3929 1.370 . S
C3928 C3930 1.363 . S
C3928 H3944 0.931 . S
C3929 C3928 1.370 . S
C3929 C3933 1.408 . S
C3930 C3928 1.363 . S
C3930 C3931 1.370 . S
C3930 C3934 1.524 . S
C3931 C3923 1.503 . S
C3931 C3930 1.370 . S
C3931 C3932 1.403 . S
C3932 C3931 1.403 . S
C3932 C3933 1.404 . S
C3932 C3935 1.539 . S
C3933 C3929 1.408 . S
C3933 C3932 1.404 . S
C3933 H3945 0.930 . S
C3934 C3930 1.524 . S
C3934 H3946 0.956 . S
C3934 H3947 0.961 . S
C3934 H3948 0.961 . S
C3935 C3932 1.539 . S
C3935 H3949 0.958 . S
C3935 H3950 0.961 . S
C3935 H3951 0.960 . S
H3936 C3920 0.931 . S
H3937 C3925 0.929 . S
H3938 C3926 0.960 . S
H3939 C3926 0.962 . S
H3940 C3926 0.960 . S
H3941 C3927 0.961 . S
H3942 C3927 0.961 . S
H3943 C3927 0.961 . S
H3944 C3928 0.931 . S
H3945 C3933 0.930 . S
H3946 C3934 0.956 . S
H3947 C3934 0.961 . S
H3948 C3934 0.961 . S
H3949 C3935 0.958 . S
H3950 C3935 0.961 . S
H3951 C3935 0.960 . S
C3952 C3953 1.391 . S
C3952 C3954 1.394 . S
C3952 H3968 0.931 . S
C3953 C3952 1.391 . S
C3953 C3957 1.376 . S
C3954 C3952 1.394 . S
C3954 C3955 1.369 . S
C3954 C3958 1.531 . S
C3955 C3954 1.369 . S
C3955 C3956 1.410 . S
C3955 C3963 1.503 . S
C3956 C3955 1.410 . S
C3956 C3957 1.392 . S
C3956 C3959 1.511 . S
C3957 C3953 1.376 . S
C3957 C3956 1.392 . S
C3957 H3969 0.929 . S
C3958 C3954 1.531 . S
C3958 H3970 0.960 . S
C3958 H3971 0.962 . S
C3958 H3972 0.960 . S
C3959 C3956 1.511 . S
C3959 H3973 0.961 . S
C3959 H3974 0.961 . S
C3959 H3975 0.961 . S
C3960 C3961 1.370 . S
C3960 C3962 1.363 . S
C3960 H3976 0.931 . S
C3961 C3960 1.370 . S
C3961 C3965 1.408 . S
C3962 C3960 1.363 . S
C3962 C3963 1.370 . S
C3962 C3966 1.524 . S
C3963 C3955 1.503 . S
C3963 C3962 1.370 . S
C3963 C3964 1.403 . S
C3964 C3963 1.403 . S
C3964 C3965 1.404 . S
C3964 C3967 1.539 . S
C3965 C3961 1.408 . S
C3965 C3964 1.404 . S
C3965 H3977 0.930 . S
C3966 C3962 1.524 . S
C3966 H3978 0.956 . S
C3966 H3979 0.961 . S
C3966 H3980 0.961 . S
C3967 C3964 1.539 . S
C3967 H3981 0.958 . S
C3967 H3982 0.961 . S
C3967 H3983 0.960 . S
H3968 C3952 0.931 . S
H3969 C3957 0.929 . S
H3970 C3958 0.960 . S
H3971 C3958 0.962 . S
H3972 C3958 0.960 . S
H3973 C3959 0.961 . S
H3974 C3959 0.961 . S
H3975 C3959 0.961 . S
H3976 C3960 0.931 . S
H3977 C3965 0.930 . S
H3978 C3966 0.956 . S
H3979 C3966 0.961 . S
H3980 C3966 0.961 . S
H3981 C3967 0.958 . S
H3982 C3967 0.961 . S
H3983 C3967 0.960 . S
C3984 C3985 1.391 . S
C3984 C3986 1.394 . S
C3984 H4000 0.931 . S
C3985 C3984 1.391 . S
C3985 C3989 1.376 . S
C3986 C3984 1.394 . S
C3986 C3987 1.369 . S
C3986 C3990 1.531 . S
C3987 C3986 1.369 . S
C3987 C3988 1.410 . S
C3987 C3995 1.503 . S
C3988 C3987 1.410 . S
C3988 C3989 1.392 . S
C3988 C3991 1.511 . S
C3989 C3985 1.376 . S
C3989 C3988 1.392 . S
C3989 H4001 0.929 . S
C3990 C3986 1.531 . S
C3990 H4002 0.960 . S
C3990 H4003 0.962 . S
C3990 H4004 0.960 . S
C3991 C3988 1.511 . S
C3991 H4005 0.961 . S
C3991 H4006 0.961 . S
C3991 H4007 0.961 . S
C3992 C3993 1.370 . S
C3992 C3994 1.363 . S
C3992 H4008 0.931 . S
C3993 C3992 1.370 . S
C3993 C3997 1.408 . S
C3994 C3992 1.363 . S
C3994 C3995 1.370 . S
C3994 C3998 1.524 . S
C3995 C3987 1.503 . S
C3995 C3994 1.370 . S
C3995 C3996 1.403 . S
C3996 C3995 1.403 . S
C3996 C3997 1.404 . S
C3996 C3999 1.539 . S
C3997 C3993 1.408 . S
C3997 C3996 1.404 . S
C3997 H4009 0.930 . S
C3998 C3994 1.524 . S
C3998 H4010 0.956 . S
C3998 H4011 0.961 . S
C3998 H4012 0.961 . S
C3999 C3996 1.539 . S
C3999 H4013 0.958 . S
C3999 H4014 0.961 . S
C3999 H4015 0.960 . S
H4000 C3984 0.931 . S
H4001 C3989 0.929 . S
H4002 C3990 0.960 . S
H4003 C3990 0.962 . S
H4004 C3990 0.960 . S
H4005 C3991 0.961 . S
H4006 C3991 0.961 . S
H4007 C3991 0.961 . S
H4008 C3992 0.931 . S
H4009 C3997 0.930 . S
H4010 C3998 0.956 . S
H4011 C3998 0.961 . S
H4012 C3998 0.961 . S
H4013 C3999 0.958 . S
H4014 C3999 0.961 . S
H4015 C3999 0.960 . S
C4016 C4017 1.391 . S
C4016 C4018 1.394 . S
C4016 H4032 0.931 . S
C4017 C4016 1.391 . S
C4017 C4021 1.376 . S
C4018 C4016 1.394 . S
C4018 C4019 1.369 . S
C4018 C4022 1.531 . S
C4019 C4018 1.369 . S
C4019 C4020 1.410 . S
C4019 C4027 1.503 . S
C4020 C4019 1.410 . S
C4020 C4021 1.392 . S
C4020 C4023 1.511 . S
C4021 C4017 1.376 . S
C4021 C4020 1.392 . S
C4021 H4033 0.929 . S
C4022 C4018 1.531 . S
C4022 H4034 0.960 . S
C4022 H4035 0.962 . S
C4022 H4036 0.960 . S
C4023 C4020 1.511 . S
C4023 H4037 0.961 . S
C4023 H4038 0.961 . S
C4023 H4039 0.961 . S
C4024 C4025 1.370 . S
C4024 C4026 1.363 . S
C4024 H4040 0.931 . S
C4025 C4024 1.370 . S
C4025 C4029 1.408 . S
C4026 C4024 1.363 . S
C4026 C4027 1.370 . S
C4026 C4030 1.524 . S
C4027 C4019 1.503 . S
C4027 C4026 1.370 . S
C4027 C4028 1.403 . S
C4028 C4027 1.403 . S
C4028 C4029 1.404 . S
C4028 C4031 1.539 . S
C4029 C4025 1.408 . S
C4029 C4028 1.404 . S
C4029 H4041 0.930 . S
C4030 C4026 1.524 . S
C4030 H4042 0.956 . S
C4030 H4043 0.961 . S
C4030 H4044 0.961 . S
C4031 C4028 1.539 . S
C4031 H4045 0.958 . S
C4031 H4046 0.961 . S
C4031 H4047 0.960 . S
H4032 C4016 0.931 . S
H4033 C4021 0.929 . S
H4034 C4022 0.960 . S
H4035 C4022 0.962 . S
H4036 C4022 0.960 . S
H4037 C4023 0.961 . S
H4038 C4023 0.961 . S
H4039 C4023 0.961 . S
H4040 C4024 0.931 . S
H4041 C4029 0.930 . S
H4042 C4030 0.956 . S
H4043 C4030 0.961 . S
H4044 C4030 0.961 . S
H4045 C4031 0.958 . S
H4046 C4031 0.961 . S
H4047 C4031 0.960 . S
C4048 C4049 1.391 . S
C4048 C4050 1.394 . S
C4048 H4064 0.931 . S
C4049 C4048 1.391 . S
C4049 C4053 1.376 . S
C4050 C4048 1.394 . S
C4050 C4051 1.369 . S
C4050 C4054 1.531 . S
C4051 C4050 1.369 . S
C4051 C4052 1.410 . S
C4051 C4059 1.503 . S
C4052 C4051 1.410 . S
C4052 C4053 1.392 . S
C4052 C4055 1.511 . S
C4053 C4049 1.376 . S
C4053 C4052 1.392 . S
C4053 H4065 0.929 . S
C4054 C4050 1.531 . S
C4054 H4066 0.960 . S
C4054 H4067 0.962 . S
C4054 H4068 0.960 . S
C4055 C4052 1.511 . S
C4055 H4069 0.961 . S
C4055 H4070 0.961 . S
C4055 H4071 0.961 . S
C4056 C4057 1.370 . S
C4056 C4058 1.363 . S
C4056 H4072 0.931 . S
C4057 C4056 1.370 . S
C4057 C4061 1.408 . S
C4058 C4056 1.363 . S
C4058 C4059 1.370 . S
C4058 C4062 1.524 . S
C4059 C4051 1.503 . S
C4059 C4058 1.370 . S
C4059 C4060 1.403 . S
C4060 C4059 1.403 . S
C4060 C4061 1.404 . S
C4060 C4063 1.539 . S
C4061 C4057 1.408 . S
C4061 C4060 1.404 . S
C4061 H4073 0.930 . S
C4062 C4058 1.524 . S
C4062 H4074 0.956 . S
C4062 H4075 0.961 . S
C4062 H4076 0.961 . S
C4063 C4060 1.539 . S
C4063 H4077 0.958 . S
C4063 H4078 0.961 . S
C4063 H4079 0.960 . S
H4064 C4048 0.931 . S
H4065 C4053 0.929 . S
H4066 C4054 0.960 . S
H4067 C4054 0.962 . S
H4068 C4054 0.960 . S
H4069 C4055 0.961 . S
H4070 C4055 0.961 . S
H4071 C4055 0.961 . S
H4072 C4056 0.931 . S
H4073 C4061 0.930 . S
H4074 C4062 0.956 . S
H4075 C4062 0.961 . S
H4076 C4062 0.961 . S
H4077 C4063 0.958 . S
H4078 C4063 0.961 . S
H4079 C4063 0.960 . S
C4080 C4081 1.391 . S
C4080 C4082 1.394 . S
C4080 H4096 0.931 . S
C4081 C4080 1.391 . S
C4081 C4085 1.376 . S
C4082 C4080 1.394 . S
C4082 C4083 1.369 . S
C4082 C4086 1.531 . S
C4083 C4082 1.369 . S
C4083 C4084 1.410 . S
C4083 C4091 1.503 . S
C4084 C4083 1.410 . S
C4084 C4085 1.392 . S
C4084 C4087 1.511 . S
C4085 C4081 1.376 . S
C4085 C4084 1.392 . S
C4085 H4097 0.929 . S
C4086 C4082 1.531 . S
C4086 H4098 0.960 . S
C4086 H4099 0.962 . S
C4086 H4100 0.960 . S
C4087 C4084 1.511 . S
C4087 H4101 0.961 . S
C4087 H4102 0.961 . S
C4087 H4103 0.961 . S
C4088 C4089 1.370 . S
C4088 C4090 1.363 . S
C4088 H4104 0.931 . S
C4089 C4088 1.370 . S
C4089 C4093 1.408 . S
C4090 C4088 1.363 . S
C4090 C4091 1.370 . S
C4090 C4094 1.524 . S
C4091 C4083 1.503 . S
C4091 C4090 1.370 . S
C4091 C4092 1.403 . S
C4092 C4091 1.403 . S
C4092 C4093 1.404 . S
C4092 C4095 1.539 . S
C4093 C4089 1.408 . S
C4093 C4092 1.404 . S
C4093 H4105 0.930 . S
C4094 C4090 1.524 . S
C4094 H4106 0.956 . S
C4094 H4107 0.961 . S
C4094 H4108 0.961 . S
C4095 C4092 1.539 . S
C4095 H4109 0.958 . S
C4095 H4110 0.961 . S
C4095 H4111 0.960 . S
H4096 C4080 0.931 . S
H4097 C4085 0.929 . S
H4098 C4086 0.960 . S
H4099 C4086 0.962 . S
H4100 C4086 0.960 . S
H4101 C4087 0.961 . S
H4102 C4087 0.961 . S
H4103 C4087 0.961 . S
H4104 C4088 0.931 . S
H4105 C4093 0.930 . S
H4106 C4094 0.956 . S
H4107 C4094 0.961 . S
H4108 C4094 0.961 . S
H4109 C4095 0.958 . S
H4110 C4095 0.961 . S
H4111 C4095 0.960 . S
C4112 C4113 1.391 . S
C4112 C4114 1.394 . S
C4112 H4128 0.931 . S
C4113 C4112 1.391 . S
C4113 C4117 1.376 . S
C4114 C4112 1.394 . S
C4114 C4115 1.369 . S
C4114 C4118 1.531 . S
C4115 C4114 1.369 . S
C4115 C4116 1.410 . S
C4115 C4123 1.503 . S
C4116 C4115 1.410 . S
C4116 C4117 1.392 . S
C4116 C4119 1.511 . S
C4117 C4113 1.376 . S
C4117 C4116 1.392 . S
C4117 H4129 0.929 . S
C4118 C4114 1.531 . S
C4118 H4130 0.960 . S
C4118 H4131 0.962 . S
C4118 H4132 0.960 . S
C4119 C4116 1.511 . S
C4119 H4133 0.961 . S
C4119 H4134 0.961 . S
C4119 H4135 0.961 . S
C4120 C4121 1.370 . S
C4120 C4122 1.363 . S
C4120 H4136 0.931 . S
C4121 C4120 1.370 . S
C4121 C4125 1.408 . S
C4122 C4120 1.363 . S
C4122 C4123 1.370 . S
C4122 C4126 1.524 . S
C4123 C4115 1.503 . S
C4123 C4122 1.370 . S
C4123 C4124 1.403 . S
C4124 C4123 1.403 . S
C4124 C4125 1.404 . S
C4124 C4127 1.539 . S
C4125 C4121 1.408 . S
C4125 C4124 1.404 . S
C4125 H4137 0.930 . S
C4126 C4122 1.524 . S
C4126 H4138 0.956 . S
C4126 H4139 0.961 . S
C4126 H4140 0.961 . S
C4127 C4124 1.539 . S
C4127 H4141 0.958 . S
C4127 H4142 0.961 . S
C4127 H4143 0.960 . S
H4128 C4112 0.931 . S
H4129 C4117 0.929 . S
H4130 C4118 0.960 . S
H4131 C4118 0.962 . S
H4132 C4118 0.960 . S
H4133 C4119 0.961 . S
H4134 C4119 0.961 . S
H4135 C4119 0.961 . S
H4136 C4120 0.931 . S
H4137 C4125 0.930 . S
H4138 C4126 0.956 . S
H4139 C4126 0.961 . S
H4140 C4126 0.961 . S
H4141 C4127 0.958 . S
H4142 C4127 0.961 . S
H4143 C4127 0.960 . S
C4144 C4145 1.391 . S
C4144 C4146 1.394 . S
C4144 H4160 0.931 . S
C4145 C4144 1.391 . S
C4145 C4149 1.376 . S
C4146 C4144 1.394 . S
C4146 C4147 1.369 . S
C4146 C4150 1.531 . S
C4147 C4146 1.369 . S
C4147 C4148 1.410 . S
C4147 C4155 1.503 . S
C4148 C4147 1.410 . S
C4148 C4149 1.392 . S
C4148 C4151 1.511 . S
C4149 C4145 1.376 . S
C4149 C4148 1.392 . S
C4149 H4161 0.929 . S
C4150 C4146 1.531 . S
C4150 H4162 0.960 . S
C4150 H4163 0.962 . S
C4150 H4164 0.960 . S
C4151 C4148 1.511 . S
C4151 H4165 0.961 . S
C4151 H4166 0.961 . S
C4151 H4167 0.961 . S
C4152 C4153 1.370 . S
C4152 C4154 1.363 . S
C4152 H4168 0.931 . S
C4153 C4152 1.370 . S
C4153 C4157 1.408 . S
C4154 C4152 1.363 . S
C4154 C4155 1.370 . S
C4154 C4158 1.524 . S
C4155 C4147 1.503 . S
C4155 C4154 1.370 . S
C4155 C4156 1.403 . S
C4156 C4155 1.403 . S
C4156 C4157 1.404 . S
C4156 C4159 1.539 . S
C4157 C4153 1.408 . S
C4157 C4156 1.404 . S
C4157 H4169 0.930 . S
C4158 C4154 1.524 . S
C4158 H4170 0.956 . S
C4158 H4171 0.961 . S
C4158 H4172 0.961 . S
C4159 C4156 1.539 . S
C4159 H4173 0.958 . S
C4159 H4174 0.961 . S
C4159 H4175 0.960 . S
H4160 C4144 0.931 . S
H4161 C4149 0.929 . S
H4162 C4150 0.960 . S
H4163 C4150 0.962 . S
H4164 C4150 0.960 . S
H4165 C4151 0.961 . S
H4166 C4151 0.961 . S
H4167 C4151 0.961 . S
H4168 C4152 0.931 . S
H4169 C4157 0.930 . S
H4170 C4158 0.956 . S
H4171 C4158 0.961 . S
H4172 C4158 0.961 . S
H4173 C4159 0.958 . S
H4174 C4159 0.961 . S
H4175 C4159 0.960 . S
C4176 C4177 1.391 . S
C4176 C4178 1.394 . S
C4176 H4192 0.931 . S
C4177 C4176 1.391 . S
C4177 C4181 1.376 . S
C4178 C4176 1.394 . S
C4178 C4179 1.369 . S
C4178 C4182 1.531 . S
C4179 C4178 1.369 . S
C4179 C4180 1.410 . S
C4179 C4187 1.503 . S
C4180 C4179 1.410 . S
C4180 C4181 1.392 . S
C4180 C4183 1.511 . S
C4181 C4177 1.376 . S
C4181 C4180 1.392 . S
C4181 H4193 0.929 . S
C4182 C4178 1.531 . S
C4182 H4194 0.960 . S
C4182 H4195 0.962 . S
C4182 H4196 0.960 . S
C4183 C4180 1.511 . S
C4183 H4197 0.961 . S
C4183 H4198 0.961 . S
C4183 H4199 0.961 . S
C4184 C4185 1.370 . S
C4184 C4186 1.363 . S
C4184 H4200 0.931 . S
C4185 C4184 1.370 . S
C4185 C4189 1.408 . S
C4186 C4184 1.363 . S
C4186 C4187 1.370 . S
C4186 C4190 1.524 . S
C4187 C4179 1.503 . S
C4187 C4186 1.370 . S
C4187 C4188 1.403 . S
C4188 C4187 1.403 . S
C4188 C4189 1.404 . S
C4188 C4191 1.539 . S
C4189 C4185 1.408 . S
C4189 C4188 1.404 . S
C4189 H4201 0.930 . S
C4190 C4186 1.524 . S
C4190 H4202 0.956 . S
C4190 H4203 0.961 . S
C4190 H4204 0.961 . S
C4191 C4188 1.539 . S
C4191 H4205 0.958 . S
C4191 H4206 0.961 . S
C4191 H4207 0.960 . S
H4192 C4176 0.931 . S
H4193 C4181 0.929 . S
H4194 C4182 0.960 . S
H4195 C4182 0.962 . S
H4196 C4182 0.960 . S
H4197 C4183 0.961 . S
H4198 C4183 0.961 . S
H4199 C4183 0.961 . S
H4200 C4184 0.931 . S
H4201 C4189 0.930 . S
H4202 C4190 0.956 . S
H4203 C4190 0.961 . S
H4204 C4190 0.961 . S
H4205 C4191 0.958 . S
H4206 C4191 0.961 . S
H4207 C4191 0.960 . S
C4208 C4209 1.391 . S
C4208 C4210 1.394 . S
C4208 H4224 0.931 . S
C4209 C4208 1.391 . S
C4209 C4213 1.376 . S
C4210 C4208 1.394 . S
C4210 C4211 1.369 . S
C4210 C4214 1.531 . S
C4211 C4210 1.369 . S
C4211 C4212 1.410 . S
C4211 C4219 1.503 . S
C4212 C4211 1.410 . S
C4212 C4213 1.392 . S
C4212 C4215 1.511 . S
C4213 C4209 1.376 . S
C4213 C4212 1.392 . S
C4213 H4225 0.929 . S
C4214 C4210 1.531 . S
C4214 H4226 0.960 . S
C4214 H4227 0.962 . S
C4214 H4228 0.960 . S
C4215 C4212 1.511 . S
C4215 H4229 0.961 . S
C4215 H4230 0.961 . S
C4215 H4231 0.961 . S
C4216 C4217 1.370 . S
C4216 C4218 1.363 . S
C4216 H4232 0.931 . S
C4217 C4216 1.370 . S
C4217 C4221 1.408 . S
C4218 C4216 1.363 . S
C4218 C4219 1.370 . S
C4218 C4222 1.524 . S
C4219 C4211 1.503 . S
C4219 C4218 1.370 . S
C4219 C4220 1.403 . S
C4220 C4219 1.403 . S
C4220 C4221 1.404 . S
C4220 C4223 1.539 . S
C4221 C4217 1.408 . S
C4221 C4220 1.404 . S
C4221 H4233 0.930 . S
C4222 C4218 1.524 . S
C4222 H4234 0.956 . S
C4222 H4235 0.961 . S
C4222 H4236 0.961 . S
C4223 C4220 1.539 . S
C4223 H4237 0.958 . S
C4223 H4238 0.961 . S
C4223 H4239 0.960 . S
H4224 C4208 0.931 . S
H4225 C4213 0.929 . S
H4226 C4214 0.960 . S
H4227 C4214 0.962 . S
H4228 C4214 0.960 . S
H4229 C4215 0.961 . S
H4230 C4215 0.961 . S
H4231 C4215 0.961 . S
H4232 C4216 0.931 . S
H4233 C4221 0.930 . S
H4234 C4222 0.956 . S
H4235 C4222 0.961 . S
H4236 C4222 0.961 . S
H4237 C4223 0.958 . S
H4238 C4223 0.961 . S
H4239 C4223 0.960 . S
C4240 C4241 1.391 . S
C4240 C4242 1.394 . S
C4240 H4256 0.931 . S
C4241 C4240 1.391 . S
C4241 C4245 1.376 . S
C4242 C4240 1.394 . S
C4242 C4243 1.369 . S
C4242 C4246 1.531 . S
C4243 C4242 1.369 . S
C4243 C4244 1.410 . S
C4243 C4251 1.503 . S
C4244 C4243 1.410 . S
C4244 C4245 1.392 . S
C4244 C4247 1.511 . S
C4245 C4241 1.376 . S
C4245 C4244 1.392 . S
C4245 H4257 0.929 . S
C4246 C4242 1.531 . S
C4246 H4258 0.960 . S
C4246 H4259 0.962 . S
C4246 H4260 0.960 . S
C4247 C4244 1.511 . S
C4247 H4261 0.961 . S
C4247 H4262 0.961 . S
C4247 H4263 0.961 . S
C4248 C4249 1.370 . S
C4248 C4250 1.363 . S
C4248 H4264 0.931 . S
C4249 C4248 1.370 . S
C4249 C4253 1.408 . S
C4250 C4248 1.363 . S
C4250 C4251 1.370 . S
C4250 C4254 1.524 . S
C4251 C4243 1.503 . S
C4251 C4250 1.370 . S
C4251 C4252 1.403 . S
C4252 C4251 1.403 . S
C4252 C4253 1.404 . S
C4252 C4255 1.539 . S
C4253 C4249 1.408 . S
C4253 C4252 1.404 . S
C4253 H4265 0.930 . S
C4254 C4250 1.524 . S
C4254 H4266 0.956 . S
C4254 H4267 0.961 . S
C4254 H4268 0.961 . S
C4255 C4252 1.539 . S
C4255 H4269 0.958 . S
C4255 H4270 0.961 . S
C4255 H4271 0.960 . S
H4256 C4240 0.931 . S
H4257 C4245 0.929 . S
H4258 C4246 0.960 . S
H4259 C4246 0.962 . S
H4260 C4246 0.960 . S
H4261 C4247 0.961 . S
H4262 C4247 0.961 . S
H4263 C4247 0.961 . S
H4264 C4248 0.931 . S
H4265 C4253 0.930 . S
H4266 C4254 0.956 . S
H4267 C4254 0.961 . S
H4268 C4254 0.961 . S
H4269 C4255 0.958 . S
H4270 C4255 0.961 . S
H4271 C4255 0.960 . S
C4272 C4273 1.391 . S
C4272 C4274 1.394 . S
C4272 H4288 0.931 . S
C4273 C4272 1.391 . S
C4273 C4277 1.376 . S
C4274 C4272 1.394 . S
C4274 C4275 1.369 . S
C4274 C4278 1.531 . S
C4275 C4274 1.369 . S
C4275 C4276 1.410 . S
C4275 C4283 1.503 . S
C4276 C4275 1.410 . S
C4276 C4277 1.392 . S
C4276 C4279 1.511 . S
C4277 C4273 1.376 . S
C4277 C4276 1.392 . S
C4277 H4289 0.929 . S
C4278 C4274 1.531 . S
C4278 H4290 0.960 . S
C4278 H4291 0.962 . S
C4278 H4292 0.960 . S
C4279 C4276 1.511 . S
C4279 H4293 0.961 . S
C4279 H4294 0.961 . S
C4279 H4295 0.961 . S
C4280 C4281 1.370 . S
C4280 C4282 1.363 . S
C4280 H4296 0.931 . S
C4281 C4280 1.370 . S
C4281 C4285 1.408 . S
C4282 C4280 1.363 . S
C4282 C4283 1.370 . S
C4282 C4286 1.524 . S
C4283 C4275 1.503 . S
C4283 C4282 1.370 . S
C4283 C4284 1.403 . S
C4284 C4283 1.403 . S
C4284 C4285 1.404 . S
C4284 C4287 1.539 . S
C4285 C4281 1.408 . S
C4285 C4284 1.404 . S
C4285 H4297 0.930 . S
C4286 C4282 1.524 . S
C4286 H4298 0.956 . S
C4286 H4299 0.961 . S
C4286 H4300 0.961 . S
C4287 C4284 1.539 . S
C4287 H4301 0.958 . S
C4287 H4302 0.961 . S
C4287 H4303 0.960 . S
H4288 C4272 0.931 . S
H4289 C4277 0.929 . S
H4290 C4278 0.960 . S
H4291 C4278 0.962 . S
H4292 C4278 0.960 . S
H4293 C4279 0.961 . S
H4294 C4279 0.961 . S
H4295 C4279 0.961 . S
H4296 C4280 0.931 . S
H4297 C4285 0.930 . S
H4298 C4286 0.956 . S
H4299 C4286 0.961 . S
H4300 C4286 0.961 . S
H4301 C4287 0.958 . S
H4302 C4287 0.961 . S
H4303 C4287 0.960 . S
C4304 C4305 1.391 . S
C4304 C4306 1.394 . S
C4304 H4320 0.931 . S
C4305 C4304 1.391 . S
C4305 C4309 1.376 . S
C4306 C4304 1.394 . S
C4306 C4307 1.369 . S
C4306 C4310 1.531 . S
C4307 C4306 1.369 . S
C4307 C4308 1.410 . S
C4307 C4315 1.507 1_655 S
C4308 C4307 1.410 . S
C4308 C4309 1.392 . S
C4308 C4311 1.511 . S
C4309 C4305 1.376 . S
C4309 C4308 1.392 . S
C4309 H4321 0.929 . S
C4310 C4306 1.531 . S
C4310 H4322 0.960 1_655 S
C4310 H4323 0.962 . S
C4310 H4324 0.960 . S
C4311 C4308 1.511 . S
C4311 H4325 0.961 . S
C4311 H4326 0.961 . S
C4311 H4327 0.961 . S
C4312 C4313 1.370 . S
C4312 C4314 1.363 1_455 S
C4312 H4328 0.914 1_455 S
C4313 C4312 1.370 . S
C4313 C4317 1.408 . S
C4314 C4312 1.363 1_655 S
C4314 C4315 1.373 1_655 S
C4314 C4318 1.524 . S
C4315 C4307 1.507 1_455 S
C4315 C4314 1.373 1_455 S
C4315 C4316 1.397 . S
C4316 C4315 1.397 . S
C4316 C4317 1.404 . S
C4316 C4319 1.539 . S
C4317 C4313 1.408 . S
C4317 C4316 1.404 . S
C4317 H4329 0.930 . S
C4318 C4314 1.524 . S
C4318 H4330 0.956 . S
C4318 H4331 0.961 . S
C4318 H4332 0.961 . S
C4319 C4316 1.539 . S
C4319 H4333 0.958 . S
C4319 H4334 0.961 . S
C4319 H4335 0.960 . S
H4320 C4304 0.931 . S
H4321 C4309 0.929 . S
H4322 C4310 0.960 1_455 S
H4323 C4310 0.962 . S
H4324 C4310 0.960 . S
H4325 C4311 0.961 . S
H4326 C4311 0.961 . S
H4327 C4311 0.961 . S
H4328 C4312 0.914 1_655 S
H4329 C4317 0.930 . S
H4330 C4318 0.956 . S
H4331 C4318 0.961 . S
H4332 C4318 0.961 . S
H4333 C4319 0.958 . S
H4334 C4319 0.961 . S
H4335 C4319 0.960 . S
C4336 C4337 1.391 . S
C4336 C4338 1.394 . S
C4336 H4352 0.931 . S
C4337 C4336 1.391 . S
C4337 C4341 1.376 . S
C4338 C4336 1.394 . S
C4338 C4339 1.369 . S
C4338 C4342 1.531 . S
C4339 C4338 1.369 . S
C4339 C4340 1.410 . S
C4339 C4347 1.503 . S
C4340 C4339 1.410 . S
C4340 C4341 1.392 . S
C4340 C4343 1.511 . S
C4341 C4337 1.376 . S
C4341 C4340 1.392 . S
C4341 H4353 0.929 . S
C4342 C4338 1.531 . S
C4342 H4354 0.960 . S
C4342 H4355 0.962 . S
C4342 H4356 0.960 . S
C4343 C4340 1.511 . S
C4343 H4357 0.961 . S
C4343 H4358 0.961 . S
C4343 H4359 0.961 . S
C4344 C4345 1.370 . S
C4344 C4346 1.363 . S
C4344 H4360 0.931 . S
C4345 C4344 1.370 . S
C4345 C4349 1.408 . S
C4346 C4344 1.363 . S
C4346 C4347 1.370 . S
C4346 C4350 1.524 . S
C4347 C4339 1.503 . S
C4347 C4346 1.370 . S
C4347 C4348 1.403 . S
C4348 C4347 1.403 . S
C4348 C4349 1.404 . S
C4348 C4351 1.539 . S
C4349 C4345 1.408 . S
C4349 C4348 1.404 . S
C4349 H4361 0.930 . S
C4350 C4346 1.524 . S
C4350 H4362 0.956 . S
C4350 H4363 0.961 . S
C4350 H4364 0.961 . S
C4351 C4348 1.539 . S
C4351 H4365 0.958 . S
C4351 H4366 0.961 . S
C4351 H4367 0.960 . S
H4352 C4336 0.931 . S
H4353 C4341 0.929 . S
H4354 C4342 0.960 . S
H4355 C4342 0.962 . S
H4356 C4342 0.960 . S
H4357 C4343 0.961 . S
H4358 C4343 0.961 . S
H4359 C4343 0.961 . S
H4360 C4344 0.931 . S
H4361 C4349 0.930 . S
H4362 C4350 0.956 . S
H4363 C4350 0.961 . S
H4364 C4350 0.961 . S
H4365 C4351 0.958 . S
H4366 C4351 0.961 . S
H4367 C4351 0.960 . S
C4368 C4369 1.391 . S
C4368 C4370 1.394 . S
C4368 H4384 0.931 . S
C4369 C4368 1.391 . S
C4369 C4373 1.376 . S
C4370 C4368 1.394 . S
C4370 C4371 1.369 . S
C4370 C4374 1.531 . S
C4371 C4370 1.369 . S
C4371 C4372 1.410 . S
C4371 C4379 1.503 . S
C4372 C4371 1.410 . S
C4372 C4373 1.392 . S
C4372 C4375 1.511 . S
C4373 C4369 1.376 . S
C4373 C4372 1.392 . S
C4373 H4385 0.929 . S
C4374 C4370 1.531 . S
C4374 H4386 0.960 . S
C4374 H4387 0.962 . S
C4374 H4388 0.960 . S
C4375 C4372 1.511 . S
C4375 H4389 0.961 . S
C4375 H4390 0.961 . S
C4375 H4391 0.961 . S
C4376 C4377 1.370 . S
C4376 C4378 1.363 . S
C4376 H4392 0.931 . S
C4377 C4376 1.370 . S
C4377 C4381 1.408 . S
C4378 C4376 1.363 . S
C4378 C4379 1.370 . S
C4378 C4382 1.524 . S
C4379 C4371 1.503 . S
C4379 C4378 1.370 . S
C4379 C4380 1.403 . S
C4380 C4379 1.403 . S
C4380 C4381 1.404 . S
C4380 C4383 1.539 . S
C4381 C4377 1.408 . S
C4381 C4380 1.404 . S
C4381 H4393 0.930 . S
C4382 C4378 1.524 . S
C4382 H4394 0.956 . S
C4382 H4395 0.961 . S
C4382 H4396 0.961 . S
C4383 C4380 1.539 . S
C4383 H4397 0.958 . S
C4383 H4398 0.961 . S
C4383 H4399 0.960 . S
H4384 C4368 0.931 . S
H4385 C4373 0.929 . S
H4386 C4374 0.960 . S
H4387 C4374 0.962 . S
H4388 C4374 0.960 . S
H4389 C4375 0.961 . S
H4390 C4375 0.961 . S
H4391 C4375 0.961 . S
H4392 C4376 0.931 . S
H4393 C4381 0.930 . S
H4394 C4382 0.956 . S
H4395 C4382 0.961 . S
H4396 C4382 0.961 . S
H4397 C4383 0.958 . S
H4398 C4383 0.961 . S
H4399 C4383 0.960 . S
C4400 C4401 1.391 . S
C4400 C4402 1.394 . S
C4400 H4416 0.931 . S
C4401 C4400 1.391 . S
C4401 C4405 1.376 . S
C4402 C4400 1.394 . S
C4402 C4403 1.369 . S
C4402 C4406 1.531 . S
C4403 C4402 1.369 . S
C4403 C4404 1.410 . S
C4403 C4411 1.503 . S
C4404 C4403 1.410 . S
C4404 C4405 1.392 . S
C4404 C4407 1.511 . S
C4405 C4401 1.376 . S
C4405 C4404 1.392 . S
C4405 H4417 0.929 . S
C4406 C4402 1.531 . S
C4406 H4418 0.960 . S
C4406 H4419 0.962 . S
C4406 H4420 0.960 . S
C4407 C4404 1.511 . S
C4407 H4421 0.961 . S
C4407 H4422 0.961 . S
C4407 H4423 0.961 . S
C4408 C4409 1.370 . S
C4408 C4410 1.363 . S
C4408 H4424 0.931 . S
C4409 C4408 1.370 . S
C4409 C4413 1.408 . S
C4410 C4408 1.363 . S
C4410 C4411 1.370 . S
C4410 C4414 1.524 . S
C4411 C4403 1.503 . S
C4411 C4410 1.370 . S
C4411 C4412 1.403 . S
C4412 C4411 1.403 . S
C4412 C4413 1.404 . S
C4412 C4415 1.539 . S
C4413 C4409 1.408 . S
C4413 C4412 1.404 . S
C4413 H4425 0.930 . S
C4414 C4410 1.524 . S
C4414 H4426 0.956 . S
C4414 H4427 0.961 . S
C4414 H4428 0.961 . S
C4415 C4412 1.539 . S
C4415 H4429 0.958 . S
C4415 H4430 0.961 . S
C4415 H4431 0.960 . S
H4416 C4400 0.931 . S
H4417 C4405 0.929 . S
H4418 C4406 0.960 . S
H4419 C4406 0.962 . S
H4420 C4406 0.960 . S
H4421 C4407 0.961 . S
H4422 C4407 0.961 . S
H4423 C4407 0.961 . S
H4424 C4408 0.931 . S
H4425 C4413 0.930 . S
H4426 C4414 0.956 . S
H4427 C4414 0.961 . S
H4428 C4414 0.961 . S
H4429 C4415 0.958 . S
H4430 C4415 0.961 . S
H4431 C4415 0.960 . S
C4432 C4433 1.391 . S
C4432 C4434 1.394 . S
C4432 H4448 0.931 . S
C4433 C4432 1.391 . S
C4433 C4437 1.376 . S
C4434 C4432 1.394 . S
C4434 C4435 1.369 . S
C4434 C4438 1.531 . S
C4435 C4434 1.369 . S
C4435 C4436 1.410 . S
C4435 C4443 1.503 . S
C4436 C4435 1.410 . S
C4436 C4437 1.392 . S
C4436 C4439 1.511 . S
C4437 C4433 1.376 . S
C4437 C4436 1.392 . S
C4437 H4449 0.929 . S
C4438 C4434 1.531 . S
C4438 H4450 0.960 . S
C4438 H4451 0.962 . S
C4438 H4452 0.960 . S
C4439 C4436 1.511 . S
C4439 H4453 0.961 . S
C4439 H4454 0.961 . S
C4439 H4455 0.961 . S
C4440 C4441 1.370 1_455 S
C4440 C4442 1.363 1_455 S
C4440 H4456 0.931 . S
C4441 C4440 1.370 1_655 S
C4441 C4445 1.408 . S
C4442 C4440 1.363 1_655 S
C4442 C4443 1.370 . S
C4442 C4446 1.524 1_655 S
C4443 C4435 1.503 . S
C4443 C4442 1.370 . S
C4443 C4444 1.403 . S
C4444 C4443 1.403 . S
C4444 C4445 1.404 . S
C4444 C4447 1.539 . S
C4445 C4441 1.408 . S
C4445 C4444 1.404 . S
C4445 H4457 0.930 . S
C4446 C4442 1.524 1_455 S
C4446 H4458 0.956 1_455 S
C4446 H4459 0.961 . S
C4446 H4460 0.961 . S
C4447 C4444 1.539 . S
C4447 H4461 0.958 . S
C4447 H4462 0.961 . S
C4447 H4463 0.960 . S
H4448 C4432 0.931 . S
H4449 C4437 0.929 . S
H4450 C4438 0.960 . S
H4451 C4438 0.962 . S
H4452 C4438 0.960 . S
H4453 C4439 0.961 . S
H4454 C4439 0.961 . S
H4455 C4439 0.961 . S
H4456 C4440 0.931 . S
H4457 C4445 0.930 . S
H4458 C4446 0.956 1_655 S
H4459 C4446 0.961 . S
H4460 C4446 0.961 . S
H4461 C4447 0.958 . S
H4462 C4447 0.961 . S
H4463 C4447 0.960 . S
C4464 C4465 1.391 . S
C4464 C4466 1.394 . S
C4464 H4480 0.931 . S
C4465 C4464 1.391 . S
C4465 C4469 1.376 . S
C4466 C4464 1.394 . S
C4466 C4467 1.369 . S
C4466 C4470 1.531 . S
C4467 C4466 1.369 . S
C4467 C4468 1.410 . S
C4467 C4475 1.503 . S
C4468 C4467 1.410 . S
C4468 C4469 1.392 . S
C4468 C4471 1.511 . S
C4469 C4465 1.376 . S
C4469 C4468 1.392 . S
C4469 H4481 0.929 . S
C4470 C4466 1.531 . S
C4470 H4482 0.960 . S
C4470 H4483 0.962 . S
C4470 H4484 0.960 . S
C4471 C4468 1.511 . S
C4471 H4485 0.961 . S
C4471 H4486 0.961 . S
C4471 H4487 0.961 . S
C4472 C4473 1.370 . S
C4472 C4474 1.363 . S
C4472 H4488 0.931 . S
C4473 C4472 1.370 . S
C4473 C4477 1.408 . S
C4474 C4472 1.363 . S
C4474 C4475 1.370 . S
C4474 C4478 1.524 . S
C4475 C4467 1.503 . S
C4475 C4474 1.370 . S
C4475 C4476 1.403 . S
C4476 C4475 1.403 . S
C4476 C4477 1.404 . S
C4476 C4479 1.539 . S
C4477 C4473 1.408 . S
C4477 C4476 1.404 . S
C4477 H4489 0.930 . S
C4478 C4474 1.524 . S
C4478 H4490 0.956 . S
C4478 H4491 0.961 . S
C4478 H4492 0.961 . S
C4479 C4476 1.539 . S
C4479 H4493 0.958 . S
C4479 H4494 0.961 . S
C4479 H4495 0.960 . S
H4480 C4464 0.931 . S
H4481 C4469 0.929 . S
H4482 C4470 0.960 . S
H4483 C4470 0.962 . S
H4484 C4470 0.960 . S
H4485 C4471 0.961 . S
H4486 C4471 0.961 . S
H4487 C4471 0.961 . S
H4488 C4472 0.931 . S
H4489 C4477 0.930 . S
H4490 C4478 0.956 . S
H4491 C4478 0.961 . S
H4492 C4478 0.961 . S
H4493 C4479 0.958 . S
H4494 C4479 0.961 . S
H4495 C4479 0.960 . S
C4496 C4497 1.391 . S
C4496 C4498 1.394 . S
C4496 H4512 0.931 . S
C4497 C4496 1.391 . S
C4497 C4501 1.376 . S
C4498 C4496 1.394 . S
C4498 C4499 1.369 . S
C4498 C4502 1.531 . S
C4499 C4498 1.369 . S
C4499 C4500 1.410 . S
C4499 C4507 1.503 . S
C4500 C4499 1.410 . S
C4500 C4501 1.392 . S
C4500 C4503 1.511 . S
C4501 C4497 1.376 . S
C4501 C4500 1.392 . S
C4501 H4513 0.929 . S
C4502 C4498 1.531 . S
C4502 H4514 0.960 . S
C4502 H4515 0.962 . S
C4502 H4516 0.960 . S
C4503 C4500 1.511 . S
C4503 H4517 0.961 . S
C4503 H4518 0.961 . S
C4503 H4519 0.961 . S
C4504 C4505 1.370 . S
C4504 C4506 1.363 . S
C4504 H4520 0.931 . S
C4505 C4504 1.370 . S
C4505 C4509 1.408 . S
C4506 C4504 1.363 . S
C4506 C4507 1.370 . S
C4506 C4510 1.524 . S
C4507 C4499 1.503 . S
C4507 C4506 1.370 . S
C4507 C4508 1.403 . S
C4508 C4507 1.403 . S
C4508 C4509 1.404 . S
C4508 C4511 1.539 . S
C4509 C4505 1.408 . S
C4509 C4508 1.404 . S
C4509 H4521 0.930 . S
C4510 C4506 1.524 . S
C4510 H4522 0.956 . S
C4510 H4523 0.961 . S
C4510 H4524 0.961 . S
C4511 C4508 1.539 . S
C4511 H4525 0.958 . S
C4511 H4526 0.961 . S
C4511 H4527 0.960 . S
H4512 C4496 0.931 . S
H4513 C4501 0.929 . S
H4514 C4502 0.960 . S
H4515 C4502 0.962 . S
H4516 C4502 0.960 . S
H4517 C4503 0.961 . S
H4518 C4503 0.961 . S
H4519 C4503 0.961 . S
H4520 C4504 0.931 . S
H4521 C4509 0.930 . S
H4522 C4510 0.956 . S
H4523 C4510 0.961 . S
H4524 C4510 0.961 . S
H4525 C4511 0.958 . S
H4526 C4511 0.961 . S
H4527 C4511 0.960 . S
C4528 C4529 1.391 . S
C4528 C4530 1.394 . S
C4528 H4544 0.931 . S
C4529 C4528 1.391 . S
C4529 C4533 1.376 . S
C4530 C4528 1.394 . S
C4530 C4531 1.369 . S
C4530 C4534 1.531 . S
C4531 C4530 1.369 . S
C4531 C4532 1.410 . S
C4531 C4539 1.503 . S
C4532 C4531 1.410 . S
C4532 C4533 1.392 . S
C4532 C4535 1.511 . S
C4533 C4529 1.376 . S
C4533 C4532 1.392 . S
C4533 H4545 0.929 . S
C4534 C4530 1.531 . S
C4534 H4546 0.960 . S
C4534 H4547 0.962 . S
C4534 H4548 0.960 . S
C4535 C4532 1.511 . S
C4535 H4549 0.961 . S
C4535 H4550 0.961 . S
C4535 H4551 0.961 . S
C4536 C4537 1.370 . S
C4536 C4538 1.363 . S
C4536 H4552 0.931 . S
C4537 C4536 1.370 . S
C4537 C4541 1.408 . S
C4538 C4536 1.363 . S
C4538 C4539 1.370 . S
C4538 C4542 1.524 . S
C4539 C4531 1.503 . S
C4539 C4538 1.370 . S
C4539 C4540 1.403 . S
C4540 C4539 1.403 . S
C4540 C4541 1.404 . S
C4540 C4543 1.539 . S
C4541 C4537 1.408 . S
C4541 C4540 1.404 . S
C4541 H4553 0.930 1_565 S
C4542 C4538 1.524 . S
C4542 H4554 0.956 . S
C4542 H4555 0.961 . S
C4542 H4556 0.961 . S
C4543 C4540 1.539 . S
C4543 H4557 0.958 . S
C4543 H4558 0.961 1_565 S
C4543 H4559 0.960 . S
H4544 C4528 0.931 . S
H4545 C4533 0.929 . S
H4546 C4534 0.960 . S
H4547 C4534 0.962 . S
H4548 C4534 0.960 . S
H4549 C4535 0.961 . S
H4550 C4535 0.961 . S
H4551 C4535 0.961 . S
H4552 C4536 0.931 . S
H4553 C4541 0.930 1_545 S
H4554 C4542 0.956 . S
H4555 C4542 0.961 . S
H4556 C4542 0.961 . S
H4557 C4543 0.958 . S
H4558 C4543 0.961 1_545 S
H4559 C4543 0.960 . S
C4560 C4561 1.391 . S
C4560 C4562 1.394 . S
C4560 H4576 0.931 . S
C4561 C4560 1.391 . S
C4561 C4565 1.376 . S
C4562 C4560 1.394 . S
C4562 C4563 1.369 . S
C4562 C4566 1.531 . S
C4563 C4562 1.369 . S
C4563 C4564 1.410 . S
C4563 C4571 1.503 . S
C4564 C4563 1.410 . S
C4564 C4565 1.392 . S
C4564 C4567 1.511 . S
C4565 C4561 1.376 . S
C4565 C4564 1.392 . S
C4565 H4577 0.929 . S
C4566 C4562 1.531 . S
C4566 H4578 0.960 . S
C4566 H4579 0.962 . S
C4566 H4580 0.960 . S
C4567 C4564 1.511 . S
C4567 H4581 0.961 . S
C4567 H4582 0.961 . S
C4567 H4583 0.961 . S
C4568 C4569 1.370 . S
C4568 C4570 1.363 . S
C4568 H4584 0.931 . S
C4569 C4568 1.370 . S
C4569 C4573 1.408 . S
C4570 C4568 1.363 . S
C4570 C4571 1.370 . S
C4570 C4574 1.524 . S
C4571 C4563 1.503 . S
C4571 C4570 1.370 . S
C4571 C4572 1.403 . S
C4572 C4571 1.403 . S
C4572 C4573 1.404 . S
C4572 C4575 1.539 . S
C4573 C4569 1.408 . S
C4573 C4572 1.404 . S
C4573 H4585 0.930 . S
C4574 C4570 1.524 . S
C4574 H4586 0.956 . S
C4574 H4587 0.961 . S
C4574 H4588 0.961 . S
C4575 C4572 1.539 . S
C4575 H4589 0.958 . S
C4575 H4590 0.961 . S
C4575 H4591 0.960 . S
H4576 C4560 0.931 . S
H4577 C4565 0.929 . S
H4578 C4566 0.960 . S
H4579 C4566 0.962 . S
H4580 C4566 0.960 . S
H4581 C4567 0.961 . S
H4582 C4567 0.961 . S
H4583 C4567 0.961 . S
H4584 C4568 0.931 . S
H4585 C4573 0.930 . S
H4586 C4574 0.956 . S
H4587 C4574 0.961 . S
H4588 C4574 0.961 . S
H4589 C4575 0.958 . S
H4590 C4575 0.961 . S
H4591 C4575 0.960 . S
C4592 C4593 1.391 . S
C4592 C4594 1.394 . S
C4592 H4608 0.931 . S
C4593 C4592 1.391 . S
C4593 C4597 1.376 . S
C4594 C4592 1.394 . S
C4594 C4595 1.369 . S
C4594 C4598 1.531 1_554 S
C4595 C4594 1.369 . S
C4595 C4596 1.410 . S
C4595 C4603 1.503 . S
C4596 C4595 1.410 . S
C4596 C4597 1.392 . S
C4596 C4599 1.511 . S
C4597 C4593 1.376 . S
C4597 C4596 1.392 . S
C4597 H4609 0.929 . S
C4598 C4594 1.531 1_556 S
C4598 H4610 0.960 . S
C4598 H4611 0.962 1_556 S
C4598 H4612 0.960 . S
C4599 C4596 1.511 . S
C4599 H4613 0.961 . S
C4599 H4614 0.961 . S
C4599 H4615 0.961 . S
C4600 C4601 1.370 . S
C4600 C4602 1.363 . S
C4600 H4616 0.931 . S
C4601 C4600 1.370 . S
C4601 C4605 1.408 1_554 S
C4602 C4600 1.363 . S
C4602 C4603 1.370 . S
C4602 C4606 1.524 . S
C4603 C4595 1.503 . S
C4603 C4602 1.370 . S
C4603 C4604 1.403 1_554 S
C4604 C4603 1.403 1_556 S
C4604 C4605 1.404 . S
C4604 C4607 1.539 . S
C4605 C4601 1.408 1_556 S
C4605 C4604 1.404 . S
C4605 H4617 0.930 . S
C4606 C4602 1.524 . S
C4606 H4618 0.956 . S
C4606 H4619 0.961 . S
C4606 H4620 0.961 . S
C4607 C4604 1.539 . S
C4607 H4621 0.958 . S
C4607 H4622 0.961 . S
C4607 H4623 0.960 . S
H4608 C4592 0.931 . S
H4609 C4597 0.929 . S
H4610 C4598 0.960 . S
H4611 C4598 0.962 1_554 S
H4612 C4598 0.960 . S
H4613 C4599 0.961 . S
H4614 C4599 0.961 . S
H4615 C4599 0.961 . S
H4616 C4600 0.931 . S
H4617 C4605 0.930 . S
H4618 C4606 0.956 . S
H4619 C4606 0.961 . S
H4620 C4606 0.961 . S
H4621 C4607 0.958 . S
H4622 C4607 0.961 . S
H4623 C4607 0.960 . S
C4624 C4625 1.391 . S
C4624 C4626 1.394 . S
C4624 H4640 0.931 . S
C4625 C4624 1.391 . S
C4625 C4629 1.376 . S
C4626 C4624 1.394 . S
C4626 C4627 1.369 . S
C4626 C4630 1.531 . S
C4627 C4626 1.369 . S
C4627 C4628 1.410 . S
C4627 C4635 1.503 . S
C4628 C4627 1.410 . S
C4628 C4629 1.392 . S
C4628 C4631 1.511 . S
C4629 C4625 1.376 . S
C4629 C4628 1.392 . S
C4629 H4641 0.929 . S
C4630 C4626 1.531 . S
C4630 H4642 0.960 . S
C4630 H4643 0.962 . S
C4630 H4644 0.960 . S
C4631 C4628 1.511 . S
C4631 H4645 0.961 . S
C4631 H4646 0.961 . S
C4631 H4647 0.961 . S
C4632 C4633 1.370 . S
C4632 C4634 1.363 . S
C4632 H4648 0.931 . S
C4633 C4632 1.370 . S
C4633 C4637 1.408 . S
C4634 C4632 1.363 . S
C4634 C4635 1.370 . S
C4634 C4638 1.524 . S
C4635 C4627 1.503 . S
C4635 C4634 1.370 . S
C4635 C4636 1.403 . S
C4636 C4635 1.403 . S
C4636 C4637 1.404 . S
C4636 C4639 1.539 . S
C4637 C4633 1.408 . S
C4637 C4636 1.404 . S
C4637 H4649 0.930 . S
C4638 C4634 1.524 . S
C4638 H4650 0.956 . S
C4638 H4651 0.961 . S
C4638 H4652 0.961 . S
C4639 C4636 1.539 . S
C4639 H4653 0.958 . S
C4639 H4654 0.961 . S
C4639 H4655 0.960 . S
H4640 C4624 0.931 . S
H4641 C4629 0.929 . S
H4642 C4630 0.960 . S
H4643 C4630 0.962 . S
H4644 C4630 0.960 . S
H4645 C4631 0.961 . S
H4646 C4631 0.961 . S
H4647 C4631 0.961 . S
H4648 C4632 0.931 . S
H4649 C4637 0.930 . S
H4650 C4638 0.956 . S
H4651 C4638 0.961 . S
H4652 C4638 0.961 . S
H4653 C4639 0.958 . S
H4654 C4639 0.961 . S
H4655 C4639 0.960 . S
C4656 C4657 1.391 . S
C4656 C4658 1.394 . S
C4656 H4672 0.938 . S
C4657 C4656 1.391 . S
C4657 C4661 1.376 . S
C4658 C4656 1.394 . S
C4658 C4659 1.369 . S
C4658 C4662 1.531 1_554 S
C4659 C4658 1.369 . S
C4659 C4660 1.410 . S
C4659 C4667 1.503 . S
C4660 C4659 1.410 . S
C4660 C4661 1.392 . S
C4660 C4663 1.511 . S
C4661 C4657 1.376 . S
C4661 C4660 1.392 . S
C4661 H4673 0.929 . S
C4662 C4658 1.531 1_556 S
C4662 H4674 0.960 . S
C4662 H4675 0.962 . S
C4662 H4676 0.960 . S
C4663 C4660 1.511 . S
C4663 H4677 0.961 . S
C4663 H4678 0.961 . S
C4663 H4679 0.961 . S
C4664 C4665 1.370 . S
C4664 C4666 1.363 . S
C4664 H4680 0.931 . S
C4665 C4664 1.370 . S
C4665 C4669 1.408 . S
C4666 C4664 1.363 . S
C4666 C4667 1.370 . S
C4666 C4670 1.524 . S
C4667 C4659 1.503 . S
C4667 C4666 1.370 . S
C4667 C4668 1.403 . S
C4668 C4667 1.403 . S
C4668 C4669 1.404 . S
C4668 C4671 1.539 . S
C4669 C4665 1.408 . S
C4669 C4668 1.404 . S
C4669 H4681 0.930 . S
C4670 C4666 1.524 . S
C4670 H4682 0.956 . S
C4670 H4683 0.961 . S
C4670 H4684 0.961 . S
C4671 C4668 1.539 . S
C4671 H4685 0.958 . S
C4671 H4686 0.961 . S
C4671 H4687 0.960 . S
H4672 C4656 0.938 . S
H4673 C4661 0.929 . S
H4674 C4662 0.960 . S
H4675 C4662 0.962 . S
H4676 C4662 0.960 . S
H4677 C4663 0.961 . S
H4678 C4663 0.961 . S
H4679 C4663 0.961 . S
H4680 C4664 0.931 . S
H4681 C4669 0.930 . S
H4682 C4670 0.956 . S
H4683 C4670 0.961 . S
H4684 C4670 0.961 . S
H4685 C4671 0.958 . S
H4686 C4671 0.961 . S
H4687 C4671 0.960 . S
C4688 C4689 1.391 . S
C4688 C4690 1.394 . S
C4688 H4704 0.931 . S
C4689 C4688 1.391 . S
C4689 C4693 1.376 . S
C4690 C4688 1.394 . S
C4690 C4691 1.369 . S
C4690 C4694 1.531 . S
C4691 C4690 1.369 . S
C4691 C4692 1.410 . S
C4691 C4699 1.503 . S
C4692 C4691 1.410 . S
C4692 C4693 1.392 . S
C4692 C4695 1.511 . S
C4693 C4689 1.376 . S
C4693 C4692 1.392 . S
C4693 H4705 0.929 . S
C4694 C4690 1.531 . S
C4694 H4706 0.960 . S
C4694 H4707 0.962 . S
C4694 H4708 0.960 . S
C4695 C4692 1.511 . S
C4695 H4709 0.961 . S
C4695 H4710 0.961 . S
C4695 H4711 0.961 . S
C4696 C4697 1.370 . S
C4696 C4698 1.363 . S
C4696 H4712 0.931 . S
C4697 C4696 1.370 . S
C4697 C4701 1.408 . S
C4698 C4696 1.363 . S
C4698 C4699 1.370 . S
C4698 C4702 1.524 . S
C4699 C4691 1.503 . S
C4699 C4698 1.370 . S
C4699 C4700 1.403 . S
C4700 C4699 1.403 . S
C4700 C4701 1.404 . S
C4700 C4703 1.539 . S
C4701 C4697 1.408 . S
C4701 C4700 1.404 . S
C4701 H4713 0.930 . S
C4702 C4698 1.524 . S
C4702 H4714 0.956 . S
C4702 H4715 0.961 . S
C4702 H4716 0.961 . S
C4703 C4700 1.539 . S
C4703 H4717 0.958 . S
C4703 H4718 0.961 . S
C4703 H4719 0.960 . S
H4704 C4688 0.931 . S
H4705 C4693 0.929 . S
H4706 C4694 0.960 . S
H4707 C4694 0.962 . S
H4708 C4694 0.960 . S
H4709 C4695 0.961 . S
H4710 C4695 0.961 . S
H4711 C4695 0.961 . S
H4712 C4696 0.931 . S
H4713 C4701 0.930 . S
H4714 C4702 0.956 . S
H4715 C4702 0.961 . S
H4716 C4702 0.961 . S
H4717 C4703 0.958 . S
H4718 C4703 0.961 . S
H4719 C4703 0.960 . S
C4720 C4721 1.391 . S
C4720 C4722 1.394 . S
C4720 H4736 0.931 . S
C4721 C4720 1.391 . S
C4721 C4725 1.376 . S
C4722 C4720 1.394 . S
C4722 C4723 1.369 . S
C4722 C4726 1.531 . S
C4723 C4722 1.369 . S
C4723 C4724 1.410 . S
C4723 C4731 1.503 . S
C4724 C4723 1.410 . S
C4724 C4725 1.392 . S
C4724 C4727 1.511 . S
C4725 C4721 1.376 . S
C4725 C4724 1.392 . S
C4725 H4737 0.929 . S
C4726 C4722 1.531 . S
C4726 H4738 0.960 . S
C4726 H4739 0.962 . S
C4726 H4740 0.960 . S
C4727 C4724 1.511 . S
C4727 H4741 0.961 . S
C4727 H4742 0.961 . S
C4727 H4743 0.961 . S
C4728 C4729 1.370 . S
C4728 C4730 1.363 . S
C4728 H4744 0.931 . S
C4729 C4728 1.370 . S
C4729 C4733 1.408 . S
C4730 C4728 1.363 . S
C4730 C4731 1.370 . S
C4730 C4734 1.524 . S
C4731 C4723 1.503 . S
C4731 C4730 1.370 . S
C4731 C4732 1.403 . S
C4732 C4731 1.403 . S
C4732 C4733 1.404 . S
C4732 C4735 1.539 . S
C4733 C4729 1.408 . S
C4733 C4732 1.404 . S
C4733 H4745 0.930 . S
C4734 C4730 1.524 . S
C4734 H4746 0.956 . S
C4734 H4747 0.961 . S
C4734 H4748 0.961 . S
C4735 C4732 1.539 . S
C4735 H4749 0.958 . S
C4735 H4750 0.961 . S
C4735 H4751 0.960 . S
H4736 C4720 0.931 . S
H4737 C4725 0.929 . S
H4738 C4726 0.960 . S
H4739 C4726 0.962 . S
H4740 C4726 0.960 . S
H4741 C4727 0.961 . S
H4742 C4727 0.961 . S
H4743 C4727 0.961 . S
H4744 C4728 0.931 . S
H4745 C4733 0.930 . S
H4746 C4734 0.956 . S
H4747 C4734 0.961 . S
H4748 C4734 0.961 . S
H4749 C4735 0.958 . S
H4750 C4735 0.961 . S
H4751 C4735 0.960 . S
C1681 C109 1.764 . S
C1689 C403 1.655 . S
C1713 C65 2.217 . S
C1721 C486 2.153 . S
C1745 C75 1.577 . S
C1753 C571 1.480 . S
C1785 C651 1.466 . S
C1777 C84 1.582 . S
C1809 C25 1.541 . S
C1817 C735 1.518 . S
C1849 C828 0.927 . S
C1841 C28 0.999 . S
C1881 C906 0.932 . S
C1873 C47 0.904 . S
C1905 C9 1.474 . S
C1913 C991 1.347 . S
C1945 C402 2.084 . S
C1937 C233 2.182 . S
C1969 C249 0.712 . S
C1977 C483 0.728 . S
C2009 C570 1.242 . S
C2001 C275 1.271 . S
C2041 C655 1.534 . S
C2033 C173 1.647 . S
C2065 C224 2.158 . S
C2073 C739 1.994 . S
C2105 C831 1.150 . S
C2097 C243 1.199 . S
C2137 C903 0.803 . S
C2129 C266 0.792 . S
C2169 C990 1.471 . S
C2161 C179 1.573 . S
C2201 C399 1.422 . S
C2193 C163 1.511 . S
C2225 C289 1.950 . S
C2233 C1074 1.862 1_556 S
C2265 C1148 2.185 . S
C2257 C333 2.347 . S
C2297 C1243 0.574 . S
C2289 C308 0.424 . S
C2321 C123 0.912 . S
C2329 C987 0.965 . S
C2353 C126 1.490 . S
C2361 C567 1.460 . S
C2385 C327 2.277 . S
C2393 C1326 2.187 . S
C2425 C1411 0.762 . S
C2417 C299 0.820 . S
C2457 C392 1.678 . S
C2449 C67 1.791 . S
C2489 C1419 2.195 . S
C2481 C98 2.195 . S
C2513 C89 1.592 . S
C2521 C560 1.504 . S
C2545 C79 1.659 . S
C2553 C1332 1.508 . S
C2585 C744 1.510 . S
C2577 C11 1.536 . S
C2609 C51 0.993 . S
C2617 C1155 0.965 . S
C2649 C915 1.015 . S
C2641 C33 1.025 . S
C2681 C1484 1.320 . S
C2673 C14 1.501 . S
C2713 C411 2.061 . S
C2705 C140 2.163 . S
C2745 C1416 0.669 . S
C2737 C319 0.667 . S
C2769 C112 1.234 . S
C2777 C579 1.231 . S
C2801 C285 1.658 . S
C2809 C1316 1.536 . S
C2833 C149 2.217 . S
C2841 C728 2.021 . S
C2873 C1158 1.161 . S
C2865 C313 1.234 . S
C2897 C121 0.857 . S
C2905 C912 0.814 . S
C2929 C291 1.607 . S
C2937 C1503 1.511 . S
C2961 C182 1.507 . S
C2969 C408 1.408 . S
C2993 C168 1.925 . S
C3001 C1083 1.886 . S
C3025 C263 2.396 . S
C3033 C823 2.237 . S
C3057 C247 0.488 . S
C3065 C1232 0.561 . S
C3097 C1500 0.925 . S
C3089 C277 0.919 1_565 S
C3121 C219 1.524 . S
C3129 C576 1.462 . S
C3161 C663 2.227 . S
C3153 C257 2.318 . S
C3193 C476 0.805 . S
C3185 C201 0.818 . S
C3217 C81 1.762 . S
C3225 C1579 1.644 . S
C3257 C1410 2.167 . S
C3249 C93 2.222 . S
C3281 C103 1.562 . S
C3289 C1663 1.479 . S
C3313 C56 1.587 . S
C3321 C1323 1.464 . S
C3345 C53 1.542 . S
C3353 C1071 1.519 . S
C3385 C1164 0.951 . S
C3377 C0 0.989 . S
C3417 C1242 0.919 . S
C3409 C19 0.866 . S
C3449 C1495 1.356 . S
C3441 C37 1.482 . S
C3481 C1578 2.087 . S
C3473 C261 2.180 . S
C3505 C193 0.640 . S
C3513 C1407 0.676 . S
C3545 C1662 1.232 . S
C3537 C205 1.267 . S
C3577 C1327 1.533 . S
C3569 C215 1.647 . S
C3609 C1075 2.023 . S
C3601 C252 2.118 . S
C3633 C187 1.201 . S
C3641 C1167 1.151 . S
C3673 C1239 0.812 . S
C3665 C196 0.814 . S
C3697 C221 1.564 . S
C3705 C1494 1.472 . S
C3737 C1575 1.450 . S
C3729 C317 1.519 . S
C3761 C135 1.947 . S
C3769 C738 1.865 . S
C3801 C812 2.190 . S
C3793 C151 2.346 . S
C3833 C907 0.507 . S
C3825 C154 0.491 . S
C3865 C1491 0.987 . S
C3857 C305 1.003 . S
C3889 C280 1.453 . S
C3897 C1659 1.432 . S
C3929 C654 2.189 . S
C3921 C145 2.272 . S
C3961 C487 0.799 . S
C3953 C117 0.801 . S
C3985 C95 1.810 . S
C3993 C1568 1.658 . S
C4025 C495 2.182 . S
C4017 C70 2.168 . S
C4049 C61 1.593 . S
C4057 C1652 1.502 . S
C4081 C107 1.657 . S
C4089 C660 1.533 . S
C4113 C39 1.530 . S
C4121 C1080 1.508 . S
C4153 C819 0.920 . S
C4145 C23 1.028 . S
C4177 C5 1.016 . S
C4185 C1251 1.015 . S
C4209 C42 1.479 . S
C4217 C980 1.342 . S
C4249 C1587 2.061 . S
C4241 C322 2.163 . S
C4273 C165 0.653 . S
C4281 C492 0.677 . S
C4313 C1671 1.245 . S
C4305 C294 1.244 . S
C4337 C131 1.657 . S
C4345 C644 1.542 . S
C4369 C331 2.208 . S
C4377 C1064 2.021 . S
C4409 C822 1.166 . S
C4401 C159 1.233 . S
C4433 C303 0.835 . S
C4441 C1248 0.851 1_655 S
C4473 C999 1.475 . S
C4465 C137 1.618 . S
C4505 C1584 1.423 . S
C4497 C238 1.507 . S
C4537 C747 1.880 1_665 S
C4529 C210 1.923 . S
C4561 C235 2.403 . S
C4569 C1159 2.228 . S
C4601 C896 0.572 . S
C4593 C191 0.519 . S
C4625 C207 0.875 . S
C4633 C996 0.911 . S
C4657 C177 1.523 . S
C4665 C1668 1.465 1_554 S
C4697 C1335 2.225 . S
C4689 C229 2.317 1_565 S
C4729 C1400 0.791 . S
C4721 C271 0.810 . S
