# Generated by pormake.
# Topology ocu, (6,8)-cn, num edge types: 1
# Building blocks:
#     Node 0, Type 0, BuildingBlock: VOLQOD_clean_sbu_1, # of connection points: 6
#     Node 1, Type 0, BuildingBlock: VOLQOD_clean_sbu_1, # of connection points: 6
#     Node 2, Type 0, BuildingBlock: VOLQOD_clean_sbu_1, # of connection points: 6
#     Node 3, Type 0, BuildingBlock: VOLQOD_clean_sbu_1, # of connection points: 6
#     Node 4, Type 0, BuildingBlock: VOLQOD_clean_sbu_1, # of connection points: 6
#     Node 5, Type 0, BuildingBlock: VOLQOD_clean_sbu_1, # of connection points: 6
#     Node 6, Type 0, BuildingBlock: VOLQOD_clean_sbu_1, # of connection points: 6
#     Node 7, Type 0, BuildingBlock: VOLQOD_clean_sbu_1, # of connection points: 6
#     Node 8, Type 1, BuildingBlock: TAGTUT_clean_sbu_1, # of connection points: 8
#     Node 9, Type 1, BuildingBlock: TAGTUT_clean_sbu_1, # of connection points: 8
#     Node 10, Type 1, BuildingBlock: TAGTUT_clean_sbu_1, # of connection points: 8
#     Node 11, Type 1, BuildingBlock: TAGTUT_clean_sbu_1, # of connection points: 8
#     Node 12, Type 1, BuildingBlock: TAGTUT_clean_sbu_1, # of connection points: 8
#     Node 13, Type 1, BuildingBlock: TAGTUT_clean_sbu_1, # of connection points: 8
#     Edge 14, Type (0, 1), BuildingBlock: MIFKUJ_clean_linker_0, # of connection points: 2
#     Edge 15, Type (0, 1), BuildingBlock: MIFKUJ_clean_linker_0, # of connection points: 2
#     Edge 16, Type (0, 1), BuildingBlock: MIFKUJ_clean_linker_0, # of connection points: 2
#     Edge 17, Type (0, 1), BuildingBlock: MIFKUJ_clean_linker_0, # of connection points: 2
#     Edge 18, Type (0, 1), BuildingBlock: MIFKUJ_clean_linker_0, # of connection points: 2
#     Edge 19, Type (0, 1), BuildingBlock: MIFKUJ_clean_linker_0, # of connection points: 2
#     Edge 20, Type (0, 1), BuildingBlock: MIFKUJ_clean_linker_0, # of connection points: 2
#     Edge 21, Type (0, 1), BuildingBlock: MIFKUJ_clean_linker_0, # of connection points: 2
#     Edge 22, Type (0, 1), BuildingBlock: MIFKUJ_clean_linker_0, # of connection points: 2
#     Edge 23, Type (0, 1), BuildingBlock: MIFKUJ_clean_linker_0, # of connection points: 2
#     Edge 24, Type (0, 1), BuildingBlock: MIFKUJ_clean_linker_0, # of connection points: 2
#     Edge 25, Type (0, 1), BuildingBlock: MIFKUJ_clean_linker_0, # of connection points: 2
#     Edge 26, Type (0, 1), BuildingBlock: MIFKUJ_clean_linker_0, # of connection points: 2
#     Edge 27, Type (0, 1), BuildingBlock: MIFKUJ_clean_linker_0, # of connection points: 2
#     Edge 28, Type (0, 1), BuildingBlock: MIFKUJ_clean_linker_0, # of connection points: 2
#     Edge 29, Type (0, 1), BuildingBlock: MIFKUJ_clean_linker_0, # of connection points: 2
#     Edge 30, Type (0, 1), BuildingBlock: MIFKUJ_clean_linker_0, # of connection points: 2
#     Edge 31, Type (0, 1), BuildingBlock: MIFKUJ_clean_linker_0, # of connection points: 2
#     Edge 32, Type (0, 1), BuildingBlock: MIFKUJ_clean_linker_0, # of connection points: 2
#     Edge 33, Type (0, 1), BuildingBlock: MIFKUJ_clean_linker_0, # of connection points: 2
#     Edge 34, Type (0, 1), BuildingBlock: MIFKUJ_clean_linker_0, # of connection points: 2
#     Edge 35, Type (0, 1), BuildingBlock: MIFKUJ_clean_linker_0, # of connection points: 2
#     Edge 36, Type (0, 1), BuildingBlock: MIFKUJ_clean_linker_0, # of connection points: 2
#     Edge 37, Type (0, 1), BuildingBlock: MIFKUJ_clean_linker_0, # of connection points: 2
#     Edge 38, Type (0, 1), BuildingBlock: MIFKUJ_clean_linker_0, # of connection points: 2
#     Edge 39, Type (0, 1), BuildingBlock: MIFKUJ_clean_linker_0, # of connection points: 2
#     Edge 40, Type (0, 1), BuildingBlock: MIFKUJ_clean_linker_0, # of connection points: 2
#     Edge 41, Type (0, 1), BuildingBlock: MIFKUJ_clean_linker_0, # of connection points: 2
#     Edge 42, Type (0, 1), BuildingBlock: MIFKUJ_clean_linker_0, # of connection points: 2
#     Edge 43, Type (0, 1), BuildingBlock: MIFKUJ_clean_linker_0, # of connection points: 2
#     Edge 44, Type (0, 1), BuildingBlock: MIFKUJ_clean_linker_0, # of connection points: 2
#     Edge 45, Type (0, 1), BuildingBlock: MIFKUJ_clean_linker_0, # of connection points: 2
#     Edge 46, Type (0, 1), BuildingBlock: MIFKUJ_clean_linker_0, # of connection points: 2
#     Edge 47, Type (0, 1), BuildingBlock: MIFKUJ_clean_linker_0, # of connection points: 2
#     Edge 48, Type (0, 1), BuildingBlock: MIFKUJ_clean_linker_0, # of connection points: 2
#     Edge 49, Type (0, 1), BuildingBlock: MIFKUJ_clean_linker_0, # of connection points: 2
#     Edge 50, Type (0, 1), BuildingBlock: MIFKUJ_clean_linker_0, # of connection points: 2
#     Edge 51, Type (0, 1), BuildingBlock: MIFKUJ_clean_linker_0, # of connection points: 2
#     Edge 52, Type (0, 1), BuildingBlock: MIFKUJ_clean_linker_0, # of connection points: 2
#     Edge 53, Type (0, 1), BuildingBlock: MIFKUJ_clean_linker_0, # of connection points: 2
#     Edge 54, Type (0, 1), BuildingBlock: MIFKUJ_clean_linker_0, # of connection points: 2
#     Edge 55, Type (0, 1), BuildingBlock: MIFKUJ_clean_linker_0, # of connection points: 2
#     Edge 56, Type (0, 1), BuildingBlock: MIFKUJ_clean_linker_0, # of connection points: 2
#     Edge 57, Type (0, 1), BuildingBlock: MIFKUJ_clean_linker_0, # of connection points: 2
#     Edge 58, Type (0, 1), BuildingBlock: MIFKUJ_clean_linker_0, # of connection points: 2
#     Edge 59, Type (0, 1), BuildingBlock: MIFKUJ_clean_linker_0, # of connection points: 2
#     Edge 60, Type (0, 1), BuildingBlock: MIFKUJ_clean_linker_0, # of connection points: 2
#     Edge 61, Type (0, 1), BuildingBlock: MIFKUJ_clean_linker_0, # of connection points: 2
# Relax obj value: 0.190
# Max RMSD: 0.327
# Mean RMSD: 0.223
data_MOF--net-ocu--node1-VOLQOD_clean_sbu_1--node2-TAGTUT_clean_sbu_1--edge1-MIFKUJ_clean_linker_0
_symmetry_space_group_name_H-M    P1
_symmetry_Int_Tables_number       1
_symmetry_cell_setting            triclinic
loop_
_symmetry_equiv_pos_as_xyz
'x, y, z'
_cell_length_a     48.706736
_cell_length_b     46.107173
_cell_length_c     49.975721
_cell_angle_alpha  90.914751
_cell_angle_beta   92.418588
_cell_angle_gamma 99.670369
loop_
_atom_site_label
_atom_site_type_symbol
_atom_site_fract_x
_atom_site_fract_y
_atom_site_fract_z
_atom_type_partial_charge
O0 O 0.29911 0.28019 0.25337 0.0
Zn1 Zn 0.27052 0.25289 0.27263 0.0
O2 O 0.24105 0.23231 0.24789 0.0
Zn3 Zn 0.2052 0.23855 0.25987 0.0
Zn4 Zn 0.24605 0.24818 0.21226 0.0
Zn5 Zn 0.24186 0.19021 0.24666 0.0
O6 O 0.17955 0.20083 0.26564 0.0
O7 O 0.20601 0.16675 0.25921 0.0
O8 O 0.25538 0.27629 0.30123 0.0
O9 O 0.20981 0.26168 0.29437 0.0
O10 O 0.18694 0.26314 0.23451 0.0
O11 O 0.21703 0.27327 0.20245 0.0
O12 O 0.24651 0.21621 0.18455 0.0
O13 O 0.29159 0.22401 0.29006 0.0
O14 O 0.24894 0.17702 0.20927 0.0
O15 O 0.27301 0.18096 0.2709 0.0
C16 C 0.30199 0.28487 0.22858 0.0
C17 C 0.18298 0.17409 0.26546 0.0
C18 C 0.19445 0.27643 0.21326 0.0
C19 C 0.23043 0.27637 0.3078 0.0
C20 C 0.2495 0.1894 0.18663 0.0
C21 C 0.29081 0.19642 0.28699 0.0
O22 O 0.28359 0.27347 0.21093 0.0
O23 O 0.77906 0.19894 0.20205 0.0
Zn24 Zn 0.79044 0.2257 0.23469 0.0
O25 O 0.75749 0.23486 0.25239 0.0
Zn26 Zn 0.75615 0.2766 0.25046 0.0
Zn27 Zn 0.72378 0.21308 0.23475 0.0
Zn28 Zn 0.75872 0.22434 0.28986 0.0
O29 O 0.75933 0.29615 0.28663 0.0
O30 O 0.76396 0.2601 0.31438 0.0
O31 O 0.81452 0.2629 0.22272 0.0
O32 O 0.7888 0.297 0.23173 0.0
O33 O 0.72134 0.28453 0.2314 0.0
O34 O 0.6999 0.24013 0.21793 0.0
O35 O 0.69923 0.18978 0.26052 0.0
O36 O 0.81384 0.20506 0.26015 0.0
O37 O 0.72304 0.19915 0.29936 0.0
O38 O 0.79063 0.20295 0.29762 0.0
C39 C 0.75557 0.18377 0.19461 0.0
C40 C 0.76301 0.28707 0.31016 0.0
C41 C 0.70109 0.2679 0.21911 0.0
C42 C 0.81064 0.28955 0.22261 0.0
C43 C 0.70137 0.18701 0.28574 0.0
C44 C 0.81101 0.19735 0.28441 0.0
O45 O 0.73331 0.18624 0.20625 0.0
O46 O 0.72116 0.71499 0.26644 0.0
Zn47 Zn 0.74811 0.75045 0.2811 0.0
O48 O 0.76044 0.77773 0.25233 0.0
Zn49 Zn 0.80072 0.78102 0.24822 0.0
Zn50 Zn 0.74026 0.76455 0.21861 0.0
Zn51 Zn 0.75226 0.81628 0.2611 0.0
O52 O 0.82094 0.8228 0.25482 0.0
O53 O 0.78589 0.84699 0.26048 0.0
O54 O 0.7808 0.73385 0.29679 0.0
O55 O 0.81706 0.75466 0.27424 0.0
O56 O 0.80846 0.7675 0.21118 0.0
O57 O 0.76665 0.75644 0.19046 0.0
O58 O 0.71591 0.79296 0.20491 0.0
O59 O 0.73053 0.77094 0.31096 0.0
O60 O 0.72334 0.82837 0.23616 0.0
O61 O 0.73846 0.81743 0.29802 0.0
C62 C 0.70988 0.70916 0.24311 0.0
C63 C 0.81178 0.84679 0.25864 0.0
C64 C 0.79305 0.75825 0.19052 0.0
C65 C 0.80663 0.73714 0.29204 0.0
C66 C 0.71102 0.81721 0.21456 0.0
C67 C 0.72987 0.7982 0.31505 0.0
O68 O 0.71519 0.72647 0.22376 0.0
O69 O 0.28086 0.75546 0.32051 0.0
Zn70 Zn 0.26774 0.73482 0.28495 0.0
O71 O 0.2673 0.76399 0.25715 0.0
Zn72 Zn 0.22927 0.7678 0.24612 0.0
Zn73 Zn 0.28778 0.80092 0.2712 0.0
Zn74 Zn 0.28571 0.75349 0.22651 0.0
O75 O 0.22161 0.76054 0.2061 0.0
O76 O 0.25854 0.74064 0.19612 0.0
O77 O 0.22918 0.71208 0.28852 0.0
O78 O 0.20266 0.73572 0.26245 0.0
O79 O 0.21965 0.80576 0.26114 0.0
O80 O 0.26004 0.8261 0.28135 0.0
O81 O 0.31528 0.82168 0.24562 0.0
O82 O 0.29347 0.70592 0.27582 0.0
O83 O 0.31261 0.78707 0.21383 0.0
O84 O 0.30655 0.72139 0.23556 0.0
C85 C 0.29938 0.7783 0.32471 0.0
C86 C 0.23461 0.74672 0.18982 0.0
C87 C 0.23412 0.82568 0.2763 0.0
C88 C 0.20538 0.71515 0.2785 0.0
C89 C 0.32262 0.81258 0.22326 0.0
C90 C 0.30772 0.7044 0.25519 0.0
O91 O 0.30791 0.79524 0.30585 0.0
O92 O 0.28185 0.70366 0.71318 0.0
Zn93 Zn 0.29232 0.73033 0.74609 0.0
O94 O 0.25978 0.74477 0.76016 0.0
Zn95 Zn 0.2632 0.78729 0.75665 0.0
Zn96 Zn 0.22628 0.72649 0.73999 0.0
Zn97 Zn 0.25663 0.73519 0.79787 0.0
O98 O 0.26315 0.80738 0.79213 0.0
O99 O 0.25882 0.77145 0.82136 0.0
O100 O 0.32053 0.76465 0.7354 0.0
O101 O 0.29967 0.80349 0.74115 0.0
O102 O 0.23186 0.79928 0.73439 0.0
O103 O 0.20652 0.7562 0.72203 0.0
O104 O 0.19905 0.70293 0.76338 0.0
O105 O 0.31188 0.70919 0.77434 0.0
O106 O 0.22029 0.70865 0.80378 0.0
O107 O 0.28849 0.71562 0.81061 0.0
C108 C 0.25794 0.69356 0.70239 0.0
C109 C 0.26131 0.79863 0.81606 0.0
C110 C 0.21089 0.78416 0.72184 0.0
C111 C 0.32056 0.79224 0.73435 0.0
C112 C 0.19945 0.69792 0.78833 0.0
C113 C 0.30846 0.70637 0.79936 0.0
O114 O 0.23569 0.70038 0.7111 0.0
O115 O 0.21501 0.19614 0.76755 0.0
Zn116 Zn 0.23723 0.23184 0.78699 0.0
O117 O 0.24089 0.2665 0.76418 0.0
Zn118 Zn 0.28012 0.28086 0.75726 0.0
Zn119 Zn 0.22031 0.2558 0.73072 0.0
Zn120 Zn 0.22509 0.29791 0.78035 0.0
O121 O 0.29251 0.32311 0.76956 0.0
O122 O 0.2544 0.33307 0.78796 0.0
O123 O 0.27505 0.22126 0.79551 0.0
O124 O 0.30462 0.25671 0.7773 0.0
O125 O 0.2883 0.27427 0.71868 0.0
O126 O 0.24701 0.2516 0.70236 0.0
O127 O 0.19568 0.28472 0.71998 0.0
O128 O 0.21892 0.23972 0.82181 0.0
O129 O 0.19446 0.31086 0.75743 0.0
O130 O 0.21097 0.28545 0.81566 0.0
C131 C 0.19892 0.19395 0.74662 0.0
C132 C 0.27982 0.34052 0.78243 0.0
C133 C 0.27298 0.26013 0.69991 0.0
C134 C 0.29979 0.23322 0.79059 0.0
C135 C 0.18626 0.30443 0.73321 0.0
C136 C 0.20996 0.26267 0.82982 0.0
O137 O 0.19698 0.21591 0.73204 0.0
O138 O 0.79946 0.26182 0.80766 0.0
Zn139 Zn 0.78006 0.25281 0.77115 0.0
O140 O 0.77502 0.28889 0.75271 0.0
Zn141 Zn 0.73543 0.28986 0.74582 0.0
Zn142 Zn 0.79217 0.32301 0.77406 0.0
Zn143 Zn 0.79298 0.29059 0.71897 0.0
O144 O 0.72459 0.2837 0.70662 0.0
O145 O 0.76496 0.28232 0.6882 0.0
O146 O 0.74315 0.22912 0.77855 0.0
O147 O 0.71224 0.25611 0.76372 0.0
O148 O 0.72453 0.32667 0.76142 0.0
O149 O 0.76348 0.3472 0.78382 0.0
O150 O 0.82237 0.34881 0.75553 0.0
O151 O 0.80131 0.22783 0.74892 0.0
O152 O 0.8183 0.32901 0.71444 0.0
O153 O 0.81529 0.25824 0.71626 0.0
C154 C 0.80982 0.2863 0.81909 0.0
C155 C 0.73856 0.27993 0.68624 0.0
C156 C 0.73788 0.34667 0.77718 0.0
C157 C 0.71812 0.23341 0.77529 0.0
C158 C 0.8292 0.3491 0.73128 0.0
C159 C 0.81522 0.23403 0.72815 0.0
O160 O 0.80867 0.31075 0.80813 0.0
O161 O 0.7913 0.77802 0.75257 0.0
Zn162 Zn 0.76343 0.74979 0.77286 0.0
O163 O 0.73351 0.72839 0.74843 0.0
Zn164 Zn 0.69747 0.73441 0.75992 0.0
Zn165 Zn 0.73805 0.7431 0.71231 0.0
Zn166 Zn 0.73368 0.68608 0.74807 0.0
O167 O 0.67235 0.69714 0.76787 0.0
O168 O 0.69824 0.66267 0.76135 0.0
O169 O 0.74755 0.77293 0.80209 0.0
O170 O 0.70213 0.75996 0.79272 0.0
O171 O 0.67757 0.75523 0.73292 0.0
O172 O 0.70696 0.76434 0.70016 0.0
O173 O 0.74184 0.71078 0.68606 0.0
O174 O 0.78574 0.72081 0.78939 0.0
O175 O 0.74038 0.67138 0.71121 0.0
O176 O 0.76518 0.67756 0.77177 0.0
C177 C 0.79265 0.7833 0.72766 0.0
C178 C 0.6755 0.67036 0.76794 0.0
C179 C 0.68397 0.76655 0.71057 0.0
C180 C 0.72227 0.77413 0.80713 0.0
C181 C 0.74322 0.68363 0.68861 0.0
C182 C 0.78411 0.693 0.7867 0.0
O183 O 0.77369 0.77127 0.71083 0.0
C184 C 0.93173 0.06099 0.54334 0.0
C185 C 0.96588 0.0549 0.46506 0.0
C186 C 0.95649 0.9419 0.47758 0.0
Mg187 Mg 0.99061 0.05888 0.52234 0.0
O188 O 0.97752 0.01865 0.52708 0.0
Mg189 Mg 0.94151 0.00108 0.50799 0.0
Mg190 Mg 0.00065 0.99008 0.51415 0.0
O191 O 0.02387 0.96193 0.50071 0.0
Mg192 Mg 0.01197 0.92092 0.50134 0.0
Mg193 Mg 0.06003 0.98002 0.51924 0.0
C194 C 0.04582 0.03926 0.54737 0.0
C195 C 0.0448 0.02371 0.47308 0.0
O196 O 0.92242 0.03586 0.53191 0.0
O197 O 0.95718 0.07372 0.54233 0.0
O198 O 0.94888 0.03276 0.47278 0.0
O199 O 0.98599 0.0678 0.48041 0.0
O200 O 0.03186 0.05996 0.54194 0.0
O201 O 0.03657 0.0123 0.54078 0.0
C202 C 0.95606 0.95755 0.55517 0.0
O203 O 0.98142 0.96097 0.54804 0.0
O204 O 0.93775 0.97015 0.54297 0.0
O205 O 0.07951 0.94754 0.49339 0.0
O206 O 0.0463 0.9096 0.47938 0.0
O207 O 0.05261 0.94702 0.55304 0.0
C208 C 0.07137 0.9237 0.47956 0.0
O209 O 0.01732 0.91021 0.54304 0.0
O210 O 0.97079 0.92095 0.48068 0.0
C211 C 0.03625 0.92372 0.55944 0.0
O212 O 0.96502 0.9677 0.48774 0.0
O213 O 0.01944 0.01919 0.48016 0.0
O214 O 0.06364 0.01196 0.48527 0.0
C215 C 0.43453 0.08526 0.01448 0.0
C216 C 0.47195 0.08064 0.93875 0.0
C217 C 0.46855 0.96586 0.96204 0.0
Mg218 Mg 0.49542 0.08833 -0.00268 0.0
O219 O 0.48606 0.04747 0.00088 0.0
Mg220 Mg 0.4512 0.02617 0.98176 0.0
Mg221 Mg 0.51168 0.02028 0.99033 0.0
O222 O 0.53699 0.99249 0.9802 0.0
Mg223 Mg 0.52599 0.95265 0.98774 0.0
Mg224 Mg 0.57192 0.0135 -0.00079 0.0
C225 C 0.55454 0.07495 0.01912 0.0
C226 C 0.55521 0.05042 0.94785 0.0
O227 O 0.42849 0.06014 0.00221 0.0
O228 O 0.45952 0.09972 0.01674 0.0
O229 O 0.45714 0.05632 0.94519 0.0
O230 O 0.48929 0.0959 0.95547 0.0
O231 O 0.53879 0.09414 0.01386 0.0
O232 O 0.54623 0.04723 0.01539 0.0
C233 C 0.46795 0.98703 0.03143 0.0
O234 O 0.49355 0.99309 0.02529 0.0
O235 O 0.44845 0.99681 0.01814 0.0
O236 O 0.59408 0.97718 0.98063 0.0
O237 O 0.56107 0.93761 0.97072 0.0
O238 O 0.56524 0.98645 0.03749 0.0
C239 C 0.58645 0.95089 0.9709 0.0
O240 O 0.53031 0.94876 0.03034 0.0
O241 O 0.48369 0.94675 0.9693 0.0
C242 C 0.5488 0.96419 0.04587 0.0
O243 O 0.4772 0.99362 0.96471 0.0
O244 O 0.53001 0.04722 0.95534 0.0
O245 O 0.57436 0.03971 0.96084 0.0
C246 C 0.93979 0.58841 0.02562 0.0
C247 C 0.95896 0.55496 0.94901 0.0
C248 C 0.95189 0.45063 -2e-05 0.0
Mg249 Mg 0.99376 0.57553 0.00073 0.0
O250 O 0.9822 0.53873 0.01546 0.0
Mg251 Mg 0.94324 0.51837 0.00599 0.0
Mg252 Mg 0.00261 0.50562 0.00819 0.0
O253 O 0.02319 0.47259 0.0013 0.0
Mg254 Mg 0.01198 0.43749 0.01882 0.0
Mg255 Mg 0.06242 0.49308 0.01002 0.0
C256 C 0.05349 0.56118 0.01942 0.0
C257 C 0.03875 0.5192 0.95521 0.0
O258 O 0.92877 0.56138 0.02071 0.0
O259 O 0.96523 0.59862 0.02083 0.0
O260 O 0.94366 0.53593 0.96275 0.0
O261 O 0.98065 0.57135 0.95937 0.0
O262 O 0.03824 0.57986 0.01138 0.0
O263 O 0.04351 0.53396 0.02295 0.0
C264 C 0.96595 0.49144 0.06069 0.0
O265 O 0.98931 0.49029 0.05002 0.0
O266 O 0.94604 0.50145 0.04832 0.0
O267 O 0.07598 0.44905 0.99542 0.0
O268 O 0.039 0.41288 -0.00095 0.0
O269 O 0.06422 0.47706 0.05336 0.0
C270 C 0.06405 0.42196 0.99232 0.0
O271 O 0.02685 0.44329 0.05967 0.0
O272 O 0.96743 0.43296 0.00953 0.0
C273 C 0.04932 0.45939 0.06851 0.0
O274 O 0.96175 0.47717 0.99363 0.0
O275 O 0.01548 0.52045 0.96603 0.0
O276 O 0.05868 0.50946 0.96778 0.0
C277 C 0.44515 0.56654 0.06865 0.0
C278 C 0.46944 0.5673 0.98535 0.0
C279 C 0.46208 0.45456 0.98934 0.0
Mg280 Mg 0.50113 0.56792 0.04 0.0
O281 O 0.48862 0.52723 0.04223 0.0
Mg282 Mg 0.45073 0.51044 0.02649 0.0
Mg283 Mg 0.5101 0.49958 0.02501 0.0
O284 O 0.53147 0.47229 0.00747 0.0
Mg285 Mg 0.51818 0.43173 0.00571 0.0
Mg286 Mg 0.56838 0.48727 0.02599 0.0
C287 C 0.55781 0.54568 0.0585 0.0
C288 C 0.55133 0.5346 0.9833 0.0
O289 O 0.43468 0.5427 0.05561 0.0
O290 O 0.47018 0.57983 0.06582 0.0
O291 O 0.45366 0.54432 0.99324 0.0
O292 O 0.49096 0.57961 -0.00066 0.0
O293 O 0.54416 0.56719 0.05569 0.0
O294 O 0.54755 0.51939 0.05052 0.0
C295 C 0.47104 0.46431 0.06811 0.0
O296 O 0.49483 0.46806 0.05772 0.0
O297 O 0.4513 0.47752 0.05983 0.0
O298 O 0.58576 0.45516 -0.00229 0.0
O299 O 0.55044 0.42083 0.98122 0.0
O300 O 0.5609 0.45147 0.05842 0.0
C301 C 0.57615 0.43304 0.98209 0.0
O302 O 0.52417 0.41737 0.04555 0.0
O303 O 0.47607 0.43327 0.9893 0.0
C304 C 0.54347 0.42806 0.06275 0.0
O305 O 0.47189 0.47968 0.00022 0.0
O306 O 0.52666 0.53067 0.99217 0.0
O307 O 0.57053 0.52151 0.99334 0.0
C308 C 0.93095 0.56706 0.52506 0.0
C309 C 0.96341 0.56423 0.44679 0.0
C310 C 0.97249 0.45323 0.46562 0.0
Mg311 Mg 0.99087 0.57547 0.50348 0.0
O312 O 0.98505 0.53467 0.50811 0.0
Mg313 Mg 0.95026 0.50996 0.49188 0.0
Mg314 Mg 0.01244 0.51058 0.49522 0.0
O315 O 0.0397 0.48626 0.48259 0.0
Mg316 Mg 0.0324 0.44586 0.48829 0.0
Mg317 Mg 0.07414 0.50942 0.50075 0.0
C318 C 0.05237 0.56756 0.52398 0.0
C319 C 0.0514 0.54569 0.4514 0.0
O320 O 0.92629 0.54099 0.51457 0.0
O321 O 0.95454 0.58423 0.524 0.0
O322 O 0.95029 0.53976 0.45498 0.0
O323 O 0.982 0.58064 0.46155 0.0
O324 O 0.03457 0.58496 0.51972 0.0
O325 O 0.04639 0.53984 0.51885 0.0
C326 C 0.97587 0.47506 0.54045 0.0
O327 O 0.00013 0.48298 0.53144 0.0
O328 O 0.95389 0.48193 0.52889 0.0
O329 O 0.09872 0.47691 0.47932 0.0
O330 O 0.06817 0.4354 0.46961 0.0
O331 O 0.07105 0.48026 0.53837 0.0
C332 C 0.09258 0.45081 0.46885 0.0
O333 O 0.03773 0.44105 0.53044 0.0
O334 O 0.99056 0.43625 0.4696 0.0
C335 C 0.05579 0.45681 0.54614 0.0
O336 O 0.9777 0.48076 0.47191 0.0
O337 O 0.02637 0.53896 0.45928 0.0
O338 O 0.07223 0.53716 0.46375 0.0
C339 C 0.4334 0.0901 0.54925 0.0
C340 C 0.4617 0.07397 0.4704 0.0
C341 C 0.45647 0.96407 0.4969 0.0
Mg342 Mg 0.49049 0.08576 0.52565 0.0
O343 O 0.47966 0.04645 0.53507 0.0
Mg344 Mg 0.44258 0.0261 0.51954 0.0
Mg345 Mg 0.50309 0.01829 0.52169 0.0
O346 O 0.52658 0.99059 0.50776 0.0
Mg347 Mg 0.51633 0.95049 0.51381 0.0
Mg348 Mg 0.56409 0.01068 0.52269 0.0
C349 C 0.54913 0.07219 0.54763 0.0
C350 C 0.54175 0.05052 0.47632 0.0
O351 O 0.42399 0.06341 0.54131 0.0
O352 O 0.45845 0.10266 0.54562 0.0
O353 O 0.44578 0.05286 0.48111 0.0
O354 O 0.48243 0.08917 0.4834 0.0
O355 O 0.53305 0.09094 0.54222 0.0
O356 O 0.54136 0.04434 0.54387 0.0
C357 C 0.46391 0.98765 0.56768 0.0
O358 O 0.48835 0.99166 0.55823 0.0
O359 O 0.44366 -0.00137 0.5569 0.0
O360 O 0.58251 0.97475 0.49835 0.0
O361 O 0.54796 0.93601 0.49084 0.0
O362 O 0.5623 0.98138 0.55988 0.0
C363 C 0.57304 0.94903 0.48797 0.0
O364 O 0.52568 0.94506 0.55518 0.0
O365 O 0.47248 0.94496 0.50093 0.0
C366 C 0.54639 0.95914 0.56901 0.0
O367 O 0.46508 0.99183 0.49987 0.0
O368 O 0.51726 0.04511 0.48541 0.0
O369 O 0.5624 0.03998 0.48672 0.0
H370 H 0.12702 0.1747 0.26505 0.0
H371 H 0.09297 0.14461 0.29215 0.0
H372 H 0.15635 0.09557 0.31983 0.0
H373 H 0.18988 0.12441 0.29169 0.0
H374 H 0.10953 0.06102 0.31897 0.0
H375 H 0.14238 0.1602 0.35287 0.0
H376 H 0.14999 0.21441 0.35116 0.0
H377 H 0.06161 0.21253 0.34231 0.0
H378 H 0.05353 0.15825 0.34361 0.0
H379 H 0.09709 0.04306 0.45655 0.0
H380 H 0.1101 0.06571 0.41423 0.0
H381 H 0.02359 0.06602 0.39236 0.0
H382 H 0.01015 0.04196 0.43443 0.0
H383 H 0.07035 0.1226 0.38503 0.0
H384 H 0.04138 0.01925 0.36177 0.0
H385 H 0.04036 0.96651 0.3701 0.0
H386 H 0.12933 0.97821 0.36531 0.0
H387 H 0.13095 0.03115 0.35742 0.0
C388 C 0.13339 0.15689 0.27632 0.0
C389 C 0.16115 0.1521 0.27658 0.0
C390 C 0.11399 0.13984 0.29192 0.0
C391 C 0.12231 0.11846 0.30871 0.0
C392 C 0.14942 0.11204 0.30719 0.0
C393 C 0.16862 0.12857 0.29109 0.0
C394 C 0.10422 0.10509 0.32999 0.0
C395 C 0.1008 0.07451 0.33324 0.0
C396 C 0.09257 0.1226 0.34864 0.0
C397 C 0.09738 0.15519 0.34795 0.0
C398 C 0.12459 0.17136 0.35038 0.0
C399 C 0.12899 0.20208 0.34949 0.0
C400 C 0.1063 0.21689 0.34652 0.0
C401 C 0.07917 0.20101 0.34452 0.0
C402 C 0.07467 0.17028 0.34531 0.0
C403 C 0.08074 0.04811 0.44294 0.0
C404 C 0.0525 0.04087 0.44898 0.0
C405 C 0.08825 0.06105 0.41877 0.0
C406 C 0.06777 0.06726 0.40027 0.0
C407 C 0.03963 0.06135 0.40654 0.0
C408 C 0.03202 0.04791 0.43066 0.0
C409 C 0.07633 0.0789 0.37407 0.0
C410 C 0.07816 0.10911 0.37008 0.0
C411 C 0.08729 0.06124 0.35525 0.0
C412 C 0.08628 0.02922 0.35913 0.0
C413 C 0.06074 0.01062 0.36264 0.0
C414 C 0.06006 0.98069 0.36728 0.0
C415 C 0.08477 0.96905 0.3683 0.0
C416 C 0.11021 0.98728 0.36453 0.0
C417 C 0.11101 0.01724 0.35993 0.0
H418 H 0.08422 0.94592 0.37198 0.0
H419 H 0.10975 0.24068 0.34585 0.0
H420 H 0.85909 0.18337 0.2644 0.0
H421 H 0.89443 0.16008 0.28819 0.0
H422 H 0.84572 0.15393 0.35864 0.0
H423 H 0.8108 0.17735 0.33541 0.0
H424 H 0.89824 0.17504 0.37156 0.0
H425 H 0.84738 0.09499 0.31646 0.0
H426 H 0.82934 0.06821 0.27456 0.0
H427 H 0.9129 0.07135 0.24919 0.0
H428 H 0.93143 0.09866 0.29076 0.0
H429 H 0.92501 0.03299 0.42764 0.0
H430 H 0.90938 0.0581 0.389 0.0
H431 H 0.97862 0.12923 0.40285 0.0
H432 H 0.9941 0.10447 0.4423 0.0
H433 H 0.92508 0.08063 0.34271 0.0
H434 H 0.95362 0.19325 0.39568 0.0
H435 H 0.96544 0.21487 0.4411 0.0
H436 H 0.91629 0.13953 0.4752 0.0
H437 H 0.90396 0.11768 0.42999 0.0
C438 C 0.85589 0.17695 0.28494 0.0
C439 C 0.8321 0.18228 0.298 0.0
C440 C 0.87609 0.16361 0.29846 0.0
C441 C 0.87271 0.15529 0.32518 0.0
C442 C 0.84887 0.16036 0.33808 0.0
C443 C 0.82882 0.17368 0.32469 0.0
C444 C 0.89388 0.14163 0.34029 0.0
C445 C 0.90442 0.15462 0.36502 0.0
C446 C 0.90196 0.11497 0.33181 0.0
C447 C 0.89076 0.09934 0.30649 0.0
C448 C 0.86189 0.09037 0.30177 0.0
C449 C 0.85158 0.07501 0.27812 0.0
C450 C 0.86996 0.06821 0.25916 0.0
C451 C 0.89869 0.07675 0.26383 0.0
C452 C 0.9091 0.0922 0.28741 0.0
C453 C 0.93728 0.05373 0.42229 0.0
C454 C 0.96031 0.06718 0.43858 0.0
C455 C 0.92842 0.06797 0.39997 0.0
C456 C 0.94246 0.09585 0.3934 0.0
C457 C 0.96717 0.10796 0.40792 0.0
C458 C 0.97596 0.0938 0.43047 0.0
C459 C 0.92866 0.11363 0.37423 0.0
C460 C 0.91962 0.10157 0.34876 0.0
C461 C 0.92115 0.14069 0.38231 0.0
C462 C 0.92823 0.15371 0.40954 0.0
C463 C 0.94534 0.18136 0.4129 0.0
C464 C 0.95211 0.19364 0.43858 0.0
C465 C 0.94172 0.17853 0.46102 0.0
C466 C 0.92441 0.15116 0.45782 0.0
C467 C 0.91754 0.13881 0.43218 0.0
H468 H 0.94701 0.18806 0.48089 0.0
H469 H 0.86193 0.05624 0.2409 0.0
H470 H 0.7996 0.90205 0.26514 0.0
H471 H 0.82427 0.9387 0.29711 0.0
H472 H 0.89244 0.8901 0.30332 0.0
H473 H 0.8677 0.85289 0.27181 0.0
H474 H 0.82886 0.90738 0.34509 0.0
H475 H 0.94905 0.93978 0.33184 0.0
H476 H 0.98066 0.96141 0.29747 0.0
H477 H 0.91479 0.00016 0.26044 0.0
H478 H 0.88285 0.97905 0.29472 0.0
H479 H 0.935 0.8926 0.44717 0.0
H480 H 0.90493 0.89121 0.40656 0.0
H481 H 0.89491 0.98096 0.42182 0.0
H482 H 0.92357 0.98213 0.46301 0.0
H483 H 0.9241 0.96032 0.36931 0.0
H484 H 0.84254 0.9528 0.42037 0.0
H485 H 0.8099 0.93306 0.45458 0.0
H486 H 0.79631 0.84829 0.41483 0.0
H487 H 0.82944 0.86733 0.3807 0.0
C488 C 0.8204 0.89977 0.27235 0.0
C489 C 0.83119 0.87389 0.26697 0.0
C490 C 0.83454 0.92093 0.29048 0.0
C491 C 0.85979 0.91667 0.30294 0.0
C492 C 0.87287 0.89367 0.29391 0.0
C493 C 0.85861 0.87228 0.27595 0.0
C494 C 0.86764 0.92926 0.33002 0.0
C495 C 0.8495 0.91954 0.35038 0.0
C496 C 0.8944 0.94525 0.33672 0.0
C497 C 0.91347 0.95763 0.3158 0.0
C498 C 0.9413 0.95297 0.31642 0.0
C499 C 0.95929 0.96512 0.29692 0.0
C500 C 0.94972 0.98207 0.27674 0.0
C501 C 0.92214 0.9869 0.276 0.0
C502 C 0.90406 0.97476 0.29542 0.0
C503 C 0.92562 0.91171 0.44248 0.0
C504 C 0.9324 0.93783 0.45803 0.0
C505 C 0.90854 0.9109 0.41923 0.0
C506 C 0.89822 0.93616 0.41121 0.0
C507 C 0.90295 0.96138 0.42773 0.0
C508 C 0.91947 0.96198 0.45124 0.0
C509 C 0.88576 0.93718 0.38404 0.0
C510 C 0.90317 0.94906 0.36385 0.0
C511 C 0.85827 0.92325 0.3774 0.0
C512 C 0.8388 0.91143 0.39818 0.0
C513 C 0.83297 0.92983 0.41915 0.0
C514 C 0.8143 0.91879 0.43847 0.0
C515 C 0.80115 0.88942 0.43693 0.0
C516 C 0.8066 0.87101 0.41604 0.0
C517 C 0.82534 0.88192 0.3967 0.0
H518 H 0.78671 0.88098 0.45189 0.0
H519 H 0.9637 0.9915 0.2617 0.0
H520 H 0.18321 0.84253 0.26623 0.0
H521 H 0.15634 0.86575 0.29825 0.0
H522 H 0.22429 0.87042 0.35741 0.0
H523 H 0.25164 0.8496 0.3252 0.0
H524 H 0.13585 0.84602 0.34022 0.0
H525 H 0.22362 0.91716 0.40676 0.0
H526 H 0.2688 0.94932 0.40181 0.0
H527 H 0.24477 0.96639 0.32067 0.0
H528 H 0.19924 0.93453 0.32524 0.0
H529 H 0.08077 0.86855 0.46571 0.0
H530 H 0.10974 0.85579 0.42979 0.0
H531 H 0.13042 0.94776 0.41075 0.0
H532 H 0.10351 0.96049 0.4478 0.0
H533 H 0.17271 0.92746 0.40472 0.0
H534 H 0.07831 0.89235 0.37213 0.0
H535 H 0.03061 0.86423 0.3735 0.0
H536 H 0.06354 0.78372 0.37985 0.0
H537 H 0.11145 0.81153 0.37897 0.0
C538 C 0.19268 0.84954 0.28578 0.0
C539 C 0.21964 0.84455 0.29303 0.0
C540 C 0.17725 0.86256 0.30417 0.0
C541 C 0.18828 0.87021 0.33031 0.0
C542 C 0.21548 0.8658 0.33723 0.0
C543 C 0.23116 0.85369 0.31869 0.0
C544 C 0.17067 0.88022 0.3511 0.0
C545 C 0.14385 0.86411 0.35408 0.0
C546 C 0.18082 0.90391 0.36925 0.0
C547 C 0.20807 0.92331 0.36631 0.0
C548 C 0.22791 0.92789 0.3879 0.0
C549 C 0.25362 0.94603 0.38514 0.0
C550 C 0.2597 0.95987 0.36091 0.0
C551 C 0.24006 0.95559 0.3394 0.0
C552 C 0.21431 0.93745 0.34205 0.0
C553 C 0.0919 0.88592 0.45401 0.0
C554 C 0.09019 0.91545 0.45958 0.0
C555 C 0.10813 0.87867 0.43324 0.0
C556 C 0.12179 0.90073 0.41694 0.0
C557 C 0.12023 0.93026 0.4229 0.0
C558 C 0.10487 0.93755 0.44416 0.0
C559 C 0.13786 0.89337 0.39377 0.0
C560 C 0.16451 0.90976 0.39053 0.0
C561 C 0.12715 0.8707 0.37479 0.0
C562 C 0.0984 0.854 0.37552 0.0
C563 C 0.07535 0.86868 0.37395 0.0
C564 C 0.04829 0.85281 0.37465 0.0
C565 C 0.04404 0.82221 0.37676 0.0
C566 C 0.06685 0.80742 0.37819 0.0
C567 C 0.09394 0.82322 0.37756 0.0
H568 H 0.02308 0.80995 0.37728 0.0
H569 H 0.27959 0.97396 0.35881 0.0
H570 H 0.19304 0.83472 0.7368 0.0
H571 H 0.15679 0.85767 0.71397 0.0
H572 H 0.14724 0.79045 0.65163 0.0
H573 H 0.18347 0.76757 0.67445 0.0
H574 H 0.15162 0.84862 0.63292 0.0
H575 H 0.10043 0.78439 0.69534 0.0
H576 H 0.09031 0.76444 0.74001 0.0
H577 H 0.07747 0.84937 0.76826 0.0
H578 H 0.08795 0.86995 0.72384 0.0
H579 H 0.01824 0.86735 0.57549 0.0
H580 H 0.04022 0.84258 0.61143 0.0
H581 H 0.09006 0.92525 0.63738 0.0
H582 H 0.06809 0.95028 0.60198 0.0
H583 H 0.06253 0.85702 0.67501 0.0
H584 H 0.15099 0.9112 0.61671 0.0
H585 H 0.15967 0.93284 0.57231 0.0
H586 H 0.09645 0.86597 0.53599 0.0
H587 H 0.08774 0.84377 0.58013 0.0
C588 C 0.18326 0.82501 0.71815 0.0
C589 C 0.19061 0.79919 0.70742 0.0
C590 C 0.1625 0.83797 0.70528 0.0
C591 C 0.14917 0.82547 0.68136 0.0
C592 C 0.15714 0.80021 0.67022 0.0
C593 C 0.17759 0.78707 0.68328 0.0
C594 C 0.12716 0.83894 0.66764 0.0
C595 C 0.13213 0.85025 0.64211 0.0
C596 C 0.10176 0.84115 0.67969 0.0
C597 C 0.09525 0.82878 0.70634 0.0
C598 C 0.09569 0.79888 0.71114 0.0
C599 C 0.08984 0.78744 0.7364 0.0
C600 C 0.08332 0.80564 0.75698 0.0
C601 C 0.08256 0.83531 0.75231 0.0
C602 C 0.08843 0.84686 0.72709 0.0
C603 C 0.03298 0.88047 0.58955 0.0
C604 C 0.04216 0.91055 0.58536 0.0
C605 C 0.04537 0.8663 0.61018 0.0
C606 C 0.06694 0.88213 0.62668 0.0
C607 C 0.07344 0.91275 0.62474 0.0
C608 C 0.06105 0.92692 0.60428 0.0
C609 C 0.08719 0.86649 0.64051 0.0
C610 C 0.08201 0.85509 0.66594 0.0
C611 C 0.1124 0.86391 0.62842 0.0
C612 C 0.11868 0.87597 0.60164 0.0
C613 C 0.13917 0.901 0.59918 0.0
C614 C 0.14404 0.91338 0.5741 0.0
C615 C 0.12858 0.90081 0.55135 0.0
C616 C 0.10837 0.8757 0.55362 0.0
C617 C 0.10348 0.86321 0.57865 0.0
H618 H 0.13228 0.91051 0.53197 0.0
H619 H 0.07879 0.79675 0.77653 0.0
H620 H 0.22629 0.15009 0.73306 0.0
H621 H 0.20864 0.10927 0.70145 0.0
H622 H 0.12646 0.13231 0.70279 0.0
H623 H 0.14439 0.174 0.73327 0.0
H624 H 0.12867 0.0681 0.69781 0.0
H625 H 0.16123 0.16407 0.66193 0.0
H626 H 0.19193 0.20907 0.64878 0.0
H627 H 0.24595 0.15686 0.61229 0.0
H628 H 0.21622 0.11151 0.62637 0.0
H629 H 0.07376 0.09373 0.56163 0.0
H630 H 0.10945 0.10595 0.59713 0.0
H631 H 0.11279 0.01375 0.60721 0.0
H632 H 0.07609 0.00118 0.57196 0.0
H633 H 0.16058 0.0989 0.60801 0.0
H634 H 0.12395 0.00475 0.6738 0.0
H635 H 0.08411 0.96423 0.67719 0.0
H636 H 0.02819 0.02013 0.64721 0.0
H637 H 0.06771 0.06098 0.64382 0.0
C638 C 0.20422 0.14559 0.72745 0.0
C639 C 0.18653 0.16485 0.7356 0.0
C640 C 0.19424 0.12242 0.70936 0.0
C641 C 0.16632 0.11792 0.69985 0.0
C642 C 0.14803 0.13535 0.71014 0.0
C643 C 0.1582 0.15908 0.72752 0.0
C644 C 0.15715 0.09895 0.676 0.0
C645 C 0.13605 0.07442 0.67821 0.0
C646 C 0.16675 0.10722 0.65043 0.0
C647 C 0.18691 0.13437 0.64591 0.0
C648 C 0.18021 0.16216 0.65204 0.0
C649 C 0.1973 0.18776 0.64418 0.0
C650 C 0.22082 0.18582 0.62965 0.0
C651 C 0.22775 0.15833 0.62361 0.0
C652 C 0.21095 0.13269 0.63177 0.0
C653 C 0.08236 0.07599 0.57098 0.0
C654 C 0.07169 0.04647 0.5643 0.0
C655 C 0.10293 0.08302 0.59124 0.0
C656 C 0.11344 0.06073 0.60514 0.0
C657 C 0.10462 0.03126 0.59701 0.0
C658 C 0.08377 0.02415 0.57674 0.0
C659 C 0.13129 0.06907 0.62964 0.0
C660 C 0.15423 0.09155 0.6277 0.0
C661 C 0.12276 0.05954 0.65523 0.0
C662 C 0.09873 0.03576 0.65847 0.0
C663 C 0.10311 0.0084 0.66814 0.0
C664 C 0.08062 0.98538 0.66998 0.0
C665 C 0.05365 0.98958 0.66235 0.0
C666 C 0.04909 0.01689 0.65307 0.0
C667 C 0.07151 0.03998 0.65121 0.0
H668 H 0.03629 0.97169 0.66366 0.0
H669 H 0.23367 0.20564 0.62303 0.0
H670 H 0.80233 0.17405 0.73155 0.0
H671 H 0.81767 0.13768 0.70174 0.0
H672 H 0.87313 0.20716 0.66507 0.0
H673 H 0.85779 0.24341 0.69438 0.0
H674 H 0.83699 0.17463 0.62881 0.0
H675 H 0.8973 0.15743 0.70469 0.0
H676 H 0.90766 0.14333 0.75094 0.0
H677 H 0.85781 0.05812 0.73596 0.0
H678 H 0.8468 0.07189 0.68972 0.0
H679 H 0.9359 0.11914 0.55575 0.0
H680 H 0.90918 0.14173 0.58795 0.0
H681 H 0.85975 0.05703 0.60198 0.0
H682 H 0.88642 0.03412 0.56943 0.0
H683 H 0.88251 0.08856 0.64924 0.0
H684 H 0.82778 0.10341 0.57158 0.0
H685 H 0.81857 0.11696 0.52495 0.0
H686 H 0.8579 0.206 0.54302 0.0
H687 H 0.86774 0.19291 0.58969 0.0
C688 C 0.81838 0.1814 0.71764 0.0
C689 C 0.8287 0.21157 0.71507 0.0
C690 C 0.82702 0.16064 0.70059 0.0
C691 C 0.84626 0.16984 0.68103 0.0
C692 C 0.85801 0.19969 0.67984 0.0
C693 C 0.8493 0.22036 0.69666 0.0
C694 C 0.85256 0.14923 0.66009 0.0
C695 C 0.84707 0.15588 0.63328 0.0
C696 C 0.86444 0.12399 0.666 0.0
C697 C 0.87086 0.11586 0.69388 0.0
C698 C 0.88827 0.13582 0.71136 0.0
C699 C 0.89433 0.12786 0.73755 0.0
C700 C 0.8833 0.0999 0.74643 0.0
C701 C 0.86626 0.07981 0.72909 0.0
C702 C 0.8601 0.08768 0.70289 0.0
C703 C 0.91908 0.10537 0.56538 0.0
C704 C 0.9132 0.07491 0.56009 0.0
C705 C 0.9038 0.1183 0.5837 0.0
C706 C 0.88248 0.10101 0.59721 0.0
C707 C 0.8761 0.07067 0.59164 0.0
C708 C 0.89119 0.05771 0.57295 0.0
C709 C 0.86817 0.11494 0.6181 0.0
C710 C 0.87192 0.10696 0.64482 0.0
C711 C 0.85464 0.139 0.61218 0.0
C712 C 0.84861 0.14711 0.58414 0.0
C713 C 0.83464 0.12584 0.56558 0.0
C714 C 0.82928 0.13345 0.53914 0.0
C715 C 0.83767 0.16232 0.53102 0.0
C716 C 0.8514 0.18365 0.54935 0.0
C717 C 0.85683 0.17616 0.57582 0.0
H718 H 0.83352 0.16816 0.51053 0.0
H719 H 0.88805 0.09377 0.7667 0.0
H720 H 0.80778 0.78752 0.67605 0.0
H721 H 0.84812 0.81804 0.65829 0.0
H722 H 0.87429 0.85292 0.73759 0.0
H723 H 0.83353 0.82189 0.75589 0.0
H724 H 0.87432 0.89611 0.69855 0.0
H725 H 0.9138 0.81088 0.71152 0.0
H726 H 0.9155 0.75776 0.71147 0.0
H727 H 0.90523 0.75381 0.62567 0.0
H728 H 0.90301 0.80681 0.62519 0.0
H729 H 0.98893 0.93279 0.59158 0.0
H730 H 0.97379 0.90563 0.63178 0.0
H731 H 0.88888 0.91588 0.61231 0.0
H732 H 0.90353 0.94247 0.57249 0.0
H733 H 0.9355 0.85407 0.63689 0.0
H734 H 0.85757 0.93149 0.66648 0.0
H735 H 0.85552 0.98454 0.66623 0.0
H736 H 0.94493 0.00471 0.66921 0.0
H737 H 0.94758 0.95181 0.66992 0.0
C738 C 0.82203 0.80159 0.68987 0.0
C739 C 0.81734 0.80235 0.71742 0.0
C740 C 0.84528 0.81884 0.67967 0.0
C741 C 0.86441 0.83735 0.69668 0.0
C742 C 0.85985 0.83849 0.72421 0.0
C743 C 0.83659 0.82084 0.73458 0.0
C744 C 0.88792 0.85664 0.68474 0.0
C745 C 0.88816 0.88708 0.68549 0.0
C746 C 0.9065 0.8448 0.66834 0.0
C747 C 0.90824 0.81291 0.66835 0.0
C748 C 0.91178 0.79868 0.69264 0.0
C749 C 0.91284 0.76857 0.6927 0.0
C750 C 0.91048 0.75242 0.66858 0.0
C751 C 0.90711 0.76637 0.64434 0.0
C752 C 0.90602 0.79648 0.64416 0.0
C753 C 0.96704 0.92901 0.59579 0.0
C754 C 0.94748 0.93982 0.57878 0.0
C755 C 0.95847 0.91368 0.61883 0.0
C756 C 0.93032 0.90936 0.62529 0.0
C757 C 0.91081 0.91961 0.60805 0.0
C758 C 0.91925 0.93468 0.58513 0.0
C759 C 0.92035 0.89318 0.64932 0.0
C760 C 0.92257 0.86332 0.65076 0.0
C761 C 0.90423 0.90561 0.66793 0.0
C762 C 0.90276 0.93758 0.66825 0.0
C763 C 0.87682 0.94721 0.66737 0.0
C764 C 0.87554 0.97728 0.66707 0.0
C765 C 0.90007 0.99798 0.66769 0.0
C766 C 0.92594 0.98866 0.66869 0.0
C767 C 0.92734 0.95862 0.66902 0.0
H768 H 0.89902 0.02125 0.6674 0.0
H769 H 0.91126 0.7291 0.66868 0.0
H770 H 0.24763 0.2054 0.13408 0.0
H771 H 0.27068 0.18556 0.09712 0.0
H772 H 0.29619 0.12043 0.14945 0.0
H773 H 0.27237 0.13929 0.18599 0.0
H774 H 0.32269 0.18738 0.09335 0.0
H775 H 0.31014 0.06205 0.11734 0.0
H776 H 0.27364 0.02257 0.13204 0.0
H777 H 0.21028 0.0698 0.10239 0.0
H778 H 0.24637 0.10937 0.08717 0.0
H779 H 0.4385 0.12715 0.05456 0.0
H780 H 0.40025 0.14419 0.07687 0.0
H781 H 0.3407 0.08829 0.02411 0.0
H782 H 0.37878 0.07041 0.0024 0.0
H783 H 0.32414 0.08235 0.07159 0.0
H784 H 0.35346 0.16464 0.01857 0.0
H785 H 0.38633 0.20419 -0.00121 0.0
H786 H 0.40858 0.24345 0.07688 0.0
H787 H 0.37613 0.20389 0.0972 0.0
C788 C 0.25748 0.18631 0.13749 0.0
C789 C 0.25825 0.17401 0.16304 0.0
C790 C 0.27078 0.17509 0.11636 0.0
C791 C 0.28521 0.15148 0.1204 0.0
C792 C 0.28477 0.13827 0.14556 0.0
C793 C 0.27117 0.14918 0.16655 0.0
C794 C 0.30314 0.14256 0.09947 0.0
C795 C 0.32278 0.16441 0.08838 0.0
C796 C 0.30288 0.11268 0.09235 0.0
C797 C 0.28102 0.08879 0.10126 0.0
C798 C 0.28843 0.06395 0.11381 0.0
C799 C 0.2678 0.04157 0.12227 0.0
C800 C 0.23966 0.04371 0.11821 0.0
C801 C 0.23208 0.06821 0.10561 0.0
C802 C 0.25262 0.09065 0.0971 0.0
C803 C 0.41727 0.11871 0.04756 0.0
C804 C 0.41167 0.09735 0.02681 0.0
C805 C 0.39539 0.12856 0.06024 0.0
C806 C 0.36753 0.11775 0.052 0.0
C807 C 0.36197 0.09688 0.03089 0.0
C808 C 0.38379 0.08672 0.01849 0.0
C809 C 0.34425 0.1271 0.06632 0.0
C810 C 0.32369 0.10533 0.07619 0.0
C811 C 0.34305 0.1571 0.07154 0.0
C812 C 0.36246 0.18115 0.05943 0.0
C813 C 0.36549 0.1816 0.03156 0.0
C814 C 0.38404 0.20403 0.02024 0.0
C815 C 0.39958 0.22628 0.03657 0.0
C816 C 0.39653 0.22619 0.06425 0.0
C817 C 0.37803 0.20378 0.07568 0.0
H818 H 0.41394 0.24362 0.02777 0.0
H819 H 0.22372 0.02636 0.12478 0.0
H820 H 0.81158 0.34873 0.22516 0.0
H821 H 0.84477 0.38714 0.20576 0.0
H822 H 0.89101 0.32196 0.17685 0.0
H823 H 0.85787 0.28302 0.19655 0.0
H824 H 0.92519 0.37456 0.19707 0.0
H825 H 0.84651 0.34414 0.13529 0.0
H826 H 0.79652 0.33315 0.12168 0.0
H827 H 0.78807 0.42226 0.14082 0.0
H828 H 0.83796 0.43366 0.15493 0.0
H829 H 0.98097 0.44103 0.07877 0.0
H830 H 0.96292 0.41288 0.1169 0.0
H831 H 0.91708 0.48164 0.13798 0.0
H832 H 0.93578 0.51019 0.09997 0.0
H833 H 0.88401 0.43033 0.1262 0.0
H834 H 0.96569 0.46262 0.18063 0.0
H835 H 0.01553 0.47287 0.19464 0.0
H836 H 0.01946 0.38066 0.18953 0.0
H837 H 0.96988 0.36985 0.17458 0.0
C838 C 0.82886 0.34243 0.21483 0.0
C839 C 0.83184 0.31272 0.21202 0.0
C840 C 0.84787 0.36448 0.20387 0.0
C841 C 0.87009 0.35728 0.18969 0.0
C842 C 0.87393 0.32785 0.18779 0.0
C843 C 0.8549 0.30567 0.19887 0.0
C844 C 0.8877 0.38028 0.17496 0.0
C845 C 0.91643 0.38666 0.18135 0.0
C846 C 0.87586 0.39643 0.15505 0.0
C847 C 0.84588 0.38965 0.14646 0.0
C848 C 0.83393 0.36132 0.13681 0.0
C849 C 0.80563 0.35503 0.12897 0.0
C850 C 0.78911 0.37697 0.13047 0.0
C851 C 0.80088 0.40527 0.13973 0.0
C852 C 0.82917 0.41166 0.14764 0.0
C853 C 0.96848 0.45092 0.09243 0.0
C854 C 0.9602 0.47794 0.08674 0.0
C855 C 0.95793 0.4347 0.11414 0.0
C856 C 0.93876 0.44524 0.13033 0.0
C857 C 0.93197 0.47322 0.12577 0.0
C858 C 0.94257 0.48943 0.10407 0.0
C859 C 0.92184 0.42486 0.14811 0.0
C860 C 0.89302 0.4187 0.14214 0.0
C861 C 0.93379 0.40891 0.16819 0.0
C862 C 0.96398 0.41544 0.17623 0.0
C863 C 0.97723 0.44453 0.18205 0.0
C864 C 0.00546 0.45044 0.19024 0.0
C865 C 0.02062 0.42743 0.19302 0.0
C866 C 0.00765 0.39846 0.18745 0.0
C867 C 0.9795 0.39244 0.17901 0.0
H868 H 0.04243 0.43202 0.19946 0.0
H869 H 0.7672 0.37205 0.12438 0.0
H870 H 0.70123 0.87283 0.22492 0.0
H871 H 0.66727 0.89836 0.20224 0.0
H872 H 0.63949 0.82192 0.15102 0.0
H873 H 0.67397 0.79644 0.17316 0.0
H874 H 0.64667 0.8692 0.1225 0.0
H875 H 0.60035 0.84168 0.20325 0.0
H876 H 0.59534 0.8379 0.25202 0.0
H877 H 0.60857 0.93211 0.26028 0.0
H878 H 0.61407 0.93648 0.21158 0.0
H879 H 0.52745 0.91106 0.06654 0.0
H880 H 0.54805 0.88777 0.10406 0.0
H881 H 0.60324 0.96912 0.12411 0.0
H882 H 0.58323 0.99263 0.08624 0.0
H883 H 0.57925 0.91909 0.16981 0.0
H884 H 0.6369 0.9439 0.0902 0.0
H885 H 0.63893 0.94755 0.04106 0.0
H886 H 0.6013 0.85662 0.03161 0.0
H887 H 0.59864 0.85265 0.08073 0.0
C888 C 0.68785 0.86138 0.20888 0.0
C889 C 0.69034 0.83259 0.20081 0.0
C890 C 0.66828 0.87595 0.19607 0.0
C891 C 0.65052 0.8619 0.17522 0.0
C892 C 0.65293 0.83315 0.16713 0.0
C893 C 0.67268 0.81864 0.17977 0.0
C894 C 0.63048 0.87773 0.16088 0.0
C895 C 0.63178 0.87973 0.13296 0.0
C896 C 0.61124 0.89197 0.17446 0.0
C897 C 0.60788 0.8894 0.20377 0.0
C898 C 0.60242 0.8616 0.21548 0.0
C899 C 0.59945 0.85936 0.24312 0.0
C900 C 0.6017 0.88475 0.25925 0.0
C901 C 0.60686 0.91246 0.24776 0.0
C902 C 0.60988 0.91483 0.22014 0.0
C903 C 0.54324 0.92439 0.07946 0.0
C904 C 0.55436 0.95342 0.07292 0.0
C905 C 0.55484 0.91104 0.10102 0.0
C906 C 0.57728 0.92673 0.11652 0.0
C907 C 0.58585 0.95678 0.11231 0.0
C908 C 0.57453 0.97008 0.09051 0.0
C909 C 0.59584 0.91036 0.13189 0.0
C910 C 0.59422 0.90835 0.15971 0.0
C911 C 0.61484 0.89603 0.11839 0.0
C912 C 0.61741 0.89803 0.08902 0.0
C913 C 0.62898 0.92474 0.0776 0.0
C914 C 0.63023 0.92688 0.04978 0.0
C915 C 0.62022 0.90234 0.03322 0.0
C916 C 0.60903 0.87561 0.04447 0.0
C917 C 0.60765 0.8734 0.07228 0.0
H918 H 0.62117 0.90403 0.01169 0.0
H919 H 0.59938 0.88297 0.28064 0.0
H920 H 0.17875 0.73668 0.17652 0.0
H921 H 0.15538 0.70603 0.13922 0.0
H922 H 0.23517 0.69719 0.10861 0.0
H923 H 0.25868 0.72729 0.14617 0.0
H924 H 0.15209 0.70525 0.08655 0.0
H925 H 0.23223 0.62634 0.08621 0.0
H926 H 0.26796 0.61026 0.11637 0.0
H927 H 0.22388 0.63121 0.18476 0.0
H928 H 0.18775 0.64706 0.15502 0.0
H929 H 0.08986 0.60069 0.9933 0.0
H930 H 0.13147 0.6317 0.0136 0.0
H931 H 0.12247 0.58078 0.08542 0.0
H932 H 0.08189 0.5488 0.06449 0.0
H933 H 0.17502 0.60438 0.08187 0.0
H934 H 0.08638 0.63964 0.07475 0.0
H935 H 0.04556 0.65195 0.04921 0.0
H936 H 0.09937 0.71473 0.00428 0.0
H937 H 0.14052 0.70254 0.02942 0.0
C938 C 0.19132 0.72881 0.16151 0.0
C939 C 0.22054 0.73401 0.1645 0.0
C940 C 0.17794 0.71125 0.1402 0.0
C941 C 0.19355 0.69879 0.12148 0.0
C942 C 0.22273 0.70604 0.12317 0.0
C943 C 0.23611 0.72333 0.1446 0.0
C944 C 0.17927 0.67637 0.10171 0.0
C945 C 0.15736 0.68333 0.08528 0.0
C946 C 0.18587 0.64759 0.1003 0.0
C947 C 0.20749 0.63817 0.11838 0.0
C948 C 0.23017 0.62747 0.10768 0.0
C949 C 0.25048 0.6184 0.1247 0.0
C950 C 0.24818 0.61973 0.15245 0.0
C951 C 0.22565 0.63024 0.16326 0.0
C952 C 0.20527 0.6393 0.14634 0.0
C953 C 0.0976 0.59544 0.01296 0.0
C954 C 0.0826 0.57282 0.02759 0.0
C955 C 0.12123 0.6132 0.0246 0.0
C956 C 0.12941 0.60925 0.0514 0.0
C957 C 0.11638 0.58445 0.06482 0.0
C958 C 0.09318 0.56615 0.05286 0.0
C959 C 0.14774 0.63322 0.06688 0.0
C960 C 0.17032 0.62656 0.08257 0.0
C961 C 0.1412 0.66203 0.06832 0.0
C962 C 0.11648 0.67004 0.05379 0.0
C963 C 0.08947 0.65606 0.05941 0.0
C964 C 0.0663 0.66299 0.045 0.0
C965 C 0.06988 0.68411 0.02513 0.0
C966 C 0.09664 0.69839 0.01969 0.0
C967 C 0.11989 0.6915 0.03402 0.0
H968 H 0.05192 0.68941 0.01396 0.0
H969 H 0.26378 0.61246 0.16558 0.0
H970 H 0.2572 0.85684 0.81364 0.0
H971 H 0.2796 0.89552 0.84514 0.0
H972 H 0.30118 0.82967 0.89883 0.0
H973 H 0.27826 0.79091 0.86781 0.0
H974 H 0.29585 0.87951 0.92631 0.0
H975 H 0.34231 0.85195 0.84778 0.0
H976 H 0.34809 0.8451 0.79937 0.0
H977 H 0.34593 0.93669 0.78729 0.0
H978 H 0.33971 0.94397 0.83559 0.0
H979 H 0.43692 0.91204 0.9687 0.0
H980 H 0.38994 0.89412 0.94999 0.0
H981 H 0.38768 0.97834 0.91435 0.0
H982 H 0.43483 0.99652 0.93298 0.0
H983 H 0.3765 0.93121 0.87853 0.0
H984 H 0.3446 0.95846 0.96212 0.0
H985 H 0.34452 0.962 0.01137 0.0
H986 H 0.32405 0.86793 0.01515 0.0
H987 H 0.3245 0.86374 0.96594 0.0
C988 C 0.26584 0.85059 0.8326 0.0
C989 C 0.26672 0.82091 0.83797 0.0
C990 C 0.27857 0.87272 0.85058 0.0
C991 C 0.29273 0.86539 0.87386 0.0
C992 C 0.29053 0.83576 0.88083 0.0
C993 C 0.27749 0.8136 0.86301 0.0
C994 C 0.31405 0.88755 0.88802 0.0
C995 C 0.31341 0.89104 0.91593 0.0
C996 C 0.33676 0.90286 0.8743 0.0
C997 C 0.34005 0.89839 0.84519 0.0
C998 C 0.34275 0.87055 0.83474 0.0
C999 C 0.34615 0.8666 0.80734 0.0
C1000 C 0.3472 0.89041 0.79025 0.0
C1001 C 0.34491 0.91823 0.80053 0.0
C1002 C 0.34145 0.92228 0.8279 0.0
C1003 C 0.42636 0.92684 0.95707 0.0
C1004 C 0.43961 0.95558 0.95208 0.0
C1005 C 0.3994 0.91669 0.94669 0.0
C1006 C 0.38531 0.93507 0.9311 0.0
C1007 C 0.3982 0.96399 0.92658 0.0
C1008 C 0.4251 0.97427 0.93718 0.0
C1009 C 0.35869 0.92262 0.9169 0.0
C1010 C 0.35845 0.92074 0.8889 0.0
C1011 C 0.33558 0.90841 0.93063 0.0
C1012 C 0.33467 0.91079 0.96026 0.0
C1013 C 0.34022 0.9385 0.97344 0.0
C1014 C 0.34011 0.94063 0.00137 0.0
C1015 C 0.33431 0.91521 0.01638 0.0
C1016 C 0.32852 0.88761 0.00349 0.0
C1017 C 0.32865 0.88534 0.97556 0.0
H1018 H 0.33428 0.9169 0.03801 0.0
H1019 H 0.35 0.88737 0.76908 0.0
H1020 H 0.16091 0.23324 0.84682 0.0
H1021 H 0.13515 0.25019 0.88355 0.0
H1022 H 0.20708 0.31478 0.9076 0.0
H1023 H 0.23264 0.29792 0.87102 0.0
H1024 H 0.17431 0.29648 0.95087 0.0
H1025 H 0.16558 0.33288 0.86123 0.0
H1026 H 0.15594 0.32722 0.81241 0.0
H1027 H 0.07247 0.28407 0.82525 0.0
H1028 H 0.08182 0.28902 0.87421 0.0
H1029 H 0.12039 0.42681 0.9861 0.0
H1030 H 0.14493 0.39038 0.96562 0.0
H1031 H 0.06674 0.33182 0.95068 0.0
H1032 H 0.04213 0.36773 0.97121 0.0
H1033 H 0.09952 0.34143 0.90571 0.0
H1034 H 0.10817 0.31426 -0.00255 0.0
H1035 H 0.12016 0.32293 0.04567 0.0
H1036 H 0.20582 0.3526 0.02854 0.0
H1037 H 0.19428 0.34452 0.98016 0.0
C1038 C 0.17157 0.24995 0.86087 0.0
C1039 C 0.19863 0.26431 0.85636 0.0
C1040 C 0.15685 0.25975 0.8817 0.0
C1041 C 0.16912 0.28405 0.89797 0.0
C1042 C 0.19727 0.296 0.89532 0.0
C1043 C 0.21185 0.28637 0.87445 0.0
C1044 C 0.15166 0.30081 0.91362 0.0
C1045 C 0.15789 0.30625 0.9411 0.0
C1046 C 0.13032 0.31363 0.90075 0.0
C1047 C 0.1245 0.31097 0.87135 0.0
C1048 C 0.14524 0.32198 0.85363 0.0
C1049 C 0.13983 0.31893 0.82595 0.0
C1050 C 0.11363 0.30522 0.81573 0.0
C1051 C 0.09277 0.29462 0.83319 0.0
C1052 C 0.09811 0.29752 0.86092 0.0
C1053 C 0.10846 0.40614 0.97853 0.0
C1054 C 0.07932 0.40021 0.98026 0.0
C1055 C 0.1225 0.3853 0.96702 0.0
C1056 C 0.1076 0.35837 0.95686 0.0
C1057 C 0.07858 0.35242 0.95854 0.0
C1058 C 0.06459 0.37301 0.9703 0.0
C1059 C 0.12205 0.33707 0.94305 0.0
C1060 C 0.11544 0.33109 0.91574 0.0
C1061 C 0.14325 0.32421 0.95605 0.0
C1062 C 0.15031 0.32902 0.98514 0.0
C1063 C 0.12953 0.32288 0.00394 0.0
C1064 C 0.13625 0.32764 0.03131 0.0
C1065 C 0.16372 0.33837 0.04016 0.0
C1066 C 0.18454 0.34431 0.02165 0.0
C1067 C 0.17793 0.33961 0.99425 0.0
H1068 H 0.16888 0.34204 0.06136 0.0
H1069 H 0.10947 0.30289 0.79428 0.0
H1070 H 0.72411 0.19349 0.81354 0.0
H1071 H 0.68741 0.16261 0.83666 0.0
H1072 H 0.6249 0.19525 0.78753 0.0
H1073 H 0.66172 0.22687 0.76428 0.0
H1074 H 0.64428 0.1862 0.86494 0.0
H1075 H 0.57194 0.12813 0.78059 0.0
H1076 H 0.57323 0.1142 0.7328 0.0
H1077 H 0.65956 0.10634 0.74382 0.0
H1078 H 0.65865 0.11976 0.7917 0.0
H1079 H 0.53446 0.0978 0.92872 0.0
H1080 H 0.55145 0.1284 0.89122 0.0
H1081 H 0.6095 0.07002 0.87463 0.0
H1082 H 0.59286 0.03967 0.91222 0.0
H1083 H 0.58418 0.09605 0.82682 0.0
H1084 H 0.63424 0.11961 0.91454 0.0
H1085 H 0.63411 0.13149 0.96286 0.0
H1086 H 0.5959 0.20689 0.94535 0.0
H1087 H 0.59539 0.19508 0.89692 0.0
C1088 C 0.7026 0.19398 0.8074 0.0
C1089 C 0.69577 0.21276 0.78723 0.0
C1090 C 0.6817 0.17645 0.82074 0.0
C1091 C 0.65362 0.17697 0.81387 0.0
C1092 C 0.64656 0.19477 0.79308 0.0
C1093 C 0.66755 0.21275 0.7799 0.0
C1094 C 0.63206 0.15932 0.82934 0.0
C1095 C 0.63077 0.1668 0.85649 0.0
C1096 C 0.61458 0.13406 0.81822 0.0
C1097 C 0.61529 0.12533 0.78962 0.0
C1098 C 0.59116 0.12333 0.77281 0.0
C1099 C 0.59182 0.1155 0.74572 0.0
C1100 C 0.61647 0.10945 0.73527 0.0
C1101 C 0.64049 0.11109 0.75192 0.0
C1102 C 0.63993 0.11887 0.77902 0.0
C1103 C 0.55027 0.09112 0.9166 0.0
C1104 C 0.56261 0.06669 0.92345 0.0
C1105 C 0.55985 0.10849 0.89518 0.0
C1106 C 0.58159 0.10128 0.88022 0.0
C1107 C 0.59249 0.07567 0.88583 0.0
C1108 C 0.58327 0.05865 0.90749 0.0
C1109 C 0.59669 0.12286 0.86238 0.0
C1110 C 0.59692 0.11608 0.83494 0.0
C1111 C 0.61346 0.14871 0.87321 0.0
C1112 C 0.61452 0.15632 0.9022 0.0
C1113 C 0.62568 0.13862 0.92103 0.0
C1114 C 0.62572 0.14533 0.94842 0.0
C1115 C 0.61494 0.16989 0.95717 0.0
C1116 C 0.6042 0.18784 0.93854 0.0
C1117 C 0.60403 0.18116 0.91113 0.0
H1118 H 0.61497 0.17504 0.97839 0.0
H1119 H 0.61698 0.10352 0.71428 0.0
H1120 H 0.77951 0.63509 0.79883 0.0
H1121 H 0.81528 0.61011 0.81919 0.0
H1122 H 0.87336 0.69201 0.82265 0.0
H1123 H 0.83722 0.71737 0.80336 0.0
H1124 H 0.8636 0.59995 0.80522 0.0
H1125 H 0.91784 0.69456 0.87606 0.0
H1126 H 0.90683 0.7379 0.90035 0.0
H1127 H 0.82103 0.69681 0.90224 0.0
H1128 H 0.83161 0.65311 0.87826 0.0
H1129 H 0.98368 0.59678 0.91557 0.0
H1130 H 0.96102 0.61749 0.8778 0.0
H1131 H 0.88902 0.54952 0.88277 0.0
H1132 H 0.91142 0.52871 0.92085 0.0
H1133 H 0.91142 0.63692 0.89168 0.0
H1134 H 0.85465 0.54512 0.81787 0.0
H1135 H 0.86371 0.49989 0.79541 0.0
H1136 H 0.95183 0.53145 0.80311 0.0
H1137 H 0.94333 0.57707 0.82521 0.0
C1138 C 0.79986 0.64781 0.80413 0.0
C1139 C 0.80549 0.67825 0.79988 0.0
C1140 C 0.82034 0.63347 0.81556 0.0
C1141 C 0.84694 0.6492 0.82268 0.0
C1142 C 0.85281 0.67951 0.81784 0.0
C1143 C 0.83215 0.694 0.80688 0.0
C1144 C 0.8681 0.63397 0.83599 0.0
C1145 C 0.87393 0.60788 0.82423 0.0
C1146 C 0.88206 0.64469 0.86047 0.0
C1147 C 0.87548 0.67076 0.87507 0.0
C1148 C 0.89665 0.69478 0.88172 0.0
C1149 C 0.89048 0.71939 0.89542 0.0
C1150 C 0.86323 0.72016 0.90274 0.0
C1151 C 0.84211 0.69625 0.89646 0.0
C1152 C 0.84817 0.67157 0.88279 0.0
C1153 C 0.96338 0.58564 0.90818 0.0
C1154 C 0.94902 0.56161 0.92175 0.0
C1155 C 0.95052 0.59748 0.88648 0.0
C1156 C 0.92328 0.58521 0.87775 0.0
C1157 C 0.91013 0.55922 0.8892 0.0
C1158 C 0.92293 0.54745 0.91108 0.0
C1159 C 0.90661 0.60268 0.86116 0.0
C1160 C 0.90148 0.6292 0.87243 0.0
C1161 C 0.89296 0.59195 0.83661 0.0
C1162 C 0.89832 0.56445 0.82347 0.0
C1163 C 0.87597 0.54247 0.81473 0.0
C1164 C 0.88101 0.51674 0.80205 0.0
C1165 C 0.90833 0.51275 0.79791 0.0
C1166 C 0.93068 0.5345 0.80643 0.0
C1167 C 0.92575 0.56028 0.8191 0.0
H1168 H 0.91218 0.49286 0.78803 0.0
H1169 H 0.85849 0.73924 0.91333 0.0
H1170 H 0.14148 0.28204 0.22555 0.0
H1171 H 0.11456 0.31908 0.20971 0.0
H1172 H 0.1824 0.35669 0.16158 0.0
H1173 H 0.20952 0.31954 0.1771 0.0
H1174 H 0.1568 0.39882 0.19353 0.0
H1175 H 0.13304 0.31605 0.13015 0.0
H1176 H 0.11645 0.26384 0.11787 0.0
H1177 H 0.03919 0.26731 0.15516 0.0
H1178 H 0.05551 0.31949 0.16795 0.0
H1179 H 0.10322 0.47408 0.08771 0.0
H1180 H 0.12497 0.44936 0.12322 0.0
H1181 H 0.0441 0.40483 0.14488 0.0
H1182 H 0.02218 0.42894 0.10887 0.0
H1183 H 0.07271 0.36675 0.13406 0.0
H1184 H 0.09218 0.452 0.1901 0.0
H1185 H 0.10784 0.50423 0.20272 0.0
H1186 H 0.19114 0.49753 0.18167 0.0
H1187 H 0.17592 0.44535 0.16855 0.0
C1188 C 0.15068 0.29809 0.2115 0.0
C1189 C 0.17757 0.2977 0.20238 0.0
C1190 C 0.13531 0.3193 0.20261 0.0
C1191 C 0.14663 0.34059 0.18465 0.0
C1192 C 0.17348 0.34048 0.17563 0.0
C1193 C 0.18878 0.31905 0.18427 0.0
C1194 C 0.12986 0.36206 0.17414 0.0
C1195 C 0.13845 0.39206 0.18041 0.0
C1196 C 0.10541 0.35286 0.15796 0.0
C1197 C 0.09563 0.32151 0.15031 0.0
C1198 C 0.11263 0.30559 0.13596 0.0
C1199 C 0.10325 0.27603 0.12885 0.0
C1200 C 0.07682 0.26223 0.13582 0.0
C1201 C 0.05968 0.278 0.14984 0.0
C1202 C 0.06898 0.30756 0.15701 0.0
C1203 C 0.0899 0.45998 0.10073 0.0
C1204 C 0.06101 0.45296 0.09508 0.0
C1205 C 0.10243 0.4459 0.12125 0.0
C1206 C 0.0862 0.42513 0.13686 0.0
C1207 C 0.05704 0.4208 0.1332 0.0
C1208 C 0.04452 0.4346 0.11251 0.0
C1209 C 0.09968 0.40416 0.15294 0.0
C1210 C 0.09059 0.37395 0.14768 0.0
C1211 C 0.12347 0.41331 0.17024 0.0
C1212 C 0.13283 0.44472 0.17821 0.0
C1213 C 0.1138 0.46168 0.18799 0.0
C1214 C 0.12261 0.49129 0.19526 0.0
C1215 C 0.15047 0.5042 0.19297 0.0
C1216 C 0.16957 0.4875 0.18345 0.0
C1217 C 0.16087 0.45788 0.17614 0.0
H1218 H 0.15725 0.52713 0.19859 0.0
H1219 H 0.06959 0.23934 0.13028 0.0
H1220 H 0.19464 0.67827 0.83934 0.0
H1221 H 0.15447 0.64831 0.85824 0.0
H1222 H 0.10831 0.64699 0.78246 0.0
H1223 H 0.14881 0.67662 0.76309 0.0
H1224 H 0.10329 0.65796 0.86574 0.0
H1225 H 0.06302 0.57895 0.77799 0.0
H1226 H 0.07924 0.55926 0.73636 0.0
H1227 H 0.16264 0.57011 0.77099 0.0
H1228 H 0.14682 0.58949 0.8129 0.0
H1229 H 0.0024 0.54055 0.92001 0.0
H1230 H 0.0148 0.57014 0.88047 0.0
H1231 H 0.09947 0.55479 0.89039 0.0
H1232 H 0.08756 0.52587 0.92966 0.0
H1233 H 0.06883 0.55613 0.83164 0.0
H1234 H 0.11352 0.63015 0.916 0.0
H1235 H 0.10301 0.64519 0.9616 0.0
H1236 H 0.0168 0.6402 0.9369 0.0
H1237 H 0.02694 0.62551 0.89105 0.0
C1238 C 0.17599 0.67167 0.82663 0.0
C1239 C 0.17499 0.67974 0.79969 0.0
C1240 C 0.15296 0.65467 0.83751 0.0
C1241 C 0.12841 0.64546 0.82175 0.0
C1242 C 0.12713 0.65372 0.7949 0.0
C1243 C 0.1503 0.67062 0.7839 0.0
C1244 C 0.10479 0.62643 0.83372 0.0
C1245 C 0.09522 0.63596 0.85788 0.0
C1246 C 0.09401 0.59781 0.82336 0.0
C1247 C 0.1038 0.58609 0.79837 0.0
C1248 C 0.08481 0.57711 0.77669 0.0
C1249 C 0.09393 0.56599 0.75306 0.0
C1250 C 0.12199 0.56357 0.75098 0.0
C1251 C 0.14095 0.57213 0.77257 0.0
C1252 C 0.13192 0.58321 0.79625 0.0
C1253 C 0.02354 0.54334 0.9136 0.0
C1254 C 0.04415 0.53179 0.92855 0.0
C1255 C 0.03049 0.55992 0.8909 0.0
C1256 C 0.05808 0.5648 0.88291 0.0
C1257 C 0.07804 0.55116 0.89636 0.0
C1258 C 0.07118 0.53477 0.91894 0.0
C1259 C 0.06796 0.58762 0.8637 0.0
C1260 C 0.07542 0.5788 0.83844 0.0
C1261 C 0.0771 0.61682 0.87309 0.0
C1262 C 0.07094 0.62656 0.90025 0.0
C1263 C 0.09236 0.63241 0.92031 0.0
C1264 C 0.08647 0.64082 0.94617 0.0
C1265 C 0.05922 0.64345 0.95217 0.0
C1266 C 0.03786 0.63796 0.93225 0.0
C1267 C 0.04366 0.62962 0.90633 0.0
H1268 H 0.05466 0.64978 0.97223 0.0
H1269 H 0.12903 0.555 0.73268 0.0
H1270 H 0.35398 0.25881 0.80073 0.0
H1271 H 0.39272 0.23494 0.81709 0.0
H1272 H 0.33769 0.15118 0.81525 0.0
H1273 H 0.29881 0.175 0.79983 0.0
H1274 H 0.3891 0.20091 0.86683 0.0
H1275 H 0.37899 0.10163 0.79255 0.0
H1276 H 0.37023 0.09037 0.74418 0.0
H1277 H 0.40109 0.18049 0.72654 0.0
H1278 H 0.40984 0.19232 0.77476 0.0
H1279 H 0.43243 0.05802 0.89993 0.0
H1280 H 0.41242 0.08592 0.86531 0.0
H1281 H 0.47584 0.16131 0.88462 0.0
H1282 H 0.49603 0.13371 0.91938 0.0
H1283 H 0.42682 0.12097 0.82061 0.0
H1284 H 0.44049 0.2187 0.89589 0.0
H1285 H 0.4485 0.22867 0.94454 0.0
H1286 H 0.40823 0.14083 0.96039 0.0
H1287 H 0.39962 0.13053 0.91189 0.0
C1288 C 0.35024 0.23532 0.80383 0.0
C1289 C 0.32335 0.21884 0.79952 0.0
C1290 C 0.37234 0.22173 0.81297 0.0
C1291 C 0.36802 0.19132 0.8171 0.0
C1292 C 0.34143 0.17465 0.81191 0.0
C1293 C 0.31921 0.18832 0.8034 0.0
C1294 C 0.39031 0.17723 0.82954 0.0
C1295 C 0.39796 0.18399 0.85654 0.0
C1296 C 0.40112 0.15462 0.81623 0.0
C1297 C 0.39491 0.14786 0.78728 0.0
C1298 C 0.38385 0.11904 0.77834 0.0
C1299 C 0.37888 0.11257 0.75095 0.0
C1300 C 0.38518 0.13468 0.7323 0.0
C1301 C 0.39624 0.16337 0.74101 0.0
C1302 C 0.40099 0.17002 0.76837 0.0
C1303 C 0.44272 0.08022 0.89629 0.0
C1304 C 0.46533 0.09391 0.91299 0.0
C1305 C 0.43128 0.0961 0.87638 0.0
C1306 C 0.44227 0.12584 0.87293 0.0
C1307 C 0.46683 0.13847 0.88733 0.0
C1308 C 0.47831 0.12262 0.90722 0.0
C1309 C 0.42551 0.14463 0.8579 0.0
C1310 C 0.41857 0.13847 0.83064 0.0
C1311 C 0.41504 0.16767 0.87103 0.0
C1312 C 0.41981 0.17375 0.90026 0.0
C1313 C 0.43332 0.20156 0.90977 0.0
C1314 C 0.43794 0.20726 0.93732 0.0
C1315 C 0.429 0.18535 0.95553 0.0
C1316 C 0.41527 0.15774 0.94626 0.0
C1317 C 0.41054 0.15195 0.91874 0.0
H1318 H 0.43263 0.1898 0.97683 0.0
H1319 H 0.38137 0.12963 0.7111 0.0
H1320 H 0.86151 0.30993 0.83793 0.0
H1321 H 0.87413 0.32719 0.88404 0.0
H1322 H 0.79335 0.28582 0.90866 0.0
H1323 H 0.78088 0.26782 0.86243 0.0
H1324 H 0.80848 0.35174 0.91242 0.0
H1325 H 0.83847 0.265 0.94251 0.0
H1326 H 0.86276 0.22229 0.94032 0.0
H1327 H 0.94154 0.28015 0.93889 0.0
H1328 H 0.91772 0.32322 0.94065 0.0
H1329 H 0.91887 0.41264 0.03045 0.0
H1330 H 0.87803 0.37803 0.01366 0.0
H1331 H 0.87859 0.4247 0.93945 0.0
H1332 H 0.91908 0.45969 0.95647 0.0
H1333 H 0.8893 0.34502 0.97416 0.0
H1334 H 0.81977 0.40484 0.90237 0.0
H1335 H 0.7945 0.44681 0.9037 0.0
H1336 H 0.79291 0.44241 0.98938 0.0
H1337 H 0.81769 0.40001 0.98857 0.0
C1338 C 0.84705 0.30329 0.85347 0.0
C1339 C 0.82043 0.28742 0.84694 0.0
C1340 C 0.85419 0.31317 0.87972 0.0
C1341 C 0.83454 0.30787 0.89955 0.0
C1342 C 0.80871 0.29 0.89352 0.0
C1343 C 0.80175 0.27955 0.86727 0.0
C1344 C 0.83945 0.32582 0.92448 0.0
C1345 C 0.82565 0.35008 0.9265 0.0
C1346 C 0.86168 0.32319 0.94273 0.0
C1347 C 0.87625 0.29738 0.94169 0.0
C1348 C 0.86096 0.26864 0.94155 0.0
C1349 C 0.87465 0.24435 0.94042 0.0
C1350 C 0.90367 0.2485 0.93946 0.0
C1351 C 0.91906 0.27696 0.93967 0.0
C1352 C 0.90547 0.30133 0.94079 0.0
C1353 C 0.90939 0.41629 0.01105 0.0
C1354 C 0.92233 0.43832 0.99443 0.0
C1355 C 0.88606 0.39652 0.0015 0.0
C1356 C 0.87553 0.39844 0.97516 0.0
C1357 C 0.88619 0.42286 0.95993 0.0
C1358 C 0.90942 0.44288 0.96963 0.0
C1359 C 0.85915 0.37199 0.96144 0.0
C1360 C 0.87114 0.34626 0.96118 0.0
C1361 C 0.83526 0.37337 0.94477 0.0
C1362 C 0.82072 0.39922 0.94541 0.0
C1363 C 0.81395 0.41271 0.92151 0.0
C1364 C 0.7997 0.4366 0.92216 0.0
C1365 C 0.79214 0.4473 0.94661 0.0
C1366 C 0.79883 0.43413 0.97046 0.0
C1367 C 0.81302 0.41018 0.96991 0.0
H1368 H 0.78109 0.46578 0.94707 0.0
H1369 H 0.91424 0.22967 0.93858 0.0
H1370 H 0.75801 0.81407 0.83974 0.0
H1371 H 0.74477 0.84977 0.87193 0.0
H1372 H 0.658 0.81427 0.855 0.0
H1373 H 0.6707 0.77883 0.8235 0.0
H1374 H 0.67188 0.87585 0.84917 0.0
H1375 H 0.68668 0.7985 0.91108 0.0
H1376 H 0.71537 0.76637 0.93407 0.0
H1377 H 0.77139 0.84226 0.96573 0.0
H1378 H 0.74319 0.87485 0.9426 0.0
H1379 H 0.57646 0.9001 0.94087 0.0
H1380 H 0.60983 0.87655 0.91736 0.0
H1381 H 0.67715 0.94268 0.94883 0.0
H1382 H 0.64364 0.96694 0.9725 0.0
H1383 H 0.68527 0.87729 0.94821 0.0
H1384 H 0.66421 0.95445 0.8922 0.0
H1385 H 0.63357 0.98515 0.87004 0.0
H1386 H 0.58898 0.90918 0.82694 0.0
H1387 H 0.61899 0.87789 0.84924 0.0
C1388 C 0.73616 0.81367 0.8432 0.0
C1389 C 0.71545 0.79374 0.82881 0.0
C1390 C 0.72865 0.83407 0.86153 0.0
C1391 C 0.7004 0.83478 0.86556 0.0
C1392 C 0.6799 0.81426 0.85196 0.0
C1393 C 0.68729 0.79393 0.83394 0.0
C1394 C 0.69137 0.85745 0.88286 0.0
C1395 C 0.67501 0.87636 0.87081 0.0
C1396 C 0.69617 0.85867 0.91099 0.0
C1397 C 0.71309 0.83909 0.9248 0.0
C1398 C 0.70529 0.80833 0.9227 0.0
C1399 C 0.72142 0.79004 0.93581 0.0
C1400 C 0.74526 0.80226 0.95126 0.0
C1401 C 0.75297 0.83282 0.95369 0.0
C1402 C 0.73692 0.8512 0.94059 0.0
C1403 C 0.59834 0.90964 0.94309 0.0
C1404 C 0.6073 0.93563 0.95837 0.0
C1405 C 0.61739 0.89608 0.92963 0.0
C1406 C 0.64584 0.90802 0.93126 0.0
C1407 C 0.65522 0.93321 0.94737 0.0
C1408 C 0.63603 0.94708 0.96072 0.0
C1409 C 0.66495 0.89474 0.91447 0.0
C1410 C 0.68303 0.87757 0.92653 0.0
C1411 C 0.66177 0.89504 0.88624 0.0
C1412 C 0.64378 0.91379 0.87255 0.0
C1413 C 0.64772 0.94423 0.87817 0.0
C1414 C 0.63048 0.96175 0.86556 0.0
C1415 C 0.60932 0.94912 0.84712 0.0
C1416 C 0.60538 0.91893 0.84123 0.0
C1417 C 0.62252 0.9013 0.85384 0.0
H1418 H 0.596 0.96272 0.83738 0.0
H1419 H 0.75771 0.78807 0.96141 0.0
H1420 H 0.84847 0.76454 0.18036 0.0
H1421 H 0.86984 0.73928 0.14555 0.0
H1422 H 0.78836 0.69955 0.11347 0.0
H1423 H 0.76673 0.72478 0.14822 0.0
H1424 H 0.82247 0.65916 0.12412 0.0
H1425 H 0.8275 0.74901 0.07735 0.0
H1426 H 0.83826 0.80263 0.07142 0.0
H1427 H 0.92524 0.80119 0.08797 0.0
H1428 H 0.91497 0.74759 0.09439 0.0
H1429 H 0.88294 0.58249 0.02431 0.0
H1430 H 0.85476 0.61451 0.04583 0.0
H1431 H 0.92973 0.67048 0.07693 0.0
H1432 H 0.95795 0.63933 0.05443 0.0
H1433 H 0.89408 0.70322 0.06219 0.0
H1434 H 0.88873 0.61525 0.11454 0.0
H1435 H 0.87847 0.56192 0.12239 0.0
H1436 H 0.79271 0.56023 0.09754 0.0
H1437 H 0.80256 0.61348 0.08917 0.0
C1438 C 0.83505 0.75087 0.16562 0.0
C1439 C 0.80588 0.74657 0.16718 0.0
C1440 C 0.84731 0.73654 0.14566 0.0
C1441 C 0.83067 0.71761 0.1269 0.0
C1442 C 0.80155 0.71412 0.12775 0.0
C1443 C 0.78924 0.72865 0.14758 0.0
C1444 C 0.84379 0.69943 0.10813 0.0
C1445 C 0.83772 0.66874 0.11014 0.0
C1446 C 0.86413 0.71203 0.09042 0.0
C1447 C 0.87042 0.74428 0.08656 0.0
C1448 C 0.8489 0.76015 0.07995 0.0
C1449 C 0.85492 0.79054 0.07645 0.0
C1450 C 0.88241 0.80532 0.07937 0.0
C1451 C 0.90395 0.78971 0.08573 0.0
C1452 C 0.89804 0.75932 0.08927 0.0
C1453 C 0.8934 0.6017 0.03566 0.0
C1454 C 0.92267 0.60826 0.03786 0.0
C1455 C 0.87727 0.61994 0.04803 0.0
C1456 C 0.89008 0.64463 0.06349 0.0
C1457 C 0.91932 0.65157 0.06516 0.0
C1458 C 0.93545 0.63368 0.05235 0.0
C1459 C 0.87323 0.66286 0.07857 0.0
C1460 C 0.87859 0.69357 0.07589 0.0
C1461 C 0.85238 0.6503 0.0959 0.0
C1462 C 0.84647 0.61827 0.1009 0.0
C1463 C 0.86774 0.60345 0.11054 0.0
C1464 C 0.86199 0.57325 0.11511 0.0
C1465 C 0.83498 0.55767 0.11037 0.0
C1466 C 0.81364 0.57229 0.10112 0.0
C1467 C 0.81929 0.60248 0.09646 0.0
H1468 H 0.83057 0.53429 0.11394 0.0
H1469 H 0.88702 0.82885 0.07665 0.0
H1470 H 0.3272 0.81077 0.16955 0.0
H1471 H 0.36183 0.84012 0.14315 0.0
H1472 H 0.40027 0.88544 0.21502 0.0
H1473 H 0.36439 0.85682 0.24162 0.0
H1474 H 0.39935 0.9231 0.1781 0.0
H1475 H 0.43131 0.83242 0.18076 0.0
H1476 H 0.42891 0.77859 0.17872 0.0
H1477 H 0.40263 0.77673 0.09554 0.0
H1478 H 0.4044 0.83047 0.09714 0.0
H1479 H 0.49952 0.98093 0.07697 0.0
H1480 H 0.48519 0.9505 0.11563 0.0
H1481 H 0.40559 0.9191 0.07506 0.0
H1482 H 0.41935 0.94977 0.03686 0.0
H1483 H 0.4419 0.87513 0.10448 0.0
H1484 H 0.39691 0.96514 0.11159 0.0
H1485 H 0.4015 0.01922 0.11498 0.0
H1486 H 0.45884 0.02101 0.18292 0.0
H1487 H 0.45481 0.96692 0.17965 0.0
C1488 C 0.34302 0.82698 0.17978 0.0
C1489 C 0.34323 0.83145 0.20764 0.0
C1490 C 0.36303 0.84355 0.16469 0.0
C1491 C 0.38427 0.86432 0.17717 0.0
C1492 C 0.38427 0.86927 0.205 0.0
C1493 C 0.36377 0.85303 0.22014 0.0
C1494 C 0.40539 0.88164 0.16057 0.0
C1495 C 0.40925 0.91248 0.16253 0.0
C1496 C 0.41874 0.86796 0.14036 0.0
C1497 C 0.41797 0.83558 0.1391 0.0
C1498 C 0.42491 0.82055 0.16205 0.0
C1499 C 0.42366 0.79003 0.16097 0.0
C1500 C 0.41568 0.77427 0.13701 0.0
C1501 C 0.4089 0.78899 0.11407 0.0
C1502 C 0.41007 0.8195 0.11504 0.0
C1503 C 0.47907 0.96733 0.0763 0.0
C1504 C 0.46041 0.96781 0.05411 0.0
C1505 C 0.47098 0.95005 0.0983 0.0
C1506 C 0.44441 0.93271 0.09799 0.0
C1507 C 0.4262 0.93238 0.07549 0.0
C1508 C 0.43401 0.95003 0.05383 0.0
C1509 C 0.43442 0.91601 0.12151 0.0
C1510 C 0.43274 0.88541 0.12077 0.0
C1511 C 0.42363 0.92981 0.14315 0.0
C1512 C 0.42583 0.96216 0.14518 0.0
C1513 C 0.41067 0.97713 0.12709 0.0
C1514 C 0.41313 0.00775 0.12902 0.0
C1515 C 0.43053 0.02355 0.1491 0.0
C1516 C 0.44543 0.00875 0.16734 0.0
C1517 C 0.44306 0.97813 0.16546 0.0
H1518 H 0.4324 0.04726 0.15058 0.0
H1519 H 0.41469 0.75064 0.13622 0.0
H1520 H 0.77829 0.19734 0.14662 0.0
H1521 H 0.75978 0.17472 0.10338 0.0
H1522 H 0.70717 0.10659 0.14444 0.0
H1523 H 0.72508 0.12939 0.18747 0.0
H1524 H 0.72453 0.09099 0.0883 0.0
H1525 H 0.67371 0.16058 0.13997 0.0
H1526 H 0.67864 0.20725 0.16606 0.0
H1527 H 0.72233 0.25318 0.10228 0.0
H1528 H 0.71752 0.20668 0.07585 0.0
H1529 H 0.58473 0.04714 0.05384 0.0
H1530 H 0.63197 0.06403 0.07184 0.0
H1531 H 0.63781 0.1412 0.02308 0.0
H1532 H 0.58955 0.125 0.0062 0.0
H1533 H 0.65564 0.15716 0.07012 0.0
H1534 H 0.67765 0.08295 0.01198 0.0
H1535 H 0.67094 0.03384 0.99 0.0
H1536 H 0.68343 0.99451 0.06587 0.0
H1537 H 0.6899 0.04331 0.08839 0.0
C1538 C 0.76387 0.1767 0.14635 0.0
C1539 C 0.75274 0.16521 0.17018 0.0
C1540 C 0.75338 0.16377 0.12167 0.0
C1541 C 0.73202 0.13914 0.12083 0.0
C1542 C 0.7238 0.12545 0.14472 0.0
C1543 C 0.73386 0.13861 0.16928 0.0
C1544 C 0.71275 0.1329 0.09708 0.0
C1545 C 0.70972 0.10553 0.0837 0.0
C1546 C 0.69377 0.15215 0.09105 0.0
C1547 C 0.69518 0.18035 0.10599 0.0
C1548 C 0.68413 0.18073 0.13148 0.0
C1549 C 0.68697 0.2071 0.14634 0.0
C1550 C 0.70077 0.23319 0.13584 0.0
C1551 C 0.71163 0.23297 0.11039 0.0
C1552 C 0.70876 0.20665 0.09541 0.0
C1553 C 0.5962 0.06757 0.04679 0.0
C1554 C 0.58355 0.08489 0.02881 0.0
C1555 C 0.62338 0.07706 0.05681 0.0
C1556 C 0.63886 0.10355 0.04832 0.0
C1557 C 0.62639 0.1206 0.02982 0.0
C1558 C 0.59883 0.11145 0.0203 0.0
C1559 C 0.66676 0.11473 0.06115 0.0
C1560 C 0.67117 0.14302 0.07304 0.0
C1561 C 0.68704 0.09626 0.06545 0.0
C1562 C 0.68432 0.0669 0.05188 0.0
C1563 C 0.67899 0.06384 0.02399 0.0
C1564 C 0.67519 0.03604 0.01144 0.0
C1565 C 0.6768 0.01109 0.02653 0.0
C1566 C 0.6823 0.01389 0.0542 0.0
C1567 C 0.68613 0.04164 0.06686 0.0
H1568 H 0.67378 0.98958 0.01678 0.0
H1569 H 0.70302 0.25357 0.14741 0.0
H1570 H 0.68207 0.62193 0.79601 0.0
H1571 H 0.6479 0.59348 0.82345 0.0
H1572 H 0.5846 0.64077 0.79208 0.0
H1573 H 0.61956 0.67079 0.76588 0.0
H1574 H 0.58199 0.64298 0.84082 0.0
H1575 H 0.58036 0.56057 0.78428 0.0
H1576 H 0.59591 0.52303 0.75559 0.0
H1577 H 0.642 0.49478 0.8226 0.0
H1578 H 0.62733 0.5326 0.85153 0.0
H1579 H 0.51386 0.55606 0.94958 0.0
H1580 H 0.52235 0.57566 0.90484 0.0
H1581 H 0.60936 0.56902 0.91591 0.0
H1582 H 0.60128 0.54986 0.96046 0.0
H1583 H 0.58175 0.54034 0.86852 0.0
H1584 H 0.58791 0.63465 0.9202 0.0
H1585 H 0.56551 0.66827 0.94757 0.0
H1586 H 0.50203 0.66851 0.8853 0.0
H1587 H 0.52388 0.63458 0.85773 0.0
C1588 C 0.66069 0.62566 0.79436 0.0
C1589 C 0.65347 0.64868 0.77905 0.0
C1590 C 0.64097 0.60915 0.80993 0.0
C1591 C 0.61339 0.61466 0.80978 0.0
C1592 C 0.60569 0.63614 0.79271 0.0
C1593 C 0.62564 0.65322 0.77769 0.0
C1594 C 0.59439 0.6014 0.83047 0.0
C1595 C 0.58136 0.62023 0.8463 0.0
C1596 C 0.59284 0.57161 0.83767 0.0
C1597 C 0.60264 0.54945 0.82012 0.0
C1598 C 0.59402 0.54655 0.79285 0.0
C1599 C 0.60269 0.5252 0.77654 0.0
C1600 C 0.61992 0.50652 0.78726 0.0
C1601 C 0.62866 0.50926 0.8143 0.0
C1602 C 0.62014 0.53064 0.83067 0.0
C1603 C 0.53492 0.55946 0.94275 0.0
C1604 C 0.55689 0.5513 0.95858 0.0
C1605 C 0.53964 0.57043 0.91711 0.0
C1606 C 0.56638 0.57335 0.90707 0.0
C1607 C 0.58851 0.56656 0.92329 0.0
C1608 C 0.58387 0.55578 0.94882 0.0
C1609 C 0.57187 0.58246 0.87939 0.0
C1610 C 0.58192 0.56272 0.86226 0.0
C1611 C 0.56996 0.61099 0.87065 0.0
C1612 C 0.55738 0.63193 0.88703 0.0
C1613 C 0.56911 0.64178 0.91242 0.0
C1614 C 0.55652 0.66089 0.92796 0.0
C1615 C 0.53234 0.67048 0.9182 0.0
C1616 C 0.52075 0.66106 0.89284 0.0
C1617 C 0.53323 0.64191 0.87725 0.0
H1618 H 0.52258 0.68521 0.93028 0.0
H1619 H 0.62651 0.48993 0.77462 0.0
H1620 H 0.32287 0.71939 0.85169 0.0
H1621 H 0.3572 0.70007 0.87994 0.0
H1622 H 0.37435 0.64526 0.81389 0.0
H1623 H 0.34098 0.66603 0.785 0.0
H1624 H 0.35689 0.65064 0.89751 0.0
H1625 H 0.43908 0.62602 0.82221 0.0
H1626 H 0.4609 0.64722 0.78168 0.0
H1627 H 0.44209 0.7319 0.80362 0.0
H1628 H 0.42055 0.71134 0.84448 0.0
H1629 H 0.42635 0.54544 0.95019 0.0
H1630 H 0.40561 0.57176 0.91508 0.0
H1631 H 0.47089 0.64672 0.92886 0.0
H1632 H 0.49219 0.62042 0.96431 0.0
H1633 H 0.45152 0.63633 0.87324 0.0
H1634 H 0.41908 0.64927 0.95939 0.0
H1635 H 0.40058 0.63624 0.0035 0.0
H1636 H 0.32459 0.59039 0.96554 0.0
H1637 H 0.34317 0.60184 0.92108 0.0
C1638 C 0.33403 0.70329 0.84314 0.0
C1639 C 0.3291 0.69401 0.81621 0.0
C1640 C 0.35373 0.69228 0.85931 0.0
C1641 C 0.36858 0.67125 0.84913 0.0
C1642 C 0.36368 0.66192 0.82214 0.0
C1643 C 0.3444 0.67355 0.80571 0.0
C1644 C 0.3876 0.65778 0.8674 0.0
C1645 C 0.37758 0.64766 0.89209 0.0
C1646 C 0.41496 0.65443 0.86079 0.0
C1647 C 0.42789 0.66702 0.83626 0.0
C1648 C 0.43966 0.64918 0.81843 0.0
C1649 C 0.45198 0.66109 0.79539 0.0
C1650 C 0.45278 0.69086 0.79003 0.0
C1651 C 0.44134 0.70881 0.80774 0.0
C1652 C 0.42903 0.69703 0.83082 0.0
C1653 C 0.43677 0.56729 0.94551 0.0
C1654 C 0.46061 0.5811 0.96057 0.0
C1655 C 0.42486 0.58226 0.92533 0.0
C1656 C 0.4365 0.61129 0.91974 0.0
C1657 C 0.46166 0.62428 0.93296 0.0
C1658 C 0.47367 0.60929 0.95331 0.0
C1659 C 0.42032 0.62888 0.90269 0.0
C1660 C 0.43082 0.63957 0.87841 0.0
C1661 C 0.39377 0.63392 0.91008 0.0
C1662 C 0.38279 0.62598 0.9368 0.0
C1663 C 0.39868 0.63582 0.96037 0.0
C1664 C 0.38816 0.62873 0.98547 0.0
C1665 C 0.36151 0.61228 0.98732 0.0
C1666 C 0.34534 0.6029 0.96406 0.0
C1667 C 0.35592 0.60955 0.93889 0.0
H1668 H 0.35332 0.60697 0.00677 0.0
H1669 H 0.46232 0.70003 0.77218 0.0
H1670 H 0.3334 0.36714 0.7736 0.0
H1671 H 0.36355 0.40094 0.80483 0.0
H1672 H 0.29337 0.40628 0.85348 0.0
H1673 H 0.26302 0.37418 0.82182 0.0
H1674 H 0.32959 0.45365 0.86226 0.0
H1675 H 0.33305 0.34821 0.8585 0.0
H1676 H 0.34165 0.30194 0.83743 0.0
H1677 H 0.4259 0.34194 0.82373 0.0
H1678 H 0.41765 0.38852 0.84439 0.0
H1679 H 0.42247 0.40577 0.98173 0.0
H1680 H 0.38705 0.39697 0.94506 0.0
H1681 H 0.41094 0.48659 0.92003 0.0
H1682 H 0.44519 0.49576 0.95751 0.0
H1683 H 0.40066 0.39647 0.89669 0.0
H1684 H 0.36225 0.50633 0.87754 0.0
H1685 H 0.35119 0.54862 0.9034 0.0
H1686 H 0.33098 0.49324 0.97048 0.0
H1687 H 0.34165 0.4506 0.94496 0.0
C1688 C 0.32422 0.37645 0.79039 0.0
C1689 C 0.29603 0.36722 0.79572 0.0
C1690 C 0.34148 0.39571 0.80827 0.0
C1691 C 0.33091 0.40511 0.83205 0.0
C1692 C 0.30211 0.39901 0.83548 0.0
C1693 C 0.28476 0.38041 0.81734 0.0
C1694 C 0.34975 0.41615 0.85539 0.0
C1695 C 0.34535 0.44136 0.86968 0.0
C1696 C 0.3699 0.39977 0.86546 0.0
C1697 C 0.37464 0.3719 0.85267 0.0
C1698 C 0.35333 0.34716 0.8508 0.0
C1699 C 0.35815 0.32089 0.83896 0.0
C1700 C 0.3843 0.31904 0.82922 0.0
C1701 C 0.40565 0.34344 0.83124 0.0
C1702 C 0.40091 0.36977 0.84298 0.0
C1703 C 0.41931 0.42383 0.96899 0.0
C1704 C 0.4364 0.45139 0.97236 0.0
C1705 C 0.39927 0.41879 0.94795 0.0
C1706 C 0.39652 0.44102 0.92958 0.0
C1707 C 0.41232 0.46919 0.93408 0.0
C1708 C 0.43188 0.47444 0.95557 0.0
C1709 C 0.37996 0.43344 0.90412 0.0
C1710 C 0.38508 0.40901 0.88926 0.0
C1711 C 0.35998 0.45001 0.89413 0.0
C1712 C 0.35295 0.47536 0.90941 0.0
C1713 C 0.35532 0.50317 0.89776 0.0
C1714 C 0.34916 0.5272 0.91237 0.0
C1715 C 0.34045 0.52359 0.93857 0.0
C1716 C 0.33782 0.49599 0.95021 0.0
C1717 C 0.34395 0.4719 0.9357 0.0
H1718 H 0.33562 0.54211 0.94985 0.0
H1719 H 0.38812 0.2987 0.82021 0.0
H1720 H 0.7592 0.39145 0.81257 0.0
H1721 H 0.73326 0.41425 0.84531 0.0
H1722 H 0.65586 0.36938 0.80824 0.0
H1723 H 0.68155 0.34649 0.77526 0.0
H1724 H 0.65157 0.42472 0.82999 0.0
H1725 H 0.6874 0.3368 0.85471 0.0
H1726 H 0.72335 0.3059 0.86337 0.0
H1727 H 0.76327 0.36797 0.92373 0.0
H1728 H 0.72834 0.39991 0.91459 0.0
H1729 H 0.5612 0.39896 0.93689 0.0
H1730 H 0.59093 0.39069 0.90036 0.0
H1731 H 0.66248 0.43879 0.94484 0.0
H1732 H 0.63294 0.44734 0.98153 0.0
H1733 H 0.67246 0.38733 0.91993 0.0
H1734 H 0.63248 0.47178 0.89957 0.0
H1735 H 0.59404 0.49976 0.89359 0.0
H1736 H 0.56068 0.44421 0.82609 0.0
H1737 H 0.59816 0.41476 0.83261 0.0
C1738 C 0.73664 0.38706 0.81083 0.0
C1739 C 0.72245 0.36655 0.79169 0.0
C1740 C 0.72187 0.40014 0.82959 0.0
C1741 C 0.69274 0.39289 0.82952 0.0
C1742 C 0.67838 0.37506 0.80869 0.0
C1743 C 0.69313 0.36194 0.78988 0.0
C1744 C 0.67762 0.4001 0.85308 0.0
C1745 C 0.656 0.41649 0.84964 0.0
C1746 C 0.68387 0.38974 0.8788 0.0
C1747 C 0.70549 0.371 0.88363 0.0
C1748 C 0.70416 0.34416 0.86945 0.0
C1749 C 0.72438 0.32646 0.87443 0.0
C1750 C 0.74573 0.33511 0.89391 0.0
C1751 C 0.74696 0.36149 0.9084 0.0
C1752 C 0.72701 0.37945 0.90326 0.0
C1753 C 0.58333 0.40738 0.93915 0.0
C1754 C 0.59468 0.42398 0.96206 0.0
C1755 C 0.60022 0.40283 0.91816 0.0
C1756 C 0.62872 0.41464 0.91979 0.0
C1757 C 0.64044 0.42976 0.94319 0.0
C1758 C 0.62353 0.43458 0.96411 0.0
C1759 C 0.64619 0.41161 0.89682 0.0
C1760 C 0.66825 0.39596 0.90038 0.0
C1761 C 0.64026 0.42263 0.87129 0.0
C1762 C 0.61798 0.44072 0.86686 0.0
C1763 C 0.61675 0.4652 0.88369 0.0
C1764 C 0.59506 0.48132 0.88022 0.0
C1765 C 0.57486 0.47376 0.85948 0.0
C1766 C 0.57629 0.44998 0.84221 0.0
C1767 C 0.59769 0.43345 0.84588 0.0
H1768 H 0.55818 0.4864 0.8567 0.0
H1769 H 0.76117 0.32124 0.89793 0.0
H1770 H 0.65233 0.23951 0.19457 0.0
H1771 H 0.61442 0.26175 0.17454 0.0
H1772 H 0.65981 0.3482 0.19581 0.0
H1773 H 0.6976 0.32627 0.21613 0.0
H1774 H 0.60437 0.34404 0.20519 0.0
H1775 H 0.66123 0.32102 0.13172 0.0
H1776 H 0.68388 0.28776 0.10426 0.0
H1777 H 0.6049 0.23184 0.08797 0.0
H1778 H 0.58177 0.26501 0.11522 0.0
H1779 H 0.58038 0.44381 0.10542 0.0
H1780 H 0.59408 0.41125 0.13969 0.0
H1781 H 0.53021 0.34098 0.10887 0.0
H1782 H 0.51607 0.37339 0.0747 0.0
H1783 H 0.58381 0.32824 0.10747 0.0
H1784 H 0.52596 0.3605 0.17054 0.0
H1785 H 0.50382 0.39591 0.19584 0.0
H1786 H 0.58349 0.43485 0.23156 0.0
H1787 H 0.60623 0.39995 0.20615 0.0
C1788 C 0.65427 0.26326 0.19498 0.0
C1789 C 0.67813 0.28112 0.20675 0.0
C1790 C 0.63253 0.27591 0.18361 0.0
C1791 C 0.63437 0.30661 0.18365 0.0
C1792 C 0.65791 0.32444 0.19575 0.0
C1793 C 0.6796 0.31185 0.20716 0.0
C1794 C 0.61273 0.32049 0.16965 0.0
C1795 C 0.5998 0.34064 0.18383 0.0
C1796 C 0.60605 0.3152 0.14201 0.0
C1797 C 0.61986 0.29526 0.12569 0.0
C1798 C 0.64875 0.30155 0.12238 0.0
C1799 C 0.66164 0.28276 0.1068 0.0
C1800 C 0.64586 0.25759 0.09449 0.0
C1801 C 0.61711 0.2513 0.09757 0.0
C1802 C 0.60407 0.27014 0.11298 0.0
C1803 C 0.56873 0.42169 0.10635 0.0
C1804 C 0.5476 0.41098 0.08692 0.0
C1805 C 0.57647 0.40315 0.12606 0.0
C1806 C 0.56325 0.37369 0.12662 0.0
C1807 C 0.54067 0.36364 0.10866 0.0
C1808 C 0.5327 0.38224 0.08912 0.0
C1809 C 0.57616 0.3526 0.14277 0.0
C1810 C 0.58758 0.33107 0.12899 0.0
C1811 C 0.58136 0.35669 0.1707 0.0
C1812 C 0.56785 0.37765 0.1863 0.0
C1813 C 0.53882 0.37673 0.18364 0.0
C1814 C 0.52614 0.3967 0.19803 0.0
C1815 C 0.54224 0.41764 0.21528 0.0
C1816 C 0.57105 0.4186 0.21821 0.0
C1817 C 0.58384 0.39868 0.20384 0.0
H1818 H 0.5324 0.43309 0.2264 0.0
H1819 H 0.6559 0.24302 0.0825 0.0
H1820 H 0.65883 0.69825 0.21826 0.0
H1821 H 0.63728 0.65204 0.19582 0.0
H1822 H 0.70326 0.60951 0.22846 0.0
H1823 H 0.72439 0.65573 0.25183 0.0
H1824 H 0.69841 0.61154 0.17113 0.0
H1825 H 0.64291 0.57833 0.24311 0.0
H1826 H 0.61193 0.58161 0.28039 0.0
H1827 H 0.54842 0.60256 0.22538 0.0
H1828 H 0.57913 0.5999 0.1878 0.0
H1829 H 0.57819 0.50554 0.0896 0.0
H1830 H 0.61256 0.51641 0.12703 0.0
H1831 H 0.62994 0.60713 0.10397 0.0
H1832 H 0.59492 0.59669 0.06699 0.0
H1833 H 0.60016 0.56064 0.16508 0.0
H1834 H 0.70149 0.6299 0.12465 0.0
H1835 H 0.73327 0.62722 0.08796 0.0
H1836 H 0.70574 0.5339 0.0801 0.0
H1837 H 0.67419 0.53585 0.11711 0.0
C1838 C 0.66795 0.67866 0.22163 0.0
C1839 C 0.69303 0.68027 0.23681 0.0
C1840 C 0.65569 0.65232 0.20884 0.0
C1841 C 0.66872 0.62744 0.21054 0.0
C1842 C 0.69283 0.62846 0.22715 0.0
C1843 C 0.70474 0.65472 0.24057 0.0
C1844 C 0.65969 0.60286 0.19114 0.0
C1845 C 0.6771 0.59987 0.16994 0.0
C1846 C 0.63211 0.58729 0.19008 0.0
C1847 C 0.6134 0.5889 0.21259 0.0
C1848 C 0.6224 0.58381 0.23896 0.0
C1849 C 0.60487 0.58554 0.26016 0.0
C1850 C 0.57823 0.59228 0.25526 0.0
C1851 C 0.56905 0.59729 0.22914 0.0
C1852 C 0.5865 0.59561 0.20787 0.0
C1853 C 0.59005 0.52759 0.09188 0.0
C1854 C 0.58368 0.55041 0.07558 0.0
C1855 C 0.60964 0.53371 0.11331 0.0
C1856 C 0.62371 0.56251 0.11818 0.0
C1857 C 0.61942 0.58469 0.10033 0.0
C1858 C 0.59936 0.57875 0.0793 0.0
C1859 C 0.6383 0.57104 0.14431 0.0
C1860 C 0.62181 0.57128 0.16665 0.0
C1861 C 0.66666 0.58428 0.1463 0.0
C1862 C 0.6853 0.58306 0.12366 0.0
C1863 C 0.70226 0.60876 0.11521 0.0
C1864 C 0.72026 0.60738 0.09433 0.0
C1865 C 0.72149 0.58042 0.08168 0.0
C1866 C 0.7047 0.55479 0.08986 0.0
C1867 C 0.68671 0.55603 0.11077 0.0
H1868 H 0.73549 0.57939 0.06556 0.0
H1869 H 0.56469 0.59362 0.2717 0.0
H1870 H 0.36309 0.7135 0.25 0.0
H1871 H 0.3879 0.68028 0.22583 0.0
H1872 H 0.31568 0.61197 0.22662 0.0
H1873 H 0.29083 0.64526 0.25127 0.0
H1874 H 0.37787 0.59571 0.2236 0.0
H1875 H 0.30697 0.64506 0.17966 0.0
H1876 H 0.28377 0.68838 0.1744 0.0
H1877 H 0.36175 0.74121 0.15621 0.0
H1878 H 0.38539 0.69807 0.16145 0.0
H1879 H 0.40095 0.53597 0.09392 0.0
H1880 H 0.37726 0.5529 0.13197 0.0
H1881 H 0.429 0.63837 0.12913 0.0
H1882 H 0.45285 0.62167 0.09126 0.0
H1883 H 0.37367 0.64139 0.13447 0.0
H1884 H 0.44338 0.58981 0.17187 0.0
H1885 H 0.46747 0.54759 0.17952 0.0
H1886 H 0.39418 0.49973 0.21319 0.0
H1887 H 0.36917 0.54113 0.20462 0.0
C1888 C 0.35317 0.69082 0.24649 0.0
C1889 C 0.32519 0.68176 0.25237 0.0
C1890 C 0.36732 0.67188 0.23268 0.0
C1891 C 0.35343 0.64391 0.22424 0.0
C1892 C 0.32673 0.63344 0.2332 0.0
C1893 C 0.31258 0.65242 0.24729 0.0
C1894 C 0.36358 0.62984 0.2008 0.0
C1895 C 0.37657 0.60516 0.20395 0.0
C1896 C 0.36214 0.64273 0.17541 0.0
C1897 C 0.3479 0.66841 0.17106 0.0
C1898 C 0.31912 0.66592 0.17451 0.0
C1899 C 0.30591 0.69042 0.17154 0.0
C1900 C 0.32131 0.71756 0.16502 0.0
C1901 C 0.34988 0.72016 0.16124 0.0
C1902 C 0.36317 0.69567 0.16413 0.0
C1903 C 0.40701 0.55851 0.10116 0.0
C1904 C 0.42875 0.57755 0.08958 0.0
C1905 C 0.39362 0.56802 0.12303 0.0
C1906 C 0.40162 0.59675 0.13346 0.0
C1907 C 0.42263 0.61607 0.12138 0.0
C1908 C 0.43622 0.6065 0.09976 0.0
C1909 C 0.38824 0.60702 0.157 0.0
C1910 C 0.37465 0.63132 0.15389 0.0
C1911 C 0.38918 0.59358 0.18231 0.0
C1912 C 0.40417 0.56845 0.1871 0.0
C1913 C 0.43217 0.57009 0.18041 0.0
C1914 C 0.44602 0.54628 0.18493 0.0
C1915 C 0.43229 0.52089 0.19663 0.0
C1916 C 0.40474 0.51933 0.20396 0.0
C1917 C 0.39066 0.54291 0.19914 0.0
H1918 H 0.44305 0.50248 0.20014 0.0
H1919 H 0.31112 0.73659 0.1629 0.0
H1920 H 0.32769 0.27901 0.18225 0.0
H1921 H 0.369 0.31056 0.16642 0.0
H1922 H 0.37499 0.36372 0.23888 0.0
H1923 H 0.33403 0.33151 0.25538 0.0
H1924 H 0.36783 0.39043 0.18308 0.0
H1925 H 0.42454 0.33597 0.23612 0.0
H1926 H 0.43946 0.29099 0.25329 0.0
H1927 H 0.45838 0.26629 0.17383 0.0
H1928 H 0.44309 0.31084 0.15608 0.0
H1929 H 0.46552 0.48472 0.11779 0.0
H1930 H 0.45052 0.45563 0.15669 0.0
H1931 H 0.45114 0.37574 0.11054 0.0
H1932 H 0.46769 0.40509 0.07202 0.0
H1933 H 0.46063 0.36672 0.16287 0.0
H1934 H 0.39517 0.40908 0.10813 0.0
H1935 H 0.3765 0.44925 0.08556 0.0
H1936 H 0.36783 0.49023 0.16171 0.0
H1937 H 0.38747 0.45076 0.1848 0.0
C1938 C 0.33801 0.29721 0.19495 0.0
C1939 C 0.32761 0.30311 0.21988 0.0
C1940 C 0.36172 0.31495 0.18604 0.0
C1941 C 0.37505 0.33912 0.20169 0.0
C1942 C 0.36507 0.34484 0.2268 0.0
C1943 C 0.3417 0.3266 0.23607 0.0
C1944 C 0.39671 0.36047 0.18976 0.0
C1945 C 0.3885 0.38584 0.17938 0.0
C1946 C 0.42307 0.35349 0.18413 0.0
C1947 C 0.43243 0.32669 0.19473 0.0
C1948 C 0.43161 0.32082 0.22225 0.0
C1949 C 0.4402 0.29541 0.2321 0.0
C1950 C 0.44981 0.27576 0.21466 0.0
C1951 C 0.45092 0.28152 0.18732 0.0
C1952 C 0.44232 0.30687 0.17736 0.0
C1953 C 0.46321 0.46095 0.11636 0.0
C1954 C 0.46699 0.44684 0.09209 0.0
C1955 C 0.45481 0.4444 0.13851 0.0
C1956 C 0.44898 0.41358 0.1362 0.0
C1957 C 0.45536 0.39951 0.11265 0.0
C1958 C 0.4645 0.41616 0.09063 0.0
C1959 C 0.43159 0.39657 0.15596 0.0
C1960 C 0.4404 0.37192 0.16744 0.0
C1961 C 0.40521 0.40353 0.1619 0.0
C1962 C 0.39326 0.42725 0.14817 0.0
C1963 C 0.38963 0.42685 0.12007 0.0
C1964 C 0.37893 0.44952 0.1072 0.0
C1965 C 0.37126 0.47243 0.12222 0.0
C1966 C 0.37415 0.47264 0.15016 0.0
C1967 C 0.38512 0.45017 0.16314 0.0
H1968 H 0.36291 0.48993 0.11224 0.0
H1969 H 0.45643 0.2561 0.22232 0.0
H1970 H 0.74588 0.62484 0.6849 0.0
H1971 H 0.77174 0.60096 0.65271 0.0
H1972 H 0.78977 0.68206 0.61004 0.0
H1973 H 0.76333 0.70586 0.64156 0.0
H1974 H 0.78402 0.63675 0.57587 0.0
H1975 H 0.83516 0.66512 0.65889 0.0
H1976 H 0.84313 0.66704 0.708 0.0
H1977 H 0.83841 0.57325 0.7084 0.0
H1978 H 0.83013 0.57069 0.65926 0.0
H1979 H 0.92075 0.62332 0.53074 0.0
H1980 H 0.8826 0.63949 0.55446 0.0
H1981 H 0.85216 0.54981 0.57529 0.0
H1982 H 0.88968 0.53338 0.55112 0.0
H1983 H 0.86262 0.59656 0.61948 0.0
H1984 H 0.81279 0.5705 0.53423 0.0
H1985 H 0.80525 0.57157 0.48518 0.0
H1986 H 0.8113 0.66554 0.4894 0.0
H1987 H 0.8188 0.66499 0.53855 0.0
C1988 C 0.75473 0.6374 0.66827 0.0
C1989 C 0.75295 0.6674 0.66608 0.0
C1990 C 0.76962 0.62375 0.64997 0.0
C1991 C 0.78334 0.63999 0.62946 0.0
C1992 C 0.77954 0.66918 0.62585 0.0
C1993 C 0.7644 0.68276 0.64395 0.0
C1994 C 0.80379 0.62764 0.61349 0.0
C1995 C 0.80127 0.62811 0.58543 0.0
C1996 C 0.8263 0.61627 0.62595 0.0
C1997 C 0.83168 0.61768 0.65544 0.0
C1998 C 0.83566 0.64487 0.66947 0.0
C1999 C 0.84027 0.64608 0.6973 0.0
C2000 C 0.84121 0.62026 0.71131 0.0
C2001 C 0.83766 0.5932 0.6975 0.0
C2002 C 0.83303 0.59186 0.66966 0.0
C2003 C 0.90588 0.6071 0.54036 0.0
C2004 C 0.90819 0.57715 0.53922 0.0
C2005 C 0.88407 0.61631 0.5537 0.0
C2006 C 0.86465 0.59576 0.56646 0.0
C2007 C 0.86695 0.5659 0.56543 0.0
C2008 C 0.88834 0.55661 0.55163 0.0
C2009 C 0.8427 0.60563 0.58201 0.0
C2010 C 0.84515 0.60489 0.61001 0.0
C2011 C 0.82049 0.61723 0.56952 0.0
C2012 C 0.8166 0.61772 0.53999 0.0
C2013 C 0.81275 0.59141 0.52466 0.0
C2014 C 0.80832 0.59191 0.49687 0.0
C2015 C 0.80782 0.61861 0.48417 0.0
C2016 C 0.81168 0.64487 0.49926 0.0
C2017 C 0.81592 0.64447 0.52709 0.0
H2018 H 0.80443 0.61896 0.46265 0.0
H2019 H 0.84474 0.62122 0.73286 0.0
H2020 H 0.3703 0.77722 0.72051 0.0
H2021 H 0.40983 0.80924 0.70199 0.0
H2022 H 0.36587 0.8828 0.70768 0.0
H2023 H 0.32679 0.85136 0.72667 0.0
H2024 H 0.40938 0.83489 0.65647 0.0
H2025 H 0.40667 0.94639 0.71394 0.0
H2026 H 0.40103 0.96294 0.76022 0.0
H2027 H 0.42898 0.88577 0.79046 0.0
H2028 H 0.43526 0.86893 0.74441 0.0
H2029 H 0.41427 0.95573 0.57956 0.0
H2030 H 0.40474 0.92137 0.61585 0.0
H2031 H 0.49074 0.9416 0.64442 0.0
H2032 H 0.50067 0.97619 0.60762 0.0
H2033 H 0.44587 0.93816 0.68546 0.0
H2034 H 0.48018 0.88164 0.61863 0.0
H2035 H 0.48603 0.8668 0.57188 0.0
H2036 H 0.39859 0.83194 0.56293 0.0
H2037 H 0.39211 0.84767 0.60934 0.0
C2038 C 0.36924 0.80032 0.71815 0.0
C2039 C 0.34528 0.81169 0.72481 0.0
C2040 C 0.39189 0.81858 0.70768 0.0
C2041 C 0.39098 0.84848 0.70378 0.0
C2042 C 0.36739 0.85998 0.71113 0.0
C2043 C 0.34486 0.84184 0.7217 0.0
C2044 C 0.41271 0.86699 0.68886 0.0
C2045 C 0.41793 0.85721 0.66313 0.0
C2046 C 0.42448 0.89591 0.69776 0.0
C2047 C 0.42147 0.90639 0.72562 0.0
C2048 C 0.41193 0.93308 0.73044 0.0
C2049 C 0.40856 0.94249 0.75666 0.0
C2050 C 0.41473 0.92547 0.77826 0.0
C2051 C 0.42426 0.89896 0.7737 0.0
C2052 C 0.4277 0.88946 0.74754 0.0
C2053 C 0.43115 0.95316 0.59368 0.0
C2054 C 0.45825 0.96845 0.59073 0.0
C2055 C 0.42569 0.93347 0.61432 0.0
C2056 C 0.44713 0.92889 0.63253 0.0
C2057 C 0.47403 0.9449 0.6304 0.0
C2058 C 0.47965 0.96442 0.60938 0.0
C2059 C 0.44081 0.90634 0.65293 0.0
C2060 C 0.43836 0.9154 0.67948 0.0
C2061 C 0.43197 0.87658 0.64504 0.0
C2062 C 0.43571 0.86598 0.61742 0.0
C2063 C 0.46222 0.871 0.6066 0.0
C2064 C 0.46564 0.86241 0.58018 0.0
C2065 C 0.44272 0.8483 0.56446 0.0
C2066 C 0.41634 0.84282 0.57515 0.0
C2067 C 0.41279 0.8516 0.60152 0.0
H2068 H 0.4454 0.84165 0.544 0.0
H2069 H 0.41202 0.93275 0.79853 0.0
H2070 H 0.15039 0.33638 0.75644 0.0
H2071 H 0.11673 0.36267 0.73347 0.0
H2072 H 0.14402 0.3362 0.65712 0.0
H2073 H 0.17654 0.30918 0.67972 0.0
H2074 H 0.12033 0.40699 0.70262 0.0
H2075 H 0.09606 0.32369 0.61055 0.0
H2076 H 0.08749 0.26992 0.60281 0.0
H2077 H 0.0652 0.25709 0.68451 0.0
H2078 H 0.07323 0.31079 0.69266 0.0
H2079 H 0.1006 0.47397 0.58106 0.0
H2080 H 0.11121 0.45034 0.62265 0.0
H2081 H 0.03122 0.39349 0.61506 0.0
H2082 H 0.02111 0.41579 0.57294 0.0
H2083 H 0.06654 0.36143 0.62176 0.0
H2084 H 0.04941 0.44278 0.66942 0.0
H2085 H 0.0492 0.49469 0.68169 0.0
H2086 H 0.13783 0.50834 0.69744 0.0
H2087 H 0.13872 0.45661 0.6848 0.0
C2088 C 0.149 0.33607 0.73474 0.0
C2089 C 0.16592 0.3205 0.71985 0.0
C2090 C 0.1298 0.35111 0.72167 0.0
C2091 C 0.12738 0.35092 0.69356 0.0
C2092 C 0.14478 0.33591 0.67881 0.0
C2093 C 0.16354 0.32058 0.69177 0.0
C2094 C 0.10757 0.36704 0.67909 0.0
C2095 C 0.10824 0.39703 0.68512 0.0
C2096 C 0.09047 0.35369 0.65718 0.0
C2097 C 0.08541 0.32132 0.65225 0.0
C2098 C 0.08915 0.30943 0.62683 0.0
C2099 C 0.08443 0.27894 0.62238 0.0
C2100 C 0.07586 0.2601 0.64317 0.0
C2101 C 0.07192 0.27171 0.66844 0.0
C2102 C 0.0766 0.30216 0.673 0.0
C2103 C 0.08504 0.45679 0.58855 0.0
C2104 C 0.06022 0.44642 0.5735 0.0
C2105 C 0.09101 0.44345 0.61252 0.0
C2106 C 0.07198 0.42001 0.62214 0.0
C2107 C 0.04632 0.41126 0.60807 0.0
C2108 C 0.0406 0.42407 0.58388 0.0
C2109 C 0.08066 0.4019 0.64424 0.0
C2110 C 0.07795 0.37143 0.63961 0.0
C2111 C 0.09435 0.41454 0.66824 0.0
C2112 C 0.09414 0.44575 0.67602 0.0
C2113 C 0.06892 0.45686 0.67532 0.0
C2114 C 0.06867 0.48627 0.68236 0.0
C2115 C 0.09349 0.50481 0.6903 0.0
C2116 C 0.11862 0.49394 0.69129 0.0
C2117 C 0.119 0.46454 0.68422 0.0
H2118 H 0.09325 0.52759 0.69567 0.0
H2119 H 0.07223 0.23651 0.63968 0.0
H2120 H 0.68227 0.26809 0.67544 0.0
H2121 H 0.65825 0.23002 0.64435 0.0
H2122 H 0.73646 0.22012 0.61113 0.0
H2123 H 0.76089 0.25829 0.64217 0.0
H2124 H 0.68231 0.20995 0.57373 0.0
H2125 H 0.72541 0.17746 0.6551 0.0
H2126 H 0.73701 0.18146 0.70371 0.0
H2127 H 0.64992 0.16804 0.71967 0.0
H2128 H 0.63779 0.164 0.67112 0.0
H2129 H 0.60178 0.07231 0.53013 0.0
H2130 H 0.64466 0.10314 0.54928 0.0
H2131 H 0.59802 0.13024 0.6141 0.0
H2132 H 0.55592 0.0995 0.59533 0.0
H2133 H 0.64879 0.12621 0.63193 0.0
H2134 H 0.60548 0.16787 0.55404 0.0
H2135 H 0.59044 0.16659 0.50619 0.0
H2136 H 0.67448 0.16515 0.48414 0.0
H2137 H 0.68991 0.16601 0.53191 0.0
C2138 C 0.69434 0.25873 0.66087 0.0
C2139 C 0.72359 0.26571 0.66181 0.0
C2140 C 0.68054 0.23694 0.64311 0.0
C2141 C 0.69575 0.22196 0.62596 0.0
C2142 C 0.72447 0.23142 0.62437 0.0
C2143 C 0.73836 0.25325 0.64218 0.0
C2144 C 0.68231 0.19348 0.61378 0.0
C2145 C 0.67552 0.19132 0.58623 0.0
C2146 C 0.67353 0.16932 0.63025 0.0
C2147 C 0.68072 0.17051 0.65948 0.0
C2148 C 0.70874 0.17538 0.66898 0.0
C2149 C 0.7154 0.1776 0.69651 0.0
C2150 C 0.6942 0.17489 0.71476 0.0
C2151 C 0.6663 0.16991 0.70551 0.0
C2152 C 0.65952 0.16757 0.67799 0.0
C2153 C 0.60119 0.08406 0.54898 0.0
C2154 C 0.57587 0.08373 0.56144 0.0
C2155 C 0.6255 0.10179 0.55977 0.0
C2156 C 0.62442 0.11931 0.58292 0.0
C2157 C 0.59943 0.11692 0.5963 0.0
C2158 C 0.57537 0.09942 0.58558 0.0
C2159 C 0.64768 0.14287 0.59191 0.0
C2160 C 0.65643 0.14428 0.61908 0.0
C2161 C 0.65792 0.16639 0.57511 0.0
C2162 C 0.64877 0.16667 0.54647 0.0
C2163 C 0.62071 0.16718 0.53896 0.0
C2164 C 0.61212 0.1665 0.51187 0.0
C2165 C 0.63147 0.16569 0.49213 0.0
C2166 C 0.65949 0.1657 0.49945 0.0
C2167 C 0.66818 0.16628 0.52652 0.0
H2168 H 0.62477 0.16511 0.47117 0.0
H2169 H 0.69939 0.17662 0.73606 0.0
H2170 H 0.78397 0.34519 0.30619 0.0
H2171 H 0.80819 0.37748 0.34163 0.0
H2172 H 0.78236 0.31152 0.39996 0.0
H2173 H 0.75938 0.27819 0.36408 0.0
H2174 H 0.80592 0.40429 0.38672 0.0
H2175 H 0.83645 0.30478 0.44098 0.0
H2176 H 0.83754 0.25203 0.43264 0.0
H2177 H 0.84721 0.26777 0.34882 0.0
H2178 H 0.84653 0.32062 0.35676 0.0
H2179 H 0.92083 0.46372 0.47898 0.0
H2180 H 0.87555 0.43869 0.46025 0.0
H2181 H 0.91758 0.38847 0.40639 0.0
H2182 H 0.96252 0.4126 0.42567 0.0
H2183 H 0.87893 0.35358 0.42755 0.0
H2184 H 0.88462 0.44812 0.38481 0.0
H2185 H 0.88966 0.50223 0.38433 0.0
H2186 H 0.8179 0.49892 0.43198 0.0
H2187 H 0.81236 0.44466 0.43254 0.0
C2188 C 0.78278 0.33777 0.32664 0.0
C2189 C 0.77051 0.30885 0.33231 0.0
C2190 C 0.79652 0.35641 0.34698 0.0
C2191 C 0.79781 0.34661 0.37336 0.0
C2192 C 0.78227 0.31921 0.37959 0.0
C2193 C 0.76916 0.30019 0.35911 0.0
C2194 C 0.81941 0.36252 0.39257 0.0
C2195 C 0.82165 0.39316 0.39605 0.0
C2196 C 0.8403 0.34815 0.40434 0.0
C2197 C 0.84102 0.31649 0.39943 0.0
C2198 C 0.83885 0.29694 0.4208 0.0
C2199 C 0.83941 0.26705 0.41614 0.0
C2200 C 0.84232 0.25654 0.3902 0.0
C2201 C 0.84486 0.27592 0.36889 0.0
C2202 C 0.8444 0.30582 0.37345 0.0
C2203 C 0.92031 0.44766 0.4629 0.0
C2204 C 0.94507 0.44012 0.45363 0.0
C2205 C 0.89445 0.43331 0.45226 0.0
C2206 C 0.89315 0.4117 0.43189 0.0
C2207 C 0.91801 0.40479 0.42231 0.0
C2208 C 0.94368 0.41865 0.43323 0.0
C2209 C 0.8662 0.3955 0.4206 0.0
C2210 C 0.86281 0.36469 0.41894 0.0
C2211 C 0.84514 0.40993 0.40937 0.0
C2212 C 0.84828 0.44244 0.40898 0.0
C2213 C 0.87001 0.45897 0.39529 0.0
C2214 C 0.87293 0.48964 0.39497 0.0
C2215 C 0.85423 0.50405 0.40828 0.0
C2216 C 0.83242 0.48774 0.42174 0.0
C2217 C 0.82932 0.45702 0.42199 0.0
H2218 H 0.85659 0.52781 0.40809 0.0
H2219 H 0.8427 0.23339 0.38663 0.0
H2220 H 0.7507 0.84552 0.34693 0.0
H2221 H 0.72633 0.86823 0.38146 0.0
H2222 H 0.6559 0.79811 0.37025 0.0
H2223 H 0.68072 0.77462 0.3364 0.0
H2224 H 0.65002 0.86359 0.3605 0.0
H2225 H 0.68068 0.79654 0.42284 0.0
H2226 H 0.71453 0.77193 0.44781 0.0
H2227 H 0.75356 0.85476 0.48341 0.0
H2228 H 0.72068 0.88013 0.45773 0.0
H2229 H 0.55724 0.90177 0.45401 0.0
H2230 H 0.58669 0.87589 0.42746 0.0
H2231 H 0.65966 0.93504 0.45831 0.0
H2232 H 0.63014 0.96142 0.48509 0.0
H2233 H 0.66612 0.87578 0.45902 0.0
H2234 H 0.63834 0.94346 0.39699 0.0
H2235 H 0.60723 0.97032 0.3707 0.0
H2236 H 0.5651 0.8891 0.3343 0.0
H2237 H 0.59577 0.86165 0.36062 0.0
C2238 C 0.73036 0.83451 0.35248 0.0
C2239 C 0.71753 0.80832 0.33917 0.0
C2240 C 0.71651 0.84747 0.37215 0.0
C2241 C 0.68939 0.8348 0.37833 0.0
C2242 C 0.67694 0.80803 0.36582 0.0
C2243 C 0.69113 0.7946 0.34665 0.0
C2244 C 0.67289 0.85148 0.39513 0.0
C2245 C 0.65315 0.86586 0.38211 0.0
C2246 C 0.67805 0.8554 0.42311 0.0
C2247 C 0.69846 0.84034 0.43794 0.0
C2248 C 0.69685 0.80965 0.4355 0.0
C2249 C 0.71585 0.79554 0.44984 0.0
C2250 C 0.73634 0.81182 0.467 0.0
C2251 C 0.73784 0.84223 0.46989 0.0
C2252 C 0.71908 0.8565 0.45538 0.0
C2253 C 0.57954 0.90939 0.45524 0.0
C2254 C 0.59132 0.93373 0.47173 0.0
C2255 C 0.59634 0.89459 0.43992 0.0
C2256 C 0.62532 0.90364 0.44078 0.0
C2257 C 0.6373 0.92774 0.45736 0.0
C2258 C 0.62041 0.94285 0.47254 0.0
C2259 C 0.64285 0.88754 0.42442 0.0
C2260 C 0.66292 0.87345 0.43743 0.0
C2261 C 0.63829 0.88415 0.39631 0.0
C2262 C 0.61916 0.90044 0.38107 0.0
C2263 C 0.62219 0.93126 0.38367 0.0
C2264 C 0.60468 0.94661 0.36871 0.0
C2265 C 0.5841 0.93142 0.35095 0.0
C2266 C 0.58099 0.90083 0.34813 0.0
C2267 C 0.59845 0.88536 0.36306 0.0
H2268 H 0.57065 0.94335 0.33928 0.0
H2269 H 0.75095 0.80084 0.47819 0.0
H2270 H 0.15059 0.7179 0.2654 0.0
H2271 H 0.10926 0.68644 0.28156 0.0
H2272 H 0.16219 0.63565 0.32526 0.0
H2273 H 0.20335 0.66654 0.30914 0.0
H2274 H 0.1158 0.6008 0.30148 0.0
H2275 H 0.13891 0.69483 0.35449 0.0
H2276 H 0.14425 0.74904 0.35662 0.0
H2277 H 0.05977 0.74426 0.32628 0.0
H2278 H 0.05408 0.69001 0.32365 0.0
H2279 H 0.10155 0.56364 0.42991 0.0
H2280 H 0.11097 0.58969 0.38869 0.0
H2281 H 0.02355 0.59344 0.3757 0.0
H2282 H 0.01361 0.5664 0.41718 0.0
H2283 H 0.06618 0.6496 0.36922 0.0
H2284 H 0.04066 0.5527 0.33429 0.0
H2285 H 0.03749 0.49876 0.33366 0.0
H2286 H 0.12647 0.50832 0.33021 0.0
H2287 H 0.13027 0.56231 0.33125 0.0
C2288 C 0.1534 0.69978 0.27818 0.0
C2289 C 0.18029 0.69493 0.28627 0.0
C2290 C 0.12975 0.68184 0.28732 0.0
C2291 C 0.13271 0.65885 0.30467 0.0
C2292 C 0.15946 0.65321 0.31175 0.0
C2293 C 0.18301 0.67106 0.3027 0.0
C2294 C 0.10864 0.64217 0.3179 0.0
C2295 C 0.10449 0.61137 0.31595 0.0
C2296 C 0.09305 0.65608 0.33595 0.0
C2297 C 0.09619 0.6885 0.33854 0.0
C2298 C 0.12152 0.70538 0.34822 0.0
C2299 C 0.12461 0.73608 0.34949 0.0
C2300 C 0.10242 0.75007 0.34141 0.0
C2301 C 0.07697 0.73338 0.33239 0.0
C2302 C 0.0738 0.70268 0.331 0.0
C2303 C 0.08417 0.56989 0.41846 0.0
C2304 C 0.05675 0.56289 0.42691 0.0
C2305 C 0.08964 0.58476 0.39483 0.0
C2306 C 0.06791 0.59308 0.37911 0.0
C2307 C 0.04053 0.58697 0.38761 0.0
C2308 C 0.03494 0.57167 0.41131 0.0
C2309 C 0.07496 0.60832 0.35401 0.0
C2310 C 0.07606 0.63887 0.3537 0.0
C2311 C 0.08776 0.59417 0.33385 0.0
C2312 C 0.08571 0.56163 0.33278 0.0
C2313 C 0.05957 0.54332 0.33349 0.0
C2314 C 0.05766 0.51272 0.33307 0.0
C2315 C 0.08176 0.50012 0.33187 0.0
C2316 C 0.10781 0.51811 0.33106 0.0
C2317 C 0.10985 0.54873 0.3315 0.0
H2318 H 0.08024 0.47643 0.33157 0.0
H2319 H 0.10496 0.77382 0.34208 0.0
H2320 H 0.3389 0.22313 0.31331 0.0
H2321 H 0.37313 0.19955 0.3381 0.0
H2322 H 0.32396 0.11431 0.31927 0.0
H2323 H 0.28962 0.13762 0.29424 0.0
H2324 H 0.3396 0.12574 0.37443 0.0
H2325 H 0.38139 0.1326 0.28825 0.0
H2326 H 0.3996 0.15917 0.24858 0.0
H2327 H 0.46095 0.21532 0.29857 0.0
H2328 H 0.44284 0.18934 0.33861 0.0
H2329 H 0.42675 0.04124 0.43325 0.0
H2330 H 0.40375 0.05984 0.39447 0.0
H2331 H 0.45481 0.14521 0.40771 0.0
H2332 H 0.47832 0.12665 0.44645 0.0
H2333 H 0.43927 0.13308 0.35343 0.0
H2334 H 0.39785 0.13399 0.43803 0.0
H2335 H 0.38016 0.11377 0.48055 0.0
H2336 H 0.31839 0.05108 0.43721 0.0
H2337 H 0.33624 0.07041 0.39432 0.0
C2338 C 0.33536 0.19935 0.31439 0.0
C2339 C 0.3115 0.18221 0.30192 0.0
C2340 C 0.35505 0.18595 0.32836 0.0
C2341 C 0.3511 0.15525 0.33021 0.0
C2342 C 0.32735 0.13806 0.31785 0.0
C2343 C 0.30779 0.1514 0.30362 0.0
C2344 C 0.37092 0.14121 0.34647 0.0
C2345 C 0.36124 0.12678 0.36954 0.0
C2346 C 0.39939 0.14385 0.34059 0.0
C2347 C 0.4106 0.15916 0.31646 0.0
C2348 C 0.39864 0.15074 0.29081 0.0
C2349 C 0.40897 0.16567 0.26825 0.0
C2350 C 0.43137 0.18897 0.27105 0.0
C2351 C 0.44358 0.19729 0.29643 0.0
C2352 C 0.43332 0.18243 0.31906 0.0
C2353 C 0.43367 0.06375 0.42748 0.0
C2354 C 0.45369 0.08279 0.44334 0.0
C2355 C 0.42057 0.07429 0.40527 0.0
C2356 C 0.42711 0.10405 0.39879 0.0
C2357 C 0.44937 0.12221 0.4126 0.0
C2358 C 0.46269 0.11159 0.43479 0.0
C2359 C 0.40773 0.11709 0.38103 0.0
C2360 C 0.41751 0.13161 0.35798 0.0
C2361 C 0.37941 0.11531 0.38726 0.0
C2362 C 0.36865 0.10339 0.41295 0.0
C2363 C 0.38073 0.11564 0.43754 0.0
C2364 C 0.37067 0.10434 0.4617 0.0
C2365 C 0.34829 0.08101 0.46155 0.0
C2366 C 0.33587 0.06899 0.43724 0.0
C2367 C 0.34597 0.08009 0.413 0.0
H2368 H 0.34047 0.07233 0.48028 0.0
H2369 H 0.43931 0.20054 0.25357 0.0
H2370 H 0.69813 0.81345 0.67859 0.0
H2371 H 0.66797 0.84782 0.66297 0.0
H2372 H 0.59778 0.79556 0.69883 0.0
H2373 H 0.62791 0.76144 0.71515 0.0
H2374 H 0.59164 0.81547 0.64116 0.0
H2375 H 0.61651 0.84933 0.73161 0.0
H2376 H 0.64893 0.86408 0.77054 0.0
H2377 H 0.69311 0.93449 0.7259 0.0
H2378 H 0.66118 0.91988 0.68654 0.0
H2379 H 0.51416 0.91912 0.59884 0.0
H2380 H 0.53054 0.88926 0.63404 0.0
H2381 H 0.61358 0.93894 0.63007 0.0
H2382 H 0.59693 0.97014 0.59627 0.0
H2383 H 0.60651 0.91764 0.67857 0.0
H2384 H 0.58996 0.87874 0.58703 0.0
H2385 H 0.56089 0.86419 0.54581 0.0
H2386 H 0.50438 0.80358 0.59023 0.0
H2387 H 0.53303 0.81802 0.63178 0.0
C2388 C 0.6762 0.80908 0.68282 0.0
C2389 C 0.66529 0.78486 0.69805 0.0
C2390 C 0.65912 0.82881 0.67413 0.0
C2391 C 0.6309 0.82424 0.68016 0.0
C2392 C 0.61963 0.79941 0.69428 0.0
C2393 C 0.6368 0.78 0.70346 0.0
C2394 C 0.61325 0.84553 0.67142 0.0
C2395 C 0.5943 0.83761 0.6497 0.0
C2396 C 0.61735 0.87443 0.68242 0.0
C2397 C 0.63659 0.88334 0.70604 0.0
C2398 C 0.6333 0.86778 0.73 0.0
C2399 C 0.65155 0.87616 0.75217 0.0
C2400 C 0.6731 0.90016 0.75067 0.0
C2401 C 0.67641 0.91588 0.72702 0.0
C2402 C 0.65822 0.90759 0.70478 0.0
C2403 C 0.53562 0.92448 0.60633 0.0
C2404 C 0.55435 0.9466 0.59453 0.0
C2405 C 0.54497 0.90731 0.6263 0.0
C2406 C 0.57342 0.91125 0.6339 0.0
C2407 C 0.59156 0.93536 0.62429 0.0
C2408 C 0.58202 0.9531 0.60485 0.0
C2409 C 0.58515 0.8878 0.64789 0.0
C2410 C 0.60318 0.89529 0.67049 0.0
C2411 C 0.58056 0.85852 0.63745 0.0
C2412 C 0.56348 0.8496 0.61249 0.0
C2413 C 0.57129 0.86237 0.58799 0.0
C2414 C 0.55491 0.85413 0.56458 0.0
C2415 C 0.53084 0.83292 0.5654 0.0
C2416 C 0.52308 0.81993 0.58963 0.0
C2417 C 0.53937 0.82814 0.6131 0.0
H2418 H 0.51815 0.82661 0.54727 0.0
H2419 H 0.6872 0.90662 0.76786 0.0
H2420 H 0.65028 0.161 0.26401 0.0
H2421 H 0.60861 0.14189 0.28833 0.0
H2422 H 0.65589 0.16075 0.36332 0.0
H2423 H 0.69738 0.17979 0.3395 0.0
H2424 H 0.59925 0.09642 0.32617 0.0
H2425 H 0.61942 0.19316 0.4053 0.0
H2426 H 0.63698 0.24653 0.40636 0.0
H2427 H 0.61319 0.25101 0.32302 0.0
H2428 H 0.59506 0.19775 0.32151 0.0
H2429 H 0.58783 0.09037 0.46896 0.0
H2430 H 0.59899 0.11915 0.42921 0.0
H2431 H 0.51841 0.08324 0.3924 0.0
H2432 H 0.50686 0.05455 0.43274 0.0
H2433 H 0.57288 0.16031 0.39833 0.0
H2434 H 0.53799 0.06473 0.32694 0.0
H2435 H 0.52309 0.01078 0.32694 0.0
H2436 H 0.5788 0.00487 0.39482 0.0
H2437 H 0.59437 0.05863 0.39483 0.0
C2438 C 0.65185 0.16081 0.28569 0.0
C2439 C 0.67711 0.17213 0.29985 0.0
C2440 C 0.62802 0.14999 0.29947 0.0
C2441 C 0.62914 0.15067 0.32752 0.0
C2442 C 0.65454 0.16075 0.34162 0.0
C2443 C 0.67829 0.17141 0.32795 0.0
C2444 C 0.60418 0.14054 0.34271 0.0
C2445 C 0.59265 0.11057 0.34132 0.0
C2446 C 0.59556 0.15913 0.36233 0.0
C2447 C 0.60586 0.19138 0.3633 0.0
C2448 C 0.61767 0.20555 0.38724 0.0
C2449 C 0.6278 0.23579 0.38791 0.0
C2450 C 0.62622 0.25215 0.36477 0.0
C2451 C 0.61444 0.23831 0.34092 0.0
C2452 C 0.60426 0.20808 0.34014 0.0
C2453 C 0.57235 0.08894 0.45255 0.0
C2454 C 0.54674 0.06999 0.45354 0.0
C2455 C 0.57858 0.10562 0.43003 0.0
C2456 C 0.55952 0.10315 0.40796 0.0
C2457 C 0.53328 0.08538 0.40935 0.0
C2458 C 0.52679 0.06903 0.43225 0.0
C2459 C 0.56942 0.11606 0.38268 0.0
C2460 C 0.57821 0.14656 0.38219 0.0
C2461 C 0.57555 0.098 0.36136 0.0
C2462 C 0.56699 0.06564 0.3611 0.0
C2463 C 0.54709 0.05185 0.34178 0.0
C2464 C 0.53857 0.02132 0.34176 0.0
C2465 C 0.54993 0.00442 0.36092 0.0
C2466 C 0.56998 0.01798 0.38002 0.0
C2467 C 0.57867 0.04845 0.38003 0.0
H2468 H 0.54319 0.98083 0.36097 0.0
H2469 H 0.63411 0.27555 0.36532 0.0
H2470 H 0.86361 0.74648 0.29811 0.0
H2471 H 0.8928 0.71464 0.31986 0.0
H2472 H 0.81912 0.65359 0.33843 0.0
H2473 H 0.7899 0.68595 0.31786 0.0
H2474 H 0.85285 0.65756 0.37885 0.0
H2475 H 0.863 0.64222 0.28516 0.0
H2476 H 0.87313 0.65598 0.23868 0.0
H2477 H 0.95725 0.69326 0.2637 0.0
H2478 H 0.94751 0.68008 0.31042 0.0
H2479 H 0.91818 0.54105 0.41449 0.0
H2480 H 0.89506 0.56704 0.38049 0.0
H2481 H 0.96267 0.64056 0.38794 0.0
H2482 H 0.98616 0.61467 0.42189 0.0
H2483 H 0.93257 0.62796 0.33277 0.0
H2484 H 0.91681 0.64918 0.42801 0.0
H2485 H 0.90783 0.62904 0.47291 0.0
H2486 H 0.83334 0.57374 0.44129 0.0
H2487 H 0.84187 0.59371 0.39627 0.0
C2488 C 0.85366 0.72634 0.30696 0.0
C2489 C 0.82445 0.71873 0.30624 0.0
C2490 C 0.87037 0.70801 0.31921 0.0
C2491 C 0.85823 0.68133 0.33033 0.0
C2492 C 0.82904 0.67399 0.32998 0.0
C2493 C 0.81233 0.69255 0.31821 0.0
C2494 C 0.87583 0.66119 0.34264 0.0
C2495 C 0.86999 0.65092 0.36848 0.0
C2496 C 0.89849 0.65247 0.32941 0.0
C2497 C 0.90443 0.66043 0.30134 0.0
C2498 C 0.88359 0.65356 0.28079 0.0
C2499 C 0.88928 0.66122 0.25439 0.0
C2500 C 0.91579 0.67556 0.24825 0.0
C2501 C 0.93671 0.6822 0.26849 0.0
C2502 C 0.93112 0.67461 0.29493 0.0
C2503 C 0.9287 0.56226 0.40822 0.0
C2504 C 0.95371 0.57605 0.42136 0.0
C2505 C 0.91545 0.57706 0.38874 0.0
C2506 C 0.92702 0.60583 0.38208 0.0
C2507 C 0.95345 0.61835 0.39288 0.0
C2508 C 0.96672 0.60357 0.41243 0.0
C2509 C 0.90932 0.6247 0.3685 0.0
C2510 C 0.91525 0.63472 0.34275 0.0
C2511 C 0.88649 0.63289 0.38149 0.0
C2512 C 0.87989 0.623 0.4089 0.0
C2513 C 0.89837 0.63296 0.43076 0.0
C2514 C 0.89341 0.62154 0.45619 0.0
C2515 C 0.87003 0.60014 0.45996 0.0
C2516 C 0.85139 0.5904 0.43837 0.0
C2517 C 0.85617 0.60188 0.41293 0.0
H2518 H 0.86641 0.59111 0.47961 0.0
H2519 H 0.92015 0.68147 0.2278 0.0
H2520 H 0.35197 0.7965 0.34484 0.0
H2521 H 0.36549 0.82551 0.38621 0.0
H2522 H 0.27919 0.81603 0.4061 0.0
H2523 H 0.26566 0.78589 0.3651 0.0
H2524 H 0.31172 0.87718 0.40019 0.0
H2525 H 0.31169 0.78965 0.4487 0.0
H2526 H 0.32161 0.73988 0.45744 0.0
H2527 H 0.40953 0.77259 0.4579 0.0
H2528 H 0.40017 0.82248 0.44873 0.0
H2529 H 0.41698 0.93123 0.52515 0.0
H2530 H 0.37434 0.90066 0.50626 0.0
H2531 H 0.39119 0.93832 0.42879 0.0
H2532 H 0.43244 0.97019 0.44824 0.0
H2533 H 0.37763 0.85977 0.47416 0.0
H2534 H 0.34068 0.92354 0.38382 0.0
H2535 H 0.33305 0.97374 0.37369 0.0
H2536 H 0.31874 0.98949 0.45642 0.0
H2537 H 0.32609 0.9392 0.4671 0.0
C2538 C 0.33606 0.79963 0.35862 0.0
C2539 C 0.3079 0.78876 0.35215 0.0
C2540 C 0.34373 0.81624 0.38211 0.0
C2541 C 0.32328 0.82283 0.39907 0.0
C2542 C 0.2952 0.81092 0.39327 0.0
C2543 C 0.28757 0.79357 0.37007 0.0
C2544 C 0.33149 0.84503 0.42078 0.0
C2545 C 0.32572 0.87348 0.41679 0.0
C2546 C 0.34934 0.83982 0.44245 0.0
C2547 C 0.35519 0.80983 0.44792 0.0
C2548 C 0.33314 0.7862 0.45045 0.0
C2549 C 0.33867 0.75796 0.45552 0.0
C2550 C 0.36618 0.75307 0.45821 0.0
C2551 C 0.38823 0.77642 0.45584 0.0
C2552 C 0.38282 0.8047 0.45075 0.0
C2553 C 0.41058 0.93393 0.50442 0.0
C2554 C 0.42757 0.95301 0.48805 0.0
C2555 C 0.38639 0.91638 0.49358 0.0
C2556 C 0.37936 0.91705 0.46604 0.0
C2557 C 0.39548 0.93779 0.45019 0.0
C2558 C 0.41921 0.95595 0.46124 0.0
C2559 C 0.35907 0.89269 0.45301 0.0
C2560 C 0.36278 0.8637 0.45841 0.0
C2561 C 0.3394 0.89754 0.43255 0.0
C2562 C 0.33396 0.92752 0.42627 0.0
C2563 C 0.33564 0.93756 0.39985 0.0
C2564 C 0.33151 0.9661 0.39402 0.0
C2565 C 0.32545 0.98479 0.4144 0.0
C2566 C 0.32349 0.97498 0.44067 0.0
C2567 C 0.3277 0.94646 0.44664 0.0
H2568 H 0.32218 0.00682 0.40975 0.0
H2569 H 0.37042 0.73119 0.46214 0.0
H2570 H 0.18226 0.27372 0.33383 0.0
H2571 H 0.16939 0.31131 0.36327 0.0
H2572 H 0.2521 0.36191 0.36031 0.0
H2573 H 0.26539 0.32405 0.33071 0.0
H2574 H 0.22592 0.36231 0.41257 0.0
H2575 H 0.20936 0.38353 0.3209 0.0
H2576 H 0.19367 0.37158 0.27385 0.0
H2577 H 0.10972 0.34485 0.29774 0.0
H2578 H 0.12497 0.35614 0.345 0.0
H2579 H 0.14805 0.4741 0.46312 0.0
H2580 H 0.18174 0.45268 0.437 0.0
H2581 H 0.1184 0.37777 0.41578 0.0
H2582 H 0.08503 0.3985 0.44146 0.0
H2583 H 0.14644 0.40349 0.37193 0.0
H2584 H 0.16616 0.37222 0.46351 0.0
H2585 H 0.18176 0.38253 0.51083 0.0
H2586 H 0.26017 0.42939 0.48643 0.0
H2587 H 0.24485 0.41962 0.43893 0.0
C2588 C 0.19793 0.29254 0.33978 0.0
C2589 C 0.2247 0.29618 0.32959 0.0
C2590 C 0.19054 0.31398 0.35662 0.0
C2591 C 0.20967 0.33956 0.36344 0.0
C2592 C 0.23707 0.34233 0.35508 0.0
C2593 C 0.24459 0.3207 0.33821 0.0
C2594 C 0.19967 0.36416 0.37707 0.0
C2595 C 0.20904 0.37197 0.40354 0.0
C2596 C 0.17782 0.37685 0.36507 0.0
C2597 C 0.16836 0.37061 0.33655 0.0
C2598 C 0.18757 0.37496 0.31615 0.0
C2599 C 0.17876 0.3683 0.28943 0.0
C2600 C 0.15073 0.35744 0.2828 0.0
C2601 C 0.13143 0.35329 0.30289 0.0
C2602 C 0.14015 0.35986 0.32965 0.0
C2603 C 0.1414 0.45302 0.45295 0.0
C2604 C 0.11379 0.43809 0.45433 0.0
C2605 C 0.16064 0.44087 0.43808 0.0
C2606 C 0.1524 0.41379 0.42438 0.0
C2607 C 0.12505 0.39882 0.42604 0.0
C2608 C 0.10601 0.41073 0.44088 0.0
C2609 C 0.17162 0.40037 0.40791 0.0
C2610 C 0.164 0.39472 0.38072 0.0
C2611 C 0.19507 0.38988 0.41923 0.0
C2612 C 0.20424 0.39554 0.44773 0.0
C2613 C 0.18663 0.38493 0.46825 0.0
C2614 C 0.19544 0.39063 0.49509 0.0
C2615 C 0.2219 0.4067 0.50163 0.0
C2616 C 0.23965 0.41701 0.48134 0.0
C2617 C 0.23092 0.41139 0.45447 0.0
H2618 H 0.22869 0.41109 0.52242 0.0
H2619 H 0.14395 0.35227 0.26211 0.0
H2620 H 0.25568 0.2072 0.67597 0.0
H2621 H 0.28204 0.18016 0.64715 0.0
H2622 H 0.34799 0.25515 0.64655 0.0
H2623 H 0.32177 0.28252 0.67624 0.0
H2624 H 0.33366 0.22145 0.59467 0.0
H2625 H 0.35575 0.20842 0.68833 0.0
H2626 H 0.34204 0.198 0.73459 0.0
H2627 H 0.30182 0.11111 0.70975 0.0
H2628 H 0.31444 0.12136 0.66313 0.0
H2629 H 0.44361 0.14891 0.56085 0.0
H2630 H 0.41415 0.17803 0.58371 0.0
H2631 H 0.35209 0.10053 0.59188 0.0
H2632 H 0.38167 0.0708 0.56885 0.0
H2633 H 0.36331 0.13544 0.63915 0.0
H2634 H 0.33978 0.14668 0.54689 0.0
H2635 H 0.34899 0.15641 0.49947 0.0
H2636 H 0.38885 0.24453 0.52065 0.0
H2637 H 0.38033 0.23516 0.56831 0.0
C2638 C 0.27526 0.21847 0.66886 0.0
C2639 C 0.28648 0.24716 0.67795 0.0
C2640 C 0.29032 0.20288 0.65252 0.0
C2641 C 0.31676 0.21572 0.64471 0.0
C2642 C 0.32745 0.24502 0.65231 0.0
C2643 C 0.31253 0.26058 0.66919 0.0
C2644 C 0.33409 0.19723 0.63109 0.0
C2645 C 0.34059 0.20294 0.60445 0.0
C2646 C 0.34216 0.17254 0.64379 0.0
C2647 C 0.33579 0.1658 0.67211 0.0
C2648 C 0.34374 0.18719 0.69265 0.0
C2649 C 0.33606 0.18136 0.71893 0.0
C2650 C 0.32092 0.15398 0.72507 0.0
C2651 C 0.31347 0.13236 0.70494 0.0
C2652 C 0.32084 0.13818 0.67857 0.0
C2653 C 0.42373 0.13788 0.56747 0.0
C2654 C 0.41499 0.10745 0.56297 0.0
C2655 C 0.40688 0.15466 0.58048 0.0
C2656 C 0.38091 0.14146 0.58928 0.0
C2657 C 0.37211 0.11107 0.58517 0.0
C2658 C 0.38895 0.09418 0.57192 0.0
C2659 C 0.36316 0.15976 0.60269 0.0
C2660 C 0.35652 0.154 0.62934 0.0
C2661 C 0.35473 0.18424 0.58992 0.0
C2662 C 0.35965 0.19012 0.56123 0.0
C2663 C 0.35072 0.16806 0.54148 0.0
C2664 C 0.35579 0.17352 0.51455 0.0
C2665 C 0.36956 0.20105 0.50706 0.0
C2666 C 0.37822 0.2232 0.52649 0.0
C2667 C 0.37326 0.21784 0.55347 0.0
H2668 H 0.37347 0.20523 0.48619 0.0
H2669 H 0.31516 0.14945 0.74546 0.0
H2670 H 0.87665 0.37387 0.75957 0.0
H2671 H 0.91688 0.40638 0.74201 0.0
H2672 H 0.87122 0.40869 0.6664 0.0
H2673 H 0.83166 0.37561 0.68342 0.0
H2674 H 0.94159 0.3863 0.69377 0.0
H2675 H 0.88761 0.47832 0.6445 0.0
H2676 H 0.85547 0.51134 0.6578 0.0
H2677 H 0.87956 0.50296 0.74055 0.0
H2678 H 0.91229 0.47033 0.72781 0.0
H2679 H 0.93234 0.43569 0.55681 0.0
H2680 H 0.92432 0.41948 0.60255 0.0
H2681 H 0.00519 0.46669 0.62897 0.0
H2682 H 0.01344 0.48305 0.58302 0.0
H2683 H 0.93788 0.47817 0.64463 0.0
H2684 H 0.00447 0.40166 0.68855 0.0
H2685 H 0.03076 0.36168 0.67889 0.0
H2686 H 0.97754 0.33586 0.60887 0.0
H2687 H 0.95067 0.37537 0.61845 0.0
C2688 C 0.87511 0.38195 0.73942 0.0
C2689 C 0.85132 0.3722 0.72265 0.0
C2690 C 0.89799 0.40046 0.72951 0.0
C2691 C 0.89678 0.41006 0.70309 0.0
C2692 C 0.87232 0.4018 0.687 0.0
C2693 C 0.84985 0.38277 0.69661 0.0
C2694 C 0.92189 0.42461 0.69019 0.0
C2695 C 0.94161 0.40701 0.68373 0.0
C2696 C 0.92191 0.45169 0.67745 0.0
C2697 C 0.90252 0.47181 0.68515 0.0
C2698 C 0.88634 0.48373 0.66553 0.0
C2699 C 0.86793 0.50234 0.67298 0.0
C2700 C 0.86547 0.50921 0.7 0.0
C2701 C 0.88147 0.49757 0.71964 0.0
C2702 C 0.89994 0.47899 0.7123 0.0
C2703 C 0.94873 0.44189 0.57218 0.0
C2704 C 0.97343 0.4606 0.56647 0.0
C2705 C 0.94426 0.43245 0.5982 0.0
C2706 C 0.96433 0.44167 0.61892 0.0
C2707 C 0.98973 0.45898 0.61309 0.0
C2708 C 0.99433 0.4683 0.5869 0.0
C2709 C 0.95553 0.43842 0.64662 0.0
C2710 C 0.93903 0.45839 0.6558 0.0
C2711 C 0.95826 0.41338 0.66169 0.0
C2712 C 0.97602 0.3919 0.65386 0.0
C2713 C -0.00136 0.38768 0.6709 0.0
C2714 C 0.01346 0.36492 0.6656 0.0
C2715 C 0.0058 0.34619 0.64329 0.0
C2716 C 0.98347 0.3504 0.62611 0.0
C2717 C 0.96854 0.37311 0.63139 0.0
H2718 H 0.01726 0.32853 0.63925 0.0
H2719 H 0.85111 0.52348 0.70574 0.0
H2720 H 0.25893 0.71563 0.65317 0.0
H2721 H 0.23373 0.69032 0.61383 0.0
H2722 H 0.22293 0.60859 0.65591 0.0
H2723 H 0.24748 0.63417 0.69568 0.0
H2724 H 0.22601 0.60847 0.59159 0.0
H2725 H 0.17892 0.63693 0.66972 0.0
H2726 H 0.16941 0.67078 0.70552 0.0
H2727 H 0.1503 0.73202 0.64655 0.0
H2728 H 0.1612 0.69923 0.61052 0.0
H2729 H 0.08987 0.53727 0.54772 0.0
H2730 H 0.13465 0.55713 0.56985 0.0
H2731 H 0.12385 0.64481 0.54794 0.0
H2732 H 0.07852 0.62503 0.52608 0.0
H2733 H 0.13498 0.64213 0.59935 0.0
H2734 H 0.17474 0.60928 0.52069 0.0
H2735 H 0.18108 0.57332 0.48541 0.0
H2736 H 0.20994 0.5177 0.5447 0.0
H2737 H 0.20338 0.55313 0.58041 0.0
C2738 C 0.25263 0.69194 0.65342 0.0
C2739 C 0.25519 0.67666 0.67717 0.0
C2740 C 0.23819 0.67755 0.63101 0.0
C2741 C 0.22636 0.64773 0.63217 0.0
C2742 C 0.23217 0.63157 0.65466 0.0
C2743 C 0.24622 0.64613 0.67731 0.0
C2744 C 0.20274 0.63593 0.6135 0.0
C2745 C 0.20602 0.6156 0.59323 0.0
C2746 C 0.17686 0.64562 0.61565 0.0
C2747 C 0.1716 0.66596 0.63745 0.0
C2748 C 0.17349 0.65798 0.66443 0.0
C2749 C 0.16777 0.67696 0.68478 0.0
C2750 C 0.15952 0.70369 0.67836 0.0
C2751 C 0.15705 0.71151 0.65157 0.0
C2752 C 0.16316 0.69282 0.63118 0.0
C2753 C 0.09722 0.56072 0.54708 0.0
C2754 C 0.08059 0.57959 0.53519 0.0
C2755 C 0.12297 0.57203 0.55965 0.0
C2756 C 0.13278 0.60241 0.56027 0.0
C2757 C 0.11668 0.62125 0.54759 0.0
C2758 C 0.09076 0.60995 0.53522 0.0
C2759 C 0.15802 0.61477 0.57692 0.0
C2760 C 0.15501 0.63518 0.59718 0.0
C2761 C 0.18389 0.60488 0.57475 0.0
C2762 C 0.18839 0.5838 0.55326 0.0
C2763 C 0.18229 0.58931 0.52623 0.0
C2764 C 0.18594 0.56902 0.50615 0.0
C2765 C 0.19586 0.54321 0.51281 0.0
C2766 C 0.20225 0.5377 0.53957 0.0
C2767 C 0.19862 0.5579 0.55974 0.0
H2768 H 0.19862 0.52751 0.49724 0.0
H2769 H 0.15485 0.71823 0.69412 0.0
loop_
_geom_bond_atom_site_label_1
_geom_bond_atom_site_label_2
_geom_bond_distance
_geom_bond_site_symmetry_2
_ccdc_geom_bond_type
O0 Zn1 1.953 . S
O0 C16 1.225 . S
Zn1 O0 1.953 . S
Zn1 O2 1.949 . S
Zn1 O8 1.919 . S
Zn1 O13 1.924 . S
O2 Zn1 1.949 . S
O2 Zn3 1.923 . S
O2 Zn4 1.950 . S
O2 Zn5 1.945 . S
Zn3 O2 1.923 . S
Zn3 O6 1.933 . S
Zn3 O9 1.941 . S
Zn3 O10 1.965 . S
Zn4 O2 1.950 . S
Zn4 O11 1.938 . S
Zn4 O12 1.906 . S
Zn4 O22 1.953 . S
Zn5 O2 1.945 . S
Zn5 O7 1.932 . S
Zn5 O14 1.977 . S
Zn5 O15 1.910 . S
O6 Zn3 1.933 . S
O6 C17 1.226 . S
O7 Zn5 1.932 . S
O7 C17 1.307 . S
O8 Zn1 1.919 . S
O8 C19 1.253 . S
O9 Zn3 1.941 . S
O9 C19 1.283 . S
O10 Zn3 1.965 . S
O10 C18 1.303 . S
O11 Zn4 1.938 . S
O11 C18 1.247 . S
O12 Zn4 1.906 . S
O12 C20 1.304 . S
O13 Zn1 1.924 . S
O13 C21 1.311 . S
O14 Zn5 1.977 . S
O14 C20 1.272 . S
O15 Zn5 1.910 . S
O15 C21 1.231 . S
C16 O0 1.225 . S
C16 O22 1.298 . S
C17 O6 1.226 . S
C17 O7 1.307 . S
C18 O10 1.303 . S
C18 O11 1.247 . S
C19 O8 1.253 . S
C19 O9 1.283 . S
C20 O12 1.304 . S
C20 O14 1.272 . S
C21 O13 1.311 . S
C21 O15 1.231 . S
O22 Zn4 1.953 . S
O22 C16 1.298 . S
O23 Zn24 1.953 . S
O23 C39 1.225 . S
Zn24 O23 1.953 . S
Zn24 O25 1.949 . S
Zn24 O31 1.919 . S
Zn24 O36 1.924 . S
O25 Zn24 1.949 . S
O25 Zn26 1.923 . S
O25 Zn27 1.950 . S
O25 Zn28 1.945 . S
Zn26 O25 1.923 . S
Zn26 O29 1.933 . S
Zn26 O32 1.941 . S
Zn26 O33 1.965 . S
Zn27 O25 1.950 . S
Zn27 O34 1.938 . S
Zn27 O35 1.906 . S
Zn27 O45 1.953 . S
Zn28 O25 1.945 . S
Zn28 O30 1.932 . S
Zn28 O37 1.977 . S
Zn28 O38 1.910 . S
O29 Zn26 1.933 . S
O29 C40 1.226 . S
O30 Zn28 1.932 . S
O30 C40 1.307 . S
O31 Zn24 1.919 . S
O31 C42 1.253 . S
O32 Zn26 1.941 . S
O32 C42 1.283 . S
O33 Zn26 1.965 . S
O33 C41 1.303 . S
O34 Zn27 1.938 . S
O34 C41 1.247 . S
O35 Zn27 1.906 . S
O35 C43 1.304 . S
O36 Zn24 1.924 . S
O36 C44 1.311 . S
O37 Zn28 1.977 . S
O37 C43 1.272 . S
O38 Zn28 1.910 . S
O38 C44 1.231 . S
C39 O23 1.225 . S
C39 O45 1.298 . S
C40 O29 1.226 . S
C40 O30 1.307 . S
C41 O33 1.303 . S
C41 O34 1.247 . S
C42 O31 1.253 . S
C42 O32 1.283 . S
C43 O35 1.304 . S
C43 O37 1.272 . S
C44 O36 1.311 . S
C44 O38 1.231 . S
O45 Zn27 1.953 . S
O45 C39 1.298 . S
O46 Zn47 1.953 . S
O46 C62 1.225 . S
Zn47 O46 1.953 . S
Zn47 O48 1.949 . S
Zn47 O54 1.919 . S
Zn47 O59 1.924 . S
O48 Zn47 1.949 . S
O48 Zn49 1.923 . S
O48 Zn50 1.950 . S
O48 Zn51 1.945 . S
Zn49 O48 1.923 . S
Zn49 O52 1.933 . S
Zn49 O55 1.941 . S
Zn49 O56 1.965 . S
Zn50 O48 1.950 . S
Zn50 O57 1.938 . S
Zn50 O58 1.906 . S
Zn50 O68 1.953 . S
Zn51 O48 1.945 . S
Zn51 O53 1.932 . S
Zn51 O60 1.977 . S
Zn51 O61 1.910 . S
O52 Zn49 1.933 . S
O52 C63 1.226 . S
O53 Zn51 1.932 . S
O53 C63 1.307 . S
O54 Zn47 1.919 . S
O54 C65 1.253 . S
O55 Zn49 1.941 . S
O55 C65 1.283 . S
O56 Zn49 1.965 . S
O56 C64 1.303 . S
O57 Zn50 1.938 . S
O57 C64 1.247 . S
O58 Zn50 1.906 . S
O58 C66 1.304 . S
O59 Zn47 1.924 . S
O59 C67 1.311 . S
O60 Zn51 1.977 . S
O60 C66 1.272 . S
O61 Zn51 1.910 . S
O61 C67 1.231 . S
C62 O46 1.225 . S
C62 O68 1.298 . S
C63 O52 1.226 . S
C63 O53 1.307 . S
C64 O56 1.303 . S
C64 O57 1.247 . S
C65 O54 1.253 . S
C65 O55 1.283 . S
C66 O58 1.304 . S
C66 O60 1.272 . S
C67 O59 1.311 . S
C67 O61 1.231 . S
O68 Zn50 1.953 . S
O68 C62 1.298 . S
O69 Zn70 1.953 . S
O69 C85 1.225 . S
Zn70 O69 1.953 . S
Zn70 O71 1.949 . S
Zn70 O77 1.919 . S
Zn70 O82 1.924 . S
O71 Zn70 1.949 . S
O71 Zn72 1.923 . S
O71 Zn73 1.950 . S
O71 Zn74 1.945 . S
Zn72 O71 1.923 . S
Zn72 O75 1.933 . S
Zn72 O78 1.941 . S
Zn72 O79 1.965 . S
Zn73 O71 1.950 . S
Zn73 O80 1.938 . S
Zn73 O81 1.906 . S
Zn73 O91 1.953 . S
Zn74 O71 1.945 . S
Zn74 O76 1.932 . S
Zn74 O83 1.977 . S
Zn74 O84 1.910 . S
O75 Zn72 1.933 . S
O75 C86 1.226 . S
O76 Zn74 1.932 . S
O76 C86 1.307 . S
O77 Zn70 1.919 . S
O77 C88 1.253 . S
O78 Zn72 1.941 . S
O78 C88 1.283 . S
O79 Zn72 1.965 . S
O79 C87 1.303 . S
O80 Zn73 1.938 . S
O80 C87 1.247 . S
O81 Zn73 1.906 . S
O81 C89 1.304 . S
O82 Zn70 1.924 . S
O82 C90 1.311 . S
O83 Zn74 1.977 . S
O83 C89 1.272 . S
O84 Zn74 1.910 . S
O84 C90 1.231 . S
C85 O69 1.225 . S
C85 O91 1.298 . S
C86 O75 1.226 . S
C86 O76 1.307 . S
C87 O79 1.303 . S
C87 O80 1.247 . S
C88 O77 1.253 . S
C88 O78 1.283 . S
C89 O81 1.304 . S
C89 O83 1.272 . S
C90 O82 1.311 . S
C90 O84 1.231 . S
O91 Zn73 1.953 . S
O91 C85 1.298 . S
O92 Zn93 1.953 . S
O92 C108 1.225 . S
Zn93 O92 1.953 . S
Zn93 O94 1.949 . S
Zn93 O100 1.919 . S
Zn93 O105 1.924 . S
O94 Zn93 1.949 . S
O94 Zn95 1.923 . S
O94 Zn96 1.950 . S
O94 Zn97 1.945 . S
Zn95 O94 1.923 . S
Zn95 O98 1.933 . S
Zn95 O101 1.941 . S
Zn95 O102 1.965 . S
Zn96 O94 1.950 . S
Zn96 O103 1.938 . S
Zn96 O104 1.906 . S
Zn96 O114 1.953 . S
Zn97 O94 1.945 . S
Zn97 O99 1.932 . S
Zn97 O106 1.977 . S
Zn97 O107 1.910 . S
O98 Zn95 1.933 . S
O98 C109 1.226 . S
O99 Zn97 1.932 . S
O99 C109 1.307 . S
O100 Zn93 1.919 . S
O100 C111 1.253 . S
O101 Zn95 1.941 . S
O101 C111 1.283 . S
O102 Zn95 1.965 . S
O102 C110 1.303 . S
O103 Zn96 1.938 . S
O103 C110 1.247 . S
O104 Zn96 1.906 . S
O104 C112 1.304 . S
O105 Zn93 1.924 . S
O105 C113 1.311 . S
O106 Zn97 1.977 . S
O106 C112 1.272 . S
O107 Zn97 1.910 . S
O107 C113 1.231 . S
C108 O92 1.225 . S
C108 O114 1.298 . S
C109 O98 1.226 . S
C109 O99 1.307 . S
C110 O102 1.303 . S
C110 O103 1.247 . S
C111 O100 1.253 . S
C111 O101 1.283 . S
C112 O104 1.304 . S
C112 O106 1.272 . S
C113 O105 1.311 . S
C113 O107 1.231 . S
O114 Zn96 1.953 . S
O114 C108 1.298 . S
O115 Zn116 1.953 . S
O115 C131 1.225 . S
Zn116 O115 1.953 . S
Zn116 O117 1.949 . S
Zn116 O123 1.919 . S
Zn116 O128 1.924 . S
O117 Zn116 1.949 . S
O117 Zn118 1.923 . S
O117 Zn119 1.950 . S
O117 Zn120 1.945 . S
Zn118 O117 1.923 . S
Zn118 O121 1.933 . S
Zn118 O124 1.941 . S
Zn118 O125 1.965 . S
Zn119 O117 1.950 . S
Zn119 O126 1.938 . S
Zn119 O127 1.906 . S
Zn119 O137 1.953 . S
Zn120 O117 1.945 . S
Zn120 O122 1.932 . S
Zn120 O129 1.977 . S
Zn120 O130 1.910 . S
O121 Zn118 1.933 . S
O121 C132 1.226 . S
O122 Zn120 1.932 . S
O122 C132 1.307 . S
O123 Zn116 1.919 . S
O123 C134 1.253 . S
O124 Zn118 1.941 . S
O124 C134 1.283 . S
O125 Zn118 1.965 . S
O125 C133 1.303 . S
O126 Zn119 1.938 . S
O126 C133 1.247 . S
O127 Zn119 1.906 . S
O127 C135 1.304 . S
O128 Zn116 1.924 . S
O128 C136 1.311 . S
O129 Zn120 1.977 . S
O129 C135 1.272 . S
O130 Zn120 1.910 . S
O130 C136 1.231 . S
C131 O115 1.225 . S
C131 O137 1.298 . S
C132 O121 1.226 . S
C132 O122 1.307 . S
C133 O125 1.303 . S
C133 O126 1.247 . S
C134 O123 1.253 . S
C134 O124 1.283 . S
C135 O127 1.304 . S
C135 O129 1.272 . S
C136 O128 1.311 . S
C136 O130 1.231 . S
O137 Zn119 1.953 . S
O137 C131 1.298 . S
O138 Zn139 1.953 . S
O138 C154 1.225 . S
Zn139 O138 1.953 . S
Zn139 O140 1.949 . S
Zn139 O146 1.919 . S
Zn139 O151 1.924 . S
O140 Zn139 1.949 . S
O140 Zn141 1.923 . S
O140 Zn142 1.950 . S
O140 Zn143 1.945 . S
Zn141 O140 1.923 . S
Zn141 O144 1.933 . S
Zn141 O147 1.941 . S
Zn141 O148 1.965 . S
Zn142 O140 1.950 . S
Zn142 O149 1.938 . S
Zn142 O150 1.906 . S
Zn142 O160 1.953 . S
Zn143 O140 1.945 . S
Zn143 O145 1.932 . S
Zn143 O152 1.977 . S
Zn143 O153 1.910 . S
O144 Zn141 1.933 . S
O144 C155 1.226 . S
O145 Zn143 1.932 . S
O145 C155 1.307 . S
O146 Zn139 1.919 . S
O146 C157 1.253 . S
O147 Zn141 1.941 . S
O147 C157 1.283 . S
O148 Zn141 1.965 . S
O148 C156 1.303 . S
O149 Zn142 1.938 . S
O149 C156 1.247 . S
O150 Zn142 1.906 . S
O150 C158 1.304 . S
O151 Zn139 1.924 . S
O151 C159 1.311 . S
O152 Zn143 1.977 . S
O152 C158 1.272 . S
O153 Zn143 1.910 . S
O153 C159 1.231 . S
C154 O138 1.225 . S
C154 O160 1.298 . S
C155 O144 1.226 . S
C155 O145 1.307 . S
C156 O148 1.303 . S
C156 O149 1.247 . S
C157 O146 1.253 . S
C157 O147 1.283 . S
C158 O150 1.304 . S
C158 O152 1.272 . S
C159 O151 1.311 . S
C159 O153 1.231 . S
O160 Zn142 1.953 . S
O160 C154 1.298 . S
O161 Zn162 1.953 . S
O161 C177 1.225 . S
Zn162 O161 1.953 . S
Zn162 O163 1.949 . S
Zn162 O169 1.919 . S
Zn162 O174 1.924 . S
O163 Zn162 1.949 . S
O163 Zn164 1.923 . S
O163 Zn165 1.950 . S
O163 Zn166 1.945 . S
Zn164 O163 1.923 . S
Zn164 O167 1.933 . S
Zn164 O170 1.941 . S
Zn164 O171 1.965 . S
Zn165 O163 1.950 . S
Zn165 O172 1.938 . S
Zn165 O173 1.906 . S
Zn165 O183 1.953 . S
Zn166 O163 1.945 . S
Zn166 O168 1.932 . S
Zn166 O175 1.977 . S
Zn166 O176 1.910 . S
O167 Zn164 1.933 . S
O167 C178 1.226 . S
O168 Zn166 1.932 . S
O168 C178 1.307 . S
O169 Zn162 1.919 . S
O169 C180 1.253 . S
O170 Zn164 1.941 . S
O170 C180 1.283 . S
O171 Zn164 1.965 . S
O171 C179 1.303 . S
O172 Zn165 1.938 . S
O172 C179 1.247 . S
O173 Zn165 1.906 . S
O173 C181 1.304 . S
O174 Zn162 1.924 . S
O174 C182 1.311 . S
O175 Zn166 1.977 . S
O175 C181 1.272 . S
O176 Zn166 1.910 . S
O176 C182 1.231 . S
C177 O161 1.225 . S
C177 O183 1.298 . S
C178 O167 1.226 . S
C178 O168 1.307 . S
C179 O171 1.303 . S
C179 O172 1.247 . S
C180 O169 1.253 . S
C180 O170 1.283 . S
C181 O173 1.304 . S
C181 O175 1.272 . S
C182 O174 1.311 . S
C182 O176 1.231 . S
O183 Zn165 1.953 . S
O183 C177 1.298 . S
C184 O196 1.241 . S
C184 O197 1.280 . S
C185 O198 1.277 . S
C185 O199 1.245 . S
C186 O210 1.247 . S
C186 O212 1.289 . S
Mg187 O188 1.926 . S
Mg187 O197 1.984 . S
Mg187 O199 1.988 . S
Mg187 O200 2.061 1_655 S
O188 Mg187 1.926 . S
O188 Mg189 1.986 . S
O188 Mg190 1.917 1_655 S
Mg189 O188 1.986 . S
Mg189 O196 2.042 . S
Mg189 O198 2.041 . S
Mg189 O204 2.038 1_545 S
Mg189 O212 2.238 1_545 S
Mg190 O188 1.917 1_455 S
Mg190 O191 1.917 1_545 S
Mg190 O201 2.106 . S
Mg190 O203 2.079 1_445 S
Mg190 O212 2.106 1_445 S
Mg190 O213 2.079 . S
O191 Mg190 1.917 1_565 S
O191 Mg192 1.926 . S
O191 Mg193 1.986 1_565 S
Mg192 O191 1.926 . S
Mg192 O206 1.984 . S
Mg192 O209 1.988 . S
Mg192 O210 2.061 1_455 S
Mg193 O191 1.986 1_545 S
Mg193 O201 2.238 . S
Mg193 O205 2.042 1_545 S
Mg193 O207 2.041 1_545 S
Mg193 O214 2.038 . S
C194 O200 1.247 . S
C194 O201 1.289 . S
C195 O213 1.245 . S
C195 O214 1.274 . S
O196 C184 1.241 . S
O196 Mg189 2.042 . S
O197 C184 1.280 . S
O197 Mg187 1.984 . S
O198 C185 1.277 . S
O198 Mg189 2.041 . S
O199 C185 1.245 . S
O199 Mg187 1.988 . S
O200 Mg187 2.061 1_455 S
O200 C194 1.247 . S
O201 Mg190 2.106 . S
O201 Mg193 2.238 . S
O201 C194 1.289 . S
C202 O203 1.245 . S
C202 O204 1.274 . S
O203 Mg190 2.079 1_665 S
O203 C202 1.245 . S
O204 Mg189 2.038 1_565 S
O204 C202 1.274 . S
O205 Mg193 2.042 1_565 S
O205 C208 1.241 . S
O206 Mg192 1.984 . S
O206 C208 1.280 . S
O207 Mg193 2.041 1_565 S
O207 C211 1.277 . S
C208 O205 1.241 . S
C208 O206 1.280 . S
O209 Mg192 1.988 . S
O209 C211 1.245 . S
O210 C186 1.247 . S
O210 Mg192 2.061 1_655 S
C211 O207 1.277 . S
C211 O209 1.245 . S
O212 C186 1.289 . S
O212 Mg189 2.238 1_565 S
O212 Mg190 2.106 1_665 S
O213 Mg190 2.079 . S
O213 C195 1.245 . S
O214 Mg193 2.038 . S
O214 C195 1.274 . S
C215 O227 1.241 . S
C215 O228 1.280 . S
C216 O229 1.277 . S
C216 O230 1.245 . S
C217 O241 1.247 . S
C217 O243 1.289 . S
Mg218 O219 1.926 . S
Mg218 O228 1.984 . S
Mg218 O230 1.988 1_554 S
Mg218 O231 2.061 . S
O219 Mg218 1.926 . S
O219 Mg220 1.986 . S
O219 Mg221 1.917 . S
Mg220 O219 1.986 . S
Mg220 O227 2.042 . S
Mg220 O229 2.041 1_554 S
Mg220 O235 2.038 1_545 S
Mg220 O243 2.238 1_544 S
Mg221 O219 1.917 . S
Mg221 O222 1.917 1_545 S
Mg221 O232 2.106 . S
Mg221 O234 2.079 1_545 S
Mg221 O243 2.106 1_544 S
Mg221 O244 2.079 1_554 S
O222 Mg221 1.917 1_565 S
O222 Mg223 1.926 . S
O222 Mg224 1.986 . S
Mg223 O222 1.926 . S
Mg223 O237 1.984 1_554 S
Mg223 O240 1.988 . S
Mg223 O241 2.061 1_554 S
Mg224 O222 1.986 . S
Mg224 O232 2.238 1_565 S
Mg224 O236 2.042 1_554 S
Mg224 O238 2.041 . S
Mg224 O245 2.038 1_564 S
C225 O231 1.247 . S
C225 O232 1.289 . S
C226 O244 1.245 . S
C226 O245 1.274 . S
O227 C215 1.241 . S
O227 Mg220 2.042 . S
O228 C215 1.280 . S
O228 Mg218 1.984 . S
O229 C216 1.277 . S
O229 Mg220 2.041 1_556 S
O230 C216 1.245 . S
O230 Mg218 1.988 1_556 S
O231 Mg218 2.061 . S
O231 C225 1.247 . S
O232 Mg221 2.106 . S
O232 Mg224 2.238 1_545 S
O232 C225 1.289 . S
C233 O234 1.245 . S
C233 O235 1.274 . S
O234 Mg221 2.079 1_565 S
O234 C233 1.245 . S
O235 Mg220 2.038 1_565 S
O235 C233 1.274 . S
O236 Mg224 2.042 1_556 S
O236 C239 1.241 . S
O237 Mg223 1.984 1_556 S
O237 C239 1.280 . S
O238 Mg224 2.041 . S
O238 C242 1.277 . S
C239 O236 1.241 . S
C239 O237 1.280 . S
O240 Mg223 1.988 . S
O240 C242 1.245 . S
O241 C217 1.247 . S
O241 Mg223 2.061 1_556 S
C242 O238 1.277 . S
C242 O240 1.245 . S
O243 C217 1.289 . S
O243 Mg220 2.238 1_566 S
O243 Mg221 2.106 1_566 S
O244 Mg221 2.079 1_556 S
O244 C226 1.245 . S
O245 Mg224 2.038 1_546 S
O245 C226 1.274 . S
C246 O258 1.241 . S
C246 O259 1.280 . S
C247 O260 1.277 . S
C247 O261 1.245 . S
C248 O272 1.247 . S
C248 O274 1.289 . S
Mg249 O250 1.926 . S
Mg249 O259 1.984 . S
Mg249 O261 1.988 1_554 S
Mg249 O262 2.061 1_655 S
O250 Mg249 1.926 . S
O250 Mg251 1.986 . S
O250 Mg252 1.917 1_655 S
Mg251 O250 1.986 . S
Mg251 O258 2.042 . S
Mg251 O260 2.041 1_554 S
Mg251 O266 2.038 . S
Mg251 O274 2.238 1_554 S
Mg252 O250 1.917 1_455 S
Mg252 O253 1.917 1_554 S
Mg252 O263 2.106 . S
Mg252 O265 2.079 1_455 S
Mg252 O274 2.106 1_454 S
Mg252 O275 2.079 1_554 S
O253 Mg252 1.917 1_556 S
O253 Mg254 1.926 . S
O253 Mg255 1.986 1_556 S
Mg254 O253 1.926 . S
Mg254 O268 1.984 . S
Mg254 O271 1.988 1_556 S
Mg254 O272 2.061 1_455 S
Mg255 O253 1.986 1_554 S
Mg255 O263 2.238 . S
Mg255 O267 2.042 1_554 S
Mg255 O269 2.041 . S
Mg255 O276 2.038 1_554 S
C256 O262 1.247 . S
C256 O263 1.289 . S
C257 O275 1.245 . S
C257 O276 1.274 . S
O258 C246 1.241 . S
O258 Mg251 2.042 . S
O259 C246 1.280 . S
O259 Mg249 1.984 . S
O260 C247 1.277 . S
O260 Mg251 2.041 1_556 S
O261 C247 1.245 . S
O261 Mg249 1.988 1_556 S
O262 Mg249 2.061 1_455 S
O262 C256 1.247 . S
O263 Mg252 2.106 . S
O263 Mg255 2.238 . S
O263 C256 1.289 . S
C264 O265 1.245 . S
C264 O266 1.274 . S
O265 Mg252 2.079 1_655 S
O265 C264 1.245 . S
O266 Mg251 2.038 . S
O266 C264 1.274 . S
O267 Mg255 2.042 1_556 S
O267 C270 1.241 . S
O268 Mg254 1.984 . S
O268 C270 1.280 . S
O269 Mg255 2.041 . S
O269 C273 1.277 . S
C270 O267 1.241 . S
C270 O268 1.280 . S
O271 Mg254 1.988 1_554 S
O271 C273 1.245 . S
O272 C248 1.247 . S
O272 Mg254 2.061 1_655 S
C273 O269 1.277 . S
C273 O271 1.245 . S
O274 C248 1.289 . S
O274 Mg251 2.238 1_556 S
O274 Mg252 2.106 1_656 S
O275 Mg252 2.079 1_556 S
O275 C257 1.245 . S
O276 Mg255 2.038 1_556 S
O276 C257 1.274 . S
C277 O289 1.241 . S
C277 O290 1.280 . S
C278 O291 1.277 . S
C278 O292 1.245 . S
C279 O303 1.247 . S
C279 O305 1.289 . S
Mg280 O281 1.926 . S
Mg280 O290 1.984 . S
Mg280 O292 1.988 1_554 S
Mg280 O293 2.061 . S
O281 Mg280 1.926 . S
O281 Mg282 1.986 . S
O281 Mg283 1.917 . S
Mg282 O281 1.986 . S
Mg282 O289 2.042 . S
Mg282 O291 2.041 1_554 S
Mg282 O297 2.038 . S
Mg282 O305 2.238 1_554 S
Mg283 O281 1.917 . S
Mg283 O284 1.917 . S
Mg283 O294 2.106 . S
Mg283 O296 2.079 . S
Mg283 O305 2.106 1_554 S
Mg283 O306 2.079 1_554 S
O284 Mg283 1.917 . S
O284 Mg285 1.926 1_554 S
O284 Mg286 1.986 . S
Mg285 O284 1.926 1_556 S
Mg285 O299 1.989 . S
Mg285 O302 1.981 1_556 S
Mg285 O303 2.064 . S
Mg286 O284 1.986 . S
Mg286 O294 2.238 . S
Mg286 O298 2.042 1_554 S
Mg286 O300 2.041 . S
Mg286 O307 2.038 1_554 S
C287 O293 1.247 . S
C287 O294 1.289 . S
C288 O306 1.245 . S
C288 O307 1.274 . S
O289 C277 1.241 . S
O289 Mg282 2.042 . S
O290 C277 1.280 . S
O290 Mg280 1.984 . S
O291 C278 1.277 . S
O291 Mg282 2.041 1_556 S
O292 C278 1.245 . S
O292 Mg280 1.988 1_556 S
O293 Mg280 2.061 . S
O293 C287 1.247 . S
O294 Mg283 2.106 . S
O294 Mg286 2.238 . S
O294 C287 1.289 . S
C295 O296 1.245 . S
C295 O297 1.274 . S
O296 Mg283 2.079 . S
O296 C295 1.245 . S
O297 Mg282 2.038 . S
O297 C295 1.274 . S
O298 Mg286 2.042 1_556 S
O298 C301 1.241 . S
O299 Mg285 1.989 . S
O299 C301 1.280 . S
O300 Mg286 2.041 . S
O300 C304 1.277 . S
C301 O298 1.241 . S
C301 O299 1.280 . S
O302 Mg285 1.981 1_554 S
O302 C304 1.245 . S
O303 C279 1.247 . S
O303 Mg285 2.064 . S
C304 O300 1.277 . S
C304 O302 1.245 . S
O305 C279 1.289 . S
O305 Mg282 2.238 1_556 S
O305 Mg283 2.106 1_556 S
O306 Mg283 2.079 1_556 S
O306 C288 1.245 . S
O307 Mg286 2.038 1_556 S
O307 C288 1.274 . S
C308 O320 1.241 . S
C308 O321 1.280 . S
C309 O322 1.277 . S
C309 O323 1.245 . S
C310 O334 1.247 . S
C310 O336 1.289 . S
Mg311 O312 1.926 . S
Mg311 O321 1.984 . S
Mg311 O323 1.988 . S
Mg311 O324 2.061 1_655 S
O312 Mg311 1.926 . S
O312 Mg313 1.986 . S
O312 Mg314 1.917 1_655 S
Mg313 O312 1.986 . S
Mg313 O320 2.042 . S
Mg313 O322 2.041 . S
Mg313 O328 2.038 . S
Mg313 O336 2.238 . S
Mg314 O312 1.917 1_455 S
Mg314 O315 1.917 . S
Mg314 O325 2.106 . S
Mg314 O327 2.079 1_455 S
Mg314 O336 2.106 1_455 S
Mg314 O337 2.079 . S
O315 Mg314 1.917 . S
O315 Mg316 1.926 . S
O315 Mg317 1.986 . S
Mg316 O315 1.926 . S
Mg316 O330 1.984 . S
Mg316 O333 1.988 . S
Mg316 O334 2.061 1_455 S
Mg317 O315 1.986 . S
Mg317 O325 2.238 . S
Mg317 O329 2.042 . S
Mg317 O331 2.041 . S
Mg317 O338 2.038 . S
C318 O324 1.247 . S
C318 O325 1.289 . S
C319 O337 1.245 . S
C319 O338 1.274 . S
O320 C308 1.241 . S
O320 Mg313 2.042 . S
O321 C308 1.280 . S
O321 Mg311 1.984 . S
O322 C309 1.277 . S
O322 Mg313 2.041 . S
O323 C309 1.245 . S
O323 Mg311 1.988 . S
O324 Mg311 2.061 1_455 S
O324 C318 1.247 . S
O325 Mg314 2.106 . S
O325 Mg317 2.238 . S
O325 C318 1.289 . S
C326 O327 1.245 . S
C326 O328 1.274 . S
O327 Mg314 2.079 1_655 S
O327 C326 1.245 . S
O328 Mg313 2.038 . S
O328 C326 1.274 . S
O329 Mg317 2.042 . S
O329 C332 1.241 . S
O330 Mg316 1.984 . S
O330 C332 1.280 . S
O331 Mg317 2.041 . S
O331 C335 1.277 . S
C332 O329 1.241 . S
C332 O330 1.280 . S
O333 Mg316 1.988 . S
O333 C335 1.245 . S
O334 C310 1.247 . S
O334 Mg316 2.061 1_655 S
C335 O331 1.277 . S
C335 O333 1.245 . S
O336 C310 1.289 . S
O336 Mg313 2.238 . S
O336 Mg314 2.106 1_655 S
O337 Mg314 2.079 . S
O337 C319 1.245 . S
O338 Mg317 2.038 . S
O338 C319 1.274 . S
C339 O351 1.241 . S
C339 O352 1.280 . S
C340 O353 1.277 . S
C340 O354 1.245 . S
C341 O365 1.247 . S
C341 O367 1.289 . S
Mg342 O343 1.926 . S
Mg342 O352 1.984 . S
Mg342 O354 1.988 . S
Mg342 O355 2.061 . S
O343 Mg342 1.926 . S
O343 Mg344 1.986 . S
O343 Mg345 1.917 . S
Mg344 O343 1.986 . S
Mg344 O351 2.042 . S
Mg344 O353 2.041 . S
Mg344 O359 2.038 1_545 S
Mg344 O367 2.238 1_545 S
Mg345 O343 1.917 . S
Mg345 O346 1.917 1_545 S
Mg345 O356 2.106 . S
Mg345 O358 2.079 1_545 S
Mg345 O367 2.106 1_545 S
Mg345 O368 2.079 . S
O346 Mg345 1.917 1_565 S
O346 Mg347 1.926 . S
O346 Mg348 1.986 1_565 S
Mg347 O346 1.926 . S
Mg347 O361 1.984 . S
Mg347 O364 1.988 . S
Mg347 O365 2.061 . S
Mg348 O346 1.986 1_545 S
Mg348 O356 2.238 . S
Mg348 O360 2.042 1_545 S
Mg348 O362 2.041 1_545 S
Mg348 O369 2.038 . S
C349 O355 1.247 . S
C349 O356 1.289 . S
C350 O368 1.245 . S
C350 O369 1.274 . S
O351 C339 1.241 . S
O351 Mg344 2.042 . S
O352 C339 1.280 . S
O352 Mg342 1.984 . S
O353 C340 1.277 . S
O353 Mg344 2.041 . S
O354 C340 1.245 . S
O354 Mg342 1.988 . S
O355 Mg342 2.061 . S
O355 C349 1.247 . S
O356 Mg345 2.106 . S
O356 Mg348 2.238 . S
O356 C349 1.289 . S
C357 O358 1.245 . S
C357 O359 1.274 . S
O358 Mg345 2.079 1_565 S
O358 C357 1.245 . S
O359 Mg344 2.038 1_565 S
O359 C357 1.274 . S
O360 Mg348 2.042 1_565 S
O360 C363 1.241 . S
O361 Mg347 1.984 . S
O361 C363 1.280 . S
O362 Mg348 2.041 1_565 S
O362 C366 1.277 . S
C363 O360 1.241 . S
C363 O361 1.280 . S
O364 Mg347 1.988 . S
O364 C366 1.245 . S
O365 C341 1.247 . S
O365 Mg347 2.061 . S
C366 O362 1.277 . S
C366 O364 1.245 . S
O367 C341 1.289 . S
O367 Mg344 2.238 1_565 S
O367 Mg345 2.106 1_565 S
O368 Mg345 2.079 . S
O368 C350 1.245 . S
O369 Mg348 2.038 . S
O369 C350 1.274 . S
H370 C388 0.951 . S
H371 C390 0.951 . S
H372 C392 0.950 . S
H373 C393 0.950 . S
H374 C395 0.950 . S
H375 C398 0.950 . S
H376 C399 0.950 . S
H377 C401 0.950 . S
H378 C402 0.950 . S
H379 C403 0.951 . S
H380 C405 0.951 . S
H381 C407 0.950 . S
H382 C408 0.950 . S
H383 C410 0.950 . S
H384 C413 0.950 . S
H385 C414 0.950 1_565 S
H386 C416 0.950 . S
H387 C417 0.950 . S
C388 H370 0.951 . S
C388 C389 1.366 . S
C388 C390 1.388 . S
C389 C388 1.366 . S
C389 C393 1.385 . S
C390 H371 0.951 . S
C390 C388 1.388 . S
C390 C391 1.366 . S
C391 C390 1.366 . S
C391 C392 1.414 . S
C391 C394 1.499 . S
C392 H372 0.950 . S
C392 C391 1.414 . S
C392 C393 1.374 . S
C393 H373 0.950 . S
C393 C389 1.385 . S
C393 C392 1.374 . S
C394 C391 1.499 . S
C394 C395 1.373 . S
C394 C396 1.389 . S
C395 H374 0.950 . S
C395 C394 1.373 . S
C395 C411 1.377 . S
C396 C394 1.389 . S
C396 C397 1.524 . S
C396 C410 1.377 . S
C397 C396 1.524 . S
C397 C398 1.397 . S
C397 C402 1.363 . S
C398 H375 0.950 . S
C398 C397 1.397 . S
C398 C399 1.334 . S
C399 H376 0.950 . S
C399 C398 1.334 . S
C399 C400 1.287 . S
C400 C399 1.287 . S
C400 C401 1.524 . S
C400 H419 0.913 . S
C401 H377 0.950 . S
C401 C400 1.524 . S
C401 C402 1.415 . S
C402 H378 0.950 . S
C402 C397 1.363 . S
C402 C401 1.415 . S
C403 H379 0.951 . S
C403 C404 1.366 . S
C403 C405 1.388 . S
C404 C403 1.366 . S
C404 C408 1.385 . S
C405 H380 0.951 . S
C405 C403 1.388 . S
C405 C406 1.366 . S
C406 C405 1.366 . S
C406 C407 1.414 . S
C406 C409 1.499 . S
C407 H381 0.950 . S
C407 C406 1.414 . S
C407 C408 1.374 . S
C408 H382 0.950 . S
C408 C404 1.385 . S
C408 C407 1.374 . S
C409 C406 1.499 . S
C409 C410 1.373 . S
C409 C411 1.389 . S
C410 H383 0.950 . S
C410 C396 1.377 . S
C410 C409 1.373 . S
C411 C395 1.377 . S
C411 C409 1.389 . S
C411 C412 1.524 . S
C412 C411 1.524 . S
C412 C413 1.397 . S
C412 C417 1.363 . S
C413 H384 0.950 . S
C413 C412 1.397 . S
C413 C414 1.334 . S
C414 H385 0.950 1_545 S
C414 C413 1.334 . S
C414 C415 1.269 1_545 S
C415 C414 1.269 1_565 S
C415 C416 1.508 1_565 S
C415 H418 1.039 . S
C416 H386 0.950 . S
C416 C415 1.508 1_545 S
C416 C417 1.415 . S
C417 H387 0.950 . S
C417 C412 1.363 . S
C417 C416 1.415 . S
H418 C415 1.039 . S
H419 C400 0.913 . S
H420 C438 0.951 . S
H421 C440 0.951 . S
H422 C442 0.950 . S
H423 C443 0.950 . S
H424 C445 0.950 . S
H425 C448 0.950 . S
H426 C449 0.950 . S
H427 C451 0.950 . S
H428 C452 0.950 . S
H429 C453 0.951 . S
H430 C455 0.951 . S
H431 C457 0.950 . S
H432 C458 0.950 . S
H433 C460 0.950 . S
H434 C463 0.950 . S
H435 C464 0.950 . S
H436 C466 0.950 . S
H437 C467 0.950 . S
C438 H420 0.951 . S
C438 C439 1.366 . S
C438 C440 1.388 . S
C439 C438 1.366 . S
C439 C443 1.385 . S
C440 H421 0.951 . S
C440 C438 1.388 . S
C440 C441 1.366 . S
C441 C440 1.366 . S
C441 C442 1.414 . S
C441 C444 1.499 . S
C442 H422 0.950 . S
C442 C441 1.414 . S
C442 C443 1.374 . S
C443 H423 0.950 . S
C443 C439 1.385 . S
C443 C442 1.374 . S
C444 C441 1.499 . S
C444 C445 1.373 . S
C444 C446 1.389 . S
C445 H424 0.950 . S
C445 C444 1.373 . S
C445 C461 1.377 . S
C446 C444 1.389 . S
C446 C447 1.524 . S
C446 C460 1.377 . S
C447 C446 1.524 . S
C447 C448 1.397 . S
C447 C452 1.363 . S
C448 H425 0.950 . S
C448 C447 1.397 . S
C448 C449 1.334 . S
C449 H426 0.950 . S
C449 C448 1.334 . S
C449 C450 1.287 . S
C450 C449 1.287 . S
C450 C451 1.524 . S
C450 H469 0.913 . S
C451 H427 0.950 . S
C451 C450 1.524 . S
C451 C452 1.415 . S
C452 H428 0.950 . S
C452 C447 1.363 . S
C452 C451 1.415 . S
C453 H429 0.951 . S
C453 C454 1.366 . S
C453 C455 1.388 . S
C454 C453 1.366 . S
C454 C458 1.385 . S
C455 H430 0.951 . S
C455 C453 1.388 . S
C455 C456 1.366 . S
C456 C455 1.366 . S
C456 C457 1.414 . S
C456 C459 1.499 . S
C457 H431 0.950 . S
C457 C456 1.414 . S
C457 C458 1.374 . S
C458 H432 0.950 . S
C458 C454 1.385 . S
C458 C457 1.374 . S
C459 C456 1.499 . S
C459 C460 1.373 . S
C459 C461 1.389 . S
C460 H433 0.950 . S
C460 C446 1.377 . S
C460 C459 1.373 . S
C461 C445 1.377 . S
C461 C459 1.389 . S
C461 C462 1.524 . S
C462 C461 1.524 . S
C462 C463 1.397 . S
C462 C467 1.363 . S
C463 H434 0.950 . S
C463 C462 1.397 . S
C463 C464 1.334 . S
C464 H435 0.950 . S
C464 C463 1.334 . S
C464 C465 1.287 . S
C465 C464 1.287 . S
C465 C466 1.524 . S
C465 H468 0.999 . S
C466 H436 0.950 . S
C466 C465 1.524 . S
C466 C467 1.415 . S
C467 H437 0.950 . S
C467 C462 1.363 . S
C467 C466 1.415 . S
H468 C465 0.999 . S
H469 C450 0.913 . S
H470 C488 0.951 . S
H471 C490 0.951 . S
H472 C492 0.950 . S
H473 C493 0.950 . S
H474 C495 0.950 . S
H475 C498 0.950 . S
H476 C499 0.950 . S
H477 C501 0.950 . S
H478 C502 0.950 . S
H479 C503 0.951 . S
H480 C505 0.951 . S
H481 C507 0.950 . S
H482 C508 0.950 . S
H483 C510 0.950 . S
H484 C513 0.950 . S
H485 C514 0.950 . S
H486 C516 0.950 . S
H487 C517 0.950 . S
C488 H470 0.951 . S
C488 C489 1.366 . S
C488 C490 1.388 . S
C489 C488 1.366 . S
C489 C493 1.385 . S
C490 H471 0.951 . S
C490 C488 1.388 . S
C490 C491 1.366 . S
C491 C490 1.366 . S
C491 C492 1.414 . S
C491 C494 1.499 . S
C492 H472 0.950 . S
C492 C491 1.414 . S
C492 C493 1.374 . S
C493 H473 0.950 . S
C493 C489 1.385 . S
C493 C492 1.374 . S
C494 C491 1.499 . S
C494 C495 1.373 . S
C494 C496 1.389 . S
C495 H474 0.950 . S
C495 C494 1.373 . S
C495 C511 1.377 . S
C496 C494 1.389 . S
C496 C497 1.524 . S
C496 C510 1.377 . S
C497 C496 1.524 . S
C497 C498 1.397 . S
C497 C502 1.363 . S
C498 H475 0.950 . S
C498 C497 1.397 . S
C498 C499 1.334 . S
C499 H476 0.950 . S
C499 C498 1.334 . S
C499 C500 1.287 . S
C500 C499 1.287 . S
C500 C501 1.524 . S
C500 H519 0.913 . S
C501 H477 0.950 . S
C501 C500 1.524 . S
C501 C502 1.415 . S
C502 H478 0.950 . S
C502 C497 1.363 . S
C502 C501 1.415 . S
C503 H479 0.951 . S
C503 C504 1.366 . S
C503 C505 1.388 . S
C504 C503 1.366 . S
C504 C508 1.385 . S
C505 H480 0.951 . S
C505 C503 1.388 . S
C505 C506 1.366 . S
C506 C505 1.366 . S
C506 C507 1.414 . S
C506 C509 1.499 . S
C507 H481 0.950 . S
C507 C506 1.414 . S
C507 C508 1.374 . S
C508 H482 0.950 . S
C508 C504 1.385 . S
C508 C507 1.374 . S
C509 C506 1.499 . S
C509 C510 1.373 . S
C509 C511 1.389 . S
C510 H483 0.950 . S
C510 C496 1.377 . S
C510 C509 1.373 . S
C511 C495 1.377 . S
C511 C509 1.389 . S
C511 C512 1.524 . S
C512 C511 1.524 . S
C512 C513 1.397 . S
C512 C517 1.363 . S
C513 H484 0.950 . S
C513 C512 1.397 . S
C513 C514 1.334 . S
C514 H485 0.950 . S
C514 C513 1.334 . S
C514 C515 1.287 . S
C515 C514 1.287 . S
C515 C516 1.524 . S
C515 H518 0.999 . S
C516 H486 0.950 . S
C516 C515 1.524 . S
C516 C517 1.415 . S
C517 H487 0.950 . S
C517 C512 1.363 . S
C517 C516 1.415 . S
H518 C515 0.999 . S
H519 C500 0.913 . S
H520 C538 0.951 . S
H521 C540 0.951 . S
H522 C542 0.950 . S
H523 C543 0.950 . S
H524 C545 0.950 . S
H525 C548 0.950 . S
H526 C549 0.950 . S
H527 C551 0.950 . S
H528 C552 0.950 . S
H529 C553 0.951 . S
H530 C555 0.951 . S
H531 C557 0.950 . S
H532 C558 0.950 . S
H533 C560 0.950 . S
H534 C563 0.950 . S
H535 C564 0.950 . S
H536 C566 0.950 . S
H537 C567 0.950 . S
C538 H520 0.951 . S
C538 C539 1.366 . S
C538 C540 1.388 . S
C539 C538 1.366 . S
C539 C543 1.385 . S
C540 H521 0.951 . S
C540 C538 1.388 . S
C540 C541 1.366 . S
C541 C540 1.366 . S
C541 C542 1.414 . S
C541 C544 1.499 . S
C542 H522 0.950 . S
C542 C541 1.414 . S
C542 C543 1.374 . S
C543 H523 0.950 . S
C543 C539 1.385 . S
C543 C542 1.374 . S
C544 C541 1.499 . S
C544 C545 1.373 . S
C544 C546 1.389 . S
C545 H524 0.950 . S
C545 C544 1.373 . S
C545 C561 1.377 . S
C546 C544 1.389 . S
C546 C547 1.524 . S
C546 C560 1.377 . S
C547 C546 1.524 . S
C547 C548 1.397 . S
C547 C552 1.363 . S
C548 H525 0.950 . S
C548 C547 1.397 . S
C548 C549 1.334 . S
C549 H526 0.950 . S
C549 C548 1.334 . S
C549 C550 1.287 . S
C550 C549 1.287 . S
C550 C551 1.524 . S
C550 H569 0.913 . S
C551 H527 0.950 . S
C551 C550 1.524 . S
C551 C552 1.415 . S
C552 H528 0.950 . S
C552 C547 1.363 . S
C552 C551 1.415 . S
C553 H529 0.951 . S
C553 C554 1.366 . S
C553 C555 1.388 . S
C554 C553 1.366 . S
C554 C558 1.385 . S
C555 H530 0.951 . S
C555 C553 1.388 . S
C555 C556 1.366 . S
C556 C555 1.366 . S
C556 C557 1.414 . S
C556 C559 1.499 . S
C557 H531 0.950 . S
C557 C556 1.414 . S
C557 C558 1.374 . S
C558 H532 0.950 . S
C558 C554 1.385 . S
C558 C557 1.374 . S
C559 C556 1.499 . S
C559 C560 1.373 . S
C559 C561 1.389 . S
C560 H533 0.950 . S
C560 C546 1.377 . S
C560 C559 1.373 . S
C561 C545 1.377 . S
C561 C559 1.389 . S
C561 C562 1.524 . S
C562 C561 1.524 . S
C562 C563 1.397 . S
C562 C567 1.363 . S
C563 H534 0.950 . S
C563 C562 1.397 . S
C563 C564 1.334 . S
C564 H535 0.950 . S
C564 C563 1.334 . S
C564 C565 1.287 . S
C565 C564 1.287 . S
C565 C566 1.524 . S
C565 H568 0.999 . S
C566 H536 0.950 . S
C566 C565 1.524 . S
C566 C567 1.415 . S
C567 H537 0.950 . S
C567 C562 1.363 . S
C567 C566 1.415 . S
H568 C565 0.999 . S
H569 C550 0.913 . S
H570 C588 0.951 . S
H571 C590 0.951 . S
H572 C592 0.950 . S
H573 C593 0.950 . S
H574 C595 0.950 . S
H575 C598 0.950 . S
H576 C599 0.950 . S
H577 C601 0.950 . S
H578 C602 0.950 . S
H579 C603 0.951 . S
H580 C605 0.951 . S
H581 C607 0.950 . S
H582 C608 0.950 . S
H583 C610 0.950 . S
H584 C613 0.950 . S
H585 C614 0.950 . S
H586 C616 0.950 . S
H587 C617 0.950 . S
C588 H570 0.951 . S
C588 C589 1.366 . S
C588 C590 1.388 . S
C589 C588 1.366 . S
C589 C593 1.385 . S
C590 H571 0.951 . S
C590 C588 1.388 . S
C590 C591 1.366 . S
C591 C590 1.366 . S
C591 C592 1.414 . S
C591 C594 1.499 . S
C592 H572 0.950 . S
C592 C591 1.414 . S
C592 C593 1.374 . S
C593 H573 0.950 . S
C593 C589 1.385 . S
C593 C592 1.374 . S
C594 C591 1.499 . S
C594 C595 1.373 . S
C594 C596 1.389 . S
C595 H574 0.950 . S
C595 C594 1.373 . S
C595 C611 1.377 . S
C596 C594 1.389 . S
C596 C597 1.524 . S
C596 C610 1.377 . S
C597 C596 1.524 . S
C597 C598 1.397 . S
C597 C602 1.363 . S
C598 H575 0.950 . S
C598 C597 1.397 . S
C598 C599 1.334 . S
C599 H576 0.950 . S
C599 C598 1.334 . S
C599 C600 1.287 . S
C600 C599 1.287 . S
C600 C601 1.524 . S
C600 H619 0.913 . S
C601 H577 0.950 . S
C601 C600 1.524 . S
C601 C602 1.415 . S
C602 H578 0.950 . S
C602 C597 1.363 . S
C602 C601 1.415 . S
C603 H579 0.951 . S
C603 C604 1.366 . S
C603 C605 1.388 . S
C604 C603 1.366 . S
C604 C608 1.385 . S
C605 H580 0.951 . S
C605 C603 1.388 . S
C605 C606 1.366 . S
C606 C605 1.366 . S
C606 C607 1.414 . S
C606 C609 1.499 . S
C607 H581 0.950 . S
C607 C606 1.414 . S
C607 C608 1.374 . S
C608 H582 0.950 . S
C608 C604 1.385 . S
C608 C607 1.374 . S
C609 C606 1.499 . S
C609 C610 1.373 . S
C609 C611 1.389 . S
C610 H583 0.950 . S
C610 C596 1.377 . S
C610 C609 1.373 . S
C611 C595 1.377 . S
C611 C609 1.389 . S
C611 C612 1.524 . S
C612 C611 1.524 . S
C612 C613 1.397 . S
C612 C617 1.363 . S
C613 H584 0.950 . S
C613 C612 1.397 . S
C613 C614 1.334 . S
C614 H585 0.950 . S
C614 C613 1.334 . S
C614 C615 1.287 . S
C615 C614 1.287 . S
C615 C616 1.524 . S
C615 H618 0.999 . S
C616 H586 0.950 . S
C616 C615 1.524 . S
C616 C617 1.415 . S
C617 H587 0.950 . S
C617 C612 1.363 . S
C617 C616 1.415 . S
H618 C615 0.999 . S
H619 C600 0.913 . S
H620 C638 0.951 . S
H621 C640 0.951 . S
H622 C642 0.950 . S
H623 C643 0.950 . S
H624 C645 0.950 . S
H625 C648 0.950 . S
H626 C649 0.950 . S
H627 C651 0.950 . S
H628 C652 0.950 . S
H629 C653 0.951 . S
H630 C655 0.951 . S
H631 C657 0.950 . S
H632 C658 0.950 . S
H633 C660 0.950 . S
H634 C663 0.950 . S
H635 C664 0.950 . S
H636 C666 0.950 . S
H637 C667 0.950 . S
C638 H620 0.951 . S
C638 C639 1.366 . S
C638 C640 1.388 . S
C639 C638 1.366 . S
C639 C643 1.385 . S
C640 H621 0.951 . S
C640 C638 1.388 . S
C640 C641 1.366 . S
C641 C640 1.366 . S
C641 C642 1.414 . S
C641 C644 1.499 . S
C642 H622 0.950 . S
C642 C641 1.414 . S
C642 C643 1.374 . S
C643 H623 0.950 . S
C643 C639 1.385 . S
C643 C642 1.374 . S
C644 C641 1.499 . S
C644 C645 1.373 . S
C644 C646 1.389 . S
C645 H624 0.950 . S
C645 C644 1.373 . S
C645 C661 1.377 . S
C646 C644 1.389 . S
C646 C647 1.524 . S
C646 C660 1.377 . S
C647 C646 1.524 . S
C647 C648 1.397 . S
C647 C652 1.363 . S
C648 H625 0.950 . S
C648 C647 1.397 . S
C648 C649 1.334 . S
C649 H626 0.950 . S
C649 C648 1.334 . S
C649 C650 1.287 . S
C650 C649 1.287 . S
C650 C651 1.524 . S
C650 H669 0.913 . S
C651 H627 0.950 . S
C651 C650 1.524 . S
C651 C652 1.415 . S
C652 H628 0.950 . S
C652 C647 1.363 . S
C652 C651 1.415 . S
C653 H629 0.951 . S
C653 C654 1.366 . S
C653 C655 1.388 . S
C654 C653 1.366 . S
C654 C658 1.385 . S
C655 H630 0.951 . S
C655 C653 1.388 . S
C655 C656 1.366 . S
C656 C655 1.366 . S
C656 C657 1.414 . S
C656 C659 1.499 . S
C657 H631 0.950 . S
C657 C656 1.414 . S
C657 C658 1.374 . S
C658 H632 0.950 . S
C658 C654 1.385 . S
C658 C657 1.374 . S
C659 C656 1.499 . S
C659 C660 1.373 . S
C659 C661 1.389 . S
C660 H633 0.950 . S
C660 C646 1.377 . S
C660 C659 1.373 . S
C661 C645 1.377 . S
C661 C659 1.389 . S
C661 C662 1.524 . S
C662 C661 1.524 . S
C662 C663 1.397 . S
C662 C667 1.363 . S
C663 H634 0.950 . S
C663 C662 1.397 . S
C663 C664 1.334 . S
C664 H635 0.950 . S
C664 C663 1.334 . S
C664 C665 1.287 . S
C665 C664 1.287 . S
C665 C666 1.524 . S
C665 H668 0.999 1_455 S
C666 H636 0.950 . S
C666 C665 1.524 . S
C666 C667 1.415 . S
C667 H637 0.950 . S
C667 C662 1.363 . S
C667 C666 1.415 . S
H668 C665 0.999 1_655 S
H669 C650 0.913 . S
H670 C688 0.951 . S
H671 C690 0.951 . S
H672 C692 0.950 . S
H673 C693 0.950 . S
H674 C695 0.950 . S
H675 C698 0.950 . S
H676 C699 0.950 . S
H677 C701 0.950 . S
H678 C702 0.950 . S
H679 C703 0.951 . S
H680 C705 0.951 . S
H681 C707 0.950 . S
H682 C708 0.950 . S
H683 C710 0.950 . S
H684 C713 0.950 . S
H685 C714 0.950 . S
H686 C716 0.950 . S
H687 C717 0.950 . S
C688 H670 0.951 . S
C688 C689 1.366 . S
C688 C690 1.388 . S
C689 C688 1.366 . S
C689 C693 1.385 . S
C690 H671 0.951 . S
C690 C688 1.388 . S
C690 C691 1.366 . S
C691 C690 1.366 . S
C691 C692 1.414 . S
C691 C694 1.499 . S
C692 H672 0.950 . S
C692 C691 1.414 . S
C692 C693 1.374 . S
C693 H673 0.950 . S
C693 C689 1.385 . S
C693 C692 1.374 . S
C694 C691 1.499 . S
C694 C695 1.373 . S
C694 C696 1.389 . S
C695 H674 0.950 . S
C695 C694 1.373 . S
C695 C711 1.377 . S
C696 C694 1.389 . S
C696 C697 1.524 . S
C696 C710 1.377 . S
C697 C696 1.524 . S
C697 C698 1.397 . S
C697 C702 1.363 . S
C698 H675 0.950 . S
C698 C697 1.397 . S
C698 C699 1.334 . S
C699 H676 0.950 . S
C699 C698 1.334 . S
C699 C700 1.287 . S
C700 C699 1.287 . S
C700 C701 1.524 . S
C700 H719 0.913 . S
C701 H677 0.950 . S
C701 C700 1.524 . S
C701 C702 1.415 . S
C702 H678 0.950 . S
C702 C697 1.363 . S
C702 C701 1.415 . S
C703 H679 0.951 . S
C703 C704 1.366 . S
C703 C705 1.388 . S
C704 C703 1.366 . S
C704 C708 1.385 . S
C705 H680 0.951 . S
C705 C703 1.388 . S
C705 C706 1.366 . S
C706 C705 1.366 . S
C706 C707 1.414 . S
C706 C709 1.499 . S
C707 H681 0.950 . S
C707 C706 1.414 . S
C707 C708 1.374 . S
C708 H682 0.950 . S
C708 C704 1.385 . S
C708 C707 1.374 . S
C709 C706 1.499 . S
C709 C710 1.373 . S
C709 C711 1.389 . S
C710 H683 0.950 . S
C710 C696 1.377 . S
C710 C709 1.373 . S
C711 C695 1.377 . S
C711 C709 1.389 . S
C711 C712 1.524 . S
C712 C711 1.524 . S
C712 C713 1.397 . S
C712 C717 1.363 . S
C713 H684 0.950 . S
C713 C712 1.397 . S
C713 C714 1.334 . S
C714 H685 0.950 . S
C714 C713 1.334 . S
C714 C715 1.287 . S
C715 C714 1.287 . S
C715 C716 1.524 . S
C715 H718 0.999 . S
C716 H686 0.950 . S
C716 C715 1.524 . S
C716 C717 1.415 . S
C717 H687 0.950 . S
C717 C712 1.363 . S
C717 C716 1.415 . S
H718 C715 0.999 . S
H719 C700 0.913 . S
H720 C738 0.951 . S
H721 C740 0.951 . S
H722 C742 0.950 . S
H723 C743 0.950 . S
H724 C745 0.950 . S
H725 C748 0.950 . S
H726 C749 0.950 . S
H727 C751 0.950 . S
H728 C752 0.950 . S
H729 C753 0.951 . S
H730 C755 0.951 . S
H731 C757 0.950 . S
H732 C758 0.950 . S
H733 C760 0.950 . S
H734 C763 0.950 . S
H735 C764 0.950 . S
H736 C766 0.950 . S
H737 C767 0.950 . S
C738 H720 0.951 . S
C738 C739 1.366 . S
C738 C740 1.388 . S
C739 C738 1.366 . S
C739 C743 1.385 . S
C740 H721 0.951 . S
C740 C738 1.388 . S
C740 C741 1.366 . S
C741 C740 1.366 . S
C741 C742 1.414 . S
C741 C744 1.499 . S
C742 H722 0.950 . S
C742 C741 1.414 . S
C742 C743 1.374 . S
C743 H723 0.950 . S
C743 C739 1.385 . S
C743 C742 1.374 . S
C744 C741 1.499 . S
C744 C745 1.373 . S
C744 C746 1.389 . S
C745 H724 0.950 . S
C745 C744 1.373 . S
C745 C761 1.377 . S
C746 C744 1.389 . S
C746 C747 1.524 . S
C746 C760 1.377 . S
C747 C746 1.524 . S
C747 C748 1.397 . S
C747 C752 1.363 . S
C748 H725 0.950 . S
C748 C747 1.397 . S
C748 C749 1.334 . S
C749 H726 0.950 . S
C749 C748 1.334 . S
C749 C750 1.287 . S
C750 C749 1.287 . S
C750 C751 1.524 . S
C750 H769 0.913 . S
C751 H727 0.950 . S
C751 C750 1.524 . S
C751 C752 1.415 . S
C752 H728 0.950 . S
C752 C747 1.363 . S
C752 C751 1.415 . S
C753 H729 0.951 . S
C753 C754 1.366 . S
C753 C755 1.388 . S
C754 C753 1.366 . S
C754 C758 1.385 . S
C755 H730 0.951 . S
C755 C753 1.388 . S
C755 C756 1.366 . S
C756 C755 1.366 . S
C756 C757 1.414 . S
C756 C759 1.499 . S
C757 H731 0.950 . S
C757 C756 1.414 . S
C757 C758 1.374 . S
C758 H732 0.950 . S
C758 C754 1.385 . S
C758 C757 1.374 . S
C759 C756 1.499 . S
C759 C760 1.373 . S
C759 C761 1.389 . S
C760 H733 0.950 . S
C760 C746 1.377 . S
C760 C759 1.373 . S
C761 C745 1.377 . S
C761 C759 1.389 . S
C761 C762 1.524 . S
C762 C761 1.524 . S
C762 C763 1.397 . S
C762 C767 1.363 . S
C763 H734 0.950 . S
C763 C762 1.397 . S
C763 C764 1.334 . S
C764 H735 0.950 . S
C764 C763 1.334 . S
C764 C765 1.287 . S
C765 C764 1.287 . S
C765 C766 1.524 . S
C765 H768 0.999 . S
C766 H736 0.950 . S
C766 C765 1.524 . S
C766 C767 1.415 . S
C767 H737 0.950 . S
C767 C762 1.363 . S
C767 C766 1.415 . S
H768 C765 0.999 . S
H769 C750 0.913 . S
H770 C788 0.951 . S
H771 C790 0.951 . S
H772 C792 0.950 . S
H773 C793 0.950 . S
H774 C795 0.950 . S
H775 C798 0.950 . S
H776 C799 0.950 . S
H777 C801 0.950 . S
H778 C802 0.950 . S
H779 C803 0.951 . S
H780 C805 0.951 . S
H781 C807 0.950 . S
H782 C808 0.950 . S
H783 C810 0.950 . S
H784 C813 0.950 . S
H785 C814 0.950 . S
H786 C816 0.950 . S
H787 C817 0.950 . S
C788 H770 0.951 . S
C788 C789 1.366 . S
C788 C790 1.388 . S
C789 C788 1.366 . S
C789 C793 1.385 . S
C790 H771 0.951 . S
C790 C788 1.388 . S
C790 C791 1.366 . S
C791 C790 1.366 . S
C791 C792 1.414 . S
C791 C794 1.499 . S
C792 H772 0.950 . S
C792 C791 1.414 . S
C792 C793 1.374 . S
C793 H773 0.950 . S
C793 C789 1.385 . S
C793 C792 1.374 . S
C794 C791 1.499 . S
C794 C795 1.373 . S
C794 C796 1.389 . S
C795 H774 0.950 . S
C795 C794 1.373 . S
C795 C811 1.377 . S
C796 C794 1.389 . S
C796 C797 1.524 . S
C796 C810 1.377 . S
C797 C796 1.524 . S
C797 C798 1.397 . S
C797 C802 1.363 . S
C798 H775 0.950 . S
C798 C797 1.397 . S
C798 C799 1.334 . S
C799 H776 0.950 . S
C799 C798 1.334 . S
C799 C800 1.287 . S
C800 C799 1.287 . S
C800 C801 1.524 . S
C800 H819 0.913 . S
C801 H777 0.950 . S
C801 C800 1.524 . S
C801 C802 1.415 . S
C802 H778 0.950 . S
C802 C797 1.363 . S
C802 C801 1.415 . S
C803 H779 0.951 . S
C803 C804 1.366 . S
C803 C805 1.388 . S
C804 C803 1.366 . S
C804 C808 1.385 . S
C805 H780 0.951 . S
C805 C803 1.388 . S
C805 C806 1.366 . S
C806 C805 1.366 . S
C806 C807 1.414 . S
C806 C809 1.499 . S
C807 H781 0.950 . S
C807 C806 1.414 . S
C807 C808 1.374 . S
C808 H782 0.950 . S
C808 C804 1.385 . S
C808 C807 1.374 . S
C809 C806 1.499 . S
C809 C810 1.373 . S
C809 C811 1.389 . S
C810 H783 0.950 . S
C810 C796 1.377 . S
C810 C809 1.373 . S
C811 C795 1.377 . S
C811 C809 1.389 . S
C811 C812 1.524 . S
C812 C811 1.524 . S
C812 C813 1.397 . S
C812 C817 1.363 . S
C813 H784 0.950 . S
C813 C812 1.397 . S
C813 C814 1.334 . S
C814 H785 0.950 . S
C814 C813 1.334 . S
C814 C815 1.287 . S
C815 C814 1.287 . S
C815 C816 1.524 . S
C815 H818 0.999 . S
C816 H786 0.950 . S
C816 C815 1.524 . S
C816 C817 1.415 . S
C817 H787 0.950 . S
C817 C812 1.363 . S
C817 C816 1.415 . S
H818 C815 0.999 . S
H819 C800 0.913 . S
H820 C838 0.951 . S
H821 C840 0.951 . S
H822 C842 0.950 . S
H823 C843 0.950 . S
H824 C845 0.950 . S
H825 C848 0.950 . S
H826 C849 0.950 . S
H827 C851 0.950 . S
H828 C852 0.950 . S
H829 C853 0.951 . S
H830 C855 0.951 . S
H831 C857 0.950 . S
H832 C858 0.950 . S
H833 C860 0.950 . S
H834 C863 0.950 . S
H835 C864 0.950 1_455 S
H836 C866 0.940 1_455 S
H837 C867 0.950 . S
C838 H820 0.951 . S
C838 C839 1.366 . S
C838 C840 1.388 . S
C839 C838 1.366 . S
C839 C843 1.385 . S
C840 H821 0.951 . S
C840 C838 1.388 . S
C840 C841 1.366 . S
C841 C840 1.366 . S
C841 C842 1.414 . S
C841 C844 1.499 . S
C842 H822 0.950 . S
C842 C841 1.414 . S
C842 C843 1.374 . S
C843 H823 0.950 . S
C843 C839 1.385 . S
C843 C842 1.374 . S
C844 C841 1.499 . S
C844 C845 1.373 . S
C844 C846 1.389 . S
C845 H824 0.950 . S
C845 C844 1.373 . S
C845 C861 1.377 . S
C846 C844 1.389 . S
C846 C847 1.524 . S
C846 C860 1.377 . S
C847 C846 1.524 . S
C847 C848 1.397 . S
C847 C852 1.363 . S
C848 H825 0.950 . S
C848 C847 1.397 . S
C848 C849 1.334 . S
C849 H826 0.950 . S
C849 C848 1.334 . S
C849 C850 1.287 . S
C850 C849 1.287 . S
C850 C851 1.524 . S
C850 H869 0.913 . S
C851 H827 0.950 . S
C851 C850 1.524 . S
C851 C852 1.415 . S
C852 H828 0.950 . S
C852 C847 1.363 . S
C852 C851 1.415 . S
C853 H829 0.951 . S
C853 C854 1.366 . S
C853 C855 1.388 . S
C854 C853 1.366 . S
C854 C858 1.385 . S
C855 H830 0.951 . S
C855 C853 1.388 . S
C855 C856 1.366 . S
C856 C855 1.366 . S
C856 C857 1.414 . S
C856 C859 1.499 . S
C857 H831 0.950 . S
C857 C856 1.414 . S
C857 C858 1.374 . S
C858 H832 0.950 . S
C858 C854 1.385 . S
C858 C857 1.374 . S
C859 C856 1.499 . S
C859 C860 1.373 . S
C859 C861 1.389 . S
C860 H833 0.950 . S
C860 C846 1.377 . S
C860 C859 1.373 . S
C861 C845 1.377 . S
C861 C859 1.389 . S
C861 C862 1.524 . S
C862 C861 1.524 . S
C862 C863 1.397 . S
C862 C867 1.363 . S
C863 H834 0.950 . S
C863 C862 1.397 . S
C863 C864 1.334 . S
C864 H835 0.950 1_655 S
C864 C863 1.334 . S
C864 C865 1.287 1_655 S
C865 C864 1.287 1_455 S
C865 C866 1.522 1_455 S
C865 H868 0.999 . S
C866 H836 0.940 1_655 S
C866 C865 1.522 1_655 S
C866 C867 1.428 . S
C867 H837 0.950 . S
C867 C862 1.363 . S
C867 C866 1.428 . S
H868 C865 0.999 . S
H869 C850 0.913 . S
H870 C888 0.951 . S
H871 C890 0.951 . S
H872 C892 0.950 . S
H873 C893 0.950 . S
H874 C895 0.950 . S
H875 C898 0.950 . S
H876 C899 0.950 . S
H877 C901 0.950 . S
H878 C902 0.950 . S
H879 C903 0.951 . S
H880 C905 0.951 . S
H881 C907 0.950 . S
H882 C908 0.950 . S
H883 C910 0.950 . S
H884 C913 0.950 . S
H885 C914 0.950 . S
H886 C916 0.950 . S
H887 C917 0.950 . S
C888 H870 0.951 . S
C888 C889 1.366 . S
C888 C890 1.388 . S
C889 C888 1.366 . S
C889 C893 1.385 . S
C890 H871 0.951 . S
C890 C888 1.388 . S
C890 C891 1.366 . S
C891 C890 1.366 . S
C891 C892 1.414 . S
C891 C894 1.499 . S
C892 H872 0.950 . S
C892 C891 1.414 . S
C892 C893 1.374 . S
C893 H873 0.950 . S
C893 C889 1.385 . S
C893 C892 1.374 . S
C894 C891 1.499 . S
C894 C895 1.373 . S
C894 C896 1.389 . S
C895 H874 0.950 . S
C895 C894 1.373 . S
C895 C911 1.377 . S
C896 C894 1.389 . S
C896 C897 1.524 . S
C896 C910 1.377 . S
C897 C896 1.524 . S
C897 C898 1.397 . S
C897 C902 1.363 . S
C898 H875 0.950 . S
C898 C897 1.397 . S
C898 C899 1.334 . S
C899 H876 0.950 . S
C899 C898 1.334 . S
C899 C900 1.287 . S
C900 C899 1.287 . S
C900 C901 1.524 . S
C900 H919 0.913 . S
C901 H877 0.950 . S
C901 C900 1.524 . S
C901 C902 1.415 . S
C902 H878 0.950 . S
C902 C897 1.363 . S
C902 C901 1.415 . S
C903 H879 0.951 . S
C903 C904 1.366 . S
C903 C905 1.388 . S
C904 C903 1.366 . S
C904 C908 1.385 . S
C905 H880 0.951 . S
C905 C903 1.388 . S
C905 C906 1.366 . S
C906 C905 1.366 . S
C906 C907 1.414 . S
C906 C909 1.499 . S
C907 H881 0.950 . S
C907 C906 1.414 . S
C907 C908 1.374 . S
C908 H882 0.950 . S
C908 C904 1.385 . S
C908 C907 1.374 . S
C909 C906 1.499 . S
C909 C910 1.373 . S
C909 C911 1.389 . S
C910 H883 0.950 . S
C910 C896 1.377 . S
C910 C909 1.373 . S
C911 C895 1.377 . S
C911 C909 1.389 . S
C911 C912 1.524 . S
C912 C911 1.524 . S
C912 C913 1.397 . S
C912 C917 1.363 . S
C913 H884 0.950 . S
C913 C912 1.397 . S
C913 C914 1.334 . S
C914 H885 0.950 . S
C914 C913 1.334 . S
C914 C915 1.287 . S
C915 C914 1.287 . S
C915 C916 1.524 . S
C915 H918 0.999 . S
C916 H886 0.950 . S
C916 C915 1.524 . S
C916 C917 1.415 . S
C917 H887 0.950 . S
C917 C912 1.363 . S
C917 C916 1.415 . S
H918 C915 0.999 . S
H919 C900 0.913 . S
H920 C938 0.951 . S
H921 C940 0.951 . S
H922 C942 0.950 . S
H923 C943 0.950 . S
H924 C945 0.950 . S
H925 C948 0.950 . S
H926 C949 0.950 . S
H927 C951 0.950 . S
H928 C952 0.950 . S
H929 C953 0.951 . S
H930 C955 0.951 . S
H931 C957 0.950 . S
H932 C958 0.950 . S
H933 C960 0.950 . S
H934 C963 0.950 . S
H935 C964 0.950 . S
H936 C966 0.950 . S
H937 C967 0.950 . S
C938 H920 0.951 . S
C938 C939 1.366 . S
C938 C940 1.388 . S
C939 C938 1.366 . S
C939 C943 1.385 . S
C940 H921 0.951 . S
C940 C938 1.388 . S
C940 C941 1.366 . S
C941 C940 1.366 . S
C941 C942 1.414 . S
C941 C944 1.499 . S
C942 H922 0.950 . S
C942 C941 1.414 . S
C942 C943 1.374 . S
C943 H923 0.950 . S
C943 C939 1.385 . S
C943 C942 1.374 . S
C944 C941 1.499 . S
C944 C945 1.373 . S
C944 C946 1.389 . S
C945 H924 0.950 . S
C945 C944 1.373 . S
C945 C961 1.377 . S
C946 C944 1.389 . S
C946 C947 1.524 . S
C946 C960 1.377 . S
C947 C946 1.524 . S
C947 C948 1.397 . S
C947 C952 1.363 . S
C948 H925 0.950 . S
C948 C947 1.397 . S
C948 C949 1.334 . S
C949 H926 0.950 . S
C949 C948 1.334 . S
C949 C950 1.287 . S
C950 C949 1.287 . S
C950 C951 1.524 . S
C950 H969 0.913 . S
C951 H927 0.950 . S
C951 C950 1.524 . S
C951 C952 1.415 . S
C952 H928 0.950 . S
C952 C947 1.363 . S
C952 C951 1.415 . S
C953 H929 0.951 . S
C953 C954 1.366 . S
C953 C955 1.388 . S
C954 C953 1.366 . S
C954 C958 1.385 . S
C955 H930 0.951 . S
C955 C953 1.388 . S
C955 C956 1.366 . S
C956 C955 1.366 . S
C956 C957 1.414 . S
C956 C959 1.499 . S
C957 H931 0.950 . S
C957 C956 1.414 . S
C957 C958 1.374 . S
C958 H932 0.950 . S
C958 C954 1.385 . S
C958 C957 1.374 . S
C959 C956 1.499 . S
C959 C960 1.373 . S
C959 C961 1.389 . S
C960 H933 0.950 . S
C960 C946 1.377 . S
C960 C959 1.373 . S
C961 C945 1.377 . S
C961 C959 1.389 . S
C961 C962 1.524 . S
C962 C961 1.524 . S
C962 C963 1.397 . S
C962 C967 1.363 . S
C963 H934 0.950 . S
C963 C962 1.397 . S
C963 C964 1.334 . S
C964 H935 0.950 . S
C964 C963 1.334 . S
C964 C965 1.287 . S
C965 C964 1.287 . S
C965 C966 1.524 . S
C965 H968 0.999 . S
C966 H936 0.950 . S
C966 C965 1.524 . S
C966 C967 1.415 . S
C967 H937 0.950 . S
C967 C962 1.363 . S
C967 C966 1.415 . S
H968 C965 0.999 . S
H969 C950 0.913 . S
H970 C988 0.951 . S
H971 C990 0.951 . S
H972 C992 0.950 . S
H973 C993 0.950 . S
H974 C995 0.950 . S
H975 C998 0.950 . S
H976 C999 0.950 . S
H977 C1001 0.950 . S
H978 C1002 0.950 . S
H979 C1003 0.951 . S
H980 C1005 0.951 . S
H981 C1007 0.950 . S
H982 C1008 0.950 . S
H983 C1010 0.950 . S
H984 C1013 0.950 . S
H985 C1014 0.950 1_554 S
H986 C1016 0.950 . S
H987 C1017 0.950 . S
C988 H970 0.951 . S
C988 C989 1.366 . S
C988 C990 1.388 . S
C989 C988 1.366 . S
C989 C993 1.385 . S
C990 H971 0.951 . S
C990 C988 1.388 . S
C990 C991 1.366 . S
C991 C990 1.366 . S
C991 C992 1.414 . S
C991 C994 1.499 . S
C992 H972 0.950 . S
C992 C991 1.414 . S
C992 C993 1.374 . S
C993 H973 0.950 . S
C993 C989 1.385 . S
C993 C992 1.374 . S
C994 C991 1.499 . S
C994 C995 1.373 . S
C994 C996 1.389 . S
C995 H974 0.950 . S
C995 C994 1.373 . S
C995 C1011 1.377 . S
C996 C994 1.389 . S
C996 C997 1.524 . S
C996 C1010 1.377 . S
C997 C996 1.524 . S
C997 C998 1.397 . S
C997 C1002 1.363 . S
C998 H975 0.950 . S
C998 C997 1.397 . S
C998 C999 1.334 . S
C999 H976 0.950 . S
C999 C998 1.334 . S
C999 C1000 1.287 . S
C1000 C999 1.287 . S
C1000 C1001 1.524 . S
C1000 H1019 0.913 . S
C1001 H977 0.950 . S
C1001 C1000 1.524 . S
C1001 C1002 1.415 . S
C1002 H978 0.950 . S
C1002 C997 1.363 . S
C1002 C1001 1.415 . S
C1003 H979 0.951 . S
C1003 C1004 1.366 . S
C1003 C1005 1.388 . S
C1004 C1003 1.366 . S
C1004 C1008 1.385 . S
C1005 H980 0.951 . S
C1005 C1003 1.388 . S
C1005 C1006 1.366 . S
C1006 C1005 1.366 . S
C1006 C1007 1.414 . S
C1006 C1009 1.499 . S
C1007 H981 0.950 . S
C1007 C1006 1.414 . S
C1007 C1008 1.374 . S
C1008 H982 0.950 . S
C1008 C1004 1.385 . S
C1008 C1007 1.374 . S
C1009 C1006 1.499 . S
C1009 C1010 1.373 . S
C1009 C1011 1.389 . S
C1010 H983 0.950 . S
C1010 C996 1.377 . S
C1010 C1009 1.373 . S
C1011 C995 1.377 . S
C1011 C1009 1.389 . S
C1011 C1012 1.524 . S
C1012 C1011 1.524 . S
C1012 C1013 1.397 . S
C1012 C1017 1.363 . S
C1013 H984 0.950 . S
C1013 C1012 1.397 . S
C1013 C1014 1.334 . S
C1014 H985 0.950 1_556 S
C1014 C1013 1.334 . S
C1014 C1015 1.287 . S
C1015 C1014 1.287 . S
C1015 C1016 1.524 . S
C1015 H1018 0.999 1_556 S
C1016 H986 0.950 . S
C1016 C1015 1.524 . S
C1016 C1017 1.415 . S
C1017 H987 0.950 . S
C1017 C1012 1.363 . S
C1017 C1016 1.415 . S
H1018 C1015 0.999 1_554 S
H1019 C1000 0.913 . S
H1020 C1038 0.951 . S
H1021 C1040 0.951 . S
H1022 C1042 0.950 . S
H1023 C1043 0.950 . S
H1024 C1045 0.950 . S
H1025 C1048 0.950 . S
H1026 C1049 0.950 . S
H1027 C1051 0.950 . S
H1028 C1052 0.950 . S
H1029 C1053 0.951 . S
H1030 C1055 0.951 . S
H1031 C1057 0.950 . S
H1032 C1058 0.950 . S
H1033 C1060 0.950 . S
H1034 C1063 0.950 . S
H1035 C1064 0.950 . S
H1036 C1066 0.950 . S
H1037 C1067 0.950 . S
C1038 H1020 0.951 . S
C1038 C1039 1.366 . S
C1038 C1040 1.388 . S
C1039 C1038 1.366 . S
C1039 C1043 1.385 . S
C1040 H1021 0.951 . S
C1040 C1038 1.388 . S
C1040 C1041 1.366 . S
C1041 C1040 1.366 . S
C1041 C1042 1.414 . S
C1041 C1044 1.499 . S
C1042 H1022 0.950 . S
C1042 C1041 1.414 . S
C1042 C1043 1.374 . S
C1043 H1023 0.950 . S
C1043 C1039 1.385 . S
C1043 C1042 1.374 . S
C1044 C1041 1.499 . S
C1044 C1045 1.373 . S
C1044 C1046 1.389 . S
C1045 H1024 0.950 . S
C1045 C1044 1.373 . S
C1045 C1061 1.377 . S
C1046 C1044 1.389 . S
C1046 C1047 1.524 . S
C1046 C1060 1.377 . S
C1047 C1046 1.524 . S
C1047 C1048 1.397 . S
C1047 C1052 1.363 . S
C1048 H1025 0.950 . S
C1048 C1047 1.397 . S
C1048 C1049 1.334 . S
C1049 H1026 0.950 . S
C1049 C1048 1.334 . S
C1049 C1050 1.287 . S
C1050 C1049 1.287 . S
C1050 C1051 1.524 . S
C1050 H1069 0.913 . S
C1051 H1027 0.950 . S
C1051 C1050 1.524 . S
C1051 C1052 1.415 . S
C1052 H1028 0.950 . S
C1052 C1047 1.363 . S
C1052 C1051 1.415 . S
C1053 H1029 0.951 . S
C1053 C1054 1.366 . S
C1053 C1055 1.388 . S
C1054 C1053 1.366 . S
C1054 C1058 1.385 . S
C1055 H1030 0.951 . S
C1055 C1053 1.388 . S
C1055 C1056 1.366 . S
C1056 C1055 1.366 . S
C1056 C1057 1.414 . S
C1056 C1059 1.499 . S
C1057 H1031 0.950 . S
C1057 C1056 1.414 . S
C1057 C1058 1.374 . S
C1058 H1032 0.950 . S
C1058 C1054 1.385 . S
C1058 C1057 1.374 . S
C1059 C1056 1.499 . S
C1059 C1060 1.373 . S
C1059 C1061 1.389 . S
C1060 H1033 0.950 . S
C1060 C1046 1.377 . S
C1060 C1059 1.373 . S
C1061 C1045 1.377 . S
C1061 C1059 1.389 . S
C1061 C1062 1.524 . S
C1062 C1061 1.524 . S
C1062 C1063 1.397 . S
C1062 C1067 1.363 . S
C1063 H1034 0.950 . S
C1063 C1062 1.397 . S
C1063 C1064 1.334 . S
C1064 H1035 0.950 . S
C1064 C1063 1.334 . S
C1064 C1065 1.287 . S
C1065 C1064 1.287 . S
C1065 C1066 1.524 . S
C1065 H1068 0.999 1_556 S
C1066 H1036 0.950 . S
C1066 C1065 1.524 . S
C1066 C1067 1.415 . S
C1067 H1037 0.950 . S
C1067 C1062 1.363 . S
C1067 C1066 1.415 . S
H1068 C1065 0.999 1_554 S
H1069 C1050 0.913 . S
H1070 C1088 0.951 . S
H1071 C1090 0.951 . S
H1072 C1092 0.950 . S
H1073 C1093 0.950 . S
H1074 C1095 0.950 . S
H1075 C1098 0.950 . S
H1076 C1099 0.950 . S
H1077 C1101 0.950 . S
H1078 C1102 0.950 . S
H1079 C1103 0.951 . S
H1080 C1105 0.951 . S
H1081 C1107 0.950 . S
H1082 C1108 0.950 . S
H1083 C1110 0.950 . S
H1084 C1113 0.950 . S
H1085 C1114 0.950 . S
H1086 C1116 0.950 . S
H1087 C1117 0.950 . S
C1088 H1070 0.951 . S
C1088 C1089 1.366 . S
C1088 C1090 1.388 . S
C1089 C1088 1.366 . S
C1089 C1093 1.385 . S
C1090 H1071 0.951 . S
C1090 C1088 1.388 . S
C1090 C1091 1.366 . S
C1091 C1090 1.366 . S
C1091 C1092 1.414 . S
C1091 C1094 1.499 . S
C1092 H1072 0.950 . S
C1092 C1091 1.414 . S
C1092 C1093 1.374 . S
C1093 H1073 0.950 . S
C1093 C1089 1.385 . S
C1093 C1092 1.374 . S
C1094 C1091 1.499 . S
C1094 C1095 1.373 . S
C1094 C1096 1.389 . S
C1095 H1074 0.950 . S
C1095 C1094 1.373 . S
C1095 C1111 1.377 . S
C1096 C1094 1.389 . S
C1096 C1097 1.524 . S
C1096 C1110 1.377 . S
C1097 C1096 1.524 . S
C1097 C1098 1.397 . S
C1097 C1102 1.363 . S
C1098 H1075 0.950 . S
C1098 C1097 1.397 . S
C1098 C1099 1.334 . S
C1099 H1076 0.950 . S
C1099 C1098 1.334 . S
C1099 C1100 1.287 . S
C1100 C1099 1.287 . S
C1100 C1101 1.524 . S
C1100 H1119 0.913 . S
C1101 H1077 0.950 . S
C1101 C1100 1.524 . S
C1101 C1102 1.415 . S
C1102 H1078 0.950 . S
C1102 C1097 1.363 . S
C1102 C1101 1.415 . S
C1103 H1079 0.951 . S
C1103 C1104 1.366 . S
C1103 C1105 1.388 . S
C1104 C1103 1.366 . S
C1104 C1108 1.385 . S
C1105 H1080 0.951 . S
C1105 C1103 1.388 . S
C1105 C1106 1.366 . S
C1106 C1105 1.366 . S
C1106 C1107 1.414 . S
C1106 C1109 1.499 . S
C1107 H1081 0.950 . S
C1107 C1106 1.414 . S
C1107 C1108 1.374 . S
C1108 H1082 0.950 . S
C1108 C1104 1.385 . S
C1108 C1107 1.374 . S
C1109 C1106 1.499 . S
C1109 C1110 1.373 . S
C1109 C1111 1.389 . S
C1110 H1083 0.950 . S
C1110 C1096 1.377 . S
C1110 C1109 1.373 . S
C1111 C1095 1.377 . S
C1111 C1109 1.389 . S
C1111 C1112 1.524 . S
C1112 C1111 1.524 . S
C1112 C1113 1.397 . S
C1112 C1117 1.363 . S
C1113 H1084 0.950 . S
C1113 C1112 1.397 . S
C1113 C1114 1.334 . S
C1114 H1085 0.950 . S
C1114 C1113 1.334 . S
C1114 C1115 1.287 . S
C1115 C1114 1.287 . S
C1115 C1116 1.524 . S
C1115 H1118 0.999 1_556 S
C1116 H1086 0.950 . S
C1116 C1115 1.524 . S
C1116 C1117 1.415 . S
C1117 H1087 0.950 . S
C1117 C1112 1.363 . S
C1117 C1116 1.415 . S
H1118 C1115 0.999 1_554 S
H1119 C1100 0.913 . S
H1120 C1138 0.951 . S
H1121 C1140 0.951 . S
H1122 C1142 0.950 . S
H1123 C1143 0.950 . S
H1124 C1145 0.950 . S
H1125 C1148 0.950 . S
H1126 C1149 0.950 . S
H1127 C1151 0.950 . S
H1128 C1152 0.950 . S
H1129 C1153 0.951 . S
H1130 C1155 0.951 . S
H1131 C1157 0.950 . S
H1132 C1158 0.950 . S
H1133 C1160 0.950 . S
H1134 C1163 0.950 . S
H1135 C1164 0.950 . S
H1136 C1166 0.950 . S
H1137 C1167 0.950 . S
C1138 H1120 0.951 . S
C1138 C1139 1.366 . S
C1138 C1140 1.388 . S
C1139 C1138 1.366 . S
C1139 C1143 1.385 . S
C1140 H1121 0.951 . S
C1140 C1138 1.388 . S
C1140 C1141 1.366 . S
C1141 C1140 1.366 . S
C1141 C1142 1.414 . S
C1141 C1144 1.499 . S
C1142 H1122 0.950 . S
C1142 C1141 1.414 . S
C1142 C1143 1.374 . S
C1143 H1123 0.950 . S
C1143 C1139 1.385 . S
C1143 C1142 1.374 . S
C1144 C1141 1.499 . S
C1144 C1145 1.373 . S
C1144 C1146 1.389 . S
C1145 H1124 0.950 . S
C1145 C1144 1.373 . S
C1145 C1161 1.377 . S
C1146 C1144 1.389 . S
C1146 C1147 1.524 . S
C1146 C1160 1.377 . S
C1147 C1146 1.524 . S
C1147 C1148 1.397 . S
C1147 C1152 1.363 . S
C1148 H1125 0.950 . S
C1148 C1147 1.397 . S
C1148 C1149 1.334 . S
C1149 H1126 0.950 . S
C1149 C1148 1.334 . S
C1149 C1150 1.287 . S
C1150 C1149 1.287 . S
C1150 C1151 1.524 . S
C1150 H1169 0.913 . S
C1151 H1127 0.950 . S
C1151 C1150 1.524 . S
C1151 C1152 1.415 . S
C1152 H1128 0.950 . S
C1152 C1147 1.363 . S
C1152 C1151 1.415 . S
C1153 H1129 0.951 . S
C1153 C1154 1.366 . S
C1153 C1155 1.388 . S
C1154 C1153 1.366 . S
C1154 C1158 1.385 . S
C1155 H1130 0.951 . S
C1155 C1153 1.388 . S
C1155 C1156 1.366 . S
C1156 C1155 1.366 . S
C1156 C1157 1.414 . S
C1156 C1159 1.499 . S
C1157 H1131 0.950 . S
C1157 C1156 1.414 . S
C1157 C1158 1.374 . S
C1158 H1132 0.950 . S
C1158 C1154 1.385 . S
C1158 C1157 1.374 . S
C1159 C1156 1.499 . S
C1159 C1160 1.373 . S
C1159 C1161 1.389 . S
C1160 H1133 0.950 . S
C1160 C1146 1.377 . S
C1160 C1159 1.373 . S
C1161 C1145 1.377 . S
C1161 C1159 1.389 . S
C1161 C1162 1.524 . S
C1162 C1161 1.524 . S
C1162 C1163 1.397 . S
C1162 C1167 1.363 . S
C1163 H1134 0.950 . S
C1163 C1162 1.397 . S
C1163 C1164 1.334 . S
C1164 H1135 0.950 . S
C1164 C1163 1.334 . S
C1164 C1165 1.287 . S
C1165 C1164 1.287 . S
C1165 C1166 1.524 . S
C1165 H1168 0.999 . S
C1166 H1136 0.950 . S
C1166 C1165 1.524 . S
C1166 C1167 1.415 . S
C1167 H1137 0.950 . S
C1167 C1162 1.363 . S
C1167 C1166 1.415 . S
H1168 C1165 0.999 . S
H1169 C1150 0.913 . S
H1170 C1188 0.951 . S
H1171 C1190 0.951 . S
H1172 C1192 0.950 . S
H1173 C1193 0.950 . S
H1174 C1195 0.950 . S
H1175 C1198 0.950 . S
H1176 C1199 0.950 . S
H1177 C1201 0.950 . S
H1178 C1202 0.950 . S
H1179 C1203 0.951 . S
H1180 C1205 0.951 . S
H1181 C1207 0.950 . S
H1182 C1208 0.950 . S
H1183 C1210 0.950 . S
H1184 C1213 0.950 . S
H1185 C1214 0.950 . S
H1186 C1216 0.950 . S
H1187 C1217 0.950 . S
C1188 H1170 0.951 . S
C1188 C1189 1.366 . S
C1188 C1190 1.388 . S
C1189 C1188 1.366 . S
C1189 C1193 1.385 . S
C1190 H1171 0.951 . S
C1190 C1188 1.388 . S
C1190 C1191 1.366 . S
C1191 C1190 1.366 . S
C1191 C1192 1.414 . S
C1191 C1194 1.499 . S
C1192 H1172 0.950 . S
C1192 C1191 1.414 . S
C1192 C1193 1.374 . S
C1193 H1173 0.950 . S
C1193 C1189 1.385 . S
C1193 C1192 1.374 . S
C1194 C1191 1.499 . S
C1194 C1195 1.373 . S
C1194 C1196 1.389 . S
C1195 H1174 0.950 . S
C1195 C1194 1.373 . S
C1195 C1211 1.377 . S
C1196 C1194 1.389 . S
C1196 C1197 1.524 . S
C1196 C1210 1.377 . S
C1197 C1196 1.524 . S
C1197 C1198 1.397 . S
C1197 C1202 1.363 . S
C1198 H1175 0.950 . S
C1198 C1197 1.397 . S
C1198 C1199 1.334 . S
C1199 H1176 0.950 . S
C1199 C1198 1.334 . S
C1199 C1200 1.287 . S
C1200 C1199 1.287 . S
C1200 C1201 1.524 . S
C1200 H1219 0.913 . S
C1201 H1177 0.950 . S
C1201 C1200 1.524 . S
C1201 C1202 1.415 . S
C1202 H1178 0.950 . S
C1202 C1197 1.363 . S
C1202 C1201 1.415 . S
C1203 H1179 0.951 . S
C1203 C1204 1.366 . S
C1203 C1205 1.388 . S
C1204 C1203 1.366 . S
C1204 C1208 1.385 . S
C1205 H1180 0.951 . S
C1205 C1203 1.388 . S
C1205 C1206 1.366 . S
C1206 C1205 1.366 . S
C1206 C1207 1.414 . S
C1206 C1209 1.499 . S
C1207 H1181 0.950 . S
C1207 C1206 1.414 . S
C1207 C1208 1.374 . S
C1208 H1182 0.950 . S
C1208 C1204 1.385 . S
C1208 C1207 1.374 . S
C1209 C1206 1.499 . S
C1209 C1210 1.373 . S
C1209 C1211 1.389 . S
C1210 H1183 0.950 . S
C1210 C1196 1.377 . S
C1210 C1209 1.373 . S
C1211 C1195 1.377 . S
C1211 C1209 1.389 . S
C1211 C1212 1.524 . S
C1212 C1211 1.524 . S
C1212 C1213 1.397 . S
C1212 C1217 1.363 . S
C1213 H1184 0.950 . S
C1213 C1212 1.397 . S
C1213 C1214 1.334 . S
C1214 H1185 0.950 . S
C1214 C1213 1.334 . S
C1214 C1215 1.287 . S
C1215 C1214 1.287 . S
C1215 C1216 1.524 . S
C1215 H1218 0.999 . S
C1216 H1186 0.950 . S
C1216 C1215 1.524 . S
C1216 C1217 1.415 . S
C1217 H1187 0.950 . S
C1217 C1212 1.363 . S
C1217 C1216 1.415 . S
H1218 C1215 0.999 . S
H1219 C1200 0.913 . S
H1220 C1238 0.951 . S
H1221 C1240 0.951 . S
H1222 C1242 0.950 . S
H1223 C1243 0.950 . S
H1224 C1245 0.950 . S
H1225 C1248 0.950 . S
H1226 C1249 0.950 . S
H1227 C1251 0.950 . S
H1228 C1252 0.950 . S
H1229 C1253 0.951 . S
H1230 C1255 0.951 . S
H1231 C1257 0.950 . S
H1232 C1258 0.950 . S
H1233 C1260 0.950 . S
H1234 C1263 0.950 . S
H1235 C1264 0.950 . S
H1236 C1266 0.950 . S
H1237 C1267 0.950 . S
C1238 H1220 0.951 . S
C1238 C1239 1.366 . S
C1238 C1240 1.388 . S
C1239 C1238 1.366 . S
C1239 C1243 1.385 . S
C1240 H1221 0.951 . S
C1240 C1238 1.388 . S
C1240 C1241 1.366 . S
C1241 C1240 1.366 . S
C1241 C1242 1.414 . S
C1241 C1244 1.499 . S
C1242 H1222 0.950 . S
C1242 C1241 1.414 . S
C1242 C1243 1.374 . S
C1243 H1223 0.950 . S
C1243 C1239 1.385 . S
C1243 C1242 1.374 . S
C1244 C1241 1.499 . S
C1244 C1245 1.373 . S
C1244 C1246 1.389 . S
C1245 H1224 0.950 . S
C1245 C1244 1.373 . S
C1245 C1261 1.377 . S
C1246 C1244 1.389 . S
C1246 C1247 1.524 . S
C1246 C1260 1.377 . S
C1247 C1246 1.524 . S
C1247 C1248 1.397 . S
C1247 C1252 1.363 . S
C1248 H1225 0.950 . S
C1248 C1247 1.397 . S
C1248 C1249 1.334 . S
C1249 H1226 0.950 . S
C1249 C1248 1.334 . S
C1249 C1250 1.287 . S
C1250 C1249 1.287 . S
C1250 C1251 1.524 . S
C1250 H1269 0.913 . S
C1251 H1227 0.950 . S
C1251 C1250 1.524 . S
C1251 C1252 1.415 . S
C1252 H1228 0.950 . S
C1252 C1247 1.363 . S
C1252 C1251 1.415 . S
C1253 H1229 0.951 . S
C1253 C1254 1.366 . S
C1253 C1255 1.388 . S
C1254 C1253 1.366 . S
C1254 C1258 1.385 . S
C1255 H1230 0.951 . S
C1255 C1253 1.388 . S
C1255 C1256 1.366 . S
C1256 C1255 1.366 . S
C1256 C1257 1.414 . S
C1256 C1259 1.499 . S
C1257 H1231 0.950 . S
C1257 C1256 1.414 . S
C1257 C1258 1.374 . S
C1258 H1232 0.950 . S
C1258 C1254 1.385 . S
C1258 C1257 1.374 . S
C1259 C1256 1.499 . S
C1259 C1260 1.373 . S
C1259 C1261 1.389 . S
C1260 H1233 0.950 . S
C1260 C1246 1.377 . S
C1260 C1259 1.373 . S
C1261 C1245 1.377 . S
C1261 C1259 1.389 . S
C1261 C1262 1.524 . S
C1262 C1261 1.524 . S
C1262 C1263 1.397 . S
C1262 C1267 1.363 . S
C1263 H1234 0.950 . S
C1263 C1262 1.397 . S
C1263 C1264 1.334 . S
C1264 H1235 0.950 . S
C1264 C1263 1.334 . S
C1264 C1265 1.276 1_556 S
C1265 C1264 1.276 1_554 S
C1265 C1266 1.515 1_554 S
C1265 H1268 1.023 . S
C1266 H1236 0.950 . S
C1266 C1265 1.515 1_556 S
C1266 C1267 1.415 . S
C1267 H1237 0.950 . S
C1267 C1262 1.363 . S
C1267 C1266 1.415 . S
H1268 C1265 1.023 . S
H1269 C1250 0.913 . S
H1270 C1288 0.951 . S
H1271 C1290 0.951 . S
H1272 C1292 0.950 . S
H1273 C1293 0.950 . S
H1274 C1295 0.950 . S
H1275 C1298 0.950 . S
H1276 C1299 0.950 . S
H1277 C1301 0.950 . S
H1278 C1302 0.950 . S
H1279 C1303 0.951 . S
H1280 C1305 0.951 . S
H1281 C1307 0.950 . S
H1282 C1308 0.950 . S
H1283 C1310 0.950 . S
H1284 C1313 0.950 . S
H1285 C1314 0.950 . S
H1286 C1316 0.950 . S
H1287 C1317 0.950 . S
C1288 H1270 0.951 . S
C1288 C1289 1.366 . S
C1288 C1290 1.388 . S
C1289 C1288 1.366 . S
C1289 C1293 1.385 . S
C1290 H1271 0.951 . S
C1290 C1288 1.388 . S
C1290 C1291 1.366 . S
C1291 C1290 1.366 . S
C1291 C1292 1.414 . S
C1291 C1294 1.499 . S
C1292 H1272 0.950 . S
C1292 C1291 1.414 . S
C1292 C1293 1.374 . S
C1293 H1273 0.950 . S
C1293 C1289 1.385 . S
C1293 C1292 1.374 . S
C1294 C1291 1.499 . S
C1294 C1295 1.373 . S
C1294 C1296 1.389 . S
C1295 H1274 0.950 . S
C1295 C1294 1.373 . S
C1295 C1311 1.377 . S
C1296 C1294 1.389 . S
C1296 C1297 1.524 . S
C1296 C1310 1.377 . S
C1297 C1296 1.524 . S
C1297 C1298 1.397 . S
C1297 C1302 1.363 . S
C1298 H1275 0.950 . S
C1298 C1297 1.397 . S
C1298 C1299 1.334 . S
C1299 H1276 0.950 . S
C1299 C1298 1.334 . S
C1299 C1300 1.287 . S
C1300 C1299 1.287 . S
C1300 C1301 1.524 . S
C1300 H1319 0.913 . S
C1301 H1277 0.950 . S
C1301 C1300 1.524 . S
C1301 C1302 1.415 . S
C1302 H1278 0.950 . S
C1302 C1297 1.363 . S
C1302 C1301 1.415 . S
C1303 H1279 0.951 . S
C1303 C1304 1.366 . S
C1303 C1305 1.388 . S
C1304 C1303 1.366 . S
C1304 C1308 1.385 . S
C1305 H1280 0.951 . S
C1305 C1303 1.388 . S
C1305 C1306 1.366 . S
C1306 C1305 1.366 . S
C1306 C1307 1.414 . S
C1306 C1309 1.499 . S
C1307 H1281 0.950 . S
C1307 C1306 1.414 . S
C1307 C1308 1.374 . S
C1308 H1282 0.950 . S
C1308 C1304 1.385 . S
C1308 C1307 1.374 . S
C1309 C1306 1.499 . S
C1309 C1310 1.373 . S
C1309 C1311 1.389 . S
C1310 H1283 0.950 . S
C1310 C1296 1.377 . S
C1310 C1309 1.373 . S
C1311 C1295 1.377 . S
C1311 C1309 1.389 . S
C1311 C1312 1.524 . S
C1312 C1311 1.524 . S
C1312 C1313 1.397 . S
C1312 C1317 1.363 . S
C1313 H1284 0.950 . S
C1313 C1312 1.397 . S
C1313 C1314 1.334 . S
C1314 H1285 0.950 . S
C1314 C1313 1.334 . S
C1314 C1315 1.287 . S
C1315 C1314 1.287 . S
C1315 C1316 1.524 . S
C1315 H1318 0.999 . S
C1316 H1286 0.950 . S
C1316 C1315 1.524 . S
C1316 C1317 1.415 . S
C1317 H1287 0.950 . S
C1317 C1312 1.363 . S
C1317 C1316 1.415 . S
H1318 C1315 0.999 . S
H1319 C1300 0.913 . S
H1320 C1338 0.951 . S
H1321 C1340 0.951 . S
H1322 C1342 0.950 . S
H1323 C1343 0.950 . S
H1324 C1345 0.950 . S
H1325 C1348 0.950 . S
H1326 C1349 0.950 . S
H1327 C1351 0.950 . S
H1328 C1352 0.950 . S
H1329 C1353 0.951 . S
H1330 C1355 0.951 . S
H1331 C1357 0.950 . S
H1332 C1358 0.950 . S
H1333 C1360 0.950 . S
H1334 C1363 0.950 . S
H1335 C1364 0.950 . S
H1336 C1366 0.950 . S
H1337 C1367 0.950 . S
C1338 H1320 0.951 . S
C1338 C1339 1.366 . S
C1338 C1340 1.388 . S
C1339 C1338 1.366 . S
C1339 C1343 1.385 . S
C1340 H1321 0.951 . S
C1340 C1338 1.388 . S
C1340 C1341 1.366 . S
C1341 C1340 1.366 . S
C1341 C1342 1.414 . S
C1341 C1344 1.499 . S
C1342 H1322 0.950 . S
C1342 C1341 1.414 . S
C1342 C1343 1.374 . S
C1343 H1323 0.950 . S
C1343 C1339 1.385 . S
C1343 C1342 1.374 . S
C1344 C1341 1.499 . S
C1344 C1345 1.373 . S
C1344 C1346 1.389 . S
C1345 H1324 0.950 . S
C1345 C1344 1.373 . S
C1345 C1361 1.377 . S
C1346 C1344 1.389 . S
C1346 C1347 1.524 . S
C1346 C1360 1.377 . S
C1347 C1346 1.524 . S
C1347 C1348 1.397 . S
C1347 C1352 1.363 . S
C1348 H1325 0.950 . S
C1348 C1347 1.397 . S
C1348 C1349 1.334 . S
C1349 H1326 0.950 . S
C1349 C1348 1.334 . S
C1349 C1350 1.287 . S
C1350 C1349 1.287 . S
C1350 C1351 1.524 . S
C1350 H1369 0.913 . S
C1351 H1327 0.950 . S
C1351 C1350 1.524 . S
C1351 C1352 1.415 . S
C1352 H1328 0.950 . S
C1352 C1347 1.363 . S
C1352 C1351 1.415 . S
C1353 H1329 0.951 . S
C1353 C1354 1.366 . S
C1353 C1355 1.388 . S
C1354 C1353 1.366 . S
C1354 C1358 1.385 . S
C1355 H1330 0.951 . S
C1355 C1353 1.388 . S
C1355 C1356 1.366 . S
C1356 C1355 1.366 . S
C1356 C1357 1.414 . S
C1356 C1359 1.499 . S
C1357 H1331 0.950 . S
C1357 C1356 1.414 . S
C1357 C1358 1.374 . S
C1358 H1332 0.950 . S
C1358 C1354 1.385 . S
C1358 C1357 1.374 . S
C1359 C1356 1.499 . S
C1359 C1360 1.373 . S
C1359 C1361 1.389 . S
C1360 H1333 0.950 . S
C1360 C1346 1.377 . S
C1360 C1359 1.373 . S
C1361 C1345 1.377 . S
C1361 C1359 1.389 . S
C1361 C1362 1.524 . S
C1362 C1361 1.524 . S
C1362 C1363 1.397 . S
C1362 C1367 1.363 . S
C1363 H1334 0.950 . S
C1363 C1362 1.397 . S
C1363 C1364 1.334 . S
C1364 H1335 0.950 . S
C1364 C1363 1.334 . S
C1364 C1365 1.287 . S
C1365 C1364 1.287 . S
C1365 C1366 1.524 . S
C1365 H1368 0.999 . S
C1366 H1336 0.950 . S
C1366 C1365 1.524 . S
C1366 C1367 1.415 . S
C1367 H1337 0.950 . S
C1367 C1362 1.363 . S
C1367 C1366 1.415 . S
H1368 C1365 0.999 . S
H1369 C1350 0.913 . S
H1370 C1388 0.951 . S
H1371 C1390 0.951 . S
H1372 C1392 0.950 . S
H1373 C1393 0.950 . S
H1374 C1395 0.950 . S
H1375 C1398 0.950 . S
H1376 C1399 0.950 . S
H1377 C1401 0.950 . S
H1378 C1402 0.950 . S
H1379 C1403 0.951 . S
H1380 C1405 0.951 . S
H1381 C1407 0.950 . S
H1382 C1408 0.950 . S
H1383 C1410 0.950 . S
H1384 C1413 0.950 . S
H1385 C1414 0.950 . S
H1386 C1416 0.950 . S
H1387 C1417 0.950 . S
C1388 H1370 0.951 . S
C1388 C1389 1.366 . S
C1388 C1390 1.388 . S
C1389 C1388 1.366 . S
C1389 C1393 1.385 . S
C1390 H1371 0.951 . S
C1390 C1388 1.388 . S
C1390 C1391 1.366 . S
C1391 C1390 1.366 . S
C1391 C1392 1.414 . S
C1391 C1394 1.499 . S
C1392 H1372 0.950 . S
C1392 C1391 1.414 . S
C1392 C1393 1.374 . S
C1393 H1373 0.950 . S
C1393 C1389 1.385 . S
C1393 C1392 1.374 . S
C1394 C1391 1.499 . S
C1394 C1395 1.373 . S
C1394 C1396 1.389 . S
C1395 H1374 0.950 . S
C1395 C1394 1.373 . S
C1395 C1411 1.377 . S
C1396 C1394 1.389 . S
C1396 C1397 1.524 . S
C1396 C1410 1.377 . S
C1397 C1396 1.524 . S
C1397 C1398 1.397 . S
C1397 C1402 1.363 . S
C1398 H1375 0.950 . S
C1398 C1397 1.397 . S
C1398 C1399 1.334 . S
C1399 H1376 0.950 . S
C1399 C1398 1.334 . S
C1399 C1400 1.287 . S
C1400 C1399 1.287 . S
C1400 C1401 1.524 . S
C1400 H1419 0.913 . S
C1401 H1377 0.950 . S
C1401 C1400 1.524 . S
C1401 C1402 1.415 . S
C1402 H1378 0.950 . S
C1402 C1397 1.363 . S
C1402 C1401 1.415 . S
C1403 H1379 0.951 . S
C1403 C1404 1.366 . S
C1403 C1405 1.388 . S
C1404 C1403 1.366 . S
C1404 C1408 1.385 . S
C1405 H1380 0.951 . S
C1405 C1403 1.388 . S
C1405 C1406 1.366 . S
C1406 C1405 1.366 . S
C1406 C1407 1.414 . S
C1406 C1409 1.499 . S
C1407 H1381 0.950 . S
C1407 C1406 1.414 . S
C1407 C1408 1.374 . S
C1408 H1382 0.950 . S
C1408 C1404 1.385 . S
C1408 C1407 1.374 . S
C1409 C1406 1.499 . S
C1409 C1410 1.373 . S
C1409 C1411 1.389 . S
C1410 H1383 0.950 . S
C1410 C1396 1.377 . S
C1410 C1409 1.373 . S
C1411 C1395 1.377 . S
C1411 C1409 1.389 . S
C1411 C1412 1.524 . S
C1412 C1411 1.524 . S
C1412 C1413 1.397 . S
C1412 C1417 1.363 . S
C1413 H1384 0.950 . S
C1413 C1412 1.397 . S
C1413 C1414 1.334 . S
C1414 H1385 0.950 . S
C1414 C1413 1.334 . S
C1414 C1415 1.287 . S
C1415 C1414 1.287 . S
C1415 C1416 1.524 . S
C1415 H1418 0.999 . S
C1416 H1386 0.950 . S
C1416 C1415 1.524 . S
C1416 C1417 1.415 . S
C1417 H1387 0.950 . S
C1417 C1412 1.363 . S
C1417 C1416 1.415 . S
H1418 C1415 0.999 . S
H1419 C1400 0.913 . S
H1420 C1438 0.951 . S
H1421 C1440 0.951 . S
H1422 C1442 0.950 . S
H1423 C1443 0.950 . S
H1424 C1445 0.950 . S
H1425 C1448 0.950 . S
H1426 C1449 0.950 . S
H1427 C1451 0.950 . S
H1428 C1452 0.950 . S
H1429 C1453 0.951 . S
H1430 C1455 0.951 . S
H1431 C1457 0.950 . S
H1432 C1458 0.950 . S
H1433 C1460 0.950 . S
H1434 C1463 0.950 . S
H1435 C1464 0.950 . S
H1436 C1466 0.950 . S
H1437 C1467 0.950 . S
C1438 H1420 0.951 . S
C1438 C1439 1.366 . S
C1438 C1440 1.388 . S
C1439 C1438 1.366 . S
C1439 C1443 1.385 . S
C1440 H1421 0.951 . S
C1440 C1438 1.388 . S
C1440 C1441 1.366 . S
C1441 C1440 1.366 . S
C1441 C1442 1.414 . S
C1441 C1444 1.499 . S
C1442 H1422 0.950 . S
C1442 C1441 1.414 . S
C1442 C1443 1.374 . S
C1443 H1423 0.950 . S
C1443 C1439 1.385 . S
C1443 C1442 1.374 . S
C1444 C1441 1.499 . S
C1444 C1445 1.373 . S
C1444 C1446 1.389 . S
C1445 H1424 0.950 . S
C1445 C1444 1.373 . S
C1445 C1461 1.377 . S
C1446 C1444 1.389 . S
C1446 C1447 1.524 . S
C1446 C1460 1.377 . S
C1447 C1446 1.524 . S
C1447 C1448 1.397 . S
C1447 C1452 1.363 . S
C1448 H1425 0.950 . S
C1448 C1447 1.397 . S
C1448 C1449 1.334 . S
C1449 H1426 0.950 . S
C1449 C1448 1.334 . S
C1449 C1450 1.287 . S
C1450 C1449 1.287 . S
C1450 C1451 1.524 . S
C1450 H1469 0.913 . S
C1451 H1427 0.950 . S
C1451 C1450 1.524 . S
C1451 C1452 1.415 . S
C1452 H1428 0.950 . S
C1452 C1447 1.363 . S
C1452 C1451 1.415 . S
C1453 H1429 0.951 . S
C1453 C1454 1.366 . S
C1453 C1455 1.388 . S
C1454 C1453 1.366 . S
C1454 C1458 1.385 . S
C1455 H1430 0.951 . S
C1455 C1453 1.388 . S
C1455 C1456 1.366 . S
C1456 C1455 1.366 . S
C1456 C1457 1.414 . S
C1456 C1459 1.499 . S
C1457 H1431 0.950 . S
C1457 C1456 1.414 . S
C1457 C1458 1.374 . S
C1458 H1432 0.950 . S
C1458 C1454 1.385 . S
C1458 C1457 1.374 . S
C1459 C1456 1.499 . S
C1459 C1460 1.373 . S
C1459 C1461 1.389 . S
C1460 H1433 0.950 . S
C1460 C1446 1.377 . S
C1460 C1459 1.373 . S
C1461 C1445 1.377 . S
C1461 C1459 1.389 . S
C1461 C1462 1.524 . S
C1462 C1461 1.524 . S
C1462 C1463 1.397 . S
C1462 C1467 1.363 . S
C1463 H1434 0.950 . S
C1463 C1462 1.397 . S
C1463 C1464 1.334 . S
C1464 H1435 0.950 . S
C1464 C1463 1.334 . S
C1464 C1465 1.287 . S
C1465 C1464 1.287 . S
C1465 C1466 1.524 . S
C1465 H1468 0.999 . S
C1466 H1436 0.950 . S
C1466 C1465 1.524 . S
C1466 C1467 1.415 . S
C1467 H1437 0.950 . S
C1467 C1462 1.363 . S
C1467 C1466 1.415 . S
H1468 C1465 0.999 . S
H1469 C1450 0.913 . S
H1470 C1488 0.951 . S
H1471 C1490 0.951 . S
H1472 C1492 0.950 . S
H1473 C1493 0.950 . S
H1474 C1495 0.950 . S
H1475 C1498 0.950 . S
H1476 C1499 0.950 . S
H1477 C1501 0.950 . S
H1478 C1502 0.950 . S
H1479 C1503 0.951 . S
H1480 C1505 0.951 . S
H1481 C1507 0.950 . S
H1482 C1508 0.950 . S
H1483 C1510 0.950 . S
H1484 C1513 0.950 . S
H1485 C1514 0.955 . S
H1486 C1516 0.950 . S
H1487 C1517 0.950 . S
C1488 H1470 0.951 . S
C1488 C1489 1.366 . S
C1488 C1490 1.388 . S
C1489 C1488 1.366 . S
C1489 C1493 1.385 . S
C1490 H1471 0.951 . S
C1490 C1488 1.388 . S
C1490 C1491 1.366 . S
C1491 C1490 1.366 . S
C1491 C1492 1.414 . S
C1491 C1494 1.499 . S
C1492 H1472 0.950 . S
C1492 C1491 1.414 . S
C1492 C1493 1.374 . S
C1493 H1473 0.950 . S
C1493 C1489 1.385 . S
C1493 C1492 1.374 . S
C1494 C1491 1.499 . S
C1494 C1495 1.373 . S
C1494 C1496 1.389 . S
C1495 H1474 0.950 . S
C1495 C1494 1.373 . S
C1495 C1511 1.377 . S
C1496 C1494 1.389 . S
C1496 C1497 1.524 . S
C1496 C1510 1.377 . S
C1497 C1496 1.524 . S
C1497 C1498 1.397 . S
C1497 C1502 1.363 . S
C1498 H1475 0.950 . S
C1498 C1497 1.397 . S
C1498 C1499 1.334 . S
C1499 H1476 0.950 . S
C1499 C1498 1.334 . S
C1499 C1500 1.287 . S
C1500 C1499 1.287 . S
C1500 C1501 1.524 . S
C1500 H1519 0.913 . S
C1501 H1477 0.950 . S
C1501 C1500 1.524 . S
C1501 C1502 1.415 . S
C1502 H1478 0.950 . S
C1502 C1497 1.363 . S
C1502 C1501 1.415 . S
C1503 H1479 0.951 . S
C1503 C1504 1.366 . S
C1503 C1505 1.388 . S
C1504 C1503 1.366 . S
C1504 C1508 1.385 . S
C1505 H1480 0.951 . S
C1505 C1503 1.388 . S
C1505 C1506 1.366 . S
C1506 C1505 1.366 . S
C1506 C1507 1.414 . S
C1506 C1509 1.499 . S
C1507 H1481 0.950 . S
C1507 C1506 1.414 . S
C1507 C1508 1.374 . S
C1508 H1482 0.950 . S
C1508 C1504 1.385 . S
C1508 C1507 1.374 . S
C1509 C1506 1.499 . S
C1509 C1510 1.373 . S
C1509 C1511 1.389 . S
C1510 H1483 0.950 . S
C1510 C1496 1.377 . S
C1510 C1509 1.373 . S
C1511 C1495 1.377 . S
C1511 C1509 1.389 . S
C1511 C1512 1.524 . S
C1512 C1511 1.524 . S
C1512 C1513 1.397 . S
C1512 C1517 1.363 . S
C1513 H1484 0.950 . S
C1513 C1512 1.397 . S
C1513 C1514 1.328 1_565 S
C1514 H1485 0.955 . S
C1514 C1513 1.328 1_545 S
C1514 C1515 1.288 . S
C1515 C1514 1.288 . S
C1515 C1516 1.524 1_545 S
C1515 H1518 0.999 . S
C1516 H1486 0.950 . S
C1516 C1515 1.524 1_565 S
C1516 C1517 1.415 . S
C1517 H1487 0.950 . S
C1517 C1512 1.363 . S
C1517 C1516 1.415 . S
H1518 C1515 0.999 . S
H1519 C1500 0.913 . S
H1520 C1538 0.951 . S
H1521 C1540 0.951 . S
H1522 C1542 0.950 . S
H1523 C1543 0.950 . S
H1524 C1545 0.950 . S
H1525 C1548 0.950 . S
H1526 C1549 0.950 . S
H1527 C1551 0.950 . S
H1528 C1552 0.950 . S
H1529 C1553 0.951 . S
H1530 C1555 0.951 . S
H1531 C1557 0.950 . S
H1532 C1558 0.950 . S
H1533 C1560 0.950 . S
H1534 C1563 0.950 . S
H1535 C1564 0.950 . S
H1536 C1566 0.950 . S
H1537 C1567 0.950 . S
C1538 H1520 0.951 . S
C1538 C1539 1.366 . S
C1538 C1540 1.388 . S
C1539 C1538 1.366 . S
C1539 C1543 1.385 . S
C1540 H1521 0.951 . S
C1540 C1538 1.388 . S
C1540 C1541 1.366 . S
C1541 C1540 1.366 . S
C1541 C1542 1.414 . S
C1541 C1544 1.499 . S
C1542 H1522 0.950 . S
C1542 C1541 1.414 . S
C1542 C1543 1.374 . S
C1543 H1523 0.950 . S
C1543 C1539 1.385 . S
C1543 C1542 1.374 . S
C1544 C1541 1.499 . S
C1544 C1545 1.373 . S
C1544 C1546 1.389 . S
C1545 H1524 0.950 . S
C1545 C1544 1.373 . S
C1545 C1561 1.377 . S
C1546 C1544 1.389 . S
C1546 C1547 1.524 . S
C1546 C1560 1.377 . S
C1547 C1546 1.524 . S
C1547 C1548 1.397 . S
C1547 C1552 1.363 . S
C1548 H1525 0.950 . S
C1548 C1547 1.397 . S
C1548 C1549 1.334 . S
C1549 H1526 0.950 . S
C1549 C1548 1.334 . S
C1549 C1550 1.287 . S
C1550 C1549 1.287 . S
C1550 C1551 1.524 . S
C1550 H1569 0.913 . S
C1551 H1527 0.950 . S
C1551 C1550 1.524 . S
C1551 C1552 1.415 . S
C1552 H1528 0.950 . S
C1552 C1547 1.363 . S
C1552 C1551 1.415 . S
C1553 H1529 0.951 . S
C1553 C1554 1.366 . S
C1553 C1555 1.388 . S
C1554 C1553 1.366 . S
C1554 C1558 1.385 . S
C1555 H1530 0.951 . S
C1555 C1553 1.388 . S
C1555 C1556 1.366 . S
C1556 C1555 1.366 . S
C1556 C1557 1.414 . S
C1556 C1559 1.499 . S
C1557 H1531 0.950 . S
C1557 C1556 1.414 . S
C1557 C1558 1.374 . S
C1558 H1532 0.950 . S
C1558 C1554 1.385 . S
C1558 C1557 1.374 . S
C1559 C1556 1.499 . S
C1559 C1560 1.373 . S
C1559 C1561 1.389 . S
C1560 H1533 0.950 . S
C1560 C1546 1.377 . S
C1560 C1559 1.373 . S
C1561 C1545 1.377 . S
C1561 C1559 1.389 . S
C1561 C1562 1.524 . S
C1562 C1561 1.524 . S
C1562 C1563 1.397 . S
C1562 C1567 1.363 . S
C1563 H1534 0.950 . S
C1563 C1562 1.397 . S
C1563 C1564 1.334 . S
C1564 H1535 0.950 . S
C1564 C1563 1.334 . S
C1564 C1565 1.299 . S
C1565 C1564 1.299 . S
C1565 C1566 1.535 . S
C1565 H1568 0.973 1_545 S
C1566 H1536 0.950 . S
C1566 C1565 1.535 . S
C1566 C1567 1.415 . S
C1567 H1537 0.950 . S
C1567 C1562 1.363 . S
C1567 C1566 1.415 . S
H1568 C1565 0.973 1_565 S
H1569 C1550 0.913 . S
H1570 C1588 0.951 . S
H1571 C1590 0.951 . S
H1572 C1592 0.950 . S
H1573 C1593 0.950 . S
H1574 C1595 0.950 . S
H1575 C1598 0.950 . S
H1576 C1599 0.950 . S
H1577 C1601 0.950 . S
H1578 C1602 0.950 . S
H1579 C1603 0.951 . S
H1580 C1605 0.951 . S
H1581 C1607 0.950 . S
H1582 C1608 0.950 . S
H1583 C1610 0.950 . S
H1584 C1613 0.950 . S
H1585 C1614 0.950 . S
H1586 C1616 0.950 . S
H1587 C1617 0.950 . S
C1588 H1570 0.951 . S
C1588 C1589 1.366 . S
C1588 C1590 1.388 . S
C1589 C1588 1.366 . S
C1589 C1593 1.385 . S
C1590 H1571 0.951 . S
C1590 C1588 1.388 . S
C1590 C1591 1.366 . S
C1591 C1590 1.366 . S
C1591 C1592 1.414 . S
C1591 C1594 1.499 . S
C1592 H1572 0.950 . S
C1592 C1591 1.414 . S
C1592 C1593 1.374 . S
C1593 H1573 0.950 . S
C1593 C1589 1.385 . S
C1593 C1592 1.374 . S
C1594 C1591 1.499 . S
C1594 C1595 1.373 . S
C1594 C1596 1.389 . S
C1595 H1574 0.950 . S
C1595 C1594 1.373 . S
C1595 C1611 1.377 . S
C1596 C1594 1.389 . S
C1596 C1597 1.524 . S
C1596 C1610 1.377 . S
C1597 C1596 1.524 . S
C1597 C1598 1.397 . S
C1597 C1602 1.363 . S
C1598 H1575 0.950 . S
C1598 C1597 1.397 . S
C1598 C1599 1.334 . S
C1599 H1576 0.950 . S
C1599 C1598 1.334 . S
C1599 C1600 1.287 . S
C1600 C1599 1.287 . S
C1600 C1601 1.524 . S
C1600 H1619 0.913 . S
C1601 H1577 0.950 . S
C1601 C1600 1.524 . S
C1601 C1602 1.415 . S
C1602 H1578 0.950 . S
C1602 C1597 1.363 . S
C1602 C1601 1.415 . S
C1603 H1579 0.951 . S
C1603 C1604 1.366 . S
C1603 C1605 1.388 . S
C1604 C1603 1.366 . S
C1604 C1608 1.385 . S
C1605 H1580 0.951 . S
C1605 C1603 1.388 . S
C1605 C1606 1.366 . S
C1606 C1605 1.366 . S
C1606 C1607 1.414 . S
C1606 C1609 1.499 . S
C1607 H1581 0.950 . S
C1607 C1606 1.414 . S
C1607 C1608 1.374 . S
C1608 H1582 0.950 . S
C1608 C1604 1.385 . S
C1608 C1607 1.374 . S
C1609 C1606 1.499 . S
C1609 C1610 1.373 . S
C1609 C1611 1.389 . S
C1610 H1583 0.950 . S
C1610 C1596 1.377 . S
C1610 C1609 1.373 . S
C1611 C1595 1.377 . S
C1611 C1609 1.389 . S
C1611 C1612 1.524 . S
C1612 C1611 1.524 . S
C1612 C1613 1.397 . S
C1612 C1617 1.363 . S
C1613 H1584 0.950 . S
C1613 C1612 1.397 . S
C1613 C1614 1.334 . S
C1614 H1585 0.950 . S
C1614 C1613 1.334 . S
C1614 C1615 1.287 . S
C1615 C1614 1.287 . S
C1615 C1616 1.524 . S
C1615 H1618 0.999 . S
C1616 H1586 0.950 . S
C1616 C1615 1.524 . S
C1616 C1617 1.415 . S
C1617 H1587 0.950 . S
C1617 C1612 1.363 . S
C1617 C1616 1.415 . S
H1618 C1615 0.999 . S
H1619 C1600 0.913 . S
H1620 C1638 0.951 . S
H1621 C1640 0.951 . S
H1622 C1642 0.950 . S
H1623 C1643 0.950 . S
H1624 C1645 0.950 . S
H1625 C1648 0.950 . S
H1626 C1649 0.950 . S
H1627 C1651 0.950 . S
H1628 C1652 0.950 . S
H1629 C1653 0.951 . S
H1630 C1655 0.951 . S
H1631 C1657 0.950 . S
H1632 C1658 0.950 . S
H1633 C1660 0.950 . S
H1634 C1663 0.950 . S
H1635 C1664 0.950 . S
H1636 C1666 0.950 . S
H1637 C1667 0.950 . S
C1638 H1620 0.951 . S
C1638 C1639 1.366 . S
C1638 C1640 1.388 . S
C1639 C1638 1.366 . S
C1639 C1643 1.385 . S
C1640 H1621 0.951 . S
C1640 C1638 1.388 . S
C1640 C1641 1.366 . S
C1641 C1640 1.366 . S
C1641 C1642 1.414 . S
C1641 C1644 1.499 . S
C1642 H1622 0.950 . S
C1642 C1641 1.414 . S
C1642 C1643 1.374 . S
C1643 H1623 0.950 . S
C1643 C1639 1.385 . S
C1643 C1642 1.374 . S
C1644 C1641 1.499 . S
C1644 C1645 1.373 . S
C1644 C1646 1.389 . S
C1645 H1624 0.950 . S
C1645 C1644 1.373 . S
C1645 C1661 1.377 . S
C1646 C1644 1.389 . S
C1646 C1647 1.524 . S
C1646 C1660 1.377 . S
C1647 C1646 1.524 . S
C1647 C1648 1.397 . S
C1647 C1652 1.363 . S
C1648 H1625 0.950 . S
C1648 C1647 1.397 . S
C1648 C1649 1.334 . S
C1649 H1626 0.950 . S
C1649 C1648 1.334 . S
C1649 C1650 1.287 . S
C1650 C1649 1.287 . S
C1650 C1651 1.524 . S
C1650 H1669 0.913 . S
C1651 H1627 0.950 . S
C1651 C1650 1.524 . S
C1651 C1652 1.415 . S
C1652 H1628 0.950 . S
C1652 C1647 1.363 . S
C1652 C1651 1.415 . S
C1653 H1629 0.951 . S
C1653 C1654 1.366 . S
C1653 C1655 1.388 . S
C1654 C1653 1.366 . S
C1654 C1658 1.385 . S
C1655 H1630 0.951 . S
C1655 C1653 1.388 . S
C1655 C1656 1.366 . S
C1656 C1655 1.366 . S
C1656 C1657 1.414 . S
C1656 C1659 1.499 . S
C1657 H1631 0.950 . S
C1657 C1656 1.414 . S
C1657 C1658 1.374 . S
C1658 H1632 0.950 . S
C1658 C1654 1.385 . S
C1658 C1657 1.374 . S
C1659 C1656 1.499 . S
C1659 C1660 1.373 . S
C1659 C1661 1.389 . S
C1660 H1633 0.950 . S
C1660 C1646 1.377 . S
C1660 C1659 1.373 . S
C1661 C1645 1.377 . S
C1661 C1659 1.389 . S
C1661 C1662 1.524 . S
C1662 C1661 1.524 . S
C1662 C1663 1.397 . S
C1662 C1667 1.363 . S
C1663 H1634 0.950 . S
C1663 C1662 1.397 . S
C1663 C1664 1.334 . S
C1664 H1635 0.950 . S
C1664 C1663 1.334 . S
C1664 C1665 1.287 . S
C1665 C1664 1.287 . S
C1665 C1666 1.524 . S
C1665 H1668 0.999 . S
C1666 H1636 0.950 . S
C1666 C1665 1.524 . S
C1666 C1667 1.415 . S
C1667 H1637 0.950 . S
C1667 C1662 1.363 . S
C1667 C1666 1.415 . S
H1668 C1665 0.999 . S
H1669 C1650 0.913 . S
H1670 C1688 0.951 . S
H1671 C1690 0.951 . S
H1672 C1692 0.950 . S
H1673 C1693 0.950 . S
H1674 C1695 0.950 . S
H1675 C1698 0.950 . S
H1676 C1699 0.950 . S
H1677 C1701 0.950 . S
H1678 C1702 0.950 . S
H1679 C1703 0.951 . S
H1680 C1705 0.951 . S
H1681 C1707 0.950 . S
H1682 C1708 0.950 . S
H1683 C1710 0.950 . S
H1684 C1713 0.950 . S
H1685 C1714 0.950 . S
H1686 C1716 0.950 . S
H1687 C1717 0.950 . S
C1688 H1670 0.951 . S
C1688 C1689 1.366 . S
C1688 C1690 1.388 . S
C1689 C1688 1.366 . S
C1689 C1693 1.385 . S
C1690 H1671 0.951 . S
C1690 C1688 1.388 . S
C1690 C1691 1.366 . S
C1691 C1690 1.366 . S
C1691 C1692 1.414 . S
C1691 C1694 1.499 . S
C1692 H1672 0.950 . S
C1692 C1691 1.414 . S
C1692 C1693 1.374 . S
C1693 H1673 0.950 . S
C1693 C1689 1.385 . S
C1693 C1692 1.374 . S
C1694 C1691 1.499 . S
C1694 C1695 1.373 . S
C1694 C1696 1.389 . S
C1695 H1674 0.950 . S
C1695 C1694 1.373 . S
C1695 C1711 1.377 . S
C1696 C1694 1.389 . S
C1696 C1697 1.524 . S
C1696 C1710 1.377 . S
C1697 C1696 1.524 . S
C1697 C1698 1.397 . S
C1697 C1702 1.363 . S
C1698 H1675 0.950 . S
C1698 C1697 1.397 . S
C1698 C1699 1.334 . S
C1699 H1676 0.950 . S
C1699 C1698 1.334 . S
C1699 C1700 1.287 . S
C1700 C1699 1.287 . S
C1700 C1701 1.524 . S
C1700 H1719 0.913 . S
C1701 H1677 0.950 . S
C1701 C1700 1.524 . S
C1701 C1702 1.415 . S
C1702 H1678 0.950 . S
C1702 C1697 1.363 . S
C1702 C1701 1.415 . S
C1703 H1679 0.951 . S
C1703 C1704 1.366 . S
C1703 C1705 1.388 . S
C1704 C1703 1.366 . S
C1704 C1708 1.385 . S
C1705 H1680 0.951 . S
C1705 C1703 1.388 . S
C1705 C1706 1.366 . S
C1706 C1705 1.366 . S
C1706 C1707 1.414 . S
C1706 C1709 1.499 . S
C1707 H1681 0.950 . S
C1707 C1706 1.414 . S
C1707 C1708 1.374 . S
C1708 H1682 0.950 . S
C1708 C1704 1.385 . S
C1708 C1707 1.374 . S
C1709 C1706 1.499 . S
C1709 C1710 1.373 . S
C1709 C1711 1.389 . S
C1710 H1683 0.950 . S
C1710 C1696 1.377 . S
C1710 C1709 1.373 . S
C1711 C1695 1.377 . S
C1711 C1709 1.389 . S
C1711 C1712 1.524 . S
C1712 C1711 1.524 . S
C1712 C1713 1.397 . S
C1712 C1717 1.363 . S
C1713 H1684 0.950 . S
C1713 C1712 1.397 . S
C1713 C1714 1.334 . S
C1714 H1685 0.950 . S
C1714 C1713 1.334 . S
C1714 C1715 1.287 . S
C1715 C1714 1.287 . S
C1715 C1716 1.524 . S
C1715 H1718 0.999 . S
C1716 H1686 0.950 . S
C1716 C1715 1.524 . S
C1716 C1717 1.415 . S
C1717 H1687 0.950 . S
C1717 C1712 1.363 . S
C1717 C1716 1.415 . S
H1718 C1715 0.999 . S
H1719 C1700 0.913 . S
H1720 C1738 0.951 . S
H1721 C1740 0.951 . S
H1722 C1742 0.950 . S
H1723 C1743 0.950 . S
H1724 C1745 0.950 . S
H1725 C1748 0.950 . S
H1726 C1749 0.950 . S
H1727 C1751 0.950 . S
H1728 C1752 0.950 . S
H1729 C1753 0.951 . S
H1730 C1755 0.951 . S
H1731 C1757 0.950 . S
H1732 C1758 0.950 . S
H1733 C1760 0.950 . S
H1734 C1763 0.950 . S
H1735 C1764 0.950 . S
H1736 C1766 0.950 . S
H1737 C1767 0.950 . S
C1738 H1720 0.951 . S
C1738 C1739 1.366 . S
C1738 C1740 1.388 . S
C1739 C1738 1.366 . S
C1739 C1743 1.385 . S
C1740 H1721 0.951 . S
C1740 C1738 1.388 . S
C1740 C1741 1.366 . S
C1741 C1740 1.366 . S
C1741 C1742 1.414 . S
C1741 C1744 1.499 . S
C1742 H1722 0.950 . S
C1742 C1741 1.414 . S
C1742 C1743 1.374 . S
C1743 H1723 0.950 . S
C1743 C1739 1.385 . S
C1743 C1742 1.374 . S
C1744 C1741 1.499 . S
C1744 C1745 1.373 . S
C1744 C1746 1.389 . S
C1745 H1724 0.950 . S
C1745 C1744 1.373 . S
C1745 C1761 1.377 . S
C1746 C1744 1.389 . S
C1746 C1747 1.524 . S
C1746 C1760 1.377 . S
C1747 C1746 1.524 . S
C1747 C1748 1.397 . S
C1747 C1752 1.363 . S
C1748 H1725 0.950 . S
C1748 C1747 1.397 . S
C1748 C1749 1.334 . S
C1749 H1726 0.950 . S
C1749 C1748 1.334 . S
C1749 C1750 1.287 . S
C1750 C1749 1.287 . S
C1750 C1751 1.524 . S
C1750 H1769 0.913 . S
C1751 H1727 0.950 . S
C1751 C1750 1.524 . S
C1751 C1752 1.415 . S
C1752 H1728 0.950 . S
C1752 C1747 1.363 . S
C1752 C1751 1.415 . S
C1753 H1729 0.951 . S
C1753 C1754 1.366 . S
C1753 C1755 1.388 . S
C1754 C1753 1.366 . S
C1754 C1758 1.385 . S
C1755 H1730 0.951 . S
C1755 C1753 1.388 . S
C1755 C1756 1.366 . S
C1756 C1755 1.366 . S
C1756 C1757 1.414 . S
C1756 C1759 1.499 . S
C1757 H1731 0.950 . S
C1757 C1756 1.414 . S
C1757 C1758 1.374 . S
C1758 H1732 0.950 . S
C1758 C1754 1.385 . S
C1758 C1757 1.374 . S
C1759 C1756 1.499 . S
C1759 C1760 1.373 . S
C1759 C1761 1.389 . S
C1760 H1733 0.950 . S
C1760 C1746 1.377 . S
C1760 C1759 1.373 . S
C1761 C1745 1.377 . S
C1761 C1759 1.389 . S
C1761 C1762 1.524 . S
C1762 C1761 1.524 . S
C1762 C1763 1.397 . S
C1762 C1767 1.363 . S
C1763 H1734 0.950 . S
C1763 C1762 1.397 . S
C1763 C1764 1.334 . S
C1764 H1735 0.950 . S
C1764 C1763 1.334 . S
C1764 C1765 1.287 . S
C1765 C1764 1.287 . S
C1765 C1766 1.524 . S
C1765 H1768 0.999 . S
C1766 H1736 0.950 . S
C1766 C1765 1.524 . S
C1766 C1767 1.415 . S
C1767 H1737 0.950 . S
C1767 C1762 1.363 . S
C1767 C1766 1.415 . S
H1768 C1765 0.999 . S
H1769 C1750 0.913 . S
H1770 C1788 0.951 . S
H1771 C1790 0.951 . S
H1772 C1792 0.950 . S
H1773 C1793 0.950 . S
H1774 C1795 0.950 . S
H1775 C1798 0.950 . S
H1776 C1799 0.950 . S
H1777 C1801 0.950 . S
H1778 C1802 0.950 . S
H1779 C1803 0.951 . S
H1780 C1805 0.951 . S
H1781 C1807 0.950 . S
H1782 C1808 0.950 . S
H1783 C1810 0.950 . S
H1784 C1813 0.950 . S
H1785 C1814 0.950 . S
H1786 C1816 0.950 . S
H1787 C1817 0.950 . S
C1788 H1770 0.951 . S
C1788 C1789 1.366 . S
C1788 C1790 1.388 . S
C1789 C1788 1.366 . S
C1789 C1793 1.385 . S
C1790 H1771 0.951 . S
C1790 C1788 1.388 . S
C1790 C1791 1.366 . S
C1791 C1790 1.366 . S
C1791 C1792 1.414 . S
C1791 C1794 1.499 . S
C1792 H1772 0.950 . S
C1792 C1791 1.414 . S
C1792 C1793 1.374 . S
C1793 H1773 0.950 . S
C1793 C1789 1.385 . S
C1793 C1792 1.374 . S
C1794 C1791 1.499 . S
C1794 C1795 1.373 . S
C1794 C1796 1.389 . S
C1795 H1774 0.950 . S
C1795 C1794 1.373 . S
C1795 C1811 1.377 . S
C1796 C1794 1.389 . S
C1796 C1797 1.524 . S
C1796 C1810 1.377 . S
C1797 C1796 1.524 . S
C1797 C1798 1.397 . S
C1797 C1802 1.363 . S
C1798 H1775 0.950 . S
C1798 C1797 1.397 . S
C1798 C1799 1.334 . S
C1799 H1776 0.950 . S
C1799 C1798 1.334 . S
C1799 C1800 1.287 . S
C1800 C1799 1.287 . S
C1800 C1801 1.524 . S
C1800 H1819 0.913 . S
C1801 H1777 0.950 . S
C1801 C1800 1.524 . S
C1801 C1802 1.415 . S
C1802 H1778 0.950 . S
C1802 C1797 1.363 . S
C1802 C1801 1.415 . S
C1803 H1779 0.951 . S
C1803 C1804 1.366 . S
C1803 C1805 1.388 . S
C1804 C1803 1.366 . S
C1804 C1808 1.385 . S
C1805 H1780 0.951 . S
C1805 C1803 1.388 . S
C1805 C1806 1.366 . S
C1806 C1805 1.366 . S
C1806 C1807 1.414 . S
C1806 C1809 1.499 . S
C1807 H1781 0.950 . S
C1807 C1806 1.414 . S
C1807 C1808 1.374 . S
C1808 H1782 0.950 . S
C1808 C1804 1.385 . S
C1808 C1807 1.374 . S
C1809 C1806 1.499 . S
C1809 C1810 1.373 . S
C1809 C1811 1.389 . S
C1810 H1783 0.950 . S
C1810 C1796 1.377 . S
C1810 C1809 1.373 . S
C1811 C1795 1.377 . S
C1811 C1809 1.389 . S
C1811 C1812 1.524 . S
C1812 C1811 1.524 . S
C1812 C1813 1.397 . S
C1812 C1817 1.363 . S
C1813 H1784 0.950 . S
C1813 C1812 1.397 . S
C1813 C1814 1.334 . S
C1814 H1785 0.950 . S
C1814 C1813 1.334 . S
C1814 C1815 1.287 . S
C1815 C1814 1.287 . S
C1815 C1816 1.524 . S
C1815 H1818 0.999 . S
C1816 H1786 0.950 . S
C1816 C1815 1.524 . S
C1816 C1817 1.415 . S
C1817 H1787 0.950 . S
C1817 C1812 1.363 . S
C1817 C1816 1.415 . S
H1818 C1815 0.999 . S
H1819 C1800 0.913 . S
H1820 C1838 0.951 . S
H1821 C1840 0.951 . S
H1822 C1842 0.950 . S
H1823 C1843 0.950 . S
H1824 C1845 0.950 . S
H1825 C1848 0.950 . S
H1826 C1849 0.950 . S
H1827 C1851 0.950 . S
H1828 C1852 0.950 . S
H1829 C1853 0.951 . S
H1830 C1855 0.951 . S
H1831 C1857 0.950 . S
H1832 C1858 0.950 . S
H1833 C1860 0.950 . S
H1834 C1863 0.950 . S
H1835 C1864 0.950 . S
H1836 C1866 0.950 . S
H1837 C1867 0.950 . S
C1838 H1820 0.951 . S
C1838 C1839 1.366 . S
C1838 C1840 1.388 . S
C1839 C1838 1.366 . S
C1839 C1843 1.385 . S
C1840 H1821 0.951 . S
C1840 C1838 1.388 . S
C1840 C1841 1.366 . S
C1841 C1840 1.366 . S
C1841 C1842 1.414 . S
C1841 C1844 1.499 . S
C1842 H1822 0.950 . S
C1842 C1841 1.414 . S
C1842 C1843 1.374 . S
C1843 H1823 0.950 . S
C1843 C1839 1.385 . S
C1843 C1842 1.374 . S
C1844 C1841 1.499 . S
C1844 C1845 1.373 . S
C1844 C1846 1.389 . S
C1845 H1824 0.950 . S
C1845 C1844 1.373 . S
C1845 C1861 1.377 . S
C1846 C1844 1.389 . S
C1846 C1847 1.524 . S
C1846 C1860 1.377 . S
C1847 C1846 1.524 . S
C1847 C1848 1.397 . S
C1847 C1852 1.363 . S
C1848 H1825 0.950 . S
C1848 C1847 1.397 . S
C1848 C1849 1.334 . S
C1849 H1826 0.950 . S
C1849 C1848 1.334 . S
C1849 C1850 1.287 . S
C1850 C1849 1.287 . S
C1850 C1851 1.524 . S
C1850 H1869 0.913 . S
C1851 H1827 0.950 . S
C1851 C1850 1.524 . S
C1851 C1852 1.415 . S
C1852 H1828 0.950 . S
C1852 C1847 1.363 . S
C1852 C1851 1.415 . S
C1853 H1829 0.951 . S
C1853 C1854 1.366 . S
C1853 C1855 1.388 . S
C1854 C1853 1.366 . S
C1854 C1858 1.385 . S
C1855 H1830 0.951 . S
C1855 C1853 1.388 . S
C1855 C1856 1.366 . S
C1856 C1855 1.366 . S
C1856 C1857 1.414 . S
C1856 C1859 1.499 . S
C1857 H1831 0.950 . S
C1857 C1856 1.414 . S
C1857 C1858 1.374 . S
C1858 H1832 0.950 . S
C1858 C1854 1.385 . S
C1858 C1857 1.374 . S
C1859 C1856 1.499 . S
C1859 C1860 1.373 . S
C1859 C1861 1.389 . S
C1860 H1833 0.950 . S
C1860 C1846 1.377 . S
C1860 C1859 1.373 . S
C1861 C1845 1.377 . S
C1861 C1859 1.389 . S
C1861 C1862 1.524 . S
C1862 C1861 1.524 . S
C1862 C1863 1.397 . S
C1862 C1867 1.363 . S
C1863 H1834 0.950 . S
C1863 C1862 1.397 . S
C1863 C1864 1.334 . S
C1864 H1835 0.950 . S
C1864 C1863 1.334 . S
C1864 C1865 1.287 . S
C1865 C1864 1.287 . S
C1865 C1866 1.524 . S
C1865 H1868 0.999 . S
C1866 H1836 0.950 . S
C1866 C1865 1.524 . S
C1866 C1867 1.415 . S
C1867 H1837 0.950 . S
C1867 C1862 1.363 . S
C1867 C1866 1.415 . S
H1868 C1865 0.999 . S
H1869 C1850 0.913 . S
H1870 C1888 0.951 . S
H1871 C1890 0.951 . S
H1872 C1892 0.950 . S
H1873 C1893 0.950 . S
H1874 C1895 0.950 . S
H1875 C1898 0.950 . S
H1876 C1899 0.950 . S
H1877 C1901 0.950 . S
H1878 C1902 0.950 . S
H1879 C1903 0.951 . S
H1880 C1905 0.951 . S
H1881 C1907 0.950 . S
H1882 C1908 0.950 . S
H1883 C1910 0.950 . S
H1884 C1913 0.950 . S
H1885 C1914 0.950 . S
H1886 C1916 0.950 . S
H1887 C1917 0.950 . S
C1888 H1870 0.951 . S
C1888 C1889 1.366 . S
C1888 C1890 1.388 . S
C1889 C1888 1.366 . S
C1889 C1893 1.385 . S
C1890 H1871 0.951 . S
C1890 C1888 1.388 . S
C1890 C1891 1.366 . S
C1891 C1890 1.366 . S
C1891 C1892 1.414 . S
C1891 C1894 1.499 . S
C1892 H1872 0.950 . S
C1892 C1891 1.414 . S
C1892 C1893 1.374 . S
C1893 H1873 0.950 . S
C1893 C1889 1.385 . S
C1893 C1892 1.374 . S
C1894 C1891 1.499 . S
C1894 C1895 1.373 . S
C1894 C1896 1.389 . S
C1895 H1874 0.950 . S
C1895 C1894 1.373 . S
C1895 C1911 1.377 . S
C1896 C1894 1.389 . S
C1896 C1897 1.524 . S
C1896 C1910 1.377 . S
C1897 C1896 1.524 . S
C1897 C1898 1.397 . S
C1897 C1902 1.363 . S
C1898 H1875 0.950 . S
C1898 C1897 1.397 . S
C1898 C1899 1.334 . S
C1899 H1876 0.950 . S
C1899 C1898 1.334 . S
C1899 C1900 1.287 . S
C1900 C1899 1.287 . S
C1900 C1901 1.524 . S
C1900 H1919 0.913 . S
C1901 H1877 0.950 . S
C1901 C1900 1.524 . S
C1901 C1902 1.415 . S
C1902 H1878 0.950 . S
C1902 C1897 1.363 . S
C1902 C1901 1.415 . S
C1903 H1879 0.951 . S
C1903 C1904 1.366 . S
C1903 C1905 1.388 . S
C1904 C1903 1.366 . S
C1904 C1908 1.385 . S
C1905 H1880 0.951 . S
C1905 C1903 1.388 . S
C1905 C1906 1.366 . S
C1906 C1905 1.366 . S
C1906 C1907 1.414 . S
C1906 C1909 1.499 . S
C1907 H1881 0.950 . S
C1907 C1906 1.414 . S
C1907 C1908 1.374 . S
C1908 H1882 0.950 . S
C1908 C1904 1.385 . S
C1908 C1907 1.374 . S
C1909 C1906 1.499 . S
C1909 C1910 1.373 . S
C1909 C1911 1.389 . S
C1910 H1883 0.950 . S
C1910 C1896 1.377 . S
C1910 C1909 1.373 . S
C1911 C1895 1.377 . S
C1911 C1909 1.389 . S
C1911 C1912 1.524 . S
C1912 C1911 1.524 . S
C1912 C1913 1.397 . S
C1912 C1917 1.363 . S
C1913 H1884 0.950 . S
C1913 C1912 1.397 . S
C1913 C1914 1.334 . S
C1914 H1885 0.950 . S
C1914 C1913 1.334 . S
C1914 C1915 1.287 . S
C1915 C1914 1.287 . S
C1915 C1916 1.524 . S
C1915 H1918 0.999 . S
C1916 H1886 0.950 . S
C1916 C1915 1.524 . S
C1916 C1917 1.415 . S
C1917 H1887 0.950 . S
C1917 C1912 1.363 . S
C1917 C1916 1.415 . S
H1918 C1915 0.999 . S
H1919 C1900 0.913 . S
H1920 C1938 0.951 . S
H1921 C1940 0.951 . S
H1922 C1942 0.950 . S
H1923 C1943 0.950 . S
H1924 C1945 0.950 . S
H1925 C1948 0.950 . S
H1926 C1949 0.950 . S
H1927 C1951 0.950 . S
H1928 C1952 0.950 . S
H1929 C1953 0.951 . S
H1930 C1955 0.951 . S
H1931 C1957 0.950 . S
H1932 C1958 0.950 . S
H1933 C1960 0.950 . S
H1934 C1963 0.950 . S
H1935 C1964 0.950 . S
H1936 C1966 0.950 . S
H1937 C1967 0.950 . S
C1938 H1920 0.951 . S
C1938 C1939 1.366 . S
C1938 C1940 1.388 . S
C1939 C1938 1.366 . S
C1939 C1943 1.385 . S
C1940 H1921 0.951 . S
C1940 C1938 1.388 . S
C1940 C1941 1.366 . S
C1941 C1940 1.366 . S
C1941 C1942 1.414 . S
C1941 C1944 1.499 . S
C1942 H1922 0.950 . S
C1942 C1941 1.414 . S
C1942 C1943 1.374 . S
C1943 H1923 0.950 . S
C1943 C1939 1.385 . S
C1943 C1942 1.374 . S
C1944 C1941 1.499 . S
C1944 C1945 1.373 . S
C1944 C1946 1.389 . S
C1945 H1924 0.950 . S
C1945 C1944 1.373 . S
C1945 C1961 1.377 . S
C1946 C1944 1.389 . S
C1946 C1947 1.524 . S
C1946 C1960 1.377 . S
C1947 C1946 1.524 . S
C1947 C1948 1.397 . S
C1947 C1952 1.363 . S
C1948 H1925 0.950 . S
C1948 C1947 1.397 . S
C1948 C1949 1.334 . S
C1949 H1926 0.950 . S
C1949 C1948 1.334 . S
C1949 C1950 1.287 . S
C1950 C1949 1.287 . S
C1950 C1951 1.524 . S
C1950 H1969 0.913 . S
C1951 H1927 0.950 . S
C1951 C1950 1.524 . S
C1951 C1952 1.415 . S
C1952 H1928 0.950 . S
C1952 C1947 1.363 . S
C1952 C1951 1.415 . S
C1953 H1929 0.951 . S
C1953 C1954 1.366 . S
C1953 C1955 1.388 . S
C1954 C1953 1.366 . S
C1954 C1958 1.385 . S
C1955 H1930 0.951 . S
C1955 C1953 1.388 . S
C1955 C1956 1.366 . S
C1956 C1955 1.366 . S
C1956 C1957 1.414 . S
C1956 C1959 1.499 . S
C1957 H1931 0.950 . S
C1957 C1956 1.414 . S
C1957 C1958 1.374 . S
C1958 H1932 0.950 . S
C1958 C1954 1.385 . S
C1958 C1957 1.374 . S
C1959 C1956 1.499 . S
C1959 C1960 1.373 . S
C1959 C1961 1.389 . S
C1960 H1933 0.950 . S
C1960 C1946 1.377 . S
C1960 C1959 1.373 . S
C1961 C1945 1.377 . S
C1961 C1959 1.389 . S
C1961 C1962 1.524 . S
C1962 C1961 1.524 . S
C1962 C1963 1.397 . S
C1962 C1967 1.363 . S
C1963 H1934 0.950 . S
C1963 C1962 1.397 . S
C1963 C1964 1.334 . S
C1964 H1935 0.950 . S
C1964 C1963 1.334 . S
C1964 C1965 1.287 . S
C1965 C1964 1.287 . S
C1965 C1966 1.524 . S
C1965 H1968 0.999 . S
C1966 H1936 0.950 . S
C1966 C1965 1.524 . S
C1966 C1967 1.415 . S
C1967 H1937 0.950 . S
C1967 C1962 1.363 . S
C1967 C1966 1.415 . S
H1968 C1965 0.999 . S
H1969 C1950 0.913 . S
H1970 C1988 0.951 . S
H1971 C1990 0.951 . S
H1972 C1992 0.950 . S
H1973 C1993 0.950 . S
H1974 C1995 0.950 . S
H1975 C1998 0.950 . S
H1976 C1999 0.950 . S
H1977 C2001 0.950 . S
H1978 C2002 0.950 . S
H1979 C2003 0.951 . S
H1980 C2005 0.951 . S
H1981 C2007 0.950 . S
H1982 C2008 0.950 . S
H1983 C2010 0.950 . S
H1984 C2013 0.950 . S
H1985 C2014 0.950 . S
H1986 C2016 0.950 . S
H1987 C2017 0.950 . S
C1988 H1970 0.951 . S
C1988 C1989 1.366 . S
C1988 C1990 1.388 . S
C1989 C1988 1.366 . S
C1989 C1993 1.385 . S
C1990 H1971 0.951 . S
C1990 C1988 1.388 . S
C1990 C1991 1.366 . S
C1991 C1990 1.366 . S
C1991 C1992 1.414 . S
C1991 C1994 1.499 . S
C1992 H1972 0.950 . S
C1992 C1991 1.414 . S
C1992 C1993 1.374 . S
C1993 H1973 0.950 . S
C1993 C1989 1.385 . S
C1993 C1992 1.374 . S
C1994 C1991 1.499 . S
C1994 C1995 1.373 . S
C1994 C1996 1.389 . S
C1995 H1974 0.950 . S
C1995 C1994 1.373 . S
C1995 C2011 1.377 . S
C1996 C1994 1.389 . S
C1996 C1997 1.524 . S
C1996 C2010 1.377 . S
C1997 C1996 1.524 . S
C1997 C1998 1.397 . S
C1997 C2002 1.363 . S
C1998 H1975 0.950 . S
C1998 C1997 1.397 . S
C1998 C1999 1.334 . S
C1999 H1976 0.950 . S
C1999 C1998 1.334 . S
C1999 C2000 1.287 . S
C2000 C1999 1.287 . S
C2000 C2001 1.524 . S
C2000 H2019 0.913 . S
C2001 H1977 0.950 . S
C2001 C2000 1.524 . S
C2001 C2002 1.415 . S
C2002 H1978 0.950 . S
C2002 C1997 1.363 . S
C2002 C2001 1.415 . S
C2003 H1979 0.951 . S
C2003 C2004 1.366 . S
C2003 C2005 1.388 . S
C2004 C2003 1.366 . S
C2004 C2008 1.385 . S
C2005 H1980 0.951 . S
C2005 C2003 1.388 . S
C2005 C2006 1.366 . S
C2006 C2005 1.366 . S
C2006 C2007 1.414 . S
C2006 C2009 1.499 . S
C2007 H1981 0.950 . S
C2007 C2006 1.414 . S
C2007 C2008 1.374 . S
C2008 H1982 0.950 . S
C2008 C2004 1.385 . S
C2008 C2007 1.374 . S
C2009 C2006 1.499 . S
C2009 C2010 1.373 . S
C2009 C2011 1.389 . S
C2010 H1983 0.950 . S
C2010 C1996 1.377 . S
C2010 C2009 1.373 . S
C2011 C1995 1.377 . S
C2011 C2009 1.389 . S
C2011 C2012 1.524 . S
C2012 C2011 1.524 . S
C2012 C2013 1.397 . S
C2012 C2017 1.363 . S
C2013 H1984 0.950 . S
C2013 C2012 1.397 . S
C2013 C2014 1.334 . S
C2014 H1985 0.950 . S
C2014 C2013 1.334 . S
C2014 C2015 1.287 . S
C2015 C2014 1.287 . S
C2015 C2016 1.524 . S
C2015 H2018 0.999 . S
C2016 H1986 0.950 . S
C2016 C2015 1.524 . S
C2016 C2017 1.415 . S
C2017 H1987 0.950 . S
C2017 C2012 1.363 . S
C2017 C2016 1.415 . S
H2018 C2015 0.999 . S
H2019 C2000 0.913 . S
H2020 C2038 0.951 . S
H2021 C2040 0.951 . S
H2022 C2042 0.950 . S
H2023 C2043 0.950 . S
H2024 C2045 0.950 . S
H2025 C2048 0.950 . S
H2026 C2049 0.950 . S
H2027 C2051 0.950 . S
H2028 C2052 0.950 . S
H2029 C2053 0.951 . S
H2030 C2055 0.951 . S
H2031 C2057 0.950 . S
H2032 C2058 0.950 . S
H2033 C2060 0.950 . S
H2034 C2063 0.950 . S
H2035 C2064 0.950 . S
H2036 C2066 0.950 . S
H2037 C2067 0.950 . S
C2038 H2020 0.951 . S
C2038 C2039 1.366 . S
C2038 C2040 1.388 . S
C2039 C2038 1.366 . S
C2039 C2043 1.385 . S
C2040 H2021 0.951 . S
C2040 C2038 1.388 . S
C2040 C2041 1.366 . S
C2041 C2040 1.366 . S
C2041 C2042 1.414 . S
C2041 C2044 1.499 . S
C2042 H2022 0.950 . S
C2042 C2041 1.414 . S
C2042 C2043 1.374 . S
C2043 H2023 0.950 . S
C2043 C2039 1.385 . S
C2043 C2042 1.374 . S
C2044 C2041 1.499 . S
C2044 C2045 1.373 . S
C2044 C2046 1.389 . S
C2045 H2024 0.950 . S
C2045 C2044 1.373 . S
C2045 C2061 1.377 . S
C2046 C2044 1.389 . S
C2046 C2047 1.524 . S
C2046 C2060 1.377 . S
C2047 C2046 1.524 . S
C2047 C2048 1.397 . S
C2047 C2052 1.363 . S
C2048 H2025 0.950 . S
C2048 C2047 1.397 . S
C2048 C2049 1.334 . S
C2049 H2026 0.950 . S
C2049 C2048 1.334 . S
C2049 C2050 1.287 . S
C2050 C2049 1.287 . S
C2050 C2051 1.524 . S
C2050 H2069 0.913 . S
C2051 H2027 0.950 . S
C2051 C2050 1.524 . S
C2051 C2052 1.415 . S
C2052 H2028 0.950 . S
C2052 C2047 1.363 . S
C2052 C2051 1.415 . S
C2053 H2029 0.951 . S
C2053 C2054 1.366 . S
C2053 C2055 1.388 . S
C2054 C2053 1.366 . S
C2054 C2058 1.385 . S
C2055 H2030 0.951 . S
C2055 C2053 1.388 . S
C2055 C2056 1.366 . S
C2056 C2055 1.366 . S
C2056 C2057 1.414 . S
C2056 C2059 1.499 . S
C2057 H2031 0.950 . S
C2057 C2056 1.414 . S
C2057 C2058 1.374 . S
C2058 H2032 0.950 . S
C2058 C2054 1.385 . S
C2058 C2057 1.374 . S
C2059 C2056 1.499 . S
C2059 C2060 1.373 . S
C2059 C2061 1.389 . S
C2060 H2033 0.950 . S
C2060 C2046 1.377 . S
C2060 C2059 1.373 . S
C2061 C2045 1.377 . S
C2061 C2059 1.389 . S
C2061 C2062 1.524 . S
C2062 C2061 1.524 . S
C2062 C2063 1.397 . S
C2062 C2067 1.363 . S
C2063 H2034 0.950 . S
C2063 C2062 1.397 . S
C2063 C2064 1.334 . S
C2064 H2035 0.950 . S
C2064 C2063 1.334 . S
C2064 C2065 1.287 . S
C2065 C2064 1.287 . S
C2065 C2066 1.524 . S
C2065 H2068 0.999 . S
C2066 H2036 0.950 . S
C2066 C2065 1.524 . S
C2066 C2067 1.415 . S
C2067 H2037 0.950 . S
C2067 C2062 1.363 . S
C2067 C2066 1.415 . S
H2068 C2065 0.999 . S
H2069 C2050 0.913 . S
H2070 C2088 0.951 . S
H2071 C2090 0.951 . S
H2072 C2092 0.950 . S
H2073 C2093 0.950 . S
H2074 C2095 0.950 . S
H2075 C2098 0.950 . S
H2076 C2099 0.950 . S
H2077 C2101 0.950 . S
H2078 C2102 0.950 . S
H2079 C2103 0.951 . S
H2080 C2105 0.951 . S
H2081 C2107 0.950 . S
H2082 C2108 0.950 . S
H2083 C2110 0.950 . S
H2084 C2113 0.950 . S
H2085 C2114 0.950 . S
H2086 C2116 0.950 . S
H2087 C2117 0.950 . S
C2088 H2070 0.951 . S
C2088 C2089 1.366 . S
C2088 C2090 1.388 . S
C2089 C2088 1.366 . S
C2089 C2093 1.385 . S
C2090 H2071 0.951 . S
C2090 C2088 1.388 . S
C2090 C2091 1.366 . S
C2091 C2090 1.366 . S
C2091 C2092 1.414 . S
C2091 C2094 1.499 . S
C2092 H2072 0.950 . S
C2092 C2091 1.414 . S
C2092 C2093 1.374 . S
C2093 H2073 0.950 . S
C2093 C2089 1.385 . S
C2093 C2092 1.374 . S
C2094 C2091 1.499 . S
C2094 C2095 1.373 . S
C2094 C2096 1.389 . S
C2095 H2074 0.950 . S
C2095 C2094 1.373 . S
C2095 C2111 1.377 . S
C2096 C2094 1.389 . S
C2096 C2097 1.524 . S
C2096 C2110 1.377 . S
C2097 C2096 1.524 . S
C2097 C2098 1.397 . S
C2097 C2102 1.363 . S
C2098 H2075 0.950 . S
C2098 C2097 1.397 . S
C2098 C2099 1.334 . S
C2099 H2076 0.950 . S
C2099 C2098 1.334 . S
C2099 C2100 1.287 . S
C2100 C2099 1.287 . S
C2100 C2101 1.524 . S
C2100 H2119 0.913 . S
C2101 H2077 0.950 . S
C2101 C2100 1.524 . S
C2101 C2102 1.415 . S
C2102 H2078 0.950 . S
C2102 C2097 1.363 . S
C2102 C2101 1.415 . S
C2103 H2079 0.951 . S
C2103 C2104 1.366 . S
C2103 C2105 1.388 . S
C2104 C2103 1.366 . S
C2104 C2108 1.385 . S
C2105 H2080 0.951 . S
C2105 C2103 1.388 . S
C2105 C2106 1.366 . S
C2106 C2105 1.366 . S
C2106 C2107 1.414 . S
C2106 C2109 1.499 . S
C2107 H2081 0.950 . S
C2107 C2106 1.414 . S
C2107 C2108 1.374 . S
C2108 H2082 0.950 . S
C2108 C2104 1.385 . S
C2108 C2107 1.374 . S
C2109 C2106 1.499 . S
C2109 C2110 1.373 . S
C2109 C2111 1.389 . S
C2110 H2083 0.950 . S
C2110 C2096 1.377 . S
C2110 C2109 1.373 . S
C2111 C2095 1.377 . S
C2111 C2109 1.389 . S
C2111 C2112 1.524 . S
C2112 C2111 1.524 . S
C2112 C2113 1.397 . S
C2112 C2117 1.363 . S
C2113 H2084 0.950 . S
C2113 C2112 1.397 . S
C2113 C2114 1.334 . S
C2114 H2085 0.950 . S
C2114 C2113 1.334 . S
C2114 C2115 1.287 . S
C2115 C2114 1.287 . S
C2115 C2116 1.524 . S
C2115 H2118 0.999 . S
C2116 H2086 0.950 . S
C2116 C2115 1.524 . S
C2116 C2117 1.415 . S
C2117 H2087 0.950 . S
C2117 C2112 1.363 . S
C2117 C2116 1.415 . S
H2118 C2115 0.999 . S
H2119 C2100 0.913 . S
H2120 C2138 0.951 . S
H2121 C2140 0.951 . S
H2122 C2142 0.950 . S
H2123 C2143 0.950 . S
H2124 C2145 0.950 . S
H2125 C2148 0.950 . S
H2126 C2149 0.950 . S
H2127 C2151 0.950 . S
H2128 C2152 0.950 . S
H2129 C2153 0.951 . S
H2130 C2155 0.951 . S
H2131 C2157 0.950 . S
H2132 C2158 0.950 . S
H2133 C2160 0.950 . S
H2134 C2163 0.950 . S
H2135 C2164 0.950 . S
H2136 C2166 0.950 . S
H2137 C2167 0.950 . S
C2138 H2120 0.951 . S
C2138 C2139 1.366 . S
C2138 C2140 1.388 . S
C2139 C2138 1.366 . S
C2139 C2143 1.385 . S
C2140 H2121 0.951 . S
C2140 C2138 1.388 . S
C2140 C2141 1.366 . S
C2141 C2140 1.366 . S
C2141 C2142 1.414 . S
C2141 C2144 1.499 . S
C2142 H2122 0.950 . S
C2142 C2141 1.414 . S
C2142 C2143 1.374 . S
C2143 H2123 0.950 . S
C2143 C2139 1.385 . S
C2143 C2142 1.374 . S
C2144 C2141 1.499 . S
C2144 C2145 1.373 . S
C2144 C2146 1.389 . S
C2145 H2124 0.950 . S
C2145 C2144 1.373 . S
C2145 C2161 1.377 . S
C2146 C2144 1.389 . S
C2146 C2147 1.524 . S
C2146 C2160 1.377 . S
C2147 C2146 1.524 . S
C2147 C2148 1.397 . S
C2147 C2152 1.363 . S
C2148 H2125 0.950 . S
C2148 C2147 1.397 . S
C2148 C2149 1.334 . S
C2149 H2126 0.950 . S
C2149 C2148 1.334 . S
C2149 C2150 1.287 . S
C2150 C2149 1.287 . S
C2150 C2151 1.524 . S
C2150 H2169 0.913 . S
C2151 H2127 0.950 . S
C2151 C2150 1.524 . S
C2151 C2152 1.415 . S
C2152 H2128 0.950 . S
C2152 C2147 1.363 . S
C2152 C2151 1.415 . S
C2153 H2129 0.951 . S
C2153 C2154 1.366 . S
C2153 C2155 1.388 . S
C2154 C2153 1.366 . S
C2154 C2158 1.385 . S
C2155 H2130 0.951 . S
C2155 C2153 1.388 . S
C2155 C2156 1.366 . S
C2156 C2155 1.366 . S
C2156 C2157 1.414 . S
C2156 C2159 1.499 . S
C2157 H2131 0.950 . S
C2157 C2156 1.414 . S
C2157 C2158 1.374 . S
C2158 H2132 0.950 . S
C2158 C2154 1.385 . S
C2158 C2157 1.374 . S
C2159 C2156 1.499 . S
C2159 C2160 1.373 . S
C2159 C2161 1.389 . S
C2160 H2133 0.950 . S
C2160 C2146 1.377 . S
C2160 C2159 1.373 . S
C2161 C2145 1.377 . S
C2161 C2159 1.389 . S
C2161 C2162 1.524 . S
C2162 C2161 1.524 . S
C2162 C2163 1.397 . S
C2162 C2167 1.363 . S
C2163 H2134 0.950 . S
C2163 C2162 1.397 . S
C2163 C2164 1.334 . S
C2164 H2135 0.950 . S
C2164 C2163 1.334 . S
C2164 C2165 1.287 . S
C2165 C2164 1.287 . S
C2165 C2166 1.524 . S
C2165 H2168 0.999 . S
C2166 H2136 0.950 . S
C2166 C2165 1.524 . S
C2166 C2167 1.415 . S
C2167 H2137 0.950 . S
C2167 C2162 1.363 . S
C2167 C2166 1.415 . S
H2168 C2165 0.999 . S
H2169 C2150 0.913 . S
H2170 C2188 0.951 . S
H2171 C2190 0.951 . S
H2172 C2192 0.950 . S
H2173 C2193 0.950 . S
H2174 C2195 0.950 . S
H2175 C2198 0.950 . S
H2176 C2199 0.950 . S
H2177 C2201 0.950 . S
H2178 C2202 0.950 . S
H2179 C2203 0.951 . S
H2180 C2205 0.951 . S
H2181 C2207 0.950 . S
H2182 C2208 0.950 . S
H2183 C2210 0.950 . S
H2184 C2213 0.950 . S
H2185 C2214 0.950 . S
H2186 C2216 0.950 . S
H2187 C2217 0.950 . S
C2188 H2170 0.951 . S
C2188 C2189 1.366 . S
C2188 C2190 1.388 . S
C2189 C2188 1.366 . S
C2189 C2193 1.385 . S
C2190 H2171 0.951 . S
C2190 C2188 1.388 . S
C2190 C2191 1.366 . S
C2191 C2190 1.366 . S
C2191 C2192 1.414 . S
C2191 C2194 1.499 . S
C2192 H2172 0.950 . S
C2192 C2191 1.414 . S
C2192 C2193 1.374 . S
C2193 H2173 0.950 . S
C2193 C2189 1.385 . S
C2193 C2192 1.374 . S
C2194 C2191 1.499 . S
C2194 C2195 1.373 . S
C2194 C2196 1.389 . S
C2195 H2174 0.950 . S
C2195 C2194 1.373 . S
C2195 C2211 1.377 . S
C2196 C2194 1.389 . S
C2196 C2197 1.524 . S
C2196 C2210 1.377 . S
C2197 C2196 1.524 . S
C2197 C2198 1.397 . S
C2197 C2202 1.363 . S
C2198 H2175 0.950 . S
C2198 C2197 1.397 . S
C2198 C2199 1.334 . S
C2199 H2176 0.950 . S
C2199 C2198 1.334 . S
C2199 C2200 1.287 . S
C2200 C2199 1.287 . S
C2200 C2201 1.524 . S
C2200 H2219 0.913 . S
C2201 H2177 0.950 . S
C2201 C2200 1.524 . S
C2201 C2202 1.415 . S
C2202 H2178 0.950 . S
C2202 C2197 1.363 . S
C2202 C2201 1.415 . S
C2203 H2179 0.951 . S
C2203 C2204 1.366 . S
C2203 C2205 1.388 . S
C2204 C2203 1.366 . S
C2204 C2208 1.385 . S
C2205 H2180 0.951 . S
C2205 C2203 1.388 . S
C2205 C2206 1.366 . S
C2206 C2205 1.366 . S
C2206 C2207 1.414 . S
C2206 C2209 1.499 . S
C2207 H2181 0.950 . S
C2207 C2206 1.414 . S
C2207 C2208 1.374 . S
C2208 H2182 0.950 . S
C2208 C2204 1.385 . S
C2208 C2207 1.374 . S
C2209 C2206 1.499 . S
C2209 C2210 1.373 . S
C2209 C2211 1.389 . S
C2210 H2183 0.950 . S
C2210 C2196 1.377 . S
C2210 C2209 1.373 . S
C2211 C2195 1.377 . S
C2211 C2209 1.389 . S
C2211 C2212 1.524 . S
C2212 C2211 1.524 . S
C2212 C2213 1.397 . S
C2212 C2217 1.363 . S
C2213 H2184 0.950 . S
C2213 C2212 1.397 . S
C2213 C2214 1.334 . S
C2214 H2185 0.950 . S
C2214 C2213 1.334 . S
C2214 C2215 1.287 . S
C2215 C2214 1.287 . S
C2215 C2216 1.524 . S
C2215 H2218 0.999 . S
C2216 H2186 0.950 . S
C2216 C2215 1.524 . S
C2216 C2217 1.415 . S
C2217 H2187 0.950 . S
C2217 C2212 1.363 . S
C2217 C2216 1.415 . S
H2218 C2215 0.999 . S
H2219 C2200 0.913 . S
H2220 C2238 0.951 . S
H2221 C2240 0.951 . S
H2222 C2242 0.950 . S
H2223 C2243 0.950 . S
H2224 C2245 0.950 . S
H2225 C2248 0.950 . S
H2226 C2249 0.950 . S
H2227 C2251 0.950 . S
H2228 C2252 0.950 . S
H2229 C2253 0.951 . S
H2230 C2255 0.951 . S
H2231 C2257 0.950 . S
H2232 C2258 0.950 . S
H2233 C2260 0.950 . S
H2234 C2263 0.950 . S
H2235 C2264 0.950 . S
H2236 C2266 0.950 . S
H2237 C2267 0.950 . S
C2238 H2220 0.951 . S
C2238 C2239 1.366 . S
C2238 C2240 1.388 . S
C2239 C2238 1.366 . S
C2239 C2243 1.385 . S
C2240 H2221 0.951 . S
C2240 C2238 1.388 . S
C2240 C2241 1.366 . S
C2241 C2240 1.366 . S
C2241 C2242 1.414 . S
C2241 C2244 1.499 . S
C2242 H2222 0.950 . S
C2242 C2241 1.414 . S
C2242 C2243 1.374 . S
C2243 H2223 0.950 . S
C2243 C2239 1.385 . S
C2243 C2242 1.374 . S
C2244 C2241 1.499 . S
C2244 C2245 1.373 . S
C2244 C2246 1.389 . S
C2245 H2224 0.950 . S
C2245 C2244 1.373 . S
C2245 C2261 1.377 . S
C2246 C2244 1.389 . S
C2246 C2247 1.524 . S
C2246 C2260 1.377 . S
C2247 C2246 1.524 . S
C2247 C2248 1.397 . S
C2247 C2252 1.363 . S
C2248 H2225 0.950 . S
C2248 C2247 1.397 . S
C2248 C2249 1.334 . S
C2249 H2226 0.950 . S
C2249 C2248 1.334 . S
C2249 C2250 1.287 . S
C2250 C2249 1.287 . S
C2250 C2251 1.524 . S
C2250 H2269 0.913 . S
C2251 H2227 0.950 . S
C2251 C2250 1.524 . S
C2251 C2252 1.415 . S
C2252 H2228 0.950 . S
C2252 C2247 1.363 . S
C2252 C2251 1.415 . S
C2253 H2229 0.951 . S
C2253 C2254 1.366 . S
C2253 C2255 1.388 . S
C2254 C2253 1.366 . S
C2254 C2258 1.385 . S
C2255 H2230 0.951 . S
C2255 C2253 1.388 . S
C2255 C2256 1.366 . S
C2256 C2255 1.366 . S
C2256 C2257 1.414 . S
C2256 C2259 1.499 . S
C2257 H2231 0.950 . S
C2257 C2256 1.414 . S
C2257 C2258 1.374 . S
C2258 H2232 0.950 . S
C2258 C2254 1.385 . S
C2258 C2257 1.374 . S
C2259 C2256 1.499 . S
C2259 C2260 1.373 . S
C2259 C2261 1.389 . S
C2260 H2233 0.950 . S
C2260 C2246 1.377 . S
C2260 C2259 1.373 . S
C2261 C2245 1.377 . S
C2261 C2259 1.389 . S
C2261 C2262 1.524 . S
C2262 C2261 1.524 . S
C2262 C2263 1.397 . S
C2262 C2267 1.363 . S
C2263 H2234 0.950 . S
C2263 C2262 1.397 . S
C2263 C2264 1.334 . S
C2264 H2235 0.950 . S
C2264 C2263 1.334 . S
C2264 C2265 1.287 . S
C2265 C2264 1.287 . S
C2265 C2266 1.524 . S
C2265 H2268 0.994 1_565 S
C2266 H2236 0.950 . S
C2266 C2265 1.524 . S
C2266 C2267 1.415 . S
C2267 H2237 0.950 . S
C2267 C2262 1.363 . S
C2267 C2266 1.415 . S
H2268 C2265 0.994 1_545 S
H2269 C2250 0.913 . S
H2270 C2288 0.951 . S
H2271 C2290 0.951 . S
H2272 C2292 0.950 . S
H2273 C2293 0.950 . S
H2274 C2295 0.950 . S
H2275 C2298 0.950 . S
H2276 C2299 0.950 . S
H2277 C2301 0.950 . S
H2278 C2302 0.950 . S
H2279 C2303 0.951 . S
H2280 C2305 0.951 . S
H2281 C2307 0.950 . S
H2282 C2308 0.950 . S
H2283 C2310 0.950 . S
H2284 C2313 0.950 . S
H2285 C2314 0.950 . S
H2286 C2316 0.950 . S
H2287 C2317 0.950 . S
C2288 H2270 0.951 . S
C2288 C2289 1.366 . S
C2288 C2290 1.388 . S
C2289 C2288 1.366 . S
C2289 C2293 1.385 . S
C2290 H2271 0.951 . S
C2290 C2288 1.388 . S
C2290 C2291 1.366 . S
C2291 C2290 1.366 . S
C2291 C2292 1.414 . S
C2291 C2294 1.499 . S
C2292 H2272 0.950 . S
C2292 C2291 1.414 . S
C2292 C2293 1.374 . S
C2293 H2273 0.950 . S
C2293 C2289 1.385 . S
C2293 C2292 1.374 . S
C2294 C2291 1.499 . S
C2294 C2295 1.373 . S
C2294 C2296 1.389 . S
C2295 H2274 0.950 . S
C2295 C2294 1.373 . S
C2295 C2311 1.377 . S
C2296 C2294 1.389 . S
C2296 C2297 1.524 . S
C2296 C2310 1.377 . S
C2297 C2296 1.524 . S
C2297 C2298 1.397 . S
C2297 C2302 1.363 . S
C2298 H2275 0.950 . S
C2298 C2297 1.397 . S
C2298 C2299 1.334 . S
C2299 H2276 0.950 . S
C2299 C2298 1.334 . S
C2299 C2300 1.287 . S
C2300 C2299 1.287 . S
C2300 C2301 1.524 . S
C2300 H2319 0.913 . S
C2301 H2277 0.950 . S
C2301 C2300 1.524 . S
C2301 C2302 1.415 . S
C2302 H2278 0.950 . S
C2302 C2297 1.363 . S
C2302 C2301 1.415 . S
C2303 H2279 0.951 . S
C2303 C2304 1.366 . S
C2303 C2305 1.388 . S
C2304 C2303 1.366 . S
C2304 C2308 1.385 . S
C2305 H2280 0.951 . S
C2305 C2303 1.388 . S
C2305 C2306 1.366 . S
C2306 C2305 1.366 . S
C2306 C2307 1.414 . S
C2306 C2309 1.499 . S
C2307 H2281 0.950 . S
C2307 C2306 1.414 . S
C2307 C2308 1.374 . S
C2308 H2282 0.950 . S
C2308 C2304 1.385 . S
C2308 C2307 1.374 . S
C2309 C2306 1.499 . S
C2309 C2310 1.373 . S
C2309 C2311 1.389 . S
C2310 H2283 0.950 . S
C2310 C2296 1.377 . S
C2310 C2309 1.373 . S
C2311 C2295 1.377 . S
C2311 C2309 1.389 . S
C2311 C2312 1.524 . S
C2312 C2311 1.524 . S
C2312 C2313 1.397 . S
C2312 C2317 1.363 . S
C2313 H2284 0.950 . S
C2313 C2312 1.397 . S
C2313 C2314 1.334 . S
C2314 H2285 0.950 . S
C2314 C2313 1.334 . S
C2314 C2315 1.287 . S
C2315 C2314 1.287 . S
C2315 C2316 1.524 . S
C2315 H2318 0.999 . S
C2316 H2286 0.950 . S
C2316 C2315 1.524 . S
C2316 C2317 1.415 . S
C2317 H2287 0.950 . S
C2317 C2312 1.363 . S
C2317 C2316 1.415 . S
H2318 C2315 0.999 . S
H2319 C2300 0.913 . S
H2320 C2338 0.951 . S
H2321 C2340 0.951 . S
H2322 C2342 0.950 . S
H2323 C2343 0.950 . S
H2324 C2345 0.950 . S
H2325 C2348 0.950 . S
H2326 C2349 0.950 . S
H2327 C2351 0.950 . S
H2328 C2352 0.950 . S
H2329 C2353 0.951 . S
H2330 C2355 0.951 . S
H2331 C2357 0.950 . S
H2332 C2358 0.950 . S
H2333 C2360 0.950 . S
H2334 C2363 0.950 . S
H2335 C2364 0.950 . S
H2336 C2366 0.950 . S
H2337 C2367 0.950 . S
C2338 H2320 0.951 . S
C2338 C2339 1.366 . S
C2338 C2340 1.388 . S
C2339 C2338 1.366 . S
C2339 C2343 1.385 . S
C2340 H2321 0.951 . S
C2340 C2338 1.388 . S
C2340 C2341 1.366 . S
C2341 C2340 1.366 . S
C2341 C2342 1.414 . S
C2341 C2344 1.499 . S
C2342 H2322 0.950 . S
C2342 C2341 1.414 . S
C2342 C2343 1.374 . S
C2343 H2323 0.950 . S
C2343 C2339 1.385 . S
C2343 C2342 1.374 . S
C2344 C2341 1.499 . S
C2344 C2345 1.373 . S
C2344 C2346 1.389 . S
C2345 H2324 0.950 . S
C2345 C2344 1.373 . S
C2345 C2361 1.377 . S
C2346 C2344 1.389 . S
C2346 C2347 1.524 . S
C2346 C2360 1.377 . S
C2347 C2346 1.524 . S
C2347 C2348 1.397 . S
C2347 C2352 1.363 . S
C2348 H2325 0.950 . S
C2348 C2347 1.397 . S
C2348 C2349 1.334 . S
C2349 H2326 0.950 . S
C2349 C2348 1.334 . S
C2349 C2350 1.287 . S
C2350 C2349 1.287 . S
C2350 C2351 1.524 . S
C2350 H2369 0.913 . S
C2351 H2327 0.950 . S
C2351 C2350 1.524 . S
C2351 C2352 1.415 . S
C2352 H2328 0.950 . S
C2352 C2347 1.363 . S
C2352 C2351 1.415 . S
C2353 H2329 0.951 . S
C2353 C2354 1.366 . S
C2353 C2355 1.388 . S
C2354 C2353 1.366 . S
C2354 C2358 1.385 . S
C2355 H2330 0.951 . S
C2355 C2353 1.388 . S
C2355 C2356 1.366 . S
C2356 C2355 1.366 . S
C2356 C2357 1.414 . S
C2356 C2359 1.499 . S
C2357 H2331 0.950 . S
C2357 C2356 1.414 . S
C2357 C2358 1.374 . S
C2358 H2332 0.950 . S
C2358 C2354 1.385 . S
C2358 C2357 1.374 . S
C2359 C2356 1.499 . S
C2359 C2360 1.373 . S
C2359 C2361 1.389 . S
C2360 H2333 0.950 . S
C2360 C2346 1.377 . S
C2360 C2359 1.373 . S
C2361 C2345 1.377 . S
C2361 C2359 1.389 . S
C2361 C2362 1.524 . S
C2362 C2361 1.524 . S
C2362 C2363 1.397 . S
C2362 C2367 1.363 . S
C2363 H2334 0.950 . S
C2363 C2362 1.397 . S
C2363 C2364 1.334 . S
C2364 H2335 0.950 . S
C2364 C2363 1.334 . S
C2364 C2365 1.287 . S
C2365 C2364 1.287 . S
C2365 C2366 1.524 . S
C2365 H2368 0.999 . S
C2366 H2336 0.950 . S
C2366 C2365 1.524 . S
C2366 C2367 1.415 . S
C2367 H2337 0.950 . S
C2367 C2362 1.363 . S
C2367 C2366 1.415 . S
H2368 C2365 0.999 . S
H2369 C2350 0.913 . S
H2370 C2388 0.951 . S
H2371 C2390 0.951 . S
H2372 C2392 0.950 . S
H2373 C2393 0.950 . S
H2374 C2395 0.950 . S
H2375 C2398 0.950 . S
H2376 C2399 0.950 . S
H2377 C2401 0.950 . S
H2378 C2402 0.950 . S
H2379 C2403 0.951 . S
H2380 C2405 0.951 . S
H2381 C2407 0.950 . S
H2382 C2408 0.950 . S
H2383 C2410 0.950 . S
H2384 C2413 0.950 . S
H2385 C2414 0.950 . S
H2386 C2416 0.950 . S
H2387 C2417 0.950 . S
C2388 H2370 0.951 . S
C2388 C2389 1.366 . S
C2388 C2390 1.388 . S
C2389 C2388 1.366 . S
C2389 C2393 1.385 . S
C2390 H2371 0.951 . S
C2390 C2388 1.388 . S
C2390 C2391 1.366 . S
C2391 C2390 1.366 . S
C2391 C2392 1.414 . S
C2391 C2394 1.499 . S
C2392 H2372 0.950 . S
C2392 C2391 1.414 . S
C2392 C2393 1.374 . S
C2393 H2373 0.950 . S
C2393 C2389 1.385 . S
C2393 C2392 1.374 . S
C2394 C2391 1.499 . S
C2394 C2395 1.373 . S
C2394 C2396 1.389 . S
C2395 H2374 0.950 . S
C2395 C2394 1.373 . S
C2395 C2411 1.377 . S
C2396 C2394 1.389 . S
C2396 C2397 1.524 . S
C2396 C2410 1.377 . S
C2397 C2396 1.524 . S
C2397 C2398 1.397 . S
C2397 C2402 1.363 . S
C2398 H2375 0.950 . S
C2398 C2397 1.397 . S
C2398 C2399 1.334 . S
C2399 H2376 0.950 . S
C2399 C2398 1.334 . S
C2399 C2400 1.287 . S
C2400 C2399 1.287 . S
C2400 C2401 1.524 . S
C2400 H2419 0.913 . S
C2401 H2377 0.950 . S
C2401 C2400 1.524 . S
C2401 C2402 1.415 . S
C2402 H2378 0.950 . S
C2402 C2397 1.363 . S
C2402 C2401 1.415 . S
C2403 H2379 0.951 . S
C2403 C2404 1.366 . S
C2403 C2405 1.388 . S
C2404 C2403 1.366 . S
C2404 C2408 1.385 . S
C2405 H2380 0.951 . S
C2405 C2403 1.388 . S
C2405 C2406 1.366 . S
C2406 C2405 1.366 . S
C2406 C2407 1.414 . S
C2406 C2409 1.499 . S
C2407 H2381 0.950 . S
C2407 C2406 1.414 . S
C2407 C2408 1.374 . S
C2408 H2382 0.950 . S
C2408 C2404 1.385 . S
C2408 C2407 1.374 . S
C2409 C2406 1.499 . S
C2409 C2410 1.373 . S
C2409 C2411 1.389 . S
C2410 H2383 0.950 . S
C2410 C2396 1.377 . S
C2410 C2409 1.373 . S
C2411 C2395 1.377 . S
C2411 C2409 1.389 . S
C2411 C2412 1.524 . S
C2412 C2411 1.524 . S
C2412 C2413 1.397 . S
C2412 C2417 1.363 . S
C2413 H2384 0.950 . S
C2413 C2412 1.397 . S
C2413 C2414 1.334 . S
C2414 H2385 0.950 . S
C2414 C2413 1.334 . S
C2414 C2415 1.287 . S
C2415 C2414 1.287 . S
C2415 C2416 1.524 . S
C2415 H2418 0.999 . S
C2416 H2386 0.950 . S
C2416 C2415 1.524 . S
C2416 C2417 1.415 . S
C2417 H2387 0.950 . S
C2417 C2412 1.363 . S
C2417 C2416 1.415 . S
H2418 C2415 0.999 . S
H2419 C2400 0.913 . S
H2420 C2438 0.951 . S
H2421 C2440 0.951 . S
H2422 C2442 0.950 . S
H2423 C2443 0.950 . S
H2424 C2445 0.950 . S
H2425 C2448 0.950 . S
H2426 C2449 0.950 . S
H2427 C2451 0.950 . S
H2428 C2452 0.950 . S
H2429 C2453 0.951 . S
H2430 C2455 0.951 . S
H2431 C2457 0.950 . S
H2432 C2458 0.950 . S
H2433 C2460 0.950 . S
H2434 C2463 0.950 . S
H2435 C2464 0.950 . S
H2436 C2466 0.950 . S
H2437 C2467 0.950 . S
C2438 H2420 0.951 . S
C2438 C2439 1.366 . S
C2438 C2440 1.388 . S
C2439 C2438 1.366 . S
C2439 C2443 1.385 . S
C2440 H2421 0.951 . S
C2440 C2438 1.388 . S
C2440 C2441 1.366 . S
C2441 C2440 1.366 . S
C2441 C2442 1.414 . S
C2441 C2444 1.499 . S
C2442 H2422 0.950 . S
C2442 C2441 1.414 . S
C2442 C2443 1.374 . S
C2443 H2423 0.950 . S
C2443 C2439 1.385 . S
C2443 C2442 1.374 . S
C2444 C2441 1.499 . S
C2444 C2445 1.373 . S
C2444 C2446 1.389 . S
C2445 H2424 0.950 . S
C2445 C2444 1.373 . S
C2445 C2461 1.377 . S
C2446 C2444 1.389 . S
C2446 C2447 1.524 . S
C2446 C2460 1.377 . S
C2447 C2446 1.524 . S
C2447 C2448 1.397 . S
C2447 C2452 1.363 . S
C2448 H2425 0.950 . S
C2448 C2447 1.397 . S
C2448 C2449 1.334 . S
C2449 H2426 0.950 . S
C2449 C2448 1.334 . S
C2449 C2450 1.287 . S
C2450 C2449 1.287 . S
C2450 C2451 1.524 . S
C2450 H2469 0.913 . S
C2451 H2427 0.950 . S
C2451 C2450 1.524 . S
C2451 C2452 1.415 . S
C2452 H2428 0.950 . S
C2452 C2447 1.363 . S
C2452 C2451 1.415 . S
C2453 H2429 0.951 . S
C2453 C2454 1.366 . S
C2453 C2455 1.388 . S
C2454 C2453 1.366 . S
C2454 C2458 1.385 . S
C2455 H2430 0.951 . S
C2455 C2453 1.388 . S
C2455 C2456 1.366 . S
C2456 C2455 1.366 . S
C2456 C2457 1.414 . S
C2456 C2459 1.499 . S
C2457 H2431 0.950 . S
C2457 C2456 1.414 . S
C2457 C2458 1.374 . S
C2458 H2432 0.950 . S
C2458 C2454 1.385 . S
C2458 C2457 1.374 . S
C2459 C2456 1.499 . S
C2459 C2460 1.373 . S
C2459 C2461 1.389 . S
C2460 H2433 0.950 . S
C2460 C2446 1.377 . S
C2460 C2459 1.373 . S
C2461 C2445 1.377 . S
C2461 C2459 1.389 . S
C2461 C2462 1.524 . S
C2462 C2461 1.524 . S
C2462 C2463 1.397 . S
C2462 C2467 1.363 . S
C2463 H2434 0.950 . S
C2463 C2462 1.397 . S
C2463 C2464 1.334 . S
C2464 H2435 0.950 . S
C2464 C2463 1.334 . S
C2464 C2465 1.287 . S
C2465 C2464 1.287 . S
C2465 C2466 1.524 . S
C2465 H2468 0.999 . S
C2466 H2436 0.950 . S
C2466 C2465 1.524 . S
C2466 C2467 1.415 . S
C2467 H2437 0.950 . S
C2467 C2462 1.363 . S
C2467 C2466 1.415 . S
H2468 C2465 0.999 . S
H2469 C2450 0.913 . S
H2470 C2488 0.951 . S
H2471 C2490 0.951 . S
H2472 C2492 0.950 . S
H2473 C2493 0.950 . S
H2474 C2495 0.950 . S
H2475 C2498 0.950 . S
H2476 C2499 0.950 . S
H2477 C2501 0.950 . S
H2478 C2502 0.950 . S
H2479 C2503 0.951 . S
H2480 C2505 0.951 . S
H2481 C2507 0.950 . S
H2482 C2508 0.950 . S
H2483 C2510 0.950 . S
H2484 C2513 0.950 . S
H2485 C2514 0.950 . S
H2486 C2516 0.950 . S
H2487 C2517 0.950 . S
C2488 H2470 0.951 . S
C2488 C2489 1.366 . S
C2488 C2490 1.388 . S
C2489 C2488 1.366 . S
C2489 C2493 1.385 . S
C2490 H2471 0.951 . S
C2490 C2488 1.388 . S
C2490 C2491 1.366 . S
C2491 C2490 1.366 . S
C2491 C2492 1.414 . S
C2491 C2494 1.499 . S
C2492 H2472 0.950 . S
C2492 C2491 1.414 . S
C2492 C2493 1.374 . S
C2493 H2473 0.950 . S
C2493 C2489 1.385 . S
C2493 C2492 1.374 . S
C2494 C2491 1.499 . S
C2494 C2495 1.373 . S
C2494 C2496 1.389 . S
C2495 H2474 0.950 . S
C2495 C2494 1.373 . S
C2495 C2511 1.377 . S
C2496 C2494 1.389 . S
C2496 C2497 1.524 . S
C2496 C2510 1.377 . S
C2497 C2496 1.524 . S
C2497 C2498 1.397 . S
C2497 C2502 1.363 . S
C2498 H2475 0.950 . S
C2498 C2497 1.397 . S
C2498 C2499 1.334 . S
C2499 H2476 0.950 . S
C2499 C2498 1.334 . S
C2499 C2500 1.287 . S
C2500 C2499 1.287 . S
C2500 C2501 1.524 . S
C2500 H2519 0.913 . S
C2501 H2477 0.950 . S
C2501 C2500 1.524 . S
C2501 C2502 1.415 . S
C2502 H2478 0.950 . S
C2502 C2497 1.363 . S
C2502 C2501 1.415 . S
C2503 H2479 0.951 . S
C2503 C2504 1.366 . S
C2503 C2505 1.388 . S
C2504 C2503 1.366 . S
C2504 C2508 1.385 . S
C2505 H2480 0.951 . S
C2505 C2503 1.388 . S
C2505 C2506 1.366 . S
C2506 C2505 1.366 . S
C2506 C2507 1.414 . S
C2506 C2509 1.499 . S
C2507 H2481 0.950 . S
C2507 C2506 1.414 . S
C2507 C2508 1.374 . S
C2508 H2482 0.950 . S
C2508 C2504 1.385 . S
C2508 C2507 1.374 . S
C2509 C2506 1.499 . S
C2509 C2510 1.373 . S
C2509 C2511 1.389 . S
C2510 H2483 0.950 . S
C2510 C2496 1.377 . S
C2510 C2509 1.373 . S
C2511 C2495 1.377 . S
C2511 C2509 1.389 . S
C2511 C2512 1.524 . S
C2512 C2511 1.524 . S
C2512 C2513 1.397 . S
C2512 C2517 1.363 . S
C2513 H2484 0.950 . S
C2513 C2512 1.397 . S
C2513 C2514 1.334 . S
C2514 H2485 0.950 . S
C2514 C2513 1.334 . S
C2514 C2515 1.287 . S
C2515 C2514 1.287 . S
C2515 C2516 1.524 . S
C2515 H2518 0.999 . S
C2516 H2486 0.950 . S
C2516 C2515 1.524 . S
C2516 C2517 1.415 . S
C2517 H2487 0.950 . S
C2517 C2512 1.363 . S
C2517 C2516 1.415 . S
H2518 C2515 0.999 . S
H2519 C2500 0.913 . S
H2520 C2538 0.951 . S
H2521 C2540 0.951 . S
H2522 C2542 0.950 . S
H2523 C2543 0.950 . S
H2524 C2545 0.950 . S
H2525 C2548 0.950 . S
H2526 C2549 0.950 . S
H2527 C2551 0.950 . S
H2528 C2552 0.950 . S
H2529 C2553 0.951 . S
H2530 C2555 0.951 . S
H2531 C2557 0.950 . S
H2532 C2558 0.950 . S
H2533 C2560 0.950 . S
H2534 C2563 0.950 . S
H2535 C2564 0.950 . S
H2536 C2566 0.950 . S
H2537 C2567 0.950 . S
C2538 H2520 0.951 . S
C2538 C2539 1.366 . S
C2538 C2540 1.388 . S
C2539 C2538 1.366 . S
C2539 C2543 1.385 . S
C2540 H2521 0.951 . S
C2540 C2538 1.388 . S
C2540 C2541 1.366 . S
C2541 C2540 1.366 . S
C2541 C2542 1.414 . S
C2541 C2544 1.499 . S
C2542 H2522 0.950 . S
C2542 C2541 1.414 . S
C2542 C2543 1.374 . S
C2543 H2523 0.950 . S
C2543 C2539 1.385 . S
C2543 C2542 1.374 . S
C2544 C2541 1.499 . S
C2544 C2545 1.373 . S
C2544 C2546 1.389 . S
C2545 H2524 0.950 . S
C2545 C2544 1.373 . S
C2545 C2561 1.377 . S
C2546 C2544 1.389 . S
C2546 C2547 1.524 . S
C2546 C2560 1.377 . S
C2547 C2546 1.524 . S
C2547 C2548 1.397 . S
C2547 C2552 1.363 . S
C2548 H2525 0.950 . S
C2548 C2547 1.397 . S
C2548 C2549 1.334 . S
C2549 H2526 0.950 . S
C2549 C2548 1.334 . S
C2549 C2550 1.287 . S
C2550 C2549 1.287 . S
C2550 C2551 1.524 . S
C2550 H2569 0.913 . S
C2551 H2527 0.950 . S
C2551 C2550 1.524 . S
C2551 C2552 1.415 . S
C2552 H2528 0.950 . S
C2552 C2547 1.363 . S
C2552 C2551 1.415 . S
C2553 H2529 0.951 . S
C2553 C2554 1.366 . S
C2553 C2555 1.388 . S
C2554 C2553 1.366 . S
C2554 C2558 1.385 . S
C2555 H2530 0.951 . S
C2555 C2553 1.388 . S
C2555 C2556 1.366 . S
C2556 C2555 1.366 . S
C2556 C2557 1.414 . S
C2556 C2559 1.499 . S
C2557 H2531 0.950 . S
C2557 C2556 1.414 . S
C2557 C2558 1.374 . S
C2558 H2532 0.950 . S
C2558 C2554 1.385 . S
C2558 C2557 1.374 . S
C2559 C2556 1.499 . S
C2559 C2560 1.373 . S
C2559 C2561 1.389 . S
C2560 H2533 0.950 . S
C2560 C2546 1.377 . S
C2560 C2559 1.373 . S
C2561 C2545 1.377 . S
C2561 C2559 1.389 . S
C2561 C2562 1.524 . S
C2562 C2561 1.524 . S
C2562 C2563 1.397 . S
C2562 C2567 1.363 . S
C2563 H2534 0.950 . S
C2563 C2562 1.397 . S
C2563 C2564 1.334 . S
C2564 H2535 0.950 . S
C2564 C2563 1.334 . S
C2564 C2565 1.287 . S
C2565 C2564 1.287 . S
C2565 C2566 1.524 . S
C2565 H2568 0.999 1_565 S
C2566 H2536 0.950 . S
C2566 C2565 1.524 . S
C2566 C2567 1.415 . S
C2567 H2537 0.950 . S
C2567 C2562 1.363 . S
C2567 C2566 1.415 . S
H2568 C2565 0.999 1_545 S
H2569 C2550 0.913 . S
H2570 C2588 0.951 . S
H2571 C2590 0.951 . S
H2572 C2592 0.950 . S
H2573 C2593 0.950 . S
H2574 C2595 0.950 . S
H2575 C2598 0.950 . S
H2576 C2599 0.950 . S
H2577 C2601 0.950 . S
H2578 C2602 0.950 . S
H2579 C2603 0.951 . S
H2580 C2605 0.951 . S
H2581 C2607 0.950 . S
H2582 C2608 0.950 . S
H2583 C2610 0.950 . S
H2584 C2613 0.950 . S
H2585 C2614 0.950 . S
H2586 C2616 0.950 . S
H2587 C2617 0.950 . S
C2588 H2570 0.951 . S
C2588 C2589 1.366 . S
C2588 C2590 1.388 . S
C2589 C2588 1.366 . S
C2589 C2593 1.385 . S
C2590 H2571 0.951 . S
C2590 C2588 1.388 . S
C2590 C2591 1.366 . S
C2591 C2590 1.366 . S
C2591 C2592 1.414 . S
C2591 C2594 1.499 . S
C2592 H2572 0.950 . S
C2592 C2591 1.414 . S
C2592 C2593 1.374 . S
C2593 H2573 0.950 . S
C2593 C2589 1.385 . S
C2593 C2592 1.374 . S
C2594 C2591 1.499 . S
C2594 C2595 1.373 . S
C2594 C2596 1.389 . S
C2595 H2574 0.950 . S
C2595 C2594 1.373 . S
C2595 C2611 1.377 . S
C2596 C2594 1.389 . S
C2596 C2597 1.524 . S
C2596 C2610 1.377 . S
C2597 C2596 1.524 . S
C2597 C2598 1.397 . S
C2597 C2602 1.363 . S
C2598 H2575 0.950 . S
C2598 C2597 1.397 . S
C2598 C2599 1.334 . S
C2599 H2576 0.950 . S
C2599 C2598 1.334 . S
C2599 C2600 1.287 . S
C2600 C2599 1.287 . S
C2600 C2601 1.524 . S
C2600 H2619 0.913 . S
C2601 H2577 0.950 . S
C2601 C2600 1.524 . S
C2601 C2602 1.415 . S
C2602 H2578 0.950 . S
C2602 C2597 1.363 . S
C2602 C2601 1.415 . S
C2603 H2579 0.951 . S
C2603 C2604 1.366 . S
C2603 C2605 1.388 . S
C2604 C2603 1.366 . S
C2604 C2608 1.385 . S
C2605 H2580 0.951 . S
C2605 C2603 1.388 . S
C2605 C2606 1.366 . S
C2606 C2605 1.366 . S
C2606 C2607 1.414 . S
C2606 C2609 1.499 . S
C2607 H2581 0.950 . S
C2607 C2606 1.414 . S
C2607 C2608 1.374 . S
C2608 H2582 0.950 . S
C2608 C2604 1.385 . S
C2608 C2607 1.374 . S
C2609 C2606 1.499 . S
C2609 C2610 1.373 . S
C2609 C2611 1.389 . S
C2610 H2583 0.950 . S
C2610 C2596 1.377 . S
C2610 C2609 1.373 . S
C2611 C2595 1.377 . S
C2611 C2609 1.389 . S
C2611 C2612 1.524 . S
C2612 C2611 1.524 . S
C2612 C2613 1.397 . S
C2612 C2617 1.363 . S
C2613 H2584 0.950 . S
C2613 C2612 1.397 . S
C2613 C2614 1.334 . S
C2614 H2585 0.950 . S
C2614 C2613 1.334 . S
C2614 C2615 1.287 . S
C2615 C2614 1.287 . S
C2615 C2616 1.524 . S
C2615 H2618 0.999 . S
C2616 H2586 0.950 . S
C2616 C2615 1.524 . S
C2616 C2617 1.415 . S
C2617 H2587 0.950 . S
C2617 C2612 1.363 . S
C2617 C2616 1.415 . S
H2618 C2615 0.999 . S
H2619 C2600 0.913 . S
H2620 C2638 0.951 . S
H2621 C2640 0.951 . S
H2622 C2642 0.950 . S
H2623 C2643 0.950 . S
H2624 C2645 0.950 . S
H2625 C2648 0.950 . S
H2626 C2649 0.950 . S
H2627 C2651 0.950 . S
H2628 C2652 0.950 . S
H2629 C2653 0.951 . S
H2630 C2655 0.951 . S
H2631 C2657 0.950 . S
H2632 C2658 0.950 . S
H2633 C2660 0.950 . S
H2634 C2663 0.950 . S
H2635 C2664 0.950 . S
H2636 C2666 0.950 . S
H2637 C2667 0.950 . S
C2638 H2620 0.951 . S
C2638 C2639 1.366 . S
C2638 C2640 1.388 . S
C2639 C2638 1.366 . S
C2639 C2643 1.385 . S
C2640 H2621 0.951 . S
C2640 C2638 1.388 . S
C2640 C2641 1.366 . S
C2641 C2640 1.366 . S
C2641 C2642 1.414 . S
C2641 C2644 1.499 . S
C2642 H2622 0.950 . S
C2642 C2641 1.414 . S
C2642 C2643 1.374 . S
C2643 H2623 0.950 . S
C2643 C2639 1.385 . S
C2643 C2642 1.374 . S
C2644 C2641 1.499 . S
C2644 C2645 1.373 . S
C2644 C2646 1.389 . S
C2645 H2624 0.950 . S
C2645 C2644 1.373 . S
C2645 C2661 1.377 . S
C2646 C2644 1.389 . S
C2646 C2647 1.524 . S
C2646 C2660 1.377 . S
C2647 C2646 1.524 . S
C2647 C2648 1.397 . S
C2647 C2652 1.363 . S
C2648 H2625 0.950 . S
C2648 C2647 1.397 . S
C2648 C2649 1.334 . S
C2649 H2626 0.950 . S
C2649 C2648 1.334 . S
C2649 C2650 1.287 . S
C2650 C2649 1.287 . S
C2650 C2651 1.524 . S
C2650 H2669 0.913 . S
C2651 H2627 0.950 . S
C2651 C2650 1.524 . S
C2651 C2652 1.415 . S
C2652 H2628 0.950 . S
C2652 C2647 1.363 . S
C2652 C2651 1.415 . S
C2653 H2629 0.951 . S
C2653 C2654 1.366 . S
C2653 C2655 1.388 . S
C2654 C2653 1.366 . S
C2654 C2658 1.385 . S
C2655 H2630 0.951 . S
C2655 C2653 1.388 . S
C2655 C2656 1.366 . S
C2656 C2655 1.366 . S
C2656 C2657 1.414 . S
C2656 C2659 1.499 . S
C2657 H2631 0.950 . S
C2657 C2656 1.414 . S
C2657 C2658 1.374 . S
C2658 H2632 0.950 . S
C2658 C2654 1.385 . S
C2658 C2657 1.374 . S
C2659 C2656 1.499 . S
C2659 C2660 1.373 . S
C2659 C2661 1.389 . S
C2660 H2633 0.950 . S
C2660 C2646 1.377 . S
C2660 C2659 1.373 . S
C2661 C2645 1.377 . S
C2661 C2659 1.389 . S
C2661 C2662 1.524 . S
C2662 C2661 1.524 . S
C2662 C2663 1.397 . S
C2662 C2667 1.363 . S
C2663 H2634 0.950 . S
C2663 C2662 1.397 . S
C2663 C2664 1.334 . S
C2664 H2635 0.950 . S
C2664 C2663 1.334 . S
C2664 C2665 1.287 . S
C2665 C2664 1.287 . S
C2665 C2666 1.524 . S
C2665 H2668 0.999 . S
C2666 H2636 0.950 . S
C2666 C2665 1.524 . S
C2666 C2667 1.415 . S
C2667 H2637 0.950 . S
C2667 C2662 1.363 . S
C2667 C2666 1.415 . S
H2668 C2665 0.999 . S
H2669 C2650 0.913 . S
H2670 C2688 0.951 . S
H2671 C2690 0.951 . S
H2672 C2692 0.950 . S
H2673 C2693 0.950 . S
H2674 C2695 0.950 . S
H2675 C2698 0.950 . S
H2676 C2699 0.950 . S
H2677 C2701 0.950 . S
H2678 C2702 0.950 . S
H2679 C2703 0.951 . S
H2680 C2705 0.951 . S
H2681 C2707 0.950 . S
H2682 C2708 0.950 . S
H2683 C2710 0.950 . S
H2684 C2713 0.950 . S
H2685 C2714 0.950 . S
H2686 C2716 0.950 . S
H2687 C2717 0.950 . S
C2688 H2670 0.951 . S
C2688 C2689 1.366 . S
C2688 C2690 1.388 . S
C2689 C2688 1.366 . S
C2689 C2693 1.385 . S
C2690 H2671 0.951 . S
C2690 C2688 1.388 . S
C2690 C2691 1.366 . S
C2691 C2690 1.366 . S
C2691 C2692 1.414 . S
C2691 C2694 1.499 . S
C2692 H2672 0.950 . S
C2692 C2691 1.414 . S
C2692 C2693 1.374 . S
C2693 H2673 0.950 . S
C2693 C2689 1.385 . S
C2693 C2692 1.374 . S
C2694 C2691 1.499 . S
C2694 C2695 1.373 . S
C2694 C2696 1.389 . S
C2695 H2674 0.950 . S
C2695 C2694 1.373 . S
C2695 C2711 1.377 . S
C2696 C2694 1.389 . S
C2696 C2697 1.524 . S
C2696 C2710 1.377 . S
C2697 C2696 1.524 . S
C2697 C2698 1.397 . S
C2697 C2702 1.363 . S
C2698 H2675 0.950 . S
C2698 C2697 1.397 . S
C2698 C2699 1.334 . S
C2699 H2676 0.950 . S
C2699 C2698 1.334 . S
C2699 C2700 1.287 . S
C2700 C2699 1.287 . S
C2700 C2701 1.524 . S
C2700 H2719 0.913 . S
C2701 H2677 0.950 . S
C2701 C2700 1.524 . S
C2701 C2702 1.415 . S
C2702 H2678 0.950 . S
C2702 C2697 1.363 . S
C2702 C2701 1.415 . S
C2703 H2679 0.951 . S
C2703 C2704 1.366 . S
C2703 C2705 1.388 . S
C2704 C2703 1.366 . S
C2704 C2708 1.385 . S
C2705 H2680 0.951 . S
C2705 C2703 1.388 . S
C2705 C2706 1.366 . S
C2706 C2705 1.366 . S
C2706 C2707 1.414 . S
C2706 C2709 1.499 . S
C2707 H2681 0.950 . S
C2707 C2706 1.414 . S
C2707 C2708 1.374 . S
C2708 H2682 0.950 . S
C2708 C2704 1.385 . S
C2708 C2707 1.374 . S
C2709 C2706 1.499 . S
C2709 C2710 1.373 . S
C2709 C2711 1.389 . S
C2710 H2683 0.950 . S
C2710 C2696 1.377 . S
C2710 C2709 1.373 . S
C2711 C2695 1.377 . S
C2711 C2709 1.389 . S
C2711 C2712 1.524 . S
C2712 C2711 1.524 . S
C2712 C2713 1.397 . S
C2712 C2717 1.363 . S
C2713 H2684 0.950 . S
C2713 C2712 1.397 . S
C2713 C2714 1.334 . S
C2714 H2685 0.950 . S
C2714 C2713 1.334 . S
C2714 C2715 1.287 . S
C2715 C2714 1.287 . S
C2715 C2716 1.524 . S
C2715 H2718 0.999 . S
C2716 H2686 0.950 . S
C2716 C2715 1.524 . S
C2716 C2717 1.415 . S
C2717 H2687 0.950 . S
C2717 C2712 1.363 . S
C2717 C2716 1.415 . S
H2718 C2715 0.999 . S
H2719 C2700 0.913 . S
H2720 C2738 0.951 . S
H2721 C2740 0.951 . S
H2722 C2742 0.950 . S
H2723 C2743 0.950 . S
H2724 C2745 0.950 . S
H2725 C2748 0.950 . S
H2726 C2749 0.950 . S
H2727 C2751 0.950 . S
H2728 C2752 0.950 . S
H2729 C2753 0.951 . S
H2730 C2755 0.951 . S
H2731 C2757 0.950 . S
H2732 C2758 0.950 . S
H2733 C2760 0.950 . S
H2734 C2763 0.950 . S
H2735 C2764 0.950 . S
H2736 C2766 0.950 . S
H2737 C2767 0.950 . S
C2738 H2720 0.951 . S
C2738 C2739 1.366 . S
C2738 C2740 1.388 . S
C2739 C2738 1.366 . S
C2739 C2743 1.385 . S
C2740 H2721 0.951 . S
C2740 C2738 1.388 . S
C2740 C2741 1.366 . S
C2741 C2740 1.366 . S
C2741 C2742 1.414 . S
C2741 C2744 1.499 . S
C2742 H2722 0.950 . S
C2742 C2741 1.414 . S
C2742 C2743 1.374 . S
C2743 H2723 0.950 . S
C2743 C2739 1.385 . S
C2743 C2742 1.374 . S
C2744 C2741 1.499 . S
C2744 C2745 1.373 . S
C2744 C2746 1.389 . S
C2745 H2724 0.950 . S
C2745 C2744 1.373 . S
C2745 C2761 1.377 . S
C2746 C2744 1.389 . S
C2746 C2747 1.524 . S
C2746 C2760 1.377 . S
C2747 C2746 1.524 . S
C2747 C2748 1.397 . S
C2747 C2752 1.363 . S
C2748 H2725 0.950 . S
C2748 C2747 1.397 . S
C2748 C2749 1.334 . S
C2749 H2726 0.950 . S
C2749 C2748 1.334 . S
C2749 C2750 1.287 . S
C2750 C2749 1.287 . S
C2750 C2751 1.524 . S
C2750 H2769 0.913 . S
C2751 H2727 0.950 . S
C2751 C2750 1.524 . S
C2751 C2752 1.415 . S
C2752 H2728 0.950 . S
C2752 C2747 1.363 . S
C2752 C2751 1.415 . S
C2753 H2729 0.951 . S
C2753 C2754 1.366 . S
C2753 C2755 1.388 . S
C2754 C2753 1.366 . S
C2754 C2758 1.385 . S
C2755 H2730 0.951 . S
C2755 C2753 1.388 . S
C2755 C2756 1.366 . S
C2756 C2755 1.366 . S
C2756 C2757 1.414 . S
C2756 C2759 1.499 . S
C2757 H2731 0.950 . S
C2757 C2756 1.414 . S
C2757 C2758 1.374 . S
C2758 H2732 0.950 . S
C2758 C2754 1.385 . S
C2758 C2757 1.374 . S
C2759 C2756 1.499 . S
C2759 C2760 1.373 . S
C2759 C2761 1.389 . S
C2760 H2733 0.950 . S
C2760 C2746 1.377 . S
C2760 C2759 1.373 . S
C2761 C2745 1.377 . S
C2761 C2759 1.389 . S
C2761 C2762 1.524 . S
C2762 C2761 1.524 . S
C2762 C2763 1.397 . S
C2762 C2767 1.363 . S
C2763 H2734 0.950 . S
C2763 C2762 1.397 . S
C2763 C2764 1.334 . S
C2764 H2735 0.950 . S
C2764 C2763 1.334 . S
C2764 C2765 1.287 . S
C2765 C2764 1.287 . S
C2765 C2766 1.524 . S
C2765 H2768 0.999 . S
C2766 H2736 0.950 . S
C2766 C2765 1.524 . S
C2766 C2767 1.415 . S
C2767 H2737 0.950 . S
C2767 C2762 1.363 . S
C2767 C2766 1.415 . S
H2768 C2765 0.999 . S
H2769 C2750 0.913 . S
C404 C195 1.183 . S
C389 C17 1.210 . S
C454 C185 1.625 . S
C439 C44 1.521 . S
C504 C186 0.790 . S
C489 C63 0.793 . S
C539 C87 1.363 . S
C554 C208 1.335 . S
C589 C110 1.390 . S
C604 C211 1.366 . S
C654 C194 0.807 . S
C639 C131 0.812 . S
C689 C159 1.426 . S
C704 C184 1.510 . S
C739 C177 1.223 . S
C754 C202 1.198 . S
C804 C215 1.414 . S
C789 C20 1.337 . S
C839 C42 1.318 . S
C854 C264 1.304 . S
C904 C242 1.557 . S
C889 C66 1.457 . S
C954 C256 0.708 . S
C939 C86 0.699 . S
C989 C109 0.694 . S
C1004 C217 0.701 . S
C1054 C270 1.453 . S
C1039 C136 1.401 . S
C1089 C157 1.314 . S
C1104 C226 1.295 . S
C1139 C182 1.419 . S
C1154 C247 1.471 . S
C1189 C18 1.461 . S
C1204 C273 1.424 . S
C1239 C112 1.135 . S
C1254 C257 1.161 . S
C1304 C216 1.408 . S
C1289 C134 1.420 . S
C1354 C248 0.833 . S
C1339 C154 0.849 . S
C1389 C180 1.350 . S
C1404 C239 1.334 . S
C1439 C64 1.383 . S
C1454 C246 1.337 . S
C1504 C233 1.175 . S
C1489 C89 1.159 . S
C1539 C39 0.870 . S
C1554 C225 0.858 . S
C1589 C178 1.209 . S
C1604 C288 1.182 . S
C1639 C113 1.522 . S
C1654 C278 1.625 . S
C1704 C279 0.789 . S
C1689 C132 0.793 . S
C1754 C301 1.334 . S
C1739 C156 1.363 . S
C1789 C41 1.390 . S
C1804 C304 1.365 . S
C1854 C287 0.807 . S
C1839 C62 0.811 . S
C1889 C90 1.427 . S
C1904 C277 1.509 . S
C1939 C16 1.223 . S
C1954 C295 1.198 . S
C1989 C181 1.338 . S
C2004 C308 1.414 . S
C2054 C357 1.305 . S
C2039 C111 1.317 . S
C2089 C135 1.457 . S
C2104 C335 1.556 . S
C2139 C155 0.699 . S
C2154 C349 0.708 . S
C2204 C310 0.699 . S
C2189 C40 0.694 . S
C2239 C67 1.400 . S
C2254 C363 1.452 . S
C2304 C319 1.295 . S
C2289 C88 1.315 . S
C2354 C340 1.472 . S
C2339 C21 1.419 . S
C2404 C366 1.424 . S
C2389 C179 1.461 . S
C2439 C43 1.134 . S
C2454 C350 1.159 . S
C2489 C65 1.420 . S
C2504 C309 1.408 . S
C2554 C341 0.833 . S
C2539 C85 0.849 . S
C2589 C19 1.351 . S
C2604 C332 1.335 . S
C2639 C133 1.383 . S
C2654 C339 1.338 . S
C2704 C326 1.174 . S
C2689 C158 1.157 . S
C2754 C318 0.858 . S
C2739 C108 0.870 . S
