# Generated by pormake.
# Topology rtl, (3,6)-cn, num edge types: 1
# Building blocks:
#     Node 0, Type 0, BuildingBlock: OLANEW_clean_sbu_2, # of connection points: 3
#     Node 1, Type 0, BuildingBlock: OLANEW_clean_sbu_2, # of connection points: 3
#     Node 2, Type 0, BuildingBlock: OLANEW_clean_sbu_2, # of connection points: 3
#     Node 3, Type 0, BuildingBlock: OLANEW_clean_sbu_2, # of connection points: 3
#     Node 4, Type 1, BuildingBlock: KUMBOL_clean_sbu_1, # of connection points: 6
#     Node 5, Type 1, BuildingBlock: KUMBOL_clean_sbu_1, # of connection points: 6
#     Edge 6, Type (0, 1), BuildingBlock: OJICUG_clean_linker_0, # of connection points: 2
#     Edge 7, Type (0, 1), BuildingBlock: OJICUG_clean_linker_0, # of connection points: 2
#     Edge 8, Type (0, 1), BuildingBlock: OJICUG_clean_linker_0, # of connection points: 2
#     Edge 9, Type (0, 1), BuildingBlock: OJICUG_clean_linker_0, # of connection points: 2
#     Edge 10, Type (0, 1), BuildingBlock: OJICUG_clean_linker_0, # of connection points: 2
#     Edge 11, Type (0, 1), BuildingBlock: OJICUG_clean_linker_0, # of connection points: 2
#     Edge 12, Type (0, 1), BuildingBlock: OJICUG_clean_linker_0, # of connection points: 2
#     Edge 13, Type (0, 1), BuildingBlock: OJICUG_clean_linker_0, # of connection points: 2
#     Edge 14, Type (0, 1), BuildingBlock: OJICUG_clean_linker_0, # of connection points: 2
#     Edge 15, Type (0, 1), BuildingBlock: OJICUG_clean_linker_0, # of connection points: 2
#     Edge 16, Type (0, 1), BuildingBlock: OJICUG_clean_linker_0, # of connection points: 2
#     Edge 17, Type (0, 1), BuildingBlock: OJICUG_clean_linker_0, # of connection points: 2
# Relax obj value: 0.047
# Max RMSD: 0.180
# Mean RMSD: 0.140
data_MOF--net-rtl--node1-OLANEW_clean_sbu_2--node2-KUMBOL_clean_sbu_1--edge1-OJICUG_clean_linker_0
_symmetry_space_group_name_H-M    P1
_symmetry_Int_Tables_number       1
_symmetry_cell_setting            triclinic
loop_
_symmetry_equiv_pos_as_xyz
'x, y, z'
_cell_length_a     28.59972
_cell_length_b     28.698376
_cell_length_c     22.754641
_cell_angle_alpha  71.614568
_cell_angle_beta   103.45708
_cell_angle_gamma 91.647389
loop_
_atom_site_label
_atom_site_type_symbol
_atom_site_fract_x
_atom_site_fract_y
_atom_site_fract_z
_atom_type_partial_charge
O0 O 0.21369 0.8568 0.9466 0.0
Cd1 Cd 0.28344 0.83005 0.03582 0.0
O2 O 0.2117 0.93112 0.95499 0.0
Cd3 Cd 0.25073 0.91198 0.05488 0.0
O4 O 0.2333 0.90537 0.14593 0.0
C5 C 0.21486 0.94256 0.15294 0.0
O6 O 0.21139 0.98511 0.10771 0.0
C7 C 0.19739 0.90119 0.92423 0.0
C8 C 0.33267 0.75107 0.02642 0.0
O9 O 0.30467 0.74432 0.06462 0.0
O10 O 0.33774 0.79517 0.99273 0.0
O11 O 0.67779 0.7325 0.80094 0.0
Cd12 Cd 0.71583 0.75933 0.70834 0.0
O13 O 0.65774 0.6896 0.73688 0.0
Cd14 Cd 0.62093 0.64008 0.69019 0.0
O15 O 0.61551 0.63517 0.59673 0.0
C16 C 0.58088 0.65521 0.54966 0.0
O17 O 0.54409 0.67665 0.55791 0.0
C18 C 0.65485 0.69697 0.78796 0.0
C19 C 0.78509 0.82838 0.68335 0.0
O20 O 0.74056 0.83907 0.65516 0.0
O21 O 0.79634 0.78647 0.72657 0.0
O22 O 0.75302 0.14067 0.25828 0.0
Cd23 Cd 0.68749 0.15563 0.1624 0.0
O24 O 0.79143 0.1352 0.18877 0.0
Cd25 Cd 0.85108 0.11867 0.15522 0.0
O26 O 0.85975 0.11592 0.06503 0.0
C27 C 0.84737 0.07903 0.04659 0.0
O28 O 0.83276 0.0399 0.08502 0.0
C29 C 0.79204 0.13197 0.24567 0.0
C30 C 0.64852 0.25105 0.11845 0.0
O31 O 0.63633 0.21762 0.1641 0.0
O32 O 0.67957 0.23955 0.09219 0.0
O33 O 0.35393 0.25974 0.62524 0.0
Cd34 Cd 0.33977 0.20517 0.55882 0.0
O35 O 0.35242 0.31426 0.53353 0.0
Cd36 Cd 0.35323 0.38167 0.45501 0.0
O37 O 0.37092 0.4179 0.36376 0.0
C38 C 0.39581 0.39077 0.34669 0.0
O39 O 0.40779 0.34541 0.38408 0.0
C40 C 0.35808 0.30415 0.59347 0.0
C41 C 0.25115 0.16118 0.55129 0.0
O42 O 0.28762 0.1431 0.59762 0.0
O43 O 0.25608 0.20093 0.50782 0.0
C44 C 0.92934 0.16518 0.51612 0.0
C45 C 0.8436 0.15521 0.48316 0.0
C46 C 0.89018 0.1352 0.51744 0.0
C47 C 0.83699 0.20541 0.44773 0.0
C48 C 0.92283 0.21553 0.48032 0.0
C49 C 0.87645 0.23548 0.44638 0.0
N50 N 0.974 0.14473 0.54801 0.0
C51 C 0.01359 0.1724 0.54696 0.0
C52 C 0.96326 0.24422 0.47901 0.0
C53 C 0.00882 0.22253 0.51249 0.0
Gd54 Gd 0.02477 0.96033 0.54168 0.0
Gd55 Gd 0.9775 0.06143 0.60708 0.0
N56 N 0.89776 0.08643 0.55107 0.0
C57 C 0.80501 0.12413 0.48547 0.0
C58 C 0.85994 0.05666 0.55613 0.0
C59 C 0.81318 0.07474 0.52259 0.0
H60 H 0.86523 0.01942 0.58729 0.0
H61 H 0.78337 0.05074 0.5262 0.0
H62 H 0.13841 0.99775 0.55479 0.0
H63 H 0.04878 0.15612 0.57387 0.0
H64 H 0.21978 0.96653 0.61828 0.0
H65 H 0.76871 0.13805 0.45969 0.0
H66 H 0.80147 0.22134 0.42106 0.0
H67 H 0.95258 0.86585 0.57378 0.0
H68 H 0.95971 0.28306 0.45218 0.0
H69 H 0.04025 0.24446 0.512 0.0
H70 H 0.19821 0.79949 0.73558 0.0
H71 H 0.87076 0.27408 0.4186 0.0
H72 H 0.03894 0.74009 0.70477 0.0
H73 H 0.95942 0.77869 0.64022 0.0
N74 N 0.02713 0.87709 0.60249 0.0
C75 C 0.07137 0.85631 0.63638 0.0
C76 C 0.98728 0.84977 0.60291 0.0
C77 C 0.03612 0.77849 0.67608 0.0
C78 C 0.99113 0.80019 0.6399 0.0
C79 C 0.07697 0.8065 0.67458 0.0
H80 H 0.12791 0.74821 0.74004 0.0
N81 N 0.10436 0.93364 0.59772 0.0
C82 C 0.11108 0.88542 0.63407 0.0
C83 C 0.19659 0.8952 0.66506 0.0
C84 C 0.15732 0.86514 0.66953 0.0
C85 C 0.14293 0.96184 0.58954 0.0
C86 C 0.18941 0.94357 0.62414 0.0
O87 O 0.96539 0.07936 0.49992 0.0
O88 O 0.95526 0.00355 0.48649 0.0
O89 O 0.05747 0.97053 0.46024 0.0
O90 O 0.00784 0.91187 0.48447 0.0
O91 O 0.95062 0.98448 0.6372 0.0
O92 O 0.94771 0.95703 0.55144 0.0
O93 O 0.04072 0.94309 0.64962 0.0
O94 O 0.0473 0.01955 0.66162 0.0
O95 O 0.94547 0.05118 0.68931 0.0
O96 O 0.99606 0.10894 0.66443 0.0
O97 O 0.0558 0.03669 0.51546 0.0
O98 O 0.05426 0.06408 0.60027 0.0
C99 C 0.94794 0.0515 0.46474 0.0
C100 C 0.93455 0.95492 0.60388 0.0
C101 C 0.04005 0.91649 0.39343 0.0
C102 C 0.08425 0.90905 0.31665 0.0
C103 C 0.01025 0.86654 0.3252 0.0
C104 C 0.00564 0.88541 0.37307 0.0
C105 C 0.04943 0.87793 0.29747 0.0
C106 C 0.07913 0.929 0.36418 0.0
C107 C 0.0357 0.93318 0.44721 0.0
C108 C 0.16297 0.81561 0.70785 0.0
C109 C 0.12294 0.78637 0.71031 0.0
H110 H 0.23267 0.88106 0.6916 0.0
C111 C 0.0564 0.97194 0.68408 0.0
C112 C 0.07156 0.06472 0.55146 0.0
C113 C 0.9678 0.10373 0.75762 0.0
C114 C 0.93154 0.10571 0.84331 0.0
C115 C 0.00281 0.15113 0.82726 0.0
C116 C 0.00319 0.13483 0.77591 0.0
C117 C 0.96709 0.13684 0.86069 0.0
C118 C 0.93208 0.08863 0.79209 0.0
C119 C 0.96938 0.08727 0.70311 0.0
H120 H 0.98356 0.84263 0.3099 0.0
H121 H 0.97517 0.87538 0.39444 0.0
H122 H 0.05243 0.86264 0.26053 0.0
H123 H 0.10612 0.95269 0.37957 0.0
H124 H 0.03024 0.17491 0.84117 0.0
H125 H 0.03145 0.14647 0.75069 0.0
H126 H 0.96733 0.14983 0.90063 0.0
H127 H 0.9047 0.06447 0.77885 0.0
C128 C 0.65405 0.57248 0.07123 0.0
C129 C 0.65123 0.66131 0.04617 0.0
C130 C 0.62942 0.61587 0.06313 0.0
C131 C 0.6978 0.66268 0.03572 0.0
C132 C 0.70155 0.57361 0.06311 0.0
C133 C 0.72289 0.61894 0.04416 0.0
N134 N 0.63278 0.5291 0.09094 0.0
C135 C 0.6588 0.48563 0.10889 0.0
C136 C 0.72691 0.52904 0.07672 0.0
C137 C 0.70567 0.48487 0.10065 0.0
Gd138 Gd 0.45411 0.50061 0.9679 0.0
Gd139 Gd 0.55432 0.53546 0.10477 0.0
N140 N 0.58442 0.61351 0.0734 0.0
C141 C 0.62582 0.70392 0.04127 0.0
C142 C 0.56013 0.65447 0.07122 0.0
C143 C 0.58022 0.70041 0.05437 0.0
H144 H 0.52517 0.65159 0.0822 0.0
H145 H 0.56065 0.733 0.05177 0.0
H146 H 0.49364 0.38037 0.01868 0.0
H147 H 0.6445 0.45139 0.13188 0.0
H148 H 0.46794 0.30028 0.07706 0.0
H149 H 0.64137 0.73954 0.0284 0.0
H150 H 0.71508 0.69728 0.02231 0.0
H151 H 0.35971 0.57992 0.92851 0.0
H152 H 0.76353 0.52833 0.07137 0.0
H153 H 0.7258 0.45023 0.11422 0.0
H154 H 0.30917 0.33499 0.09261 0.0
H155 H 0.75926 0.62048 0.03744 0.0
H156 H 0.24452 0.5011 -0.00085 0.0
H157 H 0.27689 0.57906 0.94308 0.0
N158 N 0.37493 0.5037 0.97863 0.0
C159 C 0.35719 0.45998 0.00692 0.0
C160 C 0.34642 0.54588 0.95436 0.0
C161 C 0.28106 0.50129 0.9933 0.0
C162 C 0.29925 0.54542 0.96185 0.0
C163 C 0.30996 0.45781 0.01601 0.0
H164 H 0.25693 0.41017 0.05487 0.0
N165 N 0.43236 0.42057 0.01832 0.0
C166 C 0.38686 0.41739 0.02802 0.0
C167 C 0.39983 0.32953 0.07833 0.0
C168 C 0.36966 0.37181 0.05891 0.0
C169 C 0.46036 0.37893 0.03302 0.0
C170 C 0.4451 0.33305 0.06452 0.0
O171 O 0.54015 0.5855 0.00343 0.0
O172 O 0.52336 0.53342 0.94365 0.0
O173 O 0.43328 0.461 0.8989 0.0
O174 O 0.41676 0.54029 0.87019 0.0
O175 O 0.47993 0.57106 0.07927 0.0
O176 O 0.44733 0.57851 0.97238 0.0
O177 O 0.44001 0.49138 0.06505 0.0
O178 O 0.5145 0.46597 0.12809 0.0
O179 O 0.53609 0.55234 0.18507 0.0
O180 O 0.60682 0.51943 0.19358 0.0
O181 O 0.52782 0.46191 0.99202 0.0
O182 O 0.55847 0.45994 0.0962 0.0
C183 C 0.54331 0.57292 0.95399 0.0
C184 C 0.44951 0.5917 0.02385 0.0
C185 C 0.38966 0.50033 0.78859 0.0
C186 C 0.37153 0.46014 0.70595 0.0
C187 C 0.33611 0.54136 0.68584 0.0
C188 C 0.35986 0.54098 0.74687 0.0
C189 C 0.34201 0.50146 0.66536 0.0
C190 C 0.395 0.45948 0.76812 0.0
C191 C 0.41313 0.50038 0.85384 0.0
C192 C 0.32286 0.36969 0.06883 0.0
C193 C 0.29306 0.41251 0.04728 0.0
H194 H 0.38801 0.29387 0.10236 0.0
C195 C 0.46789 0.46752 0.12036 0.0
C196 C 0.5584 0.44413 0.04784 0.0
C197 C 0.59422 0.53028 0.28855 0.0
C198 C 0.60048 0.56353 0.37533 0.0
C199 C 0.64165 0.4856 0.39399 0.0
C200 C 0.62393 0.48944 0.33013 0.0
C201 C 0.63031 0.52265 0.41649 0.0
C202 C 0.58175 0.567 0.31148 0.0
C203 C 0.57855 0.53541 0.2209 0.0
H204 H 0.31283 0.57268 0.65429 0.0
H205 H 0.35436 0.57235 0.76169 0.0
H206 H 0.32277 0.50255 0.61787 0.0
H207 H 0.4176 0.42767 0.79993 0.0
H208 H 0.66458 0.45415 0.42593 0.0
H209 H 0.63365 0.46067 0.31313 0.0
H210 H 0.6447 0.51943 0.46615 0.0
H211 H 0.55908 0.59877 0.27954 0.0
C212 C 0.16866 0.14635 0.49241 0.0
C213 C 0.20483 0.13674 0.54924 0.0
H214 H 0.09778 0.12978 0.44793 0.0
C215 C 0.19677 0.10278 0.60525 0.0
H216 H 0.17397 0.17239 0.44849 0.0
C217 C 0.15342 0.07954 0.60499 0.0
C218 C 0.11751 0.08863 0.54841 0.0
H219 H 0.22376 0.09459 0.64977 0.0
H220 H 0.14811 0.05389 0.64922 0.0
C221 C 0.12539 0.12188 0.49185 0.0
C222 C 0.37421 0.66834 0.0781 0.0
C223 C 0.35986 0.70927 0.02345 0.0
H224 H 0.41423 0.59954 0.12092 0.0
C225 C 0.37293 0.7103 0.96714 0.0
H226 H 0.3648 0.66667 0.12215 0.0
C227 C 0.40047 0.67109 0.96592 0.0
C228 C 0.41637 0.63109 0.02149 0.0
H229 H 0.36195 0.74141 0.92421 0.0
H230 H 0.41065 0.67283 0.92234 0.0
C231 C 0.40262 0.62998 0.07735 0.0
C232 C 0.86747 0.86038 0.70622 0.0
C233 C 0.82287 0.86185 0.66351 0.0
H234 H 0.93766 0.88964 0.72061 0.0
C235 C 0.81573 0.89342 0.60036 0.0
H236 H 0.87408 0.8361 0.75495 0.0
C237 C 0.85274 0.92245 0.58018 0.0
C238 C 0.8968 0.92172 0.62341 0.0
H239 H 0.78191 0.89487 0.5662 0.0
H240 H 0.84653 0.94646 0.53131 0.0
C241 C 0.9038 0.89076 0.68662 0.0
C242 C 0.62202 0.33381 0.03617 0.0
C243 C 0.62792 0.30159 0.09884 0.0
H244 H 0.59423 0.40474 0.96991 0.0
C245 C 0.61254 0.3173 0.14383 0.0
H246 H 0.63361 0.32233 0.00059 0.0
C247 C 0.59113 0.36389 0.12684 0.0
C248 C 0.58385 0.39599 0.06402 0.0
H249 H 0.61697 0.29343 0.19254 0.0
H250 H 0.5792 0.37419 0.16307 0.0
C251 C 0.59947 0.38067 0.0186 0.0
C252 C 0.18606 0.88878 0.24663 0.0
C253 C 0.18931 0.93598 0.2046 0.0
H254 H 0.15019 0.84352 0.31565 0.0
C255 C 0.1631 0.97568 0.20759 0.0
H256 H 0.20601 0.85745 0.24612 0.0
C257 C 0.13145 0.96763 0.24811 0.0
C258 C 0.12537 0.91977 0.28596 0.0
H259 H 0.16498 0.01259 0.17614 0.0
H260 H 0.1094 0.99823 0.24666 0.0
C261 C 0.15418 0.88074 0.28656 0.0
C262 C 0.60487 0.68405 0.86849 0.0
C263 C 0.62522 0.66575 0.82929 0.0
H264 H 0.56101 0.66985 0.93596 0.0
C265 C 0.617 0.61699 0.82979 0.0
H266 H 0.61026 0.72146 0.86895 0.0
C267 C 0.58925 0.58713 0.86879 0.0
C268 C 0.56942 0.60526 0.90858 0.0
H269 H 0.63327 0.60121 0.80157 0.0
H270 H 0.5845 0.54948 0.8691 0.0
C271 C 0.57682 0.65433 0.90707 0.0
C272 C 0.84811 0.0627 0.31802 0.0
C273 C 0.83525 0.113 0.29687 0.0
H274 H 0.89362 0.00364 0.38804 0.0
C275 C 0.86235 0.144 0.32703 0.0
H276 H 0.82772 0.03835 0.29478 0.0
C277 C 0.90113 0.12448 0.37926 0.0
C278 C 0.91192 0.07345 0.40383 0.0
H279 H 0.85328 0.18311 0.31063 0.0
H280 H 0.92183 0.14927 0.40114 0.0
C281 C 0.88586 0.04298 0.37133 0.0
C282 C 0.36162 0.33285 0.68808 0.0
C283 C 0.36752 0.34247 0.6256 0.0
H284 H 0.35884 0.36248 0.76307 0.0
C285 C 0.38145 0.38929 0.59411 0.0
H286 H 0.35185 0.29688 0.71438 0.0
C287 C 0.38522 0.4267 0.62187 0.0
C288 C 0.37601 0.41806 0.68235 0.0
H289 H 0.38896 0.39751 0.54772 0.0
H290 H 0.39418 0.46294 0.59524 0.0
C291 C 0.36593 0.37027 0.71626 0.0
C292 C 0.62359 0.64978 0.46954 0.0
C293 C 0.58024 0.64784 0.48881 0.0
H294 H 0.66337 0.625 0.41535 0.0
C295 C 0.53988 0.62875 0.45753 0.0
H296 H 0.65492 0.66503 0.49269 0.0
C297 C 0.54486 0.60554 0.41362 0.0
C298 C 0.59003 0.60202 0.40073 0.0
H299 H 0.50618 0.62695 0.47199 0.0
H300 H 0.51496 0.58618 0.39491 0.0
C301 C 0.62841 0.62709 0.42543 0.0
C302 C 0.87933 0.03943 0.98038 0.0
C303 C 0.85468 0.07921 0.98498 0.0
H304 H 0.92353 0.01683 0.92891 0.0
C305 C 0.84491 0.12292 0.93348 0.0
H306 H 0.88711 0.00542 0.01979 0.0
C307 C 0.86472 0.12902 0.88135 0.0
C308 C 0.89503 0.09173 0.88078 0.0
H309 H 0.82531 0.15376 0.93592 0.0
H310 H 0.86068 0.16465 0.84488 0.0
C311 C 0.89984 0.04581 0.9284 0.0
C312 C 0.4484 0.38331 0.27623 0.0
C313 C 0.41258 0.40991 0.28716 0.0
H314 H 0.49428 0.38126 0.21469 0.0
C315 C 0.3937 0.45492 0.24123 0.0
H316 H 0.46352 0.34842 0.31051 0.0
C317 C 0.41059 0.473 0.18566 0.0
C318 C 0.44745 0.44702 0.17613 0.0
H319 H 0.36599 0.47617 0.24823 0.0
H320 H 0.39585 0.50792 0.15108 0.0
C321 C 0.46609 0.40202 0.22157 0.0
C322 C 0.14937 0.96876 0.83368 0.0
C323 C 0.16134 0.91835 0.8627 0.0
H324 H 0.10741 0.0249 0.75524 0.0
C325 C 0.13793 0.88501 0.83299 0.0
H326 H 0.16663 0.99548 0.85518 0.0
C327 C 0.10306 0.90195 0.77547 0.0
C328 C 0.09174 0.95254 0.74604 0.0
H329 H 0.14606 0.84582 0.85452 0.0
H330 H 0.0849 0.87544 0.75446 0.0
C331 C 0.11517 0.98562 0.77615 0.0
loop_
_geom_bond_atom_site_label_1
_geom_bond_atom_site_label_2
_geom_bond_distance
_geom_bond_site_symmetry_2
_ccdc_geom_bond_type
O0 Cd1 2.300 1_556 S
O0 C7 1.275 . S
Cd1 O0 2.300 1_554 S
Cd1 O9 2.381 . S
Cd1 O10 2.378 . S
O2 Cd3 2.385 1_556 S
O2 C7 1.255 . S
Cd3 O2 2.385 1_554 S
Cd3 O4 2.317 . S
O4 Cd3 2.317 . S
O4 C5 1.232 . S
C5 O4 1.232 . S
C5 O6 1.218 . S
O6 C5 1.218 . S
C7 O0 1.275 . S
C7 O2 1.255 . S
C8 O9 1.258 . S
C8 O10 1.256 . S
O9 Cd1 2.381 . S
O9 C8 1.258 . S
O10 Cd1 2.378 . S
O10 C8 1.256 . S
O11 Cd12 2.300 . S
O11 C18 1.275 . S
Cd12 O11 2.300 . S
Cd12 O20 2.381 . S
Cd12 O21 2.378 . S
O13 Cd14 2.385 . S
O13 C18 1.255 . S
Cd14 O13 2.385 . S
Cd14 O15 2.317 . S
O15 Cd14 2.317 . S
O15 C16 1.232 . S
C16 O15 1.232 . S
C16 O17 1.218 . S
O17 C16 1.218 . S
C18 O11 1.275 . S
C18 O13 1.255 . S
C19 O20 1.258 . S
C19 O21 1.256 . S
O20 Cd12 2.381 . S
O20 C19 1.258 . S
O21 Cd12 2.378 . S
O21 C19 1.256 . S
O22 Cd23 2.300 . S
O22 C29 1.275 . S
Cd23 O22 2.300 . S
Cd23 O31 2.381 . S
Cd23 O32 2.378 . S
O24 Cd25 2.385 . S
O24 C29 1.255 . S
Cd25 O24 2.385 . S
Cd25 O26 2.317 . S
O26 Cd25 2.317 . S
O26 C27 1.232 . S
C27 O26 1.232 . S
C27 O28 1.218 . S
O28 C27 1.218 . S
C29 O22 1.275 . S
C29 O24 1.255 . S
C30 O31 1.258 . S
C30 O32 1.256 . S
O31 Cd23 2.381 . S
O31 C30 1.258 . S
O32 Cd23 2.378 . S
O32 C30 1.256 . S
O33 Cd34 2.300 . S
O33 C40 1.275 . S
Cd34 O33 2.300 . S
Cd34 O42 2.381 . S
Cd34 O43 2.378 . S
O35 Cd36 2.385 . S
O35 C40 1.255 . S
Cd36 O35 2.385 . S
Cd36 O37 2.317 . S
O37 Cd36 2.317 . S
O37 C38 1.232 . S
C38 O37 1.232 . S
C38 O39 1.218 . S
O39 C38 1.218 . S
C40 O33 1.275 . S
C40 O35 1.255 . S
C41 O42 1.258 . S
C41 O43 1.256 . S
O42 Cd34 2.381 . S
O42 C41 1.258 . S
O43 Cd34 2.378 . S
O43 C41 1.256 . S
C44 C46 1.422 . S
C44 C48 1.415 . S
C44 N50 1.369 . S
C45 C46 1.421 . S
C45 C47 1.417 . S
C45 C57 1.422 . S
C46 C44 1.422 . S
C46 C45 1.421 . S
C46 N56 1.359 . S
C47 C45 1.417 . S
C47 C49 1.329 . S
C47 H66 0.930 . S
C48 C44 1.415 . S
C48 C49 1.437 . S
C48 C52 1.413 . S
C49 C47 1.329 . S
C49 C48 1.437 . S
C49 H71 0.929 . S
N50 C44 1.369 . S
N50 C51 1.338 1_655 S
N50 Gd55 2.622 . S
C51 N50 1.338 1_455 S
C51 C53 1.378 . S
C51 H63 0.929 . S
C52 C48 1.413 . S
C52 C53 1.348 1_655 S
C52 H68 0.931 . S
C53 C51 1.378 . S
C53 C52 1.348 1_455 S
C53 H69 0.930 . S
Gd54 N74 2.622 . S
Gd54 N81 2.570 . S
Gd54 O88 2.353 1_465 S
Gd54 O89 2.468 . S
Gd54 O90 2.427 . S
Gd54 O92 2.388 1_455 S
Gd54 O93 2.386 . S
Gd54 O97 2.307 1_565 S
Gd54 C107 2.805 . S
Gd55 N50 2.622 . S
Gd55 N56 2.570 . S
Gd55 O87 2.386 . S
Gd55 O91 2.307 1_545 S
Gd55 O94 2.353 1_655 S
Gd55 O95 2.468 . S
Gd55 O96 2.427 . S
Gd55 O98 2.388 1_655 S
Gd55 C119 2.805 . S
N56 C46 1.359 . S
N56 Gd55 2.570 . S
N56 C58 1.343 . S
C57 C45 1.422 . S
C57 C59 1.321 . S
C57 H65 0.931 . S
C58 N56 1.343 . S
C58 C59 1.390 . S
C58 H60 0.931 . S
C59 C57 1.321 . S
C59 C58 1.390 . S
C59 H61 0.930 . S
H60 C58 0.931 . S
H61 C59 0.930 . S
H62 C85 0.931 . S
H63 C51 0.929 . S
H64 C86 0.930 . S
H65 C57 0.931 . S
H66 C47 0.930 . S
H67 C76 0.929 1_655 S
H68 C52 0.931 . S
H69 C53 0.930 . S
H70 C108 0.930 . S
H71 C49 0.929 . S
H72 C77 0.931 . S
H73 C78 0.930 1_655 S
N74 Gd54 2.622 . S
N74 C75 1.369 . S
N74 C76 1.338 . S
C75 N74 1.369 . S
C75 C79 1.415 . S
C75 C82 1.422 . S
C76 H67 0.929 1_455 S
C76 N74 1.338 . S
C76 C78 1.378 . S
C77 H72 0.931 . S
C77 C78 1.348 . S
C77 C79 1.413 . S
C78 H73 0.930 1_455 S
C78 C76 1.378 . S
C78 C77 1.348 . S
C79 C75 1.415 . S
C79 C77 1.413 . S
C79 C109 1.437 . S
H80 C109 0.929 . S
N81 Gd54 2.570 . S
N81 C82 1.359 . S
N81 C85 1.343 . S
C82 C75 1.422 . S
C82 N81 1.359 . S
C82 C84 1.421 . S
C83 C84 1.422 . S
C83 C86 1.321 . S
C83 H110 0.931 . S
C84 C82 1.421 . S
C84 C83 1.422 . S
C84 C108 1.417 . S
C85 H62 0.931 . S
C85 N81 1.343 . S
C85 C86 1.390 . S
C86 H64 0.930 . S
C86 C83 1.321 . S
C86 C85 1.390 . S
O87 Gd55 2.386 . S
O87 C99 1.265 . S
O88 Gd54 2.353 1_645 S
O88 C99 1.242 . S
O89 Gd54 2.468 . S
O89 C107 1.263 . S
O90 Gd54 2.427 . S
O90 C107 1.252 . S
O91 Gd55 2.307 1_565 S
O91 C100 1.261 . S
O92 Gd54 2.388 1_655 S
O92 C100 1.252 . S
O93 Gd54 2.386 . S
O93 C111 1.265 . S
O94 Gd55 2.353 1_455 S
O94 C111 1.242 1_545 S
O95 Gd55 2.468 . S
O95 C119 1.263 . S
O96 Gd55 2.427 . S
O96 C119 1.252 . S
O97 Gd54 2.307 1_545 S
O97 C112 1.261 . S
O98 Gd55 2.388 1_455 S
O98 C112 1.252 . S
C99 O87 1.265 . S
C99 O88 1.242 . S
C100 O91 1.261 . S
C100 O92 1.252 . S
C101 C104 1.394 . S
C101 C106 1.370 . S
C101 C107 1.500 . S
C102 C105 1.383 . S
C102 C106 1.395 . S
C103 C104 1.396 . S
C103 C105 1.365 . S
C103 H120 0.929 . S
C104 C101 1.394 . S
C104 C103 1.396 . S
C104 H121 0.930 . S
C105 C102 1.383 . S
C105 C103 1.365 . S
C105 H122 0.931 . S
C106 C101 1.370 . S
C106 C102 1.395 . S
C106 H123 0.930 . S
C107 Gd54 2.805 . S
C107 O89 1.263 . S
C107 O90 1.252 . S
C107 C101 1.500 . S
C108 H70 0.930 . S
C108 C84 1.417 . S
C108 C109 1.329 . S
C109 C79 1.437 . S
C109 H80 0.929 . S
C109 C108 1.329 . S
H110 C83 0.931 . S
C111 O93 1.265 . S
C111 O94 1.242 1_565 S
C112 O97 1.261 . S
C112 O98 1.252 . S
C113 C116 1.394 . S
C113 C118 1.370 . S
C113 C119 1.500 . S
C114 C117 1.383 . S
C114 C118 1.395 . S
C115 C116 1.396 . S
C115 C117 1.365 . S
C115 H124 0.929 . S
C116 C113 1.394 . S
C116 C115 1.396 . S
C116 H125 0.930 . S
C117 C114 1.383 . S
C117 C115 1.365 . S
C117 H126 0.931 . S
C118 C113 1.370 . S
C118 C114 1.395 . S
C118 H127 0.930 . S
C119 Gd55 2.805 . S
C119 O95 1.263 . S
C119 O96 1.252 . S
C119 C113 1.500 . S
H120 C103 0.929 . S
H121 C104 0.930 . S
H122 C105 0.931 . S
H123 C106 0.930 . S
H124 C115 0.929 . S
H125 C116 0.930 . S
H126 C117 0.931 . S
H127 C118 0.930 . S
C128 C130 1.422 . S
C128 C132 1.415 . S
C128 N134 1.369 . S
C129 C130 1.421 . S
C129 C131 1.417 . S
C129 C141 1.422 . S
C130 C128 1.422 . S
C130 C129 1.421 . S
C130 N140 1.359 . S
C131 C129 1.417 . S
C131 C133 1.329 . S
C131 H150 0.930 . S
C132 C128 1.415 . S
C132 C133 1.437 . S
C132 C136 1.413 . S
C133 C131 1.329 . S
C133 C132 1.437 . S
C133 H155 0.929 . S
N134 C128 1.369 . S
N134 C135 1.338 . S
N134 Gd139 2.622 . S
C135 N134 1.338 . S
C135 C137 1.378 . S
C135 H147 0.929 . S
C136 C132 1.413 . S
C136 C137 1.348 . S
C136 H152 0.931 . S
C137 C135 1.378 . S
C137 C136 1.348 . S
C137 H153 0.930 . S
Gd138 N158 2.622 . S
Gd138 N165 2.570 1_556 S
Gd138 O172 2.353 . S
Gd138 O173 2.468 . S
Gd138 O174 2.427 . S
Gd138 O176 2.388 . S
Gd138 O177 2.386 1_556 S
Gd138 O181 2.307 1_556 S
Gd138 C191 2.805 . S
Gd139 N134 2.622 . S
Gd139 N140 2.570 . S
Gd139 O171 2.386 . S
Gd139 O175 2.307 . S
Gd139 O178 2.353 . S
Gd139 O179 2.468 . S
Gd139 O180 2.427 . S
Gd139 O182 2.388 . S
Gd139 C203 2.805 . S
N140 C130 1.359 . S
N140 Gd139 2.570 . S
N140 C142 1.343 . S
C141 C129 1.422 . S
C141 C143 1.321 . S
C141 H149 0.931 . S
C142 N140 1.343 . S
C142 C143 1.390 . S
C142 H144 0.931 . S
C143 C141 1.321 . S
C143 C142 1.390 . S
C143 H145 0.930 . S
H144 C142 0.931 . S
H145 C143 0.930 . S
H146 C169 0.931 . S
H147 C135 0.929 . S
H148 C170 0.930 . S
H149 C141 0.931 . S
H150 C131 0.930 . S
H151 C160 0.929 . S
H152 C136 0.931 . S
H153 C137 0.930 . S
H154 C192 0.930 . S
H155 C133 0.929 . S
H156 C161 0.931 . S
H157 C162 0.930 . S
N158 Gd138 2.622 . S
N158 C159 1.369 1_556 S
N158 C160 1.338 . S
C159 N158 1.369 1_554 S
C159 C163 1.415 . S
C159 C166 1.422 . S
C160 H151 0.929 . S
C160 N158 1.338 . S
C160 C162 1.378 . S
C161 H156 0.931 . S
C161 C162 1.348 1_554 S
C161 C163 1.413 . S
C162 H157 0.930 . S
C162 C160 1.378 . S
C162 C161 1.348 1_556 S
C163 C159 1.415 . S
C163 C161 1.413 . S
C163 C193 1.437 . S
H164 C193 0.929 . S
N165 Gd138 2.570 1_554 S
N165 C166 1.359 . S
N165 C169 1.343 . S
C166 C159 1.422 . S
C166 N165 1.359 . S
C166 C168 1.421 . S
C167 C168 1.422 . S
C167 C170 1.321 . S
C167 H194 0.931 . S
C168 C166 1.421 . S
C168 C167 1.422 . S
C168 C192 1.417 . S
C169 H146 0.931 . S
C169 N165 1.343 . S
C169 C170 1.390 . S
C170 H148 0.930 . S
C170 C167 1.321 . S
C170 C169 1.390 . S
O171 Gd139 2.386 . S
O171 C183 1.265 1_554 S
O172 Gd138 2.353 . S
O172 C183 1.242 . S
O173 Gd138 2.468 . S
O173 C191 1.263 . S
O174 Gd138 2.427 . S
O174 C191 1.252 . S
O175 Gd139 2.307 . S
O175 C184 1.261 . S
O176 Gd138 2.388 . S
O176 C184 1.252 1_556 S
O177 Gd138 2.386 1_554 S
O177 C195 1.265 . S
O178 Gd139 2.353 . S
O178 C195 1.242 . S
O179 Gd139 2.468 . S
O179 C203 1.263 . S
O180 Gd139 2.427 . S
O180 C203 1.252 . S
O181 Gd138 2.307 1_554 S
O181 C196 1.261 . S
O182 Gd139 2.388 . S
O182 C196 1.252 . S
C183 O171 1.265 1_556 S
C183 O172 1.242 . S
C184 O175 1.261 . S
C184 O176 1.252 1_554 S
C185 C188 1.394 . S
C185 C190 1.370 . S
C185 C191 1.500 . S
C186 C189 1.383 . S
C186 C190 1.395 . S
C187 C188 1.396 . S
C187 C189 1.365 . S
C187 H204 0.929 . S
C188 C185 1.394 . S
C188 C187 1.396 . S
C188 H205 0.930 . S
C189 C186 1.383 . S
C189 C187 1.365 . S
C189 H206 0.931 . S
C190 C185 1.370 . S
C190 C186 1.395 . S
C190 H207 0.930 . S
C191 Gd138 2.805 . S
C191 O173 1.263 . S
C191 O174 1.252 . S
C191 C185 1.500 . S
C192 H154 0.930 . S
C192 C168 1.417 . S
C192 C193 1.329 . S
C193 C163 1.437 . S
C193 H164 0.929 . S
C193 C192 1.329 . S
H194 C167 0.931 . S
C195 O177 1.265 . S
C195 O178 1.242 . S
C196 O181 1.261 . S
C196 O182 1.252 . S
C197 C200 1.394 . S
C197 C202 1.370 . S
C197 C203 1.500 . S
C198 C201 1.383 . S
C198 C202 1.395 . S
C199 C200 1.396 . S
C199 C201 1.365 . S
C199 H208 0.929 . S
C200 C197 1.394 . S
C200 C199 1.396 . S
C200 H209 0.930 . S
C201 C198 1.383 . S
C201 C199 1.365 . S
C201 H210 0.931 . S
C202 C197 1.370 . S
C202 C198 1.395 . S
C202 H211 0.930 . S
C203 Gd139 2.805 . S
C203 O179 1.263 . S
C203 O180 1.252 . S
C203 C197 1.500 . S
H204 C187 0.929 . S
H205 C188 0.930 . S
H206 C189 0.931 . S
H207 C190 0.930 . S
H208 C199 0.929 . S
H209 C200 0.930 . S
H210 C201 0.931 . S
H211 C202 0.930 . S
C212 C213 1.387 . S
C212 H216 0.950 . S
C212 C221 1.390 . S
C213 C212 1.387 . S
C213 C215 1.387 . S
H214 C221 0.950 . S
C215 C213 1.387 . S
C215 C217 1.390 . S
C215 H219 0.950 . S
H216 C212 0.950 . S
C217 C215 1.390 . S
C217 C218 1.387 . S
C217 H220 0.950 . S
C218 C217 1.387 . S
C218 C221 1.387 . S
H219 C215 0.950 . S
H220 C217 0.950 . S
C221 C212 1.390 . S
C221 H214 0.950 . S
C221 C218 1.387 . S
C222 C223 1.387 . S
C222 H226 0.950 . S
C222 C231 1.390 . S
C223 C222 1.387 . S
C223 C225 1.387 1_554 S
H224 C231 0.950 . S
C225 C223 1.387 1_556 S
C225 C227 1.390 . S
C225 H229 0.950 . S
H226 C222 0.950 . S
C227 C225 1.390 . S
C227 C228 1.387 1_556 S
C227 H230 0.950 . S
C228 C227 1.387 1_554 S
C228 C231 1.387 . S
H229 C225 0.950 . S
H230 C227 0.950 . S
C231 C222 1.390 . S
C231 H224 0.950 . S
C231 C228 1.387 . S
C232 C233 1.387 . S
C232 H236 0.950 . S
C232 C241 1.390 . S
C233 C232 1.387 . S
C233 C235 1.387 . S
H234 C241 0.950 . S
C235 C233 1.387 . S
C235 C237 1.390 . S
C235 H239 0.950 . S
H236 C232 0.950 . S
C237 C235 1.390 . S
C237 C238 1.387 . S
C237 H240 0.950 . S
C238 C237 1.387 . S
C238 C241 1.387 . S
H239 C235 0.950 . S
H240 C237 0.950 . S
C241 C232 1.390 . S
C241 H234 0.950 . S
C241 C238 1.387 . S
C242 C243 1.387 . S
C242 H246 0.950 1_554 S
C242 C251 1.390 . S
C243 C242 1.387 . S
C243 C245 1.387 . S
H244 C251 0.950 1_556 S
C245 C243 1.387 . S
C245 C247 1.390 . S
C245 H249 0.950 . S
H246 C242 0.950 1_556 S
C247 C245 1.390 . S
C247 C248 1.387 . S
C247 H250 0.950 . S
C248 C247 1.387 . S
C248 C251 1.387 . S
H249 C245 0.950 . S
H250 C247 0.950 . S
C251 C242 1.390 . S
C251 H244 0.950 1_554 S
C251 C248 1.387 . S
C252 C253 1.387 . S
C252 H256 0.950 . S
C252 C261 1.390 . S
C253 C252 1.387 . S
C253 C255 1.387 . S
H254 C261 0.950 . S
C255 C253 1.387 . S
C255 C257 1.390 . S
C255 H259 0.950 . S
H256 C252 0.950 . S
C257 C255 1.390 . S
C257 C258 1.387 . S
C257 H260 0.950 1_565 S
C258 C257 1.387 . S
C258 C261 1.387 . S
H259 C255 0.950 . S
H260 C257 0.950 1_545 S
C261 C252 1.390 . S
C261 H254 0.950 . S
C261 C258 1.387 . S
C262 C263 1.387 . S
C262 H266 0.950 . S
C262 C271 1.390 . S
C263 C262 1.387 . S
C263 C265 1.387 . S
H264 C271 0.950 . S
C265 C263 1.387 . S
C265 C267 1.390 . S
C265 H269 0.950 . S
H266 C262 0.950 . S
C267 C265 1.390 . S
C267 C268 1.387 . S
C267 H270 0.950 . S
C268 C267 1.387 . S
C268 C271 1.387 . S
H269 C265 0.950 . S
H270 C267 0.950 . S
C271 C262 1.390 . S
C271 H264 0.950 . S
C271 C268 1.387 . S
C272 C273 1.387 . S
C272 H276 0.950 . S
C272 C281 1.390 . S
C273 C272 1.387 . S
C273 C275 1.387 . S
H274 C281 0.956 . S
C275 C273 1.387 . S
C275 C277 1.390 . S
C275 H279 0.950 . S
H276 C272 0.950 . S
C277 C275 1.390 . S
C277 C278 1.387 . S
C277 H280 0.950 . S
C278 C277 1.387 . S
C278 C281 1.387 . S
H279 C275 0.950 . S
H280 C277 0.950 . S
C281 C272 1.390 . S
C281 H274 0.956 . S
C281 C278 1.387 . S
C282 C283 1.387 . S
C282 H286 0.950 . S
C282 C291 1.390 . S
C283 C282 1.387 . S
C283 C285 1.387 . S
H284 C291 0.950 . S
C285 C283 1.387 . S
C285 C287 1.390 . S
C285 H289 0.950 . S
H286 C282 0.950 . S
C287 C285 1.390 . S
C287 C288 1.387 . S
C287 H290 0.950 . S
C288 C287 1.387 . S
C288 C291 1.387 . S
H289 C285 0.950 . S
H290 C287 0.950 . S
C291 C282 1.390 . S
C291 H284 0.950 . S
C291 C288 1.387 . S
C292 C293 1.387 . S
C292 H296 0.950 . S
C292 C301 1.390 . S
C293 C292 1.387 . S
C293 C295 1.387 . S
H294 C301 0.950 . S
C295 C293 1.387 . S
C295 C297 1.390 . S
C295 H299 0.950 . S
H296 C292 0.950 . S
C297 C295 1.390 . S
C297 C298 1.387 . S
C297 H300 0.950 . S
C298 C297 1.387 . S
C298 C301 1.387 . S
H299 C295 0.950 . S
H300 C297 0.950 . S
C301 C292 1.390 . S
C301 H294 0.950 . S
C301 C298 1.387 . S
C302 C303 1.387 1_554 S
C302 H306 0.950 . S
C302 C311 1.390 1_554 S
C303 C302 1.387 1_556 S
C303 C305 1.387 . S
H304 C311 0.936 1_565 S
C305 C303 1.387 . S
C305 C307 1.390 . S
C305 H309 0.950 . S
H306 C302 0.950 . S
C307 C305 1.390 . S
C307 C308 1.387 . S
C307 H310 0.950 . S
C308 C307 1.387 . S
C308 C311 1.387 . S
H309 C305 0.950 . S
H310 C307 0.950 . S
C311 C302 1.390 1_556 S
C311 H304 0.936 1_545 S
C311 C308 1.387 . S
C312 C313 1.387 . S
C312 H316 0.950 . S
C312 C321 1.390 . S
C313 C312 1.387 . S
C313 C315 1.387 . S
H314 C321 0.950 . S
C315 C313 1.387 . S
C315 C317 1.390 . S
C315 H319 0.950 . S
H316 C312 0.950 . S
C317 C315 1.390 . S
C317 C318 1.387 . S
C317 H320 0.950 . S
C318 C317 1.387 . S
C318 C321 1.387 . S
H319 C315 0.950 . S
H320 C317 0.950 . S
C321 C312 1.390 . S
C321 H314 0.950 . S
C321 C318 1.387 . S
C322 C323 1.387 . S
C322 H326 0.950 . S
C322 C331 1.390 . S
C323 C322 1.387 . S
C323 C325 1.387 . S
H324 C331 0.950 1_545 S
C325 C323 1.387 . S
C325 C327 1.390 . S
C325 H329 0.950 . S
H326 C322 0.950 . S
C327 C325 1.390 . S
C327 C328 1.387 . S
C327 H330 0.950 . S
C328 C327 1.387 . S
C328 C331 1.387 . S
H329 C325 0.950 . S
H330 C327 0.950 . S
C331 C322 1.390 . S
C331 H324 0.950 1_565 S
C331 C328 1.387 . S
C218 C112 1.610 . S
C213 C41 1.603 . S
C223 C8 1.626 . S
C228 C184 1.629 . S
C233 C19 1.732 . S
C238 C100 1.782 . S
C243 C30 1.584 . S
C248 C196 1.599 . S
C258 C102 1.433 . S
C253 C5 1.445 . S
C268 C183 1.794 . S
C263 C18 1.748 . S
C273 C29 1.596 . S
C278 C99 1.712 . S
C283 C40 1.591 . S
C288 C186 1.510 . S
C298 C198 1.394 . S
C293 C16 1.322 . S
C308 C114 1.348 . S
C303 C27 1.288 1_556 S
C318 C195 1.544 . S
C313 C38 1.282 . S
C323 C7 1.496 . S
C328 C111 1.525 . S
