# Generated by pormake.
# Topology ocu, (6,8)-cn, num edge types: 1
# Building blocks:
#     Node 0, Type 0, BuildingBlock: FUNLAD_clean_sbu_0, # of connection points: 6
#     Node 1, Type 0, BuildingBlock: FUNLAD_clean_sbu_0, # of connection points: 6
#     Node 2, Type 0, BuildingBlock: FUNLAD_clean_sbu_0, # of connection points: 6
#     Node 3, Type 0, BuildingBlock: FUNLAD_clean_sbu_0, # of connection points: 6
#     Node 4, Type 0, BuildingBlock: FUNLAD_clean_sbu_0, # of connection points: 6
#     Node 5, Type 0, BuildingBlock: FUNLAD_clean_sbu_0, # of connection points: 6
#     Node 6, Type 0, BuildingBlock: FUNLAD_clean_sbu_0, # of connection points: 6
#     Node 7, Type 0, BuildingBlock: FUNLAD_clean_sbu_0, # of connection points: 6
#     Node 8, Type 1, BuildingBlock: GIZVER_clean_sbu_0, # of connection points: 8
#     Node 9, Type 1, BuildingBlock: GIZVER_clean_sbu_0, # of connection points: 8
#     Node 10, Type 1, BuildingBlock: GIZVER_clean_sbu_0, # of connection points: 8
#     Node 11, Type 1, BuildingBlock: GIZVER_clean_sbu_0, # of connection points: 8
#     Node 12, Type 1, BuildingBlock: GIZVER_clean_sbu_0, # of connection points: 8
#     Node 13, Type 1, BuildingBlock: GIZVER_clean_sbu_0, # of connection points: 8
#     Edge 14, Type (0, 1), BuildingBlock: XUDNAN_clean_linker_2, # of connection points: 2
#     Edge 15, Type (0, 1), BuildingBlock: XUDNAN_clean_linker_2, # of connection points: 2
#     Edge 16, Type (0, 1), BuildingBlock: XUDNAN_clean_linker_2, # of connection points: 2
#     Edge 17, Type (0, 1), BuildingBlock: XUDNAN_clean_linker_2, # of connection points: 2
#     Edge 18, Type (0, 1), BuildingBlock: XUDNAN_clean_linker_2, # of connection points: 2
#     Edge 19, Type (0, 1), BuildingBlock: XUDNAN_clean_linker_2, # of connection points: 2
#     Edge 20, Type (0, 1), BuildingBlock: XUDNAN_clean_linker_2, # of connection points: 2
#     Edge 21, Type (0, 1), BuildingBlock: XUDNAN_clean_linker_2, # of connection points: 2
#     Edge 22, Type (0, 1), BuildingBlock: XUDNAN_clean_linker_2, # of connection points: 2
#     Edge 23, Type (0, 1), BuildingBlock: XUDNAN_clean_linker_2, # of connection points: 2
#     Edge 24, Type (0, 1), BuildingBlock: XUDNAN_clean_linker_2, # of connection points: 2
#     Edge 25, Type (0, 1), BuildingBlock: XUDNAN_clean_linker_2, # of connection points: 2
#     Edge 26, Type (0, 1), BuildingBlock: XUDNAN_clean_linker_2, # of connection points: 2
#     Edge 27, Type (0, 1), BuildingBlock: XUDNAN_clean_linker_2, # of connection points: 2
#     Edge 28, Type (0, 1), BuildingBlock: XUDNAN_clean_linker_2, # of connection points: 2
#     Edge 29, Type (0, 1), BuildingBlock: XUDNAN_clean_linker_2, # of connection points: 2
#     Edge 30, Type (0, 1), BuildingBlock: XUDNAN_clean_linker_2, # of connection points: 2
#     Edge 31, Type (0, 1), BuildingBlock: XUDNAN_clean_linker_2, # of connection points: 2
#     Edge 32, Type (0, 1), BuildingBlock: XUDNAN_clean_linker_2, # of connection points: 2
#     Edge 33, Type (0, 1), BuildingBlock: XUDNAN_clean_linker_2, # of connection points: 2
#     Edge 34, Type (0, 1), BuildingBlock: XUDNAN_clean_linker_2, # of connection points: 2
#     Edge 35, Type (0, 1), BuildingBlock: XUDNAN_clean_linker_2, # of connection points: 2
#     Edge 36, Type (0, 1), BuildingBlock: XUDNAN_clean_linker_2, # of connection points: 2
#     Edge 37, Type (0, 1), BuildingBlock: XUDNAN_clean_linker_2, # of connection points: 2
#     Edge 38, Type (0, 1), BuildingBlock: XUDNAN_clean_linker_2, # of connection points: 2
#     Edge 39, Type (0, 1), BuildingBlock: XUDNAN_clean_linker_2, # of connection points: 2
#     Edge 40, Type (0, 1), BuildingBlock: XUDNAN_clean_linker_2, # of connection points: 2
#     Edge 41, Type (0, 1), BuildingBlock: XUDNAN_clean_linker_2, # of connection points: 2
#     Edge 42, Type (0, 1), BuildingBlock: XUDNAN_clean_linker_2, # of connection points: 2
#     Edge 43, Type (0, 1), BuildingBlock: XUDNAN_clean_linker_2, # of connection points: 2
#     Edge 44, Type (0, 1), BuildingBlock: XUDNAN_clean_linker_2, # of connection points: 2
#     Edge 45, Type (0, 1), BuildingBlock: XUDNAN_clean_linker_2, # of connection points: 2
#     Edge 46, Type (0, 1), BuildingBlock: XUDNAN_clean_linker_2, # of connection points: 2
#     Edge 47, Type (0, 1), BuildingBlock: XUDNAN_clean_linker_2, # of connection points: 2
#     Edge 48, Type (0, 1), BuildingBlock: XUDNAN_clean_linker_2, # of connection points: 2
#     Edge 49, Type (0, 1), BuildingBlock: XUDNAN_clean_linker_2, # of connection points: 2
#     Edge 50, Type (0, 1), BuildingBlock: XUDNAN_clean_linker_2, # of connection points: 2
#     Edge 51, Type (0, 1), BuildingBlock: XUDNAN_clean_linker_2, # of connection points: 2
#     Edge 52, Type (0, 1), BuildingBlock: XUDNAN_clean_linker_2, # of connection points: 2
#     Edge 53, Type (0, 1), BuildingBlock: XUDNAN_clean_linker_2, # of connection points: 2
#     Edge 54, Type (0, 1), BuildingBlock: XUDNAN_clean_linker_2, # of connection points: 2
#     Edge 55, Type (0, 1), BuildingBlock: XUDNAN_clean_linker_2, # of connection points: 2
#     Edge 56, Type (0, 1), BuildingBlock: XUDNAN_clean_linker_2, # of connection points: 2
#     Edge 57, Type (0, 1), BuildingBlock: XUDNAN_clean_linker_2, # of connection points: 2
#     Edge 58, Type (0, 1), BuildingBlock: XUDNAN_clean_linker_2, # of connection points: 2
#     Edge 59, Type (0, 1), BuildingBlock: XUDNAN_clean_linker_2, # of connection points: 2
#     Edge 60, Type (0, 1), BuildingBlock: XUDNAN_clean_linker_2, # of connection points: 2
#     Edge 61, Type (0, 1), BuildingBlock: XUDNAN_clean_linker_2, # of connection points: 2
# Relax obj value: 0.239
# Max RMSD: 0.291
# Mean RMSD: 0.224
data_MOF--net-ocu--node1-FUNLAD_clean_sbu_0--node2-GIZVER_clean_sbu_0--edge1-XUDNAN_clean_linker_2
_symmetry_space_group_name_H-M    P1
_symmetry_Int_Tables_number       1
_symmetry_cell_setting            triclinic
loop_
_symmetry_equiv_pos_as_xyz
'x, y, z'
_cell_length_a     41.699003
_cell_length_b     43.404595
_cell_length_c     31.817402
_cell_angle_alpha  82.915402
_cell_angle_beta   84.826269
_cell_angle_gamma 93.755024
loop_
_atom_site_label
_atom_site_type_symbol
_atom_site_fract_x
_atom_site_fract_y
_atom_site_fract_z
_atom_type_partial_charge
C0 C 0.23197 0.29728 0.30913 0.0
N1 N 0.20845 0.21525 0.25817 0.0
C2 C 0.19514 0.19935 0.29578 0.0
C3 C 0.17176 0.1749 0.29616 0.0
C4 C 0.16191 0.16707 0.2575 0.0
C5 C 0.17535 0.18431 0.21924 0.0
C6 C 0.19901 0.20831 0.22029 0.0
Zn7 Zn 0.24525 0.24802 0.25721 0.0
C8 C 0.24109 0.30036 0.18686 0.0
N9 N 0.32441 0.31485 0.24751 0.0
C10 C 0.33247 0.32223 0.28585 0.0
C11 C 0.33906 0.33026 0.21029 0.0
C12 C 0.36248 0.35457 0.21081 0.0
C13 C 0.37098 0.36263 0.24998 0.0
C14 C 0.35616 0.34597 0.28781 0.0
Zn15 Zn 0.28766 0.28197 0.24801 0.0
O16 O 0.21837 0.27169 0.30176 0.0
C17 C 0.29286 0.23088 0.31862 0.0
O18 O 0.2601 0.30608 0.29121 0.0
H19 H 0.3322 0.32401 0.18028 0.0
H20 H 0.20301 0.20536 0.32541 0.0
H21 H 0.32009 0.3101 0.31512 0.0
O22 O 0.26594 0.22022 0.3082 0.0
O23 O 0.30622 0.25608 0.29852 0.0
H24 H 0.21027 0.22102 0.19072 0.0
O25 O 0.31493 0.25715 0.20432 0.0
O26 O 0.27151 0.2249 0.21257 0.0
O27 O 0.26893 0.30837 0.19689 0.0
O28 O 0.22559 0.27603 0.20705 0.0
C29 C 0.29996 0.23267 0.19526 0.0
H30 H 0.16133 0.16233 0.32636 0.0
H31 H 0.16814 0.17885 0.18897 0.0
H32 H 0.3739 0.36694 0.18099 0.0
H33 H 0.36227 0.35176 0.31844 0.0
C34 C 0.71952 0.30874 0.22479 0.0
N35 N 0.74638 0.2272 0.18124 0.0
C36 C 0.71356 0.22438 0.18302 0.0
C37 C 0.69787 0.20538 0.15838 0.0
C38 C 0.71569 0.1889 0.1305 0.0
C39 C 0.74967 0.1921 0.12859 0.0
C40 C 0.76469 0.21158 0.15453 0.0
Zn41 Zn 0.76158 0.25319 0.22669 0.0
C42 C 0.81147 0.30434 0.20022 0.0
N43 N 0.77803 0.30713 0.32678 0.0
C44 C 0.75937 0.32803 0.34364 0.0
C45 C 0.80945 0.30571 0.33495 0.0
C46 C 0.82335 0.32574 0.36019 0.0
C47 C 0.80547 0.3488 0.37597 0.0
C48 C 0.77273 0.34933 0.36826 0.0
Zn49 Zn 0.76402 0.28118 0.28064 0.0
O50 O 0.72815 0.28526 0.20804 0.0
C51 C 0.71372 0.23049 0.30761 0.0
O52 O 0.7314 0.31507 0.25845 0.0
H53 H 0.82467 0.29013 0.32019 0.0
H54 H 0.69896 0.23602 0.20494 0.0
H55 H 0.73462 0.32925 0.33635 0.0
O56 O 0.72528 0.22544 0.27096 0.0
O57 O 0.72492 0.25459 0.32237 0.0
H58 H 0.79072 0.21365 0.15402 0.0
O59 O 0.79586 0.24596 0.3015 0.0
O60 O 0.79488 0.22131 0.24545 0.0
O61 O 0.80199 0.30767 0.2384 0.0
O62 O 0.79864 0.28178 0.18364 0.0
C63 C 0.80491 0.2239 0.2815 0.0
H64 H 0.67172 0.20287 0.16252 0.0
H65 H 0.76435 0.17956 0.10769 0.0
H66 H 0.84833 0.32364 0.36604 0.0
H67 H 0.75793 0.36682 0.37941 0.0
C68 C 0.79449 0.73144 0.31858 0.0
N69 N 0.82922 0.81778 0.25564 0.0
C70 C 0.83371 0.81888 0.29732 0.0
C71 C 0.85907 0.83719 0.30871 0.0
C72 C 0.87962 0.85574 0.27719 0.0
C73 C 0.87445 0.85516 0.23425 0.0
C74 C 0.8491 0.83532 0.224 0.0
Zn75 Zn 0.79128 0.78709 0.24811 0.0
C76 C 0.80985 0.73867 0.19584 0.0
N77 N 0.71425 0.71851 0.24903 0.0
C78 C 0.68888 0.70912 0.27892 0.0
C79 C 0.71374 0.71171 0.20845 0.0
C80 C 0.68698 0.69587 0.19612 0.0
C81 C 0.65986 0.68716 0.22543 0.0
C82 C 0.66121 0.69307 0.26774 0.0
Zn83 Zn 0.75193 0.74935 0.25661 0.0
O84 O 0.80784 0.75608 0.29669 0.0
C85 C 0.73409 0.79902 0.30829 0.0
O86 O 0.76685 0.72089 0.31035 0.0
H87 H 0.73345 0.72002 0.18456 0.0
H88 H 0.8173 0.80577 0.32232 0.0
H89 H 0.6895 0.71519 0.31082 0.0
O90 O 0.76288 0.80796 0.29346 0.0
O91 O 0.72103 0.7741 0.29775 0.0
H92 H 0.84503 0.83428 0.19109 0.0
O93 O 0.73773 0.77781 0.20305 0.0
O94 O 0.77366 0.81757 0.19944 0.0
O95 O 0.78367 0.72585 0.21592 0.0
O96 O 0.81929 0.76614 0.20181 0.0
C97 C 0.74896 0.80477 0.1859 0.0
H98 H 0.86167 0.83797 0.34218 0.0
H99 H 0.8895 0.87002 0.20925 0.0
H100 H 0.6873 0.69113 0.16345 0.0
H101 H 0.64073 0.68652 0.29131 0.0
C102 C 0.208 0.80435 0.27497 0.0
N103 N 0.28813 0.78466 0.34324 0.0
C104 C 0.28498 0.81543 0.34647 0.0
C105 C 0.30379 0.83149 0.37206 0.0
C106 C 0.32708 0.81633 0.39411 0.0
C107 C 0.32921 0.78429 0.39175 0.0
C108 C 0.30932 0.7688 0.3662 0.0
Zn109 Zn 0.26687 0.76789 0.2922 0.0
C110 C 0.21752 0.71559 0.30704 0.0
N111 N 0.22697 0.74785 0.17884 0.0
C112 C 0.20748 0.76373 0.1532 0.0
C113 C 0.23043 0.71701 0.17703 0.0
C114 C 0.21333 0.70072 0.15025 0.0
C115 C 0.19176 0.71588 0.12518 0.0
C116 C 0.18959 0.74808 0.12579 0.0
Zn117 Zn 0.24668 0.76465 0.22961 0.0
O118 O 0.229 0.79738 0.30025 0.0
C119 C 0.29508 0.81565 0.21128 0.0
O120 O 0.20821 0.79317 0.23991 0.0
H121 H 0.24496 0.70415 0.19834 0.0
H122 H 0.2696 0.82859 0.32678 0.0
H123 H 0.20452 0.78805 0.15549 0.0
O124 O 0.29715 0.8058 0.25048 0.0
O125 O 0.27363 0.8026 0.1919 0.0
H126 H 0.31228 0.74464 0.36282 0.0
O127 O 0.28649 0.73781 0.21961 0.0
O128 O 0.30398 0.73736 0.2827 0.0
O129 O 0.21957 0.72659 0.26793 0.0
O130 O 0.2355 0.72889 0.33119 0.0
C131 C 0.30636 0.72908 0.24569 0.0
H132 H 0.30174 0.85625 0.37188 0.0
H133 H 0.34693 0.77163 0.40816 0.0
H134 H 0.2162 0.67608 0.15035 0.0
H135 H 0.17308 0.76066 0.107 0.0
C136 C 0.21428 0.80066 0.72579 0.0
N137 N 0.24809 0.72017 0.6888 0.0
C138 C 0.21565 0.71333 0.6905 0.0
C139 C 0.20285 0.69299 0.6652 0.0
C140 C 0.22313 0.68013 0.63556 0.0
C141 C 0.25666 0.68852 0.63284 0.0
C142 C 0.26876 0.7085 0.6603 0.0
Zn143 Zn 0.25938 0.74769 0.73412 0.0
C144 C 0.30897 0.8003 0.70725 0.0
N145 N 0.26897 0.80653 0.83158 0.0
C146 C 0.26653 0.83765 0.82173 0.0
C147 C 0.28546 0.79565 0.86473 0.0
C148 C 0.3044 0.81624 0.88457 0.0
C149 C 0.30537 0.84846 0.87134 0.0
C150 C 0.28384 0.85899 0.84209 0.0
Zn151 Zn 0.25933 0.77813 0.78564 0.0
O152 O 0.22428 0.77676 0.71134 0.0
C153 C 0.21056 0.72489 0.8132 0.0
O154 O 0.22523 0.80886 0.75907 0.0
H155 H 0.28651 0.77094 0.87348 0.0
H156 H 0.19918 0.7231 0.71245 0.0
H157 H 0.25354 0.84637 0.79551 0.0
O158 O 0.22351 0.71862 0.77795 0.0
O159 O 0.21971 0.75048 0.82605 0.0
H160 H 0.29446 0.71439 0.6591 0.0
O161 O 0.29331 0.74622 0.80985 0.0
O162 O 0.29416 0.71895 0.75618 0.0
O163 O 0.29827 0.80524 0.74445 0.0
O164 O 0.29653 0.77682 0.69216 0.0
C165 C 0.30396 0.7239 0.7916 0.0
H166 H 0.17713 0.68684 0.67036 0.0
H167 H 0.27344 0.67965 0.61017 0.0
H168 H 0.32001 0.80662 0.90735 0.0
H169 H 0.28216 0.88356 0.83232 0.0
C170 C 0.29261 0.22425 0.81724 0.0
N171 N 0.32787 0.31352 0.76241 0.0
C172 C 0.32889 0.3149 0.80483 0.0
C173 C 0.35167 0.33467 0.81926 0.0
C174 C 0.37322 0.35409 0.78997 0.0
C175 C 0.37173 0.35299 0.74624 0.0
C176 C 0.34884 0.33195 0.73299 0.0
Zn177 Zn 0.29242 0.28187 0.7496 0.0
C178 C 0.31495 0.23562 0.69576 0.0
N179 N 0.21681 0.21331 0.74007 0.0
C180 C 0.19073 0.20341 0.76864 0.0
C181 C 0.21784 0.20672 0.69923 0.0
C182 C 0.19225 0.18986 0.68563 0.0
C183 C 0.1647 0.1805 0.71371 0.0
C184 C 0.16391 0.1871 0.75582 0.0
Zn185 Zn 0.25333 0.2441 0.75164 0.0
O186 O 0.30521 0.25108 0.80169 0.0
C187 C 0.23165 0.29047 0.80584 0.0
O188 O 0.26821 0.2128 0.80162 0.0
H189 H 0.23772 0.21595 0.67611 0.0
H190 H 0.31161 0.30094 0.82797 0.0
H191 H 0.19006 0.20931 0.80073 0.0
O192 O 0.25926 0.30282 0.7903 0.0
O193 O 0.22204 0.26403 0.79626 0.0
H194 H 0.3475 0.3307 0.69944 0.0
O195 O 0.2383 0.27586 0.70162 0.0
O196 O 0.27871 0.31156 0.69732 0.0
O197 O 0.28626 0.22455 0.70837 0.0
O198 O 0.32528 0.26093 0.7081 0.0
C199 C 0.25224 0.30189 0.68454 0.0
H200 H 0.35164 0.33564 0.85316 0.0
H201 H 0.38775 0.36834 0.72287 0.0
H202 H 0.19322 0.1857 0.65265 0.0
H203 H 0.14264 0.18041 0.77804 0.0
C204 C 0.7132 0.30671 0.77359 0.0
N205 N 0.79101 0.2818 0.84058 0.0
C206 C 0.78782 0.31247 0.8441 0.0
C207 C 0.80425 0.32754 0.87267 0.0
C208 C 0.82518 0.31153 0.89789 0.0
C209 C 0.82829 0.27981 0.89419 0.0
C210 C 0.81069 0.26523 0.86527 0.0
Zn211 Zn 0.77007 0.26751 0.78838 0.0
C212 C 0.72167 0.2171 0.80033 0.0
N213 N 0.7296 0.25452 0.67211 0.0
C214 C 0.69722 0.24652 0.67955 0.0
C215 C 0.74723 0.24464 0.6389 0.0
C216 C 0.73302 0.22351 0.6147 0.0
C217 C 0.70048 0.21185 0.62514 0.0
C218 C 0.6822 0.22509 0.65662 0.0
Zn219 Zn 0.75176 0.26811 0.7238 0.0
O220 O 0.73172 0.29572 0.80016 0.0
C221 C 0.80217 0.31776 0.71242 0.0
O222 O 0.71597 0.29976 0.73587 0.0
H223 H 0.77295 0.25086 0.6335 0.0
H224 H 0.77404 0.32628 0.82286 0.0
H225 H 0.68355 0.25402 0.70646 0.0
O226 O 0.79929 0.30591 0.75136 0.0
O227 O 0.78364 0.30639 0.68737 0.0
H228 H 0.81385 0.24118 0.86134 0.0
O229 O 0.78781 0.23813 0.71295 0.0
O230 O 0.8071 0.23774 0.77526 0.0
O231 O 0.72216 0.22936 0.76169 0.0
O232 O 0.74083 0.22889 0.82413 0.0
C233 C 0.80798 0.22901 0.73845 0.0
H234 H 0.80191 0.35222 0.8731 0.0
H235 H 0.84454 0.26669 0.91275 0.0
H236 H 0.74804 0.2149 0.58985 0.0
H237 H 0.6572 0.21703 0.66625 0.0
C238 C 0.73394 0.79206 0.81274 0.0
N239 N 0.71388 0.71388 0.75009 0.0
C240 C 0.69879 0.6987 0.78718 0.0
C241 C 0.67461 0.67523 0.78654 0.0
C242 C 0.66566 0.66764 0.74739 0.0
C243 C 0.68105 0.68394 0.70953 0.0
C244 C 0.70562 0.70699 0.71163 0.0
Zn245 Zn 0.74992 0.74677 0.75286 0.0
C246 C 0.74657 0.80132 0.68889 0.0
N247 N 0.82672 0.81411 0.7575 0.0
C248 C 0.83445 0.82048 0.79642 0.0
C249 C 0.84043 0.83131 0.72101 0.0
C250 C 0.86201 0.85677 0.72286 0.0
C251 C 0.86967 0.86438 0.76259 0.0
C252 C 0.85632 0.84559 0.79971 0.0
Zn253 Zn 0.79117 0.78091 0.754 0.0
O254 O 0.72019 0.76909 0.7982 0.0
C255 C 0.79389 0.72604 0.81802 0.0
O256 O 0.76305 0.80074 0.79947 0.0
H257 H 0.83404 0.82569 0.6905 0.0
H258 H 0.70557 0.70477 0.8173 0.0
H259 H 0.82302 0.80658 0.82504 0.0
O260 O 0.7676 0.71846 0.80332 0.0
O261 O 0.80964 0.75155 0.80269 0.0
H262 H 0.71815 0.71931 0.68256 0.0
O263 O 0.8198 0.76104 0.70858 0.0
O264 O 0.78056 0.725 0.70791 0.0
O265 O 0.77215 0.81002 0.70451 0.0
O266 O 0.73212 0.77501 0.70305 0.0
C267 C 0.80919 0.73643 0.69494 0.0
H268 H 0.66268 0.66336 0.81638 0.0
H269 H 0.67442 0.67867 0.67891 0.0
H270 H 0.87255 0.87049 0.6935 0.0
H271 H 0.86202 0.85079 0.83075 0.0
Co272 Co 0.05321 0.95792 0.47779 0.0
Co273 Co 0.07131 0.98557 0.53969 0.0
Co274 Co 1.01065 0.01868 0.50862 0.0
O275 O 0.05162 0.99983 0.49221 0.0
H276 H 0.06651 0.01453 0.47356 0.0
O277 O 0.96921 0.03613 0.52469 0.0
Co278 Co 0.96525 0.07783 0.53391 0.0
Co279 Co 0.94947 0.04632 0.47663 0.0
H280 H 0.95499 0.02156 0.54449 0.0
O281 O 0.11336 0.97487 0.54103 0.0
O282 O 0.06923 0.94331 0.53431 0.0
O283 O 0.04976 0.9931 0.59304 0.0
O284 O 1.00265 0.99239 0.56568 0.0
O285 O 0.0349 0.05101 0.53432 0.0
O286 O 0.95807 0.11545 0.54732 0.0
O287 O 0.92649 0.07047 0.56325 0.0
O288 O 1.00761 0.08942 0.50714 0.0
O289 O 0.01872 0.0448 0.45163 0.0
O290 O 0.97235 0.04048 0.42298 0.0
O291 O 0.94503 0.08794 0.47843 0.0
O292 O 0.90636 0.04841 0.47764 0.0
C293 C 0.08606 0.9362 0.44357 0.0
C294 C 0.98655 0.95936 0.48347 0.0
C295 C 0.01921 0.9917 0.59768 0.0
C296 C 0.09874 0.94713 0.54468 0.0
C297 C 0.9327 0.09955 0.56795 0.0
C298 C 0.03098 0.08002 0.5274 0.0
C299 C 1.00288 0.04429 0.41915 0.0
C300 C 0.91674 0.07765 0.46845 0.0
O301 O 0.05896 0.92129 0.46042 0.0
O302 O 0.09352 0.96431 0.45198 0.0
O303 O 0.98553 0.98842 0.48213 0.0
O304 O 1.00945 0.94589 0.50001 0.0
Co305 Co 0.55622 0.94628 0.99035 0.0
Co306 Co 0.54642 0.95828 0.0668 0.0
Co307 Co 0.51613 1.01052 1.00547 0.0
O308 O 0.55241 0.98403 0.01568 0.0
H309 H 0.57287 0.99625 0.0131 0.0
O310 O 0.47914 0.03639 0.99575 0.0
Co311 Co 0.47431 0.07389 0.02119 0.0
Co312 Co 0.48369 0.06158 0.94475 0.0
H313 H 0.45897 0.0237 0.99812 0.0
O314 O 0.58173 0.95102 0.09432 0.0
O315 O 0.55959 0.92235 0.04778 0.0
O316 O 0.50379 0.95021 0.09505 0.0
O317 O 0.48236 0.98325 0.04814 0.0
O318 O 0.53014 0.03605 0.04939 0.0
O319 O 0.46657 0.10754 0.04545 0.0
O320 O 0.43057 0.07044 0.03064 0.0
O321 O 0.51994 0.08204 0.0168 0.0
O322 O 0.54961 0.03781 0.96224 0.0
O323 O 0.52568 0.06867 0.91491 0.0
O324 O 0.47101 0.09766 0.9638 0.0
O325 O 0.44768 0.06878 0.91844 0.0
C326 C 0.59327 0.92323 0.96509 0.0
C327 C 0.49449 0.9565 0.96945 0.0
C328 C 0.47937 0.96177 0.08031 0.0
C329 C 0.58202 0.92722 0.07318 0.0
C330 C 0.43679 0.09643 0.04632 0.0
C331 C 0.5377 0.06518 0.03919 0.0
C332 C 0.55082 0.05815 0.92893 0.0
C333 C 0.44822 0.09293 0.93893 0.0
O334 O 0.56337 0.91245 0.96584 0.0
O335 O 0.59983 0.94903 0.981 0.0
O336 O 0.50281 0.98553 0.96102 0.0
O337 O 0.50988 0.93889 0.99442 0.0
Co338 Co 0.06119 0.45049 0.98124 0.0
Co339 Co 0.05597 0.4656 0.05659 0.0
Co340 Co 0.01522 0.51229 1.00004 0.0
O341 O 0.05588 0.48982 1.0038 0.0
H342 H 0.07509 0.50396 0.99772 0.0
O343 O 0.97417 0.53359 0.99729 0.0
Co344 Co 0.97089 0.57496 0.01152 0.0
Co345 Co 0.97052 0.54944 0.94143 0.0
H346 H 0.95518 0.52003 0.00827 0.0
O347 O 0.09488 0.46235 0.07849 0.0
O348 O 0.07045 0.43025 0.03808 0.0
O349 O 0.01545 0.45113 0.08805 0.0
O350 O 0.98808 0.48454 0.04945 0.0
O351 O 0.03239 0.54336 0.03656 0.0
O352 O 0.96587 0.61252 0.02481 0.0
O353 O 0.9276 0.57273 0.03097 0.0
O354 O 0.01506 0.58297 0.99595 0.0
O355 O 0.04162 0.54108 0.9502 0.0
O356 O 1.00877 0.55721 0.9023 0.0
O357 O 0.96002 0.58842 0.95282 0.0
O358 O 0.92994 0.5523 0.92476 0.0
C359 C 0.09799 0.42716 0.95539 0.0
C360 C 0.99504 0.45303 0.97426 0.0
C361 C 0.98899 0.4615 0.07872 0.0
C362 C 0.09464 0.4377 0.05916 0.0
C363 C 0.93608 0.60176 0.03501 0.0
C364 C 0.03484 0.57237 0.02134 0.0
C365 C 0.03673 0.55727 0.91501 0.0
C366 C 0.93339 0.57948 0.93762 0.0
O367 O 0.06821 0.41572 0.9604 0.0
O368 O 0.10503 0.45519 0.96496 0.0
O369 O 0.99776 0.48246 0.96273 0.0
O370 O 0.01662 0.43957 0.99373 0.0
Co371 Co 0.55866 0.46411 0.97416 0.0
Co372 Co 0.57806 0.4912 0.03598 0.0
Co373 Co 0.51722 0.5242 0.00903 0.0
O374 O 0.55761 0.50592 0.98899 0.0
H375 H 0.57207 0.52086 0.97007 0.0
O376 O 0.47618 0.54137 0.02976 0.0
Co377 Co 0.47384 0.58276 0.04351 0.0
Co378 Co 0.45535 0.55481 0.98389 0.0
H379 H 0.46209 0.52617 0.04875 0.0
O380 O 0.62008 0.48032 0.03555 0.0
O381 O 0.57533 0.44918 0.03009 0.0
O382 O 0.55701 0.49676 0.09081 0.0
O383 O 0.51008 0.49479 0.06331 0.0
O384 O 0.5426 0.5538 0.03808 0.0
O385 O 0.46854 0.61988 0.06054 0.0
O386 O 0.43536 0.57579 0.07386 0.0
O387 O 0.51554 0.59335 0.01594 0.0
O388 O 0.52424 0.55335 0.95432 0.0
O389 O 0.47657 0.55106 0.92846 0.0
O390 O 0.45311 0.59615 0.98957 0.0
O391 O 0.4123 0.55895 0.98769 0.0
C392 C 0.59114 0.44195 0.93964 0.0
C393 C 0.49186 0.46661 0.98122 0.0
C394 C 0.52646 0.49369 0.09543 0.0
C395 C 0.60499 0.45275 0.04007 0.0
C396 C 0.44265 0.60433 0.0804 0.0
C397 C 0.53764 0.58247 0.0372 0.0
C398 C 0.50709 0.55474 0.92288 0.0
C399 C 0.42414 0.58783 0.97988 0.0
O400 O 0.56395 0.4273 0.95663 0.0
O401 O 0.59883 0.47015 0.9475 0.0
O402 O 0.4913 0.49578 0.98009 0.0
O403 O 0.51478 0.4526 0.99706 0.0
Co404 Co 0.08123 0.46789 0.5083 0.0
Co405 Co 0.05045 0.4726 0.43976 0.0
Co406 Co 0.01595 0.51144 0.50941 0.0
O407 O 0.0364 0.4718 0.49796 0.0
H408 H 0.02257 0.45321 0.50864 0.0
O409 O 0.99664 0.55123 0.52043 0.0
Co410 Co 0.9545 0.55876 0.50453 0.0
Co411 Co 0.97869 0.55123 0.57553 0.0
H412 H 1.01186 0.56918 0.51231 0.0
O413 O 0.05765 0.43533 0.4165 0.0
O414 O 0.09264 0.4641 0.44783 0.0
O415 O 0.05623 0.51312 0.40574 0.0
O416 O 0.04209 0.53961 0.45926 0.0
O417 O 0.9798 0.49998 0.47463 0.0
O418 O 0.91664 0.56795 0.48786 0.0
O419 O 0.96109 0.60041 0.48774 0.0
O420 O 0.94246 0.51656 0.5184 0.0
O421 O 0.98938 0.4833 0.55975 0.0
O422 O 0.96861 0.51128 0.60855 0.0
O423 O 0.93972 0.56669 0.56327 0.0
O424 O 0.97865 0.58862 0.59747 0.0
C425 C 0.11086 0.43328 0.52634 0.0
C426 C 0.08095 0.52567 0.52758 0.0
C427 C 0.05561 0.53858 0.4216 0.0
C428 C 0.08636 0.44027 0.4281 0.0
C429 C 0.93115 0.59569 0.47928 0.0
C430 C 0.95033 0.49913 0.49056 0.0
C431 C 0.97246 0.48526 0.59516 0.0
C432 C 0.95063 0.5894 0.58271 0.0
O433 O 0.12108 0.46239 0.51838 0.0
O434 O 0.08049 0.4251 0.52265 0.0
O435 O 0.05169 0.5232 0.54436 0.0
O436 O 0.08875 0.51077 0.49689 0.0
Co437 Co 0.58658 0.97469 0.50803 0.0
Co438 Co 0.56357 0.98479 0.43559 0.0
Co439 Co 0.51722 1.01186 0.507 0.0
O440 O 0.5437 0.97715 0.4914 0.0
H441 H 0.5314 0.9572 0.49627 0.0
O442 O 0.49069 0.04616 0.5216 0.0
Co443 Co 0.44997 0.05209 0.4987 0.0
Co444 Co 0.46621 0.03881 0.57324 0.0
H445 H 0.50379 0.06558 0.51994 0.0
O446 O 0.57079 0.95121 0.40612 0.0
O447 O 0.60412 0.97358 0.44754 0.0
O448 O 0.57007 0.02766 0.40965 0.0
O449 O 0.54116 0.04587 0.46226 0.0
O450 O 0.48589 0.99944 0.46709 0.0
O451 O 0.41362 0.06093 0.47668 0.0
O452 O 0.45448 0.09422 0.48874 0.0
O453 O 0.44015 1.00755 0.50375 0.0
O454 O 0.49254 0.97755 0.55213 0.0
O455 O 0.45726 0.99658 0.59757 0.0
O456 O 0.42895 0.05546 0.55728 0.0
O457 O 0.46334 0.07152 0.60311 0.0
C458 C 0.61613 0.94091 0.52724 0.0
C459 C 0.57929 0.03208 0.53197 0.0
C460 C 0.56042 0.05033 0.42775 0.0
C461 C 0.59804 0.95234 0.42288 0.0
C462 C 0.42621 0.08929 0.47499 0.0
C463 C 0.4564 0.991 0.48026 0.0
C464 C 0.46979 0.97367 0.58324 0.0
C465 C 0.43806 0.07549 0.58248 0.0
O466 O 0.62519 0.9703 0.5239 0.0
O467 O 0.58711 0.93218 0.5183 0.0
O468 O 0.54952 0.02547 0.54628 0.0
O469 O 0.59178 0.01834 0.50208 0.0
H470 H 0.16208 0.1086 0.29733 0.0
H471 H 0.10543 0.16905 0.22067 0.0
H472 H 0.05805 0.13109 0.23871 0.0
H473 H 0.11236 0.02948 0.2853 0.0
H474 H 0.11732 0.01567 0.33993 0.0
H475 H 0.14937 0.03972 0.30728 0.0
H476 H 0.14967 0.07822 0.36324 0.0
H477 H 0.11789 0.05463 0.39574 0.0
H478 H 0.11275 0.09509 0.37899 0.0
H479 H 0.01479 0.09807 0.28274 0.0
H480 H 0.98084 0.07363 0.34728 0.0
H481 H 0.06458 0.03387 0.39656 0.0
C482 C 0.14001 0.11285 0.28279 0.0
C483 C 0.13703 0.14141 0.25789 0.0
C484 C 0.10805 0.14697 0.23951 0.0
C485 C 0.0811 0.12544 0.24948 0.0
C486 C 0.08391 0.09839 0.27715 0.0
C487 C 0.11302 0.09164 0.29275 0.0
C488 C 0.10852 0.06499 0.32865 0.0
C489 C 0.12273 0.03573 0.31441 0.0
C490 C 0.123 0.07382 0.36898 0.0
C491 C 0.0721 0.0608 0.33475 0.0
C492 C 0.05829 0.07901 0.30343 0.0
C493 C 0.02521 0.08288 0.30655 0.0
C494 C 1.0061 0.06906 0.34339 0.0
C495 C 0.02043 0.05226 0.37674 0.0
C496 C 0.05329 0.0467 0.37126 0.0
H497 H 0.83684 0.22542 0.35383 0.0
H498 H 0.81646 0.16769 0.25571 0.0
H499 H 0.84371 0.12524 0.29279 0.0
H500 H 0.91726 0.19764 0.36973 0.0
H501 H 0.9125 0.19897 0.42634 0.0
H502 H 0.89257 0.22564 0.3913 0.0
H503 H 0.83767 0.20677 0.4344 0.0
H504 H 0.85739 0.17985 0.4693 0.0
H505 H 0.82455 0.16588 0.44176 0.0
H506 H 0.86796 0.08764 0.34271 0.0
H507 H 0.89391 0.05793 0.39933 0.0
H508 H 0.90288 0.13982 0.46442 0.0
C509 C 0.83851 0.20398 0.33988 0.0
C510 C 0.82443 0.19991 0.30177 0.0
C511 C 0.82712 0.17149 0.28463 0.0
C512 C 0.84247 0.14716 0.30557 0.0
C513 C 0.85546 0.15168 0.34337 0.0
C514 C 0.85422 0.17948 0.36013 0.0
C515 C 0.87023 0.17789 0.40143 0.0
C516 C 0.89991 0.20143 0.39692 0.0
C517 C 0.84601 0.18289 0.43893 0.0
C518 C 0.88004 0.14462 0.40556 0.0
C519 C 0.87094 0.13002 0.37173 0.0
C520 C 0.87555 0.09888 0.36908 0.0
C521 C 0.89009 0.08215 0.40162 0.0
C522 C 0.90029 0.09656 0.43626 0.0
C523 C 0.89545 0.12834 0.43813 0.0
H524 H 0.93357 0.84499 0.31802 0.0
H525 H 0.87313 0.91707 0.27299 0.0
H526 H 0.89486 0.95092 0.32214 0.0
H527 H 0.92542 0.85222 0.42157 0.0
H528 H 0.96638 0.84793 0.43391 0.0
H529 H 0.9518 0.83089 0.3898 0.0
H530 H 0.99798 0.86085 0.3379 0.0
H531 H 1.01368 0.87699 0.38213 0.0
H532 H 1.00472 0.90245 0.33624 0.0
H533 H 0.91028 0.9695 0.38737 0.0
H534 H 0.93464 0.98309 0.4502 0.0
H535 H 0.9924 0.90322 0.44932 0.0
C536 C 0.92658 0.86866 0.31677 0.0
C537 C 0.90215 0.87884 0.29139 0.0
C538 C 0.89241 0.90936 0.29145 0.0
C539 C 0.90427 0.92849 0.31969 0.0
C540 C 0.92653 0.91696 0.34656 0.0
C541 C 0.93899 0.88849 0.34398 0.0
C542 C 0.96202 0.88159 0.37789 0.0
C543 C 0.9507 0.85136 0.40753 0.0
C544 C 0.99665 0.88041 0.35731 0.0
C545 C 0.95901 0.90987 0.40125 0.0
C546 C 0.9379 0.9295 0.38282 0.0
C547 C 0.92806 0.95521 0.40088 0.0
C548 C 0.94193 0.9625 0.43696 0.0
C549 C 0.96644 0.9449 0.45397 0.0
C550 C 0.97424 0.91748 0.43674 0.0
H551 H 0.15421 0.79674 0.33099 0.0
H552 H 0.21643 0.8655 0.24564 0.0
H553 H 0.1905 0.90774 0.27823 0.0
H554 H 0.08095 0.84426 0.33397 0.0
H555 H 0.06969 0.82964 0.38918 0.0
H556 H 0.08982 0.8055 0.35456 0.0
H557 H 0.1338 0.79822 0.40678 0.0
H558 H 0.11444 0.82304 0.44089 0.0
H559 H 0.15613 0.83203 0.42023 0.0
H560 H 0.16431 0.94149 0.32794 0.0
H561 H 0.13312 0.96528 0.3837 0.0
H562 H 0.08615 0.87445 0.43449 0.0
C563 C 0.16115 0.82075 0.31797 0.0
C564 C 0.1865 0.8282 0.28522 0.0
C565 C 0.19624 0.85965 0.26988 0.0
C566 C 0.1819 0.88368 0.28846 0.0
C567 C 0.15766 0.87565 0.32189 0.0
C568 C 0.14667 0.84497 0.3357 0.0
C569 C 0.12144 0.84256 0.37352 0.0
C570 C 0.08852 0.82974 0.36211 0.0
C571 C 0.13212 0.8228 0.41265 0.0
C572 C 0.12102 0.87648 0.37996 0.0
C573 C 0.14207 0.89522 0.34992 0.0
C574 C 0.14725 0.92715 0.3511 0.0
C575 C 0.12971 0.94039 0.38312 0.0
C576 C 0.10717 0.92171 0.41322 0.0
C577 C 0.10304 0.88934 0.41167 0.0
H578 H 0.2118 0.86445 0.70891 0.0
H579 H 0.16524 0.77632 0.68719 0.0
H580 H 0.13082 0.80404 0.6384 0.0
H581 H 0.14021 0.90998 0.70273 0.0
H582 H 0.16319 0.94423 0.67486 0.0
H583 H 0.182 0.91756 0.71123 0.0
H584 H 0.22666 0.91202 0.65112 0.0
H585 H 0.20767 0.93824 0.6144 0.0
H586 H 0.21544 0.89986 0.60194 0.0
H587 H 0.10293 0.84088 0.58959 0.0
H588 H 0.08211 0.88489 0.5459 0.0
H589 H 0.14826 0.94926 0.59606 0.0
C590 C 0.19372 0.85116 0.69475 0.0
C591 C 0.1908 0.81827 0.70229 0.0
C592 C 0.16762 0.80155 0.68211 0.0
C593 C 0.14803 0.81707 0.65424 0.0
C594 C 0.15207 0.84942 0.6464 0.0
C595 C 0.1742 0.86635 0.66614 0.0
C596 C 0.1747 0.90086 0.65032 0.0
C597 C 0.1644 0.91924 0.68696 0.0
C598 C 0.2081 0.91348 0.62813 0.0
C599 C 0.14951 0.90055 0.61868 0.0
C600 C 0.13668 0.87064 0.61706 0.0
C601 C 0.11277 0.86445 0.5906 0.0
C602 C 0.10115 0.88957 0.56578 0.0
C603 C 0.11364 0.92051 0.56724 0.0
C604 C 0.13848 0.92587 0.59371 0.0
H605 H 0.15792 0.12385 0.68662 0.0
H606 H 0.10988 0.20828 0.69824 0.0
H607 H 0.06965 0.1919 0.65097 0.0
H608 H 0.1516 0.12171 0.58033 0.0
H609 H 0.14382 0.08013 0.58309 0.0
H610 H 0.16617 0.09609 0.62223 0.0
H611 H 0.12547 0.06744 0.68317 0.0
H612 H 0.10351 0.05057 0.64427 0.0
H613 H 0.08294 0.07225 0.68184 0.0
H614 H 0.04031 0.16993 0.5939 0.0
H615 H 0.01728 0.13934 0.54179 0.0
H616 H 0.08337 0.06814 0.57061 0.0
C617 C 0.13806 0.13813 0.68055 0.0
C618 C 0.13632 0.16691 0.69647 0.0
C619 C 0.11086 0.18575 0.68702 0.0
C620 C 0.08823 0.1768 0.65989 0.0
C621 C 0.09139 0.14883 0.64312 0.0
C622 C 0.11512 0.12935 0.65405 0.0
C623 C 0.11405 0.10112 0.63056 0.0
C624 C 0.14579 0.09971 0.60239 0.0
C625 C 0.106 0.07107 0.66182 0.0
C626 C 0.08654 0.10812 0.60394 0.0
C627 C 0.07392 0.13582 0.61131 0.0
C628 C 0.04945 0.14781 0.58863 0.0
C629 C 0.03663 0.13033 0.55894 0.0
C630 C 0.04798 0.10099 0.55279 0.0
C631 C 0.0738 0.09026 0.57497 0.0
H632 H 0.84297 0.23531 0.66219 0.0
H633 H 0.82368 0.17463 0.78184 0.0
H634 H 0.85393 0.13407 0.75069 0.0
H635 H 0.8333 0.17937 0.5948 0.0
H636 H 0.86563 0.19536 0.5551 0.0
H637 H 0.84515 0.22051 0.58771 0.0
H638 H 0.8995 0.23993 0.61276 0.0
H639 H 0.9203 0.21544 0.57935 0.0
H640 H 0.92542 0.212 0.63535 0.0
H641 H 0.87931 0.0981 0.70278 0.0
H642 H 0.90747 0.07254 0.64624 0.0
H643 H 0.91352 0.15866 0.56003 0.0
C644 C 0.84596 0.21377 0.68211 0.0
C645 C 0.83139 0.20787 0.7243 0.0
C646 C 0.83527 0.17952 0.74961 0.0
C647 C 0.85207 0.15637 0.73205 0.0
C648 C 0.86516 0.16248 0.68963 0.0
C649 C 0.86309 0.19085 0.66541 0.0
C650 C 0.87887 0.19161 0.62056 0.0
C651 C 0.85426 0.19703 0.58763 0.0
C652 C 0.90775 0.2162 0.61149 0.0
C653 C 0.88971 0.15899 0.62298 0.0
C654 C 0.88113 0.14237 0.66284 0.0
C655 C 0.88668 0.11106 0.67175 0.0
C656 C 0.9023 0.09667 0.63941 0.0
C657 C 0.91258 0.11381 0.59917 0.0
C658 C 0.90606 0.14525 0.59078 0.0
H659 H 0.86447 0.92276 0.726 0.0
H660 H 0.92591 0.86605 0.80005 0.0
H661 H 0.97082 0.90669 0.78145 0.0
H662 H 0.91112 0.93744 0.64369 0.0
H663 H 0.90416 0.97735 0.6261 0.0
H664 H 0.87377 0.95325 0.66032 0.0
H665 H 0.87377 0.99251 0.71533 0.0
H666 H 0.90403 0.01726 0.68048 0.0
H667 H 0.91113 1.00496 0.73482 0.0
H668 H 1.01171 0.94096 0.73574 0.0
H669 H 0.04351 0.96501 0.66955 0.0
H670 H 0.95688 0.99987 0.62207 0.0
C671 C 0.88697 0.91999 0.74007 0.0
C672 C 0.89211 0.89167 0.76416 0.0
C673 C 0.92164 0.88793 0.78187 0.0
C674 C 0.9472 0.91099 0.7715 0.0
C675 C 0.9425 0.9376 0.74395 0.0
C676 C 0.91268 0.9426 0.72931 0.0
C677 C 0.91535 0.9687 0.69267 0.0
C678 C 0.90027 0.95852 0.65344 0.0
C679 C 0.90018 0.99757 0.7067 0.0
C680 C 0.95163 0.97435 0.6849 0.0
C681 C 0.96685 0.95758 0.7162 0.0
C682 C 1.00015 0.95504 0.71191 0.0
C683 C 0.01803 0.96859 0.67402 0.0
C684 C 1.00236 0.98387 0.64068 0.0
C685 C 0.96924 0.98822 0.64723 0.0
H686 H 0.36458 0.23096 0.16768 0.0
H687 H 0.26923 0.18731 0.15836 0.0
H688 H 0.29344 0.1494 0.11607 0.0
H689 H 0.39974 0.2192 0.06024 0.0
H690 H 0.43843 0.21123 0.07837 0.0
H691 H 0.41338 0.23691 0.10449 0.0
H692 H 0.41595 0.20272 0.17675 0.0
H693 H 0.44075 0.17685 0.15079 0.0
H694 H 0.40357 0.16172 0.18201 0.0
H695 H 0.32808 0.1137 0.07882 0.0
H696 H 0.37102 0.08357 0.04884 0.0
H697 H 0.44357 0.14999 0.08291 0.0
C698 C 0.3488 0.21383 0.15601 0.0
C699 C 0.31501 0.21223 0.1663 0.0
C700 C 0.29521 0.18906 0.15097 0.0
C701 C 0.3087 0.16739 0.1268 0.0
C702 C 0.3421 0.16911 0.118 0.0
C703 C 0.36191 0.19182 0.13189 0.0
C704 C 0.39715 0.18745 0.11989 0.0
C705 C 0.41311 0.21536 0.0889 0.0
C706 C 0.41542 0.18184 0.15973 0.0
C707 C 0.39399 0.15841 0.09805 0.0
C708 C 0.36205 0.14833 0.0969 0.0
C709 C 0.35322 0.12147 0.0793 0.0
C710 C 0.37774 0.10442 0.06251 0.0
C711 C 0.41065 0.11425 0.06367 0.0
C712 C 0.41866 0.14175 0.08148 0.0
H713 H 0.87672 0.30537 0.17207 0.0
H714 H 0.79506 0.36206 0.17397 0.0
H715 H 0.8308 0.4083 0.14186 0.0
H716 H 0.93284 0.36009 0.20185 0.0
H717 H 0.96688 0.35138 0.16742 0.0
H718 H 0.93462 0.32183 0.1856 0.0
H719 H 0.9264 0.31431 0.10756 0.0
H720 H 0.95903 0.34354 0.0892 0.0
H721 H 0.91988 0.34759 0.07032 0.0
H722 H 0.87627 0.44938 0.11188 0.0
H723 H 0.92751 0.48137 0.08733 0.0
H724 H 0.98033 0.39895 0.10848 0.0
C725 C 0.86634 0.32735 0.1645 0.0
C726 C 0.83293 0.32999 0.17457 0.0
C727 C 0.82043 0.35941 0.16567 0.0
C728 C 0.8406 0.38585 0.14758 0.0
C729 C 0.87352 0.38276 0.13868 0.0
C730 C 0.88632 0.3542 0.14656 0.0
C731 C 0.9228 0.35766 0.13583 0.0
C732 C 0.94031 0.34712 0.17502 0.0
C733 C 0.9326 0.3397 0.09852 0.0
C734 C 0.92857 0.39264 0.12254 0.0
C735 C 0.89977 0.40662 0.12347 0.0
C736 C 0.89896 0.43863 0.11131 0.0
C737 C 0.92824 0.45672 0.09763 0.0
C738 C 0.95818 0.44303 0.09697 0.0
C739 C 0.95806 0.41046 0.10975 0.0
H740 H 0.73472 0.86551 0.18018 0.0
H741 H 0.71858 0.78061 0.12393 0.0
H742 H 0.67739 0.80476 0.0822 0.0
H743 H 0.65465 0.87765 0.19756 0.0
H744 H 0.65917 0.91954 0.18712 0.0
H745 H 0.69202 0.89845 0.20542 0.0
H746 H 0.72989 0.92441 0.13968 0.0
H747 H 0.69724 0.94607 0.12148 0.0
H748 H 0.71794 0.9222 0.087 0.0
H749 H 0.63294 0.83593 0.05366 0.0
H750 H 0.58954 0.87137 0.04126 0.0
H751 H 0.63367 0.93464 0.11885 0.0
C752 C 0.72358 0.85262 0.15755 0.0
C753 C 0.73036 0.82157 0.1543 0.0
C754 C 0.71411 0.80471 0.12609 0.0
C755 C 0.69064 0.8182 0.10237 0.0
C756 C 0.68347 0.8485 0.10752 0.0
C757 C 0.6996 0.86555 0.13429 0.0
C758 C 0.68469 0.89604 0.13837 0.0
C759 C 0.67188 0.89801 0.18485 0.0
C760 C 0.70888 0.92382 0.12055 0.0
C761 C 0.65733 0.89317 0.11052 0.0
C762 C 0.65718 0.86584 0.09248 0.0
C763 C 0.63306 0.85759 0.06725 0.0
C764 C 0.60843 0.8778 0.06047 0.0
C765 C 0.60806 0.90579 0.07907 0.0
C766 C 0.63311 0.91347 0.10406 0.0
H767 H 0.15989 0.65855 0.15176 0.0
H768 H 0.1753 0.73143 0.04394 0.0
H769 H 0.14034 0.69999 1.00378 0.0
H770 H 0.15936 0.59265 0.09021 0.0
H771 H 0.12829 0.57004 0.12634 0.0
H772 H 0.15571 0.59754 0.14586 0.0
H773 H 0.10731 0.62489 0.17698 0.0
H774 H 0.07975 0.59746 0.15777 0.0
H775 H 0.07774 0.63865 0.1426 0.0
H776 H 0.102 0.6623 0.97716 0.0
H777 H 0.0607 0.62209 0.96612 0.0
H778 H 0.07111 0.572 0.09028 0.0
C779 C 0.15638 0.66773 0.11942 0.0
C780 C 0.17058 0.6974 0.10078 0.0
C781 C 0.16458 0.70889 0.05888 0.0
C782 C 0.14501 0.69107 0.03576 0.0
C783 C 0.13167 0.66185 0.05503 0.0
C784 C 0.13701 0.65026 0.09594 0.0
C785 C 0.11858 0.61879 0.10998 0.0
C786 C 0.14189 0.59325 0.1186 0.0
C787 C 0.09441 0.62004 0.14914 0.0
C788 C 0.10144 0.61471 0.07079 0.0
C789 C 0.10964 0.63977 0.03944 0.0
C790 C 0.09568 0.64245 1.00129 0.0
C791 C 0.07225 0.61933 0.99531 0.0
C792 C 0.0629 0.59362 0.02714 0.0
C793 C 0.07823 0.59098 0.06507 0.0
H794 H 0.33801 0.84473 0.94468 0.0
H795 H 0.33436 0.90116 0.82234 0.0
H796 H 0.37974 0.93515 0.8369 0.0
H797 H 0.36463 0.90687 1.00428 0.0
H798 H 0.39208 0.8834 0.03226 0.0
H799 H 0.3563 0.86524 0.01515 0.0
H800 H 0.39186 0.8295 0.97463 0.0
H801 H 0.42768 0.84799 0.99127 0.0
H802 H 0.42404 0.84675 0.93546 0.0
H803 H 0.42626 0.96229 0.86173 0.0
H804 H 0.47348 0.98052 0.89535 0.0
H805 H 0.45205 0.9049 0.99907 0.0
C806 C 0.34647 0.86429 0.92097 0.0
C807 C 0.33148 0.87037 0.88275 0.0
C808 C 0.34392 0.89636 0.85276 0.0
C809 C 0.3702 0.91579 0.86041 0.0
C810 C 0.38444 0.90887 0.89789 0.0
C811 C 0.3733 0.88373 0.92766 0.0
C812 C 0.39481 0.88051 0.96387 0.0
C813 C 0.37581 0.88425 1.00641 0.0
C814 C 0.41053 0.84933 0.96644 0.0
C815 C 0.41972 0.90777 0.94946 0.0
C816 C 0.41289 0.92386 0.91147 0.0
C817 C 0.43194 0.94994 0.89148 0.0
C818 C 0.45873 0.96009 0.91086 0.0
C819 C 0.46656 0.94401 0.94963 0.0
C820 C 0.44685 0.91738 0.96914 0.0
H821 H 0.2262 0.3533 0.80264 0.0
H822 H 0.19169 0.26434 0.87541 0.0
H823 H 0.15984 0.29156 0.92681 0.0
H824 H 0.2299 0.39938 0.89131 0.0
H825 H 0.21465 0.43305 0.86304 0.0
H826 H 0.23741 0.40711 0.83415 0.0
H827 H 0.19029 0.39928 0.78777 0.0
H828 H 0.16762 0.42547 0.81612 0.0
H829 H 0.15043 0.38667 0.8133 0.0
H830 H 0.13148 0.3276 0.9692 0.0
H831 H 0.10025 0.36918 0.99387 0.0
H832 H 0.1496 0.43571 0.89191 0.0
C833 C 0.21213 0.33965 0.82968 0.0
C834 C 0.21159 0.30673 0.83548 0.0
C835 C 0.19239 0.28953 0.87052 0.0
C836 C 0.17451 0.30482 0.90002 0.0
C837 C 0.17572 0.3373 0.89362 0.0
C838 C 0.19347 0.35454 0.85888 0.0
C839 C 0.18789 0.38894 0.85725 0.0
C840 C 0.21934 0.40826 0.8617 0.0
C841 C 0.17318 0.40078 0.81618 0.0
C842 C 0.16386 0.3883 0.89626 0.0
C843 C 0.15792 0.35826 0.91718 0.0
C844 C 0.13594 0.35117 0.95313 0.0
C845 C 0.11842 0.375 0.96698 0.0
C846 C 0.12268 0.40564 0.94496 0.0
C847 C 0.14639 0.41265 0.90982 0.0
H848 H 0.68927 0.19763 0.88068 0.0
H849 H 0.70401 0.17189 0.75331 0.0
H850 H 0.66679 0.12493 0.77497 0.0
H851 H 0.64662 0.12815 0.97703 0.0
H852 H 0.6764 0.15906 0.95409 0.0
H853 H 0.67979 0.12011 0.94085 0.0
H854 H 0.63201 0.19164 0.92503 0.0
H855 H 0.60075 0.16148 0.94609 0.0
H856 H 0.60523 0.17584 0.89033 0.0
H857 H 0.62487 0.08235 0.80884 0.0
H858 H 0.57932 0.04974 0.85125 0.0
H859 H 0.59048 0.10254 0.95652 0.0
C860 C 0.68516 0.18173 0.85769 0.0
C861 C 0.70004 0.1883 0.81539 0.0
C862 C 0.69311 0.16737 0.78591 0.0
C863 C 0.67207 0.14048 0.79798 0.0
C864 C 0.65762 0.13472 0.83971 0.0
C865 C 0.6636 0.1549 0.86903 0.0
C866 C 0.64217 0.14497 0.91036 0.0
C867 C 0.66248 0.13767 0.9478 0.0
C868 C 0.61871 0.16998 0.9185 0.0
C869 C 0.62405 0.11566 0.90026 0.0
C870 C 0.63323 0.11023 0.85918 0.0
C871 C 0.61797 0.08606 0.84134 0.0
C872 C 0.59227 0.06748 0.86571 0.0
C873 C 0.58224 0.07281 0.90768 0.0
C874 C 0.59864 0.09702 0.92524 0.0
H875 H 0.85439 0.72964 0.84522 0.0
H876 H 0.76369 0.67238 0.86184 0.0
H877 H 0.78831 0.6318 0.9065 0.0
H878 H 0.90296 0.67262 0.82939 0.0
H879 H 0.93572 0.68563 0.85783 0.0
H880 H 0.90954 0.71321 0.83565 0.0
H881 H 0.89651 0.7307 0.90975 0.0
H882 H 0.9226 0.70303 0.93262 0.0
H883 H 0.88105 0.70225 0.95428 0.0
H884 H 0.82436 0.59397 0.93583 0.0
H885 H 0.86956 0.56158 0.94995 0.0
H886 H 0.93736 0.64284 0.91691 0.0
C887 C 0.83942 0.70903 0.85952 0.0
C888 C 0.80712 0.70417 0.85014 0.0
C889 C 0.78847 0.67662 0.86864 0.0
C890 C 0.80219 0.6535 0.89429 0.0
C891 C 0.83445 0.65844 0.90157 0.0
C892 C 0.85279 0.68567 0.88521 0.0
C893 C 0.88789 0.68352 0.89346 0.0
C894 C 0.91032 0.68905 0.85159 0.0
C895 C 0.89758 0.70622 0.92437 0.0
C896 C 0.8868 0.65008 0.91417 0.0
C897 C 0.85556 0.63631 0.91941 0.0
C898 C 0.84877 0.60464 0.93302 0.0
C899 C 0.87458 0.58641 0.9406 0.0
C900 C 0.90672 0.59989 0.93465 0.0
C901 C 0.91286 0.63224 0.92252 0.0
H902 H 0.17876 0.29467 0.16539 0.0
H903 H 0.26894 0.35244 0.13627 0.0
H904 H 0.24205 0.39018 0.08988 0.0
H905 H 0.1475 0.31416 0.05742 0.0
H906 H 0.10668 0.31407 0.08145 0.0
H907 H 0.13417 0.28855 0.10573 0.0
H908 H 0.12343 0.31171 0.17656 0.0
H909 H 0.09613 0.3373 0.15252 0.0
H910 H 0.12992 0.35318 0.17667 0.0
H911 H 0.20427 0.42573 0.05802 0.0
H912 H 0.15794 0.45616 0.04133 0.0
H913 H 0.092 0.37548 0.08796 0.0
C914 C 0.19308 0.31477 0.14819 0.0
C915 C 0.226 0.32053 0.15441 0.0
C916 C 0.24374 0.34744 0.13198 0.0
C917 C 0.2287 0.36898 0.10534 0.0
C918 C 0.19599 0.36314 0.10098 0.0
C919 C 0.17842 0.33652 0.12134 0.0
C920 C 0.14287 0.33747 0.1148 0.0
C921 C 0.13219 0.31204 0.08827 0.0
C922 C 0.12187 0.33477 0.15768 0.0
C923 C 0.14295 0.36956 0.08985 0.0
C924 C 0.17398 0.3837 0.08155 0.0
C925 C 0.17999 0.41463 0.06324 0.0
C926 C 0.15361 0.43176 0.05403 0.0
C927 C 0.12173 0.41786 0.0628 0.0
C928 C 0.11632 0.3862 0.07989 0.0
H929 H 0.2071 0.66338 0.85162 0.0
H930 H 0.14867 0.74015 0.81916 0.0
H931 H 0.09916 0.70506 0.84001 0.0
H932 H 0.15848 0.60317 0.81804 0.0
H933 H 0.16273 0.5738 0.86203 0.0
H934 H 0.19406 0.60472 0.84621 0.0
H935 H 0.1898 0.61944 0.92242 0.0
H936 H 0.15827 0.58878 0.93905 0.0
H937 H 0.15144 0.62833 0.94683 0.0
H938 H 0.05675 0.66083 0.85436 0.0
H939 H 0.02192 0.61305 0.87687 0.0
H940 H 0.10522 0.56387 0.91112 0.0
C941 C 0.1838 0.67288 0.85009 0.0
C942 C 0.18172 0.70475 0.83423 0.0
C943 C 0.15086 0.71615 0.83194 0.0
C944 C 0.1226 0.69624 0.84335 0.0
C945 C 0.12538 0.66494 0.85803 0.0
C946 C 0.15509 0.65342 0.8629 0.0
C947 C 0.15076 0.61884 0.88081 0.0
C948 C 0.16751 0.59896 0.84992 0.0
C949 C 0.1633 0.61353 0.9249 0.0
C950 C 0.11406 0.6126 0.88397 0.0
C951 C 0.10025 0.63958 0.86976 0.0
C952 C 0.06726 0.63975 0.86632 0.0
C953 C 0.04764 0.61208 0.87882 0.0
C954 C 0.06046 0.58415 0.89583 0.0
C955 C 0.09443 0.58458 0.89833 0.0
H956 H 0.30218 0.16223 0.825 0.0
H957 H 0.32232 0.24664 0.88091 0.0
H958 H 0.35999 0.21982 0.92583 0.0
H959 H 0.31253 0.10476 0.92157 0.0
H960 H 0.33209 0.07907 0.88878 0.0
H961 H 0.30153 0.10268 0.86842 0.0
H962 H 0.34189 0.12559 0.80365 0.0
H963 H 0.37268 0.10254 0.82406 0.0
H964 H 0.38015 0.14424 0.81257 0.0
H965 H 0.40139 0.18639 0.95663 0.0
H966 H 0.44268 0.14897 0.97057 0.0
H967 H 0.39662 0.08715 0.89267 0.0
C968 C 0.3134 0.17452 0.84817 0.0
C969 C 0.30892 0.20622 0.85025 0.0
C970 C 0.32514 0.22214 0.87942 0.0
C971 C 0.34656 0.20711 0.90504 0.0
C972 C 0.35163 0.17618 0.90097 0.0
C973 C 0.33532 0.15997 0.87347 0.0
C974 C 0.34814 0.12836 0.87093 0.0
C975 C 0.32202 0.10217 0.88848 0.0
C976 C 0.36151 0.12502 0.8251 0.0
C977 C 0.37489 0.12982 0.89997 0.0
C978 C 0.37622 0.1573 0.91765 0.0
C979 C 0.40029 0.16457 0.94344 0.0
C980 C 0.42372 0.14324 0.95107 0.0
C981 C 0.42299 0.11513 0.93272 0.0
C982 C 0.39793 0.10837 0.90733 0.0
H983 H 0.89066 0.31118 0.90411 0.0
H984 H 0.80521 0.35383 0.94955 0.0
H985 H 0.83946 0.39325 0.97795 0.0
H986 H 0.93873 0.32772 0.99607 0.0
H987 H 0.97582 0.33463 0.96143 0.0
H988 H 0.94442 0.30702 0.95053 0.0
H989 H 0.94471 0.33673 0.87473 0.0
H990 H 0.97552 0.36482 0.88555 0.0
H991 H 0.93796 0.37758 0.86844 0.0
H992 H 0.88284 0.43355 0.98904 0.0
H993 H 0.93277 0.46699 0.99271 0.0
H994 H 0.99017 0.39653 0.94556 0.0
C995 C 0.87913 0.32799 0.92164 0.0
C996 C 0.84524 0.32949 0.92438 0.0
C997 C 0.83113 0.35237 0.94674 0.0
C998 C 0.85038 0.37488 0.96302 0.0
C999 C 0.88378 0.37389 0.95758 0.0
C1000 C 0.89806 0.35051 0.9386 0.0
C1001 C 0.93459 0.35581 0.93486 0.0
C1002 C 0.94925 0.32975 0.96237 0.0
C1003 C 0.94902 0.35893 0.88812 0.0
C1004 C 0.93847 0.3865 0.95276 0.0
C1005 C 0.90886 0.39656 0.96571 0.0
C1006 C 0.9062 0.42559 0.97986 0.0
C1007 C 0.93457 0.4446 0.98135 0.0
C1008 C 0.96512 0.43428 0.96934 0.0
C1009 C 0.96702 0.40479 0.95519 0.0
H1010 H 0.66818 0.79659 0.83014 0.0
H1011 H 0.7619 0.82874 0.86448 0.0
H1012 H 0.73599 0.86387 0.90975 0.0
H1013 H 0.63603 0.86949 0.82119 0.0
H1014 H 0.59568 0.85554 0.84357 0.0
H1015 H 0.6209 0.83019 0.81722 0.0
H1016 H 0.61337 0.78945 0.88481 0.0
H1017 H 0.58782 0.81458 0.91123 0.0
H1018 H 0.62278 0.80103 0.93509 0.0
H1019 H 0.70089 0.89893 0.94654 0.0
H1020 H 0.65804 0.9299 0.97462 0.0
H1021 H 0.58702 0.87542 0.91702 0.0
C1022 C 0.68309 0.81048 0.848 0.0
C1023 C 0.71706 0.80982 0.84378 0.0
C1024 C 0.73583 0.82884 0.86708 0.0
C1025 C 0.72135 0.84889 0.89301 0.0
C1026 C 0.68798 0.84972 0.89557 0.0
C1027 C 0.66898 0.83086 0.87406 0.0
C1028 C 0.6338 0.83763 0.88072 0.0
C1029 C 0.62086 0.84888 0.83814 0.0
C1030 C 0.61323 0.80896 0.90438 0.0
C1031 C 0.63623 0.8636 0.90842 0.0
C1032 C 0.66768 0.8701 0.91682 0.0
C1033 C 0.6761 0.89391 0.94046 0.0
C1034 C 0.65167 0.91153 0.95603 0.0
C1035 C 0.61924 0.90519 0.94792 0.0
C1036 C 0.61157 0.88079 0.92394 0.0
H1037 H 0.81277 0.67534 0.19571 0.0
H1038 H 0.84892 0.76488 0.12569 0.0
H1039 H 0.8792 0.73821 0.07248 0.0
H1040 H 0.88688 0.63976 0.18169 0.0
H1041 H 0.86846 0.60178 0.17688 0.0
H1042 H 0.84688 0.62764 0.20716 0.0
H1043 H 0.79923 0.62295 0.16086 0.0
H1044 H 0.82085 0.59727 0.13015 0.0
H1045 H 0.80654 0.63218 0.10383 0.0
H1046 H 0.90675 0.70294 0.02859 0.0
H1047 H 0.93607 0.66137 1.00064 0.0
H1048 H 0.88519 0.59332 0.09961 0.0
C1049 C 0.82682 0.68925 0.16888 0.0
C1050 C 0.82832 0.72224 0.1646 0.0
C1051 C 0.84745 0.73966 0.1296 0.0
C1052 C 0.8645 0.7247 0.09904 0.0
C1053 C 0.86251 0.69224 0.10409 0.0
C1054 C 0.84459 0.67463 0.13838 0.0
C1055 C 0.84907 0.64012 0.138 0.0
C1056 C 0.8637 0.62653 0.17832 0.0
C1057 C 0.81701 0.62206 0.1329 0.0
C1058 C 0.87278 0.64118 0.0985 0.0
C1059 C 0.87953 0.67155 0.07915 0.0
C1060 C 0.90156 0.67909 0.04332 0.0
C1061 C 0.91809 0.65525 0.02768 0.0
C1062 C 0.91286 0.62412 0.04785 0.0
C1063 C 0.8892 0.6168 0.08308 0.0
H1064 H 0.35603 0.83549 0.22995 0.0
H1065 H 0.28591 0.85431 0.13922 0.0
H1066 H 0.32352 0.89645 0.0992 0.0
H1067 H 0.38947 0.91544 0.22922 0.0
H1068 H 0.43036 0.90469 0.23162 0.0
H1069 H 0.39704 0.8776 0.25494 0.0
H1070 H 0.41782 0.83625 0.20922 0.0
H1071 H 0.45126 0.86313 0.18595 0.0
H1072 H 0.42464 0.84589 0.1522 0.0
H1073 H 0.36949 0.93703 0.06852 0.0
H1074 H 0.42165 0.96743 0.04515 0.0
H1075 H 0.46295 0.92067 0.15382 0.0
C1076 C 0.3484 0.84878 0.20201 0.0
C1077 C 0.31771 0.84172 0.18813 0.0
C1078 C 0.30912 0.85926 0.15073 0.0
C1079 C 0.33032 0.8834 0.12783 0.0
C1080 C 0.36037 0.88973 0.1423 0.0
C1081 C 0.36956 0.87265 0.17828 0.0
C1082 C 0.4041 0.8826 0.18529 0.0
C1083 C 0.4053 0.89587 0.2278 0.0
C1084 C 0.42573 0.85535 0.18302 0.0
C1085 C 0.41292 0.90788 0.1477 0.0
C1086 C 0.38722 0.91198 0.12361 0.0
C1087 C 0.38976 0.93388 0.08715 0.0
C1088 C 0.41952 0.95129 0.07425 0.0
C1089 C 0.44663 0.94678 0.09759 0.0
C1090 C 0.44283 0.92497 0.1352 0.0
H1091 H 0.6602 0.19896 0.09327 0.0
H1092 H 0.72953 0.12977 0.1149 0.0
H1093 H 0.69283 0.09093 0.08842 0.0
H1094 H 0.59306 0.14655 0.13634 0.0
H1095 H 0.56597 0.16463 0.10147 0.0
H1096 H 0.59977 0.18737 0.11635 0.0
H1097 H 0.61689 0.20438 0.03815 0.0
H1098 H 0.58641 0.17956 0.01943 0.0
H1099 H 0.62875 0.17651 1.00387 0.0
H1100 H 0.64471 0.05797 0.0701 0.0
H1101 H 0.59197 0.03494 0.05476 0.0
H1102 H 0.55423 0.12603 0.04694 0.0
C1103 C 0.668 0.17575 0.092 0.0
C1104 C 0.69775 0.1674 0.10636 0.0
C1105 C 0.70708 0.13687 0.10356 0.0
C1106 C 0.68621 0.11457 0.08903 0.0
C1107 C 0.65615 0.12323 0.07774 0.0
C1108 C 0.64719 0.15317 0.07905 0.0
C1109 C 0.61266 0.15619 0.0692 0.0
C1110 C 0.59164 0.16414 0.10816 0.0
C1111 C 0.611 0.18054 0.03029 0.0
C1112 C 0.60373 0.12342 0.06049 0.0
C1113 C 0.62885 0.10454 0.06652 0.0
C1114 C 0.62511 0.07264 0.06455 0.0
C1115 C 0.595 0.05973 0.05606 0.0
C1116 C 0.56915 0.07877 0.0491 0.0
C1117 C 0.57376 0.11102 0.05123 0.0
H1118 H 0.66373 0.60824 0.78341 0.0
H1119 H 0.608 0.67443 0.71489 0.0
H1120 H 0.55824 0.64044 0.73848 0.0
H1121 H 0.60433 0.53343 0.77904 0.0
H1122 H 0.61196 0.51913 0.83249 0.0
H1123 H 0.64403 0.53995 0.79602 0.0
H1124 H 0.65374 0.57856 0.84996 0.0
H1125 H 0.6221 0.55831 0.88657 0.0
H1126 H 0.62065 0.59937 0.8696 0.0
H1127 H 0.51509 0.61081 0.78768 0.0
H1128 H 0.48358 0.588 0.85507 0.0
H1129 H 0.56686 0.54168 0.89431 0.0
C1130 C 0.64119 0.61436 0.7714 0.0
C1131 C 0.63931 0.64349 0.7474 0.0
C1132 C 0.60971 0.65178 0.73277 0.0
C1133 C 0.58138 0.63256 0.74606 0.0
C1134 C 0.5834 0.60512 0.77335 0.0
C1135 C 0.61284 0.59557 0.78496 0.0
C1136 C 0.60839 0.56939 0.82152 0.0
C1137 C 0.61774 0.53865 0.80632 0.0
C1138 C 0.62728 0.57692 0.85908 0.0
C1139 C 0.57236 0.56869 0.83245 0.0
C1140 C 0.55806 0.58818 0.80307 0.0
C1141 C 0.52579 0.59469 0.81005 0.0
C1142 C 0.50812 0.58184 0.8485 0.0
C1143 C 0.52315 0.56345 0.8797 0.0
C1144 C 0.55506 0.55577 0.87076 0.0
H1145 H 0.32674 0.72464 0.87058 0.0
H1146 H 0.33114 0.67511 0.75978 0.0
H1147 H 0.36487 0.63752 0.79522 0.0
H1148 H 0.40999 0.71228 0.89691 0.0
H1149 H 0.39868 0.70712 0.95352 0.0
H1150 H 0.37667 0.73184 0.91854 0.0
H1151 H 0.32334 0.69974 0.94913 0.0
H1152 H 0.34522 0.67491 0.98401 0.0
H1153 H 0.32007 0.65822 0.94811 0.0
H1154 H 0.39373 0.6031 0.84321 0.0
H1155 H 0.41848 0.5738 0.90145 0.0
H1156 H 0.39804 0.6451 0.98221 0.0
C1157 C 0.3352 0.70614 0.85356 0.0
C1158 C 0.32627 0.7029 0.81225 0.0
C1159 C 0.33762 0.67819 0.79128 0.0
C1160 C 0.35686 0.6567 0.81115 0.0
C1161 C 0.36479 0.66025 0.85194 0.0
C1162 C 0.35461 0.6844 0.87296 0.0
C1163 C 0.36582 0.68191 0.91741 0.0
C1164 C 0.38918 0.70996 0.92184 0.0
C1165 C 0.33688 0.67848 0.95168 0.0
C1166 C 0.38318 0.65215 0.91828 0.0
C1167 C 0.38226 0.64029 0.87994 0.0
C1168 C 0.39497 0.6123 0.87317 0.0
C1169 C 0.40887 0.59581 0.90646 0.0
C1170 C 0.4102 0.60732 0.94601 0.0
C1171 C 0.39757 0.63607 0.952 0.0
H1172 H 0.4277 0.34549 0.8305 0.0
H1173 H 0.36218 0.41436 0.79062 0.0
H1174 H 0.38513 0.44973 0.83729 0.0
H1175 H 0.4248 0.35568 0.93611 0.0
H1176 H 0.46697 0.35239 0.9428 0.0
H1177 H 0.44875 0.33347 0.90259 0.0
H1178 H 0.49126 0.36232 0.84416 0.0
H1179 H 0.5103 0.38058 0.8844 0.0
H1180 H 0.49758 0.40415 0.83913 0.0
H1181 H 0.40762 0.47292 0.896 0.0
H1182 H 0.43858 0.49043 0.95157 0.0
H1183 H 0.49422 0.40914 0.95072 0.0
C1184 C 0.41938 0.36863 0.83028 0.0
C1185 C 0.39374 0.37772 0.80649 0.0
C1186 C 0.3824 0.40755 0.80784 0.0
C1187 C 0.395 0.42753 0.83462 0.0
C1188 C 0.41924 0.41739 0.85917 0.0
C1189 C 0.43225 0.38919 0.85621 0.0
C1190 C 0.45801 0.38406 0.88673 0.0
C1191 C 0.44908 0.35465 0.91896 0.0
C1192 C 0.49126 0.38271 0.86214 0.0
C1193 C 0.45657 0.41331 0.90828 0.0
C1194 C 0.43367 0.43185 0.89207 0.0
C1195 C 0.42628 0.45911 0.90812 0.0
C1196 C 0.44396 0.4687 0.93998 0.0
C1197 C 0.46938 0.4515 0.95508 0.0
C1198 C 0.47512 0.42289 0.9398 0.0
H1199 H 0.67244 0.30076 0.84585 0.0
H1200 H 0.7063 0.36439 0.7324 0.0
H1201 H 0.67895 0.40678 0.76312 0.0
H1202 H 0.59241 0.33294 0.86289 0.0
H1203 H 0.59234 0.3261 0.91994 0.0
H1204 H 0.61264 0.30088 0.88717 0.0
H1205 H 0.66523 0.31207 0.92215 0.0
H1206 H 0.6454 0.33799 0.95417 0.0
H1207 H 0.68173 0.35173 0.92016 0.0
H1208 H 0.6548 0.44349 0.81131 0.0
H1209 H 0.62567 0.46959 0.86658 0.0
H1210 H 0.60324 0.38063 0.94524 0.0
C1211 C 0.67319 0.32342 0.82703 0.0
C1212 C 0.69107 0.32948 0.78672 0.0
C1213 C 0.69211 0.35935 0.76302 0.0
C1214 C 0.67699 0.38354 0.78042 0.0
C1215 C 0.66044 0.37709 0.82104 0.0
C1216 C 0.65757 0.3475 0.84344 0.0
C1217 C 0.63845 0.34658 0.8864 0.0
C1218 C 0.6071 0.32537 0.88925 0.0
C1219 C 0.65894 0.3365 0.92285 0.0
C1220 C 0.63159 0.38044 0.88516 0.0
C1221 C 0.64493 0.39779 0.84753 0.0
C1222 C 0.64365 0.43002 0.84046 0.0
C1223 C 0.62737 0.44468 0.8721 0.0
C1224 C 0.61209 0.42701 0.90974 0.0
C1225 C 0.61448 0.39456 0.91644 0.0
H1226 H 0.72238 0.37225 0.20022 0.0
H1227 H 0.66399 0.286 0.19943 0.0
H1228 H 0.62866 0.3133 0.15158 0.0
H1229 H 0.65533 0.42469 0.19424 0.0
H1230 H 0.67979 0.45483 0.15932 0.0
H1231 H 0.69832 0.42913 0.19725 0.0
H1232 H 0.7372 0.4145 0.13589 0.0
H1233 H 0.71834 0.43963 0.0977 0.0
H1234 H 0.72076 0.39908 0.09161 0.0
H1235 H 0.60202 0.34862 0.09983 0.0
H1236 H 0.58279 0.39118 0.05195 0.0
H1237 H 0.65892 0.45475 0.08407 0.0
C1238 C 0.70145 0.35951 0.19113 0.0
C1239 C 0.69541 0.32718 0.20415 0.0
C1240 C 0.66862 0.31089 0.19027 0.0
C1241 C 0.64855 0.32614 0.1629 0.0
C1242 C 0.65569 0.35776 0.14932 0.0
C1243 C 0.68122 0.37442 0.16325 0.0
C1244 C 0.68432 0.40791 0.14197 0.0
C1245 C 0.67912 0.43047 0.17517 0.0
C1246 C 0.7171 0.41572 0.11521 0.0
C1247 C 0.65675 0.40728 0.11386 0.0
C1248 C 0.64059 0.3781 0.11863 0.0
C1249 C 0.61434 0.37167 0.09601 0.0
C1250 C 0.60369 0.39597 0.06869 0.0
C1251 C 0.61928 0.42634 0.06407 0.0
C1252 C 0.64655 0.43178 0.08652 0.0
H1253 H 0.63269 0.70486 0.15243 0.0
H1254 H 0.62249 0.6352 0.26382 0.0
H1255 H 0.58162 0.60468 0.23098 0.0
H1256 H 0.54653 0.69505 0.12327 0.0
H1257 H 0.56043 0.70036 0.06736 0.0
H1258 H 0.5822 0.72031 0.10379 0.0
H1259 H 0.63456 0.69652 0.07754 0.0
H1260 H 0.61301 0.67618 0.0416 0.0
H1261 H 0.63499 0.6548 0.08028 0.0
H1262 H 0.55131 0.57723 0.18116 0.0
H1263 H 0.53202 0.55541 0.11933 0.0
H1264 H 0.56273 0.64217 0.03881 0.0
C1265 C 0.62111 0.68361 0.17043 0.0
C1266 C 0.63072 0.67226 0.21061 0.0
C1267 C 0.61517 0.64443 0.23326 0.0
C1268 C 0.592 0.62697 0.21477 0.0
C1269 C 0.58446 0.63796 0.17399 0.0
C1270 C 0.59822 0.66591 0.15232 0.0
C1271 C 0.58942 0.67061 0.10688 0.0
C1272 C 0.56838 0.69822 0.09993 0.0
C1273 C 0.6198 0.67475 0.07472 0.0
C1274 C 0.57016 0.64007 0.10548 0.0
C1275 C 0.56703 0.62188 0.14481 0.0
C1276 C 0.55306 0.59148 0.15052 0.0
C1277 C 0.54254 0.57918 0.1151 0.0
C1278 C 0.54622 0.59714 0.0744 0.0
C1279 C 0.55936 0.62821 0.06976 0.0
H1280 H 0.34229 0.73593 0.16964 0.0
H1281 H 0.32463 0.67617 0.29022 0.0
H1282 H 0.35871 0.63743 0.26109 0.0
H1283 H 0.33941 0.67857 0.1028 0.0
H1284 H 0.37174 0.6963 0.06423 0.0
H1285 H 0.34817 0.72023 0.09539 0.0
H1286 H 0.40005 0.74371 0.12237 0.0
H1287 H 0.4239 0.72032 0.09059 0.0
H1288 H 0.42731 0.7181 0.14694 0.0
H1289 H 0.38805 0.60253 0.21489 0.0
H1290 H 0.41884 0.57776 0.15958 0.0
H1291 H 0.42134 0.66268 0.07165 0.0
C1292 C 0.34628 0.71498 0.19016 0.0
C1293 C 0.3311 0.70884 0.2321 0.0
C1294 C 0.33653 0.68128 0.25818 0.0
C1295 C 0.35557 0.65914 0.24177 0.0
C1296 C 0.36943 0.66546 0.19969 0.0
C1297 C 0.36574 0.69312 0.17465 0.0
C1298 C 0.383 0.69433 0.13045 0.0
C1299 C 0.35915 0.69754 0.09622 0.0
C1300 C 0.41019 0.72068 0.12211 0.0
C1301 C 0.39637 0.66269 0.13409 0.0
C1302 C 0.38791 0.64619 0.17406 0.0
C1303 C 0.3954 0.61546 0.18384 0.0
C1304 C 0.41256 0.60152 0.15222 0.0
C1305 C 0.42248 0.61853 0.11179 0.0
C1306 C 0.41432 0.64945 0.10264 0.0
H1307 H 0.3695 0.42183 0.2139 0.0
H1308 H 0.42778 0.36001 0.28572 0.0
H1309 H 0.47431 0.39926 0.27029 0.0
H1310 H 0.4185 0.44058 0.13272 0.0
H1311 H 0.41207 0.48122 0.11998 0.0
H1312 H 0.38099 0.45556 0.15062 0.0
H1313 H 0.38016 0.4906 0.21095 0.0
H1314 H 0.41136 0.51674 0.17992 0.0
H1315 H 0.41702 0.50055 0.23344 0.0
H1316 H 0.51666 0.43452 0.22817 0.0
H1317 H 0.54974 0.46199 0.1648 0.0
H1318 H 0.46483 0.5027 0.12069 0.0
C1319 C 0.39172 0.4175 0.22801 0.0
C1320 C 0.39549 0.38833 0.25076 0.0
C1321 C 0.42466 0.38258 0.26851 0.0
C1322 C 0.45107 0.40482 0.26009 0.0
C1323 C 0.44747 0.43277 0.23471 0.0
C1324 C 0.41812 0.43953 0.21984 0.0
C1325 C 0.42183 0.46776 0.18635 0.0
C1326 C 0.40757 0.4608 0.14503 0.0
C1327 C 0.40671 0.49556 0.20373 0.0
C1328 C 0.45819 0.473 0.18035 0.0
C1329 C 0.47257 0.45373 0.20993 0.0
C1330 C 0.50578 0.45054 0.20585 0.0
C1331 C 0.52441 0.46609 0.16966 0.0
C1332 C 0.5095 0.48403 0.13791 0.0
C1333 C 0.47656 0.48899 0.14468 0.0
H1334 H 0.802 0.67626 0.67457 0.0
H1335 H 0.86687 0.76032 0.65284 0.0
H1336 H 0.90739 0.73279 0.61425 0.0
H1337 H 0.85975 0.6247 0.69637 0.0
H1338 H 0.84347 0.59377 0.66968 0.0
H1339 H 0.81719 0.62089 0.69005 0.0
H1340 H 0.79802 0.63459 0.61523 0.0
H1341 H 0.82413 0.60726 0.59468 0.0
H1342 H 0.82746 0.64724 0.57032 0.0
H1343 H 0.94381 0.69525 0.58803 0.0
H1344 H 0.97328 0.64983 0.57247 0.0
H1345 H 0.88545 0.58952 0.60722 0.0
C1346 C 0.82436 0.68907 0.6606 0.0
C1347 C 0.83116 0.72054 0.66672 0.0
C1348 C 0.86101 0.73627 0.64866 0.0
C1349 C 0.88421 0.72085 0.6265 0.0
C1350 C 0.87723 0.68968 0.62214 0.0
C1351 C 0.84793 0.67395 0.63814 0.0
C1352 C 0.84778 0.6398 0.63166 0.0
C1353 C 0.8417 0.61855 0.67449 0.0
C1354 C 0.82286 0.63176 0.60116 0.0
C1355 C 0.88202 0.63862 0.61134 0.0
C1356 C 0.89839 0.66781 0.60581 0.0
C1357 C 0.93109 0.6724 0.59133 0.0
C1358 C 0.94767 0.64648 0.58281 0.0
C1359 C 0.93154 0.61636 0.58832 0.0
C1360 C 0.89813 0.61246 0.6019 0.0
H1361 H 0.33447 0.85661 0.7265 0.0
H1362 H 0.34432 0.79331 0.63158 0.0
H1363 H 0.38906 0.82865 0.59192 0.0
H1364 H 0.34872 0.927 0.6527 0.0
H1365 H 0.37005 0.94797 0.6885 0.0
H1366 H 0.33974 0.91712 0.70947 0.0
H1367 H 0.38148 0.8897 0.75332 0.0
H1368 H 0.41206 0.92028 0.73218 0.0
H1369 H 0.41889 0.88035 0.72658 0.0
H1370 H 0.43403 0.87213 0.5624 0.0
H1371 H 0.47031 0.92036 0.54365 0.0
H1372 H 0.42948 0.95547 0.65696 0.0
C1373 C 0.34606 0.84999 0.69746 0.0
C1374 C 0.33577 0.82183 0.68249 0.0
C1375 C 0.3516 0.81455 0.64397 0.0
C1376 C 0.37721 0.83452 0.62124 0.0
C1377 C 0.38687 0.86193 0.63714 0.0
C1378 C 0.37147 0.86975 0.67425 0.0
C1379 C 0.38539 0.90106 0.68388 0.0
C1380 C 0.35943 0.92468 0.6836 0.0
C1381 C 0.40034 0.89762 0.72652 0.0
C1382 C 0.41119 0.90971 0.64659 0.0
C1383 C 0.41193 0.8868 0.62003 0.0
C1384 C 0.43361 0.89005 0.58323 0.0
C1385 C 0.4544 0.91755 0.5729 0.0
C1386 C 0.45318 0.94193 0.59876 0.0
C1387 C 0.43148 0.93737 0.6365 0.0
H1388 H 0.18773 0.3007 0.67377 0.0
H1389 H 0.28088 0.3471 0.62246 0.0
H1390 H 0.25407 0.38049 0.56975 0.0
H1391 H 0.11072 0.31288 0.59772 0.0
H1392 H 0.13732 0.28971 0.6277 0.0
H1393 H 0.14926 0.3048 0.57276 0.0
H1394 H 0.13543 0.32746 0.68472 0.0
H1395 H 0.10879 0.35064 0.65507 0.0
H1396 H 0.14607 0.36843 0.66875 0.0
H1397 H 0.21785 0.41095 0.527 0.0
H1398 H 0.17448 0.44086 0.50054 0.0
H1399 H 0.10296 0.37659 0.57976 0.0
C1400 C 0.20253 0.31747 0.65081 0.0
C1401 C 0.2365 0.32109 0.65175 0.0
C1402 C 0.25493 0.34386 0.62211 0.0
C1403 C 0.2399 0.36275 0.59193 0.0
C1404 C 0.2064 0.35874 0.59203 0.0
C1405 C 0.18783 0.33689 0.6209 0.0
C1406 C 0.15198 0.33965 0.61694 0.0
C1407 C 0.1364 0.30999 0.60295 0.0
C1408 C 0.13455 0.34699 0.65885 0.0
C1409 C 0.15327 0.36706 0.58201 0.0
C1410 C 0.18503 0.37712 0.5677 0.0
C1411 C 0.19293 0.40308 0.53757 0.0
C1412 C 0.16795 0.4199 0.52266 0.0
C1413 C 0.13516 0.41092 0.53762 0.0
C1414 C 0.12767 0.3836 0.56697 0.0
H1415 H 0.63712 0.19584 0.60816 0.0
H1416 H 0.73313 0.16209 0.60471 0.0
H1417 H 0.71185 0.11357 0.5819 0.0
H1418 H 0.59412 0.12245 0.6509 0.0
H1419 H 0.56043 0.12769 0.61968 0.0
H1420 H 0.583 0.16111 0.63375 0.0
H1421 H 0.59343 0.18361 0.55437 0.0
H1422 H 0.57142 0.15019 0.53938 0.0
H1423 H 0.61252 0.16082 0.51703 0.0
H1424 H 0.68118 0.06825 0.56118 0.0
H1425 H 0.64269 0.02881 0.54084 0.0
H1426 H 0.56474 0.08876 0.55971 0.0
C1427 C 0.65375 0.17833 0.60255 0.0
C1428 C 0.68715 0.18345 0.60783 0.0
C1429 C 0.70779 0.15963 0.59985 0.0
C1430 C 0.69582 0.13161 0.58733 0.0
C1431 C 0.66297 0.12727 0.58302 0.0
C1432 C 0.64212 0.14989 0.59015 0.0
C1433 C 0.60774 0.13878 0.58328 0.0
C1434 C 0.58498 0.13743 0.62435 0.0
C1435 C 0.59554 0.15959 0.54632 0.0
C1436 C 0.61261 0.10625 0.57172 0.0
C1437 C 0.6448 0.10039 0.57168 0.0
C1438 C 0.65591 0.07253 0.56121 0.0
C1439 C 0.63375 0.05019 0.54976 0.0
C1440 C 0.60059 0.05541 0.54911 0.0
C1441 C 0.58979 0.0838 0.56075 0.0
H1442 H 0.86844 0.37421 0.36051 0.0
H1443 H 0.77964 0.37818 0.4419 0.0
H1444 H 0.80701 0.41799 0.47814 0.0
H1445 H 0.92108 0.37927 0.44383 0.0
H1446 H 0.95297 0.40186 0.40905 0.0
H1447 H 0.92593 0.37488 0.38804 0.0
H1448 H 0.91157 0.41946 0.33252 0.0
H1449 H 0.93842 0.44659 0.35352 0.0
H1450 H 0.89666 0.45417 0.3504 0.0
H1451 H 0.84357 0.45737 0.50479 0.0
H1452 H 0.88759 0.49133 0.52432 0.0
H1453 H 0.95415 0.45917 0.42891 0.0
C1454 C 0.85466 0.38294 0.38636 0.0
C1455 C 0.82168 0.37282 0.39825 0.0
C1456 C 0.80466 0.38577 0.43159 0.0
C1457 C 0.82008 0.40827 0.45258 0.0
C1458 C 0.85257 0.41738 0.44013 0.0
C1459 C 0.86977 0.40491 0.40812 0.0
C1460 C 0.90479 0.41789 0.40188 0.0
C1461 C 0.92753 0.39192 0.41127 0.0
C1462 C 0.91335 0.43558 0.35691 0.0
C1463 C 0.9046 0.43983 0.43533 0.0
C1464 C 0.87411 0.43933 0.45665 0.0
C1465 C 0.86755 0.45789 0.48842 0.0
C1466 C 0.89288 0.47711 0.49927 0.0
C1467 C 0.92453 0.47792 0.47822 0.0
C1468 C 0.93036 0.45897 0.44575 0.0
H1469 H 0.66932 0.8105 0.31339 0.0
H1470 H 0.75996 0.83448 0.36287 0.0
H1471 H 0.73443 0.87449 0.40013 0.0
H1472 H 0.64802 0.88753 0.29184 0.0
H1473 H 0.60531 0.87902 0.30654 0.0
H1474 H 0.62927 0.84957 0.28767 0.0
H1475 H 0.61015 0.81196 0.35639 0.0
H1476 H 0.58579 0.84118 0.37527 0.0
H1477 H 0.61523 0.82443 0.40754 0.0
H1478 H 0.70098 0.91541 0.42633 0.0
H1479 H 0.66075 0.95271 0.44242 0.0
H1480 H 0.59113 0.90248 0.37746 0.0
C1481 C 0.68343 0.82353 0.33316 0.0
C1482 C 0.71655 0.81906 0.33569 0.0
C1483 C 0.73451 0.83733 0.36073 0.0
C1484 C 0.72024 0.86017 0.38199 0.0
C1485 C 0.68788 0.86473 0.37788 0.0
C1486 C 0.66955 0.84682 0.35438 0.0
C1487 C 0.63583 0.85798 0.35305 0.0
C1488 C 0.62923 0.86919 0.30705 0.0
C1489 C 0.61024 0.83236 0.37434 0.0
C1490 C 0.63824 0.88499 0.37913 0.0
C1491 C 0.66848 0.88843 0.39316 0.0
C1492 C 0.67701 0.91259 0.41613 0.0
C1493 C 0.65395 0.93363 0.42534 0.0
C1494 C 0.62253 0.93027 0.41215 0.0
C1495 C 0.61479 0.9056 0.38851 0.0
H1496 H 0.18545 0.69053 0.38871 0.0
H1497 H 0.19664 0.67516 0.25587 0.0
H1498 H 0.15545 0.63171 0.27065 0.0
H1499 H 0.17258 0.60722 0.43113 0.0
H1500 H 0.14205 0.61172 0.47312 0.0
H1501 H 0.1728 0.64285 0.45489 0.0
H1502 H 0.12955 0.68099 0.43968 0.0
H1503 H 0.09758 0.65081 0.45701 0.0
H1504 H 0.09947 0.67235 0.40466 0.0
H1505 H 0.11228 0.59064 0.29697 0.0
H1506 H 0.07238 0.55058 0.33609 0.0
H1507 H 0.08656 0.58879 0.4535 0.0
C1508 C 0.17953 0.67774 0.36296 0.0
C1509 C 0.1946 0.68694 0.32082 0.0
C1510 C 0.18563 0.66933 0.28827 0.0
C1511 C 0.16204 0.64434 0.29627 0.0
C1512 C 0.14713 0.6364 0.33734 0.0
C1513 C 0.15562 0.6521 0.37048 0.0
C1514 C 0.13531 0.63782 0.41162 0.0
C1515 C 0.15699 0.62412 0.44466 0.0
C1516 C 0.11426 0.66195 0.42932 0.0
C1517 C 0.11439 0.61202 0.39607 0.0
C1518 C 0.12173 0.61195 0.35294 0.0
C1519 C 0.10633 0.59042 0.33083 0.0
C1520 C 0.08348 0.56774 0.35338 0.0
C1521 C 0.07577 0.56642 0.39791 0.0
C1522 C 0.09125 0.58937 0.41937 0.0
H1523 H 0.29111 0.1677 0.34492 0.0
H1524 H 0.33498 0.25709 0.36642 0.0
H1525 H 0.37118 0.23061 0.41358 0.0
H1526 H 0.29839 0.12606 0.454 0.0
H1527 H 0.30778 0.09059 0.43315 0.0
H1528 H 0.28195 0.11656 0.40628 0.0
H1529 H 0.31985 0.11907 0.33655 0.0
H1530 H 0.34598 0.0935 0.36329 0.0
H1531 H 0.3621 0.13105 0.33638 0.0
H1532 H 0.40706 0.19484 0.45147 0.0
H1533 H 0.4384 0.15176 0.47966 0.0
H1534 H 0.37178 0.08565 0.43341 0.0
C1535 C 0.3076 0.1816 0.36073 0.0
C1536 C 0.31008 0.21441 0.35225 0.0
C1537 C 0.33262 0.23189 0.37254 0.0
C1538 C 0.35328 0.21708 0.39947 0.0
C1539 C 0.35116 0.18471 0.40598 0.0
C1540 C 0.32869 0.16712 0.3876 0.0
C1541 C 0.33326 0.13271 0.39714 0.0
C1542 C 0.30358 0.11546 0.42426 0.0
C1543 C 0.34075 0.11825 0.35588 0.0
C1544 C 0.36234 0.13387 0.42246 0.0
C1545 C 0.37211 0.16405 0.42762 0.0
C1546 C 0.39941 0.17104 0.44809 0.0
C1547 C 0.4172 0.14647 0.46375 0.0
C1548 C 0.40762 0.11537 0.45871 0.0
C1549 C 0.37967 0.10916 0.43805 0.0
H1550 H 0.68403 0.80005 0.66854 0.0
H1551 H 0.7785 0.84959 0.63508 0.0
H1552 H 0.75549 0.88601 0.58218 0.0
H1553 H 0.65486 0.81177 0.5606 0.0
H1554 H 0.61445 0.81759 0.58172 0.0
H1555 H 0.63894 0.79243 0.61241 0.0
H1556 H 0.63065 0.82467 0.67531 0.0
H1557 H 0.60618 0.84985 0.64491 0.0
H1558 H 0.64106 0.86609 0.66651 0.0
H1559 H 0.72244 0.91974 0.53965 0.0
H1560 H 0.68076 0.95148 0.51195 0.0
H1561 H 0.6061 0.88134 0.57184 0.0
C1562 C 0.69998 0.81815 0.64932 0.0
C1563 C 0.73314 0.8219 0.65552 0.0
C1564 C 0.7531 0.8463 0.63069 0.0
C1565 C 0.74028 0.86693 0.6004 0.0
C1566 C 0.70745 0.86287 0.59544 0.0
C1567 C 0.68746 0.83922 0.61924 0.0
C1568 C 0.65243 0.8422 0.61074 0.0
C1569 C 0.63941 0.81434 0.59013 0.0
C1570 C 0.63135 0.84593 0.6518 0.0
C1571 C 0.65577 0.87188 0.57951 0.0
C1572 C 0.68789 0.88292 0.57071 0.0
C1573 C 0.69729 0.9111 0.54567 0.0
C1574 C 0.67331 0.92898 0.53012 0.0
C1575 C 0.64015 0.9187 0.53929 0.0
C1576 C 0.63127 0.88938 0.56349 0.0
H1577 H 0.69223 0.17324 0.28803 0.0
H1578 H 0.67593 0.23633 0.38208 0.0
H1579 H 0.63234 0.19887 0.42047 0.0
H1580 H 0.60915 0.14488 0.2855 0.0
H1581 H 0.61883 0.1056 0.28011 0.0
H1582 H 0.64775 0.13782 0.25964 0.0
H1583 H 0.69048 0.11313 0.30468 0.0
H1584 H 0.6618 0.08075 0.32501 0.0
H1585 H 0.68098 0.10301 0.36132 0.0
H1586 H 0.58976 0.15335 0.44858 0.0
H1587 H 0.55685 0.10327 0.46738 0.0
H1588 H 0.60218 0.0698 0.35522 0.0
C1589 C 0.67947 0.17939 0.31661 0.0
C1590 C 0.68759 0.20804 0.33179 0.0
C1591 C 0.67029 0.21471 0.36964 0.0
C1592 C 0.64535 0.19355 0.39158 0.0
C1593 C 0.63792 0.16562 0.37551 0.0
C1594 C 0.65477 0.15848 0.33901 0.0
C1595 C 0.64321 0.12647 0.32908 0.0
C1596 C 0.62888 0.12885 0.28603 0.0
C1597 C 0.67075 0.10455 0.3301 0.0
C1598 C 0.61724 0.1165 0.36574 0.0
C1599 C 0.61427 0.13948 0.392 0.0
C1600 C 0.59207 0.13527 0.42821 0.0
C1601 C 0.57317 0.10669 0.43844 0.0
C1602 C 0.57646 0.08233 0.41273 0.0
C1603 C 0.59861 0.0878 0.37551 0.0
H1604 H 0.79394 0.6686 0.34757 0.0
H1605 H 0.83716 0.75953 0.36368 0.0
H1606 H 0.87478 0.73494 0.41021 0.0
H1607 H 0.80348 0.63019 0.45743 0.0
H1608 H 0.81301 0.59411 0.43839 0.0
H1609 H 0.78648 0.61896 0.41092 0.0
H1610 H 0.82356 0.61994 0.34077 0.0
H1611 H 0.8504 0.59552 0.36812 0.0
H1612 H 0.86576 0.63262 0.33907 0.0
H1613 H 0.91213 0.7008 0.44804 0.0
H1614 H 0.944 0.65877 0.47843 0.0
H1615 H 0.8767 0.59012 0.43859 0.0
C1616 C 0.81061 0.68325 0.36207 0.0
C1617 C 0.81248 0.71596 0.35217 0.0
C1618 C 0.83526 0.73439 0.37081 0.0
C1619 C 0.85677 0.72067 0.39738 0.0
C1620 C 0.85525 0.68837 0.40527 0.0
C1621 C 0.83252 0.66984 0.38867 0.0
C1622 C 0.83761 0.63568 0.3999 0.0
C1623 C 0.80841 0.61874 0.42836 0.0
C1624 C 0.84476 0.62004 0.35956 0.0
C1625 C 0.8671 0.63808 0.42432 0.0
C1626 C 0.87683 0.66866 0.42727 0.0
C1627 C 0.90451 0.67669 0.44645 0.0
C1628 C 0.92261 0.65275 0.46332 0.0
C1629 C 0.91283 0.62126 0.46094 0.0
C1630 C 0.88463 0.614 0.44131 0.0
H1631 H 0.31687 0.86344 0.444 0.0
H1632 H 0.39255 0.81302 0.38758 0.0
H1633 H 0.43368 0.84977 0.40918 0.0
H1634 H 0.35153 0.93752 0.41181 0.0
H1635 H 0.33985 0.95388 0.45978 0.0
H1636 H 0.31611 0.92116 0.44602 0.0
H1637 H 0.32292 0.88957 0.51891 0.0
H1638 H 0.3464 0.92241 0.53316 0.0
H1639 H 0.36291 0.885 0.53494 0.0
H1640 H 0.46625 0.89601 0.42693 0.0
H1641 H 0.48846 0.94602 0.44503 0.0
H1642 H 0.3924 0.96672 0.49263 0.0
C1643 C 0.34212 0.85969 0.43714 0.0
C1644 C 0.3514 0.83509 0.41425 0.0
C1645 C 0.38472 0.83119 0.4057 0.0
C1646 C 0.40832 0.85213 0.41765 0.0
C1647 C 0.39835 0.87665 0.43885 0.0
C1648 C 0.36605 0.8802 0.44939 0.0
C1649 C 0.36191 0.90949 0.47051 0.0
C1650 C 0.34112 0.93182 0.44552 0.0
C1651 C 0.34769 0.90111 0.51714 0.0
C1652 C 0.39675 0.92281 0.46783 0.0
C1653 C 0.41735 0.90322 0.44995 0.0
C1654 C 0.4504 0.91124 0.44167 0.0
C1655 C 0.46277 0.93992 0.45187 0.0
C1656 C 0.44229 0.9605 0.47043 0.0
C1657 C 0.4088 0.95151 0.47885 0.0
H1658 H 0.16637 0.29908 0.32866 0.0
H1659 H 0.25929 0.34345 0.34793 0.0
H1660 H 0.23178 0.38266 0.38457 0.0
H1661 H 0.12912 0.36795 0.3037 0.0
H1662 H 0.08991 0.35409 0.33034 0.0
H1663 H 0.11641 0.32698 0.31032 0.0
H1664 H 0.11281 0.29523 0.38533 0.0
H1665 H 0.08599 0.32209 0.40552 0.0
H1666 H 0.12247 0.31457 0.4301 0.0
H1667 H 0.19498 0.41978 0.41281 0.0
H1668 H 0.15092 0.45196 0.43255 0.0
H1669 H 0.08118 0.38417 0.39567 0.0
C1670 C 0.18086 0.31657 0.34161 0.0
C1671 C 0.21499 0.31806 0.33574 0.0
C1672 C 0.23313 0.34179 0.35216 0.0
C1673 C 0.21773 0.36415 0.37309 0.0
C1674 C 0.18411 0.36258 0.37735 0.0
C1675 C 0.16582 0.33934 0.36235 0.0
C1676 C 0.13009 0.34434 0.3686 0.0
C1677 C 0.11554 0.3486 0.32569 0.0
C1678 C 0.11176 0.31746 0.39922 0.0
C1679 C 0.13129 0.37435 0.38856 0.0
C1680 C 0.16271 0.38426 0.39362 0.0
C1681 C 0.17023 0.41201 0.40961 0.0
C1682 C 0.14499 0.43012 0.42085 0.0
C1683 C 0.11253 0.42042 0.41634 0.0
C1684 C 0.1057 0.39211 0.3999 0.0
H1685 H 0.30216 0.17718 0.67314 0.0
H1686 H 0.37653 0.25357 0.65901 0.0
H1687 H 0.41349 0.22249 0.61971 0.0
H1688 H 0.35249 0.11776 0.69437 0.0
H1689 H 0.33233 0.09018 0.66567 0.0
H1690 H 0.31021 0.11975 0.68741 0.0
H1691 H 0.2932 0.13861 0.61275 0.0
H1692 H 0.31528 0.10898 0.59074 0.0
H1693 H 0.32379 0.14925 0.56862 0.0
H1694 H 0.44413 0.18165 0.58929 0.0
H1695 H 0.46709 0.13337 0.57167 0.0
H1696 H 0.37333 0.08274 0.60416 0.0
C1697 C 0.32599 0.18767 0.661 0.0
C1698 C 0.33634 0.21802 0.669 0.0
C1699 C 0.36794 0.23054 0.65319 0.0
C1700 C 0.38908 0.21306 0.63066 0.0
C1701 C 0.37827 0.18311 0.62393 0.0
C1702 C 0.34744 0.1705 0.63851 0.0
C1703 C 0.34276 0.13684 0.63004 0.0
C1704 C 0.33394 0.11485 0.67186 0.0
C1705 C 0.31724 0.13322 0.59867 0.0
C1706 C 0.37619 0.13209 0.60988 0.0
C1707 C 0.39608 0.15932 0.60609 0.0
C1708 C 0.42865 0.16039 0.59146 0.0
C1709 C 0.44148 0.13285 0.58157 0.0
C1710 C 0.42188 0.10452 0.58606 0.0
C1711 C 0.3886 0.10427 0.5994 0.0
H1712 H 0.83681 0.33872 0.63191 0.0
H1713 H 0.8254 0.35745 0.76324 0.0
H1714 H 0.86983 0.39817 0.74783 0.0
H1715 H 0.92503 0.35128 0.61974 0.0
H1716 H 0.92795 0.37003 0.56559 0.0
H1717 H 0.8947 0.3418 0.58545 0.0
H1718 H 0.85345 0.38216 0.56524 0.0
H1719 H 0.88729 0.40905 0.54375 0.0
H1720 H 0.85764 0.42 0.58299 0.0
H1721 H 0.91529 0.43649 0.72061 0.0
H1722 H 0.95655 0.47461 0.6804 0.0
H1723 H 0.94138 0.43425 0.56487 0.0
C1724 C 0.84342 0.35173 0.65716 0.0
C1725 C 0.82722 0.34458 0.69898 0.0
C1726 C 0.83717 0.36206 0.73108 0.0
C1727 C 0.86261 0.38535 0.7227 0.0
C1728 C 0.87848 0.39135 0.68186 0.0
C1729 C 0.86928 0.37541 0.64932 0.0
C1730 C 0.89103 0.38713 0.60834 0.0
C1731 C 0.91085 0.36099 0.59394 0.0
C1732 C 0.8711 0.4004 0.57302 0.0
C1733 C 0.91291 0.4127 0.62287 0.0
C1734 C 0.90537 0.41407 0.66573 0.0
C1735 C 0.92145 0.43565 0.68702 0.0
C1736 C 0.94507 0.4572 0.66385 0.0
C1737 C 0.95275 0.45747 0.6195 0.0
C1738 C 0.93677 0.43432 0.5989 0.0
H1739 H 0.16133 0.67561 0.61008 0.0
H1740 H 0.25174 0.63075 0.6042 0.0
H1741 H 0.22533 0.58836 0.57208 0.0
H1742 H 0.11427 0.60489 0.64952 0.0
H1743 H 0.07954 0.61586 0.62294 0.0
H1744 H 0.10671 0.64537 0.63862 0.0
H1745 H 0.11352 0.67242 0.56198 0.0
H1746 H 0.08842 0.64257 0.54336 0.0
H1747 H 0.12935 0.65229 0.51958 0.0
H1748 H 0.18877 0.54968 0.54452 0.0
H1749 H 0.1445 0.51606 0.52503 0.0
H1750 H 0.07565 0.58147 0.56033 0.0
C1751 C 0.17586 0.6569 0.60264 0.0
C1752 C 0.20887 0.65677 0.61037 0.0
C1753 C 0.22673 0.63206 0.59816 0.0
C1754 C 0.2118 0.60758 0.58027 0.0
C1755 C 0.17889 0.60779 0.57561 0.0
C1756 C 0.16107 0.63163 0.58682 0.0
C1757 C 0.12543 0.62487 0.5826 0.0
C1758 C 0.10532 0.62261 0.62601 0.0
C1759 C 0.11344 0.64946 0.54991 0.0
C1760 C 0.126 0.5934 0.56684 0.0
C1761 C 0.15721 0.58428 0.56262 0.0
C1762 C 0.16424 0.55643 0.54803 0.0
C1763 C 0.13879 0.53738 0.53729 0.0
C1764 C 0.10649 0.54579 0.54206 0.0
C1765 C 0.1 0.57416 0.55725 0.0
loop_
_geom_bond_atom_site_label_1
_geom_bond_atom_site_label_2
_geom_bond_distance
_geom_bond_site_symmetry_2
_ccdc_geom_bond_type
C0 O16 1.251 . S
C0 O18 1.254 . S
N1 C2 1.333 . S
N1 C6 1.307 . S
N1 Zn7 2.020 . S
C2 N1 1.333 . S
C2 C3 1.379 . S
C2 H20 0.952 . S
C3 C2 1.379 . S
C3 C4 1.390 . S
C3 H30 0.949 . S
C4 C3 1.390 . S
C4 C5 1.357 . S
C5 C4 1.357 . S
C5 C6 1.370 . S
C5 H31 0.950 . S
C6 N1 1.307 . S
C6 C5 1.370 . S
C6 H24 0.948 . S
Zn7 N1 2.020 . S
Zn7 O16 2.039 . S
Zn7 O22 2.034 . S
Zn7 O26 2.025 . S
Zn7 O28 2.024 . S
C8 O27 1.246 . S
C8 O28 1.249 . S
N9 C10 1.307 . S
N9 C11 1.333 . S
N9 Zn15 2.020 . S
C10 N9 1.307 . S
C10 C14 1.370 . S
C10 H21 0.948 . S
C11 N9 1.333 . S
C11 C12 1.379 . S
C11 H19 0.952 . S
C12 C11 1.379 . S
C12 C13 1.390 . S
C12 H32 0.949 . S
C13 C12 1.390 . S
C13 C14 1.357 . S
C14 C10 1.370 . S
C14 C13 1.357 . S
C14 H33 0.950 . S
Zn15 N9 2.020 . S
Zn15 O18 2.025 . S
Zn15 O23 2.024 . S
Zn15 O25 2.039 . S
Zn15 O27 2.034 . S
O16 C0 1.251 . S
O16 Zn7 2.039 . S
C17 O22 1.246 . S
C17 O23 1.249 . S
O18 C0 1.254 . S
O18 Zn15 2.025 . S
H19 C11 0.952 . S
H20 C2 0.952 . S
H21 C10 0.948 . S
O22 Zn7 2.034 . S
O22 C17 1.246 . S
O23 Zn15 2.024 . S
O23 C17 1.249 . S
H24 C6 0.948 . S
O25 Zn15 2.039 . S
O25 C29 1.251 . S
O26 Zn7 2.025 . S
O26 C29 1.254 . S
O27 C8 1.246 . S
O27 Zn15 2.034 . S
O28 Zn7 2.024 . S
O28 C8 1.249 . S
C29 O25 1.251 . S
C29 O26 1.254 . S
H30 C3 0.949 . S
H31 C5 0.950 . S
H32 C12 0.949 . S
H33 C14 0.950 . S
C34 O50 1.251 . S
C34 O52 1.254 . S
N35 C36 1.333 . S
N35 C40 1.307 . S
N35 Zn41 2.020 . S
C36 N35 1.333 . S
C36 C37 1.379 . S
C36 H54 0.952 . S
C37 C36 1.379 . S
C37 C38 1.390 . S
C37 H64 0.949 . S
C38 C37 1.390 . S
C38 C39 1.357 . S
C39 C38 1.357 . S
C39 C40 1.370 . S
C39 H65 0.950 . S
C40 N35 1.307 . S
C40 C39 1.370 . S
C40 H58 0.948 . S
Zn41 N35 2.020 . S
Zn41 O50 2.039 . S
Zn41 O56 2.034 . S
Zn41 O60 2.025 . S
Zn41 O62 2.024 . S
C42 O61 1.246 . S
C42 O62 1.249 . S
N43 C44 1.307 . S
N43 C45 1.333 . S
N43 Zn49 2.020 . S
C44 N43 1.307 . S
C44 C48 1.370 . S
C44 H55 0.948 . S
C45 N43 1.333 . S
C45 C46 1.379 . S
C45 H53 0.952 . S
C46 C45 1.379 . S
C46 C47 1.390 . S
C46 H66 0.949 . S
C47 C46 1.390 . S
C47 C48 1.357 . S
C48 C44 1.370 . S
C48 C47 1.357 . S
C48 H67 0.950 . S
Zn49 N43 2.020 . S
Zn49 O52 2.025 . S
Zn49 O57 2.024 . S
Zn49 O59 2.039 . S
Zn49 O61 2.034 . S
O50 C34 1.251 . S
O50 Zn41 2.039 . S
C51 O56 1.246 . S
C51 O57 1.249 . S
O52 C34 1.254 . S
O52 Zn49 2.025 . S
H53 C45 0.952 . S
H54 C36 0.952 . S
H55 C44 0.948 . S
O56 Zn41 2.034 . S
O56 C51 1.246 . S
O57 Zn49 2.024 . S
O57 C51 1.249 . S
H58 C40 0.948 . S
O59 Zn49 2.039 . S
O59 C63 1.251 . S
O60 Zn41 2.025 . S
O60 C63 1.254 . S
O61 C42 1.246 . S
O61 Zn49 2.034 . S
O62 Zn41 2.024 . S
O62 C42 1.249 . S
C63 O59 1.251 . S
C63 O60 1.254 . S
H64 C37 0.949 . S
H65 C39 0.950 . S
H66 C46 0.949 . S
H67 C48 0.950 . S
C68 O84 1.251 . S
C68 O86 1.254 . S
N69 C70 1.333 . S
N69 C74 1.307 . S
N69 Zn75 2.020 . S
C70 N69 1.333 . S
C70 C71 1.379 . S
C70 H88 0.952 . S
C71 C70 1.379 . S
C71 C72 1.390 . S
C71 H98 0.949 . S
C72 C71 1.390 . S
C72 C73 1.357 . S
C73 C72 1.357 . S
C73 C74 1.370 . S
C73 H99 0.950 . S
C74 N69 1.307 . S
C74 C73 1.370 . S
C74 H92 0.948 . S
Zn75 N69 2.020 . S
Zn75 O84 2.039 . S
Zn75 O90 2.034 . S
Zn75 O94 2.025 . S
Zn75 O96 2.024 . S
C76 O95 1.246 . S
C76 O96 1.249 . S
N77 C78 1.307 . S
N77 C79 1.333 . S
N77 Zn83 2.020 . S
C78 N77 1.307 . S
C78 C82 1.370 . S
C78 H89 0.948 . S
C79 N77 1.333 . S
C79 C80 1.379 . S
C79 H87 0.952 . S
C80 C79 1.379 . S
C80 C81 1.390 . S
C80 H100 0.949 . S
C81 C80 1.390 . S
C81 C82 1.357 . S
C82 C78 1.370 . S
C82 C81 1.357 . S
C82 H101 0.950 . S
Zn83 N77 2.020 . S
Zn83 O86 2.025 . S
Zn83 O91 2.024 . S
Zn83 O93 2.039 . S
Zn83 O95 2.034 . S
O84 C68 1.251 . S
O84 Zn75 2.039 . S
C85 O90 1.246 . S
C85 O91 1.249 . S
O86 C68 1.254 . S
O86 Zn83 2.025 . S
H87 C79 0.952 . S
H88 C70 0.952 . S
H89 C78 0.948 . S
O90 Zn75 2.034 . S
O90 C85 1.246 . S
O91 Zn83 2.024 . S
O91 C85 1.249 . S
H92 C74 0.948 . S
O93 Zn83 2.039 . S
O93 C97 1.251 . S
O94 Zn75 2.025 . S
O94 C97 1.254 . S
O95 C76 1.246 . S
O95 Zn83 2.034 . S
O96 Zn75 2.024 . S
O96 C76 1.249 . S
C97 O93 1.251 . S
C97 O94 1.254 . S
H98 C71 0.949 . S
H99 C73 0.950 . S
H100 C80 0.949 . S
H101 C82 0.950 . S
C102 O118 1.251 . S
C102 O120 1.254 . S
N103 C104 1.333 . S
N103 C108 1.307 . S
N103 Zn109 2.020 . S
C104 N103 1.333 . S
C104 C105 1.379 . S
C104 H122 0.952 . S
C105 C104 1.379 . S
C105 C106 1.390 . S
C105 H132 0.949 . S
C106 C105 1.390 . S
C106 C107 1.357 . S
C107 C106 1.357 . S
C107 C108 1.370 . S
C107 H133 0.950 . S
C108 N103 1.307 . S
C108 C107 1.370 . S
C108 H126 0.948 . S
Zn109 N103 2.020 . S
Zn109 O118 2.039 . S
Zn109 O124 2.034 . S
Zn109 O128 2.025 . S
Zn109 O130 2.024 . S
C110 O129 1.246 . S
C110 O130 1.249 . S
N111 C112 1.307 . S
N111 C113 1.333 . S
N111 Zn117 2.020 . S
C112 N111 1.307 . S
C112 C116 1.370 . S
C112 H123 0.948 . S
C113 N111 1.333 . S
C113 C114 1.379 . S
C113 H121 0.952 . S
C114 C113 1.379 . S
C114 C115 1.390 . S
C114 H134 0.949 . S
C115 C114 1.390 . S
C115 C116 1.357 . S
C116 C112 1.370 . S
C116 C115 1.357 . S
C116 H135 0.950 . S
Zn117 N111 2.020 . S
Zn117 O120 2.025 . S
Zn117 O125 2.024 . S
Zn117 O127 2.039 . S
Zn117 O129 2.034 . S
O118 C102 1.251 . S
O118 Zn109 2.039 . S
C119 O124 1.246 . S
C119 O125 1.249 . S
O120 C102 1.254 . S
O120 Zn117 2.025 . S
H121 C113 0.952 . S
H122 C104 0.952 . S
H123 C112 0.948 . S
O124 Zn109 2.034 . S
O124 C119 1.246 . S
O125 Zn117 2.024 . S
O125 C119 1.249 . S
H126 C108 0.948 . S
O127 Zn117 2.039 . S
O127 C131 1.251 . S
O128 Zn109 2.025 . S
O128 C131 1.254 . S
O129 C110 1.246 . S
O129 Zn117 2.034 . S
O130 Zn109 2.024 . S
O130 C110 1.249 . S
C131 O127 1.251 . S
C131 O128 1.254 . S
H132 C105 0.949 . S
H133 C107 0.950 . S
H134 C114 0.949 . S
H135 C116 0.950 . S
C136 O152 1.251 . S
C136 O154 1.254 . S
N137 C138 1.333 . S
N137 C142 1.307 . S
N137 Zn143 2.020 . S
C138 N137 1.333 . S
C138 C139 1.379 . S
C138 H156 0.952 . S
C139 C138 1.379 . S
C139 C140 1.390 . S
C139 H166 0.949 . S
C140 C139 1.390 . S
C140 C141 1.357 . S
C141 C140 1.357 . S
C141 C142 1.370 . S
C141 H167 0.950 . S
C142 N137 1.307 . S
C142 C141 1.370 . S
C142 H160 0.948 . S
Zn143 N137 2.020 . S
Zn143 O152 2.039 . S
Zn143 O158 2.034 . S
Zn143 O162 2.025 . S
Zn143 O164 2.024 . S
C144 O163 1.246 . S
C144 O164 1.249 . S
N145 C146 1.307 . S
N145 C147 1.333 . S
N145 Zn151 2.020 . S
C146 N145 1.307 . S
C146 C150 1.370 . S
C146 H157 0.948 . S
C147 N145 1.333 . S
C147 C148 1.379 . S
C147 H155 0.952 . S
C148 C147 1.379 . S
C148 C149 1.390 . S
C148 H168 0.949 . S
C149 C148 1.390 . S
C149 C150 1.357 . S
C150 C146 1.370 . S
C150 C149 1.357 . S
C150 H169 0.950 . S
Zn151 N145 2.020 . S
Zn151 O154 2.025 . S
Zn151 O159 2.024 . S
Zn151 O161 2.039 . S
Zn151 O163 2.034 . S
O152 C136 1.251 . S
O152 Zn143 2.039 . S
C153 O158 1.246 . S
C153 O159 1.249 . S
O154 C136 1.254 . S
O154 Zn151 2.025 . S
H155 C147 0.952 . S
H156 C138 0.952 . S
H157 C146 0.948 . S
O158 Zn143 2.034 . S
O158 C153 1.246 . S
O159 Zn151 2.024 . S
O159 C153 1.249 . S
H160 C142 0.948 . S
O161 Zn151 2.039 . S
O161 C165 1.251 . S
O162 Zn143 2.025 . S
O162 C165 1.254 . S
O163 C144 1.246 . S
O163 Zn151 2.034 . S
O164 Zn143 2.024 . S
O164 C144 1.249 . S
C165 O161 1.251 . S
C165 O162 1.254 . S
H166 C139 0.949 . S
H167 C141 0.950 . S
H168 C148 0.949 . S
H169 C150 0.950 . S
C170 O186 1.251 . S
C170 O188 1.254 . S
N171 C172 1.333 . S
N171 C176 1.307 . S
N171 Zn177 2.020 . S
C172 N171 1.333 . S
C172 C173 1.379 . S
C172 H190 0.952 . S
C173 C172 1.379 . S
C173 C174 1.390 . S
C173 H200 0.949 . S
C174 C173 1.390 . S
C174 C175 1.357 . S
C175 C174 1.357 . S
C175 C176 1.370 . S
C175 H201 0.950 . S
C176 N171 1.307 . S
C176 C175 1.370 . S
C176 H194 0.948 . S
Zn177 N171 2.020 . S
Zn177 O186 2.039 . S
Zn177 O192 2.034 . S
Zn177 O196 2.025 . S
Zn177 O198 2.024 . S
C178 O197 1.246 . S
C178 O198 1.249 . S
N179 C180 1.307 . S
N179 C181 1.333 . S
N179 Zn185 2.020 . S
C180 N179 1.307 . S
C180 C184 1.370 . S
C180 H191 0.948 . S
C181 N179 1.333 . S
C181 C182 1.379 . S
C181 H189 0.952 . S
C182 C181 1.379 . S
C182 C183 1.390 . S
C182 H202 0.949 . S
C183 C182 1.390 . S
C183 C184 1.357 . S
C184 C180 1.370 . S
C184 C183 1.357 . S
C184 H203 0.950 . S
Zn185 N179 2.020 . S
Zn185 O188 2.025 . S
Zn185 O193 2.024 . S
Zn185 O195 2.039 . S
Zn185 O197 2.034 . S
O186 C170 1.251 . S
O186 Zn177 2.039 . S
C187 O192 1.246 . S
C187 O193 1.249 . S
O188 C170 1.254 . S
O188 Zn185 2.025 . S
H189 C181 0.952 . S
H190 C172 0.952 . S
H191 C180 0.948 . S
O192 Zn177 2.034 . S
O192 C187 1.246 . S
O193 Zn185 2.024 . S
O193 C187 1.249 . S
H194 C176 0.948 . S
O195 Zn185 2.039 . S
O195 C199 1.251 . S
O196 Zn177 2.025 . S
O196 C199 1.254 . S
O197 C178 1.246 . S
O197 Zn185 2.034 . S
O198 Zn177 2.024 . S
O198 C178 1.249 . S
C199 O195 1.251 . S
C199 O196 1.254 . S
H200 C173 0.949 . S
H201 C175 0.950 . S
H202 C182 0.949 . S
H203 C184 0.950 . S
C204 O220 1.251 . S
C204 O222 1.254 . S
N205 C206 1.333 . S
N205 C210 1.307 . S
N205 Zn211 2.020 . S
C206 N205 1.333 . S
C206 C207 1.379 . S
C206 H224 0.952 . S
C207 C206 1.379 . S
C207 C208 1.390 . S
C207 H234 0.949 . S
C208 C207 1.390 . S
C208 C209 1.357 . S
C209 C208 1.357 . S
C209 C210 1.370 . S
C209 H235 0.950 . S
C210 N205 1.307 . S
C210 C209 1.370 . S
C210 H228 0.948 . S
Zn211 N205 2.020 . S
Zn211 O220 2.039 . S
Zn211 O226 2.034 . S
Zn211 O230 2.025 . S
Zn211 O232 2.024 . S
C212 O231 1.246 . S
C212 O232 1.249 . S
N213 C214 1.307 . S
N213 C215 1.333 . S
N213 Zn219 2.020 . S
C214 N213 1.307 . S
C214 C218 1.370 . S
C214 H225 0.948 . S
C215 N213 1.333 . S
C215 C216 1.379 . S
C215 H223 0.952 . S
C216 C215 1.379 . S
C216 C217 1.390 . S
C216 H236 0.949 . S
C217 C216 1.390 . S
C217 C218 1.357 . S
C218 C214 1.370 . S
C218 C217 1.357 . S
C218 H237 0.950 . S
Zn219 N213 2.020 . S
Zn219 O222 2.025 . S
Zn219 O227 2.024 . S
Zn219 O229 2.039 . S
Zn219 O231 2.034 . S
O220 C204 1.251 . S
O220 Zn211 2.039 . S
C221 O226 1.246 . S
C221 O227 1.249 . S
O222 C204 1.254 . S
O222 Zn219 2.025 . S
H223 C215 0.952 . S
H224 C206 0.952 . S
H225 C214 0.948 . S
O226 Zn211 2.034 . S
O226 C221 1.246 . S
O227 Zn219 2.024 . S
O227 C221 1.249 . S
H228 C210 0.948 . S
O229 Zn219 2.039 . S
O229 C233 1.251 . S
O230 Zn211 2.025 . S
O230 C233 1.254 . S
O231 C212 1.246 . S
O231 Zn219 2.034 . S
O232 Zn211 2.024 . S
O232 C212 1.249 . S
C233 O229 1.251 . S
C233 O230 1.254 . S
H234 C207 0.949 . S
H235 C209 0.950 . S
H236 C216 0.949 . S
H237 C218 0.950 . S
C238 O254 1.251 . S
C238 O256 1.254 . S
N239 C240 1.333 . S
N239 C244 1.307 . S
N239 Zn245 2.020 . S
C240 N239 1.333 . S
C240 C241 1.379 . S
C240 H258 0.952 . S
C241 C240 1.379 . S
C241 C242 1.390 . S
C241 H268 0.949 . S
C242 C241 1.390 . S
C242 C243 1.357 . S
C243 C242 1.357 . S
C243 C244 1.370 . S
C243 H269 0.950 . S
C244 N239 1.307 . S
C244 C243 1.370 . S
C244 H262 0.948 . S
Zn245 N239 2.020 . S
Zn245 O254 2.039 . S
Zn245 O260 2.034 . S
Zn245 O264 2.025 . S
Zn245 O266 2.024 . S
C246 O265 1.246 . S
C246 O266 1.249 . S
N247 C248 1.307 . S
N247 C249 1.333 . S
N247 Zn253 2.020 . S
C248 N247 1.307 . S
C248 C252 1.370 . S
C248 H259 0.948 . S
C249 N247 1.333 . S
C249 C250 1.379 . S
C249 H257 0.952 . S
C250 C249 1.379 . S
C250 C251 1.390 . S
C250 H270 0.949 . S
C251 C250 1.390 . S
C251 C252 1.357 . S
C252 C248 1.370 . S
C252 C251 1.357 . S
C252 H271 0.950 . S
Zn253 N247 2.020 . S
Zn253 O256 2.025 . S
Zn253 O261 2.024 . S
Zn253 O263 2.039 . S
Zn253 O265 2.034 . S
O254 C238 1.251 . S
O254 Zn245 2.039 . S
C255 O260 1.246 . S
C255 O261 1.249 . S
O256 C238 1.254 . S
O256 Zn253 2.025 . S
H257 C249 0.952 . S
H258 C240 0.952 . S
H259 C248 0.948 . S
O260 Zn245 2.034 . S
O260 C255 1.246 . S
O261 Zn253 2.024 . S
O261 C255 1.249 . S
H262 C244 0.948 . S
O263 Zn253 2.039 . S
O263 C267 1.251 . S
O264 Zn245 2.025 . S
O264 C267 1.254 . S
O265 C246 1.246 . S
O265 Zn253 2.034 . S
O266 Zn245 2.024 . S
O266 C246 1.249 . S
C267 O263 1.251 . S
C267 O264 1.254 . S
H268 C241 0.949 . S
H269 C243 0.950 . S
H270 C250 0.949 . S
H271 C252 0.950 . S
Co272 O275 2.042 . S
Co272 O282 2.264 . S
Co272 O301 2.286 . S
Co272 O302 2.069 . S
Co272 O304 2.015 1_455 S
Co273 O275 2.122 . S
Co273 O281 2.073 . S
Co273 O282 2.327 . S
Co273 O283 1.976 1_455 S
Co274 O275 2.085 1_545 S
Co274 O277 2.089 1_455 S
Co274 O284 2.110 1_445 S
Co274 O285 2.145 . S
Co274 O289 2.112 . S
Co274 O303 2.142 1_445 S
O275 Co272 2.042 . S
O275 Co273 2.122 . S
O275 Co274 2.085 1_565 S
O275 H276 0.980 . S
H276 O275 0.980 . S
O277 Co274 2.089 1_655 S
O277 Co278 2.042 . S
O277 Co279 2.122 . S
O277 H280 0.980 . S
Co278 O277 2.042 . S
Co278 O286 2.286 . S
Co278 O287 2.069 . S
Co278 O288 2.015 1_655 S
Co278 O291 2.264 . S
Co279 O277 2.122 . S
Co279 O290 1.976 1_655 S
Co279 O291 2.327 . S
Co279 O292 2.073 . S
H280 O277 0.980 . S
O281 Co273 2.073 . S
O281 C296 1.245 . S
O282 Co272 2.264 . S
O282 Co273 2.327 . S
O282 C296 1.257 . S
O283 Co273 1.976 1_655 S
O283 C295 1.251 . S
O284 Co274 2.110 1_665 S
O284 C295 1.274 . S
O285 Co274 2.145 . S
O285 C298 1.246 . S
O286 Co278 2.286 . S
O286 C297 1.259 . S
O287 Co278 2.069 . S
O287 C297 1.289 . S
O288 Co278 2.015 1_455 S
O288 C298 1.257 . S
O289 Co274 2.112 . S
O289 C299 1.274 . S
O290 Co279 1.976 1_455 S
O290 C299 1.251 . S
O291 Co278 2.264 . S
O291 Co279 2.327 . S
O291 C300 1.257 . S
O292 Co279 2.073 . S
O292 C300 1.245 . S
C293 O301 1.259 . S
C293 O302 1.289 . S
C294 O303 1.246 . S
C294 O304 1.257 . S
C295 O283 1.251 . S
C295 O284 1.274 . S
C296 O281 1.245 . S
C296 O282 1.257 . S
C297 O286 1.259 . S
C297 O287 1.289 . S
C298 O285 1.246 . S
C298 O288 1.257 . S
C299 O289 1.274 . S
C299 O290 1.251 . S
C300 O291 1.257 . S
C300 O292 1.245 . S
O301 Co272 2.286 . S
O301 C293 1.259 . S
O302 Co272 2.069 . S
O302 C293 1.289 . S
O303 Co274 2.142 1_665 S
O303 C294 1.246 . S
O304 Co272 2.015 1_655 S
O304 C294 1.257 . S
Co305 O308 2.042 1_556 S
Co305 O315 2.264 1_556 S
Co305 O334 2.286 . S
Co305 O335 2.069 . S
Co305 O337 2.015 . S
Co306 O308 2.122 . S
Co306 O314 2.073 . S
Co306 O315 2.327 . S
Co306 O316 1.976 . S
Co307 O308 2.085 1_545 S
Co307 O310 2.089 1_554 S
Co307 O317 2.110 1_545 S
Co307 O318 2.145 . S
Co307 O322 2.112 1_554 S
Co307 O336 2.142 1_544 S
O308 Co305 2.042 1_554 S
O308 Co306 2.122 . S
O308 Co307 2.085 1_565 S
O308 H309 0.980 . S
H309 O308 0.980 . S
O310 Co307 2.089 1_556 S
O310 Co311 2.042 1_556 S
O310 Co312 2.122 . S
O310 H313 0.980 . S
Co311 O310 2.042 1_554 S
Co311 O319 2.286 . S
Co311 O320 2.069 . S
Co311 O321 2.015 . S
Co311 O324 2.264 1_554 S
Co312 O310 2.122 . S
Co312 O323 1.976 . S
Co312 O324 2.327 . S
Co312 O325 2.073 . S
H313 O310 0.980 . S
O314 Co306 2.073 . S
O314 C329 1.245 . S
O315 Co305 2.264 1_554 S
O315 Co306 2.327 . S
O315 C329 1.257 . S
O316 Co306 1.976 . S
O316 C328 1.251 . S
O317 Co307 2.110 1_565 S
O317 C328 1.274 . S
O318 Co307 2.145 . S
O318 C331 1.246 . S
O319 Co311 2.286 . S
O319 C330 1.259 . S
O320 Co311 2.069 . S
O320 C330 1.289 . S
O321 Co311 2.015 . S
O321 C331 1.257 . S
O322 Co307 2.112 1_556 S
O322 C332 1.274 . S
O323 Co312 1.976 . S
O323 C332 1.251 . S
O324 Co311 2.264 1_556 S
O324 Co312 2.327 . S
O324 C333 1.257 . S
O325 Co312 2.073 . S
O325 C333 1.245 . S
C326 O334 1.259 . S
C326 O335 1.289 . S
C327 O336 1.246 . S
C327 O337 1.257 . S
C328 O316 1.251 . S
C328 O317 1.274 . S
C329 O314 1.245 . S
C329 O315 1.257 . S
C330 O319 1.259 . S
C330 O320 1.289 . S
C331 O318 1.246 . S
C331 O321 1.257 . S
C332 O322 1.274 . S
C332 O323 1.251 . S
C333 O324 1.257 . S
C333 O325 1.245 . S
O334 Co305 2.286 . S
O334 C326 1.259 . S
O335 Co305 2.069 . S
O335 C326 1.289 . S
O336 Co307 2.142 1_566 S
O336 C327 1.246 . S
O337 Co305 2.015 . S
O337 C327 1.257 . S
Co338 O341 2.042 1_556 S
Co338 O348 2.264 1_556 S
Co338 O367 2.286 . S
Co338 O368 2.069 . S
Co338 O370 2.015 1_455 S
Co339 O341 2.122 . S
Co339 O347 2.073 . S
Co339 O348 2.327 . S
Co339 O349 1.976 1_455 S
Co340 O341 2.087 . S
Co340 O343 2.087 1_454 S
Co340 O350 2.111 1_455 S
Co340 O351 2.143 . S
Co340 O355 2.111 1_554 S
Co340 O369 2.143 1_454 S
O341 Co338 2.042 1_554 S
O341 Co339 2.122 . S
O341 Co340 2.087 . S
O341 H342 0.980 . S
H342 O341 0.980 . S
O343 Co340 2.087 1_656 S
O343 Co344 2.042 1_556 S
O343 Co345 2.122 . S
O343 H346 0.980 . S
Co344 O343 2.042 1_554 S
Co344 O352 2.286 . S
Co344 O353 2.069 . S
Co344 O354 2.015 1_655 S
Co344 O357 2.264 1_554 S
Co345 O343 2.122 . S
Co345 O356 1.976 1_655 S
Co345 O357 2.327 . S
Co345 O358 2.073 . S
H346 O343 0.980 . S
O347 Co339 2.073 . S
O347 C362 1.245 . S
O348 Co338 2.264 1_554 S
O348 Co339 2.327 . S
O348 C362 1.257 . S
O349 Co339 1.976 1_655 S
O349 C361 1.251 . S
O350 Co340 2.111 1_655 S
O350 C361 1.274 . S
O351 Co340 2.143 . S
O351 C364 1.246 . S
O352 Co344 2.286 . S
O352 C363 1.259 . S
O353 Co344 2.069 . S
O353 C363 1.289 . S
O354 Co344 2.015 1_455 S
O354 C364 1.257 . S
O355 Co340 2.111 1_556 S
O355 C365 1.274 . S
O356 Co345 1.976 1_455 S
O356 C365 1.251 . S
O357 Co344 2.264 1_556 S
O357 Co345 2.327 . S
O357 C366 1.257 . S
O358 Co345 2.073 . S
O358 C366 1.245 . S
C359 O367 1.259 . S
C359 O368 1.289 . S
C360 O369 1.246 . S
C360 O370 1.257 . S
C361 O349 1.251 . S
C361 O350 1.274 . S
C362 O347 1.245 . S
C362 O348 1.257 . S
C363 O352 1.259 . S
C363 O353 1.289 . S
C364 O351 1.246 . S
C364 O354 1.257 . S
C365 O355 1.274 . S
C365 O356 1.251 . S
C366 O357 1.257 . S
C366 O358 1.245 . S
O367 Co338 2.286 . S
O367 C359 1.259 . S
O368 Co338 2.069 . S
O368 C359 1.289 . S
O369 Co340 2.143 1_656 S
O369 C360 1.246 . S
O370 Co338 2.015 1_655 S
O370 C360 1.257 . S
Co371 O374 2.042 1_556 S
Co371 O381 2.264 1_556 S
Co371 O400 2.286 . S
Co371 O401 2.069 . S
Co371 O403 2.015 . S
Co372 O374 2.122 . S
Co372 O380 2.073 . S
Co372 O381 2.327 . S
Co372 O382 1.976 . S
Co373 O374 2.087 . S
Co373 O376 2.087 1_554 S
Co373 O383 2.111 . S
Co373 O384 2.143 . S
Co373 O388 2.111 1_554 S
Co373 O402 2.143 1_554 S
O374 Co371 2.042 1_554 S
O374 Co372 2.122 . S
O374 Co373 2.087 . S
O374 H375 0.980 . S
H375 O374 0.980 . S
O376 Co373 2.087 1_556 S
O376 Co377 2.042 1_556 S
O376 Co378 2.122 . S
O376 H379 0.980 . S
Co377 O376 2.042 1_554 S
Co377 O385 2.286 . S
Co377 O386 2.069 . S
Co377 O387 2.015 . S
Co377 O390 2.264 1_554 S
Co378 O376 2.122 . S
Co378 O389 1.976 . S
Co378 O390 2.327 . S
Co378 O391 2.073 . S
H379 O376 0.980 . S
O380 Co372 2.073 . S
O380 C395 1.245 . S
O381 Co371 2.264 1_554 S
O381 Co372 2.327 . S
O381 C395 1.257 . S
O382 Co372 1.976 . S
O382 C394 1.251 . S
O383 Co373 2.111 . S
O383 C394 1.274 . S
O384 Co373 2.143 . S
O384 C397 1.246 . S
O385 Co377 2.286 . S
O385 C396 1.259 . S
O386 Co377 2.069 . S
O386 C396 1.289 . S
O387 Co377 2.015 . S
O387 C397 1.257 . S
O388 Co373 2.111 1_556 S
O388 C398 1.274 . S
O389 Co378 1.976 . S
O389 C398 1.251 . S
O390 Co377 2.264 1_556 S
O390 Co378 2.327 . S
O390 C399 1.257 . S
O391 Co378 2.073 . S
O391 C399 1.245 . S
C392 O400 1.259 . S
C392 O401 1.289 . S
C393 O402 1.246 . S
C393 O403 1.257 . S
C394 O382 1.251 . S
C394 O383 1.274 . S
C395 O380 1.245 . S
C395 O381 1.257 . S
C396 O385 1.259 . S
C396 O386 1.289 . S
C397 O384 1.246 . S
C397 O387 1.257 . S
C398 O388 1.274 . S
C398 O389 1.251 . S
C399 O390 1.257 . S
C399 O391 1.245 . S
O400 Co371 2.286 . S
O400 C392 1.259 . S
O401 Co371 2.069 . S
O401 C392 1.289 . S
O402 Co373 2.143 1_556 S
O402 C393 1.246 . S
O403 Co371 2.015 . S
O403 C393 1.257 . S
Co404 O407 2.042 . S
Co404 O414 2.264 . S
Co404 O433 2.286 . S
Co404 O434 2.069 . S
Co404 O436 2.015 . S
Co405 O407 2.122 . S
Co405 O413 2.073 . S
Co405 O414 2.327 . S
Co405 O415 1.976 . S
Co406 O407 2.087 . S
Co406 O409 2.087 1_455 S
Co406 O416 2.111 . S
Co406 O417 2.143 1_455 S
Co406 O421 2.111 1_455 S
Co406 O435 2.143 . S
O407 Co404 2.042 . S
O407 Co405 2.122 . S
O407 Co406 2.087 . S
O407 H408 0.980 . S
H408 O407 0.980 . S
O409 Co406 2.087 1_655 S
O409 Co410 2.042 . S
O409 Co411 2.122 . S
O409 H412 0.980 . S
Co410 O409 2.042 . S
Co410 O418 2.286 . S
Co410 O419 2.069 . S
Co410 O420 2.015 . S
Co410 O423 2.264 . S
Co411 O409 2.122 . S
Co411 O422 1.976 . S
Co411 O423 2.327 . S
Co411 O424 2.073 . S
H412 O409 0.980 . S
O413 Co405 2.073 . S
O413 C428 1.245 . S
O414 Co404 2.264 . S
O414 Co405 2.327 . S
O414 C428 1.257 . S
O415 Co405 1.976 . S
O415 C427 1.251 . S
O416 Co406 2.111 . S
O416 C427 1.274 . S
O417 Co406 2.143 1_655 S
O417 C430 1.246 . S
O418 Co410 2.286 . S
O418 C429 1.259 . S
O419 Co410 2.069 . S
O419 C429 1.289 . S
O420 Co410 2.015 . S
O420 C430 1.257 . S
O421 Co406 2.111 1_655 S
O421 C431 1.274 . S
O422 Co411 1.976 . S
O422 C431 1.251 . S
O423 Co410 2.264 . S
O423 Co411 2.327 . S
O423 C432 1.257 . S
O424 Co411 2.073 . S
O424 C432 1.245 . S
C425 O433 1.259 . S
C425 O434 1.289 . S
C426 O435 1.246 . S
C426 O436 1.257 . S
C427 O415 1.251 . S
C427 O416 1.274 . S
C428 O413 1.245 . S
C428 O414 1.257 . S
C429 O418 1.259 . S
C429 O419 1.289 . S
C430 O417 1.246 . S
C430 O420 1.257 . S
C431 O421 1.274 . S
C431 O422 1.251 . S
C432 O423 1.257 . S
C432 O424 1.245 . S
O433 Co404 2.286 . S
O433 C425 1.259 . S
O434 Co404 2.069 . S
O434 C425 1.289 . S
O435 Co406 2.143 . S
O435 C426 1.246 . S
O436 Co404 2.015 . S
O436 C426 1.257 . S
Co437 O440 2.042 . S
Co437 O447 2.264 . S
Co437 O466 2.286 . S
Co437 O467 2.069 . S
Co437 O469 2.015 1_565 S
Co438 O440 2.122 . S
Co438 O446 2.073 . S
Co438 O447 2.327 . S
Co438 O448 1.976 1_565 S
Co439 O440 2.085 1_545 S
Co439 O442 2.089 . S
Co439 O449 2.113 . S
Co439 O450 2.142 1_545 S
Co439 O454 2.110 1_545 S
Co439 O468 2.145 . S
O440 Co437 2.042 . S
O440 Co438 2.122 . S
O440 Co439 2.085 1_565 S
O440 H441 0.980 . S
H441 O440 0.980 . S
O442 Co439 2.089 . S
O442 Co443 2.042 . S
O442 Co444 2.122 . S
O442 H445 0.980 . S
Co443 O442 2.042 . S
Co443 O451 2.286 . S
Co443 O452 2.069 . S
Co443 O453 2.015 1_545 S
Co443 O456 2.264 . S
Co444 O442 2.122 . S
Co444 O455 1.976 1_545 S
Co444 O456 2.327 . S
Co444 O457 2.073 . S
H445 O442 0.980 . S
O446 Co438 2.073 . S
O446 C461 1.245 . S
O447 Co437 2.264 . S
O447 Co438 2.327 . S
O447 C461 1.257 . S
O448 Co438 1.976 1_545 S
O448 C460 1.251 . S
O449 Co439 2.113 . S
O449 C460 1.274 . S
O450 Co439 2.142 1_565 S
O450 C463 1.246 . S
O451 Co443 2.286 . S
O451 C462 1.259 . S
O452 Co443 2.069 . S
O452 C462 1.289 . S
O453 Co443 2.015 1_565 S
O453 C463 1.257 . S
O454 Co439 2.110 1_565 S
O454 C464 1.274 . S
O455 Co444 1.976 1_565 S
O455 C464 1.251 . S
O456 Co443 2.264 . S
O456 Co444 2.327 . S
O456 C465 1.257 . S
O457 Co444 2.073 . S
O457 C465 1.245 . S
C458 O466 1.259 . S
C458 O467 1.289 . S
C459 O468 1.246 . S
C459 O469 1.257 . S
C460 O448 1.251 . S
C460 O449 1.274 . S
C461 O446 1.245 . S
C461 O447 1.257 . S
C462 O451 1.259 . S
C462 O452 1.289 . S
C463 O450 1.246 . S
C463 O453 1.257 . S
C464 O454 1.274 . S
C464 O455 1.251 . S
C465 O456 1.257 . S
C465 O457 1.245 . S
O466 Co437 2.286 . S
O466 C458 1.259 . S
O467 Co437 2.069 . S
O467 C458 1.289 . S
O468 Co439 2.145 . S
O468 C459 1.246 . S
O469 Co437 2.015 1_545 S
O469 C459 1.257 . S
H470 C482 0.930 . S
H471 C484 0.930 . S
H472 C485 0.930 . S
H473 C489 0.959 . S
H474 C489 0.959 . S
H475 C489 0.961 . S
H476 C490 0.960 . S
H477 C490 0.961 . S
H478 C490 0.959 . S
H479 C493 0.929 . S
H480 C494 0.931 . S
H481 C496 0.930 . S
C482 H470 0.930 . S
C482 C483 1.399 . S
C482 C487 1.399 . S
C483 C482 1.399 . S
C483 C484 1.376 . S
C484 H471 0.930 . S
C484 C483 1.376 . S
C484 C485 1.388 . S
C485 H472 0.930 . S
C485 C484 1.388 . S
C485 C486 1.390 . S
C486 C485 1.390 . S
C486 C487 1.394 . S
C486 C492 1.465 . S
C487 C482 1.399 . S
C487 C486 1.394 . S
C487 C488 1.516 . S
C488 C487 1.516 . S
C488 C489 1.502 . S
C488 C490 1.561 . S
C488 C491 1.526 . S
C489 H473 0.959 . S
C489 H474 0.959 . S
C489 H475 0.961 . S
C489 C488 1.502 . S
C490 H476 0.960 . S
C490 H477 0.961 . S
C490 H478 0.959 . S
C490 C488 1.561 . S
C491 C488 1.526 . S
C491 C492 1.396 . S
C491 C496 1.390 . S
C492 C486 1.465 . S
C492 C491 1.396 . S
C492 C493 1.399 . S
C493 H479 0.929 . S
C493 C492 1.399 . S
C493 C494 1.385 . S
C494 H480 0.931 . S
C494 C493 1.385 . S
C494 C495 1.389 . S
C495 C494 1.389 . S
C495 C496 1.387 . S
C496 H481 0.930 . S
C496 C491 1.390 . S
C496 C495 1.387 . S
H497 C509 0.930 . S
H498 C511 0.930 . S
H499 C512 0.930 . S
H500 C516 0.959 . S
H501 C516 0.959 . S
H502 C516 0.961 . S
H503 C517 0.960 . S
H504 C517 0.961 . S
H505 C517 0.959 . S
H506 C520 0.929 . S
H507 C521 0.931 . S
H508 C523 0.930 . S
C509 H497 0.930 . S
C509 C510 1.399 . S
C509 C514 1.399 . S
C510 C509 1.399 . S
C510 C511 1.376 . S
C511 H498 0.930 . S
C511 C510 1.376 . S
C511 C512 1.388 . S
C512 H499 0.930 . S
C512 C511 1.388 . S
C512 C513 1.390 . S
C513 C512 1.390 . S
C513 C514 1.394 . S
C513 C519 1.465 . S
C514 C509 1.399 . S
C514 C513 1.394 . S
C514 C515 1.516 . S
C515 C514 1.516 . S
C515 C516 1.502 . S
C515 C517 1.561 . S
C515 C518 1.526 . S
C516 H500 0.959 . S
C516 H501 0.959 . S
C516 H502 0.961 . S
C516 C515 1.502 . S
C517 H503 0.960 . S
C517 H504 0.961 . S
C517 H505 0.959 . S
C517 C515 1.561 . S
C518 C515 1.526 . S
C518 C519 1.396 . S
C518 C523 1.390 . S
C519 C513 1.465 . S
C519 C518 1.396 . S
C519 C520 1.399 . S
C520 H506 0.929 . S
C520 C519 1.399 . S
C520 C521 1.385 . S
C521 H507 0.931 . S
C521 C520 1.385 . S
C521 C522 1.389 . S
C522 C521 1.389 . S
C522 C523 1.387 . S
C523 H508 0.930 . S
C523 C518 1.390 . S
C523 C522 1.387 . S
H524 C536 0.930 . S
H525 C538 0.930 . S
H526 C539 0.930 . S
H527 C543 0.959 . S
H528 C543 0.959 . S
H529 C543 0.961 . S
H530 C544 0.960 . S
H531 C544 0.961 . S
H532 C544 0.959 . S
H533 C547 0.929 . S
H534 C548 0.931 . S
H535 C550 0.930 . S
C536 H524 0.930 . S
C536 C537 1.399 . S
C536 C541 1.399 . S
C537 C536 1.399 . S
C537 C538 1.376 . S
C538 H525 0.930 . S
C538 C537 1.376 . S
C538 C539 1.388 . S
C539 H526 0.930 . S
C539 C538 1.388 . S
C539 C540 1.390 . S
C540 C539 1.390 . S
C540 C541 1.394 . S
C540 C546 1.465 . S
C541 C536 1.399 . S
C541 C540 1.394 . S
C541 C542 1.516 . S
C542 C541 1.516 . S
C542 C543 1.502 . S
C542 C544 1.561 . S
C542 C545 1.526 . S
C543 H527 0.959 . S
C543 H528 0.959 . S
C543 H529 0.961 . S
C543 C542 1.502 . S
C544 H530 0.960 . S
C544 H531 0.961 . S
C544 H532 0.959 . S
C544 C542 1.561 . S
C545 C542 1.526 . S
C545 C546 1.396 . S
C545 C550 1.390 . S
C546 C540 1.465 . S
C546 C545 1.396 . S
C546 C547 1.399 . S
C547 H533 0.929 . S
C547 C546 1.399 . S
C547 C548 1.385 . S
C548 H534 0.931 . S
C548 C547 1.385 . S
C548 C549 1.389 . S
C549 C548 1.389 . S
C549 C550 1.387 . S
C550 H535 0.930 . S
C550 C545 1.390 . S
C550 C549 1.387 . S
H551 C563 0.930 . S
H552 C565 0.930 . S
H553 C566 0.930 . S
H554 C570 0.959 . S
H555 C570 0.959 . S
H556 C570 0.961 . S
H557 C571 0.960 . S
H558 C571 0.961 . S
H559 C571 0.959 . S
H560 C574 0.929 . S
H561 C575 0.931 . S
H562 C577 0.930 . S
C563 H551 0.930 . S
C563 C564 1.399 . S
C563 C568 1.399 . S
C564 C563 1.399 . S
C564 C565 1.376 . S
C565 H552 0.930 . S
C565 C564 1.376 . S
C565 C566 1.388 . S
C566 H553 0.930 . S
C566 C565 1.388 . S
C566 C567 1.390 . S
C567 C566 1.390 . S
C567 C568 1.394 . S
C567 C573 1.465 . S
C568 C563 1.399 . S
C568 C567 1.394 . S
C568 C569 1.516 . S
C569 C568 1.516 . S
C569 C570 1.502 . S
C569 C571 1.561 . S
C569 C572 1.526 . S
C570 H554 0.959 . S
C570 H555 0.959 . S
C570 H556 0.961 . S
C570 C569 1.502 . S
C571 H557 0.960 . S
C571 H558 0.961 . S
C571 H559 0.959 . S
C571 C569 1.561 . S
C572 C569 1.526 . S
C572 C573 1.396 . S
C572 C577 1.390 . S
C573 C567 1.465 . S
C573 C572 1.396 . S
C573 C574 1.399 . S
C574 H560 0.929 . S
C574 C573 1.399 . S
C574 C575 1.385 . S
C575 H561 0.931 . S
C575 C574 1.385 . S
C575 C576 1.389 . S
C576 C575 1.389 . S
C576 C577 1.387 . S
C577 H562 0.930 . S
C577 C572 1.390 . S
C577 C576 1.387 . S
H578 C590 0.930 . S
H579 C592 0.930 . S
H580 C593 0.930 . S
H581 C597 0.959 . S
H582 C597 0.959 . S
H583 C597 0.961 . S
H584 C598 0.960 . S
H585 C598 0.961 . S
H586 C598 0.959 . S
H587 C601 0.929 . S
H588 C602 0.931 . S
H589 C604 0.930 . S
C590 H578 0.930 . S
C590 C591 1.399 . S
C590 C595 1.399 . S
C591 C590 1.399 . S
C591 C592 1.376 . S
C592 H579 0.930 . S
C592 C591 1.376 . S
C592 C593 1.388 . S
C593 H580 0.930 . S
C593 C592 1.388 . S
C593 C594 1.390 . S
C594 C593 1.390 . S
C594 C595 1.394 . S
C594 C600 1.465 . S
C595 C590 1.399 . S
C595 C594 1.394 . S
C595 C596 1.516 . S
C596 C595 1.516 . S
C596 C597 1.502 . S
C596 C598 1.561 . S
C596 C599 1.526 . S
C597 H581 0.959 . S
C597 H582 0.959 . S
C597 H583 0.961 . S
C597 C596 1.502 . S
C598 H584 0.960 . S
C598 H585 0.961 . S
C598 H586 0.959 . S
C598 C596 1.561 . S
C599 C596 1.526 . S
C599 C600 1.396 . S
C599 C604 1.390 . S
C600 C594 1.465 . S
C600 C599 1.396 . S
C600 C601 1.399 . S
C601 H587 0.929 . S
C601 C600 1.399 . S
C601 C602 1.385 . S
C602 H588 0.931 . S
C602 C601 1.385 . S
C602 C603 1.389 . S
C603 C602 1.389 . S
C603 C604 1.387 . S
C604 H589 0.930 . S
C604 C599 1.390 . S
C604 C603 1.387 . S
H605 C617 0.930 . S
H606 C619 0.930 . S
H607 C620 0.930 . S
H608 C624 0.959 . S
H609 C624 0.959 . S
H610 C624 0.961 . S
H611 C625 0.960 . S
H612 C625 0.961 . S
H613 C625 0.959 . S
H614 C628 0.929 . S
H615 C629 0.931 . S
H616 C631 0.930 . S
C617 H605 0.930 . S
C617 C618 1.399 . S
C617 C622 1.399 . S
C618 C617 1.399 . S
C618 C619 1.376 . S
C619 H606 0.930 . S
C619 C618 1.376 . S
C619 C620 1.388 . S
C620 H607 0.930 . S
C620 C619 1.388 . S
C620 C621 1.390 . S
C621 C620 1.390 . S
C621 C622 1.394 . S
C621 C627 1.465 . S
C622 C617 1.399 . S
C622 C621 1.394 . S
C622 C623 1.516 . S
C623 C622 1.516 . S
C623 C624 1.502 . S
C623 C625 1.561 . S
C623 C626 1.526 . S
C624 H608 0.959 . S
C624 H609 0.959 . S
C624 H610 0.961 . S
C624 C623 1.502 . S
C625 H611 0.960 . S
C625 H612 0.961 . S
C625 H613 0.959 . S
C625 C623 1.561 . S
C626 C623 1.526 . S
C626 C627 1.396 . S
C626 C631 1.390 . S
C627 C621 1.465 . S
C627 C626 1.396 . S
C627 C628 1.399 . S
C628 H614 0.929 . S
C628 C627 1.399 . S
C628 C629 1.385 . S
C629 H615 0.931 . S
C629 C628 1.385 . S
C629 C630 1.389 . S
C630 C629 1.389 . S
C630 C631 1.387 . S
C631 H616 0.930 . S
C631 C626 1.390 . S
C631 C630 1.387 . S
H632 C644 0.930 . S
H633 C646 0.930 . S
H634 C647 0.930 . S
H635 C651 0.959 . S
H636 C651 0.959 . S
H637 C651 0.961 . S
H638 C652 0.960 . S
H639 C652 0.961 . S
H640 C652 0.959 . S
H641 C655 0.929 . S
H642 C656 0.931 . S
H643 C658 0.930 . S
C644 H632 0.930 . S
C644 C645 1.399 . S
C644 C649 1.399 . S
C645 C644 1.399 . S
C645 C646 1.376 . S
C646 H633 0.930 . S
C646 C645 1.376 . S
C646 C647 1.388 . S
C647 H634 0.930 . S
C647 C646 1.388 . S
C647 C648 1.390 . S
C648 C647 1.390 . S
C648 C649 1.394 . S
C648 C654 1.465 . S
C649 C644 1.399 . S
C649 C648 1.394 . S
C649 C650 1.516 . S
C650 C649 1.516 . S
C650 C651 1.502 . S
C650 C652 1.561 . S
C650 C653 1.526 . S
C651 H635 0.959 . S
C651 H636 0.959 . S
C651 H637 0.961 . S
C651 C650 1.502 . S
C652 H638 0.960 . S
C652 H639 0.961 . S
C652 H640 0.959 . S
C652 C650 1.561 . S
C653 C650 1.526 . S
C653 C654 1.396 . S
C653 C658 1.390 . S
C654 C648 1.465 . S
C654 C653 1.396 . S
C654 C655 1.399 . S
C655 H641 0.929 . S
C655 C654 1.399 . S
C655 C656 1.385 . S
C656 H642 0.931 . S
C656 C655 1.385 . S
C656 C657 1.389 . S
C657 C656 1.389 . S
C657 C658 1.387 . S
C658 H643 0.930 . S
C658 C653 1.390 . S
C658 C657 1.387 . S
H659 C671 0.930 . S
H660 C673 0.930 . S
H661 C674 0.930 . S
H662 C678 0.959 . S
H663 C678 0.959 . S
H664 C678 0.961 . S
H665 C679 0.960 . S
H666 C679 0.961 . S
H667 C679 0.959 . S
H668 C682 0.929 . S
H669 C683 0.931 . S
H670 C685 0.930 . S
C671 H659 0.930 . S
C671 C672 1.399 . S
C671 C676 1.399 . S
C672 C671 1.399 . S
C672 C673 1.376 . S
C673 H660 0.930 . S
C673 C672 1.376 . S
C673 C674 1.388 . S
C674 H661 0.930 . S
C674 C673 1.388 . S
C674 C675 1.390 . S
C675 C674 1.390 . S
C675 C676 1.394 . S
C675 C681 1.465 . S
C676 C671 1.399 . S
C676 C675 1.394 . S
C676 C677 1.516 . S
C677 C676 1.516 . S
C677 C678 1.502 . S
C677 C679 1.561 . S
C677 C680 1.526 . S
C678 H662 0.959 . S
C678 H663 0.959 . S
C678 H664 0.961 . S
C678 C677 1.502 . S
C679 H665 0.960 . S
C679 H666 0.961 . S
C679 H667 0.959 . S
C679 C677 1.561 . S
C680 C677 1.526 . S
C680 C681 1.396 . S
C680 C685 1.390 . S
C681 C675 1.465 . S
C681 C680 1.396 . S
C681 C682 1.399 . S
C682 H668 0.929 . S
C682 C681 1.399 . S
C682 C683 1.385 . S
C683 H669 0.931 . S
C683 C682 1.385 . S
C683 C684 1.389 . S
C684 C683 1.389 . S
C684 C685 1.387 . S
C685 H670 0.930 . S
C685 C680 1.390 . S
C685 C684 1.387 . S
H686 C698 0.930 . S
H687 C700 0.930 . S
H688 C701 0.930 . S
H689 C705 0.959 . S
H690 C705 0.959 . S
H691 C705 0.961 . S
H692 C706 0.960 . S
H693 C706 0.961 . S
H694 C706 0.959 . S
H695 C709 0.929 . S
H696 C710 0.931 . S
H697 C712 0.930 . S
C698 H686 0.930 . S
C698 C699 1.399 . S
C698 C703 1.399 . S
C699 C698 1.399 . S
C699 C700 1.376 . S
C700 H687 0.930 . S
C700 C699 1.376 . S
C700 C701 1.388 . S
C701 H688 0.930 . S
C701 C700 1.388 . S
C701 C702 1.390 . S
C702 C701 1.390 . S
C702 C703 1.394 . S
C702 C708 1.465 . S
C703 C698 1.399 . S
C703 C702 1.394 . S
C703 C704 1.516 . S
C704 C703 1.516 . S
C704 C705 1.502 . S
C704 C706 1.561 . S
C704 C707 1.526 . S
C705 H689 0.959 . S
C705 H690 0.959 . S
C705 H691 0.961 . S
C705 C704 1.502 . S
C706 H692 0.960 . S
C706 H693 0.961 . S
C706 H694 0.959 . S
C706 C704 1.561 . S
C707 C704 1.526 . S
C707 C708 1.396 . S
C707 C712 1.390 . S
C708 C702 1.465 . S
C708 C707 1.396 . S
C708 C709 1.399 . S
C709 H695 0.929 . S
C709 C708 1.399 . S
C709 C710 1.385 . S
C710 H696 0.931 . S
C710 C709 1.385 . S
C710 C711 1.389 . S
C711 C710 1.389 . S
C711 C712 1.387 . S
C712 H697 0.930 . S
C712 C707 1.390 . S
C712 C711 1.387 . S
H713 C725 0.930 . S
H714 C727 0.930 . S
H715 C728 0.930 . S
H716 C732 0.959 . S
H717 C732 0.959 . S
H718 C732 0.961 . S
H719 C733 0.960 . S
H720 C733 0.961 . S
H721 C733 0.959 . S
H722 C736 0.929 . S
H723 C737 0.931 . S
H724 C739 0.930 . S
C725 H713 0.930 . S
C725 C726 1.399 . S
C725 C730 1.399 . S
C726 C725 1.399 . S
C726 C727 1.376 . S
C727 H714 0.930 . S
C727 C726 1.376 . S
C727 C728 1.388 . S
C728 H715 0.930 . S
C728 C727 1.388 . S
C728 C729 1.390 . S
C729 C728 1.390 . S
C729 C730 1.394 . S
C729 C735 1.465 . S
C730 C725 1.399 . S
C730 C729 1.394 . S
C730 C731 1.516 . S
C731 C730 1.516 . S
C731 C732 1.502 . S
C731 C733 1.561 . S
C731 C734 1.526 . S
C732 H716 0.959 . S
C732 H717 0.959 . S
C732 H718 0.961 . S
C732 C731 1.502 . S
C733 H719 0.960 . S
C733 H720 0.961 . S
C733 H721 0.959 . S
C733 C731 1.561 . S
C734 C731 1.526 . S
C734 C735 1.396 . S
C734 C739 1.390 . S
C735 C729 1.465 . S
C735 C734 1.396 . S
C735 C736 1.399 . S
C736 H722 0.929 . S
C736 C735 1.399 . S
C736 C737 1.385 . S
C737 H723 0.931 . S
C737 C736 1.385 . S
C737 C738 1.389 . S
C738 C737 1.389 . S
C738 C739 1.387 . S
C739 H724 0.930 . S
C739 C734 1.390 . S
C739 C738 1.387 . S
H740 C752 0.930 . S
H741 C754 0.930 . S
H742 C755 0.930 . S
H743 C759 0.959 . S
H744 C759 0.959 . S
H745 C759 0.961 . S
H746 C760 0.960 . S
H747 C760 0.961 . S
H748 C760 0.959 . S
H749 C763 0.929 . S
H750 C764 0.931 . S
H751 C766 0.930 . S
C752 H740 0.930 . S
C752 C753 1.399 . S
C752 C757 1.399 . S
C753 C752 1.399 . S
C753 C754 1.376 . S
C754 H741 0.930 . S
C754 C753 1.376 . S
C754 C755 1.388 . S
C755 H742 0.930 . S
C755 C754 1.388 . S
C755 C756 1.390 . S
C756 C755 1.390 . S
C756 C757 1.394 . S
C756 C762 1.465 . S
C757 C752 1.399 . S
C757 C756 1.394 . S
C757 C758 1.516 . S
C758 C757 1.516 . S
C758 C759 1.502 . S
C758 C760 1.561 . S
C758 C761 1.526 . S
C759 H743 0.959 . S
C759 H744 0.959 . S
C759 H745 0.961 . S
C759 C758 1.502 . S
C760 H746 0.960 . S
C760 H747 0.961 . S
C760 H748 0.959 . S
C760 C758 1.561 . S
C761 C758 1.526 . S
C761 C762 1.396 . S
C761 C766 1.390 . S
C762 C756 1.465 . S
C762 C761 1.396 . S
C762 C763 1.399 . S
C763 H749 0.929 . S
C763 C762 1.399 . S
C763 C764 1.385 . S
C764 H750 0.931 . S
C764 C763 1.385 . S
C764 C765 1.389 . S
C765 C764 1.389 . S
C765 C766 1.387 . S
C766 H751 0.930 . S
C766 C761 1.390 . S
C766 C765 1.387 . S
H767 C779 0.930 . S
H768 C781 0.930 . S
H769 C782 0.930 1_556 S
H770 C786 0.959 . S
H771 C786 0.959 . S
H772 C786 0.961 . S
H773 C787 0.960 . S
H774 C787 0.961 . S
H775 C787 0.959 . S
H776 C790 0.929 1_556 S
H777 C791 0.931 1_556 S
H778 C793 0.930 . S
C779 H767 0.930 . S
C779 C780 1.399 . S
C779 C784 1.399 . S
C780 C779 1.399 . S
C780 C781 1.376 . S
C781 H768 0.930 . S
C781 C780 1.376 . S
C781 C782 1.388 . S
C782 H769 0.930 1_554 S
C782 C781 1.388 . S
C782 C783 1.390 . S
C783 C782 1.390 . S
C783 C784 1.394 . S
C783 C789 1.465 . S
C784 C779 1.399 . S
C784 C783 1.394 . S
C784 C785 1.516 . S
C785 C784 1.516 . S
C785 C786 1.502 . S
C785 C787 1.561 . S
C785 C788 1.526 . S
C786 H770 0.959 . S
C786 H771 0.959 . S
C786 H772 0.961 . S
C786 C785 1.502 . S
C787 H773 0.960 . S
C787 H774 0.961 . S
C787 H775 0.959 . S
C787 C785 1.561 . S
C788 C785 1.526 . S
C788 C789 1.396 . S
C788 C793 1.390 . S
C789 C783 1.465 . S
C789 C788 1.396 . S
C789 C790 1.399 . S
C790 H776 0.929 1_554 S
C790 C789 1.399 . S
C790 C791 1.385 . S
C791 H777 0.931 1_554 S
C791 C790 1.385 . S
C791 C792 1.389 . S
C792 C791 1.389 . S
C792 C793 1.387 . S
C793 H778 0.930 . S
C793 C788 1.390 . S
C793 C792 1.387 . S
H794 C806 0.930 . S
H795 C808 0.930 . S
H796 C809 0.930 . S
H797 C813 0.959 . S
H798 C813 0.959 1_554 S
H799 C813 0.961 1_554 S
H800 C814 0.960 . S
H801 C814 0.961 . S
H802 C814 0.959 . S
H803 C817 0.929 . S
H804 C818 0.931 . S
H805 C820 0.930 . S
C806 H794 0.930 . S
C806 C807 1.399 . S
C806 C811 1.399 . S
C807 C806 1.399 . S
C807 C808 1.376 . S
C808 H795 0.930 . S
C808 C807 1.376 . S
C808 C809 1.388 . S
C809 H796 0.930 . S
C809 C808 1.388 . S
C809 C810 1.390 . S
C810 C809 1.390 . S
C810 C811 1.394 . S
C810 C816 1.465 . S
C811 C806 1.399 . S
C811 C810 1.394 . S
C811 C812 1.516 . S
C812 C811 1.516 . S
C812 C813 1.502 . S
C812 C814 1.561 . S
C812 C815 1.526 . S
C813 H797 0.959 . S
C813 H798 0.959 1_556 S
C813 H799 0.961 1_556 S
C813 C812 1.502 . S
C814 H800 0.960 . S
C814 H801 0.961 . S
C814 H802 0.959 . S
C814 C812 1.561 . S
C815 C812 1.526 . S
C815 C816 1.396 . S
C815 C820 1.390 . S
C816 C810 1.465 . S
C816 C815 1.396 . S
C816 C817 1.399 . S
C817 H803 0.929 . S
C817 C816 1.399 . S
C817 C818 1.385 . S
C818 H804 0.931 . S
C818 C817 1.385 . S
C818 C819 1.389 . S
C819 C818 1.389 . S
C819 C820 1.387 . S
C820 H805 0.930 . S
C820 C815 1.390 . S
C820 C819 1.387 . S
H821 C833 0.930 . S
H822 C835 0.930 . S
H823 C836 0.930 . S
H824 C840 0.959 . S
H825 C840 0.959 . S
H826 C840 0.961 . S
H827 C841 0.960 . S
H828 C841 0.961 . S
H829 C841 0.959 . S
H830 C844 0.929 . S
H831 C845 0.931 . S
H832 C847 0.930 . S
C833 H821 0.930 . S
C833 C834 1.399 . S
C833 C838 1.399 . S
C834 C833 1.399 . S
C834 C835 1.376 . S
C835 H822 0.930 . S
C835 C834 1.376 . S
C835 C836 1.388 . S
C836 H823 0.930 . S
C836 C835 1.388 . S
C836 C837 1.390 . S
C837 C836 1.390 . S
C837 C838 1.394 . S
C837 C843 1.465 . S
C838 C833 1.399 . S
C838 C837 1.394 . S
C838 C839 1.516 . S
C839 C838 1.516 . S
C839 C840 1.502 . S
C839 C841 1.561 . S
C839 C842 1.526 . S
C840 H824 0.959 . S
C840 H825 0.959 . S
C840 H826 0.961 . S
C840 C839 1.502 . S
C841 H827 0.960 . S
C841 H828 0.961 . S
C841 H829 0.959 . S
C841 C839 1.561 . S
C842 C839 1.526 . S
C842 C843 1.396 . S
C842 C847 1.390 . S
C843 C837 1.465 . S
C843 C842 1.396 . S
C843 C844 1.399 . S
C844 H830 0.929 . S
C844 C843 1.399 . S
C844 C845 1.385 . S
C845 H831 0.931 . S
C845 C844 1.385 . S
C845 C846 1.389 . S
C846 C845 1.389 . S
C846 C847 1.387 . S
C847 H832 0.930 . S
C847 C842 1.390 . S
C847 C846 1.387 . S
H848 C860 0.930 . S
H849 C862 0.930 . S
H850 C863 0.930 . S
H851 C867 0.959 . S
H852 C867 0.959 . S
H853 C867 0.961 . S
H854 C868 0.960 . S
H855 C868 0.961 . S
H856 C868 0.959 . S
H857 C871 0.929 . S
H858 C872 0.931 . S
H859 C874 0.930 . S
C860 H848 0.930 . S
C860 C861 1.399 . S
C860 C865 1.399 . S
C861 C860 1.399 . S
C861 C862 1.376 . S
C862 H849 0.930 . S
C862 C861 1.376 . S
C862 C863 1.388 . S
C863 H850 0.930 . S
C863 C862 1.388 . S
C863 C864 1.390 . S
C864 C863 1.390 . S
C864 C865 1.394 . S
C864 C870 1.465 . S
C865 C860 1.399 . S
C865 C864 1.394 . S
C865 C866 1.516 . S
C866 C865 1.516 . S
C866 C867 1.502 . S
C866 C868 1.561 . S
C866 C869 1.526 . S
C867 H851 0.959 . S
C867 H852 0.959 . S
C867 H853 0.961 . S
C867 C866 1.502 . S
C868 H854 0.960 . S
C868 H855 0.961 . S
C868 H856 0.959 . S
C868 C866 1.561 . S
C869 C866 1.526 . S
C869 C870 1.396 . S
C869 C874 1.390 . S
C870 C864 1.465 . S
C870 C869 1.396 . S
C870 C871 1.399 . S
C871 H857 0.929 . S
C871 C870 1.399 . S
C871 C872 1.385 . S
C872 H858 0.931 . S
C872 C871 1.385 . S
C872 C873 1.389 . S
C873 C872 1.389 . S
C873 C874 1.387 . S
C874 H859 0.930 . S
C874 C869 1.390 . S
C874 C873 1.387 . S
H875 C887 0.930 . S
H876 C889 0.930 . S
H877 C890 0.930 . S
H878 C894 0.959 . S
H879 C894 0.959 . S
H880 C894 0.961 . S
H881 C895 0.960 . S
H882 C895 0.961 . S
H883 C895 0.959 . S
H884 C898 0.929 . S
H885 C899 0.931 . S
H886 C901 0.930 . S
C887 H875 0.930 . S
C887 C888 1.399 . S
C887 C892 1.399 . S
C888 C887 1.399 . S
C888 C889 1.376 . S
C889 H876 0.930 . S
C889 C888 1.376 . S
C889 C890 1.388 . S
C890 H877 0.930 . S
C890 C889 1.388 . S
C890 C891 1.390 . S
C891 C890 1.390 . S
C891 C892 1.394 . S
C891 C897 1.465 . S
C892 C887 1.399 . S
C892 C891 1.394 . S
C892 C893 1.516 . S
C893 C892 1.516 . S
C893 C894 1.502 . S
C893 C895 1.561 . S
C893 C896 1.526 . S
C894 H878 0.959 . S
C894 H879 0.959 . S
C894 H880 0.961 . S
C894 C893 1.502 . S
C895 H881 0.960 . S
C895 H882 0.961 . S
C895 H883 0.959 . S
C895 C893 1.561 . S
C896 C893 1.526 . S
C896 C897 1.396 . S
C896 C901 1.390 . S
C897 C891 1.465 . S
C897 C896 1.396 . S
C897 C898 1.399 . S
C898 H884 0.929 . S
C898 C897 1.399 . S
C898 C899 1.385 . S
C899 H885 0.931 . S
C899 C898 1.385 . S
C899 C900 1.389 . S
C900 C899 1.389 . S
C900 C901 1.387 . S
C901 H886 0.930 . S
C901 C896 1.390 . S
C901 C900 1.387 . S
H902 C914 0.930 . S
H903 C916 0.930 . S
H904 C917 0.930 . S
H905 C921 0.959 . S
H906 C921 0.959 . S
H907 C921 0.961 . S
H908 C922 0.960 . S
H909 C922 0.961 . S
H910 C922 0.959 . S
H911 C925 0.929 . S
H912 C926 0.931 . S
H913 C928 0.930 . S
C914 H902 0.930 . S
C914 C915 1.399 . S
C914 C919 1.399 . S
C915 C914 1.399 . S
C915 C916 1.376 . S
C916 H903 0.930 . S
C916 C915 1.376 . S
C916 C917 1.388 . S
C917 H904 0.930 . S
C917 C916 1.388 . S
C917 C918 1.390 . S
C918 C917 1.390 . S
C918 C919 1.394 . S
C918 C924 1.465 . S
C919 C914 1.399 . S
C919 C918 1.394 . S
C919 C920 1.516 . S
C920 C919 1.516 . S
C920 C921 1.502 . S
C920 C922 1.561 . S
C920 C923 1.526 . S
C921 H905 0.959 . S
C921 H906 0.959 . S
C921 H907 0.961 . S
C921 C920 1.502 . S
C922 H908 0.960 . S
C922 H909 0.961 . S
C922 H910 0.959 . S
C922 C920 1.561 . S
C923 C920 1.526 . S
C923 C924 1.396 . S
C923 C928 1.390 . S
C924 C918 1.465 . S
C924 C923 1.396 . S
C924 C925 1.399 . S
C925 H911 0.929 . S
C925 C924 1.399 . S
C925 C926 1.385 . S
C926 H912 0.931 . S
C926 C925 1.385 . S
C926 C927 1.389 . S
C927 C926 1.389 . S
C927 C928 1.387 . S
C928 H913 0.930 . S
C928 C923 1.390 . S
C928 C927 1.387 . S
H929 C941 0.930 . S
H930 C943 0.930 . S
H931 C944 0.930 . S
H932 C948 0.959 . S
H933 C948 0.959 . S
H934 C948 0.961 . S
H935 C949 0.960 . S
H936 C949 0.961 . S
H937 C949 0.959 . S
H938 C952 0.929 . S
H939 C953 0.931 . S
H940 C955 0.930 . S
C941 H929 0.930 . S
C941 C942 1.399 . S
C941 C946 1.399 . S
C942 C941 1.399 . S
C942 C943 1.376 . S
C943 H930 0.930 . S
C943 C942 1.376 . S
C943 C944 1.388 . S
C944 H931 0.930 . S
C944 C943 1.388 . S
C944 C945 1.390 . S
C945 C944 1.390 . S
C945 C946 1.394 . S
C945 C951 1.465 . S
C946 C941 1.399 . S
C946 C945 1.394 . S
C946 C947 1.516 . S
C947 C946 1.516 . S
C947 C948 1.502 . S
C947 C949 1.561 . S
C947 C950 1.526 . S
C948 H932 0.959 . S
C948 H933 0.959 . S
C948 H934 0.961 . S
C948 C947 1.502 . S
C949 H935 0.960 . S
C949 H936 0.961 . S
C949 H937 0.959 . S
C949 C947 1.561 . S
C950 C947 1.526 . S
C950 C951 1.396 . S
C950 C955 1.390 . S
C951 C945 1.465 . S
C951 C950 1.396 . S
C951 C952 1.399 . S
C952 H938 0.929 . S
C952 C951 1.399 . S
C952 C953 1.385 . S
C953 H939 0.931 . S
C953 C952 1.385 . S
C953 C954 1.389 . S
C954 C953 1.389 . S
C954 C955 1.387 . S
C955 H940 0.930 . S
C955 C950 1.390 . S
C955 C954 1.387 . S
H956 C968 0.930 . S
H957 C970 0.930 . S
H958 C971 0.930 . S
H959 C975 0.959 . S
H960 C975 0.959 . S
H961 C975 0.961 . S
H962 C976 0.960 . S
H963 C976 0.961 . S
H964 C976 0.959 . S
H965 C979 0.929 . S
H966 C980 0.931 . S
H967 C982 0.930 . S
C968 H956 0.930 . S
C968 C969 1.399 . S
C968 C973 1.399 . S
C969 C968 1.399 . S
C969 C970 1.376 . S
C970 H957 0.930 . S
C970 C969 1.376 . S
C970 C971 1.388 . S
C971 H958 0.930 . S
C971 C970 1.388 . S
C971 C972 1.390 . S
C972 C971 1.390 . S
C972 C973 1.394 . S
C972 C978 1.465 . S
C973 C968 1.399 . S
C973 C972 1.394 . S
C973 C974 1.516 . S
C974 C973 1.516 . S
C974 C975 1.502 . S
C974 C976 1.561 . S
C974 C977 1.526 . S
C975 H959 0.959 . S
C975 H960 0.959 . S
C975 H961 0.961 . S
C975 C974 1.502 . S
C976 H962 0.960 . S
C976 H963 0.961 . S
C976 H964 0.959 . S
C976 C974 1.561 . S
C977 C974 1.526 . S
C977 C978 1.396 . S
C977 C982 1.390 . S
C978 C972 1.465 . S
C978 C977 1.396 . S
C978 C979 1.399 . S
C979 H965 0.929 . S
C979 C978 1.399 . S
C979 C980 1.385 . S
C980 H966 0.931 . S
C980 C979 1.385 . S
C980 C981 1.389 . S
C981 C980 1.389 . S
C981 C982 1.387 . S
C982 H967 0.930 . S
C982 C977 1.390 . S
C982 C981 1.387 . S
H983 C995 0.930 . S
H984 C997 0.930 . S
H985 C998 0.929 . S
H986 C1002 0.959 . S
H987 C1002 0.959 . S
H988 C1002 0.961 . S
H989 C1003 0.960 . S
H990 C1003 0.961 . S
H991 C1003 0.959 . S
H992 C1006 0.929 1_554 S
H993 C1007 0.931 1_554 S
H994 C1009 0.930 . S
C995 H983 0.930 . S
C995 C996 1.399 . S
C995 C1000 1.399 . S
C996 C995 1.399 . S
C996 C997 1.376 . S
C997 H984 0.930 . S
C997 C996 1.376 . S
C997 C998 1.388 . S
C998 H985 0.929 . S
C998 C997 1.388 . S
C998 C999 1.390 . S
C999 C998 1.390 . S
C999 C1000 1.394 . S
C999 C1005 1.465 . S
C1000 C995 1.399 . S
C1000 C999 1.394 . S
C1000 C1001 1.516 . S
C1001 C1000 1.516 . S
C1001 C1002 1.502 . S
C1001 C1003 1.561 . S
C1001 C1004 1.526 . S
C1002 H986 0.959 . S
C1002 H987 0.959 . S
C1002 H988 0.961 . S
C1002 C1001 1.502 . S
C1003 H989 0.960 . S
C1003 H990 0.961 . S
C1003 H991 0.959 . S
C1003 C1001 1.561 . S
C1004 C1001 1.526 . S
C1004 C1005 1.396 . S
C1004 C1009 1.390 . S
C1005 C999 1.465 . S
C1005 C1004 1.396 . S
C1005 C1006 1.399 . S
C1006 H992 0.929 1_556 S
C1006 C1005 1.399 . S
C1006 C1007 1.385 . S
C1007 H993 0.931 1_556 S
C1007 C1006 1.385 . S
C1007 C1008 1.389 . S
C1008 C1007 1.389 . S
C1008 C1009 1.387 . S
C1009 H994 0.930 . S
C1009 C1004 1.390 . S
C1009 C1008 1.387 . S
H1010 C1022 0.930 . S
H1011 C1024 0.930 . S
H1012 C1025 0.930 . S
H1013 C1029 0.959 . S
H1014 C1029 0.959 . S
H1015 C1029 0.961 . S
H1016 C1030 0.960 . S
H1017 C1030 0.961 . S
H1018 C1030 0.959 . S
H1019 C1033 0.929 . S
H1020 C1034 0.931 . S
H1021 C1036 0.930 . S
C1022 H1010 0.930 . S
C1022 C1023 1.399 . S
C1022 C1027 1.399 . S
C1023 C1022 1.399 . S
C1023 C1024 1.376 . S
C1024 H1011 0.930 . S
C1024 C1023 1.376 . S
C1024 C1025 1.388 . S
C1025 H1012 0.930 . S
C1025 C1024 1.388 . S
C1025 C1026 1.390 . S
C1026 C1025 1.390 . S
C1026 C1027 1.394 . S
C1026 C1032 1.465 . S
C1027 C1022 1.399 . S
C1027 C1026 1.394 . S
C1027 C1028 1.516 . S
C1028 C1027 1.516 . S
C1028 C1029 1.502 . S
C1028 C1030 1.561 . S
C1028 C1031 1.526 . S
C1029 H1013 0.959 . S
C1029 H1014 0.959 . S
C1029 H1015 0.961 . S
C1029 C1028 1.502 . S
C1030 H1016 0.960 . S
C1030 H1017 0.961 . S
C1030 H1018 0.959 . S
C1030 C1028 1.561 . S
C1031 C1028 1.526 . S
C1031 C1032 1.396 . S
C1031 C1036 1.390 . S
C1032 C1026 1.465 . S
C1032 C1031 1.396 . S
C1032 C1033 1.399 . S
C1033 H1019 0.929 . S
C1033 C1032 1.399 . S
C1033 C1034 1.385 . S
C1034 H1020 0.931 . S
C1034 C1033 1.385 . S
C1034 C1035 1.389 . S
C1035 C1034 1.389 . S
C1035 C1036 1.387 . S
C1036 H1021 0.930 . S
C1036 C1031 1.390 . S
C1036 C1035 1.387 . S
H1037 C1049 0.930 . S
H1038 C1051 0.930 . S
H1039 C1052 0.930 . S
H1040 C1056 0.959 . S
H1041 C1056 0.959 . S
H1042 C1056 0.961 . S
H1043 C1057 0.960 . S
H1044 C1057 0.961 . S
H1045 C1057 0.959 . S
H1046 C1060 0.929 . S
H1047 C1061 0.931 . S
H1048 C1063 0.930 . S
C1049 H1037 0.930 . S
C1049 C1050 1.399 . S
C1049 C1054 1.399 . S
C1050 C1049 1.399 . S
C1050 C1051 1.376 . S
C1051 H1038 0.930 . S
C1051 C1050 1.376 . S
C1051 C1052 1.388 . S
C1052 H1039 0.930 . S
C1052 C1051 1.388 . S
C1052 C1053 1.390 . S
C1053 C1052 1.390 . S
C1053 C1054 1.394 . S
C1053 C1059 1.465 . S
C1054 C1049 1.399 . S
C1054 C1053 1.394 . S
C1054 C1055 1.516 . S
C1055 C1054 1.516 . S
C1055 C1056 1.502 . S
C1055 C1057 1.561 . S
C1055 C1058 1.526 . S
C1056 H1040 0.959 . S
C1056 H1041 0.959 . S
C1056 H1042 0.961 . S
C1056 C1055 1.502 . S
C1057 H1043 0.960 . S
C1057 H1044 0.961 . S
C1057 H1045 0.959 . S
C1057 C1055 1.561 . S
C1058 C1055 1.526 . S
C1058 C1059 1.396 . S
C1058 C1063 1.390 . S
C1059 C1053 1.465 . S
C1059 C1058 1.396 . S
C1059 C1060 1.399 . S
C1060 H1046 0.929 . S
C1060 C1059 1.399 . S
C1060 C1061 1.385 . S
C1061 H1047 0.931 . S
C1061 C1060 1.385 . S
C1061 C1062 1.389 . S
C1062 C1061 1.389 . S
C1062 C1063 1.387 . S
C1063 H1048 0.930 . S
C1063 C1058 1.390 . S
C1063 C1062 1.387 . S
H1064 C1076 0.930 . S
H1065 C1078 0.930 . S
H1066 C1079 0.930 . S
H1067 C1083 0.959 . S
H1068 C1083 0.959 . S
H1069 C1083 0.961 . S
H1070 C1084 0.960 . S
H1071 C1084 0.961 . S
H1072 C1084 0.959 . S
H1073 C1087 0.929 . S
H1074 C1088 0.931 . S
H1075 C1090 0.930 . S
C1076 H1064 0.930 . S
C1076 C1077 1.399 . S
C1076 C1081 1.399 . S
C1077 C1076 1.399 . S
C1077 C1078 1.376 . S
C1078 H1065 0.930 . S
C1078 C1077 1.376 . S
C1078 C1079 1.388 . S
C1079 H1066 0.930 . S
C1079 C1078 1.388 . S
C1079 C1080 1.390 . S
C1080 C1079 1.390 . S
C1080 C1081 1.394 . S
C1080 C1086 1.465 . S
C1081 C1076 1.399 . S
C1081 C1080 1.394 . S
C1081 C1082 1.516 . S
C1082 C1081 1.516 . S
C1082 C1083 1.502 . S
C1082 C1084 1.561 . S
C1082 C1085 1.526 . S
C1083 H1067 0.959 . S
C1083 H1068 0.959 . S
C1083 H1069 0.961 . S
C1083 C1082 1.502 . S
C1084 H1070 0.960 . S
C1084 H1071 0.961 . S
C1084 H1072 0.959 . S
C1084 C1082 1.561 . S
C1085 C1082 1.526 . S
C1085 C1086 1.396 . S
C1085 C1090 1.390 . S
C1086 C1080 1.465 . S
C1086 C1085 1.396 . S
C1086 C1087 1.399 . S
C1087 H1073 0.929 . S
C1087 C1086 1.399 . S
C1087 C1088 1.385 . S
C1088 H1074 0.931 . S
C1088 C1087 1.385 . S
C1088 C1089 1.389 . S
C1089 C1088 1.389 . S
C1089 C1090 1.387 . S
C1090 H1075 0.930 . S
C1090 C1085 1.390 . S
C1090 C1089 1.387 . S
H1091 C1103 0.930 . S
H1092 C1105 0.930 . S
H1093 C1106 0.930 . S
H1094 C1110 0.959 . S
H1095 C1110 0.959 . S
H1096 C1110 0.961 . S
H1097 C1111 0.960 . S
H1098 C1111 0.961 . S
H1099 C1111 0.959 . S
H1100 C1114 0.929 . S
H1101 C1115 0.931 . S
H1102 C1117 0.930 . S
C1103 H1091 0.930 . S
C1103 C1104 1.399 . S
C1103 C1108 1.399 . S
C1104 C1103 1.399 . S
C1104 C1105 1.376 . S
C1105 H1092 0.930 . S
C1105 C1104 1.376 . S
C1105 C1106 1.388 . S
C1106 H1093 0.930 . S
C1106 C1105 1.388 . S
C1106 C1107 1.390 . S
C1107 C1106 1.390 . S
C1107 C1108 1.394 . S
C1107 C1113 1.465 . S
C1108 C1103 1.399 . S
C1108 C1107 1.394 . S
C1108 C1109 1.516 . S
C1109 C1108 1.516 . S
C1109 C1110 1.502 . S
C1109 C1111 1.561 . S
C1109 C1112 1.526 . S
C1110 H1094 0.959 . S
C1110 H1095 0.959 . S
C1110 H1096 0.961 . S
C1110 C1109 1.502 . S
C1111 H1097 0.960 . S
C1111 H1098 0.961 . S
C1111 H1099 0.959 . S
C1111 C1109 1.561 . S
C1112 C1109 1.526 . S
C1112 C1113 1.396 . S
C1112 C1117 1.390 . S
C1113 C1107 1.465 . S
C1113 C1112 1.396 . S
C1113 C1114 1.399 . S
C1114 H1100 0.929 . S
C1114 C1113 1.399 . S
C1114 C1115 1.385 . S
C1115 H1101 0.931 . S
C1115 C1114 1.385 . S
C1115 C1116 1.389 . S
C1116 C1115 1.389 . S
C1116 C1117 1.387 . S
C1117 H1102 0.930 . S
C1117 C1112 1.390 . S
C1117 C1116 1.387 . S
H1118 C1130 0.930 . S
H1119 C1132 0.930 . S
H1120 C1133 0.930 . S
H1121 C1137 0.959 . S
H1122 C1137 0.959 . S
H1123 C1137 0.961 . S
H1124 C1138 0.960 . S
H1125 C1138 0.961 . S
H1126 C1138 0.959 . S
H1127 C1141 0.929 . S
H1128 C1142 0.933 1_554 S
H1129 C1144 0.930 . S
C1130 H1118 0.930 . S
C1130 C1131 1.399 . S
C1130 C1135 1.399 . S
C1131 C1130 1.399 . S
C1131 C1132 1.376 . S
C1132 H1119 0.930 . S
C1132 C1131 1.376 . S
C1132 C1133 1.388 . S
C1133 H1120 0.930 . S
C1133 C1132 1.388 . S
C1133 C1134 1.390 . S
C1134 C1133 1.390 . S
C1134 C1135 1.394 . S
C1134 C1140 1.465 . S
C1135 C1130 1.399 . S
C1135 C1134 1.394 . S
C1135 C1136 1.516 . S
C1136 C1135 1.516 . S
C1136 C1137 1.502 . S
C1136 C1138 1.561 . S
C1136 C1139 1.526 . S
C1137 H1121 0.959 . S
C1137 H1122 0.959 . S
C1137 H1123 0.961 . S
C1137 C1136 1.502 . S
C1138 H1124 0.960 . S
C1138 H1125 0.961 . S
C1138 H1126 0.959 . S
C1138 C1136 1.561 . S
C1139 C1136 1.526 . S
C1139 C1140 1.396 . S
C1139 C1144 1.390 . S
C1140 C1134 1.465 . S
C1140 C1139 1.396 . S
C1140 C1141 1.399 . S
C1141 H1127 0.929 . S
C1141 C1140 1.399 . S
C1141 C1142 1.385 . S
C1142 H1128 0.933 1_556 S
C1142 C1141 1.385 . S
C1142 C1143 1.389 . S
C1143 C1142 1.389 . S
C1143 C1144 1.387 . S
C1144 H1129 0.930 . S
C1144 C1139 1.390 . S
C1144 C1143 1.387 . S
H1145 C1157 0.930 . S
H1146 C1159 0.930 . S
H1147 C1160 0.930 . S
H1148 C1164 0.959 . S
H1149 C1164 0.959 . S
H1150 C1164 0.961 . S
H1151 C1165 0.960 . S
H1152 C1165 0.961 . S
H1153 C1165 0.959 . S
H1154 C1168 0.929 . S
H1155 C1169 0.931 . S
H1156 C1171 0.930 . S
C1157 H1145 0.930 . S
C1157 C1158 1.399 . S
C1157 C1162 1.399 . S
C1158 C1157 1.399 . S
C1158 C1159 1.376 . S
C1159 H1146 0.930 . S
C1159 C1158 1.376 . S
C1159 C1160 1.388 . S
C1160 H1147 0.930 . S
C1160 C1159 1.388 . S
C1160 C1161 1.390 . S
C1161 C1160 1.390 . S
C1161 C1162 1.394 . S
C1161 C1167 1.465 . S
C1162 C1157 1.399 . S
C1162 C1161 1.394 . S
C1162 C1163 1.516 . S
C1163 C1162 1.516 . S
C1163 C1164 1.502 . S
C1163 C1165 1.561 . S
C1163 C1166 1.526 . S
C1164 H1148 0.959 . S
C1164 H1149 0.959 . S
C1164 H1150 0.961 . S
C1164 C1163 1.502 . S
C1165 H1151 0.960 . S
C1165 H1152 0.961 . S
C1165 H1153 0.959 . S
C1165 C1163 1.561 . S
C1166 C1163 1.526 . S
C1166 C1167 1.396 . S
C1166 C1171 1.390 . S
C1167 C1161 1.465 . S
C1167 C1166 1.396 . S
C1167 C1168 1.399 . S
C1168 H1154 0.929 . S
C1168 C1167 1.399 . S
C1168 C1169 1.385 . S
C1169 H1155 0.931 . S
C1169 C1168 1.385 . S
C1169 C1170 1.389 . S
C1170 C1169 1.389 . S
C1170 C1171 1.387 . S
C1171 H1156 0.930 . S
C1171 C1166 1.390 . S
C1171 C1170 1.387 . S
H1172 C1184 0.930 . S
H1173 C1186 0.930 . S
H1174 C1187 0.930 . S
H1175 C1191 0.959 . S
H1176 C1191 0.959 . S
H1177 C1191 0.961 . S
H1178 C1192 0.960 . S
H1179 C1192 0.961 . S
H1180 C1192 0.959 . S
H1181 C1195 0.929 . S
H1182 C1196 0.931 1_554 S
H1183 C1198 0.930 . S
C1184 H1172 0.930 . S
C1184 C1185 1.399 . S
C1184 C1189 1.399 . S
C1185 C1184 1.399 . S
C1185 C1186 1.376 . S
C1186 H1173 0.930 . S
C1186 C1185 1.376 . S
C1186 C1187 1.388 . S
C1187 H1174 0.930 . S
C1187 C1186 1.388 . S
C1187 C1188 1.390 . S
C1188 C1187 1.390 . S
C1188 C1189 1.394 . S
C1188 C1194 1.465 . S
C1189 C1184 1.399 . S
C1189 C1188 1.394 . S
C1189 C1190 1.516 . S
C1190 C1189 1.516 . S
C1190 C1191 1.502 . S
C1190 C1192 1.561 . S
C1190 C1193 1.526 . S
C1191 H1175 0.959 . S
C1191 H1176 0.959 . S
C1191 H1177 0.961 . S
C1191 C1190 1.502 . S
C1192 H1178 0.960 . S
C1192 H1179 0.961 . S
C1192 H1180 0.959 . S
C1192 C1190 1.561 . S
C1193 C1190 1.526 . S
C1193 C1194 1.396 . S
C1193 C1198 1.390 . S
C1194 C1188 1.465 . S
C1194 C1193 1.396 . S
C1194 C1195 1.399 . S
C1195 H1181 0.929 . S
C1195 C1194 1.399 . S
C1195 C1196 1.385 . S
C1196 H1182 0.931 1_556 S
C1196 C1195 1.385 . S
C1196 C1197 1.389 . S
C1197 C1196 1.389 . S
C1197 C1198 1.387 . S
C1198 H1183 0.930 . S
C1198 C1193 1.390 . S
C1198 C1197 1.387 . S
H1199 C1211 0.930 . S
H1200 C1213 0.930 . S
H1201 C1214 0.930 . S
H1202 C1218 0.959 . S
H1203 C1218 0.959 . S
H1204 C1218 0.961 . S
H1205 C1219 0.960 . S
H1206 C1219 0.961 . S
H1207 C1219 0.959 . S
H1208 C1222 0.929 . S
H1209 C1223 0.931 . S
H1210 C1225 0.930 . S
C1211 H1199 0.930 . S
C1211 C1212 1.399 . S
C1211 C1216 1.399 . S
C1212 C1211 1.399 . S
C1212 C1213 1.376 . S
C1213 H1200 0.930 . S
C1213 C1212 1.376 . S
C1213 C1214 1.388 . S
C1214 H1201 0.930 . S
C1214 C1213 1.388 . S
C1214 C1215 1.390 . S
C1215 C1214 1.390 . S
C1215 C1216 1.394 . S
C1215 C1221 1.465 . S
C1216 C1211 1.399 . S
C1216 C1215 1.394 . S
C1216 C1217 1.516 . S
C1217 C1216 1.516 . S
C1217 C1218 1.502 . S
C1217 C1219 1.561 . S
C1217 C1220 1.526 . S
C1218 H1202 0.959 . S
C1218 H1203 0.959 . S
C1218 H1204 0.961 . S
C1218 C1217 1.502 . S
C1219 H1205 0.960 . S
C1219 H1206 0.961 . S
C1219 H1207 0.959 . S
C1219 C1217 1.561 . S
C1220 C1217 1.526 . S
C1220 C1221 1.396 . S
C1220 C1225 1.390 . S
C1221 C1215 1.465 . S
C1221 C1220 1.396 . S
C1221 C1222 1.399 . S
C1222 H1208 0.929 . S
C1222 C1221 1.399 . S
C1222 C1223 1.385 . S
C1223 H1209 0.931 . S
C1223 C1222 1.385 . S
C1223 C1224 1.389 . S
C1224 C1223 1.389 . S
C1224 C1225 1.387 . S
C1225 H1210 0.930 . S
C1225 C1220 1.390 . S
C1225 C1224 1.387 . S
H1226 C1238 0.930 . S
H1227 C1240 0.930 . S
H1228 C1241 0.930 . S
H1229 C1245 0.959 . S
H1230 C1245 0.959 . S
H1231 C1245 0.961 . S
H1232 C1246 0.960 . S
H1233 C1246 0.961 . S
H1234 C1246 0.959 . S
H1235 C1249 0.929 . S
H1236 C1250 0.931 . S
H1237 C1252 0.930 . S
C1238 H1226 0.930 . S
C1238 C1239 1.399 . S
C1238 C1243 1.399 . S
C1239 C1238 1.399 . S
C1239 C1240 1.376 . S
C1240 H1227 0.930 . S
C1240 C1239 1.376 . S
C1240 C1241 1.388 . S
C1241 H1228 0.930 . S
C1241 C1240 1.388 . S
C1241 C1242 1.390 . S
C1242 C1241 1.390 . S
C1242 C1243 1.394 . S
C1242 C1248 1.465 . S
C1243 C1238 1.399 . S
C1243 C1242 1.394 . S
C1243 C1244 1.516 . S
C1244 C1243 1.516 . S
C1244 C1245 1.502 . S
C1244 C1246 1.561 . S
C1244 C1247 1.526 . S
C1245 H1229 0.959 . S
C1245 H1230 0.959 . S
C1245 H1231 0.961 . S
C1245 C1244 1.502 . S
C1246 H1232 0.960 . S
C1246 H1233 0.961 . S
C1246 H1234 0.959 . S
C1246 C1244 1.561 . S
C1247 C1244 1.526 . S
C1247 C1248 1.396 . S
C1247 C1252 1.390 . S
C1248 C1242 1.465 . S
C1248 C1247 1.396 . S
C1248 C1249 1.399 . S
C1249 H1235 0.929 . S
C1249 C1248 1.399 . S
C1249 C1250 1.385 . S
C1250 H1236 0.931 . S
C1250 C1249 1.385 . S
C1250 C1251 1.389 . S
C1251 C1250 1.389 . S
C1251 C1252 1.387 . S
C1252 H1237 0.930 . S
C1252 C1247 1.390 . S
C1252 C1251 1.387 . S
H1253 C1265 0.930 . S
H1254 C1267 0.930 . S
H1255 C1268 0.930 . S
H1256 C1272 0.959 . S
H1257 C1272 0.959 . S
H1258 C1272 0.961 . S
H1259 C1273 0.960 . S
H1260 C1273 0.961 . S
H1261 C1273 0.959 . S
H1262 C1276 0.929 . S
H1263 C1277 0.931 . S
H1264 C1279 0.930 . S
C1265 H1253 0.930 . S
C1265 C1266 1.399 . S
C1265 C1270 1.399 . S
C1266 C1265 1.399 . S
C1266 C1267 1.376 . S
C1267 H1254 0.930 . S
C1267 C1266 1.376 . S
C1267 C1268 1.388 . S
C1268 H1255 0.930 . S
C1268 C1267 1.388 . S
C1268 C1269 1.390 . S
C1269 C1268 1.390 . S
C1269 C1270 1.394 . S
C1269 C1275 1.465 . S
C1270 C1265 1.399 . S
C1270 C1269 1.394 . S
C1270 C1271 1.516 . S
C1271 C1270 1.516 . S
C1271 C1272 1.502 . S
C1271 C1273 1.561 . S
C1271 C1274 1.526 . S
C1272 H1256 0.959 . S
C1272 H1257 0.959 . S
C1272 H1258 0.961 . S
C1272 C1271 1.502 . S
C1273 H1259 0.960 . S
C1273 H1260 0.961 . S
C1273 H1261 0.959 . S
C1273 C1271 1.561 . S
C1274 C1271 1.526 . S
C1274 C1275 1.396 . S
C1274 C1279 1.390 . S
C1275 C1269 1.465 . S
C1275 C1274 1.396 . S
C1275 C1276 1.399 . S
C1276 H1262 0.929 . S
C1276 C1275 1.399 . S
C1276 C1277 1.385 . S
C1277 H1263 0.931 . S
C1277 C1276 1.385 . S
C1277 C1278 1.389 . S
C1278 C1277 1.389 . S
C1278 C1279 1.387 . S
C1279 H1264 0.930 . S
C1279 C1274 1.390 . S
C1279 C1278 1.387 . S
H1280 C1292 0.930 . S
H1281 C1294 0.930 . S
H1282 C1295 0.930 . S
H1283 C1299 0.959 . S
H1284 C1299 0.959 . S
H1285 C1299 0.961 . S
H1286 C1300 0.960 . S
H1287 C1300 0.961 . S
H1288 C1300 0.959 . S
H1289 C1303 0.929 . S
H1290 C1304 0.931 . S
H1291 C1306 0.930 . S
C1292 H1280 0.930 . S
C1292 C1293 1.399 . S
C1292 C1297 1.399 . S
C1293 C1292 1.399 . S
C1293 C1294 1.376 . S
C1294 H1281 0.930 . S
C1294 C1293 1.376 . S
C1294 C1295 1.388 . S
C1295 H1282 0.930 . S
C1295 C1294 1.388 . S
C1295 C1296 1.390 . S
C1296 C1295 1.390 . S
C1296 C1297 1.394 . S
C1296 C1302 1.465 . S
C1297 C1292 1.399 . S
C1297 C1296 1.394 . S
C1297 C1298 1.516 . S
C1298 C1297 1.516 . S
C1298 C1299 1.502 . S
C1298 C1300 1.561 . S
C1298 C1301 1.526 . S
C1299 H1283 0.959 . S
C1299 H1284 0.959 . S
C1299 H1285 0.961 . S
C1299 C1298 1.502 . S
C1300 H1286 0.960 . S
C1300 H1287 0.961 . S
C1300 H1288 0.959 . S
C1300 C1298 1.561 . S
C1301 C1298 1.526 . S
C1301 C1302 1.396 . S
C1301 C1306 1.390 . S
C1302 C1296 1.465 . S
C1302 C1301 1.396 . S
C1302 C1303 1.399 . S
C1303 H1289 0.929 . S
C1303 C1302 1.399 . S
C1303 C1304 1.385 . S
C1304 H1290 0.931 . S
C1304 C1303 1.385 . S
C1304 C1305 1.389 . S
C1305 C1304 1.389 . S
C1305 C1306 1.387 . S
C1306 H1291 0.930 . S
C1306 C1301 1.390 . S
C1306 C1305 1.387 . S
H1307 C1319 0.930 . S
H1308 C1321 0.930 . S
H1309 C1322 0.930 . S
H1310 C1326 0.959 . S
H1311 C1326 0.959 . S
H1312 C1326 0.961 . S
H1313 C1327 0.960 . S
H1314 C1327 0.961 . S
H1315 C1327 0.959 . S
H1316 C1330 0.929 . S
H1317 C1331 0.931 . S
H1318 C1333 0.930 . S
C1319 H1307 0.930 . S
C1319 C1320 1.399 . S
C1319 C1324 1.399 . S
C1320 C1319 1.399 . S
C1320 C1321 1.376 . S
C1321 H1308 0.930 . S
C1321 C1320 1.376 . S
C1321 C1322 1.388 . S
C1322 H1309 0.930 . S
C1322 C1321 1.388 . S
C1322 C1323 1.390 . S
C1323 C1322 1.390 . S
C1323 C1324 1.394 . S
C1323 C1329 1.465 . S
C1324 C1319 1.399 . S
C1324 C1323 1.394 . S
C1324 C1325 1.516 . S
C1325 C1324 1.516 . S
C1325 C1326 1.502 . S
C1325 C1327 1.561 . S
C1325 C1328 1.526 . S
C1326 H1310 0.959 . S
C1326 H1311 0.959 . S
C1326 H1312 0.961 . S
C1326 C1325 1.502 . S
C1327 H1313 0.960 . S
C1327 H1314 0.961 . S
C1327 H1315 0.959 . S
C1327 C1325 1.561 . S
C1328 C1325 1.526 . S
C1328 C1329 1.396 . S
C1328 C1333 1.390 . S
C1329 C1323 1.465 . S
C1329 C1328 1.396 . S
C1329 C1330 1.399 . S
C1330 H1316 0.929 . S
C1330 C1329 1.399 . S
C1330 C1331 1.385 . S
C1331 H1317 0.931 . S
C1331 C1330 1.385 . S
C1331 C1332 1.389 . S
C1332 C1331 1.389 . S
C1332 C1333 1.387 . S
C1333 H1318 0.930 . S
C1333 C1328 1.390 . S
C1333 C1332 1.387 . S
H1334 C1346 0.930 . S
H1335 C1348 0.930 . S
H1336 C1349 0.930 . S
H1337 C1353 0.959 . S
H1338 C1353 0.959 . S
H1339 C1353 0.961 . S
H1340 C1354 0.960 . S
H1341 C1354 0.961 . S
H1342 C1354 0.959 . S
H1343 C1357 0.929 . S
H1344 C1358 0.931 . S
H1345 C1360 0.930 . S
C1346 H1334 0.930 . S
C1346 C1347 1.399 . S
C1346 C1351 1.399 . S
C1347 C1346 1.399 . S
C1347 C1348 1.376 . S
C1348 H1335 0.930 . S
C1348 C1347 1.376 . S
C1348 C1349 1.388 . S
C1349 H1336 0.930 . S
C1349 C1348 1.388 . S
C1349 C1350 1.390 . S
C1350 C1349 1.390 . S
C1350 C1351 1.394 . S
C1350 C1356 1.465 . S
C1351 C1346 1.399 . S
C1351 C1350 1.394 . S
C1351 C1352 1.516 . S
C1352 C1351 1.516 . S
C1352 C1353 1.502 . S
C1352 C1354 1.561 . S
C1352 C1355 1.526 . S
C1353 H1337 0.959 . S
C1353 H1338 0.959 . S
C1353 H1339 0.961 . S
C1353 C1352 1.502 . S
C1354 H1340 0.960 . S
C1354 H1341 0.961 . S
C1354 H1342 0.959 . S
C1354 C1352 1.561 . S
C1355 C1352 1.526 . S
C1355 C1356 1.396 . S
C1355 C1360 1.390 . S
C1356 C1350 1.465 . S
C1356 C1355 1.396 . S
C1356 C1357 1.399 . S
C1357 H1343 0.929 . S
C1357 C1356 1.399 . S
C1357 C1358 1.385 . S
C1358 H1344 0.931 . S
C1358 C1357 1.385 . S
C1358 C1359 1.389 . S
C1359 C1358 1.389 . S
C1359 C1360 1.387 . S
C1360 H1345 0.930 . S
C1360 C1355 1.390 . S
C1360 C1359 1.387 . S
H1361 C1373 0.930 . S
H1362 C1375 0.930 . S
H1363 C1376 0.930 . S
H1364 C1380 0.959 . S
H1365 C1380 0.959 . S
H1366 C1380 0.961 . S
H1367 C1381 0.960 . S
H1368 C1381 0.961 . S
H1369 C1381 0.959 . S
H1370 C1384 0.929 . S
H1371 C1385 0.931 . S
H1372 C1387 0.930 . S
C1373 H1361 0.930 . S
C1373 C1374 1.399 . S
C1373 C1378 1.399 . S
C1374 C1373 1.399 . S
C1374 C1375 1.376 . S
C1375 H1362 0.930 . S
C1375 C1374 1.376 . S
C1375 C1376 1.388 . S
C1376 H1363 0.930 . S
C1376 C1375 1.388 . S
C1376 C1377 1.390 . S
C1377 C1376 1.390 . S
C1377 C1378 1.394 . S
C1377 C1383 1.465 . S
C1378 C1373 1.399 . S
C1378 C1377 1.394 . S
C1378 C1379 1.516 . S
C1379 C1378 1.516 . S
C1379 C1380 1.502 . S
C1379 C1381 1.561 . S
C1379 C1382 1.526 . S
C1380 H1364 0.959 . S
C1380 H1365 0.959 . S
C1380 H1366 0.961 . S
C1380 C1379 1.502 . S
C1381 H1367 0.960 . S
C1381 H1368 0.961 . S
C1381 H1369 0.959 . S
C1381 C1379 1.561 . S
C1382 C1379 1.526 . S
C1382 C1383 1.396 . S
C1382 C1387 1.390 . S
C1383 C1377 1.465 . S
C1383 C1382 1.396 . S
C1383 C1384 1.399 . S
C1384 H1370 0.929 . S
C1384 C1383 1.399 . S
C1384 C1385 1.385 . S
C1385 H1371 0.931 . S
C1385 C1384 1.385 . S
C1385 C1386 1.389 . S
C1386 C1385 1.389 . S
C1386 C1387 1.387 . S
C1387 H1372 0.930 . S
C1387 C1382 1.390 . S
C1387 C1386 1.387 . S
H1388 C1400 0.930 . S
H1389 C1402 0.930 . S
H1390 C1403 0.930 . S
H1391 C1407 0.959 . S
H1392 C1407 0.959 . S
H1393 C1407 0.961 . S
H1394 C1408 0.960 . S
H1395 C1408 0.961 . S
H1396 C1408 0.959 . S
H1397 C1411 0.929 . S
H1398 C1412 0.931 . S
H1399 C1414 0.930 . S
C1400 H1388 0.930 . S
C1400 C1401 1.399 . S
C1400 C1405 1.399 . S
C1401 C1400 1.399 . S
C1401 C1402 1.376 . S
C1402 H1389 0.930 . S
C1402 C1401 1.376 . S
C1402 C1403 1.388 . S
C1403 H1390 0.930 . S
C1403 C1402 1.388 . S
C1403 C1404 1.390 . S
C1404 C1403 1.390 . S
C1404 C1405 1.394 . S
C1404 C1410 1.465 . S
C1405 C1400 1.399 . S
C1405 C1404 1.394 . S
C1405 C1406 1.516 . S
C1406 C1405 1.516 . S
C1406 C1407 1.502 . S
C1406 C1408 1.561 . S
C1406 C1409 1.526 . S
C1407 H1391 0.959 . S
C1407 H1392 0.959 . S
C1407 H1393 0.961 . S
C1407 C1406 1.502 . S
C1408 H1394 0.960 . S
C1408 H1395 0.961 . S
C1408 H1396 0.959 . S
C1408 C1406 1.561 . S
C1409 C1406 1.526 . S
C1409 C1410 1.396 . S
C1409 C1414 1.390 . S
C1410 C1404 1.465 . S
C1410 C1409 1.396 . S
C1410 C1411 1.399 . S
C1411 H1397 0.929 . S
C1411 C1410 1.399 . S
C1411 C1412 1.385 . S
C1412 H1398 0.931 . S
C1412 C1411 1.385 . S
C1412 C1413 1.389 . S
C1413 C1412 1.389 . S
C1413 C1414 1.387 . S
C1414 H1399 0.930 . S
C1414 C1409 1.390 . S
C1414 C1413 1.387 . S
H1415 C1427 0.930 . S
H1416 C1429 0.930 . S
H1417 C1430 0.930 . S
H1418 C1434 0.959 . S
H1419 C1434 0.959 . S
H1420 C1434 0.961 . S
H1421 C1435 0.960 . S
H1422 C1435 0.961 . S
H1423 C1435 0.959 . S
H1424 C1438 0.929 . S
H1425 C1439 0.931 . S
H1426 C1441 0.930 . S
C1427 H1415 0.930 . S
C1427 C1428 1.399 . S
C1427 C1432 1.399 . S
C1428 C1427 1.399 . S
C1428 C1429 1.376 . S
C1429 H1416 0.930 . S
C1429 C1428 1.376 . S
C1429 C1430 1.388 . S
C1430 H1417 0.930 . S
C1430 C1429 1.388 . S
C1430 C1431 1.390 . S
C1431 C1430 1.390 . S
C1431 C1432 1.394 . S
C1431 C1437 1.465 . S
C1432 C1427 1.399 . S
C1432 C1431 1.394 . S
C1432 C1433 1.516 . S
C1433 C1432 1.516 . S
C1433 C1434 1.502 . S
C1433 C1435 1.561 . S
C1433 C1436 1.526 . S
C1434 H1418 0.959 . S
C1434 H1419 0.959 . S
C1434 H1420 0.961 . S
C1434 C1433 1.502 . S
C1435 H1421 0.960 . S
C1435 H1422 0.961 . S
C1435 H1423 0.959 . S
C1435 C1433 1.561 . S
C1436 C1433 1.526 . S
C1436 C1437 1.396 . S
C1436 C1441 1.390 . S
C1437 C1431 1.465 . S
C1437 C1436 1.396 . S
C1437 C1438 1.399 . S
C1438 H1424 0.929 . S
C1438 C1437 1.399 . S
C1438 C1439 1.385 . S
C1439 H1425 0.931 . S
C1439 C1438 1.385 . S
C1439 C1440 1.389 . S
C1440 C1439 1.389 . S
C1440 C1441 1.387 . S
C1441 H1426 0.930 . S
C1441 C1436 1.390 . S
C1441 C1440 1.387 . S
H1442 C1454 0.930 . S
H1443 C1456 0.930 . S
H1444 C1457 0.930 . S
H1445 C1461 0.959 . S
H1446 C1461 0.959 . S
H1447 C1461 0.961 . S
H1448 C1462 0.960 . S
H1449 C1462 0.961 . S
H1450 C1462 0.959 . S
H1451 C1465 0.929 . S
H1452 C1466 0.931 . S
H1453 C1468 0.930 . S
C1454 H1442 0.930 . S
C1454 C1455 1.399 . S
C1454 C1459 1.399 . S
C1455 C1454 1.399 . S
C1455 C1456 1.376 . S
C1456 H1443 0.930 . S
C1456 C1455 1.376 . S
C1456 C1457 1.388 . S
C1457 H1444 0.930 . S
C1457 C1456 1.388 . S
C1457 C1458 1.390 . S
C1458 C1457 1.390 . S
C1458 C1459 1.394 . S
C1458 C1464 1.465 . S
C1459 C1454 1.399 . S
C1459 C1458 1.394 . S
C1459 C1460 1.516 . S
C1460 C1459 1.516 . S
C1460 C1461 1.502 . S
C1460 C1462 1.561 . S
C1460 C1463 1.526 . S
C1461 H1445 0.959 . S
C1461 H1446 0.959 . S
C1461 H1447 0.961 . S
C1461 C1460 1.502 . S
C1462 H1448 0.960 . S
C1462 H1449 0.961 . S
C1462 H1450 0.959 . S
C1462 C1460 1.561 . S
C1463 C1460 1.526 . S
C1463 C1464 1.396 . S
C1463 C1468 1.390 . S
C1464 C1458 1.465 . S
C1464 C1463 1.396 . S
C1464 C1465 1.399 . S
C1465 H1451 0.929 . S
C1465 C1464 1.399 . S
C1465 C1466 1.385 . S
C1466 H1452 0.931 . S
C1466 C1465 1.385 . S
C1466 C1467 1.389 . S
C1467 C1466 1.389 . S
C1467 C1468 1.387 . S
C1468 H1453 0.930 . S
C1468 C1463 1.390 . S
C1468 C1467 1.387 . S
H1469 C1481 0.930 . S
H1470 C1483 0.930 . S
H1471 C1484 0.930 . S
H1472 C1488 0.959 . S
H1473 C1488 0.959 . S
H1474 C1488 0.961 . S
H1475 C1489 0.960 . S
H1476 C1489 0.961 . S
H1477 C1489 0.959 . S
H1478 C1492 0.929 . S
H1479 C1493 0.931 . S
H1480 C1495 0.930 . S
C1481 H1469 0.930 . S
C1481 C1482 1.399 . S
C1481 C1486 1.399 . S
C1482 C1481 1.399 . S
C1482 C1483 1.376 . S
C1483 H1470 0.930 . S
C1483 C1482 1.376 . S
C1483 C1484 1.388 . S
C1484 H1471 0.930 . S
C1484 C1483 1.388 . S
C1484 C1485 1.390 . S
C1485 C1484 1.390 . S
C1485 C1486 1.394 . S
C1485 C1491 1.465 . S
C1486 C1481 1.399 . S
C1486 C1485 1.394 . S
C1486 C1487 1.516 . S
C1487 C1486 1.516 . S
C1487 C1488 1.502 . S
C1487 C1489 1.561 . S
C1487 C1490 1.526 . S
C1488 H1472 0.959 . S
C1488 H1473 0.959 . S
C1488 H1474 0.961 . S
C1488 C1487 1.502 . S
C1489 H1475 0.960 . S
C1489 H1476 0.961 . S
C1489 H1477 0.959 . S
C1489 C1487 1.561 . S
C1490 C1487 1.526 . S
C1490 C1491 1.396 . S
C1490 C1495 1.390 . S
C1491 C1485 1.465 . S
C1491 C1490 1.396 . S
C1491 C1492 1.399 . S
C1492 H1478 0.929 . S
C1492 C1491 1.399 . S
C1492 C1493 1.385 . S
C1493 H1479 0.931 . S
C1493 C1492 1.385 . S
C1493 C1494 1.389 . S
C1494 C1493 1.389 . S
C1494 C1495 1.387 . S
C1495 H1480 0.930 . S
C1495 C1490 1.390 . S
C1495 C1494 1.387 . S
H1496 C1508 0.930 . S
H1497 C1510 0.930 . S
H1498 C1511 0.930 . S
H1499 C1515 0.959 . S
H1500 C1515 0.959 . S
H1501 C1515 0.961 . S
H1502 C1516 0.960 . S
H1503 C1516 0.961 . S
H1504 C1516 0.959 . S
H1505 C1519 0.929 . S
H1506 C1520 0.931 . S
H1507 C1522 0.930 . S
C1508 H1496 0.930 . S
C1508 C1509 1.399 . S
C1508 C1513 1.399 . S
C1509 C1508 1.399 . S
C1509 C1510 1.376 . S
C1510 H1497 0.930 . S
C1510 C1509 1.376 . S
C1510 C1511 1.388 . S
C1511 H1498 0.930 . S
C1511 C1510 1.388 . S
C1511 C1512 1.390 . S
C1512 C1511 1.390 . S
C1512 C1513 1.394 . S
C1512 C1518 1.465 . S
C1513 C1508 1.399 . S
C1513 C1512 1.394 . S
C1513 C1514 1.516 . S
C1514 C1513 1.516 . S
C1514 C1515 1.502 . S
C1514 C1516 1.561 . S
C1514 C1517 1.526 . S
C1515 H1499 0.959 . S
C1515 H1500 0.959 . S
C1515 H1501 0.961 . S
C1515 C1514 1.502 . S
C1516 H1502 0.960 . S
C1516 H1503 0.961 . S
C1516 H1504 0.959 . S
C1516 C1514 1.561 . S
C1517 C1514 1.526 . S
C1517 C1518 1.396 . S
C1517 C1522 1.390 . S
C1518 C1512 1.465 . S
C1518 C1517 1.396 . S
C1518 C1519 1.399 . S
C1519 H1505 0.929 . S
C1519 C1518 1.399 . S
C1519 C1520 1.385 . S
C1520 H1506 0.931 . S
C1520 C1519 1.385 . S
C1520 C1521 1.389 . S
C1521 C1520 1.389 . S
C1521 C1522 1.387 . S
C1522 H1507 0.930 . S
C1522 C1517 1.390 . S
C1522 C1521 1.387 . S
H1523 C1535 0.930 . S
H1524 C1537 0.930 . S
H1525 C1538 0.930 . S
H1526 C1542 0.959 . S
H1527 C1542 0.959 . S
H1528 C1542 0.961 . S
H1529 C1543 0.960 . S
H1530 C1543 0.961 . S
H1531 C1543 0.959 . S
H1532 C1546 0.929 . S
H1533 C1547 0.931 . S
H1534 C1549 0.930 . S
C1535 H1523 0.930 . S
C1535 C1536 1.399 . S
C1535 C1540 1.399 . S
C1536 C1535 1.399 . S
C1536 C1537 1.376 . S
C1537 H1524 0.930 . S
C1537 C1536 1.376 . S
C1537 C1538 1.388 . S
C1538 H1525 0.930 . S
C1538 C1537 1.388 . S
C1538 C1539 1.390 . S
C1539 C1538 1.390 . S
C1539 C1540 1.394 . S
C1539 C1545 1.465 . S
C1540 C1535 1.399 . S
C1540 C1539 1.394 . S
C1540 C1541 1.516 . S
C1541 C1540 1.516 . S
C1541 C1542 1.502 . S
C1541 C1543 1.561 . S
C1541 C1544 1.526 . S
C1542 H1526 0.959 . S
C1542 H1527 0.959 . S
C1542 H1528 0.961 . S
C1542 C1541 1.502 . S
C1543 H1529 0.960 . S
C1543 H1530 0.961 . S
C1543 H1531 0.959 . S
C1543 C1541 1.561 . S
C1544 C1541 1.526 . S
C1544 C1545 1.396 . S
C1544 C1549 1.390 . S
C1545 C1539 1.465 . S
C1545 C1544 1.396 . S
C1545 C1546 1.399 . S
C1546 H1532 0.929 . S
C1546 C1545 1.399 . S
C1546 C1547 1.385 . S
C1547 H1533 0.931 . S
C1547 C1546 1.385 . S
C1547 C1548 1.389 . S
C1548 C1547 1.389 . S
C1548 C1549 1.387 . S
C1549 H1534 0.930 . S
C1549 C1544 1.390 . S
C1549 C1548 1.387 . S
H1550 C1562 0.930 . S
H1551 C1564 0.930 . S
H1552 C1565 0.930 . S
H1553 C1569 0.959 . S
H1554 C1569 0.959 . S
H1555 C1569 0.961 . S
H1556 C1570 0.960 . S
H1557 C1570 0.961 . S
H1558 C1570 0.959 . S
H1559 C1573 0.929 . S
H1560 C1574 0.931 . S
H1561 C1576 0.930 . S
C1562 H1550 0.930 . S
C1562 C1563 1.399 . S
C1562 C1567 1.399 . S
C1563 C1562 1.399 . S
C1563 C1564 1.376 . S
C1564 H1551 0.930 . S
C1564 C1563 1.376 . S
C1564 C1565 1.388 . S
C1565 H1552 0.930 . S
C1565 C1564 1.388 . S
C1565 C1566 1.390 . S
C1566 C1565 1.390 . S
C1566 C1567 1.394 . S
C1566 C1572 1.465 . S
C1567 C1562 1.399 . S
C1567 C1566 1.394 . S
C1567 C1568 1.516 . S
C1568 C1567 1.516 . S
C1568 C1569 1.502 . S
C1568 C1570 1.561 . S
C1568 C1571 1.526 . S
C1569 H1553 0.959 . S
C1569 H1554 0.959 . S
C1569 H1555 0.961 . S
C1569 C1568 1.502 . S
C1570 H1556 0.960 . S
C1570 H1557 0.961 . S
C1570 H1558 0.959 . S
C1570 C1568 1.561 . S
C1571 C1568 1.526 . S
C1571 C1572 1.396 . S
C1571 C1576 1.390 . S
C1572 C1566 1.465 . S
C1572 C1571 1.396 . S
C1572 C1573 1.399 . S
C1573 H1559 0.929 . S
C1573 C1572 1.399 . S
C1573 C1574 1.385 . S
C1574 H1560 0.931 . S
C1574 C1573 1.385 . S
C1574 C1575 1.389 . S
C1575 C1574 1.389 . S
C1575 C1576 1.387 . S
C1576 H1561 0.930 . S
C1576 C1571 1.390 . S
C1576 C1575 1.387 . S
H1577 C1589 0.930 . S
H1578 C1591 0.930 . S
H1579 C1592 0.930 . S
H1580 C1596 0.959 . S
H1581 C1596 0.959 . S
H1582 C1596 0.961 . S
H1583 C1597 0.960 . S
H1584 C1597 0.961 . S
H1585 C1597 0.959 . S
H1586 C1600 0.929 . S
H1587 C1601 0.931 . S
H1588 C1603 0.930 . S
C1589 H1577 0.930 . S
C1589 C1590 1.399 . S
C1589 C1594 1.399 . S
C1590 C1589 1.399 . S
C1590 C1591 1.376 . S
C1591 H1578 0.930 . S
C1591 C1590 1.376 . S
C1591 C1592 1.388 . S
C1592 H1579 0.930 . S
C1592 C1591 1.388 . S
C1592 C1593 1.390 . S
C1593 C1592 1.390 . S
C1593 C1594 1.394 . S
C1593 C1599 1.465 . S
C1594 C1589 1.399 . S
C1594 C1593 1.394 . S
C1594 C1595 1.516 . S
C1595 C1594 1.516 . S
C1595 C1596 1.502 . S
C1595 C1597 1.561 . S
C1595 C1598 1.526 . S
C1596 H1580 0.959 . S
C1596 H1581 0.959 . S
C1596 H1582 0.961 . S
C1596 C1595 1.502 . S
C1597 H1583 0.960 . S
C1597 H1584 0.961 . S
C1597 H1585 0.959 . S
C1597 C1595 1.561 . S
C1598 C1595 1.526 . S
C1598 C1599 1.396 . S
C1598 C1603 1.390 . S
C1599 C1593 1.465 . S
C1599 C1598 1.396 . S
C1599 C1600 1.399 . S
C1600 H1586 0.929 . S
C1600 C1599 1.399 . S
C1600 C1601 1.385 . S
C1601 H1587 0.931 . S
C1601 C1600 1.385 . S
C1601 C1602 1.389 . S
C1602 C1601 1.389 . S
C1602 C1603 1.387 . S
C1603 H1588 0.930 . S
C1603 C1598 1.390 . S
C1603 C1602 1.387 . S
H1604 C1616 0.930 . S
H1605 C1618 0.930 . S
H1606 C1619 0.930 . S
H1607 C1623 0.959 . S
H1608 C1623 0.959 . S
H1609 C1623 0.961 . S
H1610 C1624 0.960 . S
H1611 C1624 0.961 . S
H1612 C1624 0.959 . S
H1613 C1627 0.929 . S
H1614 C1628 0.931 . S
H1615 C1630 0.930 . S
C1616 H1604 0.930 . S
C1616 C1617 1.399 . S
C1616 C1621 1.399 . S
C1617 C1616 1.399 . S
C1617 C1618 1.376 . S
C1618 H1605 0.930 . S
C1618 C1617 1.376 . S
C1618 C1619 1.388 . S
C1619 H1606 0.930 . S
C1619 C1618 1.388 . S
C1619 C1620 1.390 . S
C1620 C1619 1.390 . S
C1620 C1621 1.394 . S
C1620 C1626 1.465 . S
C1621 C1616 1.399 . S
C1621 C1620 1.394 . S
C1621 C1622 1.516 . S
C1622 C1621 1.516 . S
C1622 C1623 1.502 . S
C1622 C1624 1.561 . S
C1622 C1625 1.526 . S
C1623 H1607 0.959 . S
C1623 H1608 0.959 . S
C1623 H1609 0.961 . S
C1623 C1622 1.502 . S
C1624 H1610 0.960 . S
C1624 H1611 0.961 . S
C1624 H1612 0.959 . S
C1624 C1622 1.561 . S
C1625 C1622 1.526 . S
C1625 C1626 1.396 . S
C1625 C1630 1.390 . S
C1626 C1620 1.465 . S
C1626 C1625 1.396 . S
C1626 C1627 1.399 . S
C1627 H1613 0.929 . S
C1627 C1626 1.399 . S
C1627 C1628 1.385 . S
C1628 H1614 0.931 . S
C1628 C1627 1.385 . S
C1628 C1629 1.389 . S
C1629 C1628 1.389 . S
C1629 C1630 1.387 . S
C1630 H1615 0.930 . S
C1630 C1625 1.390 . S
C1630 C1629 1.387 . S
H1631 C1643 0.930 . S
H1632 C1645 0.930 . S
H1633 C1646 0.930 . S
H1634 C1650 0.959 . S
H1635 C1650 0.959 . S
H1636 C1650 0.961 . S
H1637 C1651 0.960 . S
H1638 C1651 0.961 . S
H1639 C1651 0.959 . S
H1640 C1654 0.929 . S
H1641 C1655 0.931 . S
H1642 C1657 0.930 . S
C1643 H1631 0.930 . S
C1643 C1644 1.399 . S
C1643 C1648 1.399 . S
C1644 C1643 1.399 . S
C1644 C1645 1.376 . S
C1645 H1632 0.930 . S
C1645 C1644 1.376 . S
C1645 C1646 1.388 . S
C1646 H1633 0.930 . S
C1646 C1645 1.388 . S
C1646 C1647 1.390 . S
C1647 C1646 1.390 . S
C1647 C1648 1.394 . S
C1647 C1653 1.465 . S
C1648 C1643 1.399 . S
C1648 C1647 1.394 . S
C1648 C1649 1.516 . S
C1649 C1648 1.516 . S
C1649 C1650 1.502 . S
C1649 C1651 1.561 . S
C1649 C1652 1.526 . S
C1650 H1634 0.959 . S
C1650 H1635 0.959 . S
C1650 H1636 0.961 . S
C1650 C1649 1.502 . S
C1651 H1637 0.960 . S
C1651 H1638 0.961 . S
C1651 H1639 0.959 . S
C1651 C1649 1.561 . S
C1652 C1649 1.526 . S
C1652 C1653 1.396 . S
C1652 C1657 1.390 . S
C1653 C1647 1.465 . S
C1653 C1652 1.396 . S
C1653 C1654 1.399 . S
C1654 H1640 0.929 . S
C1654 C1653 1.399 . S
C1654 C1655 1.385 . S
C1655 H1641 0.931 . S
C1655 C1654 1.385 . S
C1655 C1656 1.389 . S
C1656 C1655 1.389 . S
C1656 C1657 1.387 . S
C1657 H1642 0.930 . S
C1657 C1652 1.390 . S
C1657 C1656 1.387 . S
H1658 C1670 0.930 . S
H1659 C1672 0.930 . S
H1660 C1673 0.930 . S
H1661 C1677 0.959 . S
H1662 C1677 0.959 . S
H1663 C1677 0.961 . S
H1664 C1678 0.960 . S
H1665 C1678 0.961 . S
H1666 C1678 0.959 . S
H1667 C1681 0.929 . S
H1668 C1682 0.931 . S
H1669 C1684 0.930 . S
C1670 H1658 0.930 . S
C1670 C1671 1.399 . S
C1670 C1675 1.399 . S
C1671 C1670 1.399 . S
C1671 C1672 1.376 . S
C1672 H1659 0.930 . S
C1672 C1671 1.376 . S
C1672 C1673 1.388 . S
C1673 H1660 0.930 . S
C1673 C1672 1.388 . S
C1673 C1674 1.390 . S
C1674 C1673 1.390 . S
C1674 C1675 1.394 . S
C1674 C1680 1.465 . S
C1675 C1670 1.399 . S
C1675 C1674 1.394 . S
C1675 C1676 1.516 . S
C1676 C1675 1.516 . S
C1676 C1677 1.502 . S
C1676 C1678 1.561 . S
C1676 C1679 1.526 . S
C1677 H1661 0.959 . S
C1677 H1662 0.959 . S
C1677 H1663 0.961 . S
C1677 C1676 1.502 . S
C1678 H1664 0.960 . S
C1678 H1665 0.961 . S
C1678 H1666 0.959 . S
C1678 C1676 1.561 . S
C1679 C1676 1.526 . S
C1679 C1680 1.396 . S
C1679 C1684 1.390 . S
C1680 C1674 1.465 . S
C1680 C1679 1.396 . S
C1680 C1681 1.399 . S
C1681 H1667 0.929 . S
C1681 C1680 1.399 . S
C1681 C1682 1.385 . S
C1682 H1668 0.931 . S
C1682 C1681 1.385 . S
C1682 C1683 1.389 . S
C1683 C1682 1.389 . S
C1683 C1684 1.387 . S
C1684 H1669 0.930 . S
C1684 C1679 1.390 . S
C1684 C1683 1.387 . S
H1685 C1697 0.930 . S
H1686 C1699 0.930 . S
H1687 C1700 0.930 . S
H1688 C1704 0.959 . S
H1689 C1704 0.959 . S
H1690 C1704 0.961 . S
H1691 C1705 0.960 . S
H1692 C1705 0.961 . S
H1693 C1705 0.959 . S
H1694 C1708 0.929 . S
H1695 C1709 0.931 . S
H1696 C1711 0.930 . S
C1697 H1685 0.930 . S
C1697 C1698 1.399 . S
C1697 C1702 1.399 . S
C1698 C1697 1.399 . S
C1698 C1699 1.376 . S
C1699 H1686 0.930 . S
C1699 C1698 1.376 . S
C1699 C1700 1.388 . S
C1700 H1687 0.930 . S
C1700 C1699 1.388 . S
C1700 C1701 1.390 . S
C1701 C1700 1.390 . S
C1701 C1702 1.394 . S
C1701 C1707 1.465 . S
C1702 C1697 1.399 . S
C1702 C1701 1.394 . S
C1702 C1703 1.516 . S
C1703 C1702 1.516 . S
C1703 C1704 1.502 . S
C1703 C1705 1.561 . S
C1703 C1706 1.526 . S
C1704 H1688 0.959 . S
C1704 H1689 0.959 . S
C1704 H1690 0.961 . S
C1704 C1703 1.502 . S
C1705 H1691 0.960 . S
C1705 H1692 0.961 . S
C1705 H1693 0.959 . S
C1705 C1703 1.561 . S
C1706 C1703 1.526 . S
C1706 C1707 1.396 . S
C1706 C1711 1.390 . S
C1707 C1701 1.465 . S
C1707 C1706 1.396 . S
C1707 C1708 1.399 . S
C1708 H1694 0.929 . S
C1708 C1707 1.399 . S
C1708 C1709 1.385 . S
C1709 H1695 0.931 . S
C1709 C1708 1.385 . S
C1709 C1710 1.389 . S
C1710 C1709 1.389 . S
C1710 C1711 1.387 . S
C1711 H1696 0.930 . S
C1711 C1706 1.390 . S
C1711 C1710 1.387 . S
H1712 C1724 0.930 . S
H1713 C1726 0.930 . S
H1714 C1727 0.930 . S
H1715 C1731 0.959 . S
H1716 C1731 0.959 . S
H1717 C1731 0.961 . S
H1718 C1732 0.960 . S
H1719 C1732 0.961 . S
H1720 C1732 0.959 . S
H1721 C1735 0.929 . S
H1722 C1736 0.931 . S
H1723 C1738 0.930 . S
C1724 H1712 0.930 . S
C1724 C1725 1.399 . S
C1724 C1729 1.399 . S
C1725 C1724 1.399 . S
C1725 C1726 1.376 . S
C1726 H1713 0.930 . S
C1726 C1725 1.376 . S
C1726 C1727 1.388 . S
C1727 H1714 0.930 . S
C1727 C1726 1.388 . S
C1727 C1728 1.390 . S
C1728 C1727 1.390 . S
C1728 C1729 1.394 . S
C1728 C1734 1.465 . S
C1729 C1724 1.399 . S
C1729 C1728 1.394 . S
C1729 C1730 1.516 . S
C1730 C1729 1.516 . S
C1730 C1731 1.502 . S
C1730 C1732 1.561 . S
C1730 C1733 1.526 . S
C1731 H1715 0.959 . S
C1731 H1716 0.959 . S
C1731 H1717 0.961 . S
C1731 C1730 1.502 . S
C1732 H1718 0.960 . S
C1732 H1719 0.961 . S
C1732 H1720 0.959 . S
C1732 C1730 1.561 . S
C1733 C1730 1.526 . S
C1733 C1734 1.396 . S
C1733 C1738 1.390 . S
C1734 C1728 1.465 . S
C1734 C1733 1.396 . S
C1734 C1735 1.399 . S
C1735 H1721 0.929 . S
C1735 C1734 1.399 . S
C1735 C1736 1.385 . S
C1736 H1722 0.931 . S
C1736 C1735 1.385 . S
C1736 C1737 1.389 . S
C1737 C1736 1.389 . S
C1737 C1738 1.387 . S
C1738 H1723 0.930 . S
C1738 C1733 1.390 . S
C1738 C1737 1.387 . S
H1739 C1751 0.930 . S
H1740 C1753 0.930 . S
H1741 C1754 0.930 . S
H1742 C1758 0.959 . S
H1743 C1758 0.959 . S
H1744 C1758 0.961 . S
H1745 C1759 0.960 . S
H1746 C1759 0.961 . S
H1747 C1759 0.959 . S
H1748 C1762 0.929 . S
H1749 C1763 0.931 . S
H1750 C1765 0.930 . S
C1751 H1739 0.930 . S
C1751 C1752 1.399 . S
C1751 C1756 1.399 . S
C1752 C1751 1.399 . S
C1752 C1753 1.376 . S
C1753 H1740 0.930 . S
C1753 C1752 1.376 . S
C1753 C1754 1.388 . S
C1754 H1741 0.930 . S
C1754 C1753 1.388 . S
C1754 C1755 1.390 . S
C1755 C1754 1.390 . S
C1755 C1756 1.394 . S
C1755 C1761 1.465 . S
C1756 C1751 1.399 . S
C1756 C1755 1.394 . S
C1756 C1757 1.516 . S
C1757 C1756 1.516 . S
C1757 C1758 1.502 . S
C1757 C1759 1.561 . S
C1757 C1760 1.526 . S
C1758 H1742 0.959 . S
C1758 H1743 0.959 . S
C1758 H1744 0.961 . S
C1758 C1757 1.502 . S
C1759 H1745 0.960 . S
C1759 H1746 0.961 . S
C1759 H1747 0.959 . S
C1759 C1757 1.561 . S
C1760 C1757 1.526 . S
C1760 C1761 1.396 . S
C1760 C1765 1.390 . S
C1761 C1755 1.465 . S
C1761 C1760 1.396 . S
C1761 C1762 1.399 . S
C1762 H1748 0.929 . S
C1762 C1761 1.399 . S
C1762 C1763 1.385 . S
C1763 H1749 0.931 . S
C1763 C1762 1.385 . S
C1763 C1764 1.389 . S
C1764 C1763 1.389 . S
C1764 C1765 1.387 . S
C1765 H1750 0.930 . S
C1765 C1760 1.390 . S
C1765 C1764 1.387 . S
C495 C299 0.644 . S
C483 C4 0.184 . S
C522 C300 1.800 . S
C510 C63 1.934 . S
C549 C294 1.083 . S
C537 C72 1.064 . S
C564 C102 1.151 . S
C576 C293 1.215 . S
C591 C136 1.916 . S
C603 C296 1.843 . S
C630 C298 1.008 . S
C618 C183 1.066 . S
C645 C233 1.222 . S
C657 C297 1.145 . S
C672 C251 0.364 . S
C684 C295 0.465 . S
C711 C330 1.537 . S
C699 C29 1.535 . S
C726 C42 2.120 . S
C738 C361 2.064 . S
C765 C329 1.458 . S
C753 C97 1.505 . S
C792 C364 1.141 . S
C780 C115 1.227 . S
C807 C149 1.217 . S
C819 C327 1.289 . S
C846 C359 1.550 . S
C834 C187 1.586 . S
C861 C212 1.885 . S
C873 C332 1.877 . S
C888 C255 1.498 . S
C900 C366 1.395 . S
C915 C8 1.501 . S
C927 C362 1.388 . S
C942 C153 2.126 . S
C954 C365 2.032 . S
C981 C333 1.494 . S
C969 C170 1.510 . S
C1008 C360 1.188 . S
C996 C208 1.200 . S
C1023 C238 1.559 . S
C1035 C326 1.552 . S
C1050 C76 1.573 . S
C1062 C363 1.573 . S
C1089 C328 1.907 . S
C1077 C119 1.924 . S
C1104 C38 1.271 . S
C1116 C331 1.305 . S
C1131 C242 0.166 . S
C1143 C398 0.630 . S
C1158 C165 1.422 . S
C1170 C399 1.308 . S
C1197 C393 1.075 . S
C1185 C174 1.021 . S
C1224 C392 1.667 . S
C1212 C204 1.695 . S
C1239 C34 1.386 . S
C1251 C395 1.371 . S
C1278 C397 1.045 . S
C1266 C81 1.058 . S
C1293 C131 1.705 . S
C1305 C396 1.656 . S
C1320 C13 0.325 . S
C1332 C394 0.489 . S
C1347 C267 1.700 . S
C1359 C432 1.603 . S
C1386 C464 1.871 . S
C1374 C144 1.901 . S
C1401 C199 1.344 . S
C1413 C425 1.333 . S
C1428 C217 1.271 . S
C1440 C459 1.321 . S
C1467 C430 1.140 . S
C1455 C47 1.200 . S
C1482 C85 1.805 . S
C1494 C461 1.744 . S
C1521 C427 2.051 . S
C1509 C110 2.113 . S
C1548 C462 1.389 . S
C1536 C17 1.395 . S
C1575 C458 1.380 . S
C1563 C246 1.362 . S
C1590 C51 1.918 . S
C1602 C460 1.903 . S
C1617 C68 1.338 . S
C1629 C429 1.365 . S
C1656 C463 1.351 . S
C1644 C106 1.296 . S
C1671 C0 1.711 . S
C1683 C428 1.602 . S
C1698 C178 1.828 . S
C1710 C465 1.723 . S
C1737 C431 2.039 . S
C1725 C221 2.122 . S
C1764 C426 1.122 . S
C1752 C140 1.136 . S
