# Generated by pormake.
# Topology ssb, (4,4)-cn, num edge types: 1
# Building blocks:
#     Node 0, Type 0, BuildingBlock: ESEHIV_clean_sbu_0, # of connection points: 4
#     Node 1, Type 0, BuildingBlock: ESEHIV_clean_sbu_0, # of connection points: 4
#     Node 2, Type 0, BuildingBlock: ESEHIV_clean_sbu_0, # of connection points: 4
#     Node 3, Type 0, BuildingBlock: ESEHIV_clean_sbu_0, # of connection points: 4
#     Node 4, Type 0, BuildingBlock: ESEHIV_clean_sbu_0, # of connection points: 4
#     Node 5, Type 0, BuildingBlock: ESEHIV_clean_sbu_0, # of connection points: 4
#     Node 6, Type 0, BuildingBlock: ESEHIV_clean_sbu_0, # of connection points: 4
#     Node 7, Type 0, BuildingBlock: ESEHIV_clean_sbu_0, # of connection points: 4
#     Node 8, Type 1, BuildingBlock: KOZSID_clean_sbu_0, # of connection points: 4
#     Node 9, Type 1, BuildingBlock: KOZSID_clean_sbu_0, # of connection points: 4
#     Node 10, Type 1, BuildingBlock: KOZSID_clean_sbu_0, # of connection points: 4
#     Node 11, Type 1, BuildingBlock: KOZSID_clean_sbu_0, # of connection points: 4
#     Node 12, Type 1, BuildingBlock: KOZSID_clean_sbu_0, # of connection points: 4
#     Node 13, Type 1, BuildingBlock: KOZSID_clean_sbu_0, # of connection points: 4
#     Node 14, Type 1, BuildingBlock: KOZSID_clean_sbu_0, # of connection points: 4
#     Node 15, Type 1, BuildingBlock: KOZSID_clean_sbu_0, # of connection points: 4
#     Edge 16, Type (0, 1), BuildingBlock: MIFKUJ_clean_linker_0, # of connection points: 2
#     Edge 17, Type (0, 1), BuildingBlock: MIFKUJ_clean_linker_0, # of connection points: 2
#     Edge 18, Type (0, 1), BuildingBlock: MIFKUJ_clean_linker_0, # of connection points: 2
#     Edge 19, Type (0, 1), BuildingBlock: MIFKUJ_clean_linker_0, # of connection points: 2
#     Edge 20, Type (0, 1), BuildingBlock: MIFKUJ_clean_linker_0, # of connection points: 2
#     Edge 21, Type (0, 1), BuildingBlock: MIFKUJ_clean_linker_0, # of connection points: 2
#     Edge 22, Type (0, 1), BuildingBlock: MIFKUJ_clean_linker_0, # of connection points: 2
#     Edge 23, Type (0, 1), BuildingBlock: MIFKUJ_clean_linker_0, # of connection points: 2
#     Edge 24, Type (0, 1), BuildingBlock: MIFKUJ_clean_linker_0, # of connection points: 2
#     Edge 25, Type (0, 1), BuildingBlock: MIFKUJ_clean_linker_0, # of connection points: 2
#     Edge 26, Type (0, 1), BuildingBlock: MIFKUJ_clean_linker_0, # of connection points: 2
#     Edge 27, Type (0, 1), BuildingBlock: MIFKUJ_clean_linker_0, # of connection points: 2
#     Edge 28, Type (0, 1), BuildingBlock: MIFKUJ_clean_linker_0, # of connection points: 2
#     Edge 29, Type (0, 1), BuildingBlock: MIFKUJ_clean_linker_0, # of connection points: 2
#     Edge 30, Type (0, 1), BuildingBlock: MIFKUJ_clean_linker_0, # of connection points: 2
#     Edge 31, Type (0, 1), BuildingBlock: MIFKUJ_clean_linker_0, # of connection points: 2
#     Edge 32, Type (0, 1), BuildingBlock: MIFKUJ_clean_linker_0, # of connection points: 2
#     Edge 33, Type (0, 1), BuildingBlock: MIFKUJ_clean_linker_0, # of connection points: 2
#     Edge 34, Type (0, 1), BuildingBlock: MIFKUJ_clean_linker_0, # of connection points: 2
#     Edge 35, Type (0, 1), BuildingBlock: MIFKUJ_clean_linker_0, # of connection points: 2
#     Edge 36, Type (0, 1), BuildingBlock: MIFKUJ_clean_linker_0, # of connection points: 2
#     Edge 37, Type (0, 1), BuildingBlock: MIFKUJ_clean_linker_0, # of connection points: 2
#     Edge 38, Type (0, 1), BuildingBlock: MIFKUJ_clean_linker_0, # of connection points: 2
#     Edge 39, Type (0, 1), BuildingBlock: MIFKUJ_clean_linker_0, # of connection points: 2
#     Edge 40, Type (0, 1), BuildingBlock: MIFKUJ_clean_linker_0, # of connection points: 2
#     Edge 41, Type (0, 1), BuildingBlock: MIFKUJ_clean_linker_0, # of connection points: 2
#     Edge 42, Type (0, 1), BuildingBlock: MIFKUJ_clean_linker_0, # of connection points: 2
#     Edge 43, Type (0, 1), BuildingBlock: MIFKUJ_clean_linker_0, # of connection points: 2
#     Edge 44, Type (0, 1), BuildingBlock: MIFKUJ_clean_linker_0, # of connection points: 2
#     Edge 45, Type (0, 1), BuildingBlock: MIFKUJ_clean_linker_0, # of connection points: 2
#     Edge 46, Type (0, 1), BuildingBlock: MIFKUJ_clean_linker_0, # of connection points: 2
#     Edge 47, Type (0, 1), BuildingBlock: MIFKUJ_clean_linker_0, # of connection points: 2
# Relax obj value: 0.003
# Max RMSD: 0.109
# Mean RMSD: 0.052
data_MOF--net-ssb--node1-ESEHIV_clean_sbu_0--node2-KOZSID_clean_sbu_0--edge1-MIFKUJ_clean_linker_0
_symmetry_space_group_name_H-M    P1
_symmetry_Int_Tables_number       1
_symmetry_cell_setting            triclinic
loop_
_symmetry_equiv_pos_as_xyz
'x, y, z'
_cell_length_a     69.914646
_cell_length_b     69.771513
_cell_length_c     51.366395
_cell_angle_alpha  91.929205
_cell_angle_beta   93.820477
_cell_angle_gamma 89.988959
loop_
_atom_site_label
_atom_site_type_symbol
_atom_site_fract_x
_atom_site_fract_y
_atom_site_fract_z
_atom_type_partial_charge
Cu0 Cu 0.27911 0.26046 0.26682 0.0
N1 N 0.27454 0.23361 0.26913 0.0
N2 N 0.27239 0.20446 0.28704 0.0
C3 C 0.27536 0.22361 0.29146 0.0
C4 C 0.26964 0.20251 0.26074 0.0
C5 C 0.27098 0.2203 0.24989 0.0
O6 O 0.26809 0.27174 0.29818 0.0
C7 C 0.31181 0.25858 0.2403 0.0
O8 O 0.29901 0.24985 0.22419 0.0
H9 H 0.27818 0.23037 0.31058 0.0
H10 H 0.26982 0.22319 0.22931 0.0
N11 N 0.26753 0.2728 0.23705 0.0
N12 N 0.26253 0.2954 0.2068 0.0
C13 C 0.27121 0.29103 0.23029 0.0
C14 C 0.25599 0.26546 0.21717 0.0
C15 C 0.25294 0.27926 0.1986 0.0
C16 C 0.24998 0.27465 0.29643 0.0
O17 O 0.24048 0.27155 0.27376 0.0
H18 H 0.28069 0.30066 0.24198 0.0
H19 H 0.25045 0.25097 0.21595 0.0
O20 O 0.30677 0.2642 0.26282 0.0
H21 H 0.26728 0.18912 0.24978 0.0
H22 H 0.24432 0.27748 0.18038 0.0
Cu23 Cu 0.78943 0.27453 0.25897 0.0
N24 N 0.77677 0.26595 0.22702 0.0
N25 N 0.75278 0.26253 0.19577 0.0
C26 C 0.75956 0.27249 0.21752 0.0
C27 C 0.76636 0.24926 0.19136 0.0
C28 C 0.7811 0.25141 0.21056 0.0
O29 O 0.78525 0.30213 0.26046 0.0
C30 C 0.78387 0.24209 0.28465 0.0
O31 O 0.79384 0.23646 0.26502 0.0
H32 H 0.75177 0.28383 0.22708 0.0
H33 H 0.79374 0.24255 0.21275 0.0
N34 N 0.81625 0.27044 0.26228 0.0
N35 N 0.8461 0.26913 0.28165 0.0
C36 C 0.82749 0.27379 0.28443 0.0
C37 C 0.82811 0.26342 0.24476 0.0
C38 C 0.84643 0.26259 0.25657 0.0
C39 C 0.79446 0.31069 0.24365 0.0
O40 O 0.80557 0.30045 0.22895 0.0
H41 H 0.82197 0.27962 0.30219 0.0
H42 H 0.82379 0.25914 0.22482 0.0
O43 O 0.77919 0.25974 0.28649 0.0
H44 H 0.76561 0.23856 0.17557 0.0
H45 H 0.85891 0.25727 0.24731 0.0
Cu46 Cu 0.77248 0.77947 0.26279 0.0
N47 N 0.78255 0.76627 0.23352 0.0
N48 N 0.78678 0.74224 0.20374 0.0
C49 C 0.77762 0.74818 0.22508 0.0
C50 C 0.79797 0.75733 0.19872 0.0
C51 C 0.79535 0.77199 0.21695 0.0
O52 O 0.74478 0.77485 0.25769 0.0
C53 C 0.80466 0.77459 0.29367 0.0
O54 O 0.81011 0.78376 0.27349 0.0
H55 H 0.76725 0.73967 0.23435 0.0
H56 H 0.80243 0.78579 0.21808 0.0
N57 N 0.77579 0.80657 0.26593 0.0
N58 N 0.77708 0.83618 0.28525 0.0
C59 C 0.77291 0.81736 0.2878 0.0
C60 C 0.78188 0.81904 0.24885 0.0
C61 C 0.78273 0.83719 0.26066 0.0
C62 C 0.73831 0.78027 0.23526 0.0
O63 O 0.75014 0.78869 0.2204 0.0
H64 H 0.76825 0.81137 0.30548 0.0
H65 H 0.78552 0.81526 0.22922 0.0
O66 O 0.78695 0.77005 0.29388 0.0
H67 H 0.80767 0.75777 0.1832 0.0
H68 H 0.78703 0.85016 0.25164 0.0
Cu69 Cu 0.25992 0.76471 0.25446 0.0
N70 N 0.27137 0.77915 0.2293 0.0
N71 N 0.2938 0.78798 0.20274 0.0
C72 C 0.28656 0.77353 0.21601 0.0
C73 C 0.28256 0.80325 0.20772 0.0
C74 C 0.26876 0.79776 0.22407 0.0
O75 O 0.2632 0.73774 0.24425 0.0
C76 C 0.2873 0.78158 0.29216 0.0
O77 O 0.29878 0.78198 0.27298 0.0
H78 H 0.29297 0.75945 0.21749 0.0
H79 H 0.25817 0.80692 0.23255 0.0
N80 N 0.23357 0.76977 0.25669 0.0
N81 N 0.20503 0.77228 0.27423 0.0
C82 C 0.22408 0.76934 0.27877 0.0
C83 C 0.22006 0.77332 0.23756 0.0
C84 C 0.20247 0.77476 0.24828 0.0
C85 C 0.25664 0.73329 0.22107 0.0
O86 O 0.24806 0.74668 0.20721 0.0
H87 H 0.23095 0.76636 0.29771 0.0
H88 H 0.22274 0.77456 0.2172 0.0
O89 O 0.27145 0.77257 0.2887 0.0
H90 H 0.28447 0.81751 0.20063 0.0
H91 H 0.18885 0.77747 0.23778 0.0
Cu92 Cu 0.27031 0.78582 0.76841 0.0
N93 N 0.28377 0.79827 0.79708 0.0
N94 N 0.30791 0.80458 0.82724 0.0
C95 C 0.29982 0.79156 0.80974 0.0
C96 C 0.29646 0.82015 0.82537 0.0
C97 C 0.28173 0.81628 0.80668 0.0
O98 O 0.27442 0.75791 0.77433 0.0
C99 C 0.27115 0.80099 0.71535 0.0
O100 O 0.2565 0.78979 0.7084 0.0
H101 H 0.30594 0.77771 0.80515 0.0
H102 H 0.27087 0.82624 0.79974 0.0
N103 N 0.24369 0.7902 0.76787 0.0
N104 N 0.21287 0.79013 0.75234 0.0
C105 C 0.23047 0.78236 0.7503 0.0
C106 C 0.23399 0.80299 0.78208 0.0
C107 C 0.21505 0.80299 0.77257 0.0
C108 C 0.26998 0.75261 0.7969 0.0
O109 O 0.26283 0.76549 0.81275 0.0
H110 H 0.23386 0.77145 0.73591 0.0
H111 H 0.24028 0.81217 0.79769 0.0
O112 O 0.27978 0.79926 0.73796 0.0
H113 H 0.29872 0.83359 0.83626 0.0
H114 H 0.204 0.81244 0.77929 0.0
Cu115 Cu 0.27414 0.26774 0.78863 0.0
N116 N 0.2622 0.27917 0.81672 0.0
N117 N 0.25559 0.301 0.8477 0.0
C118 C 0.26835 0.29495 0.83062 0.0
C119 C 0.24088 0.28841 0.84453 0.0
C120 C 0.24502 0.27495 0.82542 0.0
O121 O 0.30195 0.26939 0.79728 0.0
C122 C 0.24996 0.29071 0.75467 0.0
O123 O 0.24759 0.30114 0.77595 0.0
H124 H 0.2814 0.30249 0.82716 0.0
H125 H 0.23582 0.26336 0.81769 0.0
N126 N 0.26864 0.24157 0.78633 0.0
N127 N 0.26573 0.21187 0.76878 0.0
C128 C 0.27013 0.23033 0.76476 0.0
C129 C 0.26314 0.22988 0.80475 0.0
C130 C 0.26124 0.21153 0.79393 0.0
C131 C 0.31315 0.28386 0.79841 0.0
O132 O 0.30684 0.30031 0.78958 0.0
H133 H 0.27429 0.2357 0.74644 0.0
H134 H 0.26089 0.23433 0.82469 0.0
O135 O 0.26269 0.27753 0.75539 0.0
H136 H 0.22786 0.28913 0.85479 0.0
H137 H 0.2573 0.19888 0.80398 0.0
Cu138 Cu 0.77576 0.27822 0.76288 0.0
N139 N 0.78764 0.28829 0.73429 0.0
N140 N 0.81072 0.29377 0.70678 0.0
C141 C 0.80572 0.2843 0.72797 0.0
C142 C 0.79495 0.30409 0.6996 0.0
C143 C 0.78083 0.30067 0.71646 0.0
O144 O 0.78005 0.24997 0.75922 0.0
C145 C 0.78143 0.31146 0.79307 0.0
O146 O 0.77313 0.31729 0.77105 0.0
H147 H 0.81493 0.2745 0.73879 0.0
H148 H 0.7667 0.307 0.71594 0.0
N149 N 0.74901 0.28212 0.76253 0.0
N150 N 0.72004 0.28458 0.77875 0.0
C151 C 0.73908 0.28246 0.78422 0.0
C152 C 0.73576 0.28436 0.7426 0.0
C153 C 0.71788 0.28571 0.75254 0.0
C154 C 0.77091 0.24153 0.73952 0.0
O155 O 0.75934 0.25176 0.72441 0.0
H156 H 0.74568 0.28069 0.80366 0.0
H157 H 0.7388 0.28469 0.72225 0.0
O158 O 0.78524 0.29351 0.79468 0.0
H159 H 0.79364 0.31374 0.68355 0.0
H160 H 0.70434 0.28743 0.74136 0.0
Cu161 Cu 0.76547 0.7705 0.76208 0.0
N162 N 0.7624 0.74388 0.75816 0.0
N163 N 0.76211 0.71332 0.76988 0.0
C164 C 0.76481 0.73177 0.77796 0.0
C165 C 0.7576 0.71383 0.74394 0.0
C166 C 0.75787 0.73274 0.73672 0.0
O167 O 0.75144 0.77832 0.79287 0.0
C168 C 0.80582 0.76444 0.75754 0.0
O169 O 0.80178 0.74628 0.76019 0.0
H170 H 0.76856 0.73648 0.79794 0.0
H171 H 0.75521 0.73795 0.71723 0.0
N172 N 0.75452 0.78342 0.73355 0.0
N173 N 0.75102 0.807 0.70514 0.0
C174 C 0.76104 0.80046 0.72639 0.0
C175 C 0.7398 0.77886 0.71623 0.0
C176 C 0.73763 0.7934 0.69862 0.0
C177 C 0.73413 0.77219 0.79164 0.0
O178 O 0.72783 0.7624 0.7705 0.0
H179 H 0.77317 0.80775 0.73649 0.0
H180 H 0.73124 0.76597 0.7164 0.0
O181 O 0.79293 0.77703 0.76144 0.0
H182 H 0.7548 0.70143 0.73103 0.0
H183 H 0.72685 0.79399 0.68254 0.0
C184 C 0.0727 0.30586 0.56444 0.0
C185 C 0.07934 0.32405 0.57225 0.0
C186 C 0.06845 0.3368 0.55823 0.0
C187 C 0.05589 0.32579 0.54252 0.0
N188 N 0.05787 0.30673 0.54592 0.0
Co189 Co 0.04379 0.28565 0.52496 0.0
N190 N 0.02963 0.3044 0.50185 0.0
C191 C 0.03125 0.32373 0.50342 0.0
C192 C 0.01934 0.33292 0.48563 0.0
C193 C 0.00931 0.31863 0.47201 0.0
C194 C 0.01569 0.30148 0.48237 0.0
N195 N 0.02986 0.26453 0.50391 0.0
C196 C 0.01607 0.26532 0.48399 0.0
C197 C 0.0099 0.24714 0.47544 0.0
C198 C 0.01997 0.23442 0.49059 0.0
C199 C 0.03167 0.24549 0.50748 0.0
N200 N 0.05792 0.26691 0.54806 0.0
C201 C 0.05574 0.24763 0.54717 0.0
C202 C 0.06759 0.23843 0.56501 0.0
C203 C 0.07828 0.25263 0.57777 0.0
C204 C 0.07242 0.26975 0.56677 0.0
N205 N 0.02234 0.28695 0.54902 0.0
C206 C 0.98946 0.28867 0.5787 0.0
C207 C 0.99843 0.27121 0.5732 0.0
C208 C 0.01461 0.27067 0.55839 0.0
C209 C 0.99769 0.3053 0.56987 0.0
C210 C 0.01407 0.30415 0.55553 0.0
N211 N 0.06515 0.28439 0.50094 0.0
C212 C 0.08978 0.26634 0.47972 0.0
C213 C 0.09744 0.28307 0.47023 0.0
C214 C 0.0883 0.3004 0.47595 0.0
C215 C 0.07239 0.30073 0.49117 0.0
C216 C 0.07371 0.26729 0.4947 0.0
H217 H 0.06638 0.31446 0.4951 0.0
H218 H 0.06855 0.25402 0.50125 0.0
H219 H 0.02037 0.25685 0.55439 0.0
H220 H 0.0196 0.31741 0.54964 0.0
C221 C 0.0435 0.33282 0.5226 0.0
C222 C 0.08161 0.28819 0.57411 0.0
C223 C 0.00774 0.28286 0.47334 0.0
C224 C 0.04364 0.2385 0.52785 0.0
H225 H 0.09126 0.32781 0.58596 0.0
H226 H 0.07009 0.35224 0.55857 0.0
H227 H 0.01785 0.34821 0.48319 0.0
H228 H 0.99834 0.32061 0.45646 0.0
H229 H 0.99895 0.24346 0.4602 0.0
H230 H 0.01856 0.21896 0.48983 0.0
H231 H 0.06879 0.22316 0.5678 0.0
H232 H 0.08947 0.25057 0.59301 0.0
H233 H 0.99263 0.25789 0.57959 0.0
H234 H 0.99155 0.31923 0.57404 0.0
H235 H 0.09607 0.25248 0.47548 0.0
H236 H 0.09366 0.3138 0.46925 0.0
C237 C 0.7524 0.06846 0.55279 0.0
C238 C 0.73513 0.07818 0.55423 0.0
C239 C 0.72119 0.06678 0.54206 0.0
C240 C 0.7307 0.05129 0.5323 0.0
N241 N 0.74996 0.05237 0.53695 0.0
Co242 Co 0.76926 0.03633 0.51855 0.0
N243 N 0.74883 0.02034 0.49864 0.0
C244 C 0.72969 0.02243 0.49999 0.0
C245 C 0.71906 0.00921 0.48492 0.0
C246 C 0.73217 0.99792 0.47321 0.0
C247 C 0.75016 0.00498 0.48171 0.0
N248 N 0.78862 0.02016 0.50049 0.0
C249 C 0.78636 1.0047 0.48362 0.0
C250 C 0.80392 0.99777 0.47633 0.0
C251 C 0.8177 0.00897 0.48924 0.0
C252 C 0.80788 0.02211 0.50357 0.0
N253 N 0.78966 0.05249 0.53809 0.0
C254 C 0.80855 0.0519 0.53397 0.0
C255 C 0.81826 0.0682 0.54241 0.0
C256 C 0.80487 0.07963 0.55318 0.0
C257 C 0.78798 0.06911 0.55257 0.0
N258 N 0.77003 0.0178 0.54696 0.0
C259 C 0.77067 0.98561 0.57843 0.0
C260 C 0.78773 0.99465 0.57297 0.0
C261 C 0.78709 0.01075 0.55731 0.0
C262 C 0.75335 0.99403 0.56995 0.0
C263 C 0.75337 0.01022 0.55475 0.0
N264 N 0.76841 0.05498 0.48973 0.0
C265 C 0.78473 0.07678 0.46279 0.0
C266 C 0.7675 0.08589 0.45548 0.0
C267 C 0.75063 0.07831 0.46396 0.0
C268 C 0.75139 0.06282 0.4805 0.0
C269 C 0.78483 0.06137 0.47957 0.0
H270 H 0.73796 0.05759 0.48557 0.0
H271 H 0.7984 0.05506 0.48417 0.0
H272 H 0.80048 0.01691 0.55301 0.0
H273 H 0.73973 0.01599 0.54876 0.0
C274 C 0.72219 0.03695 0.51569 0.0
C275 C 0.77081 0.07498 0.5664 0.0
C276 C 0.76801 0.99627 0.47351 0.0
C277 C 0.81623 0.03715 0.51889 0.0
H278 H 0.73276 0.09245 0.5622 0.0
H279 H 0.70607 0.07001 0.53923 0.0
H280 H 0.70361 0.00786 0.48283 0.0
H281 H 0.72884 0.98576 0.46008 0.0
H282 H 0.80655 0.98595 0.46285 0.0
H283 H 0.83306 0.00784 0.48802 0.0
H284 H 0.83299 0.07186 0.5395 0.0
H285 H 0.80727 0.09434 0.55984 0.0
H286 H 0.80148 0.98882 0.57966 0.0
H287 H 0.7398 0.98789 0.57458 0.0
H288 H 0.79818 0.08182 0.45621 0.0
H289 H 0.73682 0.0843 0.45783 0.0
C290 C 0.03841 0.79391 0.56022 0.0
C291 C 0.04536 0.81197 0.56813 0.0
C292 C 0.03463 0.82492 0.55425 0.0
C293 C 0.02185 0.81411 0.53861 0.0
N294 N 0.02368 0.795 0.54169 0.0
Co295 Co 0.00845 0.77415 0.52184 0.0
N296 N 0.99271 0.79325 0.50134 0.0
C297 C 0.99452 0.81256 0.50304 0.0
C298 C 0.98103 0.82201 0.48774 0.0
C299 C 0.96973 0.80793 0.47578 0.0
C300 C 0.97707 0.7906 0.48439 0.0
N301 N 0.99326 0.7533 0.502 0.0
C302 C 0.97775 0.7544 0.48475 0.0
C303 C 0.97143 0.73634 0.47579 0.0
C304 C 0.98301 0.72336 0.48831 0.0
C305 C 0.99577 0.73417 0.50399 0.0
N306 N 0.02403 0.75502 0.54248 0.0
C307 C 0.02234 0.7357 0.54053 0.0
C308 C 0.03486 0.72625 0.55724 0.0
C309 C 0.04529 0.74034 0.57062 0.0
C310 C 0.03858 0.75766 0.56114 0.0
N311 N 0.98913 0.77493 0.54884 0.0
C312 C 0.96009 0.77624 0.58511 0.0
C313 C 0.96674 0.75876 0.57487 0.0
C314 C 0.98121 0.75844 0.55719 0.0
C315 C 0.96862 0.79301 0.57701 0.0
C316 C 0.98284 0.79205 0.559 0.0
N317 N 0.02784 0.77343 0.49471 0.0
C318 C 0.04901 0.75568 0.46696 0.0
C319 C 0.05672 0.77262 0.45826 0.0
C320 C 0.04946 0.78995 0.46779 0.0
C321 C 0.03505 0.79003 0.48553 0.0
C322 C 0.03486 0.7564 0.48515 0.0
H323 H 0.03006 0.80375 0.4916 0.0
H324 H 0.02999 0.74296 0.49137 0.0
H325 H 0.98562 0.74465 0.55028 0.0
H326 H 0.98845 0.8054 0.55349 0.0
C327 C 0.00815 0.82143 0.52056 0.0
C328 C 0.04666 0.77618 0.57037 0.0
C329 C 0.96818 0.77208 0.47686 0.0
C330 C 0.00922 0.72683 0.52232 0.0
H331 H 0.05714 0.81545 0.58224 0.0
H332 H 0.03611 0.84038 0.55523 0.0
H333 H 0.97923 0.83735 0.48616 0.0
H334 H 0.95721 0.81023 0.46273 0.0
H335 H 0.95942 0.73289 0.46205 0.0
H336 H 0.9819 0.70789 0.48676 0.0
H337 H 0.03634 0.71092 0.55929 0.0
H338 H 0.05665 0.73809 0.58556 0.0
H339 H 0.96064 0.74527 0.58003 0.0
H340 H 0.96451 0.80696 0.5846 0.0
H341 H 0.05419 0.74186 0.46025 0.0
H342 H 0.05474 0.80348 0.46136 0.0
C343 C 0.29755 0.97912 0.54939 0.0
C344 C 0.31548 0.97346 0.55958 0.0
C345 C 0.32862 0.98499 0.54934 0.0
C346 C 0.31811 0.99696 0.53337 0.0
N347 N 0.29897 0.99392 0.53289 0.0
Co348 Co 0.27878 0.00757 0.51067 0.0
N349 N 0.29834 0.0235 0.494 0.0
C350 C 0.31758 0.02253 0.49865 0.0
C351 C 0.32751 0.0351 0.48464 0.0
C352 C 0.31382 0.04484 0.47028 0.0
C353 C 0.2962 0.03775 0.47648 0.0
N354 N 0.25858 0.02129 0.48852 0.0
C355 C 0.26004 0.03584 0.47163 0.0
C356 C 0.2421 0.04163 0.4616 0.0
C357 C 0.22893 0.03041 0.47232 0.0
C358 C 0.23943 0.0185 0.48839 0.0
N359 N 0.25922 0.99155 0.52718 0.0
C360 C 0.23998 0.99247 0.52247 0.0
C361 C 0.23008 0.9797 0.53618 0.0
C362 C 0.24379 0.9698 0.5503 0.0
C363 C 0.2614 0.97702 0.54424 0.0
N364 N 0.27701 0.02779 0.53871 0.0
C365 C 0.27453 0.05711 0.57765 0.0
C366 C 0.25806 0.04822 0.56603 0.0
C367 C 0.25961 0.03376 0.54678 0.0
C368 C 0.29227 0.05093 0.5696 0.0
C369 C 0.29318 0.03636 0.55037 0.0
N370 N 0.28055 0.9872 0.4829 0.0
C371 C 0.26519 0.96212 0.4553 0.0
C372 C 0.28291 0.95396 0.45039 0.0
C373 C 0.29946 0.96352 0.46061 0.0
C374 C 0.29795 0.98004 0.47652 0.0
C375 C 0.26435 0.97867 0.4713 0.0
H376 H 0.31109 0.98641 0.48405 0.0
H377 H 0.25042 0.984 0.47455 0.0
H378 H 0.2465 0.02775 0.53861 0.0
H379 H 0.30714 0.03232 0.54524 0.0
C380 C 0.32585 0.01018 0.51709 0.0
C381 C 0.27972 0.96941 0.55511 0.0
C382 C 0.27791 0.04514 0.46517 0.0
C383 C 0.23169 0.00508 0.50439 0.0
H384 H 0.31884 0.96186 0.57255 0.0
H385 H 0.34406 0.9843 0.5525 0.0
H386 H 0.34288 0.0371 0.48507 0.0
H387 H 0.31653 0.056 0.45687 0.0
H388 H 0.23879 0.05304 0.44829 0.0
H389 H 0.21348 0.03114 0.46919 0.0
H390 H 0.21471 0.97764 0.53571 0.0
H391 H 0.24111 0.95843 0.56341 0.0
H392 H 0.24395 0.05261 0.57139 0.0
H393 H 0.30549 0.05717 0.57828 0.0
H394 H 0.25195 0.95564 0.44711 0.0
H395 H 0.31356 0.9579 0.45727 0.0
C396 C 0.55463 0.80128 0.06773 0.0
C397 C 0.56136 0.81844 0.0794 0.0
C398 C 0.55217 0.8328 0.06628 0.0
C399 C 0.54045 0.8237 0.04732 0.0
N400 N 0.54146 0.80434 0.04761 0.0
Co401 Co 0.52746 0.78568 0.02251 0.0
N402 N 0.51488 0.80692 1.00221 0.0
C403 C 0.51782 0.82596 0.00638 0.0
C404 C 0.50635 0.8371 0.99038 0.0
C405 C 0.49515 0.82445 0.97537 0.0
C406 C 0.5005 0.80622 0.98306 0.0
N407 N 0.51316 0.76702 0.99776 0.0
C408 C 0.49884 0.77011 0.97922 0.0
C409 C 0.49204 0.75307 0.96733 0.0
C410 C 0.50202 0.73865 0.97928 0.0
C411 C 0.51434 0.74767 0.99764 0.0
N412 N 0.54018 0.7644 0.04256 0.0
C413 C 0.53797 0.74535 0.03747 0.0
C414 C 0.54872 0.73417 0.05426 0.0
C415 C 0.55865 0.74681 0.07088 0.0
C416 C 0.55344 0.76507 0.06313 0.0
N417 N 0.50538 0.78552 0.04526 0.0
C418 C 0.47151 0.78534 0.07295 0.0
C419 C 0.48066 0.76824 0.06587 0.0
C420 C 0.49733 0.76865 0.05213 0.0
C421 C 0.48015 0.80253 0.06656 0.0
C422 C 0.49696 0.8023 0.05314 0.0
N423 N 0.54956 0.78587 0.99951 0.0
C424 C 0.57226 0.76898 0.97324 0.0
C425 C 0.58171 0.78605 0.96832 0.0
C426 C 0.57461 0.80303 0.97926 0.0
C427 C 0.55872 0.80263 0.99453 0.0
C428 C 0.55643 0.76921 0.98868 0.0
H429 H 0.55416 0.81611 1.00212 0.0
H430 H 0.5501 0.75567 0.99171 0.0
H431 H 0.50331 0.75511 0.04695 0.0
H432 H 0.5027 0.81591 0.04889 0.0
C433 C 0.52952 0.83292 0.02772 0.0
C434 C 0.56192 0.78251 0.07554 0.0
C435 C 0.49061 0.78877 0.97307 0.0
C436 C 0.52592 0.7384 0.01648 0.0
H437 H 0.57219 0.82046 0.09531 0.0
H438 H 0.55426 0.84808 0.06961 0.0
H439 H 0.50549 0.85259 0.99059 0.0
H440 H 0.4838 0.82829 0.96116 0.0
H441 H 0.48063 0.75127 0.95212 0.0
H442 H 0.5 0.72338 0.97572 0.0
H443 H 0.54944 0.71867 0.05421 0.0
H444 H 0.56879 0.74302 0.08672 0.0
H445 H 0.47505 0.75448 0.07084 0.0
H446 H 0.47377 0.81626 0.07123 0.0
H447 H 0.57721 0.75535 0.96556 0.0
H448 H 0.58111 0.81672 0.97581 0.0
C449 C 0.25441 0.55536 0.05195 0.0
C450 C 0.23728 0.56244 0.06057 0.0
C451 C 0.22292 0.55423 0.04472 0.0
C452 C 0.23203 0.54258 0.02748 0.0
N453 N 0.25134 0.54259 0.03159 0.0
Co454 Co 0.27004 0.52823 0.01033 0.0
N455 N 0.24886 0.51555 0.98786 0.0
C456 C 0.22981 0.51809 0.98947 0.0
C457 C 0.21876 0.50627 0.97274 0.0
C458 C 0.23154 0.49506 0.96026 0.0
C459 C 0.24966 0.50075 0.97022 0.0
N460 N 0.28868 0.51449 0.98835 0.0
C461 C 0.28565 0.50007 0.97018 0.0
C462 C 0.30272 0.49378 0.96051 0.0
C463 C 0.31701 0.50445 0.97329 0.0
C464 C 0.30794 0.51654 0.99005 0.0
N465 N 0.29124 0.54011 0.03376 0.0
C466 C 0.31025 0.53723 0.03211 0.0
C467 C 0.32142 0.54729 0.05078 0.0
C468 C 0.30881 0.55726 0.0652 0.0
C469 C 0.29057 0.55268 0.05444 0.0
N470 N 0.26974 0.50578 0.03384 0.0
C471 C 0.26856 0.47189 0.0631 0.0
C472 C 0.2853 0.4775 0.05194 0.0
C473 C 0.28569 0.49449 0.03799 0.0
C474 C 0.25254 0.48382 0.05986 0.0
C475 C 0.25334 0.50041 0.04504 0.0
N476 N 0.27037 0.55064 0.98638 0.0
C477 C 0.28767 0.57591 0.96605 0.0
C478 C 0.27103 0.58219 0.95217 0.0
C479 C 0.25403 0.57232 0.95593 0.0
C480 C 0.25398 0.55692 0.97302 0.0
C481 C 0.28706 0.5603 0.98266 0.0
H482 H 0.24042 0.5504 0.97511 0.0
H483 H 0.30039 0.55634 0.99222 0.0
H484 H 0.29905 0.4981 0.03043 0.0
H485 H 0.24041 0.50854 0.04254 0.0
C486 C 0.22283 0.53089 0.00796 0.0
C487 C 0.27317 0.56157 0.06342 0.0
C488 C 0.26713 0.49086 0.96364 0.0
C489 C 0.31715 0.52674 0.01111 0.0
H490 H 0.23536 0.5726 0.07657 0.0
H491 H 0.20766 0.55645 0.0457 0.0
H492 H 0.20328 0.50539 0.97062 0.0
H493 H 0.22797 0.48356 0.94609 0.0
H494 H 0.30485 0.48207 0.94671 0.0
H495 H 0.33229 0.50255 0.97199 0.0
H496 H 0.33692 0.54788 0.05302 0.0
H497 H 0.31266 0.56721 0.0813 0.0
H498 H 0.29816 0.46888 0.05419 0.0
H499 H 0.23924 0.48009 0.06816 0.0
H500 H 0.30131 0.5828 0.96381 0.0
H501 H 0.24063 0.57664 0.94606 0.0
C502 C 0.49354 0.29451 0.98256 0.0
C503 C 0.48464 0.31211 0.97878 0.0
C504 C 0.49183 0.32437 0.99838 0.0
C505 C 0.50464 0.31368 0.01311 0.0
N506 N 0.50623 0.29548 1.00384 0.0
Co507 Co 0.52199 0.27517 0.02119 0.0
N508 N 0.5371 0.29426 0.04366 0.0
C509 C 0.53201 0.31252 0.04869 0.0
C510 C 0.54537 0.32237 0.06478 0.0
C511 C 0.55976 0.30946 0.07025 0.0
C512 C 0.55436 0.29242 0.05708 0.0
N513 N 0.5377 0.25499 0.03881 0.0
C514 C 0.55486 0.2564 0.05277 0.0
C515 C 0.56111 0.23853 0.06083 0.0
C516 C 0.54727 0.22559 0.05182 0.0
C517 C 0.53344 0.23618 0.03867 0.0
N518 N 0.50696 0.25594 0.9987 0.0
C519 C 0.50655 0.23692 1.0024 0.0
C520 C 0.49536 0.22699 0.98359 0.0
C521 C 0.48794 0.24062 0.96726 0.0
C522 C 0.4948 0.25824 0.97725 0.0
N523 N 0.5409 0.27679 0.99463 0.0
C524 C 0.56976 0.27903 0.95905 0.0
C525 C 0.56219 0.26129 0.96538 0.0
C526 C 0.54791 0.26048 0.98321 0.0
C527 C 0.56227 0.29565 0.97067 0.0
C528 C 0.54781 0.29423 0.98817 0.0
N529 N 0.50305 0.27359 0.04794 0.0
C530 C 0.47006 0.27233 0.05908 0.0
C531 C 0.47555 0.27268 0.0859 0.0
C532 C 0.49531 0.2731 0.09314 0.0
C533 C 0.50875 0.27345 0.07396 0.0
C534 C 0.48387 0.27293 0.04064 0.0
H535 H 0.52379 0.27379 0.08025 0.0
H536 H 0.47887 0.27293 0.02039 0.0
H537 H 0.54276 0.24658 0.98803 0.0
H538 H 0.54239 0.30728 0.99673 0.0
C539 C 0.51652 0.32062 0.03437 0.0
C540 C 0.48766 0.2768 0.96765 0.0
C541 C 0.5652 0.27447 0.0593 0.0
C542 C 0.51861 0.22869 0.02177 0.0
H543 H 0.47359 0.31565 0.96398 0.0
H544 H 0.48816 0.3393 1.00148 0.0
H545 H 0.54507 0.33735 0.07094 0.0
H546 H 0.5727 0.31221 0.08257 0.0
H547 H 0.57437 0.23511 0.07173 0.0
H548 H 0.54779 0.21016 0.05342 0.0
H549 H 0.49317 0.21164 0.98165 0.0
H550 H 0.47821 0.23788 0.95026 0.0
H551 H 0.56759 0.24804 0.9571 0.0
H552 H 0.56744 0.3097 0.96615 0.0
H553 H 0.45512 0.27146 0.05214 0.0
H554 H 0.50046 0.27352 0.11349 0.0
C555 C 0.76035 0.54926 0.04921 0.0
C556 C 0.74252 0.5566 0.05454 0.0
C557 C 0.72913 0.54447 0.0425 0.0
C558 C 0.73942 0.53047 0.03038 0.0
N559 N 0.75863 0.53284 0.03401 0.0
Co560 Co 0.77868 0.51593 0.01874 0.0
N561 N 0.75888 0.49882 0.99946 0.0
C562 C 0.73963 0.50086 0.99944 0.0
C563 C 0.72957 0.48704 0.98468 0.0
C564 C 0.74317 0.4754 0.97467 0.0
C565 C 0.76085 0.4828 0.98392 0.0
N566 N 0.79875 0.49891 1.00372 0.0
C567 C 0.79705 0.48273 0.98808 0.0
C568 C 0.81485 0.47537 0.98268 0.0
C569 C 0.82825 0.48712 0.99545 0.0
C570 C 0.81795 0.50097 0.00787 0.0
N571 N 0.79851 0.53317 0.03769 0.0
C572 C 0.81775 0.53112 0.03768 0.0
C573 C 0.82786 0.54508 0.05207 0.0
C574 C 0.81431 0.55693 0.06169 0.0
C575 C 0.79659 0.54958 0.05246 0.0
N576 N 0.77853 0.49933 0.04955 0.0
C577 C 0.77831 0.47427 0.09176 0.0
C578 C 0.79545 0.48193 0.08399 0.0
C579 C 0.79524 0.49422 0.06301 0.0
C580 C 0.76126 0.47979 0.07832 0.0
C581 C 0.76169 0.49228 0.05765 0.0
N582 N 0.77876 0.53256 0.98804 0.0
C583 C 0.79583 0.55165 0.95856 0.0
C584 C 0.7786 0.55846 0.94692 0.0
C585 C 0.7615 0.55165 0.9558 0.0
C586 C 0.76191 0.53883 0.9761 0.0
C587 C 0.79558 0.53873 0.97881 0.0
H588 H 0.74836 0.53446 0.98207 0.0
H589 H 0.80916 0.5341 0.98689 0.0
H590 H 0.80881 0.4993 0.05797 0.0
H591 H 0.74818 0.49582 0.04836 0.0
C592 C 0.73148 0.51559 0.01417 0.0
C593 C 0.77843 0.5588 0.05832 0.0
C594 C 0.77902 0.47377 0.9778 0.0
C595 C 0.82589 0.51605 0.02363 0.0
H596 H 0.73945 0.56959 0.06557 0.0
H597 H 0.7137 0.54595 0.04208 0.0
H598 H 0.71417 0.48548 0.98179 0.0
H599 H 0.7404 0.46276 0.9622 0.0
H600 H 0.81784 0.46277 0.97076 0.0
H601 H 0.84368 0.48568 0.99573 0.0
H602 H 0.84327 0.54653 0.05507 0.0
H603 H 0.81718 0.56961 0.07404 0.0
H604 H 0.80907 0.47852 0.09403 0.0
H605 H 0.74757 0.47418 0.08322 0.0
H606 H 0.80947 0.55625 0.95209 0.0
H607 H 0.74776 0.55659 0.94763 0.0
H608 H 0.21808 0.29653 0.29746 0.0
H609 H 0.19571 0.29932 0.33189 0.0
H610 H 0.23303 0.26477 0.38129 0.0
H611 H 0.25578 0.26213 0.34667 0.0
H612 H 0.19484 0.25164 0.3765 0.0
H613 H 0.22754 0.31055 0.39831 0.0
H614 H 0.24178 0.34192 0.39012 0.0
H615 H 0.18665 0.36272 0.36208 0.0
H616 H 0.17211 0.33137 0.36975 0.0
H617 H 0.1303 0.26183 0.47854 0.0
H618 H 0.15891 0.26149 0.45353 0.0
H619 H 0.13266 0.3027 0.40164 0.0
H620 H 0.10417 0.30328 0.42676 0.0
H621 H 0.16841 0.31228 0.41218 0.0
H622 H 0.13633 0.25328 0.38514 0.0
H623 H 0.12141 0.22185 0.39119 0.0
H624 H 0.17447 0.20121 0.42672 0.0
H625 H 0.18964 0.23261 0.42118 0.0
C626 C 0.22179 0.28992 0.31591 0.0
C627 C 0.23879 0.27926 0.31942 0.0
C628 C 0.20895 0.29152 0.33561 0.0
C629 C 0.21263 0.28229 0.35928 0.0
C630 C 0.22989 0.27206 0.36323 0.0
C631 C 0.24298 0.27073 0.34357 0.0
C632 C 0.19769 0.28237 0.37882 0.0
C633 C 0.18934 0.26488 0.3848 0.0
C634 C 0.19009 0.29964 0.38907 0.0
C635 C 0.19876 0.31854 0.38444 0.0
C636 C 0.21848 0.32176 0.3902 0.0
C637 C 0.2266 0.33955 0.38569 0.0
C638 C 0.21513 0.35429 0.37554 0.0
C639 C 0.19551 0.35128 0.36993 0.0
C640 C 0.18732 0.33351 0.37439 0.0
C641 C 0.13054 0.2707 0.46166 0.0
C642 C 0.11483 0.28254 0.45467 0.0
C643 C 0.14696 0.2705 0.44734 0.0
C644 C 0.148 0.28191 0.42539 0.0
C645 C 0.13235 0.2938 0.41848 0.0
C646 C 0.11601 0.29412 0.43291 0.0
C647 C 0.16529 0.28155 0.40959 0.0
C648 C 0.17404 0.299 0.40423 0.0
C649 C 0.17314 0.26424 0.39968 0.0
C650 C 0.16405 0.24536 0.40303 0.0
C651 C 0.14477 0.24208 0.39444 0.0
C652 C 0.13628 0.22427 0.39774 0.0
C653 C 0.14697 0.20956 0.40941 0.0
C654 C 0.1662 0.21263 0.41774 0.0
C655 C 0.17475 0.23043 0.41451 0.0
H656 H 0.14037 0.19578 0.41194 0.0
H657 H 0.22145 0.36806 0.37206 0.0
H658 H 0.76164 0.24651 0.32721 0.0
H659 H 0.75458 0.22186 0.35849 0.0
H660 H 0.78907 0.18124 0.3172 0.0
H661 H 0.79574 0.20522 0.28611 0.0
H662 H 0.75698 0.16492 0.32767 0.0
H663 H 0.80513 0.20509 0.37558 0.0
H664 H 0.81772 0.23549 0.39583 0.0
H665 H 0.77007 0.23884 0.44437 0.0
H666 H 0.75707 0.20856 0.42416 0.0
H667 H 0.7872 0.09215 0.41219 0.0
H668 H 0.78611 0.12055 0.38543 0.0
H669 H 0.74561 0.14704 0.43515 0.0
H670 H 0.7468 0.11873 0.46221 0.0
H671 H 0.77448 0.17224 0.42266 0.0
H672 H 0.72912 0.12922 0.37829 0.0
H673 H 0.71759 0.09835 0.35838 0.0
H674 H 0.76086 0.10011 0.30298 0.0
H675 H 0.77284 0.13087 0.3228 0.0
C676 C 0.76764 0.2323 0.32487 0.0
C677 C 0.77919 0.22786 0.3041 0.0
C678 C 0.76366 0.21825 0.34277 0.0
C679 C 0.77133 0.19966 0.34023 0.0
C680 C 0.78285 0.19537 0.31952 0.0
C681 C 0.7867 0.20922 0.30173 0.0
C682 C 0.76769 0.18435 0.35877 0.0
C683 C 0.76087 0.16654 0.34843 0.0
C684 C 0.77219 0.18655 0.386 0.0
C685 C 0.78001 0.20471 0.39814 0.0
C686 C 0.79726 0.2124 0.39042 0.0
C687 C 0.80449 0.22958 0.40192 0.0
C688 C 0.79467 0.23912 0.42131 0.0
C689 C 0.77763 0.23146 0.4293 0.0
C690 C 0.77033 0.21429 0.41784 0.0
C691 C 0.77817 0.10406 0.41753 0.0
C692 C 0.76701 0.10315 0.43923 0.0
C693 C 0.77746 0.12023 0.40215 0.0
C694 C 0.76563 0.13583 0.40817 0.0
C695 C 0.75477 0.13514 0.43011 0.0
C696 C 0.75536 0.1189 0.4454 0.0
C697 C 0.76455 0.15271 0.39128 0.0
C698 C 0.77033 0.17075 0.40196 0.0
C699 C 0.75922 0.15073 0.36429 0.0
C700 C 0.75196 0.1323 0.35216 0.0
C701 C 0.73626 0.12296 0.36197 0.0
C702 C 0.72963 0.10549 0.35069 0.0
C703 C 0.73851 0.09726 0.32945 0.0
C704 C 0.754 0.1065 0.31943 0.0
C705 C 0.76071 0.12397 0.33066 0.0
H706 H 0.73335 0.08372 0.32074 0.0
H707 H 0.80028 0.25242 0.43019 0.0
H708 H 0.84284 0.78071 0.29364 0.0
H709 H 0.86742 0.77653 0.32831 0.0
H710 H 0.82522 0.75557 0.37794 0.0
H711 H 0.79992 0.76016 0.34278 0.0
H712 H 0.85044 0.78107 0.40451 0.0
H713 H 0.85652 0.72433 0.35265 0.0
H714 H 0.85837 0.7044 0.31235 0.0
H715 H 0.91002 0.73342 0.29542 0.0
H716 H 0.90834 0.75373 0.33542 0.0
H717 H 0.93324 0.7606 0.49139 0.0
H718 H 0.9031 0.75737 0.46403 0.0
H719 H 0.93166 0.77781 0.39834 0.0
H720 H 0.96178 0.78062 0.4256 0.0
H721 H 0.91024 0.7469 0.38446 0.0
H722 H 0.90072 0.8064 0.43436 0.0
H723 H 0.89866 0.82545 0.47541 0.0
H724 H 0.8531 0.78928 0.49725 0.0
H725 H 0.85504 0.76988 0.45643 0.0
C726 C 0.83858 0.77511 0.3118 0.0
C727 C 0.81928 0.7707 0.31527 0.0
C728 C 0.8528 0.77263 0.33168 0.0
C729 C 0.84833 0.76543 0.35568 0.0
C730 C 0.82906 0.76104 0.35951 0.0
C731 C 0.81463 0.76356 0.33938 0.0
C732 C 0.86409 0.76302 0.3764 0.0
C733 C 0.86335 0.77322 0.40038 0.0
C734 C 0.88105 0.75291 0.37106 0.0
C735 C 0.88225 0.74062 0.34703 0.0
C736 C 0.86822 0.72655 0.34027 0.0
C737 C 0.86924 0.71517 0.31747 0.0
C738 C 0.88429 0.71766 0.30132 0.0
C739 C 0.89838 0.7315 0.30796 0.0
C740 C 0.89741 0.74293 0.33072 0.0
C741 C 0.93294 0.76449 0.47113 0.0
C742 C 0.94968 0.77104 0.46057 0.0
C743 C 0.91575 0.7627 0.45553 0.0
C744 C 0.91499 0.76753 0.42911 0.0
C745 C 0.93182 0.77402 0.41863 0.0
C746 C 0.94899 0.77574 0.43419 0.0
C747 C 0.89689 0.76557 0.41207 0.0
C748 C 0.89722 0.75448 0.38879 0.0
C749 C 0.87955 0.77468 0.41823 0.0
C750 C 0.87815 0.78659 0.44248 0.0
C751 C 0.89033 0.80246 0.44798 0.0
C752 C 0.88917 0.81332 0.4712 0.0
C753 C 0.87579 0.80855 0.48897 0.0
C754 C 0.86348 0.79295 0.48349 0.0
C755 C 0.86458 0.78203 0.46031 0.0
H756 H 0.87494 0.81695 0.50695 0.0
H757 H 0.88506 0.70884 0.28368 0.0
H758 H 0.31587 0.80827 0.30098 0.0
H759 H 0.31666 0.83542 0.33215 0.0
H760 H 0.26612 0.81391 0.36528 0.0
H761 H 0.26494 0.78689 0.33368 0.0
H762 H 0.26112 0.8498 0.35327 0.0
H763 H 0.31095 0.81562 0.39981 0.0
H764 H 0.34123 0.79768 0.40577 0.0
H765 H 0.37255 0.8463 0.38196 0.0
H766 H 0.34242 0.86445 0.37551 0.0
H767 H 0.26022 0.92228 0.45348 0.0
H768 H 0.26239 0.89143 0.43001 0.0
H769 H 0.31071 0.91209 0.39101 0.0
H770 H 0.30853 0.94314 0.41429 0.0
H771 H 0.3168 0.87587 0.40812 0.0
H772 H 0.26679 0.90916 0.35935 0.0
H773 H 0.23653 0.92711 0.35327 0.0
H774 H 0.20557 0.87973 0.38138 0.0
H775 H 0.23571 0.8616 0.38798 0.0
C776 C 0.30517 0.80902 0.31529 0.0
C777 C 0.29025 0.79544 0.31465 0.0
C778 C 0.30568 0.82458 0.3332 0.0
C779 C 0.29145 0.82677 0.35113 0.0
C780 C 0.27721 0.8126 0.35157 0.0
C781 C 0.27662 0.79708 0.33356 0.0
C782 C 0.29032 0.84471 0.36749 0.0
C783 C 0.2732 0.85527 0.36568 0.0
C784 C 0.30623 0.85221 0.38308 0.0
C785 C 0.32439 0.84134 0.38696 0.0
C786 C 0.32427 0.82244 0.39564 0.0
C787 C 0.34141 0.81224 0.39915 0.0
C788 C 0.35879 0.82083 0.39419 0.0
C789 C 0.35907 0.83965 0.38577 0.0
C790 C 0.34197 0.84991 0.38222 0.0
C791 C 0.27116 0.92039 0.43966 0.0
C792 C 0.2841 0.93529 0.43562 0.0
C793 C 0.27245 0.90268 0.42635 0.0
C794 C 0.28661 0.89948 0.40857 0.0
C795 C 0.29969 0.91422 0.40469 0.0
C796 C 0.29843 0.93196 0.41802 0.0
C797 C 0.28763 0.88083 0.39385 0.0
C798 C 0.30471 0.87024 0.39589 0.0
C799 C 0.27169 0.87325 0.37845 0.0
C800 C 0.25354 0.88411 0.37441 0.0
C801 C 0.25355 0.90263 0.36443 0.0
C802 C 0.23642 0.91283 0.36086 0.0
C803 C 0.21914 0.90458 0.367 0.0
C804 C 0.21896 0.88611 0.37667 0.0
C805 C 0.23607 0.87586 0.38031 0.0
H806 H 0.20589 0.9125 0.36421 0.0
H807 H 0.37205 0.81291 0.39692 0.0
H808 H 0.17574 0.79735 0.76231 0.0
H809 H 0.14753 0.79421 0.73178 0.0
H810 H 0.18298 0.77249 0.67192 0.0
H811 H 0.21133 0.77629 0.70197 0.0
H812 H 0.15889 0.79817 0.6523 0.0
H813 H 0.15288 0.74291 0.70411 0.0
H814 H 0.15117 0.72529 0.74471 0.0
H815 H 0.10107 0.75719 0.76333 0.0
H816 H 0.10263 0.7752 0.723 0.0
H817 H 0.08333 0.76545 0.56221 0.0
H818 H 0.11144 0.76675 0.59355 0.0
H819 H 0.07631 0.79009 0.65285 0.0
H820 H 0.04814 0.78841 0.62153 0.0
H821 H 0.10018 0.76333 0.67271 0.0
H822 H 0.10638 0.81859 0.62067 0.0
H823 H 0.108 0.83578 0.57971 0.0
H824 H 0.1579 0.80347 0.56131 0.0
H825 H 0.1564 0.78586 0.60199 0.0
C826 C 0.1776 0.79194 0.74266 0.0
C827 C 0.19595 0.78706 0.73478 0.0
C828 C 0.16137 0.78997 0.72523 0.0
C829 C 0.16302 0.78291 0.69952 0.0
C830 C 0.18127 0.77792 0.69163 0.0
C831 C 0.19751 0.77993 0.70902 0.0
C832 C 0.14584 0.78123 0.68064 0.0
C833 C 0.14617 0.7903 0.65665 0.0
C834 C 0.12899 0.77137 0.68643 0.0
C835 C 0.12799 0.76053 0.71066 0.0
C836 C 0.14158 0.74627 0.71696 0.0
C837 C 0.14063 0.73619 0.73991 0.0
C838 C 0.12605 0.74015 0.75662 0.0
C839 C 0.11237 0.75416 0.75039 0.0
C840 C 0.11327 0.76429 0.72747 0.0
C841 C 0.08169 0.77082 0.58197 0.0
C842 C 0.06369 0.77693 0.58952 0.0
C843 C 0.09773 0.77164 0.59984 0.0
C844 C 0.09609 0.77876 0.62555 0.0
C845 C 0.07798 0.78458 0.63317 0.0
C846 C 0.06193 0.78371 0.6153 0.0
C847 C 0.11327 0.78024 0.64441 0.0
C848 C 0.11292 0.77117 0.66838 0.0
C849 C 0.13012 0.79007 0.6386 0.0
C850 C 0.13117 0.80079 0.61427 0.0
C851 C 0.11762 0.81506 0.60781 0.0
C852 C 0.11852 0.82488 0.58465 0.0
C853 C 0.13302 0.82069 0.56789 0.0
C854 C 0.14667 0.80669 0.57429 0.0
C855 C 0.14581 0.79679 0.59741 0.0
H856 H 0.13369 0.82831 0.54996 0.0
H857 H 0.12533 0.73233 0.77438 0.0
H858 H 0.28789 0.20833 0.72753 0.0
H859 H 0.28828 0.18172 0.69557 0.0
H860 H 0.24522 0.15236 0.73561 0.0
H861 H 0.24478 0.17903 0.76781 0.0
H862 H 0.27266 0.12799 0.72193 0.0
H863 H 0.2336 0.17499 0.67865 0.0
H864 H 0.22539 0.20705 0.6625 0.0
H865 H 0.2733 0.20482 0.61436 0.0
H866 H 0.28198 0.17286 0.63052 0.0
H867 H 0.25084 0.05928 0.61812 0.0
H868 H 0.24851 0.08531 0.65088 0.0
H869 H 0.29301 0.11632 0.6159 0.0
H870 H 0.29512 0.09057 0.58271 0.0
H871 H 0.26328 0.13955 0.62715 0.0
H872 H 0.30265 0.09272 0.67182 0.0
H873 H 0.31055 0.06066 0.68821 0.0
H874 H 0.26119 0.0625 0.73369 0.0
H875 H 0.25285 0.09448 0.71729 0.0
C876 C 0.27835 0.19632 0.72945 0.0
C877 C 0.26617 0.19592 0.75015 0.0
C878 C 0.27861 0.18108 0.71114 0.0
C879 C 0.26656 0.16515 0.71291 0.0
C880 C 0.25462 0.16451 0.73381 0.0
C881 C 0.25442 0.17975 0.75224 0.0
C882 C 0.26654 0.14917 0.69299 0.0
C883 C 0.2703 0.13048 0.70123 0.0
C884 C 0.26381 0.15243 0.66592 0.0
C885 C 0.25854 0.17159 0.65598 0.0
C886 C 0.24247 0.18139 0.66476 0.0
C887 C 0.23772 0.19954 0.65558 0.0
C888 C 0.24884 0.20798 0.63746 0.0
C889 C 0.26471 0.19827 0.62842 0.0
C890 C 0.26954 0.18013 0.63756 0.0
C891 C 0.26005 0.0717 0.61729 0.0
C892 C 0.27321 0.07281 0.59782 0.0
C893 C 0.2588 0.0865 0.63617 0.0
C894 C 0.27071 0.1027 0.636 0.0
C895 C 0.28372 0.10394 0.61646 0.0
C896 C 0.28502 0.08913 0.59763 0.0
C897 C 0.26957 0.11842 0.6561 0.0
C898 C 0.26555 0.13707 0.64786 0.0
C899 C 0.27198 0.1151 0.68316 0.0
C900 C 0.27701 0.0959 0.69311 0.0
C901 C 0.29339 0.08622 0.68515 0.0
C902 C 0.29797 0.06807 0.69447 0.0
C903 C 0.28635 0.05952 0.71192 0.0
C904 C 0.27016 0.06913 0.72014 0.0
C905 C 0.26551 0.08727 0.71086 0.0
H906 H 0.28991 0.04548 0.71912 0.0
H907 H 0.24514 0.22204 0.63038 0.0
H908 H 0.81852 0.30703 0.65907 0.0
H909 H 0.84898 0.30648 0.63893 0.0
H910 H 0.8753 0.27801 0.70531 0.0
H911 H 0.84502 0.27928 0.72629 0.0
H912 H 0.89947 0.30322 0.69084 0.0
H913 H 0.86348 0.25352 0.6454 0.0
H914 H 0.83591 0.23816 0.62092 0.0
H915 H 0.84027 0.27755 0.55912 0.0
H916 H 0.86794 0.2933 0.58345 0.0
H917 H 0.98127 0.27023 0.62317 0.0
H918 H 0.95147 0.27148 0.64595 0.0
H919 H 0.92696 0.30998 0.58898 0.0
H920 H 0.95673 0.30893 0.5663 0.0
H921 H 0.90249 0.27909 0.59925 0.0
H922 H 0.94074 0.32768 0.6469 0.0
H923 H 0.9694 0.34025 0.67245 0.0
H924 H 0.96162 0.29926 0.73138 0.0
H925 H 0.93306 0.28625 0.70597 0.0
C926 C 0.83069 0.30076 0.66968 0.0
C927 C 0.82894 0.29316 0.69453 0.0
C928 C 0.84822 0.30028 0.65788 0.0
C929 C 0.86456 0.29192 0.67027 0.0
C930 C 0.86299 0.2845 0.69516 0.0
C931 C 0.84546 0.28509 0.7071 0.0
C932 C 0.88319 0.29097 0.65724 0.0
C933 C 0.90011 0.29769 0.67093 0.0
C934 C 0.88425 0.28398 0.63111 0.0
C935 C 0.86762 0.27471 0.61637 0.0
C936 C 0.85847 0.25901 0.62668 0.0
C937 C 0.84283 0.25021 0.61279 0.0
C938 C 0.83623 0.2569 0.58849 0.0
C939 C 0.84536 0.2724 0.57797 0.0
C940 C 0.86105 0.28125 0.59179 0.0
C941 C 0.96953 0.27896 0.61551 0.0
C942 C 0.97144 0.28953 0.59293 0.0
C943 C 0.95253 0.27975 0.62863 0.0
C944 C 0.93695 0.2909 0.61929 0.0
C945 C 0.93876 0.30131 0.59663 0.0
C946 C 0.95585 0.30078 0.58376 0.0
C947 C 0.91862 0.29146 0.63278 0.0
C948 C 0.90178 0.28464 0.61915 0.0
C949 C 0.91774 0.29803 0.65908 0.0
C950 C 0.93488 0.30585 0.67439 0.0
C951 C 0.94524 0.32122 0.66518 0.0
C952 C 0.96145 0.32845 0.67967 0.0
C953 C 0.96736 0.32052 0.70349 0.0
C954 C 0.95705 0.30537 0.71291 0.0
C955 C 0.94084 0.29807 0.69848 0.0
H956 H 0.97991 0.32614 0.71468 0.0
H957 H 0.82409 0.25004 0.57778 0.0
H958 H 0.74118 0.81536 0.65464 0.0
H959 H 0.74664 0.84555 0.63342 0.0
H960 H 0.77391 0.86913 0.70523 0.0
H961 H 0.7679 0.83936 0.72676 0.0
H962 H 0.75061 0.8945 0.68461 0.0
H963 H 0.80036 0.85525 0.6537 0.0
H964 H 0.81546 0.827 0.63351 0.0
H965 H 0.78245 0.83594 0.56144 0.0
H966 H 0.76699 0.86414 0.58128 0.0
H967 H 0.79003 0.97602 0.62439 0.0
H968 H 0.78873 0.9453 0.64641 0.0
H969 H 0.75042 0.92257 0.58363 0.0
H970 H 0.75143 0.95321 0.56186 0.0
H971 H 0.78151 0.89717 0.60061 0.0
H972 H 0.73118 0.93663 0.635 0.0
H973 H 0.71869 0.96574 0.65649 0.0
H974 H 0.75646 0.95669 0.72434 0.0
H975 H 0.76938 0.92766 0.70307 0.0
C976 C 0.74821 0.82699 0.66598 0.0
C977 C 0.75415 0.82481 0.69243 0.0
C978 C 0.75153 0.8442 0.65373 0.0
C979 C 0.76094 0.85957 0.66761 0.0
C980 C 0.76672 0.85748 0.69404 0.0
C981 C 0.76339 0.84032 0.70629 0.0
C982 C 0.76427 0.87801 0.65484 0.0
C983 C 0.75764 0.89506 0.66645 0.0
C984 C 0.77332 0.87883 0.63102 0.0
C985 C 0.78236 0.8617 0.61908 0.0
C986 C 0.79617 0.85109 0.63362 0.0
C987 C 0.80484 0.83511 0.62222 0.0
C988 C 0.79988 0.82965 0.59623 0.0
C989 C 0.78626 0.84017 0.58158 0.0
C990 C 0.77756 0.85617 0.59289 0.0
C991 C 0.78144 0.96441 0.6153 0.0
C992 C 0.7707 0.967 0.59158 0.0
C993 C 0.78068 0.94692 0.62786 0.0
C994 C 0.76944 0.9317 0.61664 0.0
C995 C 0.75919 0.93412 0.59259 0.0
C996 C 0.75967 0.95165 0.58029 0.0
C997 C 0.76771 0.91345 0.63032 0.0
C998 C 0.77461 0.8965 0.61886 0.0
C999 C 0.75924 0.91274 0.6545 0.0
C1000 C 0.7514 0.93012 0.66733 0.0
C1001 C 0.73695 0.94095 0.6544 0.0
C1002 C 0.72977 0.95741 0.66656 0.0
C1003 C 0.73682 0.96309 0.69173 0.0
C1004 C 0.75104 0.95229 0.70482 0.0
C1005 C 0.75829 0.93583 0.69273 0.0
H1006 H 0.73124 0.97584 0.70111 0.0
H1007 H 0.80662 0.8173 0.58743 0.0
H1008 H 0.83708 0.74178 0.75141 0.0
H1009 H 0.86375 0.74717 0.72436 0.0
H1010 H 0.84178 0.80336 0.70676 0.0
H1011 H 0.81466 0.79788 0.73365 0.0
H1012 H 0.85084 0.78455 0.663 0.0
H1013 H 0.88347 0.79743 0.74629 0.0
H1014 H 0.89382 0.79149 0.79213 0.0
H1015 H 0.92187 0.73966 0.76832 0.0
H1016 H 0.91146 0.74515 0.72235 0.0
H1017 H 0.93235 0.80406 0.59119 0.0
H1018 H 0.90758 0.80548 0.62237 0.0
H1019 H 0.9264 0.75103 0.65198 0.0
H1020 H 0.95214 0.7502 0.62232 0.0
H1021 H 0.91896 0.77271 0.69085 0.0
H1022 H 0.88459 0.75895 0.60759 0.0
H1023 H 0.87373 0.76474 0.56186 0.0
H1024 H 0.84829 0.81801 0.58554 0.0
H1025 H 0.85932 0.81273 0.63134 0.0
C1026 C 0.83804 0.75546 0.74222 0.0
C1027 C 0.82369 0.76942 0.74489 0.0
C1028 C 0.8534 0.75855 0.72673 0.0
C1029 C 0.85498 0.77574 0.71354 0.0
C1030 C 0.84097 0.78998 0.71672 0.0
C1031 C 0.82554 0.7869 0.73234 0.0
C1032 C 0.87067 0.77823 0.69542 0.0
C1033 C 0.86578 0.78232 0.6692 0.0
C1034 C 0.89018 0.77494 0.70325 0.0
C1035 C 0.89656 0.77164 0.73087 0.0
C1036 C 0.89173 0.7847 0.75084 0.0
C1037 C 0.89763 0.78142 0.77685 0.0
C1038 C 0.90847 0.76519 0.78314 0.0
C1039 C 0.91347 0.75222 0.76342 0.0
C1040 C 0.90759 0.75542 0.73738 0.0
C1041 C 0.9315 0.79247 0.60455 0.0
C1042 C 0.94447 0.77698 0.60394 0.0
C1043 C 0.91701 0.79318 0.6222 0.0
C1044 C 0.91472 0.7782 0.63939 0.0
C1045 C 0.92767 0.76278 0.63893 0.0
C1046 C 0.94234 0.7622 0.62159 0.0
C1047 C 0.89914 0.77859 0.65817 0.0
C1048 C 0.90405 0.77508 0.68459 0.0
C1049 C 0.87964 0.78238 0.65047 0.0
C1050 C 0.87303 0.78556 0.62288 0.0
C1051 C 0.87685 0.77199 0.60302 0.0
C1052 C 0.87064 0.77517 0.57708 0.0
C1053 C 0.8604 0.79178 0.57078 0.0
C1054 C 0.85629 0.8052 0.59042 0.0
C1055 C 0.86253 0.80212 0.61637 0.0
H1056 H 0.85561 0.79421 0.55069 0.0
H1057 H 0.91301 0.76268 0.80329 0.0
H1058 H 0.25978 0.80541 0.66374 0.0
H1059 H 0.26327 0.8335 0.63724 0.0
H1060 H 0.29499 0.86252 0.70174 0.0
H1061 H 0.29163 0.83427 0.72843 0.0
H1062 H 0.26695 0.88583 0.67934 0.0
H1063 H 0.31759 0.84662 0.64856 0.0
H1064 H 0.3321 0.81726 0.63056 0.0
H1065 H 0.294 0.81971 0.56165 0.0
H1066 H 0.27907 0.84895 0.5794 0.0
H1067 H 0.29192 0.96671 0.60697 0.0
H1068 H 0.2926 0.93835 0.63398 0.0
H1069 H 0.26822 0.90434 0.56832 0.0
H1070 H 0.26833 0.93261 0.54109 0.0
H1071 H 0.2937 0.88358 0.59227 0.0
H1072 H 0.24193 0.92118 0.62248 0.0
H1073 H 0.2261 0.95004 0.63976 0.0
H1074 H 0.26428 0.95002 0.7088 0.0
H1075 H 0.28053 0.92129 0.69175 0.0
C1076 C 0.26778 0.81762 0.67226 0.0
C1077 C 0.27553 0.81736 0.69832 0.0
C1078 C 0.26977 0.83377 0.65698 0.0
C1079 C 0.27946 0.85031 0.66726 0.0
C1080 C 0.28744 0.85004 0.69319 0.0
C1081 C 0.28565 0.83375 0.70842 0.0
C1082 C 0.28068 0.86795 0.65121 0.0
C1083 C 0.27311 0.88538 0.66049 0.0
C1084 C 0.28813 0.86746 0.62616 0.0
C1085 C 0.29709 0.84988 0.61543 0.0
C1086 C 0.31219 0.84081 0.62966 0.0
C1087 C 0.32052 0.8242 0.61949 0.0
C1088 C 0.31395 0.81659 0.59501 0.0
C1089 C 0.29906 0.8256 0.58063 0.0
C1090 C 0.29067 0.84221 0.59072 0.0
C1091 C 0.28681 0.95314 0.59829 0.0
C1092 C 0.28011 0.95195 0.57183 0.0
C1093 C 0.28703 0.93689 0.61384 0.0
C1094 C 0.28018 0.91898 0.60356 0.0
C1095 C 0.2736 0.91781 0.577 0.0
C1096 C 0.27356 0.93403 0.56139 0.0
C1097 C 0.27989 0.90154 0.62031 0.0
C1098 C 0.2876 0.88411 0.61115 0.0
C1099 C 0.27235 0.90197 0.64536 0.0
C1100 C 0.26257 0.9192 0.65571 0.0
C1101 C 0.24704 0.92741 0.64126 0.0
C1102 C 0.23798 0.94374 0.65103 0.0
C1103 C 0.24421 0.95189 0.67533 0.0
C1104 C 0.25949 0.94371 0.68995 0.0
C1105 C 0.26862 0.9274 0.68026 0.0
H1106 H 0.23718 0.96453 0.68286 0.0
H1107 H 0.32041 0.80374 0.58716 0.0
H1108 H 0.21934 0.31496 0.75009 0.0
H1109 H 0.19258 0.31403 0.71715 0.0
H1110 H 0.21991 0.26836 0.67507 0.0
H1111 H 0.24687 0.26894 0.70843 0.0
H1112 H 0.20111 0.29848 0.64248 0.0
H1113 H 0.18741 0.2552 0.7099 0.0
H1114 H 0.18465 0.24615 0.75549 0.0
H1115 H 0.1426 0.29019 0.76541 0.0
H1116 H 0.14533 0.29971 0.71998 0.0
H1117 H 0.11632 0.27271 0.56365 0.0
H1118 H 0.146 0.27254 0.5919 0.0
H1119 H 0.11794 0.30513 0.65121 0.0
H1120 H 0.088 0.30429 0.62344 0.0
H1121 H 0.13841 0.28005 0.67419 0.0
H1122 H 0.15213 0.32463 0.60886 0.0
H1123 H 0.155 0.33558 0.56413 0.0
H1124 H 0.19674 0.29179 0.55086 0.0
H1125 H 0.19393 0.28041 0.59541 0.0
C1126 C 0.21992 0.30485 0.73369 0.0
C1127 C 0.23536 0.29195 0.73212 0.0
C1128 C 0.2045 0.30433 0.71484 0.0
C1129 C 0.20407 0.29101 0.69372 0.0
C1130 C 0.21989 0.27877 0.6912 0.0
C1131 C 0.23532 0.27913 0.7103 0.0
C1132 C 0.18653 0.28926 0.67544 0.0
C1133 C 0.18744 0.29416 0.64925 0.0
C1134 C 0.16856 0.28412 0.68438 0.0
C1135 C 0.16671 0.27828 0.71161 0.0
C1136 C 0.17768 0.26305 0.72186 0.0
C1137 C 0.17611 0.25782 0.74767 0.0
C1138 C 0.16349 0.26762 0.76336 0.0
C1139 C 0.15238 0.28263 0.75324 0.0
C1140 C 0.15393 0.28794 0.72746 0.0
C1141 C 0.11656 0.27985 0.58273 0.0
C1142 C 0.09993 0.28876 0.59119 0.0
C1143 C 0.13359 0.27989 0.59884 0.0
C1144 C 0.13454 0.28919 0.62368 0.0
C1145 C 0.11779 0.29793 0.63219 0.0
C1146 C 0.10068 0.2976 0.61623 0.0
C1147 C 0.15276 0.2895 0.64103 0.0
C1148 C 0.15201 0.28432 0.66718 0.0
C1149 C 0.17082 0.29463 0.63208 0.0
C1150 C 0.17267 0.30155 0.60538 0.0
C1151 C 0.16183 0.31726 0.59634 0.0
C1152 C 0.16346 0.32355 0.57103 0.0
C1153 C 0.17601 0.31436 0.55464 0.0
C1154 C 0.187 0.29888 0.56356 0.0
C1155 C 0.18541 0.29251 0.58885 0.0
H1156 H 0.17724 0.31924 0.53504 0.0
H1157 H 0.16229 0.26355 0.78333 0.0
H1158 H 0.80369 0.22203 0.72768 0.0
H1159 H 0.80519 0.19088 0.70379 0.0
H1160 H 0.74424 0.18386 0.70801 0.0
H1161 H 0.74272 0.215 0.73126 0.0
H1162 H 0.7624 0.14922 0.71349 0.0
H1163 H 0.76058 0.20056 0.6556 0.0
H1164 H 0.76976 0.23039 0.6353 0.0
H1165 H 0.82373 0.20541 0.61765 0.0
H1166 H 0.81514 0.17566 0.63865 0.0
H1167 H 0.74208 0.08548 0.60186 0.0
H1168 H 0.7431 0.11162 0.63395 0.0
H1169 H 0.80422 0.11468 0.63124 0.0
H1170 H 0.80318 0.08829 0.59989 0.0
H1171 H 0.78663 0.15149 0.62509 0.0
H1172 H 0.78546 0.09837 0.68217 0.0
H1173 H 0.77257 0.06854 0.69862 0.0
H1174 H 0.71991 0.09724 0.71369 0.0
H1175 H 0.73239 0.12719 0.69696 0.0
C1176 C 0.79076 0.2135 0.72433 0.0
C1177 C 0.77315 0.22084 0.73188 0.0
C1178 C 0.79156 0.19577 0.71035 0.0
C1179 C 0.77478 0.1849 0.70379 0.0
C1180 C 0.75742 0.19176 0.71278 0.0
C1181 C 0.75658 0.20958 0.72625 0.0
C1182 C 0.77494 0.16727 0.68597 0.0
C1183 C 0.76765 0.14979 0.69413 0.0
C1184 C 0.78169 0.16776 0.66055 0.0
C1185 C 0.78735 0.18598 0.64913 0.0
C1186 C 0.77458 0.20156 0.64788 0.0
C1187 C 0.77965 0.21845 0.63619 0.0
C1188 C 0.79735 0.21986 0.62531 0.0
C1189 C 0.81008 0.2044 0.62625 0.0
C1190 C 0.80514 0.18753 0.63812 0.0
C1191 C 0.75559 0.09275 0.60567 0.0
C1192 C 0.77199 0.08754 0.59212 0.0
C1193 C 0.75626 0.10732 0.62543 0.0
C1194 C 0.77361 0.11641 0.63378 0.0
C1195 C 0.79039 0.10912 0.62376 0.0
C1196 C 0.78963 0.09439 0.60432 0.0
C1197 C 0.7744 0.13341 0.65272 0.0
C1198 C 0.78171 0.15085 0.64463 0.0
C1199 C 0.7673 0.13294 0.67793 0.0
C1200 C 0.7598 0.11498 0.68808 0.0
C1201 C 0.77107 0.09828 0.68878 0.0
C1202 C 0.76385 0.08136 0.6982 0.0
C1203 C 0.74541 0.08098 0.70713 0.0
C1204 C 0.73418 0.09755 0.70673 0.0
C1205 C 0.74133 0.11451 0.69731 0.0
H1206 H 0.73985 0.06786 0.71442 0.0
H1207 H 0.80112 0.23289 0.616 0.0
H1208 H 0.84484 0.27449 0.33461 0.0
H1209 H 0.87184 0.27711 0.36713 0.0
H1210 H 0.9112 0.26945 0.30659 0.0
H1211 H 0.8844 0.26715 0.27381 0.0
H1212 H 0.9215 0.2477 0.34841 0.0
H1213 H 0.90409 0.31351 0.33454 0.0
H1214 H 0.8821 0.34112 0.33221 0.0
H1215 H 0.871 0.33524 0.41278 0.0
H1216 H 0.89274 0.30741 0.41549 0.0
H1217 H 0.00783 0.27508 0.42087 0.0
H1218 H 0.98024 0.27306 0.38868 0.0
H1219 H 0.94222 0.2859 0.44976 0.0
H1220 H 0.96997 0.28838 0.48175 0.0
H1221 H 0.9307 0.30471 0.40827 0.0
H1222 H 0.9479 0.23963 0.4232 0.0
H1223 H 0.96951 0.21177 0.42652 0.0
H1224 H 0.98007 0.21534 0.34543 0.0
H1225 H 0.95878 0.24346 0.34172 0.0
C1226 C 0.85916 0.27354 0.32797 0.0
C1227 C 0.86216 0.27064 0.30122 0.0
C1228 C 0.87468 0.27501 0.34676 0.0
C1229 C 0.89367 0.27362 0.33941 0.0
C1230 C 0.89674 0.27052 0.31286 0.0
C1231 C 0.88126 0.26916 0.29404 0.0
C1232 C 0.91031 0.27535 0.35932 0.0
C1233 C 0.92363 0.26028 0.36126 0.0
C1234 C 0.91291 0.29149 0.3767 0.0
C1235 C 0.89989 0.30826 0.37514 0.0
C1236 C 0.89684 0.31801 0.3517 0.0
C1237 C 0.88444 0.33372 0.35032 0.0
C1238 C 0.87512 0.3399 0.37231 0.0
C1239 C 0.87821 0.33042 0.39575 0.0
C1240 C 0.89058 0.31469 0.39722 0.0
C1241 C 0.99355 0.27748 0.4273 0.0
C1242 C 0.99094 0.28178 0.45372 0.0
C1243 C 0.97776 0.27624 0.40896 0.0
C1244 C 0.95897 0.27902 0.41671 0.0
C1245 C 0.95647 0.28364 0.44316 0.0
C1246 C 0.97229 0.28499 0.46146 0.0
C1247 C 0.94199 0.27709 0.3973 0.0
C1248 C 0.92859 0.2921 0.39546 0.0
C1249 C 0.93921 0.2608 0.38017 0.0
C1250 C 0.95188 0.24377 0.38225 0.0
C1251 C 0.95493 0.23456 0.40611 0.0
C1252 C 0.96712 0.21872 0.40807 0.0
C1253 C 0.97619 0.21181 0.38622 0.0
C1254 C 0.97305 0.22072 0.36235 0.0
C1255 C 0.96092 0.23661 0.36031 0.0
H1256 H 0.98562 0.19954 0.38777 0.0
H1257 H 0.86552 0.35207 0.37121 0.0
H1258 H 0.754 0.83889 0.32611 0.0
H1259 H 0.75201 0.86555 0.35816 0.0
H1260 H 0.79559 0.89602 0.32071 0.0
H1261 H 0.79779 0.86938 0.28883 0.0
H1262 H 0.80214 0.89926 0.373 0.0
H1263 H 0.74838 0.90839 0.31176 0.0
H1264 H 0.71865 0.8992 0.28582 0.0
H1265 H 0.69061 0.88979 0.35617 0.0
H1266 H 0.72028 0.89868 0.38254 0.0
H1267 H 0.75491 0.99453 0.42184 0.0
H1268 H 0.75582 0.96721 0.39041 0.0
H1269 H 0.78128 0.93221 0.45101 0.0
H1270 H 0.78038 0.95956 0.48234 0.0
H1271 H 0.74031 0.93188 0.38615 0.0
H1272 H 0.81297 0.90063 0.42437 0.0
H1273 H 0.84295 0.91166 0.44829 0.0
H1274 H 0.83392 0.96834 0.41985 0.0
H1275 H 0.80409 0.95758 0.39539 0.0
C1276 C 0.76327 0.85118 0.32474 0.0
C1277 C 0.77601 0.85186 0.30462 0.0
C1278 C 0.76202 0.86656 0.34306 0.0
C1279 C 0.77353 0.88304 0.34193 0.0
C1280 C 0.78649 0.88359 0.32215 0.0
C1281 C 0.78763 0.86832 0.30371 0.0
C1282 C 0.77203 0.89974 0.36113 0.0
C1283 C 0.78857 0.90628 0.37591 0.0
C1284 C 0.75446 0.90932 0.3649 0.0
C1285 C 0.73661 0.904 0.34911 0.0
C1286 C 0.73592 0.90421 0.32169 0.0
C1287 C 0.71907 0.89908 0.30691 0.0
C1288 C 0.70277 0.89386 0.31934 0.0
C1289 C 0.70326 0.89381 0.34658 0.0
C1290 C 0.72009 0.8989 0.36145 0.0
C1291 C 0.76056 0.98095 0.42844 0.0
C1292 C 0.76762 0.97923 0.45456 0.0
C1293 C 0.76106 0.96529 0.41047 0.0
C1294 C 0.76881 0.94753 0.41805 0.0
C1295 C 0.77548 0.94572 0.44437 0.0
C1296 C 0.77491 0.96136 0.46234 0.0
C1297 C 0.77035 0.93114 0.39838 0.0
C1298 C 0.75384 0.92472 0.38344 0.0
C1299 C 0.788 0.92181 0.39424 0.0
C1300 C 0.8062 0.92832 0.40827 0.0
C1301 C 0.81745 0.91542 0.4231 0.0
C1302 C 0.83441 0.92163 0.43676 0.0
C1303 C 0.8403 0.9407 0.43566 0.0
C1304 C 0.82931 0.95359 0.42075 0.0
C1305 C 0.81238 0.94744 0.40699 0.0
H1306 H 0.85341 0.94549 0.44631 0.0
H1307 H 0.68974 0.88991 0.30786 0.0
H1308 H 0.20826 0.78526 0.32472 0.0
H1309 H 0.1834 0.78552 0.35612 0.0
H1310 H 0.14393 0.75856 0.29786 0.0
H1311 H 0.16854 0.75918 0.26619 0.0
H1312 H 0.12495 0.78299 0.32194 0.0
H1313 H 0.16807 0.73435 0.35277 0.0
H1314 H 0.19912 0.72028 0.36756 0.0
H1315 H 0.20446 0.76126 0.43191 0.0
H1316 H 0.17355 0.77574 0.41731 0.0
H1317 H 0.05855 0.75108 0.41274 0.0
H1318 H 0.08386 0.75106 0.38179 0.0
H1319 H 0.11553 0.79307 0.4307 0.0
H1320 H 0.09012 0.79339 0.46148 0.0
H1321 H 0.13813 0.76083 0.4121 0.0
H1322 H 0.09332 0.80845 0.3795 0.0
H1323 H 0.06138 0.82016 0.36419 0.0
H1324 H 0.05839 0.77727 0.3021 0.0
H1325 H 0.09021 0.76512 0.31729 0.0
C1326 C 0.1943 0.77933 0.31869 0.0
C1327 C 0.19042 0.77216 0.29296 0.0
C1328 C 0.18005 0.77937 0.33672 0.0
C1329 C 0.16169 0.7717 0.32975 0.0
C1330 C 0.15785 0.76459 0.30395 0.0
C1331 C 0.17196 0.76493 0.28578 0.0
C1332 C 0.14643 0.77134 0.34906 0.0
C1333 C 0.12788 0.77785 0.34149 0.0
C1334 C 0.15002 0.76494 0.3749 0.0
C1335 C 0.16859 0.75625 0.38379 0.0
C1336 C 0.17593 0.74045 0.36997 0.0
C1337 C 0.1935 0.73239 0.37833 0.0
C1338 C 0.20378 0.73991 0.40062 0.0
C1339 C 0.19649 0.75547 0.41463 0.0
C1340 C 0.17894 0.7636 0.40633 0.0
C1341 C 0.07094 0.76026 0.41694 0.0
C1342 C 0.07227 0.77229 0.43957 0.0
C1343 C 0.08537 0.76029 0.39919 0.0
C1344 C 0.10162 0.7721 0.40384 0.0
C1345 C 0.10316 0.78384 0.42666 0.0
C1346 C 0.08856 0.78409 0.44416 0.0
C1347 C 0.11688 0.77238 0.38479 0.0
C1348 C 0.13535 0.76589 0.39247 0.0
C1349 C 0.11314 0.77841 0.35892 0.0
C1350 C 0.09405 0.78575 0.3497 0.0
C1351 C 0.08577 0.80141 0.36273 0.0
C1352 C 0.06771 0.80815 0.35404 0.0
C1353 C 0.05784 0.79943 0.33223 0.0
C1354 C 0.06604 0.78399 0.31902 0.0
C1355 C 0.08409 0.77718 0.32765 0.0
H1356 H 0.04385 0.80467 0.32554 0.0
H1357 H 0.21738 0.73365 0.40706 0.0
H1358 H 0.28587 0.20592 0.33862 0.0
H1359 H 0.28653 0.18003 0.36956 0.0
H1360 H 0.2606 0.14173 0.30978 0.0
H1361 H 0.25917 0.16759 0.27913 0.0
H1362 H 0.24511 0.1348 0.35271 0.0
H1363 H 0.31064 0.14127 0.33141 0.0
H1364 H 0.34113 0.15824 0.32698 0.0
H1365 H 0.3453 0.17219 0.40922 0.0
H1366 H 0.31469 0.15549 0.41409 0.0
H1367 H 0.26625 0.04576 0.41296 0.0
H1368 H 0.26531 0.07307 0.38394 0.0
H1369 H 0.28796 0.10989 0.44773 0.0
H1370 H 0.28891 0.08249 0.47671 0.0
H1371 H 0.30496 0.11821 0.40425 0.0
H1372 H 0.23993 0.1105 0.42561 0.0
H1373 H 0.20983 0.09282 0.42991 0.0
H1374 H 0.2049 0.08086 0.34718 0.0
H1375 H 0.23516 0.09819 0.34244 0.0
C1376 C 0.28016 0.19208 0.33193 0.0
C1377 C 0.27261 0.18914 0.30591 0.0
C1378 C 0.28073 0.17708 0.34975 0.0
C1379 C 0.27393 0.15855 0.34217 0.0
C1380 C 0.26607 0.1557 0.31639 0.0
C1381 C 0.26542 0.17066 0.29863 0.0
C1382 C 0.27488 0.14215 0.36086 0.0
C1383 C 0.25832 0.1311 0.36367 0.0
C1384 C 0.29188 0.1373 0.37593 0.0
C1385 C 0.31028 0.14731 0.37306 0.0
C1386 C 0.31799 0.14808 0.34852 0.0
C1387 C 0.3353 0.15763 0.34593 0.0
C1388 C 0.34512 0.16634 0.36779 0.0
C1389 C 0.33766 0.16547 0.3923 0.0
C1390 C 0.32034 0.15595 0.39499 0.0
C1391 C 0.27096 0.05971 0.42079 0.0
C1392 C 0.27751 0.06195 0.44723 0.0
C1393 C 0.27039 0.07539 0.40418 0.0
C1394 C 0.27633 0.09384 0.4135 0.0
C1395 C 0.28324 0.09597 0.43985 0.0
C1396 C 0.28374 0.08028 0.45648 0.0
C1397 C 0.27526 0.11081 0.39587 0.0
C1398 C 0.29177 0.12196 0.39329 0.0
C1399 C 0.25823 0.11573 0.38097 0.0
C1400 C 0.23991 0.1055 0.38371 0.0
C1401 C 0.2325 0.10399 0.40835 0.0
C1402 C 0.2154 0.09404 0.41087 0.0
C1403 C 0.20548 0.08569 0.38884 0.0
C1404 C 0.21262 0.08732 0.36424 0.0
C1405 C 0.22974 0.09721 0.36162 0.0
H1406 H 0.19225 0.07799 0.39083 0.0
H1407 H 0.35852 0.17372 0.36575 0.0
H1408 H 0.70088 0.75329 0.797 0.0
H1409 H 0.67746 0.75852 0.82919 0.0
H1410 H 0.71294 0.80303 0.86736 0.0
H1411 H 0.73705 0.79756 0.83486 0.0
H1412 H 0.69598 0.78072 0.90318 0.0
H1413 H 0.67404 0.81522 0.82879 0.0
H1414 H 0.66607 0.82055 0.78212 0.0
H1415 H 0.62358 0.77599 0.7798 0.0
H1416 H 0.63149 0.77019 0.82638 0.0
H1417 H 0.61442 0.80832 0.97487 0.0
H1418 H 0.64168 0.80876 0.94735 0.0
H1419 H 0.61507 0.76421 0.89719 0.0
H1420 H 0.58753 0.76412 0.92404 0.0
H1421 H 0.62896 0.79154 0.86879 0.0
H1422 H 0.6534 0.75566 0.94298 0.0
H1423 H 0.66129 0.75119 0.98991 0.0
H1424 H 0.69889 0.79998 0.99289 0.0
H1425 H 0.69104 0.80488 0.94603 0.0
C1426 C 0.70388 0.76423 0.81218 0.0
C1427 C 0.72085 0.77519 0.81302 0.0
C1428 C 0.69034 0.76723 0.83065 0.0
C1429 C 0.6931 0.78148 0.85047 0.0
C1430 C 0.71036 0.79204 0.85214 0.0
C1431 C 0.72414 0.78893 0.83355 0.0
C1432 C 0.67754 0.78527 0.86868 0.0
C1433 C 0.68139 0.78347 0.8957 0.0
C1434 C 0.65838 0.78867 0.85908 0.0
C1435 C 0.65345 0.7922 0.83107 0.0
C1436 C 0.66308 0.80647 0.8183 0.0
C1437 C 0.65857 0.80959 0.79186 0.0
C1438 C 0.64435 0.79859 0.77799 0.0
C1439 C 0.6346 0.78449 0.79056 0.0
C1440 C 0.63907 0.7813 0.817 0.0
C1441 C 0.61426 0.79869 0.95787 0.0
C1442 C 0.59865 0.78615 0.95181 0.0
C1443 C 0.63002 0.79883 0.94227 0.0
C1444 C 0.63065 0.78637 0.92023 0.0
C1445 C 0.61505 0.77393 0.91408 0.0
C1446 C 0.59933 0.77378 0.92965 0.0
C1447 C 0.64726 0.78641 0.90321 0.0
C1448 C 0.64357 0.78899 0.87634 0.0
C1449 C 0.66652 0.78389 0.91303 0.0
C1450 C 0.67148 0.78075 0.94108 0.0
C1451 C 0.66326 0.7655 0.95369 0.0
C1452 C 0.66774 0.76288 0.98026 0.0
C1453 C 0.68053 0.77533 0.99439 0.0
C1454 C 0.68896 0.79037 0.98194 0.0
C1455 C 0.68451 0.79306 0.95536 0.0
H1456 H 0.68395 0.7733 0.01498 0.0
H1457 H 0.64088 0.80102 0.75752 0.0
H1458 H 0.25906 0.71687 0.77551 0.0
H1459 H 0.2602 0.68616 0.79811 0.0
H1460 H 0.28994 0.71404 0.8652 0.0
H1461 H 0.28858 0.74448 0.84294 0.0
H1462 H 0.30484 0.67824 0.85577 0.0
H1463 H 0.24208 0.70639 0.86344 0.0
H1464 H 0.21107 0.71921 0.84619 0.0
H1465 H 0.19795 0.66536 0.80604 0.0
H1466 H 0.22903 0.6523 0.82277 0.0
H1467 H 0.29105 0.61624 0.95943 0.0
H1468 H 0.29189 0.64313 0.93027 0.0
H1469 H 0.25312 0.613 0.87429 0.0
H1470 H 0.25184 0.58624 0.90382 0.0
H1471 H 0.24314 0.64809 0.87402 0.0
H1472 H 0.3042 0.61872 0.86744 0.0
H1473 H 0.33538 0.60527 0.88291 0.0
H1474 H 0.35223 0.65991 0.91804 0.0
H1475 H 0.32105 0.67363 0.90309 0.0
C1476 C 0.26628 0.71628 0.79478 0.0
C1477 C 0.27392 0.73312 0.80728 0.0
C1478 C 0.26674 0.69875 0.80787 0.0
C1479 C 0.27502 0.69765 0.83364 0.0
C1480 C 0.28348 0.71431 0.84545 0.0
C1481 C 0.28273 0.73177 0.83262 0.0
C1482 C 0.27419 0.67963 0.84904 0.0
C1483 C 0.29132 0.67173 0.85986 0.0
C1484 C 0.25666 0.67065 0.85403 0.0
C1485 C 0.23796 0.67845 0.8441 0.0
C1486 C 0.23265 0.69733 0.85076 0.0
C1487 C 0.21505 0.70463 0.84111 0.0
C1488 C 0.20257 0.69313 0.82496 0.0
C1489 C 0.20765 0.67427 0.8185 0.0
C1490 C 0.22524 0.66691 0.82807 0.0
C1491 C 0.28279 0.61521 0.94084 0.0
C1492 C 0.27147 0.59884 0.9341 0.0
C1493 C 0.28333 0.63068 0.92399 0.0
C1494 C 0.27291 0.63021 0.89949 0.0
C1495 C 0.26139 0.61395 0.89288 0.0
C1496 C 0.26064 0.59857 0.9099 0.0
C1497 C 0.27384 0.64668 0.88109 0.0
C1498 C 0.25672 0.65437 0.86975 0.0
C1499 C 0.29142 0.65533 0.87534 0.0
C1500 C 0.31021 0.64715 0.88434 0.0
C1501 C 0.3145 0.62783 0.87862 0.0
C1502 C 0.33218 0.62016 0.88727 0.0
C1503 C 0.34576 0.63171 0.9015 0.0
C1504 C 0.34169 0.65097 0.90705 0.0
C1505 C 0.32403 0.65871 0.89847 0.0
H1506 H 0.35944 0.62575 0.90818 0.0
H1507 H 0.18895 0.6988 0.81751 0.0
H1508 H 0.34415 0.30812 0.79698 0.0
H1509 H 0.37469 0.30713 0.82361 0.0
H1510 H 0.35566 0.25667 0.86056 0.0
H1511 H 0.32545 0.2572 0.83363 0.0
H1512 H 0.37077 0.28916 0.89567 0.0
H1513 H 0.38659 0.24907 0.82111 0.0
H1514 H 0.38991 0.24239 0.77418 0.0
H1515 H 0.429 0.2897 0.77216 0.0
H1516 H 0.42569 0.29683 0.81903 0.0
H1517 H 0.45225 0.26107 0.9722 0.0
H1518 H 0.42399 0.2621 0.94169 0.0
H1519 H 0.45519 0.29647 0.89043 0.0
H1520 H 0.48403 0.2941 0.92026 0.0
H1521 H 0.43394 0.27428 0.86133 0.0
H1522 H 0.42009 0.31503 0.93361 0.0
H1523 H 0.41699 0.3245 0.97981 0.0
H1524 H 0.37433 0.28087 0.98564 0.0
H1525 H 0.37737 0.27093 0.93955 0.0
C1526 C 0.34656 0.29668 0.81055 0.0
C1527 C 0.33232 0.28269 0.81301 0.0
C1528 C 0.36403 0.29615 0.82578 0.0
C1529 C 0.36748 0.28185 0.84415 0.0
C1530 C 0.35334 0.26785 0.84656 0.0
C1531 C 0.33609 0.26812 0.83099 0.0
C1532 C 0.38557 0.28168 0.86142 0.0
C1533 C 0.38457 0.28571 0.88824 0.0
C1534 C 0.40369 0.27793 0.85162 0.0
C1535 C 0.40571 0.27362 0.82349 0.0
C1536 C 0.39574 0.25817 0.8106 0.0
C1537 C 0.39766 0.25427 0.78403 0.0
C1538 C 0.40961 0.26565 0.77018 0.0
C1539 C 0.41972 0.28092 0.7829 0.0
C1540 C 0.41784 0.28488 0.80947 0.0
C1541 C 0.45317 0.26856 0.95419 0.0
C1542 C 0.47045 0.2773 0.94848 0.0
C1543 C 0.43687 0.26943 0.93687 0.0
C1544 C 0.43709 0.27976 0.91381 0.0
C1545 C 0.45445 0.28842 0.908 0.0
C1546 C 0.47094 0.28714 0.92509 0.0
C1547 C 0.41925 0.2815 0.89595 0.0
C1548 C 0.42023 0.27784 0.86894 0.0
C1549 C 0.40112 0.28608 0.9055 0.0
C1550 C 0.39908 0.29213 0.93317 0.0
C1551 C 0.41012 0.30738 0.94478 0.0
C1552 C 0.40837 0.31283 0.97095 0.0
C1553 C 0.3955 0.30326 0.98566 0.0
C1554 C 0.38431 0.28825 0.97422 0.0
C1555 C 0.38603 0.28271 0.94806 0.0
H1556 H 0.39417 0.3075 0.00593 0.0
H1557 H 0.41108 0.26261 0.74961 0.0
H1558 H 0.78638 0.30658 0.84699 0.0
H1559 H 0.78779 0.33206 0.88163 0.0
H1560 H 0.78442 0.37495 0.823 0.0
H1561 H 0.78345 0.34998 0.78894 0.0
H1562 H 0.80847 0.38704 0.85979 0.0
H1563 H 0.74481 0.36037 0.85737 0.0
H1564 H 0.72111 0.33443 0.85992 0.0
H1565 H 0.74207 0.3244 0.93876 0.0
H1566 H 0.76609 0.35015 0.93655 0.0
H1567 H 0.7743 0.47037 0.9245 0.0
H1568 H 0.77603 0.44126 0.89644 0.0
H1569 H 0.78614 0.40736 0.96463 0.0
H1570 H 0.78442 0.43661 0.99267 0.0
H1571 H 0.76087 0.38891 0.92722 0.0
H1572 H 0.8228 0.41874 0.92951 0.0
H1573 H 0.84522 0.44559 0.92551 0.0
H1574 H 0.82612 0.45033 0.84479 0.0
H1575 H 0.80332 0.42372 0.84843 0.0
C1576 C 0.78629 0.32145 0.84157 0.0
C1577 C 0.78477 0.3261 0.81504 0.0
C1578 C 0.78688 0.33607 0.86141 0.0
C1579 C 0.78596 0.35566 0.85516 0.0
C1580 C 0.78516 0.36014 0.82867 0.0
C1581 C 0.78454 0.34569 0.80905 0.0
C1582 C 0.78539 0.37172 0.87559 0.0
C1583 C 0.79795 0.3874 0.87439 0.0
C1584 C 0.77195 0.37234 0.89517 0.0
C1585 C 0.75739 0.35704 0.8967 0.0
C1586 C 0.74445 0.35255 0.8752 0.0
C1587 C 0.73095 0.3379 0.87658 0.0
C1588 C 0.73013 0.32774 0.89946 0.0
C1589 C 0.74276 0.33227 0.92103 0.0
C1590 C 0.75631 0.3469 0.91973 0.0
C1591 C 0.7768 0.45668 0.93345 0.0
C1592 C 0.77926 0.45577 0.96075 0.0
C1593 C 0.77784 0.44001 0.91742 0.0
C1594 C 0.78138 0.42194 0.92825 0.0
C1595 C 0.78337 0.421 0.95564 0.0
C1596 C 0.78246 0.43772 0.97168 0.0
C1597 C 0.78368 0.40431 0.91092 0.0
C1598 C 0.77149 0.3884 0.91275 0.0
C1599 C 0.79731 0.40353 0.89166 0.0
C1600 C 0.81125 0.41932 0.8893 0.0
C1601 C 0.8233 0.42558 0.91095 0.0
C1602 C 0.83608 0.44075 0.90875 0.0
C1603 C 0.83707 0.44968 0.88492 0.0
C1604 C 0.82532 0.44341 0.86324 0.0
C1605 C 0.81248 0.42827 0.86535 0.0
H1606 H 0.84697 0.46143 0.88326 0.0
H1607 H 0.71967 0.31642 0.90048 0.0
H1608 H 0.73237 0.29534 0.18861 0.0
H1609 H 0.70111 0.29874 0.16465 0.0
H1610 H 0.69978 0.23784 0.14711 0.0
H1611 H 0.73122 0.23455 0.17025 0.0
H1612 H 0.68629 0.2543 0.10636 0.0
H1613 H 0.67296 0.26135 0.19711 0.0
H1614 H 0.67697 0.27563 0.24175 0.0
H1615 H 0.66102 0.33079 0.21271 0.0
H1616 H 0.65707 0.31685 0.16787 0.0
H1617 H 0.57492 0.26344 0.10906 0.0
H1618 H 0.60695 0.26253 0.13169 0.0
H1619 H 0.6312 0.28561 0.06427 0.0
H1620 H 0.59913 0.28606 0.04148 0.0
H1621 H 0.63308 0.28823 0.14742 0.0
H1622 H 0.67619 0.26774 0.05852 0.0
H1623 H 0.67128 0.2508 0.01563 0.0
H1624 H 0.62605 0.21742 0.04427 0.0
H1625 H 0.63088 0.23396 0.0874 0.0
C1626 C 0.72538 0.28268 0.17968 0.0
C1627 C 0.73435 0.26466 0.18144 0.0
C1628 C 0.70743 0.28462 0.16601 0.0
C1629 C 0.69773 0.26851 0.15428 0.0
C1630 C 0.70682 0.25055 0.15582 0.0
C1631 C 0.72488 0.24866 0.16911 0.0
C1632 C 0.67815 0.27022 0.14056 0.0
C1633 C 0.67473 0.26179 0.11539 0.0
C1634 C 0.66277 0.27976 0.15219 0.0
C1635 C 0.66486 0.28809 0.17915 0.0
C1636 C 0.67038 0.27654 0.20026 0.0
C1637 C 0.67263 0.28457 0.22558 0.0
C1638 C 0.66929 0.30411 0.23005 0.0
C1639 C 0.66361 0.31566 0.20922 0.0
C1640 C 0.66133 0.3077 0.18385 0.0
C1641 C 0.58715 0.2682 0.09909 0.0
C1642 C 0.58466 0.27444 0.07336 0.0
C1643 C 0.60544 0.26782 0.11208 0.0
C1644 C 0.62168 0.27373 0.09967 0.0
C1645 C 0.61905 0.2806 0.07419 0.0
C1646 C 0.60074 0.28092 0.06117 0.0
C1647 C 0.6413 0.27237 0.11325 0.0
C1648 C 0.64471 0.28086 0.13835 0.0
C1649 C 0.65656 0.26254 0.10179 0.0
C1650 C 0.65378 0.25224 0.07609 0.0
C1651 C 0.66526 0.25673 0.05568 0.0
C1652 C 0.66248 0.24721 0.03133 0.0
C1653 C 0.64832 0.23309 0.0272 0.0
C1654 C 0.63697 0.2284 0.04746 0.0
C1655 C 0.63972 0.23786 0.07186 0.0
H1656 H 0.64617 0.22576 0.00833 0.0
H1657 H 0.67106 0.31031 0.24967 0.0
H1658 H 0.77249 0.70835 0.21991 0.0
H1659 H 0.7701 0.67757 0.19574 0.0
H1660 H 0.79533 0.70277 0.13063 0.0
H1661 H 0.79715 0.73369 0.15423 0.0
H1662 H 0.76733 0.6801 0.11246 0.0
H1663 H 0.82086 0.6725 0.17484 0.0
H1664 H 0.83755 0.67271 0.21869 0.0
H1665 H 0.79842 0.63027 0.24249 0.0
H1666 H 0.78134 0.62999 0.19886 0.0
H1667 H 0.79099 0.59377 0.04344 0.0
H1668 H 0.79193 0.6245 0.06821 0.0
H1669 H 0.76679 0.59747 0.1321 0.0
H1670 H 0.76637 0.56661 0.10748 0.0
H1671 H 0.79396 0.62087 0.15133 0.0
H1672 H 0.74086 0.62791 0.08853 0.0
H1673 H 0.72443 0.62748 0.04452 0.0
H1674 H 0.76276 0.6709 0.02141 0.0
H1675 H 0.7796 0.67141 0.06519 0.0
C1676 C 0.77742 0.7075 0.2004 0.0
C1677 C 0.78515 0.7238 0.18934 0.0
C1678 C 0.77622 0.68969 0.18658 0.0
C1679 C 0.7828 0.68752 0.1613 0.0
C1680 C 0.79019 0.70383 0.15007 0.0
C1681 C 0.79139 0.72162 0.16382 0.0
C1682 C 0.78198 0.66839 0.14652 0.0
C1683 C 0.77339 0.66723 0.12093 0.0
C1684 C 0.78942 0.65128 0.15747 0.0
C1685 C 0.7997 0.65137 0.18367 0.0
C1686 C 0.81573 0.66331 0.18949 0.0
C1687 C 0.82527 0.66343 0.21429 0.0
C1688 C 0.81902 0.65155 0.23338 0.0
C1689 C 0.80323 0.63949 0.22769 0.0
C1690 C 0.79362 0.63933 0.20292 0.0
C1691 C 0.78563 0.59443 0.06275 0.0
C1692 C 0.77846 0.57778 0.07339 0.0
C1693 C 0.78606 0.61207 0.07692 0.0
C1694 C 0.77915 0.61363 0.10208 0.0
C1695 C 0.77217 0.59687 0.1128 0.0
C1696 C 0.77181 0.57921 0.09865 0.0
C1697 C 0.77937 0.63259 0.11723 0.0
C1698 C 0.78785 0.63372 0.14288 0.0
C1699 C 0.77183 0.64968 0.10633 0.0
C1700 C 0.7616 0.64957 0.08008 0.0
C1701 C 0.74586 0.63729 0.07401 0.0
C1702 C 0.73647 0.63704 0.04911 0.0
C1703 C 0.74258 0.64912 0.03016 0.0
C1704 C 0.75806 0.66153 0.0361 0.0
C1705 C 0.76752 0.66182 0.06096 0.0
H1706 H 0.73529 0.6489 0.01088 0.0
H1707 H 0.82642 0.65167 0.25258 0.0
H1708 H 0.31891 0.81719 0.1984 0.0
H1709 H 0.3486 0.81637 0.17592 0.0
H1710 H 0.33777 0.75722 0.15232 0.0
H1711 H 0.30828 0.75788 0.17558 0.0
H1712 H 0.37339 0.76034 0.16598 0.0
H1713 H 0.3318 0.79652 0.10913 0.0
H1714 H 0.30908 0.82209 0.09629 0.0
H1715 H 0.35135 0.86482 0.12052 0.0
H1716 H 0.37426 0.83951 0.13384 0.0
H1717 H 0.4421 0.75872 0.06772 0.0
H1718 H 0.41217 0.75872 0.08967 0.0
H1719 H 0.42821 0.81209 0.12981 0.0
H1720 H 0.45861 0.81184 0.10903 0.0
H1721 H 0.38989 0.8114 0.10636 0.0
H1722 H 0.43134 0.77333 0.16288 0.0
H1723 H 0.45348 0.74667 0.17296 0.0
H1724 H 0.41006 0.70601 0.14532 0.0
H1725 H 0.38774 0.73245 0.13471 0.0
C1726 C 0.32272 0.80407 0.18819 0.0
C1727 C 0.31109 0.78764 0.18866 0.0
C1728 C 0.33975 0.80361 0.17524 0.0
C1729 C 0.34543 0.78683 0.16186 0.0
C1730 C 0.33383 0.77038 0.16239 0.0
C1731 C 0.31692 0.77076 0.17569 0.0
C1732 C 0.36363 0.78635 0.14788 0.0
C1733 C 0.37677 0.77139 0.15264 0.0
C1734 C 0.36842 0.80084 0.13066 0.0
C1735 C 0.35468 0.81611 0.12272 0.0
C1736 C 0.3362 0.81137 0.11191 0.0
C1737 C 0.3233 0.82582 0.10452 0.0
C1738 C 0.32875 0.84507 0.10766 0.0
C1739 C 0.34714 0.84991 0.11814 0.0
C1740 C 0.3601 0.83552 0.1256 0.0
C1741 C 0.43955 0.77033 0.08155 0.0
C1742 C 0.45306 0.78526 0.08649 0.0
C1743 C 0.42227 0.77036 0.09396 0.0
C1744 C 0.41791 0.78538 0.11145 0.0
C1745 C 0.43119 0.80038 0.1163 0.0
C1746 C 0.44859 0.80024 0.10419 0.0
C1747 C 0.39949 0.78551 0.12462 0.0
C1748 C 0.38636 0.80038 0.11966 0.0
C1749 C 0.39457 0.77078 0.14128 0.0
C1750 C 0.40794 0.75488 0.14774 0.0
C1751 C 0.42657 0.75871 0.15873 0.0
C1752 C 0.43914 0.74363 0.16458 0.0
C1753 C 0.4332 0.72466 0.15971 0.0
C1754 C 0.41465 0.72072 0.14904 0.0
C1755 C 0.40203 0.73574 0.14312 0.0
H1756 H 0.44295 0.71301 0.16427 0.0
H1757 H 0.31874 0.85624 0.10191 0.0
H1758 H 0.26689 0.33186 0.2273 0.0
H1759 H 0.26809 0.36173 0.20337 0.0
H1760 H 0.26238 0.32926 0.13043 0.0
H1761 H 0.26104 0.29947 0.15419 0.0
H1762 H 0.2907 0.35786 0.1307 0.0
H1763 H 0.22461 0.35282 0.15125 0.0
H1764 H 0.19841 0.34953 0.18065 0.0
H1765 H 0.21656 0.40139 0.22249 0.0
H1766 H 0.24305 0.40485 0.19355 0.0
H1767 H 0.2741 0.43502 0.04504 0.0
H1768 H 0.27276 0.40529 0.06885 0.0
H1769 H 0.2614 0.43802 0.13895 0.0
H1770 H 0.26131 0.46759 0.11443 0.0
H1771 H 0.24212 0.40885 0.14094 0.0
H1772 H 0.30833 0.41447 0.12328 0.0
H1773 H 0.33609 0.41807 0.09661 0.0
H1774 H 0.32019 0.36635 0.05284 0.0
H1775 H 0.29221 0.36255 0.07908 0.0
C1776 C 0.26598 0.33106 0.20617 0.0
C1777 C 0.26376 0.31314 0.19278 0.0
C1778 C 0.26656 0.3482 0.19245 0.0
C1779 C 0.26521 0.34792 0.16494 0.0
C1780 C 0.26341 0.33001 0.15157 0.0
C1781 C 0.26252 0.31293 0.16525 0.0
C1782 C 0.26552 0.36619 0.15005 0.0
C1783 C 0.27996 0.36893 0.13275 0.0
C1784 C 0.25189 0.38101 0.15308 0.0
C1785 C 0.23593 0.37899 0.17041 0.0
C1786 C 0.22311 0.36344 0.16686 0.0
C1787 C 0.20819 0.36156 0.18341 0.0
C1788 C 0.20585 0.37521 0.20347 0.0
C1789 C 0.2184 0.39081 0.20697 0.0
C1790 C 0.23336 0.39275 0.19049 0.0
C1791 C 0.2713 0.43582 0.06554 0.0
C1792 C 0.2679 0.4537 0.07785 0.0
C1793 C 0.27074 0.41876 0.07935 0.0
C1794 C 0.26751 0.41906 0.10622 0.0
C1795 C 0.26397 0.43704 0.11839 0.0
C1796 C 0.26398 0.45406 0.10437 0.0
C1797 C 0.26749 0.4008 0.1215 0.0
C1798 C 0.25302 0.39795 0.13888 0.0
C1799 C 0.28135 0.38602 0.11891 0.0
C1800 C 0.29811 0.3883 0.10303 0.0
C1801 C 0.31071 0.40392 0.10788 0.0
C1802 C 0.32649 0.40598 0.09287 0.0
C1803 C 0.32993 0.39243 0.07309 0.0
C1804 C 0.31755 0.3768 0.06824 0.0
C1805 C 0.30173 0.37468 0.08318 0.0
H1806 H 0.34214 0.39406 0.06146 0.0
H1807 H 0.19429 0.37373 0.21627 0.0
H1808 H 0.3486 0.256 0.26389 0.0
H1809 H 0.37886 0.25909 0.24223 0.0
H1810 H 0.34692 0.27547 0.17167 0.0
H1811 H 0.31709 0.27175 0.19279 0.0
H1812 H 0.37031 0.24951 0.15916 0.0
H1813 H 0.37654 0.30724 0.21311 0.0
H1814 H 0.37842 0.32648 0.25437 0.0
H1815 H 0.42795 0.29471 0.28174 0.0
H1816 H 0.42621 0.27511 0.24074 0.0
H1817 H 0.43963 0.28912 0.08295 0.0
H1818 H 0.41454 0.28696 0.11342 0.0
H1819 H 0.4523 0.25508 0.16553 0.0
H1820 H 0.47742 0.2563 0.13451 0.0
H1821 H 0.42868 0.28609 0.19037 0.0
H1822 H 0.4225 0.22976 0.13351 0.0
H1823 H 0.42039 0.21249 0.09074 0.0
H1824 H 0.36971 0.24411 0.06766 0.0
H1825 H 0.37169 0.26178 0.11018 0.0
C1826 C 0.34818 0.26062 0.24395 0.0
C1827 C 0.33049 0.26357 0.23001 0.0
C1828 C 0.36547 0.26237 0.23151 0.0
C1829 C 0.36533 0.26743 0.20509 0.0
C1830 C 0.3476 0.2713 0.19184 0.0
C1831 C 0.33049 0.26927 0.20403 0.0
C1832 C 0.38318 0.26767 0.19035 0.0
C1833 C 0.38295 0.2577 0.16605 0.0
C1834 C 0.40006 0.27784 0.19934 0.0
C1835 C 0.4011 0.28955 0.224 0.0
C1836 C 0.38773 0.30424 0.22802 0.0
C1837 C 0.38879 0.31524 0.25134 0.0
C1838 C 0.40326 0.31178 0.2707 0.0
C1839 C 0.41673 0.29735 0.26675 0.0
C1840 C 0.41572 0.2863 0.24347 0.0
C1841 C 0.4427 0.28141 0.10068 0.0
C1842 C 0.46067 0.2726 0.10581 0.0
C1843 C 0.42831 0.28041 0.11829 0.0
C1844 C 0.43146 0.27081 0.14176 0.0
C1845 C 0.44955 0.26265 0.1476 0.0
C1846 C 0.46394 0.26342 0.12978 0.0
C1847 C 0.41538 0.2684 0.15915 0.0
C1848 C 0.41601 0.27785 0.1838 0.0
C1849 C 0.3987 0.25796 0.15042 0.0
C1850 C 0.39734 0.2472 0.12495 0.0
C1851 C 0.41099 0.23313 0.11924 0.0
C1852 C 0.4098 0.22325 0.09505 0.0
C1853 C 0.39495 0.22723 0.07647 0.0
C1854 C 0.38122 0.24105 0.08206 0.0
C1855 C 0.38236 0.25099 0.10622 0.0
H1856 H 0.39406 0.21956 0.05775 0.0
H1857 H 0.40406 0.32031 0.28873 0.0
H1858 H 0.76407 0.33437 0.25431 0.0
H1859 H 0.75829 0.36677 0.23791 0.0
H1860 H 0.81294 0.36505 0.20347 0.0
H1861 H 0.81886 0.3333 0.22008 0.0
H1862 H 0.80682 0.39984 0.2223 0.0
H1863 H 0.76964 0.35155 0.16907 0.0
H1864 H 0.74492 0.32626 0.16274 0.0
H1865 H 0.70237 0.36574 0.18832 0.0
H1866 H 0.72691 0.3912 0.19509 0.0
H1867 H 0.80476 0.44627 0.10354 0.0
H1868 H 0.80457 0.42314 0.138 0.0
H1869 H 0.75123 0.44636 0.16233 0.0
H1870 H 0.7516 0.47018 0.12843 0.0
H1871 H 0.75163 0.40566 0.15716 0.0
H1872 H 0.78883 0.45579 0.20047 0.0
H1873 H 0.81412 0.48052 0.20542 0.0
H1874 H 0.8572 0.43721 0.19763 0.0
H1875 H 0.83215 0.41224 0.19223 0.0
C1876 C 0.77499 0.34117 0.2438 0.0
C1877 C 0.79183 0.33125 0.23825 0.0
C1878 C 0.77163 0.3596 0.23426 0.0
C1879 C 0.78506 0.36825 0.21907 0.0
C1880 C 0.80234 0.35874 0.21506 0.0
C1881 C 0.80566 0.34049 0.22448 0.0
C1882 C 0.78096 0.3864 0.20537 0.0
C1883 C 0.79471 0.40114 0.20814 0.0
C1884 C 0.76489 0.38839 0.18736 0.0
C1885 C 0.75013 0.37319 0.18288 0.0
C1886 C 0.75503 0.35479 0.17347 0.0
C1887 C 0.74105 0.34044 0.1698 0.0
C1888 C 0.7221 0.34438 0.17522 0.0
C1889 C 0.71706 0.3627 0.1842 0.0
C1890 C 0.73099 0.37709 0.18795 0.0
C1891 C 0.79314 0.4468 0.11646 0.0
C1892 C 0.77825 0.46028 0.11316 0.0
C1893 C 0.793 0.43344 0.13609 0.0
C1894 C 0.77796 0.43312 0.15285 0.0
C1895 C 0.76297 0.44636 0.14959 0.0
C1896 C 0.76318 0.45991 0.13008 0.0
C1897 C 0.77796 0.41861 0.17335 0.0
C1898 C 0.76346 0.40462 0.17183 0.0
C1899 C 0.79342 0.4172 0.19239 0.0
C1900 C 0.80858 0.43215 0.19582 0.0
C1901 C 0.80369 0.45155 0.19964 0.0
C1902 C 0.81798 0.46561 0.20255 0.0
C1903 C 0.83725 0.46044 0.20181 0.0
C1904 C 0.84227 0.44119 0.19821 0.0
C1905 C 0.82802 0.42708 0.19526 0.0
H1906 H 0.8483 0.47135 0.20406 0.0
H1907 H 0.7113 0.33326 0.1724 0.0
H1908 H 0.7036 0.78605 0.25712 0.0
H1909 H 0.67172 0.78511 0.23343 0.0
H1910 H 0.69748 0.76417 0.16393 0.0
H1911 H 0.729 0.76565 0.18715 0.0
H1912 H 0.6763 0.79354 0.15259 0.0
H1913 H 0.66767 0.73613 0.20039 0.0
H1914 H 0.6664 0.71714 0.23988 0.0
H1915 H 0.62178 0.75351 0.26694 0.0
H1916 H 0.62296 0.77287 0.22774 0.0
H1917 H 0.5975 0.76956 0.06574 0.0
H1918 H 0.6258 0.76743 0.09631 0.0
H1919 H 0.59315 0.79046 0.1585 0.0
H1920 H 0.56458 0.79191 0.12793 0.0
H1921 H 0.6164 0.76242 0.17624 0.0
H1922 H 0.62428 0.81887 0.12713 0.0
H1923 H 0.62519 0.83713 0.08695 0.0
H1924 H 0.67152 0.80208 0.06212 0.0
H1925 H 0.67073 0.78344 0.10201 0.0
C1926 C 0.70227 0.78078 0.237 0.0
C1927 C 0.71871 0.77593 0.22394 0.0
C1928 C 0.68409 0.78029 0.22342 0.0
C1929 C 0.68213 0.77468 0.19672 0.0
C1930 C 0.69853 0.76877 0.18434 0.0
C1931 C 0.71655 0.7695 0.1977 0.0
C1932 C 0.66351 0.77624 0.18081 0.0
C1933 C 0.66328 0.78652 0.1577 0.0
C1934 C 0.64627 0.76769 0.18774 0.0
C1935 C 0.64556 0.75608 0.21129 0.0
C1936 C 0.65771 0.74018 0.21487 0.0
C1937 C 0.65698 0.72933 0.23718 0.0
C1938 C 0.64406 0.73415 0.25595 0.0
C1939 C 0.6318 0.74981 0.25241 0.0
C1940 C 0.63249 0.76072 0.23015 0.0
C1941 C 0.5964 0.77408 0.08597 0.0
C1942 C 0.57899 0.78111 0.09448 0.0
C1943 C 0.61257 0.77294 0.10342 0.0
C1944 C 0.61178 0.77913 0.12969 0.0
C1945 C 0.59419 0.78569 0.13836 0.0
C1946 C 0.57794 0.78664 0.1209 0.0
C1947 C 0.62944 0.77922 0.14775 0.0
C1948 C 0.62944 0.76945 0.17126 0.0
C1949 C 0.64656 0.7882 0.14122 0.0
C1950 C 0.64736 0.79968 0.11749 0.0
C1951 C 0.63461 0.81501 0.11306 0.0
C1952 C 0.63511 0.82543 0.09033 0.0
C1953 C 0.64839 0.82076 0.07198 0.0
C1954 C 0.66125 0.80569 0.07636 0.0
C1955 C 0.6608 0.79521 0.09904 0.0
H1956 H 0.64873 0.82882 0.05438 0.0
H1957 H 0.64351 0.72573 0.2732 0.0
H1958 H 0.2741 0.70124 0.24229 0.0
H1959 H 0.27827 0.66976 0.22036 0.0
H1960 H 0.2494 0.69063 0.15007 0.0
H1961 H 0.24488 0.72156 0.17171 0.0
H1962 H 0.23662 0.65647 0.15849 0.0
H1963 H 0.29909 0.68628 0.15852 0.0
H1964 H 0.32864 0.70122 0.17881 0.0
H1965 H 0.34101 0.6503 0.22147 0.0
H1966 H 0.31137 0.63515 0.20166 0.0
H1967 H 0.26442 0.59862 0.05371 0.0
H1968 H 0.26333 0.62572 0.08525 0.0
H1969 H 0.28344 0.58906 0.14724 0.0
H1970 H 0.28429 0.56178 0.11557 0.0
H1971 H 0.30073 0.62752 0.14903 0.0
H1972 H 0.23908 0.59678 0.14336 0.0
H1973 H 0.21044 0.58246 0.11972 0.0
H1974 H 0.19706 0.63639 0.08505 0.0
H1975 H 0.22583 0.65096 0.10814 0.0
C1976 C 0.26859 0.69903 0.22221 0.0
C1977 C 0.25914 0.71395 0.20881 0.0
C1978 C 0.27105 0.68107 0.20965 0.0
C1979 C 0.26423 0.67781 0.18346 0.0
C1980 C 0.25471 0.69269 0.17028 0.0
C1981 C 0.25219 0.71047 0.18274 0.0
C1982 C 0.26686 0.65911 0.16928 0.0
C1983 C 0.25067 0.65021 0.15643 0.0
C1984 C 0.28511 0.6506 0.16696 0.0
C1985 C 0.3029 0.65968 0.17888 0.0
C1986 C 0.30803 0.67834 0.1724 0.0
C1987 C 0.32481 0.68683 0.18377 0.0
C1988 C 0.33666 0.67674 0.20149 0.0
C1989 C 0.33179 0.65811 0.2078 0.0
C1990 C 0.31501 0.64956 0.19649 0.0
C1991 C 0.26878 0.59645 0.07404 0.0
C1992 C 0.27439 0.57822 0.08235 0.0
C1993 C 0.26817 0.61188 0.09201 0.0
C1994 C 0.27319 0.60936 0.1186 0.0
C1995 C 0.27955 0.5913 0.12681 0.0
C1996 C 0.28001 0.57578 0.1088 0.0
C1997 C 0.27057 0.62538 0.13779 0.0
C1998 C 0.28669 0.63367 0.15154 0.0
C1999 C 0.25228 0.63351 0.14075 0.0
C2000 C 0.23468 0.62493 0.12737 0.0
C2001 C 0.23009 0.60556 0.13059 0.0
C2002 C 0.21382 0.5974 0.11729 0.0
C2003 C 0.20195 0.6085 0.10086 0.0
C2004 C 0.20628 0.62781 0.09778 0.0
C2005 C 0.22255 0.63603 0.11099 0.0
H2006 H 0.18938 0.60215 0.09055 0.0
H2007 H 0.34965 0.68333 0.21027 0.0
H2008 H 0.33107 0.83338 0.84812 0.0
H2009 H 0.36172 0.83025 0.87316 0.0
H2010 H 0.35662 0.76866 0.86705 0.0
H2011 H 0.32577 0.77164 0.84221 0.0
H2012 H 0.37243 0.81475 0.91901 0.0
H2013 H 0.40146 0.74955 0.86165 0.0
H2014 H 0.39805 0.73456 0.81737 0.0
H2015 H 0.38299 0.78904 0.78543 0.0
H2016 H 0.38656 0.80439 0.82945 0.0
H2017 H 0.45558 0.77915 0.98873 0.0
H2018 H 0.42436 0.78114 0.96406 0.0
H2019 H 0.45215 0.80286 0.89851 0.0
H2020 H 0.48341 0.80041 0.92307 0.0
H2021 H 0.42526 0.77756 0.88186 0.0
H2022 H 0.42852 0.83279 0.94035 0.0
H2023 H 0.4331 0.84961 0.98332 0.0
H2024 H 0.38526 0.81913 0.01027 0.0
H2025 H 0.38057 0.80193 0.96755 0.0
C2026 C 0.33626 0.81914 0.85229 0.0
C2027 C 0.32583 0.80276 0.84288 0.0
C2028 C 0.35389 0.81738 0.86662 0.0
C2029 C 0.36164 0.79923 0.87181 0.0
C2030 C 0.35113 0.78284 0.86295 0.0
C2031 C 0.33347 0.78458 0.84864 0.0
C2032 C 0.38083 0.79751 0.88613 0.0
C2033 C 0.38394 0.80656 0.9109 0.0
C2034 C 0.39603 0.78708 0.87548 0.0
C2035 C 0.39407 0.77805 0.84888 0.0
C2036 C 0.39748 0.75833 0.84516 0.0
C2037 C 0.39552 0.74977 0.82011 0.0
C2038 C 0.39025 0.76083 0.79862 0.0
C2039 C 0.387 0.78048 0.80211 0.0
C2040 C 0.38897 0.78911 0.8271 0.0
C2041 C 0.45493 0.78431 0.96903 0.0
C2042 C 0.47175 0.78987 0.95783 0.0
C2043 C 0.43713 0.78551 0.95498 0.0
C2044 C 0.43581 0.79243 0.92951 0.0
C2045 C 0.45275 0.79754 0.91812 0.0
C2046 C 0.47056 0.79626 0.93215 0.0
C2047 C 0.41679 0.79459 0.91488 0.0
C2048 C 0.41371 0.78565 0.89004 0.0
C2049 C 0.40172 0.80537 0.92529 0.0
C2050 C 0.40429 0.81596 0.95082 0.0
C2051 C 0.41904 0.82961 0.95549 0.0
C2052 C 0.42165 0.83921 0.97979 0.0
C2053 C 0.4095 0.83541 0.99953 0.0
C2054 C 0.39467 0.82205 0.99496 0.0
C2055 C 0.39201 0.81238 0.9707 0.0
H2056 H 0.41156 0.84285 0.01834 0.0
H2057 H 0.38872 0.75417 0.77925 0.0
H2058 H 0.2258 0.32277 0.86268 0.0
H2059 H 0.22767 0.35404 0.88564 0.0
H2060 H 0.28939 0.35077 0.89075 0.0
H2061 H 0.28762 0.31927 0.86822 0.0
H2062 H 0.27538 0.36654 0.93604 0.0
H2063 H 0.26797 0.37497 0.84326 0.0
H2064 H 0.25241 0.37 0.79904 0.0
H2065 H 0.20045 0.39495 0.82466 0.0
H2066 H 0.21563 0.3998 0.86916 0.0
H2067 H 0.27637 0.4774 0.91549 0.0
H2068 H 0.27474 0.44417 0.89834 0.0
H2069 H 0.2515 0.42659 0.96963 0.0
H2070 H 0.25432 0.45962 0.98731 0.0
H2071 H 0.24699 0.42073 0.88666 0.0
H2072 H 0.26318 0.38062 0.98191 0.0
H2073 H 0.2796 0.38677 0.02543 0.0
H2074 H 0.31766 0.42641 0.99289 0.0
H2075 H 0.30172 0.42024 0.94912 0.0
C2076 C 0.23976 0.32849 0.86913 0.0
C2077 C 0.25657 0.31858 0.8634 0.0
C2078 C 0.24081 0.34644 0.88212 0.0
C2079 C 0.25867 0.35483 0.88964 0.0
C2080 C 0.27546 0.34458 0.88507 0.0
C2081 C 0.27442 0.32667 0.87198 0.0
C2082 C 0.25987 0.3748 0.90054 0.0
C2083 C 0.26915 0.37841 0.92531 0.0
C2084 C 0.25198 0.39031 0.88638 0.0
C2085 C 0.24287 0.38757 0.85959 0.0
C2086 C 0.25318 0.37926 0.83951 0.0
C2087 C 0.24444 0.37649 0.81439 0.0
C2088 C 0.22544 0.38211 0.80906 0.0
C2089 C 0.21516 0.39057 0.82883 0.0
C2090 C 0.22383 0.39335 0.854 0.0
C2091 C 0.27126 0.46631 0.92758 0.0
C2092 C 0.26594 0.47084 0.95289 0.0
C2093 C 0.27013 0.44739 0.91772 0.0
C2094 C 0.26332 0.43274 0.93285 0.0
C2095 C 0.2573 0.43748 0.95783 0.0
C2096 C 0.25878 0.45633 0.96786 0.0
C2097 C 0.26245 0.4126 0.9223 0.0
C2098 C 0.2532 0.40892 0.89753 0.0
C2099 C 0.27066 0.39712 0.93633 0.0
C2100 C 0.28111 0.40009 0.96228 0.0
C2101 C 0.27517 0.3905 0.984 0.0
C2102 C 0.28437 0.39403 0.00872 0.0
C2103 C 0.29958 0.40706 0.01193 0.0
C2104 C 0.30582 0.41638 0.99038 0.0
C2105 C 0.29672 0.41286 0.96561 0.0
H2106 H 0.3065 0.40997 0.03112 0.0
H2107 H 0.21869 0.37995 0.7896 0.0
H2108 H 0.72162 0.30108 0.82738 0.0
H2109 H 0.69641 0.30147 0.8583 0.0
H2110 H 0.65983 0.26817 0.80283 0.0
H2111 H 0.68469 0.26873 0.77149 0.0
H2112 H 0.63877 0.29246 0.82385 0.0
H2113 H 0.68621 0.24947 0.86088 0.0
H2114 H 0.71849 0.23975 0.87779 0.0
H2115 H 0.71857 0.28463 0.93709 0.0
H2116 H 0.68637 0.29475 0.92035 0.0
H2117 H 0.57307 0.25896 0.91265 0.0
H2118 H 0.59882 0.26075 0.88273 0.0
H2119 H 0.62777 0.30336 0.93377 0.0
H2120 H 0.6021 0.30156 0.96389 0.0
H2121 H 0.65267 0.27538 0.91613 0.0
H2122 H 0.60409 0.31701 0.87916 0.0
H2123 H 0.57147 0.32551 0.86222 0.0
H2124 H 0.57332 0.28114 0.80245 0.0
H2125 H 0.60587 0.2722 0.81928 0.0
C2126 C 0.70819 0.29384 0.82187 0.0
C2127 C 0.70516 0.28482 0.79702 0.0
C2128 C 0.69377 0.29394 0.83963 0.0
C2129 C 0.67618 0.28448 0.83333 0.0
C2130 C 0.67316 0.2756 0.80837 0.0
C2131 C 0.6874 0.2759 0.7904 0.0
C2132 C 0.66084 0.28393 0.85246 0.0
C2133 C 0.64187 0.28844 0.8439 0.0
C2134 C 0.66468 0.27915 0.87896 0.0
C2135 C 0.68396 0.27297 0.88921 0.0
C2136 C 0.69316 0.25732 0.87744 0.0
C2137 C 0.71143 0.25174 0.88701 0.0
C2138 C 0.72059 0.26159 0.90847 0.0
C2139 C 0.71146 0.277 0.92048 0.0
C2140 C 0.69319 0.28266 0.91097 0.0
C2141 C 0.58495 0.26866 0.91759 0.0
C2142 C 0.58544 0.28017 0.94068 0.0
C2143 C 0.59963 0.26975 0.90036 0.0
C2144 C 0.61523 0.2823 0.90583 0.0
C2145 C 0.6159 0.29361 0.92904 0.0
C2146 C 0.60112 0.29267 0.94616 0.0
C2147 C 0.63076 0.28365 0.8873 0.0
C2148 C 0.64969 0.27935 0.89602 0.0
C2149 C 0.62687 0.28839 0.86089 0.0
C2150 C 0.60735 0.29382 0.85064 0.0
C2151 C 0.59749 0.30897 0.86253 0.0
C2152 C 0.57902 0.31388 0.85293 0.0
C2153 C 0.57031 0.30384 0.83131 0.0
C2154 C 0.58008 0.28889 0.81921 0.0
C2155 C 0.59854 0.28391 0.82876 0.0
H2156 H 0.55601 0.30766 0.8239 0.0
H2157 H 0.73474 0.25726 0.91582 0.0
H2158 H 0.78672 0.70921 0.81221 0.0
H2159 H 0.79006 0.6814 0.83982 0.0
H2160 H 0.74612 0.65173 0.79116 0.0
H2161 H 0.74263 0.6797 0.76346 0.0
H2162 H 0.74106 0.64983 0.84474 0.0
H2163 H 0.79103 0.63865 0.78643 0.0
H2164 H 0.81948 0.64704 0.76326 0.0
H2165 H 0.85203 0.65618 0.83649 0.0
H2166 H 0.82368 0.6481 0.86013 0.0
H2167 H 0.75477 0.55982 0.90244 0.0
H2168 H 0.75268 0.58497 0.8704 0.0
H2169 H 0.7996 0.61509 0.91248 0.0
H2170 H 0.80173 0.59001 0.94471 0.0
H2171 H 0.80296 0.61597 0.8606 0.0
H2172 H 0.75387 0.62925 0.91917 0.0
H2173 H 0.72581 0.62212 0.94384 0.0
H2174 H 0.69203 0.61059 0.87211 0.0
H2175 H 0.72 0.6174 0.847 0.0
C2176 C 0.77771 0.69681 0.80743 0.0
C2177 C 0.76435 0.69667 0.7857 0.0
C2178 C 0.77974 0.68086 0.82311 0.0
C2179 C 0.76843 0.66445 0.81745 0.0
C2180 C 0.75503 0.66425 0.79582 0.0
C2181 C 0.75313 0.68016 0.77993 0.0
C2182 C 0.77037 0.64772 0.83455 0.0
C2183 C 0.75449 0.64218 0.84785 0.0
C2184 C 0.78807 0.63816 0.83921 0.0
C2185 C 0.80517 0.64293 0.82505 0.0
C2186 C 0.80421 0.6426 0.7976 0.0
C2187 C 0.82032 0.64727 0.78438 0.0
C2188 C 0.83754 0.65218 0.79839 0.0
C2189 C 0.83868 0.65239 0.82566 0.0
C2190 C 0.8226 0.64774 0.83898 0.0
C2191 C 0.76464 0.57181 0.90492 0.0
C2192 C 0.77832 0.57296 0.92629 0.0
C2193 C 0.76344 0.58616 0.88655 0.0
C2194 C 0.7758 0.60208 0.88923 0.0
C2195 C 0.78991 0.60296 0.91001 0.0
C2196 C 0.79115 0.58857 0.92838 0.0
C2197 C 0.77363 0.61804 0.8708 0.0
C2198 C 0.78948 0.62349 0.85733 0.0
C2199 C 0.75595 0.62768 0.86619 0.0
C2200 C 0.73909 0.62363 0.88121 0.0
C2201 C 0.7405 0.62504 0.90866 0.0
C2202 C 0.72461 0.62108 0.92272 0.0
C2203 C 0.70716 0.61585 0.90956 0.0
C2204 C 0.70557 0.61462 0.88229 0.0
C2205 C 0.72143 0.61854 0.86812 0.0
H2206 H 0.69487 0.61279 0.92048 0.0
H2207 H 0.85 0.6558 0.78812 0.0
loop_
_geom_bond_atom_site_label_1
_geom_bond_atom_site_label_2
_geom_bond_distance
_geom_bond_site_symmetry_2
_ccdc_geom_bond_type
Cu0 N1 1.999 . S
Cu0 O6 1.974 . S
Cu0 N11 1.985 . S
Cu0 O20 1.959 . S
N1 Cu0 1.999 . S
N1 C3 1.263 . S
N1 C5 1.389 . S
N2 C3 1.358 . S
N2 C4 1.400 . S
C3 N1 1.263 . S
C3 N2 1.358 . S
C3 H9 0.930 . S
C4 N2 1.400 . S
C4 C5 1.351 . S
C4 H21 0.930 . S
C5 N1 1.389 . S
C5 C4 1.351 . S
C5 H10 0.930 . S
O6 Cu0 1.974 . S
O6 C16 1.282 . S
C7 O8 1.261 . S
C7 O20 1.251 . S
O8 C7 1.261 . S
H9 C3 0.930 . S
H10 C5 0.930 . S
N11 Cu0 1.985 . S
N11 C13 1.335 . S
N11 C14 1.390 . S
N12 C13 1.345 . S
N12 C15 1.336 . S
C13 N11 1.335 . S
C13 N12 1.345 . S
C13 H18 0.930 . S
C14 N11 1.390 . S
C14 C15 1.346 . S
C14 H19 0.930 . S
C15 N12 1.336 . S
C15 C14 1.346 . S
C15 H22 0.929 . S
C16 O6 1.282 . S
C16 O17 1.216 . S
O17 C16 1.216 . S
H18 C13 0.930 . S
H19 C14 0.930 . S
O20 Cu0 1.959 . S
O20 C7 1.251 . S
H21 C4 0.930 . S
H22 C15 0.929 . S
Cu23 N24 1.999 . S
Cu23 O29 1.974 . S
Cu23 N34 1.985 . S
Cu23 O43 1.959 . S
N24 Cu23 1.999 . S
N24 C26 1.263 . S
N24 C28 1.389 . S
N25 C26 1.358 . S
N25 C27 1.400 . S
C26 N24 1.263 . S
C26 N25 1.358 . S
C26 H32 0.930 . S
C27 N25 1.400 . S
C27 C28 1.351 . S
C27 H44 0.930 . S
C28 N24 1.389 . S
C28 C27 1.351 . S
C28 H33 0.930 . S
O29 Cu23 1.974 . S
O29 C39 1.282 . S
C30 O31 1.261 . S
C30 O43 1.251 . S
O31 C30 1.261 . S
H32 C26 0.930 . S
H33 C28 0.930 . S
N34 Cu23 1.985 . S
N34 C36 1.335 . S
N34 C37 1.390 . S
N35 C36 1.345 . S
N35 C38 1.336 . S
C36 N34 1.335 . S
C36 N35 1.345 . S
C36 H41 0.930 . S
C37 N34 1.390 . S
C37 C38 1.346 . S
C37 H42 0.930 . S
C38 N35 1.336 . S
C38 C37 1.346 . S
C38 H45 0.929 . S
C39 O29 1.282 . S
C39 O40 1.216 . S
O40 C39 1.216 . S
H41 C36 0.930 . S
H42 C37 0.930 . S
O43 Cu23 1.959 . S
O43 C30 1.251 . S
H44 C27 0.930 . S
H45 C38 0.929 . S
Cu46 N47 1.999 . S
Cu46 O52 1.974 . S
Cu46 N57 1.985 . S
Cu46 O66 1.959 . S
N47 Cu46 1.999 . S
N47 C49 1.263 . S
N47 C51 1.389 . S
N48 C49 1.358 . S
N48 C50 1.400 . S
C49 N47 1.263 . S
C49 N48 1.358 . S
C49 H55 0.930 . S
C50 N48 1.400 . S
C50 C51 1.351 . S
C50 H67 0.930 . S
C51 N47 1.389 . S
C51 C50 1.351 . S
C51 H56 0.930 . S
O52 Cu46 1.974 . S
O52 C62 1.282 . S
C53 O54 1.261 . S
C53 O66 1.251 . S
O54 C53 1.261 . S
H55 C49 0.930 . S
H56 C51 0.930 . S
N57 Cu46 1.985 . S
N57 C59 1.335 . S
N57 C60 1.390 . S
N58 C59 1.345 . S
N58 C61 1.336 . S
C59 N57 1.335 . S
C59 N58 1.345 . S
C59 H64 0.930 . S
C60 N57 1.390 . S
C60 C61 1.346 . S
C60 H65 0.930 . S
C61 N58 1.336 . S
C61 C60 1.346 . S
C61 H68 0.929 . S
C62 O52 1.282 . S
C62 O63 1.216 . S
O63 C62 1.216 . S
H64 C59 0.930 . S
H65 C60 0.930 . S
O66 Cu46 1.959 . S
O66 C53 1.251 . S
H67 C50 0.930 . S
H68 C61 0.929 . S
Cu69 N70 1.999 . S
Cu69 O75 1.974 . S
Cu69 N80 1.985 . S
Cu69 O89 1.959 . S
N70 Cu69 1.999 . S
N70 C72 1.263 . S
N70 C74 1.389 . S
N71 C72 1.358 . S
N71 C73 1.400 . S
C72 N70 1.263 . S
C72 N71 1.358 . S
C72 H78 0.930 . S
C73 N71 1.400 . S
C73 C74 1.351 . S
C73 H90 0.930 . S
C74 N70 1.389 . S
C74 C73 1.351 . S
C74 H79 0.930 . S
O75 Cu69 1.974 . S
O75 C85 1.282 . S
C76 O77 1.261 . S
C76 O89 1.251 . S
O77 C76 1.261 . S
H78 C72 0.930 . S
H79 C74 0.930 . S
N80 Cu69 1.985 . S
N80 C82 1.335 . S
N80 C83 1.390 . S
N81 C82 1.345 . S
N81 C84 1.336 . S
C82 N80 1.335 . S
C82 N81 1.345 . S
C82 H87 0.930 . S
C83 N80 1.390 . S
C83 C84 1.346 . S
C83 H88 0.930 . S
C84 N81 1.336 . S
C84 C83 1.346 . S
C84 H91 0.929 . S
C85 O75 1.282 . S
C85 O86 1.216 . S
O86 C85 1.216 . S
H87 C82 0.930 . S
H88 C83 0.930 . S
O89 Cu69 1.959 . S
O89 C76 1.251 . S
H90 C73 0.930 . S
H91 C84 0.929 . S
Cu92 N93 1.999 . S
Cu92 O98 1.974 . S
Cu92 N103 1.985 . S
Cu92 O112 1.959 . S
N93 Cu92 1.999 . S
N93 C95 1.263 . S
N93 C97 1.389 . S
N94 C95 1.358 . S
N94 C96 1.400 . S
C95 N93 1.263 . S
C95 N94 1.358 . S
C95 H101 0.930 . S
C96 N94 1.400 . S
C96 C97 1.351 . S
C96 H113 0.930 . S
C97 N93 1.389 . S
C97 C96 1.351 . S
C97 H102 0.930 . S
O98 Cu92 1.974 . S
O98 C108 1.282 . S
C99 O100 1.261 . S
C99 O112 1.251 . S
O100 C99 1.261 . S
H101 C95 0.930 . S
H102 C97 0.930 . S
N103 Cu92 1.985 . S
N103 C105 1.335 . S
N103 C106 1.390 . S
N104 C105 1.345 . S
N104 C107 1.336 . S
C105 N103 1.335 . S
C105 N104 1.345 . S
C105 H110 0.930 . S
C106 N103 1.390 . S
C106 C107 1.346 . S
C106 H111 0.930 . S
C107 N104 1.336 . S
C107 C106 1.346 . S
C107 H114 0.929 . S
C108 O98 1.282 . S
C108 O109 1.216 . S
O109 C108 1.216 . S
H110 C105 0.930 . S
H111 C106 0.930 . S
O112 Cu92 1.959 . S
O112 C99 1.251 . S
H113 C96 0.930 . S
H114 C107 0.929 . S
Cu115 N116 1.999 . S
Cu115 O121 1.974 . S
Cu115 N126 1.985 . S
Cu115 O135 1.959 . S
N116 Cu115 1.999 . S
N116 C118 1.263 . S
N116 C120 1.389 . S
N117 C118 1.358 . S
N117 C119 1.400 . S
C118 N116 1.263 . S
C118 N117 1.358 . S
C118 H124 0.930 . S
C119 N117 1.400 . S
C119 C120 1.351 . S
C119 H136 0.930 . S
C120 N116 1.389 . S
C120 C119 1.351 . S
C120 H125 0.930 . S
O121 Cu115 1.974 . S
O121 C131 1.282 . S
C122 O123 1.261 . S
C122 O135 1.251 . S
O123 C122 1.261 . S
H124 C118 0.930 . S
H125 C120 0.930 . S
N126 Cu115 1.985 . S
N126 C128 1.335 . S
N126 C129 1.390 . S
N127 C128 1.345 . S
N127 C130 1.336 . S
C128 N126 1.335 . S
C128 N127 1.345 . S
C128 H133 0.930 . S
C129 N126 1.390 . S
C129 C130 1.346 . S
C129 H134 0.930 . S
C130 N127 1.336 . S
C130 C129 1.346 . S
C130 H137 0.929 . S
C131 O121 1.282 . S
C131 O132 1.216 . S
O132 C131 1.216 . S
H133 C128 0.930 . S
H134 C129 0.930 . S
O135 Cu115 1.959 . S
O135 C122 1.251 . S
H136 C119 0.930 . S
H137 C130 0.929 . S
Cu138 N139 1.999 . S
Cu138 O144 1.974 . S
Cu138 N149 1.985 . S
Cu138 O158 1.959 . S
N139 Cu138 1.999 . S
N139 C141 1.263 . S
N139 C143 1.389 . S
N140 C141 1.358 . S
N140 C142 1.400 . S
C141 N139 1.263 . S
C141 N140 1.358 . S
C141 H147 0.930 . S
C142 N140 1.400 . S
C142 C143 1.351 . S
C142 H159 0.930 . S
C143 N139 1.389 . S
C143 C142 1.351 . S
C143 H148 0.930 . S
O144 Cu138 1.974 . S
O144 C154 1.282 . S
C145 O146 1.261 . S
C145 O158 1.251 . S
O146 C145 1.261 . S
H147 C141 0.930 . S
H148 C143 0.930 . S
N149 Cu138 1.985 . S
N149 C151 1.335 . S
N149 C152 1.390 . S
N150 C151 1.345 . S
N150 C153 1.336 . S
C151 N149 1.335 . S
C151 N150 1.345 . S
C151 H156 0.930 . S
C152 N149 1.390 . S
C152 C153 1.346 . S
C152 H157 0.930 . S
C153 N150 1.336 . S
C153 C152 1.346 . S
C153 H160 0.929 . S
C154 O144 1.282 . S
C154 O155 1.216 . S
O155 C154 1.216 . S
H156 C151 0.930 . S
H157 C152 0.930 . S
O158 Cu138 1.959 . S
O158 C145 1.251 . S
H159 C142 0.930 . S
H160 C153 0.929 . S
Cu161 N162 1.999 . S
Cu161 O167 1.974 . S
Cu161 N172 1.985 . S
Cu161 O181 1.959 . S
N162 Cu161 1.999 . S
N162 C164 1.263 . S
N162 C166 1.389 . S
N163 C164 1.358 . S
N163 C165 1.400 . S
C164 N162 1.263 . S
C164 N163 1.358 . S
C164 H170 0.930 . S
C165 N163 1.400 . S
C165 C166 1.351 . S
C165 H182 0.930 . S
C166 N162 1.389 . S
C166 C165 1.351 . S
C166 H171 0.930 . S
O167 Cu161 1.974 . S
O167 C177 1.282 . S
C168 O169 1.261 . S
C168 O181 1.251 . S
O169 C168 1.261 . S
H170 C164 0.930 . S
H171 C166 0.930 . S
N172 Cu161 1.985 . S
N172 C174 1.335 . S
N172 C175 1.390 . S
N173 C174 1.345 . S
N173 C176 1.336 . S
C174 N172 1.335 . S
C174 N173 1.345 . S
C174 H179 0.930 . S
C175 N172 1.390 . S
C175 C176 1.346 . S
C175 H180 0.930 . S
C176 N173 1.336 . S
C176 C175 1.346 . S
C176 H183 0.929 . S
C177 O167 1.282 . S
C177 O178 1.216 . S
O178 C177 1.216 . S
H179 C174 0.930 . S
H180 C175 0.930 . S
O181 Cu161 1.959 . S
O181 C168 1.251 . S
H182 C165 0.930 . S
H183 C176 0.929 . S
C184 C185 1.443 . S
C184 N188 1.376 . S
C184 C222 1.389 . S
C185 C184 1.443 . S
C185 C186 1.340 . S
C185 H225 0.951 . S
C186 C185 1.340 . S
C186 C187 1.439 . S
C186 H226 0.950 . S
C187 C186 1.439 . S
C187 N188 1.374 . S
C187 C221 1.395 . S
N188 C184 1.376 . S
N188 C187 1.374 . S
N188 Co189 2.008 . S
Co189 N188 2.008 . S
Co189 N190 1.995 . S
Co189 N195 2.008 . S
Co189 N200 1.995 . S
Co189 N205 2.282 . S
Co189 N211 2.282 . S
N190 Co189 1.995 . S
N190 C191 1.376 . S
N190 C194 1.383 . S
C191 N190 1.376 . S
C191 C192 1.446 . S
C191 C221 1.391 . S
C192 C191 1.446 . S
C192 C193 1.339 1_455 S
C192 H227 0.949 . S
C193 C192 1.339 1_655 S
C193 C194 1.439 1_655 S
C193 H228 0.950 . S
C194 N190 1.383 . S
C194 C193 1.439 1_455 S
C194 C223 1.392 1_455 S
N195 Co189 2.008 . S
N195 C196 1.379 . S
N195 C199 1.374 . S
C196 N195 1.379 . S
C196 C197 1.442 1_455 S
C196 C223 1.388 1_455 S
C197 C196 1.442 1_655 S
C197 C198 1.325 1_655 S
C197 H229 0.951 . S
C198 C197 1.325 1_455 S
C198 C199 1.462 . S
C198 H230 0.944 1_455 S
C199 N195 1.374 . S
C199 C198 1.462 . S
C199 C224 1.395 . S
N200 Co189 1.995 . S
N200 C201 1.376 . S
N200 C204 1.383 . S
C201 N200 1.376 . S
C201 C202 1.446 . S
C201 C224 1.391 . S
C202 C201 1.446 . S
C202 C203 1.339 . S
C202 H231 0.949 . S
C203 C202 1.339 . S
C203 C204 1.439 . S
C203 H232 0.950 . S
C204 N200 1.383 . S
C204 C203 1.439 . S
C204 C222 1.392 . S
N205 Co189 2.282 . S
N205 C208 1.332 . S
N205 C210 1.332 1_455 S
C206 C207 1.386 . S
C206 C209 1.388 . S
C207 C206 1.386 . S
C207 C208 1.382 1_655 S
C207 H233 0.950 . S
C208 N205 1.332 . S
C208 C207 1.382 1_455 S
C208 H219 0.952 . S
C209 C206 1.388 . S
C209 C210 1.382 . S
C209 H234 0.950 . S
C210 N205 1.332 1_655 S
C210 C209 1.382 . S
C210 H220 0.948 1_655 S
N211 Co189 2.282 . S
N211 C215 1.332 . S
N211 C216 1.332 . S
C212 C213 1.388 . S
C212 C216 1.382 . S
C212 H235 0.950 . S
C213 C212 1.388 . S
C213 C214 1.386 . S
C214 C213 1.386 . S
C214 C215 1.382 . S
C214 H236 0.950 . S
C215 N211 1.332 . S
C215 C214 1.382 . S
C215 H217 0.952 . S
C216 N211 1.332 . S
C216 C212 1.382 . S
C216 H218 0.948 . S
H217 C215 0.952 . S
H218 C216 0.948 . S
H219 C208 0.952 . S
H220 C210 0.948 1_455 S
C221 C187 1.395 . S
C221 C191 1.391 . S
C222 C184 1.389 . S
C222 C204 1.392 . S
C223 C194 1.392 1_655 S
C223 C196 1.388 1_655 S
C224 C199 1.395 . S
C224 C201 1.391 . S
H225 C185 0.951 . S
H226 C186 0.950 . S
H227 C192 0.949 . S
H228 C193 0.950 . S
H229 C197 0.951 . S
H230 C198 0.944 1_655 S
H231 C202 0.949 . S
H232 C203 0.950 . S
H233 C207 0.950 . S
H234 C209 0.950 . S
H235 C212 0.950 . S
H236 C214 0.950 . S
C237 C238 1.443 . S
C237 N241 1.376 . S
C237 C275 1.389 . S
C238 C237 1.443 . S
C238 C239 1.340 . S
C238 H278 0.951 . S
C239 C238 1.340 . S
C239 C240 1.439 . S
C239 H279 0.950 . S
C240 C239 1.439 . S
C240 N241 1.374 . S
C240 C274 1.395 . S
N241 C237 1.376 . S
N241 C240 1.374 . S
N241 Co242 2.008 . S
Co242 N241 2.008 . S
Co242 N243 1.995 . S
Co242 N248 2.008 . S
Co242 N253 1.995 . S
Co242 N258 2.282 . S
Co242 N264 2.282 . S
N243 Co242 1.995 . S
N243 C244 1.376 . S
N243 C247 1.383 . S
C244 N243 1.376 . S
C244 C245 1.446 . S
C244 C274 1.391 . S
C245 C244 1.446 . S
C245 C246 1.339 1_545 S
C245 H280 0.949 . S
C246 C245 1.339 1_565 S
C246 C247 1.439 1_565 S
C246 H281 0.950 . S
C247 N243 1.383 . S
C247 C246 1.439 1_545 S
C247 C276 1.392 1_545 S
N248 Co242 2.008 . S
N248 C249 1.421 . S
N248 C252 1.374 . S
C249 N248 1.421 . S
C249 C250 1.418 1_545 S
C249 C276 1.372 1_545 S
C250 C249 1.418 1_565 S
C250 C251 1.340 1_565 S
C250 H282 0.951 . S
C251 C250 1.340 1_545 S
C251 C252 1.439 . S
C251 H283 0.950 1_545 S
C252 N248 1.374 . S
C252 C251 1.439 . S
C252 C277 1.395 . S
N253 Co242 1.995 . S
N253 C254 1.376 . S
N253 C257 1.383 . S
C254 N253 1.376 . S
C254 C255 1.446 . S
C254 C277 1.391 . S
C255 C254 1.446 . S
C255 C256 1.339 . S
C255 H284 0.949 . S
C256 C255 1.339 . S
C256 C257 1.439 . S
C256 H285 0.950 . S
C257 N253 1.383 . S
C257 C256 1.439 . S
C257 C275 1.392 . S
N258 Co242 2.282 . S
N258 C261 1.332 . S
N258 C263 1.332 1_545 S
C259 C260 1.386 . S
C259 C262 1.388 . S
C260 C259 1.386 . S
C260 C261 1.382 1_565 S
C260 H286 0.950 . S
C261 N258 1.332 . S
C261 C260 1.382 1_545 S
C261 H272 0.952 . S
C262 C259 1.388 . S
C262 C263 1.382 . S
C262 H287 0.950 . S
C263 N258 1.332 1_565 S
C263 C262 1.382 . S
C263 H273 0.948 1_565 S
N264 Co242 2.282 . S
N264 C268 1.332 . S
N264 C269 1.332 . S
C265 C266 1.388 . S
C265 C269 1.382 . S
C265 H288 0.950 . S
C266 C265 1.388 . S
C266 C267 1.386 . S
C267 C266 1.386 . S
C267 C268 1.382 . S
C267 H289 0.950 . S
C268 N264 1.332 . S
C268 C267 1.382 . S
C268 H270 0.952 . S
C269 N264 1.332 . S
C269 C265 1.382 . S
C269 H271 0.948 . S
H270 C268 0.952 . S
H271 C269 0.948 . S
H272 C261 0.952 . S
H273 C263 0.948 1_545 S
C274 C240 1.395 . S
C274 C244 1.391 . S
C275 C237 1.389 . S
C275 C257 1.392 . S
C276 C247 1.392 1_565 S
C276 C249 1.372 1_565 S
C277 C252 1.395 . S
C277 C254 1.391 . S
H278 C238 0.951 . S
H279 C239 0.950 . S
H280 C245 0.949 . S
H281 C246 0.950 . S
H282 C250 0.951 . S
H283 C251 0.950 1_565 S
H284 C255 0.949 . S
H285 C256 0.950 . S
H286 C260 0.950 . S
H287 C262 0.950 . S
H288 C265 0.950 . S
H289 C267 0.950 . S
C290 C291 1.443 . S
C290 N294 1.376 . S
C290 C328 1.389 . S
C291 C290 1.443 . S
C291 C292 1.340 . S
C291 H331 0.951 . S
C292 C291 1.340 . S
C292 C293 1.439 . S
C292 H332 0.950 . S
C293 C292 1.439 . S
C293 N294 1.374 . S
C293 C327 1.395 . S
N294 C290 1.376 . S
N294 C293 1.374 . S
N294 Co295 2.008 . S
Co295 N294 2.008 . S
Co295 N296 1.995 1_455 S
Co295 N301 2.008 1_455 S
Co295 N306 1.995 . S
Co295 N311 2.282 1_455 S
Co295 N317 2.282 . S
N296 Co295 1.995 1_655 S
N296 C297 1.376 . S
N296 C300 1.383 . S
C297 N296 1.376 . S
C297 C298 1.446 . S
C297 C327 1.391 1_655 S
C298 C297 1.446 . S
C298 C299 1.339 . S
C298 H333 0.949 . S
C299 C298 1.339 . S
C299 C300 1.439 . S
C299 H334 0.950 . S
C300 N296 1.383 . S
C300 C299 1.439 . S
C300 C329 1.392 . S
N301 Co295 2.008 1_655 S
N301 C302 1.376 . S
N301 C305 1.374 . S
C302 N301 1.376 . S
C302 C303 1.443 . S
C302 C329 1.389 . S
C303 C302 1.443 . S
C303 C304 1.340 . S
C303 H335 0.951 . S
C304 C303 1.340 . S
C304 C305 1.439 . S
C304 H336 0.950 . S
C305 N301 1.374 . S
C305 C304 1.439 . S
C305 C330 1.395 1_655 S
N306 Co295 1.995 . S
N306 C307 1.376 . S
N306 C310 1.383 . S
C307 N306 1.376 . S
C307 C308 1.446 . S
C307 C330 1.391 . S
C308 C307 1.446 . S
C308 C309 1.339 . S
C308 H337 0.949 . S
C309 C308 1.339 . S
C309 C310 1.439 . S
C309 H338 0.950 . S
C310 N306 1.383 . S
C310 C309 1.439 . S
C310 C328 1.392 . S
N311 Co295 2.282 1_655 S
N311 C314 1.332 . S
N311 C316 1.332 . S
C312 C313 1.386 . S
C312 C315 1.388 . S
C313 C312 1.386 . S
C313 C314 1.382 . S
C313 H339 0.950 . S
C314 N311 1.332 . S
C314 C313 1.382 . S
C314 H325 0.952 . S
C315 C312 1.388 . S
C315 C316 1.382 . S
C315 H340 0.950 . S
C316 N311 1.332 . S
C316 C315 1.382 . S
C316 H326 0.948 . S
N317 Co295 2.282 . S
N317 C321 1.332 . S
N317 C322 1.332 . S
C318 C319 1.388 . S
C318 C322 1.382 . S
C318 H341 0.950 . S
C319 C318 1.388 . S
C319 C320 1.386 . S
C320 C319 1.386 . S
C320 C321 1.382 . S
C320 H342 0.950 . S
C321 N317 1.332 . S
C321 C320 1.382 . S
C321 H323 0.952 . S
C322 N317 1.332 . S
C322 C318 1.382 . S
C322 H324 0.948 . S
H323 C321 0.952 . S
H324 C322 0.948 . S
H325 C314 0.952 . S
H326 C316 0.948 . S
C327 C293 1.395 . S
C327 C297 1.391 1_455 S
C328 C290 1.389 . S
C328 C310 1.392 . S
C329 C300 1.392 . S
C329 C302 1.389 . S
C330 C305 1.395 1_455 S
C330 C307 1.391 . S
H331 C291 0.951 . S
H332 C292 0.950 . S
H333 C298 0.949 . S
H334 C299 0.950 . S
H335 C303 0.951 . S
H336 C304 0.950 . S
H337 C308 0.949 . S
H338 C309 0.950 . S
H339 C313 0.950 . S
H340 C315 0.950 . S
H341 C318 0.950 . S
H342 C320 0.950 . S
C343 C344 1.443 . S
C343 N347 1.376 . S
C343 C381 1.389 . S
C344 C343 1.443 . S
C344 C345 1.340 . S
C344 H384 0.951 . S
C345 C344 1.340 . S
C345 C346 1.439 . S
C345 H385 0.950 . S
C346 C345 1.439 . S
C346 N347 1.374 . S
C346 C380 1.395 1_565 S
N347 C343 1.376 . S
N347 C346 1.374 . S
N347 Co348 2.008 1_565 S
Co348 N347 2.008 1_545 S
Co348 N349 1.995 . S
Co348 N354 2.008 . S
Co348 N359 1.995 1_545 S
Co348 N364 2.282 . S
Co348 N370 2.282 1_545 S
N349 Co348 1.995 . S
N349 C350 1.376 . S
N349 C353 1.383 . S
C350 N349 1.376 . S
C350 C351 1.446 . S
C350 C380 1.391 . S
C351 C350 1.446 . S
C351 C352 1.339 . S
C351 H386 0.949 . S
C352 C351 1.339 . S
C352 C353 1.439 . S
C352 H387 0.950 . S
C353 N349 1.383 . S
C353 C352 1.439 . S
C353 C382 1.392 . S
N354 Co348 2.008 . S
N354 C355 1.376 . S
N354 C358 1.374 . S
C355 N354 1.376 . S
C355 C356 1.443 . S
C355 C382 1.389 . S
C356 C355 1.443 . S
C356 C357 1.340 . S
C356 H388 0.951 . S
C357 C356 1.340 . S
C357 C358 1.439 . S
C357 H389 0.950 . S
C358 N354 1.374 . S
C358 C357 1.439 . S
C358 C383 1.395 . S
N359 Co348 1.995 1_565 S
N359 C360 1.376 . S
N359 C363 1.383 . S
C360 N359 1.376 . S
C360 C361 1.446 . S
C360 C383 1.391 1_565 S
C361 C360 1.446 . S
C361 C362 1.339 . S
C361 H390 0.949 . S
C362 C361 1.339 . S
C362 C363 1.439 . S
C362 H391 0.950 . S
C363 N359 1.383 . S
C363 C362 1.439 . S
C363 C381 1.392 . S
N364 Co348 2.282 . S
N364 C367 1.332 . S
N364 C369 1.332 . S
C365 C366 1.386 . S
C365 C368 1.388 . S
C366 C365 1.386 . S
C366 C367 1.382 . S
C366 H392 0.950 . S
C367 N364 1.332 . S
C367 C366 1.382 . S
C367 H378 0.952 . S
C368 C365 1.388 . S
C368 C369 1.382 . S
C368 H393 0.950 . S
C369 N364 1.332 . S
C369 C368 1.382 . S
C369 H379 0.948 . S
N370 Co348 2.282 1_565 S
N370 C374 1.332 . S
N370 C375 1.332 . S
C371 C372 1.388 . S
C371 C375 1.382 . S
C371 H394 0.950 . S
C372 C371 1.388 . S
C372 C373 1.386 . S
C373 C372 1.386 . S
C373 C374 1.382 . S
C373 H395 0.950 . S
C374 N370 1.332 . S
C374 C373 1.382 . S
C374 H376 0.952 . S
C375 N370 1.332 . S
C375 C371 1.382 . S
C375 H377 0.948 . S
H376 C374 0.952 . S
H377 C375 0.948 . S
H378 C367 0.952 . S
H379 C369 0.948 . S
C380 C346 1.395 1_545 S
C380 C350 1.391 . S
C381 C343 1.389 . S
C381 C363 1.392 . S
C382 C353 1.392 . S
C382 C355 1.389 . S
C383 C358 1.395 . S
C383 C360 1.391 1_545 S
H384 C344 0.951 . S
H385 C345 0.950 . S
H386 C351 0.949 . S
H387 C352 0.950 . S
H388 C356 0.951 . S
H389 C357 0.950 . S
H390 C361 0.949 . S
H391 C362 0.950 . S
H392 C366 0.950 . S
H393 C368 0.950 . S
H394 C371 0.950 . S
H395 C373 0.950 . S
C396 C397 1.443 . S
C396 N400 1.376 . S
C396 C434 1.389 . S
C397 C396 1.443 . S
C397 C398 1.340 . S
C397 H437 0.951 . S
C398 C397 1.340 . S
C398 C399 1.439 . S
C398 H438 0.950 . S
C399 C398 1.439 . S
C399 N400 1.374 . S
C399 C433 1.395 1_554 S
N400 C396 1.376 . S
N400 C399 1.374 . S
N400 Co401 2.008 . S
Co401 N400 2.008 . S
Co401 N402 1.995 1_554 S
Co401 N407 2.008 1_554 S
Co401 N412 1.995 . S
Co401 N417 2.282 . S
Co401 N423 2.282 1_554 S
N402 Co401 1.995 1_556 S
N402 C403 1.376 . S
N402 C406 1.383 . S
C403 N402 1.376 . S
C403 C404 1.446 . S
C403 C433 1.391 . S
C404 C403 1.446 . S
C404 C405 1.339 . S
C404 H439 0.949 . S
C405 C404 1.339 . S
C405 C406 1.439 . S
C405 H440 0.950 . S
C406 N402 1.383 . S
C406 C405 1.439 . S
C406 C435 1.392 . S
N407 Co401 2.008 1_556 S
N407 C408 1.376 . S
N407 C411 1.374 . S
C408 N407 1.376 . S
C408 C409 1.443 . S
C408 C435 1.389 . S
C409 C408 1.443 . S
C409 C410 1.340 . S
C409 H441 0.951 . S
C410 C409 1.340 . S
C410 C411 1.439 . S
C410 H442 0.950 . S
C411 N407 1.374 . S
C411 C410 1.439 . S
C411 C436 1.395 1_556 S
N412 Co401 1.995 . S
N412 C413 1.376 . S
N412 C416 1.383 . S
C413 N412 1.376 . S
C413 C414 1.446 . S
C413 C436 1.391 . S
C414 C413 1.446 . S
C414 C415 1.339 . S
C414 H443 0.949 . S
C415 C414 1.339 . S
C415 C416 1.439 . S
C415 H444 0.950 . S
C416 N412 1.383 . S
C416 C415 1.439 . S
C416 C434 1.392 . S
N417 Co401 2.282 . S
N417 C420 1.332 . S
N417 C422 1.332 . S
C418 C419 1.386 . S
C418 C421 1.388 . S
C419 C418 1.386 . S
C419 C420 1.382 . S
C419 H445 0.950 . S
C420 N417 1.332 . S
C420 C419 1.382 . S
C420 H431 0.952 . S
C421 C418 1.388 . S
C421 C422 1.382 . S
C421 H446 0.950 . S
C422 N417 1.332 . S
C422 C421 1.382 . S
C422 H432 0.948 . S
N423 Co401 2.282 1_556 S
N423 C427 1.332 . S
N423 C428 1.332 . S
C424 C425 1.388 . S
C424 C428 1.382 . S
C424 H447 0.950 . S
C425 C424 1.388 . S
C425 C426 1.386 . S
C426 C425 1.386 . S
C426 C427 1.382 . S
C426 H448 0.950 . S
C427 N423 1.332 . S
C427 C426 1.382 . S
C427 H429 0.952 . S
C428 N423 1.332 . S
C428 C424 1.382 . S
C428 H430 0.948 . S
H429 C427 0.952 . S
H430 C428 0.948 . S
H431 C420 0.952 . S
H432 C422 0.948 . S
C433 C399 1.395 1_556 S
C433 C403 1.391 . S
C434 C396 1.389 . S
C434 C416 1.392 . S
C435 C406 1.392 . S
C435 C408 1.389 . S
C436 C411 1.395 1_554 S
C436 C413 1.391 . S
H437 C397 0.951 . S
H438 C398 0.950 . S
H439 C404 0.949 . S
H440 C405 0.950 . S
H441 C409 0.951 . S
H442 C410 0.950 . S
H443 C414 0.949 . S
H444 C415 0.950 . S
H445 C419 0.950 . S
H446 C421 0.950 . S
H447 C424 0.950 . S
H448 C426 0.950 . S
C449 C450 1.443 . S
C449 N453 1.376 . S
C449 C487 1.389 . S
C450 C449 1.443 . S
C450 C451 1.340 . S
C450 H490 0.951 . S
C451 C450 1.340 . S
C451 C452 1.439 . S
C451 H491 0.950 . S
C452 C451 1.439 . S
C452 N453 1.374 . S
C452 C486 1.395 . S
N453 C449 1.376 . S
N453 C452 1.374 . S
N453 Co454 2.008 . S
Co454 N453 2.008 . S
Co454 N455 1.995 1_554 S
Co454 N460 2.008 1_554 S
Co454 N465 1.995 . S
Co454 N470 2.282 . S
Co454 N476 2.282 1_554 S
N455 Co454 1.995 1_556 S
N455 C456 1.376 . S
N455 C459 1.383 . S
C456 N455 1.376 . S
C456 C457 1.446 . S
C456 C486 1.391 1_556 S
C457 C456 1.446 . S
C457 C458 1.339 . S
C457 H492 0.949 . S
C458 C457 1.339 . S
C458 C459 1.439 . S
C458 H493 0.950 . S
C459 N455 1.383 . S
C459 C458 1.439 . S
C459 C488 1.392 . S
N460 Co454 2.008 1_556 S
N460 C461 1.376 . S
N460 C464 1.374 1_556 S
C461 N460 1.376 . S
C461 C462 1.443 . S
C461 C488 1.389 . S
C462 C461 1.443 . S
C462 C463 1.340 . S
C462 H494 0.951 . S
C463 C462 1.340 . S
C463 C464 1.439 1_556 S
C463 H495 0.950 . S
C464 N460 1.374 1_554 S
C464 C463 1.439 1_554 S
C464 C489 1.395 . S
N465 Co454 1.995 . S
N465 C466 1.376 . S
N465 C469 1.383 . S
C466 N465 1.376 . S
C466 C467 1.446 . S
C466 C489 1.391 . S
C467 C466 1.446 . S
C467 C468 1.339 . S
C467 H496 0.949 . S
C468 C467 1.339 . S
C468 C469 1.439 . S
C468 H497 0.950 . S
C469 N465 1.383 . S
C469 C468 1.439 . S
C469 C487 1.392 . S
N470 Co454 2.282 . S
N470 C473 1.332 . S
N470 C475 1.332 . S
C471 C472 1.386 . S
C471 C474 1.388 . S
C472 C471 1.386 . S
C472 C473 1.382 . S
C472 H498 0.950 . S
C473 N470 1.332 . S
C473 C472 1.382 . S
C473 H484 0.952 . S
C474 C471 1.388 . S
C474 C475 1.382 . S
C474 H499 0.950 . S
C475 N470 1.332 . S
C475 C474 1.382 . S
C475 H485 0.948 . S
N476 Co454 2.282 1_556 S
N476 C480 1.332 . S
N476 C481 1.332 . S
C477 C478 1.388 . S
C477 C481 1.382 . S
C477 H500 0.950 . S
C478 C477 1.388 . S
C478 C479 1.386 . S
C479 C478 1.386 . S
C479 C480 1.382 . S
C479 H501 0.950 . S
C480 N476 1.332 . S
C480 C479 1.382 . S
C480 H482 0.952 . S
C481 N476 1.332 . S
C481 C477 1.382 . S
C481 H483 0.948 . S
H482 C480 0.952 . S
H483 C481 0.948 . S
H484 C473 0.952 . S
H485 C475 0.948 . S
C486 C452 1.395 . S
C486 C456 1.391 1_554 S
C487 C449 1.389 . S
C487 C469 1.392 . S
C488 C459 1.392 . S
C488 C461 1.389 . S
C489 C464 1.395 . S
C489 C466 1.391 . S
H490 C450 0.951 . S
H491 C451 0.950 . S
H492 C457 0.949 . S
H493 C458 0.950 . S
H494 C462 0.951 . S
H495 C463 0.950 . S
H496 C467 0.949 . S
H497 C468 0.950 . S
H498 C472 0.950 . S
H499 C474 0.950 . S
H500 C477 0.950 . S
H501 C479 0.950 . S
C502 C503 1.443 . S
C502 N506 1.376 1_556 S
C502 C540 1.389 . S
C503 C502 1.443 . S
C503 C504 1.340 1_556 S
C503 H543 0.951 . S
C504 C503 1.340 1_554 S
C504 C505 1.439 . S
C504 H544 0.950 . S
C505 C504 1.439 . S
C505 N506 1.374 . S
C505 C539 1.395 . S
N506 C502 1.376 1_554 S
N506 C505 1.374 . S
N506 Co507 2.008 . S
Co507 N506 2.008 . S
Co507 N508 1.995 . S
Co507 N513 2.008 . S
Co507 N518 1.995 . S
Co507 N523 2.282 1_554 S
Co507 N529 2.282 . S
N508 Co507 1.995 . S
N508 C509 1.376 . S
N508 C512 1.383 . S
C509 N508 1.376 . S
C509 C510 1.446 . S
C509 C539 1.391 . S
C510 C509 1.446 . S
C510 C511 1.339 . S
C510 H545 0.949 . S
C511 C510 1.339 . S
C511 C512 1.439 . S
C511 H546 0.950 . S
C512 N508 1.383 . S
C512 C511 1.439 . S
C512 C541 1.392 . S
N513 Co507 2.008 . S
N513 C514 1.376 . S
N513 C517 1.374 . S
C514 N513 1.376 . S
C514 C515 1.443 . S
C514 C541 1.389 . S
C515 C514 1.443 . S
C515 C516 1.340 . S
C515 H547 0.951 . S
C516 C515 1.340 . S
C516 C517 1.439 . S
C516 H548 0.950 . S
C517 N513 1.374 . S
C517 C516 1.439 . S
C517 C542 1.395 . S
N518 Co507 1.995 . S
N518 C519 1.376 . S
N518 C522 1.383 1_554 S
C519 N518 1.376 . S
C519 C520 1.446 1_554 S
C519 C542 1.391 . S
C520 C519 1.446 1_556 S
C520 C521 1.339 . S
C520 H549 0.949 . S
C521 C520 1.339 . S
C521 C522 1.439 . S
C521 H550 0.950 . S
C522 N518 1.383 1_556 S
C522 C521 1.439 . S
C522 C540 1.392 . S
N523 Co507 2.282 1_556 S
N523 C526 1.332 . S
N523 C528 1.332 . S
C524 C525 1.386 . S
C524 C527 1.388 . S
C525 C524 1.386 . S
C525 C526 1.382 . S
C525 H551 0.950 . S
C526 N523 1.332 . S
C526 C525 1.382 . S
C526 H537 0.952 . S
C527 C524 1.388 . S
C527 C528 1.382 . S
C527 H552 0.950 . S
C528 N523 1.332 . S
C528 C527 1.382 . S
C528 H538 0.948 1_556 S
N529 Co507 2.282 . S
N529 C533 1.332 . S
N529 C534 1.332 . S
C530 C531 1.388 . S
C530 C534 1.382 . S
C530 H553 0.950 . S
C531 C530 1.388 . S
C531 C532 1.386 . S
C532 C531 1.386 . S
C532 C533 1.382 . S
C532 H554 0.950 . S
C533 N529 1.332 . S
C533 C532 1.382 . S
C533 H535 0.952 . S
C534 N529 1.332 . S
C534 C530 1.382 . S
C534 H536 0.948 . S
H535 C533 0.952 . S
H536 C534 0.948 . S
H537 C526 0.952 . S
H538 C528 0.948 1_554 S
C539 C505 1.395 . S
C539 C509 1.391 . S
C540 C502 1.389 . S
C540 C522 1.392 . S
C541 C512 1.392 . S
C541 C514 1.389 . S
C542 C517 1.395 . S
C542 C519 1.391 . S
H543 C503 0.951 . S
H544 C504 0.950 . S
H545 C510 0.949 . S
H546 C511 0.950 . S
H547 C515 0.951 . S
H548 C516 0.950 . S
H549 C520 0.949 . S
H550 C521 0.950 . S
H551 C525 0.950 . S
H552 C527 0.950 . S
H553 C530 0.950 . S
H554 C532 0.950 . S
C555 C556 1.443 . S
C555 N559 1.376 . S
C555 C593 1.389 . S
C556 C555 1.443 . S
C556 C557 1.340 . S
C556 H596 0.951 . S
C557 C556 1.340 . S
C557 C558 1.439 . S
C557 H597 0.950 . S
C558 C557 1.439 . S
C558 N559 1.374 . S
C558 C592 1.404 . S
N559 C555 1.376 . S
N559 C558 1.374 . S
N559 Co560 2.008 . S
Co560 N559 2.008 . S
Co560 N561 1.995 1_554 S
Co560 N566 2.008 1_554 S
Co560 N571 1.995 . S
Co560 N576 2.282 . S
Co560 N582 2.282 1_554 S
N561 Co560 1.995 1_556 S
N561 C562 1.376 . S
N561 C565 1.383 . S
C562 N561 1.376 . S
C562 C563 1.446 . S
C562 C592 1.384 1_556 S
C563 C562 1.446 . S
C563 C564 1.339 . S
C563 H598 0.949 . S
C564 C563 1.339 . S
C564 C565 1.439 . S
C564 H599 0.950 . S
C565 N561 1.383 . S
C565 C564 1.439 . S
C565 C594 1.392 . S
N566 Co560 2.008 1_556 S
N566 C567 1.376 . S
N566 C570 1.374 1_556 S
C567 N566 1.376 . S
C567 C568 1.443 . S
C567 C594 1.389 . S
C568 C567 1.443 . S
C568 C569 1.340 . S
C568 H600 0.951 . S
C569 C568 1.340 . S
C569 C570 1.439 1_556 S
C569 H601 0.950 . S
C570 N566 1.374 1_554 S
C570 C569 1.439 1_554 S
C570 C595 1.395 . S
N571 Co560 1.995 . S
N571 C572 1.376 . S
N571 C575 1.383 . S
C572 N571 1.376 . S
C572 C573 1.446 . S
C572 C595 1.391 . S
C573 C572 1.446 . S
C573 C574 1.339 . S
C573 H602 0.949 . S
C574 C573 1.339 . S
C574 C575 1.439 . S
C574 H603 0.950 . S
C575 N571 1.383 . S
C575 C574 1.439 . S
C575 C593 1.392 . S
N576 Co560 2.282 . S
N576 C579 1.332 . S
N576 C581 1.332 . S
C577 C578 1.386 . S
C577 C580 1.388 . S
C578 C577 1.386 . S
C578 C579 1.382 . S
C578 H604 0.950 . S
C579 N576 1.332 . S
C579 C578 1.382 . S
C579 H590 0.952 . S
C580 C577 1.388 . S
C580 C581 1.382 . S
C580 H605 0.950 . S
C581 N576 1.332 . S
C581 C580 1.382 . S
C581 H591 0.948 . S
N582 Co560 2.282 1_556 S
N582 C586 1.332 . S
N582 C587 1.332 . S
C583 C584 1.388 . S
C583 C587 1.382 . S
C583 H606 0.950 . S
C584 C583 1.388 . S
C584 C585 1.386 . S
C585 C584 1.386 . S
C585 C586 1.382 . S
C585 H607 0.950 . S
C586 N582 1.332 . S
C586 C585 1.382 . S
C586 H588 0.952 . S
C587 N582 1.332 . S
C587 C583 1.382 . S
C587 H589 0.948 . S
H588 C586 0.952 . S
H589 C587 0.948 . S
H590 C579 0.952 . S
H591 C581 0.948 . S
C592 C558 1.404 . S
C592 C562 1.384 1_554 S
C593 C555 1.389 . S
C593 C575 1.392 . S
C594 C565 1.392 . S
C594 C567 1.389 . S
C595 C570 1.395 . S
C595 C572 1.391 . S
H596 C556 0.951 . S
H597 C557 0.950 . S
H598 C563 0.949 . S
H599 C564 0.950 . S
H600 C568 0.951 . S
H601 C569 0.950 . S
H602 C573 0.949 . S
H603 C574 0.950 . S
H604 C578 0.950 . S
H605 C580 0.950 . S
H606 C583 0.950 . S
H607 C585 0.950 . S
H608 C626 0.951 . S
H609 C628 0.951 . S
H610 C630 0.950 . S
H611 C631 0.950 . S
H612 C633 0.950 . S
H613 C636 0.950 . S
H614 C637 0.950 . S
H615 C639 0.950 . S
H616 C640 0.950 . S
H617 C641 0.951 . S
H618 C643 0.951 . S
H619 C645 0.950 . S
H620 C646 0.950 . S
H621 C648 0.950 . S
H622 C651 0.950 . S
H623 C652 0.950 . S
H624 C654 0.950 . S
H625 C655 0.950 . S
C626 H608 0.951 . S
C626 C627 1.366 . S
C626 C628 1.388 . S
C627 C626 1.366 . S
C627 C631 1.385 . S
C628 H609 0.951 . S
C628 C626 1.388 . S
C628 C629 1.366 . S
C629 C628 1.366 . S
C629 C630 1.414 . S
C629 C632 1.499 . S
C630 H610 0.950 . S
C630 C629 1.414 . S
C630 C631 1.374 . S
C631 H611 0.950 . S
C631 C627 1.385 . S
C631 C630 1.374 . S
C632 C629 1.499 . S
C632 C633 1.373 . S
C632 C634 1.389 . S
C633 H612 0.950 . S
C633 C632 1.373 . S
C633 C649 1.377 . S
C634 C632 1.389 . S
C634 C635 1.524 . S
C634 C648 1.377 . S
C635 C634 1.524 . S
C635 C636 1.397 . S
C635 C640 1.363 . S
C636 H613 0.950 . S
C636 C635 1.397 . S
C636 C637 1.334 . S
C637 H614 0.950 . S
C637 C636 1.334 . S
C637 C638 1.287 . S
C638 C637 1.287 . S
C638 C639 1.524 . S
C638 H657 0.913 . S
C639 H615 0.950 . S
C639 C638 1.524 . S
C639 C640 1.415 . S
C640 H616 0.950 . S
C640 C635 1.363 . S
C640 C639 1.415 . S
C641 H617 0.951 . S
C641 C642 1.366 . S
C641 C643 1.388 . S
C642 C641 1.366 . S
C642 C646 1.385 . S
C643 H618 0.951 . S
C643 C641 1.388 . S
C643 C644 1.366 . S
C644 C643 1.366 . S
C644 C645 1.414 . S
C644 C647 1.499 . S
C645 H619 0.950 . S
C645 C644 1.414 . S
C645 C646 1.374 . S
C646 H620 0.950 . S
C646 C642 1.385 . S
C646 C645 1.374 . S
C647 C644 1.499 . S
C647 C648 1.373 . S
C647 C649 1.389 . S
C648 H621 0.950 . S
C648 C634 1.377 . S
C648 C647 1.373 . S
C649 C633 1.377 . S
C649 C647 1.389 . S
C649 C650 1.524 . S
C650 C649 1.524 . S
C650 C651 1.397 . S
C650 C655 1.363 . S
C651 H622 0.950 . S
C651 C650 1.397 . S
C651 C652 1.334 . S
C652 H623 0.950 . S
C652 C651 1.334 . S
C652 C653 1.287 . S
C653 C652 1.287 . S
C653 C654 1.524 . S
C653 H656 0.999 . S
C654 H624 0.950 . S
C654 C653 1.524 . S
C654 C655 1.415 . S
C655 H625 0.950 . S
C655 C650 1.363 . S
C655 C654 1.415 . S
H656 C653 0.999 . S
H657 C638 0.913 . S
H658 C676 0.951 . S
H659 C678 0.951 . S
H660 C680 0.950 . S
H661 C681 0.950 . S
H662 C683 0.950 . S
H663 C686 0.950 . S
H664 C687 0.950 . S
H665 C689 0.950 . S
H666 C690 0.950 . S
H667 C691 0.951 . S
H668 C693 0.951 . S
H669 C695 0.950 . S
H670 C696 0.950 . S
H671 C698 0.950 . S
H672 C701 0.950 . S
H673 C702 0.950 . S
H674 C704 0.950 . S
H675 C705 0.950 . S
C676 H658 0.951 . S
C676 C677 1.366 . S
C676 C678 1.388 . S
C677 C676 1.366 . S
C677 C681 1.385 . S
C678 H659 0.951 . S
C678 C676 1.388 . S
C678 C679 1.366 . S
C679 C678 1.366 . S
C679 C680 1.414 . S
C679 C682 1.499 . S
C680 H660 0.950 . S
C680 C679 1.414 . S
C680 C681 1.374 . S
C681 H661 0.950 . S
C681 C677 1.385 . S
C681 C680 1.374 . S
C682 C679 1.499 . S
C682 C683 1.373 . S
C682 C684 1.389 . S
C683 H662 0.950 . S
C683 C682 1.373 . S
C683 C699 1.377 . S
C684 C682 1.389 . S
C684 C685 1.524 . S
C684 C698 1.377 . S
C685 C684 1.524 . S
C685 C686 1.397 . S
C685 C690 1.363 . S
C686 H663 0.950 . S
C686 C685 1.397 . S
C686 C687 1.334 . S
C687 H664 0.950 . S
C687 C686 1.334 . S
C687 C688 1.287 . S
C688 C687 1.287 . S
C688 C689 1.524 . S
C688 H707 0.913 . S
C689 H665 0.950 . S
C689 C688 1.524 . S
C689 C690 1.415 . S
C690 H666 0.950 . S
C690 C685 1.363 . S
C690 C689 1.415 . S
C691 H667 0.951 . S
C691 C692 1.366 . S
C691 C693 1.388 . S
C692 C691 1.366 . S
C692 C696 1.385 . S
C693 H668 0.951 . S
C693 C691 1.388 . S
C693 C694 1.366 . S
C694 C693 1.366 . S
C694 C695 1.414 . S
C694 C697 1.499 . S
C695 H669 0.950 . S
C695 C694 1.414 . S
C695 C696 1.374 . S
C696 H670 0.950 . S
C696 C692 1.385 . S
C696 C695 1.374 . S
C697 C694 1.499 . S
C697 C698 1.373 . S
C697 C699 1.389 . S
C698 H671 0.950 . S
C698 C684 1.377 . S
C698 C697 1.373 . S
C699 C683 1.377 . S
C699 C697 1.389 . S
C699 C700 1.524 . S
C700 C699 1.524 . S
C700 C701 1.397 . S
C700 C705 1.363 . S
C701 H672 0.950 . S
C701 C700 1.397 . S
C701 C702 1.334 . S
C702 H673 0.950 . S
C702 C701 1.334 . S
C702 C703 1.287 . S
C703 C702 1.287 . S
C703 C704 1.524 . S
C703 H706 0.999 . S
C704 H674 0.950 . S
C704 C703 1.524 . S
C704 C705 1.415 . S
C705 H675 0.950 . S
C705 C700 1.363 . S
C705 C704 1.415 . S
H706 C703 0.999 . S
H707 C688 0.913 . S
H708 C726 0.951 . S
H709 C728 0.951 . S
H710 C730 0.950 . S
H711 C731 0.950 . S
H712 C733 0.950 . S
H713 C736 0.950 . S
H714 C737 0.950 . S
H715 C739 0.950 . S
H716 C740 0.950 . S
H717 C741 0.951 . S
H718 C743 0.951 . S
H719 C745 0.950 . S
H720 C746 0.950 . S
H721 C748 0.950 . S
H722 C751 0.950 . S
H723 C752 0.950 . S
H724 C754 0.950 . S
H725 C755 0.950 . S
C726 H708 0.951 . S
C726 C727 1.366 . S
C726 C728 1.388 . S
C727 C726 1.366 . S
C727 C731 1.385 . S
C728 H709 0.951 . S
C728 C726 1.388 . S
C728 C729 1.366 . S
C729 C728 1.366 . S
C729 C730 1.414 . S
C729 C732 1.499 . S
C730 H710 0.950 . S
C730 C729 1.414 . S
C730 C731 1.374 . S
C731 H711 0.950 . S
C731 C727 1.385 . S
C731 C730 1.374 . S
C732 C729 1.499 . S
C732 C733 1.373 . S
C732 C734 1.389 . S
C733 H712 0.950 . S
C733 C732 1.373 . S
C733 C749 1.377 . S
C734 C732 1.389 . S
C734 C735 1.524 . S
C734 C748 1.377 . S
C735 C734 1.524 . S
C735 C736 1.397 . S
C735 C740 1.363 . S
C736 H713 0.950 . S
C736 C735 1.397 . S
C736 C737 1.334 . S
C737 H714 0.950 . S
C737 C736 1.334 . S
C737 C738 1.287 . S
C738 C737 1.287 . S
C738 C739 1.524 . S
C738 H757 0.913 . S
C739 H715 0.950 . S
C739 C738 1.524 . S
C739 C740 1.415 . S
C740 H716 0.950 . S
C740 C735 1.363 . S
C740 C739 1.415 . S
C741 H717 0.951 . S
C741 C742 1.366 . S
C741 C743 1.388 . S
C742 C741 1.366 . S
C742 C746 1.385 . S
C743 H718 0.951 . S
C743 C741 1.388 . S
C743 C744 1.366 . S
C744 C743 1.366 . S
C744 C745 1.414 . S
C744 C747 1.499 . S
C745 H719 0.950 . S
C745 C744 1.414 . S
C745 C746 1.374 . S
C746 H720 0.950 . S
C746 C742 1.385 . S
C746 C745 1.374 . S
C747 C744 1.499 . S
C747 C748 1.373 . S
C747 C749 1.389 . S
C748 H721 0.950 . S
C748 C734 1.377 . S
C748 C747 1.373 . S
C749 C733 1.377 . S
C749 C747 1.389 . S
C749 C750 1.524 . S
C750 C749 1.524 . S
C750 C751 1.397 . S
C750 C755 1.363 . S
C751 H722 0.950 . S
C751 C750 1.397 . S
C751 C752 1.334 . S
C752 H723 0.950 . S
C752 C751 1.334 . S
C752 C753 1.287 . S
C753 C752 1.287 . S
C753 C754 1.524 . S
C753 H756 0.999 . S
C754 H724 0.950 . S
C754 C753 1.524 . S
C754 C755 1.415 . S
C755 H725 0.950 . S
C755 C750 1.363 . S
C755 C754 1.415 . S
H756 C753 0.999 . S
H757 C738 0.913 . S
H758 C776 0.951 . S
H759 C778 0.951 . S
H760 C780 0.950 . S
H761 C781 0.950 . S
H762 C783 0.950 . S
H763 C786 0.950 . S
H764 C787 0.950 . S
H765 C789 0.950 . S
H766 C790 0.950 . S
H767 C791 0.951 . S
H768 C793 0.951 . S
H769 C795 0.950 . S
H770 C796 0.950 . S
H771 C798 0.950 . S
H772 C801 0.950 . S
H773 C802 0.950 . S
H774 C804 0.950 . S
H775 C805 0.950 . S
C776 H758 0.951 . S
C776 C777 1.366 . S
C776 C778 1.388 . S
C777 C776 1.366 . S
C777 C781 1.385 . S
C778 H759 0.951 . S
C778 C776 1.388 . S
C778 C779 1.366 . S
C779 C778 1.366 . S
C779 C780 1.414 . S
C779 C782 1.499 . S
C780 H760 0.950 . S
C780 C779 1.414 . S
C780 C781 1.374 . S
C781 H761 0.950 . S
C781 C777 1.385 . S
C781 C780 1.374 . S
C782 C779 1.499 . S
C782 C783 1.373 . S
C782 C784 1.389 . S
C783 H762 0.950 . S
C783 C782 1.373 . S
C783 C799 1.377 . S
C784 C782 1.389 . S
C784 C785 1.524 . S
C784 C798 1.377 . S
C785 C784 1.524 . S
C785 C786 1.397 . S
C785 C790 1.363 . S
C786 H763 0.950 . S
C786 C785 1.397 . S
C786 C787 1.334 . S
C787 H764 0.950 . S
C787 C786 1.334 . S
C787 C788 1.287 . S
C788 C787 1.287 . S
C788 C789 1.524 . S
C788 H807 0.913 . S
C789 H765 0.950 . S
C789 C788 1.524 . S
C789 C790 1.415 . S
C790 H766 0.950 . S
C790 C785 1.363 . S
C790 C789 1.415 . S
C791 H767 0.951 . S
C791 C792 1.366 . S
C791 C793 1.388 . S
C792 C791 1.366 . S
C792 C796 1.385 . S
C793 H768 0.951 . S
C793 C791 1.388 . S
C793 C794 1.366 . S
C794 C793 1.366 . S
C794 C795 1.414 . S
C794 C797 1.499 . S
C795 H769 0.950 . S
C795 C794 1.414 . S
C795 C796 1.374 . S
C796 H770 0.950 . S
C796 C792 1.385 . S
C796 C795 1.374 . S
C797 C794 1.499 . S
C797 C798 1.373 . S
C797 C799 1.389 . S
C798 H771 0.950 . S
C798 C784 1.377 . S
C798 C797 1.373 . S
C799 C783 1.377 . S
C799 C797 1.389 . S
C799 C800 1.524 . S
C800 C799 1.524 . S
C800 C801 1.397 . S
C800 C805 1.363 . S
C801 H772 0.950 . S
C801 C800 1.397 . S
C801 C802 1.334 . S
C802 H773 0.950 . S
C802 C801 1.334 . S
C802 C803 1.287 . S
C803 C802 1.287 . S
C803 C804 1.524 . S
C803 H806 0.999 . S
C804 H774 0.950 . S
C804 C803 1.524 . S
C804 C805 1.415 . S
C805 H775 0.950 . S
C805 C800 1.363 . S
C805 C804 1.415 . S
H806 C803 0.999 . S
H807 C788 0.913 . S
H808 C826 0.951 . S
H809 C828 0.951 . S
H810 C830 0.950 . S
H811 C831 0.950 . S
H812 C833 0.950 . S
H813 C836 0.950 . S
H814 C837 0.950 . S
H815 C839 0.950 . S
H816 C840 0.950 . S
H817 C841 0.951 . S
H818 C843 0.951 . S
H819 C845 0.950 . S
H820 C846 0.950 . S
H821 C848 0.950 . S
H822 C851 0.950 . S
H823 C852 0.950 . S
H824 C854 0.950 . S
H825 C855 0.950 . S
C826 H808 0.951 . S
C826 C827 1.366 . S
C826 C828 1.388 . S
C827 C826 1.366 . S
C827 C831 1.385 . S
C828 H809 0.951 . S
C828 C826 1.388 . S
C828 C829 1.366 . S
C829 C828 1.366 . S
C829 C830 1.414 . S
C829 C832 1.499 . S
C830 H810 0.950 . S
C830 C829 1.414 . S
C830 C831 1.374 . S
C831 H811 0.950 . S
C831 C827 1.385 . S
C831 C830 1.374 . S
C832 C829 1.499 . S
C832 C833 1.373 . S
C832 C834 1.389 . S
C833 H812 0.950 . S
C833 C832 1.373 . S
C833 C849 1.377 . S
C834 C832 1.389 . S
C834 C835 1.524 . S
C834 C848 1.377 . S
C835 C834 1.524 . S
C835 C836 1.397 . S
C835 C840 1.363 . S
C836 H813 0.950 . S
C836 C835 1.397 . S
C836 C837 1.334 . S
C837 H814 0.950 . S
C837 C836 1.334 . S
C837 C838 1.287 . S
C838 C837 1.287 . S
C838 C839 1.524 . S
C838 H857 0.913 . S
C839 H815 0.950 . S
C839 C838 1.524 . S
C839 C840 1.415 . S
C840 H816 0.950 . S
C840 C835 1.363 . S
C840 C839 1.415 . S
C841 H817 0.951 . S
C841 C842 1.366 . S
C841 C843 1.388 . S
C842 C841 1.366 . S
C842 C846 1.385 . S
C843 H818 0.951 . S
C843 C841 1.388 . S
C843 C844 1.366 . S
C844 C843 1.366 . S
C844 C845 1.414 . S
C844 C847 1.499 . S
C845 H819 0.950 . S
C845 C844 1.414 . S
C845 C846 1.374 . S
C846 H820 0.950 . S
C846 C842 1.385 . S
C846 C845 1.374 . S
C847 C844 1.499 . S
C847 C848 1.373 . S
C847 C849 1.389 . S
C848 H821 0.950 . S
C848 C834 1.377 . S
C848 C847 1.373 . S
C849 C833 1.377 . S
C849 C847 1.389 . S
C849 C850 1.524 . S
C850 C849 1.524 . S
C850 C851 1.397 . S
C850 C855 1.363 . S
C851 H822 0.950 . S
C851 C850 1.397 . S
C851 C852 1.334 . S
C852 H823 0.950 . S
C852 C851 1.334 . S
C852 C853 1.287 . S
C853 C852 1.287 . S
C853 C854 1.524 . S
C853 H856 0.999 . S
C854 H824 0.950 . S
C854 C853 1.524 . S
C854 C855 1.415 . S
C855 H825 0.950 . S
C855 C850 1.363 . S
C855 C854 1.415 . S
H856 C853 0.999 . S
H857 C838 0.913 . S
H858 C876 0.951 . S
H859 C878 0.951 . S
H860 C880 0.950 . S
H861 C881 0.950 . S
H862 C883 0.950 . S
H863 C886 0.950 . S
H864 C887 0.950 . S
H865 C889 0.950 . S
H866 C890 0.950 . S
H867 C891 0.951 . S
H868 C893 0.951 . S
H869 C895 0.950 . S
H870 C896 0.950 . S
H871 C898 0.950 . S
H872 C901 0.950 . S
H873 C902 0.950 . S
H874 C904 0.950 . S
H875 C905 0.950 . S
C876 H858 0.951 . S
C876 C877 1.366 . S
C876 C878 1.388 . S
C877 C876 1.366 . S
C877 C881 1.385 . S
C878 H859 0.951 . S
C878 C876 1.388 . S
C878 C879 1.366 . S
C879 C878 1.366 . S
C879 C880 1.414 . S
C879 C882 1.499 . S
C880 H860 0.950 . S
C880 C879 1.414 . S
C880 C881 1.374 . S
C881 H861 0.950 . S
C881 C877 1.385 . S
C881 C880 1.374 . S
C882 C879 1.499 . S
C882 C883 1.373 . S
C882 C884 1.389 . S
C883 H862 0.950 . S
C883 C882 1.373 . S
C883 C899 1.377 . S
C884 C882 1.389 . S
C884 C885 1.524 . S
C884 C898 1.377 . S
C885 C884 1.524 . S
C885 C886 1.397 . S
C885 C890 1.363 . S
C886 H863 0.950 . S
C886 C885 1.397 . S
C886 C887 1.334 . S
C887 H864 0.950 . S
C887 C886 1.334 . S
C887 C888 1.287 . S
C888 C887 1.287 . S
C888 C889 1.524 . S
C888 H907 0.913 . S
C889 H865 0.950 . S
C889 C888 1.524 . S
C889 C890 1.415 . S
C890 H866 0.950 . S
C890 C885 1.363 . S
C890 C889 1.415 . S
C891 H867 0.951 . S
C891 C892 1.366 . S
C891 C893 1.388 . S
C892 C891 1.366 . S
C892 C896 1.385 . S
C893 H868 0.951 . S
C893 C891 1.388 . S
C893 C894 1.366 . S
C894 C893 1.366 . S
C894 C895 1.414 . S
C894 C897 1.499 . S
C895 H869 0.950 . S
C895 C894 1.414 . S
C895 C896 1.374 . S
C896 H870 0.950 . S
C896 C892 1.385 . S
C896 C895 1.374 . S
C897 C894 1.499 . S
C897 C898 1.373 . S
C897 C899 1.389 . S
C898 H871 0.950 . S
C898 C884 1.377 . S
C898 C897 1.373 . S
C899 C883 1.377 . S
C899 C897 1.389 . S
C899 C900 1.524 . S
C900 C899 1.524 . S
C900 C901 1.397 . S
C900 C905 1.363 . S
C901 H872 0.950 . S
C901 C900 1.397 . S
C901 C902 1.334 . S
C902 H873 0.950 . S
C902 C901 1.334 . S
C902 C903 1.287 . S
C903 C902 1.287 . S
C903 C904 1.524 . S
C903 H906 0.999 . S
C904 H874 0.950 . S
C904 C903 1.524 . S
C904 C905 1.415 . S
C905 H875 0.950 . S
C905 C900 1.363 . S
C905 C904 1.415 . S
H906 C903 0.999 . S
H907 C888 0.913 . S
H908 C926 0.951 . S
H909 C928 0.951 . S
H910 C930 0.950 . S
H911 C931 0.950 . S
H912 C933 0.950 . S
H913 C936 0.950 . S
H914 C937 0.950 . S
H915 C939 0.950 . S
H916 C940 0.950 . S
H917 C941 0.951 . S
H918 C943 0.951 . S
H919 C945 0.950 . S
H920 C946 0.950 . S
H921 C948 0.950 . S
H922 C951 0.950 . S
H923 C952 0.950 . S
H924 C954 0.950 . S
H925 C955 0.950 . S
C926 H908 0.951 . S
C926 C927 1.366 . S
C926 C928 1.388 . S
C927 C926 1.366 . S
C927 C931 1.385 . S
C928 H909 0.951 . S
C928 C926 1.388 . S
C928 C929 1.366 . S
C929 C928 1.366 . S
C929 C930 1.414 . S
C929 C932 1.499 . S
C930 H910 0.950 . S
C930 C929 1.414 . S
C930 C931 1.374 . S
C931 H911 0.950 . S
C931 C927 1.385 . S
C931 C930 1.374 . S
C932 C929 1.499 . S
C932 C933 1.373 . S
C932 C934 1.389 . S
C933 H912 0.950 . S
C933 C932 1.373 . S
C933 C949 1.377 . S
C934 C932 1.389 . S
C934 C935 1.524 . S
C934 C948 1.377 . S
C935 C934 1.524 . S
C935 C936 1.397 . S
C935 C940 1.363 . S
C936 H913 0.950 . S
C936 C935 1.397 . S
C936 C937 1.334 . S
C937 H914 0.950 . S
C937 C936 1.334 . S
C937 C938 1.287 . S
C938 C937 1.287 . S
C938 C939 1.524 . S
C938 H957 0.913 . S
C939 H915 0.950 . S
C939 C938 1.524 . S
C939 C940 1.415 . S
C940 H916 0.950 . S
C940 C935 1.363 . S
C940 C939 1.415 . S
C941 H917 0.951 . S
C941 C942 1.366 . S
C941 C943 1.388 . S
C942 C941 1.366 . S
C942 C946 1.385 . S
C943 H918 0.951 . S
C943 C941 1.388 . S
C943 C944 1.366 . S
C944 C943 1.366 . S
C944 C945 1.414 . S
C944 C947 1.499 . S
C945 H919 0.950 . S
C945 C944 1.414 . S
C945 C946 1.374 . S
C946 H920 0.950 . S
C946 C942 1.385 . S
C946 C945 1.374 . S
C947 C944 1.499 . S
C947 C948 1.373 . S
C947 C949 1.389 . S
C948 H921 0.950 . S
C948 C934 1.377 . S
C948 C947 1.373 . S
C949 C933 1.377 . S
C949 C947 1.389 . S
C949 C950 1.524 . S
C950 C949 1.524 . S
C950 C951 1.397 . S
C950 C955 1.363 . S
C951 H922 0.950 . S
C951 C950 1.397 . S
C951 C952 1.334 . S
C952 H923 0.950 . S
C952 C951 1.334 . S
C952 C953 1.287 . S
C953 C952 1.287 . S
C953 C954 1.524 . S
C953 H956 0.999 . S
C954 H924 0.950 . S
C954 C953 1.524 . S
C954 C955 1.415 . S
C955 H925 0.950 . S
C955 C950 1.363 . S
C955 C954 1.415 . S
H956 C953 0.999 . S
H957 C938 0.913 . S
H958 C976 0.951 . S
H959 C978 0.951 . S
H960 C980 0.950 . S
H961 C981 0.950 . S
H962 C983 0.950 . S
H963 C986 0.950 . S
H964 C987 0.950 . S
H965 C989 0.950 . S
H966 C990 0.950 . S
H967 C991 0.951 . S
H968 C993 0.951 . S
H969 C995 0.950 . S
H970 C996 0.950 . S
H971 C998 0.950 . S
H972 C1001 0.950 . S
H973 C1002 0.950 . S
H974 C1004 0.950 . S
H975 C1005 0.950 . S
C976 H958 0.951 . S
C976 C977 1.366 . S
C976 C978 1.388 . S
C977 C976 1.366 . S
C977 C981 1.385 . S
C978 H959 0.951 . S
C978 C976 1.388 . S
C978 C979 1.366 . S
C979 C978 1.366 . S
C979 C980 1.414 . S
C979 C982 1.499 . S
C980 H960 0.950 . S
C980 C979 1.414 . S
C980 C981 1.374 . S
C981 H961 0.950 . S
C981 C977 1.385 . S
C981 C980 1.374 . S
C982 C979 1.499 . S
C982 C983 1.373 . S
C982 C984 1.389 . S
C983 H962 0.950 . S
C983 C982 1.373 . S
C983 C999 1.377 . S
C984 C982 1.389 . S
C984 C985 1.524 . S
C984 C998 1.377 . S
C985 C984 1.524 . S
C985 C986 1.397 . S
C985 C990 1.363 . S
C986 H963 0.950 . S
C986 C985 1.397 . S
C986 C987 1.334 . S
C987 H964 0.950 . S
C987 C986 1.334 . S
C987 C988 1.287 . S
C988 C987 1.287 . S
C988 C989 1.524 . S
C988 H1007 0.913 . S
C989 H965 0.950 . S
C989 C988 1.524 . S
C989 C990 1.415 . S
C990 H966 0.950 . S
C990 C985 1.363 . S
C990 C989 1.415 . S
C991 H967 0.951 . S
C991 C992 1.366 . S
C991 C993 1.388 . S
C992 C991 1.366 . S
C992 C996 1.385 . S
C993 H968 0.951 . S
C993 C991 1.388 . S
C993 C994 1.366 . S
C994 C993 1.366 . S
C994 C995 1.414 . S
C994 C997 1.499 . S
C995 H969 0.950 . S
C995 C994 1.414 . S
C995 C996 1.374 . S
C996 H970 0.950 . S
C996 C992 1.385 . S
C996 C995 1.374 . S
C997 C994 1.499 . S
C997 C998 1.373 . S
C997 C999 1.389 . S
C998 H971 0.950 . S
C998 C984 1.377 . S
C998 C997 1.373 . S
C999 C983 1.377 . S
C999 C997 1.389 . S
C999 C1000 1.524 . S
C1000 C999 1.524 . S
C1000 C1001 1.397 . S
C1000 C1005 1.363 . S
C1001 H972 0.950 . S
C1001 C1000 1.397 . S
C1001 C1002 1.334 . S
C1002 H973 0.950 . S
C1002 C1001 1.334 . S
C1002 C1003 1.287 . S
C1003 C1002 1.287 . S
C1003 C1004 1.524 . S
C1003 H1006 0.999 . S
C1004 H974 0.950 . S
C1004 C1003 1.524 . S
C1004 C1005 1.415 . S
C1005 H975 0.950 . S
C1005 C1000 1.363 . S
C1005 C1004 1.415 . S
H1006 C1003 0.999 . S
H1007 C988 0.913 . S
H1008 C1026 0.951 . S
H1009 C1028 0.951 . S
H1010 C1030 0.950 . S
H1011 C1031 0.950 . S
H1012 C1033 0.950 . S
H1013 C1036 0.950 . S
H1014 C1037 0.950 . S
H1015 C1039 0.950 . S
H1016 C1040 0.950 . S
H1017 C1041 0.951 . S
H1018 C1043 0.951 . S
H1019 C1045 0.950 . S
H1020 C1046 0.950 . S
H1021 C1048 0.950 . S
H1022 C1051 0.950 . S
H1023 C1052 0.950 . S
H1024 C1054 0.950 . S
H1025 C1055 0.950 . S
C1026 H1008 0.951 . S
C1026 C1027 1.366 . S
C1026 C1028 1.388 . S
C1027 C1026 1.366 . S
C1027 C1031 1.385 . S
C1028 H1009 0.951 . S
C1028 C1026 1.388 . S
C1028 C1029 1.366 . S
C1029 C1028 1.366 . S
C1029 C1030 1.414 . S
C1029 C1032 1.499 . S
C1030 H1010 0.950 . S
C1030 C1029 1.414 . S
C1030 C1031 1.374 . S
C1031 H1011 0.950 . S
C1031 C1027 1.385 . S
C1031 C1030 1.374 . S
C1032 C1029 1.499 . S
C1032 C1033 1.373 . S
C1032 C1034 1.389 . S
C1033 H1012 0.950 . S
C1033 C1032 1.373 . S
C1033 C1049 1.377 . S
C1034 C1032 1.389 . S
C1034 C1035 1.524 . S
C1034 C1048 1.377 . S
C1035 C1034 1.524 . S
C1035 C1036 1.397 . S
C1035 C1040 1.363 . S
C1036 H1013 0.950 . S
C1036 C1035 1.397 . S
C1036 C1037 1.334 . S
C1037 H1014 0.950 . S
C1037 C1036 1.334 . S
C1037 C1038 1.287 . S
C1038 C1037 1.287 . S
C1038 C1039 1.524 . S
C1038 H1057 0.913 . S
C1039 H1015 0.950 . S
C1039 C1038 1.524 . S
C1039 C1040 1.415 . S
C1040 H1016 0.950 . S
C1040 C1035 1.363 . S
C1040 C1039 1.415 . S
C1041 H1017 0.951 . S
C1041 C1042 1.366 . S
C1041 C1043 1.388 . S
C1042 C1041 1.366 . S
C1042 C1046 1.385 . S
C1043 H1018 0.951 . S
C1043 C1041 1.388 . S
C1043 C1044 1.366 . S
C1044 C1043 1.366 . S
C1044 C1045 1.414 . S
C1044 C1047 1.499 . S
C1045 H1019 0.950 . S
C1045 C1044 1.414 . S
C1045 C1046 1.374 . S
C1046 H1020 0.950 . S
C1046 C1042 1.385 . S
C1046 C1045 1.374 . S
C1047 C1044 1.499 . S
C1047 C1048 1.373 . S
C1047 C1049 1.389 . S
C1048 H1021 0.950 . S
C1048 C1034 1.377 . S
C1048 C1047 1.373 . S
C1049 C1033 1.377 . S
C1049 C1047 1.389 . S
C1049 C1050 1.524 . S
C1050 C1049 1.524 . S
C1050 C1051 1.397 . S
C1050 C1055 1.363 . S
C1051 H1022 0.950 . S
C1051 C1050 1.397 . S
C1051 C1052 1.334 . S
C1052 H1023 0.950 . S
C1052 C1051 1.334 . S
C1052 C1053 1.287 . S
C1053 C1052 1.287 . S
C1053 C1054 1.524 . S
C1053 H1056 0.999 . S
C1054 H1024 0.950 . S
C1054 C1053 1.524 . S
C1054 C1055 1.415 . S
C1055 H1025 0.950 . S
C1055 C1050 1.363 . S
C1055 C1054 1.415 . S
H1056 C1053 0.999 . S
H1057 C1038 0.913 . S
H1058 C1076 0.951 . S
H1059 C1078 0.951 . S
H1060 C1080 0.950 . S
H1061 C1081 0.950 . S
H1062 C1083 0.950 . S
H1063 C1086 0.950 . S
H1064 C1087 0.950 . S
H1065 C1089 0.950 . S
H1066 C1090 0.950 . S
H1067 C1091 0.951 . S
H1068 C1093 0.951 . S
H1069 C1095 0.950 . S
H1070 C1096 0.950 . S
H1071 C1098 0.950 . S
H1072 C1101 0.950 . S
H1073 C1102 0.950 . S
H1074 C1104 0.950 . S
H1075 C1105 0.950 . S
C1076 H1058 0.951 . S
C1076 C1077 1.366 . S
C1076 C1078 1.388 . S
C1077 C1076 1.366 . S
C1077 C1081 1.385 . S
C1078 H1059 0.951 . S
C1078 C1076 1.388 . S
C1078 C1079 1.366 . S
C1079 C1078 1.366 . S
C1079 C1080 1.414 . S
C1079 C1082 1.499 . S
C1080 H1060 0.950 . S
C1080 C1079 1.414 . S
C1080 C1081 1.374 . S
C1081 H1061 0.950 . S
C1081 C1077 1.385 . S
C1081 C1080 1.374 . S
C1082 C1079 1.499 . S
C1082 C1083 1.373 . S
C1082 C1084 1.389 . S
C1083 H1062 0.950 . S
C1083 C1082 1.373 . S
C1083 C1099 1.377 . S
C1084 C1082 1.389 . S
C1084 C1085 1.524 . S
C1084 C1098 1.377 . S
C1085 C1084 1.524 . S
C1085 C1086 1.397 . S
C1085 C1090 1.363 . S
C1086 H1063 0.950 . S
C1086 C1085 1.397 . S
C1086 C1087 1.334 . S
C1087 H1064 0.950 . S
C1087 C1086 1.334 . S
C1087 C1088 1.287 . S
C1088 C1087 1.287 . S
C1088 C1089 1.524 . S
C1088 H1107 0.913 . S
C1089 H1065 0.950 . S
C1089 C1088 1.524 . S
C1089 C1090 1.415 . S
C1090 H1066 0.950 . S
C1090 C1085 1.363 . S
C1090 C1089 1.415 . S
C1091 H1067 0.951 . S
C1091 C1092 1.366 . S
C1091 C1093 1.388 . S
C1092 C1091 1.366 . S
C1092 C1096 1.385 . S
C1093 H1068 0.951 . S
C1093 C1091 1.388 . S
C1093 C1094 1.366 . S
C1094 C1093 1.366 . S
C1094 C1095 1.414 . S
C1094 C1097 1.499 . S
C1095 H1069 0.950 . S
C1095 C1094 1.414 . S
C1095 C1096 1.374 . S
C1096 H1070 0.950 . S
C1096 C1092 1.385 . S
C1096 C1095 1.374 . S
C1097 C1094 1.499 . S
C1097 C1098 1.373 . S
C1097 C1099 1.389 . S
C1098 H1071 0.950 . S
C1098 C1084 1.377 . S
C1098 C1097 1.373 . S
C1099 C1083 1.377 . S
C1099 C1097 1.389 . S
C1099 C1100 1.524 . S
C1100 C1099 1.524 . S
C1100 C1101 1.397 . S
C1100 C1105 1.363 . S
C1101 H1072 0.950 . S
C1101 C1100 1.397 . S
C1101 C1102 1.334 . S
C1102 H1073 0.950 . S
C1102 C1101 1.334 . S
C1102 C1103 1.287 . S
C1103 C1102 1.287 . S
C1103 C1104 1.524 . S
C1103 H1106 0.999 . S
C1104 H1074 0.950 . S
C1104 C1103 1.524 . S
C1104 C1105 1.415 . S
C1105 H1075 0.950 . S
C1105 C1100 1.363 . S
C1105 C1104 1.415 . S
H1106 C1103 0.999 . S
H1107 C1088 0.913 . S
H1108 C1126 0.951 . S
H1109 C1128 0.951 . S
H1110 C1130 0.950 . S
H1111 C1131 0.950 . S
H1112 C1133 0.950 . S
H1113 C1136 0.950 . S
H1114 C1137 0.950 . S
H1115 C1139 0.950 . S
H1116 C1140 0.950 . S
H1117 C1141 0.951 . S
H1118 C1143 0.951 . S
H1119 C1145 0.950 . S
H1120 C1146 0.950 . S
H1121 C1148 0.950 . S
H1122 C1151 0.950 . S
H1123 C1152 0.950 . S
H1124 C1154 0.950 . S
H1125 C1155 0.950 . S
C1126 H1108 0.951 . S
C1126 C1127 1.366 . S
C1126 C1128 1.388 . S
C1127 C1126 1.366 . S
C1127 C1131 1.385 . S
C1128 H1109 0.951 . S
C1128 C1126 1.388 . S
C1128 C1129 1.366 . S
C1129 C1128 1.366 . S
C1129 C1130 1.414 . S
C1129 C1132 1.499 . S
C1130 H1110 0.950 . S
C1130 C1129 1.414 . S
C1130 C1131 1.374 . S
C1131 H1111 0.950 . S
C1131 C1127 1.385 . S
C1131 C1130 1.374 . S
C1132 C1129 1.499 . S
C1132 C1133 1.373 . S
C1132 C1134 1.389 . S
C1133 H1112 0.950 . S
C1133 C1132 1.373 . S
C1133 C1149 1.377 . S
C1134 C1132 1.389 . S
C1134 C1135 1.524 . S
C1134 C1148 1.377 . S
C1135 C1134 1.524 . S
C1135 C1136 1.397 . S
C1135 C1140 1.363 . S
C1136 H1113 0.950 . S
C1136 C1135 1.397 . S
C1136 C1137 1.334 . S
C1137 H1114 0.950 . S
C1137 C1136 1.334 . S
C1137 C1138 1.287 . S
C1138 C1137 1.287 . S
C1138 C1139 1.524 . S
C1138 H1157 0.913 . S
C1139 H1115 0.950 . S
C1139 C1138 1.524 . S
C1139 C1140 1.415 . S
C1140 H1116 0.950 . S
C1140 C1135 1.363 . S
C1140 C1139 1.415 . S
C1141 H1117 0.951 . S
C1141 C1142 1.366 . S
C1141 C1143 1.388 . S
C1142 C1141 1.366 . S
C1142 C1146 1.385 . S
C1143 H1118 0.951 . S
C1143 C1141 1.388 . S
C1143 C1144 1.366 . S
C1144 C1143 1.366 . S
C1144 C1145 1.414 . S
C1144 C1147 1.499 . S
C1145 H1119 0.950 . S
C1145 C1144 1.414 . S
C1145 C1146 1.374 . S
C1146 H1120 0.950 . S
C1146 C1142 1.385 . S
C1146 C1145 1.374 . S
C1147 C1144 1.499 . S
C1147 C1148 1.373 . S
C1147 C1149 1.389 . S
C1148 H1121 0.950 . S
C1148 C1134 1.377 . S
C1148 C1147 1.373 . S
C1149 C1133 1.377 . S
C1149 C1147 1.389 . S
C1149 C1150 1.524 . S
C1150 C1149 1.524 . S
C1150 C1151 1.397 . S
C1150 C1155 1.363 . S
C1151 H1122 0.950 . S
C1151 C1150 1.397 . S
C1151 C1152 1.334 . S
C1152 H1123 0.950 . S
C1152 C1151 1.334 . S
C1152 C1153 1.287 . S
C1153 C1152 1.287 . S
C1153 C1154 1.524 . S
C1153 H1156 0.999 . S
C1154 H1124 0.950 . S
C1154 C1153 1.524 . S
C1154 C1155 1.415 . S
C1155 H1125 0.950 . S
C1155 C1150 1.363 . S
C1155 C1154 1.415 . S
H1156 C1153 0.999 . S
H1157 C1138 0.913 . S
H1158 C1176 0.951 . S
H1159 C1178 0.951 . S
H1160 C1180 0.950 . S
H1161 C1181 0.950 . S
H1162 C1183 0.950 . S
H1163 C1186 0.950 . S
H1164 C1187 0.950 . S
H1165 C1189 0.950 . S
H1166 C1190 0.950 . S
H1167 C1191 0.951 . S
H1168 C1193 0.951 . S
H1169 C1195 0.950 . S
H1170 C1196 0.950 . S
H1171 C1198 0.950 . S
H1172 C1201 0.950 . S
H1173 C1202 0.950 . S
H1174 C1204 0.950 . S
H1175 C1205 0.950 . S
C1176 H1158 0.951 . S
C1176 C1177 1.366 . S
C1176 C1178 1.388 . S
C1177 C1176 1.366 . S
C1177 C1181 1.385 . S
C1178 H1159 0.951 . S
C1178 C1176 1.388 . S
C1178 C1179 1.366 . S
C1179 C1178 1.366 . S
C1179 C1180 1.414 . S
C1179 C1182 1.499 . S
C1180 H1160 0.950 . S
C1180 C1179 1.414 . S
C1180 C1181 1.374 . S
C1181 H1161 0.950 . S
C1181 C1177 1.385 . S
C1181 C1180 1.374 . S
C1182 C1179 1.499 . S
C1182 C1183 1.373 . S
C1182 C1184 1.389 . S
C1183 H1162 0.950 . S
C1183 C1182 1.373 . S
C1183 C1199 1.377 . S
C1184 C1182 1.389 . S
C1184 C1185 1.524 . S
C1184 C1198 1.377 . S
C1185 C1184 1.524 . S
C1185 C1186 1.397 . S
C1185 C1190 1.363 . S
C1186 H1163 0.950 . S
C1186 C1185 1.397 . S
C1186 C1187 1.334 . S
C1187 H1164 0.950 . S
C1187 C1186 1.334 . S
C1187 C1188 1.287 . S
C1188 C1187 1.287 . S
C1188 C1189 1.524 . S
C1188 H1207 0.913 . S
C1189 H1165 0.950 . S
C1189 C1188 1.524 . S
C1189 C1190 1.415 . S
C1190 H1166 0.950 . S
C1190 C1185 1.363 . S
C1190 C1189 1.415 . S
C1191 H1167 0.951 . S
C1191 C1192 1.366 . S
C1191 C1193 1.388 . S
C1192 C1191 1.366 . S
C1192 C1196 1.385 . S
C1193 H1168 0.951 . S
C1193 C1191 1.388 . S
C1193 C1194 1.366 . S
C1194 C1193 1.366 . S
C1194 C1195 1.414 . S
C1194 C1197 1.499 . S
C1195 H1169 0.950 . S
C1195 C1194 1.414 . S
C1195 C1196 1.374 . S
C1196 H1170 0.950 . S
C1196 C1192 1.385 . S
C1196 C1195 1.374 . S
C1197 C1194 1.499 . S
C1197 C1198 1.373 . S
C1197 C1199 1.389 . S
C1198 H1171 0.950 . S
C1198 C1184 1.377 . S
C1198 C1197 1.373 . S
C1199 C1183 1.377 . S
C1199 C1197 1.389 . S
C1199 C1200 1.524 . S
C1200 C1199 1.524 . S
C1200 C1201 1.397 . S
C1200 C1205 1.363 . S
C1201 H1172 0.950 . S
C1201 C1200 1.397 . S
C1201 C1202 1.334 . S
C1202 H1173 0.950 . S
C1202 C1201 1.334 . S
C1202 C1203 1.287 . S
C1203 C1202 1.287 . S
C1203 C1204 1.524 . S
C1203 H1206 0.999 . S
C1204 H1174 0.950 . S
C1204 C1203 1.524 . S
C1204 C1205 1.415 . S
C1205 H1175 0.950 . S
C1205 C1200 1.363 . S
C1205 C1204 1.415 . S
H1206 C1203 0.999 . S
H1207 C1188 0.913 . S
H1208 C1226 0.951 . S
H1209 C1228 0.951 . S
H1210 C1230 0.950 . S
H1211 C1231 0.950 . S
H1212 C1233 0.950 . S
H1213 C1236 0.950 . S
H1214 C1237 0.950 . S
H1215 C1239 0.950 . S
H1216 C1240 0.950 . S
H1217 C1241 0.951 . S
H1218 C1243 0.951 . S
H1219 C1245 0.950 . S
H1220 C1246 0.950 . S
H1221 C1248 0.950 . S
H1222 C1251 0.950 . S
H1223 C1252 0.950 . S
H1224 C1254 0.950 . S
H1225 C1255 0.950 . S
C1226 H1208 0.951 . S
C1226 C1227 1.366 . S
C1226 C1228 1.388 . S
C1227 C1226 1.366 . S
C1227 C1231 1.385 . S
C1228 H1209 0.951 . S
C1228 C1226 1.388 . S
C1228 C1229 1.366 . S
C1229 C1228 1.366 . S
C1229 C1230 1.414 . S
C1229 C1232 1.499 . S
C1230 H1210 0.950 . S
C1230 C1229 1.414 . S
C1230 C1231 1.374 . S
C1231 H1211 0.950 . S
C1231 C1227 1.385 . S
C1231 C1230 1.374 . S
C1232 C1229 1.499 . S
C1232 C1233 1.373 . S
C1232 C1234 1.389 . S
C1233 H1212 0.950 . S
C1233 C1232 1.373 . S
C1233 C1249 1.377 . S
C1234 C1232 1.389 . S
C1234 C1235 1.524 . S
C1234 C1248 1.377 . S
C1235 C1234 1.524 . S
C1235 C1236 1.397 . S
C1235 C1240 1.363 . S
C1236 H1213 0.950 . S
C1236 C1235 1.397 . S
C1236 C1237 1.334 . S
C1237 H1214 0.950 . S
C1237 C1236 1.334 . S
C1237 C1238 1.287 . S
C1238 C1237 1.287 . S
C1238 C1239 1.524 . S
C1238 H1257 0.913 . S
C1239 H1215 0.950 . S
C1239 C1238 1.524 . S
C1239 C1240 1.415 . S
C1240 H1216 0.950 . S
C1240 C1235 1.363 . S
C1240 C1239 1.415 . S
C1241 H1217 0.951 . S
C1241 C1242 1.366 . S
C1241 C1243 1.388 . S
C1242 C1241 1.366 . S
C1242 C1246 1.385 . S
C1243 H1218 0.951 . S
C1243 C1241 1.388 . S
C1243 C1244 1.366 . S
C1244 C1243 1.366 . S
C1244 C1245 1.414 . S
C1244 C1247 1.499 . S
C1245 H1219 0.950 . S
C1245 C1244 1.414 . S
C1245 C1246 1.374 . S
C1246 H1220 0.950 . S
C1246 C1242 1.385 . S
C1246 C1245 1.374 . S
C1247 C1244 1.499 . S
C1247 C1248 1.373 . S
C1247 C1249 1.389 . S
C1248 H1221 0.950 . S
C1248 C1234 1.377 . S
C1248 C1247 1.373 . S
C1249 C1233 1.377 . S
C1249 C1247 1.389 . S
C1249 C1250 1.524 . S
C1250 C1249 1.524 . S
C1250 C1251 1.397 . S
C1250 C1255 1.363 . S
C1251 H1222 0.950 . S
C1251 C1250 1.397 . S
C1251 C1252 1.334 . S
C1252 H1223 0.950 . S
C1252 C1251 1.334 . S
C1252 C1253 1.287 . S
C1253 C1252 1.287 . S
C1253 C1254 1.524 . S
C1253 H1256 0.999 . S
C1254 H1224 0.950 . S
C1254 C1253 1.524 . S
C1254 C1255 1.415 . S
C1255 H1225 0.950 . S
C1255 C1250 1.363 . S
C1255 C1254 1.415 . S
H1256 C1253 0.999 . S
H1257 C1238 0.913 . S
H1258 C1276 0.951 . S
H1259 C1278 0.951 . S
H1260 C1280 0.950 . S
H1261 C1281 0.950 . S
H1262 C1283 0.950 . S
H1263 C1286 0.950 . S
H1264 C1287 0.950 . S
H1265 C1289 0.950 . S
H1266 C1290 0.950 . S
H1267 C1291 0.951 . S
H1268 C1293 0.951 . S
H1269 C1295 0.950 . S
H1270 C1296 0.950 . S
H1271 C1298 0.950 . S
H1272 C1301 0.950 . S
H1273 C1302 0.950 . S
H1274 C1304 0.950 . S
H1275 C1305 0.950 . S
C1276 H1258 0.951 . S
C1276 C1277 1.366 . S
C1276 C1278 1.388 . S
C1277 C1276 1.366 . S
C1277 C1281 1.385 . S
C1278 H1259 0.951 . S
C1278 C1276 1.388 . S
C1278 C1279 1.366 . S
C1279 C1278 1.366 . S
C1279 C1280 1.414 . S
C1279 C1282 1.499 . S
C1280 H1260 0.950 . S
C1280 C1279 1.414 . S
C1280 C1281 1.374 . S
C1281 H1261 0.950 . S
C1281 C1277 1.385 . S
C1281 C1280 1.374 . S
C1282 C1279 1.499 . S
C1282 C1283 1.373 . S
C1282 C1284 1.389 . S
C1283 H1262 0.950 . S
C1283 C1282 1.373 . S
C1283 C1299 1.377 . S
C1284 C1282 1.389 . S
C1284 C1285 1.524 . S
C1284 C1298 1.377 . S
C1285 C1284 1.524 . S
C1285 C1286 1.397 . S
C1285 C1290 1.363 . S
C1286 H1263 0.950 . S
C1286 C1285 1.397 . S
C1286 C1287 1.334 . S
C1287 H1264 0.950 . S
C1287 C1286 1.334 . S
C1287 C1288 1.287 . S
C1288 C1287 1.287 . S
C1288 C1289 1.524 . S
C1288 H1307 0.913 . S
C1289 H1265 0.950 . S
C1289 C1288 1.524 . S
C1289 C1290 1.415 . S
C1290 H1266 0.950 . S
C1290 C1285 1.363 . S
C1290 C1289 1.415 . S
C1291 H1267 0.951 . S
C1291 C1292 1.366 . S
C1291 C1293 1.388 . S
C1292 C1291 1.366 . S
C1292 C1296 1.385 . S
C1293 H1268 0.951 . S
C1293 C1291 1.388 . S
C1293 C1294 1.366 . S
C1294 C1293 1.366 . S
C1294 C1295 1.414 . S
C1294 C1297 1.499 . S
C1295 H1269 0.950 . S
C1295 C1294 1.414 . S
C1295 C1296 1.374 . S
C1296 H1270 0.950 . S
C1296 C1292 1.385 . S
C1296 C1295 1.374 . S
C1297 C1294 1.499 . S
C1297 C1298 1.373 . S
C1297 C1299 1.389 . S
C1298 H1271 0.950 . S
C1298 C1284 1.377 . S
C1298 C1297 1.373 . S
C1299 C1283 1.377 . S
C1299 C1297 1.389 . S
C1299 C1300 1.524 . S
C1300 C1299 1.524 . S
C1300 C1301 1.397 . S
C1300 C1305 1.363 . S
C1301 H1272 0.950 . S
C1301 C1300 1.397 . S
C1301 C1302 1.334 . S
C1302 H1273 0.950 . S
C1302 C1301 1.334 . S
C1302 C1303 1.287 . S
C1303 C1302 1.287 . S
C1303 C1304 1.524 . S
C1303 H1306 0.999 . S
C1304 H1274 0.950 . S
C1304 C1303 1.524 . S
C1304 C1305 1.415 . S
C1305 H1275 0.950 . S
C1305 C1300 1.363 . S
C1305 C1304 1.415 . S
H1306 C1303 0.999 . S
H1307 C1288 0.913 . S
H1308 C1326 0.951 . S
H1309 C1328 0.951 . S
H1310 C1330 0.950 . S
H1311 C1331 0.950 . S
H1312 C1333 0.950 . S
H1313 C1336 0.950 . S
H1314 C1337 0.950 . S
H1315 C1339 0.950 . S
H1316 C1340 0.950 . S
H1317 C1341 0.951 . S
H1318 C1343 0.951 . S
H1319 C1345 0.950 . S
H1320 C1346 0.950 . S
H1321 C1348 0.950 . S
H1322 C1351 0.950 . S
H1323 C1352 0.950 . S
H1324 C1354 0.950 . S
H1325 C1355 0.950 . S
C1326 H1308 0.951 . S
C1326 C1327 1.366 . S
C1326 C1328 1.388 . S
C1327 C1326 1.366 . S
C1327 C1331 1.385 . S
C1328 H1309 0.951 . S
C1328 C1326 1.388 . S
C1328 C1329 1.366 . S
C1329 C1328 1.366 . S
C1329 C1330 1.414 . S
C1329 C1332 1.499 . S
C1330 H1310 0.950 . S
C1330 C1329 1.414 . S
C1330 C1331 1.374 . S
C1331 H1311 0.950 . S
C1331 C1327 1.385 . S
C1331 C1330 1.374 . S
C1332 C1329 1.499 . S
C1332 C1333 1.373 . S
C1332 C1334 1.389 . S
C1333 H1312 0.950 . S
C1333 C1332 1.373 . S
C1333 C1349 1.377 . S
C1334 C1332 1.389 . S
C1334 C1335 1.524 . S
C1334 C1348 1.377 . S
C1335 C1334 1.524 . S
C1335 C1336 1.397 . S
C1335 C1340 1.363 . S
C1336 H1313 0.950 . S
C1336 C1335 1.397 . S
C1336 C1337 1.334 . S
C1337 H1314 0.950 . S
C1337 C1336 1.334 . S
C1337 C1338 1.287 . S
C1338 C1337 1.287 . S
C1338 C1339 1.524 . S
C1338 H1357 0.913 . S
C1339 H1315 0.950 . S
C1339 C1338 1.524 . S
C1339 C1340 1.415 . S
C1340 H1316 0.950 . S
C1340 C1335 1.363 . S
C1340 C1339 1.415 . S
C1341 H1317 0.951 . S
C1341 C1342 1.366 . S
C1341 C1343 1.388 . S
C1342 C1341 1.366 . S
C1342 C1346 1.385 . S
C1343 H1318 0.951 . S
C1343 C1341 1.388 . S
C1343 C1344 1.366 . S
C1344 C1343 1.366 . S
C1344 C1345 1.414 . S
C1344 C1347 1.499 . S
C1345 H1319 0.950 . S
C1345 C1344 1.414 . S
C1345 C1346 1.374 . S
C1346 H1320 0.950 . S
C1346 C1342 1.385 . S
C1346 C1345 1.374 . S
C1347 C1344 1.499 . S
C1347 C1348 1.373 . S
C1347 C1349 1.389 . S
C1348 H1321 0.950 . S
C1348 C1334 1.377 . S
C1348 C1347 1.373 . S
C1349 C1333 1.377 . S
C1349 C1347 1.389 . S
C1349 C1350 1.524 . S
C1350 C1349 1.524 . S
C1350 C1351 1.397 . S
C1350 C1355 1.363 . S
C1351 H1322 0.950 . S
C1351 C1350 1.397 . S
C1351 C1352 1.334 . S
C1352 H1323 0.950 . S
C1352 C1351 1.334 . S
C1352 C1353 1.287 . S
C1353 C1352 1.287 . S
C1353 C1354 1.524 . S
C1353 H1356 0.999 . S
C1354 H1324 0.950 . S
C1354 C1353 1.524 . S
C1354 C1355 1.415 . S
C1355 H1325 0.950 . S
C1355 C1350 1.363 . S
C1355 C1354 1.415 . S
H1356 C1353 0.999 . S
H1357 C1338 0.913 . S
H1358 C1376 0.951 . S
H1359 C1378 0.951 . S
H1360 C1380 0.950 . S
H1361 C1381 0.950 . S
H1362 C1383 0.950 . S
H1363 C1386 0.950 . S
H1364 C1387 0.950 . S
H1365 C1389 0.950 . S
H1366 C1390 0.950 . S
H1367 C1391 0.951 . S
H1368 C1393 0.951 . S
H1369 C1395 0.950 . S
H1370 C1396 0.950 . S
H1371 C1398 0.950 . S
H1372 C1401 0.950 . S
H1373 C1402 0.950 . S
H1374 C1404 0.950 . S
H1375 C1405 0.950 . S
C1376 H1358 0.951 . S
C1376 C1377 1.366 . S
C1376 C1378 1.388 . S
C1377 C1376 1.366 . S
C1377 C1381 1.385 . S
C1378 H1359 0.951 . S
C1378 C1376 1.388 . S
C1378 C1379 1.366 . S
C1379 C1378 1.366 . S
C1379 C1380 1.414 . S
C1379 C1382 1.499 . S
C1380 H1360 0.950 . S
C1380 C1379 1.414 . S
C1380 C1381 1.374 . S
C1381 H1361 0.950 . S
C1381 C1377 1.385 . S
C1381 C1380 1.374 . S
C1382 C1379 1.499 . S
C1382 C1383 1.373 . S
C1382 C1384 1.389 . S
C1383 H1362 0.950 . S
C1383 C1382 1.373 . S
C1383 C1399 1.377 . S
C1384 C1382 1.389 . S
C1384 C1385 1.524 . S
C1384 C1398 1.377 . S
C1385 C1384 1.524 . S
C1385 C1386 1.397 . S
C1385 C1390 1.363 . S
C1386 H1363 0.950 . S
C1386 C1385 1.397 . S
C1386 C1387 1.334 . S
C1387 H1364 0.950 . S
C1387 C1386 1.334 . S
C1387 C1388 1.287 . S
C1388 C1387 1.287 . S
C1388 C1389 1.524 . S
C1388 H1407 0.913 . S
C1389 H1365 0.950 . S
C1389 C1388 1.524 . S
C1389 C1390 1.415 . S
C1390 H1366 0.950 . S
C1390 C1385 1.363 . S
C1390 C1389 1.415 . S
C1391 H1367 0.951 . S
C1391 C1392 1.366 . S
C1391 C1393 1.388 . S
C1392 C1391 1.366 . S
C1392 C1396 1.385 . S
C1393 H1368 0.951 . S
C1393 C1391 1.388 . S
C1393 C1394 1.366 . S
C1394 C1393 1.366 . S
C1394 C1395 1.414 . S
C1394 C1397 1.499 . S
C1395 H1369 0.950 . S
C1395 C1394 1.414 . S
C1395 C1396 1.374 . S
C1396 H1370 0.950 . S
C1396 C1392 1.385 . S
C1396 C1395 1.374 . S
C1397 C1394 1.499 . S
C1397 C1398 1.373 . S
C1397 C1399 1.389 . S
C1398 H1371 0.950 . S
C1398 C1384 1.377 . S
C1398 C1397 1.373 . S
C1399 C1383 1.377 . S
C1399 C1397 1.389 . S
C1399 C1400 1.524 . S
C1400 C1399 1.524 . S
C1400 C1401 1.397 . S
C1400 C1405 1.363 . S
C1401 H1372 0.950 . S
C1401 C1400 1.397 . S
C1401 C1402 1.334 . S
C1402 H1373 0.950 . S
C1402 C1401 1.334 . S
C1402 C1403 1.287 . S
C1403 C1402 1.287 . S
C1403 C1404 1.524 . S
C1403 H1406 0.999 . S
C1404 H1374 0.950 . S
C1404 C1403 1.524 . S
C1404 C1405 1.415 . S
C1405 H1375 0.950 . S
C1405 C1400 1.363 . S
C1405 C1404 1.415 . S
H1406 C1403 0.999 . S
H1407 C1388 0.913 . S
H1408 C1426 0.951 . S
H1409 C1428 0.951 . S
H1410 C1430 0.950 . S
H1411 C1431 0.950 . S
H1412 C1433 0.950 . S
H1413 C1436 0.950 . S
H1414 C1437 0.950 . S
H1415 C1439 0.950 . S
H1416 C1440 0.950 . S
H1417 C1441 0.951 . S
H1418 C1443 0.951 . S
H1419 C1445 0.950 . S
H1420 C1446 0.950 . S
H1421 C1448 0.950 . S
H1422 C1451 0.950 . S
H1423 C1452 0.950 . S
H1424 C1454 0.950 . S
H1425 C1455 0.950 . S
C1426 H1408 0.951 . S
C1426 C1427 1.366 . S
C1426 C1428 1.388 . S
C1427 C1426 1.366 . S
C1427 C1431 1.385 . S
C1428 H1409 0.951 . S
C1428 C1426 1.388 . S
C1428 C1429 1.366 . S
C1429 C1428 1.366 . S
C1429 C1430 1.414 . S
C1429 C1432 1.499 . S
C1430 H1410 0.950 . S
C1430 C1429 1.414 . S
C1430 C1431 1.374 . S
C1431 H1411 0.950 . S
C1431 C1427 1.385 . S
C1431 C1430 1.374 . S
C1432 C1429 1.499 . S
C1432 C1433 1.373 . S
C1432 C1434 1.389 . S
C1433 H1412 0.950 . S
C1433 C1432 1.373 . S
C1433 C1449 1.377 . S
C1434 C1432 1.389 . S
C1434 C1435 1.524 . S
C1434 C1448 1.377 . S
C1435 C1434 1.524 . S
C1435 C1436 1.397 . S
C1435 C1440 1.363 . S
C1436 H1413 0.950 . S
C1436 C1435 1.397 . S
C1436 C1437 1.334 . S
C1437 H1414 0.950 . S
C1437 C1436 1.334 . S
C1437 C1438 1.287 . S
C1438 C1437 1.287 . S
C1438 C1439 1.524 . S
C1438 H1457 0.913 . S
C1439 H1415 0.950 . S
C1439 C1438 1.524 . S
C1439 C1440 1.415 . S
C1440 H1416 0.950 . S
C1440 C1435 1.363 . S
C1440 C1439 1.415 . S
C1441 H1417 0.951 . S
C1441 C1442 1.366 . S
C1441 C1443 1.388 . S
C1442 C1441 1.366 . S
C1442 C1446 1.385 . S
C1443 H1418 0.951 . S
C1443 C1441 1.388 . S
C1443 C1444 1.366 . S
C1444 C1443 1.366 . S
C1444 C1445 1.414 . S
C1444 C1447 1.499 . S
C1445 H1419 0.950 . S
C1445 C1444 1.414 . S
C1445 C1446 1.374 . S
C1446 H1420 0.950 . S
C1446 C1442 1.385 . S
C1446 C1445 1.374 . S
C1447 C1444 1.499 . S
C1447 C1448 1.373 . S
C1447 C1449 1.389 . S
C1448 H1421 0.950 . S
C1448 C1434 1.377 . S
C1448 C1447 1.373 . S
C1449 C1433 1.377 . S
C1449 C1447 1.389 . S
C1449 C1450 1.524 . S
C1450 C1449 1.524 . S
C1450 C1451 1.397 . S
C1450 C1455 1.363 . S
C1451 H1422 0.950 . S
C1451 C1450 1.397 . S
C1451 C1452 1.334 . S
C1452 H1423 0.950 . S
C1452 C1451 1.334 . S
C1452 C1453 1.287 . S
C1453 C1452 1.287 . S
C1453 C1454 1.524 . S
C1453 H1456 0.999 . S
C1454 H1424 0.950 . S
C1454 C1453 1.524 . S
C1454 C1455 1.415 . S
C1455 H1425 0.950 . S
C1455 C1450 1.363 . S
C1455 C1454 1.415 . S
H1456 C1453 0.999 . S
H1457 C1438 0.913 . S
H1458 C1476 0.951 . S
H1459 C1478 0.951 . S
H1460 C1480 0.950 . S
H1461 C1481 0.950 . S
H1462 C1483 0.950 . S
H1463 C1486 0.950 . S
H1464 C1487 0.950 . S
H1465 C1489 0.950 . S
H1466 C1490 0.950 . S
H1467 C1491 0.951 . S
H1468 C1493 0.951 . S
H1469 C1495 0.950 . S
H1470 C1496 0.950 . S
H1471 C1498 0.950 . S
H1472 C1501 0.950 . S
H1473 C1502 0.950 . S
H1474 C1504 0.950 . S
H1475 C1505 0.950 . S
C1476 H1458 0.951 . S
C1476 C1477 1.366 . S
C1476 C1478 1.388 . S
C1477 C1476 1.366 . S
C1477 C1481 1.385 . S
C1478 H1459 0.951 . S
C1478 C1476 1.388 . S
C1478 C1479 1.366 . S
C1479 C1478 1.366 . S
C1479 C1480 1.414 . S
C1479 C1482 1.499 . S
C1480 H1460 0.950 . S
C1480 C1479 1.414 . S
C1480 C1481 1.374 . S
C1481 H1461 0.950 . S
C1481 C1477 1.385 . S
C1481 C1480 1.374 . S
C1482 C1479 1.499 . S
C1482 C1483 1.373 . S
C1482 C1484 1.389 . S
C1483 H1462 0.950 . S
C1483 C1482 1.373 . S
C1483 C1499 1.377 . S
C1484 C1482 1.389 . S
C1484 C1485 1.524 . S
C1484 C1498 1.377 . S
C1485 C1484 1.524 . S
C1485 C1486 1.397 . S
C1485 C1490 1.363 . S
C1486 H1463 0.950 . S
C1486 C1485 1.397 . S
C1486 C1487 1.334 . S
C1487 H1464 0.950 . S
C1487 C1486 1.334 . S
C1487 C1488 1.287 . S
C1488 C1487 1.287 . S
C1488 C1489 1.524 . S
C1488 H1507 0.913 . S
C1489 H1465 0.950 . S
C1489 C1488 1.524 . S
C1489 C1490 1.415 . S
C1490 H1466 0.950 . S
C1490 C1485 1.363 . S
C1490 C1489 1.415 . S
C1491 H1467 0.951 . S
C1491 C1492 1.366 . S
C1491 C1493 1.388 . S
C1492 C1491 1.366 . S
C1492 C1496 1.385 . S
C1493 H1468 0.951 . S
C1493 C1491 1.388 . S
C1493 C1494 1.366 . S
C1494 C1493 1.366 . S
C1494 C1495 1.414 . S
C1494 C1497 1.499 . S
C1495 H1469 0.950 . S
C1495 C1494 1.414 . S
C1495 C1496 1.374 . S
C1496 H1470 0.950 . S
C1496 C1492 1.385 . S
C1496 C1495 1.374 . S
C1497 C1494 1.499 . S
C1497 C1498 1.373 . S
C1497 C1499 1.389 . S
C1498 H1471 0.950 . S
C1498 C1484 1.377 . S
C1498 C1497 1.373 . S
C1499 C1483 1.377 . S
C1499 C1497 1.389 . S
C1499 C1500 1.524 . S
C1500 C1499 1.524 . S
C1500 C1501 1.397 . S
C1500 C1505 1.363 . S
C1501 H1472 0.950 . S
C1501 C1500 1.397 . S
C1501 C1502 1.334 . S
C1502 H1473 0.950 . S
C1502 C1501 1.334 . S
C1502 C1503 1.287 . S
C1503 C1502 1.287 . S
C1503 C1504 1.524 . S
C1503 H1506 0.999 . S
C1504 H1474 0.950 . S
C1504 C1503 1.524 . S
C1504 C1505 1.415 . S
C1505 H1475 0.950 . S
C1505 C1500 1.363 . S
C1505 C1504 1.415 . S
H1506 C1503 0.999 . S
H1507 C1488 0.913 . S
H1508 C1526 0.951 . S
H1509 C1528 0.951 . S
H1510 C1530 0.950 . S
H1511 C1531 0.950 . S
H1512 C1533 0.950 . S
H1513 C1536 0.950 . S
H1514 C1537 0.950 . S
H1515 C1539 0.950 . S
H1516 C1540 0.950 . S
H1517 C1541 0.951 . S
H1518 C1543 0.951 . S
H1519 C1545 0.950 . S
H1520 C1546 0.950 . S
H1521 C1548 0.950 . S
H1522 C1551 0.950 . S
H1523 C1552 0.950 1_554 S
H1524 C1554 0.950 . S
H1525 C1555 0.950 . S
C1526 H1508 0.951 . S
C1526 C1527 1.366 . S
C1526 C1528 1.388 . S
C1527 C1526 1.366 . S
C1527 C1531 1.385 . S
C1528 H1509 0.951 . S
C1528 C1526 1.388 . S
C1528 C1529 1.366 . S
C1529 C1528 1.366 . S
C1529 C1530 1.414 . S
C1529 C1532 1.499 . S
C1530 H1510 0.950 . S
C1530 C1529 1.414 . S
C1530 C1531 1.374 . S
C1531 H1511 0.950 . S
C1531 C1527 1.385 . S
C1531 C1530 1.374 . S
C1532 C1529 1.499 . S
C1532 C1533 1.373 . S
C1532 C1534 1.389 . S
C1533 H1512 0.950 . S
C1533 C1532 1.373 . S
C1533 C1549 1.377 . S
C1534 C1532 1.389 . S
C1534 C1535 1.524 . S
C1534 C1548 1.377 . S
C1535 C1534 1.524 . S
C1535 C1536 1.397 . S
C1535 C1540 1.363 . S
C1536 H1513 0.950 . S
C1536 C1535 1.397 . S
C1536 C1537 1.334 . S
C1537 H1514 0.950 . S
C1537 C1536 1.334 . S
C1537 C1538 1.287 . S
C1538 C1537 1.287 . S
C1538 C1539 1.524 . S
C1538 H1557 0.913 . S
C1539 H1515 0.950 . S
C1539 C1538 1.524 . S
C1539 C1540 1.415 . S
C1540 H1516 0.950 . S
C1540 C1535 1.363 . S
C1540 C1539 1.415 . S
C1541 H1517 0.951 . S
C1541 C1542 1.366 . S
C1541 C1543 1.388 . S
C1542 C1541 1.366 . S
C1542 C1546 1.385 . S
C1543 H1518 0.951 . S
C1543 C1541 1.388 . S
C1543 C1544 1.366 . S
C1544 C1543 1.366 . S
C1544 C1545 1.414 . S
C1544 C1547 1.499 . S
C1545 H1519 0.950 . S
C1545 C1544 1.414 . S
C1545 C1546 1.374 . S
C1546 H1520 0.950 . S
C1546 C1542 1.385 . S
C1546 C1545 1.374 . S
C1547 C1544 1.499 . S
C1547 C1548 1.373 . S
C1547 C1549 1.389 . S
C1548 H1521 0.950 . S
C1548 C1534 1.377 . S
C1548 C1547 1.373 . S
C1549 C1533 1.377 . S
C1549 C1547 1.389 . S
C1549 C1550 1.524 . S
C1550 C1549 1.524 . S
C1550 C1551 1.397 . S
C1550 C1555 1.363 . S
C1551 H1522 0.950 . S
C1551 C1550 1.397 . S
C1551 C1552 1.334 . S
C1552 H1523 0.950 1_556 S
C1552 C1551 1.334 . S
C1552 C1553 1.287 . S
C1553 C1552 1.287 . S
C1553 C1554 1.524 . S
C1553 H1556 0.999 1_556 S
C1554 H1524 0.950 . S
C1554 C1553 1.524 . S
C1554 C1555 1.415 . S
C1555 H1525 0.950 . S
C1555 C1550 1.363 . S
C1555 C1554 1.415 . S
H1556 C1553 0.999 1_554 S
H1557 C1538 0.913 . S
H1558 C1576 0.951 . S
H1559 C1578 0.951 . S
H1560 C1580 0.950 . S
H1561 C1581 0.950 . S
H1562 C1583 0.950 . S
H1563 C1586 0.950 . S
H1564 C1587 0.950 . S
H1565 C1589 0.950 . S
H1566 C1590 0.950 . S
H1567 C1591 0.951 . S
H1568 C1593 0.951 . S
H1569 C1595 0.950 . S
H1570 C1596 0.950 . S
H1571 C1598 0.950 . S
H1572 C1601 0.950 . S
H1573 C1602 0.950 . S
H1574 C1604 0.950 . S
H1575 C1605 0.950 . S
C1576 H1558 0.951 . S
C1576 C1577 1.366 . S
C1576 C1578 1.388 . S
C1577 C1576 1.366 . S
C1577 C1581 1.385 . S
C1578 H1559 0.951 . S
C1578 C1576 1.388 . S
C1578 C1579 1.366 . S
C1579 C1578 1.366 . S
C1579 C1580 1.414 . S
C1579 C1582 1.499 . S
C1580 H1560 0.950 . S
C1580 C1579 1.414 . S
C1580 C1581 1.374 . S
C1581 H1561 0.950 . S
C1581 C1577 1.385 . S
C1581 C1580 1.374 . S
C1582 C1579 1.499 . S
C1582 C1583 1.373 . S
C1582 C1584 1.389 . S
C1583 H1562 0.950 . S
C1583 C1582 1.373 . S
C1583 C1599 1.377 . S
C1584 C1582 1.389 . S
C1584 C1585 1.524 . S
C1584 C1598 1.377 . S
C1585 C1584 1.524 . S
C1585 C1586 1.397 . S
C1585 C1590 1.363 . S
C1586 H1563 0.950 . S
C1586 C1585 1.397 . S
C1586 C1587 1.334 . S
C1587 H1564 0.950 . S
C1587 C1586 1.334 . S
C1587 C1588 1.287 . S
C1588 C1587 1.287 . S
C1588 C1589 1.524 . S
C1588 H1607 0.913 . S
C1589 H1565 0.950 . S
C1589 C1588 1.524 . S
C1589 C1590 1.415 . S
C1590 H1566 0.950 . S
C1590 C1585 1.363 . S
C1590 C1589 1.415 . S
C1591 H1567 0.951 . S
C1591 C1592 1.366 . S
C1591 C1593 1.388 . S
C1592 C1591 1.366 . S
C1592 C1596 1.385 . S
C1593 H1568 0.951 . S
C1593 C1591 1.388 . S
C1593 C1594 1.366 . S
C1594 C1593 1.366 . S
C1594 C1595 1.414 . S
C1594 C1597 1.499 . S
C1595 H1569 0.950 . S
C1595 C1594 1.414 . S
C1595 C1596 1.374 . S
C1596 H1570 0.950 . S
C1596 C1592 1.385 . S
C1596 C1595 1.374 . S
C1597 C1594 1.499 . S
C1597 C1598 1.373 . S
C1597 C1599 1.389 . S
C1598 H1571 0.950 . S
C1598 C1584 1.377 . S
C1598 C1597 1.373 . S
C1599 C1583 1.377 . S
C1599 C1597 1.389 . S
C1599 C1600 1.524 . S
C1600 C1599 1.524 . S
C1600 C1601 1.397 . S
C1600 C1605 1.363 . S
C1601 H1572 0.950 . S
C1601 C1600 1.397 . S
C1601 C1602 1.334 . S
C1602 H1573 0.950 . S
C1602 C1601 1.334 . S
C1602 C1603 1.287 . S
C1603 C1602 1.287 . S
C1603 C1604 1.524 . S
C1603 H1606 0.999 . S
C1604 H1574 0.950 . S
C1604 C1603 1.524 . S
C1604 C1605 1.415 . S
C1605 H1575 0.950 . S
C1605 C1600 1.363 . S
C1605 C1604 1.415 . S
H1606 C1603 0.999 . S
H1607 C1588 0.913 . S
H1608 C1626 0.951 . S
H1609 C1628 0.951 . S
H1610 C1630 0.950 . S
H1611 C1631 0.950 . S
H1612 C1633 0.950 . S
H1613 C1636 0.950 . S
H1614 C1637 0.950 . S
H1615 C1639 0.950 . S
H1616 C1640 0.950 . S
H1617 C1641 0.951 . S
H1618 C1643 0.951 . S
H1619 C1645 0.950 . S
H1620 C1646 0.950 . S
H1621 C1648 0.950 . S
H1622 C1651 0.950 . S
H1623 C1652 0.950 . S
H1624 C1654 0.950 . S
H1625 C1655 0.950 . S
C1626 H1608 0.951 . S
C1626 C1627 1.366 . S
C1626 C1628 1.388 . S
C1627 C1626 1.366 . S
C1627 C1631 1.385 . S
C1628 H1609 0.951 . S
C1628 C1626 1.388 . S
C1628 C1629 1.366 . S
C1629 C1628 1.366 . S
C1629 C1630 1.414 . S
C1629 C1632 1.499 . S
C1630 H1610 0.950 . S
C1630 C1629 1.414 . S
C1630 C1631 1.374 . S
C1631 H1611 0.950 . S
C1631 C1627 1.385 . S
C1631 C1630 1.374 . S
C1632 C1629 1.499 . S
C1632 C1633 1.373 . S
C1632 C1634 1.389 . S
C1633 H1612 0.950 . S
C1633 C1632 1.373 . S
C1633 C1649 1.377 . S
C1634 C1632 1.389 . S
C1634 C1635 1.524 . S
C1634 C1648 1.377 . S
C1635 C1634 1.524 . S
C1635 C1636 1.397 . S
C1635 C1640 1.363 . S
C1636 H1613 0.950 . S
C1636 C1635 1.397 . S
C1636 C1637 1.334 . S
C1637 H1614 0.950 . S
C1637 C1636 1.334 . S
C1637 C1638 1.287 . S
C1638 C1637 1.287 . S
C1638 C1639 1.524 . S
C1638 H1657 0.913 . S
C1639 H1615 0.950 . S
C1639 C1638 1.524 . S
C1639 C1640 1.415 . S
C1640 H1616 0.950 . S
C1640 C1635 1.363 . S
C1640 C1639 1.415 . S
C1641 H1617 0.951 . S
C1641 C1642 1.366 . S
C1641 C1643 1.388 . S
C1642 C1641 1.366 . S
C1642 C1646 1.385 . S
C1643 H1618 0.951 . S
C1643 C1641 1.388 . S
C1643 C1644 1.366 . S
C1644 C1643 1.366 . S
C1644 C1645 1.414 . S
C1644 C1647 1.499 . S
C1645 H1619 0.950 . S
C1645 C1644 1.414 . S
C1645 C1646 1.374 . S
C1646 H1620 0.950 . S
C1646 C1642 1.385 . S
C1646 C1645 1.374 . S
C1647 C1644 1.499 . S
C1647 C1648 1.373 . S
C1647 C1649 1.389 . S
C1648 H1621 0.950 . S
C1648 C1634 1.377 . S
C1648 C1647 1.373 . S
C1649 C1633 1.377 . S
C1649 C1647 1.389 . S
C1649 C1650 1.524 . S
C1650 C1649 1.524 . S
C1650 C1651 1.397 . S
C1650 C1655 1.363 . S
C1651 H1622 0.950 . S
C1651 C1650 1.397 . S
C1651 C1652 1.334 . S
C1652 H1623 0.950 . S
C1652 C1651 1.334 . S
C1652 C1653 1.287 . S
C1653 C1652 1.287 . S
C1653 C1654 1.524 . S
C1653 H1656 0.999 . S
C1654 H1624 0.950 . S
C1654 C1653 1.524 . S
C1654 C1655 1.415 . S
C1655 H1625 0.950 . S
C1655 C1650 1.363 . S
C1655 C1654 1.415 . S
H1656 C1653 0.999 . S
H1657 C1638 0.913 . S
H1658 C1676 0.951 . S
H1659 C1678 0.951 . S
H1660 C1680 0.950 . S
H1661 C1681 0.950 . S
H1662 C1683 0.950 . S
H1663 C1686 0.950 . S
H1664 C1687 0.950 . S
H1665 C1689 0.950 . S
H1666 C1690 0.950 . S
H1667 C1691 0.951 . S
H1668 C1693 0.951 . S
H1669 C1695 0.950 . S
H1670 C1696 0.950 . S
H1671 C1698 0.950 . S
H1672 C1701 0.950 . S
H1673 C1702 0.950 . S
H1674 C1704 0.950 . S
H1675 C1705 0.950 . S
C1676 H1658 0.951 . S
C1676 C1677 1.366 . S
C1676 C1678 1.388 . S
C1677 C1676 1.366 . S
C1677 C1681 1.385 . S
C1678 H1659 0.951 . S
C1678 C1676 1.388 . S
C1678 C1679 1.366 . S
C1679 C1678 1.366 . S
C1679 C1680 1.414 . S
C1679 C1682 1.499 . S
C1680 H1660 0.950 . S
C1680 C1679 1.414 . S
C1680 C1681 1.374 . S
C1681 H1661 0.950 . S
C1681 C1677 1.385 . S
C1681 C1680 1.374 . S
C1682 C1679 1.499 . S
C1682 C1683 1.373 . S
C1682 C1684 1.389 . S
C1683 H1662 0.950 . S
C1683 C1682 1.373 . S
C1683 C1699 1.377 . S
C1684 C1682 1.389 . S
C1684 C1685 1.524 . S
C1684 C1698 1.377 . S
C1685 C1684 1.524 . S
C1685 C1686 1.397 . S
C1685 C1690 1.363 . S
C1686 H1663 0.950 . S
C1686 C1685 1.397 . S
C1686 C1687 1.334 . S
C1687 H1664 0.950 . S
C1687 C1686 1.334 . S
C1687 C1688 1.287 . S
C1688 C1687 1.287 . S
C1688 C1689 1.524 . S
C1688 H1707 0.913 . S
C1689 H1665 0.950 . S
C1689 C1688 1.524 . S
C1689 C1690 1.415 . S
C1690 H1666 0.950 . S
C1690 C1685 1.363 . S
C1690 C1689 1.415 . S
C1691 H1667 0.951 . S
C1691 C1692 1.366 . S
C1691 C1693 1.388 . S
C1692 C1691 1.366 . S
C1692 C1696 1.385 . S
C1693 H1668 0.951 . S
C1693 C1691 1.388 . S
C1693 C1694 1.366 . S
C1694 C1693 1.366 . S
C1694 C1695 1.414 . S
C1694 C1697 1.499 . S
C1695 H1669 0.950 . S
C1695 C1694 1.414 . S
C1695 C1696 1.374 . S
C1696 H1670 0.950 . S
C1696 C1692 1.385 . S
C1696 C1695 1.374 . S
C1697 C1694 1.499 . S
C1697 C1698 1.373 . S
C1697 C1699 1.389 . S
C1698 H1671 0.950 . S
C1698 C1684 1.377 . S
C1698 C1697 1.373 . S
C1699 C1683 1.377 . S
C1699 C1697 1.389 . S
C1699 C1700 1.524 . S
C1700 C1699 1.524 . S
C1700 C1701 1.397 . S
C1700 C1705 1.363 . S
C1701 H1672 0.950 . S
C1701 C1700 1.397 . S
C1701 C1702 1.334 . S
C1702 H1673 0.950 . S
C1702 C1701 1.334 . S
C1702 C1703 1.287 . S
C1703 C1702 1.287 . S
C1703 C1704 1.524 . S
C1703 H1706 0.999 . S
C1704 H1674 0.950 . S
C1704 C1703 1.524 . S
C1704 C1705 1.415 . S
C1705 H1675 0.950 . S
C1705 C1700 1.363 . S
C1705 C1704 1.415 . S
H1706 C1703 0.999 . S
H1707 C1688 0.913 . S
H1708 C1726 0.951 . S
H1709 C1728 0.951 . S
H1710 C1730 0.950 . S
H1711 C1731 0.950 . S
H1712 C1733 0.950 . S
H1713 C1736 0.950 . S
H1714 C1737 0.950 . S
H1715 C1739 0.950 . S
H1716 C1740 0.950 . S
H1717 C1741 0.951 . S
H1718 C1743 0.951 . S
H1719 C1745 0.950 . S
H1720 C1746 0.950 . S
H1721 C1748 0.950 . S
H1722 C1751 0.950 . S
H1723 C1752 0.950 . S
H1724 C1754 0.950 . S
H1725 C1755 0.950 . S
C1726 H1708 0.951 . S
C1726 C1727 1.366 . S
C1726 C1728 1.388 . S
C1727 C1726 1.366 . S
C1727 C1731 1.385 . S
C1728 H1709 0.951 . S
C1728 C1726 1.388 . S
C1728 C1729 1.366 . S
C1729 C1728 1.366 . S
C1729 C1730 1.414 . S
C1729 C1732 1.499 . S
C1730 H1710 0.950 . S
C1730 C1729 1.414 . S
C1730 C1731 1.374 . S
C1731 H1711 0.950 . S
C1731 C1727 1.385 . S
C1731 C1730 1.374 . S
C1732 C1729 1.499 . S
C1732 C1733 1.373 . S
C1732 C1734 1.389 . S
C1733 H1712 0.950 . S
C1733 C1732 1.373 . S
C1733 C1749 1.377 . S
C1734 C1732 1.389 . S
C1734 C1735 1.524 . S
C1734 C1748 1.377 . S
C1735 C1734 1.524 . S
C1735 C1736 1.397 . S
C1735 C1740 1.363 . S
C1736 H1713 0.950 . S
C1736 C1735 1.397 . S
C1736 C1737 1.334 . S
C1737 H1714 0.950 . S
C1737 C1736 1.334 . S
C1737 C1738 1.287 . S
C1738 C1737 1.287 . S
C1738 C1739 1.524 . S
C1738 H1757 0.913 . S
C1739 H1715 0.950 . S
C1739 C1738 1.524 . S
C1739 C1740 1.415 . S
C1740 H1716 0.950 . S
C1740 C1735 1.363 . S
C1740 C1739 1.415 . S
C1741 H1717 0.951 . S
C1741 C1742 1.366 . S
C1741 C1743 1.388 . S
C1742 C1741 1.366 . S
C1742 C1746 1.385 . S
C1743 H1718 0.951 . S
C1743 C1741 1.388 . S
C1743 C1744 1.366 . S
C1744 C1743 1.366 . S
C1744 C1745 1.414 . S
C1744 C1747 1.499 . S
C1745 H1719 0.950 . S
C1745 C1744 1.414 . S
C1745 C1746 1.374 . S
C1746 H1720 0.950 . S
C1746 C1742 1.385 . S
C1746 C1745 1.374 . S
C1747 C1744 1.499 . S
C1747 C1748 1.373 . S
C1747 C1749 1.389 . S
C1748 H1721 0.950 . S
C1748 C1734 1.377 . S
C1748 C1747 1.373 . S
C1749 C1733 1.377 . S
C1749 C1747 1.389 . S
C1749 C1750 1.524 . S
C1750 C1749 1.524 . S
C1750 C1751 1.397 . S
C1750 C1755 1.363 . S
C1751 H1722 0.950 . S
C1751 C1750 1.397 . S
C1751 C1752 1.334 . S
C1752 H1723 0.950 . S
C1752 C1751 1.334 . S
C1752 C1753 1.287 . S
C1753 C1752 1.287 . S
C1753 C1754 1.524 . S
C1753 H1756 0.999 . S
C1754 H1724 0.950 . S
C1754 C1753 1.524 . S
C1754 C1755 1.415 . S
C1755 H1725 0.950 . S
C1755 C1750 1.363 . S
C1755 C1754 1.415 . S
H1756 C1753 0.999 . S
H1757 C1738 0.913 . S
H1758 C1776 0.951 . S
H1759 C1778 0.951 . S
H1760 C1780 0.950 . S
H1761 C1781 0.950 . S
H1762 C1783 0.950 . S
H1763 C1786 0.950 . S
H1764 C1787 0.950 . S
H1765 C1789 0.950 . S
H1766 C1790 0.950 . S
H1767 C1791 0.951 . S
H1768 C1793 0.951 . S
H1769 C1795 0.950 . S
H1770 C1796 0.950 . S
H1771 C1798 0.950 . S
H1772 C1801 0.950 . S
H1773 C1802 0.950 . S
H1774 C1804 0.950 . S
H1775 C1805 0.950 . S
C1776 H1758 0.951 . S
C1776 C1777 1.366 . S
C1776 C1778 1.388 . S
C1777 C1776 1.366 . S
C1777 C1781 1.385 . S
C1778 H1759 0.951 . S
C1778 C1776 1.388 . S
C1778 C1779 1.366 . S
C1779 C1778 1.366 . S
C1779 C1780 1.414 . S
C1779 C1782 1.499 . S
C1780 H1760 0.950 . S
C1780 C1779 1.414 . S
C1780 C1781 1.374 . S
C1781 H1761 0.950 . S
C1781 C1777 1.385 . S
C1781 C1780 1.374 . S
C1782 C1779 1.499 . S
C1782 C1783 1.373 . S
C1782 C1784 1.389 . S
C1783 H1762 0.950 . S
C1783 C1782 1.373 . S
C1783 C1799 1.377 . S
C1784 C1782 1.389 . S
C1784 C1785 1.524 . S
C1784 C1798 1.377 . S
C1785 C1784 1.524 . S
C1785 C1786 1.397 . S
C1785 C1790 1.363 . S
C1786 H1763 0.950 . S
C1786 C1785 1.397 . S
C1786 C1787 1.334 . S
C1787 H1764 0.950 . S
C1787 C1786 1.334 . S
C1787 C1788 1.287 . S
C1788 C1787 1.287 . S
C1788 C1789 1.524 . S
C1788 H1807 0.913 . S
C1789 H1765 0.950 . S
C1789 C1788 1.524 . S
C1789 C1790 1.415 . S
C1790 H1766 0.950 . S
C1790 C1785 1.363 . S
C1790 C1789 1.415 . S
C1791 H1767 0.951 . S
C1791 C1792 1.366 . S
C1791 C1793 1.388 . S
C1792 C1791 1.366 . S
C1792 C1796 1.385 . S
C1793 H1768 0.951 . S
C1793 C1791 1.388 . S
C1793 C1794 1.366 . S
C1794 C1793 1.366 . S
C1794 C1795 1.414 . S
C1794 C1797 1.499 . S
C1795 H1769 0.950 . S
C1795 C1794 1.414 . S
C1795 C1796 1.374 . S
C1796 H1770 0.950 . S
C1796 C1792 1.385 . S
C1796 C1795 1.374 . S
C1797 C1794 1.499 . S
C1797 C1798 1.373 . S
C1797 C1799 1.389 . S
C1798 H1771 0.950 . S
C1798 C1784 1.377 . S
C1798 C1797 1.373 . S
C1799 C1783 1.377 . S
C1799 C1797 1.389 . S
C1799 C1800 1.524 . S
C1800 C1799 1.524 . S
C1800 C1801 1.397 . S
C1800 C1805 1.363 . S
C1801 H1772 0.950 . S
C1801 C1800 1.397 . S
C1801 C1802 1.334 . S
C1802 H1773 0.950 . S
C1802 C1801 1.334 . S
C1802 C1803 1.287 . S
C1803 C1802 1.287 . S
C1803 C1804 1.524 . S
C1803 H1806 0.999 . S
C1804 H1774 0.950 . S
C1804 C1803 1.524 . S
C1804 C1805 1.415 . S
C1805 H1775 0.950 . S
C1805 C1800 1.363 . S
C1805 C1804 1.415 . S
H1806 C1803 0.999 . S
H1807 C1788 0.913 . S
H1808 C1826 0.951 . S
H1809 C1828 0.951 . S
H1810 C1830 0.950 . S
H1811 C1831 0.950 . S
H1812 C1833 0.950 . S
H1813 C1836 0.950 . S
H1814 C1837 0.950 . S
H1815 C1839 0.950 . S
H1816 C1840 0.950 . S
H1817 C1841 0.951 . S
H1818 C1843 0.951 . S
H1819 C1845 0.950 . S
H1820 C1846 0.950 . S
H1821 C1848 0.950 . S
H1822 C1851 0.950 . S
H1823 C1852 0.950 . S
H1824 C1854 0.950 . S
H1825 C1855 0.950 . S
C1826 H1808 0.951 . S
C1826 C1827 1.366 . S
C1826 C1828 1.388 . S
C1827 C1826 1.366 . S
C1827 C1831 1.385 . S
C1828 H1809 0.951 . S
C1828 C1826 1.388 . S
C1828 C1829 1.366 . S
C1829 C1828 1.366 . S
C1829 C1830 1.414 . S
C1829 C1832 1.499 . S
C1830 H1810 0.950 . S
C1830 C1829 1.414 . S
C1830 C1831 1.374 . S
C1831 H1811 0.950 . S
C1831 C1827 1.385 . S
C1831 C1830 1.374 . S
C1832 C1829 1.499 . S
C1832 C1833 1.373 . S
C1832 C1834 1.389 . S
C1833 H1812 0.950 . S
C1833 C1832 1.373 . S
C1833 C1849 1.377 . S
C1834 C1832 1.389 . S
C1834 C1835 1.524 . S
C1834 C1848 1.377 . S
C1835 C1834 1.524 . S
C1835 C1836 1.397 . S
C1835 C1840 1.363 . S
C1836 H1813 0.950 . S
C1836 C1835 1.397 . S
C1836 C1837 1.334 . S
C1837 H1814 0.950 . S
C1837 C1836 1.334 . S
C1837 C1838 1.287 . S
C1838 C1837 1.287 . S
C1838 C1839 1.524 . S
C1838 H1857 0.913 . S
C1839 H1815 0.950 . S
C1839 C1838 1.524 . S
C1839 C1840 1.415 . S
C1840 H1816 0.950 . S
C1840 C1835 1.363 . S
C1840 C1839 1.415 . S
C1841 H1817 0.951 . S
C1841 C1842 1.366 . S
C1841 C1843 1.388 . S
C1842 C1841 1.366 . S
C1842 C1846 1.385 . S
C1843 H1818 0.951 . S
C1843 C1841 1.388 . S
C1843 C1844 1.366 . S
C1844 C1843 1.366 . S
C1844 C1845 1.414 . S
C1844 C1847 1.499 . S
C1845 H1819 0.950 . S
C1845 C1844 1.414 . S
C1845 C1846 1.374 . S
C1846 H1820 0.950 . S
C1846 C1842 1.385 . S
C1846 C1845 1.374 . S
C1847 C1844 1.499 . S
C1847 C1848 1.373 . S
C1847 C1849 1.389 . S
C1848 H1821 0.950 . S
C1848 C1834 1.377 . S
C1848 C1847 1.373 . S
C1849 C1833 1.377 . S
C1849 C1847 1.389 . S
C1849 C1850 1.524 . S
C1850 C1849 1.524 . S
C1850 C1851 1.397 . S
C1850 C1855 1.363 . S
C1851 H1822 0.950 . S
C1851 C1850 1.397 . S
C1851 C1852 1.334 . S
C1852 H1823 0.950 . S
C1852 C1851 1.334 . S
C1852 C1853 1.287 . S
C1853 C1852 1.287 . S
C1853 C1854 1.524 . S
C1853 H1856 0.999 . S
C1854 H1824 0.950 . S
C1854 C1853 1.524 . S
C1854 C1855 1.415 . S
C1855 H1825 0.950 . S
C1855 C1850 1.363 . S
C1855 C1854 1.415 . S
H1856 C1853 0.999 . S
H1857 C1838 0.913 . S
H1858 C1876 0.951 . S
H1859 C1878 0.951 . S
H1860 C1880 0.950 . S
H1861 C1881 0.950 . S
H1862 C1883 0.950 . S
H1863 C1886 0.950 . S
H1864 C1887 0.950 . S
H1865 C1889 0.950 . S
H1866 C1890 0.950 . S
H1867 C1891 0.951 . S
H1868 C1893 0.951 . S
H1869 C1895 0.950 . S
H1870 C1896 0.950 . S
H1871 C1898 0.950 . S
H1872 C1901 0.950 . S
H1873 C1902 0.950 . S
H1874 C1904 0.950 . S
H1875 C1905 0.950 . S
C1876 H1858 0.951 . S
C1876 C1877 1.366 . S
C1876 C1878 1.388 . S
C1877 C1876 1.366 . S
C1877 C1881 1.385 . S
C1878 H1859 0.951 . S
C1878 C1876 1.388 . S
C1878 C1879 1.366 . S
C1879 C1878 1.366 . S
C1879 C1880 1.414 . S
C1879 C1882 1.499 . S
C1880 H1860 0.950 . S
C1880 C1879 1.414 . S
C1880 C1881 1.374 . S
C1881 H1861 0.950 . S
C1881 C1877 1.385 . S
C1881 C1880 1.374 . S
C1882 C1879 1.499 . S
C1882 C1883 1.373 . S
C1882 C1884 1.389 . S
C1883 H1862 0.950 . S
C1883 C1882 1.373 . S
C1883 C1899 1.377 . S
C1884 C1882 1.389 . S
C1884 C1885 1.524 . S
C1884 C1898 1.377 . S
C1885 C1884 1.524 . S
C1885 C1886 1.397 . S
C1885 C1890 1.363 . S
C1886 H1863 0.950 . S
C1886 C1885 1.397 . S
C1886 C1887 1.334 . S
C1887 H1864 0.950 . S
C1887 C1886 1.334 . S
C1887 C1888 1.287 . S
C1888 C1887 1.287 . S
C1888 C1889 1.524 . S
C1888 H1907 0.913 . S
C1889 H1865 0.950 . S
C1889 C1888 1.524 . S
C1889 C1890 1.415 . S
C1890 H1866 0.950 . S
C1890 C1885 1.363 . S
C1890 C1889 1.415 . S
C1891 H1867 0.951 . S
C1891 C1892 1.366 . S
C1891 C1893 1.388 . S
C1892 C1891 1.366 . S
C1892 C1896 1.385 . S
C1893 H1868 0.951 . S
C1893 C1891 1.388 . S
C1893 C1894 1.366 . S
C1894 C1893 1.366 . S
C1894 C1895 1.414 . S
C1894 C1897 1.499 . S
C1895 H1869 0.950 . S
C1895 C1894 1.414 . S
C1895 C1896 1.374 . S
C1896 H1870 0.950 . S
C1896 C1892 1.385 . S
C1896 C1895 1.374 . S
C1897 C1894 1.499 . S
C1897 C1898 1.373 . S
C1897 C1899 1.389 . S
C1898 H1871 0.950 . S
C1898 C1884 1.377 . S
C1898 C1897 1.373 . S
C1899 C1883 1.377 . S
C1899 C1897 1.389 . S
C1899 C1900 1.524 . S
C1900 C1899 1.524 . S
C1900 C1901 1.397 . S
C1900 C1905 1.363 . S
C1901 H1872 0.950 . S
C1901 C1900 1.397 . S
C1901 C1902 1.334 . S
C1902 H1873 0.950 . S
C1902 C1901 1.334 . S
C1902 C1903 1.287 . S
C1903 C1902 1.287 . S
C1903 C1904 1.524 . S
C1903 H1906 0.999 . S
C1904 H1874 0.950 . S
C1904 C1903 1.524 . S
C1904 C1905 1.415 . S
C1905 H1875 0.950 . S
C1905 C1900 1.363 . S
C1905 C1904 1.415 . S
H1906 C1903 0.999 . S
H1907 C1888 0.913 . S
H1908 C1926 0.951 . S
H1909 C1928 0.951 . S
H1910 C1930 0.950 . S
H1911 C1931 0.950 . S
H1912 C1933 0.950 . S
H1913 C1936 0.950 . S
H1914 C1937 0.950 . S
H1915 C1939 0.950 . S
H1916 C1940 0.950 . S
H1917 C1941 0.951 . S
H1918 C1943 0.951 . S
H1919 C1945 0.950 . S
H1920 C1946 0.950 . S
H1921 C1948 0.950 . S
H1922 C1951 0.950 . S
H1923 C1952 0.950 . S
H1924 C1954 0.950 . S
H1925 C1955 0.950 . S
C1926 H1908 0.951 . S
C1926 C1927 1.366 . S
C1926 C1928 1.388 . S
C1927 C1926 1.366 . S
C1927 C1931 1.385 . S
C1928 H1909 0.951 . S
C1928 C1926 1.388 . S
C1928 C1929 1.366 . S
C1929 C1928 1.366 . S
C1929 C1930 1.414 . S
C1929 C1932 1.499 . S
C1930 H1910 0.950 . S
C1930 C1929 1.414 . S
C1930 C1931 1.374 . S
C1931 H1911 0.950 . S
C1931 C1927 1.385 . S
C1931 C1930 1.374 . S
C1932 C1929 1.499 . S
C1932 C1933 1.373 . S
C1932 C1934 1.389 . S
C1933 H1912 0.950 . S
C1933 C1932 1.373 . S
C1933 C1949 1.377 . S
C1934 C1932 1.389 . S
C1934 C1935 1.524 . S
C1934 C1948 1.377 . S
C1935 C1934 1.524 . S
C1935 C1936 1.397 . S
C1935 C1940 1.363 . S
C1936 H1913 0.950 . S
C1936 C1935 1.397 . S
C1936 C1937 1.334 . S
C1937 H1914 0.950 . S
C1937 C1936 1.334 . S
C1937 C1938 1.287 . S
C1938 C1937 1.287 . S
C1938 C1939 1.524 . S
C1938 H1957 0.913 . S
C1939 H1915 0.950 . S
C1939 C1938 1.524 . S
C1939 C1940 1.415 . S
C1940 H1916 0.950 . S
C1940 C1935 1.363 . S
C1940 C1939 1.415 . S
C1941 H1917 0.951 . S
C1941 C1942 1.366 . S
C1941 C1943 1.388 . S
C1942 C1941 1.366 . S
C1942 C1946 1.385 . S
C1943 H1918 0.951 . S
C1943 C1941 1.388 . S
C1943 C1944 1.366 . S
C1944 C1943 1.366 . S
C1944 C1945 1.414 . S
C1944 C1947 1.499 . S
C1945 H1919 0.950 . S
C1945 C1944 1.414 . S
C1945 C1946 1.374 . S
C1946 H1920 0.950 . S
C1946 C1942 1.385 . S
C1946 C1945 1.374 . S
C1947 C1944 1.499 . S
C1947 C1948 1.373 . S
C1947 C1949 1.389 . S
C1948 H1921 0.950 . S
C1948 C1934 1.377 . S
C1948 C1947 1.373 . S
C1949 C1933 1.377 . S
C1949 C1947 1.389 . S
C1949 C1950 1.524 . S
C1950 C1949 1.524 . S
C1950 C1951 1.397 . S
C1950 C1955 1.363 . S
C1951 H1922 0.950 . S
C1951 C1950 1.397 . S
C1951 C1952 1.334 . S
C1952 H1923 0.950 . S
C1952 C1951 1.334 . S
C1952 C1953 1.287 . S
C1953 C1952 1.287 . S
C1953 C1954 1.524 . S
C1953 H1956 0.999 . S
C1954 H1924 0.950 . S
C1954 C1953 1.524 . S
C1954 C1955 1.415 . S
C1955 H1925 0.950 . S
C1955 C1950 1.363 . S
C1955 C1954 1.415 . S
H1956 C1953 0.999 . S
H1957 C1938 0.913 . S
H1958 C1976 0.951 . S
H1959 C1978 0.951 . S
H1960 C1980 0.950 . S
H1961 C1981 0.950 . S
H1962 C1983 0.950 . S
H1963 C1986 0.950 . S
H1964 C1987 0.950 . S
H1965 C1989 0.950 . S
H1966 C1990 0.950 . S
H1967 C1991 0.951 . S
H1968 C1993 0.951 . S
H1969 C1995 0.950 . S
H1970 C1996 0.950 . S
H1971 C1998 0.950 . S
H1972 C2001 0.950 . S
H1973 C2002 0.950 . S
H1974 C2004 0.950 . S
H1975 C2005 0.950 . S
C1976 H1958 0.951 . S
C1976 C1977 1.366 . S
C1976 C1978 1.388 . S
C1977 C1976 1.366 . S
C1977 C1981 1.385 . S
C1978 H1959 0.951 . S
C1978 C1976 1.388 . S
C1978 C1979 1.366 . S
C1979 C1978 1.366 . S
C1979 C1980 1.414 . S
C1979 C1982 1.499 . S
C1980 H1960 0.950 . S
C1980 C1979 1.414 . S
C1980 C1981 1.374 . S
C1981 H1961 0.950 . S
C1981 C1977 1.385 . S
C1981 C1980 1.374 . S
C1982 C1979 1.499 . S
C1982 C1983 1.373 . S
C1982 C1984 1.389 . S
C1983 H1962 0.950 . S
C1983 C1982 1.373 . S
C1983 C1999 1.377 . S
C1984 C1982 1.389 . S
C1984 C1985 1.524 . S
C1984 C1998 1.377 . S
C1985 C1984 1.524 . S
C1985 C1986 1.397 . S
C1985 C1990 1.363 . S
C1986 H1963 0.950 . S
C1986 C1985 1.397 . S
C1986 C1987 1.334 . S
C1987 H1964 0.950 . S
C1987 C1986 1.334 . S
C1987 C1988 1.287 . S
C1988 C1987 1.287 . S
C1988 C1989 1.524 . S
C1988 H2007 0.913 . S
C1989 H1965 0.950 . S
C1989 C1988 1.524 . S
C1989 C1990 1.415 . S
C1990 H1966 0.950 . S
C1990 C1985 1.363 . S
C1990 C1989 1.415 . S
C1991 H1967 0.951 . S
C1991 C1992 1.366 . S
C1991 C1993 1.388 . S
C1992 C1991 1.366 . S
C1992 C1996 1.385 . S
C1993 H1968 0.951 . S
C1993 C1991 1.388 . S
C1993 C1994 1.366 . S
C1994 C1993 1.366 . S
C1994 C1995 1.414 . S
C1994 C1997 1.499 . S
C1995 H1969 0.950 . S
C1995 C1994 1.414 . S
C1995 C1996 1.374 . S
C1996 H1970 0.950 . S
C1996 C1992 1.385 . S
C1996 C1995 1.374 . S
C1997 C1994 1.499 . S
C1997 C1998 1.373 . S
C1997 C1999 1.389 . S
C1998 H1971 0.950 . S
C1998 C1984 1.377 . S
C1998 C1997 1.373 . S
C1999 C1983 1.377 . S
C1999 C1997 1.389 . S
C1999 C2000 1.524 . S
C2000 C1999 1.524 . S
C2000 C2001 1.397 . S
C2000 C2005 1.363 . S
C2001 H1972 0.950 . S
C2001 C2000 1.397 . S
C2001 C2002 1.334 . S
C2002 H1973 0.950 . S
C2002 C2001 1.334 . S
C2002 C2003 1.287 . S
C2003 C2002 1.287 . S
C2003 C2004 1.524 . S
C2003 H2006 0.999 . S
C2004 H1974 0.950 . S
C2004 C2003 1.524 . S
C2004 C2005 1.415 . S
C2005 H1975 0.950 . S
C2005 C2000 1.363 . S
C2005 C2004 1.415 . S
H2006 C2003 0.999 . S
H2007 C1988 0.913 . S
H2008 C2026 0.951 . S
H2009 C2028 0.951 . S
H2010 C2030 0.950 . S
H2011 C2031 0.950 . S
H2012 C2033 0.950 . S
H2013 C2036 0.950 . S
H2014 C2037 0.950 . S
H2015 C2039 0.950 . S
H2016 C2040 0.950 . S
H2017 C2041 0.951 . S
H2018 C2043 0.951 . S
H2019 C2045 0.950 . S
H2020 C2046 0.950 . S
H2021 C2048 0.950 . S
H2022 C2051 0.950 . S
H2023 C2052 0.950 . S
H2024 C2054 0.950 . S
H2025 C2055 0.950 . S
C2026 H2008 0.951 . S
C2026 C2027 1.366 . S
C2026 C2028 1.388 . S
C2027 C2026 1.366 . S
C2027 C2031 1.385 . S
C2028 H2009 0.951 . S
C2028 C2026 1.388 . S
C2028 C2029 1.366 . S
C2029 C2028 1.366 . S
C2029 C2030 1.414 . S
C2029 C2032 1.499 . S
C2030 H2010 0.950 . S
C2030 C2029 1.414 . S
C2030 C2031 1.374 . S
C2031 H2011 0.950 . S
C2031 C2027 1.385 . S
C2031 C2030 1.374 . S
C2032 C2029 1.499 . S
C2032 C2033 1.373 . S
C2032 C2034 1.389 . S
C2033 H2012 0.950 . S
C2033 C2032 1.373 . S
C2033 C2049 1.377 . S
C2034 C2032 1.389 . S
C2034 C2035 1.524 . S
C2034 C2048 1.377 . S
C2035 C2034 1.524 . S
C2035 C2036 1.397 . S
C2035 C2040 1.363 . S
C2036 H2013 0.950 . S
C2036 C2035 1.397 . S
C2036 C2037 1.334 . S
C2037 H2014 0.950 . S
C2037 C2036 1.334 . S
C2037 C2038 1.287 . S
C2038 C2037 1.287 . S
C2038 C2039 1.524 . S
C2038 H2057 0.913 . S
C2039 H2015 0.950 . S
C2039 C2038 1.524 . S
C2039 C2040 1.415 . S
C2040 H2016 0.950 . S
C2040 C2035 1.363 . S
C2040 C2039 1.415 . S
C2041 H2017 0.951 . S
C2041 C2042 1.366 . S
C2041 C2043 1.388 . S
C2042 C2041 1.366 . S
C2042 C2046 1.385 . S
C2043 H2018 0.951 . S
C2043 C2041 1.388 . S
C2043 C2044 1.366 . S
C2044 C2043 1.366 . S
C2044 C2045 1.414 . S
C2044 C2047 1.499 . S
C2045 H2019 0.950 . S
C2045 C2044 1.414 . S
C2045 C2046 1.374 . S
C2046 H2020 0.950 . S
C2046 C2042 1.385 . S
C2046 C2045 1.374 . S
C2047 C2044 1.499 . S
C2047 C2048 1.373 . S
C2047 C2049 1.389 . S
C2048 H2021 0.950 . S
C2048 C2034 1.377 . S
C2048 C2047 1.373 . S
C2049 C2033 1.377 . S
C2049 C2047 1.389 . S
C2049 C2050 1.524 . S
C2050 C2049 1.524 . S
C2050 C2051 1.397 . S
C2050 C2055 1.363 . S
C2051 H2022 0.950 . S
C2051 C2050 1.397 . S
C2051 C2052 1.334 . S
C2052 H2023 0.950 . S
C2052 C2051 1.334 . S
C2052 C2053 1.287 . S
C2053 C2052 1.287 . S
C2053 C2054 1.524 . S
C2053 H2056 0.999 . S
C2054 H2024 0.950 . S
C2054 C2053 1.524 . S
C2054 C2055 1.415 . S
C2055 H2025 0.950 . S
C2055 C2050 1.363 . S
C2055 C2054 1.415 . S
H2056 C2053 0.999 . S
H2057 C2038 0.913 . S
H2058 C2076 0.951 . S
H2059 C2078 0.951 . S
H2060 C2080 0.950 . S
H2061 C2081 0.950 . S
H2062 C2083 0.950 . S
H2063 C2086 0.950 . S
H2064 C2087 0.950 . S
H2065 C2089 0.950 . S
H2066 C2090 0.950 . S
H2067 C2091 0.951 . S
H2068 C2093 0.951 . S
H2069 C2095 0.950 . S
H2070 C2096 0.950 . S
H2071 C2098 0.950 . S
H2072 C2101 0.950 . S
H2073 C2102 0.950 1_554 S
H2074 C2104 0.950 . S
H2075 C2105 0.950 . S
C2076 H2058 0.951 . S
C2076 C2077 1.366 . S
C2076 C2078 1.388 . S
C2077 C2076 1.366 . S
C2077 C2081 1.385 . S
C2078 H2059 0.951 . S
C2078 C2076 1.388 . S
C2078 C2079 1.366 . S
C2079 C2078 1.366 . S
C2079 C2080 1.414 . S
C2079 C2082 1.499 . S
C2080 H2060 0.950 . S
C2080 C2079 1.414 . S
C2080 C2081 1.374 . S
C2081 H2061 0.950 . S
C2081 C2077 1.385 . S
C2081 C2080 1.374 . S
C2082 C2079 1.499 . S
C2082 C2083 1.373 . S
C2082 C2084 1.389 . S
C2083 H2062 0.950 . S
C2083 C2082 1.373 . S
C2083 C2099 1.377 . S
C2084 C2082 1.389 . S
C2084 C2085 1.524 . S
C2084 C2098 1.377 . S
C2085 C2084 1.524 . S
C2085 C2086 1.397 . S
C2085 C2090 1.363 . S
C2086 H2063 0.950 . S
C2086 C2085 1.397 . S
C2086 C2087 1.334 . S
C2087 H2064 0.950 . S
C2087 C2086 1.334 . S
C2087 C2088 1.287 . S
C2088 C2087 1.287 . S
C2088 C2089 1.524 . S
C2088 H2107 0.913 . S
C2089 H2065 0.950 . S
C2089 C2088 1.524 . S
C2089 C2090 1.415 . S
C2090 H2066 0.950 . S
C2090 C2085 1.363 . S
C2090 C2089 1.415 . S
C2091 H2067 0.951 . S
C2091 C2092 1.366 . S
C2091 C2093 1.388 . S
C2092 C2091 1.366 . S
C2092 C2096 1.385 . S
C2093 H2068 0.951 . S
C2093 C2091 1.388 . S
C2093 C2094 1.366 . S
C2094 C2093 1.366 . S
C2094 C2095 1.414 . S
C2094 C2097 1.499 . S
C2095 H2069 0.950 . S
C2095 C2094 1.414 . S
C2095 C2096 1.374 . S
C2096 H2070 0.950 . S
C2096 C2092 1.385 . S
C2096 C2095 1.374 . S
C2097 C2094 1.499 . S
C2097 C2098 1.373 . S
C2097 C2099 1.389 . S
C2098 H2071 0.950 . S
C2098 C2084 1.377 . S
C2098 C2097 1.373 . S
C2099 C2083 1.377 . S
C2099 C2097 1.389 . S
C2099 C2100 1.524 . S
C2100 C2099 1.524 . S
C2100 C2101 1.397 . S
C2100 C2105 1.363 . S
C2101 H2072 0.950 . S
C2101 C2100 1.397 . S
C2101 C2102 1.334 . S
C2102 H2073 0.950 1_556 S
C2102 C2101 1.334 . S
C2102 C2103 1.287 1_556 S
C2103 C2102 1.287 1_554 S
C2103 C2104 1.524 1_554 S
C2103 H2106 0.999 . S
C2104 H2074 0.950 . S
C2104 C2103 1.524 1_556 S
C2104 C2105 1.415 . S
C2105 H2075 0.950 . S
C2105 C2100 1.363 . S
C2105 C2104 1.415 . S
H2106 C2103 0.999 . S
H2107 C2088 0.913 . S
H2108 C2126 0.951 . S
H2109 C2128 0.951 . S
H2110 C2130 0.950 . S
H2111 C2131 0.950 . S
H2112 C2133 0.950 . S
H2113 C2136 0.950 . S
H2114 C2137 0.950 . S
H2115 C2139 0.950 . S
H2116 C2140 0.950 . S
H2117 C2141 0.951 . S
H2118 C2143 0.951 . S
H2119 C2145 0.950 . S
H2120 C2146 0.950 . S
H2121 C2148 0.950 . S
H2122 C2151 0.950 . S
H2123 C2152 0.950 . S
H2124 C2154 0.950 . S
H2125 C2155 0.950 . S
C2126 H2108 0.951 . S
C2126 C2127 1.366 . S
C2126 C2128 1.388 . S
C2127 C2126 1.366 . S
C2127 C2131 1.385 . S
C2128 H2109 0.951 . S
C2128 C2126 1.388 . S
C2128 C2129 1.366 . S
C2129 C2128 1.366 . S
C2129 C2130 1.414 . S
C2129 C2132 1.499 . S
C2130 H2110 0.950 . S
C2130 C2129 1.414 . S
C2130 C2131 1.374 . S
C2131 H2111 0.950 . S
C2131 C2127 1.385 . S
C2131 C2130 1.374 . S
C2132 C2129 1.499 . S
C2132 C2133 1.373 . S
C2132 C2134 1.389 . S
C2133 H2112 0.950 . S
C2133 C2132 1.373 . S
C2133 C2149 1.377 . S
C2134 C2132 1.389 . S
C2134 C2135 1.524 . S
C2134 C2148 1.377 . S
C2135 C2134 1.524 . S
C2135 C2136 1.397 . S
C2135 C2140 1.363 . S
C2136 H2113 0.950 . S
C2136 C2135 1.397 . S
C2136 C2137 1.334 . S
C2137 H2114 0.950 . S
C2137 C2136 1.334 . S
C2137 C2138 1.287 . S
C2138 C2137 1.287 . S
C2138 C2139 1.524 . S
C2138 H2157 0.913 . S
C2139 H2115 0.950 . S
C2139 C2138 1.524 . S
C2139 C2140 1.415 . S
C2140 H2116 0.950 . S
C2140 C2135 1.363 . S
C2140 C2139 1.415 . S
C2141 H2117 0.951 . S
C2141 C2142 1.366 . S
C2141 C2143 1.388 . S
C2142 C2141 1.366 . S
C2142 C2146 1.385 . S
C2143 H2118 0.951 . S
C2143 C2141 1.388 . S
C2143 C2144 1.366 . S
C2144 C2143 1.366 . S
C2144 C2145 1.414 . S
C2144 C2147 1.499 . S
C2145 H2119 0.950 . S
C2145 C2144 1.414 . S
C2145 C2146 1.374 . S
C2146 H2120 0.950 . S
C2146 C2142 1.385 . S
C2146 C2145 1.374 . S
C2147 C2144 1.499 . S
C2147 C2148 1.373 . S
C2147 C2149 1.389 . S
C2148 H2121 0.950 . S
C2148 C2134 1.377 . S
C2148 C2147 1.373 . S
C2149 C2133 1.377 . S
C2149 C2147 1.389 . S
C2149 C2150 1.524 . S
C2150 C2149 1.524 . S
C2150 C2151 1.397 . S
C2150 C2155 1.363 . S
C2151 H2122 0.950 . S
C2151 C2150 1.397 . S
C2151 C2152 1.334 . S
C2152 H2123 0.950 . S
C2152 C2151 1.334 . S
C2152 C2153 1.287 . S
C2153 C2152 1.287 . S
C2153 C2154 1.524 . S
C2153 H2156 0.999 . S
C2154 H2124 0.950 . S
C2154 C2153 1.524 . S
C2154 C2155 1.415 . S
C2155 H2125 0.950 . S
C2155 C2150 1.363 . S
C2155 C2154 1.415 . S
H2156 C2153 0.999 . S
H2157 C2138 0.913 . S
H2158 C2176 0.951 . S
H2159 C2178 0.951 . S
H2160 C2180 0.950 . S
H2161 C2181 0.950 . S
H2162 C2183 0.950 . S
H2163 C2186 0.950 . S
H2164 C2187 0.950 . S
H2165 C2189 0.950 . S
H2166 C2190 0.950 . S
H2167 C2191 0.951 . S
H2168 C2193 0.951 . S
H2169 C2195 0.950 . S
H2170 C2196 0.950 . S
H2171 C2198 0.950 . S
H2172 C2201 0.950 . S
H2173 C2202 0.950 . S
H2174 C2204 0.950 . S
H2175 C2205 0.950 . S
C2176 H2158 0.951 . S
C2176 C2177 1.366 . S
C2176 C2178 1.388 . S
C2177 C2176 1.366 . S
C2177 C2181 1.385 . S
C2178 H2159 0.951 . S
C2178 C2176 1.388 . S
C2178 C2179 1.366 . S
C2179 C2178 1.366 . S
C2179 C2180 1.414 . S
C2179 C2182 1.499 . S
C2180 H2160 0.950 . S
C2180 C2179 1.414 . S
C2180 C2181 1.374 . S
C2181 H2161 0.950 . S
C2181 C2177 1.385 . S
C2181 C2180 1.374 . S
C2182 C2179 1.499 . S
C2182 C2183 1.373 . S
C2182 C2184 1.389 . S
C2183 H2162 0.950 . S
C2183 C2182 1.373 . S
C2183 C2199 1.377 . S
C2184 C2182 1.389 . S
C2184 C2185 1.524 . S
C2184 C2198 1.377 . S
C2185 C2184 1.524 . S
C2185 C2186 1.397 . S
C2185 C2190 1.363 . S
C2186 H2163 0.950 . S
C2186 C2185 1.397 . S
C2186 C2187 1.334 . S
C2187 H2164 0.950 . S
C2187 C2186 1.334 . S
C2187 C2188 1.287 . S
C2188 C2187 1.287 . S
C2188 C2189 1.524 . S
C2188 H2207 0.913 . S
C2189 H2165 0.950 . S
C2189 C2188 1.524 . S
C2189 C2190 1.415 . S
C2190 H2166 0.950 . S
C2190 C2185 1.363 . S
C2190 C2189 1.415 . S
C2191 H2167 0.951 . S
C2191 C2192 1.366 . S
C2191 C2193 1.388 . S
C2192 C2191 1.366 . S
C2192 C2196 1.385 . S
C2193 H2168 0.951 . S
C2193 C2191 1.388 . S
C2193 C2194 1.366 . S
C2194 C2193 1.366 . S
C2194 C2195 1.414 . S
C2194 C2197 1.499 . S
C2195 H2169 0.950 . S
C2195 C2194 1.414 . S
C2195 C2196 1.374 . S
C2196 H2170 0.950 . S
C2196 C2192 1.385 . S
C2196 C2195 1.374 . S
C2197 C2194 1.499 . S
C2197 C2198 1.373 . S
C2197 C2199 1.389 . S
C2198 H2171 0.950 . S
C2198 C2184 1.377 . S
C2198 C2197 1.373 . S
C2199 C2183 1.377 . S
C2199 C2197 1.389 . S
C2199 C2200 1.524 . S
C2200 C2199 1.524 . S
C2200 C2201 1.397 . S
C2200 C2205 1.363 . S
C2201 H2172 0.950 . S
C2201 C2200 1.397 . S
C2201 C2202 1.334 . S
C2202 H2173 0.950 . S
C2202 C2201 1.334 . S
C2202 C2203 1.287 . S
C2203 C2202 1.287 . S
C2203 C2204 1.524 . S
C2203 H2206 0.999 . S
C2204 H2174 0.950 . S
C2204 C2203 1.524 . S
C2204 C2205 1.415 . S
C2205 H2175 0.950 . S
C2205 C2200 1.363 . S
C2205 C2204 1.415 . S
H2206 C2203 0.999 . S
H2207 C2188 0.913 . S
C642 C213 1.509 . S
C627 C16 1.507 . S
C692 C266 1.326 . S
C677 C30 1.327 . S
C742 C329 1.593 . S
C727 C53 1.593 . S
C792 C372 1.318 . S
C777 C76 1.319 . S
C827 N104 1.462 . S
C842 C328 1.504 . S
C892 C365 1.315 . S
C877 N127 1.276 . S
C942 C206 1.425 . S
C927 N140 1.388 . S
C992 C259 1.177 . S
C977 N173 1.150 . S
C1042 C312 1.511 . S
C1027 C168 1.512 . S
C1092 C381 1.860 . S
C1077 C99 1.858 . S
C1142 C222 1.595 . S
C1127 C122 1.594 . S
C1192 C275 1.742 . S
C1177 C154 1.734 . S
C1242 C223 1.512 . S
C1227 N35 1.477 . S
C1292 C276 1.736 . S
C1277 N58 1.694 . S
C1342 C319 1.438 . S
C1327 N81 1.406 . S
C1392 C382 1.691 . S
C1377 N2 1.657 . S
C1442 C425 1.465 . S
C1427 C177 1.468 . S
C1477 C108 1.717 . S
C1492 C478 1.718 . S
C1527 C131 1.618 . S
C1542 C540 1.620 . S
C1577 C145 1.730 . S
C1592 C594 1.729 . S
C1627 N25 1.438 . S
C1642 C541 1.476 . S
C1677 N48 1.678 . S
C1692 C593 1.722 . S
C1727 N71 1.426 . S
C1742 C418 1.461 . S
C1792 C471 1.566 . S
C1777 N12 1.527 . S
C1842 C531 1.481 . S
C1827 C7 1.481 . S
C1877 C39 1.382 . S
C1892 C577 1.389 . S
C1927 C62 1.622 . S
C1942 C434 1.627 . S
C1977 C85 1.332 . S
C1992 C487 1.336 . S
C2042 C435 1.476 . S
C2027 N94 1.444 . S
C2092 C488 1.358 . S
C2077 N117 1.325 . S
C2127 N150 1.432 . S
C2142 C524 1.466 . S
C2192 C584 1.246 . S
C2177 N163 1.217 . S
