# Generated by pormake.
# Topology gar, (4,6)-cn, num edge types: 1
# Building blocks:
#     Node 0, Type 0, BuildingBlock: CEKHIL_clean_sbu_0, # of connection points: 4
#     Node 1, Type 0, BuildingBlock: CEKHIL_clean_sbu_0, # of connection points: 4
#     Node 2, Type 0, BuildingBlock: CEKHIL_clean_sbu_0, # of connection points: 4
#     Node 3, Type 0, BuildingBlock: CEKHIL_clean_sbu_0, # of connection points: 4
#     Node 4, Type 0, BuildingBlock: CEKHIL_clean_sbu_0, # of connection points: 4
#     Node 5, Type 0, BuildingBlock: CEKHIL_clean_sbu_0, # of connection points: 4
#     Node 6, Type 0, BuildingBlock: CEKHIL_clean_sbu_0, # of connection points: 4
#     Node 7, Type 0, BuildingBlock: CEKHIL_clean_sbu_0, # of connection points: 4
#     Node 8, Type 0, BuildingBlock: CEKHIL_clean_sbu_0, # of connection points: 4
#     Node 9, Type 0, BuildingBlock: CEKHIL_clean_sbu_0, # of connection points: 4
#     Node 10, Type 0, BuildingBlock: CEKHIL_clean_sbu_0, # of connection points: 4
#     Node 11, Type 0, BuildingBlock: CEKHIL_clean_sbu_0, # of connection points: 4
#     Node 12, Type 0, BuildingBlock: CEKHIL_clean_sbu_0, # of connection points: 4
#     Node 13, Type 0, BuildingBlock: CEKHIL_clean_sbu_0, # of connection points: 4
#     Node 14, Type 0, BuildingBlock: CEKHIL_clean_sbu_0, # of connection points: 4
#     Node 15, Type 0, BuildingBlock: CEKHIL_clean_sbu_0, # of connection points: 4
#     Node 16, Type 0, BuildingBlock: CEKHIL_clean_sbu_0, # of connection points: 4
#     Node 17, Type 0, BuildingBlock: CEKHIL_clean_sbu_0, # of connection points: 4
#     Node 18, Type 0, BuildingBlock: CEKHIL_clean_sbu_0, # of connection points: 4
#     Node 19, Type 0, BuildingBlock: CEKHIL_clean_sbu_0, # of connection points: 4
#     Node 20, Type 0, BuildingBlock: CEKHIL_clean_sbu_0, # of connection points: 4
#     Node 21, Type 0, BuildingBlock: CEKHIL_clean_sbu_0, # of connection points: 4
#     Node 22, Type 0, BuildingBlock: CEKHIL_clean_sbu_0, # of connection points: 4
#     Node 23, Type 0, BuildingBlock: CEKHIL_clean_sbu_0, # of connection points: 4
#     Node 24, Type 1, BuildingBlock: PAMTUU_clean_sbu_0, # of connection points: 6
#     Node 25, Type 1, BuildingBlock: PAMTUU_clean_sbu_0, # of connection points: 6
#     Node 26, Type 1, BuildingBlock: PAMTUU_clean_sbu_0, # of connection points: 6
#     Node 27, Type 1, BuildingBlock: PAMTUU_clean_sbu_0, # of connection points: 6
#     Node 28, Type 1, BuildingBlock: PAMTUU_clean_sbu_0, # of connection points: 6
#     Node 29, Type 1, BuildingBlock: PAMTUU_clean_sbu_0, # of connection points: 6
#     Node 30, Type 1, BuildingBlock: PAMTUU_clean_sbu_0, # of connection points: 6
#     Node 31, Type 1, BuildingBlock: PAMTUU_clean_sbu_0, # of connection points: 6
#     Node 32, Type 1, BuildingBlock: PAMTUU_clean_sbu_0, # of connection points: 6
#     Node 33, Type 1, BuildingBlock: PAMTUU_clean_sbu_0, # of connection points: 6
#     Node 34, Type 1, BuildingBlock: PAMTUU_clean_sbu_0, # of connection points: 6
#     Node 35, Type 1, BuildingBlock: PAMTUU_clean_sbu_0, # of connection points: 6
#     Node 36, Type 1, BuildingBlock: PAMTUU_clean_sbu_0, # of connection points: 6
#     Node 37, Type 1, BuildingBlock: PAMTUU_clean_sbu_0, # of connection points: 6
#     Node 38, Type 1, BuildingBlock: PAMTUU_clean_sbu_0, # of connection points: 6
#     Node 39, Type 1, BuildingBlock: PAMTUU_clean_sbu_0, # of connection points: 6
#     Edge 40, Type (0, 1), BuildingBlock: XIVTED_clean_linker_0, # of connection points: 2
#     Edge 41, Type (0, 1), BuildingBlock: XIVTED_clean_linker_0, # of connection points: 2
#     Edge 42, Type (0, 1), BuildingBlock: XIVTED_clean_linker_0, # of connection points: 2
#     Edge 43, Type (0, 1), BuildingBlock: XIVTED_clean_linker_0, # of connection points: 2
#     Edge 44, Type (0, 1), BuildingBlock: XIVTED_clean_linker_0, # of connection points: 2
#     Edge 45, Type (0, 1), BuildingBlock: XIVTED_clean_linker_0, # of connection points: 2
#     Edge 46, Type (0, 1), BuildingBlock: XIVTED_clean_linker_0, # of connection points: 2
#     Edge 47, Type (0, 1), BuildingBlock: XIVTED_clean_linker_0, # of connection points: 2
#     Edge 48, Type (0, 1), BuildingBlock: XIVTED_clean_linker_0, # of connection points: 2
#     Edge 49, Type (0, 1), BuildingBlock: XIVTED_clean_linker_0, # of connection points: 2
#     Edge 50, Type (0, 1), BuildingBlock: XIVTED_clean_linker_0, # of connection points: 2
#     Edge 51, Type (0, 1), BuildingBlock: XIVTED_clean_linker_0, # of connection points: 2
#     Edge 52, Type (0, 1), BuildingBlock: XIVTED_clean_linker_0, # of connection points: 2
#     Edge 53, Type (0, 1), BuildingBlock: XIVTED_clean_linker_0, # of connection points: 2
#     Edge 54, Type (0, 1), BuildingBlock: XIVTED_clean_linker_0, # of connection points: 2
#     Edge 55, Type (0, 1), BuildingBlock: XIVTED_clean_linker_0, # of connection points: 2
#     Edge 56, Type (0, 1), BuildingBlock: XIVTED_clean_linker_0, # of connection points: 2
#     Edge 57, Type (0, 1), BuildingBlock: XIVTED_clean_linker_0, # of connection points: 2
#     Edge 58, Type (0, 1), BuildingBlock: XIVTED_clean_linker_0, # of connection points: 2
#     Edge 59, Type (0, 1), BuildingBlock: XIVTED_clean_linker_0, # of connection points: 2
#     Edge 60, Type (0, 1), BuildingBlock: XIVTED_clean_linker_0, # of connection points: 2
#     Edge 61, Type (0, 1), BuildingBlock: XIVTED_clean_linker_0, # of connection points: 2
#     Edge 62, Type (0, 1), BuildingBlock: XIVTED_clean_linker_0, # of connection points: 2
#     Edge 63, Type (0, 1), BuildingBlock: XIVTED_clean_linker_0, # of connection points: 2
#     Edge 64, Type (0, 1), BuildingBlock: XIVTED_clean_linker_0, # of connection points: 2
#     Edge 65, Type (0, 1), BuildingBlock: XIVTED_clean_linker_0, # of connection points: 2
#     Edge 66, Type (0, 1), BuildingBlock: XIVTED_clean_linker_0, # of connection points: 2
#     Edge 67, Type (0, 1), BuildingBlock: XIVTED_clean_linker_0, # of connection points: 2
#     Edge 68, Type (0, 1), BuildingBlock: XIVTED_clean_linker_0, # of connection points: 2
#     Edge 69, Type (0, 1), BuildingBlock: XIVTED_clean_linker_0, # of connection points: 2
#     Edge 70, Type (0, 1), BuildingBlock: XIVTED_clean_linker_0, # of connection points: 2
#     Edge 71, Type (0, 1), BuildingBlock: XIVTED_clean_linker_0, # of connection points: 2
#     Edge 72, Type (0, 1), BuildingBlock: XIVTED_clean_linker_0, # of connection points: 2
#     Edge 73, Type (0, 1), BuildingBlock: XIVTED_clean_linker_0, # of connection points: 2
#     Edge 74, Type (0, 1), BuildingBlock: XIVTED_clean_linker_0, # of connection points: 2
#     Edge 75, Type (0, 1), BuildingBlock: XIVTED_clean_linker_0, # of connection points: 2
#     Edge 76, Type (0, 1), BuildingBlock: XIVTED_clean_linker_0, # of connection points: 2
#     Edge 77, Type (0, 1), BuildingBlock: XIVTED_clean_linker_0, # of connection points: 2
#     Edge 78, Type (0, 1), BuildingBlock: XIVTED_clean_linker_0, # of connection points: 2
#     Edge 79, Type (0, 1), BuildingBlock: XIVTED_clean_linker_0, # of connection points: 2
#     Edge 80, Type (0, 1), BuildingBlock: XIVTED_clean_linker_0, # of connection points: 2
#     Edge 81, Type (0, 1), BuildingBlock: XIVTED_clean_linker_0, # of connection points: 2
#     Edge 82, Type (0, 1), BuildingBlock: XIVTED_clean_linker_0, # of connection points: 2
#     Edge 83, Type (0, 1), BuildingBlock: XIVTED_clean_linker_0, # of connection points: 2
#     Edge 84, Type (0, 1), BuildingBlock: XIVTED_clean_linker_0, # of connection points: 2
#     Edge 85, Type (0, 1), BuildingBlock: XIVTED_clean_linker_0, # of connection points: 2
#     Edge 86, Type (0, 1), BuildingBlock: XIVTED_clean_linker_0, # of connection points: 2
#     Edge 87, Type (0, 1), BuildingBlock: XIVTED_clean_linker_0, # of connection points: 2
#     Edge 88, Type (0, 1), BuildingBlock: XIVTED_clean_linker_0, # of connection points: 2
#     Edge 89, Type (0, 1), BuildingBlock: XIVTED_clean_linker_0, # of connection points: 2
#     Edge 90, Type (0, 1), BuildingBlock: XIVTED_clean_linker_0, # of connection points: 2
#     Edge 91, Type (0, 1), BuildingBlock: XIVTED_clean_linker_0, # of connection points: 2
#     Edge 92, Type (0, 1), BuildingBlock: XIVTED_clean_linker_0, # of connection points: 2
#     Edge 93, Type (0, 1), BuildingBlock: XIVTED_clean_linker_0, # of connection points: 2
#     Edge 94, Type (0, 1), BuildingBlock: XIVTED_clean_linker_0, # of connection points: 2
#     Edge 95, Type (0, 1), BuildingBlock: XIVTED_clean_linker_0, # of connection points: 2
#     Edge 96, Type (0, 1), BuildingBlock: XIVTED_clean_linker_0, # of connection points: 2
#     Edge 97, Type (0, 1), BuildingBlock: XIVTED_clean_linker_0, # of connection points: 2
#     Edge 98, Type (0, 1), BuildingBlock: XIVTED_clean_linker_0, # of connection points: 2
#     Edge 99, Type (0, 1), BuildingBlock: XIVTED_clean_linker_0, # of connection points: 2
#     Edge 100, Type (0, 1), BuildingBlock: XIVTED_clean_linker_0, # of connection points: 2
#     Edge 101, Type (0, 1), BuildingBlock: XIVTED_clean_linker_0, # of connection points: 2
#     Edge 102, Type (0, 1), BuildingBlock: XIVTED_clean_linker_0, # of connection points: 2
#     Edge 103, Type (0, 1), BuildingBlock: XIVTED_clean_linker_0, # of connection points: 2
#     Edge 104, Type (0, 1), BuildingBlock: XIVTED_clean_linker_0, # of connection points: 2
#     Edge 105, Type (0, 1), BuildingBlock: XIVTED_clean_linker_0, # of connection points: 2
#     Edge 106, Type (0, 1), BuildingBlock: XIVTED_clean_linker_0, # of connection points: 2
#     Edge 107, Type (0, 1), BuildingBlock: XIVTED_clean_linker_0, # of connection points: 2
#     Edge 108, Type (0, 1), BuildingBlock: XIVTED_clean_linker_0, # of connection points: 2
#     Edge 109, Type (0, 1), BuildingBlock: XIVTED_clean_linker_0, # of connection points: 2
#     Edge 110, Type (0, 1), BuildingBlock: XIVTED_clean_linker_0, # of connection points: 2
#     Edge 111, Type (0, 1), BuildingBlock: XIVTED_clean_linker_0, # of connection points: 2
#     Edge 112, Type (0, 1), BuildingBlock: XIVTED_clean_linker_0, # of connection points: 2
#     Edge 113, Type (0, 1), BuildingBlock: XIVTED_clean_linker_0, # of connection points: 2
#     Edge 114, Type (0, 1), BuildingBlock: XIVTED_clean_linker_0, # of connection points: 2
#     Edge 115, Type (0, 1), BuildingBlock: XIVTED_clean_linker_0, # of connection points: 2
#     Edge 116, Type (0, 1), BuildingBlock: XIVTED_clean_linker_0, # of connection points: 2
#     Edge 117, Type (0, 1), BuildingBlock: XIVTED_clean_linker_0, # of connection points: 2
#     Edge 118, Type (0, 1), BuildingBlock: XIVTED_clean_linker_0, # of connection points: 2
#     Edge 119, Type (0, 1), BuildingBlock: XIVTED_clean_linker_0, # of connection points: 2
#     Edge 120, Type (0, 1), BuildingBlock: XIVTED_clean_linker_0, # of connection points: 2
#     Edge 121, Type (0, 1), BuildingBlock: XIVTED_clean_linker_0, # of connection points: 2
#     Edge 122, Type (0, 1), BuildingBlock: XIVTED_clean_linker_0, # of connection points: 2
#     Edge 123, Type (0, 1), BuildingBlock: XIVTED_clean_linker_0, # of connection points: 2
#     Edge 124, Type (0, 1), BuildingBlock: XIVTED_clean_linker_0, # of connection points: 2
#     Edge 125, Type (0, 1), BuildingBlock: XIVTED_clean_linker_0, # of connection points: 2
#     Edge 126, Type (0, 1), BuildingBlock: XIVTED_clean_linker_0, # of connection points: 2
#     Edge 127, Type (0, 1), BuildingBlock: XIVTED_clean_linker_0, # of connection points: 2
#     Edge 128, Type (0, 1), BuildingBlock: XIVTED_clean_linker_0, # of connection points: 2
#     Edge 129, Type (0, 1), BuildingBlock: XIVTED_clean_linker_0, # of connection points: 2
#     Edge 130, Type (0, 1), BuildingBlock: XIVTED_clean_linker_0, # of connection points: 2
#     Edge 131, Type (0, 1), BuildingBlock: XIVTED_clean_linker_0, # of connection points: 2
#     Edge 132, Type (0, 1), BuildingBlock: XIVTED_clean_linker_0, # of connection points: 2
#     Edge 133, Type (0, 1), BuildingBlock: XIVTED_clean_linker_0, # of connection points: 2
#     Edge 134, Type (0, 1), BuildingBlock: XIVTED_clean_linker_0, # of connection points: 2
#     Edge 135, Type (0, 1), BuildingBlock: XIVTED_clean_linker_0, # of connection points: 2
# Relax obj value: 0.176
# Max RMSD: 0.333
# Mean RMSD: 0.160
data_MOF--net-gar--node1-CEKHIL_clean_sbu_0--node2-PAMTUU_clean_sbu_0--edge1-XIVTED_clean_linker_0
_symmetry_space_group_name_H-M    P1
_symmetry_Int_Tables_number       1
_symmetry_cell_setting            triclinic
loop_
_symmetry_equiv_pos_as_xyz
'x, y, z'
_cell_length_a     59.593274
_cell_length_b     55.494804
_cell_length_c     58.350585
_cell_angle_alpha  93.355778
_cell_angle_beta   93.919241
_cell_angle_gamma 106.5209
loop_
_atom_site_label
_atom_site_type_symbol
_atom_site_fract_x
_atom_site_fract_y
_atom_site_fract_z
_atom_type_partial_charge
Co0 Co 0.07407 0.29452 0.39752 0.0
O1 O 0.10963 0.30069 0.4016 0.0
O2 O 0.0897 0.28553 0.36948 0.0
C3 C 0.0735 0.33422 0.41581 0.0
O4 O 0.03768 0.28848 0.38299 0.0
Co5 Co 0.04063 0.29205 0.4348 0.0
O6 O 1.01552 0.29407 0.4113 0.0
C7 C 0.06041 0.24872 0.42985 0.0
C8 C 0.11063 0.29299 0.38031 0.0
C9 C 1.01757 0.29084 0.38984 0.0
O10 O 0.06869 0.2577 0.4106 0.0
O11 O 0.05005 0.26117 0.4424 0.0
O12 O 0.07898 0.33187 0.39473 0.0
O13 O 0.07012 0.31328 0.42551 0.0
Co14 Co 0.05431 0.80458 0.67254 0.0
O15 O 1.01918 0.80141 0.669 0.0
O16 O 0.03549 0.79336 0.70013 0.0
C17 C 0.06407 0.84542 0.65626 0.0
O18 O 0.09007 0.80685 0.6869 0.0
Co19 Co 0.08894 0.81226 0.63676 0.0
O20 O 0.11577 0.8176 0.66043 0.0
C21 C 0.05825 0.75969 0.63824 0.0
C22 C 1.01611 0.79558 0.69003 0.0
C23 C 0.11191 0.81229 0.68097 0.0
O24 O 0.04982 0.76708 0.65697 0.0
O25 O 0.07268 0.77573 0.62739 0.0
O26 O 0.06005 0.84262 0.67773 0.0
O27 O 0.06266 0.82401 0.6454 0.0
Co28 Co 0.57741 0.79652 0.89622 0.0
O29 O 0.61303 0.8028 0.90022 0.0
O30 O 0.59302 0.7873 0.86823 0.0
C31 C 0.57636 0.83634 0.91411 0.0
O32 O 0.5411 0.79015 0.88164 0.0
Co33 Co 0.54383 0.79376 0.93323 0.0
O34 O 0.51853 0.79539 0.9097 0.0
C35 C 0.56367 0.75051 0.92841 0.0
C36 C 0.61398 0.79479 0.87899 0.0
C37 C 0.52087 0.79233 0.88831 0.0
O38 O 0.57218 0.75978 0.90937 0.0
O39 O 0.55304 0.76271 0.94091 0.0
O40 O 0.58194 0.83374 0.8931 0.0
O41 O 0.57326 0.81557 0.92412 0.0
Co42 Co 0.5515 0.30486 0.17128 0.0
O43 O 0.51648 0.30235 0.16729 0.0
O44 O 0.53219 0.29464 0.19885 0.0
C45 C 0.56208 0.34538 0.15433 0.0
O46 O 0.58692 0.30675 0.18614 0.0
Co47 Co 0.58659 0.31108 0.13606 0.0
O48 O 0.61322 0.31697 0.16012 0.0
C49 C 0.55556 0.25883 0.13821 0.0
C50 C 0.51307 0.29712 0.18842 0.0
C51 C 0.60889 0.31192 0.18062 0.0
O52 O 0.54676 0.26693 0.15642 0.0
O53 O 0.57036 0.27436 0.12725 0.0
O54 O 0.55776 0.34305 0.17578 0.0
O55 O 0.56049 0.32369 0.14387 0.0
Co56 Co 0.11146 0.83168 0.15138 0.0
O57 O 0.0776 0.82219 0.14588 0.0
O58 O 0.09722 0.81628 0.17762 0.0
C59 C 0.1168 0.87088 0.13884 0.0
O60 O 0.1455 0.83954 0.16504 0.0
Co61 Co 0.14507 0.84333 0.11443 0.0
O62 O 0.17134 0.85217 0.13907 0.0
C63 C 0.1198 0.79025 0.11911 0.0
C64 C 0.0771 0.81429 0.16642 0.0
C65 C 0.16676 0.84749 0.15959 0.0
O66 O 0.11178 0.79754 0.13736 0.0
O67 O 0.13236 0.80583 0.10642 0.0
O68 O 0.11185 0.86618 0.15975 0.0
O69 O 0.11773 0.85162 0.12558 0.0
Co70 Co 0.53412 0.79108 0.4472 0.0
O71 O 0.56802 0.79917 0.44805 0.0
O72 O 0.54318 0.78141 0.41776 0.0
C73 C 0.53324 0.82839 0.46437 0.0
O74 O 0.49876 0.7814 0.4381 0.0
Co75 Co 0.50628 0.78763 0.48964 0.0
O76 O 0.47984 0.78981 0.468 0.0
C77 C 0.52747 0.74704 0.47759 0.0
C78 C 0.5648 0.79017 0.4266 0.0
C79 C 0.48028 0.78452 0.44655 0.0
O80 O 0.53279 0.75678 0.45844 0.0
O81 O 0.51787 0.75721 0.49292 0.0
O82 O 0.53568 0.82601 0.44246 0.0
O83 O 0.53287 0.8088 0.47552 0.0
Co84 Co 0.61437 0.3274 0.65127 0.0
O85 O 0.58051 0.31875 0.64708 0.0
O86 O 0.60101 0.31417 0.67876 0.0
C87 C 0.62019 0.36562 0.63663 0.0
O88 O 0.6489 0.33511 0.66342 0.0
Co89 Co 0.646 0.33586 0.61204 0.0
O90 O 0.67305 0.34696 0.63581 0.0
C91 C 0.61985 0.28373 0.61994 0.0
C92 C 0.58062 0.31212 0.66806 0.0
C93 C 0.66968 0.34321 0.65677 0.0
O94 O 0.61321 0.29221 0.63853 0.0
O95 O 0.63181 0.29831 0.60612 0.0
O96 O 0.61612 0.36273 0.65802 0.0
O97 O 0.61977 0.34523 0.62434 0.0
Co98 Co 0.03697 0.29666 0.94796 0.0
O99 O 0.07087 0.30342 0.94995 0.0
O100 O 0.04661 0.28677 0.91899 0.0
C101 C 0.03699 0.33434 0.96528 0.0
O102 O 1.00216 0.28827 0.93731 0.0
Co103 Co 1.0069 0.29388 0.98852 0.0
O104 O 0.98073 0.29472 0.96575 0.0
C105 C 1.02885 0.25331 0.97865 0.0
C106 C 0.06803 0.29462 0.92844 0.0
C107 C 0.98276 0.29014 0.94449 0.0
O108 O 0.0337 0.26189 0.95896 0.0
O109 O 1.01982 0.26461 0.99366 0.0
O110 O 0.04012 0.33206 0.94352 0.0
O111 O 0.03514 0.31432 0.97621 0.0
Co112 Co 0.46841 0.07633 0.33319 0.0
O113 O 0.46649 0.10778 0.32204 0.0
O114 O 0.43879 0.07096 0.3161 0.0
C115 C 0.48354 0.09122 0.36904 0.0
O116 O 0.46243 0.04047 0.34161 0.0
Co117 Co 0.5142 0.0646 0.35013 0.0
O118 O 0.49438 0.02993 0.3545 0.0
C119 C 0.50487 0.07376 0.30184 0.0
C120 C 0.44585 0.09467 0.31255 0.0
C121 C 0.47233 0.02452 0.34924 0.0
O122 O 0.48292 0.06924 0.30466 0.0
O123 O 0.52054 0.07564 0.3185 0.0
O124 O 0.46098 0.08613 0.36381 0.0
O125 O 0.49598 0.08868 0.35236 0.0
Co126 Co 0.31989 0.21426 0.53105 0.0
O127 O 0.35376 0.22048 0.53531 0.0
O128 O 0.32718 0.18595 0.54358 0.0
C129 C 0.31855 0.22716 0.49442 0.0
O130 O 0.28456 0.19852 0.52851 0.0
Co131 Co 0.29441 0.25354 0.5255 0.0
O132 O 0.26434 0.22597 0.52174 0.0
C133 C 0.31262 0.24765 0.5724 0.0
C134 C 0.34914 0.19817 0.54299 0.0
C135 C 0.26506 0.20369 0.52481 0.0
O136 O 0.31949 0.22932 0.56376 0.0
O137 O 0.30327 0.2609 0.55972 0.0
O138 O 0.31995 0.20482 0.49835 0.0
O139 O 0.31959 0.24205 0.5128 0.0
Co140 Co 0.20117 0.04898 0.84623 0.0
O141 O 0.20095 1.01737 0.83044 0.0
O142 O 0.22922 0.05349 0.83068 0.0
C143 C 0.18989 0.03375 0.87974 0.0
O144 O 0.20874 0.08484 0.86012 0.0
Co145 Co 0.15758 0.06069 0.86504 0.0
O146 O 0.17883 0.09467 0.87578 0.0
C147 C 0.16398 0.06154 0.81512 0.0
C148 C 0.22117 0.02971 0.82381 0.0
C149 C 0.20003 0.10053 0.87068 0.0
O150 O 0.18427 0.05779 0.81835 0.0
O151 O 0.1503 0.06142 0.83113 0.0
O152 O 0.21184 0.03875 0.87556 0.0
O153 O 0.17552 0.03651 0.86327 0.0
Co154 Co 0.29998 0.93339 1.00165 0.0
O155 O 0.27163 0.93732 0.01329 0.0
O156 O 0.30701 0.96503 0.01973 0.0
C157 C 0.2851 0.92001 0.96521 0.0
O158 O 0.33281 0.93726 0.9925 0.0
Co159 Co 0.30535 0.88234 0.98195 0.0
O160 O 0.3373 0.90202 0.97503 0.0
C161 C 0.3052 0.89268 0.03217 0.0
C162 C 0.28479 0.95896 0.02283 0.0
C163 C 0.34523 0.92522 0.98226 0.0
O164 O 0.30633 0.91587 0.02962 0.0
O165 O 0.30241 0.87606 0.01523 0.0
O166 O 0.29159 0.944 0.97164 0.0
O167 O 0.28599 0.90515 0.98121 0.0
Co168 Co 0.32092 0.38415 0.03945 0.0
O169 O 0.28756 0.38076 0.03738 0.0
O170 O 0.31566 0.41477 0.05183 0.0
C171 C 0.32206 0.36815 1.00289 0.0
O172 O 0.35654 0.3967 0.0432 0.0
Co173 Co 0.34237 0.34068 0.03611 0.0
O174 O 0.3708 0.36683 0.02805 0.0
C175 C 0.3226 0.35079 0.07946 0.0
C176 C 0.29343 0.40392 0.04644 0.0
C177 C 0.37326 0.38976 0.03475 0.0
O178 O 0.31943 0.37081 0.07132 0.0
O179 O 0.33028 0.3352 0.06752 0.0
O180 O 0.32216 0.39139 1.0072 0.0
O181 O 0.31933 0.3545 0.0204 0.0
Co182 Co 0.82475 0.15873 0.06218 0.0
O183 O 0.85641 0.15654 0.06252 0.0
O184 O 0.82501 0.12478 0.06707 0.0
C185 C 0.82487 0.18012 0.03064 0.0
O186 O 0.7896 0.15319 0.06172 0.0
Co187 Co 0.81395 0.21041 0.06783 0.0
O188 O 0.7806 0.18992 0.06135 0.0
C189 C 0.83495 0.19088 0.10705 0.0
C190 C 0.84753 0.13281 0.06555 0.0
C191 C 0.77465 0.16591 0.06038 0.0
O192 O 0.82942 0.16872 0.09643 0.0
O193 O 0.83299 0.21042 0.09745 0.0
O194 O 0.82143 0.15586 0.02845 0.0
O195 O 0.83057 0.19065 0.05131 0.0
Co196 Co 0.22251 0.52967 0.26982 0.0
O197 O 0.22836 0.49825 0.26059 0.0
O198 O 0.24644 0.53554 0.24871 0.0
C199 C 0.22247 0.52507 0.30774 0.0
O200 O 0.22306 0.56605 0.27563 0.0
Co201 Co 0.17891 0.53466 0.29346 0.0
O202 O 0.19653 0.57111 0.29943 0.0
C203 C 0.1746 0.51877 0.24373 0.0
C204 C 0.24417 0.51157 0.24841 0.0
C205 C 0.21422 0.58012 0.2882 0.0
O206 O 0.19708 0.52377 0.24395 0.0
O207 O 0.16399 0.52002 0.26193 0.0
O208 O 0.24231 0.53313 0.29865 0.0
O209 O 0.20378 0.51835 0.2936 0.0
Co210 Co 0.818 0.88373 0.54156 0.0
O211 O 0.78442 0.87868 0.54123 0.0
O212 O 0.81197 0.91352 0.55481 0.0
C213 C 0.81807 0.86861 0.50439 0.0
O214 O 0.85353 0.89792 0.54356 0.0
Co215 Co 0.84125 0.84183 0.53641 0.0
O216 O 0.86872 0.86893 0.5281 0.0
C217 C 0.82315 0.85072 0.58104 0.0
C218 C 0.78979 0.90182 0.55028 0.0
C219 C 0.8705 0.89167 0.53485 0.0
O220 O 0.81882 0.87039 0.57334 0.0
O221 O 0.83087 0.83568 0.5684 0.0
O222 O 0.81694 0.89127 0.50947 0.0
O223 O 0.81698 0.85465 0.52168 0.0
Co224 Co 0.94407 0.06212 0.25317 0.0
O225 O 0.94435 0.09609 0.26209 0.0
O226 O 0.91408 0.06647 0.24389 0.0
C227 C 0.9604 0.05452 0.28673 0.0
O228 O 0.93617 0.02501 0.24264 0.0
Co229 Co 0.98957 0.04532 0.25184 0.0
O230 O 0.9673 1.01092 0.25105 0.0
C231 C 0.97786 0.07776 0.21744 0.0
C232 C 0.92248 0.08921 0.25372 0.0
C233 C 0.94545 1.007 0.24534 0.0
O234 O 0.95657 0.07258 0.22292 0.0
O235 O 0.99401 0.07099 0.22858 0.0
O236 O 0.93813 0.05276 0.28445 0.0
O237 O 0.97216 0.06304 0.26972 0.0
Co238 Co 0.31787 0.65996 0.56495 0.0
O239 O 0.34907 0.66203 0.55698 0.0
O240 O 0.32391 0.62805 0.56839 0.0
C241 C 0.30698 0.67838 0.53456 0.0
O242 O 0.28424 0.65002 0.57322 0.0
Co243 Co 0.30179 0.70793 0.57529 0.0
O244 O 0.27009 0.6835 0.57527 0.0
C245 C 0.33497 0.6944 0.60817 0.0
C246 C 0.3443 0.63843 0.56113 0.0
C247 C 0.26735 0.65986 0.57539 0.0
O248 O 0.33 0.67209 0.59799 0.0
O249 O 0.32793 0.71218 0.60004 0.0
O250 O 0.30622 0.65471 0.53234 0.0
O251 O 0.31641 0.6904 0.55402 0.0
Co252 Co 0.44779 0.55675 0.75452 0.0
O253 O 0.44682 0.58998 0.76471 0.0
O254 O 0.4182 0.56098 0.74362 0.0
C255 C 0.46184 0.54696 0.78823 0.0
O256 O 0.44117 0.52038 0.74216 0.0
Co257 Co 0.49405 0.5414 0.75481 0.0
O258 O 0.47213 0.5066 0.7521 0.0
C259 C 0.48369 0.57467 0.72069 0.0
C260 C 0.42553 0.58316 0.75471 0.0
C261 C 0.45055 0.5025 0.74508 0.0
O262 O 0.46223 0.56937 0.72568 0.0
O263 O 0.49954 0.56761 0.73202 0.0
O264 O 0.43963 0.5451 0.78462 0.0
O265 O 0.47491 0.55707 0.77256 0.0
Co266 Co 0.68808 0.05701 0.77576 0.0
O267 O 0.68791 0.02581 0.78832 0.0
O268 O 0.71249 0.04522 0.7637 0.0
C269 C 0.68545 0.07828 0.80871 0.0
O270 O 0.69482 0.08976 0.76042 0.0
Co271 Co 0.64499 0.07781 0.77707 0.0
O272 O 0.66776 0.10922 0.76885 0.0
C273 C 0.64286 0.03429 0.74513 0.0
C274 C 0.70589 0.02664 0.77664 0.0
C275 C 0.68726 0.10926 0.7611 0.0
O276 O 0.66515 0.03839 0.74929 0.0
O277 O 0.63106 0.04632 0.75622 0.0
O278 O 0.70563 0.07574 0.80381 0.0
O279 O 0.66743 0.06558 0.79506 0.0
Co280 Co 0.82345 0.71332 0.03202 0.0
O281 O 0.85724 0.71885 0.03636 0.0
O282 O 0.83024 0.68471 0.04465 0.0
C283 C 0.82262 0.72616 0.99523 0.0
O284 O 0.78795 0.69828 0.02946 0.0
Co285 Co 0.79914 0.75343 0.02627 0.0
O286 O 0.76867 0.72646 0.02229 0.0
C287 C 0.8165 0.74707 0.07335 0.0
C288 C 0.85231 0.69655 0.04404 0.0
C289 C 0.76874 0.70404 0.02559 0.0
O290 O 0.82322 0.72859 0.06474 0.0
O291 O 0.80749 0.76053 0.06059 0.0
O292 O 0.82342 0.70367 0.99933 0.0
O293 O 0.82391 0.74124 0.01354 0.0
Co294 Co 0.96396 0.57472 0.83547 0.0
O295 O 0.95196 0.60331 0.83321 0.0
O296 O 0.93278 0.56363 0.82072 0.0
C297 C 0.97926 0.58413 0.87199 0.0
O298 O 0.96854 0.54016 0.83556 0.0
Co299 Co 1.01625 0.57682 0.84547 0.0
O300 O 1.00492 0.5397 0.84781 0.0
C301 C 0.99874 0.58817 0.79992 0.0
C302 C 0.93284 0.58698 0.82367 0.0
C303 C 0.9835 0.52848 0.8412 0.0
O304 O 0.9774 0.58006 0.80505 0.0
O305 O 1.01656 0.59054 0.81436 0.0
O306 O 0.95686 0.57312 0.86748 0.0
O307 O 0.99118 0.59046 0.85454 0.0
Co308 Co 0.80868 0.44188 0.49698 0.0
O309 O 0.78091 0.44122 0.51224 0.0
O310 O 0.81392 0.47278 0.51599 0.0
C311 C 0.79041 0.42742 0.46183 0.0
O312 O 0.84035 0.45049 0.48388 0.0
Co313 Co 0.81783 0.39421 0.47383 0.0
O314 O 0.84502 0.41823 0.46164 0.0
C315 C 0.82363 0.40359 0.52465 0.0
C316 C 0.79254 0.46359 0.52143 0.0
C317 C 0.852 0.44115 0.46991 0.0
O318 O 0.82085 0.42565 0.52323 0.0
O319 O 0.8212 0.38773 0.50715 0.0
O320 O 0.79503 0.45122 0.46857 0.0
O321 O 0.79533 0.41319 0.47689 0.0
Co322 Co 0.69903 0.55092 0.34385 0.0
O323 O 0.69799 0.51972 0.32692 0.0
O324 O 0.72772 0.55484 0.3294 0.0
C325 C 0.6853 0.53393 0.37596 0.0
O326 O 0.70739 0.58625 0.35931 0.0
Co327 Co 0.65531 0.5636 0.36149 0.0
O328 O 0.67728 0.59643 0.37423 0.0
C329 C 0.66465 0.5674 0.31235 0.0
C330 C 0.71882 0.53148 0.32132 0.0
C331 C 0.69875 0.60191 0.37004 0.0
O332 O 0.68425 0.56226 0.31606 0.0
O333 O 0.65024 0.56708 0.32771 0.0
O334 O 0.70746 0.53823 0.37284 0.0
O335 O 0.67221 0.53853 0.35929 0.0
Tb336 Tb 0.10767 0.08178 0.06442 0.0
Tb337 Tb 0.05911 0.04486 0.03671 0.0
C338 C 0.05802 0.07604 0.08272 0.0
C339 C 0.16918 0.10208 0.08724 0.0
C340 C 0.20658 0.08068 0.08561 0.0
C341 C 0.19447 0.07991 0.10548 0.0
C342 C 0.17604 0.09072 0.10636 0.0
C343 C 0.18279 0.10494 0.06828 0.0
C344 C 0.20137 0.09435 0.0675 0.0
C345 C 0.14605 0.10703 0.08577 0.0
O346 O 0.10915 0.04321 0.06586 0.0
O347 O 0.0697 0.02558 0.06548 0.0
O348 O 0.08692 0.03638 0.01886 0.0
O349 O 0.11656 0.07291 0.03004 0.0
O350 O 0.03308 1.00985 0.03365 0.0
O351 O 0.0315 0.03809 0.01044 0.0
O352 O 0.06759 0.08081 0.02068 0.0
O353 O 0.08852 0.1068 0.05158 0.0
O354 O 0.08036 0.07824 0.08793 0.0
O355 O 0.04729 0.06683 0.06243 0.0
C356 C 0.09126 0.02452 0.07013 0.0
O357 O 0.13834 0.11227 0.06572 0.0
O358 O 0.1296 0.09083 0.09521 0.0
C359 C 0.1078 0.05186 0.01677 0.0
C360 C 0.99641 1.01734 0.02559 0.0
C361 C 0.95663 0.02988 0.03978 0.0
C362 C 0.95957 0.02667 0.01619 0.0
C363 C 0.97938 0.0205 0.00916 0.0
C364 C 0.99243 0.01854 0.04906 0.0
C365 C 0.97269 0.02466 0.05606 0.0
C366 C 1.0198 1.01743 0.01877 0.0
C367 C 0.0757 0.10334 0.0318 0.0
H368 H 0.19839 0.06974 0.11979 0.0
H369 H 0.16609 0.08858 0.12136 0.0
H370 H 0.17816 0.11382 0.05334 0.0
H371 H 0.2104 0.09516 0.05194 0.0
H372 H 0.94749 0.03072 1.00328 0.0
H373 H 0.98217 0.01986 0.991 0.0
H374 H 1.00529 1.01635 0.06221 0.0
H375 H 0.97068 0.02671 0.07432 0.0
Tb376 Tb 0.3054 0.81887 0.32525 0.0
Tb377 Tb 0.3365 0.80949 0.28308 0.0
C378 C 0.29253 0.82957 0.2751 0.0
C379 C 0.27066 0.80343 0.37363 0.0
C380 C 0.26011 0.76994 0.40832 0.0
C381 C 0.25503 0.79323 0.41024 0.0
C382 C 0.26038 0.80994 0.39301 0.0
C383 C 0.27441 0.77964 0.37098 0.0
C384 C 0.26919 0.76304 0.38815 0.0
C385 C 0.27968 0.82195 0.35718 0.0
O386 O 0.28846 0.78158 0.30845 0.0
O387 O 0.32015 0.77245 0.29424 0.0
O388 O 0.35777 0.80743 0.3141 0.0
O389 O 0.32956 0.79942 0.34008 0.0
O390 O 0.33763 0.78875 0.25216 0.0
O391 O 0.36738 0.8196 0.26608 0.0
O392 O 0.34613 0.85007 0.29106 0.0
O393 O 0.33591 0.85153 0.32824 0.0
O394 O 0.29513 0.83837 0.2968 0.0
O395 O 0.30368 0.81374 0.26785 0.0
C396 C 0.29882 0.76522 0.30079 0.0
O397 O 0.30244 0.83148 0.35922 0.0
O398 O 0.27163 0.81499 0.33578 0.0
C399 C 0.35086 0.80064 0.33429 0.0
C400 C 0.35671 0.81622 0.22638 0.0
C401 C 0.34869 0.83528 0.18398 0.0
C402 C 0.3589 0.81534 0.18505 0.0
C403 C 0.36284 0.80583 0.20615 0.0
C404 C 0.34718 0.83657 0.22546 0.0
C405 C 0.34325 0.84606 0.20447 0.0
C406 C 0.35756 0.80432 0.24803 0.0
C407 C 0.34837 0.86165 0.31174 0.0
H408 H 0.24776 0.79895 0.42544 0.0
H409 H 0.25736 0.82825 0.39523 0.0
H410 H 0.28249 0.7744 0.35613 0.0
H411 H 0.27371 0.74551 0.3862 0.0
H412 H 0.36345 0.80682 0.16954 0.0
H413 H 0.36999 0.78995 0.20658 0.0
H414 H 0.34196 0.84454 0.24091 0.0
H415 H 0.335 0.8611 0.20419 0.0
Tb416 Tb 0.54064 0.0454 0.56546 0.0
Tb417 Tb 0.59354 0.05229 0.54786 0.0
C418 C 0.57834 0.02764 0.59377 0.0
C419 C 0.48625 0.06079 0.57699 0.0
C420 C 0.4593 0.09508 0.57425 0.0
C421 C 0.4485 0.0693 0.57644 0.0
C422 C 0.46187 0.05234 0.5778 0.0
C423 C 0.4972 0.08645 0.5749 0.0
C424 C 0.48385 0.10346 0.57361 0.0
C425 C 0.49993 0.04254 0.57676 0.0
O426 O 0.56346 0.08105 0.58253 0.0
O427 O 0.59252 0.09027 0.55766 0.0
O428 O 0.57106 0.05795 0.51888 0.0
O429 O 0.54463 0.07136 0.53911 0.0
O430 O 0.63024 0.06691 0.5538 0.0
O431 O 0.61417 0.04426 0.5224 0.0
O432 O 0.57629 1.01216 0.54572 0.0
O433 O 0.53826 1.01349 0.54036 0.0
O434 O 0.55594 0.02283 0.5871 0.0
O435 O 0.59483 0.0431 0.58345 0.0
C436 C 0.58116 0.09723 0.57417 0.0
O437 O 0.50432 0.03525 0.55634 0.0
O438 O 0.51849 0.0478 0.59148 0.0
C439 C 0.55446 0.06921 0.52009 0.0
C440 C 0.64921 0.03854 0.53877 0.0
C441 C 0.67896 1.00762 0.54545 0.0
C442 C 0.68723 0.03115 0.53631 0.0
C443 C 0.67244 0.04645 0.53297 0.0
C444 C 0.6409 1.0152 0.54806 0.0
C445 C 0.65562 0.99982 0.55128 0.0
C446 C 0.63372 0.05466 0.53527 0.0
C447 C 0.55419 1.00138 0.53861 0.0
H448 H 0.42961 0.06207 0.57654 0.0
H449 H 0.45312 0.03254 0.57908 0.0
H450 H 0.51604 0.09326 0.57402 0.0
H451 H 0.49278 0.12317 0.57217 0.0
H452 H 0.70503 0.03757 0.53142 0.0
H453 H 0.67912 0.06443 0.5258 0.0
H454 H 0.62303 1.00888 0.55283 0.0
H455 H 0.64882 0.98197 0.55861 0.0
Tb456 Tb 0.34393 0.28555 0.79515 0.0
Tb457 Tb 0.29534 0.30275 0.78807 0.0
C458 C 0.29575 0.25212 0.80909 0.0
C459 C 0.40071 0.27338 0.78489 0.0
C460 C 0.43841 0.27626 0.75733 0.0
C461 C 0.44215 0.27845 0.78156 0.0
C462 C 0.42347 0.27696 0.79516 0.0
C463 C 0.39676 0.2711 0.76076 0.0
C464 C 0.41542 0.27239 0.74711 0.0
C465 C 0.38165 0.27345 0.79959 0.0
O466 O 0.32763 0.26963 0.76051 0.0
O467 O 0.30399 0.29517 0.75317 0.0
O468 O 0.32473 0.3361 0.78494 0.0
O469 O 0.35227 0.31699 0.7742 0.0
O470 O 0.26025 0.29522 0.77433 0.0
O471 O 0.27774 0.32974 0.79521 0.0
O472 O 0.30332 0.3038 0.82509 0.0
O473 O 0.34309 0.31015 0.82591 0.0
O474 O 0.31855 0.26027 0.81405 0.0
O475 O 0.28471 0.26308 0.79465 0.0
C476 C 0.31513 0.27918 0.74597 0.0
O477 O 0.37991 0.29568 0.80606 0.0
O478 O 0.36114 0.2574 0.79319 0.0
C479 C 0.34449 0.33674 0.77589 0.0
C480 C 0.23794 0.31103 0.79991 0.0
C481 C 0.20053 0.30448 0.82831 0.0
C482 C 0.19949 0.3151 0.80707 0.0
C483 C 0.21807 0.31839 0.79302 0.0
C484 C 0.23899 0.30014 0.82093 0.0
C485 C 0.22049 0.29697 0.83505 0.0
C486 C 0.25775 0.31526 0.78544 0.0
C487 C 0.32427 0.31077 0.83628 0.0
H488 H 0.45962 0.28194 0.79008 0.0
H489 H 0.42688 0.27907 0.81376 0.0
H490 H 0.37931 0.26854 0.75248 0.0
H491 H 0.4118 0.27033 0.72855 0.0
H492 H 0.18448 0.32132 0.80149 0.0
H493 H 0.21701 0.32688 0.77688 0.0
H494 H 0.25419 0.29422 0.82647 0.0
H495 H 0.22171 0.28845 0.85114 0.0
Tb496 Tb 0.0636 0.06079 0.56079 0.0
Tb497 Tb 0.07636 0.03155 0.51645 0.0
C498 C 1.02348 0.02316 0.5269 0.0
C499 C 0.07125 0.08956 0.6195 0.0
C500 C 0.09713 0.09329 0.66234 0.0
C501 C 0.07307 0.09172 0.66118 0.0
C502 C 0.06023 0.08986 0.63988 0.0
C503 C 0.09542 0.09204 0.6206 0.0
C504 C 0.10828 0.09405 0.64184 0.0
C505 C 0.05719 0.08384 0.59721 0.0
O506 O 0.074 0.02859 0.57576 0.0
O507 O 0.07205 1.0034 0.5428 0.0
O508 O 0.11027 0.04884 0.53557 0.0
O509 O 0.1 0.0795 0.55637 0.0
O510 O 0.07459 0.99734 0.49804 0.0
O511 O 0.09344 0.03264 0.48597 0.0
O512 O 0.0753 0.06896 0.5042 0.0
O513 O 0.05546 0.08279 0.53203 0.0
O514 O 1.02999 0.03578 0.54707 0.0
O515 O 0.0383 0.02255 0.51139 0.0
C516 C 0.07307 1.00619 0.56557 0.0
O517 O 0.06725 0.09505 0.58007 0.0
O518 O 0.04714 0.06 0.5916 0.0
C519 C 0.11592 0.0709 0.54724 0.0
C520 C 0.07076 1.00145 0.45811 0.0
C521 C 0.04251 0.99663 0.4165 0.0
C522 C 0.06664 1.0096 0.41792 0.0
C523 C 0.08065 1.0119 0.43855 0.0
C524 C 0.04704 0.98695 0.45626 0.0
C525 C 0.03307 0.98451 0.43561 0.0
C526 C 0.08434 1.00853 0.48075 0.0
C527 C 0.0649 0.08569 0.51201 0.0
H528 H 0.06389 0.09074 0.67664 0.0
H529 H 0.04153 0.08766 0.63929 0.0
H530 H 0.10425 0.09162 0.60501 0.0
H531 H 0.12683 0.0956 0.64217 0.0
H532 H 0.07445 0.01938 0.4036 0.0
H533 H 0.09888 0.02314 0.43959 0.0
H534 H 0.03891 0.97848 0.47102 0.0
H535 H 1.01465 0.97402 0.43491 0.0
Tb536 Tb 0.32818 0.82695 0.77488 0.0
Tb537 Tb 0.30232 0.77652 0.79825 0.0
C538 C 0.32858 0.77407 0.75386 0.0
C539 C 0.33319 0.8871 0.75204 0.0
C540 C 0.3109 0.92559 0.75204 0.0
C541 C 0.33544 0.93141 0.75123 0.0
C542 C 0.34652 0.91226 0.75132 0.0
C543 C 0.30867 0.88119 0.75166 0.0
C544 C 0.29765 0.90015 0.75164 0.0
C545 C 0.34458 0.86738 0.75641 0.0
O546 O 0.29119 0.81484 0.75775 0.0
O547 O 0.27231 0.78997 0.78443 0.0
O548 O 0.30408 0.80605 0.82448 0.0
O549 O 0.31056 0.83978 0.80242 0.0
O550 O 0.27432 0.74322 0.79579 0.0
O551 O 0.29982 0.75269 0.82527 0.0
O552 O 0.34071 0.7805 0.80714 0.0
O553 O 0.35787 0.82079 0.79752 0.0
O554 O 0.34023 0.79794 0.75778 0.0
O555 O 0.31006 0.76394 0.76462 0.0
C556 C 0.27119 0.80293 0.76619 0.0
O557 O 0.34888 0.86475 0.7782 0.0
O558 O 0.33495 0.84565 0.74471 0.0
C559 C 0.30466 0.82938 0.82153 0.0
C560 C 0.28841 0.71068 0.80962 0.0
C561 C 0.31042 0.673 0.80055 0.0
C562 C 0.30947 0.68206 0.82337 0.0
C563 C 0.2985 0.70075 0.82787 0.0
C564 C 0.28739 0.69984 0.78703 0.0
C565 C 0.2983 0.68119 0.78254 0.0
C566 C 0.28313 0.73487 0.81365 0.0
C567 C 0.35979 0.80016 0.80712 0.0
H568 H 0.34614 0.95079 0.75132 0.0
H569 H 0.3655 0.91719 0.7518 0.0
H570 H 0.29805 0.86197 0.7526 0.0
H571 H 0.27884 0.89485 0.75278 0.0
H572 H 0.31835 0.67572 0.8376 0.0
H573 H 0.29938 0.7087 0.84543 0.0
H574 H 0.27967 0.70697 0.77253 0.0
H575 H 0.29883 0.6747 0.76477 0.0
Tb576 Tb 0.56008 0.0313 0.04878 0.0
Tb577 Tb 0.55837 0.05898 1.00293 0.0
C578 C 0.60502 0.06811 0.03304 0.0
C579 C 0.56491 0.02045 0.10941 0.0
C580 C 0.55907 0.04195 0.15216 0.0
C581 C 0.55158 1.01565 0.14743 0.0
C582 C 0.55451 1.00493 0.12611 0.0
C583 C 0.57408 0.04659 0.11474 0.0
C584 C 0.5713 0.05731 0.13616 0.0
C585 C 0.56148 1.01021 0.0855 0.0
O586 O 0.54974 0.06535 0.06104 0.0
O587 O 0.56191 0.08933 0.03122 0.0
O588 O 0.52198 0.04349 0.00917 0.0
O589 O 0.52723 1.01114 0.02892 0.0
O590 O 0.55408 0.09077 0.98739 0.0
O591 O 0.56012 0.06003 0.96717 0.0
O592 O 0.55642 0.01933 0.99006 0.0
O593 O 0.57085 1.00654 0.02307 0.0
O594 O 0.59268 0.06163 0.05055 0.0
O595 O 0.59518 0.06323 0.01195 0.0
C596 C 0.55487 0.08766 0.05233 0.0
O597 O 0.54214 1.01185 0.07472 0.0
O598 O 0.57948 1.01734 0.07338 0.0
C599 C 0.51366 0.02123 0.0166 0.0
C600 C 0.57821 0.10059 0.95723 0.0
C601 C 0.61678 0.12704 0.93471 0.0
C602 C 0.59396 0.11944 0.9233 0.0
C603 C 0.57485 0.10628 0.9345 0.0
C604 C 0.60057 0.1096 0.96927 0.0
C605 C 0.61974 0.1228 0.95809 0.0
C606 C 0.55901 0.08308 0.96743 0.0
C607 C 0.56469 1.00258 1.00062 0.0
H608 H 0.54227 1.00354 0.15975 0.0
H609 H 0.54714 0.98477 0.12208 0.0
H610 H 0.58184 0.05884 0.1018 0.0
H611 H 0.57707 0.07764 0.13953 0.0
H612 H 0.59103 0.12193 0.90519 0.0
H613 H 0.55769 0.09936 0.92501 0.0
H614 H 0.60339 0.10539 0.98695 0.0
H615 H 0.63703 0.12854 0.96738 0.0
Tb616 Tb 0.30172 0.26806 0.2782 0.0
Tb617 Tb 0.3257 0.32557 0.29729 0.0
C618 C 0.30371 0.31153 0.24523 0.0
C619 C 0.3013 0.20514 0.26073 0.0
C620 C 0.33282 0.17675 0.25465 0.0
C621 C 0.3111 0.17014 0.24128 0.0
C622 C 0.29545 0.18451 0.24416 0.0
C623 C 0.32266 0.21117 0.27448 0.0
C624 C 0.33825 0.19714 0.27147 0.0
C625 C 0.28718 0.22271 0.26204 0.0
O626 O 0.33975 0.27447 0.27056 0.0
O627 O 0.35449 0.3172 0.27788 0.0
O628 O 0.33104 0.30603 0.32758 0.0
O629 O 0.31201 0.26494 0.31443 0.0
O630 O 0.35489 0.35499 0.31186 0.0
O631 O 0.32117 0.36125 0.30369 0.0
O632 O 0.28903 0.31657 0.30963 0.0
O633 O 0.27048 0.27741 0.29154 0.0
O634 O 0.29222 0.28898 0.25053 0.0
O635 O 0.31816 0.32782 0.26053 0.0
C636 C 0.35716 0.29554 0.26933 0.0
O637 O 0.28405 0.2303 0.2828 0.0
O638 O 0.2939 0.24157 0.24945 0.0
C639 C 0.32286 0.28208 0.33116 0.0
C640 C 0.35383 0.39245 0.29521 0.0
C641 C 0.35525 0.42818 0.26289 0.0
C642 C 0.35481 0.43478 0.28651 0.0
C643 C 0.3539 0.41691 0.30255 0.0
C644 C 0.35773 0.38695 0.27227 0.0
C645 C 0.35842 0.40473 0.25617 0.0
C646 C 0.34356 0.37174 0.30924 0.0
C647 C 0.2696 0.29712 0.30519 0.0
H648 H 0.30653 0.15432 0.22834 0.0
H649 H 0.27914 0.17991 0.2332 0.0
H650 H 0.32758 0.22718 0.28724 0.0
H651 H 0.3546 0.20223 0.28242 0.0
H652 H 0.35222 0.45264 0.29227 0.0
H653 H 0.35079 0.42141 0.32015 0.0
H654 H 0.35779 0.36812 0.26631 0.0
H655 H 0.35898 0.39924 0.23814 0.0
Tb656 Tb 0.56525 0.56231 0.05933 0.0
Tb657 Tb 0.57806 0.53285 0.01533 0.0
C658 C 0.52511 0.52359 0.0261 0.0
C659 C 0.57379 0.59346 0.11723 0.0
C660 C 0.60124 0.60054 0.15952 0.0
C661 C 0.5771 0.59851 0.15892 0.0
C662 C 0.56348 0.59498 0.13788 0.0
C663 C 0.59803 0.5965 0.11772 0.0
C664 C 0.61167 0.60016 0.13869 0.0
C665 C 0.55902 0.58605 0.09543 0.0
O666 O 0.57547 0.53008 0.07443 0.0
O667 O 0.57279 0.50449 0.04161 0.0
O668 O 0.6119 0.55009 0.03461 0.0
O669 O 0.60162 0.5812 0.05462 0.0
O670 O 0.57938 0.49897 0.99825 0.0
O671 O 0.59293 0.53422 0.98358 0.0
O672 O 0.57737 0.57054 1.00319 0.0
O673 O 0.55649 0.58358 0.03038 0.0
O674 O 0.53159 0.53711 0.04588 0.0
O675 O 0.53989 0.5225 0.01065 0.0
C676 C 0.57398 0.50744 0.06439 0.0
O677 O 0.56791 0.59686 0.07762 0.0
O678 O 0.54999 0.56188 0.0908 0.0
C679 C 0.61758 0.57241 0.04582 0.0
C680 C 0.57241 0.49963 0.95811 0.0
C681 C 0.54282 0.48909 0.91689 0.0
C682 C 0.56692 0.50172 0.91685 0.0
C683 C 0.58158 0.50689 0.9373 0.0
C684 C 0.54873 0.48544 0.95797 0.0
C685 C 0.5341 0.48011 0.9375 0.0
C686 C 0.58672 0.5098 0.97991 0.0
C687 C 0.56646 0.58695 0.01069 0.0
H688 H 0.56849 0.59837 0.17468 0.0
H689 H 0.54475 0.59241 0.13777 0.0
H690 H 0.60631 0.59521 0.10192 0.0
H691 H 0.63024 0.60199 0.1386 0.0
H692 H 0.5742 0.5092 0.90136 0.0
H693 H 0.59977 0.5179 0.93708 0.0
H694 H 0.5412 0.47952 0.97381 0.0
H695 H 0.51571 0.46999 0.93802 0.0
Tb696 Tb 0.82617 0.32602 0.27456 0.0
Tb697 Tb 0.79873 0.2772 0.29972 0.0
C698 C 0.82384 0.27113 0.25411 0.0
C699 C 0.83134 0.38736 0.2563 0.0
C700 C 0.80817 0.42493 0.25604 0.0
C701 C 0.82937 0.42843 0.24564 0.0
C702 C 0.84084 0.40954 0.24559 0.0
C703 C 0.81051 0.38429 0.26708 0.0
C704 C 0.79897 0.40274 0.26681 0.0
C705 C 0.84238 0.36689 0.25665 0.0
O706 O 0.78779 0.32032 0.26339 0.0
O707 O 0.76868 0.28328 0.27803 0.0
O708 O 0.78883 0.30824 0.31588 0.0
O709 O 0.82083 0.33972 0.30868 0.0
O710 O 0.77498 0.24115 0.29924 0.0
O711 O 0.7937 0.26046 0.33111 0.0
O712 O 0.83677 0.28601 0.314 0.0
O713 O 0.85663 0.31451 0.29002 0.0
O714 O 0.8311 0.29558 0.25267 0.0
O715 O 0.81106 0.26072 0.27029 0.0
C716 C 0.76793 0.30238 0.26565 0.0
O717 O 0.84964 0.36259 0.27715 0.0
O718 O 0.83016 0.34605 0.24489 0.0
C719 C 0.80217 0.33146 0.3197 0.0
C720 C 0.79106 0.21725 0.32362 0.0
C721 C 0.81737 0.18322 0.31616 0.0
C722 C 0.82575 0.20379 0.3328 0.0
C723 C 0.81276 0.22075 0.33645 0.0
C724 C 0.78129 0.19485 0.30944 0.0
C725 C 0.79441 0.17806 0.30556 0.0
C726 C 0.78153 0.23877 0.32057 0.0
C727 C 0.85706 0.29935 0.30676 0.0
H728 H 0.83687 0.44556 0.23745 0.0
H729 H 0.85699 0.41223 0.23731 0.0
H730 H 0.80317 0.36759 0.27588 0.0
H731 H 0.78301 0.39986 0.27548 0.0
H732 H 0.84306 0.20778 0.34183 0.0
H733 H 0.82065 0.2376 0.34785 0.0
H734 H 0.76448 0.19156 0.29955 0.0
H735 H 0.78732 0.16234 0.29271 0.0
Tb736 Tb 0.05059 0.52939 0.54672 0.0
Tb737 Tb 0.06868 0.56115 0.50425 0.0
C738 C 0.10239 0.55635 0.54422 0.0
C739 C 0.03619 0.5179 0.60442 0.0
C740 C 1.03015 0.54375 0.64515 0.0
C741 C 1.0164 0.51871 0.63912 0.0
C742 C 1.01936 0.50588 0.61879 0.0
C743 C 0.05055 0.54252 0.61083 0.0
C744 C 0.0476 0.55534 0.63108 0.0
C745 C 0.03621 0.50681 0.58115 0.0
O746 O 0.04492 0.56652 0.55698 0.0
O747 O 0.06589 0.59079 0.53075 0.0
O748 O 0.03083 0.55411 0.50071 0.0
O749 O 1.02386 0.51734 0.51804 0.0
O750 O 0.09371 0.59258 0.49397 0.0
O751 O 0.06822 0.56718 0.469 0.0
O752 O 0.06496 0.52147 0.4908 0.0
O753 O 0.0624 0.50193 0.52459 0.0
O754 O 0.08534 0.55432 0.55745 0.0
O755 O 0.09751 0.55132 0.52206 0.0
C756 C 0.05463 0.58906 0.54975 0.0
O757 O 1.0225 0.51349 0.56595 0.0
O758 O 0.05693 0.50859 0.57406 0.0
C759 C 1.01693 0.53197 0.50416 0.0
C760 C 0.10709 0.58148 0.45945 0.0
C761 C 0.14348 0.57246 0.43513 0.0
C762 C 0.13262 0.59077 0.4285 0.0
C763 C 0.11452 0.59525 0.44062 0.0
C764 C 0.11817 0.56359 0.46634 0.0
C765 C 0.13625 0.55921 0.4544 0.0
C766 C 0.08787 0.5854 0.47218 0.0
C767 C 0.06459 0.50124 0.50207 0.0
H768 H 1.00308 0.50922 0.64991 0.0
H769 H 1.00795 0.48702 0.61386 0.0
H770 H 0.06334 0.55226 0.59965 0.0
H771 H 0.05828 0.57466 0.6352 0.0
H772 H 0.1376 0.60105 0.41354 0.0
H773 H 0.10615 0.60916 0.43512 0.0
H774 H 0.11269 0.55279 0.48087 0.0
H775 H 0.14444 0.54526 0.46016 0.0
Tb776 Tb 0.84239 0.78685 0.29567 0.0
Tb777 Tb 0.79371 0.80431 0.28781 0.0
C778 C 0.79431 0.75429 0.31043 0.0
C779 C 0.89847 0.77403 0.28423 0.0
C780 C 0.93528 0.77647 0.25565 0.0
C781 C 0.93943 0.7775 0.27979 0.0
C782 C 0.92119 0.77624 0.29391 0.0
C783 C 0.89412 0.77289 0.26019 0.0
C784 C 0.91233 0.77398 0.24602 0.0
C785 C 0.87988 0.77431 0.29945 0.0
O786 O 0.82596 0.77074 0.26112 0.0
O787 O 0.80366 0.79741 0.25328 0.0
O788 O 0.82272 0.83798 0.2851 0.0
O789 O 0.85142 0.81961 0.27623 0.0
O790 O 0.75878 0.79557 0.27327 0.0
O791 O 0.77512 0.83071 0.29358 0.0
O792 O 0.80187 0.80836 0.32493 0.0
O793 O 0.84076 0.80863 0.328 0.0
O794 O 0.81716 0.76201 0.31485 0.0
O795 O 0.78316 0.76508 0.29593 0.0
C796 C 0.81444 0.781 0.24629 0.0
O797 O 0.87846 0.79664 0.30607 0.0
O798 O 0.85921 0.75842 0.29338 0.0
C799 C 0.84315 0.83908 0.27733 0.0
C800 C 0.73544 0.81097 0.29793 0.0
C801 C 0.69756 0.80367 0.32585 0.0
C802 C 0.69661 0.81432 0.30461 0.0
C803 C 0.71543 0.81798 0.2908 0.0
C804 C 0.73638 0.80004 0.31894 0.0
C805 C 0.71764 0.79649 0.33281 0.0
C806 C 0.75549 0.81554 0.28375 0.0
C807 C 0.8222 0.81245 0.33704 0.0
H808 H 0.95692 0.77992 0.28788 0.0
H809 H 0.92491 0.77745 0.31245 0.0
H810 H 0.87669 0.7714 0.25239 0.0
H811 H 0.9084 0.77284 0.22752 0.0
H812 H 0.68152 0.8203 0.29886 0.0
H813 H 0.71444 0.82649 0.27466 0.0
H814 H 0.75167 0.79439 0.32468 0.0
H815 H 0.71882 0.78794 0.34889 0.0
Tb816 Tb 0.81659 0.32609 0.81678 0.0
Tb817 Tb 0.84813 0.31757 0.77457 0.0
C818 C 0.80487 0.33996 0.76741 0.0
C819 C 0.78685 0.31043 0.868 0.0
C820 C 0.78408 0.27838 0.904 0.0
C821 C 0.78021 0.30215 0.90768 0.0
C822 C 0.78169 0.31812 0.8898 0.0
C823 C 0.78949 0.28625 0.86396 0.0
C824 C 0.7881 0.27037 0.88176 0.0
C825 C 0.7925 0.32834 0.85028 0.0
O826 O 0.797 0.29268 0.7952 0.0
O827 O 0.82725 0.28024 0.78146 0.0
O828 O 0.86747 0.31269 0.80606 0.0
O829 O 0.8369 0.30158 0.82898 0.0
O830 O 0.85043 0.29824 0.74325 0.0
O831 O 0.88002 0.32801 0.75922 0.0
O832 O 0.85725 0.35779 0.78367 0.0
O833 O 0.84923 0.35638 0.82133 0.0
O834 O 0.80675 0.34727 0.78952 0.0
O835 O 0.81682 0.32531 0.75914 0.0
C836 C 0.8051 0.27543 0.78538 0.0
O837 O 0.81471 0.34038 0.85053 0.0
O838 O 0.7834 0.31961 0.82948 0.0
C839 C 0.85876 0.30351 0.82489 0.0
C840 C 0.87193 0.32633 0.71922 0.0
C841 C 0.86852 0.34721 0.67681 0.0
C842 C 0.88078 0.32911 0.67938 0.0
C843 C 0.88239 0.31867 0.70046 0.0
C844 C 0.86044 0.345 0.71699 0.0
C845 C 0.85871 0.35533 0.69598 0.0
C846 C 0.87097 0.31353 0.74051 0.0
C847 C 0.86121 0.36768 0.80502 0.0
H848 H 0.77679 0.30873 0.92457 0.0
H849 H 0.77972 0.33678 0.89321 0.0
H850 H 0.79373 0.28006 0.84727 0.0
H851 H 0.79155 0.25242 0.87836 0.0
H852 H 0.88876 0.32269 0.665 0.0
H853 H 0.89126 0.30421 0.70194 0.0
H854 H 0.8521 0.35098 0.73132 0.0
H855 H 0.84882 0.36888 0.69455 0.0
Tb856 Tb 0.80413 0.76411 0.77903 0.0
Tb857 Tb 0.82887 0.82088 0.79831 0.0
C858 C 0.806 0.80848 0.74664 0.0
C859 C 0.78775 0.69514 0.77371 0.0
C860 C 0.80045 0.65297 0.78776 0.0
C861 C 0.78596 0.65109 0.76724 0.0
C862 C 0.7797 0.67216 0.76021 0.0
C863 C 0.80085 0.6966 0.79483 0.0
C864 C 0.80711 0.67576 0.80183 0.0
C865 C 0.78485 0.71828 0.76498 0.0
O866 O 0.84276 0.76919 0.77373 0.0
O867 O 0.85675 0.81219 0.77815 0.0
O868 O 0.84004 0.7988 0.82442 0.0
O869 O 0.81163 0.76143 0.81572 0.0
O870 O 0.84659 0.85842 0.79306 0.0
O871 O 0.84059 0.84704 0.82718 0.0
O872 O 0.79278 0.81338 0.81115 0.0
O873 O 0.77327 0.77739 0.78877 0.0
O874 O 0.80323 0.7845 0.74873 0.0
O875 O 0.81169 0.82504 0.76476 0.0
C876 C 0.85977 0.79028 0.77098 0.0
O877 O 0.77564 0.73138 0.77863 0.0
O878 O 0.80341 0.73253 0.75697 0.0
C879 C 0.82753 0.7769 0.83045 0.0
C880 C 0.83638 0.88641 0.81869 0.0
C881 C 0.81233 0.92307 0.81737 0.0
C882 C 0.83589 0.92897 0.81222 0.0
C883 C 0.84784 0.9107 0.81286 0.0
C884 C 0.81336 0.88099 0.82524 0.0
C885 C 0.80146 0.89919 0.82464 0.0
C886 C 0.84701 0.86599 0.81462 0.0
C887 C 0.77272 0.79566 0.80439 0.0
H888 H 0.7804 0.63374 0.75613 0.0
H889 H 0.76954 0.67082 0.74382 0.0
H890 H 0.8074 0.71428 0.80532 0.0
H891 H 0.81869 0.67824 0.81746 0.0
H892 H 0.84475 0.94736 0.80682 0.0
H893 H 0.86558 0.91512 0.80767 0.0
H894 H 0.80407 0.86229 0.82962 0.0
H895 H 0.78323 0.89394 0.82842 0.0
Tb896 Tb 0.60679 0.57642 0.56193 0.0
Tb897 Tb 0.55704 0.5378 0.53811 0.0
C898 C 0.55997 0.57153 0.58359 0.0
C899 C 0.66705 0.5942 0.58736 0.0
C900 C 0.70269 0.56999 0.58986 0.0
C901 C 0.6837 0.563 0.60351 0.0
C902 C 0.666 0.57489 0.6022 0.0
C903 C 0.68714 0.60286 0.5755 0.0
C904 C 0.70478 0.59082 0.57666 0.0
C905 C 0.646 0.60224 0.58115 0.0
O906 O 0.60068 0.54076 0.57829 0.0
O907 O 0.57736 0.51319 0.5495 0.0
O908 O 0.58178 0.54076 0.51213 0.0
O909 O 0.61631 0.55292 0.53558 0.0
O910 O 0.5268 0.50783 0.54123 0.0
O911 O 0.53127 0.52703 0.51006 0.0
O912 O 0.55493 0.57584 0.53427 0.0
O913 O 0.59405 0.59761 0.53603 0.0
O914 O 0.57945 0.58746 0.57852 0.0
O915 O 0.55244 0.54862 0.57345 0.0
C916 C 0.59179 0.51772 0.56833 0.0
O917 O 0.64022 0.60129 0.55906 0.0
O918 O 0.62767 0.59298 0.59238 0.0
C919 C 0.60445 0.54377 0.51569 0.0
C920 C 0.49524 0.52039 0.52545 0.0
C921 C 0.4573 0.54052 0.52931 0.0
C922 C 0.45436 0.51798 0.51551 0.0
C923 C 0.47339 0.50801 0.51346 0.0
C924 C 0.49773 0.5423 0.53981 0.0
C925 C 0.47902 0.55224 0.54176 0.0
C926 C 0.51635 0.51243 0.52229 0.0
C927 C 0.57184 0.59581 0.53033 0.0
H928 H 0.68185 0.54738 0.61424 0.0
H929 H 0.65083 0.56783 0.61175 0.0
H930 H 0.68839 0.61773 0.56399 0.0
H931 H 0.7191 0.59664 0.56583 0.0
H932 H 0.43769 0.50867 0.50578 0.0
H933 H 0.47123 0.49114 0.50219 0.0
H934 H 0.51443 0.5522 0.54913 0.0
H935 H 0.48165 0.56941 0.55278 0.0
Tb936 Tb 0.04903 0.55079 0.07105 0.0
Tb937 Tb 0.10068 0.55851 0.05031 0.0
C938 C 0.09034 0.5386 0.09884 0.0
C939 C 0.99422 0.56456 0.08402 0.0
C940 C 0.96515 0.59665 0.07921 0.0
C941 C 0.98975 0.60635 0.07971 0.0
C942 C 1.00413 0.59044 0.08199 0.0
C943 C 0.96979 0.55482 0.08375 0.0
C944 C 0.95539 0.57067 0.08135 0.0
C945 C 1.00903 0.54737 0.08466 0.0
O946 O 0.07146 0.58801 0.08484 0.0
O947 O 0.09844 0.5966 0.05781 0.0
O948 O 0.07583 0.56049 0.02203 0.0
O949 O 0.04964 0.57392 0.04263 0.0
O950 O 0.13739 0.57407 0.05342 0.0
O951 O 0.11959 0.54933 0.0237 0.0
O952 O 0.08491 0.51822 0.05129 0.0
O953 O 0.04639 0.51789 0.04713 0.0
O954 O 0.06754 0.53148 0.09341 0.0
O955 O 0.105 0.55401 0.08675 0.0
C956 C 0.08772 0.60409 0.07463 0.0
O957 O 1.0123 0.53809 0.06457 0.0
O958 O 1.02853 0.55489 0.09813 0.0
C959 C 0.05851 0.57064 0.02323 0.0
C960 C 0.15605 0.5449 0.03788 0.0
C961 C 0.18459 0.51224 0.04234 0.0
C962 C 0.17549 0.51625 0.02048 0.0
C963 C 0.16144 0.53247 0.01829 0.0
C964 C 0.16535 0.54114 0.05975 0.0
C965 C 0.17953 0.52504 0.06194 0.0
C966 C 0.13978 0.56052 0.0352 0.0
C967 C 0.06278 0.50646 0.04503 0.0
H968 H 0.99794 0.62625 0.07838 0.0
H969 H 1.02298 0.5983 0.08189 0.0
H970 H 0.96181 0.53484 0.08493 0.0
H971 H 0.93654 0.56238 0.08059 0.0
H972 H 0.17935 0.50696 1.00503 0.0
H973 H 0.15452 0.53507 1.00125 0.0
H974 H 0.16145 0.55036 0.07521 0.0
H975 H 0.18613 0.5222 0.07903 0.0
H976 H 0.0397 0.2171 0.95034 0.0
H977 H 0.07834 0.14797 0.05554 0.0
H978 H 0.03185 0.23646 0.02149 0.0
H979 H 0.05788 0.10876 0.98789 0.0
H980 H 0.06653 0.1835 0.04176 0.0
H981 H 0.05086 0.17988 0.96221 0.0
C982 C 0.04024 0.21354 0.96839 0.0
C983 C 0.03476 0.23002 0.98491 0.0
C984 C 0.06462 0.16716 0.02988 0.0
C985 C 0.04786 0.18777 0.99856 0.0
C986 C 0.07151 0.14685 0.03769 0.0
C987 C 0.06915 0.12525 0.02286 0.0
C988 C 0.05555 0.16624 1.0069 0.0
C989 C 0.05997 0.12499 0.99995 0.0
C990 C 0.04655 0.19228 0.97512 0.0
C991 C 0.03578 0.22436 1.00806 0.0
N992 N 0.05361 0.14524 0.99261 0.0
N993 N 0.04236 0.20394 0.01416 0.0
H994 H 0.16543 0.84706 0.20659 0.0
H995 H 0.29199 0.82714 0.22817 0.0
H996 H 0.21292 0.85149 0.15331 0.0
H997 H 0.25476 0.84694 0.28379 0.0
H998 H 0.26266 0.83485 0.2005 0.0
H999 H 0.19716 0.846 0.23513 0.0
C1000 C 0.18256 0.84803 0.20088 0.0
C1001 C 0.18641 0.8493 0.17742 0.0
C1002 C 0.26097 0.83773 0.21874 0.0
C1003 C 0.2228 0.84775 0.21008 0.0
C1004 C 0.2777 0.83326 0.23459 0.0
C1005 C 0.2758 0.83631 0.25838 0.0
C1006 C 0.24188 0.8449 0.22665 0.0
C1007 C 0.25695 0.84441 0.26563 0.0
C1008 C 0.20069 0.84746 0.21723 0.0
C1009 C 0.20906 0.85055 0.17115 0.0
N1010 N 0.24056 0.84813 0.24983 0.0
N1011 N 0.22626 0.84946 0.18731 0.0
H1012 H 0.54249 0.84326 0.5103 0.0
H1013 H 0.52006 0.97791 0.50379 0.0
H1014 H 0.52314 0.86863 0.44539 0.0
H1015 H 0.57358 0.96473 0.5508 0.0
H1016 H 0.51228 0.9346 0.48586 0.0
H1017 H 0.54496 0.88463 0.52925 0.0
C1018 C 0.53849 0.85743 0.50008 0.0
C1019 C 0.53278 0.85258 0.47621 0.0
C1020 C 0.52557 0.94124 0.50022 0.0
C1021 C 0.53528 0.89979 0.49785 0.0
C1022 C 0.5299 0.9658 0.51052 0.0
C1023 C 0.54753 0.97487 0.52873 0.0
C1024 C 0.53853 0.92557 0.50867 0.0
C1025 C 0.55994 0.95852 0.5367 0.0
C1026 C 0.53999 0.88104 0.51089 0.0
C1027 C 0.5278 0.87169 0.46381 0.0
N1028 N 0.55512 0.93465 0.52672 0.0
N1029 N 0.52911 0.89448 0.47478 0.0
H1030 H 0.53665 0.31345 0.65259 0.0
H1031 H 0.4771 0.25911 0.7649 0.0
H1032 H 0.5747 0.29234 0.70988 0.0
H1033 H 0.44586 0.29921 0.71684 0.0
H1034 H 0.51105 0.26577 0.74231 0.0
H1035 H 0.50115 0.30257 0.67317 0.0
C1036 C 0.53749 0.30633 0.66942 0.0
C1037 C 0.55869 0.30391 0.67959 0.0
C1038 C 0.49671 0.27302 0.73669 0.0
C1039 C 0.51814 0.29141 0.70321 0.0
C1040 C 0.47734 0.26935 0.74964 0.0
C1041 C 0.45855 0.27877 0.74294 0.0
C1042 C 0.49732 0.28605 0.71673 0.0
C1043 C 0.45972 0.29135 0.72262 0.0
C1044 C 0.51725 0.30021 0.68119 0.0
C1045 C 0.55876 0.29461 0.70145 0.0
N1046 N 0.47877 0.29467 0.7103 0.0
N1047 N 0.53881 0.28873 0.71254 0.0
H1048 H 0.06473 0.89435 0.67389 0.0
H1049 H 0.07294 0.95739 0.55021 0.0
H1050 H 0.06884 0.85421 0.60974 0.0
H1051 H 0.07218 1.00045 0.61376 0.0
H1052 H 0.07138 0.92031 0.57181 0.0
H1053 H 0.06734 0.93264 0.65321 0.0
C1054 C 0.06629 0.89336 0.65551 0.0
C1055 C 0.06662 0.87024 0.64397 0.0
C1056 C 0.0716 0.93779 0.58122 0.0
C1057 C 0.0695 0.91532 0.61943 0.0
C1058 C 0.07253 0.95936 0.56873 0.0
C1059 C 0.07282 0.98298 0.57969 0.0
C1060 C 0.0708 0.93888 0.60543 0.0
C1061 C 0.07212 0.98321 0.60404 0.0
C1062 C 0.06774 0.91554 0.64355 0.0
C1063 C 0.06856 0.87107 0.61986 0.0
N1064 N 0.07112 0.96192 0.61579 0.0
N1065 N 0.06984 0.89272 0.60872 0.0
H1066 H 0.47558 0.76149 0.89019 0.0
H1067 H 0.40553 0.83325 0.80535 0.0
H1068 H 0.5127 0.82087 0.85085 0.0
H1069 H 0.37152 0.76386 0.83395 0.0
H1070 H 0.44387 0.83048 0.82219 0.0
H1071 H 0.43819 0.76303 0.87062 0.0
C1072 C 0.47614 0.77455 0.87702 0.0
C1073 C 0.49827 0.79039 0.87205 0.0
C1074 C 0.42811 0.81577 0.82486 0.0
C1075 C 0.45367 0.79323 0.84951 0.0
C1076 C 0.40583 0.81736 0.81516 0.0
C1077 C 0.38431 0.79882 0.81786 0.0
C1078 C 0.42976 0.79555 0.838 0.0
C1079 C 0.38697 0.77883 0.83101 0.0
C1080 C 0.45439 0.77558 0.86585 0.0
C1081 C 0.49675 0.80747 0.85511 0.0
N1082 N 0.40871 0.77791 0.84043 0.0
N1083 N 0.47527 0.80849 0.84483 0.0
H1084 H 0.54844 0.24225 0.09251 0.0
H1085 H 0.54827 0.09585 0.09954 0.0
H1086 H 0.55132 0.2114 0.15821 0.0
H1087 H 0.55772 0.13578 0.03825 0.0
H1088 H 0.54619 0.13483 0.12122 0.0
H1089 H 0.54783 0.20182 0.07324 0.0
C1090 C 0.54842 0.22687 0.10312 0.0
C1091 C 0.54951 0.2311 0.12746 0.0
C1092 C 0.54867 0.13514 0.10303 0.0
C1093 C 0.54934 0.18288 0.10449 0.0
C1094 C 0.54983 0.11261 0.09043 0.0
C1095 C 0.55319 0.11173 0.06654 0.0
C1096 C 0.55057 0.15762 0.09197 0.0
C1097 C 0.55515 0.13479 0.05639 0.0
C1098 C 0.54829 0.20347 0.09186 0.0
C1099 C 0.54987 0.20965 0.13957 0.0
N1100 N 0.55373 0.15617 0.06889 0.0
N1101 N 0.54984 0.18689 0.12811 0.0
H1102 H 0.11782 0.27002 0.33779 0.0
H1103 H 0.26125 0.32832 0.34206 0.0
H1104 H 0.15853 0.31679 0.39614 0.0
H1105 H 0.22268 0.26576 0.29457 0.0
H1106 H 0.22445 0.32719 0.3598 0.0
H1107 H 0.15469 0.27084 0.32032 0.0
C1108 C 0.13435 0.28057 0.34714 0.0
C1109 C 0.13409 0.29324 0.36899 0.0
C1110 C 0.22383 0.31366 0.34546 0.0
C1111 C 0.17811 0.29468 0.34804 0.0
C1112 C 0.24519 0.31433 0.33506 0.0
C1113 C 0.24607 0.29716 0.31627 0.0
C1114 C 0.20206 0.2959 0.33722 0.0
C1115 C 0.22378 0.27959 0.30878 0.0
C1116 C 0.15577 0.281 0.33695 0.0
C1117 C 0.15697 0.30648 0.37951 0.0
N1118 N 0.20329 0.2796 0.31892 0.0
N1119 N 0.17743 0.30694 0.3691 0.0
H1120 H 0.95334 0.06643 0.17499 0.0
H1121 H 0.07504 0.10564 0.12267 0.0
H1122 H 1.01736 0.11441 0.21121 0.0
H1123 H 1.01024 0.06592 0.08229 0.0
H1124 H 0.05247 0.11641 0.1528 0.0
H1125 H 0.97114 0.07432 0.13848 0.0
C1126 C 0.97078 0.07946 0.17512 0.0
C1127 C 0.98418 0.08939 0.19598 0.0
C1128 C 0.0431 0.10555 0.13726 0.0
C1129 C 1.00479 0.09791 0.15475 0.0
C1130 C 0.05603 0.0992 0.12013 0.0
C1131 C 0.04449 0.08423 0.10026 0.0
C1132 C 1.01844 0.09642 0.13474 0.0
C1133 C 1.01982 0.07701 0.0976 0.0
C1134 C 0.98104 0.08378 0.15434 0.0
C1135 C 1.00669 0.10605 0.19539 0.0
N1136 N 1.00758 0.08275 0.11487 0.0
N1137 N 1.01649 0.10937 0.17513 0.0
H1138 H 0.30306 0.72601 0.53782 0.0
H1139 H 0.24694 0.71815 0.40857 0.0
H1140 H 0.28506 0.65814 0.49193 0.0
H1141 H 0.27222 0.78656 0.45371 0.0
H1142 H 0.2542 0.69406 0.44064 0.0
H1143 H 0.2856 0.74656 0.50886 0.0
C1144 C 0.29535 0.71538 0.52163 0.0
C1145 C 0.29573 0.69041 0.51715 0.0
C1146 C 0.25779 0.7143 0.44356 0.0
C1147 C 0.27571 0.71393 0.48378 0.0
C1148 C 0.25368 0.72807 0.42528 0.0
C1149 C 0.25931 0.7545 0.42833 0.0
C1150 C 0.26756 0.72706 0.46501 0.0
C1151 C 0.26749 0.76627 0.45048 0.0
C1152 C 0.28532 0.72713 0.5051 0.0
C1153 C 0.28531 0.67751 0.49595 0.0
N1154 N 0.27164 0.7525 0.46786 0.0
N1155 N 0.27587 0.68951 0.47991 0.0
H1156 H 0.59554 1.01483 0.73356 0.0
H1157 H 0.62096 0.02048 0.60504 0.0
H1158 H 0.6628 1.01683 0.70921 0.0
H1159 H 0.55162 1.0079 0.62823 0.0
H1160 H 0.6343 1.00774 0.64154 0.0
H1161 H 0.57692 0.99994 0.69489 0.0
C1162 C 0.60634 1.01158 0.72019 0.0
C1163 C 0.63088 1.0181 0.72436 0.0
C1164 C 0.61605 1.00731 0.63855 0.0
C1165 C 0.60976 1.00153 0.68002 0.0
C1166 C 0.60849 1.0148 0.61778 0.0
C1167 C 0.58539 1.01609 0.61403 0.0
C1168 C 0.60053 1.00167 0.65586 0.0
C1169 C 0.56974 1.00771 0.63071 0.0
C1170 C 0.59568 1.00303 0.69808 0.0
C1171 C 0.64389 1.01276 0.70661 0.0
N1172 N 0.57775 1.00143 0.65118 0.0
N1173 N 0.63324 1.00547 0.685 0.0
H1174 H 0.30483 0.31957 0.98303 0.0
H1175 H 0.36054 0.34551 0.86287 0.0
H1176 H 0.34487 0.39418 0.96882 0.0
H1177 H 0.29211 0.29325 0.867 0.0
H1178 H 0.36162 0.35885 0.90412 0.0
H1179 H 0.30668 0.30467 0.94278 0.0
C1180 C 0.31425 0.33273 0.97154 0.0
C1181 C 0.32458 0.35818 0.97925 0.0
C1182 C 0.34647 0.34436 0.89594 0.0
C1183 C 0.32711 0.3412 0.93338 0.0
C1184 C 0.34588 0.33668 0.87247 0.0
C1185 C 0.32615 0.31836 0.86142 0.0
C1186 C 0.32751 0.33309 0.9086 0.0
C1187 C 0.30759 0.3076 0.87474 0.0
C1188 C 0.31519 0.32426 0.94858 0.0
C1189 C 0.33649 0.37444 0.96355 0.0
N1190 N 0.30878 0.31498 0.89759 0.0
N1191 N 0.33755 0.36568 0.94144 0.0
H1192 H 1.00442 0.04936 0.29072 0.0
H1193 H 0.99886 1.00373 0.41604 0.0
H1194 H 0.94044 0.03425 0.32495 0.0
H1195 H 0.05083 0.99453 0.37087 0.0
H1196 H 0.97652 1.01409 0.3834 0.0
H1197 H 1.02174 0.02998 0.32069 0.0
C1198 C 0.99396 0.04191 0.30455 0.0
C1199 C 0.97094 0.04341 0.30536 0.0
C1200 C 0.99261 1.00939 0.38058 0.0
C1201 C 0.9908 0.02126 0.33989 0.0
C1202 C 1.00532 1.00328 0.39917 0.0
C1203 C 1.02693 0.99851 0.39623 0.0
C1204 C 1.00174 1.01106 0.35903 0.0
C1205 C 0.03455 0.99862 0.37402 0.0
C1206 C 1.00385 0.0307 0.32161 0.0
C1207 C 0.95828 0.0335 0.32375 0.0
N1208 N 1.02213 1.00517 0.35633 0.0
N1209 N 0.96848 0.02299 0.34048 0.0
H1210 H 0.37025 0.735 0.6263 0.0
H1211 H 0.31036 0.72328 0.74201 0.0
H1212 H 0.32232 0.66604 0.6442 0.0
H1213 H 0.36455 0.78894 0.7263 0.0
H1214 H 0.32074 0.69882 0.71045 0.0
H1215 H 0.37616 0.75104 0.66672 0.0
C1216 C 0.36169 0.72287 0.63897 0.0
C1217 C 0.34558 0.69937 0.63203 0.0
C1218 C 0.3306 0.71849 0.71412 0.0
C1219 C 0.35121 0.71798 0.67803 0.0
C1220 C 0.32455 0.73253 0.73205 0.0
C1221 C 0.33614 0.7584 0.73638 0.0
C1222 C 0.34819 0.73047 0.70029 0.0
C1223 C 0.35476 0.7692 0.72326 0.0
C1224 C 0.36486 0.7321 0.66203 0.0
C1225 C 0.33485 0.68433 0.64897 0.0
N1226 N 0.35993 0.75529 0.70559 0.0
N1227 N 0.33729 0.6942 0.67119 0.0
H1228 H 0.71366 0.093 0.84896 0.0
H1229 H 0.62289 0.15821 0.8993 0.0
H1230 H 0.65246 0.10321 0.8116 0.0
H1231 H 0.6573 0.11301 0.93836 0.0
H1232 H 0.64864 0.15695 0.86867 0.0
H1233 H 0.70623 0.11769 0.88254 0.0
C1234 C 0.69902 0.10092 0.84767 0.0
C1235 C 0.68332 0.09569 0.82777 0.0
C1236 C 0.65103 0.14807 0.88434 0.0
C1237 C 0.67531 0.12435 0.8654 0.0
C1238 C 0.63633 0.14871 0.90178 0.0
C1239 C 0.63729 0.13481 0.92097 0.0
C1240 C 0.66675 0.13354 0.88625 0.0
C1241 C 0.65559 0.1236 0.92368 0.0
C1242 C 0.69489 0.11503 0.8667 0.0
C1243 C 0.66471 0.10642 0.82678 0.0
N1244 N 0.66924 0.12262 0.90617 0.0
N1245 N 0.66113 0.12012 0.84541 0.0
H1246 H 0.31944 0.3841 0.11536 0.0
H1247 H 0.28677 0.27927 0.20638 0.0
H1248 H 0.31435 0.30574 0.09938 0.0
H1249 H 0.31854 0.35812 0.22777 0.0
H1250 H 0.28975 0.28904 0.16612 0.0
H1251 H 0.31268 0.37521 0.15553 0.0
C1252 C 0.31675 0.365 0.1202 0.0
C1253 C 0.31759 0.34568 0.10382 0.0
C1254 C 0.29588 0.30425 0.17962 0.0
C1255 C 0.30951 0.33533 0.14987 0.0
C1256 C 0.294 0.29872 0.20267 0.0
C1257 C 0.30239 0.31787 0.22067 0.0
C1258 C 0.30594 0.32919 0.17428 0.0
C1259 C 0.31184 0.34269 0.21457 0.0
C1260 C 0.31297 0.35998 0.14318 0.0
C1261 C 0.31403 0.32132 0.11129 0.0
N1262 N 0.31334 0.34762 0.19196 0.0
N1263 N 0.31007 0.31685 0.13362 0.0
H1264 H 0.24128 0.94896 0.03878 0.0
H1265 H 0.24999 0.09225 0.06889 0.0
H1266 H 0.30587 1.00854 0.03673 0.0
H1267 H 0.19698 0.03112 0.09336 0.0
H1268 H 0.27113 0.06227 0.05703 0.0
H1269 H 0.22454 0.97898 0.05857 0.0
C1270 C 0.25196 0.96833 0.04262 0.0
C1271 C 0.27491 0.97635 0.036 0.0
C1272 C 0.25509 0.05553 0.06539 0.0
C1273 C 0.25589 1.01075 0.05843 0.0
C1274 C 0.24306 0.0726 0.07212 0.0
C1275 C 0.22177 0.06411 0.0821 0.0
C1276 C 0.24546 0.02978 0.06827 0.0
C1277 C 0.21348 0.03848 0.08593 0.0
C1278 C 0.24246 0.98541 0.054 0.0
C1279 C 0.28807 1.00161 0.0415 0.0
N1280 N 0.22517 0.02214 0.0787 0.0
N1281 N 0.27827 1.01801 0.05217 0.0
H1282 H 0.72551 0.71013 0.03238 0.0
H1283 H 0.65633 0.56358 0.02741 0.0
H1284 H 0.76066 0.65268 0.02254 0.0
H1285 H 0.63335 0.6219 0.06243 0.0
H1286 H 0.69345 0.59526 0.02188 0.0
H1287 H 0.68959 0.67734 0.0385 0.0
C1288 C 0.72562 0.69062 0.03123 0.0
C1289 C 0.74619 0.68421 0.02697 0.0
C1290 C 0.6803 0.60097 0.03095 0.0
C1291 C 0.70508 0.64652 0.03408 0.0
C1292 C 0.65916 0.58288 0.03422 0.0
C1293 C 0.64158 0.58999 0.04537 0.0
C1294 C 0.68369 0.62638 0.03853 0.0
C1295 C 0.64627 0.61541 0.05369 0.0
C1296 C 0.70516 0.67192 0.03494 0.0
C1297 C 0.74526 0.65853 0.02587 0.0
N1298 N 0.66668 0.63264 0.04987 0.0
N1299 N 0.72505 0.64063 0.02934 0.0
H1300 H 0.76472 0.549 0.31191 0.0
H1301 H 0.76192 0.41892 0.24409 0.0
H1302 H 0.70285 0.48526 0.29735 0.0
H1303 H 0.82604 0.47481 0.27124 0.0
H1304 H 0.73969 0.44792 0.25503 0.0
H1305 H 0.78687 0.52638 0.28963 0.0
C1306 C 0.75575 0.53033 0.30386 0.0
C1307 C 0.73199 0.51881 0.30671 0.0
C1308 C 0.75866 0.45405 0.25827 0.0
C1309 C 0.75713 0.49303 0.28111 0.0
C1310 C 0.77133 0.43758 0.25192 0.0
C1311 C 0.79575 0.44444 0.2571 0.0
C1312 C 0.77048 0.4775 0.27003 0.0
C1313 C 0.8072 0.46886 0.26702 0.0
C1314 C 0.7684 0.51748 0.29115 0.0
C1315 C 0.72121 0.4947 0.29582 0.0
N1316 N 0.7944 0.48442 0.27356 0.0
N1317 N 0.7339 0.48256 0.2836 0.0
H1318 H 0.88734 0.42627 0.45103 0.0
H1319 H 0.98432 0.5567 0.49265 0.0
H1320 H 0.87071 0.49218 0.47929 0.0
H1321 H 0.9972 0.48408 0.48622 0.0
H1322 H 0.94352 0.53675 0.4763 0.0
H1323 H 0.92844 0.45121 0.45177 0.0
C1324 C 0.8922 0.44609 0.45694 0.0
C1325 C 0.87565 0.45698 0.46565 0.0
C1326 C 0.95548 0.52535 0.4781 0.0
C1327 C 0.92263 0.48554 0.46663 0.0
C1328 C 0.97867 0.53671 0.48733 0.0
C1329 C 0.99382 0.52185 0.4911 0.0
C1330 C 0.94778 0.49915 0.47234 0.0
C1331 C 0.98582 0.49606 0.48397 0.0
C1332 C 0.91569 0.46029 0.45744 0.0
C1333 C 0.88298 0.48285 0.47289 0.0
N1334 N 0.96331 0.48549 0.47508 0.0
N1335 N 0.90602 0.49618 0.47355 0.0
H1336 H 0.45596 0.14287 0.29926 0.0
H1337 H 0.32417 0.12567 0.25356 0.0
H1338 H 0.40209 0.07123 0.29204 0.0
H1339 H 0.37989 0.19469 0.25126 0.0
H1340 H 0.35361 0.10345 0.26087 0.0
H1341 H 0.42971 0.16085 0.2764 0.0
C1342 C 0.43866 0.13093 0.29277 0.0
C1343 C 0.43098 0.10572 0.2979 0.0
C1344 C 0.35944 0.12335 0.25827 0.0
C1345 C 0.40097 0.12597 0.27174 0.0
C1346 C 0.34262 0.13595 0.2539 0.0
C1347 C 0.34972 0.16207 0.2524 0.0
C1348 C 0.38337 0.13715 0.26137 0.0
C1349 C 0.3738 0.17459 0.25295 0.0
C1350 C 0.42374 0.14111 0.27959 0.0
C1351 C 0.40857 0.09091 0.28879 0.0
N1352 N 0.38981 0.16212 0.2579 0.0
N1353 N 0.39424 0.10135 0.27639 0.0
H1354 H 0.39542 0.21096 0.53313 0.0
H1355 H 0.42083 0.0962 0.59707 0.0
H1356 H 0.34463 0.15842 0.56905 0.0
H1357 H 0.46479 0.13477 0.5468 0.0
H1358 H 0.39572 0.12361 0.59158 0.0
H1359 H 0.42416 0.18802 0.54272 0.0
C1360 C 0.39043 0.19481 0.54324 0.0
C1361 C 0.36759 0.18646 0.55017 0.0
C1362 C 0.41091 0.12615 0.5818 0.0
C1363 C 0.4002 0.16031 0.5612 0.0
C1364 C 0.42521 0.1104 0.58484 0.0
C1365 C 0.44485 0.11291 0.57219 0.0
C1366 C 0.41623 0.14472 0.56605 0.0
C1367 C 0.44994 0.13219 0.55704 0.0
C1368 C 0.40675 0.18168 0.5486 0.0
C1369 C 0.36198 0.16539 0.56317 0.0
N1370 N 0.43565 0.14727 0.5543 0.0
N1371 N 0.37812 0.15306 0.56821 0.0
H1372 H 0.68404 0.64409 0.36741 0.0
H1373 H 0.81119 0.72387 0.33774 0.0
H1374 H 0.74645 0.61981 0.37697 0.0
H1375 H 0.74667 0.73886 0.31371 0.0
H1376 H 0.78884 0.69108 0.36018 0.0
H1377 H 0.70828 0.68501 0.35742 0.0
C1378 C 0.70294 0.6477 0.3683 0.0
C1379 C 0.71326 0.62844 0.37266 0.0
C1380 C 0.77958 0.70161 0.35007 0.0
C1381 C 0.74089 0.67481 0.36074 0.0
C1382 C 0.7923 0.72025 0.33712 0.0
C1383 C 0.78074 0.73385 0.32347 0.0
C1384 C 0.7551 0.69652 0.34947 0.0
C1385 C 0.75626 0.72852 0.32363 0.0
C1386 C 0.71671 0.67092 0.36225 0.0
C1387 C 0.7378 0.63408 0.3734 0.0
N1388 N 0.74423 0.71016 0.33635 0.0
N1389 N 0.75075 0.65662 0.36709 0.0
H1390 H 0.98328 0.49644 0.80439 0.0
H1391 H 0.87473 0.39335 0.84747 0.0
H1392 H 0.96075 0.49945 0.87277 0.0
H1393 H 0.89385 0.39335 0.77739 0.0
H1394 H 0.90942 0.42898 0.85843 0.0
H1395 H 0.95522 0.45441 0.79613 0.0
C1396 C 0.97314 0.48766 0.81799 0.0
C1397 C 0.97451 0.50099 0.8394 0.0
C1398 C 0.90606 0.42118 0.84065 0.0
C1399 C 0.94165 0.45378 0.82983 0.0
C1400 C 0.88614 0.40093 0.83433 0.0
C1401 C 0.8812 0.39047 0.8114 0.0
C1402 C 0.92125 0.43113 0.82397 0.0
C1403 C 0.89679 0.40097 0.79521 0.0
C1404 C 0.95685 0.46392 0.81317 0.0
C1405 C 0.96045 0.4894 0.85621 0.0
N1406 N 0.91609 0.42075 0.8018 0.0
N1407 N 0.94435 0.46655 0.85098 0.0
H1408 H 0.0953 0.9041 0.15685 0.0
H1409 H 0.12954 1.00697 0.06654 0.0
H1410 H 0.13333 0.89158 0.09919 0.0
H1411 H 0.0631 0.99076 0.09632 0.0
H1412 H 0.13666 0.9698 0.08305 0.0
H1413 H 0.08914 0.94129 0.13992 0.0
C1414 C 0.10263 0.90933 0.14076 0.0
C1415 C 0.1149 0.89465 0.12943 0.0
C1416 C 0.12054 0.97441 0.08592 0.0
C1417 C 0.10799 0.93747 0.11007 0.0
C1418 C 0.11648 0.99565 0.07661 0.0
C1419 C 0.09565 1.002 0.08004 0.0
C1420 C 0.10397 0.95975 0.0993 0.0
C1421 C 0.07933 0.98654 0.09315 0.0
C1422 C 0.09892 0.93047 0.13104 0.0
C1423 C 0.12377 0.90232 0.10849 0.0
N1424 N 0.08394 0.96632 0.10251 0.0
N1425 N 0.12031 0.92332 0.09955 0.0
H1426 H 0.98119 0.28101 0.89772 0.0
H1427 H 0.85208 0.29518 0.87038 0.0
H1428 H 0.9384 0.29418 0.95119 0.0
H1429 H 0.90193 0.29689 0.81975 0.0
H1430 H 0.88075 0.28872 0.89989 0.0
H1431 H 0.94962 0.28061 0.86887 0.0
C1432 C 0.9651 0.28365 0.90348 0.0
C1433 C 0.96264 0.28782 0.92705 0.0
C1434 C 0.88529 0.29032 0.88227 0.0
C1435 C 0.92615 0.28746 0.89376 0.0
C1436 C 0.8689 0.29387 0.86538 0.0
C1437 C 0.87463 0.29673 0.84252 0.0
C1438 C 0.90748 0.2894 0.87622 0.0
C1439 C 0.89674 0.29498 0.83713 0.0
C1440 C 0.94703 0.28347 0.88691 0.0
C1441 C 0.94119 0.29101 0.93326 0.0
N1442 N 0.91231 0.29151 0.85382 0.0
N1443 N 0.92382 0.29088 0.91672 0.0
H1444 H 0.59018 0.24531 0.64103 0.0
H1445 H 0.61585 0.13602 0.56008 0.0
H1446 H 0.63584 0.25851 0.58586 0.0
H1447 H 0.56117 0.12089 0.60668 0.0
H1448 H 0.62519 0.1808 0.57184 0.0
H1449 H 0.58094 0.19975 0.63099 0.0
C1450 C 0.5983 0.23871 0.62685 0.0
C1451 C 0.61383 0.25594 0.61429 0.0
C1452 C 0.61116 0.16774 0.57957 0.0
C1453 C 0.60337 0.20372 0.60279 0.0
C1454 C 0.60583 0.14204 0.57289 0.0
C1455 C 0.58764 0.12447 0.58235 0.0
C1456 C 0.59832 0.17623 0.59595 0.0
C1457 C 0.57536 0.13366 0.59892 0.0
C1458 C 0.59297 0.21267 0.62111 0.0
C1459 C 0.62373 0.24612 0.59605 0.0
N1460 N 0.5809 0.15888 0.60517 0.0
N1461 N 0.61838 0.2208 0.59094 0.0
H1462 H 0.61204 0.80673 0.4402 0.0
H1463 H 0.6502 0.78692 0.31294 0.0
H1464 H 0.56289 0.77488 0.38093 0.0
H1465 H 0.69983 0.81288 0.37286 0.0
H1466 H 0.61802 0.78255 0.33767 0.0
H1467 H 0.6445 0.809 0.41603 0.0
C1468 C 0.60807 0.80012 0.42213 0.0
C1469 C 0.5847 0.79066 0.41257 0.0
C1470 C 0.63595 0.78914 0.34544 0.0
C1471 C 0.62175 0.79331 0.38476 0.0
C1472 C 0.65434 0.79178 0.33129 0.0
C1473 C 0.67779 0.80035 0.3408 0.0
C1474 C 0.64095 0.79524 0.36932 0.0
C1475 C 0.68205 0.80597 0.36478 0.0
C1476 C 0.62661 0.80142 0.40833 0.0
C1477 C 0.58061 0.78234 0.38905 0.0
N1478 N 0.66383 0.80343 0.37819 0.0
N1479 N 0.59892 0.78396 0.37596 0.0
H1480 H 0.0405 0.22713 0.46779 0.0
H1481 H 0.08419 0.10089 0.47029 0.0
H1482 H 0.08298 0.2105 0.41563 0.0
H1483 H 0.04463 0.12485 0.52142 0.0
H1484 H 0.0839 0.13844 0.44945 0.0
H1485 H 0.04188 0.18931 0.48575 0.0
C1486 C 0.05024 0.21571 0.45974 0.0
C1487 C 0.06164 0.22322 0.43955 0.0
C1488 C 0.07522 0.13556 0.46518 0.0
C1489 C 0.06322 0.17747 0.46138 0.0
C1490 C 0.0753 0.1138 0.47728 0.0
C1491 C 0.06432 0.10882 0.49809 0.0
C1492 C 0.06401 0.15323 0.47355 0.0
C1493 C 0.05335 0.12709 0.50568 0.0
C1494 C 0.05097 0.1936 0.47038 0.0
C1495 C 0.07373 0.20632 0.43089 0.0
N1496 N 0.0535 0.14789 0.49365 0.0
N1497 N 0.07417 0.18465 0.44171 0.0
H1498 H 0.61427 0.28301 0.21913 0.0
H1499 H 0.75843 0.33686 0.23554 0.0
H1500 H 0.65548 0.33917 0.17903 0.0
H1501 H 0.72113 0.27206 0.26882 0.0
H1502 H 0.7207 0.33936 0.21737 0.0
H1503 H 0.65136 0.28039 0.23977 0.0
C1504 C 0.63084 0.2952 0.2148 0.0
C1505 C 0.63086 0.31161 0.19698 0.0
C1506 C 0.72055 0.32451 0.22863 0.0
C1507 C 0.6747 0.30838 0.22103 0.0
C1508 C 0.74246 0.32302 0.23919 0.0
C1509 C 0.74389 0.30408 0.25407 0.0
C1510 C 0.6989 0.30714 0.23272 0.0
C1511 C 0.72169 0.28705 0.25763 0.0
C1512 C 0.65234 0.29348 0.22658 0.0
C1513 C 0.65374 0.32623 0.19242 0.0
N1514 N 0.70062 0.28901 0.2473 0.0
N1515 N 0.67407 0.32432 0.20409 0.0
H1516 H 0.57635 0.88216 0.89579 0.0
H1517 H 0.57289 0.95969 0.01789 0.0
H1518 H 0.57185 0.84848 0.9605 0.0
H1519 H 0.56065 0.98841 0.95272 0.0
H1520 H 0.57532 0.92067 0.99733 0.0
H1521 H 0.57336 0.92157 0.9157 0.0
C1522 C 0.57476 0.88285 0.91417 0.0
C1523 C 0.57436 0.86126 0.92614 0.0
C1524 C 0.57212 0.93542 0.98738 0.0
C1525 C 0.57114 0.90762 0.94969 0.0
C1526 C 0.57077 0.95806 0.99924 0.0
C1527 C 0.56652 0.97815 0.98742 0.0
C1528 C 0.56958 0.93214 0.96304 0.0
C1529 C 0.56392 0.97394 0.963 0.0
C1530 C 0.57301 0.90562 0.92564 0.0
C1531 C 0.57223 0.86413 0.95015 0.0
N1532 N 0.5656 0.95186 0.95186 0.0
N1533 N 0.57087 0.88648 0.96089 0.0
H1534 H 0.99812 0.76925 0.72843 0.0
H1535 H 0.8885 0.82708 0.74616 0.0
H1536 H 0.97913 0.81724 0.68016 0.0
H1537 H 0.88536 0.75347 0.76755 0.0
H1538 H 0.92426 0.82758 0.72696 0.0
H1539 H 0.96143 0.76682 0.74706 0.0
C1540 C 0.98645 0.77938 0.72154 0.0
C1541 C 0.99261 0.79336 0.70205 0.0
C1542 C 0.91595 0.81123 0.73585 0.0
C1543 C 0.94924 0.79119 0.72465 0.0
C1544 C 0.89517 0.8109 0.7471 0.0
C1545 C 0.88285 0.79016 0.75899 0.0
C1546 C 0.92601 0.79098 0.73654 0.0
C1547 C 0.89341 0.77005 0.75886 0.0
C1548 C 0.96512 0.77791 0.73238 0.0
C1549 C 0.97586 0.80594 0.69474 0.0
N1550 N 0.914 0.77114 0.74834 0.0
N1551 N 0.95572 0.80481 0.70595 0.0
H1552 H 0.21334 0.05481 0.92148 0.0
H1553 H 0.09478 1.01192 0.9841 0.0
H1554 H 0.14781 1.00487 0.88992 0.0
H1555 H 0.15335 0.07623 0.00921 0.0
H1556 H 0.11776 1.00224 0.95379 0.0
H1557 H 0.19533 0.05546 0.95815 0.0
C1558 C 0.19541 0.04341 0.9225 0.0
C1559 C 0.18189 0.0299 0.9028 0.0
C1560 C 0.12563 0.01839 0.96602 0.0
C1561 C 0.16128 0.03072 0.94416 0.0
C1562 C 0.11251 0.02399 0.98331 0.0
C1563 C 0.12198 0.04522 0.99897 0.0
C1564 C 0.14843 0.03411 0.96431 0.0
C1565 C 0.14519 0.05994 0.99725 0.0
C1566 C 0.1851 0.04397 0.94328 0.0
C1567 C 0.15869 1.01567 0.90479 0.0
N1568 N 0.15757 0.05422 0.98008 0.0
N1569 N 0.14905 1.01661 0.92505 0.0
H1570 H 0.83395 0.43198 0.5664 0.0
H1571 H 0.85818 0.31989 0.63492 0.0
H1572 H 0.82948 0.35817 0.5348 0.0
H1573 H 0.86888 0.39507 0.66658 0.0
H1574 H 0.84821 0.33412 0.59794 0.0
H1575 H 0.84652 0.41908 0.60336 0.0
C1576 C 0.83554 0.41308 0.5672 0.0
C1577 C 0.83062 0.39616 0.5474 0.0
C1578 C 0.85286 0.34758 0.61294 0.0
C1579 C 0.84508 0.38136 0.58959 0.0
C1580 C 0.85878 0.3395 0.63405 0.0
C1581 C 0.86439 0.35629 0.65393 0.0
C1582 C 0.85241 0.37263 0.61161 0.0
C1583 C 0.86436 0.38138 0.65177 0.0
C1584 C 0.8428 0.40577 0.58829 0.0
C1585 C 0.83307 0.37192 0.54952 0.0
N1586 N 0.85835 0.38876 0.63101 0.0
N1587 N 0.84009 0.36528 0.5702 0.0
H1588 H 0.53006 0.10705 0.38231 0.0
H1589 H 0.5145 0.08364 0.51418 0.0
H1590 H 0.46223 0.08581 0.40957 0.0
H1591 H 0.57399 0.07627 0.47898 0.0
H1592 H 0.49795 0.09563 0.47871 0.0
H1593 H 0.54886 0.10774 0.42075 0.0
C1594 C 0.51911 0.10283 0.39648 0.0
C1595 C 0.49452 0.09584 0.39277 0.0
C1596 C 0.51472 0.09162 0.47888 0.0
C1597 C 0.51599 0.09659 0.43669 0.0
C1598 C 0.52423 0.08482 0.49908 0.0
C1599 C 0.54555 0.07865 0.49939 0.0
C1600 C 0.52673 0.09251 0.45902 0.0
C1601 C 0.55739 0.08057 0.47938 0.0
C1602 C 0.52989 0.10321 0.41838 0.0
C1603 C 0.48123 0.09103 0.41175 0.0
N1604 N 0.54775 0.08725 0.45991 0.0
N1605 N 0.49217 0.09118 0.433 0.0
H1606 H 0.83481 0.72374 0.10781 0.0
H1607 H 0.79404 0.80005 0.21074 0.0
H1608 H 0.80096 0.78202 0.09807 0.0
H1609 H 0.8352 0.74879 0.22332 0.0
H1610 H 0.79542 0.79204 0.16942 0.0
H1611 H 0.83458 0.73134 0.14973 0.0
C1612 C 0.82745 0.73822 0.11438 0.0
C1613 C 0.81792 0.75224 0.0991 0.0
C1614 C 0.80415 0.78246 0.18114 0.0
C1615 C 0.81738 0.76087 0.14737 0.0
C1616 C 0.80331 0.78698 0.20489 0.0
C1617 C 0.81446 0.77507 0.22083 0.0
C1618 C 0.81619 0.76578 0.17285 0.0
C1619 C 0.82625 0.75839 0.21185 0.0
C1620 C 0.82729 0.74251 0.13839 0.0
C1621 C 0.80858 0.77069 0.10891 0.0
N1622 N 0.82678 0.75424 0.18856 0.0
N1623 N 0.80848 0.77433 0.13222 0.0
H1624 H 0.18082 0.05359 0.77345 0.0
H1625 H 0.09444 0.11657 0.70439 0.0
H1626 H 0.12983 0.08385 0.80464 0.0
H1627 H 0.1291 0.06726 0.67116 0.0
H1628 H 0.11289 0.11086 0.74154 0.0
H1629 H 0.16718 0.06424 0.73577 0.0
C1630 C 0.16682 0.06247 0.77239 0.0
C1631 C 0.15626 0.06757 0.79216 0.0
C1632 C 0.11656 0.10143 0.72607 0.0
C1633 C 0.14091 0.08005 0.74941 0.0
C1634 C 0.10599 0.10463 0.70489 0.0
C1635 C 0.11005 0.0922 0.68467 0.0
C1636 C 0.13133 0.08573 0.72704 0.0
C1637 C 0.12561 0.07738 0.68629 0.0
C1638 C 0.15906 0.06853 0.75094 0.0
C1639 C 0.13826 0.07922 0.78984 0.0
N1640 N 0.13558 0.07442 0.70715 0.0
N1641 N 0.13119 0.08507 0.76887 0.0
H1642 H 0.7608 0.38241 0.4456 0.0
H1643 H 0.82397 0.38183 0.33091 0.0
H1644 H 0.80861 0.44931 0.42373 0.0
H1645 H 0.76703 0.31986 0.34853 0.0
H1646 H 0.81584 0.40853 0.36224 0.0
H1647 H 0.7591 0.36118 0.4075 0.0
C1648 C 0.77046 0.3928 0.43246 0.0
C1649 C 0.78485 0.41753 0.43764 0.0
C1650 C 0.80497 0.38917 0.35906 0.0
C1651 C 0.78381 0.39315 0.39431 0.0
C1652 C 0.80969 0.37386 0.34128 0.0
C1653 C 0.79647 0.3484 0.3374 0.0
C1654 C 0.787 0.37889 0.37311 0.0
C1655 C 0.77792 0.33924 0.35108 0.0
C1656 C 0.76961 0.38067 0.41075 0.0
C1657 C 0.79717 0.43024 0.42021 0.0
N1658 N 0.77393 0.35439 0.36848 0.0
N1659 N 0.79677 0.41769 0.39936 0.0
H1660 H 0.47717 0.06446 0.26104 0.0
H1661 H 0.58605 0.07649 0.18577 0.0
H1662 H 0.54974 0.08898 0.28928 0.0
H1663 H 0.51459 0.03348 0.16371 0.0
H1664 H 0.57242 0.09195 0.22102 0.0
H1665 H 0.49036 0.06414 0.22238 0.0
C1666 C 0.49586 0.06997 0.25912 0.0
C1667 C 0.51239 0.07604 0.2784 0.0
C1668 C 0.55975 0.07935 0.2083 0.0
C1669 C 0.5275 0.0758 0.23439 0.0
C1670 C 0.56751 0.07056 0.18834 0.0
C1671 C 0.55142 0.05324 0.1724 0.0
C1672 C 0.5358 0.07083 0.21196 0.0
C1673 C 0.52754 0.0463 0.17607 0.0
C1674 C 0.50336 0.06983 0.23708 0.0
C1675 C 0.53638 0.08353 0.2749 0.0
N1676 N 0.52044 0.05495 0.19561 0.0
N1677 N 0.54324 0.08289 0.25327 0.0
H1678 H 0.81354 0.69614 0.9549 0.0
H1679 H 0.84748 0.80779 0.87007 0.0
H1680 H 0.83306 0.77451 0.98014 0.0
H1681 H 0.81154 0.73026 0.84707 0.0
H1682 H 0.84633 0.79634 0.91023 0.0
H1683 H 0.81611 0.70861 0.91548 0.0
C1684 C 0.81831 0.71604 0.95219 0.0
C1685 C 0.823 0.73424 0.97108 0.0
C1686 C 0.83883 0.78183 0.89636 0.0
C1687 C 0.82633 0.74884 0.9254 0.0
C1688 C 0.83968 0.7883 0.87335 0.0
C1689 C 0.82971 0.77 0.8549 0.0
C1690 C 0.82815 0.75675 0.90113 0.0
C1691 C 0.81953 0.74512 0.8605 0.0
C1692 C 0.81979 0.72317 0.92956 0.0
C1693 C 0.82913 0.75976 0.96622 0.0
N1694 N 0.81907 0.73931 0.88291 0.0
N1695 N 0.83074 0.76628 0.94396 0.0
H1696 H 0.83354 0.08162 0.05614 0.0
H1697 H 0.96357 0.06896 0.07239 0.0
H1698 H 0.89499 0.14481 0.07509 0.0
H1699 H 0.9099 0.01895 0.02427 0.0
H1700 H 0.93587 0.09216 0.08215 0.0
H1701 H 0.85902 0.05396 0.05274 0.0
C1702 C 0.85235 0.08958 0.05991 0.0
C1703 C 0.86225 0.11552 0.06576 0.0
C1704 C 0.93009 0.07595 0.06964 0.0
C1705 C 0.89125 0.08412 0.06213 0.0
C1706 C 0.94579 0.06256 0.06419 0.0
C1707 C 0.93898 0.042 0.04747 0.0
C1708 C 0.90733 0.06862 0.05846 0.0
C1709 C 0.91585 0.03481 0.03713 0.0
C1710 C 0.86682 0.07385 0.05785 0.0
C1711 C 0.8867 0.12494 0.07036 0.0
N1712 N 0.90079 0.04815 0.04277 0.0
N1713 N 0.90038 0.10923 0.06846 0.0
H1714 H 0.41096 0.38554 0.01157 0.0
H1715 H 0.48692 0.52823 0.04728 0.0
H1716 H 0.38652 0.43909 0.05207 0.0
H1717 H 0.50816 0.47942 0.9984 0.0
H1718 H 0.44946 0.49598 0.04802 0.0
H1719 H 0.44664 0.4193 1.0063 0.0
C1720 C 0.41314 0.4043 0.01949 0.0
C1721 C 0.39571 0.40938 0.03241 0.0
C1722 C 0.46215 0.49237 0.03688 0.0
C1723 C 0.43638 0.44815 0.02621 0.0
C1724 C 0.48354 0.51087 0.03637 0.0
C1725 C 0.50078 0.50652 0.0228 0.0
C1726 C 0.45797 0.4691 0.02398 0.0
C1727 C 0.49536 0.48365 0.00901 0.0
C1728 C 0.43343 0.42361 0.01631 0.0
C1729 C 0.39943 0.43417 0.04203 0.0
N1730 N 0.47455 0.46564 0.01019 0.0
N1731 N 0.41931 0.45252 0.03878 0.0
H1732 H 0.38034 0.57369 0.73592 0.0
H1733 H 0.35521 0.68054 0.81935 0.0
H1734 H 0.43347 0.62652 0.7826 0.0
H1735 H 0.303 0.63251 0.76864 0.0
H1736 H 0.38369 0.65975 0.80688 0.0
H1737 H 0.35175 0.5951 0.7472 0.0
C1738 C 0.38607 0.59002 0.74831 0.0
C1739 C 0.40927 0.59829 0.75844 0.0
C1740 C 0.36598 0.65365 0.79853 0.0
C1741 C 0.3766 0.62254 0.7717 0.0
C1742 C 0.3496 0.66526 0.80587 0.0
C1743 C 0.32665 0.65812 0.79509 0.0
C1744 C 0.35941 0.63474 0.78026 0.0
C1745 C 0.32056 0.63866 0.77732 0.0
C1746 C 0.36971 0.60214 0.75483 0.0
C1747 C 0.41575 0.61951 0.77438 0.0
N1748 N 0.33688 0.62765 0.77041 0.0
N1749 N 0.39943 0.63078 0.78067 0.0
H1750 H 0.22812 0.67126 0.58921 0.0
H1751 H 0.14112 0.54896 0.52654 0.0
H1752 H 0.25221 0.60928 0.56334 0.0
H1753 H 0.11939 0.58926 0.58226 0.0
H1754 H 0.18207 0.57191 0.53872 0.0
H1755 H 0.18792 0.64288 0.58609 0.0
C1756 C 0.22501 0.65167 0.58313 0.0
C1757 C 0.2435 0.64268 0.57632 0.0
C1758 C 0.16836 0.57542 0.54852 0.0
C1759 C 0.19777 0.61041 0.5725 0.0
C1760 C 0.14505 0.5624 0.54155 0.0
C1761 C 0.12698 0.56732 0.55343 0.0
C1762 C 0.17355 0.59395 0.56708 0.0
C1763 C 0.13291 0.5849 0.57275 0.0
C1764 C 0.20214 0.6355 0.58149 0.0
C1765 C 0.23851 0.61707 0.56872 0.0
N1766 N 0.15576 0.59801 0.57875 0.0
N1767 N 0.21605 0.60194 0.56665 0.0
H1768 H 0.74313 0.02249 0.75357 0.0
H1769 H 0.77928 0.93401 0.84321 0.0
H1770 H 0.70105 0.99152 0.80811 0.0
H1771 H 0.81252 0.95078 0.78022 0.0
H1772 H 0.75216 0.95784 0.83202 0.0
H1773 H 0.76983 0.99779 0.76368 0.0
C1774 C 0.73936 1.01025 0.76748 0.0
C1775 C 0.71997 1.00912 0.78013 0.0
C1776 C 0.76545 0.95638 0.82069 0.0
C1777 C 0.75056 0.98128 0.79202 0.0
C1778 C 0.78096 0.94287 0.82711 0.0
C1779 C 0.79812 0.94039 0.8126 0.0
C1780 C 0.76719 0.96753 0.79966 0.0
C1781 C 0.79975 0.95251 0.79207 0.0
C1782 C 0.75464 0.99626 0.7733 0.0
C1783 C 0.71584 0.99296 0.79795 0.0
N1784 N 0.78439 0.9655 0.78616 0.0
N1785 N 0.73117 0.97983 0.80352 0.0
H1786 H 0.74226 0.88488 0.53778 0.0
H1787 H 0.72507 0.02162 0.56285 0.0
H1788 H 0.79672 0.94971 0.56928 0.0
H1789 H 0.66856 0.95641 0.53567 0.0
H1790 H 0.75104 0.99483 0.56681 0.0
H1791 H 0.71424 0.90977 0.53884 0.0
C1792 C 0.74825 0.90422 0.54519 0.0
C1793 C 0.77189 0.91528 0.55332 0.0
C1794 C 0.73293 0.98631 0.56007 0.0
C1795 C 0.74006 0.94391 0.55437 0.0
C1796 C 0.71814 1.00165 0.55767 0.0
C1797 C 0.69464 0.99129 0.54877 0.0
C1798 C 0.72428 0.96037 0.55338 0.0
C1799 C 0.68651 0.96518 0.54274 0.0
C1800 C 0.73228 0.91845 0.54572 0.0
C1801 C 0.7787 0.94043 0.56269 0.0
N1802 N 0.70134 0.95065 0.545 0.0
N1803 N 0.76294 0.95392 0.56279 0.0
H1804 H 0.46246 0.45843 0.74845 0.0
H1805 H 0.33299 0.38076 0.77045 0.0
H1806 H 0.40263 0.48704 0.73737 0.0
H1807 H 0.38874 0.3463 0.76199 0.0
H1808 H 0.35813 0.4199 0.75782 0.0
H1809 H 0.43561 0.41672 0.75212 0.0
C1810 C 0.44371 0.45589 0.74639 0.0
C1811 C 0.43484 0.47637 0.74287 0.0
C1812 C 0.36473 0.40366 0.75854 0.0
C1813 C 0.40406 0.42883 0.74749 0.0
C1814 C 0.35044 0.38139 0.76587 0.0
C1815 C 0.35882 0.36031 0.76747 0.0
C1816 C 0.38762 0.40489 0.75306 0.0
C1817 C 0.38154 0.36211 0.76113 0.0
C1818 C 0.42838 0.43207 0.74854 0.0
C1819 C 0.41033 0.47188 0.74026 0.0
N1820 N 0.39522 0.38407 0.75443 0.0
N1821 N 0.39581 0.44869 0.74299 0.0
H1822 H 0.252 0.60492 0.26633 0.0
H1823 H 0.25717 0.74282 0.31843 0.0
H1824 H 0.20313 0.61822 0.31349 0.0
H1825 H 0.31102 0.72579 0.2801 0.0
H1826 H 0.23584 0.69789 0.31547 0.0
H1827 H 0.27215 0.64968 0.26958 0.0
C1828 C 0.24539 0.61724 0.27737 0.0
C1829 C 0.22576 0.60765 0.2897 0.0
C1830 C 0.25233 0.70401 0.30774 0.0
C1831 C 0.24907 0.65935 0.29352 0.0
C1832 C 0.26451 0.72966 0.30936 0.0
C1833 C 0.28591 0.7381 0.29941 0.0
C1834 C 0.26153 0.68671 0.29597 0.0
C1835 C 0.29462 0.72017 0.28802 0.0
C1836 C 0.25703 0.64289 0.27925 0.0
C1837 C 0.21816 0.62473 0.30366 0.0
N1838 N 0.28235 0.69536 0.28656 0.0
N1839 N 0.22985 0.64981 0.30521 0.0
H1840 H 0.56227 0.72877 0.4612 0.0
H1841 H 0.5288 0.60418 0.52896 0.0
H1842 H 0.5063 0.71181 0.50622 0.0
H1843 H 0.59933 0.63678 0.51042 0.0
H1844 H 0.51767 0.6399 0.51453 0.0
H1845 H 0.57339 0.69151 0.47291 0.0
C1846 C 0.55215 0.71708 0.47331 0.0
C1847 C 0.53332 0.72347 0.48276 0.0
C1848 C 0.53558 0.63925 0.51357 0.0
C1849 C 0.54588 0.68085 0.49608 0.0
C1850 C 0.54198 0.61878 0.52174 0.0
C1851 C 0.56513 0.61744 0.521 0.0
C1852 C 0.55227 0.6585 0.50419 0.0
C1853 C 0.58135 0.63708 0.51147 0.0
C1854 C 0.55862 0.69596 0.4801 0.0
C1855 C 0.52099 0.70773 0.49856 0.0
N1856 N 0.5746 0.65677 0.50334 0.0
N1857 N 0.52741 0.68717 0.50461 0.0
H1858 H 0.67078 0.34345 0.70403 0.0
H1859 H 0.80358 0.33987 0.7205 0.0
H1860 H 0.71594 0.35104 0.64847 0.0
H1861 H 0.76513 0.3527 0.77776 0.0
H1862 H 0.77162 0.34395 0.69394 0.0
H1863 H 0.70474 0.34657 0.73136 0.0
C1864 C 0.68782 0.34593 0.69755 0.0
C1865 C 0.69039 0.34687 0.67381 0.0
C1866 C 0.77024 0.34616 0.7123 0.0
C1867 C 0.72939 0.35027 0.70511 0.0
C1868 C 0.78852 0.34384 0.72751 0.0
C1869 C 0.78705 0.34591 0.75143 0.0
C1870 C 0.75007 0.35018 0.72098 0.0
C1871 C 0.76708 0.3511 0.75947 0.0
C1872 C 0.70724 0.34777 0.71321 0.0
C1873 C 0.71302 0.3502 0.66655 0.0
N1874 N 0.74925 0.35274 0.74428 0.0
N1875 N 0.73153 0.35153 0.68207 0.0
H1876 H 1.02824 0.37557 0.94694 0.0
H1877 H 0.08411 0.47051 0.05528 0.0
H1878 H 0.04803 0.34914 0.01113 0.0
H1879 H 1.02787 0.48254 0.0112 0.0
H1880 H 0.07563 0.42776 0.03658 0.0
H1881 H 0.03216 0.4169 0.96728 0.0
C1882 C 0.0333 0.37843 0.9653 0.0
C1883 C 0.03781 0.3589 0.97737 0.0
C1884 C 0.06504 0.43971 0.03112 0.0
C1885 C 0.0428 0.40613 1.00053 0.0
C1886 C 0.0699 0.46409 0.04173 0.0
C1887 C 0.05659 0.48004 0.03484 0.0
C1888 C 0.04721 0.4314 0.013 0.0
C1889 C 0.03839 0.47075 0.01716 0.0
C1890 C 0.03544 0.40194 0.97688 0.0
C1891 C 0.04429 0.36362 1.00117 0.0
N1892 N 0.03443 0.44715 1.00659 0.0
N1893 N 0.04693 0.38684 0.0119 0.0
H1894 H 0.03341 0.81682 0.15115 0.0
H1895 H 0.9727 0.75694 0.26105 0.0
H1896 H 0.07023 0.7911 0.20647 0.0
H1897 H 0.94299 0.80131 0.21617 0.0
H1898 H 1.00622 0.76347 0.2379 0.0
H1899 H 0.99763 0.80498 0.17131 0.0
C1900 C 0.0339 0.80842 0.16741 0.0
C1901 C 0.05485 0.80506 0.17723 0.0
C1902 C 0.9923 0.77167 0.23308 0.0
C1903 C 1.01404 0.79152 0.20035 0.0
C1904 C 0.97319 0.76808 0.24636 0.0
C1905 C 0.955 0.77878 0.24074 0.0
C1906 C 0.99325 0.78593 0.21389 0.0
C1907 C 0.95641 0.79248 0.2211 0.0
C1908 C 1.01351 0.80179 0.17894 0.0
C1909 C 0.0545 0.79416 0.19835 0.0
N1910 N 0.97523 0.79573 0.20845 0.0
N1911 N 0.03444 0.78783 0.20923 0.0
H1912 H 0.56726 0.35305 0.10775 0.0
H1913 H 0.57319 0.50267 0.11254 0.0
H1914 H 0.56334 0.39504 0.17092 0.0
H1915 H 0.57265 0.45783 0.04971 0.0
H1916 H 0.57082 0.46509 0.13418 0.0
H1917 H 0.5704 0.39119 0.0871 0.0
C1918 C 0.56716 0.37022 0.11751 0.0
C1919 C 0.56505 0.37001 0.14158 0.0
C1920 C 0.57127 0.46335 0.11566 0.0
C1921 C 0.56871 0.41534 0.11715 0.0
C1922 C 0.5727 0.48512 0.10309 0.0
C1923 C 0.57326 0.48428 0.07877 0.0
C1924 C 0.57041 0.43976 0.10427 0.0
C1925 C 0.57238 0.4602 0.06821 0.0
C1926 C 0.56893 0.3923 0.10549 0.0
C1927 C 0.56498 0.39358 0.15258 0.0
N1928 N 0.57106 0.43949 0.08077 0.0
N1929 N 0.56677 0.41479 0.1405 0.0
H1930 H 1.01038 0.30779 0.34469 0.0
H1931 H 0.86663 0.2732 0.34453 0.0
H1932 H 0.97108 0.2721 0.39885 0.0
H1933 H 0.90388 0.3204 0.29526 0.0
H1934 H 0.90441 0.27027 0.36223 0.0
H1935 H 0.97291 0.30986 0.3244 0.0
C1936 C 0.99408 0.29986 0.35227 0.0
C1937 C 0.99477 0.28939 0.37388 0.0
C1938 C 0.90454 0.28132 0.34753 0.0
C1939 C 0.95049 0.29212 0.3502 0.0
C1940 C 0.8826 0.28305 0.33723 0.0
C1941 C 0.88113 0.29725 0.31802 0.0
C1942 C 0.92619 0.2936 0.33886 0.0
C1943 C 0.90334 0.30925 0.30992 0.0
C1944 C 0.97239 0.30133 0.34064 0.0
C1945 C 0.97227 0.28025 0.38241 0.0
N1946 N 0.92441 0.30712 0.32013 0.0
N1947 N 0.95173 0.28174 0.37083 0.0
H1948 H 0.04619 0.7109 0.65707 0.0
H1949 H 0.06647 0.6387 0.53746 0.0
H1950 H 0.05876 0.74465 0.59278 0.0
H1951 H 0.04007 0.5963 0.59428 0.0
H1952 H 0.06503 0.67735 0.5592 0.0
H1953 H 0.04427 0.66944 0.6368 0.0
C1954 C 0.04812 0.70984 0.63877 0.0
C1955 C 0.05257 0.73218 0.62702 0.0
C1956 C 0.05946 0.65968 0.56709 0.0
C1957 C 0.05107 0.68388 0.60334 0.0
C1958 C 0.06031 0.63727 0.5545 0.0
C1959 C 0.05329 0.61342 0.56353 0.0
C1960 C 0.05179 0.65922 0.58954 0.0
C1961 C 0.04558 0.61378 0.5861 0.0
C1962 C 0.04727 0.68594 0.62711 0.0
C1963 C 0.05537 0.72865 0.60314 0.0
N1964 N 0.04515 0.63594 0.59814 0.0
N1965 N 0.05475 0.70567 0.59252 0.0
H1966 H 0.62083 0.77213 0.83617 0.0
H1967 H 0.76487 0.82561 0.84233 0.0
H1968 H 0.66211 0.81722 0.89509 0.0
H1969 H 0.72506 0.76662 0.79199 0.0
H1970 H 0.72817 0.82525 0.85984 0.0
H1971 H 0.65751 0.77218 0.81867 0.0
C1972 C 0.63745 0.78214 0.84565 0.0
C1973 C 0.63737 0.79461 0.86766 0.0
C1974 C 0.72724 0.81234 0.84492 0.0
C1975 C 0.68123 0.79507 0.84669 0.0
C1976 C 0.74856 0.81257 0.83465 0.0
C1977 C 0.74909 0.79616 0.81512 0.0
C1978 C 0.70514 0.79578 0.83589 0.0
C1979 C 0.72646 0.77983 0.80677 0.0
C1980 C 0.65876 0.78214 0.83544 0.0
C1981 C 0.66037 0.80712 0.87833 0.0
N1982 N 0.70602 0.78021 0.81689 0.0
N1983 N 0.68074 0.80712 0.86792 0.0
H1984 H 0.45741 0.5658 0.67932 0.0
H1985 H 0.57347 0.61304 0.61469 0.0
H1986 H 0.52501 0.60819 0.71291 0.0
H1987 H 0.51468 0.54814 0.59176 0.0
H1988 H 0.55101 0.62347 0.64547 0.0
H1989 H 0.4734 0.5729 0.64187 0.0
C1990 C 0.47533 0.57746 0.67876 0.0
C1991 C 0.49015 0.58598 0.69908 0.0
C1992 C 0.54295 0.60723 0.63339 0.0
C1993 C 0.50845 0.59387 0.65669 0.0
C1994 C 0.55576 0.60118 0.61593 0.0
C1995 C 0.54611 0.57937 0.60099 0.0
C1996 C 0.52031 0.59149 0.6357 0.0
C1997 C 0.52298 0.56486 0.60317 0.0
C1998 C 0.48448 0.5813 0.65745 0.0
C1999 C 0.51322 0.60092 0.69752 0.0
N2000 N 0.51094 0.57106 0.62036 0.0
N2001 N 0.52184 0.60403 0.67665 0.0
H2002 H 0.83208 0.23069 0.03135 0.0
H2003 H 0.7689 0.22677 0.90522 0.0
H2004 H 0.80326 0.16186 0.98742 0.0
H2005 H 0.80554 0.29519 0.9472 0.0
H2006 H 0.77818 0.20219 0.93608 0.0
H2007 H 0.81984 0.25416 1.0014 0.0
C2008 C 0.82325 0.22051 0.01531 0.0
C2009 C 0.81873 0.1943 0.01181 0.0
C2010 C 0.78401 0.22258 0.93856 0.0
C2011 C 0.80449 0.2211 0.97741 0.0
C2012 C 0.77874 0.23663 0.92097 0.0
C2013 C 0.78653 0.26312 0.92356 0.0
C2014 C 0.79716 0.23512 0.95888 0.0
C2015 C 0.79889 0.27486 0.94448 0.0
C2016 C 0.81621 0.23394 0.99822 0.0
C2017 C 0.8072 0.1821 0.99072 0.0
N2018 N 0.80392 0.26078 0.96124 0.0
N2019 N 0.80042 0.19562 0.97427 0.0
H2020 H 0.18966 0.51452 0.20076 0.0
H2021 H 0.06846 0.51896 0.1364 0.0
H2022 H 0.12706 0.51067 0.23542 0.0
H2023 H 0.13487 0.53579 0.10642 0.0
H2024 H 0.08716 0.50655 0.17076 0.0
H2025 H 0.16701 0.51231 0.16393 0.0
C2026 C 0.17111 0.51293 0.20065 0.0
C2027 C 0.1604 0.5134 0.22127 0.0
C2028 C 0.09751 0.51274 0.15652 0.0
C2029 C 0.13443 0.51105 0.17916 0.0
C2030 C 0.08687 0.5198 0.13697 0.0
C2031 C 0.1003 0.52893 0.11884 0.0
C2032 C 0.12161 0.51465 0.15768 0.0
C2033 C 0.12402 0.52944 0.12026 0.0
C2034 C 0.15818 0.51169 0.1796 0.0
C2035 C 0.13618 0.51083 0.21999 0.0
N2036 N 0.13394 0.52259 0.13942 0.0
N2037 N 0.12407 0.51014 0.19928 0.0
H2038 H 0.80567 0.88837 0.4657 0.0
H2039 H 0.85175 0.80594 0.37351 0.0
H2040 H 0.83348 0.82878 0.4873 0.0
H2041 H 0.79517 0.83811 0.35764 0.0
H2042 H 0.85125 0.8186 0.41474 0.0
H2043 H 0.80774 0.87482 0.42559 0.0
C2044 C 0.81227 0.8724 0.46203 0.0
C2045 C 0.81929 0.85963 0.48 0.0
C2046 C 0.839 0.82286 0.40215 0.0
C2047 C 0.82205 0.84416 0.43368 0.0
C2048 C 0.8394 0.81584 0.37862 0.0
C2049 C 0.82351 0.821 0.36199 0.0
C2050 C 0.82299 0.83565 0.40903 0.0
C2051 C 0.80774 0.83365 0.36973 0.0
C2052 C 0.81339 0.86464 0.43904 0.0
C2053 C 0.82769 0.83904 0.47401 0.0
N2054 N 0.80801 0.84066 0.39252 0.0
N2055 N 0.82901 0.83204 0.45135 0.0
H2056 H 0.43943 0.52533 0.82471 0.0
H2057 H 0.54936 0.48109 0.87126 0.0
H2058 H 0.50494 0.53936 0.79321 0.0
H2059 H 0.49938 0.49678 0.91584 0.0
H2060 H 0.52649 0.49032 0.83829 0.0
H2061 H 0.45557 0.50406 0.85474 0.0
C2062 C 0.45711 0.52384 0.82406 0.0
C2063 C 0.47094 0.53425 0.80657 0.0
C2064 C 0.52038 0.49131 0.85529 0.0
C2065 C 0.4891 0.50958 0.84023 0.0
C2066 C 0.5334 0.48608 0.87408 0.0
C2067 C 0.52656 0.48868 0.8964 0.0
C2068 C 0.50036 0.49907 0.85885 0.0
C2069 C 0.50536 0.49453 0.89896 0.0
C2070 C 0.46622 0.51165 0.84107 0.0
C2071 C 0.49368 0.53171 0.80639 0.0
N2072 N 0.49315 0.49989 0.88042 0.0
N2073 N 0.50203 0.51961 0.82296 0.0
H2074 H 0.81358 0.16169 0.13999 0.0
H2075 H 0.80914 0.21926 0.2476 0.0
H2076 H 0.86903 0.22879 0.13074 0.0
H2077 H 0.85361 0.28527 0.22059 0.0
H2078 H 0.81751 0.19308 0.21618 0.0
H2079 H 0.81471 0.17611 0.18047 0.0
C2080 C 0.82671 0.17895 0.14681 0.0
C2081 C 0.841 0.19431 0.13209 0.0
C2082 C 0.82539 0.21325 0.21699 0.0
C2083 C 0.84234 0.21127 0.17825 0.0
C2084 C 0.82067 0.22826 0.23506 0.0
C2085 C 0.83013 0.25462 0.23638 0.0
C2086 C 0.83962 0.22477 0.20009 0.0
C2087 C 0.84541 0.26514 0.22 0.0
C2088 C 0.82728 0.18737 0.16999 0.0
C2089 C 0.85751 0.21661 0.14157 0.0
N2090 N 0.84945 0.25022 0.20249 0.0
N2091 N 0.85743 0.22463 0.16393 0.0
H2092 H 0.1965 0.49254 0.33487 0.0
H2093 H 0.17973 0.60414 0.41487 0.0
H2094 H 0.24138 0.56865 0.33517 0.0
H2095 H 0.14708 0.52548 0.42334 0.0
H2096 H 0.20583 0.59182 0.38879 0.0
H2097 H 0.18253 0.50377 0.37113 0.0
C2098 C 0.20397 0.51144 0.34309 0.0
C2099 C 0.22011 0.52969 0.33227 0.0
C2100 C 0.19323 0.57731 0.39671 0.0
C2101 C 0.20343 0.54314 0.37306 0.0
C2102 C 0.17819 0.58432 0.4114 0.0
C2103 C 0.16104 0.56581 0.42113 0.0
C2104 C 0.19088 0.55162 0.39154 0.0
C2105 C 0.16009 0.54043 0.41638 0.0
C2106 C 0.19588 0.51796 0.36369 0.0
C2107 C 0.22908 0.55403 0.34327 0.0
N2108 N 0.17458 0.53411 0.40174 0.0
N2109 N 0.22018 0.56027 0.36288 0.0
H2110 H 0.81915 0.80612 0.60068 0.0
H2111 H 0.81671 0.85693 0.73146 0.0
H2112 H 0.81809 0.88248 0.61762 0.0
H2113 H 0.79332 0.77832 0.70638 0.0
H2114 H 0.81968 0.86815 0.69121 0.0
H2115 H 0.81299 0.79701 0.64056 0.0
C2116 C 0.81766 0.82105 0.61276 0.0
C2117 C 0.81915 0.84514 0.60555 0.0
C2118 C 0.81367 0.84848 0.69462 0.0
C2119 C 0.81219 0.83476 0.65182 0.0
C2120 C 0.81186 0.84204 0.71761 0.0
C2121 C 0.80479 0.81658 0.72258 0.0
C2122 C 0.80871 0.82932 0.67646 0.0
C2123 C 0.79896 0.7982 0.70371 0.0
C2124 C 0.81403 0.81578 0.63561 0.0
C2125 C 0.81697 0.8636 0.62225 0.0
N2126 N 0.80128 0.80491 0.68175 0.0
N2127 N 0.81378 0.8581 0.64458 0.0
H2128 H 0.81144 0.51199 0.54056 0.0
H2129 H 0.69012 0.51849 0.58636 0.0
H2130 H 0.74882 0.44877 0.53682 0.0
H2131 H 0.75031 0.58376 0.5853 0.0
H2132 H 0.71388 0.49159 0.57482 0.0
H2133 H 0.79163 0.53729 0.56274 0.0
C2134 C 0.7936 0.50336 0.54459 0.0
C2135 C 0.78163 0.47834 0.5366 0.0
C2136 C 0.72202 0.51177 0.57739 0.0
C2137 C 0.75891 0.50715 0.56193 0.0
C2138 C 0.7085 0.52719 0.58425 0.0
C2139 C 0.71817 0.55352 0.58668 0.0
C2140 C 0.74536 0.52268 0.57272 0.0
C2141 C 0.74201 0.56361 0.58324 0.0
C2142 C 0.78231 0.51781 0.55725 0.0
C2143 C 0.75861 0.46807 0.54244 0.0
N2144 N 0.75473 0.54818 0.57618 0.0
N2145 N 0.74794 0.48258 0.5546 0.0
H2146 H 0.25804 0.1527 0.51868 0.0
H2147 H 0.13241 0.11886 0.56773 0.0
H2148 H 0.22204 0.20805 0.53496 0.0
H2149 H 0.15373 0.06411 0.52551 0.0
H2150 H 0.16861 0.15066 0.56148 0.0
H2151 H 0.22271 0.11919 0.52533 0.0
C2152 C 0.24264 0.15781 0.52347 0.0
C2153 C 0.24299 0.18326 0.52623 0.0
C2154 C 0.16544 0.13166 0.55368 0.0
C2155 C 0.20278 0.14501 0.53437 0.0
C2156 C 0.14483 0.11334 0.55739 0.0
C2157 C 0.13982 0.08867 0.54697 0.0
C2158 C 0.18146 0.12536 0.53967 0.0
C2159 C 0.15679 0.08283 0.53386 0.0
C2160 C 0.22253 0.13866 0.52728 0.0
C2161 C 0.22254 0.18873 0.53246 0.0
N2162 N 0.17685 0.10108 0.53052 0.0
N2163 N 0.20336 0.16979 0.53655 0.0
H2164 H 0.26757 0.04706 0.81678 0.0
H2165 H 0.26704 0.92663 0.73488 0.0
H2166 H 0.2056 0.98436 0.7981 0.0
H2167 H 0.32786 0.97006 0.77924 0.0
H2168 H 0.24511 0.95467 0.74913 0.0
H2169 H 0.29041 0.02529 0.7945 0.0
C2170 C 0.25873 0.02881 0.80781 0.0
C2171 C 0.23473 1.01732 0.80945 0.0
C2172 C 0.26337 0.9582 0.75543 0.0
C2173 C 0.26063 0.99265 0.78377 0.0
C2174 C 0.27591 0.94223 0.74736 0.0
C2175 C 0.29923 0.9456 0.75624 0.0
C2176 C 0.27431 0.97792 0.77221 0.0
C2177 C 0.30998 0.96665 0.77186 0.0
C2178 C 0.27177 1.01645 0.79515 0.0
C2179 C 0.22413 0.99371 0.79748 0.0
N2180 N 0.29734 0.98187 0.77953 0.0
N2181 N 0.23718 0.9821 0.78513 0.0
H2182 H 0.36469 0.97554 0.97989 0.0
H2183 H 0.49311 0.97087 0.0197 0.0
H2184 H 0.38261 0.90567 0.98298 0.0
H2185 H 0.4785 0.03786 0.99668 0.0
H2186 H 0.45265 0.94664 1.0069 0.0
H2187 H 0.40635 0.9987 0.98551 0.0
C2188 C 0.37747 0.96506 0.98138 0.0
C2189 C 0.37024 0.93868 0.98112 0.0
C2190 C 0.45835 0.96661 1.00454 0.0
C2191 C 0.4179 0.96507 0.98806 0.0
C2192 C 0.48138 0.98051 0.01203 0.0
C2193 C 0.48913 1.00648 0.00941 0.0
C2194 C 0.4429 0.97882 0.99463 0.0
C2195 C 0.47325 1.0179 0.99911 0.0
C2196 C 0.40124 0.97829 0.98462 0.0
C2197 C 0.38749 0.92601 0.98302 0.0
N2198 N 0.45083 1.00403 0.99225 0.0
N2199 N 0.41057 0.93938 0.9868 0.0
H2200 H 0.919 0.62473 0.84457 0.0
H2201 H 0.81722 0.62451 0.75707 0.0
H2202 H 0.89775 0.56438 0.79036 0.0
H2203 H 0.81124 0.63739 0.82987 0.0
H2204 H 0.84698 0.60335 0.76638 0.0
H2205 H 0.88136 0.63371 0.8368 0.0
C2206 C 0.90648 0.61358 0.8309 0.0
C2207 C 0.91135 0.59395 0.81795 0.0
C2208 C 0.83867 0.61031 0.78023 0.0
C2209 C 0.86863 0.60392 0.80916 0.0
C2210 C 0.8215 0.62218 0.77498 0.0
C2211 C 0.81216 0.63339 0.79276 0.0
C2212 C 0.84678 0.61023 0.80332 0.0
C2213 C 0.81861 0.62984 0.81564 0.0
C2214 C 0.88497 0.61842 0.82673 0.0
C2215 C 0.89451 0.57974 0.80064 0.0
N2216 N 0.83612 0.61925 0.82032 0.0
N2217 N 0.87389 0.58522 0.79648 0.0
H2218 H 0.89908 0.71016 0.0359 0.0
H2219 H 0.92437 0.59497 0.09923 0.0
H2220 H 0.84697 0.65525 0.06837 0.0
H2221 H 0.97047 0.63656 0.05198 0.0
H2222 H 0.89809 0.62085 0.09221 0.0
H2223 H 0.92786 0.68747 0.04595 0.0
C2224 C 0.89376 0.6935 0.04531 0.0
C2225 C 0.87058 0.6845 0.05121 0.0
C2226 C 0.91399 0.62437 0.08342 0.0
C2227 C 0.9033 0.65858 0.06277 0.0
C2228 C 0.92898 0.60948 0.08732 0.0
C2229 C 0.94965 0.61333 0.07604 0.0
C2230 C 0.91965 0.64346 0.0682 0.0
C2231 C 0.95489 0.63297 0.06125 0.0
C2232 C 0.91014 0.68051 0.05094 0.0
C2233 C 0.8646 0.66277 0.06333 0.0
N2234 N 0.93997 0.64723 0.05771 0.0
N2235 N 0.88082 0.6506 0.06868 0.0
H2236 H 0.18465 0.14194 0.86541 0.0
H2237 H 0.31232 0.22212 0.83716 0.0
H2238 H 0.24754 0.11925 0.87823 0.0
H2239 H 0.24796 0.23624 0.81129 0.0
H2240 H 0.28964 0.18957 0.85963 0.0
H2241 H 0.20872 0.18258 0.85451 0.0
C2242 C 0.20359 0.14589 0.86681 0.0
C2243 C 0.21415 0.12716 0.87244 0.0
C2244 C 0.28048 0.19983 0.84909 0.0
C2245 C 0.2416 0.17313 0.85948 0.0
C2246 C 0.2934 0.21833 0.83612 0.0
C2247 C 0.28199 0.23164 0.82198 0.0
C2248 C 0.25595 0.19459 0.848 0.0
C2249 C 0.25746 0.22612 0.82161 0.0
C2250 C 0.21728 0.16892 0.86025 0.0
C2251 C 0.23873 0.13314 0.87373 0.0
N2252 N 0.24523 0.20791 0.83435 0.0
N2253 N 0.2516 0.15546 0.86694 0.0
H2254 H 0.43099 1.00969 0.36821 0.0
H2255 H 0.38747 0.88147 0.28914 0.0
H2256 H 0.47833 0.98131 0.32935 0.0
H2257 H 0.35169 0.89644 0.34783 0.0
H2258 H 0.41984 0.9195 0.30149 0.0
H2259 H 0.40103 0.96899 0.36016 0.0
C2260 C 0.43523 0.99455 0.35852 0.0
C2261 C 0.45714 0.9986 0.34965 0.0
C2262 C 0.40489 0.91439 0.31164 0.0
C2263 C 0.42273 0.9525 0.33946 0.0
C2264 C 0.38628 0.89291 0.30444 0.0
C2265 C 0.3668 0.88587 0.31741 0.0
C2266 C 0.40379 0.92909 0.33172 0.0
C2267 C 0.36635 0.90118 0.33729 0.0
C2268 C 0.41811 0.97143 0.35376 0.0
C2269 C 0.46173 0.97866 0.3368 0.0
N2270 N 0.38451 0.92213 0.34377 0.0
N2271 N 0.44447 0.95651 0.33172 0.0
H2272 H 0.61565 0.37315 0.59069 0.0
H2273 H 0.61451 0.51704 0.61093 0.0
H2274 H 0.62388 0.41194 0.65837 0.0
H2275 H 0.58402 0.46955 0.54884 0.0
H2276 H 0.62414 0.48108 0.62731 0.0
H2277 H 0.61063 0.41089 0.5738 0.0
C2278 C 0.61672 0.38971 0.602 0.0
C2279 C 0.62008 0.3893 0.62601 0.0
C2280 C 0.61536 0.47859 0.61009 0.0
C2281 C 0.61429 0.43263 0.60674 0.0
C2282 C 0.60986 0.4991 0.6007 0.0
C2283 C 0.5982 0.49632 0.57851 0.0
C2284 C 0.6095 0.45516 0.5971 0.0
C2285 C 0.59278 0.47259 0.56608 0.0
C2286 C 0.6137 0.4112 0.59234 0.0
C2287 C 0.62122 0.41136 0.63978 0.0
N2288 N 0.5985 0.45303 0.5755 0.0
N2289 N 0.6183 0.43207 0.62997 0.0
H2290 H 0.43731 0.78948 0.45711 0.0
H2291 H 0.39211 0.79138 0.32523 0.0
H2292 H 0.47513 0.77628 0.3994 0.0
H2293 H 0.3492 0.79586 0.38109 0.0
H2294 H 0.42193 0.78446 0.35249 0.0
H2295 H 0.4043 0.79041 0.4301 0.0
C2296 C 0.43865 0.78655 0.4388 0.0
C2297 C 0.4592 0.7829 0.43059 0.0
C2298 C 0.40597 0.78679 0.35886 0.0
C2299 C 0.4214 0.78415 0.39954 0.0
C2300 C 0.38886 0.7908 0.34325 0.0
C2301 C 0.36808 0.7944 0.35084 0.0
C2302 C 0.40255 0.78655 0.38242 0.0
C2303 C 0.36492 0.79321 0.37444 0.0
C2304 C 0.41975 0.78711 0.42338 0.0
C2305 C 0.45978 0.77922 0.40663 0.0
N2306 N 0.38206 0.78961 0.38943 0.0
N2307 N 0.4413 0.78011 0.39203 0.0
H2308 H 0.09143 0.75062 0.13956 0.0
H2309 H 0.1189 0.64366 0.05685 0.0
H2310 H 0.1366 0.76667 0.08419 0.0
H2311 H 0.06894 0.62741 0.10814 0.0
H2312 H 0.12664 0.68869 0.06762 0.0
H2313 H 0.0839 0.70551 0.12917 0.0
C2314 C 0.09978 0.74473 0.12521 0.0
C2315 C 0.11471 0.76266 0.11276 0.0
C2316 C 0.11401 0.67528 0.07656 0.0
C2317 C 0.10616 0.71076 0.10079 0.0
C2318 C 0.1096 0.64949 0.07044 0.0
C2319 C 0.09325 0.63155 0.0816 0.0
C2320 C 0.10205 0.68337 0.09402 0.0
C2321 C 0.08174 0.64044 0.09906 0.0
C2322 C 0.09545 0.7189 0.11928 0.0
C2323 C 0.12494 0.75369 0.0943 0.0
N2324 N 0.08636 0.66564 0.1047 0.0
N2325 N 0.12052 0.72847 0.08894 0.0
H2326 H 0.1153 0.31059 0.94254 0.0
H2327 H 0.1532 0.28786 0.8157 0.0
H2328 H 0.06635 0.27818 0.88323 0.0
H2329 H 0.20319 0.31415 0.87531 0.0
H2330 H 0.12123 0.28418 0.84051 0.0
H2331 H 0.14788 0.31175 0.91866 0.0
C2332 C 0.1114 0.30361 0.92455 0.0
C2333 C 0.08807 0.29435 0.91486 0.0
C2334 C 0.13918 0.29069 0.84823 0.0
C2335 C 0.12518 0.29574 0.88744 0.0
C2336 C 0.15746 0.29293 0.83402 0.0
C2337 C 0.18093 0.30143 0.8434 0.0
C2338 C 0.14432 0.29713 0.87205 0.0
C2339 C 0.18535 0.30732 0.86735 0.0
C2340 C 0.12999 0.30429 0.91093 0.0
C2341 C 0.08404 0.28554 0.89146 0.0
N2342 N 0.16724 0.30519 0.88083 0.0
N2343 N 0.10238 0.28656 0.87857 0.0
H2344 H 0.58663 0.71314 0.91362 0.0
H2345 H 0.54525 0.62505 0.02027 0.0
H2346 H 0.54373 0.72799 0.96611 0.0
H2347 H 0.58669 0.60375 0.96953 0.0
H2348 H 0.54522 0.66242 0.99974 0.0
H2349 H 0.5876 0.67396 0.93202 0.0
C2350 C 0.57733 0.70848 0.9288 0.0
C2351 C 0.56504 0.72492 0.93782 0.0
C2352 C 0.55435 0.64968 0.99287 0.0
C2353 C 0.56621 0.67891 0.95963 0.0
C2354 C 0.55434 0.62794 1.00476 0.0
C2355 C 0.56588 0.61029 0.99705 0.0
C2356 C 0.56606 0.65487 0.97258 0.0
C2357 C 0.57735 0.6162 0.97654 0.0
C2358 C 0.57793 0.68582 0.93948 0.0
C2359 C 0.55359 0.71681 0.95791 0.0
N2360 N 0.57715 0.63755 0.9653 0.0
N2361 N 0.55451 0.6951 0.96775 0.0
H2362 H 0.15843 0.83616 0.67547 0.0
H2363 H 0.22483 0.78012 0.77757 0.0
H2364 H 0.11873 0.78755 0.72249 0.0
H2365 H 0.26055 0.82868 0.72842 0.0
H2366 H 0.1868 0.78244 0.7594 0.0
H2367 H 0.19482 0.83376 0.69569 0.0
C2368 C 0.15702 0.825 0.69021 0.0
C2369 C 0.1344 0.81221 0.69678 0.0
C2370 C 0.20288 0.79264 0.7525 0.0
C2371 C 0.17822 0.8091 0.72094 0.0
C2372 C 0.22497 0.79133 0.76299 0.0
C2373 C 0.24686 0.80414 0.7549 0.0
C2374 C 0.20181 0.80699 0.73335 0.0
C2375 C 0.2448 0.81827 0.73571 0.0
C2376 C 0.17832 0.82362 0.70189 0.0
C2377 C 0.13509 0.79817 0.71639 0.0
N2378 N 0.22322 0.81922 0.72591 0.0
N2379 N 0.15624 0.79698 0.72745 0.0
H2380 H 0.06415 0.34349 0.4611 0.0
H2381 H 0.0719 0.49213 0.45572 0.0
H2382 H 0.07933 0.38243 0.39981 0.0
H2383 H 0.06119 0.45353 0.51773 0.0
H2384 H 0.074 0.45288 0.43504 0.0
H2385 H 0.06228 0.38293 0.48142 0.0
C2386 C 0.06707 0.36024 0.45174 0.0
C2387 C 0.07193 0.35897 0.42836 0.0
C2388 C 0.0712 0.45288 0.45318 0.0
C2389 C 0.06972 0.40547 0.45219 0.0
C2390 C 0.06998 0.47553 0.46517 0.0
C2391 C 0.06634 0.47684 0.4889 0.0
C2392 C 0.06869 0.4306 0.46461 0.0
C2393 C 0.06406 0.45407 0.49964 0.0
C2394 C 0.06601 0.38301 0.46352 0.0
C2395 C 0.07552 0.38192 0.41768 0.0
N2396 N 0.06521 0.43233 0.48759 0.0
N2397 N 0.07433 0.40381 0.42949 0.0
H2398 H 0.47809 0.32119 0.17812 0.0
H2399 H 0.3798 0.25684 0.26429 0.0
H2400 H 0.49299 0.27116 0.22654 0.0
H2401 H 0.38896 0.33297 0.24671 0.0
H2402 H 0.41622 0.25691 0.24607 0.0
H2403 H 0.44229 0.32114 0.1973 0.0
C2404 C 0.47398 0.30991 0.19263 0.0
C2405 C 0.48958 0.29615 0.20017 0.0
C2406 C 0.4104 0.2737 0.2461 0.0
C2407 C 0.44648 0.29552 0.22281 0.0
C2408 C 0.3892 0.27369 0.25665 0.0
C2409 C 0.3804 0.29503 0.25773 0.0
C2410 C 0.42344 0.29491 0.23528 0.0
C2411 C 0.39436 0.31594 0.24695 0.0
C2412 C 0.4532 0.30999 0.20381 0.0
C2413 C 0.48225 0.28223 0.21955 0.0
N2414 N 0.41439 0.31518 0.23624 0.0
N2415 N 0.46164 0.28206 0.22966 0.0
H2416 H 0.70813 0.54443 0.41959 0.0
H2417 H 0.58544 0.51704 0.47476 0.0
H2418 H 0.64028 0.51036 0.38241 0.0
H2419 H 0.65204 0.55393 0.51348 0.0
H2420 H 0.60629 0.50811 0.44243 0.0
H2421 H 0.68909 0.54142 0.45584 0.0
C2422 C 0.68935 0.53579 0.41915 0.0
C2423 C 0.67564 0.52795 0.3981 0.0
C2424 C 0.61641 0.518 0.45804 0.0
C2425 C 0.65386 0.52466 0.43906 0.0
C2426 C 0.60447 0.5232 0.4765 0.0
C2427 C 0.617 0.53663 0.49671 0.0
C2428 C 0.64108 0.52654 0.45964 0.0
C2429 C 0.64167 0.54374 0.49811 0.0
C2430 C 0.67848 0.53421 0.43975 0.0
C2431 C 0.6514 0.51698 0.39832 0.0
N2432 N 0.65294 0.53889 0.47968 0.0
N2433 N 0.64126 0.51589 0.41844 0.0
H2434 H 0.32065 0.92259 0.07271 0.0
H2435 H 0.32868 0.80618 0.14438 0.0
H2436 H 0.29849 0.84477 0.04493 0.0
H2437 H 0.35353 0.88371 0.17266 0.0
H2438 H 0.31635 0.82024 0.10811 0.0
H2439 H 0.33066 0.90888 0.1102 0.0
C2440 C 0.31765 0.90264 0.07452 0.0
C2441 C 0.30891 0.88484 0.05557 0.0
C2442 C 0.32453 0.83422 0.12221 0.0
C2443 C 0.3205 0.86909 0.09827 0.0
C2444 C 0.33179 0.82621 0.14287 0.0
C2445 C 0.34228 0.84381 0.16152 0.0
C2446 C 0.32777 0.86006 0.12014 0.0
C2447 C 0.34536 0.86949 0.15874 0.0
C2448 C 0.32348 0.89484 0.09589 0.0
C2449 C 0.3054 0.85923 0.05895 0.0
N2450 N 0.33815 0.87686 0.13842 0.0
N2451 N 0.31132 0.85217 0.07982 0.0
H2452 H 1.02625 0.60055 0.88395 0.0
H2453 H 1.01599 0.57976 0.01697 0.0
H2454 H 0.95959 0.57319 0.91261 0.0
H2455 H 0.07645 0.57644 0.98142 0.0
H2456 H 0.99682 0.58702 0.98074 0.0
H2457 H 0.0464 0.60143 0.92184 0.0
C2458 C 1.01583 0.59486 0.89825 0.0
C2459 C 0.99122 0.58644 0.89516 0.0
C2460 C 1.01434 0.58487 0.98099 0.0
C2461 C 1.01419 0.58763 0.93844 0.0
C2462 C 1.02534 0.58085 1.00161 0.0
C2463 C 0.04775 0.57727 1.00207 0.0
C2464 C 1.02598 0.58563 0.96088 0.0
C2465 C 0.05906 0.57884 0.98172 0.0
C2466 C 1.02737 0.59536 0.91984 0.0
C2467 C 0.9786 0.57955 0.9143 0.0
N2468 N 0.048 0.58287 0.96186 0.0
N2469 N 0.99029 0.5802 0.93525 0.0
H2470 H 0.29706 0.28246 0.59722 0.0
H2471 H 0.33619 0.24756 0.72275 0.0
H2472 H 0.33168 0.22475 0.60667 0.0
H2473 H 0.29344 0.29738 0.7107 0.0
H2474 H 0.33641 0.23989 0.68085 0.0
H2475 H 0.29774 0.28943 0.63893 0.0
C2476 C 0.30496 0.27129 0.608 0.0
C2477 C 0.31433 0.25293 0.59812 0.0
C2478 C 0.32692 0.25242 0.68741 0.0
C2479 C 0.31506 0.26089 0.64653 0.0
C2480 C 0.32674 0.25679 0.71139 0.0
C2481 C 0.3147 0.27311 0.72051 0.0
C2482 C 0.31512 0.26457 0.67228 0.0
C2483 C 0.30292 0.28459 0.70471 0.0
C2484 C 0.30525 0.27525 0.63196 0.0
C2485 C 0.32423 0.23912 0.61332 0.0
N2486 N 0.3035 0.28017 0.68156 0.0
N2487 N 0.32434 0.24336 0.63667 0.0
H2488 H 0.68244 0.55953 0.27124 0.0
H2489 H 0.59986 0.62598 0.20088 0.0
H2490 H 0.63332 0.59325 0.30168 0.0
H2491 H 0.63349 0.57502 0.16871 0.0
H2492 H 0.61865 0.62122 0.2382 0.0
H2493 H 0.67081 0.57181 0.23355 0.0
C2494 C 0.66931 0.56957 0.27001 0.0
C2495 C 0.65856 0.57503 0.28953 0.0
C2496 C 0.62207 0.61128 0.22292 0.0
C2497 C 0.64549 0.58935 0.24677 0.0
C2498 C 0.61132 0.61394 0.20165 0.0
C2499 C 0.61489 0.60066 0.18171 0.0
C2500 C 0.63647 0.5952 0.22424 0.0
C2501 C 0.63034 0.58574 0.18362 0.0
C2502 C 0.66271 0.57657 0.24856 0.0
C2503 C 0.64177 0.58824 0.28703 0.0
N2504 N 0.6404 0.58322 0.20457 0.0
N2505 N 0.63572 0.59489 0.26604 0.0
H2506 H 0.30293 0.94377 0.92751 0.0
H2507 H 0.27888 0.81101 0.85659 0.0
H2508 H 0.26019 0.87315 0.94818 0.0
H2509 H 0.31422 0.88088 0.82888 0.0
H2510 H 0.26892 0.83475 0.88857 0.0
H2511 H 0.3038 0.92284 0.88937 0.0
C2512 C 0.29322 0.92406 0.92378 0.0
C2513 C 0.28171 0.91 0.94096 0.0
C2514 C 0.27873 0.84502 0.87548 0.0
C2515 C 0.28287 0.88603 0.8979 0.0
C2516 C 0.28457 0.83142 0.85725 0.0
C2517 C 0.29772 0.844 0.84025 0.0
C2518 C 0.28638 0.87149 0.87703 0.0
C2519 C 0.3042 0.87047 0.84177 0.0
C2520 C 0.29385 0.9121 0.90213 0.0
C2521 C 0.26954 0.88454 0.93545 0.0
N2522 N 0.29874 0.88342 0.86008 0.0
N2523 N 0.27066 0.87333 0.91451 0.0
H2524 H 0.96619 0.58026 0.76263 0.0
H2525 H 0.06273 0.57497 0.67721 0.0
H2526 H 0.04104 0.60513 0.78176 0.0
H2527 H 0.98794 0.54523 0.6596 0.0
H2528 H 0.05513 0.59561 0.71272 0.0
H2529 H 0.97398 0.57766 0.72226 0.0
C2530 C 0.98426 0.58562 0.75836 0.0
C2531 C 1.003 0.59209 0.77565 0.0
C2532 C 0.04038 0.58481 0.70097 0.0
C2533 C 1.01197 0.58891 0.72955 0.0
C2534 C 0.04471 0.57304 0.68071 0.0
C2535 C 1.02591 0.55791 0.66578 0.0
C2536 C 1.0171 0.58126 0.70633 0.0
C2537 C 1.00292 0.5561 0.67105 0.0
C2538 C 0.98869 0.58408 0.73528 0.0
C2539 C 1.02603 0.59935 0.76904 0.0
N2540 N 0.99915 0.56738 0.69106 0.0
N2541 N 1.02987 0.59708 0.74651 0.0
H2542 H 0.31216 0.19782 0.4538 0.0
H2543 H 0.33681 0.31244 0.37185 0.0
H2544 H 0.32523 0.27529 0.47994 0.0
H2545 H 0.31149 0.23411 0.3462 0.0
H2546 H 0.3355 0.29961 0.41135 0.0
H2547 H 0.31408 0.21107 0.41458 0.0
C2548 C 0.31536 0.21767 0.45133 0.0
C2549 C 0.3185 0.23542 0.47039 0.0
C2550 C 0.33033 0.28522 0.39709 0.0
C2551 C 0.321 0.2509 0.42503 0.0
C2552 C 0.33122 0.29251 0.37442 0.0
C2553 C 0.32433 0.27439 0.35539 0.0
C2554 C 0.32262 0.25952 0.40103 0.0
C2555 C 0.31704 0.24886 0.36013 0.0
C2556 C 0.31647 0.22524 0.42882 0.0
C2557 C 0.32261 0.26088 0.46588 0.0
N2558 N 0.31641 0.24226 0.38232 0.0
N2559 N 0.32385 0.26784 0.44376 0.0
H2560 H 0.38768 0.6553 0.54564 0.0
H2561 H 0.41166 0.52024 0.53918 0.0
H2562 H 0.33809 0.58801 0.56504 0.0
H2563 H 0.46061 0.58916 0.52232 0.0
H2564 H 0.38297 0.54356 0.54616 0.0
H2565 H 0.41376 0.63045 0.53542 0.0
C2566 C 0.38233 0.63529 0.54786 0.0
C2567 C 0.36074 0.62371 0.55627 0.0
C2568 C 0.39994 0.55349 0.54076 0.0
C2569 C 0.39045 0.595 0.54439 0.0
C2570 C 0.41616 0.54016 0.53661 0.0
C2571 C 0.43849 0.55292 0.5304 0.0
C2572 C 0.40621 0.57962 0.53855 0.0
C2573 C 0.44364 0.57874 0.52739 0.0
C2574 C 0.39719 0.62105 0.54193 0.0
C2575 C 0.35466 0.59768 0.5587 0.0
N2576 N 0.42769 0.59125 0.53163 0.0
N2577 N 0.36946 0.58416 0.55278 0.0
H2578 H 0.88274 0.94093 0.55236 0.0
H2579 H 1.00591 0.98093 0.49678 0.0
H2580 H 0.90828 0.8887 0.5113 0.0
H2581 H 0.98554 0.02692 0.549 0.0
H2582 H 0.96767 0.94923 0.49686 0.0
H2583 H 0.91818 0.97439 0.54705 0.0
C2584 C 0.89582 0.93643 0.54226 0.0
C2585 C 0.89253 0.91182 0.53242 0.0
C2586 C 0.9715 0.96641 0.50809 0.0
C2587 C 0.93324 0.95035 0.52606 0.0
C2588 C 0.99322 0.98465 0.50786 0.0
C2589 C 0.99901 1.00656 0.52302 0.0
C2590 C 0.95543 0.97024 0.52344 0.0
C2591 C 0.98193 1.01023 0.53716 0.0
C2592 C 0.91607 0.95562 0.53919 0.0
C2593 C 0.91013 0.90729 0.51941 0.0
N2594 N 0.96102 0.99221 0.53713 0.0
N2595 N 0.92973 0.92637 0.5166 0.0
H2596 H 0.87472 0.07607 0.24599 0.0
H2597 H 0.86367 0.20292 0.30915 0.0
H2598 H 0.93484 0.13785 0.27272 0.0
H2599 H 0.80775 0.13278 0.30214 0.0
H2600 H 0.88919 0.18141 0.29134 0.0
H2601 H 0.84888 0.09951 0.26047 0.0
C2602 C 0.88249 0.09476 0.25454 0.0
C2603 C 0.90695 0.10498 0.25837 0.0
C2604 C 0.87138 0.17072 0.29383 0.0
C2605 C 0.87754 0.13165 0.27516 0.0
C2606 C 0.85684 0.18289 0.30428 0.0
C2607 C 0.83353 0.16958 0.30742 0.0
C2608 C 0.86253 0.14511 0.2862 0.0
C2609 C 0.82552 0.14383 0.29996 0.0
C2610 C 0.86773 0.10799 0.26298 0.0
C2611 C 0.91606 0.12923 0.26955 0.0
N2612 N 0.83999 0.13244 0.28962 0.0
N2613 N 0.90132 0.14172 0.2777 0.0
H2614 H 0.73746 0.17989 0.0758 0.0
H2615 H 0.63924 0.07032 1.00384 0.0
H2616 H 0.75486 0.1201 0.03693 0.0
H2617 H 0.62763 0.09811 0.07133 0.0
H2618 H 0.68087 0.09433 0.01081 0.0
H2619 H 0.69569 0.15573 0.06952 0.0
C2620 C 0.73246 0.16174 0.06591 0.0
C2621 C 0.74952 0.15186 0.05693 0.0
C2622 C 0.66914 0.09506 0.02406 0.0
C2623 C 0.70217 0.12463 0.0494 0.0
C2624 C 0.64547 0.08148 0.0201 0.0
C2625 C 0.6301 0.08215 0.03712 0.0
C2626 C 0.67729 0.10988 0.0449 0.0
C2627 C 0.63901 0.09693 0.05787 0.0
C2628 C 0.70875 0.14799 0.06246 0.0
C2629 C 0.74221 0.12825 0.0443 0.0
N2630 N 0.66205 0.11045 0.06113 0.0
N2631 N 0.71901 0.11551 0.04069 0.0
H2632 H 0.28715 0.53653 0.23534 0.0
H2633 H 0.32119 0.40885 0.2278 0.0
H2634 H 0.23936 0.46189 0.23644 0.0
H2635 H 0.36656 0.47953 0.25991 0.0
H2636 H 0.29489 0.43113 0.2115 0.0
H2637 H 0.31821 0.51774 0.22577 0.0
C2638 C 0.28299 0.51619 0.23287 0.0
C2639 C 0.26087 0.50066 0.23725 0.0
C2640 C 0.31107 0.44187 0.22138 0.0
C2641 C 0.29609 0.47927 0.22602 0.0
C2642 C 0.32627 0.42923 0.23055 0.0
C2643 C 0.34578 0.44232 0.24582 0.0
C2644 C 0.3155 0.4677 0.22748 0.0
C2645 C 0.35137 0.46869 0.24871 0.0
C2646 C 0.30071 0.50555 0.22741 0.0
C2647 C 0.25636 0.47449 0.23369 0.0
N2648 N 0.33593 0.48051 0.24012 0.0
N2649 N 0.27395 0.46457 0.22859 0.0
H2650 H 0.30012 0.44987 0.0697 0.0
H2651 H 0.17733 0.46552 0.01983 0.0
H2652 H 0.24732 0.39055 0.0287 0.0
H2653 H 0.2253 0.51908 0.07011 0.0
H2654 H 0.2025 0.43766 0.02289 0.0
H2655 H 0.27263 0.47512 0.07054 0.0
C2656 C 0.28265 0.44206 0.06103 0.0
C2657 C 0.27603 0.4181 0.04902 0.0
C2658 C 0.20746 0.45544 0.03335 0.0
C2659 C 0.24451 0.44709 0.04969 0.0
C2660 C 0.19319 0.47143 0.03149 0.0
C2661 C 0.19929 0.49475 0.04463 0.0
C2662 C 0.22814 0.46287 0.04832 0.0
C2663 C 0.21984 0.50123 0.05975 0.0
C2664 C 0.26695 0.45651 0.06152 0.0
C2665 C 0.25314 0.40892 0.03817 0.0
N2666 N 0.23359 0.48548 0.06105 0.0
N2667 N 0.23827 0.42353 0.03857 0.0
H2668 H 0.89736 0.99174 0.23975 0.0
H2669 H 0.88767 0.84923 0.26388 0.0
H2670 H 0.95728 0.9629 0.24865 0.0
H2671 H 0.8314 0.88301 0.272 0.0
H2672 H 0.91176 0.88876 0.25158 0.0
H2673 H 0.87151 0.94981 0.24421 0.0
C2674 C 0.90511 0.97654 0.24227 0.0
C2675 C 0.92961 0.98097 0.24408 0.0
C2676 C 0.89412 0.8875 0.25597 0.0
C2677 C 0.90001 0.93296 0.24937 0.0
C2678 C 0.8803 0.86492 0.26301 0.0
C2679 C 0.85749 0.86284 0.2692 0.0
C2680 C 0.88509 0.90818 0.25498 0.0
C2681 C 0.84893 0.88382 0.26759 0.0
C2682 C 0.8903 0.95264 0.24496 0.0
C2683 C 0.93854 0.96046 0.24732 0.0
N2684 N 0.86279 0.90568 0.26069 0.0
N2685 N 0.92374 0.93738 0.25003 0.0
H2686 H 0.67798 0.15462 0.75835 0.0
H2687 H 0.81405 0.23197 0.76851 0.0
H2688 H 0.73353 0.11937 0.75236 0.0
H2689 H 0.75746 0.2633 0.78297 0.0
H2690 H 0.78484 0.19156 0.7556 0.0
H2691 H 0.70689 0.19575 0.75893 0.0
C2692 C 0.69618 0.15548 0.75673 0.0
C2693 C 0.70338 0.13351 0.75584 0.0
C2694 C 0.77891 0.2074 0.76147 0.0
C2695 C 0.73667 0.18059 0.75695 0.0
C2696 C 0.79554 0.23039 0.76891 0.0
C2697 C 0.7882 0.2509 0.77716 0.0
C2698 C 0.75486 0.20511 0.76217 0.0
C2699 C 0.764 0.24791 0.77711 0.0
C2700 C 0.71273 0.179 0.75719 0.0
C2701 C 0.7272 0.13583 0.75342 0.0
N2702 N 0.74826 0.22545 0.76984 0.0
N2703 N 0.74309 0.159 0.75449 0.0
loop_
_geom_bond_atom_site_label_1
_geom_bond_atom_site_label_2
_geom_bond_distance
_geom_bond_site_symmetry_2
_ccdc_geom_bond_type
Co0 O1 2.216 . S
Co0 O2 2.091 . S
Co0 O4 2.004 . S
Co0 O10 2.021 . S
Co0 O12 2.137 . S
Co0 O13 2.244 . S
O1 Co0 2.216 . S
O1 C8 1.247 . S
O2 Co0 2.091 . S
O2 C8 1.261 . S
C3 O12 1.247 . S
C3 O13 1.272 . S
O4 Co0 2.004 . S
O4 C9 1.259 1_455 S
Co5 O6 2.061 1_455 S
Co5 O11 2.052 . S
Co5 O13 2.135 . S
O6 Co5 2.061 1_655 S
O6 C9 1.235 . S
C7 O10 1.238 . S
C7 O11 1.241 . S
C8 O1 1.247 . S
C8 O2 1.261 . S
C9 O4 1.259 1_655 S
C9 O6 1.235 . S
O10 Co0 2.021 . S
O10 C7 1.238 . S
O11 Co5 2.052 . S
O11 C7 1.241 . S
O12 Co0 2.137 . S
O12 C3 1.247 . S
O13 Co0 2.244 . S
O13 C3 1.272 . S
O13 Co5 2.135 . S
Co14 O15 2.216 . S
Co14 O16 2.091 . S
Co14 O18 2.004 . S
Co14 O24 2.021 . S
Co14 O26 2.137 . S
Co14 O27 2.244 . S
O15 Co14 2.216 . S
O15 C22 1.247 . S
O16 Co14 2.091 . S
O16 C22 1.261 . S
C17 O26 1.247 . S
C17 O27 1.272 . S
O18 Co14 2.004 . S
O18 C23 1.259 . S
Co19 O20 2.061 . S
Co19 O25 2.052 . S
Co19 O27 2.135 . S
O20 Co19 2.061 . S
O20 C23 1.235 . S
C21 O24 1.238 . S
C21 O25 1.241 . S
C22 O15 1.247 . S
C22 O16 1.261 . S
C23 O18 1.259 . S
C23 O20 1.235 . S
O24 Co14 2.021 . S
O24 C21 1.238 . S
O25 Co19 2.052 . S
O25 C21 1.241 . S
O26 Co14 2.137 . S
O26 C17 1.247 . S
O27 Co14 2.244 . S
O27 C17 1.272 . S
O27 Co19 2.135 . S
Co28 O29 2.216 . S
Co28 O30 2.091 . S
Co28 O32 2.004 . S
Co28 O38 2.021 . S
Co28 O40 2.137 . S
Co28 O41 2.244 . S
O29 Co28 2.216 . S
O29 C36 1.247 . S
O30 Co28 2.091 . S
O30 C36 1.261 . S
C31 O40 1.247 . S
C31 O41 1.272 . S
O32 Co28 2.004 . S
O32 C37 1.259 . S
Co33 O34 2.061 . S
Co33 O39 2.052 . S
Co33 O41 2.135 . S
O34 Co33 2.061 . S
O34 C37 1.235 . S
C35 O38 1.238 . S
C35 O39 1.241 . S
C36 O29 1.247 . S
C36 O30 1.261 . S
C37 O32 1.259 . S
C37 O34 1.235 . S
O38 Co28 2.021 . S
O38 C35 1.238 . S
O39 Co33 2.052 . S
O39 C35 1.241 . S
O40 Co28 2.137 . S
O40 C31 1.247 . S
O41 Co28 2.244 . S
O41 C31 1.272 . S
O41 Co33 2.135 . S
Co42 O43 2.216 . S
Co42 O44 2.091 . S
Co42 O46 2.004 . S
Co42 O52 2.021 . S
Co42 O54 2.137 . S
Co42 O55 2.244 . S
O43 Co42 2.216 . S
O43 C50 1.247 . S
O44 Co42 2.091 . S
O44 C50 1.261 . S
C45 O54 1.247 . S
C45 O55 1.272 . S
O46 Co42 2.004 . S
O46 C51 1.259 . S
Co47 O48 2.061 . S
Co47 O53 2.052 . S
Co47 O55 2.135 . S
O48 Co47 2.061 . S
O48 C51 1.235 . S
C49 O52 1.238 . S
C49 O53 1.241 . S
C50 O43 1.247 . S
C50 O44 1.261 . S
C51 O46 1.259 . S
C51 O48 1.235 . S
O52 Co42 2.021 . S
O52 C49 1.238 . S
O53 Co47 2.052 . S
O53 C49 1.241 . S
O54 Co42 2.137 . S
O54 C45 1.247 . S
O55 Co42 2.244 . S
O55 C45 1.272 . S
O55 Co47 2.135 . S
Co56 O57 2.216 . S
Co56 O58 2.091 . S
Co56 O60 2.004 . S
Co56 O66 2.021 . S
Co56 O68 2.137 . S
Co56 O69 2.244 . S
O57 Co56 2.216 . S
O57 C64 1.247 . S
O58 Co56 2.091 . S
O58 C64 1.261 . S
C59 O68 1.247 . S
C59 O69 1.272 . S
O60 Co56 2.004 . S
O60 C65 1.259 . S
Co61 O62 2.061 . S
Co61 O67 2.052 . S
Co61 O69 2.135 . S
O62 Co61 2.061 . S
O62 C65 1.235 . S
C63 O66 1.238 . S
C63 O67 1.241 . S
C64 O57 1.247 . S
C64 O58 1.261 . S
C65 O60 1.259 . S
C65 O62 1.235 . S
O66 Co56 2.021 . S
O66 C63 1.238 . S
O67 Co61 2.052 . S
O67 C63 1.241 . S
O68 Co56 2.137 . S
O68 C59 1.247 . S
O69 Co56 2.244 . S
O69 C59 1.272 . S
O69 Co61 2.135 . S
Co70 O71 2.216 . S
Co70 O72 2.091 . S
Co70 O74 2.004 . S
Co70 O80 2.021 . S
Co70 O82 2.137 . S
Co70 O83 2.244 . S
O71 Co70 2.216 . S
O71 C78 1.247 . S
O72 Co70 2.091 . S
O72 C78 1.261 . S
C73 O82 1.247 . S
C73 O83 1.272 . S
O74 Co70 2.004 . S
O74 C79 1.259 . S
Co75 O76 2.061 . S
Co75 O81 2.052 . S
Co75 O83 2.135 . S
O76 Co75 2.061 . S
O76 C79 1.235 . S
C77 O80 1.238 . S
C77 O81 1.241 . S
C78 O71 1.247 . S
C78 O72 1.261 . S
C79 O74 1.259 . S
C79 O76 1.235 . S
O80 Co70 2.021 . S
O80 C77 1.238 . S
O81 Co75 2.052 . S
O81 C77 1.241 . S
O82 Co70 2.137 . S
O82 C73 1.247 . S
O83 Co70 2.244 . S
O83 C73 1.272 . S
O83 Co75 2.135 . S
Co84 O85 2.216 . S
Co84 O86 2.091 . S
Co84 O88 2.004 . S
Co84 O94 2.021 . S
Co84 O96 2.137 . S
Co84 O97 2.244 . S
O85 Co84 2.216 . S
O85 C92 1.247 . S
O86 Co84 2.091 . S
O86 C92 1.261 . S
C87 O96 1.247 . S
C87 O97 1.272 . S
O88 Co84 2.004 . S
O88 C93 1.259 . S
Co89 O90 2.061 . S
Co89 O95 2.052 . S
Co89 O97 2.135 . S
O90 Co89 2.061 . S
O90 C93 1.235 . S
C91 O94 1.238 . S
C91 O95 1.241 . S
C92 O85 1.247 . S
C92 O86 1.261 . S
C93 O88 1.259 . S
C93 O90 1.235 . S
O94 Co84 2.021 . S
O94 C91 1.238 . S
O95 Co89 2.052 . S
O95 C91 1.241 . S
O96 Co84 2.137 . S
O96 C87 1.247 . S
O97 Co84 2.244 . S
O97 C87 1.272 . S
O97 Co89 2.135 . S
Co98 O99 2.216 . S
Co98 O100 2.091 . S
Co98 O102 2.004 1_455 S
Co98 O108 2.021 1_455 S
Co98 O110 2.137 . S
Co98 O111 2.244 1_455 S
O99 Co98 2.216 . S
O99 C106 1.247 . S
O100 Co98 2.091 . S
O100 C106 1.261 . S
C101 O110 1.247 . S
C101 O111 1.272 1_455 S
O102 Co98 2.004 1_655 S
O102 C107 1.259 . S
Co103 O104 2.061 . S
Co103 O109 2.052 . S
Co103 O111 2.135 . S
O104 Co103 2.061 . S
O104 C107 1.235 . S
C105 O108 1.238 . S
C105 O109 1.241 . S
C106 O99 1.247 . S
C106 O100 1.261 . S
C107 O102 1.259 . S
C107 O104 1.235 . S
O108 Co98 2.021 1_655 S
O108 C105 1.238 . S
O109 Co103 2.052 . S
O109 C105 1.241 . S
O110 Co98 2.137 . S
O110 C101 1.247 . S
O111 Co98 2.244 1_655 S
O111 C101 1.272 1_655 S
O111 Co103 2.135 . S
Co112 O113 2.216 . S
Co112 O114 2.091 . S
Co112 O116 2.004 1_545 S
Co112 O122 2.021 . S
Co112 O124 2.137 . S
Co112 O125 2.244 . S
O113 Co112 2.216 . S
O113 C120 1.247 . S
O114 Co112 2.091 . S
O114 C120 1.261 . S
C115 O124 1.247 . S
C115 O125 1.272 . S
O116 Co112 2.004 1_565 S
O116 C121 1.259 . S
Co117 O118 2.061 . S
Co117 O123 2.052 1_565 S
Co117 O125 2.135 1_565 S
O118 Co117 2.061 . S
O118 C121 1.235 . S
C119 O122 1.238 . S
C119 O123 1.241 . S
C120 O113 1.247 . S
C120 O114 1.261 . S
C121 O116 1.259 . S
C121 O118 1.235 . S
O122 Co112 2.021 . S
O122 C119 1.238 . S
O123 Co117 2.052 1_545 S
O123 C119 1.241 . S
O124 Co112 2.137 . S
O124 C115 1.247 . S
O125 Co112 2.244 . S
O125 C115 1.272 . S
O125 Co117 2.135 1_545 S
Co126 O127 2.216 . S
Co126 O128 2.091 . S
Co126 O130 2.004 . S
Co126 O136 2.021 . S
Co126 O138 2.137 . S
Co126 O139 2.244 . S
O127 Co126 2.216 . S
O127 C134 1.247 . S
O128 Co126 2.091 . S
O128 C134 1.261 . S
C129 O138 1.247 . S
C129 O139 1.272 . S
O130 Co126 2.004 . S
O130 C135 1.259 . S
Co131 O132 2.061 . S
Co131 O137 2.052 . S
Co131 O139 2.135 . S
O132 Co131 2.061 . S
O132 C135 1.235 . S
C133 O136 1.238 . S
C133 O137 1.241 . S
C134 O127 1.247 . S
C134 O128 1.261 . S
C135 O130 1.259 . S
C135 O132 1.235 . S
O136 Co126 2.021 . S
O136 C133 1.238 . S
O137 Co131 2.052 . S
O137 C133 1.241 . S
O138 Co126 2.137 . S
O138 C129 1.247 . S
O139 Co126 2.244 . S
O139 C129 1.272 . S
O139 Co131 2.135 . S
Co140 O141 2.216 . S
Co140 O142 2.091 . S
Co140 O144 2.004 . S
Co140 O150 2.021 . S
Co140 O152 2.137 . S
Co140 O153 2.244 . S
O141 Co140 2.216 . S
O141 C148 1.247 . S
O142 Co140 2.091 . S
O142 C148 1.261 . S
C143 O152 1.247 . S
C143 O153 1.272 . S
O144 Co140 2.004 . S
O144 C149 1.259 . S
Co145 O146 2.061 . S
Co145 O151 2.052 . S
Co145 O153 2.135 . S
O146 Co145 2.061 . S
O146 C149 1.235 . S
C147 O150 1.238 . S
C147 O151 1.241 . S
C148 O141 1.247 . S
C148 O142 1.261 . S
C149 O144 1.259 . S
C149 O146 1.235 . S
O150 Co140 2.021 . S
O150 C147 1.238 . S
O151 Co145 2.052 . S
O151 C147 1.241 . S
O152 Co140 2.137 . S
O152 C143 1.247 . S
O153 Co140 2.244 . S
O153 C143 1.272 . S
O153 Co145 2.135 . S
Co154 O155 2.216 . S
Co154 O156 2.091 1_556 S
Co154 O158 2.004 . S
Co154 O164 2.021 1_556 S
Co154 O166 2.137 . S
Co154 O167 2.244 . S
O155 Co154 2.216 . S
O155 C162 1.248 . S
O156 Co154 2.091 1_554 S
O156 C162 1.262 1_554 S
C157 O166 1.247 . S
C157 O167 1.272 . S
O158 Co154 2.004 . S
O158 C163 1.259 1_556 S
Co159 O160 2.061 1_556 S
Co159 O165 2.052 1_556 S
Co159 O167 2.135 . S
O160 Co159 2.061 1_554 S
O160 C163 1.235 . S
C161 O164 1.238 . S
C161 O165 1.241 . S
C162 O155 1.248 . S
C162 O156 1.262 1_556 S
C163 O158 1.259 1_554 S
C163 O160 1.235 . S
O164 Co154 2.021 1_554 S
O164 C161 1.238 . S
O165 Co159 2.052 1_554 S
O165 C161 1.241 . S
O166 Co154 2.137 . S
O166 C157 1.247 . S
O167 Co154 2.244 . S
O167 C157 1.272 . S
O167 Co159 2.135 . S
Co168 O169 2.216 . S
Co168 O170 2.091 . S
Co168 O172 2.004 . S
Co168 O178 2.021 . S
Co168 O180 2.137 1_554 S
Co168 O181 2.244 . S
O169 Co168 2.216 . S
O169 C176 1.247 . S
O170 Co168 2.091 . S
O170 C176 1.261 . S
C171 O180 1.247 . S
C171 O181 1.272 1_556 S
O172 Co168 2.004 . S
O172 C177 1.259 . S
Co173 O174 2.061 . S
Co173 O179 2.052 . S
Co173 O181 2.135 . S
O174 Co173 2.061 . S
O174 C177 1.235 . S
C175 O178 1.238 . S
C175 O179 1.241 . S
C176 O169 1.247 . S
C176 O170 1.261 . S
C177 O172 1.259 . S
C177 O174 1.235 . S
O178 Co168 2.021 . S
O178 C175 1.238 . S
O179 Co173 2.052 . S
O179 C175 1.241 . S
O180 Co168 2.137 1_556 S
O180 C171 1.247 . S
O181 Co168 2.244 . S
O181 C171 1.272 1_554 S
O181 Co173 2.135 . S
Co182 O183 2.216 . S
Co182 O184 2.091 . S
Co182 O186 2.004 . S
Co182 O192 2.021 . S
Co182 O194 2.137 . S
Co182 O195 2.244 . S
O183 Co182 2.216 . S
O183 C190 1.247 . S
O184 Co182 2.091 . S
O184 C190 1.261 . S
C185 O194 1.247 . S
C185 O195 1.272 . S
O186 Co182 2.004 . S
O186 C191 1.259 . S
Co187 O188 2.061 . S
Co187 O193 2.052 . S
Co187 O195 2.135 . S
O188 Co187 2.061 . S
O188 C191 1.235 . S
C189 O192 1.238 . S
C189 O193 1.241 . S
C190 O183 1.247 . S
C190 O184 1.261 . S
C191 O186 1.259 . S
C191 O188 1.235 . S
O192 Co182 2.021 . S
O192 C189 1.238 . S
O193 Co187 2.052 . S
O193 C189 1.241 . S
O194 Co182 2.137 . S
O194 C185 1.247 . S
O195 Co182 2.244 . S
O195 C185 1.272 . S
O195 Co187 2.135 . S
Co196 O197 2.216 . S
Co196 O198 2.091 . S
Co196 O200 2.004 . S
Co196 O206 2.021 . S
Co196 O208 2.137 . S
Co196 O209 2.244 . S
O197 Co196 2.216 . S
O197 C204 1.247 . S
O198 Co196 2.091 . S
O198 C204 1.261 . S
C199 O208 1.247 . S
C199 O209 1.272 . S
O200 Co196 2.004 . S
O200 C205 1.259 . S
Co201 O202 2.061 . S
Co201 O207 2.052 . S
Co201 O209 2.135 . S
O202 Co201 2.061 . S
O202 C205 1.235 . S
C203 O206 1.238 . S
C203 O207 1.241 . S
C204 O197 1.247 . S
C204 O198 1.261 . S
C205 O200 1.259 . S
C205 O202 1.235 . S
O206 Co196 2.021 . S
O206 C203 1.238 . S
O207 Co201 2.052 . S
O207 C203 1.241 . S
O208 Co196 2.137 . S
O208 C199 1.247 . S
O209 Co196 2.244 . S
O209 C199 1.272 . S
O209 Co201 2.135 . S
Co210 O211 2.216 . S
Co210 O212 2.091 . S
Co210 O214 2.004 . S
Co210 O220 2.021 . S
Co210 O222 2.137 . S
Co210 O223 2.244 . S
O211 Co210 2.216 . S
O211 C218 1.247 . S
O212 Co210 2.091 . S
O212 C218 1.261 . S
C213 O222 1.247 . S
C213 O223 1.272 . S
O214 Co210 2.004 . S
O214 C219 1.259 . S
Co215 O216 2.061 . S
Co215 O221 2.052 . S
Co215 O223 2.135 . S
O216 Co215 2.061 . S
O216 C219 1.235 . S
C217 O220 1.238 . S
C217 O221 1.241 . S
C218 O211 1.247 . S
C218 O212 1.261 . S
C219 O214 1.259 . S
C219 O216 1.235 . S
O220 Co210 2.021 . S
O220 C217 1.238 . S
O221 Co215 2.052 . S
O221 C217 1.241 . S
O222 Co210 2.137 . S
O222 C213 1.247 . S
O223 Co210 2.244 . S
O223 C213 1.272 . S
O223 Co215 2.135 . S
Co224 O225 2.216 . S
Co224 O226 2.091 . S
Co224 O228 2.004 1_545 S
Co224 O234 2.021 . S
Co224 O236 2.137 . S
Co224 O237 2.244 . S
O225 Co224 2.216 . S
O225 C232 1.247 . S
O226 Co224 2.091 . S
O226 C232 1.261 . S
C227 O236 1.247 . S
C227 O237 1.272 . S
O228 Co224 2.004 1_565 S
O228 C233 1.259 . S
Co229 O230 2.061 . S
Co229 O235 2.078 . S
Co229 O237 2.135 1_565 S
O230 Co229 2.061 . S
O230 C233 1.235 . S
C231 O234 1.238 . S
C231 O235 1.218 1_545 S
C232 O225 1.247 . S
C232 O226 1.261 . S
C233 O228 1.259 . S
C233 O230 1.235 . S
O234 Co224 2.021 . S
O234 C231 1.238 . S
O235 Co229 2.078 . S
O235 C231 1.218 1_565 S
O236 Co224 2.137 . S
O236 C227 1.247 . S
O237 Co224 2.244 . S
O237 C227 1.272 . S
O237 Co229 2.135 1_545 S
Co238 O239 2.216 . S
Co238 O240 2.091 . S
Co238 O242 2.004 . S
Co238 O248 2.021 . S
Co238 O250 2.137 . S
Co238 O251 2.244 . S
O239 Co238 2.216 . S
O239 C246 1.247 . S
O240 Co238 2.091 . S
O240 C246 1.261 . S
C241 O250 1.247 . S
C241 O251 1.272 . S
O242 Co238 2.004 . S
O242 C247 1.259 . S
Co243 O244 2.061 . S
Co243 O249 2.052 . S
Co243 O251 2.135 . S
O244 Co243 2.061 . S
O244 C247 1.235 . S
C245 O248 1.238 . S
C245 O249 1.241 . S
C246 O239 1.247 . S
C246 O240 1.261 . S
C247 O242 1.259 . S
C247 O244 1.235 . S
O248 Co238 2.021 . S
O248 C245 1.238 . S
O249 Co243 2.052 . S
O249 C245 1.241 . S
O250 Co238 2.137 . S
O250 C241 1.247 . S
O251 Co238 2.244 . S
O251 C241 1.272 . S
O251 Co243 2.135 . S
Co252 O253 2.216 . S
Co252 O254 2.091 . S
Co252 O256 2.004 . S
Co252 O262 2.021 . S
Co252 O264 2.137 . S
Co252 O265 2.244 . S
O253 Co252 2.216 . S
O253 C260 1.247 . S
O254 Co252 2.091 . S
O254 C260 1.261 . S
C255 O264 1.247 . S
C255 O265 1.272 . S
O256 Co252 2.004 . S
O256 C261 1.259 . S
Co257 O258 2.061 . S
Co257 O263 2.052 . S
Co257 O265 2.135 . S
O258 Co257 2.061 . S
O258 C261 1.235 . S
C259 O262 1.238 . S
C259 O263 1.241 . S
C260 O253 1.247 . S
C260 O254 1.261 . S
C261 O256 1.259 . S
C261 O258 1.235 . S
O262 Co252 2.021 . S
O262 C259 1.238 . S
O263 Co257 2.052 . S
O263 C259 1.241 . S
O264 Co252 2.137 . S
O264 C255 1.247 . S
O265 Co252 2.244 . S
O265 C255 1.272 . S
O265 Co257 2.135 . S
Co266 O267 2.197 1_545 S
Co266 O268 2.091 . S
Co266 O270 2.004 . S
Co266 O276 2.021 . S
Co266 O278 2.137 . S
Co266 O279 2.244 . S
O267 Co266 2.197 1_565 S
O267 C274 1.251 1_565 S
O268 Co266 2.091 . S
O268 C274 1.261 . S
C269 O278 1.247 . S
C269 O279 1.272 . S
O270 Co266 2.004 . S
O270 C275 1.259 . S
Co271 O272 2.061 . S
Co271 O277 2.052 . S
Co271 O279 2.135 . S
O272 Co271 2.061 . S
O272 C275 1.235 . S
C273 O276 1.238 . S
C273 O277 1.241 . S
C274 O267 1.251 1_545 S
C274 O268 1.261 . S
C275 O270 1.259 . S
C275 O272 1.235 . S
O276 Co266 2.021 . S
O276 C273 1.238 . S
O277 Co271 2.052 . S
O277 C273 1.241 . S
O278 Co266 2.137 . S
O278 C269 1.247 . S
O279 Co266 2.244 . S
O279 C269 1.272 . S
O279 Co271 2.135 . S
Co280 O281 2.216 . S
Co280 O282 2.091 . S
Co280 O284 2.004 . S
Co280 O290 2.021 . S
Co280 O292 2.137 1_554 S
Co280 O293 2.244 . S
O281 Co280 2.216 . S
O281 C288 1.247 . S
O282 Co280 2.091 . S
O282 C288 1.261 . S
C283 O292 1.247 . S
C283 O293 1.272 1_556 S
O284 Co280 2.004 . S
O284 C289 1.259 . S
Co285 O286 2.061 . S
Co285 O291 2.052 . S
Co285 O293 2.135 . S
O286 Co285 2.061 . S
O286 C289 1.235 . S
C287 O290 1.238 . S
C287 O291 1.241 . S
C288 O281 1.247 . S
C288 O282 1.261 . S
C289 O284 1.259 . S
C289 O286 1.235 . S
O290 Co280 2.021 . S
O290 C287 1.238 . S
O291 Co285 2.052 . S
O291 C287 1.241 . S
O292 Co280 2.137 1_556 S
O292 C283 1.247 . S
O293 Co280 2.244 . S
O293 C283 1.272 1_554 S
O293 Co285 2.135 . S
Co294 O295 2.216 . S
Co294 O296 2.091 . S
Co294 O298 2.004 . S
Co294 O304 2.021 . S
Co294 O306 2.137 . S
Co294 O307 2.244 . S
O295 Co294 2.216 . S
O295 C302 1.247 . S
O296 Co294 2.091 . S
O296 C302 1.261 . S
C297 O306 1.247 . S
C297 O307 1.272 . S
O298 Co294 2.004 . S
O298 C303 1.259 . S
Co299 O300 2.061 . S
Co299 O305 2.052 . S
Co299 O307 2.135 . S
O300 Co299 2.061 . S
O300 C303 1.235 . S
C301 O304 1.238 . S
C301 O305 1.241 . S
C302 O295 1.247 . S
C302 O296 1.261 . S
C303 O298 1.259 . S
C303 O300 1.235 . S
O304 Co294 2.021 . S
O304 C301 1.238 . S
O305 Co299 2.052 . S
O305 C301 1.241 . S
O306 Co294 2.137 . S
O306 C297 1.247 . S
O307 Co294 2.244 . S
O307 C297 1.272 . S
O307 Co299 2.135 . S
Co308 O309 2.216 . S
Co308 O310 2.091 . S
Co308 O312 2.004 . S
Co308 O318 2.021 . S
Co308 O320 2.137 . S
Co308 O321 2.244 . S
O309 Co308 2.216 . S
O309 C316 1.247 . S
O310 Co308 2.091 . S
O310 C316 1.261 . S
C311 O320 1.247 . S
C311 O321 1.272 . S
O312 Co308 2.004 . S
O312 C317 1.259 . S
Co313 O314 2.061 . S
Co313 O319 2.052 . S
Co313 O321 2.135 . S
O314 Co313 2.061 . S
O314 C317 1.235 . S
C315 O318 1.238 . S
C315 O319 1.241 . S
C316 O309 1.247 . S
C316 O310 1.261 . S
C317 O312 1.259 . S
C317 O314 1.235 . S
O318 Co308 2.021 . S
O318 C315 1.238 . S
O319 Co313 2.052 . S
O319 C315 1.241 . S
O320 Co308 2.137 . S
O320 C311 1.247 . S
O321 Co308 2.244 . S
O321 C311 1.272 . S
O321 Co313 2.135 . S
Co322 O323 2.216 . S
Co322 O324 2.091 . S
Co322 O326 2.004 . S
Co322 O332 2.021 . S
Co322 O334 2.137 . S
Co322 O335 2.244 . S
O323 Co322 2.216 . S
O323 C330 1.247 . S
O324 Co322 2.091 . S
O324 C330 1.261 . S
C325 O334 1.247 . S
C325 O335 1.272 . S
O326 Co322 2.004 . S
O326 C331 1.259 . S
Co327 O328 2.061 . S
Co327 O333 2.052 . S
Co327 O335 2.135 . S
O328 Co327 2.061 . S
O328 C331 1.235 . S
C329 O332 1.238 . S
C329 O333 1.241 . S
C330 O323 1.247 . S
C330 O324 1.261 . S
C331 O326 1.259 . S
C331 O328 1.235 . S
O332 Co322 2.021 . S
O332 C329 1.238 . S
O333 Co327 2.052 . S
O333 C329 1.241 . S
O334 Co322 2.137 . S
O334 C325 1.247 . S
O335 Co322 2.244 . S
O335 C325 1.272 . S
O335 Co327 2.135 . S
Tb336 C345 2.764 . S
Tb336 O346 2.325 . S
Tb336 O349 2.303 . S
Tb336 O353 2.322 . S
Tb336 O354 2.349 . S
Tb336 O357 2.415 . S
Tb336 O358 2.399 . S
Tb337 O347 2.322 1_545 S
Tb337 O348 2.349 1_554 S
Tb337 O350 2.415 1_455 S
Tb337 O351 2.399 1_454 S
Tb337 O352 2.325 . S
Tb337 O355 2.303 . S
Tb337 C366 2.764 1_455 S
C338 O354 1.261 . S
C338 O355 1.257 . S
C339 C342 1.358 . S
C339 C343 1.332 . S
C339 C345 1.504 . S
C340 C341 1.373 . S
C340 C344 1.308 . S
C341 C340 1.373 . S
C341 C342 1.429 . S
C341 H368 0.932 . S
C342 C339 1.358 . S
C342 C341 1.429 . S
C342 H369 0.930 . S
C343 C339 1.332 . S
C343 C344 1.394 . S
C343 H370 0.932 . S
C344 C340 1.308 . S
C344 C343 1.394 . S
C344 H371 0.929 . S
C345 Tb336 2.764 . S
C345 C339 1.504 . S
C345 O357 1.239 . S
C345 O358 1.263 . S
O346 Tb336 2.325 . S
O346 C356 1.236 1_545 S
O347 Tb337 2.322 1_565 S
O347 C356 1.257 . S
O348 Tb337 2.349 1_556 S
O348 C359 1.261 . S
O349 Tb336 2.303 . S
O349 C359 1.257 1_554 S
O350 Tb337 2.415 1_655 S
O350 C366 1.239 . S
O351 Tb337 2.399 1_656 S
O351 C366 1.263 1_556 S
O352 Tb337 2.325 . S
O352 C367 1.236 . S
O353 Tb336 2.322 . S
O353 C367 1.257 . S
O354 Tb336 2.349 . S
O354 C338 1.261 . S
O355 Tb337 2.303 . S
O355 C338 1.257 . S
C356 O346 1.236 1_565 S
C356 O347 1.257 . S
O357 Tb336 2.415 . S
O357 C345 1.239 . S
O358 Tb336 2.399 . S
O358 C345 1.263 . S
C359 O348 1.261 . S
C359 O349 1.257 1_556 S
C360 C363 1.358 1_554 S
C360 C364 1.332 . S
C360 C366 1.504 . S
C361 C362 1.373 1_554 S
C361 C365 1.308 . S
C362 C361 1.373 1_556 S
C362 C363 1.429 . S
C362 H372 0.932 . S
C363 C360 1.358 1_556 S
C363 C362 1.429 . S
C363 H373 0.930 . S
C364 C360 1.332 . S
C364 C365 1.394 . S
C364 H374 0.932 . S
C365 C361 1.308 . S
C365 C364 1.394 . S
C365 H375 0.929 . S
C366 Tb337 2.764 1_655 S
C366 O350 1.239 . S
C366 O351 1.263 1_554 S
C366 C360 1.504 . S
C367 O352 1.236 . S
C367 O353 1.257 . S
H368 C341 0.932 . S
H369 C342 0.930 . S
H370 C343 0.932 . S
H371 C344 0.929 . S
H372 C362 0.932 . S
H373 C363 0.930 . S
H374 C364 0.932 . S
H375 C365 0.929 . S
Tb376 C385 2.764 . S
Tb376 O386 2.325 . S
Tb376 O389 2.303 . S
Tb376 O393 2.322 . S
Tb376 O394 2.349 . S
Tb376 O397 2.415 . S
Tb376 O398 2.399 . S
Tb377 O387 2.322 . S
Tb377 O388 2.349 . S
Tb377 O390 2.415 . S
Tb377 O391 2.399 . S
Tb377 O392 2.325 . S
Tb377 O395 2.303 . S
Tb377 C406 2.764 . S
C378 O394 1.261 . S
C378 O395 1.257 . S
C379 C382 1.358 . S
C379 C383 1.332 . S
C379 C385 1.504 . S
C380 C381 1.373 . S
C380 C384 1.308 . S
C381 C380 1.373 . S
C381 C382 1.429 . S
C381 H408 0.932 . S
C382 C379 1.358 . S
C382 C381 1.429 . S
C382 H409 0.930 . S
C383 C379 1.332 . S
C383 C384 1.394 . S
C383 H410 0.932 . S
C384 C380 1.308 . S
C384 C383 1.394 . S
C384 H411 0.929 . S
C385 Tb376 2.764 . S
C385 C379 1.504 . S
C385 O397 1.239 . S
C385 O398 1.263 . S
O386 Tb376 2.325 . S
O386 C396 1.236 . S
O387 Tb377 2.322 . S
O387 C396 1.257 . S
O388 Tb377 2.349 . S
O388 C399 1.261 . S
O389 Tb376 2.303 . S
O389 C399 1.257 . S
O390 Tb377 2.415 . S
O390 C406 1.239 . S
O391 Tb377 2.399 . S
O391 C406 1.263 . S
O392 Tb377 2.325 . S
O392 C407 1.236 . S
O393 Tb376 2.322 . S
O393 C407 1.257 . S
O394 Tb376 2.349 . S
O394 C378 1.261 . S
O395 Tb377 2.303 . S
O395 C378 1.257 . S
C396 O386 1.236 . S
C396 O387 1.257 . S
O397 Tb376 2.415 . S
O397 C385 1.239 . S
O398 Tb376 2.399 . S
O398 C385 1.263 . S
C399 O388 1.261 . S
C399 O389 1.257 . S
C400 C403 1.358 . S
C400 C404 1.332 . S
C400 C406 1.504 . S
C401 C402 1.373 . S
C401 C405 1.308 . S
C402 C401 1.373 . S
C402 C403 1.429 . S
C402 H412 0.932 . S
C403 C400 1.358 . S
C403 C402 1.429 . S
C403 H413 0.930 . S
C404 C400 1.332 . S
C404 C405 1.394 . S
C404 H414 0.932 . S
C405 C401 1.308 . S
C405 C404 1.394 . S
C405 H415 0.929 . S
C406 Tb377 2.764 . S
C406 O390 1.239 . S
C406 O391 1.263 . S
C406 C400 1.504 . S
C407 O392 1.236 . S
C407 O393 1.257 . S
H408 C381 0.932 . S
H409 C382 0.930 . S
H410 C383 0.932 . S
H411 C384 0.929 . S
H412 C402 0.932 . S
H413 C403 0.930 . S
H414 C404 0.932 . S
H415 C405 0.929 . S
Tb416 C425 2.764 . S
Tb416 O426 2.325 . S
Tb416 O429 2.303 . S
Tb416 O433 2.322 1_545 S
Tb416 O434 2.349 . S
Tb416 O437 2.415 . S
Tb416 O438 2.399 . S
Tb417 O427 2.322 . S
Tb417 O428 2.349 . S
Tb417 O430 2.415 . S
Tb417 O431 2.399 . S
Tb417 O432 2.325 1_545 S
Tb417 O435 2.303 . S
Tb417 C446 2.764 . S
C418 O434 1.261 . S
C418 O435 1.257 . S
C419 C422 1.358 . S
C419 C423 1.332 . S
C419 C425 1.504 . S
C420 C421 1.373 . S
C420 C424 1.308 . S
C421 C420 1.373 . S
C421 C422 1.429 . S
C421 H448 0.932 . S
C422 C419 1.358 . S
C422 C421 1.429 . S
C422 H449 0.930 . S
C423 C419 1.332 . S
C423 C424 1.394 . S
C423 H450 0.932 . S
C424 C420 1.308 . S
C424 C423 1.394 . S
C424 H451 0.929 . S
C425 Tb416 2.764 . S
C425 C419 1.504 . S
C425 O437 1.239 . S
C425 O438 1.263 . S
O426 Tb416 2.325 . S
O426 C436 1.236 . S
O427 Tb417 2.322 . S
O427 C436 1.257 . S
O428 Tb417 2.349 . S
O428 C439 1.261 . S
O429 Tb416 2.303 . S
O429 C439 1.257 . S
O430 Tb417 2.415 . S
O430 C446 1.239 . S
O431 Tb417 2.399 . S
O431 C446 1.263 . S
O432 Tb417 2.325 1_565 S
O432 C447 1.236 . S
O433 Tb416 2.322 1_565 S
O433 C447 1.257 . S
O434 Tb416 2.349 . S
O434 C418 1.261 . S
O435 Tb417 2.303 . S
O435 C418 1.257 . S
C436 O426 1.236 . S
C436 O427 1.257 . S
O437 Tb416 2.415 . S
O437 C425 1.239 . S
O438 Tb416 2.399 . S
O438 C425 1.263 . S
C439 O428 1.261 . S
C439 O429 1.257 . S
C440 C443 1.358 . S
C440 C444 1.298 1_545 S
C440 C446 1.537 . S
C441 C442 1.373 . S
C441 C445 1.308 . S
C442 C441 1.373 . S
C442 C443 1.429 1_565 S
C442 H452 0.932 . S
C443 C440 1.358 . S
C443 C442 1.429 1_545 S
C443 H453 0.930 . S
C444 C440 1.298 1_565 S
C444 C445 1.394 . S
C444 H454 0.932 . S
C445 C441 1.308 . S
C445 C444 1.394 . S
C445 H455 0.929 . S
C446 Tb417 2.764 . S
C446 O430 1.239 . S
C446 O431 1.263 . S
C446 C440 1.537 . S
C447 O432 1.236 . S
C447 O433 1.257 . S
H448 C421 0.932 . S
H449 C422 0.930 . S
H450 C423 0.932 . S
H451 C424 0.929 . S
H452 C442 0.932 . S
H453 C443 0.930 . S
H454 C444 0.932 . S
H455 C445 0.929 . S
Tb456 C465 2.764 . S
Tb456 O466 2.325 . S
Tb456 O469 2.303 . S
Tb456 O473 2.322 . S
Tb456 O474 2.349 . S
Tb456 O477 2.415 . S
Tb456 O478 2.399 . S
Tb457 O467 2.322 . S
Tb457 O468 2.349 . S
Tb457 O470 2.415 . S
Tb457 O471 2.399 . S
Tb457 O472 2.325 . S
Tb457 O475 2.303 . S
Tb457 C486 2.764 . S
C458 O474 1.261 . S
C458 O475 1.257 . S
C459 C462 1.358 . S
C459 C463 1.332 . S
C459 C465 1.504 . S
C460 C461 1.373 . S
C460 C464 1.308 . S
C461 C460 1.373 . S
C461 C462 1.429 . S
C461 H488 0.932 . S
C462 C459 1.358 . S
C462 C461 1.429 . S
C462 H489 0.930 . S
C463 C459 1.332 . S
C463 C464 1.394 . S
C463 H490 0.932 . S
C464 C460 1.308 . S
C464 C463 1.394 . S
C464 H491 0.929 . S
C465 Tb456 2.764 . S
C465 C459 1.504 . S
C465 O477 1.239 . S
C465 O478 1.263 . S
O466 Tb456 2.325 . S
O466 C476 1.236 . S
O467 Tb457 2.322 . S
O467 C476 1.257 . S
O468 Tb457 2.349 . S
O468 C479 1.261 . S
O469 Tb456 2.303 . S
O469 C479 1.257 . S
O470 Tb457 2.415 . S
O470 C486 1.239 . S
O471 Tb457 2.399 . S
O471 C486 1.263 . S
O472 Tb457 2.325 . S
O472 C487 1.236 . S
O473 Tb456 2.322 . S
O473 C487 1.257 . S
O474 Tb456 2.349 . S
O474 C458 1.261 . S
O475 Tb457 2.303 . S
O475 C458 1.257 . S
C476 O466 1.236 . S
C476 O467 1.257 . S
O477 Tb456 2.415 . S
O477 C465 1.239 . S
O478 Tb456 2.399 . S
O478 C465 1.263 . S
C479 O468 1.261 . S
C479 O469 1.257 . S
C480 C483 1.358 . S
C480 C484 1.332 . S
C480 C486 1.504 . S
C481 C482 1.373 . S
C481 C485 1.308 . S
C482 C481 1.373 . S
C482 C483 1.429 . S
C482 H492 0.932 . S
C483 C480 1.358 . S
C483 C482 1.429 . S
C483 H493 0.930 . S
C484 C480 1.332 . S
C484 C485 1.394 . S
C484 H494 0.932 . S
C485 C481 1.308 . S
C485 C484 1.394 . S
C485 H495 0.929 . S
C486 Tb457 2.764 . S
C486 O470 1.239 . S
C486 O471 1.263 . S
C486 C480 1.504 . S
C487 O472 1.236 . S
C487 O473 1.257 . S
H488 C461 0.932 . S
H489 C462 0.930 . S
H490 C463 0.932 . S
H491 C464 0.929 . S
H492 C482 0.932 . S
H493 C483 0.930 . S
H494 C484 0.932 . S
H495 C485 0.929 . S
Tb496 C505 2.764 . S
Tb496 O506 2.325 . S
Tb496 O509 2.303 . S
Tb496 O513 2.322 . S
Tb496 O514 2.349 . S
Tb496 O517 2.415 . S
Tb496 O518 2.399 . S
Tb497 O507 2.322 1_545 S
Tb497 O508 2.349 . S
Tb497 O510 2.415 . S
Tb497 O511 2.399 . S
Tb497 O512 2.325 . S
Tb497 O515 2.303 . S
Tb497 C526 2.764 . S
C498 O514 1.261 1_655 S
C498 O515 1.257 1_655 S
C499 C502 1.358 . S
C499 C503 1.332 . S
C499 C505 1.504 . S
C500 C501 1.373 . S
C500 C504 1.308 . S
C501 C500 1.373 . S
C501 C502 1.429 . S
C501 H528 0.932 . S
C502 C499 1.358 . S
C502 C501 1.429 . S
C502 H529 0.930 . S
C503 C499 1.332 . S
C503 C504 1.394 . S
C503 H530 0.932 . S
C504 C500 1.308 . S
C504 C503 1.394 . S
C504 H531 0.929 . S
C505 Tb496 2.764 . S
C505 C499 1.504 . S
C505 O517 1.239 . S
C505 O518 1.263 . S
O506 Tb496 2.325 . S
O506 C516 1.236 1_545 S
O507 Tb497 2.322 1_565 S
O507 C516 1.257 . S
O508 Tb497 2.349 . S
O508 C519 1.261 . S
O509 Tb496 2.303 . S
O509 C519 1.257 . S
O510 Tb497 2.415 . S
O510 C526 1.239 . S
O511 Tb497 2.399 . S
O511 C526 1.263 . S
O512 Tb497 2.325 . S
O512 C527 1.236 . S
O513 Tb496 2.322 . S
O513 C527 1.257 . S
O514 Tb496 2.349 . S
O514 C498 1.261 1_455 S
O515 Tb497 2.303 . S
O515 C498 1.257 1_455 S
C516 O506 1.236 1_565 S
C516 O507 1.257 . S
O517 Tb496 2.415 . S
O517 C505 1.239 . S
O518 Tb496 2.399 . S
O518 C505 1.263 . S
C519 O508 1.261 . S
C519 O509 1.257 . S
C520 C523 1.358 . S
C520 C524 1.332 1_455 S
C520 C526 1.504 . S
C521 C522 1.373 . S
C521 C525 1.308 1_455 S
C522 C521 1.373 . S
C522 C523 1.429 . S
C522 H532 0.932 . S
C523 C520 1.358 . S
C523 C522 1.429 . S
C523 H533 0.930 . S
C524 C520 1.332 1_655 S
C524 C525 1.394 . S
C524 H534 0.932 . S
C525 C521 1.308 1_655 S
C525 C524 1.394 . S
C525 H535 0.929 . S
C526 Tb497 2.764 . S
C526 O510 1.239 . S
C526 O511 1.263 . S
C526 C520 1.504 . S
C527 O512 1.236 . S
C527 O513 1.257 . S
H528 C501 0.932 . S
H529 C502 0.930 . S
H530 C503 0.932 . S
H531 C504 0.929 . S
H532 C522 0.932 . S
H533 C523 0.930 . S
H534 C524 0.932 . S
H535 C525 0.929 . S
Tb536 C545 2.764 . S
Tb536 O546 2.325 . S
Tb536 O549 2.303 . S
Tb536 O553 2.322 . S
Tb536 O554 2.349 . S
Tb536 O557 2.415 . S
Tb536 O558 2.399 . S
Tb537 O547 2.322 . S
Tb537 O548 2.349 . S
Tb537 O550 2.415 . S
Tb537 O551 2.399 . S
Tb537 O552 2.325 . S
Tb537 O555 2.303 . S
Tb537 C566 2.764 . S
C538 O554 1.261 . S
C538 O555 1.257 . S
C539 C542 1.358 . S
C539 C543 1.332 . S
C539 C545 1.504 . S
C540 C541 1.373 . S
C540 C544 1.308 . S
C541 C540 1.373 . S
C541 C542 1.429 . S
C541 H568 0.932 . S
C542 C539 1.358 . S
C542 C541 1.429 . S
C542 H569 0.930 . S
C543 C539 1.332 . S
C543 C544 1.394 . S
C543 H570 0.932 . S
C544 C540 1.308 . S
C544 C543 1.394 . S
C544 H571 0.929 . S
C545 Tb536 2.764 . S
C545 C539 1.504 . S
C545 O557 1.239 . S
C545 O558 1.263 . S
O546 Tb536 2.325 . S
O546 C556 1.236 . S
O547 Tb537 2.322 . S
O547 C556 1.257 . S
O548 Tb537 2.349 . S
O548 C559 1.261 . S
O549 Tb536 2.303 . S
O549 C559 1.257 . S
O550 Tb537 2.415 . S
O550 C566 1.239 . S
O551 Tb537 2.399 . S
O551 C566 1.263 . S
O552 Tb537 2.325 . S
O552 C567 1.236 . S
O553 Tb536 2.322 . S
O553 C567 1.257 . S
O554 Tb536 2.349 . S
O554 C538 1.261 . S
O555 Tb537 2.303 . S
O555 C538 1.257 . S
C556 O546 1.236 . S
C556 O547 1.257 . S
O557 Tb536 2.415 . S
O557 C545 1.239 . S
O558 Tb536 2.399 . S
O558 C545 1.263 . S
C559 O548 1.261 . S
C559 O549 1.257 . S
C560 C563 1.358 . S
C560 C564 1.332 . S
C560 C566 1.504 . S
C561 C562 1.373 . S
C561 C565 1.308 . S
C562 C561 1.373 . S
C562 C563 1.429 . S
C562 H572 0.932 . S
C563 C560 1.358 . S
C563 C562 1.429 . S
C563 H573 0.930 . S
C564 C560 1.332 . S
C564 C565 1.394 . S
C564 H574 0.932 . S
C565 C561 1.308 . S
C565 C564 1.394 . S
C565 H575 0.929 . S
C566 Tb537 2.764 . S
C566 O550 1.239 . S
C566 O551 1.263 . S
C566 C560 1.504 . S
C567 O552 1.236 . S
C567 O553 1.257 . S
H568 C541 0.932 . S
H569 C542 0.930 . S
H570 C543 0.932 . S
H571 C544 0.929 . S
H572 C562 0.932 . S
H573 C563 0.930 . S
H574 C564 0.932 . S
H575 C565 0.929 . S
Tb576 C585 2.764 . S
Tb576 O586 2.325 . S
Tb576 O589 2.303 . S
Tb576 O593 2.322 1_545 S
Tb576 O594 2.349 . S
Tb576 O597 2.415 . S
Tb576 O598 2.399 . S
Tb577 O587 2.322 . S
Tb577 O588 2.349 . S
Tb577 O590 2.415 1_554 S
Tb577 O591 2.399 1_554 S
Tb577 O592 2.325 1_554 S
Tb577 O595 2.303 . S
Tb577 C606 2.764 1_554 S
C578 O594 1.261 . S
C578 O595 1.257 . S
C579 C582 1.358 . S
C579 C583 1.332 . S
C579 C585 1.504 . S
C580 C581 1.373 . S
C580 C584 1.308 . S
C581 C580 1.373 . S
C581 C582 1.429 . S
C581 H608 0.932 . S
C582 C579 1.358 . S
C582 C581 1.429 . S
C582 H609 0.930 . S
C583 C579 1.332 . S
C583 C584 1.394 . S
C583 H610 0.932 . S
C584 C580 1.308 . S
C584 C583 1.394 . S
C584 H611 0.929 . S
C585 Tb576 2.764 . S
C585 C579 1.504 . S
C585 O597 1.239 . S
C585 O598 1.263 . S
O586 Tb576 2.325 . S
O586 C596 1.236 . S
O587 Tb577 2.322 . S
O587 C596 1.257 . S
O588 Tb577 2.349 . S
O588 C599 1.261 . S
O589 Tb576 2.303 . S
O589 C599 1.257 . S
O590 Tb577 2.415 1_556 S
O590 C606 1.239 . S
O591 Tb577 2.399 1_556 S
O591 C606 1.263 . S
O592 Tb577 2.325 1_556 S
O592 C607 1.228 1_546 S
O593 Tb576 2.322 1_565 S
O593 C607 1.257 . S
O594 Tb576 2.349 . S
O594 C578 1.261 . S
O595 Tb577 2.303 . S
O595 C578 1.257 . S
C596 O586 1.236 . S
C596 O587 1.257 . S
O597 Tb576 2.415 . S
O597 C585 1.239 . S
O598 Tb576 2.399 . S
O598 C585 1.263 . S
C599 O588 1.261 . S
C599 O589 1.257 . S
C600 C603 1.358 . S
C600 C604 1.332 . S
C600 C606 1.504 . S
C601 C602 1.373 . S
C601 C605 1.308 . S
C602 C601 1.373 . S
C602 C603 1.429 . S
C602 H612 0.932 . S
C603 C600 1.358 . S
C603 C602 1.429 . S
C603 H613 0.930 . S
C604 C600 1.332 . S
C604 C605 1.394 . S
C604 H614 0.932 . S
C605 C601 1.308 . S
C605 C604 1.394 . S
C605 H615 0.929 . S
C606 Tb577 2.764 1_556 S
C606 O590 1.239 . S
C606 O591 1.263 . S
C606 C600 1.504 . S
C607 O592 1.228 1_564 S
C607 O593 1.257 . S
H608 C581 0.932 . S
H609 C582 0.930 . S
H610 C583 0.932 . S
H611 C584 0.929 . S
H612 C602 0.932 . S
H613 C603 0.930 . S
H614 C604 0.932 . S
H615 C605 0.929 . S
Tb616 C625 2.764 . S
Tb616 O626 2.325 . S
Tb616 O629 2.303 . S
Tb616 O633 2.322 . S
Tb616 O634 2.349 . S
Tb616 O637 2.415 . S
Tb616 O638 2.399 . S
Tb617 O627 2.322 . S
Tb617 O628 2.349 . S
Tb617 O630 2.415 . S
Tb617 O631 2.399 . S
Tb617 O632 2.325 . S
Tb617 O635 2.303 . S
Tb617 C646 2.764 . S
C618 O634 1.261 . S
C618 O635 1.257 . S
C619 C622 1.358 . S
C619 C623 1.332 . S
C619 C625 1.504 . S
C620 C621 1.373 . S
C620 C624 1.308 . S
C621 C620 1.373 . S
C621 C622 1.429 . S
C621 H648 0.932 . S
C622 C619 1.358 . S
C622 C621 1.429 . S
C622 H649 0.930 . S
C623 C619 1.332 . S
C623 C624 1.394 . S
C623 H650 0.932 . S
C624 C620 1.308 . S
C624 C623 1.394 . S
C624 H651 0.929 . S
C625 Tb616 2.764 . S
C625 C619 1.504 . S
C625 O637 1.239 . S
C625 O638 1.263 . S
O626 Tb616 2.325 . S
O626 C636 1.236 . S
O627 Tb617 2.322 . S
O627 C636 1.257 . S
O628 Tb617 2.349 . S
O628 C639 1.261 . S
O629 Tb616 2.303 . S
O629 C639 1.257 . S
O630 Tb617 2.415 . S
O630 C646 1.239 . S
O631 Tb617 2.399 . S
O631 C646 1.263 . S
O632 Tb617 2.325 . S
O632 C647 1.236 . S
O633 Tb616 2.322 . S
O633 C647 1.257 . S
O634 Tb616 2.349 . S
O634 C618 1.261 . S
O635 Tb617 2.303 . S
O635 C618 1.257 . S
C636 O626 1.236 . S
C636 O627 1.257 . S
O637 Tb616 2.415 . S
O637 C625 1.239 . S
O638 Tb616 2.399 . S
O638 C625 1.263 . S
C639 O628 1.261 . S
C639 O629 1.257 . S
C640 C643 1.358 . S
C640 C644 1.332 . S
C640 C646 1.504 . S
C641 C642 1.373 . S
C641 C645 1.308 . S
C642 C641 1.373 . S
C642 C643 1.429 . S
C642 H652 0.932 . S
C643 C640 1.358 . S
C643 C642 1.429 . S
C643 H653 0.930 . S
C644 C640 1.332 . S
C644 C645 1.394 . S
C644 H654 0.932 . S
C645 C641 1.308 . S
C645 C644 1.394 . S
C645 H655 0.929 . S
C646 Tb617 2.764 . S
C646 O630 1.239 . S
C646 O631 1.263 . S
C646 C640 1.504 . S
C647 O632 1.236 . S
C647 O633 1.257 . S
H648 C621 0.932 . S
H649 C622 0.930 . S
H650 C623 0.932 . S
H651 C624 0.929 . S
H652 C642 0.932 . S
H653 C643 0.930 . S
H654 C644 0.932 . S
H655 C645 0.929 . S
Tb656 C665 2.764 . S
Tb656 O666 2.325 . S
Tb656 O669 2.303 . S
Tb656 O673 2.322 . S
Tb656 O674 2.349 . S
Tb656 O677 2.415 . S
Tb656 O678 2.399 . S
Tb657 O667 2.322 . S
Tb657 O668 2.349 . S
Tb657 O670 2.415 1_554 S
Tb657 O671 2.399 1_554 S
Tb657 O672 2.325 . S
Tb657 O675 2.303 . S
Tb657 C686 2.764 1_554 S
C658 O674 1.261 . S
C658 O675 1.257 . S
C659 C662 1.358 . S
C659 C663 1.332 . S
C659 C665 1.504 . S
C660 C661 1.373 . S
C660 C664 1.308 . S
C661 C660 1.373 . S
C661 C662 1.429 . S
C661 H688 0.932 . S
C662 C659 1.358 . S
C662 C661 1.429 . S
C662 H689 0.930 . S
C663 C659 1.332 . S
C663 C664 1.394 . S
C663 H690 0.932 . S
C664 C660 1.308 . S
C664 C663 1.394 . S
C664 H691 0.929 . S
C665 Tb656 2.764 . S
C665 C659 1.504 . S
C665 O677 1.239 . S
C665 O678 1.263 . S
O666 Tb656 2.325 . S
O666 C676 1.236 . S
O667 Tb657 2.322 . S
O667 C676 1.257 . S
O668 Tb657 2.349 . S
O668 C679 1.261 . S
O669 Tb656 2.303 . S
O669 C679 1.257 . S
O670 Tb657 2.415 1_556 S
O670 C686 1.239 . S
O671 Tb657 2.399 1_556 S
O671 C686 1.263 . S
O672 Tb657 2.325 . S
O672 C687 1.236 . S
O673 Tb656 2.322 . S
O673 C687 1.257 . S
O674 Tb656 2.349 . S
O674 C658 1.261 . S
O675 Tb657 2.303 . S
O675 C658 1.257 . S
C676 O666 1.236 . S
C676 O667 1.257 . S
O677 Tb656 2.415 . S
O677 C665 1.239 . S
O678 Tb656 2.399 . S
O678 C665 1.263 . S
C679 O668 1.261 . S
C679 O669 1.257 . S
C680 C683 1.358 . S
C680 C684 1.332 . S
C680 C686 1.504 . S
C681 C682 1.373 . S
C681 C685 1.308 . S
C682 C681 1.373 . S
C682 C683 1.429 . S
C682 H692 0.932 . S
C683 C680 1.358 . S
C683 C682 1.429 . S
C683 H693 0.930 . S
C684 C680 1.332 . S
C684 C685 1.394 . S
C684 H694 0.932 . S
C685 C681 1.308 . S
C685 C684 1.394 . S
C685 H695 0.929 . S
C686 Tb657 2.764 1_556 S
C686 O670 1.239 . S
C686 O671 1.263 . S
C686 C680 1.504 . S
C687 O672 1.236 . S
C687 O673 1.257 . S
H688 C661 0.932 . S
H689 C662 0.930 . S
H690 C663 0.932 . S
H691 C664 0.929 . S
H692 C682 0.932 . S
H693 C683 0.930 . S
H694 C684 0.932 . S
H695 C685 0.929 . S
Tb696 C705 2.764 . S
Tb696 O706 2.325 . S
Tb696 O709 2.303 . S
Tb696 O713 2.322 . S
Tb696 O714 2.349 . S
Tb696 O717 2.415 . S
Tb696 O718 2.399 . S
Tb697 O707 2.322 . S
Tb697 O708 2.349 . S
Tb697 O710 2.415 . S
Tb697 O711 2.399 . S
Tb697 O712 2.325 . S
Tb697 O715 2.303 . S
Tb697 C726 2.764 . S
C698 O714 1.261 . S
C698 O715 1.257 . S
C699 C702 1.358 . S
C699 C703 1.332 . S
C699 C705 1.504 . S
C700 C701 1.373 . S
C700 C704 1.308 . S
C701 C700 1.373 . S
C701 C702 1.429 . S
C701 H728 0.932 . S
C702 C699 1.358 . S
C702 C701 1.429 . S
C702 H729 0.930 . S
C703 C699 1.332 . S
C703 C704 1.394 . S
C703 H730 0.932 . S
C704 C700 1.308 . S
C704 C703 1.394 . S
C704 H731 0.929 . S
C705 Tb696 2.764 . S
C705 C699 1.504 . S
C705 O717 1.239 . S
C705 O718 1.263 . S
O706 Tb696 2.325 . S
O706 C716 1.236 . S
O707 Tb697 2.322 . S
O707 C716 1.257 . S
O708 Tb697 2.349 . S
O708 C719 1.261 . S
O709 Tb696 2.303 . S
O709 C719 1.257 . S
O710 Tb697 2.415 . S
O710 C726 1.239 . S
O711 Tb697 2.399 . S
O711 C726 1.263 . S
O712 Tb697 2.325 . S
O712 C727 1.236 . S
O713 Tb696 2.322 . S
O713 C727 1.257 . S
O714 Tb696 2.349 . S
O714 C698 1.261 . S
O715 Tb697 2.303 . S
O715 C698 1.257 . S
C716 O706 1.236 . S
C716 O707 1.257 . S
O717 Tb696 2.415 . S
O717 C705 1.239 . S
O718 Tb696 2.399 . S
O718 C705 1.263 . S
C719 O708 1.261 . S
C719 O709 1.257 . S
C720 C723 1.358 . S
C720 C724 1.332 . S
C720 C726 1.504 . S
C721 C722 1.373 . S
C721 C725 1.308 . S
C722 C721 1.373 . S
C722 C723 1.429 . S
C722 H732 0.932 . S
C723 C720 1.358 . S
C723 C722 1.429 . S
C723 H733 0.930 . S
C724 C720 1.332 . S
C724 C725 1.394 . S
C724 H734 0.932 . S
C725 C721 1.308 . S
C725 C724 1.394 . S
C725 H735 0.929 . S
C726 Tb697 2.764 . S
C726 O710 1.239 . S
C726 O711 1.263 . S
C726 C720 1.504 . S
C727 O712 1.236 . S
C727 O713 1.257 . S
H728 C701 0.932 . S
H729 C702 0.930 . S
H730 C703 0.932 . S
H731 C704 0.929 . S
H732 C722 0.932 . S
H733 C723 0.930 . S
H734 C724 0.932 . S
H735 C725 0.929 . S
Tb736 C745 2.764 . S
Tb736 O746 2.325 . S
Tb736 O749 2.303 . S
Tb736 O753 2.322 . S
Tb736 O754 2.349 . S
Tb736 O757 2.415 . S
Tb736 O758 2.399 . S
Tb737 O747 2.322 . S
Tb737 O748 2.349 . S
Tb737 O750 2.415 . S
Tb737 O751 2.399 . S
Tb737 O752 2.325 . S
Tb737 O755 2.303 . S
Tb737 C766 2.764 . S
C738 O754 1.261 . S
C738 O755 1.257 . S
C739 C742 1.358 . S
C739 C743 1.332 1_455 S
C739 C745 1.504 . S
C740 C741 1.373 . S
C740 C744 1.308 1_455 S
C741 C740 1.373 . S
C741 C742 1.429 . S
C741 H768 0.932 . S
C742 C739 1.358 . S
C742 C741 1.429 . S
C742 H769 0.930 . S
C743 C739 1.332 1_655 S
C743 C744 1.394 . S
C743 H770 0.932 . S
C744 C740 1.308 1_655 S
C744 C743 1.394 . S
C744 H771 0.929 . S
C745 Tb736 2.764 . S
C745 C739 1.504 . S
C745 O757 1.239 . S
C745 O758 1.263 . S
O746 Tb736 2.325 . S
O746 C756 1.236 . S
O747 Tb737 2.322 . S
O747 C756 1.257 . S
O748 Tb737 2.349 . S
O748 C759 1.261 1_455 S
O749 Tb736 2.303 . S
O749 C759 1.257 1_455 S
O750 Tb737 2.415 . S
O750 C766 1.239 . S
O751 Tb737 2.399 . S
O751 C766 1.263 . S
O752 Tb737 2.325 . S
O752 C767 1.236 . S
O753 Tb736 2.322 . S
O753 C767 1.257 . S
O754 Tb736 2.349 . S
O754 C738 1.261 . S
O755 Tb737 2.303 . S
O755 C738 1.257 . S
C756 O746 1.236 . S
C756 O747 1.257 . S
O757 Tb736 2.415 . S
O757 C745 1.239 . S
O758 Tb736 2.399 . S
O758 C745 1.263 . S
C759 O748 1.261 1_655 S
C759 O749 1.257 1_655 S
C760 C763 1.358 . S
C760 C764 1.332 . S
C760 C766 1.504 . S
C761 C762 1.373 . S
C761 C765 1.308 . S
C762 C761 1.373 . S
C762 C763 1.429 . S
C762 H772 0.932 . S
C763 C760 1.358 . S
C763 C762 1.429 . S
C763 H773 0.930 . S
C764 C760 1.332 . S
C764 C765 1.394 . S
C764 H774 0.932 . S
C765 C761 1.308 . S
C765 C764 1.394 . S
C765 H775 0.929 . S
C766 Tb737 2.764 . S
C766 O750 1.239 . S
C766 O751 1.263 . S
C766 C760 1.504 . S
C767 O752 1.236 . S
C767 O753 1.257 . S
H768 C741 0.932 . S
H769 C742 0.930 . S
H770 C743 0.932 . S
H771 C744 0.929 . S
H772 C762 0.932 . S
H773 C763 0.930 . S
H774 C764 0.932 . S
H775 C765 0.929 . S
Tb776 C785 2.764 . S
Tb776 O786 2.325 . S
Tb776 O789 2.303 . S
Tb776 O793 2.322 . S
Tb776 O794 2.349 . S
Tb776 O797 2.415 . S
Tb776 O798 2.399 . S
Tb777 O787 2.322 . S
Tb777 O788 2.349 . S
Tb777 O790 2.415 . S
Tb777 O791 2.399 . S
Tb777 O792 2.325 . S
Tb777 O795 2.303 . S
Tb777 C806 2.764 . S
C778 O794 1.261 . S
C778 O795 1.257 . S
C779 C782 1.358 . S
C779 C783 1.332 . S
C779 C785 1.504 . S
C780 C781 1.373 . S
C780 C784 1.308 . S
C781 C780 1.373 . S
C781 C782 1.429 . S
C781 H808 0.932 . S
C782 C779 1.358 . S
C782 C781 1.429 . S
C782 H809 0.930 . S
C783 C779 1.332 . S
C783 C784 1.394 . S
C783 H810 0.932 . S
C784 C780 1.308 . S
C784 C783 1.394 . S
C784 H811 0.929 . S
C785 Tb776 2.764 . S
C785 C779 1.504 . S
C785 O797 1.239 . S
C785 O798 1.263 . S
O786 Tb776 2.325 . S
O786 C796 1.236 . S
O787 Tb777 2.322 . S
O787 C796 1.257 . S
O788 Tb777 2.349 . S
O788 C799 1.261 . S
O789 Tb776 2.303 . S
O789 C799 1.257 . S
O790 Tb777 2.415 . S
O790 C806 1.239 . S
O791 Tb777 2.399 . S
O791 C806 1.263 . S
O792 Tb777 2.325 . S
O792 C807 1.236 . S
O793 Tb776 2.322 . S
O793 C807 1.257 . S
O794 Tb776 2.349 . S
O794 C778 1.261 . S
O795 Tb777 2.303 . S
O795 C778 1.257 . S
C796 O786 1.236 . S
C796 O787 1.257 . S
O797 Tb776 2.415 . S
O797 C785 1.239 . S
O798 Tb776 2.399 . S
O798 C785 1.263 . S
C799 O788 1.261 . S
C799 O789 1.257 . S
C800 C803 1.358 . S
C800 C804 1.332 . S
C800 C806 1.504 . S
C801 C802 1.373 . S
C801 C805 1.308 . S
C802 C801 1.373 . S
C802 C803 1.429 . S
C802 H812 0.932 . S
C803 C800 1.358 . S
C803 C802 1.429 . S
C803 H813 0.930 . S
C804 C800 1.332 . S
C804 C805 1.394 . S
C804 H814 0.932 . S
C805 C801 1.308 . S
C805 C804 1.394 . S
C805 H815 0.929 . S
C806 Tb777 2.764 . S
C806 O790 1.239 . S
C806 O791 1.263 . S
C806 C800 1.504 . S
C807 O792 1.236 . S
C807 O793 1.257 . S
H808 C781 0.932 . S
H809 C782 0.930 . S
H810 C783 0.932 . S
H811 C784 0.929 . S
H812 C802 0.932 . S
H813 C803 0.930 . S
H814 C804 0.932 . S
H815 C805 0.929 . S
Tb816 C825 2.764 . S
Tb816 O826 2.325 . S
Tb816 O829 2.303 . S
Tb816 O833 2.322 . S
Tb816 O834 2.349 . S
Tb816 O837 2.415 . S
Tb816 O838 2.399 . S
Tb817 O827 2.322 . S
Tb817 O828 2.349 . S
Tb817 O830 2.415 . S
Tb817 O831 2.399 . S
Tb817 O832 2.325 . S
Tb817 O835 2.303 . S
Tb817 C846 2.764 . S
C818 O834 1.261 . S
C818 O835 1.257 . S
C819 C822 1.358 . S
C819 C823 1.332 . S
C819 C825 1.504 . S
C820 C821 1.373 . S
C820 C824 1.308 . S
C821 C820 1.373 . S
C821 C822 1.429 . S
C821 H848 0.932 . S
C822 C819 1.358 . S
C822 C821 1.429 . S
C822 H849 0.930 . S
C823 C819 1.332 . S
C823 C824 1.394 . S
C823 H850 0.932 . S
C824 C820 1.308 . S
C824 C823 1.394 . S
C824 H851 0.929 . S
C825 Tb816 2.764 . S
C825 C819 1.504 . S
C825 O837 1.239 . S
C825 O838 1.263 . S
O826 Tb816 2.325 . S
O826 C836 1.236 . S
O827 Tb817 2.322 . S
O827 C836 1.257 . S
O828 Tb817 2.349 . S
O828 C839 1.261 . S
O829 Tb816 2.303 . S
O829 C839 1.257 . S
O830 Tb817 2.415 . S
O830 C846 1.239 . S
O831 Tb817 2.399 . S
O831 C846 1.263 . S
O832 Tb817 2.325 . S
O832 C847 1.236 . S
O833 Tb816 2.322 . S
O833 C847 1.257 . S
O834 Tb816 2.349 . S
O834 C818 1.261 . S
O835 Tb817 2.303 . S
O835 C818 1.257 . S
C836 O826 1.236 . S
C836 O827 1.257 . S
O837 Tb816 2.415 . S
O837 C825 1.239 . S
O838 Tb816 2.399 . S
O838 C825 1.263 . S
C839 O828 1.261 . S
C839 O829 1.257 . S
C840 C843 1.358 . S
C840 C844 1.332 . S
C840 C846 1.504 . S
C841 C842 1.373 . S
C841 C845 1.308 . S
C842 C841 1.373 . S
C842 C843 1.429 . S
C842 H852 0.932 . S
C843 C840 1.358 . S
C843 C842 1.429 . S
C843 H853 0.930 . S
C844 C840 1.332 . S
C844 C845 1.394 . S
C844 H854 0.932 . S
C845 C841 1.308 . S
C845 C844 1.394 . S
C845 H855 0.929 . S
C846 Tb817 2.764 . S
C846 O830 1.239 . S
C846 O831 1.263 . S
C846 C840 1.504 . S
C847 O832 1.236 . S
C847 O833 1.257 . S
H848 C821 0.932 . S
H849 C822 0.930 . S
H850 C823 0.932 . S
H851 C824 0.929 . S
H852 C842 0.932 . S
H853 C843 0.930 . S
H854 C844 0.932 . S
H855 C845 0.929 . S
Tb856 C865 2.764 . S
Tb856 O866 2.325 . S
Tb856 O869 2.303 . S
Tb856 O873 2.322 . S
Tb856 O874 2.349 . S
Tb856 O877 2.415 . S
Tb856 O878 2.399 . S
Tb857 O867 2.322 . S
Tb857 O868 2.349 . S
Tb857 O870 2.415 . S
Tb857 O871 2.399 . S
Tb857 O872 2.325 . S
Tb857 O875 2.303 . S
Tb857 C886 2.764 . S
C858 O874 1.261 . S
C858 O875 1.257 . S
C859 C862 1.358 . S
C859 C863 1.332 . S
C859 C865 1.504 . S
C860 C861 1.373 . S
C860 C864 1.308 . S
C861 C860 1.373 . S
C861 C862 1.429 . S
C861 H888 0.932 . S
C862 C859 1.358 . S
C862 C861 1.429 . S
C862 H889 0.930 . S
C863 C859 1.332 . S
C863 C864 1.394 . S
C863 H890 0.932 . S
C864 C860 1.308 . S
C864 C863 1.394 . S
C864 H891 0.929 . S
C865 Tb856 2.764 . S
C865 C859 1.504 . S
C865 O877 1.239 . S
C865 O878 1.263 . S
O866 Tb856 2.325 . S
O866 C876 1.236 . S
O867 Tb857 2.322 . S
O867 C876 1.257 . S
O868 Tb857 2.349 . S
O868 C879 1.261 . S
O869 Tb856 2.303 . S
O869 C879 1.257 . S
O870 Tb857 2.415 . S
O870 C886 1.239 . S
O871 Tb857 2.399 . S
O871 C886 1.263 . S
O872 Tb857 2.325 . S
O872 C887 1.236 . S
O873 Tb856 2.322 . S
O873 C887 1.257 . S
O874 Tb856 2.349 . S
O874 C858 1.261 . S
O875 Tb857 2.303 . S
O875 C858 1.257 . S
C876 O866 1.236 . S
C876 O867 1.257 . S
O877 Tb856 2.415 . S
O877 C865 1.239 . S
O878 Tb856 2.399 . S
O878 C865 1.263 . S
C879 O868 1.261 . S
C879 O869 1.257 . S
C880 C883 1.358 . S
C880 C884 1.332 . S
C880 C886 1.504 . S
C881 C882 1.373 . S
C881 C885 1.308 . S
C882 C881 1.373 . S
C882 C883 1.429 . S
C882 H892 0.932 . S
C883 C880 1.358 . S
C883 C882 1.429 . S
C883 H893 0.930 . S
C884 C880 1.332 . S
C884 C885 1.394 . S
C884 H894 0.932 . S
C885 C881 1.308 . S
C885 C884 1.394 . S
C885 H895 0.929 . S
C886 Tb857 2.764 . S
C886 O870 1.239 . S
C886 O871 1.263 . S
C886 C880 1.504 . S
C887 O872 1.236 . S
C887 O873 1.257 . S
H888 C861 0.932 . S
H889 C862 0.930 . S
H890 C863 0.932 . S
H891 C864 0.929 . S
H892 C882 0.932 . S
H893 C883 0.930 . S
H894 C884 0.932 . S
H895 C885 0.929 . S
Tb896 C905 2.764 . S
Tb896 O906 2.325 . S
Tb896 O909 2.303 . S
Tb896 O913 2.322 . S
Tb896 O914 2.349 . S
Tb896 O917 2.415 . S
Tb896 O918 2.399 . S
Tb897 O907 2.322 . S
Tb897 O908 2.349 . S
Tb897 O910 2.415 . S
Tb897 O911 2.399 . S
Tb897 O912 2.325 . S
Tb897 O915 2.303 . S
Tb897 C926 2.764 . S
C898 O914 1.261 . S
C898 O915 1.257 . S
C899 C902 1.358 . S
C899 C903 1.332 . S
C899 C905 1.504 . S
C900 C901 1.373 . S
C900 C904 1.308 . S
C901 C900 1.373 . S
C901 C902 1.429 . S
C901 H928 0.932 . S
C902 C899 1.358 . S
C902 C901 1.429 . S
C902 H929 0.930 . S
C903 C899 1.332 . S
C903 C904 1.394 . S
C903 H930 0.932 . S
C904 C900 1.308 . S
C904 C903 1.394 . S
C904 H931 0.929 . S
C905 Tb896 2.764 . S
C905 C899 1.504 . S
C905 O917 1.239 . S
C905 O918 1.263 . S
O906 Tb896 2.325 . S
O906 C916 1.236 . S
O907 Tb897 2.322 . S
O907 C916 1.257 . S
O908 Tb897 2.349 . S
O908 C919 1.261 . S
O909 Tb896 2.303 . S
O909 C919 1.257 . S
O910 Tb897 2.415 . S
O910 C926 1.239 . S
O911 Tb897 2.399 . S
O911 C926 1.263 . S
O912 Tb897 2.325 . S
O912 C927 1.236 . S
O913 Tb896 2.322 . S
O913 C927 1.257 . S
O914 Tb896 2.349 . S
O914 C898 1.261 . S
O915 Tb897 2.303 . S
O915 C898 1.257 . S
C916 O906 1.236 . S
C916 O907 1.257 . S
O917 Tb896 2.415 . S
O917 C905 1.239 . S
O918 Tb896 2.399 . S
O918 C905 1.263 . S
C919 O908 1.261 . S
C919 O909 1.257 . S
C920 C923 1.358 . S
C920 C924 1.332 . S
C920 C926 1.504 . S
C921 C922 1.373 . S
C921 C925 1.308 . S
C922 C921 1.373 . S
C922 C923 1.429 . S
C922 H932 0.932 . S
C923 C920 1.358 . S
C923 C922 1.429 . S
C923 H933 0.930 . S
C924 C920 1.332 . S
C924 C925 1.394 . S
C924 H934 0.932 . S
C925 C921 1.308 . S
C925 C924 1.394 . S
C925 H935 0.929 . S
C926 Tb897 2.764 . S
C926 O910 1.239 . S
C926 O911 1.263 . S
C926 C920 1.504 . S
C927 O912 1.236 . S
C927 O913 1.257 . S
H928 C901 0.932 . S
H929 C902 0.930 . S
H930 C903 0.932 . S
H931 C904 0.929 . S
H932 C922 0.932 . S
H933 C923 0.930 . S
H934 C924 0.932 . S
H935 C925 0.929 . S
Tb936 C945 2.764 1_455 S
Tb936 O946 2.325 . S
Tb936 O949 2.303 . S
Tb936 O953 2.322 . S
Tb936 O954 2.349 . S
Tb936 O957 2.415 1_455 S
Tb936 O958 2.399 1_455 S
Tb937 O947 2.322 . S
Tb937 O948 2.349 1_554 S
Tb937 O950 2.415 . S
Tb937 O951 2.399 . S
Tb937 O952 2.325 . S
Tb937 O955 2.303 . S
Tb937 C966 2.764 . S
C938 O954 1.261 . S
C938 O955 1.257 . S
C939 C942 1.358 . S
C939 C943 1.332 . S
C939 C945 1.504 . S
C940 C941 1.373 . S
C940 C944 1.308 . S
C941 C940 1.373 . S
C941 C942 1.429 . S
C941 H968 0.932 . S
C942 C939 1.358 . S
C942 C941 1.429 . S
C942 H969 0.930 . S
C943 C939 1.332 . S
C943 C944 1.394 . S
C943 H970 0.932 . S
C944 C940 1.308 . S
C944 C943 1.394 . S
C944 H971 0.929 . S
C945 Tb936 2.764 1_655 S
C945 C939 1.504 . S
C945 O957 1.239 . S
C945 O958 1.263 . S
O946 Tb936 2.325 . S
O946 C956 1.236 . S
O947 Tb937 2.322 . S
O947 C956 1.257 . S
O948 Tb937 2.349 1_556 S
O948 C959 1.261 . S
O949 Tb936 2.303 . S
O949 C959 1.257 1_554 S
O950 Tb937 2.415 . S
O950 C966 1.239 . S
O951 Tb937 2.399 . S
O951 C966 1.263 . S
O952 Tb937 2.325 . S
O952 C967 1.236 . S
O953 Tb936 2.322 . S
O953 C967 1.257 . S
O954 Tb936 2.349 . S
O954 C938 1.261 . S
O955 Tb937 2.303 . S
O955 C938 1.257 . S
C956 O946 1.236 . S
C956 O947 1.257 . S
O957 Tb936 2.415 1_655 S
O957 C945 1.239 . S
O958 Tb936 2.399 1_655 S
O958 C945 1.263 . S
C959 O948 1.261 . S
C959 O949 1.257 1_556 S
C960 C963 1.358 1_554 S
C960 C964 1.332 . S
C960 C966 1.504 . S
C961 C962 1.373 1_554 S
C961 C965 1.308 . S
C962 C961 1.373 1_556 S
C962 C963 1.429 . S
C962 H972 0.932 . S
C963 C960 1.358 1_556 S
C963 C962 1.429 . S
C963 H973 0.930 . S
C964 C960 1.332 . S
C964 C965 1.394 . S
C964 H974 0.932 . S
C965 C961 1.308 . S
C965 C964 1.394 . S
C965 H975 0.929 . S
C966 Tb937 2.764 . S
C966 O950 1.239 . S
C966 O951 1.263 . S
C966 C960 1.504 . S
C967 O952 1.236 . S
C967 O953 1.257 . S
H968 C941 0.932 . S
H969 C942 0.930 . S
H970 C943 0.932 . S
H971 C944 0.929 . S
H972 C962 0.932 . S
H973 C963 0.930 . S
H974 C964 0.932 . S
H975 C965 0.929 . S
H976 C982 0.930 . S
H977 C986 0.930 . S
H978 C991 0.929 . S
H979 C989 0.929 . S
H980 C984 0.929 . S
H981 C990 0.929 . S
C982 H976 0.930 . S
C982 C983 1.374 . S
C982 C990 1.378 . S
C983 C982 1.374 . S
C983 C991 1.434 . S
C984 H980 0.929 . S
C984 C986 1.378 . S
C984 C988 1.347 . S
C985 C988 1.464 1_556 S
C985 C990 1.350 . S
C985 N993 1.427 1_556 S
C986 H977 0.930 . S
C986 C984 1.378 . S
C986 C987 1.367 . S
C987 C986 1.367 . S
C987 C989 1.433 1_554 S
C988 C984 1.347 . S
C988 C985 1.464 1_554 S
C988 N992 1.429 1_554 S
C989 H979 0.929 . S
C989 C987 1.433 1_556 S
C989 N992 1.384 . S
C990 H981 0.929 . S
C990 C982 1.378 . S
C990 C985 1.350 . S
C991 H978 0.929 . S
C991 C983 1.434 . S
C991 N993 1.384 1_556 S
N992 C988 1.429 1_556 S
N992 C989 1.384 . S
N993 C985 1.427 1_554 S
N993 C991 1.384 1_554 S
H994 C1000 0.930 . S
H995 C1004 0.930 . S
H996 C1009 0.929 . S
H997 C1007 0.929 . S
H998 C1002 0.929 . S
H999 C1008 0.929 . S
C1000 H994 0.930 . S
C1000 C1001 1.367 . S
C1000 C1008 1.378 . S
C1001 C1000 1.367 . S
C1001 C1009 1.433 . S
C1002 H998 0.929 . S
C1002 C1004 1.378 . S
C1002 C1006 1.350 . S
C1003 C1006 1.463 . S
C1003 C1008 1.350 . S
C1003 N1011 1.427 . S
C1004 H995 0.930 . S
C1004 C1002 1.378 . S
C1004 C1005 1.367 . S
C1005 C1004 1.367 . S
C1005 C1007 1.433 . S
C1006 C1002 1.350 . S
C1006 C1003 1.463 . S
C1006 N1010 1.427 . S
C1007 H997 0.929 . S
C1007 C1005 1.433 . S
C1007 N1010 1.384 . S
C1008 H999 0.929 . S
C1008 C1000 1.378 . S
C1008 C1003 1.350 . S
C1009 H996 0.929 . S
C1009 C1001 1.433 . S
C1009 N1011 1.384 . S
N1010 C1006 1.427 . S
N1010 C1007 1.384 . S
N1011 C1003 1.427 . S
N1011 C1009 1.384 . S
H1012 C1018 0.930 . S
H1013 C1022 0.930 . S
H1014 C1027 0.929 . S
H1015 C1025 0.929 . S
H1016 C1020 0.929 . S
H1017 C1026 0.929 . S
C1018 H1012 0.930 . S
C1018 C1019 1.367 . S
C1018 C1026 1.378 . S
C1019 C1018 1.367 . S
C1019 C1027 1.433 . S
C1020 H1016 0.929 . S
C1020 C1022 1.378 . S
C1020 C1024 1.350 . S
C1021 C1024 1.463 . S
C1021 C1026 1.350 . S
C1021 N1029 1.427 . S
C1022 H1013 0.930 . S
C1022 C1020 1.378 . S
C1022 C1023 1.367 . S
C1023 C1022 1.367 . S
C1023 C1025 1.433 . S
C1024 C1020 1.350 . S
C1024 C1021 1.463 . S
C1024 N1028 1.427 . S
C1025 H1015 0.929 . S
C1025 C1023 1.433 . S
C1025 N1028 1.384 . S
C1026 H1017 0.929 . S
C1026 C1018 1.378 . S
C1026 C1021 1.350 . S
C1027 H1014 0.929 . S
C1027 C1019 1.433 . S
C1027 N1029 1.384 . S
N1028 C1024 1.427 . S
N1028 C1025 1.384 . S
N1029 C1021 1.427 . S
N1029 C1027 1.384 . S
H1030 C1036 0.930 . S
H1031 C1040 0.930 . S
H1032 C1045 0.929 . S
H1033 C1043 0.929 . S
H1034 C1038 0.929 . S
H1035 C1044 0.929 . S
C1036 H1030 0.930 . S
C1036 C1037 1.367 . S
C1036 C1044 1.378 . S
C1037 C1036 1.367 . S
C1037 C1045 1.433 . S
C1038 H1034 0.929 . S
C1038 C1040 1.378 . S
C1038 C1042 1.350 . S
C1039 C1042 1.463 . S
C1039 C1044 1.350 . S
C1039 N1047 1.427 . S
C1040 H1031 0.930 . S
C1040 C1038 1.378 . S
C1040 C1041 1.367 . S
C1041 C1040 1.367 . S
C1041 C1043 1.433 . S
C1042 C1038 1.350 . S
C1042 C1039 1.463 . S
C1042 N1046 1.427 . S
C1043 H1033 0.929 . S
C1043 C1041 1.433 . S
C1043 N1046 1.384 . S
C1044 H1035 0.929 . S
C1044 C1036 1.378 . S
C1044 C1039 1.350 . S
C1045 H1032 0.929 . S
C1045 C1037 1.433 . S
C1045 N1047 1.384 . S
N1046 C1042 1.427 . S
N1046 C1043 1.384 . S
N1047 C1039 1.427 . S
N1047 C1045 1.384 . S
H1048 C1054 0.930 . S
H1049 C1058 0.930 . S
H1050 C1063 0.929 . S
H1051 C1061 0.929 . S
H1052 C1056 0.929 . S
H1053 C1062 0.929 . S
C1054 H1048 0.930 . S
C1054 C1055 1.367 . S
C1054 C1062 1.378 . S
C1055 C1054 1.367 . S
C1055 C1063 1.433 . S
C1056 H1052 0.929 . S
C1056 C1058 1.378 . S
C1056 C1060 1.350 . S
C1057 C1060 1.463 . S
C1057 C1062 1.350 . S
C1057 N1065 1.427 . S
C1058 H1049 0.930 . S
C1058 C1056 1.378 . S
C1058 C1059 1.367 . S
C1059 C1058 1.367 . S
C1059 C1061 1.433 . S
C1060 C1056 1.350 . S
C1060 C1057 1.463 . S
C1060 N1064 1.427 . S
C1061 H1051 0.929 . S
C1061 C1059 1.433 . S
C1061 N1064 1.384 . S
C1062 H1053 0.929 . S
C1062 C1054 1.378 . S
C1062 C1057 1.350 . S
C1063 H1050 0.929 . S
C1063 C1055 1.433 . S
C1063 N1065 1.384 . S
N1064 C1060 1.427 . S
N1064 C1061 1.384 . S
N1065 C1057 1.427 . S
N1065 C1063 1.384 . S
H1066 C1072 0.930 . S
H1067 C1076 0.930 . S
H1068 C1081 0.929 . S
H1069 C1079 0.929 . S
H1070 C1074 0.929 . S
H1071 C1080 0.929 . S
C1072 H1066 0.930 . S
C1072 C1073 1.367 . S
C1072 C1080 1.378 . S
C1073 C1072 1.367 . S
C1073 C1081 1.433 . S
C1074 H1070 0.929 . S
C1074 C1076 1.378 . S
C1074 C1078 1.350 . S
C1075 C1078 1.463 . S
C1075 C1080 1.350 . S
C1075 N1083 1.427 . S
C1076 H1067 0.930 . S
C1076 C1074 1.378 . S
C1076 C1077 1.367 . S
C1077 C1076 1.367 . S
C1077 C1079 1.433 . S
C1078 C1074 1.350 . S
C1078 C1075 1.463 . S
C1078 N1082 1.427 . S
C1079 H1069 0.929 . S
C1079 C1077 1.433 . S
C1079 N1082 1.384 . S
C1080 H1071 0.929 . S
C1080 C1072 1.378 . S
C1080 C1075 1.350 . S
C1081 H1068 0.929 . S
C1081 C1073 1.433 . S
C1081 N1083 1.384 . S
N1082 C1078 1.427 . S
N1082 C1079 1.384 . S
N1083 C1075 1.427 . S
N1083 C1081 1.384 . S
H1084 C1090 0.930 . S
H1085 C1094 0.930 . S
H1086 C1099 0.929 . S
H1087 C1097 0.929 . S
H1088 C1092 0.929 . S
H1089 C1098 0.929 . S
C1090 H1084 0.930 . S
C1090 C1091 1.367 . S
C1090 C1098 1.378 . S
C1091 C1090 1.367 . S
C1091 C1099 1.433 . S
C1092 H1088 0.929 . S
C1092 C1094 1.378 . S
C1092 C1096 1.350 . S
C1093 C1096 1.463 . S
C1093 C1098 1.350 . S
C1093 N1101 1.427 . S
C1094 H1085 0.930 . S
C1094 C1092 1.378 . S
C1094 C1095 1.367 . S
C1095 C1094 1.367 . S
C1095 C1097 1.433 . S
C1096 C1092 1.350 . S
C1096 C1093 1.463 . S
C1096 N1100 1.427 . S
C1097 H1087 0.929 . S
C1097 C1095 1.433 . S
C1097 N1100 1.384 . S
C1098 H1089 0.929 . S
C1098 C1090 1.378 . S
C1098 C1093 1.350 . S
C1099 H1086 0.929 . S
C1099 C1091 1.433 . S
C1099 N1101 1.384 . S
N1100 C1096 1.427 . S
N1100 C1097 1.384 . S
N1101 C1093 1.427 . S
N1101 C1099 1.384 . S
H1102 C1108 0.930 . S
H1103 C1112 0.930 . S
H1104 C1117 0.929 . S
H1105 C1115 0.929 . S
H1106 C1110 0.929 . S
H1107 C1116 0.929 . S
C1108 H1102 0.930 . S
C1108 C1109 1.367 . S
C1108 C1116 1.378 . S
C1109 C1108 1.367 . S
C1109 C1117 1.433 . S
C1110 H1106 0.929 . S
C1110 C1112 1.378 . S
C1110 C1114 1.350 . S
C1111 C1114 1.463 . S
C1111 C1116 1.350 . S
C1111 N1119 1.427 . S
C1112 H1103 0.930 . S
C1112 C1110 1.378 . S
C1112 C1113 1.367 . S
C1113 C1112 1.367 . S
C1113 C1115 1.433 . S
C1114 C1110 1.350 . S
C1114 C1111 1.463 . S
C1114 N1118 1.427 . S
C1115 H1105 0.929 . S
C1115 C1113 1.433 . S
C1115 N1118 1.384 . S
C1116 H1107 0.929 . S
C1116 C1108 1.378 . S
C1116 C1111 1.350 . S
C1117 H1104 0.929 . S
C1117 C1109 1.433 . S
C1117 N1119 1.384 . S
N1118 C1114 1.427 . S
N1118 C1115 1.384 . S
N1119 C1111 1.427 . S
N1119 C1117 1.384 . S
H1120 C1126 0.930 1_565 S
H1121 C1130 0.930 . S
H1122 C1135 0.929 . S
H1123 C1133 0.932 . S
H1124 C1128 0.929 . S
H1125 C1134 0.929 . S
C1126 H1120 0.930 1_545 S
C1126 C1127 1.367 . S
C1126 C1134 1.378 . S
C1127 C1126 1.367 . S
C1127 C1135 1.433 . S
C1128 H1124 0.929 . S
C1128 C1130 1.378 . S
C1128 C1132 1.350 1_455 S
C1129 C1132 1.463 . S
C1129 C1134 1.350 . S
C1129 N1137 1.427 . S
C1130 H1121 0.930 . S
C1130 C1128 1.378 . S
C1130 C1131 1.367 . S
C1131 C1130 1.367 . S
C1131 C1133 1.415 1_455 S
C1132 C1128 1.350 1_655 S
C1132 C1129 1.463 . S
C1132 N1136 1.427 . S
C1133 H1123 0.932 . S
C1133 C1131 1.415 1_655 S
C1133 N1136 1.399 . S
C1134 H1125 0.929 . S
C1134 C1126 1.378 . S
C1134 C1129 1.350 . S
C1135 H1122 0.929 . S
C1135 C1127 1.433 . S
C1135 N1137 1.384 . S
N1136 C1132 1.427 . S
N1136 C1133 1.399 . S
N1137 C1129 1.427 . S
N1137 C1135 1.384 . S
H1138 C1144 0.930 . S
H1139 C1148 0.930 . S
H1140 C1153 0.929 . S
H1141 C1151 0.929 . S
H1142 C1146 0.929 . S
H1143 C1152 0.929 . S
C1144 H1138 0.930 . S
C1144 C1145 1.367 . S
C1144 C1152 1.378 . S
C1145 C1144 1.367 . S
C1145 C1153 1.433 . S
C1146 H1142 0.929 . S
C1146 C1148 1.378 . S
C1146 C1150 1.350 . S
C1147 C1150 1.463 . S
C1147 C1152 1.350 . S
C1147 N1155 1.427 . S
C1148 H1139 0.930 . S
C1148 C1146 1.378 . S
C1148 C1149 1.367 . S
C1149 C1148 1.367 . S
C1149 C1151 1.433 . S
C1150 C1146 1.350 . S
C1150 C1147 1.463 . S
C1150 N1154 1.427 . S
C1151 H1141 0.929 . S
C1151 C1149 1.433 . S
C1151 N1154 1.384 . S
C1152 H1143 0.929 . S
C1152 C1144 1.378 . S
C1152 C1147 1.350 . S
C1153 H1140 0.929 . S
C1153 C1145 1.433 . S
C1153 N1155 1.384 . S
N1154 C1150 1.427 . S
N1154 C1151 1.384 . S
N1155 C1147 1.427 . S
N1155 C1153 1.384 . S
H1156 C1162 0.930 1_565 S
H1157 C1166 0.930 . S
H1158 C1171 0.929 . S
H1159 C1169 0.929 1_565 S
H1160 C1164 0.929 . S
H1161 C1170 0.929 1_565 S
C1162 H1156 0.930 1_545 S
C1162 C1163 1.367 . S
C1162 C1170 1.378 . S
C1163 C1162 1.367 . S
C1163 C1171 1.433 . S
C1164 H1160 0.929 . S
C1164 C1166 1.378 . S
C1164 C1168 1.350 . S
C1165 C1168 1.463 . S
C1165 C1170 1.350 . S
C1165 N1173 1.427 . S
C1166 H1157 0.930 . S
C1166 C1164 1.378 . S
C1166 C1167 1.367 . S
C1167 C1166 1.367 . S
C1167 C1169 1.433 . S
C1168 C1164 1.350 . S
C1168 C1165 1.463 . S
C1168 N1172 1.427 . S
C1169 H1159 0.929 1_545 S
C1169 C1167 1.433 . S
C1169 N1172 1.384 . S
C1170 H1161 0.929 1_545 S
C1170 C1162 1.378 . S
C1170 C1165 1.350 . S
C1171 H1158 0.929 . S
C1171 C1163 1.433 . S
C1171 N1173 1.384 . S
N1172 C1168 1.427 . S
N1172 C1169 1.384 . S
N1173 C1165 1.427 . S
N1173 C1171 1.384 . S
H1174 C1180 0.930 . S
H1175 C1184 0.930 . S
H1176 C1189 0.929 . S
H1177 C1187 0.929 . S
H1178 C1182 0.929 . S
H1179 C1188 0.929 . S
C1180 H1174 0.930 . S
C1180 C1181 1.367 . S
C1180 C1188 1.378 . S
C1181 C1180 1.367 . S
C1181 C1189 1.433 . S
C1182 H1178 0.929 . S
C1182 C1184 1.378 . S
C1182 C1186 1.350 . S
C1183 C1186 1.463 . S
C1183 C1188 1.350 . S
C1183 N1191 1.427 . S
C1184 H1175 0.930 . S
C1184 C1182 1.378 . S
C1184 C1185 1.367 . S
C1185 C1184 1.367 . S
C1185 C1187 1.433 . S
C1186 C1182 1.350 . S
C1186 C1183 1.463 . S
C1186 N1190 1.427 . S
C1187 H1177 0.929 . S
C1187 C1185 1.433 . S
C1187 N1190 1.384 . S
C1188 H1179 0.929 . S
C1188 C1180 1.378 . S
C1188 C1183 1.350 . S
C1189 H1176 0.929 . S
C1189 C1181 1.433 . S
C1189 N1191 1.384 . S
N1190 C1186 1.427 . S
N1190 C1187 1.384 . S
N1191 C1183 1.427 . S
N1191 C1189 1.384 . S
H1192 C1198 0.930 . S
H1193 C1202 0.930 . S
H1194 C1207 0.929 . S
H1195 C1205 0.929 1_455 S
H1196 C1200 0.929 . S
H1197 C1206 0.929 . S
C1198 H1192 0.930 . S
C1198 C1199 1.367 1_565 S
C1198 C1206 1.378 . S
C1199 C1198 1.367 1_545 S
C1199 C1207 1.433 . S
C1200 H1196 0.929 . S
C1200 C1202 1.378 . S
C1200 C1204 1.350 . S
C1201 C1204 1.463 . S
C1201 C1206 1.350 1_545 S
C1201 N1209 1.427 . S
C1202 H1193 0.930 . S
C1202 C1200 1.378 . S
C1202 C1203 1.365 1_655 S
C1203 C1202 1.365 1_455 S
C1203 C1205 1.434 1_445 S
C1204 C1200 1.350 . S
C1204 C1201 1.463 . S
C1204 N1208 1.427 1_545 S
C1205 H1195 0.929 1_655 S
C1205 C1203 1.434 1_665 S
C1205 N1208 1.384 . S
C1206 H1197 0.929 . S
C1206 C1198 1.378 . S
C1206 C1201 1.350 1_565 S
C1207 H1194 0.929 . S
C1207 C1199 1.433 . S
C1207 N1209 1.384 . S
N1208 C1204 1.427 1_565 S
N1208 C1205 1.384 . S
N1209 C1201 1.427 . S
N1209 C1207 1.384 . S
H1210 C1216 0.930 . S
H1211 C1220 0.930 . S
H1212 C1225 0.929 . S
H1213 C1223 0.929 . S
H1214 C1218 0.929 . S
H1215 C1224 0.929 . S
C1216 H1210 0.930 . S
C1216 C1217 1.367 . S
C1216 C1224 1.378 . S
C1217 C1216 1.367 . S
C1217 C1225 1.433 . S
C1218 H1214 0.929 . S
C1218 C1220 1.378 . S
C1218 C1222 1.350 . S
C1219 C1222 1.463 . S
C1219 C1224 1.350 . S
C1219 N1227 1.427 . S
C1220 H1211 0.930 . S
C1220 C1218 1.378 . S
C1220 C1221 1.367 . S
C1221 C1220 1.367 . S
C1221 C1223 1.433 . S
C1222 C1218 1.350 . S
C1222 C1219 1.463 . S
C1222 N1226 1.427 . S
C1223 H1213 0.929 . S
C1223 C1221 1.433 . S
C1223 N1226 1.384 . S
C1224 H1215 0.929 . S
C1224 C1216 1.378 . S
C1224 C1219 1.350 . S
C1225 H1212 0.929 . S
C1225 C1217 1.433 . S
C1225 N1227 1.384 . S
N1226 C1222 1.427 . S
N1226 C1223 1.384 . S
N1227 C1219 1.427 . S
N1227 C1225 1.384 . S
H1228 C1234 0.930 . S
H1229 C1238 0.930 . S
H1230 C1243 0.929 . S
H1231 C1241 0.929 . S
H1232 C1236 0.929 . S
H1233 C1242 0.929 . S
C1234 H1228 0.930 . S
C1234 C1235 1.367 . S
C1234 C1242 1.378 . S
C1235 C1234 1.367 . S
C1235 C1243 1.433 . S
C1236 H1232 0.929 . S
C1236 C1238 1.378 . S
C1236 C1240 1.350 . S
C1237 C1240 1.463 . S
C1237 C1242 1.350 . S
C1237 N1245 1.427 . S
C1238 H1229 0.930 . S
C1238 C1236 1.378 . S
C1238 C1239 1.367 . S
C1239 C1238 1.367 . S
C1239 C1241 1.433 . S
C1240 C1236 1.350 . S
C1240 C1237 1.463 . S
C1240 N1244 1.427 . S
C1241 H1231 0.929 . S
C1241 C1239 1.433 . S
C1241 N1244 1.384 . S
C1242 H1233 0.929 . S
C1242 C1234 1.378 . S
C1242 C1237 1.350 . S
C1243 H1230 0.929 . S
C1243 C1235 1.433 . S
C1243 N1245 1.384 . S
N1244 C1240 1.427 . S
N1244 C1241 1.384 . S
N1245 C1237 1.427 . S
N1245 C1243 1.384 . S
H1246 C1252 0.930 . S
H1247 C1256 0.930 . S
H1248 C1261 0.929 . S
H1249 C1259 0.929 . S
H1250 C1254 0.929 . S
H1251 C1260 0.929 . S
C1252 H1246 0.930 . S
C1252 C1253 1.367 . S
C1252 C1260 1.378 . S
C1253 C1252 1.367 . S
C1253 C1261 1.433 . S
C1254 H1250 0.929 . S
C1254 C1256 1.378 . S
C1254 C1258 1.350 . S
C1255 C1258 1.463 . S
C1255 C1260 1.350 . S
C1255 N1263 1.427 . S
C1256 H1247 0.930 . S
C1256 C1254 1.378 . S
C1256 C1257 1.367 . S
C1257 C1256 1.367 . S
C1257 C1259 1.433 . S
C1258 C1254 1.350 . S
C1258 C1255 1.463 . S
C1258 N1262 1.427 . S
C1259 H1249 0.929 . S
C1259 C1257 1.433 . S
C1259 N1262 1.384 . S
C1260 H1251 0.929 . S
C1260 C1252 1.378 . S
C1260 C1255 1.350 . S
C1261 H1248 0.929 . S
C1261 C1253 1.433 . S
C1261 N1263 1.384 . S
N1262 C1258 1.427 . S
N1262 C1259 1.384 . S
N1263 C1255 1.427 . S
N1263 C1261 1.384 . S
H1264 C1270 0.930 . S
H1265 C1274 0.930 . S
H1266 C1279 0.929 . S
H1267 C1277 0.929 . S
H1268 C1272 0.929 . S
H1269 C1278 0.929 . S
C1270 H1264 0.930 . S
C1270 C1271 1.367 . S
C1270 C1278 1.378 . S
C1271 C1270 1.367 . S
C1271 C1279 1.433 1_554 S
C1272 H1268 0.929 . S
C1272 C1274 1.378 . S
C1272 C1276 1.350 1_545 S
C1273 C1276 1.463 . S
C1273 C1278 1.350 . S
C1273 N1281 1.427 . S
C1274 H1265 0.930 . S
C1274 C1272 1.378 . S
C1274 C1275 1.367 . S
C1275 C1274 1.367 . S
C1275 C1277 1.433 . S
C1276 C1272 1.350 1_565 S
C1276 C1273 1.463 . S
C1276 N1280 1.427 . S
C1277 H1267 0.929 . S
C1277 C1275 1.433 . S
C1277 N1280 1.384 1_545 S
C1278 H1269 0.929 . S
C1278 C1270 1.378 . S
C1278 C1273 1.350 . S
C1279 H1266 0.929 . S
C1279 C1271 1.433 1_556 S
C1279 N1281 1.384 1_556 S
N1280 C1276 1.427 . S
N1280 C1277 1.384 1_565 S
N1281 C1273 1.427 . S
N1281 C1279 1.384 1_554 S
H1282 C1288 0.930 . S
H1283 C1292 0.922 1_556 S
H1284 C1297 0.929 1_556 S
H1285 C1295 0.929 . S
H1286 C1290 0.929 1_556 S
H1287 C1296 0.929 . S
C1288 H1282 0.930 . S
C1288 C1289 1.367 . S
C1288 C1296 1.378 . S
C1289 C1288 1.367 . S
C1289 C1297 1.433 . S
C1290 H1286 0.929 1_554 S
C1290 C1292 1.378 . S
C1290 C1294 1.350 . S
C1291 C1294 1.463 . S
C1291 C1296 1.350 . S
C1291 N1299 1.427 . S
C1292 H1283 0.922 1_554 S
C1292 C1290 1.378 . S
C1292 C1293 1.367 . S
C1293 C1292 1.367 . S
C1293 C1295 1.433 . S
C1294 C1290 1.350 . S
C1294 C1291 1.463 . S
C1294 N1298 1.427 . S
C1295 H1285 0.929 . S
C1295 C1293 1.433 . S
C1295 N1298 1.384 . S
C1296 H1287 0.929 . S
C1296 C1288 1.378 . S
C1296 C1291 1.350 . S
C1297 H1284 0.929 1_554 S
C1297 C1289 1.433 . S
C1297 N1299 1.384 . S
N1298 C1294 1.427 . S
N1298 C1295 1.384 . S
N1299 C1291 1.427 . S
N1299 C1297 1.384 . S
H1300 C1306 0.930 . S
H1301 C1310 0.930 . S
H1302 C1315 0.929 . S
H1303 C1313 0.929 . S
H1304 C1308 0.929 . S
H1305 C1314 0.929 . S
C1306 H1300 0.930 . S
C1306 C1307 1.367 . S
C1306 C1314 1.378 . S
C1307 C1306 1.367 . S
C1307 C1315 1.433 . S
C1308 H1304 0.929 . S
C1308 C1310 1.378 . S
C1308 C1312 1.350 . S
C1309 C1312 1.463 . S
C1309 C1314 1.350 . S
C1309 N1317 1.427 . S
C1310 H1301 0.930 . S
C1310 C1308 1.378 . S
C1310 C1311 1.367 . S
C1311 C1310 1.367 . S
C1311 C1313 1.433 . S
C1312 C1308 1.350 . S
C1312 C1309 1.463 . S
C1312 N1316 1.427 . S
C1313 H1303 0.929 . S
C1313 C1311 1.433 . S
C1313 N1316 1.384 . S
C1314 H1305 0.929 . S
C1314 C1306 1.378 . S
C1314 C1309 1.350 . S
C1315 H1302 0.929 . S
C1315 C1307 1.433 . S
C1315 N1317 1.384 . S
N1316 C1312 1.427 . S
N1316 C1313 1.384 . S
N1317 C1309 1.427 . S
N1317 C1315 1.384 . S
H1318 C1324 0.930 . S
H1319 C1328 0.930 . S
H1320 C1333 0.929 . S
H1321 C1331 0.929 . S
H1322 C1326 0.929 . S
H1323 C1332 0.929 . S
C1324 H1318 0.930 . S
C1324 C1325 1.367 . S
C1324 C1332 1.378 . S
C1325 C1324 1.367 . S
C1325 C1333 1.433 . S
C1326 H1322 0.929 . S
C1326 C1328 1.378 . S
C1326 C1330 1.350 . S
C1327 C1330 1.463 . S
C1327 C1332 1.350 . S
C1327 N1335 1.427 . S
C1328 H1319 0.930 . S
C1328 C1326 1.378 . S
C1328 C1329 1.367 . S
C1329 C1328 1.367 . S
C1329 C1331 1.433 . S
C1330 C1326 1.350 . S
C1330 C1327 1.463 . S
C1330 N1334 1.427 . S
C1331 H1321 0.929 . S
C1331 C1329 1.433 . S
C1331 N1334 1.384 . S
C1332 H1323 0.929 . S
C1332 C1324 1.378 . S
C1332 C1327 1.350 . S
C1333 H1320 0.929 . S
C1333 C1325 1.433 . S
C1333 N1335 1.384 . S
N1334 C1330 1.427 . S
N1334 C1331 1.384 . S
N1335 C1327 1.427 . S
N1335 C1333 1.384 . S
H1336 C1342 0.930 . S
H1337 C1346 0.930 . S
H1338 C1351 0.929 . S
H1339 C1349 0.929 . S
H1340 C1344 0.929 . S
H1341 C1350 0.929 . S
C1342 H1336 0.930 . S
C1342 C1343 1.367 . S
C1342 C1350 1.378 . S
C1343 C1342 1.367 . S
C1343 C1351 1.433 . S
C1344 H1340 0.929 . S
C1344 C1346 1.378 . S
C1344 C1348 1.350 . S
C1345 C1348 1.463 . S
C1345 C1350 1.350 . S
C1345 N1353 1.427 . S
C1346 H1337 0.930 . S
C1346 C1344 1.378 . S
C1346 C1347 1.367 . S
C1347 C1346 1.367 . S
C1347 C1349 1.433 . S
C1348 C1344 1.350 . S
C1348 C1345 1.463 . S
C1348 N1352 1.427 . S
C1349 H1339 0.929 . S
C1349 C1347 1.433 . S
C1349 N1352 1.384 . S
C1350 H1341 0.929 . S
C1350 C1342 1.378 . S
C1350 C1345 1.350 . S
C1351 H1338 0.929 . S
C1351 C1343 1.433 . S
C1351 N1353 1.384 . S
N1352 C1348 1.427 . S
N1352 C1349 1.384 . S
N1353 C1345 1.427 . S
N1353 C1351 1.384 . S
H1354 C1360 0.930 . S
H1355 C1364 0.930 . S
H1356 C1369 0.929 . S
H1357 C1367 0.929 . S
H1358 C1362 0.929 . S
H1359 C1368 0.929 . S
C1360 H1354 0.930 . S
C1360 C1361 1.367 . S
C1360 C1368 1.378 . S
C1361 C1360 1.367 . S
C1361 C1369 1.433 . S
C1362 H1358 0.929 . S
C1362 C1364 1.378 . S
C1362 C1366 1.350 . S
C1363 C1366 1.463 . S
C1363 C1368 1.350 . S
C1363 N1371 1.427 . S
C1364 H1355 0.930 . S
C1364 C1362 1.378 . S
C1364 C1365 1.367 . S
C1365 C1364 1.367 . S
C1365 C1367 1.433 . S
C1366 C1362 1.350 . S
C1366 C1363 1.463 . S
C1366 N1370 1.427 . S
C1367 H1357 0.929 . S
C1367 C1365 1.433 . S
C1367 N1370 1.384 . S
C1368 H1359 0.929 . S
C1368 C1360 1.378 . S
C1368 C1363 1.350 . S
C1369 H1356 0.929 . S
C1369 C1361 1.433 . S
C1369 N1371 1.384 . S
N1370 C1366 1.427 . S
N1370 C1367 1.384 . S
N1371 C1363 1.427 . S
N1371 C1369 1.384 . S
H1372 C1378 0.930 . S
H1373 C1382 0.930 . S
H1374 C1387 0.929 . S
H1375 C1385 0.929 . S
H1376 C1380 0.929 . S
H1377 C1386 0.929 . S
C1378 H1372 0.930 . S
C1378 C1379 1.367 . S
C1378 C1386 1.378 . S
C1379 C1378 1.367 . S
C1379 C1387 1.433 . S
C1380 H1376 0.929 . S
C1380 C1382 1.378 . S
C1380 C1384 1.350 . S
C1381 C1384 1.463 . S
C1381 C1386 1.350 . S
C1381 N1389 1.427 . S
C1382 H1373 0.930 . S
C1382 C1380 1.378 . S
C1382 C1383 1.367 . S
C1383 C1382 1.367 . S
C1383 C1385 1.433 . S
C1384 C1380 1.350 . S
C1384 C1381 1.463 . S
C1384 N1388 1.427 . S
C1385 H1375 0.929 . S
C1385 C1383 1.433 . S
C1385 N1388 1.384 . S
C1386 H1377 0.929 . S
C1386 C1378 1.378 . S
C1386 C1381 1.350 . S
C1387 H1374 0.929 . S
C1387 C1379 1.433 . S
C1387 N1389 1.384 . S
N1388 C1384 1.427 . S
N1388 C1385 1.384 . S
N1389 C1381 1.427 . S
N1389 C1387 1.384 . S
H1390 C1396 0.930 . S
H1391 C1400 0.930 . S
H1392 C1405 0.929 . S
H1393 C1403 0.929 . S
H1394 C1398 0.929 . S
H1395 C1404 0.929 . S
C1396 H1390 0.930 . S
C1396 C1397 1.367 . S
C1396 C1404 1.378 . S
C1397 C1396 1.367 . S
C1397 C1405 1.433 . S
C1398 H1394 0.929 . S
C1398 C1400 1.378 . S
C1398 C1402 1.350 . S
C1399 C1402 1.463 . S
C1399 C1404 1.350 . S
C1399 N1407 1.427 . S
C1400 H1391 0.930 . S
C1400 C1398 1.378 . S
C1400 C1401 1.367 . S
C1401 C1400 1.367 . S
C1401 C1403 1.433 . S
C1402 C1398 1.350 . S
C1402 C1399 1.463 . S
C1402 N1406 1.427 . S
C1403 H1393 0.929 . S
C1403 C1401 1.433 . S
C1403 N1406 1.384 . S
C1404 H1395 0.929 . S
C1404 C1396 1.378 . S
C1404 C1399 1.350 . S
C1405 H1392 0.929 . S
C1405 C1397 1.433 . S
C1405 N1407 1.384 . S
N1406 C1402 1.427 . S
N1406 C1403 1.384 . S
N1407 C1399 1.427 . S
N1407 C1405 1.384 . S
H1408 C1414 0.930 . S
H1409 C1418 0.930 . S
H1410 C1423 0.929 . S
H1411 C1421 0.929 . S
H1412 C1416 0.929 . S
H1413 C1422 0.929 . S
C1414 H1408 0.930 . S
C1414 C1415 1.367 . S
C1414 C1422 1.378 . S
C1415 C1414 1.367 . S
C1415 C1423 1.433 . S
C1416 H1412 0.929 . S
C1416 C1418 1.378 . S
C1416 C1420 1.350 . S
C1417 C1420 1.463 . S
C1417 C1422 1.350 . S
C1417 N1425 1.427 . S
C1418 H1409 0.930 . S
C1418 C1416 1.378 . S
C1418 C1419 1.367 . S
C1419 C1418 1.367 . S
C1419 C1421 1.433 . S
C1420 C1416 1.350 . S
C1420 C1417 1.463 . S
C1420 N1424 1.427 . S
C1421 H1411 0.929 . S
C1421 C1419 1.433 . S
C1421 N1424 1.384 . S
C1422 H1413 0.929 . S
C1422 C1414 1.378 . S
C1422 C1417 1.350 . S
C1423 H1410 0.929 . S
C1423 C1415 1.433 . S
C1423 N1425 1.384 . S
N1424 C1420 1.427 . S
N1424 C1421 1.384 . S
N1425 C1417 1.427 . S
N1425 C1423 1.384 . S
H1426 C1432 0.930 . S
H1427 C1436 0.930 . S
H1428 C1441 0.929 . S
H1429 C1439 0.929 . S
H1430 C1434 0.929 . S
H1431 C1440 0.929 . S
C1432 H1426 0.930 . S
C1432 C1433 1.367 . S
C1432 C1440 1.378 . S
C1433 C1432 1.367 . S
C1433 C1441 1.433 . S
C1434 H1430 0.929 . S
C1434 C1436 1.378 . S
C1434 C1438 1.350 . S
C1435 C1438 1.463 . S
C1435 C1440 1.350 . S
C1435 N1443 1.427 . S
C1436 H1427 0.930 . S
C1436 C1434 1.378 . S
C1436 C1437 1.367 . S
C1437 C1436 1.367 . S
C1437 C1439 1.433 . S
C1438 C1434 1.350 . S
C1438 C1435 1.463 . S
C1438 N1442 1.427 . S
C1439 H1429 0.929 . S
C1439 C1437 1.433 . S
C1439 N1442 1.384 . S
C1440 H1431 0.929 . S
C1440 C1432 1.378 . S
C1440 C1435 1.350 . S
C1441 H1428 0.929 . S
C1441 C1433 1.433 . S
C1441 N1443 1.384 . S
N1442 C1438 1.427 . S
N1442 C1439 1.384 . S
N1443 C1435 1.427 . S
N1443 C1441 1.384 . S
H1444 C1450 0.930 . S
H1445 C1454 0.930 . S
H1446 C1459 0.929 . S
H1447 C1457 0.929 . S
H1448 C1452 0.929 . S
H1449 C1458 0.929 . S
C1450 H1444 0.930 . S
C1450 C1451 1.367 . S
C1450 C1458 1.378 . S
C1451 C1450 1.367 . S
C1451 C1459 1.433 . S
C1452 H1448 0.929 . S
C1452 C1454 1.378 . S
C1452 C1456 1.350 . S
C1453 C1456 1.463 . S
C1453 C1458 1.350 . S
C1453 N1461 1.427 . S
C1454 H1445 0.930 . S
C1454 C1452 1.378 . S
C1454 C1455 1.367 . S
C1455 C1454 1.367 . S
C1455 C1457 1.433 . S
C1456 C1452 1.350 . S
C1456 C1453 1.463 . S
C1456 N1460 1.427 . S
C1457 H1447 0.929 . S
C1457 C1455 1.433 . S
C1457 N1460 1.384 . S
C1458 H1449 0.929 . S
C1458 C1450 1.378 . S
C1458 C1453 1.350 . S
C1459 H1446 0.929 . S
C1459 C1451 1.433 . S
C1459 N1461 1.384 . S
N1460 C1456 1.427 . S
N1460 C1457 1.384 . S
N1461 C1453 1.427 . S
N1461 C1459 1.384 . S
H1462 C1468 0.930 . S
H1463 C1472 0.930 . S
H1464 C1477 0.929 . S
H1465 C1475 0.929 . S
H1466 C1470 0.929 . S
H1467 C1476 0.929 . S
C1468 H1462 0.930 . S
C1468 C1469 1.367 . S
C1468 C1476 1.378 . S
C1469 C1468 1.367 . S
C1469 C1477 1.433 . S
C1470 H1466 0.929 . S
C1470 C1472 1.378 . S
C1470 C1474 1.350 . S
C1471 C1474 1.463 . S
C1471 C1476 1.350 . S
C1471 N1479 1.427 . S
C1472 H1463 0.930 . S
C1472 C1470 1.378 . S
C1472 C1473 1.367 . S
C1473 C1472 1.367 . S
C1473 C1475 1.433 . S
C1474 C1470 1.350 . S
C1474 C1471 1.463 . S
C1474 N1478 1.427 . S
C1475 H1465 0.929 . S
C1475 C1473 1.433 . S
C1475 N1478 1.384 . S
C1476 H1467 0.929 . S
C1476 C1468 1.378 . S
C1476 C1471 1.350 . S
C1477 H1464 0.929 . S
C1477 C1469 1.433 . S
C1477 N1479 1.384 . S
N1478 C1474 1.427 . S
N1478 C1475 1.384 . S
N1479 C1471 1.427 . S
N1479 C1477 1.384 . S
H1480 C1486 0.930 . S
H1481 C1490 0.936 . S
H1482 C1495 0.929 . S
H1483 C1493 0.929 . S
H1484 C1488 0.929 . S
H1485 C1494 0.929 . S
C1486 H1480 0.930 . S
C1486 C1487 1.367 . S
C1486 C1494 1.378 . S
C1487 C1486 1.367 . S
C1487 C1495 1.433 . S
C1488 H1484 0.929 . S
C1488 C1490 1.378 . S
C1488 C1492 1.350 . S
C1489 C1492 1.463 . S
C1489 C1494 1.350 . S
C1489 N1497 1.427 . S
C1490 H1481 0.936 . S
C1490 C1488 1.378 . S
C1490 C1491 1.367 . S
C1491 C1490 1.367 . S
C1491 C1493 1.433 . S
C1492 C1488 1.350 . S
C1492 C1489 1.463 . S
C1492 N1496 1.427 . S
C1493 H1483 0.929 . S
C1493 C1491 1.433 . S
C1493 N1496 1.384 . S
C1494 H1485 0.929 . S
C1494 C1486 1.378 . S
C1494 C1489 1.350 . S
C1495 H1482 0.929 . S
C1495 C1487 1.433 . S
C1495 N1497 1.384 . S
N1496 C1492 1.427 . S
N1496 C1493 1.384 . S
N1497 C1489 1.427 . S
N1497 C1495 1.384 . S
H1498 C1504 0.930 . S
H1499 C1508 0.930 . S
H1500 C1513 0.929 . S
H1501 C1511 0.929 . S
H1502 C1506 0.929 . S
H1503 C1512 0.929 . S
C1504 H1498 0.930 . S
C1504 C1505 1.367 . S
C1504 C1512 1.378 . S
C1505 C1504 1.367 . S
C1505 C1513 1.433 . S
C1506 H1502 0.929 . S
C1506 C1508 1.378 . S
C1506 C1510 1.350 . S
C1507 C1510 1.463 . S
C1507 C1512 1.350 . S
C1507 N1515 1.427 . S
C1508 H1499 0.930 . S
C1508 C1506 1.378 . S
C1508 C1509 1.367 . S
C1509 C1508 1.367 . S
C1509 C1511 1.433 . S
C1510 C1506 1.350 . S
C1510 C1507 1.463 . S
C1510 N1514 1.427 . S
C1511 H1501 0.929 . S
C1511 C1509 1.433 . S
C1511 N1514 1.384 . S
C1512 H1503 0.929 . S
C1512 C1504 1.378 . S
C1512 C1507 1.350 . S
C1513 H1500 0.929 . S
C1513 C1505 1.433 . S
C1513 N1515 1.384 . S
N1514 C1510 1.427 . S
N1514 C1511 1.384 . S
N1515 C1507 1.427 . S
N1515 C1513 1.384 . S
H1516 C1522 0.930 . S
H1517 C1526 0.930 1_554 S
H1518 C1531 0.929 . S
H1519 C1529 0.929 . S
H1520 C1524 0.929 . S
H1521 C1530 0.929 . S
C1522 H1516 0.930 . S
C1522 C1523 1.367 . S
C1522 C1530 1.378 . S
C1523 C1522 1.367 . S
C1523 C1531 1.433 . S
C1524 H1520 0.929 . S
C1524 C1526 1.378 . S
C1524 C1528 1.350 . S
C1525 C1528 1.463 . S
C1525 C1530 1.350 . S
C1525 N1533 1.427 . S
C1526 H1517 0.930 1_556 S
C1526 C1524 1.378 . S
C1526 C1527 1.367 . S
C1527 C1526 1.367 . S
C1527 C1529 1.433 . S
C1528 C1524 1.350 . S
C1528 C1525 1.463 . S
C1528 N1532 1.427 . S
C1529 H1519 0.929 . S
C1529 C1527 1.433 . S
C1529 N1532 1.384 . S
C1530 H1521 0.929 . S
C1530 C1522 1.378 . S
C1530 C1525 1.350 . S
C1531 H1518 0.929 . S
C1531 C1523 1.433 . S
C1531 N1533 1.384 . S
N1532 C1528 1.427 . S
N1532 C1529 1.384 . S
N1533 C1525 1.427 . S
N1533 C1531 1.384 . S
H1534 C1540 0.930 . S
H1535 C1544 0.930 . S
H1536 C1549 0.929 . S
H1537 C1547 0.929 . S
H1538 C1542 0.929 . S
H1539 C1548 0.929 . S
C1540 H1534 0.930 . S
C1540 C1541 1.367 . S
C1540 C1548 1.378 . S
C1541 C1540 1.367 . S
C1541 C1549 1.433 . S
C1542 H1538 0.929 . S
C1542 C1544 1.378 . S
C1542 C1546 1.350 . S
C1543 C1546 1.463 . S
C1543 C1548 1.350 . S
C1543 N1551 1.427 . S
C1544 H1535 0.930 . S
C1544 C1542 1.378 . S
C1544 C1545 1.367 . S
C1545 C1544 1.367 . S
C1545 C1547 1.433 . S
C1546 C1542 1.350 . S
C1546 C1543 1.463 . S
C1546 N1550 1.427 . S
C1547 H1537 0.929 . S
C1547 C1545 1.433 . S
C1547 N1550 1.384 . S
C1548 H1539 0.929 . S
C1548 C1540 1.378 . S
C1548 C1543 1.350 . S
C1549 H1536 0.929 . S
C1549 C1541 1.433 . S
C1549 N1551 1.384 . S
N1550 C1546 1.427 . S
N1550 C1547 1.384 . S
N1551 C1543 1.427 . S
N1551 C1549 1.384 . S
H1552 C1558 0.930 . S
H1553 C1562 0.930 . S
H1554 C1567 0.929 . S
H1555 C1565 0.929 . S
H1556 C1560 0.929 . S
H1557 C1566 0.929 . S
C1558 H1552 0.930 . S
C1558 C1559 1.367 . S
C1558 C1566 1.378 . S
C1559 C1558 1.367 . S
C1559 C1567 1.433 . S
C1560 H1556 0.929 . S
C1560 C1562 1.378 . S
C1560 C1564 1.350 . S
C1561 C1564 1.463 . S
C1561 C1566 1.350 . S
C1561 N1569 1.427 . S
C1562 H1553 0.930 . S
C1562 C1560 1.378 . S
C1562 C1563 1.367 . S
C1563 C1562 1.367 . S
C1563 C1565 1.433 . S
C1564 C1560 1.350 . S
C1564 C1561 1.463 . S
C1564 N1568 1.427 . S
C1565 H1555 0.929 . S
C1565 C1563 1.433 . S
C1565 N1568 1.384 . S
C1566 H1557 0.929 . S
C1566 C1558 1.378 . S
C1566 C1561 1.350 . S
C1567 H1554 0.929 . S
C1567 C1559 1.433 . S
C1567 N1569 1.384 . S
N1568 C1564 1.427 . S
N1568 C1565 1.384 . S
N1569 C1561 1.427 . S
N1569 C1567 1.384 . S
H1570 C1576 0.930 . S
H1571 C1580 0.930 . S
H1572 C1585 0.929 . S
H1573 C1583 0.929 . S
H1574 C1578 0.929 . S
H1575 C1584 0.929 . S
C1576 H1570 0.930 . S
C1576 C1577 1.367 . S
C1576 C1584 1.378 . S
C1577 C1576 1.367 . S
C1577 C1585 1.433 . S
C1578 H1574 0.929 . S
C1578 C1580 1.378 . S
C1578 C1582 1.350 . S
C1579 C1582 1.463 . S
C1579 C1584 1.350 . S
C1579 N1587 1.427 . S
C1580 H1571 0.930 . S
C1580 C1578 1.378 . S
C1580 C1581 1.367 . S
C1581 C1580 1.367 . S
C1581 C1583 1.433 . S
C1582 C1578 1.350 . S
C1582 C1579 1.463 . S
C1582 N1586 1.427 . S
C1583 H1573 0.929 . S
C1583 C1581 1.433 . S
C1583 N1586 1.384 . S
C1584 H1575 0.929 . S
C1584 C1576 1.378 . S
C1584 C1579 1.350 . S
C1585 H1572 0.929 . S
C1585 C1577 1.433 . S
C1585 N1587 1.384 . S
N1586 C1582 1.427 . S
N1586 C1583 1.384 . S
N1587 C1579 1.427 . S
N1587 C1585 1.384 . S
H1588 C1594 0.930 . S
H1589 C1598 0.930 . S
H1590 C1603 0.929 . S
H1591 C1601 0.929 . S
H1592 C1596 0.929 . S
H1593 C1602 0.929 . S
C1594 H1588 0.930 . S
C1594 C1595 1.367 . S
C1594 C1602 1.378 . S
C1595 C1594 1.367 . S
C1595 C1603 1.433 . S
C1596 H1592 0.929 . S
C1596 C1598 1.378 . S
C1596 C1600 1.350 . S
C1597 C1600 1.463 . S
C1597 C1602 1.350 . S
C1597 N1605 1.427 . S
C1598 H1589 0.930 . S
C1598 C1596 1.378 . S
C1598 C1599 1.367 . S
C1599 C1598 1.367 . S
C1599 C1601 1.433 . S
C1600 C1596 1.350 . S
C1600 C1597 1.463 . S
C1600 N1604 1.427 . S
C1601 H1591 0.929 . S
C1601 C1599 1.433 . S
C1601 N1604 1.384 . S
C1602 H1593 0.929 . S
C1602 C1594 1.378 . S
C1602 C1597 1.350 . S
C1603 H1590 0.929 . S
C1603 C1595 1.433 . S
C1603 N1605 1.384 . S
N1604 C1600 1.427 . S
N1604 C1601 1.384 . S
N1605 C1597 1.427 . S
N1605 C1603 1.384 . S
H1606 C1612 0.930 . S
H1607 C1616 0.930 . S
H1608 C1621 0.929 . S
H1609 C1619 0.929 . S
H1610 C1614 0.929 . S
H1611 C1620 0.929 . S
C1612 H1606 0.930 . S
C1612 C1613 1.367 . S
C1612 C1620 1.378 . S
C1613 C1612 1.367 . S
C1613 C1621 1.433 . S
C1614 H1610 0.929 . S
C1614 C1616 1.378 . S
C1614 C1618 1.350 . S
C1615 C1618 1.463 . S
C1615 C1620 1.350 . S
C1615 N1623 1.427 . S
C1616 H1607 0.930 . S
C1616 C1614 1.378 . S
C1616 C1617 1.367 . S
C1617 C1616 1.367 . S
C1617 C1619 1.433 . S
C1618 C1614 1.350 . S
C1618 C1615 1.463 . S
C1618 N1622 1.427 . S
C1619 H1609 0.929 . S
C1619 C1617 1.433 . S
C1619 N1622 1.384 . S
C1620 H1611 0.929 . S
C1620 C1612 1.378 . S
C1620 C1615 1.350 . S
C1621 H1608 0.929 . S
C1621 C1613 1.433 . S
C1621 N1623 1.384 . S
N1622 C1618 1.427 . S
N1622 C1619 1.384 . S
N1623 C1615 1.427 . S
N1623 C1621 1.384 . S
H1624 C1630 0.930 . S
H1625 C1634 0.930 . S
H1626 C1639 0.929 . S
H1627 C1637 0.929 . S
H1628 C1632 0.929 . S
H1629 C1638 0.929 . S
C1630 H1624 0.930 . S
C1630 C1631 1.367 . S
C1630 C1638 1.378 . S
C1631 C1630 1.367 . S
C1631 C1639 1.433 . S
C1632 H1628 0.929 . S
C1632 C1634 1.378 . S
C1632 C1636 1.350 . S
C1633 C1636 1.463 . S
C1633 C1638 1.350 . S
C1633 N1641 1.427 . S
C1634 H1625 0.930 . S
C1634 C1632 1.378 . S
C1634 C1635 1.367 . S
C1635 C1634 1.367 . S
C1635 C1637 1.433 . S
C1636 C1632 1.350 . S
C1636 C1633 1.463 . S
C1636 N1640 1.427 . S
C1637 H1627 0.929 . S
C1637 C1635 1.433 . S
C1637 N1640 1.384 . S
C1638 H1629 0.929 . S
C1638 C1630 1.378 . S
C1638 C1633 1.350 . S
C1639 H1626 0.929 . S
C1639 C1631 1.433 . S
C1639 N1641 1.384 . S
N1640 C1636 1.427 . S
N1640 C1637 1.384 . S
N1641 C1633 1.427 . S
N1641 C1639 1.384 . S
H1642 C1648 0.930 . S
H1643 C1652 0.930 . S
H1644 C1657 0.929 . S
H1645 C1655 0.929 . S
H1646 C1650 0.929 . S
H1647 C1656 0.929 . S
C1648 H1642 0.930 . S
C1648 C1649 1.367 . S
C1648 C1656 1.378 . S
C1649 C1648 1.367 . S
C1649 C1657 1.433 . S
C1650 H1646 0.929 . S
C1650 C1652 1.378 . S
C1650 C1654 1.350 . S
C1651 C1654 1.463 . S
C1651 C1656 1.350 . S
C1651 N1659 1.427 . S
C1652 H1643 0.930 . S
C1652 C1650 1.378 . S
C1652 C1653 1.367 . S
C1653 C1652 1.367 . S
C1653 C1655 1.433 . S
C1654 C1650 1.350 . S
C1654 C1651 1.463 . S
C1654 N1658 1.427 . S
C1655 H1645 0.929 . S
C1655 C1653 1.433 . S
C1655 N1658 1.384 . S
C1656 H1647 0.929 . S
C1656 C1648 1.378 . S
C1656 C1651 1.350 . S
C1657 H1644 0.929 . S
C1657 C1649 1.433 . S
C1657 N1659 1.384 . S
N1658 C1654 1.427 . S
N1658 C1655 1.384 . S
N1659 C1651 1.427 . S
N1659 C1657 1.384 . S
H1660 C1666 0.930 1_565 S
H1661 C1670 0.930 . S
H1662 C1675 0.929 . S
H1663 C1673 0.929 1_565 S
H1664 C1668 0.929 . S
H1665 C1674 0.929 1_565 S
C1666 H1660 0.930 1_545 S
C1666 C1667 1.367 . S
C1666 C1674 1.378 . S
C1667 C1666 1.367 . S
C1667 C1675 1.433 . S
C1668 H1664 0.929 . S
C1668 C1670 1.378 . S
C1668 C1672 1.350 . S
C1669 C1672 1.463 . S
C1669 C1674 1.350 . S
C1669 N1677 1.427 . S
C1670 H1661 0.930 . S
C1670 C1668 1.378 . S
C1670 C1671 1.367 . S
C1671 C1670 1.367 . S
C1671 C1673 1.433 . S
C1672 C1668 1.350 . S
C1672 C1669 1.463 . S
C1672 N1676 1.427 . S
C1673 H1663 0.929 1_545 S
C1673 C1671 1.433 . S
C1673 N1676 1.384 . S
C1674 H1665 0.929 1_545 S
C1674 C1666 1.378 . S
C1674 C1669 1.350 . S
C1675 H1662 0.929 . S
C1675 C1667 1.433 . S
C1675 N1677 1.384 . S
N1676 C1672 1.427 . S
N1676 C1673 1.384 . S
N1677 C1669 1.427 . S
N1677 C1675 1.384 . S
H1678 C1684 0.930 . S
H1679 C1688 0.930 . S
H1680 C1693 0.929 . S
H1681 C1691 0.929 . S
H1682 C1686 0.929 . S
H1683 C1692 0.929 . S
C1684 H1678 0.930 . S
C1684 C1685 1.367 . S
C1684 C1692 1.378 . S
C1685 C1684 1.367 . S
C1685 C1693 1.433 . S
C1686 H1682 0.929 . S
C1686 C1688 1.378 . S
C1686 C1690 1.350 . S
C1687 C1690 1.463 . S
C1687 C1692 1.350 . S
C1687 N1695 1.427 . S
C1688 H1679 0.930 . S
C1688 C1686 1.378 . S
C1688 C1689 1.367 . S
C1689 C1688 1.367 . S
C1689 C1691 1.433 . S
C1690 C1686 1.350 . S
C1690 C1687 1.463 . S
C1690 N1694 1.427 . S
C1691 H1681 0.929 . S
C1691 C1689 1.433 . S
C1691 N1694 1.384 . S
C1692 H1683 0.929 . S
C1692 C1684 1.378 . S
C1692 C1687 1.350 . S
C1693 H1680 0.929 . S
C1693 C1685 1.433 . S
C1693 N1695 1.384 . S
N1694 C1690 1.427 . S
N1694 C1691 1.384 . S
N1695 C1687 1.427 . S
N1695 C1693 1.384 . S
H1696 C1702 0.930 . S
H1697 C1706 0.930 . S
H1698 C1711 0.929 . S
H1699 C1709 0.929 . S
H1700 C1704 0.929 . S
H1701 C1710 0.929 . S
C1702 H1696 0.930 . S
C1702 C1703 1.367 . S
C1702 C1710 1.378 . S
C1703 C1702 1.367 . S
C1703 C1711 1.433 . S
C1704 H1700 0.929 . S
C1704 C1706 1.378 . S
C1704 C1708 1.350 . S
C1705 C1708 1.463 . S
C1705 C1710 1.350 . S
C1705 N1713 1.427 . S
C1706 H1697 0.930 . S
C1706 C1704 1.378 . S
C1706 C1707 1.367 . S
C1707 C1706 1.367 . S
C1707 C1709 1.433 1_554 S
C1708 C1704 1.350 . S
C1708 C1705 1.463 . S
C1708 N1712 1.427 . S
C1709 H1699 0.929 . S
C1709 C1707 1.433 1_556 S
C1709 N1712 1.384 1_556 S
C1710 H1701 0.929 . S
C1710 C1702 1.378 . S
C1710 C1705 1.350 . S
C1711 H1698 0.929 . S
C1711 C1703 1.433 . S
C1711 N1713 1.384 . S
N1712 C1708 1.427 . S
N1712 C1709 1.384 1_554 S
N1713 C1705 1.427 . S
N1713 C1711 1.384 . S
H1714 C1720 0.930 . S
H1715 C1724 0.930 . S
H1716 C1729 0.929 . S
H1717 C1727 0.929 . S
H1718 C1722 0.929 . S
H1719 C1728 0.929 . S
C1720 H1714 0.930 . S
C1720 C1721 1.367 . S
C1720 C1728 1.378 . S
C1721 C1720 1.367 . S
C1721 C1729 1.433 . S
C1722 H1718 0.929 . S
C1722 C1724 1.378 . S
C1722 C1726 1.350 . S
C1723 C1726 1.463 . S
C1723 C1728 1.350 . S
C1723 N1731 1.427 . S
C1724 H1715 0.930 . S
C1724 C1722 1.378 . S
C1724 C1725 1.367 . S
C1725 C1724 1.367 . S
C1725 C1727 1.433 . S
C1726 C1722 1.350 . S
C1726 C1723 1.463 . S
C1726 N1730 1.427 . S
C1727 H1717 0.929 . S
C1727 C1725 1.433 . S
C1727 N1730 1.384 . S
C1728 H1719 0.929 . S
C1728 C1720 1.378 . S
C1728 C1723 1.350 . S
C1729 H1716 0.929 . S
C1729 C1721 1.433 . S
C1729 N1731 1.384 . S
N1730 C1726 1.427 . S
N1730 C1727 1.384 . S
N1731 C1723 1.427 . S
N1731 C1729 1.384 . S
H1732 C1738 0.930 . S
H1733 C1742 0.930 . S
H1734 C1747 0.929 . S
H1735 C1745 0.929 . S
H1736 C1740 0.929 . S
H1737 C1746 0.929 . S
C1738 H1732 0.930 . S
C1738 C1739 1.367 . S
C1738 C1746 1.378 . S
C1739 C1738 1.367 . S
C1739 C1747 1.433 . S
C1740 H1736 0.929 . S
C1740 C1742 1.378 . S
C1740 C1744 1.350 . S
C1741 C1744 1.463 . S
C1741 C1746 1.350 . S
C1741 N1749 1.427 . S
C1742 H1733 0.930 . S
C1742 C1740 1.378 . S
C1742 C1743 1.367 . S
C1743 C1742 1.367 . S
C1743 C1745 1.433 . S
C1744 C1740 1.350 . S
C1744 C1741 1.463 . S
C1744 N1748 1.427 . S
C1745 H1735 0.929 . S
C1745 C1743 1.433 . S
C1745 N1748 1.384 . S
C1746 H1737 0.929 . S
C1746 C1738 1.378 . S
C1746 C1741 1.350 . S
C1747 H1734 0.929 . S
C1747 C1739 1.433 . S
C1747 N1749 1.384 . S
N1748 C1744 1.427 . S
N1748 C1745 1.384 . S
N1749 C1741 1.427 . S
N1749 C1747 1.384 . S
H1750 C1756 0.930 . S
H1751 C1760 0.930 . S
H1752 C1765 0.929 . S
H1753 C1763 0.929 . S
H1754 C1758 0.929 . S
H1755 C1764 0.929 . S
C1756 H1750 0.930 . S
C1756 C1757 1.367 . S
C1756 C1764 1.378 . S
C1757 C1756 1.367 . S
C1757 C1765 1.433 . S
C1758 H1754 0.929 . S
C1758 C1760 1.378 . S
C1758 C1762 1.350 . S
C1759 C1762 1.463 . S
C1759 C1764 1.350 . S
C1759 N1767 1.427 . S
C1760 H1751 0.930 . S
C1760 C1758 1.378 . S
C1760 C1761 1.367 . S
C1761 C1760 1.367 . S
C1761 C1763 1.433 . S
C1762 C1758 1.350 . S
C1762 C1759 1.463 . S
C1762 N1766 1.427 . S
C1763 H1753 0.929 . S
C1763 C1761 1.433 . S
C1763 N1766 1.384 . S
C1764 H1755 0.929 . S
C1764 C1756 1.378 . S
C1764 C1759 1.350 . S
C1765 H1752 0.929 . S
C1765 C1757 1.433 . S
C1765 N1767 1.384 . S
N1766 C1762 1.427 . S
N1766 C1763 1.384 . S
N1767 C1759 1.427 . S
N1767 C1765 1.384 . S
H1768 C1774 0.930 1_545 S
H1769 C1778 0.930 . S
H1770 C1783 0.929 . S
H1771 C1781 0.929 . S
H1772 C1776 0.929 . S
H1773 C1782 0.929 . S
C1774 H1768 0.930 1_565 S
C1774 C1775 1.367 . S
C1774 C1782 1.378 . S
C1775 C1774 1.367 . S
C1775 C1783 1.433 . S
C1776 H1772 0.929 . S
C1776 C1778 1.378 . S
C1776 C1780 1.350 . S
C1777 C1780 1.463 . S
C1777 C1782 1.350 . S
C1777 N1785 1.427 . S
C1778 H1769 0.930 . S
C1778 C1776 1.378 . S
C1778 C1779 1.367 . S
C1779 C1778 1.367 . S
C1779 C1781 1.433 . S
C1780 C1776 1.350 . S
C1780 C1777 1.463 . S
C1780 N1784 1.427 . S
C1781 H1771 0.929 . S
C1781 C1779 1.433 . S
C1781 N1784 1.384 . S
C1782 H1773 0.929 . S
C1782 C1774 1.378 . S
C1782 C1777 1.350 . S
C1783 H1770 0.929 . S
C1783 C1775 1.433 . S
C1783 N1785 1.384 . S
N1784 C1780 1.427 . S
N1784 C1781 1.384 . S
N1785 C1777 1.427 . S
N1785 C1783 1.384 . S
H1786 C1792 0.930 . S
H1787 C1796 0.930 . S
H1788 C1801 0.929 . S
H1789 C1799 0.929 . S
H1790 C1794 0.929 . S
H1791 C1800 0.929 . S
C1792 H1786 0.930 . S
C1792 C1793 1.367 . S
C1792 C1800 1.378 . S
C1793 C1792 1.367 . S
C1793 C1801 1.433 . S
C1794 H1790 0.929 . S
C1794 C1796 1.378 . S
C1794 C1798 1.350 . S
C1795 C1798 1.463 . S
C1795 C1800 1.350 . S
C1795 N1803 1.427 . S
C1796 H1787 0.930 . S
C1796 C1794 1.378 . S
C1796 C1797 1.367 . S
C1797 C1796 1.367 . S
C1797 C1799 1.433 . S
C1798 C1794 1.350 . S
C1798 C1795 1.463 . S
C1798 N1802 1.427 . S
C1799 H1789 0.929 . S
C1799 C1797 1.433 . S
C1799 N1802 1.384 . S
C1800 H1791 0.929 . S
C1800 C1792 1.378 . S
C1800 C1795 1.350 . S
C1801 H1788 0.929 . S
C1801 C1793 1.433 . S
C1801 N1803 1.384 . S
N1802 C1798 1.427 . S
N1802 C1799 1.384 . S
N1803 C1795 1.427 . S
N1803 C1801 1.384 . S
H1804 C1810 0.930 . S
H1805 C1814 0.930 . S
H1806 C1819 0.929 . S
H1807 C1817 0.929 . S
H1808 C1812 0.929 . S
H1809 C1818 0.929 . S
C1810 H1804 0.930 . S
C1810 C1811 1.367 . S
C1810 C1818 1.378 . S
C1811 C1810 1.367 . S
C1811 C1819 1.433 . S
C1812 H1808 0.929 . S
C1812 C1814 1.378 . S
C1812 C1816 1.350 . S
C1813 C1816 1.463 . S
C1813 C1818 1.350 . S
C1813 N1821 1.427 . S
C1814 H1805 0.930 . S
C1814 C1812 1.378 . S
C1814 C1815 1.367 . S
C1815 C1814 1.367 . S
C1815 C1817 1.433 . S
C1816 C1812 1.350 . S
C1816 C1813 1.463 . S
C1816 N1820 1.427 . S
C1817 H1807 0.929 . S
C1817 C1815 1.433 . S
C1817 N1820 1.384 . S
C1818 H1809 0.929 . S
C1818 C1810 1.378 . S
C1818 C1813 1.350 . S
C1819 H1806 0.929 . S
C1819 C1811 1.433 . S
C1819 N1821 1.384 . S
N1820 C1816 1.427 . S
N1820 C1817 1.384 . S
N1821 C1813 1.427 . S
N1821 C1819 1.384 . S
H1822 C1828 0.930 . S
H1823 C1832 0.930 . S
H1824 C1837 0.929 . S
H1825 C1835 0.929 . S
H1826 C1830 0.929 . S
H1827 C1836 0.929 . S
C1828 H1822 0.930 . S
C1828 C1829 1.367 . S
C1828 C1836 1.378 . S
C1829 C1828 1.367 . S
C1829 C1837 1.433 . S
C1830 H1826 0.929 . S
C1830 C1832 1.378 . S
C1830 C1834 1.350 . S
C1831 C1834 1.463 . S
C1831 C1836 1.350 . S
C1831 N1839 1.427 . S
C1832 H1823 0.930 . S
C1832 C1830 1.378 . S
C1832 C1833 1.367 . S
C1833 C1832 1.367 . S
C1833 C1835 1.433 . S
C1834 C1830 1.350 . S
C1834 C1831 1.463 . S
C1834 N1838 1.427 . S
C1835 H1825 0.929 . S
C1835 C1833 1.433 . S
C1835 N1838 1.384 . S
C1836 H1827 0.929 . S
C1836 C1828 1.378 . S
C1836 C1831 1.350 . S
C1837 H1824 0.929 . S
C1837 C1829 1.433 . S
C1837 N1839 1.384 . S
N1838 C1834 1.427 . S
N1838 C1835 1.384 . S
N1839 C1831 1.427 . S
N1839 C1837 1.384 . S
H1840 C1846 0.930 . S
H1841 C1850 0.930 . S
H1842 C1855 0.929 . S
H1843 C1853 0.929 . S
H1844 C1848 0.929 . S
H1845 C1854 0.929 . S
C1846 H1840 0.930 . S
C1846 C1847 1.367 . S
C1846 C1854 1.378 . S
C1847 C1846 1.367 . S
C1847 C1855 1.433 . S
C1848 H1844 0.929 . S
C1848 C1850 1.378 . S
C1848 C1852 1.350 . S
C1849 C1852 1.463 . S
C1849 C1854 1.350 . S
C1849 N1857 1.427 . S
C1850 H1841 0.930 . S
C1850 C1848 1.378 . S
C1850 C1851 1.367 . S
C1851 C1850 1.367 . S
C1851 C1853 1.433 . S
C1852 C1848 1.350 . S
C1852 C1849 1.463 . S
C1852 N1856 1.427 . S
C1853 H1843 0.929 . S
C1853 C1851 1.433 . S
C1853 N1856 1.384 . S
C1854 H1845 0.929 . S
C1854 C1846 1.378 . S
C1854 C1849 1.350 . S
C1855 H1842 0.929 . S
C1855 C1847 1.433 . S
C1855 N1857 1.384 . S
N1856 C1852 1.427 . S
N1856 C1853 1.384 . S
N1857 C1849 1.427 . S
N1857 C1855 1.384 . S
H1858 C1864 0.930 . S
H1859 C1868 0.930 . S
H1860 C1873 0.929 . S
H1861 C1871 0.929 . S
H1862 C1866 0.929 . S
H1863 C1872 0.929 . S
C1864 H1858 0.930 . S
C1864 C1865 1.367 . S
C1864 C1872 1.378 . S
C1865 C1864 1.367 . S
C1865 C1873 1.433 . S
C1866 H1862 0.929 . S
C1866 C1868 1.378 . S
C1866 C1870 1.350 . S
C1867 C1870 1.463 . S
C1867 C1872 1.350 . S
C1867 N1875 1.427 . S
C1868 H1859 0.930 . S
C1868 C1866 1.378 . S
C1868 C1869 1.367 . S
C1869 C1868 1.367 . S
C1869 C1871 1.433 . S
C1870 C1866 1.350 . S
C1870 C1867 1.463 . S
C1870 N1874 1.427 . S
C1871 H1861 0.929 . S
C1871 C1869 1.433 . S
C1871 N1874 1.384 . S
C1872 H1863 0.929 . S
C1872 C1864 1.378 . S
C1872 C1867 1.350 . S
C1873 H1860 0.929 . S
C1873 C1865 1.433 . S
C1873 N1875 1.384 . S
N1874 C1870 1.427 . S
N1874 C1871 1.384 . S
N1875 C1867 1.427 . S
N1875 C1873 1.384 . S
H1876 C1882 0.910 1_655 S
H1877 C1886 0.930 . S
H1878 C1891 0.929 . S
H1879 C1889 0.929 . S
H1880 C1884 0.929 . S
H1881 C1890 0.929 1_655 S
C1882 H1876 0.910 1_455 S
C1882 C1883 1.398 . S
C1882 C1890 1.370 . S
C1883 C1882 1.398 . S
C1883 C1891 1.433 . S
C1884 H1880 0.929 . S
C1884 C1886 1.378 . S
C1884 C1888 1.307 1_554 S
C1885 C1888 1.486 . S
C1885 C1890 1.350 . S
C1885 N1893 1.427 . S
C1886 H1877 0.930 . S
C1886 C1884 1.378 . S
C1886 C1887 1.367 . S
C1887 C1886 1.367 . S
C1887 C1889 1.433 1_554 S
C1888 C1884 1.307 1_556 S
C1888 C1885 1.486 . S
C1888 N1892 1.453 . S
C1889 H1879 0.929 . S
C1889 C1887 1.433 1_556 S
C1889 N1892 1.384 . S
C1890 H1881 0.929 1_455 S
C1890 C1882 1.370 . S
C1890 C1885 1.350 . S
C1891 H1878 0.929 . S
C1891 C1883 1.433 . S
C1891 N1893 1.384 . S
N1892 C1888 1.453 . S
N1892 C1889 1.384 . S
N1893 C1885 1.427 . S
N1893 C1891 1.384 . S
H1894 C1900 0.930 . S
H1895 C1904 0.930 . S
H1896 C1909 0.929 . S
H1897 C1907 0.929 . S
H1898 C1902 0.929 . S
H1899 C1908 0.929 . S
C1900 H1894 0.930 . S
C1900 C1901 1.367 . S
C1900 C1908 1.378 1_455 S
C1901 C1900 1.367 . S
C1901 C1909 1.433 . S
C1902 H1898 0.929 . S
C1902 C1904 1.378 . S
C1902 C1906 1.350 . S
C1903 C1906 1.463 . S
C1903 C1908 1.350 . S
C1903 N1911 1.427 . S
C1904 H1895 0.930 . S
C1904 C1902 1.378 . S
C1904 C1905 1.367 . S
C1905 C1904 1.367 . S
C1905 C1907 1.433 . S
C1906 C1902 1.350 . S
C1906 C1903 1.463 . S
C1906 N1910 1.427 . S
C1907 H1897 0.929 . S
C1907 C1905 1.433 . S
C1907 N1910 1.384 . S
C1908 H1899 0.929 . S
C1908 C1900 1.378 1_655 S
C1908 C1903 1.350 . S
C1909 H1896 0.929 . S
C1909 C1901 1.433 . S
C1909 N1911 1.384 1_455 S
N1910 C1906 1.427 . S
N1910 C1907 1.384 . S
N1911 C1903 1.427 . S
N1911 C1909 1.384 1_655 S
H1912 C1918 0.930 . S
H1913 C1922 0.930 . S
H1914 C1927 0.929 . S
H1915 C1925 0.929 . S
H1916 C1920 0.929 . S
H1917 C1926 0.929 . S
C1918 H1912 0.930 . S
C1918 C1919 1.367 . S
C1918 C1926 1.378 . S
C1919 C1918 1.367 . S
C1919 C1927 1.433 . S
C1920 H1916 0.929 . S
C1920 C1922 1.378 . S
C1920 C1924 1.350 . S
C1921 C1924 1.463 . S
C1921 C1926 1.350 . S
C1921 N1929 1.427 . S
C1922 H1913 0.930 . S
C1922 C1920 1.378 . S
C1922 C1923 1.367 . S
C1923 C1922 1.367 . S
C1923 C1925 1.433 . S
C1924 C1920 1.350 . S
C1924 C1921 1.463 . S
C1924 N1928 1.427 . S
C1925 H1915 0.929 . S
C1925 C1923 1.433 . S
C1925 N1928 1.384 . S
C1926 H1917 0.929 . S
C1926 C1918 1.378 . S
C1926 C1921 1.350 . S
C1927 H1914 0.929 . S
C1927 C1919 1.433 . S
C1927 N1929 1.384 . S
N1928 C1924 1.427 . S
N1928 C1925 1.384 . S
N1929 C1921 1.427 . S
N1929 C1927 1.384 . S
H1930 C1936 0.930 . S
H1931 C1940 0.930 . S
H1932 C1945 0.929 . S
H1933 C1943 0.929 . S
H1934 C1938 0.929 . S
H1935 C1944 0.929 . S
C1936 H1930 0.930 . S
C1936 C1937 1.367 . S
C1936 C1944 1.378 . S
C1937 C1936 1.367 . S
C1937 C1945 1.433 . S
C1938 H1934 0.929 . S
C1938 C1940 1.378 . S
C1938 C1942 1.350 . S
C1939 C1942 1.463 . S
C1939 C1944 1.350 . S
C1939 N1947 1.427 . S
C1940 H1931 0.930 . S
C1940 C1938 1.378 . S
C1940 C1941 1.367 . S
C1941 C1940 1.367 . S
C1941 C1943 1.433 . S
C1942 C1938 1.350 . S
C1942 C1939 1.463 . S
C1942 N1946 1.427 . S
C1943 H1933 0.929 . S
C1943 C1941 1.433 . S
C1943 N1946 1.384 . S
C1944 H1935 0.929 . S
C1944 C1936 1.378 . S
C1944 C1939 1.350 . S
C1945 H1932 0.929 . S
C1945 C1937 1.433 . S
C1945 N1947 1.384 . S
N1946 C1942 1.427 . S
N1946 C1943 1.384 . S
N1947 C1939 1.427 . S
N1947 C1945 1.384 . S
H1948 C1954 0.930 . S
H1949 C1958 0.930 . S
H1950 C1963 0.929 . S
H1951 C1961 0.929 . S
H1952 C1956 0.929 . S
H1953 C1962 0.929 . S
C1954 H1948 0.930 . S
C1954 C1955 1.367 . S
C1954 C1962 1.378 . S
C1955 C1954 1.367 . S
C1955 C1963 1.433 . S
C1956 H1952 0.929 . S
C1956 C1958 1.378 . S
C1956 C1960 1.350 . S
C1957 C1960 1.463 . S
C1957 C1962 1.350 . S
C1957 N1965 1.427 . S
C1958 H1949 0.930 . S
C1958 C1956 1.378 . S
C1958 C1959 1.367 . S
C1959 C1958 1.367 . S
C1959 C1961 1.433 . S
C1960 C1956 1.350 . S
C1960 C1957 1.463 . S
C1960 N1964 1.427 . S
C1961 H1951 0.929 . S
C1961 C1959 1.433 . S
C1961 N1964 1.384 . S
C1962 H1953 0.929 . S
C1962 C1954 1.378 . S
C1962 C1957 1.350 . S
C1963 H1950 0.929 . S
C1963 C1955 1.433 . S
C1963 N1965 1.384 . S
N1964 C1960 1.427 . S
N1964 C1961 1.384 . S
N1965 C1957 1.427 . S
N1965 C1963 1.384 . S
H1966 C1972 0.930 . S
H1967 C1976 0.930 . S
H1968 C1981 0.929 . S
H1969 C1979 0.929 . S
H1970 C1974 0.929 . S
H1971 C1980 0.929 . S
C1972 H1966 0.930 . S
C1972 C1973 1.367 . S
C1972 C1980 1.378 . S
C1973 C1972 1.367 . S
C1973 C1981 1.433 . S
C1974 H1970 0.929 . S
C1974 C1976 1.378 . S
C1974 C1978 1.350 . S
C1975 C1978 1.463 . S
C1975 C1980 1.350 . S
C1975 N1983 1.427 . S
C1976 H1967 0.930 . S
C1976 C1974 1.378 . S
C1976 C1977 1.367 . S
C1977 C1976 1.367 . S
C1977 C1979 1.433 . S
C1978 C1974 1.350 . S
C1978 C1975 1.463 . S
C1978 N1982 1.427 . S
C1979 H1969 0.929 . S
C1979 C1977 1.433 . S
C1979 N1982 1.384 . S
C1980 H1971 0.929 . S
C1980 C1972 1.378 . S
C1980 C1975 1.350 . S
C1981 H1968 0.929 . S
C1981 C1973 1.433 . S
C1981 N1983 1.384 . S
N1982 C1978 1.427 . S
N1982 C1979 1.384 . S
N1983 C1975 1.427 . S
N1983 C1981 1.384 . S
H1984 C1990 0.930 . S
H1985 C1994 0.930 . S
H1986 C1999 0.929 . S
H1987 C1997 0.929 . S
H1988 C1992 0.929 . S
H1989 C1998 0.929 . S
C1990 H1984 0.930 . S
C1990 C1991 1.367 . S
C1990 C1998 1.378 . S
C1991 C1990 1.367 . S
C1991 C1999 1.433 . S
C1992 H1988 0.929 . S
C1992 C1994 1.378 . S
C1992 C1996 1.350 . S
C1993 C1996 1.463 . S
C1993 C1998 1.350 . S
C1993 N2001 1.427 . S
C1994 H1985 0.930 . S
C1994 C1992 1.378 . S
C1994 C1995 1.367 . S
C1995 C1994 1.367 . S
C1995 C1997 1.433 . S
C1996 C1992 1.350 . S
C1996 C1993 1.463 . S
C1996 N2000 1.427 . S
C1997 H1987 0.929 . S
C1997 C1995 1.433 . S
C1997 N2000 1.384 . S
C1998 H1989 0.929 . S
C1998 C1990 1.378 . S
C1998 C1993 1.350 . S
C1999 H1986 0.929 . S
C1999 C1991 1.433 . S
C1999 N2001 1.384 . S
N2000 C1996 1.427 . S
N2000 C1997 1.384 . S
N2001 C1993 1.427 . S
N2001 C1999 1.384 . S
H2002 C2008 0.930 . S
H2003 C2012 0.930 . S
H2004 C2017 0.929 . S
H2005 C2015 0.929 . S
H2006 C2010 0.929 . S
H2007 C2016 0.929 . S
C2008 H2002 0.930 . S
C2008 C2009 1.367 . S
C2008 C2016 1.378 1_554 S
C2009 C2008 1.367 . S
C2009 C2017 1.433 . S
C2010 H2006 0.929 . S
C2010 C2012 1.378 . S
C2010 C2014 1.350 . S
C2011 C2014 1.463 . S
C2011 C2016 1.350 . S
C2011 N2019 1.427 . S
C2012 H2003 0.930 . S
C2012 C2010 1.378 . S
C2012 C2013 1.367 . S
C2013 C2012 1.367 . S
C2013 C2015 1.433 . S
C2014 C2010 1.350 . S
C2014 C2011 1.463 . S
C2014 N2018 1.427 . S
C2015 H2005 0.929 . S
C2015 C2013 1.433 . S
C2015 N2018 1.384 . S
C2016 H2007 0.929 . S
C2016 C2008 1.378 1_556 S
C2016 C2011 1.350 . S
C2017 H2004 0.929 . S
C2017 C2009 1.433 . S
C2017 N2019 1.384 1_554 S
N2018 C2014 1.427 . S
N2018 C2015 1.384 . S
N2019 C2011 1.427 . S
N2019 C2017 1.384 1_556 S
H2020 C2026 0.930 . S
H2021 C2030 0.930 . S
H2022 C2035 0.929 . S
H2023 C2033 0.929 . S
H2024 C2028 0.929 . S
H2025 C2034 0.929 . S
C2026 H2020 0.930 . S
C2026 C2027 1.367 . S
C2026 C2034 1.378 . S
C2027 C2026 1.367 . S
C2027 C2035 1.433 . S
C2028 H2024 0.929 . S
C2028 C2030 1.378 . S
C2028 C2032 1.350 . S
C2029 C2032 1.463 . S
C2029 C2034 1.350 . S
C2029 N2037 1.427 . S
C2030 H2021 0.930 . S
C2030 C2028 1.378 . S
C2030 C2031 1.367 . S
C2031 C2030 1.367 . S
C2031 C2033 1.433 . S
C2032 C2028 1.350 . S
C2032 C2029 1.463 . S
C2032 N2036 1.427 . S
C2033 H2023 0.929 . S
C2033 C2031 1.433 . S
C2033 N2036 1.384 . S
C2034 H2025 0.929 . S
C2034 C2026 1.378 . S
C2034 C2029 1.350 . S
C2035 H2022 0.929 . S
C2035 C2027 1.433 . S
C2035 N2037 1.384 . S
N2036 C2032 1.427 . S
N2036 C2033 1.384 . S
N2037 C2029 1.427 . S
N2037 C2035 1.384 . S
H2038 C2044 0.930 . S
H2039 C2048 0.930 . S
H2040 C2053 0.929 . S
H2041 C2051 0.929 . S
H2042 C2046 0.929 . S
H2043 C2052 0.929 . S
C2044 H2038 0.930 . S
C2044 C2045 1.367 . S
C2044 C2052 1.378 . S
C2045 C2044 1.367 . S
C2045 C2053 1.433 . S
C2046 H2042 0.929 . S
C2046 C2048 1.378 . S
C2046 C2050 1.350 . S
C2047 C2050 1.463 . S
C2047 C2052 1.350 . S
C2047 N2055 1.427 . S
C2048 H2039 0.930 . S
C2048 C2046 1.378 . S
C2048 C2049 1.367 . S
C2049 C2048 1.367 . S
C2049 C2051 1.433 . S
C2050 C2046 1.350 . S
C2050 C2047 1.463 . S
C2050 N2054 1.427 . S
C2051 H2041 0.929 . S
C2051 C2049 1.433 . S
C2051 N2054 1.384 . S
C2052 H2043 0.929 . S
C2052 C2044 1.378 . S
C2052 C2047 1.350 . S
C2053 H2040 0.929 . S
C2053 C2045 1.433 . S
C2053 N2055 1.384 . S
N2054 C2050 1.427 . S
N2054 C2051 1.384 . S
N2055 C2047 1.427 . S
N2055 C2053 1.384 . S
H2056 C2062 0.930 . S
H2057 C2066 0.930 . S
H2058 C2071 0.929 . S
H2059 C2069 0.929 . S
H2060 C2064 0.929 . S
H2061 C2070 0.929 . S
C2062 H2056 0.930 . S
C2062 C2063 1.367 . S
C2062 C2070 1.378 . S
C2063 C2062 1.367 . S
C2063 C2071 1.433 . S
C2064 H2060 0.929 . S
C2064 C2066 1.378 . S
C2064 C2068 1.350 . S
C2065 C2068 1.463 . S
C2065 C2070 1.350 . S
C2065 N2073 1.427 . S
C2066 H2057 0.930 . S
C2066 C2064 1.378 . S
C2066 C2067 1.367 . S
C2067 C2066 1.367 . S
C2067 C2069 1.433 . S
C2068 C2064 1.350 . S
C2068 C2065 1.463 . S
C2068 N2072 1.427 . S
C2069 H2059 0.929 . S
C2069 C2067 1.433 . S
C2069 N2072 1.384 . S
C2070 H2061 0.929 . S
C2070 C2062 1.378 . S
C2070 C2065 1.350 . S
C2071 H2058 0.929 . S
C2071 C2063 1.433 . S
C2071 N2073 1.384 . S
N2072 C2068 1.427 . S
N2072 C2069 1.384 . S
N2073 C2065 1.427 . S
N2073 C2071 1.384 . S
H2074 C2080 0.930 . S
H2075 C2084 0.930 . S
H2076 C2089 0.929 . S
H2077 C2087 0.929 . S
H2078 C2082 0.929 . S
H2079 C2088 0.929 . S
C2080 H2074 0.930 . S
C2080 C2081 1.367 . S
C2080 C2088 1.378 . S
C2081 C2080 1.367 . S
C2081 C2089 1.433 . S
C2082 H2078 0.929 . S
C2082 C2084 1.378 . S
C2082 C2086 1.350 . S
C2083 C2086 1.463 . S
C2083 C2088 1.350 . S
C2083 N2091 1.427 . S
C2084 H2075 0.930 . S
C2084 C2082 1.378 . S
C2084 C2085 1.367 . S
C2085 C2084 1.367 . S
C2085 C2087 1.433 . S
C2086 C2082 1.350 . S
C2086 C2083 1.463 . S
C2086 N2090 1.427 . S
C2087 H2077 0.929 . S
C2087 C2085 1.433 . S
C2087 N2090 1.384 . S
C2088 H2079 0.929 . S
C2088 C2080 1.378 . S
C2088 C2083 1.350 . S
C2089 H2076 0.929 . S
C2089 C2081 1.433 . S
C2089 N2091 1.384 . S
N2090 C2086 1.427 . S
N2090 C2087 1.384 . S
N2091 C2083 1.427 . S
N2091 C2089 1.384 . S
H2092 C2098 0.930 . S
H2093 C2102 0.930 . S
H2094 C2107 0.929 . S
H2095 C2105 0.929 . S
H2096 C2100 0.929 . S
H2097 C2106 0.929 . S
C2098 H2092 0.930 . S
C2098 C2099 1.367 . S
C2098 C2106 1.378 . S
C2099 C2098 1.367 . S
C2099 C2107 1.433 . S
C2100 H2096 0.929 . S
C2100 C2102 1.378 . S
C2100 C2104 1.350 . S
C2101 C2104 1.463 . S
C2101 C2106 1.350 . S
C2101 N2109 1.427 . S
C2102 H2093 0.930 . S
C2102 C2100 1.378 . S
C2102 C2103 1.367 . S
C2103 C2102 1.367 . S
C2103 C2105 1.433 . S
C2104 C2100 1.350 . S
C2104 C2101 1.463 . S
C2104 N2108 1.427 . S
C2105 H2095 0.929 . S
C2105 C2103 1.433 . S
C2105 N2108 1.384 . S
C2106 H2097 0.929 . S
C2106 C2098 1.378 . S
C2106 C2101 1.350 . S
C2107 H2094 0.929 . S
C2107 C2099 1.433 . S
C2107 N2109 1.384 . S
N2108 C2104 1.427 . S
N2108 C2105 1.384 . S
N2109 C2101 1.427 . S
N2109 C2107 1.384 . S
H2110 C2116 0.930 . S
H2111 C2120 0.930 . S
H2112 C2125 0.929 . S
H2113 C2123 0.929 . S
H2114 C2118 0.929 . S
H2115 C2124 0.929 . S
C2116 H2110 0.930 . S
C2116 C2117 1.367 . S
C2116 C2124 1.378 . S
C2117 C2116 1.367 . S
C2117 C2125 1.433 . S
C2118 H2114 0.929 . S
C2118 C2120 1.378 . S
C2118 C2122 1.350 . S
C2119 C2122 1.463 . S
C2119 C2124 1.350 . S
C2119 N2127 1.427 . S
C2120 H2111 0.930 . S
C2120 C2118 1.378 . S
C2120 C2121 1.367 . S
C2121 C2120 1.367 . S
C2121 C2123 1.433 . S
C2122 C2118 1.350 . S
C2122 C2119 1.463 . S
C2122 N2126 1.427 . S
C2123 H2113 0.929 . S
C2123 C2121 1.433 . S
C2123 N2126 1.384 . S
C2124 H2115 0.929 . S
C2124 C2116 1.378 . S
C2124 C2119 1.350 . S
C2125 H2112 0.929 . S
C2125 C2117 1.433 . S
C2125 N2127 1.384 . S
N2126 C2122 1.427 . S
N2126 C2123 1.384 . S
N2127 C2119 1.427 . S
N2127 C2125 1.384 . S
H2128 C2134 0.930 . S
H2129 C2138 0.930 . S
H2130 C2143 0.929 . S
H2131 C2141 0.929 . S
H2132 C2136 0.929 . S
H2133 C2142 0.929 . S
C2134 H2128 0.930 . S
C2134 C2135 1.367 . S
C2134 C2142 1.378 . S
C2135 C2134 1.367 . S
C2135 C2143 1.433 . S
C2136 H2132 0.929 . S
C2136 C2138 1.378 . S
C2136 C2140 1.350 . S
C2137 C2140 1.463 . S
C2137 C2142 1.350 . S
C2137 N2145 1.427 . S
C2138 H2129 0.930 . S
C2138 C2136 1.378 . S
C2138 C2139 1.367 . S
C2139 C2138 1.367 . S
C2139 C2141 1.433 . S
C2140 C2136 1.350 . S
C2140 C2137 1.463 . S
C2140 N2144 1.427 . S
C2141 H2131 0.929 . S
C2141 C2139 1.433 . S
C2141 N2144 1.384 . S
C2142 H2133 0.929 . S
C2142 C2134 1.378 . S
C2142 C2137 1.350 . S
C2143 H2130 0.929 . S
C2143 C2135 1.433 . S
C2143 N2145 1.384 . S
N2144 C2140 1.427 . S
N2144 C2141 1.384 . S
N2145 C2137 1.427 . S
N2145 C2143 1.384 . S
H2146 C2152 0.930 . S
H2147 C2156 0.930 . S
H2148 C2161 0.929 . S
H2149 C2159 0.929 . S
H2150 C2154 0.929 . S
H2151 C2160 0.929 . S
C2152 H2146 0.930 . S
C2152 C2153 1.367 . S
C2152 C2160 1.378 . S
C2153 C2152 1.367 . S
C2153 C2161 1.433 . S
C2154 H2150 0.929 . S
C2154 C2156 1.378 . S
C2154 C2158 1.350 . S
C2155 C2158 1.463 . S
C2155 C2160 1.350 . S
C2155 N2163 1.427 . S
C2156 H2147 0.930 . S
C2156 C2154 1.378 . S
C2156 C2157 1.367 . S
C2157 C2156 1.367 . S
C2157 C2159 1.433 . S
C2158 C2154 1.350 . S
C2158 C2155 1.463 . S
C2158 N2162 1.427 . S
C2159 H2149 0.929 . S
C2159 C2157 1.433 . S
C2159 N2162 1.384 . S
C2160 H2151 0.929 . S
C2160 C2152 1.378 . S
C2160 C2155 1.350 . S
C2161 H2148 0.929 . S
C2161 C2153 1.433 . S
C2161 N2163 1.384 . S
N2162 C2158 1.427 . S
N2162 C2159 1.384 . S
N2163 C2155 1.427 . S
N2163 C2161 1.384 . S
H2164 C2170 0.937 . S
H2165 C2174 0.930 . S
H2166 C2179 0.929 . S
H2167 C2177 0.929 . S
H2168 C2172 0.929 . S
H2169 C2178 0.929 . S
C2170 H2164 0.937 . S
C2170 C2171 1.376 . S
C2170 C2178 1.378 . S
C2171 C2170 1.376 . S
C2171 C2179 1.435 . S
C2172 H2168 0.929 . S
C2172 C2174 1.378 . S
C2172 C2176 1.350 . S
C2173 C2176 1.463 . S
C2173 C2178 1.350 . S
C2173 N2181 1.427 . S
C2174 H2165 0.930 . S
C2174 C2172 1.378 . S
C2174 C2175 1.367 . S
C2175 C2174 1.367 . S
C2175 C2177 1.433 . S
C2176 C2172 1.350 . S
C2176 C2173 1.463 . S
C2176 N2180 1.427 . S
C2177 H2167 0.929 . S
C2177 C2175 1.433 . S
C2177 N2180 1.384 . S
C2178 H2169 0.929 . S
C2178 C2170 1.378 . S
C2178 C2173 1.350 . S
C2179 H2166 0.929 . S
C2179 C2171 1.435 . S
C2179 N2181 1.384 . S
N2180 C2176 1.427 . S
N2180 C2177 1.384 . S
N2181 C2173 1.427 . S
N2181 C2179 1.384 . S
H2182 C2188 0.930 . S
H2183 C2192 0.909 1_565 S
H2184 C2197 0.929 . S
H2185 C2195 0.929 . S
H2186 C2190 0.929 . S
H2187 C2196 0.929 1_545 S
C2188 H2182 0.930 . S
C2188 C2189 1.367 1_556 S
C2188 C2196 1.378 . S
C2189 C2188 1.367 1_554 S
C2189 C2197 1.433 . S
C2190 H2186 0.929 . S
C2190 C2192 1.371 1_565 S
C2190 C2194 1.350 . S
C2191 C2194 1.463 . S
C2191 C2196 1.350 1_554 S
C2191 N2199 1.427 . S
C2192 H2183 0.909 1_545 S
C2192 C2190 1.371 1_545 S
C2192 C2193 1.395 . S
C2193 C2192 1.395 . S
C2193 C2195 1.433 . S
C2194 C2190 1.350 . S
C2194 C2191 1.463 . S
C2194 N2198 1.427 1_565 S
C2195 H2185 0.929 . S
C2195 C2193 1.433 . S
C2195 N2198 1.384 . S
C2196 H2187 0.929 1_565 S
C2196 C2188 1.378 . S
C2196 C2191 1.350 1_556 S
C2197 H2184 0.929 . S
C2197 C2189 1.433 . S
C2197 N2199 1.384 . S
N2198 C2194 1.427 1_545 S
N2198 C2195 1.384 . S
N2199 C2191 1.427 . S
N2199 C2197 1.384 . S
H2200 C2206 0.930 . S
H2201 C2210 0.930 . S
H2202 C2215 0.929 . S
H2203 C2213 0.929 . S
H2204 C2208 0.929 . S
H2205 C2214 0.929 . S
C2206 H2200 0.930 . S
C2206 C2207 1.367 . S
C2206 C2214 1.378 . S
C2207 C2206 1.367 . S
C2207 C2215 1.433 . S
C2208 H2204 0.929 . S
C2208 C2210 1.378 . S
C2208 C2212 1.350 . S
C2209 C2212 1.463 . S
C2209 C2214 1.350 . S
C2209 N2217 1.427 . S
C2210 H2201 0.930 . S
C2210 C2208 1.378 . S
C2210 C2211 1.367 . S
C2211 C2210 1.367 . S
C2211 C2213 1.433 . S
C2212 C2208 1.350 . S
C2212 C2209 1.463 . S
C2212 N2216 1.427 . S
C2213 H2203 0.929 . S
C2213 C2211 1.433 . S
C2213 N2216 1.384 . S
C2214 H2205 0.929 . S
C2214 C2206 1.378 . S
C2214 C2209 1.350 . S
C2215 H2202 0.929 . S
C2215 C2207 1.433 . S
C2215 N2217 1.384 . S
N2216 C2212 1.427 . S
N2216 C2213 1.384 . S
N2217 C2209 1.427 . S
N2217 C2215 1.384 . S
H2218 C2224 0.930 . S
H2219 C2228 0.930 . S
H2220 C2233 0.929 . S
H2221 C2231 0.929 . S
H2222 C2226 0.929 . S
H2223 C2232 0.929 . S
C2224 H2218 0.930 . S
C2224 C2225 1.367 . S
C2224 C2232 1.378 . S
C2225 C2224 1.367 . S
C2225 C2233 1.433 . S
C2226 H2222 0.929 . S
C2226 C2228 1.378 . S
C2226 C2230 1.350 . S
C2227 C2230 1.463 . S
C2227 C2232 1.350 . S
C2227 N2235 1.427 . S
C2228 H2219 0.930 . S
C2228 C2226 1.378 . S
C2228 C2229 1.367 . S
C2229 C2228 1.367 . S
C2229 C2231 1.433 . S
C2230 C2226 1.350 . S
C2230 C2227 1.463 . S
C2230 N2234 1.427 . S
C2231 H2221 0.929 . S
C2231 C2229 1.433 . S
C2231 N2234 1.384 . S
C2232 H2223 0.929 . S
C2232 C2224 1.378 . S
C2232 C2227 1.350 . S
C2233 H2220 0.929 . S
C2233 C2225 1.433 . S
C2233 N2235 1.384 . S
N2234 C2230 1.427 . S
N2234 C2231 1.384 . S
N2235 C2227 1.427 . S
N2235 C2233 1.384 . S
H2236 C2242 0.930 . S
H2237 C2246 0.930 . S
H2238 C2251 0.929 . S
H2239 C2249 0.929 . S
H2240 C2244 0.929 . S
H2241 C2250 0.929 . S
C2242 H2236 0.930 . S
C2242 C2243 1.367 . S
C2242 C2250 1.378 . S
C2243 C2242 1.367 . S
C2243 C2251 1.433 . S
C2244 H2240 0.929 . S
C2244 C2246 1.378 . S
C2244 C2248 1.350 . S
C2245 C2248 1.463 . S
C2245 C2250 1.350 . S
C2245 N2253 1.427 . S
C2246 H2237 0.930 . S
C2246 C2244 1.378 . S
C2246 C2247 1.367 . S
C2247 C2246 1.367 . S
C2247 C2249 1.433 . S
C2248 C2244 1.350 . S
C2248 C2245 1.463 . S
C2248 N2252 1.427 . S
C2249 H2239 0.929 . S
C2249 C2247 1.433 . S
C2249 N2252 1.384 . S
C2250 H2241 0.929 . S
C2250 C2242 1.378 . S
C2250 C2245 1.350 . S
C2251 H2238 0.929 . S
C2251 C2243 1.433 . S
C2251 N2253 1.384 . S
N2252 C2248 1.427 . S
N2252 C2249 1.384 . S
N2253 C2245 1.427 . S
N2253 C2251 1.384 . S
H2254 C2260 0.930 . S
H2255 C2264 0.930 . S
H2256 C2269 0.929 . S
H2257 C2267 0.929 . S
H2258 C2262 0.929 . S
H2259 C2268 0.929 . S
C2260 H2254 0.930 . S
C2260 C2261 1.367 . S
C2260 C2268 1.378 . S
C2261 C2260 1.367 . S
C2261 C2269 1.433 . S
C2262 H2258 0.929 . S
C2262 C2264 1.378 . S
C2262 C2266 1.350 . S
C2263 C2266 1.463 . S
C2263 C2268 1.350 . S
C2263 N2271 1.427 . S
C2264 H2255 0.930 . S
C2264 C2262 1.378 . S
C2264 C2265 1.367 . S
C2265 C2264 1.367 . S
C2265 C2267 1.433 . S
C2266 C2262 1.350 . S
C2266 C2263 1.463 . S
C2266 N2270 1.427 . S
C2267 H2257 0.929 . S
C2267 C2265 1.433 . S
C2267 N2270 1.384 . S
C2268 H2259 0.929 . S
C2268 C2260 1.378 . S
C2268 C2263 1.350 . S
C2269 H2256 0.929 . S
C2269 C2261 1.433 . S
C2269 N2271 1.384 . S
N2270 C2266 1.427 . S
N2270 C2267 1.384 . S
N2271 C2263 1.427 . S
N2271 C2269 1.384 . S
H2272 C2278 0.930 . S
H2273 C2282 0.930 . S
H2274 C2287 0.929 . S
H2275 C2285 0.929 . S
H2276 C2280 0.929 . S
H2277 C2286 0.929 . S
C2278 H2272 0.930 . S
C2278 C2279 1.367 . S
C2278 C2286 1.378 . S
C2279 C2278 1.367 . S
C2279 C2287 1.433 . S
C2280 H2276 0.929 . S
C2280 C2282 1.378 . S
C2280 C2284 1.350 . S
C2281 C2284 1.463 . S
C2281 C2286 1.350 . S
C2281 N2289 1.427 . S
C2282 H2273 0.930 . S
C2282 C2280 1.378 . S
C2282 C2283 1.367 . S
C2283 C2282 1.367 . S
C2283 C2285 1.433 . S
C2284 C2280 1.350 . S
C2284 C2281 1.463 . S
C2284 N2288 1.427 . S
C2285 H2275 0.929 . S
C2285 C2283 1.433 . S
C2285 N2288 1.384 . S
C2286 H2277 0.929 . S
C2286 C2278 1.378 . S
C2286 C2281 1.350 . S
C2287 H2274 0.929 . S
C2287 C2279 1.433 . S
C2287 N2289 1.384 . S
N2288 C2284 1.427 . S
N2288 C2285 1.384 . S
N2289 C2281 1.427 . S
N2289 C2287 1.384 . S
H2290 C2296 0.930 . S
H2291 C2300 0.930 . S
H2292 C2305 0.929 . S
H2293 C2303 0.929 . S
H2294 C2298 0.929 . S
H2295 C2304 0.929 . S
C2296 H2290 0.930 . S
C2296 C2297 1.367 . S
C2296 C2304 1.378 . S
C2297 C2296 1.367 . S
C2297 C2305 1.433 . S
C2298 H2294 0.929 . S
C2298 C2300 1.378 . S
C2298 C2302 1.350 . S
C2299 C2302 1.463 . S
C2299 C2304 1.350 . S
C2299 N2307 1.427 . S
C2300 H2291 0.930 . S
C2300 C2298 1.378 . S
C2300 C2301 1.367 . S
C2301 C2300 1.367 . S
C2301 C2303 1.433 . S
C2302 C2298 1.350 . S
C2302 C2299 1.463 . S
C2302 N2306 1.427 . S
C2303 H2293 0.929 . S
C2303 C2301 1.433 . S
C2303 N2306 1.384 . S
C2304 H2295 0.929 . S
C2304 C2296 1.378 . S
C2304 C2299 1.350 . S
C2305 H2292 0.929 . S
C2305 C2297 1.433 . S
C2305 N2307 1.384 . S
N2306 C2302 1.427 . S
N2306 C2303 1.384 . S
N2307 C2299 1.427 . S
N2307 C2305 1.384 . S
H2308 C2314 0.930 . S
H2309 C2318 0.930 . S
H2310 C2323 0.929 . S
H2311 C2321 0.929 . S
H2312 C2316 0.929 . S
H2313 C2322 0.929 . S
C2314 H2308 0.930 . S
C2314 C2315 1.367 . S
C2314 C2322 1.378 . S
C2315 C2314 1.367 . S
C2315 C2323 1.433 . S
C2316 H2312 0.929 . S
C2316 C2318 1.378 . S
C2316 C2320 1.350 . S
C2317 C2320 1.463 . S
C2317 C2322 1.350 . S
C2317 N2325 1.427 . S
C2318 H2309 0.930 . S
C2318 C2316 1.378 . S
C2318 C2319 1.367 . S
C2319 C2318 1.367 . S
C2319 C2321 1.433 . S
C2320 C2316 1.350 . S
C2320 C2317 1.463 . S
C2320 N2324 1.427 . S
C2321 H2311 0.929 . S
C2321 C2319 1.433 . S
C2321 N2324 1.384 . S
C2322 H2313 0.929 . S
C2322 C2314 1.378 . S
C2322 C2317 1.350 . S
C2323 H2310 0.929 . S
C2323 C2315 1.433 . S
C2323 N2325 1.384 . S
N2324 C2320 1.427 . S
N2324 C2321 1.384 . S
N2325 C2317 1.427 . S
N2325 C2323 1.384 . S
H2326 C2332 0.930 . S
H2327 C2336 0.930 . S
H2328 C2341 0.929 . S
H2329 C2339 0.929 . S
H2330 C2334 0.929 . S
H2331 C2340 0.929 . S
C2332 H2326 0.930 . S
C2332 C2333 1.367 . S
C2332 C2340 1.378 . S
C2333 C2332 1.367 . S
C2333 C2341 1.433 . S
C2334 H2330 0.929 . S
C2334 C2336 1.378 . S
C2334 C2338 1.350 . S
C2335 C2338 1.463 . S
C2335 C2340 1.350 . S
C2335 N2343 1.427 . S
C2336 H2327 0.930 . S
C2336 C2334 1.378 . S
C2336 C2337 1.367 . S
C2337 C2336 1.367 . S
C2337 C2339 1.433 . S
C2338 C2334 1.350 . S
C2338 C2335 1.463 . S
C2338 N2342 1.427 . S
C2339 H2329 0.929 . S
C2339 C2337 1.433 . S
C2339 N2342 1.384 . S
C2340 H2331 0.929 . S
C2340 C2332 1.378 . S
C2340 C2335 1.350 . S
C2341 H2328 0.929 . S
C2341 C2333 1.433 . S
C2341 N2343 1.384 . S
N2342 C2338 1.427 . S
N2342 C2339 1.384 . S
N2343 C2335 1.427 . S
N2343 C2341 1.384 . S
H2344 C2350 0.930 . S
H2345 C2354 0.930 . S
H2346 C2359 0.929 . S
H2347 C2357 0.929 . S
H2348 C2352 0.929 . S
H2349 C2358 0.929 . S
C2350 H2344 0.930 . S
C2350 C2351 1.367 . S
C2350 C2358 1.378 . S
C2351 C2350 1.367 . S
C2351 C2359 1.433 . S
C2352 H2348 0.929 . S
C2352 C2354 1.378 . S
C2352 C2356 1.350 . S
C2353 C2356 1.463 . S
C2353 C2358 1.350 . S
C2353 N2361 1.427 . S
C2354 H2345 0.930 . S
C2354 C2352 1.378 . S
C2354 C2355 1.367 . S
C2355 C2354 1.367 . S
C2355 C2357 1.433 . S
C2356 C2352 1.350 . S
C2356 C2353 1.463 . S
C2356 N2360 1.427 . S
C2357 H2347 0.929 . S
C2357 C2355 1.433 . S
C2357 N2360 1.384 . S
C2358 H2349 0.929 . S
C2358 C2350 1.378 . S
C2358 C2353 1.350 . S
C2359 H2346 0.929 . S
C2359 C2351 1.433 . S
C2359 N2361 1.384 . S
N2360 C2356 1.427 . S
N2360 C2357 1.384 . S
N2361 C2353 1.427 . S
N2361 C2359 1.384 . S
H2362 C2368 0.930 . S
H2363 C2372 0.930 . S
H2364 C2377 0.929 . S
H2365 C2375 0.929 . S
H2366 C2370 0.929 . S
H2367 C2376 0.929 . S
C2368 H2362 0.930 . S
C2368 C2369 1.367 . S
C2368 C2376 1.378 . S
C2369 C2368 1.367 . S
C2369 C2377 1.433 . S
C2370 H2366 0.929 . S
C2370 C2372 1.378 . S
C2370 C2374 1.350 . S
C2371 C2374 1.463 . S
C2371 C2376 1.350 . S
C2371 N2379 1.427 . S
C2372 H2363 0.930 . S
C2372 C2370 1.378 . S
C2372 C2373 1.367 . S
C2373 C2372 1.367 . S
C2373 C2375 1.433 . S
C2374 C2370 1.350 . S
C2374 C2371 1.463 . S
C2374 N2378 1.427 . S
C2375 H2365 0.929 . S
C2375 C2373 1.433 . S
C2375 N2378 1.384 . S
C2376 H2367 0.929 . S
C2376 C2368 1.378 . S
C2376 C2371 1.350 . S
C2377 H2364 0.929 . S
C2377 C2369 1.433 . S
C2377 N2379 1.384 . S
N2378 C2374 1.427 . S
N2378 C2375 1.384 . S
N2379 C2371 1.427 . S
N2379 C2377 1.384 . S
H2380 C2386 0.930 . S
H2381 C2390 0.930 . S
H2382 C2395 0.929 . S
H2383 C2393 0.929 . S
H2384 C2388 0.929 . S
H2385 C2394 0.929 . S
C2386 H2380 0.930 . S
C2386 C2387 1.367 . S
C2386 C2394 1.378 . S
C2387 C2386 1.367 . S
C2387 C2395 1.433 . S
C2388 H2384 0.929 . S
C2388 C2390 1.378 . S
C2388 C2392 1.350 . S
C2389 C2392 1.463 . S
C2389 C2394 1.350 . S
C2389 N2397 1.427 . S
C2390 H2381 0.930 . S
C2390 C2388 1.378 . S
C2390 C2391 1.367 . S
C2391 C2390 1.367 . S
C2391 C2393 1.433 . S
C2392 C2388 1.350 . S
C2392 C2389 1.463 . S
C2392 N2396 1.427 . S
C2393 H2383 0.929 . S
C2393 C2391 1.433 . S
C2393 N2396 1.384 . S
C2394 H2385 0.929 . S
C2394 C2386 1.378 . S
C2394 C2389 1.350 . S
C2395 H2382 0.929 . S
C2395 C2387 1.433 . S
C2395 N2397 1.384 . S
N2396 C2392 1.427 . S
N2396 C2393 1.384 . S
N2397 C2389 1.427 . S
N2397 C2395 1.384 . S
H2398 C2404 0.930 . S
H2399 C2408 0.930 . S
H2400 C2413 0.929 . S
H2401 C2411 0.929 . S
H2402 C2406 0.929 . S
H2403 C2412 0.929 . S
C2404 H2398 0.930 . S
C2404 C2405 1.367 . S
C2404 C2412 1.378 . S
C2405 C2404 1.367 . S
C2405 C2413 1.433 . S
C2406 H2402 0.929 . S
C2406 C2408 1.378 . S
C2406 C2410 1.350 . S
C2407 C2410 1.463 . S
C2407 C2412 1.350 . S
C2407 N2415 1.427 . S
C2408 H2399 0.930 . S
C2408 C2406 1.378 . S
C2408 C2409 1.367 . S
C2409 C2408 1.367 . S
C2409 C2411 1.433 . S
C2410 C2406 1.350 . S
C2410 C2407 1.463 . S
C2410 N2414 1.427 . S
C2411 H2401 0.929 . S
C2411 C2409 1.433 . S
C2411 N2414 1.384 . S
C2412 H2403 0.929 . S
C2412 C2404 1.378 . S
C2412 C2407 1.350 . S
C2413 H2400 0.929 . S
C2413 C2405 1.433 . S
C2413 N2415 1.384 . S
N2414 C2410 1.427 . S
N2414 C2411 1.384 . S
N2415 C2407 1.427 . S
N2415 C2413 1.384 . S
H2416 C2422 0.930 . S
H2417 C2426 0.930 . S
H2418 C2431 0.929 . S
H2419 C2429 0.929 . S
H2420 C2424 0.929 . S
H2421 C2430 0.929 . S
C2422 H2416 0.930 . S
C2422 C2423 1.367 . S
C2422 C2430 1.378 . S
C2423 C2422 1.367 . S
C2423 C2431 1.433 . S
C2424 H2420 0.929 . S
C2424 C2426 1.378 . S
C2424 C2428 1.350 . S
C2425 C2428 1.463 . S
C2425 C2430 1.350 . S
C2425 N2433 1.427 . S
C2426 H2417 0.930 . S
C2426 C2424 1.378 . S
C2426 C2427 1.367 . S
C2427 C2426 1.367 . S
C2427 C2429 1.433 . S
C2428 C2424 1.350 . S
C2428 C2425 1.463 . S
C2428 N2432 1.427 . S
C2429 H2419 0.929 . S
C2429 C2427 1.433 . S
C2429 N2432 1.384 . S
C2430 H2421 0.929 . S
C2430 C2422 1.378 . S
C2430 C2425 1.350 . S
C2431 H2418 0.929 . S
C2431 C2423 1.433 . S
C2431 N2433 1.384 . S
N2432 C2428 1.427 . S
N2432 C2429 1.384 . S
N2433 C2425 1.427 . S
N2433 C2431 1.384 . S
H2434 C2440 0.930 . S
H2435 C2444 0.930 . S
H2436 C2449 0.929 . S
H2437 C2447 0.929 . S
H2438 C2442 0.929 . S
H2439 C2448 0.929 . S
C2440 H2434 0.930 . S
C2440 C2441 1.367 . S
C2440 C2448 1.378 . S
C2441 C2440 1.367 . S
C2441 C2449 1.433 . S
C2442 H2438 0.929 . S
C2442 C2444 1.378 . S
C2442 C2446 1.350 . S
C2443 C2446 1.463 . S
C2443 C2448 1.350 . S
C2443 N2451 1.427 . S
C2444 H2435 0.930 . S
C2444 C2442 1.378 . S
C2444 C2445 1.367 . S
C2445 C2444 1.367 . S
C2445 C2447 1.433 . S
C2446 C2442 1.350 . S
C2446 C2443 1.463 . S
C2446 N2450 1.427 . S
C2447 H2437 0.929 . S
C2447 C2445 1.433 . S
C2447 N2450 1.384 . S
C2448 H2439 0.929 . S
C2448 C2440 1.378 . S
C2448 C2443 1.350 . S
C2449 H2436 0.929 . S
C2449 C2441 1.433 . S
C2449 N2451 1.384 . S
N2450 C2446 1.427 . S
N2450 C2447 1.384 . S
N2451 C2443 1.427 . S
N2451 C2449 1.384 . S
H2452 C2458 0.930 . S
H2453 C2462 0.930 . S
H2454 C2467 0.929 . S
H2455 C2465 0.929 . S
H2456 C2460 0.929 . S
H2457 C2466 0.929 . S
C2458 H2452 0.930 . S
C2458 C2459 1.367 . S
C2458 C2466 1.378 . S
C2459 C2458 1.367 . S
C2459 C2467 1.433 . S
C2460 H2456 0.929 . S
C2460 C2462 1.378 1_655 S
C2460 C2464 1.350 . S
C2461 C2464 1.463 . S
C2461 C2466 1.350 . S
C2461 N2469 1.427 . S
C2462 H2453 0.930 . S
C2462 C2460 1.378 1_455 S
C2462 C2463 1.367 . S
C2463 C2462 1.367 . S
C2463 C2465 1.433 . S
C2464 C2460 1.350 . S
C2464 C2461 1.463 . S
C2464 N2468 1.427 1_655 S
C2465 H2455 0.929 . S
C2465 C2463 1.433 . S
C2465 N2468 1.384 . S
C2466 H2457 0.929 . S
C2466 C2458 1.378 . S
C2466 C2461 1.350 . S
C2467 H2454 0.929 . S
C2467 C2459 1.433 . S
C2467 N2469 1.384 . S
N2468 C2464 1.427 1_455 S
N2468 C2465 1.384 . S
N2469 C2461 1.427 . S
N2469 C2467 1.384 . S
H2470 C2476 0.930 . S
H2471 C2480 0.930 . S
H2472 C2485 0.929 . S
H2473 C2483 0.929 . S
H2474 C2478 0.929 . S
H2475 C2484 0.929 . S
C2476 H2470 0.930 . S
C2476 C2477 1.367 . S
C2476 C2484 1.378 . S
C2477 C2476 1.367 . S
C2477 C2485 1.433 . S
C2478 H2474 0.929 . S
C2478 C2480 1.378 . S
C2478 C2482 1.350 . S
C2479 C2482 1.463 . S
C2479 C2484 1.350 . S
C2479 N2487 1.427 . S
C2480 H2471 0.930 . S
C2480 C2478 1.378 . S
C2480 C2481 1.367 . S
C2481 C2480 1.367 . S
C2481 C2483 1.433 . S
C2482 C2478 1.350 . S
C2482 C2479 1.463 . S
C2482 N2486 1.427 . S
C2483 H2473 0.929 . S
C2483 C2481 1.433 . S
C2483 N2486 1.384 . S
C2484 H2475 0.929 . S
C2484 C2476 1.378 . S
C2484 C2479 1.350 . S
C2485 H2472 0.929 . S
C2485 C2477 1.433 . S
C2485 N2487 1.384 . S
N2486 C2482 1.427 . S
N2486 C2483 1.384 . S
N2487 C2479 1.427 . S
N2487 C2485 1.384 . S
H2488 C2494 0.930 . S
H2489 C2498 0.930 . S
H2490 C2503 0.929 . S
H2491 C2501 0.929 . S
H2492 C2496 0.929 . S
H2493 C2502 0.929 . S
C2494 H2488 0.930 . S
C2494 C2495 1.367 . S
C2494 C2502 1.378 . S
C2495 C2494 1.367 . S
C2495 C2503 1.433 . S
C2496 H2492 0.929 . S
C2496 C2498 1.378 . S
C2496 C2500 1.350 . S
C2497 C2500 1.463 . S
C2497 C2502 1.350 . S
C2497 N2505 1.427 . S
C2498 H2489 0.930 . S
C2498 C2496 1.378 . S
C2498 C2499 1.367 . S
C2499 C2498 1.367 . S
C2499 C2501 1.433 . S
C2500 C2496 1.350 . S
C2500 C2497 1.463 . S
C2500 N2504 1.427 . S
C2501 H2491 0.929 . S
C2501 C2499 1.433 . S
C2501 N2504 1.384 . S
C2502 H2493 0.929 . S
C2502 C2494 1.378 . S
C2502 C2497 1.350 . S
C2503 H2490 0.929 . S
C2503 C2495 1.433 . S
C2503 N2505 1.384 . S
N2504 C2500 1.427 . S
N2504 C2501 1.384 . S
N2505 C2497 1.427 . S
N2505 C2503 1.384 . S
H2506 C2512 0.930 . S
H2507 C2516 0.930 . S
H2508 C2521 0.929 . S
H2509 C2519 0.929 . S
H2510 C2514 0.929 . S
H2511 C2520 0.929 . S
C2512 H2506 0.930 . S
C2512 C2513 1.367 . S
C2512 C2520 1.378 . S
C2513 C2512 1.367 . S
C2513 C2521 1.433 . S
C2514 H2510 0.929 . S
C2514 C2516 1.378 . S
C2514 C2518 1.350 . S
C2515 C2518 1.463 . S
C2515 C2520 1.350 . S
C2515 N2523 1.427 . S
C2516 H2507 0.930 . S
C2516 C2514 1.378 . S
C2516 C2517 1.367 . S
C2517 C2516 1.367 . S
C2517 C2519 1.433 . S
C2518 C2514 1.350 . S
C2518 C2515 1.463 . S
C2518 N2522 1.427 . S
C2519 H2509 0.929 . S
C2519 C2517 1.433 . S
C2519 N2522 1.384 . S
C2520 H2511 0.929 . S
C2520 C2512 1.378 . S
C2520 C2515 1.350 . S
C2521 H2508 0.929 . S
C2521 C2513 1.433 . S
C2521 N2523 1.384 . S
N2522 C2518 1.427 . S
N2522 C2519 1.384 . S
N2523 C2515 1.427 . S
N2523 C2521 1.384 . S
H2524 C2530 0.930 . S
H2525 C2534 0.930 . S
H2526 C2539 0.929 . S
H2527 C2537 0.929 . S
H2528 C2532 0.929 . S
H2529 C2538 0.929 . S
C2530 H2524 0.930 . S
C2530 C2531 1.367 . S
C2530 C2538 1.378 . S
C2531 C2530 1.367 . S
C2531 C2539 1.433 . S
C2532 H2528 0.929 . S
C2532 C2534 1.378 1_655 S
C2532 C2536 1.350 . S
C2533 C2536 1.463 . S
C2533 C2538 1.350 . S
C2533 N2541 1.427 . S
C2534 H2525 0.930 . S
C2534 C2532 1.378 1_455 S
C2534 C2535 1.367 . S
C2535 C2534 1.367 . S
C2535 C2537 1.433 1_455 S
C2536 C2532 1.350 . S
C2536 C2533 1.463 . S
C2536 N2540 1.427 . S
C2537 H2527 0.929 . S
C2537 C2535 1.433 1_655 S
C2537 N2540 1.384 . S
C2538 H2529 0.929 . S
C2538 C2530 1.378 . S
C2538 C2533 1.350 . S
C2539 H2526 0.929 . S
C2539 C2531 1.433 . S
C2539 N2541 1.384 . S
N2540 C2536 1.427 . S
N2540 C2537 1.384 . S
N2541 C2533 1.427 . S
N2541 C2539 1.384 . S
H2542 C2548 0.930 . S
H2543 C2552 0.930 . S
H2544 C2557 0.929 . S
H2545 C2555 0.929 . S
H2546 C2550 0.929 . S
H2547 C2556 0.929 . S
C2548 H2542 0.930 . S
C2548 C2549 1.367 . S
C2548 C2556 1.378 . S
C2549 C2548 1.367 . S
C2549 C2557 1.433 . S
C2550 H2546 0.929 . S
C2550 C2552 1.378 . S
C2550 C2554 1.350 . S
C2551 C2554 1.463 . S
C2551 C2556 1.350 . S
C2551 N2559 1.427 . S
C2552 H2543 0.930 . S
C2552 C2550 1.378 . S
C2552 C2553 1.367 . S
C2553 C2552 1.367 . S
C2553 C2555 1.433 . S
C2554 C2550 1.350 . S
C2554 C2551 1.463 . S
C2554 N2558 1.427 . S
C2555 H2545 0.929 . S
C2555 C2553 1.433 . S
C2555 N2558 1.384 . S
C2556 H2547 0.929 . S
C2556 C2548 1.378 . S
C2556 C2551 1.350 . S
C2557 H2544 0.929 . S
C2557 C2549 1.433 . S
C2557 N2559 1.384 . S
N2558 C2554 1.427 . S
N2558 C2555 1.384 . S
N2559 C2551 1.427 . S
N2559 C2557 1.384 . S
H2560 C2566 0.930 . S
H2561 C2570 0.930 . S
H2562 C2575 0.929 . S
H2563 C2573 0.929 . S
H2564 C2568 0.929 . S
H2565 C2574 0.929 . S
C2566 H2560 0.930 . S
C2566 C2567 1.367 . S
C2566 C2574 1.378 . S
C2567 C2566 1.367 . S
C2567 C2575 1.433 . S
C2568 H2564 0.929 . S
C2568 C2570 1.378 . S
C2568 C2572 1.350 . S
C2569 C2572 1.463 . S
C2569 C2574 1.350 . S
C2569 N2577 1.427 . S
C2570 H2561 0.930 . S
C2570 C2568 1.378 . S
C2570 C2571 1.367 . S
C2571 C2570 1.367 . S
C2571 C2573 1.433 . S
C2572 C2568 1.350 . S
C2572 C2569 1.463 . S
C2572 N2576 1.427 . S
C2573 H2563 0.929 . S
C2573 C2571 1.433 . S
C2573 N2576 1.384 . S
C2574 H2565 0.929 . S
C2574 C2566 1.378 . S
C2574 C2569 1.350 . S
C2575 H2562 0.929 . S
C2575 C2567 1.433 . S
C2575 N2577 1.384 . S
N2576 C2572 1.427 . S
N2576 C2573 1.384 . S
N2577 C2569 1.427 . S
N2577 C2575 1.384 . S
H2578 C2584 0.930 . S
H2579 C2588 0.930 . S
H2580 C2593 0.929 . S
H2581 C2591 0.929 . S
H2582 C2586 0.929 . S
H2583 C2592 0.929 . S
C2584 H2578 0.930 . S
C2584 C2585 1.367 . S
C2584 C2592 1.378 . S
C2585 C2584 1.367 . S
C2585 C2593 1.433 . S
C2586 H2582 0.929 . S
C2586 C2588 1.378 . S
C2586 C2590 1.350 . S
C2587 C2590 1.463 . S
C2587 C2592 1.350 . S
C2587 N2595 1.427 . S
C2588 H2579 0.930 . S
C2588 C2586 1.378 . S
C2588 C2589 1.367 . S
C2589 C2588 1.367 . S
C2589 C2591 1.433 1_565 S
C2590 C2586 1.350 . S
C2590 C2587 1.463 . S
C2590 N2594 1.427 . S
C2591 H2581 0.929 . S
C2591 C2589 1.433 1_545 S
C2591 N2594 1.384 1_545 S
C2592 H2583 0.929 . S
C2592 C2584 1.378 . S
C2592 C2587 1.350 . S
C2593 H2580 0.929 . S
C2593 C2585 1.433 . S
C2593 N2595 1.384 . S
N2594 C2590 1.427 . S
N2594 C2591 1.384 1_565 S
N2595 C2587 1.427 . S
N2595 C2593 1.384 . S
H2596 C2602 0.930 . S
H2597 C2606 0.930 . S
H2598 C2611 0.929 . S
H2599 C2609 0.929 . S
H2600 C2604 0.929 . S
H2601 C2610 0.929 . S
C2602 H2596 0.930 . S
C2602 C2603 1.367 . S
C2602 C2610 1.378 . S
C2603 C2602 1.367 . S
C2603 C2611 1.433 . S
C2604 H2600 0.929 . S
C2604 C2606 1.378 . S
C2604 C2608 1.350 . S
C2605 C2608 1.463 . S
C2605 C2610 1.350 . S
C2605 N2613 1.427 . S
C2606 H2597 0.930 . S
C2606 C2604 1.378 . S
C2606 C2607 1.367 . S
C2607 C2606 1.367 . S
C2607 C2609 1.433 . S
C2608 C2604 1.350 . S
C2608 C2605 1.463 . S
C2608 N2612 1.427 . S
C2609 H2599 0.929 . S
C2609 C2607 1.433 . S
C2609 N2612 1.384 . S
C2610 H2601 0.929 . S
C2610 C2602 1.378 . S
C2610 C2605 1.350 . S
C2611 H2598 0.929 . S
C2611 C2603 1.433 . S
C2611 N2613 1.384 . S
N2612 C2608 1.427 . S
N2612 C2609 1.384 . S
N2613 C2605 1.427 . S
N2613 C2611 1.384 . S
H2614 C2620 0.930 . S
H2615 C2624 0.930 . S
H2616 C2629 0.929 . S
H2617 C2627 0.929 . S
H2618 C2622 0.929 . S
H2619 C2628 0.929 . S
C2620 H2614 0.930 . S
C2620 C2621 1.367 . S
C2620 C2628 1.378 . S
C2621 C2620 1.367 . S
C2621 C2629 1.433 . S
C2622 H2618 0.929 . S
C2622 C2624 1.378 . S
C2622 C2626 1.350 . S
C2623 C2626 1.463 . S
C2623 C2628 1.350 . S
C2623 N2631 1.427 . S
C2624 H2615 0.930 . S
C2624 C2622 1.378 . S
C2624 C2625 1.367 . S
C2625 C2624 1.367 . S
C2625 C2627 1.433 . S
C2626 C2622 1.350 . S
C2626 C2623 1.463 . S
C2626 N2630 1.427 . S
C2627 H2617 0.929 . S
C2627 C2625 1.433 . S
C2627 N2630 1.384 . S
C2628 H2619 0.929 . S
C2628 C2620 1.378 . S
C2628 C2623 1.350 . S
C2629 H2616 0.929 . S
C2629 C2621 1.433 . S
C2629 N2631 1.384 . S
N2630 C2626 1.427 . S
N2630 C2627 1.384 . S
N2631 C2623 1.427 . S
N2631 C2629 1.384 . S
H2632 C2638 0.930 . S
H2633 C2642 0.930 . S
H2634 C2647 0.929 . S
H2635 C2645 0.929 . S
H2636 C2640 0.929 . S
H2637 C2646 0.929 . S
C2638 H2632 0.930 . S
C2638 C2639 1.367 . S
C2638 C2646 1.378 . S
C2639 C2638 1.367 . S
C2639 C2647 1.433 . S
C2640 H2636 0.929 . S
C2640 C2642 1.378 . S
C2640 C2644 1.350 . S
C2641 C2644 1.463 . S
C2641 C2646 1.350 . S
C2641 N2649 1.427 . S
C2642 H2633 0.930 . S
C2642 C2640 1.378 . S
C2642 C2643 1.367 . S
C2643 C2642 1.367 . S
C2643 C2645 1.433 . S
C2644 C2640 1.350 . S
C2644 C2641 1.463 . S
C2644 N2648 1.427 . S
C2645 H2635 0.929 . S
C2645 C2643 1.433 . S
C2645 N2648 1.384 . S
C2646 H2637 0.929 . S
C2646 C2638 1.378 . S
C2646 C2641 1.350 . S
C2647 H2634 0.929 . S
C2647 C2639 1.433 . S
C2647 N2649 1.384 . S
N2648 C2644 1.427 . S
N2648 C2645 1.384 . S
N2649 C2641 1.427 . S
N2649 C2647 1.384 . S
H2650 C2656 0.930 . S
H2651 C2660 0.930 . S
H2652 C2665 0.929 1_556 S
H2653 C2663 0.929 . S
H2654 C2658 0.929 . S
H2655 C2664 0.929 . S
C2656 H2650 0.930 . S
C2656 C2657 1.367 . S
C2656 C2664 1.378 . S
C2657 C2656 1.367 . S
C2657 C2665 1.433 . S
C2658 H2654 0.929 . S
C2658 C2660 1.378 . S
C2658 C2662 1.350 1_556 S
C2659 C2662 1.463 . S
C2659 C2664 1.350 . S
C2659 N2667 1.427 . S
C2660 H2651 0.930 . S
C2660 C2658 1.378 . S
C2660 C2661 1.367 1_556 S
C2661 C2660 1.367 1_554 S
C2661 C2663 1.433 . S
C2662 C2658 1.350 1_554 S
C2662 C2659 1.463 . S
C2662 N2666 1.427 . S
C2663 H2653 0.929 . S
C2663 C2661 1.433 . S
C2663 N2666 1.384 . S
C2664 H2655 0.929 . S
C2664 C2656 1.378 . S
C2664 C2659 1.350 . S
C2665 H2652 0.929 1_554 S
C2665 C2657 1.433 . S
C2665 N2667 1.384 . S
N2666 C2662 1.427 . S
N2666 C2663 1.384 . S
N2667 C2659 1.427 . S
N2667 C2665 1.384 . S
H2668 C2674 0.930 . S
H2669 C2678 0.930 . S
H2670 C2683 0.929 . S
H2671 C2681 0.929 . S
H2672 C2676 0.929 . S
H2673 C2682 0.929 . S
C2674 H2668 0.930 . S
C2674 C2675 1.367 . S
C2674 C2682 1.378 . S
C2675 C2674 1.367 . S
C2675 C2683 1.433 . S
C2676 H2672 0.929 . S
C2676 C2678 1.378 . S
C2676 C2680 1.350 . S
C2677 C2680 1.463 . S
C2677 C2682 1.350 . S
C2677 N2685 1.427 . S
C2678 H2669 0.930 . S
C2678 C2676 1.378 . S
C2678 C2679 1.367 . S
C2679 C2678 1.367 . S
C2679 C2681 1.433 . S
C2680 C2676 1.350 . S
C2680 C2677 1.463 . S
C2680 N2684 1.427 . S
C2681 H2671 0.929 . S
C2681 C2679 1.433 . S
C2681 N2684 1.384 . S
C2682 H2673 0.929 . S
C2682 C2674 1.378 . S
C2682 C2677 1.350 . S
C2683 H2670 0.929 . S
C2683 C2675 1.433 . S
C2683 N2685 1.384 . S
N2684 C2680 1.427 . S
N2684 C2681 1.384 . S
N2685 C2677 1.427 . S
N2685 C2683 1.384 . S
H2686 C2692 0.930 . S
H2687 C2696 0.930 . S
H2688 C2701 0.929 . S
H2689 C2699 0.929 . S
H2690 C2694 0.929 . S
H2691 C2700 0.929 . S
C2692 H2686 0.930 . S
C2692 C2693 1.367 . S
C2692 C2700 1.378 . S
C2693 C2692 1.367 . S
C2693 C2701 1.433 . S
C2694 H2690 0.929 . S
C2694 C2696 1.378 . S
C2694 C2698 1.350 . S
C2695 C2698 1.463 . S
C2695 C2700 1.350 . S
C2695 N2703 1.427 . S
C2696 H2687 0.930 . S
C2696 C2694 1.378 . S
C2696 C2697 1.367 . S
C2697 C2696 1.367 . S
C2697 C2699 1.433 . S
C2698 C2694 1.350 . S
C2698 C2695 1.463 . S
C2698 N2702 1.427 . S
C2699 H2689 0.929 . S
C2699 C2697 1.433 . S
C2699 N2702 1.384 . S
C2700 H2691 0.929 . S
C2700 C2692 1.378 . S
C2700 C2695 1.350 . S
C2701 H2688 0.929 . S
C2701 C2693 1.433 . S
C2701 N2703 1.384 . S
N2702 C2698 1.427 . S
N2702 C2699 1.384 . S
N2703 C2695 1.427 . S
N2703 C2701 1.384 . S
C983 C105 2.222 1_455 S
C987 C367 2.188 . S
C1001 C65 1.851 . S
C1005 C378 1.850 . S
C1019 C73 1.714 . S
C1023 C447 1.676 . S
C1041 C460 1.206 . S
C1037 C92 1.220 . S
C1055 C17 2.593 . S
C1059 C516 2.557 . S
C1077 C567 2.124 . S
C1073 C37 2.148 . S
C1095 C596 2.419 . S
C1091 C49 2.351 . S
C1109 C8 2.485 . S
C1113 C647 2.419 . S
C1131 C338 1.296 . S
C1127 C231 1.267 . S
C1145 C241 0.976 . S
C1149 C380 0.949 . S
C1167 C418 1.058 . S
C1163 C273 1.047 . S
C1185 C487 1.680 . S
C1181 C171 1.676 . S
C1199 C227 0.619 . S
C1203 C521 0.623 . S
C1221 C538 1.448 . S
C1217 C245 1.394 . S
C1239 C601 0.451 . S
C1235 C269 0.405 . S
C1257 C618 2.083 . S
C1253 C175 2.105 . S
C1275 C340 1.680 . S
C1271 C162 1.784 1_554 S
C1289 C289 1.653 . S
C1293 C679 1.599 . S
C1311 C700 1.516 . S
C1307 C330 1.598 . S
C1329 C759 0.441 . S
C1325 C317 0.401 . S
C1343 C120 1.093 . S
C1347 C620 1.069 . S
C1361 C134 1.449 . S
C1365 C420 1.421 . S
C1379 C331 0.925 . S
C1383 C778 0.943 . S
C1401 C847 0.929 . S
C1397 C303 0.949 . S
C1419 C356 2.202 . S
C1415 C59 2.214 . S
C1437 C839 1.896 . S
C1433 C107 1.883 . S
C1451 C91 1.737 . S
C1455 C436 1.734 . S
C1469 C78 1.239 . S
C1473 C801 1.227 . S
C1491 C527 2.611 . S
C1487 C7 2.594 . S
C1505 C51 2.171 . S
C1509 C716 2.153 . S
C1527 C607 2.469 1_556 S
C1523 C31 2.486 . S
C1545 C876 2.440 . S
C1541 C22 2.493 1_655 S
C1563 C359 1.309 . S
C1559 C143 1.310 . S
C1581 C841 0.984 . S
C1577 C315 0.985 . S
C1595 C115 1.109 . S
C1599 C439 1.103 . S
C1613 C287 1.715 . S
C1617 C796 1.745 . S
C1631 C147 0.679 . S
C1635 C500 0.664 . S
C1653 C719 1.477 . S
C1649 C311 1.482 . S
C1667 C119 0.479 . S
C1671 C580 0.460 . S
C1685 C283 2.152 . S
C1689 C879 2.123 . S
C1703 C190 1.730 . S
C1707 C361 1.657 . S
C1721 C177 1.670 . S
C1725 C658 1.622 . S
C1739 C260 1.546 . S
C1743 C561 1.505 . S
C1757 C247 0.464 . S
C1761 C738 0.498 . S
C1779 C881 1.037 . S
C1775 C274 1.042 1_565 S
C1793 C218 1.435 . S
C1797 C441 1.419 . S
C1815 C479 0.986 . S
C1811 C261 0.963 . S
C1833 C396 0.950 . S
C1829 C205 0.973 . S
C1847 C77 2.229 . S
C1851 C927 2.188 . S
C1869 C818 1.850 . S
C1865 C93 1.851 . S
C1883 C101 1.714 . S
C1887 C967 1.683 . S
C1901 C64 1.220 . S
C1905 C780 1.207 . S
C1919 C45 2.594 . S
C1923 C676 2.554 . S
C1941 C727 2.120 . S
C1937 C9 2.145 . S
C1959 C756 2.418 . S
C1955 C21 2.359 . S
C1977 C887 2.417 . S
C1973 C36 2.485 . S
C1995 C898 1.298 . S
C1991 C259 1.265 . S
C2009 C185 0.978 . S
C2013 C820 0.955 . S
C2031 C938 1.063 . S
C2027 C203 1.043 . S
C2049 C807 1.683 . S
C2045 C213 1.670 . S
C2067 C681 0.640 . S
C2063 C255 0.625 . S
C2081 C189 1.395 . S
C2085 C698 1.452 . S
C2103 C761 0.441 . S
C2099 C199 0.405 . S
C2117 C217 2.099 . S
C2121 C858 2.091 . S
C2139 C900 1.694 . S
C2135 C316 1.802 . S
C2153 C135 1.655 . S
C2157 C519 1.608 . S
C2175 C540 1.524 . S
C2171 C148 1.588 1_565 S
C2193 C599 0.457 . S
C2189 C163 0.428 . S
C2211 C860 1.073 . S
C2207 C302 1.092 . S
C2225 C288 1.444 . S
C2229 C940 1.408 . S
C2247 C458 0.943 . S
C2243 C149 0.925 . S
C2265 C407 0.919 . S
C2261 C121 0.952 . S
C2279 C87 2.214 . S
C2283 C916 2.200 . S
C2301 C399 1.892 . S
C2297 C79 1.886 . S
C2315 C63 1.737 . S
C2319 C956 1.733 . S
C2333 C106 1.238 . S
C2337 C481 1.220 . S
C2351 C35 2.597 . S
C2355 C687 2.612 1_556 S
C2373 C556 2.155 . S
C2369 C23 2.174 . S
C2387 C3 2.487 . S
C2391 C767 2.466 . S
C2405 C50 2.491 . S
C2409 C636 2.444 . S
C2427 C919 1.300 . S
C2423 C325 1.306 . S
C2441 C161 0.978 . S
C2445 C401 0.971 . S
C2463 C959 1.103 . S
C2459 C297 1.109 . S
C2477 C133 1.706 . S
C2481 C476 1.742 . S
C2495 C329 0.681 . S
C2499 C660 0.666 . S
C2517 C559 1.480 . S
C2513 C157 1.492 . S
C2531 C301 0.482 . S
C2535 C740 0.463 . S
C2553 C639 2.127 . S
C2549 C129 2.154 . S
C2571 C921 1.672 . S
C2567 C246 1.740 . S
C2589 C498 1.619 1_565 S
C2585 C219 1.671 . S
C2603 C232 1.528 . S
C2607 C721 1.484 . S
C2625 C578 0.502 . S
C2621 C191 0.474 . S
C2639 C204 1.037 . S
C2643 C641 1.030 . S
C2657 C176 1.434 . S
C2661 C961 1.419 . S
C2679 C799 0.992 . S
C2675 C233 0.966 . S
C2697 C836 0.960 . S
C2693 C275 0.972 . S
