# Generated by pormake.
# Topology tsx, (6,3)-cn, num edge types: 1
# Building blocks:
#     Node 0, Type 0, BuildingBlock: LEVNOQ01_clean_sbu_1, # of connection points: 6
#     Node 1, Type 0, BuildingBlock: LEVNOQ01_clean_sbu_1, # of connection points: 6
#     Node 2, Type 1, BuildingBlock: WUSLED_clean_sbu_0, # of connection points: 3
#     Node 3, Type 1, BuildingBlock: WUSLED_clean_sbu_0, # of connection points: 3
#     Node 4, Type 1, BuildingBlock: WUSLED_clean_sbu_0, # of connection points: 3
#     Node 5, Type 1, BuildingBlock: WUSLED_clean_sbu_0, # of connection points: 3
#     Edge 6, Type (0, 1), BuildingBlock: CIFDUS_clean_linker_0, # of connection points: 2
#     Edge 7, Type (0, 1), BuildingBlock: CIFDUS_clean_linker_0, # of connection points: 2
#     Edge 8, Type (0, 1), BuildingBlock: CIFDUS_clean_linker_0, # of connection points: 2
#     Edge 9, Type (0, 1), BuildingBlock: CIFDUS_clean_linker_0, # of connection points: 2
#     Edge 10, Type (0, 1), BuildingBlock: CIFDUS_clean_linker_0, # of connection points: 2
#     Edge 11, Type (0, 1), BuildingBlock: CIFDUS_clean_linker_0, # of connection points: 2
#     Edge 12, Type (0, 1), BuildingBlock: CIFDUS_clean_linker_0, # of connection points: 2
#     Edge 13, Type (0, 1), BuildingBlock: CIFDUS_clean_linker_0, # of connection points: 2
#     Edge 14, Type (0, 1), BuildingBlock: CIFDUS_clean_linker_0, # of connection points: 2
#     Edge 15, Type (0, 1), BuildingBlock: CIFDUS_clean_linker_0, # of connection points: 2
#     Edge 16, Type (0, 1), BuildingBlock: CIFDUS_clean_linker_0, # of connection points: 2
#     Edge 17, Type (0, 1), BuildingBlock: CIFDUS_clean_linker_0, # of connection points: 2
# Relax obj value: 0.123
# Max RMSD: 0.154
# Mean RMSD: 0.115
data_MOF--net-tsx--node1-LEVNOQ01_clean_sbu_1--node2-WUSLED_clean_sbu_0--edge1-CIFDUS_clean_linker_0
_symmetry_space_group_name_H-M    P1
_symmetry_Int_Tables_number       1
_symmetry_cell_setting            triclinic
loop_
_symmetry_equiv_pos_as_xyz
'x, y, z'
_cell_length_a     21.030116
_cell_length_b     26.157576
_cell_length_c     43.00588
_cell_angle_alpha  97.489765
_cell_angle_beta   91.682251
_cell_angle_gamma 90.323214
loop_
_atom_site_label
_atom_site_type_symbol
_atom_site_fract_x
_atom_site_fract_y
_atom_site_fract_z
_atom_type_partial_charge
O0 O 0.15103 0.04945 0.08667 0.0
Mg1 Mg 0.18978 0.05777 0.04327 0.0
O2 O 0.0588 0.02754 0.06303 0.0
Mg3 Mg 0.07469 0.02685 0.00878 0.0
O4 O 0.14145 0.10133 0.0139 0.0
O5 O 0.23037 0.127 0.04241 0.0
O6 O 0.09521 0.03175 0.95444 0.0
O7 O 0.99292 0.08705 0.00798 0.0
Mg8 Mg 0.99869 0.98149 0.96664 0.0
O9 O 1.00289 0.95394 0.0086 0.0
O10 O 0.06492 0.95552 0.93292 0.0
O11 O 0.94518 0.04973 0.96459 0.0
O12 O 0.93737 0.9232 0.96815 0.0
C13 C 0.21506 0.95936 0.0102 0.0
C14 C 0.09344 0.03614 0.0881 0.0
C15 C 0.18627 0.13552 0.02232 0.0
C16 C 0.09529 0.99639 0.93102 0.0
C17 C 0.94995 0.08721 0.98643 0.0
C18 C 0.95878 0.92141 0.99635 0.0
O19 O 0.24591 0.99865 0.02252 0.0
O20 O 0.15467 0.96177 0.00629 0.0
O21 O 0.66252 0.57492 0.58519 0.0
Mg22 Mg 0.68811 0.57469 0.53847 0.0
O23 O 0.56204 0.57088 0.56925 0.0
Mg24 Mg 0.56381 0.56449 0.51434 0.0
O25 O 0.64661 0.62779 0.51297 0.0
O26 O 0.74711 0.63269 0.53314 0.0
O27 O 0.56366 0.55763 0.45974 0.0
O28 O 0.50305 0.64271 0.51793 0.0
Mg29 Mg 0.44163 0.55877 0.49695 0.0
O30 O 0.48306 0.49968 0.51642 0.0
O31 O 0.46206 0.57007 0.45053 0.0
O32 O 0.40653 0.61976 0.52748 0.0
O33 O 0.38352 0.49753 0.4957 0.0
C34 C 0.68242 0.47325 0.5086 0.0
C35 C 0.60423 0.57315 0.59133 0.0
C36 C 0.70168 0.65155 0.51753 0.0
C37 C 0.51793 0.56419 0.44063 0.0
C38 C 0.44657 0.65518 0.526 0.0
C39 C 0.42824 0.47616 0.51043 0.0
O40 O 0.72492 0.5069 0.51641 0.0
O41 O 0.62407 0.48663 0.5087 0.0
C42 C 0.91678 0.1048 0.4787 0.0
C43 C 0.87938 0.12341 0.45508 0.0
C44 C 0.84937 0.19748 0.4918 0.0
C45 C 0.84554 0.16932 0.46164 0.0
C46 C 0.88408 0.17706 0.51573 0.0
C47 C 0.91754 0.13113 0.50921 0.0
U48 U 1.0091 0.01896 0.4185 0.0
O49 O 0.11046 0.99882 0.41901 0.0
O50 O 0.0377 0.93769 0.41556 0.0
C51 C 0.09859 0.94954 0.41952 0.0
C52 C 0.96142 0.06235 0.47104 0.0
C53 C 0.13545 0.92408 0.4431 0.0
C54 C 0.14988 0.85221 0.47329 0.0
C55 C 0.11208 0.87928 0.45383 0.0
C56 C 0.23472 0.91485 0.4726 0.0
C57 C 0.21215 0.86912 0.48254 0.0
C58 C 0.19696 0.94184 0.45301 0.0
C59 C 0.98452 0.03857 0.33206 0.0
C60 C 0.0518 0.99959 0.29073 0.0
C61 C 0.96749 0.05723 0.27857 0.0
C62 C 0.95045 0.06352 0.31003 0.0
C63 C 1.01916 0.02596 0.26865 0.0
C64 C 0.03465 0.00588 0.32218 0.0
C65 C 0.96939 0.04932 0.36541 0.0
O66 O 0.93767 0.01987 0.45507 0.0
O67 O 1.01566 0.07671 0.46036 0.0
O68 O 1.01449 0.07314 0.38368 0.0
O69 O 0.94241 0.01143 0.37764 0.0
H70 H 0.87885 0.1038 0.43127 0.0
H71 H 0.81969 0.1844 0.44272 0.0
H72 H 0.88749 0.19781 0.53924 0.0
H73 H 0.94647 0.1175 0.52765 0.0
H74 H 0.13101 0.81677 0.47999 0.0
H75 H 0.06522 0.86412 0.44648 0.0
H76 H 0.28203 0.92942 0.47952 0.0
H77 H 0.21669 0.976 0.44501 0.0
H78 H 0.09131 0.97472 0.28378 0.0
H79 H 0.94186 0.07854 0.26231 0.0
H80 H 0.91169 0.08902 0.31732 0.0
H81 H 0.06135 0.98619 0.33891 0.0
C82 C 1.001 0.97232 0.53411 0.0
C83 C 0.02308 0.92193 0.5257 0.0
C84 C 0.91556 0.89143 0.50985 0.0
C85 C 0.981 0.8821 0.51397 0.0
C86 C 0.89377 0.94223 0.51723 0.0
C87 C 0.936 0.98218 0.5292 0.0
U88 U 0.096 0.04058 0.6047 0.0
O89 O 0.19492 0.06872 0.60921 0.0
O90 O 0.11678 0.12268 0.62033 0.0
C91 C 0.17836 0.11699 0.61687 0.0
C92 C 0.04531 0.01408 0.54828 0.0
C93 C 0.20954 0.15468 0.59969 0.0
C94 C 0.23602 0.18638 0.55101 0.0
C95 C 0.20653 0.14963 0.56682 0.0
C96 C 0.2722 0.23322 0.60078 0.0
C97 C 0.26877 0.2289 0.56782 0.0
C98 C 0.24284 0.19641 0.61653 0.0
C99 C 0.0805 0.98687 0.68315 0.0
C100 C 0.13392 0.02334 0.73209 0.0
C101 C 0.0707 0.94515 0.72993 0.0
C102 C 0.05623 0.94707 0.69824 0.0
C103 C 0.11002 0.98302 0.74726 0.0
C104 C 0.11941 0.02515 0.70019 0.0
C105 C 0.06452 0.98727 0.64968 0.0
O106 O 1.02121 0.04991 0.56883 0.0
O107 O 0.10211 0.99942 0.55699 0.0
O108 O 0.11047 0.97386 0.63031 0.0
O109 O 0.03233 0.0273 0.64258 0.0
H110 H 0.07284 0.91276 0.52879 0.0
H111 H 0.99984 0.84354 0.50911 0.0
H112 H 0.84402 0.95116 0.51393 0.0
H113 H 0.91757 0.02072 0.53497 0.0
H114 H 0.23297 0.18157 0.52562 0.0
H115 H 0.18115 0.11748 0.55344 0.0
H116 H 0.29602 0.26583 0.61449 0.0
H117 H 0.24554 0.20087 0.64194 0.0
H118 H 0.16442 0.05299 0.74474 0.0
H119 H 0.05032 0.9142 0.74097 0.0
H120 H 0.02586 0.91738 0.68548 0.0
H121 H 0.13859 0.05622 0.68881 0.0
C122 C 0.46056 0.5973 0.98228 0.0
C123 C 0.40032 0.59458 0.9669 0.0
C124 C 0.37591 0.68134 0.99121 0.0
C125 C 0.35838 0.6361 0.97142 0.0
C126 C 0.43491 0.68304 0.00764 0.0
C127 C 0.47662 0.64145 0.00327 0.0
U128 U 0.565 0.52535 0.92221 0.0
O129 O 0.66477 0.50042 0.92374 0.0
O130 O 0.58835 0.44335 0.91033 0.0
C131 C 0.64954 0.45141 0.91622 0.0
C132 C 0.50892 0.55685 0.9747 0.0
C133 C 0.68292 0.4133 0.93318 0.0
C134 C 0.75239 0.38992 0.9754 0.0
C135 C 0.71638 0.4269 0.96191 0.0
C136 C 0.721 0.32555 0.93193 0.0
C137 C 0.75548 0.33879 0.96041 0.0
C138 C 0.68523 0.36228 0.91858 0.0
C139 C 0.54732 0.56533 0.83931 0.0
C140 C 0.61876 0.58091 0.79804 0.0
C141 C 0.51478 0.5429 0.7844 0.0
C142 C 0.50181 0.54542 0.81625 0.0
C143 C 0.5734 0.5607 0.77491 0.0
C144 C 0.60594 0.58316 0.82986 0.0
C145 C 0.53169 0.56947 0.87285 0.0
O146 O 0.49014 0.5158 0.95558 0.0
O147 O 0.56528 0.57392 0.96812 0.0
O148 O 0.57632 0.58805 0.89337 0.0
O149 O 0.50069 0.53009 0.88142 0.0
H150 H 0.38623 0.56114 0.95054 0.0
H151 H 0.31341 0.63365 0.95835 0.0
H152 H 0.44938 0.71703 0.02347 0.0
H153 H 0.5225 0.6445 0.01547 0.0
H154 H 0.77801 0.40139 0.99743 0.0
H155 H 0.71559 0.46612 0.97364 0.0
H156 H 0.72321 0.28703 0.91927 0.0
H157 H 0.66057 0.35102 0.89623 0.0
H158 H 0.66395 0.59586 0.79158 0.0
H159 H 0.47904 0.52664 0.76723 0.0
H160 H 0.45597 0.5319 0.82287 0.0
H161 H 0.64184 0.59935 0.84696 0.0
C162 C 0.41851 0.48539 0.04466 0.0
C163 C 0.3936 0.46278 0.06956 0.0
C164 C 0.3195 0.41111 0.03367 0.0
C165 C 0.34478 0.42615 0.06417 0.0
C166 C 0.34388 0.43439 0.00873 0.0
C167 C 0.39284 0.47148 0.01425 0.0
U168 U 0.52731 0.55353 0.10578 0.0
O169 O 0.63048 0.56939 0.10936 0.0
O170 O 0.56279 0.6332 0.11675 0.0
C171 C 0.62279 0.6196 0.11449 0.0
C172 C 0.47209 0.52219 0.05116 0.0
C173 C 0.66338 0.65064 0.09668 0.0
C174 C 0.6793 0.70125 0.05401 0.0
C175 C 0.64027 0.67029 0.06976 0.0
C176 C 0.76517 0.69304 0.09179 0.0
C177 C 0.74228 0.71307 0.06485 0.0
C178 C 0.72604 0.66213 0.10751 0.0
C179 C 0.48969 0.52073 0.18812 0.0
C180 C 0.5421 0.55901 0.2368 0.0
C181 C 0.44773 0.50566 0.23796 0.0
C182 C 0.44494 0.49742 0.2053 0.0
C183 C 0.49549 0.53734 0.25404 0.0
C184 C 0.53898 0.551 0.20391 0.0
C185 C 0.48074 0.51557 0.15396 0.0
O186 O 0.45786 0.56587 0.06816 0.0
O187 O 0.5249 0.50194 0.06099 0.0
O188 O 0.52689 0.49357 0.13728 0.0
O189 O 0.45767 0.55639 0.14295 0.0
H190 H 0.41279 0.47285 0.09323 0.0
H191 H 0.32829 0.40835 0.08387 0.0
H192 H 0.3253 0.42381 0.98499 0.0
H193 H 0.41087 0.48873 0.99478 0.0
H194 H 0.65978 0.71657 0.03359 0.0
H195 H 0.59192 0.66214 0.06116 0.0
H196 H 0.81355 0.70077 0.10053 0.0
H197 H 0.74469 0.64731 0.1283 0.0
H198 H 0.57922 0.58371 0.24871 0.0
H199 H 0.41172 0.488 0.25072 0.0
H200 H 0.40667 0.47392 0.19341 0.0
H201 H 0.57378 0.56942 0.19086 0.0
H202 H 0.14207 0.22518 0.05028 0.0
H203 H 0.24237 0.15702 0.96969 0.0
H204 H 0.28646 0.24149 0.96266 0.0
H205 H 0.31427 0.32985 0.98675 0.0
H206 H 0.2163 0.39679 0.0688 0.0
H207 H 0.15321 0.31809 0.06792 0.0
C208 C 0.17102 0.22949 0.03028 0.0
C209 C 0.18849 0.18544 0.01028 0.0
C210 C 0.19821 0.27773 0.02731 0.0
C211 C 0.2274 0.1908 0.98494 0.0
C212 C 0.25344 0.23895 0.98128 0.0
C213 C 0.27768 0.32788 0.00381 0.0
C214 C 0.27126 0.3687 0.02831 0.0
C215 C 0.24196 0.28209 0.0034 0.0
C216 C 0.2235 0.3654 0.05022 0.0
C217 C 0.1872 0.32044 0.04968 0.0
H218 H 0.17064 0.85945 0.00529 0.0
H219 H 0.33975 0.95052 0.99714 0.0
H220 H 0.40346 0.87285 0.98995 0.0
H221 H 0.41303 0.7798 0.98863 0.0
H222 H 0.24631 0.68689 0.99764 0.0
H223 H 0.17997 0.76414 0.00162 0.0
C224 C 0.22124 0.86208 0.0015 0.0
C225 C 0.25037 0.91081 0.00196 0.0
C226 C 0.25827 0.81696 0.99786 0.0
C227 C 0.31612 0.91361 0.99717 0.0
C228 C 0.35276 0.86919 0.9931 0.0
C229 C 0.36223 0.77644 0.99172 0.0
C230 C 0.33484 0.72776 0.99329 0.0
C231 C 0.32464 0.82083 0.99403 0.0
C232 C 0.26863 0.72396 0.99642 0.0
C233 C 0.2307 0.76814 0.99875 0.0
H234 H 0.88792 0.83832 0.97303 0.0
H235 H 0.96405 0.91873 0.06029 0.0
H236 H 0.9053 0.85994 0.0894 0.0
H237 H 0.82643 0.78917 0.08976 0.0
H238 H 0.75218 0.71006 0.00161 0.0
H239 H 0.81548 0.76569 0.97316 0.0
C240 C 0.8921 0.84302 0.99844 0.0
C241 C 0.92993 0.88319 0.01447 0.0
C242 C 0.85786 0.80969 0.01486 0.0
C243 C 0.93533 0.88811 0.04737 0.0
C244 C 0.90144 0.85468 0.064 0.0
C245 C 0.82473 0.78368 0.06432 0.0
C246 C 0.78383 0.74577 0.04788 0.0
C247 C 0.8617 0.81582 0.04797 0.0
C248 C 0.78199 0.73955 0.01491 0.0
C249 C 0.81857 0.77111 0.99858 0.0
H250 H 0.97139 0.19113 0.00176 0.0
H251 H 0.82535 0.07819 0.97028 0.0
H252 H 0.75002 0.14649 0.96326 0.0
H253 H 0.72801 0.23736 0.96143 0.0
H254 H 0.87529 0.35143 0.98807 0.0
H255 H 0.94685 0.28422 0.0024 0.0
C256 C 0.92275 0.18174 0.99389 0.0
C257 C 0.90392 0.12975 0.98642 0.0
C258 C 0.87991 0.22145 0.98888 0.0
C259 C 0.841 0.11794 0.97594 0.0
C260 C 0.79789 0.15696 0.9719 0.0
C261 C 0.77578 0.24767 0.97035 0.0
C262 C 0.79631 0.2994 0.9732 0.0
C263 C 0.81727 0.20873 0.97747 0.0
C264 C 0.85789 0.31203 0.9857 0.0
C265 C 0.89913 0.27349 0.99365 0.0
H266 H 0.78869 0.67304 0.47678 0.0
H267 H 0.64662 0.74295 0.5382 0.0
H268 H 0.69739 0.82766 0.53838 0.0
H269 H 0.79423 0.87707 0.52951 0.0
H270 H 0.9351 0.80628 0.46698 0.0
H271 H 0.87284 0.72669 0.45884 0.0
C272 C 0.7673 0.70732 0.489 0.0
C273 C 0.71398 0.70211 0.50729 0.0
C274 C 0.79777 0.75537 0.48963 0.0
C275 C 0.68705 0.74636 0.52352 0.0
C276 C 0.71679 0.7946 0.52405 0.0
C277 C 0.81054 0.8449 0.51333 0.0
C278 C 0.87066 0.84741 0.49976 0.0
C279 C 0.77407 0.799 0.50847 0.0
C280 C 0.89042 0.80503 0.47877 0.0
C281 C 0.85455 0.75948 0.47386 0.0
H282 H 0.79653 0.43452 0.52223 0.0
H283 H 0.61166 0.38871 0.48152 0.0
H284 H 0.64667 0.29859 0.47242 0.0
H285 H 0.73123 0.23292 0.47631 0.0
H286 H 0.91335 0.28197 0.51924 0.0
H287 H 0.8777 0.37086 0.52736 0.0
C288 C 0.76367 0.40505 0.51117 0.0
C289 C 0.70173 0.4185 0.50225 0.0
C290 C 0.78363 0.35379 0.50662 0.0
C291 C 0.65973 0.37945 0.48845 0.0
C292 C 0.67975 0.32797 0.48329 0.0
C293 C 0.76281 0.26321 0.48748 0.0
C294 C 0.82469 0.25082 0.49741 0.0
C295 C 0.74173 0.31466 0.49232 0.0
C296 C 0.86521 0.29033 0.5119 0.0
C297 C 0.84504 0.34124 0.51635 0.0
H298 H 0.32967 0.41204 0.49157 0.0
H299 H 0.49491 0.42755 0.5541 0.0
H300 H 0.46215 0.35 0.57626 0.0
H301 H 0.38187 0.28157 0.58023 0.0
H302 H 0.21549 0.27001 0.51829 0.0
H303 H 0.25397 0.34201 0.49332 0.0
C304 C 0.35896 0.39843 0.50993 0.0
C305 C 0.41429 0.42597 0.52143 0.0
C306 C 0.33946 0.35454 0.52272 0.0
C307 C 0.45203 0.40717 0.54487 0.0
C308 C 0.4331 0.36299 0.55764 0.0
C309 C 0.35409 0.29481 0.56126 0.0
C310 C 0.29567 0.27032 0.55126 0.0
C311 C 0.37611 0.33702 0.54719 0.0
C312 C 0.26088 0.2875 0.52626 0.0
C313 C 0.28261 0.32902 0.51209 0.0
H314 H 0.3388 0.69609 0.55127 0.0
H315 H 0.49796 0.73189 0.49662 0.0
H316 H 0.44116 0.80621 0.48093 0.0
H317 H 0.3394 0.85087 0.47539 0.0
H318 H 0.18032 0.81453 0.53016 0.0
H319 H 0.24383 0.75015 0.5528 0.0
C320 C 0.36179 0.72098 0.5366 0.0
C321 C 0.42213 0.70796 0.52475 0.0
C322 C 0.32818 0.76273 0.527 0.0
C323 C 0.45157 0.74092 0.50607 0.0
C324 C 0.41873 0.78311 0.49677 0.0
C325 C 0.31899 0.83 0.49292 0.0
C326 C 0.25443 0.83687 0.50042 0.0
C327 C 0.3559 0.79291 0.50594 0.0
C328 C 0.22913 0.80907 0.52317 0.0
C329 C 0.26558 0.77242 0.53632 0.0
H330 H 0.16085 0.03557 0.14251 0.0
H331 H 0.9688 0.02303 0.10388 0.0
H332 H 0.92858 0.01703 0.15627 0.0
H333 H 0.94848 0.01806 0.21351 0.0
H334 H 0.14171 0.03091 0.25072 0.0
H335 H 0.18088 0.03339 0.19825 0.0
C336 C 0.11007 0.03155 0.1454 0.0
C337 C 0.06786 0.03036 0.11928 0.0
C338 C 0.08752 0.02796 0.17537 0.0
C339 C 1.00235 0.02435 0.12357 0.0
C340 C 0.97936 0.02095 0.15353 0.0
C341 C 0.99913 0.02139 0.21008 0.0
C342 C 0.04206 0.02416 0.2361 0.0
C343 C 0.02153 0.02319 0.17968 0.0
C344 C 0.10762 0.02789 0.23117 0.0
C345 C 0.1301 0.02975 0.20117 0.0
H346 H 0.13249 0.92524 0.88428 0.0
H347 H 0.10404 0.08866 0.9075 0.0
H348 H 0.1129 0.10027 0.85213 0.0
H349 H 0.11257 0.06144 0.79636 0.0
H350 H 0.14093 0.89755 0.77421 0.0
H351 H 0.14805 0.88868 0.82986 0.0
C352 C 0.12964 0.96359 0.87731 0.0
C353 C 0.11685 0.0059 0.89983 0.0
C354 C 0.1335 0.96972 0.84551 0.0
C355 C 0.11398 0.05545 0.89059 0.0
C356 C 0.11837 0.062 0.85887 0.0
C357 C 0.12174 0.02401 0.80372 0.0
C358 C 0.12461 0.98001 0.78107 0.0
C359 C 0.12568 0.01907 0.83597 0.0
C360 C 0.13667 0.93181 0.79109 0.0
C361 C 0.14111 0.9267 0.82294 0.0
H362 H 0.68052 0.55015 0.63897 0.0
H363 H 0.48761 0.59221 0.61742 0.0
H364 H 0.46047 0.5912 0.6724 0.0
H365 H 0.49313 0.58091 0.72685 0.0
H366 H 0.68549 0.53502 0.74682 0.0
H367 H 0.71137 0.53558 0.69206 0.0
C368 C 0.63249 0.55929 0.64624 0.0
C369 C 0.58631 0.57182 0.62422 0.0
C370 C 0.61724 0.55815 0.6776 0.0
C371 C 0.52408 0.58264 0.63396 0.0
C372 C 0.5086 0.5821 0.66537 0.0
C373 C 0.54048 0.57038 0.71916 0.0
C374 C 0.58748 0.55852 0.74109 0.0
C375 C 0.55496 0.57014 0.68743 0.0
C376 C 0.64876 0.54543 0.73068 0.0
C377 C 0.66355 0.54541 0.69931 0.0
H378 H 0.43103 0.58351 0.39636 0.0
H379 H 0.62753 0.54136 0.40827 0.0
H380 H 0.63966 0.53251 0.35129 0.0
H381 H 0.59157 0.53147 0.2977 0.0
H382 H 0.39405 0.57164 0.28748 0.0
H383 H 0.38521 0.58656 0.34428 0.0
C384 C 0.47676 0.57261 0.38665 0.0
C385 C 0.52812 0.56268 0.40658 0.0
C386 C 0.48305 0.56697 0.3541 0.0
C387 C 0.58711 0.54908 0.39345 0.0
C388 C 0.59402 0.54389 0.36087 0.0
C389 C 0.54696 0.54403 0.30805 0.0
C390 C 0.49331 0.54991 0.28854 0.0
C391 C 0.54196 0.55197 0.34091 0.0
C392 C 0.43564 0.5661 0.30209 0.0
C393 C 0.4306 0.57477 0.33453 0.0
loop_
_geom_bond_atom_site_label_1
_geom_bond_atom_site_label_2
_geom_bond_distance
_geom_bond_site_symmetry_2
_ccdc_geom_bond_type
O0 Mg1 1.990 . S
O0 C14 1.253 . S
Mg1 O0 1.990 . S
Mg1 O4 2.180 . S
Mg1 O5 2.117 . S
Mg1 O19 2.030 1_545 S
O2 Mg3 2.072 . S
O2 C14 1.260 . S
Mg3 O2 2.072 . S
Mg3 O4 2.099 . S
Mg3 O6 2.079 1_554 S
Mg3 O7 2.072 . S
Mg3 O9 2.099 1_444 S
Mg3 O20 2.079 1_544 S
O4 Mg1 2.180 . S
O4 Mg3 2.099 . S
O4 C15 1.279 . S
O5 Mg1 2.117 . S
O5 C15 1.250 . S
O6 Mg3 2.079 1_556 S
O6 C16 1.264 . S
O7 Mg3 2.072 . S
O7 C17 1.260 1_455 S
Mg8 O9 2.180 1_545 S
Mg8 O10 2.030 . S
Mg8 O11 1.990 . S
Mg8 O12 2.138 1_545 S
O9 Mg3 2.099 1_666 S
O9 Mg8 2.180 1_565 S
O9 C18 1.279 1_556 S
O10 Mg8 2.030 . S
O10 C16 1.248 1_655 S
O11 Mg8 1.990 . S
O11 C17 1.253 1_556 S
O12 Mg8 2.138 1_565 S
O12 C18 1.243 1_556 S
C13 O19 1.248 . S
C13 O20 1.255 1_554 S
C14 O0 1.253 . S
C14 O2 1.260 . S
C15 O4 1.279 . S
C15 O5 1.250 . S
C16 O6 1.264 . S
C16 O10 1.248 1_455 S
C17 O7 1.260 1_655 S
C17 O11 1.253 1_554 S
C18 O9 1.279 1_554 S
C18 O12 1.243 1_554 S
O19 Mg1 2.030 1_565 S
O19 C13 1.248 . S
O20 Mg3 2.079 1_566 S
O20 C13 1.255 1_556 S
O21 Mg22 1.990 . S
O21 C35 1.253 . S
Mg22 O21 1.990 . S
Mg22 O25 2.180 . S
Mg22 O26 2.117 . S
Mg22 O40 2.030 . S
O23 Mg24 2.072 . S
O23 C35 1.260 . S
Mg24 O23 2.072 . S
Mg24 O25 2.099 . S
Mg24 O27 2.079 . S
Mg24 O28 2.072 . S
Mg24 O30 2.099 . S
Mg24 O41 2.079 . S
O25 Mg22 2.180 . S
O25 Mg24 2.099 . S
O25 C36 1.279 . S
O26 Mg22 2.117 . S
O26 C36 1.250 . S
O27 Mg24 2.079 . S
O27 C37 1.264 . S
O28 Mg24 2.072 . S
O28 C38 1.260 . S
Mg29 O30 2.180 . S
Mg29 O31 2.030 . S
Mg29 O32 1.990 . S
Mg29 O33 2.117 . S
O30 Mg24 2.099 . S
O30 Mg29 2.180 . S
O30 C39 1.279 . S
O31 Mg29 2.030 . S
O31 C37 1.248 . S
O32 Mg29 1.990 . S
O32 C38 1.253 . S
O33 Mg29 2.117 . S
O33 C39 1.250 . S
C34 O40 1.248 . S
C34 O41 1.264 . S
C35 O21 1.253 . S
C35 O23 1.260 . S
C36 O25 1.279 . S
C36 O26 1.250 . S
C37 O27 1.264 . S
C37 O31 1.248 . S
C38 O28 1.260 . S
C38 O32 1.253 . S
C39 O30 1.279 . S
C39 O33 1.250 . S
O40 Mg22 2.030 . S
O40 C34 1.248 . S
O41 Mg24 2.079 . S
O41 C34 1.264 . S
C42 C43 1.264 . S
C42 C47 1.479 . S
C42 C52 1.456 1_655 S
C43 C42 1.264 . S
C43 C45 1.339 . S
C43 H70 0.931 . S
C44 C45 1.395 . S
C44 C46 1.320 . S
C45 C43 1.339 . S
C45 C44 1.395 . S
C45 H71 0.929 . S
C46 C44 1.320 . S
C46 C47 1.405 . S
C46 H72 0.930 . S
C47 C42 1.479 . S
C47 C46 1.405 . S
C47 H73 0.931 . S
U48 O49 2.454 1_545 S
U48 O50 2.458 1_545 S
U48 C51 2.984 1_545 S
U48 C52 2.854 . S
U48 C65 2.882 . S
U48 O66 2.441 . S
U48 O67 2.420 . S
U48 O68 2.455 1_545 S
U48 O69 2.449 . S
O49 U48 2.454 1_565 S
O49 C51 1.353 . S
O50 U48 2.458 1_565 S
O50 C51 1.286 . S
C51 U48 2.984 1_565 S
C51 O49 1.353 . S
C51 O50 1.286 . S
C51 C53 1.363 . S
C52 C42 1.456 1_455 S
C52 U48 2.854 . S
C52 O66 1.255 . S
C52 O67 1.205 . S
C53 C51 1.363 . S
C53 C55 1.408 . S
C53 C58 1.342 . S
C54 C55 1.310 . S
C54 C57 1.461 . S
C54 H74 0.932 . S
C55 C53 1.408 . S
C55 C54 1.310 . S
C55 H75 0.930 . S
C56 C57 1.474 . S
C56 C58 1.285 . S
C56 H76 0.929 . S
C57 C54 1.461 . S
C57 C56 1.474 . S
C58 C53 1.342 . S
C58 C56 1.285 . S
C58 H77 0.930 . S
C59 C62 1.424 . S
C59 C64 1.245 1_545 S
C59 C65 1.428 . S
C60 C63 1.270 . S
C60 C64 1.477 . S
C60 H78 0.932 . S
C61 C62 1.384 . S
C61 C63 1.467 1_545 S
C61 H79 0.929 . S
C62 C59 1.424 . S
C62 C61 1.384 . S
C62 H80 0.928 . S
C63 C60 1.270 . S
C63 C61 1.467 1_565 S
C64 C59 1.245 1_565 S
C64 C60 1.477 . S
C64 H81 0.932 . S
C65 U48 2.882 . S
C65 C59 1.428 . S
C65 O68 1.301 1_545 S
C65 O69 1.282 . S
O66 U48 2.441 . S
O66 C52 1.255 . S
O67 U48 2.420 . S
O67 C52 1.205 . S
O68 U48 2.455 1_565 S
O68 C65 1.301 1_565 S
O69 U48 2.449 . S
O69 C65 1.282 . S
H70 C43 0.931 . S
H71 C45 0.929 . S
H72 C46 0.930 . S
H73 C47 0.931 . S
H74 C54 0.932 . S
H75 C55 0.930 . S
H76 C56 0.929 . S
H77 C58 0.930 . S
H78 C60 0.932 . S
H79 C61 0.929 . S
H80 C62 0.928 . S
H81 C64 0.932 . S
C82 C83 1.264 . S
C82 C87 1.479 . S
C82 C92 1.465 . S
C83 C82 1.264 . S
C83 C85 1.339 . S
C83 H110 0.931 . S
C84 C85 1.395 . S
C84 C86 1.320 . S
C85 C83 1.339 . S
C85 C84 1.395 . S
C85 H111 0.929 . S
C86 C84 1.320 . S
C86 C87 1.405 . S
C86 H112 0.930 . S
C87 C82 1.479 . S
C87 C86 1.405 . S
C87 H113 0.931 . S
U88 O89 2.454 . S
U88 O90 2.458 . S
U88 C91 2.984 . S
U88 C92 2.847 1_445 S
U88 C105 2.882 . S
U88 O106 2.441 1_455 S
U88 O107 2.420 1_445 S
U88 O108 2.455 . S
U88 O109 2.449 . S
O89 U88 2.454 . S
O89 C91 1.353 . S
O90 U88 2.458 . S
O90 C91 1.286 . S
C91 U88 2.984 . S
C91 O89 1.353 . S
C91 O90 1.286 . S
C91 C93 1.363 . S
C92 C82 1.465 . S
C92 U88 2.847 1_665 S
C92 O106 1.249 1_565 S
C92 O107 1.202 . S
C93 C91 1.363 . S
C93 C95 1.408 . S
C93 C98 1.342 . S
C94 C95 1.310 . S
C94 C97 1.461 . S
C94 H114 0.932 . S
C95 C93 1.408 . S
C95 C94 1.310 . S
C95 H115 0.930 . S
C96 C97 1.474 . S
C96 C98 1.285 . S
C96 H116 0.929 . S
C97 C94 1.461 . S
C97 C96 1.474 . S
C98 C93 1.342 . S
C98 C96 1.285 . S
C98 H117 0.930 . S
C99 C102 1.424 1_455 S
C99 C104 1.245 . S
C99 C105 1.428 . S
C100 C103 1.260 . S
C100 C104 1.477 . S
C100 H118 0.932 . S
C101 C102 1.384 . S
C101 C103 1.479 1_655 S
C101 H119 0.929 . S
C102 C99 1.424 1_655 S
C102 C101 1.384 . S
C102 H120 0.928 . S
C103 C100 1.260 . S
C103 C101 1.479 1_455 S
C104 C99 1.245 . S
C104 C100 1.477 . S
C104 H121 0.932 . S
C105 U88 2.882 . S
C105 C99 1.428 . S
C105 O108 1.301 . S
C105 O109 1.282 . S
O106 U88 2.441 1_655 S
O106 C92 1.249 1_545 S
O107 U88 2.420 1_665 S
O107 C92 1.202 . S
O108 U88 2.455 . S
O108 C105 1.301 . S
O109 U88 2.449 . S
O109 C105 1.282 . S
H110 C83 0.931 . S
H111 C85 0.929 . S
H112 C86 0.930 . S
H113 C87 0.931 . S
H114 C94 0.932 . S
H115 C95 0.930 . S
H116 C96 0.929 . S
H117 C98 0.930 . S
H118 C100 0.932 . S
H119 C101 0.929 . S
H120 C102 0.928 . S
H121 C104 0.932 . S
C122 C123 1.264 . S
C122 C127 1.479 1_556 S
C122 C132 1.465 . S
C123 C122 1.264 . S
C123 C125 1.339 . S
C123 H150 0.931 . S
C124 C125 1.395 1_554 S
C124 C126 1.320 . S
C125 C123 1.339 . S
C125 C124 1.395 1_556 S
C125 H151 0.929 . S
C126 C124 1.320 . S
C126 C127 1.405 . S
C126 H152 0.930 . S
C127 C122 1.479 1_554 S
C127 C126 1.405 . S
C127 H153 0.931 . S
U128 O129 2.454 . S
U128 O130 2.458 . S
U128 C131 2.984 . S
U128 C132 2.847 . S
U128 C145 2.882 . S
U128 O146 2.441 . S
U128 O147 2.420 . S
U128 O148 2.455 . S
U128 O149 2.449 . S
O129 U128 2.454 . S
O129 C131 1.353 . S
O130 U128 2.458 . S
O130 C131 1.286 . S
C131 U128 2.984 . S
C131 O129 1.353 . S
C131 O130 1.286 . S
C131 C133 1.363 . S
C132 C122 1.465 . S
C132 U128 2.847 . S
C132 O146 1.249 . S
C132 O147 1.202 . S
C133 C131 1.363 . S
C133 C135 1.408 1_556 S
C133 C138 1.342 . S
C134 C135 1.310 . S
C134 C137 1.461 1_554 S
C134 H154 0.932 . S
C135 C133 1.408 1_554 S
C135 C134 1.310 . S
C135 H155 0.930 . S
C136 C137 1.474 . S
C136 C138 1.285 . S
C136 H156 0.929 . S
C137 C134 1.461 1_556 S
C137 C136 1.474 . S
C138 C133 1.342 . S
C138 C136 1.285 . S
C138 H157 0.930 . S
C139 C142 1.424 . S
C139 C144 1.245 . S
C139 C145 1.428 . S
C140 C143 1.260 . S
C140 C144 1.477 . S
C140 H158 0.932 . S
C141 C142 1.384 . S
C141 C143 1.479 . S
C141 H159 0.929 . S
C142 C139 1.424 . S
C142 C141 1.384 . S
C142 H160 0.928 . S
C143 C140 1.260 . S
C143 C141 1.479 . S
C144 C139 1.245 . S
C144 C140 1.477 . S
C144 H161 0.932 . S
C145 U128 2.882 . S
C145 C139 1.428 . S
C145 O148 1.301 . S
C145 O149 1.282 . S
O146 U128 2.441 . S
O146 C132 1.249 . S
O147 U128 2.420 . S
O147 C132 1.202 . S
O148 U128 2.455 . S
O148 C145 1.301 . S
O149 U128 2.449 . S
O149 C145 1.282 . S
H150 C123 0.931 . S
H151 C125 0.929 . S
H152 C126 0.930 . S
H153 C127 0.931 . S
H154 C134 0.932 . S
H155 C135 0.930 . S
H156 C136 0.929 . S
H157 C138 0.930 . S
H158 C140 0.932 . S
H159 C141 0.929 . S
H160 C142 0.928 . S
H161 C144 0.932 . S
C162 C163 1.264 . S
C162 C167 1.479 . S
C162 C172 1.465 . S
C163 C162 1.264 . S
C163 C165 1.339 . S
C163 H190 0.931 . S
C164 C165 1.395 . S
C164 C166 1.320 1_554 S
C165 C163 1.339 . S
C165 C164 1.395 . S
C165 H191 0.929 . S
C166 C164 1.320 1_556 S
C166 C167 1.405 1_556 S
C166 H192 0.930 . S
C167 C162 1.479 . S
C167 C166 1.405 1_554 S
C167 H193 0.922 1_554 S
U168 O169 2.454 . S
U168 O170 2.458 . S
U168 C171 2.984 . S
U168 C172 2.847 . S
U168 C185 2.882 . S
U168 O186 2.441 . S
U168 O187 2.420 . S
U168 O188 2.455 . S
U168 O189 2.449 . S
O169 U168 2.454 . S
O169 C171 1.353 . S
O170 U168 2.458 . S
O170 C171 1.286 . S
C171 U168 2.984 . S
C171 O169 1.353 . S
C171 O170 1.286 . S
C171 C173 1.363 . S
C172 C162 1.465 . S
C172 U168 2.847 . S
C172 O186 1.249 . S
C172 O187 1.202 . S
C173 C171 1.363 . S
C173 C175 1.408 . S
C173 C178 1.342 . S
C174 C175 1.310 . S
C174 C177 1.461 . S
C174 H194 0.932 1_554 S
C175 C173 1.408 . S
C175 C174 1.310 . S
C175 H195 0.930 . S
C176 C177 1.474 . S
C176 C178 1.285 . S
C176 H196 0.929 . S
C177 C174 1.461 . S
C177 C176 1.474 . S
C178 C173 1.342 . S
C178 C176 1.285 . S
C178 H197 0.930 . S
C179 C182 1.424 . S
C179 C184 1.245 . S
C179 C185 1.428 . S
C180 C183 1.260 . S
C180 C184 1.477 . S
C180 H198 0.932 . S
C181 C182 1.384 . S
C181 C183 1.479 . S
C181 H199 0.929 . S
C182 C179 1.424 . S
C182 C181 1.384 . S
C182 H200 0.928 . S
C183 C180 1.260 . S
C183 C181 1.479 . S
C184 C179 1.245 . S
C184 C180 1.477 . S
C184 H201 0.932 . S
C185 U168 2.882 . S
C185 C179 1.428 . S
C185 O188 1.301 . S
C185 O189 1.282 . S
O186 U168 2.441 . S
O186 C172 1.249 . S
O187 U168 2.420 . S
O187 C172 1.202 . S
O188 U168 2.455 . S
O188 C185 1.301 . S
O189 U168 2.449 . S
O189 C185 1.282 . S
H190 C163 0.931 . S
H191 C165 0.929 . S
H192 C166 0.930 . S
H193 C167 0.922 1_556 S
H194 C174 0.932 1_556 S
H195 C175 0.930 . S
H196 C176 0.929 . S
H197 C178 0.930 . S
H198 C180 0.932 . S
H199 C181 0.929 . S
H200 C182 0.928 . S
H201 C184 0.932 . S
H202 C208 0.930 . S
H203 C211 0.930 . S
H204 C212 0.930 . S
H205 C213 0.930 . S
H206 C216 0.930 . S
H207 C217 0.930 . S
C208 H202 0.930 . S
C208 C209 1.355 . S
C208 C210 1.415 . S
C209 C208 1.355 . S
C209 C211 1.419 1_554 S
C210 C208 1.415 . S
C210 C215 1.425 1_554 S
C210 C217 1.409 . S
C211 H203 0.930 . S
C211 C209 1.419 1_556 S
C211 C212 1.362 . S
C212 H204 0.930 . S
C212 C211 1.362 . S
C212 C215 1.409 . S
C213 H205 0.930 . S
C213 C214 1.355 1_556 S
C213 C215 1.415 . S
C214 C213 1.355 1_554 S
C214 C216 1.419 . S
C215 C210 1.425 1_556 S
C215 C212 1.409 . S
C215 C213 1.415 . S
C216 H206 0.930 . S
C216 C214 1.419 . S
C216 C217 1.362 . S
C217 H207 0.930 . S
C217 C210 1.409 . S
C217 C216 1.362 . S
H218 C224 0.930 . S
H219 C227 0.930 . S
H220 C228 0.930 . S
H221 C229 0.930 . S
H222 C232 0.930 . S
H223 C233 0.930 . S
C224 H218 0.930 . S
C224 C225 1.355 1_556 S
C224 C226 1.415 1_556 S
C225 C224 1.355 1_554 S
C225 C227 1.419 . S
C226 C224 1.415 1_554 S
C226 C231 1.425 . S
C226 C233 1.409 1_554 S
C227 H219 0.930 . S
C227 C225 1.419 . S
C227 C228 1.362 . S
C228 H220 0.930 . S
C228 C227 1.362 . S
C228 C231 1.409 . S
C229 H221 0.930 . S
C229 C230 1.355 . S
C229 C231 1.415 . S
C230 C229 1.355 . S
C230 C232 1.419 1_554 S
C231 C226 1.425 . S
C231 C228 1.409 . S
C231 C229 1.415 . S
C232 H222 0.930 . S
C232 C230 1.419 1_556 S
C232 C233 1.362 . S
C233 H223 0.930 . S
C233 C226 1.409 1_556 S
C233 C232 1.362 . S
H234 C240 0.930 . S
H235 C243 0.930 . S
H236 C244 0.930 . S
H237 C245 0.930 . S
H238 C248 0.930 . S
H239 C249 0.926 1_556 S
C240 H234 0.930 . S
C240 C241 1.355 . S
C240 C242 1.415 . S
C241 C240 1.355 . S
C241 C243 1.419 . S
C242 C240 1.415 . S
C242 C247 1.425 . S
C242 C249 1.409 . S
C243 H235 0.930 . S
C243 C241 1.419 . S
C243 C244 1.362 . S
C244 H236 0.930 . S
C244 C243 1.362 . S
C244 C247 1.409 . S
C245 H237 0.930 . S
C245 C246 1.355 . S
C245 C247 1.415 . S
C246 C245 1.355 . S
C246 C248 1.419 . S
C247 C242 1.425 . S
C247 C244 1.409 . S
C247 C245 1.415 . S
C248 H238 0.930 . S
C248 C246 1.419 . S
C248 C249 1.362 . S
C249 H239 0.926 1_554 S
C249 C242 1.409 . S
C249 C248 1.362 . S
H250 C256 0.930 . S
H251 C259 0.930 . S
H252 C260 0.930 . S
H253 C261 0.930 . S
H254 C264 0.930 . S
H255 C265 0.930 . S
C256 H250 0.930 . S
C256 C257 1.355 . S
C256 C258 1.415 . S
C257 C256 1.355 . S
C257 C259 1.419 1_554 S
C258 C256 1.415 . S
C258 C263 1.425 1_554 S
C258 C265 1.409 . S
C259 H251 0.930 . S
C259 C257 1.419 1_556 S
C259 C260 1.362 . S
C260 H252 0.930 . S
C260 C259 1.362 . S
C260 C263 1.409 . S
C261 H253 0.930 . S
C261 C262 1.355 1_556 S
C261 C263 1.415 . S
C262 C261 1.355 1_554 S
C262 C264 1.419 . S
C263 C258 1.425 1_556 S
C263 C260 1.409 . S
C263 C261 1.415 . S
C264 H254 0.930 . S
C264 C262 1.419 . S
C264 C265 1.362 . S
C265 H255 0.930 . S
C265 C258 1.409 . S
C265 C264 1.362 . S
H266 C272 0.930 . S
H267 C275 0.930 . S
H268 C276 0.930 . S
H269 C277 0.930 . S
H270 C280 0.930 . S
H271 C281 0.930 . S
C272 H266 0.930 . S
C272 C273 1.355 . S
C272 C274 1.415 . S
C273 C272 1.355 . S
C273 C275 1.419 . S
C274 C272 1.415 . S
C274 C279 1.425 . S
C274 C281 1.409 . S
C275 H267 0.930 . S
C275 C273 1.419 . S
C275 C276 1.362 . S
C276 H268 0.930 . S
C276 C275 1.362 . S
C276 C279 1.409 . S
C277 H269 0.930 . S
C277 C278 1.355 . S
C277 C279 1.415 . S
C278 C277 1.355 . S
C278 C280 1.419 . S
C279 C274 1.425 . S
C279 C276 1.409 . S
C279 C277 1.415 . S
C280 H270 0.930 . S
C280 C278 1.419 . S
C280 C281 1.362 . S
C281 H271 0.930 . S
C281 C274 1.409 . S
C281 C280 1.362 . S
H282 C288 0.930 . S
H283 C291 0.930 . S
H284 C292 0.930 . S
H285 C293 0.930 . S
H286 C296 0.930 . S
H287 C297 0.930 . S
C288 H282 0.930 . S
C288 C289 1.355 . S
C288 C290 1.415 . S
C289 C288 1.355 . S
C289 C291 1.419 . S
C290 C288 1.415 . S
C290 C295 1.425 . S
C290 C297 1.409 . S
C291 H283 0.930 . S
C291 C289 1.419 . S
C291 C292 1.362 . S
C292 H284 0.930 . S
C292 C291 1.362 . S
C292 C295 1.409 . S
C293 H285 0.930 . S
C293 C294 1.355 . S
C293 C295 1.415 . S
C294 C293 1.355 . S
C294 C296 1.419 . S
C295 C290 1.425 . S
C295 C292 1.409 . S
C295 C293 1.415 . S
C296 H286 0.930 . S
C296 C294 1.419 . S
C296 C297 1.362 . S
C297 H287 0.930 . S
C297 C290 1.409 . S
C297 C296 1.362 . S
H298 C304 0.930 . S
H299 C307 0.930 . S
H300 C308 0.930 . S
H301 C309 0.930 . S
H302 C312 0.930 . S
H303 C313 0.930 . S
C304 H298 0.930 . S
C304 C305 1.355 . S
C304 C306 1.415 . S
C305 C304 1.355 . S
C305 C307 1.419 . S
C306 C304 1.415 . S
C306 C311 1.425 . S
C306 C313 1.409 . S
C307 H299 0.930 . S
C307 C305 1.419 . S
C307 C308 1.362 . S
C308 H300 0.930 . S
C308 C307 1.362 . S
C308 C311 1.409 . S
C309 H301 0.930 . S
C309 C310 1.355 . S
C309 C311 1.415 . S
C310 C309 1.355 . S
C310 C312 1.419 . S
C311 C306 1.425 . S
C311 C308 1.409 . S
C311 C309 1.415 . S
C312 H302 0.930 . S
C312 C310 1.419 . S
C312 C313 1.362 . S
C313 H303 0.930 . S
C313 C306 1.409 . S
C313 C312 1.362 . S
H314 C320 0.930 . S
H315 C323 0.930 . S
H316 C324 0.930 . S
H317 C325 0.930 . S
H318 C328 0.930 . S
H319 C329 0.930 . S
C320 H314 0.930 . S
C320 C321 1.355 . S
C320 C322 1.415 . S
C321 C320 1.355 . S
C321 C323 1.419 . S
C322 C320 1.415 . S
C322 C327 1.425 . S
C322 C329 1.409 . S
C323 H315 0.930 . S
C323 C321 1.419 . S
C323 C324 1.362 . S
C324 H316 0.930 . S
C324 C323 1.362 . S
C324 C327 1.409 . S
C325 H317 0.930 . S
C325 C326 1.355 . S
C325 C327 1.415 . S
C326 C325 1.355 . S
C326 C328 1.419 . S
C327 C322 1.425 . S
C327 C324 1.409 . S
C327 C325 1.415 . S
C328 H318 0.930 . S
C328 C326 1.419 . S
C328 C329 1.362 . S
C329 H319 0.930 . S
C329 C322 1.409 . S
C329 C328 1.362 . S
H330 C336 0.929 1_565 S
H331 C339 0.930 . S
H332 C340 0.930 . S
H333 C341 0.930 1_655 S
H334 C344 0.930 . S
H335 C345 0.930 . S
C336 H330 0.929 1_545 S
C336 C337 1.355 . S
C336 C338 1.415 1_545 S
C337 C336 1.355 . S
C337 C339 1.419 1_455 S
C338 C336 1.415 1_565 S
C338 C343 1.425 1_565 S
C338 C345 1.409 . S
C339 H331 0.930 . S
C339 C337 1.419 1_655 S
C339 C340 1.362 . S
C340 H332 0.930 . S
C340 C339 1.362 . S
C340 C343 1.409 1_655 S
C341 H333 0.930 1_455 S
C341 C342 1.355 1_545 S
C341 C343 1.415 . S
C342 C341 1.355 1_565 S
C342 C344 1.419 . S
C343 C338 1.425 1_545 S
C343 C340 1.409 1_455 S
C343 C341 1.415 . S
C344 H334 0.930 . S
C344 C342 1.419 . S
C344 C345 1.362 . S
C345 H335 0.930 . S
C345 C338 1.409 . S
C345 C344 1.362 . S
H346 C352 0.930 1_565 S
H347 C355 0.930 . S
H348 C356 0.930 1_655 S
H349 C357 0.930 1_655 S
H350 C360 0.930 . S
H351 C361 0.930 1_565 S
C352 H346 0.930 1_545 S
C352 C353 1.355 . S
C352 C354 1.415 . S
C353 C352 1.355 . S
C353 C355 1.419 . S
C354 C352 1.415 . S
C354 C359 1.425 . S
C354 C361 1.409 . S
C355 H347 0.930 . S
C355 C353 1.419 . S
C355 C356 1.362 . S
C356 H348 0.930 1_455 S
C356 C355 1.362 . S
C356 C359 1.409 . S
C357 H349 0.930 1_455 S
C357 C358 1.355 . S
C357 C359 1.415 . S
C358 C357 1.355 . S
C358 C360 1.419 . S
C359 C354 1.425 . S
C359 C356 1.409 . S
C359 C357 1.415 . S
C360 H350 0.930 . S
C360 C358 1.419 . S
C360 C361 1.362 . S
C361 H351 0.930 1_545 S
C361 C354 1.409 . S
C361 C360 1.362 . S
H362 C368 0.930 . S
H363 C371 0.930 . S
H364 C372 0.930 . S
H365 C373 0.930 . S
H366 C376 0.930 . S
H367 C377 0.930 . S
C368 H362 0.930 . S
C368 C369 1.355 . S
C368 C370 1.415 . S
C369 C368 1.355 . S
C369 C371 1.419 . S
C370 C368 1.415 . S
C370 C375 1.425 . S
C370 C377 1.409 . S
C371 H363 0.930 . S
C371 C369 1.419 . S
C371 C372 1.362 . S
C372 H364 0.930 . S
C372 C371 1.362 . S
C372 C375 1.409 . S
C373 H365 0.930 . S
C373 C374 1.355 . S
C373 C375 1.415 . S
C374 C373 1.355 . S
C374 C376 1.419 . S
C375 C370 1.425 . S
C375 C372 1.409 . S
C375 C373 1.415 . S
C376 H366 0.930 . S
C376 C374 1.419 . S
C376 C377 1.362 . S
C377 H367 0.930 . S
C377 C370 1.409 . S
C377 C376 1.362 . S
H378 C384 0.930 . S
H379 C387 0.930 . S
H380 C388 0.930 . S
H381 C389 0.930 . S
H382 C392 0.930 . S
H383 C393 0.930 . S
C384 H378 0.930 . S
C384 C385 1.355 . S
C384 C386 1.415 . S
C385 C384 1.355 . S
C385 C387 1.419 . S
C386 C384 1.415 . S
C386 C391 1.425 . S
C386 C393 1.409 . S
C387 H379 0.930 . S
C387 C385 1.419 . S
C387 C388 1.362 . S
C388 H380 0.930 . S
C388 C387 1.362 . S
C388 C391 1.409 . S
C389 H381 0.930 . S
C389 C390 1.355 . S
C389 C391 1.415 . S
C390 C389 1.355 . S
C390 C392 1.419 . S
C391 C386 1.425 . S
C391 C388 1.409 . S
C391 C389 1.415 . S
C392 H382 0.930 . S
C392 C390 1.419 . S
C392 C393 1.362 . S
C393 H383 0.930 . S
C393 C386 1.409 . S
C393 C392 1.362 . S
C214 C164 1.534 . S
C209 C15 1.523 . S
C225 C13 1.591 . S
C230 C124 1.585 . S
C241 C18 1.271 . S
C246 C177 1.529 . S
C257 C17 1.369 . S
C262 C137 1.434 1_554 S
C273 C36 1.536 . S
C278 C84 1.521 . S
C289 C34 1.644 . S
C294 C44 1.596 . S
C310 C97 1.568 . S
C305 C39 1.393 . S
C326 C57 1.453 . S
C321 C38 1.373 . S
C337 C14 1.543 . S
C342 C63 1.530 . S
C353 C16 1.387 . S
C358 C103 1.381 . S
C374 C143 1.561 . S
C369 C35 1.499 . S
C385 C37 1.426 . S
C390 C183 1.415 . S
