# Generated by pormake.
# Topology ssa, (4,4)-cn, num edge types: 1
# Building blocks:
#     Node 0, Type 0, BuildingBlock: NAWXER_clean_sbu_0, # of connection points: 4
#     Node 1, Type 0, BuildingBlock: NAWXER_clean_sbu_0, # of connection points: 4
#     Node 2, Type 0, BuildingBlock: NAWXER_clean_sbu_0, # of connection points: 4
#     Node 3, Type 0, BuildingBlock: NAWXER_clean_sbu_0, # of connection points: 4
#     Node 4, Type 0, BuildingBlock: NAWXER_clean_sbu_0, # of connection points: 4
#     Node 5, Type 0, BuildingBlock: NAWXER_clean_sbu_0, # of connection points: 4
#     Node 6, Type 1, BuildingBlock: NAWXER_clean_sbu_0, # of connection points: 4
#     Node 7, Type 1, BuildingBlock: NAWXER_clean_sbu_0, # of connection points: 4
#     Node 8, Type 1, BuildingBlock: NAWXER_clean_sbu_0, # of connection points: 4
#     Node 9, Type 1, BuildingBlock: NAWXER_clean_sbu_0, # of connection points: 4
#     Node 10, Type 1, BuildingBlock: NAWXER_clean_sbu_0, # of connection points: 4
#     Node 11, Type 1, BuildingBlock: NAWXER_clean_sbu_0, # of connection points: 4
#     Edge 12, Type (0, 1), BuildingBlock: UVAHIK_clean_linker_0, # of connection points: 2
#     Edge 13, Type (0, 1), BuildingBlock: UVAHIK_clean_linker_0, # of connection points: 2
#     Edge 14, Type (0, 1), BuildingBlock: UVAHIK_clean_linker_0, # of connection points: 2
#     Edge 15, Type (0, 1), BuildingBlock: UVAHIK_clean_linker_0, # of connection points: 2
#     Edge 16, Type (0, 1), BuildingBlock: UVAHIK_clean_linker_0, # of connection points: 2
#     Edge 17, Type (0, 1), BuildingBlock: UVAHIK_clean_linker_0, # of connection points: 2
#     Edge 18, Type (0, 1), BuildingBlock: UVAHIK_clean_linker_0, # of connection points: 2
#     Edge 19, Type (0, 1), BuildingBlock: UVAHIK_clean_linker_0, # of connection points: 2
#     Edge 20, Type (0, 1), BuildingBlock: UVAHIK_clean_linker_0, # of connection points: 2
#     Edge 21, Type (0, 1), BuildingBlock: UVAHIK_clean_linker_0, # of connection points: 2
#     Edge 22, Type (0, 1), BuildingBlock: UVAHIK_clean_linker_0, # of connection points: 2
#     Edge 23, Type (0, 1), BuildingBlock: UVAHIK_clean_linker_0, # of connection points: 2
#     Edge 24, Type (0, 1), BuildingBlock: UVAHIK_clean_linker_0, # of connection points: 2
#     Edge 25, Type (0, 1), BuildingBlock: UVAHIK_clean_linker_0, # of connection points: 2
#     Edge 26, Type (0, 1), BuildingBlock: UVAHIK_clean_linker_0, # of connection points: 2
#     Edge 27, Type (0, 1), BuildingBlock: UVAHIK_clean_linker_0, # of connection points: 2
#     Edge 28, Type (0, 1), BuildingBlock: UVAHIK_clean_linker_0, # of connection points: 2
#     Edge 29, Type (0, 1), BuildingBlock: UVAHIK_clean_linker_0, # of connection points: 2
#     Edge 30, Type (0, 1), BuildingBlock: UVAHIK_clean_linker_0, # of connection points: 2
#     Edge 31, Type (0, 1), BuildingBlock: UVAHIK_clean_linker_0, # of connection points: 2
#     Edge 32, Type (0, 1), BuildingBlock: UVAHIK_clean_linker_0, # of connection points: 2
#     Edge 33, Type (0, 1), BuildingBlock: UVAHIK_clean_linker_0, # of connection points: 2
#     Edge 34, Type (0, 1), BuildingBlock: UVAHIK_clean_linker_0, # of connection points: 2
#     Edge 35, Type (0, 1), BuildingBlock: UVAHIK_clean_linker_0, # of connection points: 2
# Relax obj value: 0.024
# Max RMSD: 0.040
# Mean RMSD: 0.033
data_MOF--net-ssa--node1-NAWXER_clean_sbu_0--node2-NAWXER_clean_sbu_0--edge1-UVAHIK_clean_linker_0
_symmetry_space_group_name_H-M    P1
_symmetry_Int_Tables_number       1
_symmetry_cell_setting            triclinic
loop_
_symmetry_equiv_pos_as_xyz
'x, y, z'
_cell_length_a     57.248516
_cell_length_b     57.395042
_cell_length_c     47.558577
_cell_angle_alpha  90.643099
_cell_angle_beta   88.932074
_cell_angle_gamma 120.14658
loop_
_atom_site_label
_atom_site_type_symbol
_atom_site_fract_x
_atom_site_fract_y
_atom_site_fract_z
_atom_type_partial_charge
C0 C 0.99785 0.50968 0.04142 0.0
C1 C 0.95977 0.43047 0.98138 0.0
O2 O 0.97913 0.48602 0.04756 0.0
Zn3 Zn 0.97897 0.46997 0.01172 0.0
O4 O 0.00893 0.51467 0.01689 0.0
Zn5 Zn 0.00617 0.49294 0.97895 0.0
O6 O 0.99667 0.51104 0.95169 0.0
O7 O 0.96428 0.48846 0.9831 0.0
O8 O 0.9789 0.45125 0.969 0.0
O9 O 0.95367 0.43231 0.00679 0.0
O10 O 0.01739 0.47205 0.01221 0.0
O11 O 0.04188 0.49725 0.97649 0.0
C12 C 0.97299 0.50339 0.9611 0.0
C13 C 0.03964 0.48338 0.99806 0.0
C14 C 0.47028 0.01724 0.53266 0.0
C15 C 0.51559 0.9785 0.47796 0.0
O16 O 0.47312 0.99739 0.53909 0.0
Zn17 Zn 0.4918 0.99686 0.5049 0.0
O18 O 0.47863 0.0284 0.50852 0.0
Zn19 Zn 0.49866 0.024 0.47184 0.0
O20 O 0.47273 0.01397 0.44238 0.0
O21 O 0.46095 0.9819 0.47383 0.0
O22 O 0.51496 0.99757 0.46476 0.0
O23 O 0.50447 0.97155 0.50214 0.0
O24 O 0.52898 0.03508 0.50657 0.0
O25 O 0.53019 0.05929 0.47009 0.0
C26 C 0.45619 0.99036 0.45101 0.0
C27 C 0.54089 0.05697 0.49226 0.0
C28 C 0.49211 0.45647 0.99436 0.0
C29 C 0.53125 0.54146 0.04665 0.0
O30 O 0.48602 0.47333 0.98432 0.0
Zn31 Zn 0.4946 0.51367 0.99225 0.0
O32 O 0.50793 0.46327 0.01513 0.0
Zn33 Zn 0.51273 0.49906 0.02034 0.0
O34 O 0.47222 0.48982 0.03149 0.0
O35 O 0.45873 0.50766 0.99921 0.0
O36 O 0.53387 0.52116 0.05152 0.0
O37 O 0.51736 0.54095 0.02553 0.0
O38 O 0.51361 0.53222 0.95825 0.0
O39 O 0.53728 0.52034 0.9845 0.0
C40 C 0.45394 0.49404 0.02164 0.0
C41 C 0.53521 0.53173 0.9624 0.0
C42 C 0.00704 0.5381 0.4579 0.0
C43 C 0.96279 0.45831 0.51861 0.0
O44 O 0.02046 0.5395 0.47974 0.0
Zn45 Zn 0.01733 0.51609 0.51564 0.0
O46 O 0.98423 0.5171 0.45375 0.0
Zn47 Zn 0.98404 0.49758 0.48731 0.0
O48 O 0.98054 0.52146 0.52033 0.0
O49 O 0.01709 0.53858 0.5463 0.0
O50 O 0.95408 0.46159 0.49542 0.0
O51 O 0.98554 0.47695 0.52782 0.0
O52 O 0.04809 0.51097 0.50983 0.0
O53 O 0.01628 0.48982 0.47834 0.0
C54 C 0.99418 0.53602 0.54119 0.0
C55 C 0.03938 0.49598 0.48818 0.0
C56 C 0.52337 0.97293 0.04095 0.0
C57 C 0.51001 0.04284 0.00221 0.0
O58 O 0.53333 0.99725 0.0488 0.0
Zn59 Zn 0.51699 0.00807 0.02099 0.0
O60 O 0.50822 0.9645 0.01933 0.0
Zn61 Zn 0.49307 0.9811 0.9893 0.0
O62 O 0.50942 0.97948 0.95383 0.0
O63 O 0.53866 0.00966 0.983 0.0
O64 O 0.49748 0.02073 0.98826 0.0
O65 O 0.52408 0.04441 0.02323 0.0
O66 O 0.47402 0.9843 0.03084 0.0
O67 O 0.45474 0.95804 0.99414 0.0
C68 C 0.53343 0.99789 0.95897 0.0
C69 C 0.45274 0.96594 0.01867 0.0
C70 C 0.53964 0.48961 0.50868 0.0
C71 C 0.4551 0.45909 0.4601 0.0
O72 O 0.52308 0.49432 0.52272 0.0
Zn73 Zn 0.48242 0.48668 0.51876 0.0
O74 O 0.5326 0.47721 0.48531 0.0
Zn75 Zn 0.49692 0.47274 0.48499 0.0
O76 O 0.50513 0.51359 0.48191 0.0
O77 O 0.48769 0.52248 0.51957 0.0
O78 O 0.47491 0.45623 0.45249 0.0
O79 O 0.45542 0.46955 0.48415 0.0
O80 O 0.46375 0.46342 0.55009 0.0
O81 O 0.47722 0.44434 0.51822 0.0
C82 C 0.50042 0.52994 0.49621 0.0
C83 C 0.46574 0.44335 0.54193 0.0
C84 C 0.26772 0.46602 0.26896 0.0
C85 C 0.2103 0.47823 0.20295 0.0
O86 O 0.24537 0.44442 0.26397 0.0
Zn87 Zn 0.20982 0.43138 0.2399 0.0
O88 O 0.2727 0.48804 0.25756 0.0
Zn89 Zn 0.23922 0.47366 0.23707 0.0
O90 O 0.20992 0.4631 0.27018 0.0
O91 O 0.18138 0.41929 0.26837 0.0
O92 O 0.2327 0.49665 0.21253 0.0
O93 O 0.20026 0.45403 0.21187 0.0
O94 O 0.21193 0.40577 0.2142 0.0
O95 O 0.24359 0.44826 0.20691 0.0
C96 C 0.18913 0.44203 0.27999 0.0
C97 C 0.23231 0.42329 0.20027 0.0
C98 C 0.80632 0.23641 0.70307 0.0
C99 C 0.73401 0.16566 0.76049 0.0
O100 O 0.78967 0.24301 0.7135 0.0
Zn101 Zn 0.75359 0.22567 0.73871 0.0
O102 O 0.80315 0.21324 0.70795 0.0
Zn103 Zn 0.77102 0.20061 0.73192 0.0
O104 O 0.74228 0.19687 0.70159 0.0
O105 O 0.72765 0.22487 0.71254 0.0
O106 O 0.75379 0.16489 0.7488 0.0
O107 O 0.73209 0.18686 0.75804 0.0
O108 O 0.76428 0.24986 0.77035 0.0
O109 O 0.78564 0.22681 0.76785 0.0
C110 C 0.72747 0.20711 0.69617 0.0
C111 C 0.78149 0.24443 0.78019 0.0
C112 C 0.58281 0.81523 0.30627 0.0
C113 C 0.58659 0.75396 0.23615 0.0
O114 O 0.60421 0.81699 0.29564 0.0
Zn115 Zn 0.58597 0.78547 0.27136 0.0
O116 O 0.55957 0.79664 0.2981 0.0
Zn117 Zn 0.5428 0.76361 0.26892 0.0
O118 O 0.52151 0.73355 0.29351 0.0
O119 O 0.56532 0.75398 0.30163 0.0
O120 O 0.56261 0.74906 0.24186 0.0
O121 O 0.60651 0.77295 0.24886 0.0
O122 O 0.56912 0.7999 0.24095 0.0
O123 O 0.52468 0.77414 0.24264 0.0
C124 C 0.54103 0.73588 0.30796 0.0
C125 C 0.54575 0.79404 0.23214 0.0
C126 C 0.79518 0.53967 0.78213 0.0
C127 C 0.74606 0.54052 0.70033 0.0
O128 O 0.77816 0.51988 0.76764 0.0
Zn129 Zn 0.76991 0.53999 0.74139 0.0
O130 O 0.80055 0.56355 0.77595 0.0
Zn131 Zn 0.78875 0.58246 0.74525 0.0
O132 O 0.77207 0.59847 0.76809 0.0
O133 O 0.74736 0.5541 0.76549 0.0
O134 O 0.76086 0.56429 0.71055 0.0
O135 O 0.74555 0.52041 0.7119 0.0
O136 O 0.80672 0.5624 0.71782 0.0
O137 O 0.82309 0.60576 0.72627 0.0
C138 C 0.75048 0.57671 0.77415 0.0
C139 C 0.825 0.58703 0.7139 0.0
C140 C 0.22525 0.81142 0.19583 0.0
C141 C 0.1658 0.75709 0.27334 0.0
O142 O 0.20614 0.81365 0.20711 0.0
Zn143 Zn 0.19511 0.78516 0.23487 0.0
O144 O 0.23086 0.79399 0.20521 0.0
Zn145 Zn 0.21746 0.76459 0.23788 0.0
O146 O 0.2063 0.7314 0.21779 0.0
O147 O 0.18077 0.74939 0.2098 0.0
O148 O 0.18487 0.75228 0.26731 0.0
O149 O 0.16364 0.77476 0.25953 0.0
O150 O 0.22842 0.80283 0.26324 0.0
O151 O 0.24841 0.77846 0.26174 0.0
C152 C 0.18638 0.73062 0.20553 0.0
C153 C 0.24716 0.79854 0.27141 0.0
C154 C 0.43172 0.23501 0.81778 0.0
C155 C 0.43348 0.177 0.74245 0.0
O156 O 0.45521 0.24306 0.80701 0.0
Zn157 Zn 0.47392 0.23192 0.77452 0.0
O158 O 0.41125 0.21426 0.80788 0.0
Zn159 Zn 0.43118 0.20566 0.77983 0.0
O160 O 0.45632 0.19751 0.80587 0.0
O161 O 0.49916 0.22668 0.79612 0.0
O162 O 0.41298 0.173 0.75708 0.0
O163 O 0.45653 0.19789 0.74707 0.0
O164 O 0.48742 0.26183 0.74898 0.0
O165 O 0.44288 0.23745 0.75005 0.0
C166 C 0.4815 0.2068 0.81038 0.0
C167 C 0.4647 0.25749 0.74032 0.0
C168 C 0.08937 0.50499 0.00603 0.0
C169 C 0.06316 0.48276 0.00929 0.0
C170 C 0.1107 0.50669 0.02163 0.0
C171 C 0.13102 0.46688 0.0649 0.0
H172 H 0.1667 0.53068 0.11196 0.0
C173 C 0.17073 0.46292 0.17188 0.0
C174 C 0.19655 0.48339 0.17982 0.0
C175 C 0.15869 0.46556 0.14792 0.0
C176 C 0.15733 0.51298 0.09862 0.0
H177 H 0.03899 0.44417 0.02981 0.0
H178 H 0.07613 0.44679 0.0564 0.0
H179 H 0.1388 0.5295 0.07293 0.0
H180 H 0.2295 0.52332 0.16942 0.0
H181 H 0.20806 0.52808 0.12726 0.0
H182 H 0.1486 0.44994 0.09109 0.0
C183 C 0.08031 0.46299 0.04203 0.0
C184 C 0.14143 0.51231 0.07624 0.0
C185 C 0.059 0.46151 0.02687 0.0
C186 C 0.20957 0.50722 0.16386 0.0
C187 C 0.19737 0.50991 0.13973 0.0
C188 C 0.14688 0.46756 0.08714 0.0
C189 C 0.10619 0.48594 0.04024 0.0
C190 C 0.12734 0.48886 0.05985 0.0
C191 C 0.1721 0.48875 0.13118 0.0
C192 C 0.15933 0.4902 0.1049 0.0
H193 H 0.09306 0.52177 0.99278 0.0
H194 H 0.13049 0.52454 0.01979 0.0
H195 H 0.12075 0.44872 0.05232 0.0
H196 H 0.15994 0.44442 0.18383 0.0
H197 H 0.13887 0.44924 0.14233 0.0
C198 C 0.57043 0.10619 0.5016 0.0
C199 C 0.56591 0.0798 0.50308 0.0
C200 C 0.59182 0.12707 0.51624 0.0
C201 C 0.65617 0.14745 0.55007 0.0
H202 H 0.6313 0.17538 0.6111 0.0
C203 C 0.70953 0.17691 0.65457 0.0
C204 C 0.71103 0.19837 0.67048 0.0
C205 C 0.69483 0.16865 0.6299 0.0
C206 C 0.63883 0.16843 0.59382 0.0
H207 H 0.58083 0.05467 0.51927 0.0
H208 H 0.61872 0.09127 0.54393 0.0
H209 H 0.60082 0.15025 0.57283 0.0
H210 H 0.69828 0.22811 0.67288 0.0
H211 H 0.67244 0.21361 0.62931 0.0
H212 H 0.69388 0.16486 0.5712 0.0
C213 C 0.60565 0.0958 0.53181 0.0
C214 C 0.62136 0.15404 0.57193 0.0
C215 C 0.58396 0.07488 0.51784 0.0
C216 C 0.69739 0.21142 0.66112 0.0
C217 C 0.68264 0.20314 0.63619 0.0
C218 C 0.67372 0.16211 0.57168 0.0
C219 C 0.60931 0.12189 0.5318 0.0
C220 C 0.62956 0.14248 0.55058 0.0
C221 C 0.68132 0.18171 0.62026 0.0
C222 C 0.66482 0.17161 0.59451 0.0
H223 H 0.55657 0.11036 0.49053 0.0
H224 H 0.59427 0.14705 0.51607 0.0
H225 H 0.66295 0.13889 0.53365 0.0
H226 H 0.71961 0.16625 0.66122 0.0
H227 H 0.69364 0.15157 0.61867 0.0
C228 C 0.56084 0.56796 0.08716 0.0
C229 C 0.54366 0.56555 0.06517 0.0
C230 C 0.57205 0.59076 0.10466 0.0
C231 C 0.58394 0.66098 0.10907 0.0
H232 H 0.58448 0.65128 0.18957 0.0
C233 C 0.57303 0.72839 0.19131 0.0
C234 C 0.59022 0.73736 0.21452 0.0
C235 C 0.57391 0.71041 0.17198 0.0
C236 C 0.58495 0.65438 0.16709 0.0
H237 H 0.52479 0.58526 0.04444 0.0
H238 H 0.54358 0.62428 0.07507 0.0
H239 H 0.57301 0.6133 0.15788 0.0
H240 H 0.62209 0.73489 0.23563 0.0
H241 H 0.62302 0.70236 0.20197 0.0
H242 H 0.59424 0.7016 0.11853 0.0
C243 C 0.54909 0.60905 0.07852 0.0
C244 C 0.57839 0.63264 0.1489 0.0
C245 C 0.53806 0.58645 0.06103 0.0
C246 C 0.6088 0.72842 0.21775 0.0
C247 C 0.60922 0.70977 0.19866 0.0
C248 C 0.59014 0.68253 0.12726 0.0
C249 C 0.56626 0.61159 0.10058 0.0
C250 C 0.57698 0.63546 0.11969 0.0
C251 C 0.59161 0.7005 0.17572 0.0
C252 C 0.59 0.67925 0.15647 0.0
H253 H 0.56564 0.55226 0.09087 0.0
H254 H 0.58534 0.59209 0.12129 0.0
H255 H 0.58383 0.66415 0.08669 0.0
H256 H 0.55853 0.735 0.18834 0.0
H257 H 0.55994 0.70341 0.15466 0.0
C258 C 0.99675 0.56578 0.58193 0.0
C259 C 0.98279 0.5495 0.55882 0.0
C260 C 0.98525 0.57796 0.59845 0.0
C261 C 0.93022 0.59481 0.59774 0.0
H262 H 0.93003 0.58848 0.67884 0.0
C263 C 0.8426 0.57754 0.66997 0.0
C264 C 0.84771 0.59283 0.69466 0.0
C265 C 0.86386 0.58028 0.65288 0.0
C266 C 0.93042 0.59096 0.65625 0.0
H267 H 0.94586 0.53341 0.53495 0.0
H268 H 0.92586 0.55398 0.56371 0.0
H269 H 0.95907 0.57772 0.64973 0.0
H270 H 0.87888 0.62325 0.72085 0.0
H271 H 0.91656 0.62736 0.69117 0.0
H272 H 0.9001 0.60613 0.60424 0.0
C273 C 0.94589 0.55795 0.56889 0.0
C274 C 0.94703 0.5848 0.63956 0.0
C275 C 0.95729 0.54588 0.55249 0.0
C276 C 0.87452 0.61145 0.70172 0.0
C277 C 0.89596 0.61369 0.68491 0.0
C278 C 0.91344 0.60063 0.61437 0.0
C279 C 0.95965 0.57416 0.59207 0.0
C280 C 0.94629 0.58563 0.61004 0.0
C281 C 0.89072 0.59793 0.66046 0.0
C282 C 0.91271 0.59785 0.64369 0.0
H283 H 0.01646 0.56901 0.58733 0.0
H284 H 0.99641 0.59038 0.61613 0.0
H285 H 0.92969 0.59637 0.57511 0.0
H286 H 0.82208 0.56303 0.66413 0.0
H287 H 0.85929 0.5677 0.63432 0.0
C288 C 0.40564 0.92751 0.02613 0.0
C289 C 0.4263 0.95337 0.03364 0.0
C290 C 0.38131 0.91484 0.04144 0.0
C291 C 0.35173 0.91815 0.11098 0.0
H292 H 0.2855 0.86367 0.07658 0.0
C293 C 0.25079 0.85701 0.17336 0.0
C294 C 0.24222 0.82939 0.17288 0.0
C295 C 0.27059 0.87458 0.15418 0.0
C296 C 0.30382 0.87902 0.08637 0.0
H297 H 0.43726 0.98675 0.06235 0.0
H298 H 0.39443 0.96529 0.08825 0.0
H299 H 0.32541 0.89069 0.04716 0.0
H300 H 0.24627 0.79819 0.15119 0.0
H301 H 0.27993 0.82865 0.11704 0.0
H302 H 0.32973 0.90645 0.15016 0.0
C303 C 0.39724 0.95423 0.07122 0.0
C304 C 0.32684 0.89434 0.06961 0.0
C305 C 0.42179 0.96667 0.05623 0.0
C306 C 0.25254 0.81941 0.15196 0.0
C307 C 0.27171 0.83679 0.1324 0.0
C308 C 0.32854 0.9032 0.12762 0.0
C309 C 0.37677 0.92791 0.06437 0.0
C310 C 0.35138 0.91365 0.08175 0.0
C311 C 0.28147 0.86461 0.13379 0.0
C312 C 0.30458 0.88308 0.11556 0.0
H313 H 0.40858 0.91664 0.00895 0.0
H314 H 0.36645 0.89441 0.03574 0.0
H315 H 0.37019 0.93241 0.12135 0.0
H316 H 0.24333 0.86521 0.18949 0.0
H317 H 0.27785 0.89599 0.15565 0.0
C318 C 0.45206 0.42169 0.5894 0.0
C319 C 0.458 0.42027 0.56084 0.0
C320 C 0.44942 0.40193 0.60819 0.0
C321 C 0.43553 0.35172 0.64217 0.0
H322 H 0.49035 0.33131 0.6325 0.0
C323 C 0.4377 0.27013 0.70991 0.0
C324 C 0.46303 0.27538 0.71934 0.0
C325 C 0.43583 0.287 0.69031 0.0
C326 C 0.47504 0.33694 0.63559 0.0
H327 H 0.46376 0.39598 0.5292 0.0
H328 H 0.45868 0.36136 0.56188 0.0
H329 H 0.48766 0.36132 0.59863 0.0
H330 H 0.50629 0.30249 0.7156 0.0
H331 H 0.503 0.33212 0.68145 0.0
H332 H 0.42341 0.32786 0.6796 0.0
C333 C 0.45677 0.37807 0.56988 0.0
C334 C 0.47323 0.35383 0.61596 0.0
C335 C 0.45948 0.39783 0.55114 0.0
C336 C 0.48649 0.29786 0.70869 0.0
C337 C 0.4846 0.31474 0.68904 0.0
C338 C 0.43732 0.33478 0.66181 0.0
C339 C 0.45259 0.38037 0.59873 0.0
C340 C 0.45351 0.36145 0.61906 0.0
C341 C 0.45924 0.30949 0.67968 0.0
C342 C 0.45717 0.32731 0.65877 0.0
H343 H 0.45081 0.43875 0.59752 0.0
H344 H 0.4463 0.40432 0.63032 0.0
H345 H 0.42005 0.35715 0.64504 0.0
H346 H 0.41921 0.25294 0.71762 0.0
H347 H 0.41603 0.28221 0.68322 0.0
C348 C 0.54439 0.97439 0.44006 0.0
C349 C 0.52808 0.96396 0.46436 0.0
C350 C 0.55449 0.95971 0.42595 0.0
C351 C 0.53685 0.89051 0.41259 0.0
H352 H 0.61041 0.92018 0.38461 0.0
C353 C 0.56679 0.82285 0.3522 0.0
C354 C 0.58376 0.83366 0.32854 0.0
C355 C 0.56376 0.83964 0.37149 0.0
C356 C 0.58972 0.91164 0.39201 0.0
H357 H 0.51026 0.93028 0.49335 0.0
H358 H 0.52752 0.90446 0.46838 0.0
H359 H 0.59806 0.94827 0.41312 0.0
H360 H 0.61163 0.87039 0.30673 0.0
H361 H 0.60552 0.9 0.33985 0.0
H362 H 0.52785 0.85446 0.39067 0.0
C363 C 0.53252 0.92405 0.46035 0.0
C364 C 0.58272 0.92771 0.40844 0.0
C365 C 0.52273 0.93887 0.47469 0.0
C366 C 0.59862 0.86169 0.32503 0.0
C367 C 0.59509 0.87858 0.34406 0.0
C368 C 0.54369 0.87463 0.39589 0.0
C369 C 0.54818 0.93414 0.43563 0.0
C370 C 0.55621 0.91723 0.41895 0.0
C371 C 0.57697 0.86766 0.36712 0.0
C372 C 0.57025 0.88486 0.38544 0.0
H373 H 0.54899 0.99372 0.43164 0.0
H374 H 0.56636 0.96789 0.40685 0.0
H375 H 0.51613 0.88207 0.41991 0.0
H376 H 0.5553 0.80124 0.3554 0.0
H377 H 0.55039 0.83048 0.38943 0.0
C378 C 0.55223 0.54242 0.91263 0.0
C379 C 0.55752 0.54288 0.94143 0.0
C380 C 0.57303 0.54981 0.89266 0.0
C381 C 0.64412 0.58863 0.87762 0.0
H382 H 0.63748 0.52765 0.83512 0.0
C383 C 0.73407 0.59433 0.81366 0.0
C384 C 0.72854 0.577 0.79059 0.0
C385 C 0.71292 0.59259 0.83053 0.0
C386 C 0.63956 0.54518 0.84613 0.0
H387 H 0.58879 0.55283 0.97203 0.0
H388 H 0.6253 0.56669 0.93703 0.0
H389 H 0.60093 0.52176 0.86645 0.0
H390 H 0.69683 0.54555 0.76582 0.0
H391 H 0.66001 0.54372 0.79375 0.0
H392 H 0.68234 0.61239 0.8569 0.0
C393 C 0.60504 0.56024 0.93002 0.0
C394 C 0.61858 0.54164 0.86427 0.0
C395 C 0.58417 0.55221 0.94995 0.0
C396 C 0.7016 0.55885 0.78382 0.0
C397 C 0.68049 0.55766 0.80008 0.0
C398 C 0.6649 0.59239 0.8589 0.0
C399 C 0.5995 0.55849 0.90124 0.0
C400 C 0.62083 0.56323 0.88036 0.0
C401 C 0.68576 0.57397 0.82418 0.0
C402 C 0.66309 0.57061 0.84309 0.0
H403 H 0.53185 0.53515 0.90551 0.0
H404 H 0.56838 0.54822 0.87049 0.0
H405 H 0.64619 0.60554 0.88995 0.0
H406 H 0.75475 0.60842 0.81934 0.0
H407 H 0.71802 0.60528 0.84902 0.0
C408 C 0.0044 0.56273 0.4153 0.0
C409 C 0.01908 0.56087 0.43773 0.0
C410 C 0.01678 0.58444 0.39638 0.0
C411 C 0.08343 0.63149 0.36769 0.0
H412 H 0.05745 0.68058 0.3514 0.0
C413 C 0.1549 0.73228 0.31829 0.0
C414 C 0.14589 0.74029 0.2951 0.0
C415 C 0.13661 0.71149 0.33568 0.0
C416 C 0.06476 0.66684 0.35551 0.0
H417 H 0.05815 0.58058 0.45798 0.0
H418 H 0.07946 0.61768 0.42511 0.0
H419 H 0.02966 0.64039 0.38045 0.0
H420 H 0.11058 0.73408 0.27278 0.0
H421 H 0.07823 0.69709 0.3032 0.0
H422 H 0.11838 0.65746 0.34314 0.0
C423 C 0.05848 0.60252 0.42207 0.0
C424 C 0.04886 0.64387 0.37203 0.0
C425 C 0.04616 0.58122 0.44097 0.0
C426 C 0.11798 0.72839 0.29073 0.0
C427 C 0.09952 0.70718 0.30805 0.0
C428 C 0.09913 0.65417 0.35121 0.0
C429 C 0.04409 0.60427 0.39943 0.0
C430 C 0.05847 0.62643 0.37886 0.0
C431 C 0.10882 0.6978 0.32999 0.0
C432 C 0.09044 0.67259 0.3456 0.0
H433 H 0.98347 0.54745 0.41232 0.0
H434 H 0.00529 0.58537 0.37904 0.0
H435 H 0.0911 0.61811 0.37221 0.0
H436 H 0.17632 0.74128 0.32223 0.0
H437 H 0.14439 0.70534 0.35292 0.0
C438 C 0.53209 0.09252 0.99473 0.0
C439 C 0.5093 0.06665 0.99238 0.0
C440 C 0.53273 0.11445 0.9814 0.0
C441 C 0.49039 0.13795 0.94967 0.0
H442 H 0.54473 0.16809 0.89015 0.0
C443 C 0.46921 0.17186 0.84702 0.0
C444 C 0.48922 0.19526 0.83357 0.0
C445 C 0.47527 0.16189 0.87057 0.0
C446 C 0.52983 0.16045 0.90706 0.0
H447 H 0.46882 0.04353 0.97602 0.0
H448 H 0.46962 0.08186 0.95351 0.0
H449 H 0.54866 0.14089 0.92697 0.0
H450 H 0.53154 0.22625 0.83391 0.0
H451 H 0.54226 0.2085 0.87539 0.0
H452 H 0.47095 0.15652 0.92935 0.0
C453 C 0.48704 0.08522 0.96534 0.0
C454 C 0.5321 0.14493 0.92812 0.0
C455 C 0.48663 0.06328 0.97805 0.0
C456 C 0.51572 0.20812 0.8438 0.0
C457 C 0.52183 0.19805 0.86755 0.0
C458 C 0.48825 0.15361 0.92883 0.0
C459 C 0.51032 0.11082 0.96626 0.0
C460 C 0.51172 0.13258 0.94881 0.0
C461 C 0.50149 0.17507 0.8814 0.0
C462 C 0.50721 0.16387 0.90655 0.0
H463 H 0.54989 0.09553 0.00555 0.0
H464 H 0.5509 0.13404 0.98228 0.0
H465 H 0.47461 0.12885 0.96563 0.0
H466 H 0.44864 0.16129 0.83957 0.0
H467 H 0.45934 0.14368 0.88024 0.0
C468 C 0.43603 0.44953 0.41152 0.0
C469 C 0.4333 0.45364 0.44031 0.0
C470 C 0.41743 0.4487 0.3923 0.0
C471 C 0.34924 0.44024 0.38675 0.0
H472 H 0.37853 0.48333 0.31923 0.0
C473 C 0.31219 0.48752 0.29402 0.0
C474 C 0.28725 0.46462 0.28782 0.0
C475 C 0.33023 0.48557 0.31201 0.0
C476 C 0.3701 0.47137 0.33808 0.0
H477 H 0.40814 0.45873 0.47164 0.0
H478 H 0.3758 0.4572 0.43823 0.0
H479 H 0.40887 0.47935 0.3518 0.0
H480 H 0.26192 0.42164 0.2954 0.0
H481 H 0.29326 0.41833 0.32635 0.0
H482 H 0.31059 0.43273 0.37347 0.0
C483 C 0.39224 0.45459 0.43045 0.0
C484 C 0.3874 0.46877 0.35652 0.0
C485 C 0.41086 0.45555 0.44961 0.0
C486 C 0.28086 0.43977 0.29981 0.0
C487 C 0.29879 0.43785 0.31772 0.0
C488 C 0.33197 0.44277 0.36832 0.0
C489 C 0.39564 0.45176 0.40153 0.0
C490 C 0.37715 0.45327 0.38112 0.0
C491 C 0.3236 0.4607 0.32417 0.0
C492 C 0.34219 0.45839 0.3438 0.0
H493 H 0.45312 0.44803 0.40368 0.0
H494 H 0.42033 0.44611 0.37016 0.0
H495 H 0.34071 0.42804 0.40544 0.0
H496 H 0.31771 0.50693 0.2851 0.0
H497 H 0.34916 0.50359 0.31678 0.0
C498 C 0.94968 0.40401 0.93673 0.0
C499 C 0.94317 0.40556 0.96506 0.0
C500 C 0.93205 0.38235 0.91997 0.0
C501 C 0.85996 0.33321 0.9145 0.0
H502 H 0.88447 0.30437 0.85413 0.0
C503 C 0.81541 0.25161 0.81665 0.0
C504 C 0.79751 0.25886 0.80512 0.0
C505 C 0.83187 0.26617 0.83905 0.0
C506 C 0.87719 0.3119 0.8711 0.0
H507 H 0.91373 0.38477 0.99845 0.0
H508 H 0.88302 0.34676 0.96916 0.0
H509 H 0.91661 0.33457 0.88866 0.0
H510 H 0.78236 0.28666 0.80858 0.0
H511 H 0.81142 0.31236 0.84743 0.0
H512 H 0.82055 0.31061 0.89686 0.0
C513 C 0.9016 0.36256 0.95985 0.0
C514 C 0.89568 0.32943 0.89073 0.0
C515 C 0.91929 0.38424 0.97666 0.0
C516 C 0.79591 0.28054 0.817 0.0
C517 C 0.81246 0.29517 0.83938 0.0
C518 C 0.84145 0.31567 0.89487 0.0
C519 C 0.9075 0.36172 0.93115 0.0
C520 C 0.88738 0.34067 0.91234 0.0
C521 C 0.83089 0.28837 0.85041 0.0
C522 C 0.84995 0.30519 0.87267 0.0
H523 H 0.96793 0.42005 0.92712 0.0
H524 H 0.9371 0.38248 0.89789 0.0
H525 H 0.85295 0.34173 0.93074 0.0
H526 H 0.81699 0.23486 0.80816 0.0
H527 H 0.84553 0.26015 0.84735 0.0
C528 C 0.96271 0.52347 0.91995 0.0
C529 C 0.95485 0.51017 0.94598 0.0
C530 C 0.94468 0.52789 0.90467 0.0
C531 C 0.90709 0.54609 0.88256 0.0
H532 H 0.83276 0.48777 0.87896 0.0
C533 C 0.82745 0.55748 0.82202 0.0
C534 C 0.81015 0.53571 0.80482 0.0
C535 C 0.84362 0.55463 0.8417 0.0
C536 C 0.85346 0.5042 0.87966 0.0
H537 H 0.92219 0.49192 0.97685 0.0
H538 H 0.89096 0.50003 0.9504 0.0
H539 H 0.86469 0.48303 0.90812 0.0
H540 H 0.79561 0.49359 0.79544 0.0
H541 H 0.82416 0.4887 0.82952 0.0
H542 H 0.89616 0.56685 0.8533 0.0
C543 C 0.91087 0.50657 0.94154 0.0
C544 C 0.87169 0.50163 0.89664 0.0
C545 C 0.92885 0.50209 0.95678 0.0
C546 C 0.80869 0.51074 0.80841 0.0
C547 C 0.82498 0.50792 0.82804 0.0
C548 C 0.88888 0.54864 0.86554 0.0
C549 C 0.91843 0.51919 0.91513 0.0
C550 C 0.89877 0.52247 0.89812 0.0
C551 C 0.84298 0.52997 0.84456 0.0
C552 C 0.8619 0.52765 0.86374 0.0
H553 H 0.98255 0.52988 0.91099 0.0
H554 H 0.95107 0.53741 0.88425 0.0
H555 H 0.92772 0.56264 0.88346 0.0
H556 H 0.82889 0.57694 0.81997 0.0
H557 H 0.85685 0.57186 0.85449 0.0
C558 C 0.42981 0.97857 0.40649 0.0
C559 C 0.43248 0.97194 0.43414 0.0
C560 C 0.40869 0.96 0.38976 0.0
C561 C 0.35488 0.92175 0.36299 0.0
H562 H 0.33602 0.84686 0.36789 0.0
C563 C 0.26409 0.83777 0.3043 0.0
C564 C 0.2674 0.8174 0.2915 0.0
C565 C 0.28356 0.85632 0.32248 0.0
C566 C 0.34118 0.86771 0.3661 0.0
H567 H 0.41443 0.94108 0.46632 0.0
H568 H 0.37731 0.90902 0.4374 0.0
H569 H 0.37121 0.88033 0.39775 0.0
H570 H 0.29366 0.80038 0.28793 0.0
H571 H 0.32793 0.8331 0.31933 0.0
H572 H 0.32548 0.90926 0.33067 0.0
C573 C 0.39189 0.92826 0.42837 0.0
C574 C 0.3611 0.88686 0.3835 0.0
C575 C 0.41308 0.94674 0.44502 0.0
C576 C 0.29047 0.81578 0.29755 0.0
C577 C 0.31005 0.83446 0.31564 0.0
C578 C 0.33504 0.90261 0.3455 0.0
C579 C 0.3897 0.93448 0.4004 0.0
C580 C 0.36819 0.91411 0.38216 0.0
C581 C 0.30689 0.85506 0.32817 0.0
C582 C 0.32795 0.87536 0.34685 0.0
H583 H 0.4445 0.99778 0.39746 0.0
H584 H 0.40775 0.96535 0.36822 0.0
H585 H 0.35968 0.94252 0.36158 0.0
H586 H 0.24645 0.83947 0.30027 0.0
H587 H 0.28023 0.8716 0.33217 0.0
C588 C 0.45696 0.41949 0.96525 0.0
C589 C 0.48027 0.42933 0.98159 0.0
C590 C 0.44621 0.39456 0.95177 0.0
C591 C 0.44996 0.33149 0.94786 0.0
H592 H 0.42523 0.32878 0.87186 0.0
C593 C 0.45086 0.26184 0.8611 0.0
C594 C 0.42952 0.25008 0.842 0.0
C595 C 0.45138 0.27924 0.88204 0.0
C596 C 0.43152 0.32898 0.89325 0.0
H597 H 0.51025 0.42045 0.99717 0.0
H598 H 0.49213 0.37726 0.97274 0.0
H599 H 0.43802 0.36853 0.90068 0.0
H600 H 0.39141 0.24635 0.83041 0.0
H601 H 0.39262 0.27767 0.86693 0.0
H602 H 0.44483 0.2924 0.93954 0.0
C603 C 0.4817 0.38851 0.97086 0.0
C604 C 0.4389 0.35181 0.90986 0.0
C605 C 0.49225 0.41336 0.98474 0.0
C606 C 0.40802 0.25512 0.84497 0.0
C607 C 0.4088 0.27307 0.86571 0.0
C608 C 0.44286 0.30877 0.9311 0.0
C609 C 0.45872 0.37895 0.95387 0.0
C610 C 0.4487 0.3536 0.93722 0.0
C611 C 0.43078 0.28566 0.8841 0.0
C612 C 0.43405 0.30752 0.90344 0.0
H613 H 0.44698 0.43113 0.96277 0.0
H614 H 0.42815 0.38765 0.9395 0.0
H615 H 0.45685 0.33187 0.969 0.0
H616 H 0.46764 0.25815 0.85934 0.0
H617 H 0.4687 0.28881 0.89568 0.0
C618 C 0.08431 0.50076 0.47522 0.0
C619 C 0.05604 0.48673 0.47299 0.0
C620 C 0.10002 0.49396 0.45785 0.0
C621 C 0.0982 0.44094 0.41162 0.0
H622 H 0.15403 0.50073 0.36891 0.0
C623 C 0.14775 0.42556 0.31098 0.0
C624 C 0.17482 0.44469 0.30495 0.0
C625 C 0.13418 0.42936 0.33382 0.0
C626 C 0.13894 0.48378 0.38097 0.0
H627 H 0.02201 0.4536 0.4521 0.0
H628 H 0.04938 0.44154 0.42222 0.0
H629 H 0.12958 0.5093 0.40606 0.0
H630 H 0.20933 0.48205 0.31892 0.0
H631 H 0.18618 0.48814 0.3591 0.0
H632 H 0.10758 0.41537 0.38663 0.0
C633 C 0.05942 0.45786 0.43719 0.0
C634 C 0.12489 0.48875 0.40228 0.0
C635 C 0.04377 0.46489 0.4542 0.0
C636 C 0.18831 0.46715 0.32274 0.0
C637 C 0.17495 0.47072 0.34574 0.0
C638 C 0.11251 0.43596 0.3905 0.0
C639 C 0.08772 0.47273 0.43833 0.0
C640 C 0.10418 0.46739 0.41762 0.0
C641 C 0.14755 0.45219 0.35133 0.0
C642 C 0.13291 0.45731 0.37468 0.0
H643 H 0.09433 0.5177 0.48947 0.0
H644 H 0.12182 0.50563 0.45928 0.0
H645 H 0.08239 0.4241 0.42324 0.0
H646 H 0.13683 0.40808 0.29759 0.0
H647 H 0.11301 0.41479 0.33722 0.0
C648 C 0.58139 0.02775 0.94309 0.0
C649 C 0.5549 0.00744 0.93689 0.0
C650 C 0.60105 0.03919 0.92181 0.0
C651 C 0.60655 0.05218 0.84602 0.0
H652 H 0.68279 0.07948 0.85828 0.0
C653 C 0.71683 0.12132 0.78556 0.0
C654 C 0.71315 0.14267 0.77714 0.0
C655 C 0.69734 0.10055 0.80254 0.0
C656 C 0.66155 0.07165 0.85431 0.0
H657 H 0.52872 0.98232 0.90357 0.0
H658 H 0.56316 0.00223 0.86638 0.0
H659 H 0.64945 0.04966 0.89304 0.0
H660 H 0.68577 0.1585 0.7794 0.0
H661 H 0.65215 0.1226 0.80873 0.0
H662 H 0.61863 0.07451 0.80757 0.0
C663 C 0.56858 0.00952 0.88772 0.0
C664 C 0.64246 0.05479 0.87437 0.0
C665 C 0.54888 0.998 0.90906 0.0
C666 C 0.68935 0.14244 0.78551 0.0
C667 C 0.66989 0.12169 0.80218 0.0
C668 C 0.62561 0.06906 0.82604 0.0
C669 C 0.59475 0.03066 0.89375 0.0
C670 C 0.61477 0.04539 0.8708 0.0
C671 C 0.67368 0.10058 0.8111 0.0
C672 C 0.65338 0.07959 0.8303 0.0
H673 H 0.58678 0.0355 0.96429 0.0
H674 H 0.62086 0.05562 0.92722 0.0
H675 H 0.58546 0.04552 0.84263 0.0
H676 H 0.73495 0.12092 0.77947 0.0
H677 H 0.70077 0.08449 0.80899 0.0
C678 C 0.49717 0.57189 0.49466 0.0
C679 C 0.50825 0.55648 0.48417 0.0
C680 C 0.50216 0.59534 0.48074 0.0
C681 C 0.4994 0.62974 0.43363 0.0
H682 H 0.56882 0.67667 0.39795 0.0
C683 C 0.51214 0.69385 0.33575 0.0
C684 C 0.5362 0.71858 0.33258 0.0
C685 C 0.50864 0.6771 0.3585 0.0
C686 C 0.54938 0.66413 0.40809 0.0
H687 H 0.5343 0.55422 0.45182 0.0
H688 H 0.54283 0.59475 0.42766 0.0
H689 H 0.56467 0.64336 0.4317 0.0
H690 H 0.57473 0.74604 0.35152 0.0
H691 H 0.56836 0.71727 0.39139 0.0
H692 H 0.48411 0.65055 0.40987 0.0
C693 C 0.53044 0.58897 0.44663 0.0
C694 C 0.54697 0.64483 0.42724 0.0
C695 C 0.52537 0.56558 0.46038 0.0
C696 C 0.55616 0.72681 0.35312 0.0
C697 C 0.55254 0.71031 0.37596 0.0
C698 C 0.50184 0.64919 0.41453 0.0
C699 C 0.5185 0.60384 0.45632 0.0
C700 C 0.52183 0.62695 0.43962 0.0
C701 C 0.52903 0.68499 0.3786 0.0
C702 C 0.52674 0.66619 0.40107 0.0
H703 H 0.48388 0.56534 0.51296 0.0
H704 H 0.49288 0.60656 0.48879 0.0
H705 H 0.47971 0.61612 0.44272 0.0
H706 H 0.4964 0.68707 0.32024 0.0
H707 H 0.4904 0.65759 0.35973 0.0
C708 C 0.46411 0.05532 0.54898 0.0
C709 C 0.45999 0.02936 0.55362 0.0
C710 C 0.45761 0.06848 0.56984 0.0
C711 C 0.41718 0.06331 0.63045 0.0
H712 H 0.47999 0.12932 0.65509 0.0
C713 C 0.41378 0.13019 0.72237 0.0
C714 C 0.43157 0.15808 0.72009 0.0
C715 C 0.41481 0.11248 0.70243 0.0
C716 C 0.46209 0.11121 0.64822 0.0
H717 H 0.44447 0.9963 0.58335 0.0
H718 H 0.43245 0.01936 0.61979 0.0
H719 H 0.48513 0.10165 0.61926 0.0
H720 H 0.46296 0.18947 0.69433 0.0
H721 H 0.46384 0.15908 0.65908 0.0
H722 H 0.39388 0.07341 0.65862 0.0
C723 C 0.44098 0.0294 0.59994 0.0
C724 C 0.46515 0.09526 0.62786 0.0
C725 C 0.44793 0.01632 0.57916 0.0
C726 C 0.44931 0.16802 0.69687 0.0
C727 C 0.44997 0.1505 0.67678 0.0
C728 C 0.41398 0.07959 0.6506 0.0
C729 C 0.44642 0.05584 0.59564 0.0
C730 C 0.44274 0.07137 0.61856 0.0
C731 C 0.43338 0.12243 0.67968 0.0
C732 C 0.43639 0.10402 0.65941 0.0
H733 H 0.47338 0.06601 0.52962 0.0
H734 H 0.46191 0.08886 0.56608 0.0
H735 H 0.39961 0.04491 0.6235 0.0
H736 H 0.39996 0.12203 0.74016 0.0
H737 H 0.40175 0.09101 0.70543 0.0
C738 C 0.42209 0.4667 0.06047 0.0
C739 C 0.42723 0.48219 0.03602 0.0
C740 C 0.39687 0.45507 0.07397 0.0
C741 C 0.33738 0.46297 0.08244 0.0
H742 H 0.30573 0.39259 0.11743 0.0
C743 C 0.24188 0.42502 0.1494 0.0
C744 C 0.24364 0.41606 0.17613 0.0
C745 C 0.25951 0.42679 0.12777 0.0
C746 C 0.3143 0.41226 0.10777 0.0
H747 H 0.40968 0.49731 0.00637 0.0
H748 H 0.36556 0.47695 0.02998 0.0
H749 H 0.34661 0.409 0.08831 0.0
H750 H 0.26402 0.40071 0.20122 0.0
H751 H 0.29516 0.40396 0.16355 0.0
H752 H 0.30581 0.46676 0.1025 0.0
C753 C 0.38119 0.47401 0.03882 0.0
C754 C 0.33774 0.42169 0.09115 0.0
C755 C 0.40646 0.48565 0.02527 0.0
C756 C 0.26194 0.40705 0.1805 0.0
C757 C 0.27981 0.40905 0.15891 0.0
C758 C 0.31402 0.45358 0.09903 0.0
C759 C 0.37613 0.45863 0.06337 0.0
C760 C 0.34982 0.44738 0.07873 0.0
C761 C 0.27963 0.42016 0.13271 0.0
C762 C 0.30241 0.42829 0.11229 0.0
H763 H 0.4376 0.46359 0.06934 0.0
H764 H 0.39384 0.44376 0.0931 0.0
H765 H 0.34635 0.483 0.07356 0.0
H766 H 0.22813 0.43247 0.1458 0.0
H767 H 0.25847 0.43492 0.10769 0.0
C768 C 0.95228 0.43428 0.56449 0.0
C769 C 0.94692 0.43365 0.53567 0.0
C770 C 0.93763 0.41143 0.58113 0.0
C771 C 0.90001 0.33866 0.58173 0.0
H772 H 0.866 0.34734 0.64913 0.0
C773 C 0.82922 0.24969 0.65603 0.0
C774 C 0.82803 0.25584 0.68446 0.0
C775 C 0.84525 0.27024 0.63688 0.0
C776 C 0.87578 0.34457 0.63075 0.0
H777 H 0.92228 0.40834 0.50161 0.0
H778 H 0.89686 0.36787 0.53093 0.0
H779 H 0.89011 0.38501 0.61713 0.0
H780 H 0.84373 0.2875 0.71574 0.0
H781 H 0.87306 0.32297 0.68304 0.0
H782 H 0.88645 0.29843 0.59579 0.0
C783 C 0.91236 0.38631 0.54044 0.0
C784 C 0.88935 0.36615 0.61225 0.0
C785 C 0.92675 0.40945 0.52377 0.0
C786 C 0.84442 0.28234 0.69387 0.0
C787 C 0.86086 0.3027 0.67497 0.0
C788 C 0.88674 0.31706 0.60055 0.0
C789 C 0.91755 0.38724 0.56934 0.0
C790 C 0.90176 0.36351 0.58769 0.0
C791 C 0.86058 0.29721 0.646 0.0
C792 C 0.87468 0.31983 0.62551 0.0
H793 H 0.96763 0.45259 0.57435 0.0
H794 H 0.9421 0.41263 0.60332 0.0
H795 H 0.90959 0.33622 0.56295 0.0
H796 H 0.81631 0.2294 0.64829 0.0
H797 H 0.84435 0.26517 0.61479 0.0
C798 C 0.50984 0.92615 0.05553 0.0
C799 C 0.52778 0.95401 0.05759 0.0
C800 C 0.51255 0.90828 0.07297 0.0
C801 C 0.54351 0.90706 0.14026 0.0
H802 H 0.52456 0.83502 0.11586 0.0
C803 C 0.56585 0.83695 0.20521 0.0
C804 C 0.54371 0.81114 0.21055 0.0
C805 C 0.564 0.85375 0.18557 0.0
C806 C 0.52975 0.85505 0.1229 0.0
H807 H 0.56336 0.98498 0.07849 0.0
H808 H 0.56883 0.95378 0.10813 0.0
H809 H 0.52263 0.86608 0.08252 0.0
H810 H 0.5025 0.78242 0.19905 0.0
H811 H 0.4995 0.81187 0.16408 0.0
H812 H 0.55132 0.89613 0.18041 0.0
C813 C 0.55206 0.94571 0.09379 0.0
C814 C 0.52858 0.87282 0.1039 0.0
C815 C 0.54907 0.96361 0.07667 0.0
C816 C 0.51983 0.80225 0.19542 0.0
C817 C 0.51815 0.81898 0.17538 0.0
C818 C 0.54507 0.88945 0.15905 0.0
C819 C 0.53351 0.91786 0.09257 0.0
C820 C 0.5354 0.89905 0.11238 0.0
C821 C 0.54014 0.84496 0.17058 0.0
C822 C 0.53816 0.86331 0.15055 0.0
H823 H 0.49311 0.91818 0.04112 0.0
H824 H 0.49765 0.88705 0.07168 0.0
H825 H 0.54827 0.92681 0.14779 0.0
H826 H 0.58451 0.8444 0.21657 0.0
H827 H 0.58128 0.87365 0.18205 0.0
C828 C 0.57925 0.48294 0.51467 0.0
C829 C 0.5662 0.49766 0.52066 0.0
C830 C 0.6027 0.48864 0.52894 0.0
C831 C 0.65876 0.53979 0.57034 0.0
H832 H 0.6519 0.47993 0.61391 0.0
C833 C 0.72278 0.55615 0.66809 0.0
C834 C 0.72937 0.53657 0.67548 0.0
C835 C 0.70597 0.55191 0.64538 0.0
C836 C 0.6546 0.4968 0.60146 0.0
H837 H 0.56815 0.53079 0.5449 0.0
H838 H 0.60944 0.54117 0.56924 0.0
H839 H 0.6179 0.47212 0.57933 0.0
H840 H 0.72449 0.49767 0.66425 0.0
H841 H 0.69598 0.49066 0.62397 0.0
H842 H 0.69541 0.56457 0.59229 0.0
C843 C 0.60144 0.5251 0.55378 0.0
C844 C 0.63502 0.49227 0.58168 0.0
C845 C 0.57775 0.51905 0.53999 0.0
C846 C 0.71948 0.51299 0.65923 0.0
C847 C 0.70302 0.50894 0.63621 0.0
C848 C 0.67861 0.54428 0.58978 0.0
C849 C 0.61375 0.50956 0.54888 0.0
C850 C 0.63659 0.51383 0.56647 0.0
C851 C 0.69571 0.52817 0.62921 0.0
C852 C 0.6764 0.52296 0.60617 0.0
H853 H 0.57068 0.46627 0.49993 0.0
H854 H 0.61192 0.47642 0.52484 0.0
H855 H 0.66046 0.55669 0.55867 0.0
H856 H 0.72999 0.57446 0.68034 0.0
H857 H 0.70042 0.56697 0.64108 0.0
C858 C 0.01281 0.52456 0.09052 0.0
C859 C 0.00945 0.53088 0.063 0.0
C860 C 0.02914 0.5451 0.10923 0.0
C861 C 0.05996 0.61657 0.12512 0.0
H862 H 0.12358 0.61362 0.1461 0.0
C863 C 0.15302 0.71036 0.16719 0.0
C864 C 0.16803 0.70726 0.18829 0.0
C865 C 0.13296 0.68793 0.15321 0.0
C866 C 0.10576 0.61462 0.14097 0.0
H867 H 0.01872 0.5633 0.03394 0.0
H868 H 0.04631 0.59924 0.06706 0.0
H869 H 0.08683 0.57539 0.12203 0.0
H870 H 0.17432 0.67846 0.21108 0.0
H871 H 0.13857 0.63904 0.18741 0.0
H872 H 0.07833 0.65544 0.14432 0.0
C873 C 0.0367 0.57848 0.074 0.0
C874 C 0.08475 0.5927 0.12717 0.0
C875 C 0.02098 0.55799 0.05511 0.0
C876 C 0.1632 0.68138 0.19464 0.0
C877 C 0.14269 0.65881 0.18104 0.0
C878 C 0.08069 0.63827 0.1394 0.0
C879 C 0.04165 0.57216 0.10083 0.0
C880 C 0.06195 0.59375 0.11869 0.0
C881 C 0.12698 0.66178 0.16048 0.0
C882 C 0.10417 0.63786 0.14694 0.0
H883 H 0.00436 0.50377 0.09695 0.0
H884 H 0.03272 0.53986 0.12988 0.0
H885 H 0.04246 0.6177 0.11882 0.0
H886 H 0.15653 0.73016 0.16175 0.0
H887 H 0.12196 0.69115 0.13689 0.0
loop_
_geom_bond_atom_site_label_1
_geom_bond_atom_site_label_2
_geom_bond_distance
_geom_bond_site_symmetry_2
_ccdc_geom_bond_type
C0 O2 1.258 . S
C0 O4 1.258 . S
C1 O8 1.250 . S
C1 O9 1.258 . S
O2 C0 1.258 . S
O2 Zn3 2.025 1_455 S
Zn3 O2 2.025 1_655 S
Zn3 O7 2.035 1_554 S
Zn3 O9 2.035 1_554 S
Zn3 O10 2.014 1_655 S
O4 C0 1.258 . S
O4 Zn5 2.035 1_554 S
Zn5 O4 2.035 1_556 S
Zn5 O6 2.023 1_455 S
Zn5 O8 2.027 1_455 S
Zn5 O11 2.035 1_556 S
O6 Zn5 2.023 1_655 S
O6 C12 1.252 . S
O7 Zn3 2.035 1_556 S
O7 C12 1.258 . S
O8 C1 1.250 . S
O8 Zn5 2.027 1_655 S
O9 C1 1.258 . S
O9 Zn3 2.035 1_556 S
O10 Zn3 2.014 1_455 S
O10 C13 1.262 . S
O11 Zn5 2.035 1_554 S
O11 C13 1.258 . S
C12 O6 1.252 . S
C12 O7 1.258 . S
C13 O10 1.262 . S
C13 O11 1.258 . S
C14 O16 1.262 . S
C14 O18 1.258 . S
C15 O22 1.252 . S
C15 O23 1.258 . S
O16 C14 1.262 . S
O16 Zn17 2.014 1_545 S
Zn17 O16 2.014 1_565 S
Zn17 O21 2.035 . S
Zn17 O23 2.035 . S
Zn17 O24 2.025 1_565 S
O18 C14 1.258 . S
O18 Zn19 2.035 . S
Zn19 O18 2.035 . S
Zn19 O20 2.027 1_545 S
Zn19 O22 2.023 1_545 S
Zn19 O25 2.035 . S
O20 Zn19 2.027 1_565 S
O20 C26 1.250 . S
O21 Zn17 2.035 . S
O21 C26 1.258 . S
O22 C15 1.252 . S
O22 Zn19 2.023 1_565 S
O23 C15 1.258 . S
O23 Zn17 2.035 . S
O24 Zn17 2.025 1_545 S
O24 C27 1.258 . S
O25 Zn19 2.035 . S
O25 C27 1.258 . S
C26 O20 1.250 . S
C26 O21 1.258 . S
C27 O24 1.258 . S
C27 O25 1.258 . S
C28 O30 1.247 . S
C28 O32 1.258 . S
C29 O36 1.247 . S
C29 O37 1.258 . S
O30 C28 1.247 . S
O30 Zn31 2.028 . S
Zn31 O30 2.028 . S
Zn31 O35 2.035 1_556 S
Zn31 O37 2.035 1_556 S
Zn31 O38 2.028 . S
O32 C28 1.258 . S
O32 Zn33 2.035 1_556 S
Zn33 O32 2.035 1_554 S
Zn33 O34 2.028 . S
Zn33 O36 2.028 . S
Zn33 O39 2.035 1_554 S
O34 Zn33 2.028 . S
O34 C40 1.247 . S
O35 Zn31 2.035 1_554 S
O35 C40 1.258 . S
O36 C29 1.247 . S
O36 Zn33 2.028 . S
O37 C29 1.258 . S
O37 Zn31 2.035 1_554 S
O38 Zn31 2.028 . S
O38 C41 1.247 . S
O39 Zn33 2.035 1_556 S
O39 C41 1.258 . S
C40 O34 1.247 . S
C40 O35 1.258 . S
C41 O38 1.247 . S
C41 O39 1.258 . S
C42 O44 1.247 . S
C42 O46 1.271 . S
C43 O50 1.247 . S
C43 O51 1.263 . S
O44 C42 1.247 . S
O44 Zn45 2.028 . S
Zn45 O44 2.028 . S
Zn45 O49 2.029 1_455 S
Zn45 O51 2.034 1_455 S
Zn45 O52 2.028 . S
O46 C42 1.271 . S
O46 Zn47 2.032 1_455 S
Zn47 O46 2.032 1_655 S
Zn47 O48 2.028 . S
Zn47 O50 2.028 . S
Zn47 O53 2.020 1_655 S
O48 Zn47 2.028 . S
O48 C54 1.247 . S
O49 Zn45 2.029 1_655 S
O49 C54 1.265 . S
O50 C43 1.247 . S
O50 Zn47 2.028 . S
O51 C43 1.263 . S
O51 Zn45 2.034 1_655 S
O52 Zn45 2.028 . S
O52 C55 1.247 . S
O53 Zn47 2.020 1_455 S
O53 C55 1.276 . S
C54 O48 1.247 . S
C54 O49 1.265 . S
C55 O52 1.247 . S
C55 O53 1.276 . S
C56 O58 1.252 . S
C56 O60 1.258 . S
C57 O64 1.262 . S
C57 O65 1.258 . S
O58 C56 1.252 . S
O58 Zn59 2.023 1_565 S
Zn59 O58 2.023 1_545 S
Zn59 O63 2.035 1_554 S
Zn59 O65 2.035 1_554 S
Zn59 O66 2.027 1_545 S
O60 C56 1.258 . S
O60 Zn61 2.035 1_554 S
Zn61 O60 2.035 1_556 S
Zn61 O62 2.025 1_565 S
Zn61 O64 2.014 1_565 S
Zn61 O67 2.035 1_556 S
O62 Zn61 2.025 1_545 S
O62 C68 1.258 . S
O63 Zn59 2.035 1_556 S
O63 C68 1.258 . S
O64 C57 1.262 . S
O64 Zn61 2.014 1_545 S
O65 C57 1.258 . S
O65 Zn59 2.035 1_556 S
O66 Zn59 2.027 1_565 S
O66 C69 1.250 . S
O67 Zn61 2.035 1_554 S
O67 C69 1.258 . S
C68 O62 1.258 . S
C68 O63 1.258 . S
C69 O66 1.250 . S
C69 O67 1.258 . S
C70 O72 1.247 . S
C70 O74 1.258 . S
C71 O78 1.247 . S
C71 O79 1.258 . S
O72 C70 1.247 . S
O72 Zn73 2.028 . S
Zn73 O72 2.028 . S
Zn73 O77 2.035 . S
Zn73 O79 2.035 . S
Zn73 O80 2.028 . S
O74 C70 1.258 . S
O74 Zn75 2.035 . S
Zn75 O74 2.035 . S
Zn75 O76 2.028 . S
Zn75 O78 2.028 . S
Zn75 O81 2.035 . S
O76 Zn75 2.028 . S
O76 C82 1.247 . S
O77 Zn73 2.035 . S
O77 C82 1.258 . S
O78 C71 1.247 . S
O78 Zn75 2.028 . S
O79 C71 1.258 . S
O79 Zn73 2.035 . S
O80 Zn73 2.028 . S
O80 C83 1.247 . S
O81 Zn75 2.035 . S
O81 C83 1.258 . S
C82 O76 1.247 . S
C82 O77 1.258 . S
C83 O80 1.247 . S
C83 O81 1.258 . S
C84 O86 1.247 . S
C84 O88 1.258 . S
C85 O92 1.247 . S
C85 O93 1.258 . S
O86 C84 1.247 . S
O86 Zn87 2.028 . S
Zn87 O86 2.028 . S
Zn87 O91 2.035 . S
Zn87 O93 2.035 . S
Zn87 O94 2.028 . S
O88 C84 1.258 . S
O88 Zn89 2.035 . S
Zn89 O88 2.035 . S
Zn89 O90 2.028 . S
Zn89 O92 2.028 . S
Zn89 O95 2.035 . S
O90 Zn89 2.028 . S
O90 C96 1.247 . S
O91 Zn87 2.035 . S
O91 C96 1.258 . S
O92 C85 1.247 . S
O92 Zn89 2.028 . S
O93 C85 1.258 . S
O93 Zn87 2.035 . S
O94 Zn87 2.028 . S
O94 C97 1.247 . S
O95 Zn89 2.035 . S
O95 C97 1.258 . S
C96 O90 1.247 . S
C96 O91 1.258 . S
C97 O94 1.247 . S
C97 O95 1.258 . S
C98 O100 1.247 . S
C98 O102 1.258 . S
C99 O106 1.247 . S
C99 O107 1.258 . S
O100 C98 1.247 . S
O100 Zn101 2.028 . S
Zn101 O100 2.028 . S
Zn101 O105 2.035 . S
Zn101 O107 2.035 . S
Zn101 O108 2.028 . S
O102 C98 1.258 . S
O102 Zn103 2.035 . S
Zn103 O102 2.035 . S
Zn103 O104 2.028 . S
Zn103 O106 2.028 . S
Zn103 O109 2.035 . S
O104 Zn103 2.028 . S
O104 C110 1.247 . S
O105 Zn101 2.035 . S
O105 C110 1.258 . S
O106 C99 1.247 . S
O106 Zn103 2.028 . S
O107 C99 1.258 . S
O107 Zn101 2.035 . S
O108 Zn101 2.028 . S
O108 C111 1.247 . S
O109 Zn103 2.035 . S
O109 C111 1.258 . S
C110 O104 1.247 . S
C110 O105 1.258 . S
C111 O108 1.247 . S
C111 O109 1.258 . S
C112 O114 1.247 . S
C112 O116 1.258 . S
C113 O120 1.247 . S
C113 O121 1.258 . S
O114 C112 1.247 . S
O114 Zn115 2.028 . S
Zn115 O114 2.028 . S
Zn115 O119 2.035 . S
Zn115 O121 2.035 . S
Zn115 O122 2.028 . S
O116 C112 1.258 . S
O116 Zn117 2.035 . S
Zn117 O116 2.035 . S
Zn117 O118 2.028 . S
Zn117 O120 2.028 . S
Zn117 O123 2.035 . S
O118 Zn117 2.028 . S
O118 C124 1.247 . S
O119 Zn115 2.035 . S
O119 C124 1.258 . S
O120 C113 1.247 . S
O120 Zn117 2.028 . S
O121 C113 1.258 . S
O121 Zn115 2.035 . S
O122 Zn115 2.028 . S
O122 C125 1.247 . S
O123 Zn117 2.035 . S
O123 C125 1.258 . S
C124 O118 1.247 . S
C124 O119 1.258 . S
C125 O122 1.247 . S
C125 O123 1.258 . S
C126 O128 1.247 . S
C126 O130 1.258 . S
C127 O134 1.247 . S
C127 O135 1.258 . S
O128 C126 1.247 . S
O128 Zn129 2.028 . S
Zn129 O128 2.028 . S
Zn129 O133 2.035 . S
Zn129 O135 2.035 . S
Zn129 O136 2.028 . S
O130 C126 1.258 . S
O130 Zn131 2.035 . S
Zn131 O130 2.035 . S
Zn131 O132 2.028 . S
Zn131 O134 2.028 . S
Zn131 O137 2.035 . S
O132 Zn131 2.028 . S
O132 C138 1.247 . S
O133 Zn129 2.035 . S
O133 C138 1.258 . S
O134 C127 1.247 . S
O134 Zn131 2.028 . S
O135 C127 1.258 . S
O135 Zn129 2.035 . S
O136 Zn129 2.028 . S
O136 C139 1.247 . S
O137 Zn131 2.035 . S
O137 C139 1.258 . S
C138 O132 1.247 . S
C138 O133 1.258 . S
C139 O136 1.247 . S
C139 O137 1.258 . S
C140 O142 1.247 . S
C140 O144 1.258 . S
C141 O148 1.247 . S
C141 O149 1.258 . S
O142 C140 1.247 . S
O142 Zn143 2.028 . S
Zn143 O142 2.028 . S
Zn143 O147 2.035 . S
Zn143 O149 2.035 . S
Zn143 O150 2.028 . S
O144 C140 1.258 . S
O144 Zn145 2.035 . S
Zn145 O144 2.035 . S
Zn145 O146 2.028 . S
Zn145 O148 2.028 . S
Zn145 O151 2.035 . S
O146 Zn145 2.028 . S
O146 C152 1.247 . S
O147 Zn143 2.035 . S
O147 C152 1.258 . S
O148 C141 1.247 . S
O148 Zn145 2.028 . S
O149 C141 1.258 . S
O149 Zn143 2.035 . S
O150 Zn143 2.028 . S
O150 C153 1.247 . S
O151 Zn145 2.035 . S
O151 C153 1.258 . S
C152 O146 1.247 . S
C152 O147 1.258 . S
C153 O150 1.247 . S
C153 O151 1.258 . S
C154 O156 1.247 . S
C154 O158 1.258 . S
C155 O162 1.247 . S
C155 O163 1.258 . S
O156 C154 1.247 . S
O156 Zn157 2.028 . S
Zn157 O156 2.028 . S
Zn157 O161 2.035 . S
Zn157 O163 2.035 . S
Zn157 O164 2.028 . S
O158 C154 1.258 . S
O158 Zn159 2.035 . S
Zn159 O158 2.035 . S
Zn159 O160 2.028 . S
Zn159 O162 2.028 . S
Zn159 O165 2.035 . S
O160 Zn159 2.028 . S
O160 C166 1.247 . S
O161 Zn157 2.035 . S
O161 C166 1.258 . S
O162 C155 1.247 . S
O162 Zn159 2.028 . S
O163 C155 1.258 . S
O163 Zn157 2.035 . S
O164 Zn157 2.028 . S
O164 C167 1.247 . S
O165 Zn159 2.035 . S
O165 C167 1.258 . S
C166 O160 1.247 . S
C166 O161 1.258 . S
C167 O164 1.247 . S
C167 O165 1.258 . S
C168 C169 1.349 . S
C168 C170 1.327 . S
C168 H193 0.950 . S
C169 C168 1.349 . S
C169 C185 1.349 . S
C170 C168 1.327 . S
C170 C189 1.429 . S
C170 H194 0.950 . S
C171 C188 1.574 . S
C171 C190 1.368 . S
C171 H195 0.949 . S
H172 C176 0.949 . S
C173 C174 1.349 . S
C173 C175 1.327 . S
C173 H196 0.950 . S
C174 C173 1.349 . S
C174 C186 1.349 . S
C175 C173 1.327 . S
C175 C191 1.429 . S
C175 H197 0.950 . S
C176 H172 0.949 . S
C176 C184 1.574 . S
C176 C192 1.368 . S
H177 C185 0.950 . S
H178 C183 0.950 . S
H179 C184 0.949 . S
H180 C186 0.950 . S
H181 C187 0.950 . S
H182 C188 0.949 . S
C183 H178 0.950 . S
C183 C185 1.327 . S
C183 C189 1.429 . S
C184 C176 1.574 . S
C184 H179 0.949 . S
C184 C190 1.368 . S
C185 C169 1.349 . S
C185 H177 0.950 . S
C185 C183 1.327 . S
C186 C174 1.349 . S
C186 H180 0.950 . S
C186 C187 1.327 . S
C187 H181 0.950 . S
C187 C186 1.327 . S
C187 C191 1.429 . S
C188 C171 1.574 . S
C188 H182 0.949 . S
C188 C192 1.368 . S
C189 C170 1.429 . S
C189 C183 1.429 . S
C189 C190 1.523 . S
C190 C171 1.368 . S
C190 C184 1.368 . S
C190 C189 1.523 . S
C191 C175 1.429 . S
C191 C187 1.429 . S
C191 C192 1.523 . S
C192 C176 1.368 . S
C192 C188 1.368 . S
C192 C191 1.523 . S
H193 C168 0.950 . S
H194 C170 0.950 . S
H195 C171 0.949 . S
H196 C173 0.950 . S
H197 C175 0.950 . S
C198 C199 1.349 . S
C198 C200 1.327 . S
C198 H223 0.950 . S
C199 C198 1.349 . S
C199 C215 1.349 . S
C200 C198 1.327 . S
C200 C219 1.429 . S
C200 H224 0.950 . S
C201 C218 1.574 . S
C201 C220 1.368 . S
C201 H225 0.949 . S
H202 C206 0.949 . S
C203 C204 1.349 . S
C203 C205 1.327 . S
C203 H226 0.950 . S
C204 C203 1.349 . S
C204 C216 1.349 . S
C205 C203 1.327 . S
C205 C221 1.429 . S
C205 H227 0.950 . S
C206 H202 0.949 . S
C206 C214 1.574 . S
C206 C222 1.368 . S
H207 C215 0.950 . S
H208 C213 0.950 . S
H209 C214 0.949 . S
H210 C216 0.950 . S
H211 C217 0.950 . S
H212 C218 0.949 . S
C213 H208 0.950 . S
C213 C215 1.327 . S
C213 C219 1.429 . S
C214 C206 1.574 . S
C214 H209 0.949 . S
C214 C220 1.368 . S
C215 C199 1.349 . S
C215 H207 0.950 . S
C215 C213 1.327 . S
C216 C204 1.349 . S
C216 H210 0.950 . S
C216 C217 1.327 . S
C217 H211 0.950 . S
C217 C216 1.327 . S
C217 C221 1.429 . S
C218 C201 1.574 . S
C218 H212 0.949 . S
C218 C222 1.368 . S
C219 C200 1.429 . S
C219 C213 1.429 . S
C219 C220 1.523 . S
C220 C201 1.368 . S
C220 C214 1.368 . S
C220 C219 1.523 . S
C221 C205 1.429 . S
C221 C217 1.429 . S
C221 C222 1.523 . S
C222 C206 1.368 . S
C222 C218 1.368 . S
C222 C221 1.523 . S
H223 C198 0.950 . S
H224 C200 0.950 . S
H225 C201 0.949 . S
H226 C203 0.950 . S
H227 C205 0.950 . S
C228 C229 1.349 . S
C228 C230 1.327 . S
C228 H253 0.950 . S
C229 C228 1.349 . S
C229 C245 1.349 . S
C230 C228 1.327 . S
C230 C249 1.429 . S
C230 H254 0.950 . S
C231 C248 1.574 . S
C231 C250 1.368 . S
C231 H255 0.949 . S
H232 C236 0.949 . S
C233 C234 1.349 . S
C233 C235 1.327 . S
C233 H256 0.950 . S
C234 C233 1.349 . S
C234 C246 1.349 . S
C235 C233 1.327 . S
C235 C251 1.429 . S
C235 H257 0.950 . S
C236 H232 0.949 . S
C236 C244 1.574 . S
C236 C252 1.368 . S
H237 C245 0.950 . S
H238 C243 0.950 . S
H239 C244 0.949 . S
H240 C246 0.950 . S
H241 C247 0.950 . S
H242 C248 0.949 . S
C243 H238 0.950 . S
C243 C245 1.327 . S
C243 C249 1.429 . S
C244 C236 1.574 . S
C244 H239 0.949 . S
C244 C250 1.368 . S
C245 C229 1.349 . S
C245 H237 0.950 . S
C245 C243 1.327 . S
C246 C234 1.349 . S
C246 H240 0.950 . S
C246 C247 1.327 . S
C247 H241 0.950 . S
C247 C246 1.327 . S
C247 C251 1.429 . S
C248 C231 1.574 . S
C248 H242 0.949 . S
C248 C252 1.368 . S
C249 C230 1.429 . S
C249 C243 1.429 . S
C249 C250 1.523 . S
C250 C231 1.368 . S
C250 C244 1.368 . S
C250 C249 1.523 . S
C251 C235 1.429 . S
C251 C247 1.429 . S
C251 C252 1.523 . S
C252 C236 1.368 . S
C252 C248 1.368 . S
C252 C251 1.523 . S
H253 C228 0.950 . S
H254 C230 0.950 . S
H255 C231 0.949 . S
H256 C233 0.950 . S
H257 C235 0.950 . S
C258 C259 1.349 . S
C258 C260 1.327 . S
C258 H283 0.950 . S
C259 C258 1.349 . S
C259 C275 1.349 . S
C260 C258 1.327 . S
C260 C279 1.429 . S
C260 H284 0.950 . S
C261 C278 1.574 . S
C261 C280 1.368 . S
C261 H285 0.949 . S
H262 C266 0.949 . S
C263 C264 1.349 . S
C263 C265 1.327 . S
C263 H286 0.950 . S
C264 C263 1.349 . S
C264 C276 1.349 . S
C265 C263 1.327 . S
C265 C281 1.429 . S
C265 H287 0.950 . S
C266 H262 0.949 . S
C266 C274 1.574 . S
C266 C282 1.368 . S
H267 C275 0.950 . S
H268 C273 0.950 . S
H269 C274 0.949 . S
H270 C276 0.950 . S
H271 C277 0.950 . S
H272 C278 0.949 . S
C273 H268 0.950 . S
C273 C275 1.327 . S
C273 C279 1.429 . S
C274 C266 1.574 . S
C274 H269 0.949 . S
C274 C280 1.368 . S
C275 C259 1.349 . S
C275 H267 0.950 . S
C275 C273 1.327 . S
C276 C264 1.349 . S
C276 H270 0.950 . S
C276 C277 1.327 . S
C277 H271 0.950 . S
C277 C276 1.327 . S
C277 C281 1.429 . S
C278 C261 1.574 . S
C278 H272 0.949 . S
C278 C282 1.368 . S
C279 C260 1.429 . S
C279 C273 1.429 . S
C279 C280 1.523 . S
C280 C261 1.368 . S
C280 C274 1.368 . S
C280 C279 1.523 . S
C281 C265 1.429 . S
C281 C277 1.429 . S
C281 C282 1.523 . S
C282 C266 1.368 . S
C282 C278 1.368 . S
C282 C281 1.523 . S
H283 C258 0.950 . S
H284 C260 0.950 . S
H285 C261 0.949 . S
H286 C263 0.950 . S
H287 C265 0.950 . S
C288 C289 1.349 . S
C288 C290 1.327 . S
C288 H313 0.950 . S
C289 C288 1.349 . S
C289 C305 1.349 . S
C290 C288 1.327 . S
C290 C309 1.429 . S
C290 H314 0.950 . S
C291 C308 1.574 . S
C291 C310 1.368 . S
C291 H315 0.949 . S
H292 C296 0.949 . S
C293 C294 1.349 . S
C293 C295 1.327 . S
C293 H316 0.950 . S
C294 C293 1.349 . S
C294 C306 1.349 . S
C295 C293 1.327 . S
C295 C311 1.429 . S
C295 H317 0.950 . S
C296 H292 0.949 . S
C296 C304 1.574 . S
C296 C312 1.368 . S
H297 C305 0.950 . S
H298 C303 0.950 . S
H299 C304 0.949 . S
H300 C306 0.950 . S
H301 C307 0.950 . S
H302 C308 0.949 . S
C303 H298 0.950 . S
C303 C305 1.327 . S
C303 C309 1.429 . S
C304 C296 1.574 . S
C304 H299 0.949 . S
C304 C310 1.368 . S
C305 C289 1.349 . S
C305 H297 0.950 . S
C305 C303 1.327 . S
C306 C294 1.349 . S
C306 H300 0.950 . S
C306 C307 1.327 . S
C307 H301 0.950 . S
C307 C306 1.327 . S
C307 C311 1.429 . S
C308 C291 1.574 . S
C308 H302 0.949 . S
C308 C312 1.368 . S
C309 C290 1.429 . S
C309 C303 1.429 . S
C309 C310 1.523 . S
C310 C291 1.368 . S
C310 C304 1.368 . S
C310 C309 1.523 . S
C311 C295 1.429 . S
C311 C307 1.429 . S
C311 C312 1.523 . S
C312 C296 1.368 . S
C312 C308 1.368 . S
C312 C311 1.523 . S
H313 C288 0.950 . S
H314 C290 0.950 . S
H315 C291 0.949 . S
H316 C293 0.950 . S
H317 C295 0.950 . S
C318 C319 1.349 . S
C318 C320 1.327 . S
C318 H343 0.950 . S
C319 C318 1.349 . S
C319 C335 1.349 . S
C320 C318 1.327 . S
C320 C339 1.429 . S
C320 H344 0.950 . S
C321 C338 1.574 . S
C321 C340 1.368 . S
C321 H345 0.949 . S
H322 C326 0.949 . S
C323 C324 1.349 . S
C323 C325 1.327 . S
C323 H346 0.950 . S
C324 C323 1.349 . S
C324 C336 1.349 . S
C325 C323 1.327 . S
C325 C341 1.429 . S
C325 H347 0.950 . S
C326 H322 0.949 . S
C326 C334 1.574 . S
C326 C342 1.368 . S
H327 C335 0.950 . S
H328 C333 0.950 . S
H329 C334 0.949 . S
H330 C336 0.950 . S
H331 C337 0.950 . S
H332 C338 0.949 . S
C333 H328 0.950 . S
C333 C335 1.327 . S
C333 C339 1.429 . S
C334 C326 1.574 . S
C334 H329 0.949 . S
C334 C340 1.368 . S
C335 C319 1.349 . S
C335 H327 0.950 . S
C335 C333 1.327 . S
C336 C324 1.349 . S
C336 H330 0.950 . S
C336 C337 1.327 . S
C337 H331 0.950 . S
C337 C336 1.327 . S
C337 C341 1.429 . S
C338 C321 1.574 . S
C338 H332 0.949 . S
C338 C342 1.368 . S
C339 C320 1.429 . S
C339 C333 1.429 . S
C339 C340 1.523 . S
C340 C321 1.368 . S
C340 C334 1.368 . S
C340 C339 1.523 . S
C341 C325 1.429 . S
C341 C337 1.429 . S
C341 C342 1.523 . S
C342 C326 1.368 . S
C342 C338 1.368 . S
C342 C341 1.523 . S
H343 C318 0.950 . S
H344 C320 0.950 . S
H345 C321 0.949 . S
H346 C323 0.950 . S
H347 C325 0.950 . S
C348 C349 1.349 . S
C348 C350 1.327 . S
C348 H373 0.950 . S
C349 C348 1.349 . S
C349 C365 1.349 . S
C350 C348 1.327 . S
C350 C369 1.429 . S
C350 H374 0.950 . S
C351 C368 1.574 . S
C351 C370 1.368 . S
C351 H375 0.949 . S
H352 C356 0.949 . S
C353 C354 1.349 . S
C353 C355 1.327 . S
C353 H376 0.950 . S
C354 C353 1.349 . S
C354 C366 1.349 . S
C355 C353 1.327 . S
C355 C371 1.429 . S
C355 H377 0.950 . S
C356 H352 0.949 . S
C356 C364 1.574 . S
C356 C372 1.368 . S
H357 C365 0.950 . S
H358 C363 0.950 . S
H359 C364 0.949 . S
H360 C366 0.950 . S
H361 C367 0.950 . S
H362 C368 0.949 . S
C363 H358 0.950 . S
C363 C365 1.327 . S
C363 C369 1.429 . S
C364 C356 1.574 . S
C364 H359 0.949 . S
C364 C370 1.368 . S
C365 C349 1.349 . S
C365 H357 0.950 . S
C365 C363 1.327 . S
C366 C354 1.349 . S
C366 H360 0.950 . S
C366 C367 1.327 . S
C367 H361 0.950 . S
C367 C366 1.327 . S
C367 C371 1.429 . S
C368 C351 1.574 . S
C368 H362 0.949 . S
C368 C372 1.368 . S
C369 C350 1.429 . S
C369 C363 1.429 . S
C369 C370 1.523 . S
C370 C351 1.368 . S
C370 C364 1.368 . S
C370 C369 1.523 . S
C371 C355 1.429 . S
C371 C367 1.429 . S
C371 C372 1.523 . S
C372 C356 1.368 . S
C372 C368 1.368 . S
C372 C371 1.523 . S
H373 C348 0.950 . S
H374 C350 0.950 . S
H375 C351 0.949 . S
H376 C353 0.950 . S
H377 C355 0.950 . S
C378 C379 1.349 . S
C378 C380 1.327 . S
C378 H403 0.950 . S
C379 C378 1.349 . S
C379 C395 1.349 . S
C380 C378 1.327 . S
C380 C399 1.429 . S
C380 H404 0.950 . S
C381 C398 1.574 . S
C381 C400 1.368 . S
C381 H405 0.949 . S
H382 C386 0.949 . S
C383 C384 1.349 . S
C383 C385 1.327 . S
C383 H406 0.950 . S
C384 C383 1.349 . S
C384 C396 1.349 . S
C385 C383 1.327 . S
C385 C401 1.429 . S
C385 H407 0.950 . S
C386 H382 0.949 . S
C386 C394 1.574 . S
C386 C402 1.368 . S
H387 C395 0.950 . S
H388 C393 0.950 . S
H389 C394 0.949 . S
H390 C396 0.950 . S
H391 C397 0.950 . S
H392 C398 0.949 . S
C393 H388 0.950 . S
C393 C395 1.327 . S
C393 C399 1.429 . S
C394 C386 1.574 . S
C394 H389 0.949 . S
C394 C400 1.368 . S
C395 C379 1.349 . S
C395 H387 0.950 . S
C395 C393 1.327 . S
C396 C384 1.349 . S
C396 H390 0.950 . S
C396 C397 1.327 . S
C397 H391 0.950 . S
C397 C396 1.327 . S
C397 C401 1.429 . S
C398 C381 1.574 . S
C398 H392 0.949 . S
C398 C402 1.368 . S
C399 C380 1.429 . S
C399 C393 1.429 . S
C399 C400 1.523 . S
C400 C381 1.368 . S
C400 C394 1.368 . S
C400 C399 1.523 . S
C401 C385 1.429 . S
C401 C397 1.429 . S
C401 C402 1.523 . S
C402 C386 1.368 . S
C402 C398 1.368 . S
C402 C401 1.523 . S
H403 C378 0.950 . S
H404 C380 0.950 . S
H405 C381 0.949 . S
H406 C383 0.950 . S
H407 C385 0.950 . S
C408 C409 1.349 . S
C408 C410 1.327 . S
C408 H433 0.950 . S
C409 C408 1.349 . S
C409 C425 1.349 . S
C410 C408 1.327 . S
C410 C429 1.429 . S
C410 H434 0.950 . S
C411 C428 1.574 . S
C411 C430 1.368 . S
C411 H435 0.949 . S
H412 C416 0.949 . S
C413 C414 1.349 . S
C413 C415 1.327 . S
C413 H436 0.950 . S
C414 C413 1.349 . S
C414 C426 1.349 . S
C415 C413 1.327 . S
C415 C431 1.429 . S
C415 H437 0.950 . S
C416 H412 0.949 . S
C416 C424 1.574 . S
C416 C432 1.368 . S
H417 C425 0.950 . S
H418 C423 0.950 . S
H419 C424 0.949 . S
H420 C426 0.950 . S
H421 C427 0.950 . S
H422 C428 0.949 . S
C423 H418 0.950 . S
C423 C425 1.327 . S
C423 C429 1.429 . S
C424 C416 1.574 . S
C424 H419 0.949 . S
C424 C430 1.368 . S
C425 C409 1.349 . S
C425 H417 0.950 . S
C425 C423 1.327 . S
C426 C414 1.349 . S
C426 H420 0.950 . S
C426 C427 1.327 . S
C427 H421 0.950 . S
C427 C426 1.327 . S
C427 C431 1.429 . S
C428 C411 1.574 . S
C428 H422 0.949 . S
C428 C432 1.368 . S
C429 C410 1.429 . S
C429 C423 1.429 . S
C429 C430 1.523 . S
C430 C411 1.368 . S
C430 C424 1.368 . S
C430 C429 1.523 . S
C431 C415 1.429 . S
C431 C427 1.429 . S
C431 C432 1.523 . S
C432 C416 1.368 . S
C432 C428 1.368 . S
C432 C431 1.523 . S
H433 C408 0.950 . S
H434 C410 0.950 . S
H435 C411 0.949 . S
H436 C413 0.950 . S
H437 C415 0.950 . S
C438 C439 1.349 . S
C438 C440 1.327 . S
C438 H463 0.950 . S
C439 C438 1.349 . S
C439 C455 1.349 . S
C440 C438 1.327 . S
C440 C459 1.429 . S
C440 H464 0.950 . S
C441 C458 1.574 . S
C441 C460 1.368 . S
C441 H465 0.949 . S
H442 C446 0.949 . S
C443 C444 1.349 . S
C443 C445 1.327 . S
C443 H466 0.950 . S
C444 C443 1.349 . S
C444 C456 1.349 . S
C445 C443 1.327 . S
C445 C461 1.429 . S
C445 H467 0.950 . S
C446 H442 0.949 . S
C446 C454 1.574 . S
C446 C462 1.368 . S
H447 C455 0.950 . S
H448 C453 0.950 . S
H449 C454 0.949 . S
H450 C456 0.950 . S
H451 C457 0.950 . S
H452 C458 0.949 . S
C453 H448 0.950 . S
C453 C455 1.327 . S
C453 C459 1.429 . S
C454 C446 1.574 . S
C454 H449 0.949 . S
C454 C460 1.368 . S
C455 C439 1.349 . S
C455 H447 0.950 . S
C455 C453 1.327 . S
C456 C444 1.349 . S
C456 H450 0.950 . S
C456 C457 1.327 . S
C457 H451 0.950 . S
C457 C456 1.327 . S
C457 C461 1.429 . S
C458 C441 1.574 . S
C458 H452 0.949 . S
C458 C462 1.368 . S
C459 C440 1.429 . S
C459 C453 1.429 . S
C459 C460 1.523 . S
C460 C441 1.368 . S
C460 C454 1.368 . S
C460 C459 1.523 . S
C461 C445 1.429 . S
C461 C457 1.429 . S
C461 C462 1.523 . S
C462 C446 1.368 . S
C462 C458 1.368 . S
C462 C461 1.523 . S
H463 C438 0.950 . S
H464 C440 0.950 . S
H465 C441 0.949 . S
H466 C443 0.950 . S
H467 C445 0.950 . S
C468 C469 1.349 . S
C468 C470 1.327 . S
C468 H493 0.950 . S
C469 C468 1.349 . S
C469 C485 1.349 . S
C470 C468 1.327 . S
C470 C489 1.429 . S
C470 H494 0.950 . S
C471 C488 1.574 . S
C471 C490 1.368 . S
C471 H495 0.949 . S
H472 C476 0.949 . S
C473 C474 1.349 . S
C473 C475 1.327 . S
C473 H496 0.950 . S
C474 C473 1.349 . S
C474 C486 1.349 . S
C475 C473 1.327 . S
C475 C491 1.429 . S
C475 H497 0.950 . S
C476 H472 0.949 . S
C476 C484 1.574 . S
C476 C492 1.368 . S
H477 C485 0.950 . S
H478 C483 0.950 . S
H479 C484 0.949 . S
H480 C486 0.950 . S
H481 C487 0.950 . S
H482 C488 0.949 . S
C483 H478 0.950 . S
C483 C485 1.327 . S
C483 C489 1.429 . S
C484 C476 1.574 . S
C484 H479 0.949 . S
C484 C490 1.368 . S
C485 C469 1.349 . S
C485 H477 0.950 . S
C485 C483 1.327 . S
C486 C474 1.349 . S
C486 H480 0.950 . S
C486 C487 1.327 . S
C487 H481 0.950 . S
C487 C486 1.327 . S
C487 C491 1.429 . S
C488 C471 1.574 . S
C488 H482 0.949 . S
C488 C492 1.368 . S
C489 C470 1.429 . S
C489 C483 1.429 . S
C489 C490 1.523 . S
C490 C471 1.368 . S
C490 C484 1.368 . S
C490 C489 1.523 . S
C491 C475 1.429 . S
C491 C487 1.429 . S
C491 C492 1.523 . S
C492 C476 1.368 . S
C492 C488 1.368 . S
C492 C491 1.523 . S
H493 C468 0.950 . S
H494 C470 0.950 . S
H495 C471 0.949 . S
H496 C473 0.950 . S
H497 C475 0.950 . S
C498 C499 1.349 . S
C498 C500 1.327 . S
C498 H523 0.950 . S
C499 C498 1.349 . S
C499 C515 1.349 . S
C500 C498 1.327 . S
C500 C519 1.429 . S
C500 H524 0.950 . S
C501 C518 1.574 . S
C501 C520 1.368 . S
C501 H525 0.949 . S
H502 C506 0.949 . S
C503 C504 1.349 . S
C503 C505 1.327 . S
C503 H526 0.950 . S
C504 C503 1.349 . S
C504 C516 1.349 . S
C505 C503 1.327 . S
C505 C521 1.429 . S
C505 H527 0.950 . S
C506 H502 0.949 . S
C506 C514 1.574 . S
C506 C522 1.368 . S
H507 C515 0.950 . S
H508 C513 0.950 . S
H509 C514 0.949 . S
H510 C516 0.950 . S
H511 C517 0.950 . S
H512 C518 0.949 . S
C513 H508 0.950 . S
C513 C515 1.327 . S
C513 C519 1.429 . S
C514 C506 1.574 . S
C514 H509 0.949 . S
C514 C520 1.368 . S
C515 C499 1.349 . S
C515 H507 0.950 . S
C515 C513 1.327 . S
C516 C504 1.349 . S
C516 H510 0.950 . S
C516 C517 1.327 . S
C517 H511 0.950 . S
C517 C516 1.327 . S
C517 C521 1.429 . S
C518 C501 1.574 . S
C518 H512 0.949 . S
C518 C522 1.368 . S
C519 C500 1.429 . S
C519 C513 1.429 . S
C519 C520 1.523 . S
C520 C501 1.368 . S
C520 C514 1.368 . S
C520 C519 1.523 . S
C521 C505 1.429 . S
C521 C517 1.429 . S
C521 C522 1.523 . S
C522 C506 1.368 . S
C522 C518 1.368 . S
C522 C521 1.523 . S
H523 C498 0.950 . S
H524 C500 0.950 . S
H525 C501 0.949 . S
H526 C503 0.950 . S
H527 C505 0.950 . S
C528 C529 1.349 . S
C528 C530 1.327 . S
C528 H553 0.950 . S
C529 C528 1.349 . S
C529 C545 1.349 . S
C530 C528 1.327 . S
C530 C549 1.429 . S
C530 H554 0.950 . S
C531 C548 1.574 . S
C531 C550 1.368 . S
C531 H555 0.949 . S
H532 C536 0.949 . S
C533 C534 1.349 . S
C533 C535 1.327 . S
C533 H556 0.950 . S
C534 C533 1.349 . S
C534 C546 1.349 . S
C535 C533 1.327 . S
C535 C551 1.429 . S
C535 H557 0.950 . S
C536 H532 0.949 . S
C536 C544 1.574 . S
C536 C552 1.368 . S
H537 C545 0.950 . S
H538 C543 0.950 . S
H539 C544 0.949 . S
H540 C546 0.950 . S
H541 C547 0.950 . S
H542 C548 0.949 . S
C543 H538 0.950 . S
C543 C545 1.327 . S
C543 C549 1.429 . S
C544 C536 1.574 . S
C544 H539 0.949 . S
C544 C550 1.368 . S
C545 C529 1.349 . S
C545 H537 0.950 . S
C545 C543 1.327 . S
C546 C534 1.349 . S
C546 H540 0.950 . S
C546 C547 1.327 . S
C547 H541 0.950 . S
C547 C546 1.327 . S
C547 C551 1.429 . S
C548 C531 1.574 . S
C548 H542 0.949 . S
C548 C552 1.368 . S
C549 C530 1.429 . S
C549 C543 1.429 . S
C549 C550 1.523 . S
C550 C531 1.368 . S
C550 C544 1.368 . S
C550 C549 1.523 . S
C551 C535 1.429 . S
C551 C547 1.429 . S
C551 C552 1.523 . S
C552 C536 1.368 . S
C552 C548 1.368 . S
C552 C551 1.523 . S
H553 C528 0.950 . S
H554 C530 0.950 . S
H555 C531 0.949 . S
H556 C533 0.950 . S
H557 C535 0.950 . S
C558 C559 1.349 . S
C558 C560 1.327 . S
C558 H583 0.950 . S
C559 C558 1.349 . S
C559 C575 1.349 . S
C560 C558 1.327 . S
C560 C579 1.429 . S
C560 H584 0.950 . S
C561 C578 1.574 . S
C561 C580 1.368 . S
C561 H585 0.949 . S
H562 C566 0.949 . S
C563 C564 1.349 . S
C563 C565 1.327 . S
C563 H586 0.950 . S
C564 C563 1.349 . S
C564 C576 1.349 . S
C565 C563 1.327 . S
C565 C581 1.429 . S
C565 H587 0.950 . S
C566 H562 0.949 . S
C566 C574 1.574 . S
C566 C582 1.368 . S
H567 C575 0.950 . S
H568 C573 0.950 . S
H569 C574 0.949 . S
H570 C576 0.950 . S
H571 C577 0.950 . S
H572 C578 0.949 . S
C573 H568 0.950 . S
C573 C575 1.327 . S
C573 C579 1.429 . S
C574 C566 1.574 . S
C574 H569 0.949 . S
C574 C580 1.368 . S
C575 C559 1.349 . S
C575 H567 0.950 . S
C575 C573 1.327 . S
C576 C564 1.349 . S
C576 H570 0.950 . S
C576 C577 1.327 . S
C577 H571 0.950 . S
C577 C576 1.327 . S
C577 C581 1.429 . S
C578 C561 1.574 . S
C578 H572 0.949 . S
C578 C582 1.368 . S
C579 C560 1.429 . S
C579 C573 1.429 . S
C579 C580 1.523 . S
C580 C561 1.368 . S
C580 C574 1.368 . S
C580 C579 1.523 . S
C581 C565 1.429 . S
C581 C577 1.429 . S
C581 C582 1.523 . S
C582 C566 1.368 . S
C582 C578 1.368 . S
C582 C581 1.523 . S
H583 C558 0.950 . S
H584 C560 0.950 . S
H585 C561 0.949 . S
H586 C563 0.950 . S
H587 C565 0.950 . S
C588 C589 1.349 . S
C588 C590 1.327 . S
C588 H613 0.950 . S
C589 C588 1.349 . S
C589 C605 1.349 . S
C590 C588 1.327 . S
C590 C609 1.429 . S
C590 H614 0.950 . S
C591 C608 1.574 . S
C591 C610 1.368 . S
C591 H615 0.949 . S
H592 C596 0.949 . S
C593 C594 1.349 . S
C593 C595 1.327 . S
C593 H616 0.950 . S
C594 C593 1.349 . S
C594 C606 1.349 . S
C595 C593 1.327 . S
C595 C611 1.429 . S
C595 H617 0.950 . S
C596 H592 0.949 . S
C596 C604 1.574 . S
C596 C612 1.368 . S
H597 C605 0.950 . S
H598 C603 0.950 . S
H599 C604 0.949 . S
H600 C606 0.950 . S
H601 C607 0.950 . S
H602 C608 0.949 . S
C603 H598 0.950 . S
C603 C605 1.327 . S
C603 C609 1.429 . S
C604 C596 1.574 . S
C604 H599 0.949 . S
C604 C610 1.368 . S
C605 C589 1.349 . S
C605 H597 0.950 . S
C605 C603 1.327 . S
C606 C594 1.349 . S
C606 H600 0.950 . S
C606 C607 1.327 . S
C607 H601 0.950 . S
C607 C606 1.327 . S
C607 C611 1.429 . S
C608 C591 1.574 . S
C608 H602 0.949 . S
C608 C612 1.368 . S
C609 C590 1.429 . S
C609 C603 1.429 . S
C609 C610 1.523 . S
C610 C591 1.368 . S
C610 C604 1.368 . S
C610 C609 1.523 . S
C611 C595 1.429 . S
C611 C607 1.429 . S
C611 C612 1.523 . S
C612 C596 1.368 . S
C612 C608 1.368 . S
C612 C611 1.523 . S
H613 C588 0.950 . S
H614 C590 0.950 . S
H615 C591 0.949 . S
H616 C593 0.950 . S
H617 C595 0.950 . S
C618 C619 1.349 . S
C618 C620 1.327 . S
C618 H643 0.950 . S
C619 C618 1.349 . S
C619 C635 1.349 . S
C620 C618 1.327 . S
C620 C639 1.429 . S
C620 H644 0.950 . S
C621 C638 1.574 . S
C621 C640 1.368 . S
C621 H645 0.949 . S
H622 C626 0.949 . S
C623 C624 1.349 . S
C623 C625 1.327 . S
C623 H646 0.950 . S
C624 C623 1.349 . S
C624 C636 1.349 . S
C625 C623 1.327 . S
C625 C641 1.429 . S
C625 H647 0.950 . S
C626 H622 0.949 . S
C626 C634 1.574 . S
C626 C642 1.368 . S
H627 C635 0.950 . S
H628 C633 0.950 . S
H629 C634 0.949 . S
H630 C636 0.950 . S
H631 C637 0.950 . S
H632 C638 0.949 . S
C633 H628 0.950 . S
C633 C635 1.327 . S
C633 C639 1.429 . S
C634 C626 1.574 . S
C634 H629 0.949 . S
C634 C640 1.368 . S
C635 C619 1.349 . S
C635 H627 0.950 . S
C635 C633 1.327 . S
C636 C624 1.349 . S
C636 H630 0.950 . S
C636 C637 1.327 . S
C637 H631 0.950 . S
C637 C636 1.327 . S
C637 C641 1.429 . S
C638 C621 1.574 . S
C638 H632 0.949 . S
C638 C642 1.368 . S
C639 C620 1.429 . S
C639 C633 1.429 . S
C639 C640 1.523 . S
C640 C621 1.368 . S
C640 C634 1.368 . S
C640 C639 1.523 . S
C641 C625 1.429 . S
C641 C637 1.429 . S
C641 C642 1.523 . S
C642 C626 1.368 . S
C642 C638 1.368 . S
C642 C641 1.523 . S
H643 C618 0.950 . S
H644 C620 0.950 . S
H645 C621 0.949 . S
H646 C623 0.950 . S
H647 C625 0.950 . S
C648 C649 1.349 . S
C648 C650 1.327 . S
C648 H673 0.950 . S
C649 C648 1.349 . S
C649 C665 1.349 . S
C650 C648 1.327 . S
C650 C669 1.429 . S
C650 H674 0.950 . S
C651 C668 1.574 . S
C651 C670 1.368 . S
C651 H675 0.949 . S
H652 C656 0.949 . S
C653 C654 1.349 . S
C653 C655 1.327 . S
C653 H676 0.950 . S
C654 C653 1.349 . S
C654 C666 1.349 . S
C655 C653 1.327 . S
C655 C671 1.429 . S
C655 H677 0.950 . S
C656 H652 0.949 . S
C656 C664 1.574 . S
C656 C672 1.368 . S
H657 C665 0.950 . S
H658 C663 0.950 . S
H659 C664 0.949 . S
H660 C666 0.950 . S
H661 C667 0.950 . S
H662 C668 0.949 . S
C663 H658 0.950 . S
C663 C665 1.327 . S
C663 C669 1.429 . S
C664 C656 1.574 . S
C664 H659 0.949 . S
C664 C670 1.368 . S
C665 C649 1.349 . S
C665 H657 0.950 . S
C665 C663 1.327 . S
C666 C654 1.349 . S
C666 H660 0.950 . S
C666 C667 1.327 . S
C667 H661 0.950 . S
C667 C666 1.327 . S
C667 C671 1.429 . S
C668 C651 1.574 . S
C668 H662 0.949 . S
C668 C672 1.368 . S
C669 C650 1.429 . S
C669 C663 1.429 . S
C669 C670 1.523 . S
C670 C651 1.368 . S
C670 C664 1.368 . S
C670 C669 1.523 . S
C671 C655 1.429 . S
C671 C667 1.429 . S
C671 C672 1.523 . S
C672 C656 1.368 . S
C672 C668 1.368 . S
C672 C671 1.523 . S
H673 C648 0.950 . S
H674 C650 0.950 . S
H675 C651 0.949 . S
H676 C653 0.950 . S
H677 C655 0.950 . S
C678 C679 1.349 . S
C678 C680 1.327 . S
C678 H703 0.950 . S
C679 C678 1.349 . S
C679 C695 1.349 . S
C680 C678 1.327 . S
C680 C699 1.429 . S
C680 H704 0.950 . S
C681 C698 1.574 . S
C681 C700 1.368 . S
C681 H705 0.949 . S
H682 C686 0.949 . S
C683 C684 1.349 . S
C683 C685 1.327 . S
C683 H706 0.950 . S
C684 C683 1.349 . S
C684 C696 1.349 . S
C685 C683 1.327 . S
C685 C701 1.429 . S
C685 H707 0.950 . S
C686 H682 0.949 . S
C686 C694 1.574 . S
C686 C702 1.368 . S
H687 C695 0.950 . S
H688 C693 0.950 . S
H689 C694 0.949 . S
H690 C696 0.950 . S
H691 C697 0.950 . S
H692 C698 0.949 . S
C693 H688 0.950 . S
C693 C695 1.327 . S
C693 C699 1.429 . S
C694 C686 1.574 . S
C694 H689 0.949 . S
C694 C700 1.368 . S
C695 C679 1.349 . S
C695 H687 0.950 . S
C695 C693 1.327 . S
C696 C684 1.349 . S
C696 H690 0.950 . S
C696 C697 1.327 . S
C697 H691 0.950 . S
C697 C696 1.327 . S
C697 C701 1.429 . S
C698 C681 1.574 . S
C698 H692 0.949 . S
C698 C702 1.368 . S
C699 C680 1.429 . S
C699 C693 1.429 . S
C699 C700 1.523 . S
C700 C681 1.368 . S
C700 C694 1.368 . S
C700 C699 1.523 . S
C701 C685 1.429 . S
C701 C697 1.429 . S
C701 C702 1.523 . S
C702 C686 1.368 . S
C702 C698 1.368 . S
C702 C701 1.523 . S
H703 C678 0.950 . S
H704 C680 0.950 . S
H705 C681 0.949 . S
H706 C683 0.950 . S
H707 C685 0.950 . S
C708 C709 1.349 . S
C708 C710 1.327 . S
C708 H733 0.950 . S
C709 C708 1.349 . S
C709 C725 1.349 . S
C710 C708 1.327 . S
C710 C729 1.429 . S
C710 H734 0.950 . S
C711 C728 1.574 . S
C711 C730 1.368 . S
C711 H735 0.949 . S
H712 C716 0.949 . S
C713 C714 1.349 . S
C713 C715 1.327 . S
C713 H736 0.950 . S
C714 C713 1.349 . S
C714 C726 1.349 . S
C715 C713 1.327 . S
C715 C731 1.429 . S
C715 H737 0.950 . S
C716 H712 0.949 . S
C716 C724 1.574 . S
C716 C732 1.368 . S
H717 C725 0.950 . S
H718 C723 0.950 . S
H719 C724 0.949 . S
H720 C726 0.950 . S
H721 C727 0.950 . S
H722 C728 0.949 . S
C723 H718 0.950 . S
C723 C725 1.327 . S
C723 C729 1.429 . S
C724 C716 1.574 . S
C724 H719 0.949 . S
C724 C730 1.368 . S
C725 C709 1.349 . S
C725 H717 0.950 . S
C725 C723 1.327 . S
C726 C714 1.349 . S
C726 H720 0.950 . S
C726 C727 1.327 . S
C727 H721 0.950 . S
C727 C726 1.327 . S
C727 C731 1.429 . S
C728 C711 1.574 . S
C728 H722 0.949 . S
C728 C732 1.368 . S
C729 C710 1.429 . S
C729 C723 1.429 . S
C729 C730 1.523 . S
C730 C711 1.368 . S
C730 C724 1.368 . S
C730 C729 1.523 . S
C731 C715 1.429 . S
C731 C727 1.429 . S
C731 C732 1.523 . S
C732 C716 1.368 . S
C732 C728 1.368 . S
C732 C731 1.523 . S
H733 C708 0.950 . S
H734 C710 0.950 . S
H735 C711 0.949 . S
H736 C713 0.950 . S
H737 C715 0.950 . S
C738 C739 1.349 . S
C738 C740 1.327 . S
C738 H763 0.950 . S
C739 C738 1.349 . S
C739 C755 1.349 . S
C740 C738 1.327 . S
C740 C759 1.429 . S
C740 H764 0.950 . S
C741 C758 1.574 . S
C741 C760 1.368 . S
C741 H765 0.949 . S
H742 C746 0.949 . S
C743 C744 1.349 . S
C743 C745 1.327 . S
C743 H766 0.950 . S
C744 C743 1.349 . S
C744 C756 1.349 . S
C745 C743 1.327 . S
C745 C761 1.429 . S
C745 H767 0.950 . S
C746 H742 0.949 . S
C746 C754 1.574 . S
C746 C762 1.368 . S
H747 C755 0.950 . S
H748 C753 0.950 . S
H749 C754 0.949 . S
H750 C756 0.950 . S
H751 C757 0.950 . S
H752 C758 0.949 . S
C753 H748 0.950 . S
C753 C755 1.327 . S
C753 C759 1.429 . S
C754 C746 1.574 . S
C754 H749 0.949 . S
C754 C760 1.368 . S
C755 C739 1.349 . S
C755 H747 0.950 . S
C755 C753 1.327 . S
C756 C744 1.349 . S
C756 H750 0.950 . S
C756 C757 1.327 . S
C757 H751 0.950 . S
C757 C756 1.327 . S
C757 C761 1.429 . S
C758 C741 1.574 . S
C758 H752 0.949 . S
C758 C762 1.368 . S
C759 C740 1.429 . S
C759 C753 1.429 . S
C759 C760 1.523 . S
C760 C741 1.368 . S
C760 C754 1.368 . S
C760 C759 1.523 . S
C761 C745 1.429 . S
C761 C757 1.429 . S
C761 C762 1.523 . S
C762 C746 1.368 . S
C762 C758 1.368 . S
C762 C761 1.523 . S
H763 C738 0.950 . S
H764 C740 0.950 . S
H765 C741 0.949 . S
H766 C743 0.950 . S
H767 C745 0.950 . S
C768 C769 1.349 . S
C768 C770 1.327 . S
C768 H793 0.950 . S
C769 C768 1.349 . S
C769 C785 1.349 . S
C770 C768 1.327 . S
C770 C789 1.429 . S
C770 H794 0.950 . S
C771 C788 1.574 . S
C771 C790 1.368 . S
C771 H795 0.949 . S
H772 C776 0.949 . S
C773 C774 1.349 . S
C773 C775 1.327 . S
C773 H796 0.950 . S
C774 C773 1.349 . S
C774 C786 1.349 . S
C775 C773 1.327 . S
C775 C791 1.429 . S
C775 H797 0.950 . S
C776 H772 0.949 . S
C776 C784 1.574 . S
C776 C792 1.368 . S
H777 C785 0.950 . S
H778 C783 0.950 . S
H779 C784 0.949 . S
H780 C786 0.950 . S
H781 C787 0.950 . S
H782 C788 0.949 . S
C783 H778 0.950 . S
C783 C785 1.327 . S
C783 C789 1.429 . S
C784 C776 1.574 . S
C784 H779 0.949 . S
C784 C790 1.368 . S
C785 C769 1.349 . S
C785 H777 0.950 . S
C785 C783 1.327 . S
C786 C774 1.349 . S
C786 H780 0.950 . S
C786 C787 1.327 . S
C787 H781 0.950 . S
C787 C786 1.327 . S
C787 C791 1.429 . S
C788 C771 1.574 . S
C788 H782 0.949 . S
C788 C792 1.368 . S
C789 C770 1.429 . S
C789 C783 1.429 . S
C789 C790 1.523 . S
C790 C771 1.368 . S
C790 C784 1.368 . S
C790 C789 1.523 . S
C791 C775 1.429 . S
C791 C787 1.429 . S
C791 C792 1.523 . S
C792 C776 1.368 . S
C792 C788 1.368 . S
C792 C791 1.523 . S
H793 C768 0.950 . S
H794 C770 0.950 . S
H795 C771 0.949 . S
H796 C773 0.950 . S
H797 C775 0.950 . S
C798 C799 1.349 . S
C798 C800 1.327 . S
C798 H823 0.950 . S
C799 C798 1.349 . S
C799 C815 1.349 . S
C800 C798 1.327 . S
C800 C819 1.429 . S
C800 H824 0.950 . S
C801 C818 1.574 . S
C801 C820 1.368 . S
C801 H825 0.949 . S
H802 C806 0.949 . S
C803 C804 1.349 . S
C803 C805 1.327 . S
C803 H826 0.950 . S
C804 C803 1.349 . S
C804 C816 1.349 . S
C805 C803 1.327 . S
C805 C821 1.429 . S
C805 H827 0.950 . S
C806 H802 0.949 . S
C806 C814 1.574 . S
C806 C822 1.368 . S
H807 C815 0.950 . S
H808 C813 0.950 . S
H809 C814 0.949 . S
H810 C816 0.950 . S
H811 C817 0.950 . S
H812 C818 0.949 . S
C813 H808 0.950 . S
C813 C815 1.327 . S
C813 C819 1.429 . S
C814 C806 1.574 . S
C814 H809 0.949 . S
C814 C820 1.368 . S
C815 C799 1.349 . S
C815 H807 0.950 . S
C815 C813 1.327 . S
C816 C804 1.349 . S
C816 H810 0.950 . S
C816 C817 1.327 . S
C817 H811 0.950 . S
C817 C816 1.327 . S
C817 C821 1.429 . S
C818 C801 1.574 . S
C818 H812 0.949 . S
C818 C822 1.368 . S
C819 C800 1.429 . S
C819 C813 1.429 . S
C819 C820 1.523 . S
C820 C801 1.368 . S
C820 C814 1.368 . S
C820 C819 1.523 . S
C821 C805 1.429 . S
C821 C817 1.429 . S
C821 C822 1.523 . S
C822 C806 1.368 . S
C822 C818 1.368 . S
C822 C821 1.523 . S
H823 C798 0.950 . S
H824 C800 0.950 . S
H825 C801 0.949 . S
H826 C803 0.950 . S
H827 C805 0.950 . S
C828 C829 1.349 . S
C828 C830 1.327 . S
C828 H853 0.950 . S
C829 C828 1.349 . S
C829 C845 1.349 . S
C830 C828 1.327 . S
C830 C849 1.429 . S
C830 H854 0.950 . S
C831 C848 1.574 . S
C831 C850 1.368 . S
C831 H855 0.949 . S
H832 C836 0.949 . S
C833 C834 1.349 . S
C833 C835 1.327 . S
C833 H856 0.950 . S
C834 C833 1.349 . S
C834 C846 1.349 . S
C835 C833 1.327 . S
C835 C851 1.429 . S
C835 H857 0.950 . S
C836 H832 0.949 . S
C836 C844 1.574 . S
C836 C852 1.368 . S
H837 C845 0.950 . S
H838 C843 0.950 . S
H839 C844 0.949 . S
H840 C846 0.950 . S
H841 C847 0.950 . S
H842 C848 0.949 . S
C843 H838 0.950 . S
C843 C845 1.327 . S
C843 C849 1.429 . S
C844 C836 1.574 . S
C844 H839 0.949 . S
C844 C850 1.368 . S
C845 C829 1.349 . S
C845 H837 0.950 . S
C845 C843 1.327 . S
C846 C834 1.349 . S
C846 H840 0.950 . S
C846 C847 1.327 . S
C847 H841 0.950 . S
C847 C846 1.327 . S
C847 C851 1.429 . S
C848 C831 1.574 . S
C848 H842 0.949 . S
C848 C852 1.368 . S
C849 C830 1.429 . S
C849 C843 1.429 . S
C849 C850 1.523 . S
C850 C831 1.368 . S
C850 C844 1.368 . S
C850 C849 1.523 . S
C851 C835 1.429 . S
C851 C847 1.429 . S
C851 C852 1.523 . S
C852 C836 1.368 . S
C852 C848 1.368 . S
C852 C851 1.523 . S
H853 C828 0.950 . S
H854 C830 0.950 . S
H855 C831 0.949 . S
H856 C833 0.950 . S
H857 C835 0.950 . S
C858 C859 1.349 . S
C858 C860 1.327 . S
C858 H883 0.950 . S
C859 C858 1.349 . S
C859 C875 1.349 . S
C860 C858 1.327 . S
C860 C879 1.429 . S
C860 H884 0.950 . S
C861 C878 1.574 . S
C861 C880 1.368 . S
C861 H885 0.949 . S
H862 C866 0.949 . S
C863 C864 1.349 . S
C863 C865 1.327 . S
C863 H886 0.950 . S
C864 C863 1.349 . S
C864 C876 1.349 . S
C865 C863 1.327 . S
C865 C881 1.429 . S
C865 H887 0.950 . S
C866 H862 0.949 . S
C866 C874 1.574 . S
C866 C882 1.368 . S
H867 C875 0.950 . S
H868 C873 0.950 . S
H869 C874 0.949 . S
H870 C876 0.950 . S
H871 C877 0.950 . S
H872 C878 0.949 . S
C873 H868 0.950 . S
C873 C875 1.327 . S
C873 C879 1.429 . S
C874 C866 1.574 . S
C874 H869 0.949 . S
C874 C880 1.368 . S
C875 C859 1.349 . S
C875 H867 0.950 . S
C875 C873 1.327 . S
C876 C864 1.349 . S
C876 H870 0.950 . S
C876 C877 1.327 . S
C877 H871 0.950 . S
C877 C876 1.327 . S
C877 C881 1.429 . S
C878 C861 1.574 . S
C878 H872 0.949 . S
C878 C882 1.368 . S
C879 C860 1.429 . S
C879 C873 1.429 . S
C879 C880 1.523 . S
C880 C861 1.368 . S
C880 C874 1.368 . S
C880 C879 1.523 . S
C881 C865 1.429 . S
C881 C877 1.429 . S
C881 C882 1.523 . S
C882 C866 1.368 . S
C882 C878 1.368 . S
C882 C881 1.523 . S
H883 C858 0.950 . S
H884 C860 0.950 . S
H885 C861 0.949 . S
H886 C863 0.950 . S
H887 C865 0.950 . S
C169 C13 1.663 . S
C174 C85 1.628 . S
C199 C27 1.663 . S
C204 C110 1.636 . S
C234 C113 1.636 . S
C229 C29 1.660 . S
C264 C139 1.636 . S
C259 C54 1.667 . S
C294 C140 1.638 . S
C289 C69 1.661 . S
C324 C167 1.636 . S
C319 C83 1.663 . S
C349 C15 1.663 . S
C354 C112 1.642 . S
C379 C41 1.663 . S
C384 C138 1.640 . S
C414 C141 1.636 . S
C409 C42 1.663 . S
C444 C166 1.638 . S
C439 C57 1.662 . S
C469 C71 1.663 . S
C474 C84 1.638 . S
C504 C111 1.636 . S
C499 C1 1.667 . S
C534 C126 1.636 . S
C529 C12 1.670 . S
C559 C26 1.663 . S
C564 C153 1.639 . S
C594 C154 1.636 . S
C589 C28 1.666 . S
C619 C55 1.663 . S
C624 C96 1.631 . S
C649 C68 1.663 . S
C654 C99 1.639 . S
C679 C82 1.663 . S
C684 C124 1.636 . S
C709 C14 1.663 . S
C714 C155 1.633 . S
C744 C97 1.638 . S
C739 C40 1.660 . S
C769 C43 1.663 . S
C774 C98 1.637 . S
C799 C56 1.663 . S
C804 C125 1.639 . S
C829 C70 1.663 . S
C834 C127 1.638 . S
C859 C0 1.663 . S
C864 C152 1.632 . S
