# Generated by pormake.
# Topology gar, (4,6)-cn, num edge types: 1
# Building blocks:
#     Node 0, Type 0, BuildingBlock: QUQFOY_clean_sbu_3, # of connection points: 4
#     Node 1, Type 0, BuildingBlock: QUQFOY_clean_sbu_3, # of connection points: 4
#     Node 2, Type 0, BuildingBlock: QUQFOY_clean_sbu_3, # of connection points: 4
#     Node 3, Type 0, BuildingBlock: QUQFOY_clean_sbu_3, # of connection points: 4
#     Node 4, Type 0, BuildingBlock: QUQFOY_clean_sbu_3, # of connection points: 4
#     Node 5, Type 0, BuildingBlock: QUQFOY_clean_sbu_3, # of connection points: 4
#     Node 6, Type 0, BuildingBlock: QUQFOY_clean_sbu_3, # of connection points: 4
#     Node 7, Type 0, BuildingBlock: QUQFOY_clean_sbu_3, # of connection points: 4
#     Node 8, Type 0, BuildingBlock: QUQFOY_clean_sbu_3, # of connection points: 4
#     Node 9, Type 0, BuildingBlock: QUQFOY_clean_sbu_3, # of connection points: 4
#     Node 10, Type 0, BuildingBlock: QUQFOY_clean_sbu_3, # of connection points: 4
#     Node 11, Type 0, BuildingBlock: QUQFOY_clean_sbu_3, # of connection points: 4
#     Node 12, Type 0, BuildingBlock: QUQFOY_clean_sbu_3, # of connection points: 4
#     Node 13, Type 0, BuildingBlock: QUQFOY_clean_sbu_3, # of connection points: 4
#     Node 14, Type 0, BuildingBlock: QUQFOY_clean_sbu_3, # of connection points: 4
#     Node 15, Type 0, BuildingBlock: QUQFOY_clean_sbu_3, # of connection points: 4
#     Node 16, Type 0, BuildingBlock: QUQFOY_clean_sbu_3, # of connection points: 4
#     Node 17, Type 0, BuildingBlock: QUQFOY_clean_sbu_3, # of connection points: 4
#     Node 18, Type 0, BuildingBlock: QUQFOY_clean_sbu_3, # of connection points: 4
#     Node 19, Type 0, BuildingBlock: QUQFOY_clean_sbu_3, # of connection points: 4
#     Node 20, Type 0, BuildingBlock: QUQFOY_clean_sbu_3, # of connection points: 4
#     Node 21, Type 0, BuildingBlock: QUQFOY_clean_sbu_3, # of connection points: 4
#     Node 22, Type 0, BuildingBlock: QUQFOY_clean_sbu_3, # of connection points: 4
#     Node 23, Type 0, BuildingBlock: QUQFOY_clean_sbu_3, # of connection points: 4
#     Node 24, Type 1, BuildingBlock: MIFKUJ_clean_sbu_0, # of connection points: 6
#     Node 25, Type 1, BuildingBlock: MIFKUJ_clean_sbu_0, # of connection points: 6
#     Node 26, Type 1, BuildingBlock: MIFKUJ_clean_sbu_0, # of connection points: 6
#     Node 27, Type 1, BuildingBlock: MIFKUJ_clean_sbu_0, # of connection points: 6
#     Node 28, Type 1, BuildingBlock: MIFKUJ_clean_sbu_0, # of connection points: 6
#     Node 29, Type 1, BuildingBlock: MIFKUJ_clean_sbu_0, # of connection points: 6
#     Node 30, Type 1, BuildingBlock: MIFKUJ_clean_sbu_0, # of connection points: 6
#     Node 31, Type 1, BuildingBlock: MIFKUJ_clean_sbu_0, # of connection points: 6
#     Node 32, Type 1, BuildingBlock: MIFKUJ_clean_sbu_0, # of connection points: 6
#     Node 33, Type 1, BuildingBlock: MIFKUJ_clean_sbu_0, # of connection points: 6
#     Node 34, Type 1, BuildingBlock: MIFKUJ_clean_sbu_0, # of connection points: 6
#     Node 35, Type 1, BuildingBlock: MIFKUJ_clean_sbu_0, # of connection points: 6
#     Node 36, Type 1, BuildingBlock: MIFKUJ_clean_sbu_0, # of connection points: 6
#     Node 37, Type 1, BuildingBlock: MIFKUJ_clean_sbu_0, # of connection points: 6
#     Node 38, Type 1, BuildingBlock: MIFKUJ_clean_sbu_0, # of connection points: 6
#     Node 39, Type 1, BuildingBlock: MIFKUJ_clean_sbu_0, # of connection points: 6
#     Edge 40, Type (0, 1), BuildingBlock: OJICUG_clean_linker_0, # of connection points: 2
#     Edge 41, Type (0, 1), BuildingBlock: OJICUG_clean_linker_0, # of connection points: 2
#     Edge 42, Type (0, 1), BuildingBlock: OJICUG_clean_linker_0, # of connection points: 2
#     Edge 43, Type (0, 1), BuildingBlock: OJICUG_clean_linker_0, # of connection points: 2
#     Edge 44, Type (0, 1), BuildingBlock: OJICUG_clean_linker_0, # of connection points: 2
#     Edge 45, Type (0, 1), BuildingBlock: OJICUG_clean_linker_0, # of connection points: 2
#     Edge 46, Type (0, 1), BuildingBlock: OJICUG_clean_linker_0, # of connection points: 2
#     Edge 47, Type (0, 1), BuildingBlock: OJICUG_clean_linker_0, # of connection points: 2
#     Edge 48, Type (0, 1), BuildingBlock: OJICUG_clean_linker_0, # of connection points: 2
#     Edge 49, Type (0, 1), BuildingBlock: OJICUG_clean_linker_0, # of connection points: 2
#     Edge 50, Type (0, 1), BuildingBlock: OJICUG_clean_linker_0, # of connection points: 2
#     Edge 51, Type (0, 1), BuildingBlock: OJICUG_clean_linker_0, # of connection points: 2
#     Edge 52, Type (0, 1), BuildingBlock: OJICUG_clean_linker_0, # of connection points: 2
#     Edge 53, Type (0, 1), BuildingBlock: OJICUG_clean_linker_0, # of connection points: 2
#     Edge 54, Type (0, 1), BuildingBlock: OJICUG_clean_linker_0, # of connection points: 2
#     Edge 55, Type (0, 1), BuildingBlock: OJICUG_clean_linker_0, # of connection points: 2
#     Edge 56, Type (0, 1), BuildingBlock: OJICUG_clean_linker_0, # of connection points: 2
#     Edge 57, Type (0, 1), BuildingBlock: OJICUG_clean_linker_0, # of connection points: 2
#     Edge 58, Type (0, 1), BuildingBlock: OJICUG_clean_linker_0, # of connection points: 2
#     Edge 59, Type (0, 1), BuildingBlock: OJICUG_clean_linker_0, # of connection points: 2
#     Edge 60, Type (0, 1), BuildingBlock: OJICUG_clean_linker_0, # of connection points: 2
#     Edge 61, Type (0, 1), BuildingBlock: OJICUG_clean_linker_0, # of connection points: 2
#     Edge 62, Type (0, 1), BuildingBlock: OJICUG_clean_linker_0, # of connection points: 2
#     Edge 63, Type (0, 1), BuildingBlock: OJICUG_clean_linker_0, # of connection points: 2
#     Edge 64, Type (0, 1), BuildingBlock: OJICUG_clean_linker_0, # of connection points: 2
#     Edge 65, Type (0, 1), BuildingBlock: OJICUG_clean_linker_0, # of connection points: 2
#     Edge 66, Type (0, 1), BuildingBlock: OJICUG_clean_linker_0, # of connection points: 2
#     Edge 67, Type (0, 1), BuildingBlock: OJICUG_clean_linker_0, # of connection points: 2
#     Edge 68, Type (0, 1), BuildingBlock: OJICUG_clean_linker_0, # of connection points: 2
#     Edge 69, Type (0, 1), BuildingBlock: OJICUG_clean_linker_0, # of connection points: 2
#     Edge 70, Type (0, 1), BuildingBlock: OJICUG_clean_linker_0, # of connection points: 2
#     Edge 71, Type (0, 1), BuildingBlock: OJICUG_clean_linker_0, # of connection points: 2
#     Edge 72, Type (0, 1), BuildingBlock: OJICUG_clean_linker_0, # of connection points: 2
#     Edge 73, Type (0, 1), BuildingBlock: OJICUG_clean_linker_0, # of connection points: 2
#     Edge 74, Type (0, 1), BuildingBlock: OJICUG_clean_linker_0, # of connection points: 2
#     Edge 75, Type (0, 1), BuildingBlock: OJICUG_clean_linker_0, # of connection points: 2
#     Edge 76, Type (0, 1), BuildingBlock: OJICUG_clean_linker_0, # of connection points: 2
#     Edge 77, Type (0, 1), BuildingBlock: OJICUG_clean_linker_0, # of connection points: 2
#     Edge 78, Type (0, 1), BuildingBlock: OJICUG_clean_linker_0, # of connection points: 2
#     Edge 79, Type (0, 1), BuildingBlock: OJICUG_clean_linker_0, # of connection points: 2
#     Edge 80, Type (0, 1), BuildingBlock: OJICUG_clean_linker_0, # of connection points: 2
#     Edge 81, Type (0, 1), BuildingBlock: OJICUG_clean_linker_0, # of connection points: 2
#     Edge 82, Type (0, 1), BuildingBlock: OJICUG_clean_linker_0, # of connection points: 2
#     Edge 83, Type (0, 1), BuildingBlock: OJICUG_clean_linker_0, # of connection points: 2
#     Edge 84, Type (0, 1), BuildingBlock: OJICUG_clean_linker_0, # of connection points: 2
#     Edge 85, Type (0, 1), BuildingBlock: OJICUG_clean_linker_0, # of connection points: 2
#     Edge 86, Type (0, 1), BuildingBlock: OJICUG_clean_linker_0, # of connection points: 2
#     Edge 87, Type (0, 1), BuildingBlock: OJICUG_clean_linker_0, # of connection points: 2
#     Edge 88, Type (0, 1), BuildingBlock: OJICUG_clean_linker_0, # of connection points: 2
#     Edge 89, Type (0, 1), BuildingBlock: OJICUG_clean_linker_0, # of connection points: 2
#     Edge 90, Type (0, 1), BuildingBlock: OJICUG_clean_linker_0, # of connection points: 2
#     Edge 91, Type (0, 1), BuildingBlock: OJICUG_clean_linker_0, # of connection points: 2
#     Edge 92, Type (0, 1), BuildingBlock: OJICUG_clean_linker_0, # of connection points: 2
#     Edge 93, Type (0, 1), BuildingBlock: OJICUG_clean_linker_0, # of connection points: 2
#     Edge 94, Type (0, 1), BuildingBlock: OJICUG_clean_linker_0, # of connection points: 2
#     Edge 95, Type (0, 1), BuildingBlock: OJICUG_clean_linker_0, # of connection points: 2
#     Edge 96, Type (0, 1), BuildingBlock: OJICUG_clean_linker_0, # of connection points: 2
#     Edge 97, Type (0, 1), BuildingBlock: OJICUG_clean_linker_0, # of connection points: 2
#     Edge 98, Type (0, 1), BuildingBlock: OJICUG_clean_linker_0, # of connection points: 2
#     Edge 99, Type (0, 1), BuildingBlock: OJICUG_clean_linker_0, # of connection points: 2
#     Edge 100, Type (0, 1), BuildingBlock: OJICUG_clean_linker_0, # of connection points: 2
#     Edge 101, Type (0, 1), BuildingBlock: OJICUG_clean_linker_0, # of connection points: 2
#     Edge 102, Type (0, 1), BuildingBlock: OJICUG_clean_linker_0, # of connection points: 2
#     Edge 103, Type (0, 1), BuildingBlock: OJICUG_clean_linker_0, # of connection points: 2
#     Edge 104, Type (0, 1), BuildingBlock: OJICUG_clean_linker_0, # of connection points: 2
#     Edge 105, Type (0, 1), BuildingBlock: OJICUG_clean_linker_0, # of connection points: 2
#     Edge 106, Type (0, 1), BuildingBlock: OJICUG_clean_linker_0, # of connection points: 2
#     Edge 107, Type (0, 1), BuildingBlock: OJICUG_clean_linker_0, # of connection points: 2
#     Edge 108, Type (0, 1), BuildingBlock: OJICUG_clean_linker_0, # of connection points: 2
#     Edge 109, Type (0, 1), BuildingBlock: OJICUG_clean_linker_0, # of connection points: 2
#     Edge 110, Type (0, 1), BuildingBlock: OJICUG_clean_linker_0, # of connection points: 2
#     Edge 111, Type (0, 1), BuildingBlock: OJICUG_clean_linker_0, # of connection points: 2
#     Edge 112, Type (0, 1), BuildingBlock: OJICUG_clean_linker_0, # of connection points: 2
#     Edge 113, Type (0, 1), BuildingBlock: OJICUG_clean_linker_0, # of connection points: 2
#     Edge 114, Type (0, 1), BuildingBlock: OJICUG_clean_linker_0, # of connection points: 2
#     Edge 115, Type (0, 1), BuildingBlock: OJICUG_clean_linker_0, # of connection points: 2
#     Edge 116, Type (0, 1), BuildingBlock: OJICUG_clean_linker_0, # of connection points: 2
#     Edge 117, Type (0, 1), BuildingBlock: OJICUG_clean_linker_0, # of connection points: 2
#     Edge 118, Type (0, 1), BuildingBlock: OJICUG_clean_linker_0, # of connection points: 2
#     Edge 119, Type (0, 1), BuildingBlock: OJICUG_clean_linker_0, # of connection points: 2
#     Edge 120, Type (0, 1), BuildingBlock: OJICUG_clean_linker_0, # of connection points: 2
#     Edge 121, Type (0, 1), BuildingBlock: OJICUG_clean_linker_0, # of connection points: 2
#     Edge 122, Type (0, 1), BuildingBlock: OJICUG_clean_linker_0, # of connection points: 2
#     Edge 123, Type (0, 1), BuildingBlock: OJICUG_clean_linker_0, # of connection points: 2
#     Edge 124, Type (0, 1), BuildingBlock: OJICUG_clean_linker_0, # of connection points: 2
#     Edge 125, Type (0, 1), BuildingBlock: OJICUG_clean_linker_0, # of connection points: 2
#     Edge 126, Type (0, 1), BuildingBlock: OJICUG_clean_linker_0, # of connection points: 2
#     Edge 127, Type (0, 1), BuildingBlock: OJICUG_clean_linker_0, # of connection points: 2
#     Edge 128, Type (0, 1), BuildingBlock: OJICUG_clean_linker_0, # of connection points: 2
#     Edge 129, Type (0, 1), BuildingBlock: OJICUG_clean_linker_0, # of connection points: 2
#     Edge 130, Type (0, 1), BuildingBlock: OJICUG_clean_linker_0, # of connection points: 2
#     Edge 131, Type (0, 1), BuildingBlock: OJICUG_clean_linker_0, # of connection points: 2
#     Edge 132, Type (0, 1), BuildingBlock: OJICUG_clean_linker_0, # of connection points: 2
#     Edge 133, Type (0, 1), BuildingBlock: OJICUG_clean_linker_0, # of connection points: 2
#     Edge 134, Type (0, 1), BuildingBlock: OJICUG_clean_linker_0, # of connection points: 2
#     Edge 135, Type (0, 1), BuildingBlock: OJICUG_clean_linker_0, # of connection points: 2
# Relax obj value: 0.104
# Max RMSD: 0.311
# Mean RMSD: 0.131
data_MOF--net-gar--node1-QUQFOY_clean_sbu_3--node2-MIFKUJ_clean_sbu_0--edge1-OJICUG_clean_linker_0
_symmetry_space_group_name_H-M    P1
_symmetry_Int_Tables_number       1
_symmetry_cell_setting            triclinic
loop_
_symmetry_equiv_pos_as_xyz
'x, y, z'
_cell_length_a     42.751423
_cell_length_b     43.295114
_cell_length_c     40.943563
_cell_angle_alpha  95.877451
_cell_angle_beta   94.861572
_cell_angle_gamma 100.01143
loop_
_atom_site_label
_atom_site_type_symbol
_atom_site_fract_x
_atom_site_fract_y
_atom_site_fract_z
_atom_type_partial_charge
C0 C 0.97169 0.28776 0.35133 0.0
O1 O -0.00957 0.30014 0.33184 0.0
Cd2 Cd 0.04726 0.30898 0.34629 0.0
O3 O 0.98256 0.27652 0.37653 0.0
Cd4 Cd 0.03195 0.26709 0.40517 0.0
C5 C 0.04703 0.34535 0.42581 0.0
O6 O 0.06216 0.26008 0.35773 0.0
O7 O 0.08858 0.268 0.40619 0.0
O8 O 0.00723 0.21282 0.40566 0.0
C9 C 0.08843 0.26151 0.37524 0.0
O10 O 0.05278 0.34671 0.3959 0.0
C11 C 0.01273 0.21252 0.43657 0.0
O12 O 0.03812 0.3189 0.43634 0.0
O13 O 0.02647 0.2383 0.45349 0.0
C14 C 0.95717 0.73914 0.6998 0.0
O15 O 0.97548 0.72644 0.71808 0.0
Cd16 Cd 0.02412 0.71408 0.69958 0.0
O17 O 0.96529 0.74722 0.67222 0.0
Cd18 Cd 0.0105 0.7507 0.6379 0.0
C19 C -0.00093 0.6726 0.62161 0.0
O20 O 0.05295 0.76146 0.68356 0.0
O21 O 0.06706 0.75198 0.6346 0.0
O22 O -0.00269 0.80179 0.63414 0.0
C23 C 0.07517 0.75953 0.66523 0.0
O24 O 0.00974 0.67377 0.65183 0.0
C25 C 0.00167 0.80299 0.60403 0.0
O26 O -0.00514 0.69756 0.6093 0.0
O27 O 0.00977 0.77911 0.58864 0.0
C28 C 0.46036 0.77403 0.84324 0.0
O29 O 0.47779 0.78723 0.82312 0.0
Cd30 Cd 0.53483 0.80185 0.83622 0.0
O31 O 0.4729 0.76651 0.86986 0.0
Cd32 Cd 0.52462 0.76739 0.90054 0.0
C33 C 0.53455 0.84671 0.91055 0.0
O34 O 0.55438 0.75632 0.85296 0.0
O35 O 0.58108 0.76901 0.9011 0.0
O36 O 0.49825 0.71634 0.91297 0.0
C37 C 0.58092 0.76003 0.87065 0.0
O38 O 0.53966 0.84544 0.88029 0.0
C39 C 0.50988 0.72026 0.94299 0.0
O40 O 0.52757 0.82159 0.92409 0.0
O41 O 0.52804 0.74646 0.95353 0.0
C42 C 0.45654 0.23898 0.18957 0.0
O43 O 0.47305 0.2229 0.20577 0.0
Cd44 Cd 0.51772 0.20523 0.1839 0.0
O45 O 0.46488 0.24795 0.16236 0.0
Cd46 Cd 0.50918 0.24873 0.12663 0.0
C47 C 0.48648 0.17139 0.1042 0.0
O48 O 0.55136 0.25139 0.17129 0.0
O49 O 0.56428 0.24248 0.1218 0.0
O50 O 0.50506 0.30348 0.12806 0.0
C51 C 0.57283 0.24753 0.15256 0.0
O52 O 0.49675 0.16921 0.13387 0.0
C53 C 0.50673 0.30543 0.09755 0.0
O54 O 0.48681 0.19824 0.09405 0.0
O55 O 0.50958 0.28051 0.07966 0.0
C56 C 0.98284 0.75739 0.22716 0.0
O57 O 0.00185 0.74841 0.24824 0.0
Cd58 Cd 0.05677 0.74803 0.23931 0.0
O59 O -0.00722 0.76841 0.20147 0.0
Cd60 Cd 0.03815 0.78311 0.16988 0.0
C61 C 0.041 0.70432 0.16113 0.0
O62 O 0.07436 0.79681 0.21916 0.0
O63 O 0.09656 0.79924 0.17417 0.0
O64 O 0.01402 0.82888 0.16274 0.0
C65 C 0.09994 0.80092 0.20544 0.0
O66 O 0.05003 0.70729 0.19199 0.0
C67 C 0.0165 0.82883 0.13205 0.0
O68 O 0.03426 0.72768 0.14701 0.0
O69 O 0.02931 0.80715 0.1183 0.0
C70 C 0.43808 0.73444 0.32932 0.0
O71 O 0.4553 0.74875 0.30977 0.0
Cd72 Cd 0.50661 0.77975 0.32741 0.0
O73 O 0.44925 0.73282 0.35885 0.0
Cd74 Cd 0.50058 0.74676 0.39491 0.0
C75 C 0.49057 0.82228 0.39922 0.0
O76 O 0.53734 0.7468 0.35287 0.0
O77 O 0.55753 0.76954 0.40135 0.0
O78 O 0.50162 0.69295 0.4056 0.0
C79 C 0.56174 0.76097 0.37172 0.0
O80 O 0.49668 0.82024 0.36921 0.0
C81 C 0.49946 0.69734 0.43637 0.0
O82 O 0.48968 0.79863 0.41551 0.0
O83 O 0.49715 0.72502 0.44839 0.0
C84 C 0.48454 0.26358 0.7197 0.0
O85 O 0.50444 0.25514 0.74026 0.0
Cd86 Cd 0.55891 0.25507 0.7297 0.0
O87 O 0.49332 0.27445 0.69349 0.0
Cd88 Cd 0.53756 0.28938 0.66043 0.0
C89 C 0.5406 0.21066 0.65196 0.0
O90 O 0.57552 0.30321 0.70813 0.0
O91 O 0.5958 0.30406 0.66197 0.0
O92 O 0.51532 0.33643 0.65457 0.0
C93 C 0.6004 0.30624 0.69322 0.0
O94 O 0.55071 0.21406 0.68258 0.0
C95 C 0.51629 0.33588 0.6236 0.0
O96 O 0.53315 0.23375 0.6378 0.0
O97 O 0.52698 0.31307 0.60906 0.0
C98 C 0.93635 0.23936 0.81365 0.0
O99 O 0.95323 0.25598 0.79553 0.0
Cd100 Cd 0.00359 0.2871 0.81671 0.0
O101 O 0.94761 0.23556 0.84249 0.0
Cd102 Cd -0.00107 0.2467 0.87831 0.0
C103 C 0.98574 0.32045 0.89285 0.0
O104 O 0.03518 0.25148 0.8356 0.0
O105 O 0.05557 0.26912 0.88558 0.0
O106 O -0.00691 0.19028 0.87815 0.0
C107 C 0.05971 0.2633 0.85543 0.0
O108 O -0.0081 0.32195 0.86307 0.0
C109 C -0.00233 0.19032 0.90917 0.0
O110 O 0.98587 0.29507 0.9061 0.0
O111 O 0.00222 0.21705 0.92667 0.0
C112 C 0.46209 0.01872 0.32593 0.0
O113 O 0.47666 0.00375 0.30571 0.0
Cd114 Cd 0.45199 0.9742 0.25552 0.0
O115 O 0.43302 0.02121 0.31867 0.0
Cd116 Cd 0.38999 0.00832 0.27123 0.0
C117 C 0.38445 0.93241 0.28524 0.0
O118 O 0.42588 0.00973 0.22916 0.0
O119 O 0.37686 0.9891 0.21234 0.0
O120 O 0.38695 0.0636 0.2811 0.0
C121 C 0.40522 -0.00273 0.20543 0.0
O122 O 0.4115 0.9347 0.27384 0.0
C123 C 0.35688 0.06049 0.27521 0.0
O124 O 0.3703 0.95606 0.2883 0.0
O125 O 0.34117 0.03241 0.26896 0.0
C126 C 0.2963 0.07849 0.50719 0.0
O127 O 0.27536 0.05873 0.51815 0.0
Cd128 Cd 0.22258 0.06658 0.5274 0.0
O129 O 0.28957 0.10417 0.49819 0.0
Cd130 Cd 0.24408 0.13331 0.49214 0.0
C131 C 0.24404 0.13979 0.57583 0.0
O132 O 0.20245 0.08669 0.48013 0.0
O133 O 0.18585 0.13033 0.49044 0.0
O134 O 0.25702 0.14268 0.43696 0.0
C135 C 0.17901 0.10049 0.484 0.0
O136 O 0.23293 0.11019 0.57185 0.0
C137 C 0.25993 0.17256 0.44091 0.0
O138 O 0.2517 0.15454 0.55133 0.0
O139 O 0.25575 0.18502 0.46935 0.0
C140 C 0.08414 0.01999 0.85487 0.0
O141 O 0.06854 0.03329 0.83448 0.0
Cd142 Cd 0.0855 0.04833 0.78329 0.0
O143 O 0.11083 0.01254 0.84833 0.0
Cd144 Cd 0.14397 0.0136 0.79918 0.0
C145 C 0.16175 0.09321 0.80336 0.0
O146 O 0.09887 0.00264 0.75487 0.0
O147 O 0.14583 0.01655 0.73994 0.0
O148 O 0.15064 0.96017 0.80857 0.0
C149 C 0.1162 0.00749 0.73161 0.0
O150 O 0.13235 0.09051 0.79289 0.0
C151 C 0.18005 0.96346 0.80436 0.0
O152 O 0.17305 0.06905 0.81055 0.0
O153 O 0.19359 0.99071 0.799 0.0
C154 C 0.29664 0.90797 0.97444 0.0
O155 O 0.27621 0.92149 0.96008 0.0
Cd156 Cd 0.22038 0.90348 0.96462 0.0
O157 O 0.28814 0.88718 -0.00665 0.0
Cd158 Cd 0.2414 0.86027 0.01628 0.0
C159 C 0.21724 0.82473 0.93969 0.0
O160 O 0.21525 0.90537 0.02294 0.0
O161 O 0.18596 0.86016 0.02668 0.0
O162 O 0.27257 0.86624 0.06946 0.0
C163 C 0.18923 0.89005 0.03014 0.0
O164 O 0.20895 0.85049 0.93315 0.0
C165 C 0.26599 0.8372 0.0734 0.0
O166 O 0.23078 0.8225 0.96791 0.0
O167 O 0.24826 0.81881 0.05038 0.0
C168 C 0.31769 0.44217 0.04609 0.0
O169 O 0.29865 0.45939 0.03584 0.0
Cd170 Cd 0.2451 0.43994 0.01404 0.0
O171 O 0.30759 0.4134 0.05037 0.0
Cd172 Cd 0.25538 0.37519 0.04927 0.0
C173 C 0.25948 0.37184 0.96729 0.0
O174 O 0.22238 0.41466 0.05646 0.0
O175 O 0.19646 0.36825 0.03809 0.0
O176 O 0.26915 0.36743 0.10629 0.0
C177 C 0.19572 0.39705 0.04689 0.0
O178 O 0.25294 0.39957 0.97078 0.0
C179 C 0.26163 0.33748 0.10265 0.0
O180 O 0.26227 0.3564 0.992 0.0
O181 O 0.2521 0.3243 0.07344 0.0
C182 C 0.80552 0.07757 0.03927 0.0
O183 O 0.79167 0.06362 0.06128 0.0
Cd184 Cd 0.75089 0.08636 0.08599 0.0
O185 O 0.79608 0.10154 0.0291 0.0
Cd186 Cd 0.75244 0.13143 0.03536 0.0
C187 C 0.78351 0.16513 0.10942 0.0
O188 O 0.70893 0.089 0.04399 0.0
O189 O 0.70191 0.13701 0.05563 0.0
O190 O 0.74447 0.12443 0.97583 0.0
C191 C 0.69002 0.1078 0.05062 0.0
O192 O 0.77409 0.1376 0.11736 0.0
C193 C 0.74491 0.1533 0.97256 0.0
O194 O 0.7803 0.17034 0.07949 0.0
O195 O 0.74925 0.17251 -0.00117 0.0
C196 C 0.07204 0.50465 0.29688 0.0
O197 O 0.05153 0.51061 0.27521 0.0
Cd198 Cd 0.05705 0.50839 0.21747 0.0
O199 O 0.09697 0.49458 0.28868 0.0
Cd200 Cd 0.12497 0.4797 0.24052 0.0
C201 C 0.13153 0.5578 0.22903 0.0
O202 O 0.07617 0.46096 0.20537 0.0
O203 O 0.11832 0.46325 0.18038 0.0
O204 O 0.13984 0.43651 0.26927 0.0
C205 C 0.08805 0.45831 0.17823 0.0
O206 O 0.10169 0.55256 0.21951 0.0
C207 C 0.16884 0.44138 0.26312 0.0
O208 O 0.14537 0.53592 0.23854 0.0
O209 O 0.17747 0.46415 0.24662 0.0
C210 C 0.82344 0.94896 0.55742 0.0
O211 O 0.80513 0.96623 0.54579 0.0
Cd212 Cd 0.75205 0.9471 0.52195 0.0
O213 O 0.81267 0.92029 0.56161 0.0
Cd214 Cd 0.76001 0.88219 0.55802 0.0
C215 C 0.76632 0.87842 0.47625 0.0
O216 O 0.72704 0.92203 0.56339 0.0
O217 O 0.70137 0.8756 0.54475 0.0
O218 O 0.77098 0.87316 0.61527 0.0
C219 C 0.70054 0.90448 0.55293 0.0
O220 O 0.76028 0.90636 0.47921 0.0
C221 C 0.76379 0.84319 0.61073 0.0
O222 O 0.76817 0.86313 0.50119 0.0
O223 O 0.75564 0.83068 0.58107 0.0
C224 C 0.93777 -0.00282 0.32323 0.0
O225 O 0.95615 0.98324 0.30667 0.0
Cd226 Cd 0.94594 0.97227 0.24764 0.0
O227 O 0.9151 0.00783 0.30854 0.0
Cd228 Cd 0.89085 0.01373 0.25248 0.0
C229 C 0.86693 0.93391 0.24313 0.0
O230 O 0.94169 0.02162 0.22732 0.0
O231 O 0.89895 0.01603 0.19372 0.0
O232 O 0.89054 0.06718 0.27692 0.0
C233 C 0.92925 0.02168 0.19809 0.0
O234 O 0.89636 0.93334 0.24081 0.0
C235 C 0.86172 0.06801 0.26731 0.0
O236 O 0.85745 0.9602 0.24802 0.0
O237 O 0.84561 0.04316 0.25046 0.0
C238 C 0.31687 0.57306 0.55226 0.0
O239 O 0.30703 0.56556 0.57925 0.0
Cd240 Cd 0.26996 0.59239 0.60548 0.0
O241 O 0.30765 0.59574 0.53902 0.0
Cd242 Cd 0.26961 0.63179 0.54994 0.0
C243 C 0.30303 0.67068 0.62246 0.0
O244 O 0.22652 0.59127 0.56361 0.0
O245 O 0.21922 0.6395 0.5698 0.0
O246 O 0.2578 0.62445 0.49031 0.0
C247 C 0.20747 0.61037 0.56785 0.0
O248 O 0.29332 0.64474 0.63366 0.0
C249 C 0.25901 0.65344 0.48713 0.0
O250 O 0.29994 0.67237 0.59161 0.0
O251 O 0.26597 0.67275 0.51326 0.0
C252 C 0.42967 0.50509 0.8098 0.0
O253 O 0.44825 0.49103 0.79367 0.0
Cd254 Cd 0.43863 0.47587 0.73536 0.0
O255 O 0.40555 0.51332 0.79482 0.0
Cd256 Cd 0.37972 0.51159 0.73704 0.0
C257 C 0.36287 0.43143 0.73325 0.0
O258 O 0.43048 0.52269 0.71159 0.0
O259 O 0.38749 0.50955 0.67817 0.0
O260 O 0.36777 0.56333 0.75697 0.0
C261 C 0.41747 0.51905 0.68214 0.0
O262 O 0.39254 0.43277 0.73062 0.0
C263 C 0.33996 0.55889 0.74166 0.0
O264 O 0.35137 0.45668 0.73675 0.0
O265 O 0.3303 0.53229 0.72444 0.0
C266 C 0.56652 0.00423 0.78426 0.0
O267 O 0.54684 0.00927 0.76124 0.0
Cd268 Cd 0.55491 0.00554 0.70418 0.0
O269 O 0.59198 0.99415 0.77795 0.0
Cd270 Cd 0.62238 0.97792 0.73219 0.0
C271 C 0.62923 0.05537 0.71801 0.0
O272 O 0.57527 0.95853 0.69507 0.0
O273 O 0.61865 0.961 0.67224 0.0
O274 O 0.63513 0.93496 0.76252 0.0
C275 C 0.58837 0.95622 0.66864 0.0
O276 O 0.59969 0.04969 0.70712 0.0
C277 C 0.6647 0.93984 0.75857 0.0
O278 O 0.64283 0.03397 0.72913 0.0
O279 O 0.67466 0.96254 0.74246 0.0
C280 C 0.79466 0.57927 0.01449 0.0
O281 O 0.77307 0.55994 0.02506 0.0
Cd282 Cd 0.72038 0.56887 0.0325 0.0
O283 O 0.78868 0.60504 0.00498 0.0
Cd284 Cd 0.74325 0.63419 -0.00226 0.0
C285 C 0.74145 0.64177 0.08109 0.0
O286 O 0.70107 0.58777 0.98393 0.0
O287 O 0.68528 0.63153 -0.00356 0.0
O288 O 0.75591 0.64371 0.9425 0.0
C289 C 0.67792 0.60196 0.98792 0.0
O290 O 0.72979 0.61229 0.07713 0.0
C291 C 0.75869 0.67358 0.94647 0.0
O292 O 0.75011 0.65614 0.05668 0.0
O293 O 0.75494 0.68599 0.97506 0.0
C294 C 0.95349 0.51882 0.833 0.0
O295 O 0.96915 0.50732 0.81137 0.0
Cd296 Cd 0.94468 0.48215 0.75955 0.0
O297 O 0.92397 0.51983 0.82623 0.0
Cd298 Cd 0.88249 0.50862 0.77707 0.0
C299 C 0.87894 0.43253 0.7838 0.0
O300 O 0.91861 0.51969 0.73596 0.0
O301 O 0.8742 0.48818 0.71829 0.0
O302 O 0.87445 0.56158 0.79352 0.0
C303 C 0.89966 0.50505 0.71178 0.0
O304 O 0.90598 0.43753 0.77239 0.0
C305 C 0.84515 0.55746 0.78283 0.0
O306 O 0.86388 0.45507 0.79003 0.0
O307 O 0.83188 0.52961 0.77069 0.0
C308 C 0.80597 0.43121 0.48175 0.0
O309 O 0.78879 0.44991 0.47105 0.0
Cd310 Cd 0.73178 0.43371 0.46827 0.0
O311 O 0.79355 0.40717 0.49477 0.0
Cd312 Cd 0.7438 0.37921 0.51163 0.0
C313 C 0.72631 0.35664 0.4312 0.0
O314 O 0.71882 0.42499 0.52304 0.0
O315 O 0.68815 0.37919 0.51898 0.0
O316 O 0.77193 0.3791 0.56518 0.0
C317 C 0.69156 0.40894 0.52569 0.0
O318 O 0.72358 0.38529 0.4294 0.0
C319 C 0.76446 0.3495 0.56585 0.0
O320 O 0.73359 0.34732 0.45877 0.0
O321 O 0.74742 0.33344 0.54085 0.0
C322 C 0.57687 0.52085 0.3393 0.0
O323 O 0.56212 0.53595 0.32007 0.0
Cd324 Cd 0.58025 0.55393 0.27079 0.0
O325 O 0.60328 0.513 0.33237 0.0
Cd326 Cd 0.63688 0.51604 0.28391 0.0
C327 C 0.65723 0.59566 0.29534 0.0
O328 O 0.59202 0.50865 0.24025 0.0
O329 O 0.63898 0.52308 0.22547 0.0
O330 O 0.63999 0.46082 0.28754 0.0
C331 C 0.6093 0.51433 0.21718 0.0
O332 O 0.6281 0.59447 0.28473 0.0
C333 C 0.66943 0.463 0.28385 0.0
O334 O 0.66767 0.57038 0.29984 0.0
O335 O 0.6848 0.49052 0.28189 0.0
Zn336 Zn 0.04059 0.99196 0.04983 0.0
Zn337 Zn 0.98173 0.0274 0.00794 0.0
C338 C 0.00546 0.9432 0.07913 0.0
O339 O 0.01443 0.96545 0.10406 0.0
C340 C -0.00936 0.07194 0.9639 0.0
O341 O 0.97314 0.04701 0.94602 0.0
O342 O 0.08241 0.97858 0.06181 0.0
O343 O 0.04777 0.00622 0.00471 0.0
O344 O -0.00079 0.99506 0.97888 0.0
C345 C 0.0839 0.95414 0.04226 0.0
O346 O 0.06067 0.9435 0.01858 0.0
O347 O 0.01026 0.94985 0.05014 0.0
C348 C 0.92594 0.04917 0.00998 0.0
O349 O 0.948 0.07277 0.02422 0.0
O350 O 0.93406 0.02354 -0.00122 0.0
O351 O 0.98627 0.02914 0.05738 0.0
O352 O 0.02995 0.02263 0.0863 0.0
O353 O -5e-05 0.06978 -0.00622 0.0
C354 C 0.02932 0.00014 0.97795 0.0
C355 C 0.00208 0.02925 0.08506 0.0
Zn356 Zn 0.24336 0.73225 0.30863 0.0
Zn357 Zn 0.27375 0.75619 0.24967 0.0
C358 C 0.19483 0.68536 0.27059 0.0
O359 O 0.17659 0.70422 0.28274 0.0
C360 C 0.32325 0.80405 0.28148 0.0
O361 O 0.33937 0.78474 0.26633 0.0
O362 O 0.23411 0.72094 0.35363 0.0
O363 O 0.29123 0.73806 0.31265 0.0
O364 O 0.29383 0.71982 0.26133 0.0
C365 C 0.24222 0.69476 0.35866 0.0
O366 O 0.25294 0.67849 0.33457 0.0
O367 O 0.22493 0.69305 0.27712 0.0
C368 C 0.28243 0.79466 0.1998 0.0
O369 O 0.274 0.81359 0.22325 0.0
O370 O 0.28486 0.76669 0.20501 0.0
O371 O 0.22661 0.75124 0.24462 0.0
O372 O 0.22134 0.76793 0.29595 0.0
O373 O 0.29318 0.79566 0.28071 0.0
C374 C 0.30525 0.72372 0.29135 0.0
C375 C 0.21294 0.7667 0.26522 0.0
Zn376 Zn 0.48301 0.03623 0.52871 0.0
Zn377 Zn 0.54758 -0.00115 0.50187 0.0
C378 C 0.50863 0.08415 0.58368 0.0
O379 O 0.50264 0.06048 0.60126 0.0
C380 C 0.51075 0.94961 0.45755 0.0
O381 O 0.52637 0.96721 0.43779 0.0
O382 O 0.43557 0.03557 0.52502 0.0
O383 O 0.49591 0.03622 0.48185 0.0
O384 O 0.54239 0.02655 0.46673 0.0
C385 C 0.42679 0.05815 0.51122 0.0
O386 O 0.44857 0.07887 0.50044 0.0
O387 O 0.50278 0.07913 0.55248 0.0
C388 C 0.58871 0.95625 0.5161 0.0
O389 O 0.56096 0.94014 0.52122 0.0
O390 O 0.59001 0.98359 0.50662 0.0
O391 O 0.54236 0.0217 0.54459 0.0
O392 O 0.49497 0.00272 0.55658 0.0
O393 O 0.5139 0.95919 0.48829 0.0
C394 C 0.51565 0.03497 0.46025 0.0
C395 C 0.52492 0.00423 0.56126 0.0
Zn396 Zn 0.29431 0.24686 0.76421 0.0
Zn397 Zn 0.23686 0.27573 0.77843 0.0
C398 C 0.2718 0.20144 0.70973 0.0
O399 O 0.28152 0.18443 0.73202 0.0
C400 C 0.26093 0.3192 0.83273 0.0
O401 O 0.25041 0.33615 0.81081 0.0
O402 O 0.33907 0.23903 0.76303 0.0
O403 O 0.30242 0.29467 0.77161 0.0
O404 O 0.25791 0.30325 0.74644 0.0
C405 C 0.35125 0.25179 0.73928 0.0
O406 O 0.33333 0.26537 0.71967 0.0
O407 O 0.27336 0.23086 0.71778 0.0
C408 C 0.18408 0.27308 0.81128 0.0
O409 O 0.20299 0.25823 0.8282 0.0
O410 O 0.19303 0.28426 0.78531 0.0
O411 O 0.22789 0.22853 0.76779 0.0
O412 O 0.27084 0.22005 0.79579 0.0
O413 O 0.2608 0.29015 0.82392 0.0
C414 C 0.28778 0.31167 0.75451 0.0
C415 C 0.24125 0.21166 0.78614 0.0
Zn416 Zn 0.01849 0.98186 0.53933 0.0
Zn417 Zn -0.00124 0.04396 0.52571 0.0
C418 C 0.06383 -0.00382 0.59513 0.0
O419 O 0.0806 0.98545 0.57252 0.0
C420 C 0.96004 0.02103 0.46568 0.0
O421 O 0.94109 0.03656 0.48169 0.0
O422 O 0.02057 0.93563 0.53861 0.0
O423 O 0.97062 0.9804 0.53203 0.0
O424 O 0.96807 0.0272 0.55673 0.0
C425 C 0.00351 0.92484 0.56039 0.0
O426 O -0.01057 0.9443 0.57814 0.0
O427 O 0.03527 -0.00091 0.58665 0.0
C428 C 0.00602 0.09548 0.49139 0.0
O429 O 0.02085 0.07564 0.47517 0.0
O430 O -0.00636 0.08791 0.51728 0.0
O431 O 0.04536 0.04809 0.53913 0.0
O432 O 0.04882 0.00396 0.50948 0.0
O433 O 0.98659 0.01834 0.48061 0.0
C434 C 0.95569 -0.0017 0.54876 0.0
C435 C 0.06038 0.03278 0.51973 0.0
Zn436 Zn 0.25926 0.79839 0.76814 0.0
Zn437 Zn 0.26633 0.72739 0.77142 0.0
C438 C 0.20689 0.78594 0.7192 0.0
O439 O 0.22801 0.80301 0.70368 0.0
C440 C 0.32353 0.7426 0.81399 0.0
O441 O 0.30726 0.72134 0.82983 0.0
O442 O 0.25718 0.84572 0.77418 0.0
O443 O 0.26359 0.78517 0.81408 0.0
O444 O 0.23577 0.7365 0.80399 0.0
C445 C 0.23436 0.84982 0.79137 0.0
O446 O 0.21839 0.8251 0.80252 0.0
O447 O 0.21518 0.77915 0.7477 0.0
C448 C 0.26934 0.6616 0.74372 0.0
O449 O 0.25532 0.66762 0.71587 0.0
O450 O 0.27331 0.68209 0.76901 0.0
O451 O 0.25707 0.73969 0.72672 0.0
O452 O 0.29036 0.78514 0.73652 0.0
O453 O 0.30995 0.75106 0.78854 0.0
C454 C 0.24444 0.76228 0.82282 0.0
C455 C 0.28004 0.75904 0.71836 0.0
Zn456 Zn 0.50502 0.02554 0.97144 0.0
Zn457 Zn 0.48203 0.99121 0.02545 0.0
C458 C 0.5571 0.06687 0.00933 0.0
O459 O 0.5416 0.08784 -0.00209 0.0
C460 C 0.43142 0.94886 0.98937 0.0
O461 O 0.44854 0.9299 0.00244 0.0
O462 O 0.51645 0.03769 0.92756 0.0
O463 O 0.49581 0.97826 0.96115 0.0
O464 O 0.51621 0.9692 0.00935 0.0
C465 C 0.54093 0.02681 0.91961 0.0
O466 O 0.55665 0.01348 0.94148 0.0
O467 O 0.54543 0.03772 0.00204 0.0
C468 C 0.44237 0.98314 0.0747 0.0
O469 O 0.42552 0.99574 0.05313 0.0
O470 O 0.46926 0.97686 0.068 0.0
O471 O 0.49151 0.03752 0.03747 0.0
O472 O 0.47314 0.05044 0.99009 0.0
O473 O 0.44231 0.97835 -0.00642 0.0
C474 C 0.51144 0.96209 0.97829 0.0
C475 C 0.47787 0.05584 0.0214 0.0
Zn476 Zn 0.27751 0.22464 0.25546 0.0
Zn477 Zn 0.26089 0.28885 0.29178 0.0
C478 C 0.33165 0.24453 0.2263 0.0
O479 O 0.31034 0.23089 0.20174 0.0
C480 C 0.20945 0.27342 0.32354 0.0
O481 O 0.23235 0.28997 0.34503 0.0
O482 O 0.28322 0.17869 0.24626 0.0
O483 O 0.26132 0.22476 0.30031 0.0
O484 O 0.28607 0.27019 0.32716 0.0
C485 C 0.30455 0.17451 0.26835 0.0
O486 O 0.31708 0.19829 0.29084 0.0
O487 O 0.32315 0.24728 0.25536 0.0
C488 C 0.23932 0.34313 0.28012 0.0
O489 O 0.22801 0.3227 0.25411 0.0
O490 O 0.25693 0.33492 0.30318 0.0
O491 O 0.27575 0.28821 0.24609 0.0
O492 O 0.25207 0.24222 0.21952 0.0
O493 O 0.21513 0.26777 0.29367 0.0
C494 C 0.27519 0.24082 0.32692 0.0
C495 C 0.26235 0.27169 0.2195 0.0
Zn496 Zn 0.51194 0.48148 0.02533 0.0
Zn497 Zn 0.49119 0.54498 0.01499 0.0
C498 C 0.55575 0.49866 0.08125 0.0
O499 O 0.57284 0.48764 0.05913 0.0
C500 C 0.45512 0.53156 0.95219 0.0
O501 O 0.43646 0.54686 0.9689 0.0
O502 O 0.5171 0.43605 0.02709 0.0
O503 O 0.46402 0.4779 0.01589 0.0
O504 O 0.46013 0.52335 0.04288 0.0
C505 C 0.50127 0.42542 0.04985 0.0
O506 O 0.48463 0.44382 0.0656 0.0
O507 O 0.52686 0.50029 0.07253 0.0
C508 C 0.50593 0.60614 -0.00032 0.0
O509 O 0.52834 0.59289 0.98728 0.0
O510 O 0.48491 0.58986 0.01415 0.0
O511 O 0.53782 0.54779 0.02876 0.0
O512 O 0.5428 0.50523 -0.00292 0.0
O513 O 0.48047 0.526 0.96726 0.0
C514 C 0.44842 0.49456 0.03327 0.0
C515 C 0.55408 0.53353 0.00974 0.0
Zn516 Zn 0.75526 0.30009 0.25102 0.0
Zn517 Zn 0.78104 0.23659 0.2832 0.0
C518 C 0.7044 0.27094 0.20536 0.0
O519 O 0.72478 0.28471 0.18666 0.0
C520 C 0.83524 0.26826 0.32452 0.0
O521 O 0.81768 0.25548 0.34621 0.0
O522 O 0.74613 0.34509 0.25015 0.0
O523 O 0.77024 0.2973 0.29821 0.0
O524 O 0.75117 0.25172 0.31435 0.0
C525 C 0.7206 0.34765 0.26348 0.0
O526 O 0.70478 0.32258 0.27429 0.0
O527 O 0.71277 0.27214 0.23606 0.0
C528 C 0.81743 0.18668 0.28383 0.0
O529 O 0.83951 0.21052 0.27932 0.0
O530 O 0.78899 0.19124 0.28653 0.0
O531 O 0.76606 0.23941 0.23636 0.0
O532 O 0.78561 0.28504 0.2202 0.0
O533 O 0.82339 0.26548 0.29466 0.0
C534 C 0.75312 0.28154 0.31686 0.0
C535 C 0.78391 0.25521 0.21828 0.0
Zn536 Zn 0.02208 0.52433 0.48972 0.0
Zn537 Zn -0.00567 0.49106 0.54317 0.0
C538 C 0.07544 0.56663 0.52348 0.0
O539 O 0.05925 0.5868 0.51139 0.0
C540 C 0.94197 0.45671 0.50307 0.0
O541 O 0.95469 0.43474 0.51625 0.0
O542 O 0.03019 0.53562 0.44463 0.0
O543 O 0.01267 0.47681 0.48068 0.0
O544 O 0.02466 0.46307 0.52973 0.0
C545 C 0.05423 0.5251 0.43486 0.0
O546 O 0.07182 0.51247 0.45575 0.0
O547 O 0.06404 0.53728 0.51773 0.0
C548 C 0.95229 0.49611 0.58834 0.0
O549 O 0.94613 0.5155 0.56704 0.0
O550 O 0.97353 0.47938 0.58334 0.0
O551 O 0.01277 0.53636 0.55612 0.0
O552 O -0.008 0.55025 0.51045 0.0
O553 O 0.95695 0.48504 0.50841 0.0
C554 C 0.02389 0.45817 0.49858 0.0
C555 C -0.00039 0.55589 0.54145 0.0
Zn556 Zn 0.79234 0.74947 0.26902 0.0
Zn557 Zn 0.7361 0.7816 0.28828 0.0
C558 C 0.76853 0.70394 0.21481 0.0
O559 O 0.77736 0.68666 0.23726 0.0
C560 C 0.76391 0.82399 0.34199 0.0
O561 O 0.75342 0.84148 0.32062 0.0
O562 O 0.83659 0.74016 0.26821 0.0
O563 O 0.80155 0.79735 0.27588 0.0
O564 O 0.75638 0.80963 0.25625 0.0
C565 C 0.84951 0.75154 0.24414 0.0
O566 O 0.83258 0.76534 0.22376 0.0
O567 O 0.77121 0.73353 0.22265 0.0
C568 C 0.68494 0.77826 0.32402 0.0
O569 O 0.70475 0.76347 0.33979 0.0
O570 O 0.69273 0.7901 0.29798 0.0
O571 O 0.72573 0.73472 0.27538 0.0
O572 O 0.76857 0.72305 0.30059 0.0
O573 O 0.76213 0.79468 0.33295 0.0
C574 C 0.78668 0.81598 0.2614 0.0
C575 C 0.73877 0.71615 0.29173 0.0
Zn576 Zn 0.74125 0.23101 0.79258 0.0
Zn577 Zn 0.77101 0.25474 0.73376 0.0
C578 C 0.69209 0.18378 0.75564 0.0
O579 O 0.67392 0.20292 0.76735 0.0
C580 C 0.81997 0.30235 0.76654 0.0
O581 O 0.83599 0.28456 0.7491 0.0
O582 O 0.73129 0.2208 0.83758 0.0
O583 O 0.78895 0.23564 0.79614 0.0
O584 O 0.79182 0.21859 0.74442 0.0
C585 C 0.73865 0.19455 0.84344 0.0
O586 O 0.74996 0.17776 0.8202 0.0
O587 O 0.72221 0.19157 0.76182 0.0
C588 C 0.77781 0.29544 0.68638 0.0
O589 O 0.76809 0.31218 0.7108 0.0
O590 O 0.78184 0.26748 0.68973 0.0
O591 O 0.72382 0.24887 0.72879 0.0
O592 O 0.72028 0.26722 0.77994 0.0
O593 O 0.79006 0.29323 0.7664 0.0
C594 C 0.80327 0.22216 0.77446 0.0
C595 C 0.71113 0.26539 0.74936 0.0
Zn596 Zn 0.77422 0.72499 0.76054 0.0
Zn597 Zn 0.75745 0.78946 0.79604 0.0
C598 C 0.82958 0.74134 0.73219 0.0
O599 O 0.80815 0.72826 0.70752 0.0
C600 C 0.70404 0.77219 0.82437 0.0
O601 O 0.72562 0.78893 0.8471 0.0
O602 O 0.77701 0.67818 0.75168 0.0
O603 O 0.75748 0.72614 0.80538 0.0
O604 O 0.78165 0.77154 0.83269 0.0
C605 C 0.79662 0.67291 0.77489 0.0
O606 O 0.81011 0.69667 0.79701 0.0
O607 O 0.82078 0.74516 0.76104 0.0
C608 C 0.73423 0.84229 0.78281 0.0
O609 O 0.7235 0.82106 0.75731 0.0
O610 O 0.75208 0.8352 0.80641 0.0
O611 O 0.77546 0.78922 0.75198 0.0
O612 O 0.75083 0.7442 0.72418 0.0
O613 O 0.71153 0.76712 0.7951 0.0
C614 C 0.77108 0.74209 0.83218 0.0
C615 C 0.76208 0.77358 0.72495 0.0
Zn616 Zn 0.53365 0.49921 0.53448 0.0
Zn617 Zn 0.4733 0.51883 0.4952 0.0
C618 C 0.5093 0.45039 0.56856 0.0
O619 O 0.52284 0.47354 0.59134 0.0
C620 C 0.48431 0.58685 0.50464 0.0
O621 O 0.45974 0.5822 0.52193 0.0
O622 O 0.57783 0.49201 0.54919 0.0
O623 O 0.53916 0.50917 0.48748 0.0
O624 O 0.49115 0.49179 0.46153 0.0
C625 C 0.5819 0.46755 0.53112 0.0
O626 O 0.5596 0.45412 0.50739 0.0
O627 O 0.50791 0.45556 0.53843 0.0
C628 C 0.40619 0.50473 0.49384 0.0
O629 O 0.4126 0.47972 0.50684 0.0
O630 O 0.42805 0.5215 0.48083 0.0
O631 O 0.47041 0.50751 0.54125 0.0
O632 O 0.51709 0.53006 0.56699 0.0
O633 O 0.49624 0.56329 0.49401 0.0
C634 C 0.52114 0.49933 0.46082 0.0
C635 C 0.48693 0.52264 0.56694 0.0
Zn636 Zn 0.97896 0.53129 0.03698 0.0
Zn637 Zn 0.04089 0.49146 0.00548 0.0
C638 C 0.0079 0.57838 0.09173 0.0
O639 O 0.00249 0.55454 0.10918 0.0
C640 C 0.00218 0.44359 0.96053 0.0
O641 O 0.01571 0.46273 0.94082 0.0
O642 O 0.93187 0.53235 0.03472 0.0
O643 O -0.01006 0.53125 0.98949 0.0
O644 O 0.03504 0.52046 0.97178 0.0
C645 C 0.92402 0.5554 0.02103 0.0
O646 O 0.94639 0.57531 0.01003 0.0
O647 O 0.00051 0.57373 0.06069 0.0
C648 C 0.08253 0.44911 0.01743 0.0
O649 O 0.0553 0.43332 0.02438 0.0
O650 O 0.0833 0.47632 0.00781 0.0
O651 O 0.03774 0.51341 0.04936 0.0
O652 O -0.00923 0.49715 0.06416 0.0
O653 O 0.00725 0.45163 0.99158 0.0
C654 C 0.0085 0.52967 0.96682 0.0
C655 C 0.02047 0.49681 0.06693 0.0
C656 C 0.00445 0.16005 0.95783 0.0
C657 C -0.00236 0.1604 0.92368 0.0
H658 H 0.00807 0.13162 -0.00249 0.0
C659 C -0.00933 0.13158 0.90298 0.0
H660 H 0.01012 0.18189 0.97436 0.0
C661 C -0.01045 0.10302 0.91614 0.0
C662 C -0.00447 0.10252 0.9503 0.0
H663 H 0.98556 0.13098 0.87653 0.0
H664 H 0.98348 0.08125 0.89948 0.0
C665 C 0.00352 0.13131 0.97104 0.0
C666 C 0.13287 0.79263 0.25646 0.0
C667 C 0.13073 0.79812 0.22309 0.0
H668 H 0.16099 0.77847 0.29638 0.0
C669 C 0.15738 0.79716 0.20551 0.0
H670 H 0.11272 0.79335 0.27069 0.0
C671 C 0.18463 0.78843 0.22006 0.0
C672 C 0.18602 0.78079 0.25262 0.0
H673 H 0.15665 0.80158 0.17991 0.0
H674 H 0.20426 0.78654 0.20532 0.0
C675 C 0.16044 0.78414 0.2712 0.0
C676 C 0.49284 0.86074 0.45013 0.0
C677 C 0.48759 0.85356 0.41558 0.0
H678 H 0.50383 0.89741 0.49101 0.0
C679 C 0.48344 0.87781 0.39621 0.0
H680 H 0.49589 0.8425 0.46572 0.0
C681 C 0.4879 0.90902 0.41062 0.0
C682 C 0.49652 0.91666 0.4447 0.0
H683 H 0.47867 0.87299 0.36959 0.0
H684 H 0.48675 0.92743 0.39474 0.0
C685 C 0.49725 0.89216 0.46463 0.0
C686 C 0.43883 0.24616 0.75246 0.0
C687 C 0.45055 0.26029 0.7254 0.0
H688 H 0.39789 0.23205 0.77809 0.0
C689 C 0.42925 0.27084 0.70296 0.0
H690 H 0.45466 0.23767 0.77011 0.0
C691 C 0.39705 0.26753 0.70744 0.0
C692 C 0.38524 0.25357 0.73447 0.0
H693 H 0.43738 0.28179 0.6818 0.0
H694 H 0.38145 0.27614 0.68966 0.0
C695 C 0.40636 0.24279 0.75695 0.0
C696 C 0.98044 0.85244 0.60265 0.0
C697 C -0.00105 0.83184 0.5888 0.0
H698 H 0.96699 0.89751 0.60408 0.0
C699 C 0.01695 0.8407 0.56296 0.0
H700 H 0.96608 0.84604 0.62235 0.0
C701 C 0.01788 0.87071 0.55261 0.0
C702 C 0.00056 0.89191 0.56783 0.0
H703 H 0.03148 0.82514 0.55196 0.0
H704 H 0.03291 0.87766 0.53363 0.0
C705 C 0.98107 0.88201 0.59217 0.0
C706 C 0.40634 0.75096 0.85774 0.0
C707 C 0.42522 0.76732 0.83622 0.0
H708 H 0.35942 0.73065 0.86777 0.0
C709 C 0.41016 0.77713 0.80829 0.0
H710 H 0.41714 0.7432 0.87961 0.0
C711 C 0.37693 0.7701 0.80166 0.0
C712 C 0.3582 0.753 0.82276 0.0
H713 H 0.42401 0.78997 0.79137 0.0
H714 H 0.36603 0.77738 0.77955 0.0
C715 C 0.3732 0.74383 0.85104 0.0
C716 C 0.47857 0.14231 0.04682 0.0
C717 C 0.47692 0.14212 0.08102 0.0
H718 H 0.47987 0.11456 0.00044 0.0
C719 C 0.46985 0.11308 0.09366 0.0
H720 H 0.48389 0.1644 0.0364 0.0
C721 C 0.46747 0.08489 0.07324 0.0
C722 C 0.47214 0.08507 0.03972 0.0
H723 H 0.46784 0.11212 0.11975 0.0
H724 H 0.4638 0.06294 0.08416 0.0
C725 C 0.47618 0.11386 0.02622 0.0
C726 C 0.14628 0.25946 0.38108 0.0
C727 C 0.11839 0.25954 0.36044 0.0
H728 H 0.19686 0.26302 0.38514 0.0
C729 C 0.12008 0.25979 0.32628 0.0
H730 H 0.14569 0.25874 0.40739 0.0
C731 C 0.14964 0.26213 0.31339 0.0
C732 C 0.17769 0.26431 0.33462 0.0
H733 H 0.09886 0.25965 0.30978 0.0
H734 H 0.15074 0.26409 0.28733 0.0
C735 C 0.17558 0.26183 0.3683 0.0
C736 C 0.98191 0.02605 0.17374 0.0
C737 C 0.94899 0.02675 0.17023 0.0
H738 H 0.02479 0.02658 0.14977 0.0
C739 C 0.93477 0.03155 0.13943 0.0
H740 H -0.00636 0.02252 0.19721 0.0
C741 C 0.95265 0.03436 0.11248 0.0
C742 C 0.98525 0.03206 0.1154 0.0
H743 H 0.90959 0.03257 0.13592 0.0
H744 H 0.94044 0.03709 0.08896 0.0
C745 C -0.00017 0.02854 0.14658 0.0
C746 C 0.24955 0.69536 0.45146 0.0
C747 C 0.25278 0.66397 0.45446 0.0
H748 H 0.24298 0.72974 0.41853 0.0
C749 C 0.25019 0.64252 0.42582 0.0
H750 H 0.25119 0.71234 0.47317 0.0
C751 C 0.24564 0.65246 0.39476 0.0
C752 C 0.24322 0.68398 0.39165 0.0
H753 H 0.25238 0.61814 0.42732 0.0
H754 H 0.24454 0.6355 0.37312 0.0
C755 C 0.2446 0.70525 0.42025 0.0
C756 C 0.58866 0.97587 0.61362 0.0
C757 C 0.57128 0.96189 0.63754 0.0
H758 H 0.58781 0.00138 0.57196 0.0
C759 C 0.53777 0.95867 0.63409 0.0
H760 H 0.61447 0.9789 0.61557 0.0
C761 C 0.52219 0.97096 0.60826 0.0
C762 C 0.53996 0.98707 0.58584 0.0
H763 H 0.52377 0.94806 0.65226 0.0
H764 H 0.49652 0.96924 0.60686 0.0
C765 C 0.57326 0.98881 0.58851 0.0
C766 C 0.26339 0.32556 0.92599 0.0
C767 C 0.26388 0.35806 0.93372 0.0
H768 H 0.26237 0.2875 0.88765 0.0
C769 C 0.26744 0.37774 0.90851 0.0
H770 H 0.26088 0.30982 0.94492 0.0
C771 C 0.26859 0.36512 0.87607 0.0
C772 C 0.26613 0.33246 0.86789 0.0
H773 H 0.26853 0.40298 0.91361 0.0
H774 H 0.27019 0.38092 0.85715 0.0
C775 C 0.26446 0.31282 0.89327 0.0
C776 C 0.96953 0.99312 0.37675 0.0
C777 C 0.9427 0.00136 0.35984 0.0
H778 H -0.00399 0.99263 0.4235 0.0
C779 C 0.92064 0.01403 0.37828 0.0
H780 H 0.98693 0.98318 0.36332 0.0
C781 C 0.92569 0.01915 0.4127 0.0
C782 C 0.95302 0.01191 0.42958 0.0
H783 H 0.89957 0.0204 0.36613 0.0
H784 H 0.90851 0.02958 0.426 0.0
C785 C 0.97468 -0.00158 0.41126 0.0
C786 C 0.29934 0.7271 0.63674 0.0
C787 C 0.31026 0.69996 0.64572 0.0
H788 H 0.28105 0.76829 0.65391 0.0
C789 C 0.32017 0.69859 0.67902 0.0
H790 H 0.29147 0.72878 0.61123 0.0
C791 C 0.315 0.72171 0.70324 0.0
C792 C 0.29939 0.74609 0.69448 0.0
H793 H 0.32876 0.67803 0.6866 0.0
H794 H 0.31955 0.71832 0.72895 0.0
C795 C 0.29349 0.74988 0.66111 0.0
C796 C 0.53366 0.02432 0.82673 0.0
C797 C 0.56039 0.01121 0.81895 0.0
H798 H 0.50672 0.04011 0.86483 0.0
C799 C 0.58163 0.00538 0.84468 0.0
H800 H 0.51698 0.02937 0.80745 0.0
C801 C 0.57585 0.01173 0.87743 0.0
C802 C 0.54873 0.02407 0.8852 0.0
H803 H 0.60259 0.99555 0.83959 0.0
H804 H 0.59238 0.00632 0.89663 0.0
C805 C 0.5279 0.03075 0.85959 0.0
C806 C 0.25094 0.28669 0.12907 0.0
C807 C 0.26276 0.31944 0.13162 0.0
H808 H 0.24128 0.24559 0.15479 0.0
C809 C 0.2746 0.33566 0.16285 0.0
H810 H 0.24152 0.27351 0.10533 0.0
C811 C 0.27438 0.31988 0.19083 0.0
C812 C 0.26227 0.28725 0.18867 0.0
H813 H 0.28386 0.36083 0.16587 0.0
H814 H 0.2836 0.3336 0.21436 0.0
C815 C 0.25067 0.27071 0.15738 0.0
C816 C 0.13122 0.88909 0.03334 0.0
C817 C 0.16261 0.90612 0.03764 0.0
H818 H 0.08157 0.89135 0.03152 0.0
C819 C 0.16812 0.93892 0.04731 0.0
H820 H 0.12629 0.86381 0.02605 0.0
C821 C 0.14247 0.95462 0.05115 0.0
C822 C 0.1111 0.93774 0.04466 0.0
H823 H 0.19219 0.95253 0.05107 0.0
H824 H 0.1471 0.98004 0.05732 0.0
C825 C 0.10567 0.90483 0.03646 0.0
C826 C 0.62467 0.59949 0.0089 0.0
C827 C 0.64568 0.5844 0.9914 0.0
H828 H 0.58021 0.59517 0.02932 0.0
C829 C 0.63634 0.55214 0.97944 0.0
H830 H 0.63122 0.62419 0.01878 0.0
C831 C 0.60644 0.53537 0.98494 0.0
C832 C 0.58569 0.55049 0.00301 0.0
H833 H 0.65219 0.53986 0.96601 0.0
H834 H 0.59978 0.51059 0.97546 0.0
C835 C 0.59532 0.5827 0.015 0.0
C836 C 0.66688 0.40541 0.28665 0.0
C837 C 0.68415 0.43436 0.28014 0.0
H838 H 0.66468 0.3559 0.2864 0.0
C839 C 0.7142 0.43492 0.26822 0.0
H840 H 0.6437 0.40403 0.29581 0.0
C841 C 0.72635 0.40687 0.26243 0.0
C842 C 0.70872 0.37789 0.26869 0.0
H843 H 0.72801 0.45688 0.26277 0.0
H844 H 0.74941 0.40788 0.25308 0.0
C845 C 0.67899 0.37768 0.28111 0.0
C846 C 0.85777 0.41265 0.48326 0.0
C847 C 0.84083 0.43748 0.48077 0.0
H848 H 0.90322 0.3992 0.49117 0.0
C849 C 0.85775 0.46822 0.48007 0.0
H850 H 0.84533 0.38858 0.48314 0.0
C851 C 0.89115 0.47437 0.48482 0.0
C852 C 0.90795 0.44979 0.49006 0.0
H853 H 0.84523 0.48774 0.47791 0.0
H854 H 0.90362 0.49858 0.48638 0.0
C855 C 0.89098 0.41871 0.48768 0.0
C856 C 0.35868 0.11788 0.28989 0.0
C857 C 0.34173 0.0887 0.27438 0.0
H858 H 0.3603 0.16735 0.29989 0.0
C859 C 0.31184 0.08757 0.25646 0.0
H860 H 0.38177 0.11961 0.3038 0.0
C861 C 0.29952 0.11541 0.25371 0.0
C862 C 0.31673 0.14457 0.26934 0.0
H863 H 0.2984 0.06537 0.24397 0.0
H864 H 0.27659 0.11409 0.23969 0.0
C865 C 0.3463 0.14533 0.28757 0.0
C866 C 0.35279 0.09338 0.49392 0.0
C867 C 0.32925 0.07218 0.50634 0.0
H868 H 0.40186 0.10547 0.48558 0.0
C869 C 0.33785 0.04553 0.5192 0.0
H870 H 0.34703 0.11409 0.48376 0.0
C871 C 0.36939 0.04062 0.52034 0.0
C872 C 0.39302 0.0622 0.50858 0.0
H873 H 0.32033 0.02868 0.52896 0.0
H874 H 0.37531 0.02015 0.53086 0.0
C875 C 0.38427 0.08841 0.49498 0.0
C876 C 0.71255 0.62955 0.30299 0.0
C877 C 0.67907 0.62684 0.29961 0.0
H878 H 0.75806 0.66016 0.30334 0.0
C879 C 0.66613 0.65433 0.29712 0.0
H880 H 0.7233 0.60885 0.30497 0.0
C881 C 0.68583 0.68332 0.29596 0.0
C882 C 0.71913 0.68584 0.29748 0.0
H883 H 0.64054 0.65336 0.2949 0.0
H884 H 0.6748 0.70372 0.29298 0.0
C885 C 0.73245 0.65889 0.30205 0.0
C886 C 0.88287 0.37581 0.78455 0.0
C887 C 0.86421 0.39953 0.78685 0.0
H888 H 0.88343 0.32636 0.77709 0.0
C889 C 0.83115 0.39077 0.78823 0.0
H890 H 0.9085 0.38175 0.78405 0.0
C891 C 0.81673 0.3588 0.78432 0.0
C892 C 0.8352 0.33521 0.77898 0.0
H893 H 0.81616 0.4085 0.79018 0.0
H894 H 0.79096 0.3527 0.78321 0.0
C895 C 0.86852 0.34402 0.78066 0.0
C896 C -0.00883 0.87644 0.13034 0.0
C897 C 0.00705 0.85445 0.11423 0.0
H898 H 0.9773 0.9216 0.13101 0.0
C899 C 0.01636 0.85917 0.08269 0.0
H900 H 0.98321 0.87329 0.15441 0.0
C901 C 0.01255 0.88689 0.06902 0.0
C902 C -0.00048 0.91024 0.08682 0.0
H903 H 0.02844 0.84251 0.06956 0.0
H904 H 0.02227 0.89117 0.04598 0.0
C905 C 0.98751 0.90403 0.11681 0.0
C906 C 0.89101 0.22513 0.76904 0.0
C907 C 0.90229 0.2276 0.80261 0.0
H908 H 0.85032 0.22034 0.73349 0.0
C909 C 0.88031 0.22254 0.82598 0.0
H910 H 0.9075 0.22853 0.75047 0.0
C911 C 0.84764 0.21837 0.81634 0.0
C912 C 0.83647 0.21863 0.78313 0.0
H913 H 0.88832 0.22412 0.85202 0.0
H914 H 0.83123 0.21671 0.83513 0.0
C915 C 0.85829 0.22028 0.75931 0.0
C916 C 0.53884 0.15244 0.65026 0.0
C917 C 0.53531 0.17863 0.63347 0.0
H918 H 0.53318 0.10217 0.64771 0.0
C919 C 0.52499 0.17352 0.59952 0.0
H920 H 0.54689 0.15544 0.67639 0.0
C921 C 0.51736 0.14284 0.58301 0.0
C922 C 0.5196 0.11667 0.60021 0.0
H923 H 0.52215 0.19315 0.58583 0.0
H924 H 0.50873 0.13959 0.55702 0.0
C925 C 0.53092 0.12183 0.63386 0.0
C926 C 0.62097 0.7751 0.38158 0.0
C927 C 0.59318 0.76847 0.35937 0.0
H928 H 0.67204 0.78348 0.38743 0.0
C929 C 0.59579 0.76827 0.32533 0.0
H930 H 0.61962 0.77552 0.40792 0.0
C931 C 0.62584 0.77362 0.31364 0.0
C932 C 0.65354 0.77852 0.33585 0.0
H933 H 0.57465 0.76351 0.30773 0.0
H934 H 0.6274 0.77229 0.28728 0.0
C935 C 0.6509 0.77972 0.36988 0.0
C936 C 0.0005 0.15391 0.43065 0.0
C937 C 0.00641 0.18269 0.45132 0.0
H938 H -0.00402 0.10374 0.42748 0.0
C939 C 0.00896 0.18238 0.48577 0.0
H940 H -0.00165 0.15333 0.40403 0.0
C941 C 0.00697 0.15372 0.49922 0.0
C942 C 0.00317 0.12526 0.47832 0.0
H943 H 0.01342 0.20426 0.50224 0.0
H944 H 0.01009 0.15393 0.52579 0.0
C945 C -0.00074 0.12552 0.44403 0.0
C946 C 0.61456 0.252 0.2002 0.0
C947 C 0.60631 0.24959 0.16595 0.0
H948 H 0.65229 0.26004 0.23962 0.0
C949 C 0.63049 0.2506 0.14473 0.0
H950 H 0.59636 0.25097 0.21712 0.0
C951 C 0.66248 0.25585 0.1576 0.0
C952 C 0.67082 0.25989 0.1919 0.0
H953 H 0.62481 0.24854 0.11821 0.0
H954 H 0.68071 0.25782 0.1407 0.0
C955 C 0.64656 0.25695 0.21307 0.0
C956 C 0.53109 0.88036 0.96327 0.0
C957 C 0.53311 0.87748 0.92901 0.0
H958 H 0.52299 0.90975 0.00599 0.0
C959 C 0.53068 0.90361 0.91188 0.0
H960 H 0.533 0.86065 0.97715 0.0
C961 C 0.52448 0.93137 0.92824 0.0
C962 C 0.52112 0.93379 0.96217 0.0
H963 H 0.53215 0.90223 0.8855 0.0
H964 H 0.52163 0.95073 0.91413 0.0
C965 C 0.5254 0.90842 0.97979 0.0
C966 C 0.90271 0.75103 0.68676 0.0
C967 C 0.92569 0.74369 0.70987 0.0
H968 H 0.85424 0.75634 0.67606 0.0
C969 C 0.91773 0.73948 0.74199 0.0
H970 H 0.90807 0.75463 0.66189 0.0
C971 C 0.88689 0.74107 0.75027 0.0
C972 C 0.8635 0.74642 0.72641 0.0
H973 H 0.93503 0.7341 0.76043 0.0
H974 H 0.88088 0.73629 0.77467 0.0
C975 C 0.87188 0.75212 0.69488 0.0
C976 C 0.03713 0.00929 0.88743 0.0
C977 C 0.07034 0.01277 0.88601 0.0
H978 H -0.00192 0.00132 0.91683 0.0
C979 C 0.08977 0.01009 0.91464 0.0
H980 H 0.02138 0.01078 0.86571 0.0
C981 C 0.07639 0.00541 0.94432 0.0
C982 C 0.04319 0.00265 0.94589 0.0
H983 H 0.11539 0.01257 0.91436 0.0
H984 H 0.09214 0.00431 0.96616 0.0
C985 C 0.02371 0.00387 0.91681 0.0
C986 C 0.78449 0.35435 0.62526 0.0
C987 C 0.77293 0.335 0.59557 0.0
H988 H 0.79517 0.35665 0.67749 0.0
C989 C 0.7671 0.302 0.59536 0.0
H990 H 0.78939 0.37984 0.62616 0.0
C991 C 0.77099 0.28868 0.6248 0.0
C992 C 0.7802 0.30829 0.65475 0.0
H993 H 0.75838 0.28655 0.57272 0.0
H994 H 0.76486 0.26328 0.62441 0.0
C995 C 0.78781 0.34111 0.65464 0.0
C996 C 0.51011 0.02736 0.36739 0.0
C997 C 0.4781 0.03008 0.3595 0.0
H998 H 0.54745 0.02742 0.40555 0.0
C999 C 0.46068 0.04018 0.38481 0.0
H1000 H 0.5244 0.02013 0.34839 0.0
C1001 C 0.47397 0.04442 0.41766 0.0
C1002 C 0.50493 0.03865 0.42579 0.0
H1003 H 0.43611 0.04287 0.37954 0.0
H1004 H 0.45916 0.05021 0.43673 0.0
C1005 C 0.52342 0.03166 0.40021 0.0
C1006 C 0.75582 0.69169 0.12114 0.0
C1007 C 0.74616 0.65868 0.11506 0.0
H1008 H 0.76999 0.73218 0.15769 0.0
C1009 C 0.7418 0.64134 0.14209 0.0
H1010 H 0.75922 0.70576 0.10089 0.0
C1011 C 0.74813 0.65634 0.17435 0.0
C1012 C 0.75861 0.68914 0.1805 0.0
H1013 H 0.73427 0.61591 0.13847 0.0
H1014 H 0.74529 0.6421 0.19454 0.0
C1015 C 0.76178 0.70683 0.15363 0.0
C1016 C 0.06954 0.00301 0.68865 0.0
C1017 C 0.10256 0.0054 0.69684 0.0
H1018 H 0.03137 -0.00113 0.64998 0.0
C1019 C 0.12271 0.0062 0.67145 0.0
H1020 H 0.05344 0.00256 0.70772 0.0
C1021 C 0.1101 0.00394 0.63851 0.0
C1022 C 0.0771 0.00125 0.63022 0.0
H1023 H 0.14826 0.00812 0.67696 0.0
H1024 H 0.12625 0.00406 0.61949 0.0
C1025 C 0.05694 0.00118 0.65564 0.0
C1026 C 0.73467 0.34965 0.37202 0.0
C1027 C 0.72708 0.33585 0.40051 0.0
H1028 H 0.7505 0.34371 0.3245 0.0
C1029 C 0.72517 0.30303 0.40041 0.0
H1030 H 0.73678 0.37488 0.37134 0.0
C1031 C 0.73201 0.28464 0.37259 0.0
C1032 C 0.74167 0.29904 0.34496 0.0
H1033 H 0.71948 0.2918 0.42217 0.0
H1034 H 0.73124 0.25959 0.37336 0.0
C1035 C 0.74249 0.33163 0.34495 0.0
C1036 C 0.44638 0.99 0.16723 0.0
C1037 C 0.41428 0.99024 0.17208 0.0
H1038 H 0.48041 0.98658 0.13222 0.0
C1039 C 0.3911 0.98463 0.14474 0.0
H1040 H 0.46464 0.9939 0.18801 0.0
C1041 C 0.40017 0.98072 0.1129 0.0
C1042 C 0.43242 0.98176 0.108 0.0
H1043 H 0.36618 0.98453 0.14789 0.0
H1044 H 0.38206 0.9778 0.09207 0.0
C1045 C 0.45536 0.98549 0.13539 0.0
C1046 C 0.76287 0.67621 0.88649 0.0
C1047 C 0.76433 0.69225 0.9183 0.0
H1048 H 0.76343 0.67917 0.83506 0.0
C1049 C 0.76984 0.72557 0.92213 0.0
H1050 H 0.75863 0.65064 0.88246 0.0
C1051 C 0.77329 0.74231 0.89448 0.0
C1052 C 0.77076 0.72594 0.86257 0.0
H1053 H 0.77109 0.73863 0.94636 0.0
H1054 H 0.77691 0.76786 0.89795 0.0
C1055 C 0.76573 0.69273 0.85914 0.0
C1056 C 0.85458 0.08804 0.01042 0.0
C1057 C 0.83395 0.0674 0.02677 0.0
H1058 H 0.90022 0.09801 0.99211 0.0
C1059 C 0.84196 0.03818 0.03287 0.0
H1060 H 0.84906 0.11065 0.00522 0.0
C1061 C 0.87103 0.03063 0.02448 0.0
C1062 C 0.8925 0.05247 0.01047 0.0
H1063 H 0.82637 0.02171 0.04519 0.0
H1064 H 0.87766 0.00887 0.0311 0.0
C1065 C 0.88377 0.08079 0.00273 0.0
C1066 C 0.37396 0.4351 0.0411 0.0
C1067 C 0.35225 0.45499 0.04864 0.0
H1068 H 0.4214 0.4321 0.0297 0.0
C1069 C 0.36314 0.48784 0.05385 0.0
H1070 H 0.36617 0.40971 0.03667 0.0
C1071 C 0.39474 0.50066 0.0501 0.0
C1072 C 0.41595 0.4809 0.04048 0.0
H1073 H 0.34689 0.50374 0.05972 0.0
H1074 H 0.40213 0.52611 0.05336 0.0
C1075 C 0.40547 0.44795 0.03675 0.0
C1076 C 0.29537 0.58376 0.71835 0.0
C1077 C 0.32022 0.58387 0.74322 0.0
H1078 H 0.25992 0.60841 0.69876 0.0
C1079 C 0.32686 0.60875 0.76908 0.0
H1080 H 0.28978 0.56495 0.69802 0.0
C1081 C 0.30939 0.63323 0.76987 0.0
C1082 C 0.28522 0.63376 0.74446 0.0
H1083 H 0.34578 0.60945 0.78865 0.0
H1084 H 0.31558 0.6523 0.78991 0.0
C1085 C 0.27827 0.60864 0.71877 0.0
C1086 C 0.16006 0.56674 0.55792 0.0
C1087 C 0.17266 0.59925 0.56301 0.0
H1088 H 0.11914 0.53084 0.54156 0.0
C1089 C 0.15204 0.6209 0.55918 0.0
H1090 H 0.17535 0.54953 0.56096 0.0
C1091 C 0.11991 0.61021 0.54783 0.0
C1092 C 0.10785 0.57772 0.54036 0.0
H1093 H 0.16104 0.64611 0.56316 0.0
H1094 H 0.10489 0.62744 0.54361 0.0
C1095 C 0.12787 0.55605 0.54677 0.0
C1096 C 0.67595 0.89691 0.79217 0.0
C1097 C 0.68596 0.91863 0.77015 0.0
H1098 H 0.68456 0.85598 0.8145 0.0
C1099 C 0.71527 0.91802 0.75709 0.0
H1100 H 0.65354 0.89684 0.80271 0.0
C1101 C 0.73289 0.89459 0.76384 0.0
C1102 C 0.72197 0.87197 0.78445 0.0
H1103 H 0.7236 0.93435 0.73999 0.0
H1104 H 0.75401 0.89296 0.75135 0.0
C1105 C 0.69387 0.87381 0.79931 0.0
C1106 C 0.64213 0.89813 0.53547 0.0
C1107 C 0.67198 0.91795 0.54384 0.0
H1108 H 0.5925 0.89481 0.52004 0.0
C1109 C 0.67451 0.95061 0.54221 0.0
H1110 H 0.63947 0.8729 0.53641 0.0
C1111 C 0.64768 0.96315 0.53224 0.0
C1112 C 0.61778 0.9433 0.52425 0.0
H1113 H 0.69728 0.96647 0.54834 0.0
H1114 H 0.65021 0.98838 0.53145 0.0
C1115 C 0.61528 0.91071 0.52602 0.0
C1116 C 0.35718 0.37418 0.74044 0.0
C1117 C 0.3426 0.40026 0.73546 0.0
H1118 H 0.35144 0.32631 0.75065 0.0
C1119 C 0.30913 0.39646 0.73486 0.0
H1120 H 0.38284 0.3761 0.74115 0.0
C1121 C 0.29086 0.36736 0.73984 0.0
C1122 C 0.30583 0.34179 0.74614 0.0
H1123 H 0.29714 0.41608 0.73108 0.0
H1124 H 0.26524 0.36521 0.73989 0.0
C1125 C 0.33912 0.34551 0.746 0.0
C1126 C 0.18221 0.59768 0.24342 0.0
C1127 C 0.14921 0.59079 0.23346 0.0
H1128 H 0.22275 0.63327 0.26255 0.0
C1129 C 0.13247 0.61592 0.23158 0.0
H1130 H 0.19585 0.57891 0.24491 0.0
C1131 C 0.14779 0.64696 0.24204 0.0
C1132 C 0.18024 0.65358 0.25411 0.0
H1133 H 0.10707 0.61155 0.2238 0.0
H1134 H 0.13388 0.66563 0.2419 0.0
C1135 C 0.19764 0.62884 0.25346 0.0
C1136 C 0.4842 0.67082 0.48597 0.0
C1137 C 0.4991 0.67099 0.45668 0.0
H1138 H 0.46776 0.64381 0.52432 0.0
C1139 C 0.51231 0.64478 0.44568 0.0
H1140 H 0.4739 0.69079 0.49503 0.0
C1141 C 0.50946 0.6183 0.46273 0.0
C1142 C 0.49272 0.61715 0.49082 0.0
H1143 H 0.52427 0.64442 0.42339 0.0
H1144 H 0.51896 0.59809 0.45281 0.0
C1145 C 0.48075 0.64397 0.50273 0.0
C1146 C 0.63441 0.29763 0.74323 0.0
C1147 C 0.63115 0.30178 0.70953 0.0
H1148 H 0.66265 0.28288 0.78259 0.0
C1149 C 0.65618 0.29754 0.69047 0.0
H1150 H 0.61552 0.30088 0.75856 0.0
C1151 C 0.68273 0.28691 0.70406 0.0
C1152 C 0.68504 0.28071 0.73711 0.0
H1153 H 0.65457 0.3008 0.66454 0.0
H1154 H 0.70101 0.28256 0.6883 0.0
C1155 C 0.6613 0.2873 0.75699 0.0
C1156 C 0.97364 0.37474 0.89598 0.0
C1157 C 0.98139 0.34974 0.91246 0.0
H1158 H 0.97328 0.4242 0.89887 0.0
C1159 C -0.01081 0.35481 0.9469 0.0
H1160 H 0.96687 0.37143 0.86957 0.0
C1161 C -0.0073 0.38526 0.96383 0.0
C1162 C -0.01156 0.41084 0.94643 0.0
H1163 H -0.00489 0.33591 0.96027 0.0
H1164 H 0.00147 0.38916 0.9898 0.0
C1165 C 0.97713 0.40496 0.91279 0.0
C1166 C 0.9283 0.76559 0.20845 0.0
C1167 C 0.94868 0.75509 0.23189 0.0
H1168 H 0.88125 0.77242 0.19386 0.0
C1169 C 0.93597 0.74238 0.25925 0.0
H1170 H 0.93719 0.77542 0.187 0.0
C1171 C 0.90351 0.74057 0.26317 0.0
C1172 C 0.88336 0.75148 0.2398 0.0
H1173 H 0.95107 0.73398 0.27767 0.0
H1174 H 0.89432 0.73102 0.28462 0.0
C1175 C 0.8961 0.76381 0.21236 0.0
C1176 C 0.51533 0.34137 0.05317 0.0
C1177 C 0.50506 0.33549 0.08407 0.0
H1178 H 0.5227 0.37494 0.01798 0.0
C1179 C 0.49347 0.35908 0.10296 0.0
H1180 H 0.52447 0.32356 0.03817 0.0
C1181 C 0.49214 0.38793 0.09139 0.0
C1182 C 0.50274 0.39421 0.06078 0.0
H1183 H 0.48527 0.35525 0.1268 0.0
H1184 H 0.4831 0.40551 0.10684 0.0
C1185 C 0.51444 0.37072 0.0417 0.0
C1186 C 0.91724 0.27824 0.37003 0.0
C1187 C 0.93691 0.2862 0.3452 0.0
H1188 H 0.8697 0.26719 0.38325 0.0
C1189 C 0.92292 0.29189 0.31464 0.0
H1190 H 0.92732 0.27424 0.39407 0.0
C1191 C 0.88972 0.28785 0.30843 0.0
C1192 C 0.87003 0.27825 0.33276 0.0
H1193 H 0.9375 0.29836 0.29515 0.0
H1194 H 0.8795 0.29104 0.28416 0.0
C1195 C 0.88417 0.27444 0.36393 0.0
C1196 C -0.00933 0.64054 0.56567 0.0
C1197 C -0.00574 0.6421 0.60035 0.0
H1198 H -0.01052 0.61173 0.51942 0.0
C1199 C -0.0038 0.61442 0.61486 0.0
H1200 H -0.01096 0.66151 0.55376 0.0
C1201 C -0.00338 0.58631 0.59537 0.0
C1202 C -0.00507 0.58504 0.56084 0.0
H1203 H -0.00148 0.61462 0.64144 0.0
H1204 H -0.00085 0.56567 0.60755 0.0
C1205 C -0.00906 0.61213 0.546 0.0
C1206 C 0.63806 0.75581 0.87808 0.0
C1207 C 0.61108 0.75713 0.85663 0.0
H1208 H 0.68854 0.75868 0.88416 0.0
C1209 C 0.61417 0.75842 0.82283 0.0
H1210 H 0.63634 0.75422 0.90412 0.0
C1211 C 0.64439 0.76094 0.81126 0.0
C1212 C 0.6716 0.76216 0.83347 0.0
H1213 H 0.59365 0.75932 0.80576 0.0
H1214 H 0.64669 0.76401 0.7856 0.0
C1215 C 0.66796 0.75827 0.86662 0.0
C1216 C 0.4203 0.52175 0.62188 0.0
C1217 C 0.43627 0.52324 0.65353 0.0
H1218 H 0.42399 0.52138 0.57027 0.0
C1219 C 0.46991 0.52766 0.65706 0.0
H1220 H 0.39451 0.51883 0.61823 0.0
C1221 C 0.48702 0.52907 0.62921 0.0
C1222 C 0.47071 0.52604 0.59743 0.0
H1223 H 0.48292 0.52907 0.68121 0.0
H1224 H 0.51275 0.53125 0.63244 0.0
C1225 C 0.43727 0.52323 0.59431 0.0
C1226 C 0.74106 0.14243 0.91138 0.0
C1227 C 0.74121 0.16383 0.93959 0.0
H1228 H 0.73992 0.13543 0.85891 0.0
C1229 C 0.73839 0.19517 0.93587 0.0
H1230 H 0.74304 0.11808 0.91343 0.0
C1231 C 0.73625 0.20508 0.90442 0.0
C1232 C 0.73729 0.18386 0.87636 0.0
H1233 H 0.73823 0.21211 0.95722 0.0
H1234 H 0.73482 0.22953 0.90218 0.0
C1235 C 0.73928 0.15237 0.88013 0.0
C1236 C 0.03607 0.46032 0.14573 0.0
C1237 C 0.06934 0.46174 0.14717 0.0
H1238 H -0.00586 0.46994 0.11886 0.0
C1239 C 0.08528 0.47112 0.12028 0.0
H1240 H 0.02312 0.45315 0.16615 0.0
C1241 C 0.06893 0.48141 0.09385 0.0
C1242 C 0.03602 0.48167 0.09305 0.0
H1243 H 0.11086 0.47254 0.12052 0.0
H1244 H 0.08257 0.49057 0.07473 0.0
C1245 C 0.01948 0.47001 0.11874 0.0
C1246 C 0.76781 0.83111 0.43532 0.0
C1247 C 0.77061 0.86397 0.44292 0.0
H1248 H 0.76378 0.79236 0.39703 0.0
C1249 C 0.77575 0.88334 0.41764 0.0
H1250 H 0.76402 0.81559 0.45431 0.0
C1251 C 0.7759 0.87018 0.38519 0.0
C1252 C 0.77084 0.83729 0.37709 0.0
H1253 H 0.77863 0.90879 0.42269 0.0
H1254 H 0.77858 0.88582 0.36617 0.0
C1255 C 0.76788 0.81784 0.40258 0.0
C1256 C 0.41517 0.526 0.86493 0.0
C1257 C 0.43592 0.51145 0.84632 0.0
H1258 H 0.40479 0.54349 0.91282 0.0
C1259 C 0.4626 0.5027 0.86301 0.0
H1260 H 0.39433 0.53294 0.85296 0.0
C1261 C 0.46858 0.50869 0.89741 0.0
C1262 C 0.44799 0.52352 0.91594 0.0
H1263 H 0.47906 0.49134 0.8495 0.0
H1264 H 0.48952 0.50196 0.90942 0.0
C1265 C 0.42113 0.53195 0.89932 0.0
C1266 C 0.80232 0.1854 0.16792 0.0
C1267 C 0.79354 0.19172 0.13587 0.0
H1268 H 0.80668 0.20144 0.21927 0.0
C1269 C 0.78898 0.22241 0.1308 0.0
H1270 H 0.80647 0.16217 0.17256 0.0
C1271 C 0.78931 0.24514 0.15786 0.0
C1272 C 0.79427 0.23725 0.19004 0.0
H1273 H 0.78229 0.22796 0.10627 0.0
H1274 H 0.78268 0.26756 0.15367 0.0
C1275 C 0.80262 0.20796 0.1947 0.0
C1276 C 0.04156 0.52376 0.34215 0.0
C1277 C 0.06765 0.51068 0.33221 0.0
H1278 H 0.01703 0.53909 0.38256 0.0
C1279 C 0.09004 0.5041 0.35641 0.0
H1280 H 0.024 0.52934 0.32411 0.0
C1281 C 0.08613 0.50988 0.38978 0.0
C1282 C 0.05976 0.52238 0.39973 0.0
H1283 H 0.11053 0.49424 0.34965 0.0
H1284 H 0.10358 0.50401 0.40774 0.0
C1285 C 0.03767 0.5296 0.37563 0.0
C1286 C 0.7746 0.83974 0.67093 0.0
C1287 C 0.76399 0.8243 0.6391 0.0
H1288 H 0.78218 0.83614 0.72228 0.0
C1289 C 0.75273 0.79139 0.6353 0.0
H1290 H 0.78336 0.865 0.67493 0.0
C1291 C 0.75189 0.77447 0.66294 0.0
C1292 C 0.76242 0.79019 0.6948 0.0
H1293 H 0.74426 0.77879 0.61106 0.0
H1294 H 0.74302 0.74924 0.65937 0.0
C1295 C 0.77387 0.82301 0.69825 0.0
C1296 C 0.63325 0.40582 0.52845 0.0
C1297 C 0.66404 0.4242 0.53199 0.0
H1298 H 0.58312 0.40553 0.52579 0.0
C1299 C 0.66786 0.4572 0.53964 0.0
H1300 H 0.62951 0.38036 0.5229 0.0
C1301 C 0.64109 0.47164 0.54184 0.0
C1302 C 0.61035 0.45321 0.53593 0.0
H1303 H 0.69139 0.47191 0.5428 0.0
H1304 H 0.64435 0.49716 0.54617 0.0
C1305 C 0.60669 0.42021 0.53015 0.0
C1306 C 0.14063 0.04953 0.48518 0.0
C1307 C 0.14747 0.0828 0.48985 0.0
H1308 H 0.10754 0.00742 0.4908 0.0
C1309 C 0.12479 0.09913 0.5028 0.0
H1310 H 0.15767 0.03628 0.47525 0.0
C1311 C 0.09656 0.0827 0.51213 0.0
C1312 C 0.09 0.04947 0.50834 0.0
H1313 H 0.12922 0.12471 0.5067 0.0
H1314 H 0.07994 0.09617 0.5226 0.0
C1315 C 0.11201 0.033 0.49414 0.0
C1316 C 0.2244 0.93543 0.78755 0.0
C1317 C 0.19677 0.93614 0.8039 0.0
H1318 H 0.25808 0.90745 0.77032 0.0
C1319 C 0.18347 0.90926 0.81785 0.0
H1320 H 0.23513 0.95581 0.77644 0.0
C1321 C 0.19666 0.88198 0.81467 0.0
C1322 C 0.22334 0.88051 0.79701 0.0
H1323 H 0.16236 0.90906 0.83079 0.0
H1324 H 0.18519 0.86165 0.8254 0.0
C1325 C 0.23748 0.90775 0.78395 0.0
C1326 C 0.34402 0.94803 0.96586 0.0
C1327 C 0.33087 0.91714 0.9711 0.0
H1328 H 0.38676 0.98253 0.9674 0.0
C1329 C 0.3512 0.89558 0.97666 0.0
H1330 H 0.32878 0.96502 0.96134 0.0
C1331 C 0.38418 0.90538 0.97969 0.0
C1332 C 0.39746 0.93706 0.97772 0.0
H1333 H 0.34161 0.87142 0.98015 0.0
H1334 H 0.39915 0.88854 0.98569 0.0
C1335 C 0.37717 0.958 0.96932 0.0
C1336 C 0.83979 0.6111 0.80617 0.0
C1337 C 0.82863 0.58473 0.78276 0.0
H1338 H 0.83816 0.65894 0.82224 0.0
C1339 C 0.80468 0.58646 0.75753 0.0
H1340 H 0.85811 0.61042 0.82593 0.0
C1341 C 0.7934 0.61487 0.7549 0.0
C1342 C 0.80571 0.64167 0.77772 0.0
H1343 H 0.79586 0.56644 0.73899 0.0
H1344 H 0.7758 0.61608 0.73466 0.0
C1345 C 0.82835 0.63904 0.80385 0.0
C1346 C 0.85175 0.59296 0.0027 0.0
C1347 C 0.82742 0.57228 0.01463 0.0
H1348 H 0.90115 0.60377 -0.00473 0.0
C1349 C 0.83497 0.54537 0.02782 0.0
H1350 H 0.84681 0.61385 -0.00767 0.0
C1351 C 0.86624 0.53962 0.02962 0.0
C1352 C 0.89062 0.5606 0.01819 0.0
H1353 H 0.81683 0.52891 0.03725 0.0
H1354 H 0.87132 0.51891 0.04027 0.0
C1355 C 0.88296 0.58715 0.00441 0.0
C1356 C 0.16938 0.15057 0.79648 0.0
C1357 C 0.18296 0.12442 0.8038 0.0
H1358 H 0.17704 0.19815 0.78528 0.0
C1359 C 0.21651 0.12804 0.80821 0.0
H1360 H 0.14371 0.14893 0.79319 0.0
C1361 C 0.23589 0.15678 0.80379 0.0
C1362 C 0.22199 0.1822 0.79463 0.0
H1363 H 0.22777 0.10838 0.81383 0.0
H1364 H 0.2616 0.15867 0.80621 0.0
C1365 C 0.18857 0.17891 0.79182 0.0
C1366 C 0.38697 0.8769 0.29463 0.0
C1367 C 0.36878 0.90085 0.29221 0.0
H1368 H 0.3867 0.82745 0.29391 0.0
C1369 C 0.3355 0.89316 0.29253 0.0
H1370 H 0.41274 0.88211 0.29513 0.0
C1371 C 0.32051 0.86161 0.29202 0.0
C1372 C 0.33865 0.83739 0.29114 0.0
H1373 H 0.32087 0.91112 0.29088 0.0
H1374 H 0.29467 0.85604 0.28984 0.0
C1375 C 0.37207 0.84553 0.29407 0.0
C1376 C 0.51415 0.3649 0.57336 0.0
C1377 C 0.50789 0.36221 0.60627 0.0
H1378 H 0.51875 0.39523 0.53496 0.0
C1379 C 0.49639 0.38673 0.62389 0.0
H1380 H 0.5229 0.34633 0.55909 0.0
C1381 C 0.49401 0.41448 0.61012 0.0
C1382 C 0.50275 0.41825 0.57831 0.0
H1383 H 0.49093 0.38529 0.64911 0.0
H1384 H 0.48715 0.4338 0.62516 0.0
C1385 C 0.5115 0.39275 0.55942 0.0
C1386 C 0.38188 0.72187 0.34294 0.0
C1387 C 0.40366 0.72389 0.31907 0.0
H1388 H 0.33327 0.72021 0.35268 0.0
C1389 C 0.392 0.72039 0.2855 0.0
H1390 H 0.39014 0.72437 0.36899 0.0
C1391 C 0.35939 0.7176 0.27615 0.0
C1392 C 0.33803 0.71891 0.30028 0.0
H1393 H 0.40825 0.72152 0.26656 0.0
H1394 H 0.35131 0.71678 0.25022 0.0
C1395 C 0.34934 0.71965 0.33362 0.0
C1396 C 0.03952 0.64607 0.15866 0.0
C1397 C 0.0359 0.67247 0.14226 0.0
H1398 H 0.03357 0.59575 0.15556 0.0
C1399 C 0.02539 0.66771 0.10835 0.0
H1400 H 0.04775 0.64881 0.18473 0.0
C1401 C 0.01744 0.63715 0.09156 0.0
C1402 C 0.01961 0.61076 0.10842 0.0
H1403 H 0.02248 0.6875 0.09493 0.0
H1404 H 0.00854 0.6342 0.06565 0.0
C1405 C 0.03133 0.61558 0.14196 0.0
C1406 C 0.09537 0.26973 0.81029 0.0
C1407 C 0.09167 0.26934 0.84407 0.0
H1408 H 0.12812 0.27207 0.77327 0.0
C1409 C 0.11882 0.27336 0.86692 0.0
H1410 H 0.07476 0.26695 0.79221 0.0
C1411 C 0.14904 0.27589 0.85608 0.0
C1412 C 0.15268 0.27506 0.82227 0.0
H1413 H 0.11666 0.27328 0.89309 0.0
H1414 H 0.16955 0.27774 0.87412 0.0
C1415 C 0.12579 0.2729 0.79947 0.0
C1416 C 0.47826 0.67011 0.95671 0.0
C1417 C 0.5055 0.69405 0.96328 0.0
H1418 H 0.45659 0.62327 0.96459 0.0
C1419 C 0.53055 0.69062 0.9863 0.0
H1420 H 0.45867 0.67231 0.93902 0.0
C1421 C 0.52966 0.66242 0.00018 0.0
C1422 C 0.50322 0.63787 0.99216 0.0
H1423 H 0.55189 0.70867 0.99158 0.0
H1424 H 0.55029 0.65913 0.01581 0.0
C1425 C 0.47695 0.64227 0.97144 0.0
C1426 C 0.13321 0.77125 0.65815 0.0
C1427 C 0.10888 0.76518 0.67889 0.0
H1428 H 0.1835 0.78276 0.65479 0.0
C1429 C 0.11703 0.7647 0.71274 0.0
H1430 H 0.12753 0.77173 0.63193 0.0
C1431 C 0.14903 0.77046 0.72569 0.0
C1432 C 0.17334 0.77735 0.70508 0.0
H1433 H 0.09871 0.75988 0.72921 0.0
H1434 H 0.15468 0.77034 0.75198 0.0
C1435 C 0.16519 0.77757 0.6712 0.0
C1436 C 0.04893 0.40342 0.43259 0.0
C1437 C 0.04625 0.37502 0.44681 0.0
H1438 H 0.04347 0.45156 0.43771 0.0
C1439 C 0.03916 0.37493 0.47977 0.0
H1440 H 0.05445 0.40448 0.40735 0.0
C1441 C 0.03325 0.40238 0.4975 0.0
C1442 C 0.03386 0.43007 0.48228 0.0
H1443 H 0.03701 0.35341 0.49144 0.0
H1444 H 0.02675 0.40152 0.52244 0.0
C1445 C 0.0425 0.43048 0.45 0.0
C1446 C 0.40381 0.25565 0.17979 0.0
C1447 C 0.42643 0.2458 0.20136 0.0
H1448 H 0.35583 0.26329 0.17122 0.0
C1449 C 0.419 0.24043 0.23339 0.0
H1450 H 0.40884 0.2602 0.15506 0.0
C1451 C 0.38875 0.24286 0.24285 0.0
C1452 C 0.36543 0.25023 0.22024 0.0
H1453 H 0.43608 0.23313 0.25069 0.0
H1454 H 0.38294 0.23677 0.26692 0.0
C1455 C 0.3735 0.25756 0.18906 0.0
C1456 C 0.52953 0.51043 0.37123 0.0
C1457 C 0.56259 0.51237 0.36972 0.0
H1458 H 0.49043 0.5041 0.4008 0.0
C1459 C 0.58152 0.50748 0.39779 0.0
H1460 H 0.51419 0.51379 0.34993 0.0
C1461 C 0.56787 0.5023 0.42718 0.0
C1462 C 0.53492 0.50125 0.42887 0.0
H1463 H 0.60702 0.50879 0.3974 0.0
H1464 H 0.58322 0.49966 0.44878 0.0
C1465 C 0.51582 0.50464 0.40033 0.0
C1466 C 0.27119 0.79337 0.10755 0.0
C1467 C 0.27587 0.82588 0.10465 0.0
H1468 H 0.27035 0.75779 0.14036 0.0
C1469 C 0.28712 0.84766 0.13274 0.0
H1470 H 0.26277 0.77609 0.08619 0.0
C1471 C 0.29108 0.83721 0.16362 0.0
C1472 C 0.28439 0.80484 0.16682 0.0
H1473 H 0.29112 0.87285 0.13122 0.0
H1474 H 0.29811 0.85456 0.18519 0.0
C1475 C 0.27569 0.78289 0.13845 0.0
C1476 C 0.00165 0.52678 0.87416 0.0
C1477 C 0.96917 0.52815 0.86703 0.0
H1478 H 0.03983 0.52677 0.91137 0.0
C1479 C 0.95135 0.53533 0.89313 0.0
H1480 H 0.01623 0.52179 0.8546 0.0
C1481 C 0.96499 0.53832 0.92579 0.0
C1482 C -0.00331 0.53414 0.93294 0.0
H1483 H 0.92638 0.53687 0.88846 0.0
H1484 H 0.95003 0.54198 0.94536 0.0
C1485 C 0.01527 0.52976 0.90677 0.0
C1486 C 0.24627 0.13883 0.63685 0.0
C1487 C 0.24918 0.15647 0.60989 0.0
H1488 H 0.25097 0.13925 0.68925 0.0
C1489 C 0.25765 0.18958 0.61612 0.0
H1490 H 0.2397 0.11331 0.63312 0.0
C1491 C 0.26376 0.20456 0.64866 0.0
C1492 C 0.26193 0.18663 0.67543 0.0
H1493 H 0.25992 0.20386 0.59592 0.0
H1494 H 0.27096 0.23002 0.65282 0.0
C1495 C 0.25274 0.1537 0.66915 0.0
C1496 C 0.56228 0.50844 0.17461 0.0
C1497 C 0.59548 0.51228 0.18256 0.0
H1498 H 0.52357 0.5017 0.13615 0.0
C1499 C 0.61546 0.51369 0.15705 0.0
H1500 H 0.54631 0.50748 0.19381 0.0
C1501 C 0.60247 0.51022 0.12417 0.0
C1502 C 0.56926 0.50566 0.11613 0.0
H1503 H 0.64114 0.51675 0.16242 0.0
H1504 H 0.61847 0.51064 0.105 0.0
C1505 C 0.54928 0.50537 0.14166 0.0
C1506 C 0.24327 0.78342 0.91275 0.0
C1507 C 0.21767 0.79993 0.91241 0.0
H1508 H 0.27211 0.75828 0.88345 0.0
C1509 C 0.19669 0.79691 0.88351 0.0
H1510 H 0.25989 0.7854 0.93468 0.0
C1511 C 0.2031 0.78022 0.85456 0.0
C1512 C 0.23106 0.76746 0.85409 0.0
H1513 H 0.1767 0.80924 0.88271 0.0
H1514 H 0.18791 0.77992 0.83192 0.0
C1515 C 0.25027 0.76778 0.88355 0.0
C1516 C 0.91857 0.52878 0.66328 0.0
C1517 C 0.9106 0.50183 0.67911 0.0
H1518 H 0.93748 0.5477 0.62143 0.0
C1519 C 0.91584 0.47251 0.6649 0.0
H1520 H 0.91495 0.5516 0.67423 0.0
C1521 C 0.92976 0.47038 0.63527 0.0
C1522 C 0.93759 0.49741 0.61932 0.0
H1523 H 0.91016 0.45158 0.67727 0.0
H1524 H 0.93424 0.44776 0.62477 0.0
C1525 C 0.93146 0.5265 0.63327 0.0
C1526 C 0.26741 0.1753 0.38151 0.0
C1527 C 0.26656 0.19127 0.41293 0.0
H1528 H 0.27075 0.17834 0.33035 0.0
C1529 C 0.27095 0.22454 0.41656 0.0
H1530 H 0.26425 0.14977 0.37767 0.0
C1531 C 0.27527 0.24127 0.38902 0.0
C1532 C 0.27483 0.22492 0.35742 0.0
H1533 H 0.27048 0.23756 0.4405 0.0
H1534 H 0.27775 0.26675 0.39225 0.0
C1535 C 0.27126 0.1918 0.35424 0.0
C1536 C 0.35349 0.5652 0.50871 0.0
C1537 C 0.33786 0.55435 0.53533 0.0
H1538 H 0.38703 0.55764 0.47414 0.0
C1539 C 0.34197 0.52509 0.54531 0.0
H1540 H 0.35051 0.58749 0.50018 0.0
C1541 C 0.36228 0.50763 0.52989 0.0
C1542 C 0.37939 0.51934 0.50455 0.0
H1543 H 0.32985 0.5158 0.56538 0.0
H1544 H 0.36581 0.48577 0.53909 0.0
C1545 C 0.37418 0.54794 0.49357 0.0
C1546 C 0.87987 0.94095 0.55672 0.0
C1547 C 0.85816 0.96143 0.56159 0.0
H1548 H 0.92767 0.93661 0.54827 0.0
C1549 C 0.8695 0.99425 0.56558 0.0
H1550 H 0.8718 0.91558 0.55332 0.0
C1551 C 0.90159 0.00636 0.56303 0.0
C1552 C 0.92282 0.98586 0.55584 0.0
H1553 H 0.85328 0.01061 0.56942 0.0
H1554 H 0.90937 0.03172 0.56507 0.0
C1555 C 0.91182 0.95304 0.55355 0.0
C1556 C 0.81642 0.09868 0.26469 0.0
C1557 C 0.84851 0.09726 0.27441 0.0
H1558 H 0.78093 0.12824 0.26064 0.0
C1559 C 0.86884 0.12477 0.29004 0.0
H1560 H 0.80013 0.07784 0.25271 0.0
C1561 C 0.85796 0.1533 0.29435 0.0
C1562 C 0.82634 0.15513 0.28357 0.0
H1563 H 0.8936 0.12459 0.29808 0.0
H1564 H 0.87466 0.17425 0.30546 0.0
C1565 C 0.80535 0.12741 0.26944 0.0
C1566 C 0.64227 0.06456 0.03952 0.0
C1567 C 0.65517 0.09691 0.0465 0.0
H1568 H 0.60076 0.02956 0.02264 0.0
C1569 C 0.63465 0.11896 0.04567 0.0
H1570 H 0.6575 0.04704 0.04029 0.0
C1571 C 0.60221 0.10899 0.03532 0.0
C1572 C 0.58975 0.07682 0.02593 0.0
H1573 H 0.64389 0.14406 0.05121 0.0
H1574 H 0.58722 0.12662 0.03329 0.0
C1575 C 0.60977 0.05458 0.02945 0.0
C1576 C 0.21825 0.41866 0.25621 0.0
C1577 C 0.19083 0.42007 0.2726 0.0
H1578 H 0.25554 0.39275 0.24613 0.0
C1579 C 0.18323 0.39902 0.29596 0.0
H1580 H 0.22469 0.43447 0.23801 0.0
C1581 C 0.20154 0.37578 0.30129 0.0
C1582 C 0.22751 0.37306 0.28312 0.0
H1583 H 0.16231 0.39959 0.30904 0.0
H1584 H 0.19395 0.35846 0.3177 0.0
C1585 C 0.23612 0.39504 0.26107 0.0
C1586 C 0.16913 0.44315 0.03806 0.0
C1587 C 0.1668 0.41049 0.03951 0.0
H1588 H 0.1443 0.481 0.02921 0.0
C1589 C 0.13677 0.39073 0.03277 0.0
H1590 H 0.19203 0.45897 0.04294 0.0
C1591 C 0.10952 0.40339 0.02517 0.0
C1592 C 0.11182 0.436 0.02362 0.0
H1593 H 0.13427 0.3655 0.03362 0.0
H1594 H 0.0866 0.38758 0.02045 0.0
C1595 C 0.1419 0.45576 0.0299 0.0
C1596 C 0.85715 0.87545 0.24404 0.0
C1597 C 0.84471 0.90344 0.24373 0.0
H1598 H 0.84879 0.82651 0.25012 0.0
C1599 C 0.81188 0.90195 0.2467 0.0
H1600 H 0.88221 0.87545 0.24178 0.0
C1601 C 0.79232 0.87326 0.25102 0.0
C1602 C 0.80541 0.84578 0.253 0.0
H1603 H 0.8015 0.92304 0.24655 0.0
H1604 H 0.76736 0.8729 0.25417 0.0
C1605 C 0.8379 0.84721 0.2489 0.0
C1606 C 0.6797 0.0956 0.73181 0.0
C1607 C 0.64673 0.08839 0.72178 0.0
H1608 H 0.72013 0.13168 0.74988 0.0
C1609 C 0.62985 0.11331 0.7189 0.0
H1610 H 0.69343 0.07698 0.73404 0.0
C1611 C 0.64505 0.14457 0.72835 0.0
C1612 C 0.67752 0.15159 0.74034 0.0
H1613 H 0.60446 0.10867 0.71109 0.0
H1614 H 0.63106 0.16313 0.72744 0.0
C1615 C 0.69501 0.12695 0.74078 0.0
loop_
_geom_bond_atom_site_label_1
_geom_bond_atom_site_label_2
_geom_bond_distance
_geom_bond_site_symmetry_2
_ccdc_geom_bond_type
C0 O1 1.306 . S
C0 O3 1.160 . S
O1 C0 1.306 . S
O1 Cd2 2.228 1_655 S
Cd2 O1 2.228 1_455 S
Cd2 O6 2.273 . S
Cd2 O10 2.277 . S
O3 C0 1.160 . S
O3 Cd4 2.203 1_655 S
Cd4 O3 2.203 1_455 S
Cd4 O6 2.411 . S
Cd4 O7 2.333 . S
Cd4 O8 2.352 . S
Cd4 O12 2.277 . S
Cd4 O13 2.356 . S
C5 O10 1.209 . S
C5 O12 1.226 . S
O6 Cd2 2.273 . S
O6 Cd4 2.411 . S
O6 C9 1.320 . S
O7 Cd4 2.333 . S
O7 C9 1.214 . S
O8 Cd4 2.352 . S
O8 C11 1.258 . S
C9 O6 1.320 . S
C9 O7 1.214 . S
O10 Cd2 2.277 . S
O10 C5 1.209 . S
C11 O8 1.258 . S
C11 O13 1.282 . S
O12 Cd4 2.277 . S
O12 C5 1.226 . S
O13 Cd4 2.356 . S
O13 C11 1.282 . S
C14 O15 1.306 . S
C14 O17 1.160 . S
O15 C14 1.306 . S
O15 Cd16 2.228 1_655 S
Cd16 O15 2.228 1_455 S
Cd16 O20 2.273 . S
Cd16 O24 2.277 . S
O17 C14 1.160 . S
O17 Cd18 2.203 1_655 S
Cd18 O17 2.203 1_455 S
Cd18 O20 2.411 . S
Cd18 O21 2.333 . S
Cd18 O22 2.352 . S
Cd18 O26 2.277 . S
Cd18 O27 2.356 . S
C19 O24 1.209 . S
C19 O26 1.226 . S
O20 Cd16 2.273 . S
O20 Cd18 2.411 . S
O20 C23 1.320 . S
O21 Cd18 2.333 . S
O21 C23 1.214 . S
O22 Cd18 2.352 . S
O22 C25 1.258 . S
C23 O20 1.320 . S
C23 O21 1.214 . S
O24 Cd16 2.277 . S
O24 C19 1.209 . S
C25 O22 1.258 . S
C25 O27 1.282 . S
O26 Cd18 2.277 . S
O26 C19 1.226 . S
O27 Cd18 2.356 . S
O27 C25 1.282 . S
C28 O29 1.306 . S
C28 O31 1.160 . S
O29 C28 1.306 . S
O29 Cd30 2.228 . S
Cd30 O29 2.228 . S
Cd30 O34 2.273 . S
Cd30 O38 2.277 . S
O31 C28 1.160 . S
O31 Cd32 2.203 . S
Cd32 O31 2.203 . S
Cd32 O34 2.411 . S
Cd32 O35 2.333 . S
Cd32 O36 2.352 . S
Cd32 O40 2.277 . S
Cd32 O41 2.356 . S
C33 O38 1.209 . S
C33 O40 1.226 . S
O34 Cd30 2.273 . S
O34 Cd32 2.411 . S
O34 C37 1.320 . S
O35 Cd32 2.333 . S
O35 C37 1.214 . S
O36 Cd32 2.352 . S
O36 C39 1.258 . S
C37 O34 1.320 . S
C37 O35 1.214 . S
O38 Cd30 2.277 . S
O38 C33 1.209 . S
C39 O36 1.258 . S
C39 O41 1.282 . S
O40 Cd32 2.277 . S
O40 C33 1.226 . S
O41 Cd32 2.356 . S
O41 C39 1.282 . S
C42 O43 1.306 . S
C42 O45 1.160 . S
O43 C42 1.306 . S
O43 Cd44 2.228 . S
Cd44 O43 2.228 . S
Cd44 O48 2.273 . S
Cd44 O52 2.277 . S
O45 C42 1.160 . S
O45 Cd46 2.203 . S
Cd46 O45 2.203 . S
Cd46 O48 2.411 . S
Cd46 O49 2.333 . S
Cd46 O50 2.352 . S
Cd46 O54 2.277 . S
Cd46 O55 2.356 . S
C47 O52 1.209 . S
C47 O54 1.226 . S
O48 Cd44 2.273 . S
O48 Cd46 2.411 . S
O48 C51 1.320 . S
O49 Cd46 2.333 . S
O49 C51 1.214 . S
O50 Cd46 2.352 . S
O50 C53 1.258 . S
C51 O48 1.320 . S
C51 O49 1.214 . S
O52 Cd44 2.277 . S
O52 C47 1.209 . S
C53 O50 1.258 . S
C53 O55 1.282 . S
O54 Cd46 2.277 . S
O54 C47 1.226 . S
O55 Cd46 2.356 . S
O55 C53 1.282 . S
C56 O57 1.306 1_655 S
C56 O59 1.160 . S
O57 C56 1.306 1_455 S
O57 Cd58 2.228 . S
Cd58 O57 2.228 . S
Cd58 O62 2.273 . S
Cd58 O66 2.277 . S
O59 C56 1.160 . S
O59 Cd60 2.203 1_655 S
Cd60 O59 2.203 1_455 S
Cd60 O62 2.411 . S
Cd60 O63 2.333 . S
Cd60 O64 2.352 . S
Cd60 O68 2.277 . S
Cd60 O69 2.356 . S
C61 O66 1.209 . S
C61 O68 1.226 . S
O62 Cd58 2.273 . S
O62 Cd60 2.411 . S
O62 C65 1.320 . S
O63 Cd60 2.333 . S
O63 C65 1.214 . S
O64 Cd60 2.352 . S
O64 C67 1.258 . S
C65 O62 1.320 . S
C65 O63 1.214 . S
O66 Cd58 2.277 . S
O66 C61 1.209 . S
C67 O64 1.258 . S
C67 O69 1.282 . S
O68 Cd60 2.277 . S
O68 C61 1.226 . S
O69 Cd60 2.356 . S
O69 C67 1.282 . S
C70 O71 1.306 . S
C70 O73 1.160 . S
O71 C70 1.306 . S
O71 Cd72 2.228 . S
Cd72 O71 2.228 . S
Cd72 O76 2.273 . S
Cd72 O80 2.277 . S
O73 C70 1.160 . S
O73 Cd74 2.203 . S
Cd74 O73 2.203 . S
Cd74 O76 2.411 . S
Cd74 O77 2.333 . S
Cd74 O78 2.352 . S
Cd74 O82 2.277 . S
Cd74 O83 2.356 . S
C75 O80 1.209 . S
C75 O82 1.226 . S
O76 Cd72 2.273 . S
O76 Cd74 2.411 . S
O76 C79 1.320 . S
O77 Cd74 2.333 . S
O77 C79 1.214 . S
O78 Cd74 2.352 . S
O78 C81 1.258 . S
C79 O76 1.320 . S
C79 O77 1.214 . S
O80 Cd72 2.277 . S
O80 C75 1.209 . S
C81 O78 1.258 . S
C81 O83 1.282 . S
O82 Cd74 2.277 . S
O82 C75 1.226 . S
O83 Cd74 2.356 . S
O83 C81 1.282 . S
C84 O85 1.306 . S
C84 O87 1.160 . S
O85 C84 1.306 . S
O85 Cd86 2.228 . S
Cd86 O85 2.228 . S
Cd86 O90 2.273 . S
Cd86 O94 2.277 . S
O87 C84 1.160 . S
O87 Cd88 2.203 . S
Cd88 O87 2.203 . S
Cd88 O90 2.411 . S
Cd88 O91 2.333 . S
Cd88 O92 2.352 . S
Cd88 O96 2.277 . S
Cd88 O97 2.356 . S
C89 O94 1.209 . S
C89 O96 1.226 . S
O90 Cd86 2.273 . S
O90 Cd88 2.411 . S
O90 C93 1.320 . S
O91 Cd88 2.333 . S
O91 C93 1.214 . S
O92 Cd88 2.352 . S
O92 C95 1.258 . S
C93 O90 1.320 . S
C93 O91 1.214 . S
O94 Cd86 2.277 . S
O94 C89 1.209 . S
C95 O92 1.258 . S
C95 O97 1.282 . S
O96 Cd88 2.277 . S
O96 C89 1.226 . S
O97 Cd88 2.356 . S
O97 C95 1.282 . S
C98 O99 1.306 . S
C98 O101 1.160 . S
O99 C98 1.306 . S
O99 Cd100 2.228 1_655 S
Cd100 O99 2.228 1_455 S
Cd100 O104 2.273 . S
Cd100 O108 2.277 . S
O101 C98 1.160 . S
O101 Cd102 2.203 1_655 S
Cd102 O101 2.203 1_455 S
Cd102 O104 2.411 . S
Cd102 O105 2.333 . S
Cd102 O106 2.352 1_455 S
Cd102 O110 2.277 . S
Cd102 O111 2.356 . S
C103 O108 1.209 . S
C103 O110 1.226 . S
O104 Cd100 2.273 . S
O104 Cd102 2.411 . S
O104 C107 1.320 . S
O105 Cd102 2.333 . S
O105 C107 1.214 . S
O106 Cd102 2.352 1_655 S
O106 C109 1.258 . S
C107 O104 1.320 . S
C107 O105 1.214 . S
O108 Cd100 2.277 . S
O108 C103 1.209 . S
C109 O106 1.258 . S
C109 O111 1.282 1_655 S
O110 Cd102 2.277 . S
O110 C103 1.226 . S
O111 Cd102 2.356 . S
O111 C109 1.282 1_455 S
C112 O113 1.306 . S
C112 O115 1.160 . S
O113 C112 1.306 . S
O113 Cd114 2.228 1_545 S
Cd114 O113 2.228 1_565 S
Cd114 O118 2.273 1_565 S
Cd114 O122 2.277 . S
O115 C112 1.160 . S
O115 Cd116 2.203 . S
Cd116 O115 2.203 . S
Cd116 O118 2.411 . S
Cd116 O119 2.333 . S
Cd116 O120 2.352 . S
Cd116 O124 2.277 1_545 S
Cd116 O125 2.356 . S
C117 O122 1.209 . S
C117 O124 1.226 . S
O118 Cd114 2.273 1_545 S
O118 Cd116 2.411 . S
O118 C121 1.320 . S
O119 Cd116 2.333 . S
O119 C121 1.214 . S
O120 Cd116 2.352 . S
O120 C123 1.258 . S
C121 O118 1.320 . S
C121 O119 1.214 . S
O122 Cd114 2.277 . S
O122 C117 1.209 . S
C123 O120 1.258 . S
C123 O125 1.282 . S
O124 Cd116 2.277 1_565 S
O124 C117 1.226 . S
O125 Cd116 2.356 . S
O125 C123 1.282 . S
C126 O127 1.306 . S
C126 O129 1.160 . S
O127 C126 1.306 . S
O127 Cd128 2.228 . S
Cd128 O127 2.228 . S
Cd128 O132 2.273 . S
Cd128 O136 2.277 . S
O129 C126 1.160 . S
O129 Cd130 2.203 . S
Cd130 O129 2.203 . S
Cd130 O132 2.411 . S
Cd130 O133 2.333 . S
Cd130 O134 2.352 . S
Cd130 O138 2.277 . S
Cd130 O139 2.356 . S
C131 O136 1.209 . S
C131 O138 1.226 . S
O132 Cd128 2.273 . S
O132 Cd130 2.411 . S
O132 C135 1.320 . S
O133 Cd130 2.333 . S
O133 C135 1.214 . S
O134 Cd130 2.352 . S
O134 C137 1.258 . S
C135 O132 1.320 . S
C135 O133 1.214 . S
O136 Cd128 2.277 . S
O136 C131 1.209 . S
C137 O134 1.258 . S
C137 O139 1.282 . S
O138 Cd130 2.277 . S
O138 C131 1.226 . S
O139 Cd130 2.356 . S
O139 C137 1.282 . S
C140 O141 1.306 . S
C140 O143 1.160 . S
O141 C140 1.306 . S
O141 Cd142 2.228 . S
Cd142 O141 2.228 . S
Cd142 O146 2.273 . S
Cd142 O150 2.277 . S
O143 C140 1.160 . S
O143 Cd144 2.203 . S
Cd144 O143 2.203 . S
Cd144 O146 2.411 . S
Cd144 O147 2.333 . S
Cd144 O148 2.352 1_545 S
Cd144 O152 2.277 . S
Cd144 O153 2.356 1_545 S
C145 O150 1.209 . S
C145 O152 1.226 . S
O146 Cd142 2.273 . S
O146 Cd144 2.411 . S
O146 C149 1.320 . S
O147 Cd144 2.333 . S
O147 C149 1.214 . S
O148 Cd144 2.352 1_565 S
O148 C151 1.258 . S
C149 O146 1.320 . S
C149 O147 1.214 . S
O150 Cd142 2.277 . S
O150 C145 1.209 . S
C151 O148 1.258 . S
C151 O153 1.282 . S
O152 Cd144 2.277 . S
O152 C145 1.226 . S
O153 Cd144 2.356 1_565 S
O153 C151 1.282 . S
C154 O155 1.306 . S
C154 O157 1.160 . S
O155 C154 1.306 . S
O155 Cd156 2.228 1_554 S
Cd156 O155 2.228 1_556 S
Cd156 O160 2.273 1_556 S
Cd156 O164 2.277 . S
O157 C154 1.160 . S
O157 Cd158 2.203 . S
Cd158 O157 2.203 . S
Cd158 O160 2.411 . S
Cd158 O161 2.333 . S
Cd158 O162 2.352 . S
Cd158 O166 2.277 1_554 S
Cd158 O167 2.356 . S
C159 O164 1.209 . S
C159 O166 1.226 . S
O160 Cd156 2.273 1_554 S
O160 Cd158 2.411 . S
O160 C163 1.320 . S
O161 Cd158 2.333 . S
O161 C163 1.214 . S
O162 Cd158 2.352 . S
O162 C165 1.258 . S
C163 O160 1.320 . S
C163 O161 1.214 . S
O164 Cd156 2.277 . S
O164 C159 1.209 . S
C165 O162 1.258 . S
C165 O167 1.282 . S
O166 Cd158 2.277 1_556 S
O166 C159 1.226 . S
O167 Cd158 2.356 . S
O167 C165 1.282 . S
C168 O169 1.306 . S
C168 O171 1.160 . S
O169 C168 1.306 . S
O169 Cd170 2.228 . S
Cd170 O169 2.228 . S
Cd170 O174 2.273 . S
Cd170 O178 2.277 1_554 S
O171 C168 1.160 . S
O171 Cd172 2.203 . S
Cd172 O171 2.203 . S
Cd172 O174 2.411 . S
Cd172 O175 2.333 . S
Cd172 O176 2.352 . S
Cd172 O180 2.277 . S
Cd172 O181 2.356 . S
C173 O178 1.209 . S
C173 O180 1.226 1_556 S
O174 Cd170 2.273 . S
O174 Cd172 2.411 . S
O174 C177 1.320 . S
O175 Cd172 2.333 . S
O175 C177 1.214 . S
O176 Cd172 2.352 . S
O176 C179 1.258 . S
C177 O174 1.320 . S
C177 O175 1.214 . S
O178 Cd170 2.277 1_556 S
O178 C173 1.209 . S
C179 O176 1.258 . S
C179 O181 1.282 . S
O180 Cd172 2.277 . S
O180 C173 1.226 1_554 S
O181 Cd172 2.356 . S
O181 C179 1.282 . S
C182 O183 1.306 . S
C182 O185 1.160 . S
O183 C182 1.306 . S
O183 Cd184 2.228 . S
Cd184 O183 2.228 . S
Cd184 O188 2.273 . S
Cd184 O192 2.277 . S
O185 C182 1.160 . S
O185 Cd186 2.203 . S
Cd186 O185 2.203 . S
Cd186 O188 2.411 . S
Cd186 O189 2.333 . S
Cd186 O190 2.352 1_554 S
Cd186 O194 2.277 . S
Cd186 O195 2.378 . S
C187 O192 1.209 . S
C187 O194 1.226 . S
O188 Cd184 2.273 . S
O188 Cd186 2.411 . S
O188 C191 1.320 . S
O189 Cd186 2.333 . S
O189 C191 1.214 . S
O190 Cd186 2.352 1_556 S
O190 C193 1.258 . S
C191 O188 1.320 . S
C191 O189 1.214 . S
O192 Cd184 2.277 . S
O192 C187 1.209 . S
C193 O190 1.258 . S
C193 O195 1.260 1_556 S
O194 Cd186 2.277 . S
O194 C187 1.226 . S
O195 Cd186 2.378 . S
O195 C193 1.260 1_554 S
C196 O197 1.306 . S
C196 O199 1.160 . S
O197 C196 1.306 . S
O197 Cd198 2.228 . S
Cd198 O197 2.228 . S
Cd198 O202 2.273 . S
Cd198 O206 2.277 . S
O199 C196 1.160 . S
O199 Cd200 2.203 . S
Cd200 O199 2.203 . S
Cd200 O202 2.411 . S
Cd200 O203 2.333 . S
Cd200 O204 2.352 . S
Cd200 O208 2.277 . S
Cd200 O209 2.356 . S
C201 O206 1.209 . S
C201 O208 1.226 . S
O202 Cd198 2.273 . S
O202 Cd200 2.411 . S
O202 C205 1.320 . S
O203 Cd200 2.333 . S
O203 C205 1.214 . S
O204 Cd200 2.352 . S
O204 C207 1.258 . S
C205 O202 1.320 . S
C205 O203 1.214 . S
O206 Cd198 2.277 . S
O206 C201 1.209 . S
C207 O204 1.258 . S
C207 O209 1.282 . S
O208 Cd200 2.277 . S
O208 C201 1.226 . S
O209 Cd200 2.356 . S
O209 C207 1.282 . S
C210 O211 1.306 . S
C210 O213 1.160 . S
O211 C210 1.306 . S
O211 Cd212 2.228 . S
Cd212 O211 2.228 . S
Cd212 O216 2.273 . S
Cd212 O220 2.277 . S
O213 C210 1.160 . S
O213 Cd214 2.203 . S
Cd214 O213 2.203 . S
Cd214 O216 2.411 . S
Cd214 O217 2.333 . S
Cd214 O218 2.352 . S
Cd214 O222 2.277 . S
Cd214 O223 2.356 . S
C215 O220 1.209 . S
C215 O222 1.226 . S
O216 Cd212 2.273 . S
O216 Cd214 2.411 . S
O216 C219 1.320 . S
O217 Cd214 2.333 . S
O217 C219 1.214 . S
O218 Cd214 2.352 . S
O218 C221 1.258 . S
C219 O216 1.320 . S
C219 O217 1.214 . S
O220 Cd212 2.277 . S
O220 C215 1.209 . S
C221 O218 1.258 . S
C221 O223 1.282 . S
O222 Cd214 2.277 . S
O222 C215 1.226 . S
O223 Cd214 2.356 . S
O223 C221 1.282 . S
C224 O225 1.306 1_545 S
C224 O227 1.160 . S
O225 C224 1.306 1_565 S
O225 Cd226 2.228 . S
Cd226 O225 2.228 . S
Cd226 O230 2.273 1_565 S
Cd226 O234 2.277 . S
O227 C224 1.160 . S
O227 Cd228 2.203 . S
Cd228 O227 2.203 . S
Cd228 O230 2.411 . S
Cd228 O231 2.333 . S
Cd228 O232 2.352 . S
Cd228 O236 2.277 1_545 S
Cd228 O237 2.356 . S
C229 O234 1.209 . S
C229 O236 1.226 . S
O230 Cd226 2.273 1_545 S
O230 Cd228 2.411 . S
O230 C233 1.320 . S
O231 Cd228 2.333 . S
O231 C233 1.214 . S
O232 Cd228 2.352 . S
O232 C235 1.258 . S
C233 O230 1.320 . S
C233 O231 1.214 . S
O234 Cd226 2.277 . S
O234 C229 1.209 . S
C235 O232 1.258 . S
C235 O237 1.282 . S
O236 Cd228 2.277 1_565 S
O236 C229 1.226 . S
O237 Cd228 2.356 . S
O237 C235 1.282 . S
C238 O239 1.306 . S
C238 O241 1.160 . S
O239 C238 1.306 . S
O239 Cd240 2.228 . S
Cd240 O239 2.228 . S
Cd240 O244 2.273 . S
Cd240 O248 2.277 . S
O241 C238 1.160 . S
O241 Cd242 2.203 . S
Cd242 O241 2.203 . S
Cd242 O244 2.411 . S
Cd242 O245 2.333 . S
Cd242 O246 2.352 . S
Cd242 O250 2.277 . S
Cd242 O251 2.356 . S
C243 O248 1.209 . S
C243 O250 1.226 . S
O244 Cd240 2.273 . S
O244 Cd242 2.411 . S
O244 C247 1.320 . S
O245 Cd242 2.333 . S
O245 C247 1.214 . S
O246 Cd242 2.352 . S
O246 C249 1.258 . S
C247 O244 1.320 . S
C247 O245 1.214 . S
O248 Cd240 2.277 . S
O248 C243 1.209 . S
C249 O246 1.258 . S
C249 O251 1.282 . S
O250 Cd242 2.277 . S
O250 C243 1.226 . S
O251 Cd242 2.356 . S
O251 C249 1.282 . S
C252 O253 1.306 . S
C252 O255 1.160 . S
O253 C252 1.306 . S
O253 Cd254 2.228 . S
Cd254 O253 2.228 . S
Cd254 O258 2.273 . S
Cd254 O262 2.277 . S
O255 C252 1.160 . S
O255 Cd256 2.203 . S
Cd256 O255 2.203 . S
Cd256 O258 2.411 . S
Cd256 O259 2.333 . S
Cd256 O260 2.352 . S
Cd256 O264 2.277 . S
Cd256 O265 2.356 . S
C257 O262 1.209 . S
C257 O264 1.226 . S
O258 Cd254 2.273 . S
O258 Cd256 2.411 . S
O258 C261 1.320 . S
O259 Cd256 2.333 . S
O259 C261 1.214 . S
O260 Cd256 2.352 . S
O260 C263 1.258 . S
C261 O258 1.320 . S
C261 O259 1.214 . S
O262 Cd254 2.277 . S
O262 C257 1.209 . S
C263 O260 1.258 . S
C263 O265 1.282 . S
O264 Cd256 2.277 . S
O264 C257 1.226 . S
O265 Cd256 2.356 . S
O265 C263 1.282 . S
C266 O267 1.306 . S
C266 O269 1.152 1_545 S
O267 C266 1.306 . S
O267 Cd268 2.228 . S
Cd268 O267 2.228 . S
Cd268 O272 2.273 1_545 S
Cd268 O276 2.277 . S
O269 C266 1.152 1_565 S
O269 Cd270 2.203 . S
Cd270 O269 2.203 . S
Cd270 O272 2.411 . S
Cd270 O273 2.333 . S
Cd270 O274 2.352 . S
Cd270 O278 2.277 1_565 S
Cd270 O279 2.356 . S
C271 O276 1.209 . S
C271 O278 1.226 . S
O272 Cd268 2.273 1_565 S
O272 Cd270 2.411 . S
O272 C275 1.320 . S
O273 Cd270 2.333 . S
O273 C275 1.214 . S
O274 Cd270 2.352 . S
O274 C277 1.258 . S
C275 O272 1.320 . S
C275 O273 1.214 . S
O276 Cd268 2.277 . S
O276 C271 1.209 . S
C277 O274 1.258 . S
C277 O279 1.282 . S
O278 Cd270 2.277 1_545 S
O278 C271 1.226 . S
O279 Cd270 2.356 . S
O279 C277 1.282 . S
C280 O281 1.306 . S
C280 O283 1.148 1_554 S
O281 C280 1.306 . S
O281 Cd282 2.228 . S
Cd282 O281 2.228 . S
Cd282 O286 2.273 1_554 S
Cd282 O290 2.277 . S
O283 C280 1.148 1_556 S
O283 Cd284 2.204 . S
Cd284 O283 2.204 . S
Cd284 O286 2.411 . S
Cd284 O287 2.333 . S
Cd284 O288 2.352 . S
Cd284 O292 2.277 1_556 S
Cd284 O293 2.356 . S
C285 O290 1.209 . S
C285 O292 1.226 . S
O286 Cd282 2.273 1_556 S
O286 Cd284 2.411 . S
O286 C289 1.320 . S
O287 Cd284 2.333 . S
O287 C289 1.214 . S
O288 Cd284 2.352 . S
O288 C291 1.258 . S
C289 O286 1.320 . S
C289 O287 1.214 . S
O290 Cd282 2.277 . S
O290 C285 1.209 . S
C291 O288 1.258 . S
C291 O293 1.282 . S
O292 Cd284 2.277 1_554 S
O292 C285 1.226 . S
O293 Cd284 2.356 . S
O293 C291 1.282 . S
C294 O295 1.306 . S
C294 O297 1.160 . S
O295 C294 1.306 . S
O295 Cd296 2.228 . S
Cd296 O295 2.228 . S
Cd296 O300 2.273 . S
Cd296 O304 2.277 . S
O297 C294 1.160 . S
O297 Cd298 2.203 . S
Cd298 O297 2.203 . S
Cd298 O300 2.411 . S
Cd298 O301 2.333 . S
Cd298 O302 2.352 . S
Cd298 O306 2.277 . S
Cd298 O307 2.356 . S
C299 O304 1.209 . S
C299 O306 1.226 . S
O300 Cd296 2.273 . S
O300 Cd298 2.411 . S
O300 C303 1.320 . S
O301 Cd298 2.333 . S
O301 C303 1.214 . S
O302 Cd298 2.352 . S
O302 C305 1.258 . S
C303 O300 1.320 . S
C303 O301 1.214 . S
O304 Cd296 2.277 . S
O304 C299 1.209 . S
C305 O302 1.258 . S
C305 O307 1.282 . S
O306 Cd298 2.277 . S
O306 C299 1.226 . S
O307 Cd298 2.356 . S
O307 C305 1.282 . S
C308 O309 1.306 . S
C308 O311 1.160 . S
O309 C308 1.306 . S
O309 Cd310 2.228 . S
Cd310 O309 2.228 . S
Cd310 O314 2.273 . S
Cd310 O318 2.277 . S
O311 C308 1.160 . S
O311 Cd312 2.203 . S
Cd312 O311 2.203 . S
Cd312 O314 2.411 . S
Cd312 O315 2.333 . S
Cd312 O316 2.352 . S
Cd312 O320 2.277 . S
Cd312 O321 2.356 . S
C313 O318 1.209 . S
C313 O320 1.226 . S
O314 Cd310 2.273 . S
O314 Cd312 2.411 . S
O314 C317 1.320 . S
O315 Cd312 2.333 . S
O315 C317 1.214 . S
O316 Cd312 2.352 . S
O316 C319 1.258 . S
C317 O314 1.320 . S
C317 O315 1.214 . S
O318 Cd310 2.277 . S
O318 C313 1.209 . S
C319 O316 1.258 . S
C319 O321 1.282 . S
O320 Cd312 2.277 . S
O320 C313 1.226 . S
O321 Cd312 2.356 . S
O321 C319 1.282 . S
C322 O323 1.306 . S
C322 O325 1.160 . S
O323 C322 1.306 . S
O323 Cd324 2.228 . S
Cd324 O323 2.228 . S
Cd324 O328 2.273 . S
Cd324 O332 2.277 . S
O325 C322 1.160 . S
O325 Cd326 2.203 . S
Cd326 O325 2.203 . S
Cd326 O328 2.411 . S
Cd326 O329 2.333 . S
Cd326 O330 2.352 . S
Cd326 O334 2.277 . S
Cd326 O335 2.356 . S
C327 O332 1.209 . S
C327 O334 1.226 . S
O328 Cd324 2.273 . S
O328 Cd326 2.411 . S
O328 C331 1.320 . S
O329 Cd326 2.333 . S
O329 C331 1.214 . S
O330 Cd326 2.352 . S
O330 C333 1.258 . S
C331 O328 1.320 . S
C331 O329 1.214 . S
O332 Cd324 2.277 . S
O332 C327 1.209 . S
C333 O330 1.258 . S
C333 O335 1.282 . S
O334 Cd326 2.277 . S
O334 C327 1.226 . S
O335 Cd326 2.356 . S
O335 C333 1.282 . S
Zn336 O342 1.969 . S
Zn336 O343 1.965 1_565 S
Zn336 O347 2.024 . S
Zn336 O352 1.964 1_565 S
Zn337 O344 1.969 1_654 S
Zn337 O350 1.969 1_554 S
Zn337 O351 1.965 . S
Zn337 O353 2.024 1_655 S
C338 O339 1.229 . S
C338 O347 1.058 . S
O339 C338 1.229 . S
C340 O341 1.229 1_454 S
C340 O353 1.058 . S
O341 C340 1.229 1_656 S
O342 Zn336 1.969 . S
O342 C345 1.267 . S
O343 Zn336 1.965 1_545 S
O343 C354 1.260 1_554 S
O344 Zn337 1.969 1_456 S
O344 C354 1.258 . S
C345 O342 1.267 . S
C345 O346 1.228 . S
O346 C345 1.228 . S
O347 Zn336 2.024 . S
O347 C338 1.058 . S
C348 O349 1.228 . S
C348 O350 1.267 1_554 S
O349 C348 1.228 . S
O350 Zn337 1.969 1_556 S
O350 C348 1.267 1_556 S
O351 Zn337 1.965 . S
O351 C355 1.260 1_655 S
O352 Zn336 1.964 1_545 S
O352 C355 1.267 . S
O353 Zn337 2.024 1_455 S
O353 C340 1.058 . S
C354 O343 1.260 1_556 S
C354 O344 1.258 . S
C355 O351 1.260 1_455 S
C355 O352 1.267 . S
Zn356 O362 1.969 . S
Zn356 O363 1.965 . S
Zn356 O367 2.024 . S
Zn356 O372 1.969 . S
Zn357 O364 1.969 . S
Zn357 O370 1.969 . S
Zn357 O371 1.965 . S
Zn357 O373 2.024 . S
C358 O359 1.229 . S
C358 O367 1.058 . S
O359 C358 1.229 . S
C360 O361 1.229 . S
C360 O373 1.058 . S
O361 C360 1.229 . S
O362 Zn356 1.969 . S
O362 C365 1.267 . S
O363 Zn356 1.965 . S
O363 C374 1.260 . S
O364 Zn357 1.969 . S
O364 C374 1.258 . S
C365 O362 1.267 . S
C365 O366 1.228 . S
O366 C365 1.228 . S
O367 Zn356 2.024 . S
O367 C358 1.058 . S
C368 O369 1.228 . S
C368 O370 1.267 . S
O369 C368 1.228 . S
O370 Zn357 1.969 . S
O370 C368 1.267 . S
O371 Zn357 1.965 . S
O371 C375 1.260 . S
O372 Zn356 1.969 . S
O372 C375 1.258 . S
O373 Zn357 2.024 . S
O373 C360 1.058 . S
C374 O363 1.260 . S
C374 O364 1.258 . S
C375 O371 1.260 . S
C375 O372 1.258 . S
Zn376 O382 1.969 . S
Zn376 O383 1.965 . S
Zn376 O387 2.024 . S
Zn376 O392 1.969 . S
Zn377 O384 1.969 . S
Zn377 O390 1.969 . S
Zn377 O391 1.965 1_565 S
Zn377 O393 2.024 . S
C378 O379 1.229 . S
C378 O387 1.058 . S
O379 C378 1.229 . S
C380 O381 1.229 . S
C380 O393 1.058 . S
O381 C380 1.229 . S
O382 Zn376 1.969 . S
O382 C385 1.267 . S
O383 Zn376 1.965 . S
O383 C394 1.260 . S
O384 Zn377 1.969 . S
O384 C394 1.258 1_565 S
C385 O382 1.267 . S
C385 O386 1.228 . S
O386 C385 1.228 . S
O387 Zn376 2.024 . S
O387 C378 1.058 . S
C388 O389 1.228 . S
C388 O390 1.267 . S
O389 C388 1.228 . S
O390 Zn377 1.969 . S
O390 C388 1.267 . S
O391 Zn377 1.965 1_545 S
O391 C395 1.260 . S
O392 Zn376 1.969 . S
O392 C395 1.258 . S
O393 Zn377 2.024 . S
O393 C380 1.058 . S
C394 O383 1.260 . S
C394 O384 1.258 1_545 S
C395 O391 1.260 . S
C395 O392 1.258 . S
Zn396 O402 1.969 . S
Zn396 O403 1.965 . S
Zn396 O407 2.024 . S
Zn396 O412 1.969 . S
Zn397 O404 1.969 . S
Zn397 O410 1.969 . S
Zn397 O411 1.965 . S
Zn397 O413 2.024 . S
C398 O399 1.229 . S
C398 O407 1.058 . S
O399 C398 1.229 . S
C400 O401 1.229 . S
C400 O413 1.058 . S
O401 C400 1.229 . S
O402 Zn396 1.969 . S
O402 C405 1.267 . S
O403 Zn396 1.965 . S
O403 C414 1.260 . S
O404 Zn397 1.969 . S
O404 C414 1.258 . S
C405 O402 1.267 . S
C405 O406 1.228 . S
O406 C405 1.228 . S
O407 Zn396 2.024 . S
O407 C398 1.058 . S
C408 O409 1.228 . S
C408 O410 1.267 . S
O409 C408 1.228 . S
O410 Zn397 1.969 . S
O410 C408 1.267 . S
O411 Zn397 1.965 . S
O411 C415 1.260 . S
O412 Zn396 1.969 . S
O412 C415 1.258 . S
O413 Zn397 2.024 . S
O413 C400 1.058 . S
C414 O403 1.260 . S
C414 O404 1.258 . S
C415 O411 1.260 . S
C415 O412 1.258 . S
Zn416 O422 1.969 . S
Zn416 O423 1.944 1_455 S
Zn416 O427 2.024 1_565 S
Zn416 O432 1.969 1_565 S
Zn417 O424 1.969 1_455 S
Zn417 O430 1.969 1_455 S
Zn417 O431 1.965 . S
Zn417 O433 2.024 . S
C418 O419 1.229 1_545 S
C418 O427 1.058 . S
O419 C418 1.229 1_565 S
C420 O421 1.229 . S
C420 O433 1.058 1_655 S
O421 C420 1.229 . S
O422 Zn416 1.969 . S
O422 C425 1.267 . S
O423 Zn416 1.944 1_655 S
O423 C434 1.283 . S
O424 Zn417 1.969 1_655 S
O424 C434 1.258 1_545 S
C425 O422 1.267 . S
C425 O426 1.228 . S
O426 C425 1.228 . S
O427 Zn416 2.024 1_545 S
O427 C418 1.058 . S
C428 O429 1.228 . S
C428 O430 1.267 1_455 S
O429 C428 1.228 . S
O430 Zn417 1.969 1_655 S
O430 C428 1.267 1_655 S
O431 Zn417 1.965 . S
O431 C435 1.260 . S
O432 Zn416 1.969 1_545 S
O432 C435 1.258 . S
O433 Zn417 2.024 . S
O433 C420 1.058 1_455 S
C434 O423 1.283 . S
C434 O424 1.258 1_565 S
C435 O431 1.260 . S
C435 O432 1.258 . S
Zn436 O442 1.969 . S
Zn436 O443 1.965 . S
Zn436 O447 2.024 . S
Zn436 O452 1.969 . S
Zn437 O444 1.969 . S
Zn437 O450 1.969 . S
Zn437 O451 1.965 . S
Zn437 O453 2.024 . S
C438 O439 1.229 . S
C438 O447 1.058 . S
O439 C438 1.229 . S
C440 O441 1.229 . S
C440 O453 1.058 . S
O441 C440 1.229 . S
O442 Zn436 1.969 . S
O442 C445 1.267 . S
O443 Zn436 1.965 . S
O443 C454 1.260 . S
O444 Zn437 1.969 . S
O444 C454 1.258 . S
C445 O442 1.267 . S
C445 O446 1.228 . S
O446 C445 1.228 . S
O447 Zn436 2.024 . S
O447 C438 1.058 . S
C448 O449 1.228 . S
C448 O450 1.267 . S
O449 C448 1.228 . S
O450 Zn437 1.969 . S
O450 C448 1.267 . S
O451 Zn437 1.965 . S
O451 C455 1.260 . S
O452 Zn436 1.969 . S
O452 C455 1.258 . S
O453 Zn437 2.024 . S
O453 C440 1.058 . S
C454 O443 1.260 . S
C454 O444 1.258 . S
C455 O451 1.260 . S
C455 O452 1.258 . S
Zn456 O462 1.969 . S
Zn456 O463 1.965 1_545 S
Zn456 O467 2.024 1_556 S
Zn456 O472 1.969 1_556 S
Zn457 O464 1.969 . S
Zn457 O470 1.969 . S
Zn457 O471 1.965 1_565 S
Zn457 O473 2.024 . S
C458 O459 1.229 . S
C458 O467 1.058 . S
O459 C458 1.229 . S
C460 O461 1.229 . S
C460 O473 1.058 . S
O461 C460 1.229 . S
O462 Zn456 1.969 . S
O462 C465 1.267 . S
O463 Zn456 1.965 1_565 S
O463 C474 1.260 1_556 S
O464 Zn457 1.969 . S
O464 C474 1.258 . S
C465 O462 1.267 . S
C465 O466 1.228 . S
O466 C465 1.228 . S
O467 Zn456 2.024 1_554 S
O467 C458 1.058 . S
C468 O469 1.234 . S
C468 O470 1.263 1_545 S
O469 C468 1.234 . S
O470 Zn457 1.969 . S
O470 C468 1.263 1_565 S
O471 Zn457 1.965 1_545 S
O471 C475 1.260 . S
O472 Zn456 1.969 1_554 S
O472 C475 1.258 . S
O473 Zn457 2.024 . S
O473 C460 1.058 . S
C474 O463 1.260 1_554 S
C474 O464 1.258 . S
C475 O471 1.260 . S
C475 O472 1.258 . S
Zn476 O482 1.969 . S
Zn476 O483 1.965 . S
Zn476 O487 2.024 . S
Zn476 O492 1.969 . S
Zn477 O484 1.969 . S
Zn477 O490 1.969 . S
Zn477 O491 1.965 . S
Zn477 O493 2.024 . S
C478 O479 1.229 . S
C478 O487 1.058 . S
O479 C478 1.229 . S
C480 O481 1.229 . S
C480 O493 1.058 . S
O481 C480 1.229 . S
O482 Zn476 1.969 . S
O482 C485 1.267 . S
O483 Zn476 1.965 . S
O483 C494 1.260 . S
O484 Zn477 1.969 . S
O484 C494 1.258 . S
C485 O482 1.267 . S
C485 O486 1.228 . S
O486 C485 1.228 . S
O487 Zn476 2.024 . S
O487 C478 1.058 . S
C488 O489 1.228 . S
C488 O490 1.267 . S
O489 C488 1.228 . S
O490 Zn477 1.969 . S
O490 C488 1.267 . S
O491 Zn477 1.965 . S
O491 C495 1.260 . S
O492 Zn476 1.969 . S
O492 C495 1.258 . S
O493 Zn477 2.024 . S
O493 C480 1.058 . S
C494 O483 1.260 . S
C494 O484 1.258 . S
C495 O491 1.260 . S
C495 O492 1.258 . S
Zn496 O502 1.969 . S
Zn496 O503 1.965 . S
Zn496 O507 2.024 . S
Zn496 O512 1.969 . S
Zn497 O504 1.969 1_556 S
Zn497 O510 1.969 1_556 S
Zn497 O511 1.965 1_556 S
Zn497 O513 2.024 . S
C498 O499 1.229 . S
C498 O507 1.058 . S
O499 C498 1.229 . S
C500 O501 1.229 . S
C500 O513 1.058 . S
O501 C500 1.229 . S
O502 Zn496 1.969 . S
O502 C505 1.267 . S
O503 Zn496 1.965 . S
O503 C514 1.260 . S
O504 Zn497 1.969 1_554 S
O504 C514 1.258 . S
C505 O502 1.267 . S
C505 O506 1.228 . S
O506 C505 1.228 . S
O507 Zn496 2.024 . S
O507 C498 1.058 . S
C508 O509 1.228 . S
C508 O510 1.267 1_556 S
O509 C508 1.228 . S
O510 Zn497 1.969 1_554 S
O510 C508 1.267 1_554 S
O511 Zn497 1.965 1_554 S
O511 C515 1.260 . S
O512 Zn496 1.969 . S
O512 C515 1.258 . S
O513 Zn497 2.024 . S
O513 C500 1.058 . S
C514 O503 1.260 . S
C514 O504 1.258 . S
C515 O511 1.260 . S
C515 O512 1.258 . S
Zn516 O522 1.969 . S
Zn516 O523 1.965 . S
Zn516 O527 2.024 . S
Zn516 O532 1.969 . S
Zn517 O524 1.969 . S
Zn517 O530 1.969 . S
Zn517 O531 1.965 . S
Zn517 O533 2.024 . S
C518 O519 1.229 . S
C518 O527 1.058 . S
O519 C518 1.229 . S
C520 O521 1.229 . S
C520 O533 1.058 . S
O521 C520 1.229 . S
O522 Zn516 1.969 . S
O522 C525 1.267 . S
O523 Zn516 1.965 . S
O523 C534 1.260 . S
O524 Zn517 1.969 . S
O524 C534 1.258 . S
C525 O522 1.267 . S
C525 O526 1.228 . S
O526 C525 1.228 . S
O527 Zn516 2.024 . S
O527 C518 1.058 . S
C528 O529 1.228 . S
C528 O530 1.267 . S
O529 C528 1.228 . S
O530 Zn517 1.969 . S
O530 C528 1.267 . S
O531 Zn517 1.965 . S
O531 C535 1.260 . S
O532 Zn516 1.969 . S
O532 C535 1.258 . S
O533 Zn517 2.024 . S
O533 C520 1.058 . S
C534 O523 1.260 . S
C534 O524 1.258 . S
C535 O531 1.260 . S
C535 O532 1.258 . S
Zn536 O542 1.969 . S
Zn536 O543 1.965 . S
Zn536 O547 2.024 . S
Zn536 O552 1.969 . S
Zn537 O544 1.969 1_655 S
Zn537 O550 1.969 . S
Zn537 O551 1.965 1_655 S
Zn537 O553 2.024 . S
C538 O539 1.229 . S
C538 O547 1.058 . S
O539 C538 1.229 . S
C540 O541 1.229 . S
C540 O553 1.058 . S
O541 C540 1.229 . S
O542 Zn536 1.969 . S
O542 C545 1.267 . S
O543 Zn536 1.965 . S
O543 C554 1.260 . S
O544 Zn537 1.969 1_455 S
O544 C554 1.258 . S
C545 O542 1.267 . S
C545 O546 1.228 . S
O546 C545 1.228 . S
O547 Zn536 2.024 . S
O547 C538 1.058 . S
C548 O549 1.228 . S
C548 O550 1.267 . S
O549 C548 1.228 . S
O550 Zn537 1.969 . S
O550 C548 1.267 . S
O551 Zn537 1.965 1_455 S
O551 C555 1.260 . S
O552 Zn536 1.969 . S
O552 C555 1.258 . S
O553 Zn537 2.024 . S
O553 C540 1.058 . S
C554 O543 1.260 . S
C554 O544 1.258 . S
C555 O551 1.260 . S
C555 O552 1.258 . S
Zn556 O562 1.969 . S
Zn556 O563 1.965 . S
Zn556 O567 2.024 . S
Zn556 O572 1.969 . S
Zn557 O564 1.969 . S
Zn557 O570 1.969 . S
Zn557 O571 1.965 . S
Zn557 O573 2.024 . S
C558 O559 1.229 . S
C558 O567 1.058 . S
O559 C558 1.229 . S
C560 O561 1.229 . S
C560 O573 1.058 . S
O561 C560 1.229 . S
O562 Zn556 1.969 . S
O562 C565 1.267 . S
O563 Zn556 1.965 . S
O563 C574 1.260 . S
O564 Zn557 1.969 . S
O564 C574 1.258 . S
C565 O562 1.267 . S
C565 O566 1.228 . S
O566 C565 1.228 . S
O567 Zn556 2.024 . S
O567 C558 1.058 . S
C568 O569 1.228 . S
C568 O570 1.267 . S
O569 C568 1.228 . S
O570 Zn557 1.969 . S
O570 C568 1.267 . S
O571 Zn557 1.965 . S
O571 C575 1.260 . S
O572 Zn556 1.969 . S
O572 C575 1.258 . S
O573 Zn557 2.024 . S
O573 C560 1.058 . S
C574 O563 1.260 . S
C574 O564 1.258 . S
C575 O571 1.260 . S
C575 O572 1.258 . S
Zn576 O582 1.969 . S
Zn576 O583 1.965 . S
Zn576 O587 2.024 . S
Zn576 O592 1.969 . S
Zn577 O584 1.969 . S
Zn577 O590 1.969 . S
Zn577 O591 1.965 . S
Zn577 O593 2.024 . S
C578 O579 1.229 . S
C578 O587 1.058 . S
O579 C578 1.229 . S
C580 O581 1.229 . S
C580 O593 1.058 . S
O581 C580 1.229 . S
O582 Zn576 1.969 . S
O582 C585 1.267 . S
O583 Zn576 1.965 . S
O583 C594 1.260 . S
O584 Zn577 1.969 . S
O584 C594 1.258 . S
C585 O582 1.267 . S
C585 O586 1.228 . S
O586 C585 1.228 . S
O587 Zn576 2.024 . S
O587 C578 1.058 . S
C588 O589 1.228 . S
C588 O590 1.267 . S
O589 C588 1.228 . S
O590 Zn577 1.969 . S
O590 C588 1.267 . S
O591 Zn577 1.965 . S
O591 C595 1.260 . S
O592 Zn576 1.969 . S
O592 C595 1.258 . S
O593 Zn577 2.024 . S
O593 C580 1.058 . S
C594 O583 1.260 . S
C594 O584 1.258 . S
C595 O591 1.260 . S
C595 O592 1.258 . S
Zn596 O602 1.969 . S
Zn596 O603 1.965 . S
Zn596 O607 2.024 . S
Zn596 O612 1.969 . S
Zn597 O604 1.969 . S
Zn597 O610 1.969 . S
Zn597 O611 1.965 . S
Zn597 O613 2.024 . S
C598 O599 1.229 . S
C598 O607 1.058 . S
O599 C598 1.229 . S
C600 O601 1.229 . S
C600 O613 1.058 . S
O601 C600 1.229 . S
O602 Zn596 1.969 . S
O602 C605 1.267 . S
O603 Zn596 1.965 . S
O603 C614 1.260 . S
O604 Zn597 1.969 . S
O604 C614 1.258 . S
C605 O602 1.267 . S
C605 O606 1.228 . S
O606 C605 1.228 . S
O607 Zn596 2.024 . S
O607 C598 1.058 . S
C608 O609 1.228 . S
C608 O610 1.267 . S
O609 C608 1.228 . S
O610 Zn597 1.969 . S
O610 C608 1.267 . S
O611 Zn597 1.965 . S
O611 C615 1.260 . S
O612 Zn596 1.969 . S
O612 C615 1.258 . S
O613 Zn597 2.024 . S
O613 C600 1.058 . S
C614 O603 1.260 . S
C614 O604 1.258 . S
C615 O611 1.260 . S
C615 O612 1.258 . S
Zn616 O622 1.969 . S
Zn616 O623 1.965 . S
Zn616 O627 2.024 . S
Zn616 O632 1.969 . S
Zn617 O624 1.969 . S
Zn617 O630 1.969 . S
Zn617 O631 1.965 . S
Zn617 O633 2.024 . S
C618 O619 1.229 . S
C618 O627 1.058 . S
O619 C618 1.229 . S
C620 O621 1.229 . S
C620 O633 1.058 . S
O621 C620 1.229 . S
O622 Zn616 1.969 . S
O622 C625 1.267 . S
O623 Zn616 1.965 . S
O623 C634 1.260 . S
O624 Zn617 1.969 . S
O624 C634 1.258 . S
C625 O622 1.267 . S
C625 O626 1.228 . S
O626 C625 1.228 . S
O627 Zn616 2.024 . S
O627 C618 1.058 . S
C628 O629 1.228 . S
C628 O630 1.267 . S
O629 C628 1.228 . S
O630 Zn617 1.969 . S
O630 C628 1.267 . S
O631 Zn617 1.965 . S
O631 C635 1.260 . S
O632 Zn616 1.969 . S
O632 C635 1.258 . S
O633 Zn617 2.024 . S
O633 C620 1.058 . S
C634 O623 1.260 . S
C634 O624 1.258 . S
C635 O631 1.260 . S
C635 O632 1.258 . S
Zn636 O642 1.969 . S
Zn636 O643 1.965 . S
Zn636 O647 2.024 1_655 S
Zn636 O652 1.969 1_655 S
Zn637 O644 1.969 1_554 S
Zn637 O650 1.969 . S
Zn637 O651 1.965 . S
Zn637 O653 2.024 . S
C638 O639 1.229 . S
C638 O647 1.058 . S
O639 C638 1.229 . S
C640 O641 1.229 . S
C640 O653 1.058 1_556 S
O641 C640 1.229 . S
O642 Zn636 1.969 . S
O642 C645 1.267 . S
O643 Zn636 1.965 . S
O643 C654 1.260 1_654 S
O644 Zn637 1.969 1_556 S
O644 C654 1.258 . S
C645 O642 1.267 . S
C645 O646 1.228 . S
O646 C645 1.228 . S
O647 Zn636 2.024 1_455 S
O647 C638 1.058 . S
C648 O649 1.228 . S
C648 O650 1.267 . S
O649 C648 1.228 . S
O650 Zn637 1.969 . S
O650 C648 1.267 . S
O651 Zn637 1.965 . S
O651 C655 1.260 . S
O652 Zn636 1.969 1_455 S
O652 C655 1.258 . S
O653 Zn637 2.024 . S
O653 C640 1.058 1_554 S
C654 O643 1.260 1_456 S
C654 O644 1.258 . S
C655 O651 1.260 . S
C655 O652 1.258 . S
C656 C657 1.387 . S
C656 H660 0.950 . S
C656 C665 1.390 . S
C657 C656 1.387 . S
C657 C659 1.387 1_455 S
H658 C665 0.950 1_554 S
C659 C657 1.387 1_655 S
C659 C661 1.390 . S
C659 H663 0.950 . S
H660 C656 0.950 . S
C661 C659 1.390 . S
C661 C662 1.399 1_655 S
C661 H664 0.950 . S
C662 C661 1.399 1_455 S
C662 C665 1.391 . S
H663 C659 0.950 . S
H664 C661 0.950 . S
C665 C656 1.390 . S
C665 H658 0.950 1_556 S
C665 C662 1.391 . S
C666 C667 1.387 . S
C666 H670 0.950 . S
C666 C675 1.390 . S
C667 C666 1.387 . S
C667 C669 1.387 . S
H668 C675 0.950 . S
C669 C667 1.387 . S
C669 C671 1.390 . S
C669 H673 0.950 . S
H670 C666 0.950 . S
C671 C669 1.390 . S
C671 C672 1.387 . S
C671 H674 0.950 . S
C672 C671 1.387 . S
C672 C675 1.387 . S
H673 C669 0.950 . S
H674 C671 0.950 . S
C675 C666 1.390 . S
C675 H668 0.950 . S
C675 C672 1.387 . S
C676 C677 1.387 . S
C676 H680 0.950 . S
C676 C685 1.390 . S
C677 C676 1.387 . S
C677 C679 1.387 . S
H678 C685 0.950 . S
C679 C677 1.387 . S
C679 C681 1.390 . S
C679 H683 0.950 . S
H680 C676 0.950 . S
C681 C679 1.390 . S
C681 C682 1.387 . S
C681 H684 0.950 . S
C682 C681 1.387 . S
C682 C685 1.387 . S
H683 C679 0.950 . S
H684 C681 0.950 . S
C685 C676 1.390 . S
C685 H678 0.950 . S
C685 C682 1.387 . S
C686 C687 1.387 . S
C686 H690 0.950 . S
C686 C695 1.390 . S
C687 C686 1.387 . S
C687 C689 1.387 . S
H688 C695 0.950 . S
C689 C687 1.387 . S
C689 C691 1.390 . S
C689 H693 0.950 . S
H690 C686 0.950 . S
C691 C689 1.390 . S
C691 C692 1.387 . S
C691 H694 0.950 . S
C692 C691 1.387 . S
C692 C695 1.387 . S
H693 C689 0.950 . S
H694 C691 0.950 . S
C695 C686 1.390 . S
C695 H688 0.950 . S
C695 C692 1.387 . S
C696 C697 1.387 . S
C696 H700 0.950 . S
C696 C705 1.390 . S
C697 C696 1.387 . S
C697 C699 1.387 . S
H698 C705 0.950 . S
C699 C697 1.387 . S
C699 C701 1.390 . S
C699 H703 0.950 . S
H700 C696 0.950 . S
C701 C699 1.390 . S
C701 C702 1.387 . S
C701 H704 0.950 . S
C702 C701 1.387 . S
C702 C705 1.387 . S
H703 C699 0.950 . S
H704 C701 0.950 . S
C705 C696 1.390 . S
C705 H698 0.950 . S
C705 C702 1.387 . S
C706 C707 1.387 . S
C706 H710 0.950 . S
C706 C715 1.390 . S
C707 C706 1.387 . S
C707 C709 1.387 . S
H708 C715 0.950 . S
C709 C707 1.387 . S
C709 C711 1.390 . S
C709 H713 0.950 . S
H710 C706 0.950 . S
C711 C709 1.390 . S
C711 C712 1.387 . S
C711 H714 0.950 . S
C712 C711 1.387 . S
C712 C715 1.387 . S
H713 C709 0.950 . S
H714 C711 0.950 . S
C715 C706 1.390 . S
C715 H708 0.950 . S
C715 C712 1.387 . S
C716 C717 1.387 . S
C716 H720 0.950 . S
C716 C725 1.390 . S
C717 C716 1.387 . S
C717 C719 1.387 . S
H718 C725 0.950 . S
C719 C717 1.387 . S
C719 C721 1.390 . S
C719 H723 0.950 . S
H720 C716 0.950 . S
C721 C719 1.390 . S
C721 C722 1.387 . S
C721 H724 0.950 . S
C722 C721 1.387 . S
C722 C725 1.387 . S
H723 C719 0.950 . S
H724 C721 0.950 . S
C725 C716 1.390 . S
C725 H718 0.950 . S
C725 C722 1.387 . S
C726 C727 1.387 . S
C726 H730 0.950 . S
C726 C735 1.390 . S
C727 C726 1.387 . S
C727 C729 1.387 . S
H728 C735 0.950 . S
C729 C727 1.387 . S
C729 C731 1.390 . S
C729 H733 0.950 . S
H730 C726 0.950 . S
C731 C729 1.390 . S
C731 C732 1.387 . S
C731 H734 0.950 . S
C732 C731 1.387 . S
C732 C735 1.387 . S
H733 C729 0.950 . S
H734 C731 0.950 . S
C735 C726 1.390 . S
C735 H728 0.950 . S
C735 C732 1.387 . S
C736 C737 1.387 . S
C736 H740 0.950 . S
C736 C745 1.390 . S
C737 C736 1.387 . S
C737 C739 1.387 1_545 S
H738 C745 0.957 . S
C739 C737 1.387 1_565 S
C739 C741 1.390 . S
C739 H743 0.950 . S
H740 C736 0.950 . S
C741 C739 1.390 . S
C741 C742 1.387 1_565 S
C741 H744 0.950 . S
C742 C741 1.387 1_545 S
C742 C745 1.387 . S
H743 C739 0.950 . S
H744 C741 0.950 . S
C745 C736 1.390 . S
C745 H738 0.957 . S
C745 C742 1.387 . S
C746 C747 1.387 . S
C746 H750 0.950 . S
C746 C755 1.390 . S
C747 C746 1.387 . S
C747 C749 1.387 . S
H748 C755 0.950 . S
C749 C747 1.387 . S
C749 C751 1.390 . S
C749 H753 0.950 . S
H750 C746 0.950 . S
C751 C749 1.390 . S
C751 C752 1.387 . S
C751 H754 0.950 . S
C752 C751 1.387 . S
C752 C755 1.387 . S
H753 C749 0.950 . S
H754 C751 0.950 . S
C755 C746 1.390 . S
C755 H748 0.950 . S
C755 C752 1.387 . S
C756 C757 1.387 1_545 S
C756 H760 0.950 . S
C756 C765 1.390 . S
C757 C756 1.387 1_565 S
C757 C759 1.387 . S
H758 C765 0.950 . S
C759 C757 1.387 . S
C759 C761 1.390 . S
C759 H763 0.950 . S
H760 C756 0.950 . S
C761 C759 1.390 . S
C761 C762 1.399 . S
C761 H764 0.950 . S
C762 C761 1.399 . S
C762 C765 1.382 1_565 S
H763 C759 0.950 . S
H764 C761 0.950 . S
C765 C756 1.390 . S
C765 H758 0.950 . S
C765 C762 1.382 1_545 S
C766 C767 1.387 . S
C766 H770 0.950 . S
C766 C775 1.390 . S
C767 C766 1.387 . S
C767 C769 1.387 . S
H768 C775 0.950 . S
C769 C767 1.387 . S
C769 C771 1.390 . S
C769 H773 0.950 . S
H770 C766 0.950 . S
C771 C769 1.390 . S
C771 C772 1.387 . S
C771 H774 0.950 . S
C772 C771 1.387 . S
C772 C775 1.387 . S
H773 C769 0.950 . S
H774 C771 0.950 . S
C775 C766 1.390 . S
C775 H768 0.950 . S
C775 C772 1.387 . S
C776 C777 1.387 1_565 S
C776 H780 0.950 . S
C776 C785 1.390 . S
C777 C776 1.387 1_545 S
C777 C779 1.387 . S
H778 C785 0.950 . S
C779 C777 1.387 . S
C779 C781 1.390 . S
C779 H783 0.950 . S
H780 C776 0.950 . S
C781 C779 1.390 . S
C781 C782 1.387 . S
C781 H784 0.950 . S
C782 C781 1.387 . S
C782 C785 1.387 1_545 S
H783 C779 0.950 . S
H784 C781 0.950 . S
C785 C776 1.390 . S
C785 H778 0.950 . S
C785 C782 1.387 1_565 S
C786 C787 1.387 . S
C786 H790 0.950 . S
C786 C795 1.390 . S
C787 C786 1.387 . S
C787 C789 1.387 . S
H788 C795 0.950 . S
C789 C787 1.387 . S
C789 C791 1.390 . S
C789 H793 0.950 . S
H790 C786 0.950 . S
C791 C789 1.390 . S
C791 C792 1.387 . S
C791 H794 0.950 . S
C792 C791 1.387 . S
C792 C795 1.387 . S
H793 C789 0.950 . S
H794 C791 0.950 . S
C795 C786 1.390 . S
C795 H788 0.950 . S
C795 C792 1.387 . S
C796 C797 1.387 . S
C796 H800 0.950 . S
C796 C805 1.390 . S
C797 C796 1.387 . S
C797 C799 1.387 1_545 S
H798 C805 0.950 . S
C799 C797 1.387 1_565 S
C799 C801 1.390 . S
C799 H803 0.950 . S
H800 C796 0.950 . S
C801 C799 1.390 . S
C801 C802 1.387 1_565 S
C801 H804 0.950 . S
C802 C801 1.387 1_545 S
C802 C805 1.387 . S
H803 C799 0.950 . S
H804 C801 0.950 . S
C805 C796 1.390 . S
C805 H798 0.950 . S
C805 C802 1.387 . S
C806 C807 1.387 . S
C806 H810 0.950 . S
C806 C815 1.390 . S
C807 C806 1.387 . S
C807 C809 1.387 . S
H808 C815 0.950 . S
C809 C807 1.387 . S
C809 C811 1.390 . S
C809 H813 0.950 . S
H810 C806 0.950 . S
C811 C809 1.390 . S
C811 C812 1.387 . S
C811 H814 0.950 . S
C812 C811 1.387 . S
C812 C815 1.387 . S
H813 C809 0.950 . S
H814 C811 0.950 . S
C815 C806 1.390 . S
C815 H808 0.950 . S
C815 C812 1.387 . S
C816 C817 1.387 . S
C816 H820 0.950 1_554 S
C816 C825 1.390 . S
C817 C816 1.387 . S
C817 C819 1.387 . S
H818 C825 0.950 . S
C819 C817 1.387 . S
C819 C821 1.390 . S
C819 H823 0.950 . S
H820 C816 0.950 1_556 S
C821 C819 1.390 . S
C821 C822 1.387 . S
C821 H824 0.950 . S
C822 C821 1.387 . S
C822 C825 1.387 . S
H823 C819 0.950 . S
H824 C821 0.950 . S
C825 C816 1.390 . S
C825 H818 0.950 . S
C825 C822 1.387 . S
C826 C827 1.379 1_554 S
C826 H830 0.950 . S
C826 C835 1.390 . S
C827 C826 1.379 1_556 S
C827 C829 1.393 . S
H828 C835 0.950 . S
C829 C827 1.393 . S
C829 C831 1.390 . S
C829 H833 0.950 . S
H830 C826 0.950 . S
C831 C829 1.390 . S
C831 C832 1.387 1_556 S
C831 H834 0.950 . S
C832 C831 1.387 1_554 S
C832 C835 1.387 . S
H833 C829 0.950 . S
H834 C831 0.950 . S
C835 C826 1.390 . S
C835 H828 0.950 . S
C835 C832 1.387 . S
C836 C837 1.387 . S
C836 H840 0.950 . S
C836 C845 1.390 . S
C837 C836 1.387 . S
C837 C839 1.387 . S
H838 C845 0.950 . S
C839 C837 1.387 . S
C839 C841 1.390 . S
C839 H843 0.950 . S
H840 C836 0.950 . S
C841 C839 1.390 . S
C841 C842 1.387 . S
C841 H844 0.950 . S
C842 C841 1.387 . S
C842 C845 1.387 . S
H843 C839 0.950 . S
H844 C841 0.950 . S
C845 C836 1.390 . S
C845 H838 0.950 . S
C845 C842 1.387 . S
C846 C847 1.387 . S
C846 H850 0.950 . S
C846 C855 1.390 . S
C847 C846 1.387 . S
C847 C849 1.387 . S
H848 C855 0.950 . S
C849 C847 1.387 . S
C849 C851 1.390 . S
C849 H853 0.950 . S
H850 C846 0.950 . S
C851 C849 1.390 . S
C851 C852 1.387 . S
C851 H854 0.950 . S
C852 C851 1.387 . S
C852 C855 1.387 . S
H853 C849 0.950 . S
H854 C851 0.950 . S
C855 C846 1.390 . S
C855 H848 0.950 . S
C855 C852 1.387 . S
C856 C857 1.387 . S
C856 H860 0.950 . S
C856 C865 1.390 . S
C857 C856 1.387 . S
C857 C859 1.387 . S
H858 C865 0.950 . S
C859 C857 1.387 . S
C859 C861 1.390 . S
C859 H863 0.950 . S
H860 C856 0.950 . S
C861 C859 1.390 . S
C861 C862 1.387 . S
C861 H864 0.950 . S
C862 C861 1.387 . S
C862 C865 1.387 . S
H863 C859 0.950 . S
H864 C861 0.950 . S
C865 C856 1.390 . S
C865 H858 0.950 . S
C865 C862 1.387 . S
C866 C867 1.387 . S
C866 H870 0.950 . S
C866 C875 1.390 . S
C867 C866 1.387 . S
C867 C869 1.387 . S
H868 C875 0.950 . S
C869 C867 1.387 . S
C869 C871 1.390 . S
C869 H873 0.950 . S
H870 C866 0.950 . S
C871 C869 1.390 . S
C871 C872 1.387 . S
C871 H874 0.950 . S
C872 C871 1.387 . S
C872 C875 1.387 . S
H873 C869 0.950 . S
H874 C871 0.950 . S
C875 C866 1.390 . S
C875 H868 0.950 . S
C875 C872 1.387 . S
C876 C877 1.387 . S
C876 H880 0.950 . S
C876 C885 1.390 . S
C877 C876 1.387 . S
C877 C879 1.387 . S
H878 C885 0.950 . S
C879 C877 1.387 . S
C879 C881 1.390 . S
C879 H883 0.950 . S
H880 C876 0.950 . S
C881 C879 1.390 . S
C881 C882 1.387 . S
C881 H884 0.950 . S
C882 C881 1.387 . S
C882 C885 1.387 . S
H883 C879 0.950 . S
H884 C881 0.950 . S
C885 C876 1.390 . S
C885 H878 0.950 . S
C885 C882 1.387 . S
C886 C887 1.387 . S
C886 H890 0.950 . S
C886 C895 1.390 . S
C887 C886 1.387 . S
C887 C889 1.387 . S
H888 C895 0.950 . S
C889 C887 1.387 . S
C889 C891 1.390 . S
C889 H893 0.950 . S
H890 C886 0.950 . S
C891 C889 1.390 . S
C891 C892 1.387 . S
C891 H894 0.950 . S
C892 C891 1.387 . S
C892 C895 1.387 . S
H893 C889 0.950 . S
H894 C891 0.950 . S
C895 C886 1.390 . S
C895 H888 0.950 . S
C895 C892 1.387 . S
C896 C897 1.387 . S
C896 H900 0.950 . S
C896 C905 1.390 . S
C897 C896 1.387 . S
C897 C899 1.387 . S
H898 C905 0.950 1_655 S
C899 C897 1.387 . S
C899 C901 1.390 . S
C899 H903 0.950 . S
H900 C896 0.950 . S
C901 C899 1.390 . S
C901 C902 1.387 . S
C901 H904 0.950 . S
C902 C901 1.387 . S
C902 C905 1.387 . S
H903 C899 0.950 . S
H904 C901 0.950 . S
C905 C896 1.390 . S
C905 H898 0.950 1_455 S
C905 C902 1.387 . S
C906 C907 1.387 . S
C906 H910 0.950 . S
C906 C915 1.390 . S
C907 C906 1.387 . S
C907 C909 1.387 . S
H908 C915 0.950 . S
C909 C907 1.387 . S
C909 C911 1.390 . S
C909 H913 0.950 . S
H910 C906 0.950 . S
C911 C909 1.390 . S
C911 C912 1.387 . S
C911 H914 0.950 . S
C912 C911 1.387 . S
C912 C915 1.387 . S
H913 C909 0.950 . S
H914 C911 0.950 . S
C915 C906 1.390 . S
C915 H908 0.950 . S
C915 C912 1.387 . S
C916 C917 1.387 . S
C916 H920 0.950 . S
C916 C925 1.390 . S
C917 C916 1.387 . S
C917 C919 1.387 . S
H918 C925 0.950 . S
C919 C917 1.387 . S
C919 C921 1.390 . S
C919 H923 0.950 . S
H920 C916 0.950 . S
C921 C919 1.390 . S
C921 C922 1.387 . S
C921 H924 0.950 . S
C922 C921 1.387 . S
C922 C925 1.387 . S
H923 C919 0.950 . S
H924 C921 0.950 . S
C925 C916 1.390 . S
C925 H918 0.950 . S
C925 C922 1.387 . S
C926 C927 1.387 . S
C926 H930 0.950 . S
C926 C935 1.390 . S
C927 C926 1.387 . S
C927 C929 1.387 . S
H928 C935 0.950 . S
C929 C927 1.387 . S
C929 C931 1.390 . S
C929 H933 0.950 . S
H930 C926 0.950 . S
C931 C929 1.390 . S
C931 C932 1.387 . S
C931 H934 0.950 . S
C932 C931 1.387 . S
C932 C935 1.387 . S
H933 C929 0.950 . S
H934 C931 0.950 . S
C935 C926 1.390 . S
C935 H928 0.950 . S
C935 C932 1.387 . S
C936 C937 1.387 . S
C936 H940 0.950 . S
C936 C945 1.390 . S
C937 C936 1.387 . S
C937 C939 1.387 . S
H938 C945 0.950 1_655 S
C939 C937 1.387 . S
C939 C941 1.390 . S
C939 H943 0.950 . S
H940 C936 0.950 . S
C941 C939 1.390 . S
C941 C942 1.387 . S
C941 H944 0.950 . S
C942 C941 1.387 . S
C942 C945 1.387 . S
H943 C939 0.950 . S
H944 C941 0.950 . S
C945 C936 1.390 . S
C945 H938 0.950 1_455 S
C945 C942 1.387 . S
C946 C947 1.387 . S
C946 H950 0.950 . S
C946 C955 1.390 . S
C947 C946 1.387 . S
C947 C949 1.387 . S
H948 C955 0.950 . S
C949 C947 1.387 . S
C949 C951 1.390 . S
C949 H953 0.950 . S
H950 C946 0.950 . S
C951 C949 1.390 . S
C951 C952 1.387 . S
C951 H954 0.950 . S
C952 C951 1.387 . S
C952 C955 1.387 . S
H953 C949 0.950 . S
H954 C951 0.950 . S
C955 C946 1.390 . S
C955 H948 0.950 . S
C955 C952 1.387 . S
C956 C957 1.387 . S
C956 H960 0.950 1_556 S
C956 C965 1.390 1_556 S
C957 C956 1.387 . S
C957 C959 1.387 . S
H958 C965 0.950 . S
C959 C957 1.387 . S
C959 C961 1.390 . S
C959 H963 0.950 . S
H960 C956 0.950 1_554 S
C961 C959 1.390 . S
C961 C962 1.387 . S
C961 H964 0.950 . S
C962 C961 1.387 . S
C962 C965 1.387 1_556 S
H963 C959 0.950 . S
H964 C961 0.950 . S
C965 C956 1.390 1_554 S
C965 H958 0.950 . S
C965 C962 1.387 1_554 S
C966 C967 1.387 . S
C966 H970 0.950 . S
C966 C975 1.390 . S
C967 C966 1.387 . S
C967 C969 1.387 . S
H968 C975 0.950 . S
C969 C967 1.387 . S
C969 C971 1.390 . S
C969 H973 0.950 . S
H970 C966 0.950 . S
C971 C969 1.390 . S
C971 C972 1.387 . S
C971 H974 0.950 . S
C972 C971 1.387 . S
C972 C975 1.387 . S
H973 C969 0.950 . S
H974 C971 0.950 . S
C975 C966 1.390 . S
C975 H968 0.950 . S
C975 C972 1.387 . S
C976 C977 1.387 1_565 S
C976 H980 0.950 . S
C976 C985 1.390 . S
C977 C976 1.387 1_545 S
C977 C979 1.387 . S
H978 C985 0.950 . S
C979 C977 1.387 . S
C979 C981 1.390 . S
C979 H983 0.950 . S
H980 C976 0.950 . S
C981 C979 1.390 . S
C981 C982 1.387 . S
C981 H984 0.950 . S
C982 C981 1.387 . S
C982 C985 1.387 1_545 S
H983 C979 0.950 . S
H984 C981 0.950 . S
C985 C976 1.390 . S
C985 H978 0.950 . S
C985 C982 1.387 1_565 S
C986 C987 1.387 . S
C986 H990 0.950 . S
C986 C995 1.390 . S
C987 C986 1.387 . S
C987 C989 1.387 . S
H988 C995 0.950 . S
C989 C987 1.387 . S
C989 C991 1.390 . S
C989 H993 0.950 . S
H990 C986 0.950 . S
C991 C989 1.390 . S
C991 C992 1.387 . S
C991 H994 0.950 . S
C992 C991 1.387 . S
C992 C995 1.387 . S
H993 C989 0.950 . S
H994 C991 0.950 . S
C995 C986 1.390 . S
C995 H988 0.950 . S
C995 C992 1.387 . S
C996 C997 1.387 . S
C996 H1000 0.950 1_545 S
C996 C1005 1.383 1_545 S
C997 C996 1.387 . S
C997 C999 1.387 . S
H998 C1005 0.975 . S
C999 C997 1.387 . S
C999 C1001 1.390 . S
C999 H1003 0.950 . S
H1000 C996 0.950 1_565 S
C1001 C999 1.390 . S
C1001 C1002 1.387 . S
C1001 H1004 0.950 . S
C1002 C1001 1.387 . S
C1002 C1005 1.370 1_545 S
H1003 C999 0.950 . S
H1004 C1001 0.950 . S
C1005 C996 1.383 1_565 S
C1005 H998 0.975 . S
C1005 C1002 1.370 1_565 S
C1006 C1007 1.387 . S
C1006 H1010 0.950 . S
C1006 C1015 1.390 . S
C1007 C1006 1.387 . S
C1007 C1009 1.387 . S
H1008 C1015 0.950 . S
C1009 C1007 1.387 . S
C1009 C1011 1.390 . S
C1009 H1013 0.950 . S
H1010 C1006 0.950 . S
C1011 C1009 1.390 . S
C1011 C1012 1.387 . S
C1011 H1014 0.950 . S
C1012 C1011 1.387 . S
C1012 C1015 1.387 . S
H1013 C1009 0.950 . S
H1014 C1011 0.950 . S
C1015 C1006 1.390 . S
C1015 H1008 0.950 . S
C1015 C1012 1.387 . S
C1016 C1017 1.387 1_565 S
C1016 H1020 0.950 . S
C1016 C1025 1.390 . S
C1017 C1016 1.387 1_545 S
C1017 C1019 1.387 . S
H1018 C1025 0.950 . S
C1019 C1017 1.387 . S
C1019 C1021 1.390 . S
C1019 H1023 0.950 . S
H1020 C1016 0.950 . S
C1021 C1019 1.390 . S
C1021 C1022 1.387 . S
C1021 H1024 0.950 . S
C1022 C1021 1.387 . S
C1022 C1025 1.387 1_545 S
H1023 C1019 0.950 . S
H1024 C1021 0.950 . S
C1025 C1016 1.390 . S
C1025 H1018 0.950 . S
C1025 C1022 1.387 1_565 S
C1026 C1027 1.387 . S
C1026 H1030 0.950 . S
C1026 C1035 1.390 . S
C1027 C1026 1.387 . S
C1027 C1029 1.387 . S
H1028 C1035 0.950 . S
C1029 C1027 1.387 . S
C1029 C1031 1.390 . S
C1029 H1033 0.950 . S
H1030 C1026 0.950 . S
C1031 C1029 1.390 . S
C1031 C1032 1.387 . S
C1031 H1034 0.950 . S
C1032 C1031 1.387 . S
C1032 C1035 1.387 . S
H1033 C1029 0.950 . S
H1034 C1031 0.950 . S
C1035 C1026 1.390 . S
C1035 H1028 0.950 . S
C1035 C1032 1.387 . S
C1036 C1037 1.387 1_565 S
C1036 H1040 0.950 . S
C1036 C1045 1.390 . S
C1037 C1036 1.387 1_545 S
C1037 C1039 1.387 . S
H1038 C1045 0.950 . S
C1039 C1037 1.387 . S
C1039 C1041 1.390 . S
C1039 H1043 0.950 . S
H1040 C1036 0.950 . S
C1041 C1039 1.390 . S
C1041 C1042 1.402 . S
C1041 H1044 0.950 . S
C1042 C1041 1.402 . S
C1042 C1045 1.378 1_545 S
H1043 C1039 0.950 . S
H1044 C1041 0.950 . S
C1045 C1036 1.390 . S
C1045 H1038 0.950 . S
C1045 C1042 1.378 1_565 S
C1046 C1047 1.387 . S
C1046 H1050 0.950 . S
C1046 C1055 1.390 . S
C1047 C1046 1.387 . S
C1047 C1049 1.387 . S
H1048 C1055 0.950 . S
C1049 C1047 1.387 . S
C1049 C1051 1.390 . S
C1049 H1053 0.950 . S
H1050 C1046 0.950 . S
C1051 C1049 1.390 . S
C1051 C1052 1.387 . S
C1051 H1054 0.950 . S
C1052 C1051 1.387 . S
C1052 C1055 1.387 . S
H1053 C1049 0.950 . S
H1054 C1051 0.950 . S
C1055 C1046 1.390 . S
C1055 H1048 0.950 . S
C1055 C1052 1.387 . S
C1056 C1057 1.387 . S
C1056 H1060 0.950 1_554 S
C1056 C1065 1.390 1_554 S
C1057 C1056 1.387 . S
C1057 C1059 1.387 . S
H1058 C1065 0.950 . S
C1059 C1057 1.387 . S
C1059 C1061 1.390 . S
C1059 H1063 0.950 . S
H1060 C1056 0.950 1_556 S
C1061 C1059 1.390 . S
C1061 C1062 1.387 . S
C1061 H1064 0.950 . S
C1062 C1061 1.387 . S
C1062 C1065 1.387 1_554 S
H1063 C1059 0.950 . S
H1064 C1061 0.950 . S
C1065 C1056 1.390 1_556 S
C1065 H1058 0.950 . S
C1065 C1062 1.387 1_556 S
C1066 C1067 1.387 . S
C1066 H1070 0.950 . S
C1066 C1075 1.390 . S
C1067 C1066 1.387 . S
C1067 C1069 1.387 . S
H1068 C1075 0.950 . S
C1069 C1067 1.387 . S
C1069 C1071 1.390 . S
C1069 H1073 0.950 . S
H1070 C1066 0.950 . S
C1071 C1069 1.390 . S
C1071 C1072 1.387 . S
C1071 H1074 0.950 . S
C1072 C1071 1.387 . S
C1072 C1075 1.387 . S
H1073 C1069 0.950 . S
H1074 C1071 0.950 . S
C1075 C1066 1.390 . S
C1075 H1068 0.950 . S
C1075 C1072 1.387 . S
C1076 C1077 1.387 . S
C1076 H1080 0.950 . S
C1076 C1085 1.390 . S
C1077 C1076 1.387 . S
C1077 C1079 1.387 . S
H1078 C1085 0.950 . S
C1079 C1077 1.387 . S
C1079 C1081 1.390 . S
C1079 H1083 0.950 . S
H1080 C1076 0.950 . S
C1081 C1079 1.390 . S
C1081 C1082 1.387 . S
C1081 H1084 0.950 . S
C1082 C1081 1.387 . S
C1082 C1085 1.387 . S
H1083 C1079 0.950 . S
H1084 C1081 0.950 . S
C1085 C1076 1.390 . S
C1085 H1078 0.950 . S
C1085 C1082 1.387 . S
C1086 C1087 1.387 . S
C1086 H1090 0.950 . S
C1086 C1095 1.390 . S
C1087 C1086 1.387 . S
C1087 C1089 1.387 . S
H1088 C1095 0.950 . S
C1089 C1087 1.387 . S
C1089 C1091 1.390 . S
C1089 H1093 0.950 . S
H1090 C1086 0.950 . S
C1091 C1089 1.390 . S
C1091 C1092 1.387 . S
C1091 H1094 0.950 . S
C1092 C1091 1.387 . S
C1092 C1095 1.387 . S
H1093 C1089 0.950 . S
H1094 C1091 0.950 . S
C1095 C1086 1.390 . S
C1095 H1088 0.950 . S
C1095 C1092 1.387 . S
C1096 C1097 1.387 . S
C1096 H1100 0.950 . S
C1096 C1105 1.390 . S
C1097 C1096 1.387 . S
C1097 C1099 1.387 . S
H1098 C1105 0.950 . S
C1099 C1097 1.387 . S
C1099 C1101 1.390 . S
C1099 H1103 0.950 . S
H1100 C1096 0.950 . S
C1101 C1099 1.390 . S
C1101 C1102 1.387 . S
C1101 H1104 0.950 . S
C1102 C1101 1.387 . S
C1102 C1105 1.387 . S
H1103 C1099 0.950 . S
H1104 C1101 0.950 . S
C1105 C1096 1.390 . S
C1105 H1098 0.950 . S
C1105 C1102 1.387 . S
C1106 C1107 1.387 . S
C1106 H1110 0.950 . S
C1106 C1115 1.390 . S
C1107 C1106 1.387 . S
C1107 C1109 1.387 . S
H1108 C1115 0.950 . S
C1109 C1107 1.387 . S
C1109 C1111 1.390 . S
C1109 H1113 0.950 . S
H1110 C1106 0.950 . S
C1111 C1109 1.390 . S
C1111 C1112 1.387 . S
C1111 H1114 0.950 . S
C1112 C1111 1.387 . S
C1112 C1115 1.387 . S
H1113 C1109 0.950 . S
H1114 C1111 0.950 . S
C1115 C1106 1.390 . S
C1115 H1108 0.950 . S
C1115 C1112 1.387 . S
C1116 C1117 1.387 . S
C1116 H1120 0.950 . S
C1116 C1125 1.390 . S
C1117 C1116 1.387 . S
C1117 C1119 1.387 . S
H1118 C1125 0.950 . S
C1119 C1117 1.387 . S
C1119 C1121 1.390 . S
C1119 H1123 0.950 . S
H1120 C1116 0.950 . S
C1121 C1119 1.390 . S
C1121 C1122 1.387 . S
C1121 H1124 0.950 . S
C1122 C1121 1.387 . S
C1122 C1125 1.387 . S
H1123 C1119 0.950 . S
H1124 C1121 0.950 . S
C1125 C1116 1.390 . S
C1125 H1118 0.950 . S
C1125 C1122 1.387 . S
C1126 C1127 1.387 . S
C1126 H1130 0.950 . S
C1126 C1135 1.390 . S
C1127 C1126 1.387 . S
C1127 C1129 1.387 . S
H1128 C1135 0.950 . S
C1129 C1127 1.387 . S
C1129 C1131 1.390 . S
C1129 H1133 0.950 . S
H1130 C1126 0.950 . S
C1131 C1129 1.390 . S
C1131 C1132 1.387 . S
C1131 H1134 0.950 . S
C1132 C1131 1.387 . S
C1132 C1135 1.387 . S
H1133 C1129 0.950 . S
H1134 C1131 0.950 . S
C1135 C1126 1.390 . S
C1135 H1128 0.950 . S
C1135 C1132 1.387 . S
C1136 C1137 1.387 . S
C1136 H1140 0.950 . S
C1136 C1145 1.390 . S
C1137 C1136 1.387 . S
C1137 C1139 1.387 . S
H1138 C1145 0.950 . S
C1139 C1137 1.387 . S
C1139 C1141 1.390 . S
C1139 H1143 0.950 . S
H1140 C1136 0.950 . S
C1141 C1139 1.390 . S
C1141 C1142 1.387 . S
C1141 H1144 0.950 . S
C1142 C1141 1.387 . S
C1142 C1145 1.387 . S
H1143 C1139 0.950 . S
H1144 C1141 0.950 . S
C1145 C1136 1.390 . S
C1145 H1138 0.950 . S
C1145 C1142 1.387 . S
C1146 C1147 1.387 . S
C1146 H1150 0.950 . S
C1146 C1155 1.390 . S
C1147 C1146 1.387 . S
C1147 C1149 1.387 . S
H1148 C1155 0.950 . S
C1149 C1147 1.387 . S
C1149 C1151 1.390 . S
C1149 H1153 0.950 . S
H1150 C1146 0.950 . S
C1151 C1149 1.390 . S
C1151 C1152 1.387 . S
C1151 H1154 0.950 . S
C1152 C1151 1.387 . S
C1152 C1155 1.387 . S
H1153 C1149 0.950 . S
H1154 C1151 0.950 . S
C1155 C1146 1.390 . S
C1155 H1148 0.950 . S
C1155 C1152 1.387 . S
C1156 C1157 1.387 1_655 S
C1156 H1160 0.950 . S
C1156 C1165 1.390 . S
C1157 C1156 1.387 1_455 S
C1157 C1159 1.387 . S
H1158 C1165 0.950 . S
C1159 C1157 1.387 . S
C1159 C1161 1.390 . S
C1159 H1163 0.950 . S
H1160 C1156 0.950 . S
C1161 C1159 1.390 . S
C1161 C1162 1.387 . S
C1161 H1164 0.950 1_556 S
C1162 C1161 1.387 . S
C1162 C1165 1.387 1_455 S
H1163 C1159 0.950 . S
H1164 C1161 0.950 1_554 S
C1165 C1156 1.390 . S
C1165 H1158 0.950 . S
C1165 C1162 1.387 1_655 S
C1166 C1167 1.387 . S
C1166 H1170 0.950 . S
C1166 C1175 1.390 . S
C1167 C1166 1.387 . S
C1167 C1169 1.387 . S
H1168 C1175 0.950 . S
C1169 C1167 1.387 . S
C1169 C1171 1.390 . S
C1169 H1173 0.950 . S
H1170 C1166 0.950 . S
C1171 C1169 1.390 . S
C1171 C1172 1.387 . S
C1171 H1174 0.950 . S
C1172 C1171 1.387 . S
C1172 C1175 1.387 . S
H1173 C1169 0.950 . S
H1174 C1171 0.950 . S
C1175 C1166 1.390 . S
C1175 H1168 0.950 . S
C1175 C1172 1.387 . S
C1176 C1177 1.387 . S
C1176 H1180 0.950 . S
C1176 C1185 1.390 . S
C1177 C1176 1.387 . S
C1177 C1179 1.387 . S
H1178 C1185 0.950 . S
C1179 C1177 1.387 . S
C1179 C1181 1.390 . S
C1179 H1183 0.950 . S
H1180 C1176 0.950 . S
C1181 C1179 1.390 . S
C1181 C1182 1.387 . S
C1181 H1184 0.950 . S
C1182 C1181 1.387 . S
C1182 C1185 1.387 . S
H1183 C1179 0.950 . S
H1184 C1181 0.950 . S
C1185 C1176 1.390 . S
C1185 H1178 0.950 . S
C1185 C1182 1.387 . S
C1186 C1187 1.387 . S
C1186 H1190 0.950 . S
C1186 C1195 1.390 . S
C1187 C1186 1.387 . S
C1187 C1189 1.387 . S
H1188 C1195 0.950 . S
C1189 C1187 1.387 . S
C1189 C1191 1.390 . S
C1189 H1193 0.950 . S
H1190 C1186 0.950 . S
C1191 C1189 1.390 . S
C1191 C1192 1.387 . S
C1191 H1194 0.950 . S
C1192 C1191 1.387 . S
C1192 C1195 1.387 . S
H1193 C1189 0.950 . S
H1194 C1191 0.950 . S
C1195 C1186 1.390 . S
C1195 H1188 0.950 . S
C1195 C1192 1.387 . S
C1196 C1197 1.387 1_655 S
C1196 H1200 0.950 . S
C1196 C1205 1.390 . S
C1197 C1196 1.387 1_455 S
C1197 C1199 1.387 . S
H1198 C1205 0.950 . S
C1199 C1197 1.387 . S
C1199 C1201 1.390 . S
C1199 H1203 0.950 . S
H1200 C1196 0.950 . S
C1201 C1199 1.390 . S
C1201 C1202 1.387 . S
C1201 H1204 0.950 . S
C1202 C1201 1.387 . S
C1202 C1205 1.387 1_455 S
H1203 C1199 0.950 . S
H1204 C1201 0.950 . S
C1205 C1196 1.390 . S
C1205 H1198 0.950 . S
C1205 C1202 1.387 1_655 S
C1206 C1207 1.387 . S
C1206 H1210 0.950 . S
C1206 C1215 1.390 . S
C1207 C1206 1.387 . S
C1207 C1209 1.387 . S
H1208 C1215 0.950 . S
C1209 C1207 1.387 . S
C1209 C1211 1.390 . S
C1209 H1213 0.950 . S
H1210 C1206 0.950 . S
C1211 C1209 1.390 . S
C1211 C1212 1.387 . S
C1211 H1214 0.950 . S
C1212 C1211 1.387 . S
C1212 C1215 1.387 . S
H1213 C1209 0.950 . S
H1214 C1211 0.950 . S
C1215 C1206 1.390 . S
C1215 H1208 0.950 . S
C1215 C1212 1.387 . S
C1216 C1217 1.387 . S
C1216 H1220 0.950 . S
C1216 C1225 1.390 . S
C1217 C1216 1.387 . S
C1217 C1219 1.387 . S
H1218 C1225 0.950 . S
C1219 C1217 1.387 . S
C1219 C1221 1.390 . S
C1219 H1223 0.950 . S
H1220 C1216 0.950 . S
C1221 C1219 1.390 . S
C1221 C1222 1.387 . S
C1221 H1224 0.950 . S
C1222 C1221 1.387 . S
C1222 C1225 1.387 . S
H1223 C1219 0.950 . S
H1224 C1221 0.950 . S
C1225 C1216 1.390 . S
C1225 H1218 0.950 . S
C1225 C1222 1.387 . S
C1226 C1227 1.387 . S
C1226 H1230 0.950 . S
C1226 C1235 1.390 . S
C1227 C1226 1.387 . S
C1227 C1229 1.387 . S
H1228 C1235 0.950 . S
C1229 C1227 1.387 . S
C1229 C1231 1.390 . S
C1229 H1233 0.950 . S
H1230 C1226 0.950 . S
C1231 C1229 1.390 . S
C1231 C1232 1.387 . S
C1231 H1234 0.950 . S
C1232 C1231 1.387 . S
C1232 C1235 1.387 . S
H1233 C1229 0.950 . S
H1234 C1231 0.950 . S
C1235 C1226 1.390 . S
C1235 H1228 0.950 . S
C1235 C1232 1.387 . S
C1236 C1237 1.387 . S
C1236 H1240 0.950 . S
C1236 C1245 1.390 . S
C1237 C1236 1.387 . S
C1237 C1239 1.387 . S
H1238 C1245 0.950 . S
C1239 C1237 1.387 . S
C1239 C1241 1.390 . S
C1239 H1243 0.950 . S
H1240 C1236 0.950 . S
C1241 C1239 1.390 . S
C1241 C1242 1.387 . S
C1241 H1244 0.950 . S
C1242 C1241 1.387 . S
C1242 C1245 1.387 . S
H1243 C1239 0.950 . S
H1244 C1241 0.950 . S
C1245 C1236 1.390 . S
C1245 H1238 0.950 . S
C1245 C1242 1.387 . S
C1246 C1247 1.387 . S
C1246 H1250 0.950 . S
C1246 C1255 1.390 . S
C1247 C1246 1.387 . S
C1247 C1249 1.387 . S
H1248 C1255 0.950 . S
C1249 C1247 1.387 . S
C1249 C1251 1.390 . S
C1249 H1253 0.950 . S
H1250 C1246 0.950 . S
C1251 C1249 1.390 . S
C1251 C1252 1.387 . S
C1251 H1254 0.950 . S
C1252 C1251 1.387 . S
C1252 C1255 1.387 . S
H1253 C1249 0.950 . S
H1254 C1251 0.950 . S
C1255 C1246 1.390 . S
C1255 H1248 0.950 . S
C1255 C1252 1.387 . S
C1256 C1257 1.387 . S
C1256 H1260 0.950 . S
C1256 C1265 1.390 . S
C1257 C1256 1.387 . S
C1257 C1259 1.387 . S
H1258 C1265 0.950 . S
C1259 C1257 1.387 . S
C1259 C1261 1.390 . S
C1259 H1263 0.950 . S
H1260 C1256 0.950 . S
C1261 C1259 1.390 . S
C1261 C1262 1.387 . S
C1261 H1264 0.950 . S
C1262 C1261 1.387 . S
C1262 C1265 1.387 . S
H1263 C1259 0.950 . S
H1264 C1261 0.950 . S
C1265 C1256 1.390 . S
C1265 H1258 0.950 . S
C1265 C1262 1.387 . S
C1266 C1267 1.387 . S
C1266 H1270 0.950 . S
C1266 C1275 1.390 . S
C1267 C1266 1.387 . S
C1267 C1269 1.387 . S
H1268 C1275 0.950 . S
C1269 C1267 1.387 . S
C1269 C1271 1.390 . S
C1269 H1273 0.950 . S
H1270 C1266 0.950 . S
C1271 C1269 1.390 . S
C1271 C1272 1.387 . S
C1271 H1274 0.950 . S
C1272 C1271 1.387 . S
C1272 C1275 1.387 . S
H1273 C1269 0.950 . S
H1274 C1271 0.950 . S
C1275 C1266 1.390 . S
C1275 H1268 0.950 . S
C1275 C1272 1.387 . S
C1276 C1277 1.387 . S
C1276 H1280 0.950 . S
C1276 C1285 1.390 . S
C1277 C1276 1.387 . S
C1277 C1279 1.387 . S
H1278 C1285 0.950 . S
C1279 C1277 1.387 . S
C1279 C1281 1.390 . S
C1279 H1283 0.950 . S
H1280 C1276 0.950 . S
C1281 C1279 1.390 . S
C1281 C1282 1.387 . S
C1281 H1284 0.950 . S
C1282 C1281 1.387 . S
C1282 C1285 1.387 . S
H1283 C1279 0.950 . S
H1284 C1281 0.950 . S
C1285 C1276 1.390 . S
C1285 H1278 0.950 . S
C1285 C1282 1.387 . S
C1286 C1287 1.387 . S
C1286 H1290 0.950 . S
C1286 C1295 1.390 . S
C1287 C1286 1.387 . S
C1287 C1289 1.387 . S
H1288 C1295 0.950 . S
C1289 C1287 1.387 . S
C1289 C1291 1.390 . S
C1289 H1293 0.950 . S
H1290 C1286 0.950 . S
C1291 C1289 1.390 . S
C1291 C1292 1.387 . S
C1291 H1294 0.950 . S
C1292 C1291 1.387 . S
C1292 C1295 1.387 . S
H1293 C1289 0.950 . S
H1294 C1291 0.950 . S
C1295 C1286 1.390 . S
C1295 H1288 0.950 . S
C1295 C1292 1.387 . S
C1296 C1297 1.387 . S
C1296 H1300 0.950 . S
C1296 C1305 1.390 . S
C1297 C1296 1.387 . S
C1297 C1299 1.387 . S
H1298 C1305 0.950 . S
C1299 C1297 1.387 . S
C1299 C1301 1.390 . S
C1299 H1303 0.950 . S
H1300 C1296 0.950 . S
C1301 C1299 1.390 . S
C1301 C1302 1.387 . S
C1301 H1304 0.950 . S
C1302 C1301 1.387 . S
C1302 C1305 1.387 . S
H1303 C1299 0.950 . S
H1304 C1301 0.950 . S
C1305 C1296 1.390 . S
C1305 H1298 0.950 . S
C1305 C1302 1.387 . S
C1306 C1307 1.387 . S
C1306 H1310 0.950 . S
C1306 C1315 1.390 . S
C1307 C1306 1.387 . S
C1307 C1309 1.387 . S
H1308 C1315 0.950 . S
C1309 C1307 1.387 . S
C1309 C1311 1.390 . S
C1309 H1313 0.950 . S
H1310 C1306 0.950 . S
C1311 C1309 1.390 . S
C1311 C1312 1.387 . S
C1311 H1314 0.950 . S
C1312 C1311 1.387 . S
C1312 C1315 1.387 . S
H1313 C1309 0.950 . S
H1314 C1311 0.950 . S
C1315 C1306 1.390 . S
C1315 H1308 0.950 . S
C1315 C1312 1.387 . S
C1316 C1317 1.387 . S
C1316 H1320 0.950 . S
C1316 C1325 1.390 . S
C1317 C1316 1.387 . S
C1317 C1319 1.387 . S
H1318 C1325 0.950 . S
C1319 C1317 1.387 . S
C1319 C1321 1.390 . S
C1319 H1323 0.950 . S
H1320 C1316 0.950 . S
C1321 C1319 1.390 . S
C1321 C1322 1.387 . S
C1321 H1324 0.950 . S
C1322 C1321 1.387 . S
C1322 C1325 1.387 . S
H1323 C1319 0.950 . S
H1324 C1321 0.950 . S
C1325 C1316 1.390 . S
C1325 H1318 0.950 . S
C1325 C1322 1.387 . S
C1326 C1327 1.387 1_556 S
C1326 H1330 0.950 . S
C1326 C1335 1.390 . S
C1327 C1326 1.387 1_554 S
C1327 C1329 1.387 . S
H1328 C1335 0.950 . S
C1329 C1327 1.387 . S
C1329 C1331 1.390 . S
C1329 H1333 0.950 . S
H1330 C1326 0.950 . S
C1331 C1329 1.390 . S
C1331 C1332 1.387 . S
C1331 H1334 0.950 . S
C1332 C1331 1.387 . S
C1332 C1335 1.387 1_554 S
H1333 C1329 0.950 . S
H1334 C1331 0.950 . S
C1335 C1326 1.390 . S
C1335 H1328 0.950 . S
C1335 C1332 1.387 1_556 S
C1336 C1337 1.387 . S
C1336 H1340 0.950 . S
C1336 C1345 1.390 . S
C1337 C1336 1.387 . S
C1337 C1339 1.387 . S
H1338 C1345 0.950 . S
C1339 C1337 1.387 . S
C1339 C1341 1.390 . S
C1339 H1343 0.950 . S
H1340 C1336 0.950 . S
C1341 C1339 1.390 . S
C1341 C1342 1.387 . S
C1341 H1344 0.950 . S
C1342 C1341 1.387 . S
C1342 C1345 1.387 . S
H1343 C1339 0.950 . S
H1344 C1341 0.950 . S
C1345 C1336 1.390 . S
C1345 H1338 0.950 . S
C1345 C1342 1.387 . S
C1346 C1347 1.387 . S
C1346 H1350 0.950 . S
C1346 C1355 1.390 . S
C1347 C1346 1.387 . S
C1347 C1349 1.387 1_554 S
H1348 C1355 0.950 . S
C1349 C1347 1.387 1_556 S
C1349 C1351 1.390 1_556 S
C1349 H1353 0.950 . S
H1350 C1346 0.950 . S
C1351 C1349 1.390 1_554 S
C1351 C1352 1.387 . S
C1351 H1354 0.950 1_554 S
C1352 C1351 1.387 . S
C1352 C1355 1.387 . S
H1353 C1349 0.950 . S
H1354 C1351 0.950 1_556 S
C1355 C1346 1.390 . S
C1355 H1348 0.950 . S
C1355 C1352 1.387 . S
C1356 C1357 1.387 . S
C1356 H1360 0.950 . S
C1356 C1365 1.390 . S
C1357 C1356 1.387 . S
C1357 C1359 1.387 . S
H1358 C1365 0.950 . S
C1359 C1357 1.387 . S
C1359 C1361 1.390 . S
C1359 H1363 0.950 . S
H1360 C1356 0.950 . S
C1361 C1359 1.390 . S
C1361 C1362 1.387 . S
C1361 H1364 0.950 . S
C1362 C1361 1.387 . S
C1362 C1365 1.387 . S
H1363 C1359 0.950 . S
H1364 C1361 0.950 . S
C1365 C1356 1.390 . S
C1365 H1358 0.950 . S
C1365 C1362 1.387 . S
C1366 C1367 1.387 . S
C1366 H1370 0.950 . S
C1366 C1375 1.390 . S
C1367 C1366 1.387 . S
C1367 C1369 1.387 . S
H1368 C1375 0.950 . S
C1369 C1367 1.387 . S
C1369 C1371 1.390 . S
C1369 H1373 0.950 . S
H1370 C1366 0.950 . S
C1371 C1369 1.390 . S
C1371 C1372 1.387 . S
C1371 H1374 0.950 . S
C1372 C1371 1.387 . S
C1372 C1375 1.387 . S
H1373 C1369 0.950 . S
H1374 C1371 0.950 . S
C1375 C1366 1.390 . S
C1375 H1368 0.950 . S
C1375 C1372 1.387 . S
C1376 C1377 1.387 . S
C1376 H1380 0.950 . S
C1376 C1385 1.390 . S
C1377 C1376 1.387 . S
C1377 C1379 1.387 . S
H1378 C1385 0.950 . S
C1379 C1377 1.387 . S
C1379 C1381 1.390 . S
C1379 H1383 0.950 . S
H1380 C1376 0.950 . S
C1381 C1379 1.390 . S
C1381 C1382 1.387 . S
C1381 H1384 0.950 . S
C1382 C1381 1.387 . S
C1382 C1385 1.387 . S
H1383 C1379 0.950 . S
H1384 C1381 0.950 . S
C1385 C1376 1.390 . S
C1385 H1378 0.950 . S
C1385 C1382 1.387 . S
C1386 C1387 1.387 . S
C1386 H1390 0.950 . S
C1386 C1395 1.390 . S
C1387 C1386 1.387 . S
C1387 C1389 1.387 . S
H1388 C1395 0.950 . S
C1389 C1387 1.387 . S
C1389 C1391 1.390 . S
C1389 H1393 0.950 . S
H1390 C1386 0.950 . S
C1391 C1389 1.390 . S
C1391 C1392 1.387 . S
C1391 H1394 0.950 . S
C1392 C1391 1.387 . S
C1392 C1395 1.387 . S
H1393 C1389 0.950 . S
H1394 C1391 0.950 . S
C1395 C1386 1.390 . S
C1395 H1388 0.950 . S
C1395 C1392 1.387 . S
C1396 C1397 1.387 . S
C1396 H1400 0.950 . S
C1396 C1405 1.390 . S
C1397 C1396 1.387 . S
C1397 C1399 1.387 . S
H1398 C1405 0.950 . S
C1399 C1397 1.387 . S
C1399 C1401 1.390 . S
C1399 H1403 0.950 1_455 S
H1400 C1396 0.950 . S
C1401 C1399 1.390 . S
C1401 C1402 1.387 . S
C1401 H1404 0.950 1_455 S
C1402 C1401 1.387 . S
C1402 C1405 1.387 . S
H1403 C1399 0.950 1_655 S
H1404 C1401 0.950 1_655 S
C1405 C1396 1.390 . S
C1405 H1398 0.950 . S
C1405 C1402 1.387 . S
C1406 C1407 1.387 . S
C1406 H1410 0.950 . S
C1406 C1415 1.390 . S
C1407 C1406 1.387 . S
C1407 C1409 1.387 . S
H1408 C1415 0.950 . S
C1409 C1407 1.387 . S
C1409 C1411 1.390 . S
C1409 H1413 0.950 . S
H1410 C1406 0.950 . S
C1411 C1409 1.390 . S
C1411 C1412 1.387 . S
C1411 H1414 0.950 . S
C1412 C1411 1.387 . S
C1412 C1415 1.387 . S
H1413 C1409 0.950 . S
H1414 C1411 0.950 . S
C1415 C1406 1.390 . S
C1415 H1408 0.950 . S
C1415 C1412 1.387 . S
C1416 C1417 1.387 . S
C1416 H1420 0.950 . S
C1416 C1425 1.390 . S
C1417 C1416 1.387 . S
C1417 C1419 1.387 . S
H1418 C1425 0.950 . S
C1419 C1417 1.387 . S
C1419 C1421 1.390 . S
C1419 H1423 0.950 . S
H1420 C1416 0.950 . S
C1421 C1419 1.390 . S
C1421 C1422 1.387 . S
C1421 H1424 0.950 . S
C1422 C1421 1.387 . S
C1422 C1425 1.387 . S
H1423 C1419 0.950 . S
H1424 C1421 0.950 . S
C1425 C1416 1.390 . S
C1425 H1418 0.950 . S
C1425 C1422 1.387 . S
C1426 C1427 1.387 . S
C1426 H1430 0.950 . S
C1426 C1435 1.390 . S
C1427 C1426 1.387 . S
C1427 C1429 1.387 . S
H1428 C1435 0.950 . S
C1429 C1427 1.387 . S
C1429 C1431 1.390 . S
C1429 H1433 0.950 . S
H1430 C1426 0.950 . S
C1431 C1429 1.390 . S
C1431 C1432 1.387 . S
C1431 H1434 0.950 . S
C1432 C1431 1.387 . S
C1432 C1435 1.387 . S
H1433 C1429 0.950 . S
H1434 C1431 0.950 . S
C1435 C1426 1.390 . S
C1435 H1428 0.950 . S
C1435 C1432 1.387 . S
C1436 C1437 1.387 . S
C1436 H1440 0.950 1_455 S
C1436 C1445 1.390 . S
C1437 C1436 1.387 . S
C1437 C1439 1.387 . S
H1438 C1445 0.950 1_655 S
C1439 C1437 1.387 . S
C1439 C1441 1.390 . S
C1439 H1443 0.950 . S
H1440 C1436 0.950 1_655 S
C1441 C1439 1.390 . S
C1441 C1442 1.387 . S
C1441 H1444 0.950 . S
C1442 C1441 1.387 . S
C1442 C1445 1.387 . S
H1443 C1439 0.950 . S
H1444 C1441 0.950 . S
C1445 C1436 1.390 . S
C1445 H1438 0.950 1_455 S
C1445 C1442 1.387 . S
C1446 C1447 1.387 . S
C1446 H1450 0.950 . S
C1446 C1455 1.390 . S
C1447 C1446 1.387 . S
C1447 C1449 1.387 . S
H1448 C1455 0.950 . S
C1449 C1447 1.387 . S
C1449 C1451 1.390 . S
C1449 H1453 0.950 . S
H1450 C1446 0.950 . S
C1451 C1449 1.390 . S
C1451 C1452 1.387 . S
C1451 H1454 0.950 . S
C1452 C1451 1.387 . S
C1452 C1455 1.387 . S
H1453 C1449 0.950 . S
H1454 C1451 0.950 . S
C1455 C1446 1.390 . S
C1455 H1448 0.950 . S
C1455 C1452 1.387 . S
C1456 C1457 1.387 . S
C1456 H1460 0.950 . S
C1456 C1465 1.390 . S
C1457 C1456 1.387 . S
C1457 C1459 1.387 . S
H1458 C1465 0.950 . S
C1459 C1457 1.387 . S
C1459 C1461 1.390 . S
C1459 H1463 0.950 . S
H1460 C1456 0.950 . S
C1461 C1459 1.390 . S
C1461 C1462 1.387 . S
C1461 H1464 0.950 . S
C1462 C1461 1.387 . S
C1462 C1465 1.387 . S
H1463 C1459 0.950 . S
H1464 C1461 0.950 . S
C1465 C1456 1.390 . S
C1465 H1458 0.950 . S
C1465 C1462 1.387 . S
C1466 C1467 1.387 . S
C1466 H1470 0.950 . S
C1466 C1475 1.390 . S
C1467 C1466 1.387 . S
C1467 C1469 1.387 . S
H1468 C1475 0.950 . S
C1469 C1467 1.387 . S
C1469 C1471 1.390 . S
C1469 H1473 0.950 . S
H1470 C1466 0.950 . S
C1471 C1469 1.390 . S
C1471 C1472 1.387 . S
C1471 H1474 0.950 . S
C1472 C1471 1.387 . S
C1472 C1475 1.387 . S
H1473 C1469 0.950 . S
H1474 C1471 0.950 . S
C1475 C1466 1.390 . S
C1475 H1468 0.950 . S
C1475 C1472 1.387 . S
C1476 C1477 1.387 . S
C1476 H1480 0.950 . S
C1476 C1485 1.390 . S
C1477 C1476 1.387 . S
C1477 C1479 1.387 . S
H1478 C1485 0.950 1_455 S
C1479 C1477 1.387 . S
C1479 C1481 1.390 . S
C1479 H1483 0.950 . S
H1480 C1476 0.950 . S
C1481 C1479 1.390 . S
C1481 C1482 1.387 . S
C1481 H1484 0.950 . S
C1482 C1481 1.387 . S
C1482 C1485 1.387 . S
H1483 C1479 0.950 . S
H1484 C1481 0.950 . S
C1485 C1476 1.390 . S
C1485 H1478 0.950 1_655 S
C1485 C1482 1.387 . S
C1486 C1487 1.387 . S
C1486 H1490 0.950 . S
C1486 C1495 1.390 . S
C1487 C1486 1.387 . S
C1487 C1489 1.387 . S
H1488 C1495 0.950 . S
C1489 C1487 1.387 . S
C1489 C1491 1.390 . S
C1489 H1493 0.950 . S
H1490 C1486 0.950 . S
C1491 C1489 1.390 . S
C1491 C1492 1.387 . S
C1491 H1494 0.950 . S
C1492 C1491 1.387 . S
C1492 C1495 1.387 . S
H1493 C1489 0.950 . S
H1494 C1491 0.950 . S
C1495 C1486 1.390 . S
C1495 H1488 0.950 . S
C1495 C1492 1.387 . S
C1496 C1497 1.387 . S
C1496 H1500 0.950 . S
C1496 C1505 1.390 . S
C1497 C1496 1.387 . S
C1497 C1499 1.387 . S
H1498 C1505 0.950 . S
C1499 C1497 1.387 . S
C1499 C1501 1.390 . S
C1499 H1503 0.950 . S
H1500 C1496 0.950 . S
C1501 C1499 1.390 . S
C1501 C1502 1.387 . S
C1501 H1504 0.950 . S
C1502 C1501 1.387 . S
C1502 C1505 1.387 . S
H1503 C1499 0.950 . S
H1504 C1501 0.950 . S
C1505 C1496 1.390 . S
C1505 H1498 0.950 . S
C1505 C1502 1.387 . S
C1506 C1507 1.387 . S
C1506 H1510 0.950 . S
C1506 C1515 1.390 . S
C1507 C1506 1.387 . S
C1507 C1509 1.387 . S
H1508 C1515 0.950 . S
C1509 C1507 1.387 . S
C1509 C1511 1.390 . S
C1509 H1513 0.950 . S
H1510 C1506 0.950 . S
C1511 C1509 1.390 . S
C1511 C1512 1.387 . S
C1511 H1514 0.950 . S
C1512 C1511 1.387 . S
C1512 C1515 1.387 . S
H1513 C1509 0.950 . S
H1514 C1511 0.950 . S
C1515 C1506 1.390 . S
C1515 H1508 0.950 . S
C1515 C1512 1.387 . S
C1516 C1517 1.387 . S
C1516 H1520 0.950 . S
C1516 C1525 1.390 . S
C1517 C1516 1.387 . S
C1517 C1519 1.387 . S
H1518 C1525 0.950 . S
C1519 C1517 1.387 . S
C1519 C1521 1.390 . S
C1519 H1523 0.950 . S
H1520 C1516 0.950 . S
C1521 C1519 1.390 . S
C1521 C1522 1.387 . S
C1521 H1524 0.950 . S
C1522 C1521 1.387 . S
C1522 C1525 1.387 . S
H1523 C1519 0.950 . S
H1524 C1521 0.950 . S
C1525 C1516 1.390 . S
C1525 H1518 0.950 . S
C1525 C1522 1.387 . S
C1526 C1527 1.387 . S
C1526 H1530 0.950 . S
C1526 C1535 1.390 . S
C1527 C1526 1.387 . S
C1527 C1529 1.387 . S
H1528 C1535 0.950 . S
C1529 C1527 1.387 . S
C1529 C1531 1.390 . S
C1529 H1533 0.950 . S
H1530 C1526 0.950 . S
C1531 C1529 1.390 . S
C1531 C1532 1.387 . S
C1531 H1534 0.950 . S
C1532 C1531 1.387 . S
C1532 C1535 1.387 . S
H1533 C1529 0.950 . S
H1534 C1531 0.950 . S
C1535 C1526 1.390 . S
C1535 H1528 0.950 . S
C1535 C1532 1.387 . S
C1536 C1537 1.387 . S
C1536 H1540 0.950 . S
C1536 C1545 1.390 . S
C1537 C1536 1.387 . S
C1537 C1539 1.387 . S
H1538 C1545 0.950 . S
C1539 C1537 1.387 . S
C1539 C1541 1.390 . S
C1539 H1543 0.950 . S
H1540 C1536 0.950 . S
C1541 C1539 1.390 . S
C1541 C1542 1.387 . S
C1541 H1544 0.950 . S
C1542 C1541 1.387 . S
C1542 C1545 1.387 . S
H1543 C1539 0.950 . S
H1544 C1541 0.950 . S
C1545 C1536 1.390 . S
C1545 H1538 0.950 . S
C1545 C1542 1.387 . S
C1546 C1547 1.387 . S
C1546 H1550 0.950 . S
C1546 C1555 1.390 . S
C1547 C1546 1.387 . S
C1547 C1549 1.387 . S
H1548 C1555 0.950 . S
C1549 C1547 1.387 . S
C1549 C1551 1.390 . S
C1549 H1553 0.950 . S
H1550 C1546 0.950 . S
C1551 C1549 1.390 . S
C1551 C1552 1.387 . S
C1551 H1554 0.950 1_565 S
C1552 C1551 1.387 . S
C1552 C1555 1.387 . S
H1553 C1549 0.950 . S
H1554 C1551 0.950 1_545 S
C1555 C1546 1.390 . S
C1555 H1548 0.950 . S
C1555 C1552 1.387 . S
C1556 C1557 1.387 . S
C1556 H1560 0.950 . S
C1556 C1565 1.390 . S
C1557 C1556 1.387 . S
C1557 C1559 1.387 . S
H1558 C1565 0.950 . S
C1559 C1557 1.387 . S
C1559 C1561 1.390 . S
C1559 H1563 0.950 . S
H1560 C1556 0.950 . S
C1561 C1559 1.390 . S
C1561 C1562 1.387 . S
C1561 H1564 0.950 . S
C1562 C1561 1.387 . S
C1562 C1565 1.387 . S
H1563 C1559 0.950 . S
H1564 C1561 0.950 . S
C1565 C1556 1.390 . S
C1565 H1558 0.950 . S
C1565 C1562 1.387 . S
C1566 C1567 1.387 . S
C1566 H1570 0.950 1_554 S
C1566 C1575 1.390 . S
C1567 C1566 1.387 . S
C1567 C1569 1.387 . S
H1568 C1575 0.950 1_556 S
C1569 C1567 1.387 . S
C1569 C1571 1.390 . S
C1569 H1573 0.950 . S
H1570 C1566 0.950 1_556 S
C1571 C1569 1.390 . S
C1571 C1572 1.387 . S
C1571 H1574 0.950 . S
C1572 C1571 1.387 . S
C1572 C1575 1.387 . S
H1573 C1569 0.950 . S
H1574 C1571 0.950 . S
C1575 C1566 1.390 . S
C1575 H1568 0.950 1_554 S
C1575 C1572 1.387 . S
C1576 C1577 1.387 . S
C1576 H1580 0.950 . S
C1576 C1585 1.390 . S
C1577 C1576 1.387 . S
C1577 C1579 1.387 . S
H1578 C1585 0.950 . S
C1579 C1577 1.387 . S
C1579 C1581 1.390 . S
C1579 H1583 0.950 . S
H1580 C1576 0.950 . S
C1581 C1579 1.390 . S
C1581 C1582 1.387 . S
C1581 H1584 0.950 . S
C1582 C1581 1.387 . S
C1582 C1585 1.387 . S
H1583 C1579 0.950 . S
H1584 C1581 0.950 . S
C1585 C1576 1.390 . S
C1585 H1578 0.950 . S
C1585 C1582 1.387 . S
C1586 C1587 1.387 . S
C1586 H1590 0.950 . S
C1586 C1595 1.390 . S
C1587 C1586 1.387 . S
C1587 C1589 1.387 . S
H1588 C1595 0.950 . S
C1589 C1587 1.387 . S
C1589 C1591 1.390 . S
C1589 H1593 0.950 1_554 S
H1590 C1586 0.950 . S
C1591 C1589 1.390 . S
C1591 C1592 1.387 . S
C1591 H1594 0.950 1_554 S
C1592 C1591 1.387 . S
C1592 C1595 1.387 . S
H1593 C1589 0.950 1_556 S
H1594 C1591 0.950 1_556 S
C1595 C1586 1.390 . S
C1595 H1588 0.950 . S
C1595 C1592 1.387 . S
C1596 C1597 1.387 . S
C1596 H1600 0.950 . S
C1596 C1605 1.390 . S
C1597 C1596 1.387 . S
C1597 C1599 1.387 . S
H1598 C1605 0.950 . S
C1599 C1597 1.387 . S
C1599 C1601 1.390 . S
C1599 H1603 0.950 . S
H1600 C1596 0.950 . S
C1601 C1599 1.390 . S
C1601 C1602 1.387 . S
C1601 H1604 0.950 . S
C1602 C1601 1.387 . S
C1602 C1605 1.387 . S
H1603 C1599 0.950 . S
H1604 C1601 0.950 . S
C1605 C1596 1.390 . S
C1605 H1598 0.950 . S
C1605 C1602 1.387 . S
C1606 C1607 1.387 . S
C1606 H1610 0.950 . S
C1606 C1615 1.390 . S
C1607 C1606 1.387 . S
C1607 C1609 1.387 . S
H1608 C1615 0.950 . S
C1609 C1607 1.387 . S
C1609 C1611 1.390 . S
C1609 H1613 0.950 . S
H1610 C1606 0.950 . S
C1611 C1609 1.390 . S
C1611 C1612 1.387 . S
C1611 H1614 0.950 . S
C1612 C1611 1.387 . S
C1612 C1615 1.387 . S
H1613 C1609 0.950 . S
H1614 C1611 0.950 . S
C1615 C1606 1.390 . S
C1615 H1608 0.950 . S
C1615 C1612 1.387 . S
C657 C109 1.545 1_455 S
C662 C340 1.282 1_556 S
C667 C65 1.558 . S
C672 C375 1.517 . S
C677 C75 1.246 . S
C682 C380 1.117 . S
C692 C405 1.392 . S
C687 C84 1.468 . S
C697 C25 1.455 . S
C702 C425 1.367 . S
C712 C440 1.097 . S
C707 C28 1.205 . S
C722 C475 1.549 . S
C717 C47 1.582 . S
C727 C9 1.592 . S
C732 C480 1.315 . S
C742 C355 1.687 1_655 S
C737 C233 1.800 . S
C747 C249 1.132 . S
C752 C365 1.053 . S
C762 C395 1.471 1_565 S
C757 C275 1.521 . S
C772 C400 1.193 . S
C767 C173 1.319 . S
C777 C224 1.331 . S
C782 C420 1.224 . S
C792 C455 1.449 . S
C787 C243 1.484 . S
C802 C465 1.074 . S
C797 C266 1.128 . S
C812 C495 1.588 . S
C807 C179 1.671 . S
C822 C345 1.400 . S
C817 C163 1.624 . S
C827 C289 1.780 . S
C832 C515 1.748 . S
C842 C525 1.450 . S
C837 C333 1.567 . S
C852 C540 1.056 . S
C847 C308 1.139 . S
C857 C123 1.577 . S
C862 C485 1.376 . S
C867 C126 1.614 . S
C872 C385 1.512 . S
C877 C327 1.806 . S
C882 C575 1.792 . S
C892 C580 1.118 . S
C887 C299 1.242 . S
C902 C338 1.287 . S
C897 C67 1.541 . S
C912 C594 1.536 . S
C907 C98 1.549 . S
C917 C89 1.253 . S
C922 C378 1.123 . S
C927 C79 1.513 . S
C932 C568 1.421 . S
C942 C428 1.387 . S
C937 C11 1.478 . S
C947 C51 1.235 . S
C952 C518 1.115 . S
C962 C474 1.584 1_556 S
C957 C33 1.612 . S
C972 C598 1.295 . S
C967 C14 1.549 . S
C982 C354 1.662 . S
C977 C140 1.762 . S
C992 C588 1.067 . S
C987 C319 1.153 . S
C997 C112 1.506 . S
C1002 C394 1.490 . S
C1007 C285 1.329 . S
C1012 C558 1.201 . S
C1017 C149 1.365 . S
C1022 C418 1.247 . S
C1032 C534 1.479 . S
C1027 C313 1.512 . S
C1037 C121 1.192 . S
C1042 C468 1.115 . S
C1047 C291 1.682 . S
C1052 C614 1.604 . S
C1057 C182 1.595 . S
C1062 C348 1.385 . S
C1067 C168 1.759 . S
C1072 C514 1.764 . S
C1077 C263 1.608 . S
C1082 C448 1.480 . S
C1087 C247 1.184 . S
C1092 C538 1.085 . S
C1102 C608 1.372 . S
C1097 C277 1.579 . S
C1107 C219 1.679 . S
C1112 C388 1.531 . S
C1122 C414 1.824 . S
C1117 C257 1.839 . S
C1132 C358 1.119 . S
C1127 C201 1.233 . S
C1137 C81 1.544 . S
C1142 C620 1.290 . S
C1152 C595 1.517 . S
C1147 C93 1.558 . S
C1157 C103 1.247 . S
C1162 C640 1.119 . S
C1167 C56 1.467 . S
C1172 C565 1.388 . S
C1177 C53 1.454 . S
C1182 C505 1.367 . S
C1192 C520 1.096 . S
C1187 C0 1.205 . S
C1202 C555 1.550 . S
C1197 C19 1.582 . S
C1212 C600 1.315 . S
C1207 C37 1.592 . S
C1222 C635 1.687 . S
C1217 C261 1.799 . S
C1227 C193 1.133 . S
C1232 C585 1.054 . S
C1242 C655 1.481 . S
C1237 C205 1.522 . S
C1252 C560 1.190 . S
C1247 C215 1.319 . S
C1262 C500 1.221 . S
C1257 C252 1.329 . S
C1267 C187 1.484 . S
C1272 C535 1.451 . S
C1282 C545 1.074 . S
C1277 C196 1.128 . S
C1287 C221 1.671 . S
C1292 C615 1.590 . S
C1302 C625 1.404 . S
C1297 C317 1.625 . S
C1307 C135 1.778 . S
C1312 C435 1.750 . S
C1322 C445 1.450 . S
C1317 C151 1.566 . S
C1332 C460 1.060 . S
C1327 C154 1.142 . S
C1342 C605 1.376 . S
C1337 C305 1.577 . S
C1347 C280 1.614 . S
C1352 C645 1.511 . S
C1362 C415 1.792 . S
C1357 C145 1.805 . S
C1372 C360 1.119 . S
C1367 C117 1.242 . S
C1377 C95 1.544 . S
C1382 C618 1.293 . S
C1392 C374 1.536 . S
C1387 C70 1.549 . S
C1397 C61 1.254 . S
C1402 C638 1.125 . S
C1407 C107 1.512 . S
C1412 C408 1.423 . S
C1417 C39 1.478 . S
C1422 C508 1.387 . S
C1432 C438 1.110 . S
C1427 C23 1.234 . S
C1437 C5 1.613 . S
C1442 C554 1.584 . S
C1447 C42 1.549 . S
C1452 C478 1.296 . S
C1462 C634 1.663 . S
C1457 C322 1.762 . S
C1467 C165 1.155 . S
C1472 C368 1.070 . S
C1482 C654 1.490 1_655 S
C1477 C294 1.505 . S
C1487 C131 1.329 . S
C1492 C398 1.202 . S
C1497 C331 1.365 . S
C1502 C498 1.247 . S
C1512 C454 1.480 . S
C1507 C159 1.512 . S
C1517 C303 1.191 . S
C1522 C548 1.116 . S
C1532 C494 1.603 . S
C1527 C137 1.684 . S
C1542 C628 1.387 . S
C1537 C238 1.595 . S
C1552 C434 1.763 . S
C1547 C210 1.759 . S
C1557 C235 1.608 . S
C1562 C528 1.480 . S
C1572 C458 1.085 . S
C1567 C191 1.184 . S
C1577 C207 1.578 . S
C1582 C488 1.377 . S
C1587 C177 1.680 . S
C1592 C648 1.535 . S
C1602 C574 1.825 . S
C1597 C229 1.840 . S
C1612 C578 1.119 . S
C1607 C271 1.229 . S
