# Generated by pormake.
# Topology nia, (6,6)-cn, num edge types: 1
# Building blocks:
#     Node 0, Type 0, BuildingBlock: BETFEN_clean_sbu_0, # of connection points: 6
#     Node 1, Type 0, BuildingBlock: BETFEN_clean_sbu_0, # of connection points: 6
#     Node 2, Type 1, BuildingBlock: MIDCAF_clean_sbu_0, # of connection points: 6
#     Node 3, Type 1, BuildingBlock: MIDCAF_clean_sbu_0, # of connection points: 6
#     Edge 4, Type (0, 1), BuildingBlock: FUNLAD_clean_linker_1, # of connection points: 2
#     Edge 5, Type (0, 1), BuildingBlock: FUNLAD_clean_linker_1, # of connection points: 2
#     Edge 6, Type (0, 1), BuildingBlock: FUNLAD_clean_linker_1, # of connection points: 2
#     Edge 7, Type (0, 1), BuildingBlock: FUNLAD_clean_linker_1, # of connection points: 2
#     Edge 8, Type (0, 1), BuildingBlock: FUNLAD_clean_linker_1, # of connection points: 2
#     Edge 9, Type (0, 1), BuildingBlock: FUNLAD_clean_linker_1, # of connection points: 2
#     Edge 10, Type (0, 1), BuildingBlock: FUNLAD_clean_linker_1, # of connection points: 2
#     Edge 11, Type (0, 1), BuildingBlock: FUNLAD_clean_linker_1, # of connection points: 2
#     Edge 12, Type (0, 1), BuildingBlock: FUNLAD_clean_linker_1, # of connection points: 2
#     Edge 13, Type (0, 1), BuildingBlock: FUNLAD_clean_linker_1, # of connection points: 2
#     Edge 14, Type (0, 1), BuildingBlock: FUNLAD_clean_linker_1, # of connection points: 2
#     Edge 15, Type (0, 1), BuildingBlock: FUNLAD_clean_linker_1, # of connection points: 2
# Relax obj value: 0.218
# Max RMSD: 0.277
# Mean RMSD: 0.217
data_MOF--net-nia--node1-BETFEN_clean_sbu_0--node2-MIDCAF_clean_sbu_0--edge1-FUNLAD_clean_linker_1
_symmetry_space_group_name_H-M    P1
_symmetry_Int_Tables_number       1
_symmetry_cell_setting            triclinic
loop_
_symmetry_equiv_pos_as_xyz
'x, y, z'
_cell_length_a     29.62879
_cell_length_b     29.561252
_cell_length_c     34.328807
_cell_angle_alpha  89.421603
_cell_angle_beta   90.296329
_cell_angle_gamma 136.78129
loop_
_atom_site_label
_atom_site_type_symbol
_atom_site_fract_x
_atom_site_fract_y
_atom_site_fract_z
_atom_type_partial_charge
Pr0 Pr 0.97192 0.02434 0.98747 0.0
Pr1 Pr 0.03798 0.99696 0.04494 0.0
C2 C 0.88566 0.02093 0.95684 0.0
C3 C 0.87756 0.05891 0.93709 0.0
C4 C 0.92987 0.12783 0.93323 0.0
C5 C 0.91964 0.16249 0.91517 0.0
C6 C 0.85724 0.12878 0.90046 0.0
C7 C 0.80515 0.05948 0.9044 0.0
C8 C 0.81544 0.02506 0.92242 0.0
C9 C 0.09907 0.0944 0.96159 0.0
C10 C 0.07052 0.12722 0.06041 0.0
C11 C 0.09814 0.97516 0.08595 0.0
C12 C 0.11656 0.94091 0.092 0.0
C13 C 0.0903 0.89864 0.12441 0.0
C14 C 0.11188 0.87103 0.13405 0.0
C15 C 0.16093 0.88579 0.11166 0.0
C16 C 0.18522 0.92576 0.07821 0.0
C17 C 0.16362 0.95365 0.06857 0.0
C18 C 0.92431 0.95659 0.07115 0.0
C19 C 0.95161 0.9008 0.96789 0.0
O20 O 0.90355 0.03432 0.99352 0.0
O21 O 0.91246 0.00785 0.93672 0.0
O22 O 0.06879 0.05778 0.99097 0.0
O23 O 0.06309 0.09827 0.94372 0.0
O24 O 0.09338 0.10219 0.06342 0.0
O25 O 0.02187 0.10349 0.03674 0.0
O26 O 0.12912 0.0224 0.05961 0.0
O27 O 0.03597 0.94037 0.0905 0.0
O28 O 0.9335 0.94981 0.03678 0.0
O29 O 0.9738 0.98307 0.09354 0.0
O30 O 0.92953 0.92635 0.96279 0.0
O31 O 0.99484 0.92096 0.99501 0.0
H32 H 0.9782 0.15473 0.94451 0.0
H33 H 0.96044 0.21583 0.91298 0.0
H34 H 0.75578 0.03148 0.89483 0.0
H35 H 0.77441 0.97183 0.92548 0.0
H36 H 0.05399 0.88811 0.14296 0.0
H37 H 0.09023 0.83846 0.15918 0.0
H38 H 0.22248 0.93712 0.06025 0.0
H39 H 0.18476 0.98617 0.04342 0.0
Pr40 Pr 0.97379 0.04042 0.53288 0.0
Pr41 Pr 0.03122 0.97573 0.51572 0.0
C42 C 0.95713 0.11839 0.53408 0.0
C43 C 0.94196 0.14322 0.56193 0.0
C44 C 0.92611 0.12139 0.60084 0.0
C45 C 0.91167 0.14561 0.62693 0.0
C46 C 0.91227 0.19145 0.61441 0.0
C47 C 0.92994 0.21439 0.57553 0.0
C48 C 0.94447 0.19027 0.54956 0.0
C49 C 0.91125 0.92729 0.57829 0.0
C50 C 0.91806 0.93899 0.45751 0.0
C51 C 0.0482 0.89798 0.51854 0.0
C52 C 0.07336 0.87759 0.4967 0.0
C53 C 0.10553 0.9067 0.46074 0.0
C54 C 0.13253 0.88894 0.44173 0.0
C55 C 0.12754 0.8417 0.45855 0.0
C56 C 0.09457 0.81248 0.49438 0.0
C57 C 0.06762 0.83013 0.5132 0.0
C58 C 0.09694 0.09082 0.47166 0.0
C59 C 0.08632 0.0771 0.59115 0.0
O60 O 0.90921 0.05514 0.52607 0.0
O61 O 0.01464 0.14076 0.53817 0.0
O62 O 0.95497 0.9551 0.55277 0.0
O63 O 0.89624 0.95897 0.58127 0.0
O64 O 0.94494 0.92079 0.47111 0.0
O65 O 0.92787 0.98667 0.47287 0.0
O66 O 0.09221 0.95898 0.53109 0.0
O67 O 0.99374 0.87726 0.50597 0.0
O68 O 0.05048 0.06136 0.4955 0.0
O69 O 0.11302 0.05995 0.46991 0.0
O70 O 0.05962 0.09541 0.57759 0.0
O71 O 0.07595 0.02905 0.57593 0.0
H72 H 0.92469 0.08551 0.61094 0.0
H73 H 0.89889 0.12765 0.65676 0.0
H74 H 0.93334 0.25146 0.5651 0.0
H75 H 0.95775 0.20844 0.51977 0.0
H76 H 0.11078 0.94393 0.44779 0.0
H77 H 0.15866 0.91369 0.41462 0.0
H78 H 0.09023 0.77628 0.50813 0.0
H79 H 0.04319 0.80744 0.54106 0.0
Zn80 Zn 0.36435 0.6434 0.20535 0.0
Zn81 Zn 0.38745 0.66431 0.35954 0.0
Zn82 Zn 0.37684 0.65333 0.2816 0.0
C83 C 0.51461 0.74684 0.32834 0.0
C84 C 0.30872 0.5317 0.34188 0.0
O85 O 0.33544 0.6889 0.26099 0.0
O86 O 0.3323 0.68173 0.19673 0.0
C87 C 0.49681 0.72579 0.22039 0.0
O88 O 0.48212 0.72004 0.29628 0.0
O89 O 0.48539 0.73407 0.35991 0.0
O90 O 0.3372 0.5707 0.37043 0.0
O91 O 0.31633 0.5536 0.30721 0.0
O92 O 0.45714 0.69788 0.19214 0.0
O93 O 0.47568 0.71552 0.25551 0.0
O94 O 0.31193 0.54846 0.26665 0.0
O95 O 0.2996 0.54694 0.20296 0.0
C96 C 0.28644 0.5167 0.23439 0.0
O97 O 0.34074 0.69355 0.30201 0.0
O98 O 0.3434 0.6916 0.36646 0.0
C99 C 0.32247 0.69691 0.22729 0.0
C100 C 0.33014 0.70364 0.33559 0.0
Zn101 Zn 0.66155 0.38545 0.82616 0.0
Zn102 Zn 0.61197 0.33771 0.67725 0.0
Zn103 Zn 0.63943 0.37018 0.7504 0.0
C104 C 0.69904 0.47667 0.68236 0.0
C105 C 0.49311 0.26994 0.71163 0.0
O106 O 0.67986 0.33323 0.77113 0.0
O107 O 0.69418 0.3476 0.83497 0.0
C108 C 0.73542 0.51042 0.79207 0.0
O109 O 0.69646 0.46585 0.71922 0.0
O110 O 0.66649 0.42941 0.65867 0.0
O111 O 0.51565 0.27415 0.67919 0.0
O112 O 0.53168 0.30257 0.74115 0.0
O113 O 0.72683 0.48212 0.82338 0.0
O114 O 0.70583 0.47685 0.76065 0.0
O115 O 0.54486 0.31502 0.78119 0.0
O116 O 0.57083 0.33462 0.84374 0.0
C117 C 0.52826 0.30796 0.81721 0.0
O118 O 0.67591 0.32864 0.73007 0.0
O119 O 0.64533 0.30085 0.66845 0.0
C120 C 0.69728 0.32764 0.80387 0.0
C121 C 0.67374 0.30489 0.69777 0.0
H122 H 0.20717 0.85325 0.09989 0.0
C123 C 0.18763 0.86038 0.12278 0.0
H124 H 0.17449 0.85785 0.18372 0.0
H125 H 0.16555 0.63932 0.21259 0.0
H126 H 0.05277 0.57792 0.22707 0.0
H127 H 0.01428 0.62815 0.21684 0.0
H128 H 0.08802 0.73959 0.19103 0.0
C129 C 0.19179 0.84938 0.1601 0.0
C130 C 0.21747 0.82256 0.17033 0.0
C131 C 0.17422 0.75817 0.18664 0.0
C132 C 0.19679 0.72976 0.19339 0.0
C133 C 0.15163 0.66405 0.20778 0.0
C134 C 0.08656 0.62806 0.21606 0.0
C135 C 0.06486 0.65629 0.21022 0.0
C136 C 0.1078 0.7204 0.19548 0.0
H137 H 0.28465 0.73438 0.2498 0.0
C138 C 0.29614 0.72402 0.22377 0.0
H139 H 0.29915 0.72799 0.16218 0.0
H140 H 0.31587 0.95137 0.14523 0.0
H141 H 0.42942 0.01382 0.132 0.0
H142 H 0.46823 0.96393 0.14264 0.0
H143 H 0.39378 0.85147 0.16686 0.0
C144 C 0.2861 0.7361 0.18874 0.0
C145 C 0.26298 0.76658 0.1846 0.0
C146 C 0.30695 0.83201 0.1699 0.0
C147 C 0.28436 0.86035 0.16312 0.0
C148 C 0.32987 0.92664 0.14971 0.0
C149 C 0.39537 0.96327 0.1423 0.0
C150 C 0.41723 0.93521 0.14834 0.0
C151 C 0.37387 0.87049 0.16211 0.0
H152 H 0.13664 0.14987 0.6388 0.0
C153 C 0.13196 0.11407 0.62435 0.0
H154 H 0.16624 0.07192 0.62082 0.0
H155 H 0.43373 0.35221 0.69667 0.0
H156 H 0.43643 0.40781 0.64277 0.0
H157 H 0.34261 0.34571 0.59754 0.0
H158 H 0.24574 0.22857 0.60616 0.0
C159 C 0.17147 0.10842 0.6347 0.0
C160 C 0.22307 0.14968 0.66522 0.0
C161 C 0.27963 0.21867 0.65928 0.0
C162 C 0.3348 0.2542 0.68448 0.0
C163 C 0.39096 0.32278 0.67801 0.0
C164 C 0.39312 0.35534 0.64723 0.0
C165 C 0.34025 0.32041 0.62185 0.0
C166 C 0.28437 0.25288 0.62743 0.0
H167 H 0.39059 0.18542 0.6949 0.0
C168 C 0.42239 0.2284 0.71371 0.0
H169 H 0.4319 0.29659 0.74402 0.0
H170 H 0.1182 0.02154 0.6891 0.0
H171 H 0.11597 0.96738 0.74406 0.0
H172 H 0.21355 0.02868 0.7859 0.0
H173 H 0.3141 0.14525 0.77343 0.0
C174 C 0.39909 0.25004 0.72856 0.0
C175 C 0.3347 0.22015 0.71388 0.0
C176 C 0.27609 0.15317 0.72222 0.0
C177 C 0.22009 0.11787 0.69792 0.0
C178 C 0.16245 0.05047 0.70643 0.0
C179 C 0.16043 0.01894 0.73796 0.0
C180 C 0.21541 0.05354 0.76159 0.0
C181 C 0.27275 0.12 0.75399 0.0
H182 H 0.09143 0.2126 0.07781 0.0
C183 C 0.09878 0.18261 0.08566 0.0
H184 H 0.13473 0.16289 0.12836 0.0
H185 H 0.30232 0.47726 0.15123 0.0
H186 H 0.35901 0.49688 0.09207 0.0
H187 H 0.32567 0.4042 0.05643 0.0
H188 H 0.23518 0.29139 0.07979 0.0
C189 C 0.13044 0.19479 0.11881 0.0
C190 C 0.15808 0.25078 0.14389 0.0
C191 C 0.21192 0.31632 0.13028 0.0
C192 C 0.23137 0.36952 0.15098 0.0
C193 C 0.28485 0.4347 0.13645 0.0
C194 C 0.31813 0.44675 0.10261 0.0
C195 C 0.29936 0.3946 0.08255 0.0
C196 C 0.24702 0.33006 0.09613 0.0
H197 H 0.25981 0.42742 0.25227 0.0
C198 C 0.24811 0.44648 0.23233 0.0
H199 H 0.19873 0.43169 0.18167 0.0
H200 H 0.06149 0.13189 0.18142 0.0
H201 H 0.01045 0.11307 0.24346 0.0
H202 H 0.04426 0.20574 0.27948 0.0
H203 H 0.12952 0.31798 0.25371 0.0
C204 C 0.20911 0.41116 0.20142 0.0
C205 C 0.19733 0.35695 0.18546 0.0
C206 C 0.14812 0.29222 0.20122 0.0
C207 C 0.12855 0.23883 0.18038 0.0
C208 C 0.07822 0.17419 0.19614 0.0
C209 C 0.04854 0.16275 0.23166 0.0
C210 C 0.06754 0.21495 0.25193 0.0
C211 C 0.11649 0.27906 0.23689 0.0
H212 H 0.90105 0.21287 0.67333 0.0
C213 C 0.89425 0.21441 0.64237 0.0
H214 H 0.85677 0.23284 0.60025 0.0
H215 H 0.68585 0.19239 0.7419 0.0
H216 H 0.6353 0.08171 0.74958 0.0
H217 H 0.67917 0.04783 0.71446 0.0
H218 H 0.77431 0.12476 0.67215 0.0
C219 C 0.86564 0.23244 0.63089 0.0
C220 C 0.84639 0.25461 0.65848 0.0
C221 C 0.79008 0.20845 0.68272 0.0
C222 C 0.76386 0.22753 0.70232 0.0
C223 C 0.70763 0.18059 0.72631 0.0
C224 C 0.67804 0.11676 0.73088 0.0
C225 C 0.7028 0.09774 0.71116 0.0
C226 C 0.75773 0.14261 0.68703 0.0
H227 H 0.68232 0.24446 0.67098 0.0
C228 C 0.70317 0.28113 0.69337 0.0
H229 H 0.78434 0.3502 0.73037 0.0
H230 H 0.9614 0.35744 0.62015 0.0
H231 H 0.01639 0.4705 0.61606 0.0
H232 H 0.97017 0.50334 0.6492 0.0
H233 H 0.86899 0.42364 0.68662 0.0
C234 C 0.75932 0.30917 0.71066 0.0
C235 C 0.79355 0.2924 0.69727 0.0
C236 C 0.85334 0.34003 0.67603 0.0
C237 C 0.87967 0.32101 0.6566 0.0
C238 C 0.93889 0.36921 0.63504 0.0
C239 C 0.97106 0.43426 0.63259 0.0
C240 C 0.94507 0.45275 0.65127 0.0
C241 C 0.88685 0.40641 0.67268 0.0
H242 H 0.81838 0.89557 0.06721 0.0
C243 C 0.86147 0.92858 0.08587 0.0
H244 H 0.89958 0.9733 0.14093 0.0
H245 H 0.59582 0.84238 0.12823 0.0
H246 H 0.63984 0.9211 0.07574 0.0
H247 H 0.75433 0.99482 0.05295 0.0
H248 H 0.82528 0.98996 0.08243 0.0
C249 C 0.85629 0.94059 0.12239 0.0
C250 C 0.79116 0.90439 0.13989 0.0
C251 C 0.75087 0.90897 0.12295 0.0
C252 C 0.68528 0.86722 0.13655 0.0
C253 C 0.64588 0.87246 0.11887 0.0
C254 C 0.67064 0.91773 0.08884 0.0
C255 C 0.73505 0.95917 0.07598 0.0
C256 C 0.77504 0.95536 0.09288 0.0
H257 H 0.60258 0.80471 0.23545 0.0
C258 C 0.56772 0.77149 0.21264 0.0
H259 H 0.55424 0.74056 0.15468 0.0
H260 H 0.85952 0.89176 0.18354 0.0
H261 H 0.81756 0.81742 0.23821 0.0
H262 H 0.70218 0.74125 0.25983 0.0
H263 H 0.6286 0.73972 0.22724 0.0
C264 C 0.58931 0.77295 0.17778 0.0
C265 C 0.66041 0.82171 0.16747 0.0
C266 C 0.70212 0.82011 0.18609 0.0
C267 C 0.76811 0.86265 0.17281 0.0
C268 C 0.80897 0.86059 0.19219 0.0
C269 C 0.78545 0.8179 0.2236 0.0
C270 C 0.72054 0.77507 0.23579 0.0
C271 C 0.67893 0.77527 0.21702 0.0
H272 H 0.84792 0.854 0.62519 0.0
C273 C 0.88222 0.86952 0.60232 0.0
H274 H 0.9303 0.85109 0.57391 0.0
H275 H 0.89529 0.67288 0.70049 0.0
H276 H 0.01411 0.76807 0.69773 0.0
H277 H 0.06516 0.86828 0.66078 0.0
H278 H -0.00217 0.87338 0.62553 0.0
C279 C 0.89477 0.83469 0.59607 0.0
C280 C 0.86317 0.77496 0.62006 0.0
C281 C 0.90314 0.77342 0.64154 0.0
C282 C 0.87361 0.71622 0.66382 0.0
C283 C 0.91497 0.71526 0.68359 0.0
C284 C 0.9833 0.76956 0.68221 0.0
C285 C 0.01205 0.82597 0.66138 0.0
C286 C 0.97275 0.82818 0.64124 0.0
H287 H 0.73097 0.5442 0.63436 0.0
C288 C 0.73627 0.54247 0.66558 0.0
H289 H 0.7826 0.59976 0.71625 0.0
H290 H 0.7712 0.75483 0.57706 0.0
H291 H 0.65266 0.66318 0.58351 0.0
H292 H 0.60183 0.57218 0.63001 0.0
H293 H 0.66952 0.57128 0.66911 0.0
C294 C 0.7731 0.59866 0.6857 0.0
C295 C 0.80403 0.66113 0.66547 0.0
C296 C 0.76401 0.66406 0.64557 0.0
C297 C 0.79347 0.71934 0.62131 0.0
C298 C 0.75189 0.71675 0.59814 0.0
C299 C 0.68355 0.66394 0.60121 0.0
C300 C 0.65494 0.61254 0.62718 0.0
C301 C 0.69442 0.61235 0.64918 0.0
H302 H 0.16431 0.79832 0.46018 0.0
C303 C 0.15877 0.82383 0.44129 0.0
H304 H 0.17235 0.85778 0.38328 0.0
H305 H 0.37957 0.83515 0.40928 0.0
H306 H 0.44253 0.93376 0.44818 0.0
H307 H 0.401 0.98045 0.46042 0.0
H308 H 0.29609 0.92861 0.43391 0.0
C309 C 0.17994 0.83614 0.40422 0.0
C310 C 0.21081 0.81586 0.39072 0.0
C311 C 0.27271 0.84736 0.4058 0.0
C312 C 0.29687 0.82079 0.39843 0.0
C313 C 0.35859 0.85294 0.4142 0.0
C314 C 0.39539 0.90975 0.43645 0.0
C315 C 0.37199 0.936 0.44337 0.0
C316 C 0.31149 0.9055 0.42823 0.0
H317 H 0.30348 0.7519 0.31243 0.0
C318 C 0.30391 0.73097 0.33825 0.0
H319 H 0.28394 0.71305 0.39859 0.0
H320 H 0.09578 0.75029 0.35253 0.0
H321 H 0.03403 0.65358 0.31185 0.0
H322 H 0.07345 0.60454 0.30113 0.0
H323 H 0.1756 0.65289 0.32966 0.0
C324 C 0.28181 0.73176 0.37203 0.0
C325 C 0.2595 0.76323 0.37556 0.0
C326 C 0.19954 0.73416 0.35838 0.0
C327 C 0.17573 0.76123 0.36555 0.0
C328 C 0.11571 0.73131 0.34826 0.0
C329 C 0.07982 0.67584 0.32488 0.0
C330 C 0.10218 0.64842 0.31866 0.0
C331 C 0.16116 0.67688 0.33518 0.0
H332 H 0.18795 0.11646 0.9656 0.0
C333 C 0.16289 0.12342 0.94782 0.0
H334 H 0.16503 0.16398 0.89596 0.0
H335 H 0.47514 0.37472 0.8763 0.0
H336 H 0.46505 0.44496 0.89769 0.0
H337 H 0.3582 0.39686 0.92024 0.0
H338 H 0.26068 0.27816 0.92138 0.0
C339 C 0.18914 0.15571 0.91354 0.0
C340 C 0.25328 0.18416 0.89952 0.0
C341 C 0.30979 0.25359 0.89897 0.0
C342 C 0.37159 0.28125 0.88644 0.0
C343 C 0.42714 0.3509 0.88605 0.0
C344 C 0.42203 0.39187 0.89813 0.0
C345 C 0.36186 0.3648 0.91078 0.0
C346 C 0.30625 0.29655 0.91124 0.0
H347 H 0.42315 0.24587 0.80491 0.0
C348 C 0.45989 0.27068 0.82766 0.0
H349 H 0.48007 0.29602 0.88717 0.0
H350 H 0.15323 0.04952 0.89267 0.0
H351 H 0.16368 0.97892 0.87291 0.0
H352 H 0.27193 0.02643 0.85478 0.0
H353 H 0.37014 0.14484 0.85545 0.0
C354 C 0.44305 0.26926 0.86436 0.0
C355 C 0.37691 0.23945 0.87454 0.0
C356 C 0.32019 0.16995 0.87464 0.0
C357 C 0.25811 0.14235 0.88656 0.0
C358 C 0.2019 0.07297 0.88513 0.0
C359 C 0.20715 0.03188 0.87371 0.0
C360 C 0.26809 0.05864 0.86341 0.0
C361 C 0.32407 0.1268 0.86374 0.0
H362 H 0.17733 0.17816 0.43588 0.0
C363 C 0.13078 0.15217 0.44996 0.0
H364 H 0.06012 0.15087 0.46149 0.0
H365 H 0.24528 0.45512 0.44442 0.0
H366 H 0.21168 0.43391 0.51208 0.0
H367 H 0.15054 0.32609 0.54278 0.0
H368 H 0.12184 0.23886 0.50564 0.0
C369 C 0.1063 0.17643 0.44705 0.0
C370 C 0.14462 0.24193 0.42804 0.0
C371 C 0.16446 0.29393 0.45059 0.0
C372 C 0.20285 0.35719 0.43344 0.0
C373 C 0.2185 0.40689 0.45627 0.0
C374 C 0.19918 0.39531 0.49514 0.0
C375 C 0.16455 0.33459 0.51237 0.0
C376 C 0.14768 0.28457 0.49057 0.0
H377 H 0.22222 0.42489 0.33018 0.0
C378 C 0.26451 0.4604 0.34906 0.0
H379 H 0.31737 0.47664 0.39804 0.0
H380 H 0.10306 0.15035 0.3741 0.0
H381 H 0.13894 0.17191 0.30672 0.0
H382 H 0.21861 0.28506 0.27954 0.0
H383 H 0.261 0.37679 0.31896 0.0
C384 C 0.2745 0.43983 0.37974 0.0
C385 C 0.22519 0.37004 0.39432 0.0
C386 C 0.20449 0.31777 0.37143 0.0
C387 C 0.16203 0.25311 0.38792 0.0
C388 C 0.13792 0.20084 0.36363 0.0
C389 C 0.15782 0.21247 0.32486 0.0
C390 C 0.20245 0.27614 0.3095 0.0
C391 C 0.22592 0.32838 0.33241 0.0
H392 H 0.88187 0.21923 0.89225 0.0
C393 C 0.84692 0.16756 0.88413 0.0
H394 H 0.75981 0.09072 0.85205 0.0
H395 H 0.65658 0.21422 0.88622 0.0
H396 H 0.59176 0.12363 0.93293 0.0
H397 H 0.61268 0.05753 0.9436 0.0
H398 H 0.69836 0.08143 0.90749 0.0
C399 C 0.79554 0.14168 0.86142 0.0
C400 C 0.7809 0.17933 0.8528 0.0
C401 C 0.73048 0.16453 0.87406 0.0
C402 C 0.71886 0.20302 0.86818 0.0
C403 C 0.66805 0.18705 0.88979 0.0
C404 C 0.63032 0.13506 0.91666 0.0
C405 C 0.64207 0.09782 0.92265 0.0
C406 C 0.69147 0.11213 0.90171 0.0
H407 H 0.70353 0.26275 0.78179 0.0
C408 C 0.71697 0.29408 0.80566 0.0
H409 H 0.75869 0.32757 0.86183 0.0
H410 H 0.87484 0.2145 0.80374 0.0
H411 H 0.94085 0.30601 0.75732 0.0
H412 H 0.92638 0.37797 0.75049 0.0
H413 H 0.84356 0.35697 0.78842 0.0
C414 C 0.74714 0.29813 0.83696 0.0
C415 C 0.75776 0.2563 0.8411 0.0
C416 C 0.80744 0.27036 0.81929 0.0
C417 C 0.81808 0.23089 0.82462 0.0
C418 C 0.86617 0.24422 0.80151 0.0
C419 C 0.90425 0.29644 0.77479 0.0
C420 C 0.8959 0.3368 0.77082 0.0
C421 C 0.84804 0.32408 0.79267 0.0
H422 H 0.86393 0.86246 0.4119 0.0
C423 C 0.87264 0.90205 0.42415 0.0
H424 H 0.84802 0.9534 0.42207 0.0
H425 H 0.70473 0.87485 0.26644 0.0
H426 H 0.81157 0.9848 0.24901 0.0
H427 H 0.90799 0.04345 0.29167 0.0
H428 H 0.89813 0.99249 0.35185 0.0
C429 C 0.83833 0.91276 0.41079 0.0
C430 C 0.78612 0.87103 0.3806 0.0
C431 C 0.79318 0.90095 0.34521 0.0
C432 C 0.73794 0.86713 0.32043 0.0
C433 C 0.74546 0.89877 0.28603 0.0
C434 C 0.80643 0.96163 0.27576 0.0
C435 C 0.86072 0.99462 0.29977 0.0
C436 C 0.85439 0.96499 0.33424 0.0
H437 H 0.61281 0.82802 0.35275 0.0
C438 C 0.58595 0.79068 0.33014 0.0
H439 H 0.58658 0.73416 0.29357 0.0
H440 H 0.75467 0.79585 0.44525 0.0
H441 H 0.65148 0.68231 0.45774 0.0
H442 H 0.55902 0.62143 0.41155 0.0
H443 H 0.56947 0.67495 0.35273 0.0
C444 C 0.61453 0.77584 0.31316 0.0
C445 C 0.67633 0.80314 0.33071 0.0
C446 C 0.67145 0.76995 0.36325 0.0
C447 C 0.72574 0.8044 0.38901 0.0
C448 C 0.71666 0.77184 0.42357 0.0
C449 C 0.65719 0.70647 0.43135 0.0
C450 C 0.60508 0.67224 0.40541 0.0
C451 C 0.61168 0.70352 0.37186 0.0
H452 H 0.93706 0.81936 0.95025 0.0
C453 C 0.92666 0.84675 0.94236 0.0
H454 H 0.88447 0.86002 0.90027 0.0
H455 H 0.89043 0.71175 0.77053 0.0
H456 H 0.97007 0.82402 0.7443 0.0
H457 H 0.0036 0.91489 0.78222 0.0
H458 H 0.95759 0.89462 0.84652 0.0
C459 C 0.89263 0.83123 0.90968 0.0
C460 C 0.86722 0.77566 0.8849 0.0
C461 C 0.89403 0.78836 0.84721 0.0
C462 C 0.87499 0.73594 0.82537 0.0
C463 C 0.90336 0.74995 0.78818 0.0
C464 C 0.94901 0.81397 0.77286 0.0
C465 C 0.96789 0.86525 0.79423 0.0
C466 C 0.94108 0.85295 0.83106 0.0
H467 H 0.75336 0.59593 0.77902 0.0
C468 C 0.77206 0.58016 0.79462 0.0
H469 H 0.83377 0.60059 0.83907 0.0
H470 H 0.79571 0.73248 0.95227 0.0
H471 H 0.71305 0.62011 0.97729 0.0
H472 H 0.68259 0.52974 0.94052 0.0
H473 H 0.73413 0.55121 0.87851 0.0
C474 C 0.81724 0.61816 0.8228 0.0
C475 C 0.82948 0.67135 0.84145 0.0
C476 C 0.79918 0.65794 0.87794 0.0
C477 C 0.81751 0.71004 0.89947 0.0
C478 C 0.78514 0.69503 0.93528 0.0
C479 C 0.73719 0.63063 0.94985 0.0
C480 C 0.72001 0.57977 0.92915 0.0
C481 C 0.75029 0.59291 0.8936 0.0
loop_
_geom_bond_atom_site_label_1
_geom_bond_atom_site_label_2
_geom_bond_distance
_geom_bond_site_symmetry_2
_ccdc_geom_bond_type
Pr0 C2 2.880 . S
Pr0 O20 2.562 . S
Pr0 O21 2.490 . S
Pr0 O22 2.695 1_655 S
Pr0 O23 2.512 1_655 S
Pr0 O25 2.432 1_656 S
Pr0 O28 2.436 1_546 S
Pr0 O30 2.438 1_545 S
Pr1 C11 2.880 . S
Pr1 O22 2.436 1_564 S
Pr1 O24 2.438 1_565 S
Pr1 O26 2.562 . S
Pr1 O27 2.490 . S
Pr1 O28 2.695 1_455 S
Pr1 O29 2.512 1_455 S
Pr1 O31 2.437 1_455 S
C2 Pr0 2.880 . S
C2 C3 1.491 . S
C2 O20 1.254 . S
C2 O21 1.225 . S
C3 C2 1.491 . S
C3 C4 1.392 . S
C3 C8 1.356 . S
C4 C3 1.392 . S
C4 C5 1.368 . S
C4 H32 0.929 . S
C5 C4 1.368 . S
C5 C6 1.386 . S
C5 H33 0.929 . S
C6 C5 1.386 . S
C6 C7 1.373 . S
C7 C6 1.373 . S
C7 C8 1.409 . S
C7 H34 0.931 . S
C8 C3 1.356 . S
C8 C7 1.409 . S
C8 H35 0.930 . S
C9 O22 1.270 . S
C9 O23 1.248 . S
C10 O24 1.267 . S
C10 O25 1.286 . S
C11 Pr1 2.880 . S
C11 C12 1.491 . S
C11 O26 1.254 . S
C11 O27 1.225 . S
C12 C11 1.491 . S
C12 C13 1.392 . S
C12 C17 1.356 . S
C13 C12 1.392 . S
C13 C14 1.368 . S
C13 H36 0.929 . S
C14 C13 1.368 . S
C14 C15 1.386 . S
C14 H37 0.929 . S
C15 C14 1.386 . S
C15 C16 1.373 . S
C16 C15 1.373 . S
C16 C17 1.409 . S
C16 H38 0.931 . S
C17 C12 1.356 . S
C17 C16 1.409 . S
C17 H39 0.930 . S
C18 O28 1.270 . S
C18 O29 1.248 . S
C19 O30 1.267 . S
C19 O31 1.278 1_556 S
O20 Pr0 2.562 . S
O20 C2 1.254 . S
O21 Pr0 2.490 . S
O21 C2 1.225 . S
O22 Pr0 2.695 1_455 S
O22 Pr1 2.436 1_546 S
O22 C9 1.270 . S
O23 Pr0 2.512 1_455 S
O23 C9 1.248 . S
O24 Pr1 2.438 1_545 S
O24 C10 1.267 . S
O25 Pr0 2.432 1_454 S
O25 C10 1.286 . S
O26 Pr1 2.562 . S
O26 C11 1.254 . S
O27 Pr1 2.490 . S
O27 C11 1.225 . S
O28 Pr0 2.436 1_564 S
O28 Pr1 2.695 1_655 S
O28 C18 1.270 . S
O29 Pr1 2.512 1_655 S
O29 C18 1.248 . S
O30 Pr0 2.438 1_565 S
O30 C19 1.267 . S
O31 Pr1 2.437 1_655 S
O31 C19 1.278 1_554 S
H32 C4 0.929 . S
H33 C5 0.929 . S
H34 C7 0.931 . S
H35 C8 0.930 . S
H36 C13 0.929 . S
H37 C14 0.929 . S
H38 C16 0.931 . S
H39 C17 0.930 . S
Pr40 C42 2.880 1_455 S
Pr40 O60 2.562 1_455 S
Pr40 O61 2.490 1_455 S
Pr40 O62 2.695 1_445 S
Pr40 O63 2.512 1_445 S
Pr40 O65 2.437 1_445 S
Pr40 O68 2.436 . S
Pr40 O70 2.438 . S
Pr41 C51 2.880 . S
Pr41 O62 2.436 1_455 S
Pr41 O64 2.438 1_455 S
Pr41 O66 2.562 . S
Pr41 O67 2.490 . S
Pr41 O68 2.695 1_565 S
Pr41 O69 2.512 1_565 S
Pr41 O71 2.437 1_565 S
C42 Pr40 2.880 1_655 S
C42 C43 1.491 . S
C42 O60 1.254 . S
C42 O61 1.225 . S
C43 C42 1.491 . S
C43 C44 1.392 . S
C43 C48 1.356 . S
C44 C43 1.392 . S
C44 C45 1.368 . S
C44 H72 0.929 . S
C45 C44 1.368 . S
C45 C46 1.386 . S
C45 H73 0.929 . S
C46 C45 1.386 . S
C46 C47 1.373 . S
C47 C46 1.373 . S
C47 C48 1.409 . S
C47 H74 0.931 . S
C48 C43 1.356 . S
C48 C47 1.409 . S
C48 H75 0.930 . S
C49 O62 1.270 . S
C49 O63 1.248 . S
C50 O64 1.267 . S
C50 O65 1.278 . S
C51 Pr41 2.880 . S
C51 C52 1.491 . S
C51 O66 1.254 . S
C51 O67 1.225 . S
C52 C51 1.491 . S
C52 C53 1.392 . S
C52 C57 1.356 . S
C53 C52 1.392 . S
C53 C54 1.368 . S
C53 H76 0.918 1_565 S
C54 C53 1.368 . S
C54 C55 1.386 . S
C54 H77 0.929 . S
C55 C54 1.386 . S
C55 C56 1.373 . S
C56 C55 1.373 . S
C56 C57 1.409 . S
C56 H78 0.931 . S
C57 C52 1.356 . S
C57 C56 1.409 . S
C57 H79 0.930 . S
C58 O68 1.270 . S
C58 O69 1.248 . S
C59 O70 1.267 . S
C59 O71 1.278 . S
O60 Pr40 2.562 1_655 S
O60 C42 1.254 . S
O61 Pr40 2.490 1_655 S
O61 C42 1.225 . S
O62 Pr40 2.695 1_665 S
O62 Pr41 2.436 1_655 S
O62 C49 1.270 . S
O63 Pr40 2.512 1_665 S
O63 C49 1.248 . S
O64 Pr41 2.438 1_655 S
O64 C50 1.267 . S
O65 Pr40 2.437 1_665 S
O65 C50 1.278 . S
O66 Pr41 2.562 . S
O66 C51 1.254 . S
O67 Pr41 2.490 . S
O67 C51 1.225 . S
O68 Pr40 2.436 . S
O68 Pr41 2.695 1_545 S
O68 C58 1.270 . S
O69 Pr41 2.512 1_545 S
O69 C58 1.248 . S
O70 Pr40 2.438 . S
O70 C59 1.267 . S
O71 Pr41 2.437 1_545 S
O71 C59 1.278 . S
H72 C44 0.929 . S
H73 C45 0.929 . S
H74 C47 0.931 . S
H75 C48 0.930 . S
H76 C53 0.918 1_545 S
H77 C54 0.929 . S
H78 C56 0.931 . S
H79 C57 0.930 . S
Zn80 O86 1.920 . S
Zn80 O92 1.898 . S
Zn80 O95 1.905 . S
Zn81 O89 1.905 . S
Zn81 O90 1.898 . S
Zn81 O98 1.920 . S
Zn82 O85 2.080 . S
Zn82 O88 2.114 . S
Zn82 O91 2.120 . S
Zn82 O93 2.120 . S
Zn82 O94 2.114 . S
Zn82 O97 2.080 . S
C83 O88 1.166 . S
C83 O89 1.182 . S
C84 O90 1.167 . S
C84 O91 1.299 . S
O85 Zn82 2.080 . S
O85 C99 1.305 . S
O86 Zn80 1.920 . S
O86 C99 1.234 . S
C87 O92 1.167 . S
C87 O93 1.299 . S
O88 Zn82 2.114 . S
O88 C83 1.166 . S
O89 Zn81 1.905 . S
O89 C83 1.182 . S
O90 Zn81 1.898 . S
O90 C84 1.167 . S
O91 Zn82 2.120 . S
O91 C84 1.299 . S
O92 Zn80 1.898 . S
O92 C87 1.167 . S
O93 Zn82 2.120 . S
O93 C87 1.299 . S
O94 Zn82 2.114 . S
O94 C96 1.166 . S
O95 Zn80 1.905 . S
O95 C96 1.182 . S
C96 O94 1.166 . S
C96 O95 1.182 . S
O97 Zn82 2.080 . S
O97 C100 1.305 . S
O98 Zn81 1.920 . S
O98 C100 1.234 . S
C99 O85 1.305 . S
C99 O86 1.234 . S
C100 O97 1.305 . S
C100 O98 1.234 . S
Zn101 O107 1.920 . S
Zn101 O113 1.898 . S
Zn101 O116 1.905 . S
Zn102 O110 1.905 . S
Zn102 O111 1.898 . S
Zn102 O119 1.920 . S
Zn103 O106 2.080 . S
Zn103 O109 2.114 . S
Zn103 O112 2.120 . S
Zn103 O114 2.120 . S
Zn103 O115 2.114 . S
Zn103 O118 2.080 . S
C104 O109 1.166 . S
C104 O110 1.182 . S
C105 O111 1.167 . S
C105 O112 1.299 . S
O106 Zn103 2.080 . S
O106 C120 1.305 . S
O107 Zn101 1.920 . S
O107 C120 1.234 . S
C108 O113 1.167 . S
C108 O114 1.299 . S
O109 Zn103 2.114 . S
O109 C104 1.166 . S
O110 Zn102 1.905 . S
O110 C104 1.182 . S
O111 Zn102 1.898 . S
O111 C105 1.167 . S
O112 Zn103 2.120 . S
O112 C105 1.299 . S
O113 Zn101 1.898 . S
O113 C108 1.167 . S
O114 Zn103 2.120 . S
O114 C108 1.299 . S
O115 Zn103 2.114 . S
O115 C117 1.166 . S
O116 Zn101 1.905 . S
O116 C117 1.182 . S
C117 O115 1.166 . S
C117 O116 1.182 . S
O118 Zn103 2.080 . S
O118 C121 1.305 . S
O119 Zn102 1.920 . S
O119 C121 1.234 . S
C120 O106 1.305 . S
C120 O107 1.234 . S
C121 O118 1.305 . S
C121 O119 1.234 . S
H122 C123 0.951 . S
C123 H122 0.951 . S
C123 C129 1.265 . S
H124 C129 0.950 . S
H125 C133 0.949 . S
H126 C134 0.950 . S
H127 C135 0.951 1_655 S
H128 C136 0.951 . S
C129 C123 1.265 . S
C129 H124 0.950 . S
C129 C130 1.478 . S
C130 C129 1.478 . S
C130 C131 1.397 . S
C130 C147 1.394 . S
C131 C130 1.397 . S
C131 C132 1.438 . S
C131 C136 1.429 . S
C132 C131 1.438 . S
C132 C133 1.428 . S
C132 C145 1.394 . S
C133 H125 0.949 . S
C133 C132 1.428 . S
C133 C134 1.345 . S
C134 H126 0.950 . S
C134 C133 1.345 . S
C134 C135 1.424 . S
C135 H127 0.951 1_455 S
C135 C134 1.424 . S
C135 C136 1.347 . S
C136 H128 0.951 . S
C136 C131 1.429 . S
C136 C135 1.347 . S
H137 C138 0.951 . S
C138 H137 0.951 . S
C138 C144 1.265 . S
H139 C144 0.950 . S
H140 C148 0.949 . S
H141 C149 0.950 . S
H142 C150 0.951 . S
H143 C151 0.951 . S
C144 C138 1.265 . S
C144 H139 0.950 . S
C144 C145 1.478 . S
C145 C132 1.394 . S
C145 C144 1.478 . S
C145 C146 1.397 . S
C146 C145 1.397 . S
C146 C147 1.438 . S
C146 C151 1.429 . S
C147 C130 1.394 . S
C147 C146 1.438 . S
C147 C148 1.428 . S
C148 H140 0.949 . S
C148 C147 1.428 . S
C148 C149 1.345 . S
C149 H141 0.950 . S
C149 C148 1.345 . S
C149 C150 1.424 . S
C150 H142 0.951 . S
C150 C149 1.424 . S
C150 C151 1.347 . S
C151 H143 0.951 . S
C151 C146 1.429 . S
C151 C150 1.347 . S
H152 C153 0.951 . S
C153 H152 0.951 . S
C153 C159 1.265 . S
H154 C159 0.950 . S
H155 C163 0.949 . S
H156 C164 0.950 . S
H157 C165 0.951 . S
H158 C166 0.951 . S
C159 C153 1.265 . S
C159 H154 0.950 . S
C159 C160 1.478 . S
C160 C159 1.478 . S
C160 C161 1.397 . S
C160 C177 1.394 . S
C161 C160 1.397 . S
C161 C162 1.438 . S
C161 C166 1.429 . S
C162 C161 1.438 . S
C162 C163 1.428 . S
C162 C175 1.394 . S
C163 H155 0.949 . S
C163 C162 1.428 . S
C163 C164 1.345 . S
C164 H156 0.950 . S
C164 C163 1.345 . S
C164 C165 1.424 . S
C165 H157 0.951 . S
C165 C164 1.424 . S
C165 C166 1.347 . S
C166 H158 0.951 . S
C166 C161 1.429 . S
C166 C165 1.347 . S
H167 C168 0.951 . S
C168 H167 0.951 . S
C168 C174 1.265 . S
H169 C174 0.950 . S
H170 C178 0.949 . S
H171 C179 0.950 . S
H172 C180 0.951 1_565 S
H173 C181 0.951 . S
C174 C168 1.265 . S
C174 H169 0.950 . S
C174 C175 1.478 . S
C175 C162 1.394 . S
C175 C174 1.478 . S
C175 C176 1.397 . S
C176 C175 1.397 . S
C176 C177 1.438 . S
C176 C181 1.429 . S
C177 C160 1.394 . S
C177 C176 1.438 . S
C177 C178 1.428 . S
C178 H170 0.949 . S
C178 C177 1.428 . S
C178 C179 1.345 1_545 S
C179 H171 0.950 . S
C179 C178 1.345 1_565 S
C179 C180 1.424 1_565 S
C180 H172 0.951 1_545 S
C180 C179 1.424 1_545 S
C180 C181 1.347 . S
C181 H173 0.951 . S
C181 C176 1.429 . S
C181 C180 1.347 . S
H182 C183 0.951 . S
C183 H182 0.951 . S
C183 C189 1.265 . S
H184 C189 0.950 . S
H185 C193 0.949 . S
H186 C194 0.950 . S
H187 C195 0.951 . S
H188 C196 0.951 . S
C189 C183 1.265 . S
C189 H184 0.950 . S
C189 C190 1.478 . S
C190 C189 1.478 . S
C190 C191 1.397 . S
C190 C207 1.394 . S
C191 C190 1.397 . S
C191 C192 1.438 . S
C191 C196 1.429 . S
C192 C191 1.438 . S
C192 C193 1.428 . S
C192 C205 1.394 . S
C193 H185 0.949 . S
C193 C192 1.428 . S
C193 C194 1.345 . S
C194 H186 0.950 . S
C194 C193 1.345 . S
C194 C195 1.424 . S
C195 H187 0.951 . S
C195 C194 1.424 . S
C195 C196 1.347 . S
C196 H188 0.951 . S
C196 C191 1.429 . S
C196 C195 1.347 . S
H197 C198 0.951 . S
C198 H197 0.951 . S
C198 C204 1.265 . S
H199 C204 0.950 . S
H200 C208 0.949 . S
H201 C209 0.950 . S
H202 C210 0.951 . S
H203 C211 0.951 . S
C204 C198 1.265 . S
C204 H199 0.950 . S
C204 C205 1.478 . S
C205 C192 1.394 . S
C205 C204 1.478 . S
C205 C206 1.397 . S
C206 C205 1.397 . S
C206 C207 1.438 . S
C206 C211 1.429 . S
C207 C190 1.394 . S
C207 C206 1.438 . S
C207 C208 1.428 . S
C208 H200 0.949 . S
C208 C207 1.428 . S
C208 C209 1.345 . S
C209 H201 0.950 . S
C209 C208 1.345 . S
C209 C210 1.424 . S
C210 H202 0.951 . S
C210 C209 1.424 . S
C210 C211 1.347 . S
C211 H203 0.951 . S
C211 C206 1.429 . S
C211 C210 1.347 . S
H212 C213 0.951 . S
C213 H212 0.951 . S
C213 C219 1.265 . S
H214 C219 0.950 . S
H215 C223 0.949 . S
H216 C224 0.950 . S
H217 C225 0.951 . S
H218 C226 0.951 . S
C219 C213 1.265 . S
C219 H214 0.950 . S
C219 C220 1.478 . S
C220 C219 1.478 . S
C220 C221 1.397 . S
C220 C237 1.394 . S
C221 C220 1.397 . S
C221 C222 1.438 . S
C221 C226 1.429 . S
C222 C221 1.438 . S
C222 C223 1.428 . S
C222 C235 1.394 . S
C223 H215 0.949 . S
C223 C222 1.428 . S
C223 C224 1.345 . S
C224 H216 0.950 . S
C224 C223 1.345 . S
C224 C225 1.424 . S
C225 H217 0.951 . S
C225 C224 1.424 . S
C225 C226 1.347 . S
C226 H218 0.951 . S
C226 C221 1.429 . S
C226 C225 1.347 . S
H227 C228 0.951 . S
C228 H227 0.951 . S
C228 C234 1.265 . S
H229 C234 0.950 . S
H230 C238 0.949 . S
H231 C239 0.950 . S
H232 C240 0.951 . S
H233 C241 0.951 . S
C234 C228 1.265 . S
C234 H229 0.950 . S
C234 C235 1.478 . S
C235 C222 1.394 . S
C235 C234 1.478 . S
C235 C236 1.397 . S
C236 C235 1.397 . S
C236 C237 1.438 . S
C236 C241 1.429 . S
C237 C220 1.394 . S
C237 C236 1.438 . S
C237 C238 1.428 . S
C238 H230 0.949 . S
C238 C237 1.428 . S
C238 C239 1.345 . S
C239 H231 0.950 . S
C239 C238 1.345 . S
C239 C240 1.424 . S
C240 H232 0.951 . S
C240 C239 1.424 . S
C240 C241 1.347 . S
C241 H233 0.951 . S
C241 C236 1.429 . S
C241 C240 1.347 . S
H242 C243 0.951 . S
C243 H242 0.951 . S
C243 C249 1.265 . S
H244 C249 0.950 . S
H245 C253 0.949 . S
H246 C254 0.950 . S
H247 C255 0.951 . S
H248 C256 0.951 . S
C249 C243 1.265 . S
C249 H244 0.950 . S
C249 C250 1.478 . S
C250 C249 1.478 . S
C250 C251 1.397 . S
C250 C267 1.394 . S
C251 C250 1.397 . S
C251 C252 1.438 . S
C251 C256 1.429 . S
C252 C251 1.438 . S
C252 C253 1.428 . S
C252 C265 1.394 . S
C253 H245 0.949 . S
C253 C252 1.428 . S
C253 C254 1.345 . S
C254 H246 0.950 . S
C254 C253 1.345 . S
C254 C255 1.424 . S
C255 H247 0.951 . S
C255 C254 1.424 . S
C255 C256 1.347 . S
C256 H248 0.951 . S
C256 C251 1.429 . S
C256 C255 1.347 . S
H257 C258 0.951 . S
C258 H257 0.951 . S
C258 C264 1.265 . S
H259 C264 0.950 . S
H260 C268 0.949 . S
H261 C269 0.950 . S
H262 C270 0.951 . S
H263 C271 0.951 . S
C264 C258 1.265 . S
C264 H259 0.950 . S
C264 C265 1.478 . S
C265 C252 1.394 . S
C265 C264 1.478 . S
C265 C266 1.397 . S
C266 C265 1.397 . S
C266 C267 1.438 . S
C266 C271 1.429 . S
C267 C250 1.394 . S
C267 C266 1.438 . S
C267 C268 1.428 . S
C268 H260 0.949 . S
C268 C267 1.428 . S
C268 C269 1.345 . S
C269 H261 0.950 . S
C269 C268 1.345 . S
C269 C270 1.424 . S
C270 H262 0.951 . S
C270 C269 1.424 . S
C270 C271 1.347 . S
C271 H263 0.951 . S
C271 C266 1.429 . S
C271 C270 1.347 . S
H272 C273 0.951 . S
C273 H272 0.951 . S
C273 C279 1.265 . S
H274 C279 0.950 . S
H275 C283 0.949 . S
H276 C284 0.950 . S
H277 C285 0.951 1_455 S
H278 C286 0.951 . S
C279 C273 1.265 . S
C279 H274 0.950 . S
C279 C280 1.478 . S
C280 C279 1.478 . S
C280 C281 1.397 . S
C280 C297 1.394 . S
C281 C280 1.397 . S
C281 C282 1.438 . S
C281 C286 1.429 . S
C282 C281 1.438 . S
C282 C283 1.428 . S
C282 C295 1.394 . S
C283 H275 0.949 . S
C283 C282 1.428 . S
C283 C284 1.345 . S
C284 H276 0.950 . S
C284 C283 1.345 . S
C284 C285 1.424 . S
C285 H277 0.951 1_655 S
C285 C284 1.424 . S
C285 C286 1.347 . S
C286 H278 0.951 . S
C286 C281 1.429 . S
C286 C285 1.347 . S
H287 C288 0.951 . S
C288 H287 0.951 . S
C288 C294 1.265 . S
H289 C294 0.950 . S
H290 C298 0.949 . S
H291 C299 0.950 . S
H292 C300 0.951 . S
H293 C301 0.951 . S
C294 C288 1.265 . S
C294 H289 0.950 . S
C294 C295 1.478 . S
C295 C282 1.394 . S
C295 C294 1.478 . S
C295 C296 1.397 . S
C296 C295 1.397 . S
C296 C297 1.438 . S
C296 C301 1.429 . S
C297 C280 1.394 . S
C297 C296 1.438 . S
C297 C298 1.428 . S
C298 H290 0.949 . S
C298 C297 1.428 . S
C298 C299 1.345 . S
C299 H291 0.950 . S
C299 C298 1.345 . S
C299 C300 1.424 . S
C300 H292 0.951 . S
C300 C299 1.424 . S
C300 C301 1.347 . S
C301 H293 0.951 . S
C301 C296 1.429 . S
C301 C300 1.347 . S
H302 C303 0.951 . S
C303 H302 0.951 . S
C303 C309 1.265 . S
H304 C309 0.950 . S
H305 C313 0.949 . S
H306 C314 0.950 . S
H307 C315 0.951 . S
H308 C316 0.951 1_545 S
C309 C303 1.265 . S
C309 H304 0.950 . S
C309 C310 1.478 . S
C310 C309 1.478 . S
C310 C311 1.397 . S
C310 C327 1.394 . S
C311 C310 1.397 . S
C311 C312 1.438 . S
C311 C316 1.429 . S
C312 C311 1.438 . S
C312 C313 1.428 . S
C312 C325 1.394 . S
C313 H305 0.949 . S
C313 C312 1.428 . S
C313 C314 1.345 . S
C314 H306 0.950 . S
C314 C313 1.345 . S
C314 C315 1.424 1_565 S
C315 H307 0.951 . S
C315 C314 1.424 1_545 S
C315 C316 1.347 1_545 S
C316 H308 0.951 1_565 S
C316 C311 1.429 . S
C316 C315 1.347 1_565 S
H317 C318 0.951 . S
C318 H317 0.951 . S
C318 C324 1.265 . S
H319 C324 0.950 . S
H320 C328 0.949 . S
H321 C329 0.950 . S
H322 C330 0.951 . S
H323 C331 0.951 . S
C324 C318 1.265 . S
C324 H319 0.950 . S
C324 C325 1.478 . S
C325 C312 1.394 . S
C325 C324 1.478 . S
C325 C326 1.397 . S
C326 C325 1.397 . S
C326 C327 1.438 . S
C326 C331 1.429 . S
C327 C310 1.394 . S
C327 C326 1.438 . S
C327 C328 1.428 . S
C328 H320 0.949 . S
C328 C327 1.428 . S
C328 C329 1.345 . S
C329 H321 0.950 . S
C329 C328 1.345 . S
C329 C330 1.424 . S
C330 H322 0.951 . S
C330 C329 1.424 . S
C330 C331 1.347 . S
C331 H323 0.951 . S
C331 C326 1.429 . S
C331 C330 1.347 . S
H332 C333 0.951 . S
C333 H332 0.951 . S
C333 C339 1.265 . S
H334 C339 0.950 . S
H335 C343 0.949 . S
H336 C344 0.950 . S
H337 C345 0.951 . S
H338 C346 0.951 . S
C339 C333 1.265 . S
C339 H334 0.950 . S
C339 C340 1.478 . S
C340 C339 1.478 . S
C340 C341 1.397 . S
C340 C357 1.394 . S
C341 C340 1.397 . S
C341 C342 1.438 . S
C341 C346 1.429 . S
C342 C341 1.438 . S
C342 C343 1.428 . S
C342 C355 1.394 . S
C343 H335 0.949 . S
C343 C342 1.428 . S
C343 C344 1.345 . S
C344 H336 0.950 . S
C344 C343 1.345 . S
C344 C345 1.424 . S
C345 H337 0.951 . S
C345 C344 1.424 . S
C345 C346 1.347 . S
C346 H338 0.951 . S
C346 C341 1.429 . S
C346 C345 1.347 . S
H347 C348 0.951 . S
C348 H347 0.951 . S
C348 C354 1.265 . S
H349 C354 0.950 . S
H350 C358 0.949 . S
H351 C359 0.950 1_565 S
H352 C360 0.951 . S
H353 C361 0.951 . S
C354 C348 1.265 . S
C354 H349 0.950 . S
C354 C355 1.478 . S
C355 C342 1.394 . S
C355 C354 1.478 . S
C355 C356 1.397 . S
C356 C355 1.397 . S
C356 C357 1.438 . S
C356 C361 1.429 . S
C357 C340 1.394 . S
C357 C356 1.438 . S
C357 C358 1.428 . S
C358 H350 0.949 . S
C358 C357 1.428 . S
C358 C359 1.345 . S
C359 H351 0.950 1_545 S
C359 C358 1.345 . S
C359 C360 1.424 . S
C360 H352 0.951 . S
C360 C359 1.424 . S
C360 C361 1.347 . S
C361 H353 0.951 . S
C361 C356 1.429 . S
C361 C360 1.347 . S
H362 C363 0.951 . S
C363 H362 0.951 . S
C363 C369 1.265 . S
H364 C369 0.950 . S
H365 C373 0.949 . S
H366 C374 0.950 . S
H367 C375 0.951 . S
H368 C376 0.951 . S
C369 C363 1.265 . S
C369 H364 0.950 . S
C369 C370 1.478 . S
C370 C369 1.478 . S
C370 C371 1.397 . S
C370 C387 1.394 . S
C371 C370 1.397 . S
C371 C372 1.438 . S
C371 C376 1.429 . S
C372 C371 1.438 . S
C372 C373 1.428 . S
C372 C385 1.394 . S
C373 H365 0.949 . S
C373 C372 1.428 . S
C373 C374 1.345 . S
C374 H366 0.950 . S
C374 C373 1.345 . S
C374 C375 1.424 . S
C375 H367 0.951 . S
C375 C374 1.424 . S
C375 C376 1.347 . S
C376 H368 0.951 . S
C376 C371 1.429 . S
C376 C375 1.347 . S
H377 C378 0.951 . S
C378 H377 0.951 . S
C378 C384 1.265 . S
H379 C384 0.950 . S
H380 C388 0.949 . S
H381 C389 0.950 . S
H382 C390 0.951 . S
H383 C391 0.951 . S
C384 C378 1.265 . S
C384 H379 0.950 . S
C384 C385 1.478 . S
C385 C372 1.394 . S
C385 C384 1.478 . S
C385 C386 1.397 . S
C386 C385 1.397 . S
C386 C387 1.438 . S
C386 C391 1.429 . S
C387 C370 1.394 . S
C387 C386 1.438 . S
C387 C388 1.428 . S
C388 H380 0.949 . S
C388 C387 1.428 . S
C388 C389 1.345 . S
C389 H381 0.950 . S
C389 C388 1.345 . S
C389 C390 1.424 . S
C390 H382 0.951 . S
C390 C389 1.424 . S
C390 C391 1.347 . S
C391 H383 0.951 . S
C391 C386 1.429 . S
C391 C390 1.347 . S
H392 C393 0.951 . S
C393 H392 0.951 . S
C393 C399 1.265 . S
H394 C399 0.950 . S
H395 C403 0.949 . S
H396 C404 0.950 . S
H397 C405 0.951 . S
H398 C406 0.951 . S
C399 C393 1.265 . S
C399 H394 0.950 . S
C399 C400 1.478 . S
C400 C399 1.478 . S
C400 C401 1.397 . S
C400 C417 1.394 . S
C401 C400 1.397 . S
C401 C402 1.438 . S
C401 C406 1.429 . S
C402 C401 1.438 . S
C402 C403 1.428 . S
C402 C415 1.394 . S
C403 H395 0.949 . S
C403 C402 1.428 . S
C403 C404 1.345 . S
C404 H396 0.950 . S
C404 C403 1.345 . S
C404 C405 1.424 . S
C405 H397 0.951 . S
C405 C404 1.424 . S
C405 C406 1.347 . S
C406 H398 0.951 . S
C406 C401 1.429 . S
C406 C405 1.347 . S
H407 C408 0.951 . S
C408 H407 0.951 . S
C408 C414 1.265 . S
H409 C414 0.950 . S
H410 C418 0.949 . S
H411 C419 0.950 . S
H412 C420 0.951 . S
H413 C421 0.951 . S
C414 C408 1.265 . S
C414 H409 0.950 . S
C414 C415 1.478 . S
C415 C402 1.394 . S
C415 C414 1.478 . S
C415 C416 1.397 . S
C416 C415 1.397 . S
C416 C417 1.438 . S
C416 C421 1.429 . S
C417 C400 1.394 . S
C417 C416 1.438 . S
C417 C418 1.428 . S
C418 H410 0.949 . S
C418 C417 1.428 . S
C418 C419 1.345 . S
C419 H411 0.950 . S
C419 C418 1.345 . S
C419 C420 1.424 . S
C420 H412 0.951 . S
C420 C419 1.424 . S
C420 C421 1.347 . S
C421 H413 0.951 . S
C421 C416 1.429 . S
C421 C420 1.347 . S
H422 C423 0.951 . S
C423 H422 0.951 . S
C423 C429 1.265 . S
H424 C429 0.950 . S
H425 C433 0.949 . S
H426 C434 0.950 . S
H427 C435 0.951 1_545 S
H428 C436 0.951 1_545 S
C429 C423 1.265 . S
C429 H424 0.950 . S
C429 C430 1.478 . S
C430 C429 1.478 . S
C430 C431 1.397 . S
C430 C447 1.394 . S
C431 C430 1.397 . S
C431 C432 1.438 . S
C431 C436 1.429 . S
C432 C431 1.438 . S
C432 C433 1.428 . S
C432 C445 1.394 . S
C433 H425 0.949 . S
C433 C432 1.428 . S
C433 C434 1.345 . S
C434 H426 0.950 . S
C434 C433 1.345 . S
C434 C435 1.424 . S
C435 H427 0.951 1_565 S
C435 C434 1.424 . S
C435 C436 1.347 . S
C436 H428 0.951 1_565 S
C436 C431 1.429 . S
C436 C435 1.347 . S
H437 C438 0.951 . S
C438 H437 0.951 . S
C438 C444 1.265 . S
H439 C444 0.950 . S
H440 C448 0.949 . S
H441 C449 0.950 . S
H442 C450 0.951 . S
H443 C451 0.951 . S
C444 C438 1.265 . S
C444 H439 0.950 . S
C444 C445 1.478 . S
C445 C432 1.394 . S
C445 C444 1.478 . S
C445 C446 1.397 . S
C446 C445 1.397 . S
C446 C447 1.438 . S
C446 C451 1.429 . S
C447 C430 1.394 . S
C447 C446 1.438 . S
C447 C448 1.428 . S
C448 H440 0.949 . S
C448 C447 1.428 . S
C448 C449 1.345 . S
C449 H441 0.950 . S
C449 C448 1.345 . S
C449 C450 1.424 . S
C450 H442 0.951 . S
C450 C449 1.424 . S
C450 C451 1.347 . S
C451 H443 0.951 . S
C451 C446 1.429 . S
C451 C450 1.347 . S
H452 C453 0.951 . S
C453 H452 0.951 . S
C453 C459 1.265 . S
H454 C459 0.950 . S
H455 C463 0.949 . S
H456 C464 0.950 . S
H457 C465 0.951 . S
H458 C466 0.951 . S
C459 C453 1.265 . S
C459 H454 0.950 . S
C459 C460 1.478 . S
C460 C459 1.478 . S
C460 C461 1.397 . S
C460 C477 1.394 . S
C461 C460 1.397 . S
C461 C462 1.438 . S
C461 C466 1.429 . S
C462 C461 1.438 . S
C462 C463 1.428 . S
C462 C475 1.394 . S
C463 H455 0.949 . S
C463 C462 1.428 . S
C463 C464 1.345 . S
C464 H456 0.950 . S
C464 C463 1.345 . S
C464 C465 1.424 . S
C465 H457 0.951 . S
C465 C464 1.424 . S
C465 C466 1.347 . S
C466 H458 0.951 . S
C466 C461 1.429 . S
C466 C465 1.347 . S
H467 C468 0.951 . S
C468 H467 0.951 . S
C468 C474 1.265 . S
H469 C474 0.950 . S
H470 C478 0.949 . S
H471 C479 0.950 1_554 S
H472 C480 0.951 . S
H473 C481 0.951 . S
C474 C468 1.265 . S
C474 H469 0.950 . S
C474 C475 1.478 . S
C475 C462 1.394 . S
C475 C474 1.478 . S
C475 C476 1.397 . S
C476 C475 1.397 . S
C476 C477 1.438 . S
C476 C481 1.429 . S
C477 C460 1.394 . S
C477 C476 1.438 . S
C477 C478 1.428 . S
C478 H470 0.949 . S
C478 C477 1.428 . S
C478 C479 1.345 . S
C479 H471 0.950 1_556 S
C479 C478 1.345 . S
C479 C480 1.424 . S
C480 H472 0.951 . S
C480 C479 1.424 . S
C480 C481 1.347 . S
C481 H473 0.951 . S
C481 C476 1.429 . S
C481 C480 1.347 . S
C123 C15 1.382 . S
C138 C99 1.356 . S
C153 C59 1.207 . S
C168 C105 1.011 . S
C183 C10 1.343 . S
C198 C96 1.196 . S
C213 C46 1.399 . S
C228 C121 1.281 . S
C243 C18 1.888 . S
C258 C87 1.778 . S
C288 C104 1.791 . S
C273 C49 1.918 . S
C303 C55 1.370 . S
C318 C100 1.355 . S
C348 C117 1.865 . S
C333 C9 1.973 . S
C378 C84 1.757 . S
C363 C58 1.875 . S
C408 C120 1.324 . S
C393 C6 1.451 . S
C438 C83 1.133 . S
C423 C50 1.269 . S
C468 C108 1.067 . S
C453 C19 1.246 . S
