# Generated by pormake.
# Topology pth, (4,4)-cn, num edge types: 1
# Building blocks:
#     Node 0, Type 0, BuildingBlock: NAHDIM_clean_sbu_0, # of connection points: 4
#     Node 1, Type 0, BuildingBlock: NAHDIM_clean_sbu_0, # of connection points: 4
#     Node 2, Type 0, BuildingBlock: NAHDIM_clean_sbu_0, # of connection points: 4
#     Node 3, Type 1, BuildingBlock: KOZSID_clean_sbu_0, # of connection points: 4
#     Node 4, Type 1, BuildingBlock: KOZSID_clean_sbu_0, # of connection points: 4
#     Node 5, Type 1, BuildingBlock: KOZSID_clean_sbu_0, # of connection points: 4
#     Edge 6, Type (0, 1), BuildingBlock: ZUJKAS_clean_linker_0, # of connection points: 2
#     Edge 7, Type (0, 1), BuildingBlock: ZUJKAS_clean_linker_0, # of connection points: 2
#     Edge 8, Type (0, 1), BuildingBlock: ZUJKAS_clean_linker_0, # of connection points: 2
#     Edge 9, Type (0, 1), BuildingBlock: ZUJKAS_clean_linker_0, # of connection points: 2
#     Edge 10, Type (0, 1), BuildingBlock: ZUJKAS_clean_linker_0, # of connection points: 2
#     Edge 11, Type (0, 1), BuildingBlock: ZUJKAS_clean_linker_0, # of connection points: 2
#     Edge 12, Type (0, 1), BuildingBlock: ZUJKAS_clean_linker_0, # of connection points: 2
#     Edge 13, Type (0, 1), BuildingBlock: ZUJKAS_clean_linker_0, # of connection points: 2
#     Edge 14, Type (0, 1), BuildingBlock: ZUJKAS_clean_linker_0, # of connection points: 2
#     Edge 15, Type (0, 1), BuildingBlock: ZUJKAS_clean_linker_0, # of connection points: 2
#     Edge 16, Type (0, 1), BuildingBlock: ZUJKAS_clean_linker_0, # of connection points: 2
#     Edge 17, Type (0, 1), BuildingBlock: ZUJKAS_clean_linker_0, # of connection points: 2
# Relax obj value: 0.042
# Max RMSD: 0.168
# Mean RMSD: 0.085
data_MOF--net-pth--node1-NAHDIM_clean_sbu_0--node2-KOZSID_clean_sbu_0--edge1-ZUJKAS_clean_linker_0
_symmetry_space_group_name_H-M    P1
_symmetry_Int_Tables_number       1
_symmetry_cell_setting            triclinic
loop_
_symmetry_equiv_pos_as_xyz
'x, y, z'
_cell_length_a     33.760349
_cell_length_b     33.937144
_cell_length_c     75.632604
_cell_angle_alpha  89.710076
_cell_angle_beta   87.915356
_cell_angle_gamma 120.61582
loop_
_atom_site_label
_atom_site_type_symbol
_atom_site_fract_x
_atom_site_fract_y
_atom_site_fract_z
_atom_type_partial_charge
C0 C 0.03511 0.98031 0.06382 0.0
O1 O 0.99496 0.97722 0.06244 0.0
O2 O 0.04355 0.09352 0.0582 0.0
Zn3 Zn 0.05655 0.05494 0.04156 0.0
O4 O 0.00293 0.01426 0.02671 0.0
C5 C 0.10595 0.13085 0.01866 0.0
O6 O 0.06799 0.13153 0.02233 0.0
O7 O 0.07026 0.01322 0.05576 0.0
C8 C 0.97257 0.02157 0.02064 0.0
O9 O 0.97397 0.0602 0.02394 0.0
C10 C 0.00573 0.08513 0.06577 0.0
O11 O 0.96788 0.04603 0.0632 0.0
O12 O 0.11038 0.09905 0.0255 0.0
C13 C 0.05373 0.14943 0.34292 0.0
O14 O 0.02338 0.10667 0.33962 0.0
O15 O 0.0527 0.05079 0.35511 0.0
Zn16 Zn 0.06587 0.10296 0.37111 0.0
O17 O 0.01027 0.08848 0.38677 0.0
C18 C 0.12048 0.08 0.39127 0.0
O19 O 0.08695 0.03919 0.38723 0.0
O20 O 0.07904 0.15779 0.35607 0.0
C21 C 0.00519 0.07786 0.40317 0.0
O22 O 0.03714 0.0738 0.41093 0.0
C23 C 0.01779 0.01066 0.35695 0.0
O24 O 0.98705 0.00155 0.36988 0.0
O25 O 0.1197 0.11509 0.38579 0.0
C26 C 0.13039 0.05006 0.68608 0.0
O27 O 0.13894 0.09023 0.69152 0.0
O28 O 0.0073 0.03448 0.69276 0.0
Zn29 Zn 0.04962 0.0239 0.70739 0.0
O30 O 0.08769 0.07811 0.72237 0.0
C31 C 0.01236 0.96672 0.7395 0.0
O32 O 0.04659 0.00163 0.74704 0.0
O33 O 0.09281 0.01446 0.69122 0.0
C34 C 0.07346 0.10066 0.73114 0.0
O35 O 0.02983 0.08863 0.73093 0.0
C36 C 0.01909 0.06995 0.68319 0.0
O37 O 0.06215 0.10366 0.68261 0.0
O38 O 0.0088 0.96819 0.72286 0.0
C39 C 0.0687 0.63448 0.17915 0.0
C40 C 0.11204 0.66762 0.17238 0.0
C41 C 0.14336 0.66338 0.1818 0.0
C42 C 0.11755 0.62823 0.19377 0.0
N43 N 0.07153 0.6094 0.19251 0.0
Co44 Co 0.02151 0.55841 0.20773 0.0
N45 N 0.0679 0.55393 0.22216 0.0
C46 C 0.11436 0.57976 0.22015 0.0
C47 C 0.13721 0.56796 0.23166 0.0
C48 C 0.10342 0.53217 0.24155 0.0
C49 C 0.06165 0.52432 0.23553 0.0
N50 N 0.97151 0.5073 0.2229 0.0
C51 C 0.97446 0.48208 0.23618 0.0
C52 C 0.93128 0.44944 0.2432 0.0
C53 C 0.89981 0.45367 0.23382 0.0
C54 C 0.92546 0.48858 0.22172 0.0
N55 N 0.97515 0.56305 0.19333 0.0
C56 C 0.92866 0.53721 0.19528 0.0
C57 C 0.90601 0.54879 0.18356 0.0
C58 C 0.93997 0.58446 0.17361 0.0
C59 C 0.98154 0.59267 0.17992 0.0
N60 N 0.02092 0.51272 0.19128 0.0
C61 C 0.01916 0.44531 0.16918 0.0
C62 C 0.97847 0.44342 0.17491 0.0
C63 C 0.98013 0.47712 0.18584 0.0
C64 C 0.06088 0.48188 0.1745 0.0
C65 C 0.06097 0.51505 0.18541 0.0
N66 N 0.02188 0.6039 0.22422 0.0
C67 C 0.98057 0.63183 0.24184 0.0
C68 C 0.0217 0.66819 0.24762 0.0
C69 C 0.06303 0.67194 0.24144 0.0
C70 C 0.06234 0.63969 0.22984 0.0
C71 C 0.98145 0.60042 0.23028 0.0
H72 H 0.09493 0.64444 0.2256 0.0
H73 H 0.94889 0.57378 0.22638 0.0
H74 H 0.94784 0.47322 0.18987 0.0
H75 H 0.09382 0.54206 0.189 0.0
C76 C 0.13558 0.61347 0.2068 0.0
C77 C 0.02608 0.62958 0.17296 0.0
C78 C 0.01712 0.48699 0.24234 0.0
C79 C 0.90732 0.50338 0.20867 0.0
H80 H 0.12031 0.69289 0.16194 0.0
H81 H 0.18053 0.6841 0.18036 0.0
H82 H 0.17406 0.58289 0.23247 0.0
H83 H 0.10912 0.51343 0.25177 0.0
H84 H 0.92339 0.42478 0.25385 0.0
H85 H 0.86265 0.43323 0.23545 0.0
H86 H 0.86918 0.53357 0.18255 0.0
H87 H 0.93478 0.60274 0.16303 0.0
H88 H 0.94524 0.41546 0.17131 0.0
H89 H 0.09338 0.4851 0.1702 0.0
H90 H 0.94765 0.62788 0.24598 0.0
H91 H 0.09584 0.69934 0.24566 0.0
C92 C 0.48613 0.02138 0.56732 0.0
C93 C 0.4538 0.97747 0.57347 0.0
C94 C 0.4592 0.94794 0.56292 0.0
C95 C 0.49454 0.97538 0.55106 0.0
N96 N 0.51253 0.02072 0.55355 0.0
Co97 Co 0.5645 0.07273 0.53947 0.0
N98 N 0.56949 0.02928 0.52295 0.0
C99 C 0.54242 0.98311 0.52307 0.0
C100 C 0.55457 0.9627 0.51009 0.0
C101 C 0.59212 0.99785 0.50133 0.0
C102 C 0.60075 0.03774 0.50958 0.0
N103 N 0.6172 0.12469 0.52555 0.0
C104 C 0.64467 0.12375 0.51224 0.0
C105 C 0.67922 0.16749 0.50686 0.0
C106 C 0.67376 0.19721 0.51731 0.0
C107 C 0.63646 0.17001 0.52845 0.0
N108 N 0.55878 0.11619 0.55582 0.0
C109 C 0.58446 0.16251 0.55514 0.0
C110 C 0.57073 0.18305 0.56749 0.0
C111 C 0.5336 0.14784 0.57643 0.0
C112 C 0.52696 0.10765 0.56904 0.0
N113 N 0.60936 0.0702 0.55499 0.0
C114 C 0.67662 0.06825 0.57536 0.0
C115 C 0.67714 0.10908 0.57225 0.0
C116 C 0.64352 0.10926 0.56215 0.0
C117 C 0.64125 0.02815 0.56841 0.0
C118 C 0.60822 0.02988 0.55834 0.0
N119 N 0.5198 0.07546 0.5239 0.0
C120 C 0.49358 0.11969 0.50826 0.0
C121 C 0.45552 0.07988 0.50249 0.0
C122 C 0.45025 0.03775 0.50752 0.0
C123 C 0.48246 0.03633 0.51819 0.0
C124 C 0.52503 0.11672 0.5188 0.0
H125 H 0.47622 0.0032 0.52175 0.0
H126 H 0.55319 0.14837 0.52269 0.0
H127 H 0.64621 0.14157 0.56023 0.0
H128 H 0.58247 0.99829 0.55323 0.0
C129 C 0.50886 0.95969 0.53656 0.0
C130 C 0.48855 0.06239 0.57432 0.0
C131 C 0.64089 0.08231 0.50506 0.0
C132 C 0.62006 0.18579 0.54228 0.0
H133 H 0.42813 0.96784 0.58418 0.0
H134 H 0.43879 0.9109 0.56345 0.0
H135 H 0.53911 0.92646 0.50774 0.0
H136 H 0.61187 0.99446 0.49047 0.0
H137 H 0.70623 0.17687 0.49673 0.0
H138 H 0.69523 0.23416 0.51714 0.0
H139 H 0.58522 0.21934 0.56944 0.0
H140 H 0.51314 0.15152 0.5869 0.0
H141 H 0.70329 0.14092 0.57766 0.0
H142 H 0.63952 0.99567 0.5704 0.0
H143 H 0.49947 0.15317 0.5045 0.0
H144 H 0.42098 0.00593 0.5035 0.0
C145 C 0.60794 0.59626 0.84492 0.0
C146 C 0.63998 0.58536 0.83828 0.0
C147 C 0.63301 0.54798 0.84781 0.0
C148 C 0.59728 0.53826 0.85964 0.0
N149 N 0.58057 0.5668 0.85811 0.0
Co150 Co 0.52901 0.56535 0.8727 0.0
N151 N 0.5226 0.51396 0.88813 0.0
C152 C 0.54842 0.49388 0.88704 0.0
C153 C 0.53589 0.45945 0.89939 0.0
C154 C 0.49971 0.45713 0.90893 0.0
C155 C 0.49229 0.49055 0.90181 0.0
N156 N 0.47657 0.56304 0.887 0.0
C157 C 0.44974 0.53399 0.90044 0.0
C158 C 0.41596 0.54318 0.90638 0.0
C159 C 0.42117 0.57891 0.89617 0.0
C160 C 0.45769 0.58949 0.88463 0.0
N161 N 0.53652 0.61776 0.85759 0.0
C162 C 0.51157 0.63874 0.85888 0.0
C163 C 0.52656 0.67531 0.84731 0.0
C164 C 0.56385 0.67843 0.83828 0.0
C165 C 0.56933 0.6434 0.8449 0.0
N166 N 0.48388 0.52051 0.8564 0.0
C167 C 0.41583 0.45453 0.8351 0.0
C168 C 0.4171 0.49537 0.83882 0.0
C169 C 0.45109 0.52755 0.84935 0.0
C170 C 0.44996 0.44775 0.84185 0.0
C171 C 0.48342 0.48094 0.85236 0.0
N172 N 0.57381 0.6101 0.88902 0.0
C173 C 0.5996 0.67727 0.90669 0.0
C174 C 0.63764 0.6749 0.91181 0.0
C175 C 0.64329 0.63952 0.90529 0.0
C176 C 0.61111 0.60762 0.89403 0.0
C177 C 0.56848 0.6449 0.8954 0.0
H178 H 0.61712 0.58132 0.88952 0.0
H179 H 0.54055 0.64901 0.89194 0.0
H180 H 0.44971 0.55764 0.85169 0.0
H181 H 0.50813 0.47349 0.85724 0.0
C182 C 0.58192 0.50575 0.87345 0.0
C183 C 0.60709 0.63677 0.83915 0.0
C184 C 0.45444 0.49689 0.90782 0.0
C185 C 0.47527 0.62423 0.87154 0.0
H186 H 0.6666 0.60342 0.828 0.0
H187 H 0.65282 0.53107 0.84673 0.0
H188 H 0.55046 0.43773 0.90094 0.0
H189 H 0.48033 0.43275 0.91962 0.0
H190 H 0.39006 0.52563 0.91695 0.0
H191 H 0.40061 0.59508 0.89699 0.0
H192 H 0.51268 0.69766 0.84588 0.0
H193 H 0.58513 0.70401 0.82817 0.0
H194 H 0.39202 0.50269 0.83358 0.0
H195 H 0.45034 0.41653 0.83938 0.0
H196 H 0.59415 0.70451 0.91114 0.0
H197 H 0.6721 0.63609 0.90901 0.0
H198 H 0.07847 0.16831 0.07376 0.0
H199 H 0.07748 0.22736 0.09164 0.0
H200 H 0.93049 0.14174 0.10084 0.0
H201 H 0.93109 0.08184 0.08304 0.0
H202 H 0.02849 0.2721 0.08547 0.0
H203 H 0.97913 0.18028 0.15091 0.0
H204 H 0.00012 0.16194 0.13228 0.0
H205 H 0.94185 0.15018 0.13328 0.0
C206 C 0.04586 0.16176 0.07964 0.0
C207 C 0.00481 0.12025 0.077 0.0
C208 C 0.04542 0.19564 0.08984 0.0
C209 C 0.00403 0.18873 0.09767 0.0
C210 C 0.96291 0.14739 0.09512 0.0
H211 H 0.96518 0.40452 0.14112 0.0
H212 H 0.96042 0.34193 0.12362 0.0
C213 C 0.9633 0.11332 0.08489 0.0
C214 C 0.00422 0.22562 0.10807 0.0
H215 H 0.98576 0.25307 0.14971 0.0
C216 C 0.01902 0.26796 0.09951 0.0
C217 C 0.9923 0.22011 0.1264 0.0
C218 C 0.97779 0.17585 0.13636 0.0
C219 C 0.02228 0.30508 0.1088 0.0
C220 C 0.00984 0.29943 0.12707 0.0
C221 C 0.99504 0.25711 0.13566 0.0
C222 C 0.01278 0.33736 0.1376 0.0
C223 C 0.04001 0.35034 0.09908 0.0
C224 C 0.04336 0.35501 0.15139 0.0
C225 C 0.046 0.39059 0.16147 0.0
C226 C 0.01777 0.40883 0.15802 0.0
C227 C 0.98714 0.39097 0.14418 0.0
C228 C 0.98462 0.3555 0.13408 0.0
H229 H 0.05777 0.3519 0.08621 0.0
H230 H 0.01061 0.35513 0.0964 0.0
H231 H 0.0643 0.37918 0.10721 0.0
H232 H 0.06522 0.34125 0.15433 0.0
H233 H 0.06945 0.40317 0.1722 0.0
H234 H 0.93805 0.09296 0.39178 0.0
H235 H 0.87601 0.09251 0.4096 0.0
H236 H 0.91965 0.0529 0.45592 0.0
H237 H 0.98247 0.05407 0.43828 0.0
H238 H 0.80337 0.02326 0.42994 0.0
H239 H 0.91996 0.16822 0.47144 0.0
H240 H 0.93994 0.15409 0.45134 0.0
H241 H 0.93018 0.12122 0.47142 0.0
C242 C 0.93441 0.08397 0.40575 0.0
C243 C 0.96549 0.07399 0.41366 0.0
C244 C 0.89892 0.08373 0.4159 0.0
C245 C 0.89385 0.07355 0.43412 0.0
C246 C 0.9237 0.0619 0.44195 0.0
H247 H 0.70254 0.06092 0.51672 0.0
H248 H 0.76419 0.05864 0.4993 0.0
C249 C 0.95938 0.06232 0.43182 0.0
C250 C 0.8575 0.07558 0.44489 0.0
H251 H 0.8402 0.1307 0.47928 0.0
C252 C 0.81137 0.0468 0.4407 0.0
C253 C 0.86817 0.10644 0.45889 0.0
C254 C 0.91725 0.13957 0.46348 0.0
C255 C 0.77548 0.04762 0.45032 0.0
C256 C 0.78619 0.0785 0.46428 0.0
C257 C 0.83225 0.10713 0.46853 0.0
C258 C 0.74997 0.0813 0.47478 0.0
C259 C 0.72636 0.01489 0.44567 0.0
C260 C 0.72234 0.09564 0.46679 0.0
C261 C 0.68738 0.09705 0.47672 0.0
C262 C 0.68 0.08445 0.49474 0.0
C263 C 0.70812 0.07098 0.50282 0.0
C264 C 0.74307 0.06962 0.49291 0.0
H265 H 0.72346 0.98647 0.43751 0.0
H266 H 0.70371 7e-05 0.45781 0.0
H267 H 0.71354 0.03371 0.43796 0.0
H268 H 0.72768 0.10546 0.45287 0.0
H269 H 0.66571 0.10731 0.47033 0.0
H270 H 0.93715 0.88943 0.72808 0.0
H271 H 0.86997 0.83282 0.74595 0.0
H272 H 0.93445 0.90222 0.79339 0.0
H273 H 0.00179 0.95929 0.77563 0.0
H274 H 0.8612 0.77382 0.77523 0.0
H275 H 0.81092 0.90145 0.79361 0.0
H276 H 0.85215 0.9116 0.77571 0.0
H277 H 0.86886 0.91687 0.79824 0.0
C278 C 0.93732 0.89244 0.74233 0.0
C279 C 0.97463 0.92918 0.75042 0.0
C280 C 0.89891 0.86005 0.75251 0.0
C281 C 0.89701 0.86394 0.77092 0.0
C282 C 0.93503 0.89919 0.77914 0.0
H283 H 0.68085 0.71148 0.85184 0.0
H284 H 0.75178 0.76746 0.83522 0.0
C285 C 0.97356 0.93158 0.76898 0.0
C286 C 0.85446 0.83204 0.78138 0.0
H287 H 0.76545 0.82697 0.80626 0.0
C288 C 0.84021 0.78534 0.78202 0.0
C289 C 0.82726 0.84735 0.79017 0.0
C290 C 0.8402 0.89697 0.78935 0.0
C291 C 0.79956 0.75347 0.79143 0.0
C292 C 0.77213 0.76873 0.80009 0.0
C293 C 0.78657 0.81547 0.79955 0.0
C294 C 0.7284 0.73663 0.80986 0.0
C295 C 0.78669 0.70388 0.79228 0.0
C296 C 0.69146 0.70174 0.80098 0.0
C297 C 0.65111 0.67007 0.81043 0.0
C298 C 0.64725 0.67318 0.82881 0.0
C299 C 0.6834 0.70891 0.83762 0.0
C300 C 0.72374 0.7406 0.82818 0.0
H301 H 0.81662 0.69977 0.7888 0.0
H302 H 0.77272 0.68857 0.80571 0.0
H303 H 0.75963 0.68436 0.78273 0.0
H304 H 0.69413 0.69868 0.7868 0.0
H305 H 0.6234 0.64252 0.8035 0.0
H306 H 0.11114 0.97209 0.068 0.0
H307 H 0.11461 0.91175 0.08467 0.0
H308 H 0.97032 0.84944 0.09985 0.0
H309 H 0.96632 0.9088 0.08317 0.0
H310 H 0.09477 0.88736 0.12058 0.0
H311 H 0.97868 0.74269 0.07929 0.0
H312 H 0.00407 0.80178 0.07204 0.0
H313 H 0.95362 0.77565 0.08674 0.0
C314 C 0.08016 0.94546 0.07487 0.0
C315 C 0.03839 0.94506 0.07416 0.0
C316 C 0.08221 0.91105 0.08436 0.0
C317 C 0.04249 0.87568 0.09318 0.0
C318 C 0.00108 0.87578 0.09277 0.0
H319 H 0.00766 0.69675 0.18052 0.0
H320 H 0.01449 0.75707 0.16037 0.0
C321 C -0.00103 0.90997 0.0833 0.0
C322 C 0.04418 0.83917 0.10331 0.0
H323 H 0.99242 0.72298 0.10797 0.0
C324 C 0.07282 0.85143 0.11772 0.0
C325 C 0.01604 0.79238 0.09937 0.0
C326 C 0.98672 0.77729 0.08341 0.0
C327 C 0.07255 0.81797 0.12879 0.0
C328 C 0.04222 0.77112 0.1255 0.0
C329 C 0.01513 0.75892 0.11062 0.0
C330 C 0.0373 0.73425 0.13756 0.0
C331 C 0.1047 0.8331 0.1439 0.0
C332 C 0.04615 0.70052 0.13124 0.0
C333 C 0.0417 0.66588 0.14268 0.0
C334 C 0.02824 0.66456 0.16054 0.0
C335 C 0.0183 0.69753 0.16677 0.0
C336 C 0.02262 0.73206 0.15534 0.0
H337 H 0.13444 0.86839 0.14152 0.0
H338 H 0.08575 0.83304 0.15621 0.0
H339 H 0.11796 0.80956 0.14604 0.0
H340 H 0.05709 0.70139 0.11753 0.0
H341 H 0.04934 0.6405 0.13769 0.0
H342 H 0.19693 0.15857 0.4017 0.0
H343 H 0.25664 0.16416 0.42087 0.0
H344 H 0.18638 0.01686 0.4256 0.0
H345 H 0.12683 0.01083 0.4066 0.0
H346 H 0.21298 0.06582 0.45859 0.0
H347 H 0.35609 0.12844 0.40725 0.0
H348 H 0.32495 0.15847 0.4088 0.0
H349 H 0.29633 0.1004 0.40167 0.0
C350 C 0.19431 0.12741 0.40678 0.0
C351 C 0.15719 0.08426 0.4026 0.0
C352 C 0.22848 0.13067 0.41767 0.0
C353 C 0.22593 0.09089 0.42451 0.0
C354 C 0.1889 0.04792 0.42041 0.0
H355 H 0.41596 0.03085 0.47312 0.0
H356 H 0.36051 0.03582 0.4546 0.0
C357 C 0.15496 0.0446 0.40951 0.0
C358 C 0.26128 0.09349 0.43619 0.0
H359 H 0.37273 0.11821 0.43634 0.0
C360 C 0.24803 0.07759 0.4538 0.0
C361 C 0.30672 0.10847 0.42978 0.0
C362 C 0.3221 0.12469 0.41082 0.0
C363 C 0.27906 0.07592 0.46518 0.0
C364 C 0.32448 0.09079 0.45876 0.0
C365 C 0.33786 0.10702 0.44119 0.0
C366 C 0.35813 0.08825 0.46994 0.0
C367 C 0.26277 0.05709 0.48383 0.0
C368 C 0.37514 0.11627 0.48461 0.0
C369 C 0.40666 0.11344 0.49521 0.0
C370 C 0.42168 0.08251 0.49132 0.0
C371 C 0.40459 0.05457 0.47657 0.0
C372 C 0.37324 0.0576 0.46592 0.0
H373 H 0.22466 0.03938 0.48569 0.0
H374 H 0.27418 0.03269 0.48731 0.0
H375 H 0.27804 0.08565 0.4932 0.0
H376 H 0.36409 0.14037 0.48782 0.0
H377 H 0.41894 0.13514 0.50657 0.0
H378 H 0.16595 0.13575 0.73269 0.0
H379 H 0.22007 0.19839 0.75059 0.0
H380 H 0.11001 0.21671 0.77133 0.0
H381 H 0.05512 0.15348 0.75349 0.0
H382 H 0.24029 0.29108 0.75038 0.0
H383 H 0.17024 0.20191 0.81589 0.0
H384 H 0.15661 0.17162 0.79538 0.0
H385 H 0.12973 0.20378 0.80162 0.0
C386 C 0.15307 0.15297 0.74106 0.0
C387 C 0.10611 0.13944 0.74174 0.0
C388 C 0.18413 0.18883 0.75125 0.0
C389 C 0.16891 0.21175 0.7624 0.0
C390 C 0.12224 0.19891 0.76298 0.0
H391 H 0.32417 0.42672 0.83689 0.0
H392 H 0.26352 0.37001 0.81882 0.0
C393 C 0.09101 0.16296 0.75273 0.0
C394 C 0.20238 0.24912 0.77333 0.0
H395 H 0.23362 0.27732 0.8159 0.0
C396 C 0.23878 0.28823 0.76471 0.0
C397 C 0.20011 0.24521 0.792 0.0
C398 C 0.16232 0.2033 0.80184 0.0
C399 C 0.27329 0.32355 0.77429 0.0
C400 C 0.27175 0.31909 0.79294 0.0
C401 C 0.23474 0.28047 0.80159 0.0
C402 C 0.3087 0.35372 0.80371 0.0
C403 C 0.31091 0.36543 0.76438 0.0
C404 C 0.35407 0.36284 0.80135 0.0
C405 C 0.38888 0.39542 0.81156 0.0
C406 C 0.37887 0.41932 0.8244 0.0
C407 C 0.33318 0.40951 0.8269 0.0
C408 C 0.29842 0.37693 0.81668 0.0
H409 H 0.30031 0.36931 0.75104 0.0
H410 H 0.32063 0.39698 0.77182 0.0
H411 H 0.34186 0.36214 0.76259 0.0
H412 H 0.36252 0.34461 0.79163 0.0
H413 H 0.42372 0.40233 0.80925 0.0
H414 H 0.03298 0.13673 0.65901 0.0
H415 H 0.97546 0.13855 0.64069 0.0
H416 H 0.87009 0.00999 0.66455 0.0
H417 H 0.92693 0.00791 0.68293 0.0
H418 H 0.91831 0.07037 0.61629 0.0
H419 H 0.8155 0.09432 0.66956 0.0
H420 H 0.87325 0.10578 0.67251 0.0
H421 H 0.82542 0.04791 0.67363 0.0
C422 C 0.9975 0.10903 0.66045 0.0
C423 C 0.98452 0.07224 0.67246 0.0
C424 C 0.96476 0.1101 0.64996 0.0
C425 C 0.91852 0.07469 0.65145 0.0
C426 C 0.90547 0.03803 0.66343 0.0
H427 H 0.66618 0.0053 0.60071 0.0
H428 H 0.72602 0.00637 0.61842 0.0
C429 C 0.9381 0.03683 0.67386 0.0
C430 C 0.88401 0.075 0.64005 0.0
H431 H 0.78311 0.07546 0.64131 0.0
C432 C 0.8889 0.07184 0.6217 0.0
C433 C 0.84567 0.07669 0.64723 0.0
C434 C 0.83968 0.08177 0.6668 0.0
C435 C 0.85577 0.06923 0.61033 0.0
C436 C 0.81726 0.07065 0.61752 0.0
C437 C 0.81258 0.07416 0.63586 0.0
C438 C 0.78158 0.06904 0.60624 0.0
C439 C 0.86163 0.06379 0.59078 0.0
C440 C 0.79308 0.10396 0.59357 0.0
C441 C 0.7591 0.1033 0.58339 0.0
C442 C 0.71287 0.06786 0.58577 0.0
C443 C 0.70152 0.03276 0.59841 0.0
C444 C 0.73558 0.03348 0.60861 0.0
H445 H 0.88596 0.05139 0.58806 0.0
H446 H 0.82807 0.03949 0.58514 0.0
H447 H 0.87567 0.09749 0.58385 0.0
H448 H 0.82826 0.1321 0.59174 0.0
H449 H 0.76905 0.13058 0.57363 0.0
H450 H 0.90333 0.02575 0.00446 0.0
H451 H 0.84327 0.9668 0.9867 0.0
H452 H 0.89962 0.8794 0.99468 0.0
H453 H 0.95926 0.93757 0.0125 0.0
H454 H 0.85491 0.92734 0.95545 0.0
H455 H 0.7623 0.79686 0.00933 0.0
H456 H 0.80265 0.85626 0.01354 0.0
H457 H 0.82316 0.81828 0.00765 0.0
C458 C 0.90279 0.9939 0.0025 0.0
C459 C 0.93597 0.9863 0.00996 0.0
C460 C 0.86851 0.96032 0.99235 0.0
C461 C 0.86669 0.91857 0.98962 0.0
C462 C 0.89992 0.91106 0.99692 0.0
H463 H 0.73182 0.71808 0.9092 0.0
H464 H 0.78684 0.77755 0.92823 0.0
C465 C 0.93415 0.94451 0.00703 0.0
C466 C 0.83091 0.88314 0.97872 0.0
H467 H 0.74321 0.77172 0.97984 0.0
C468 C 0.83025 0.8934 0.96078 0.0
C469 C 0.79854 0.8391 0.9858 0.0
C470 C 0.79626 0.82697 0.00518 0.0
C471 C 0.79877 0.86027 0.94958 0.0
C472 C 0.76769 0.81566 0.9565 0.0
C473 C 0.76752 0.8058 0.97455 0.0
C474 C 0.73462 0.77885 0.94526 0.0
C475 C 0.79877 0.87339 0.93049 0.0
C476 C 0.68714 0.75893 0.94891 0.0
C477 C 0.6557 0.7247 0.9382 0.0
C478 C 0.67118 0.70957 0.92369 0.0
C479 C 0.71883 0.72883 0.92033 0.0
C480 C 0.75028 0.76315 0.93105 0.0
H481 H 0.81625 0.91114 0.92842 0.0
H482 H 0.81743 0.86077 0.92211 0.0
H483 H 0.76306 0.85769 0.92594 0.0
H484 H 0.6744 0.77029 0.95993 0.0
H485 H 0.61921 0.71002 0.9413 0.0
H486 H 0.07413 0.01937 0.32856 0.0
H487 H 0.07093 0.95854 0.31049 0.0
H488 H 0.95082 0.85822 0.34119 0.0
H489 H 0.95332 0.91904 0.35927 0.0
H490 H 0.07725 0.88425 0.32299 0.0
H491 H 0.91279 0.82636 0.28984 0.0
H492 H 0.94286 0.88045 0.30076 0.0
H493 H 0.90931 0.82815 0.31356 0.0
C494 C 0.04672 0.98444 0.33139 0.0
C495 C 0.01396 0.97402 0.34537 0.0
C496 C 0.04501 0.94974 0.32106 0.0
C497 C 0.01045 0.90401 0.32442 0.0
C498 C 0.97731 0.89343 0.3382 0.0
H499 H 0.96259 0.65193 0.27615 0.0
H500 H 0.95991 0.70825 0.29545 0.0
C501 C 0.97892 0.9282 0.34856 0.0
C502 C 0.01075 0.86741 0.31399 0.0
H503 H 0.94942 0.78343 0.28486 0.0
C504 C 0.04934 0.86221 0.31463 0.0
C505 C 0.97414 0.83863 0.30321 0.0
C506 C 0.93254 0.84374 0.30163 0.0
C507 C 0.05236 0.82894 0.30474 0.0
C508 C 0.01611 0.80066 0.29375 0.0
C509 C 0.97716 0.8053 0.29331 0.0
C510 C 0.01845 0.7667 0.28228 0.0
C511 C 0.09407 0.82399 0.30626 0.0
C512 C 0.05212 0.7811 0.26846 0.0
C513 C 0.0536 0.7491 0.25733 0.0
C514 C 0.02125 0.70213 0.25981 0.0
C515 C 0.98765 0.68789 0.27375 0.0
C516 C 0.98616 0.71994 0.28483 0.0
H517 H 0.1129 0.84003 0.31838 0.0
H518 H 0.08409 0.78734 0.30648 0.0
H519 H 0.11802 0.84115 0.29462 0.0
H520 H 0.07681 0.81718 0.26609 0.0
H521 H 0.07939 0.76125 0.24655 0.0
H522 H 0.21537 0.11939 0.67492 0.0
H523 H 0.27133 0.11529 0.65494 0.0
H524 H 0.17845 0.97025 0.64981 0.0
H525 H 0.12213 0.97383 0.67015 0.0
H526 H 0.2684 0.99277 0.65525 0.0
H527 H 0.26403 0.10169 0.6015 0.0
H528 H 0.27528 0.12884 0.62251 0.0
H529 H 0.22082 0.07759 0.6194 0.0
C530 C 0.20664 0.08656 0.66953 0.0
C531 C 0.16415 0.04695 0.67404 0.0
C532 C 0.23862 0.08437 0.65802 0.0
C533 C 0.22864 0.04267 0.65063 0.0
C534 C 0.18659 0.00284 0.65528 0.0
H535 H 0.4026 0.03525 0.56398 0.0
H536 H 0.33657 0.0256 0.58233 0.0
C537 C 0.15451 0.00495 0.66689 0.0
C538 C 0.26285 0.04088 0.63838 0.0
H539 H 0.32802 0.08963 0.60034 0.0
C540 C 0.28114 0.01354 0.64314 0.0
C541 C 0.27883 0.06744 0.62245 0.0
C542 C 0.25839 0.09518 0.61605 0.0
C543 C 0.31637 0.01345 0.63273 0.0
C544 C 0.33428 0.04219 0.61737 0.0
C545 C 0.3147 0.06812 0.61226 0.0
C546 C 0.37371 0.04644 0.6065 0.0
C547 C 0.33391 0.98248 0.63823 0.0
C548 C 0.41649 0.06173 0.61398 0.0
C549 C 0.45398 0.067 0.60354 0.0
C550 C 0.44932 0.05775 0.58545 0.0
C551 C 0.40672 0.04271 0.57793 0.0
C552 C 0.36919 0.03719 0.58838 0.0
H553 H 0.30796 0.95338 0.64681 0.0
H554 H 0.34307 0.9686 0.62654 0.0
H555 H 0.36523 0.00232 0.6459 0.0
H556 H 0.42102 0.07006 0.62784 0.0
H557 H 0.48664 0.07845 0.60953 0.0
H558 H 0.10199 0.19751 0.00011 0.0
H559 H 0.16291 0.25948 0.98176 0.0
H560 H 0.25489 0.21042 0.99315 0.0
H561 H 0.19354 0.14741 0.01139 0.0
H562 H 0.24751 0.32804 0.99167 0.0
H563 H 0.26605 0.22374 0.93921 0.0
H564 H 0.21763 0.20032 0.95501 0.0
H565 H 0.27215 0.20874 0.96134 0.0
C566 C 0.13506 0.19962 -0.00134 0.0
C567 C 0.1429 0.16743 0.00717 0.0
C568 C 0.16987 0.23516 0.98818 0.0
C569 C 0.21324 0.23931 0.98596 0.0
C570 C 0.22136 0.20733 0.99444 0.0
H571 H 0.45917 0.48558 0.94319 0.0
H572 H 0.40094 0.42377 0.96289 0.0
C573 C 0.18636 0.17148 0.0049 0.0
C574 C 0.24996 0.27789 0.97506 0.0
H575 H 0.31904 0.30355 0.93762 0.0
C576 C 0.26325 0.32274 0.97986 0.0
C577 C 0.26997 0.27077 0.95957 0.0
C578 C 0.25554 0.22333 0.95333 0.0
C579 C 0.29597 0.36075 0.96955 0.0
C580 C 0.3165 0.35365 0.95422 0.0
C581 C 0.30333 0.30882 0.94944 0.0
C582 C 0.35101 0.39217 0.94268 0.0
C583 C 0.3073 0.40804 0.97491 0.0
C584 C 0.34235 0.39457 0.9248 0.0
C585 C 0.37559 0.4295 0.9136 0.0
C586 C 0.41794 0.46236 0.92011 0.0
C587 C 0.42644 0.46056 0.93803 0.0
C588 C 0.39325 0.42549 0.94923 0.0
H589 H 0.28034 0.40681 0.98416 0.0
H590 H 0.34034 0.42471 0.98171 0.0
H591 H 0.31125 0.42968 0.96315 0.0
H592 H 0.31001 0.36913 0.9195 0.0
H593 H 0.36871 0.43038 0.89976 0.0
H594 H 0.01526 0.14301 0.31129 0.0
H595 H 0.01079 0.20291 0.2951 0.0
H596 H 0.08809 0.29969 0.33492 0.0
H597 H 0.09382 0.2401 0.35099 0.0
H598 H 0.9692 0.24854 0.30671 0.0
H599 H 0.15404 0.37185 0.29 0.0
H600 H 0.13361 0.31411 0.29792 0.0
H601 H 0.14121 0.35763 0.3132 0.0
C602 C 0.03189 0.1772 0.31649 0.0
C603 C 0.05494 0.18687 0.33241 0.0
C604 C 0.02922 0.21137 0.30723 0.0
C605 C 0.0494 0.25585 0.31372 0.0
C606 C 0.0731 0.26586 0.32947 0.0
H607 H 0.03913 0.49469 0.27696 0.0
H608 H 0.0444 0.43796 0.29557 0.0
C609 C 0.0762 0.23173 0.33868 0.0
C610 C 0.04322 0.29077 0.30443 0.0
H611 H 0.10135 0.39641 0.28393 0.0
C612 C 0.99812 0.28083 0.30171 0.0
C613 C 0.08101 0.33293 0.29795 0.0
C614 C 0.1302 0.34471 0.29975 0.0
C615 C 0.98979 0.31185 0.29264 0.0
C616 C 0.02751 0.35378 0.28614 0.0
C617 C 0.07258 0.36417 0.28907 0.0
C618 C 0.02099 0.38649 0.27553 0.0
C619 C 0.94079 0.29978 0.29009 0.0
C620 C 0.00571 0.3759 0.25825 0.0
C621 C 0.00302 0.40819 0.24766 0.0
C622 C 0.01553 0.45136 0.25424 0.0
C623 C 0.02937 0.46145 0.27172 0.0
C624 C 0.03246 0.42929 0.28227 0.0
H625 H 0.91578 0.27033 0.29875 0.0
H626 H 0.93662 0.32961 0.29286 0.0
H627 H 0.93227 0.2905 0.27612 0.0
H628 H 0.99715 0.34316 0.25281 0.0
H629 H 0.99245 0.40003 0.23416 0.0
loop_
_geom_bond_atom_site_label_1
_geom_bond_atom_site_label_2
_geom_bond_distance
_geom_bond_site_symmetry_2
_ccdc_geom_bond_type
C0 O1 1.157 1_565 S
C0 O7 1.185 1_565 S
O1 C0 1.157 1_545 S
O2 Zn3 1.899 . S
O2 C10 1.284 . S
Zn3 O2 1.899 . S
Zn3 O4 2.032 . S
Zn3 O7 2.086 . S
Zn3 O12 1.977 . S
O4 Zn3 2.032 . S
O4 C8 1.278 1_455 S
C5 O6 1.203 . S
C5 O12 1.267 . S
O6 C5 1.203 . S
O7 C0 1.185 1_545 S
O7 Zn3 2.086 . S
C8 O4 1.278 1_655 S
C8 O9 1.211 1_655 S
O9 C8 1.211 1_455 S
C10 O2 1.284 . S
C10 O11 1.273 . S
O11 C10 1.273 . S
O12 Zn3 1.977 . S
O12 C5 1.267 . S
C13 O14 1.160 . S
C13 O20 1.185 . S
O14 C13 1.160 . S
O15 Zn16 1.899 . S
O15 C23 1.284 . S
Zn16 O15 1.899 . S
Zn16 O17 2.031 . S
Zn16 O20 2.086 . S
Zn16 O25 1.977 . S
O17 Zn16 2.031 . S
O17 C21 1.278 1_455 S
C18 O19 1.203 . S
C18 O25 1.267 . S
O19 C18 1.203 . S
O20 C13 1.185 . S
O20 Zn16 2.086 . S
C21 O17 1.278 1_655 S
C21 O22 1.211 1_655 S
O22 C21 1.211 1_455 S
C23 O15 1.284 . S
C23 O24 1.273 1_455 S
O24 C23 1.273 1_655 S
O25 Zn16 1.977 . S
O25 C18 1.267 . S
C26 O27 1.160 . S
C26 O33 1.186 1_545 S
O27 C26 1.160 . S
O28 Zn29 1.899 . S
O28 C36 1.284 1_455 S
Zn29 O28 1.899 . S
Zn29 O30 2.032 . S
Zn29 O33 2.088 1_545 S
Zn29 O38 1.977 1_545 S
O30 Zn29 2.032 . S
O30 C34 1.278 . S
C31 O32 1.203 . S
C31 O38 1.267 1_655 S
O32 C31 1.203 . S
O33 C26 1.186 1_565 S
O33 Zn29 2.088 1_565 S
C34 O30 1.278 . S
C34 O35 1.211 . S
O35 C34 1.211 . S
C36 O28 1.284 1_655 S
C36 O37 1.273 1_655 S
O37 C36 1.273 1_455 S
O38 Zn29 1.977 1_565 S
O38 C31 1.267 1_455 S
C39 C40 1.443 . S
C39 N43 1.376 . S
C39 C77 1.389 . S
C40 C39 1.443 . S
C40 C41 1.340 . S
C40 H80 0.951 . S
C41 C40 1.340 . S
C41 C42 1.439 . S
C41 H81 0.950 . S
C42 C41 1.439 . S
C42 N43 1.374 . S
C42 C76 1.395 . S
N43 C39 1.376 . S
N43 C42 1.374 . S
N43 Co44 2.008 . S
Co44 N43 2.008 . S
Co44 N45 1.995 . S
Co44 N50 2.008 1_455 S
Co44 N55 1.995 1_455 S
Co44 N60 2.282 . S
Co44 N66 2.282 . S
N45 Co44 1.995 . S
N45 C46 1.376 . S
N45 C49 1.383 . S
C46 N45 1.376 . S
C46 C47 1.446 . S
C46 C76 1.391 . S
C47 C46 1.446 . S
C47 C48 1.339 . S
C47 H82 0.949 . S
C48 C47 1.339 . S
C48 C49 1.439 . S
C48 H83 0.950 . S
C49 N45 1.383 . S
C49 C48 1.439 . S
C49 C78 1.392 . S
N50 Co44 2.008 1_655 S
N50 C51 1.376 . S
N50 C54 1.374 . S
C51 N50 1.376 . S
C51 C52 1.443 . S
C51 C78 1.389 1_655 S
C52 C51 1.443 . S
C52 C53 1.340 . S
C52 H84 0.951 . S
C53 C52 1.340 . S
C53 C54 1.439 . S
C53 H85 0.950 . S
C54 N50 1.374 . S
C54 C53 1.439 . S
C54 C79 1.395 . S
N55 Co44 1.995 1_655 S
N55 C56 1.376 . S
N55 C59 1.383 . S
C56 N55 1.376 . S
C56 C57 1.446 . S
C56 C79 1.391 . S
C57 C56 1.446 . S
C57 C58 1.339 . S
C57 H86 0.949 . S
C58 C57 1.339 . S
C58 C59 1.439 . S
C58 H87 0.950 . S
C59 N55 1.383 . S
C59 C58 1.439 . S
C59 C77 1.392 1_655 S
N60 Co44 2.282 . S
N60 C63 1.332 1_455 S
N60 C65 1.332 . S
C61 C62 1.386 1_455 S
C61 C64 1.388 . S
C62 C61 1.386 1_655 S
C62 C63 1.382 . S
C62 H88 0.950 . S
C63 N60 1.332 1_655 S
C63 C62 1.382 . S
C63 H74 0.952 . S
C64 C61 1.388 . S
C64 C65 1.382 . S
C64 H89 0.950 . S
C65 N60 1.332 . S
C65 C64 1.382 . S
C65 H75 0.948 . S
N66 Co44 2.282 . S
N66 C70 1.332 . S
N66 C71 1.332 1_455 S
C67 C68 1.388 1_655 S
C67 C71 1.382 . S
C67 H90 0.950 . S
C68 C67 1.388 1_455 S
C68 C69 1.386 . S
C69 C68 1.386 . S
C69 C70 1.382 . S
C69 H91 0.950 . S
C70 N66 1.332 . S
C70 C69 1.382 . S
C70 H72 0.952 . S
C71 N66 1.332 1_655 S
C71 C67 1.382 . S
C71 H73 0.948 . S
H72 C70 0.952 . S
H73 C71 0.948 . S
H74 C63 0.952 . S
H75 C65 0.948 . S
C76 C42 1.395 . S
C76 C46 1.391 . S
C77 C39 1.389 . S
C77 C59 1.392 1_455 S
C78 C49 1.392 . S
C78 C51 1.389 1_455 S
C79 C54 1.395 . S
C79 C56 1.391 . S
H80 C40 0.951 . S
H81 C41 0.950 . S
H82 C47 0.949 . S
H83 C48 0.950 . S
H84 C52 0.951 . S
H85 C53 0.950 . S
H86 C57 0.949 . S
H87 C58 0.950 . S
H88 C62 0.950 . S
H89 C64 0.950 . S
H90 C67 0.950 . S
H91 C69 0.950 . S
C92 C93 1.443 1_545 S
C92 N96 1.376 . S
C92 C130 1.389 . S
C93 C92 1.443 1_565 S
C93 C94 1.340 . S
C93 H133 0.951 . S
C94 C93 1.340 . S
C94 C95 1.439 . S
C94 H134 0.950 . S
C95 C94 1.439 . S
C95 N96 1.374 1_565 S
C95 C129 1.395 . S
N96 C92 1.376 . S
N96 C95 1.374 1_545 S
N96 Co97 2.008 . S
Co97 N96 2.008 . S
Co97 N98 1.995 . S
Co97 N103 2.008 . S
Co97 N108 1.995 . S
Co97 N113 2.282 . S
Co97 N119 2.282 . S
N98 Co97 1.995 . S
N98 C99 1.376 1_545 S
N98 C102 1.383 . S
C99 N98 1.376 1_565 S
C99 C100 1.446 . S
C99 C129 1.391 . S
C100 C99 1.446 . S
C100 C101 1.339 . S
C100 H135 0.949 . S
C101 C100 1.339 . S
C101 C102 1.439 1_565 S
C101 H136 0.950 . S
C102 N98 1.383 . S
C102 C101 1.439 1_545 S
C102 C131 1.392 . S
N103 Co97 2.008 . S
N103 C104 1.376 . S
N103 C107 1.374 . S
C104 N103 1.376 . S
C104 C105 1.443 . S
C104 C131 1.389 . S
C105 C104 1.443 . S
C105 C106 1.340 . S
C105 H137 0.951 . S
C106 C105 1.340 . S
C106 C107 1.439 . S
C106 H138 0.950 . S
C107 N103 1.374 . S
C107 C106 1.439 . S
C107 C132 1.395 . S
N108 Co97 1.995 . S
N108 C109 1.376 . S
N108 C112 1.383 . S
C109 N108 1.376 . S
C109 C110 1.446 . S
C109 C132 1.391 . S
C110 C109 1.446 . S
C110 C111 1.339 . S
C110 H139 0.949 . S
C111 C110 1.339 . S
C111 C112 1.439 . S
C111 H140 0.950 . S
C112 N108 1.383 . S
C112 C111 1.439 . S
C112 C130 1.392 . S
N113 Co97 2.282 . S
N113 C116 1.332 . S
N113 C118 1.332 . S
C114 C115 1.386 . S
C114 C117 1.388 . S
C115 C114 1.386 . S
C115 C116 1.382 . S
C115 H141 0.950 . S
C116 N113 1.332 . S
C116 C115 1.382 . S
C116 H127 0.952 . S
C117 C114 1.388 . S
C117 C118 1.382 . S
C117 H142 0.950 1_545 S
C118 N113 1.332 . S
C118 C117 1.382 . S
C118 H128 0.937 1_545 S
N119 Co97 2.282 . S
N119 C123 1.332 . S
N119 C124 1.332 . S
C120 C121 1.388 . S
C120 C124 1.382 . S
C120 H143 0.950 . S
C121 C120 1.388 . S
C121 C122 1.386 . S
C122 C121 1.386 . S
C122 C123 1.382 . S
C122 H144 0.950 . S
C123 N119 1.332 . S
C123 C122 1.382 . S
C123 H125 0.952 . S
C124 N119 1.332 . S
C124 C120 1.382 . S
C124 H126 0.948 . S
H125 C123 0.952 . S
H126 C124 0.948 . S
H127 C116 0.952 . S
H128 C118 0.937 1_565 S
C129 C95 1.395 . S
C129 C99 1.391 . S
C130 C92 1.389 . S
C130 C112 1.392 . S
C131 C102 1.392 . S
C131 C104 1.389 . S
C132 C107 1.395 . S
C132 C109 1.391 . S
H133 C93 0.951 . S
H134 C94 0.950 . S
H135 C100 0.949 . S
H136 C101 0.950 . S
H137 C105 0.951 . S
H138 C106 0.950 . S
H139 C110 0.949 . S
H140 C111 0.950 . S
H141 C115 0.950 . S
H142 C117 0.950 1_565 S
H143 C120 0.950 . S
H144 C122 0.950 . S
C145 C146 1.443 . S
C145 N149 1.376 . S
C145 C183 1.389 . S
C146 C145 1.443 . S
C146 C147 1.340 . S
C146 H186 0.951 . S
C147 C146 1.340 . S
C147 C148 1.439 . S
C147 H187 0.950 . S
C148 C147 1.439 . S
C148 N149 1.374 . S
C148 C182 1.395 . S
N149 C145 1.376 . S
N149 C148 1.374 . S
N149 Co150 2.008 . S
Co150 N149 2.008 . S
Co150 N151 1.995 . S
Co150 N156 2.008 . S
Co150 N161 1.995 . S
Co150 N166 2.282 . S
Co150 N172 2.282 . S
N151 Co150 1.995 . S
N151 C152 1.376 . S
N151 C155 1.383 . S
C152 N151 1.376 . S
C152 C153 1.446 . S
C152 C182 1.391 . S
C153 C152 1.446 . S
C153 C154 1.339 . S
C153 H188 0.949 . S
C154 C153 1.339 . S
C154 C155 1.439 . S
C154 H189 0.950 . S
C155 N151 1.383 . S
C155 C154 1.439 . S
C155 C184 1.392 . S
N156 Co150 2.008 . S
N156 C157 1.376 . S
N156 C160 1.374 . S
C157 N156 1.376 . S
C157 C158 1.443 . S
C157 C184 1.389 . S
C158 C157 1.443 . S
C158 C159 1.340 . S
C158 H190 0.951 . S
C159 C158 1.340 . S
C159 C160 1.439 . S
C159 H191 0.950 . S
C160 N156 1.374 . S
C160 C159 1.439 . S
C160 C185 1.395 . S
N161 Co150 1.995 . S
N161 C162 1.376 . S
N161 C165 1.383 . S
C162 N161 1.376 . S
C162 C163 1.446 . S
C162 C185 1.391 . S
C163 C162 1.446 . S
C163 C164 1.339 . S
C163 H192 0.949 . S
C164 C163 1.339 . S
C164 C165 1.439 . S
C164 H193 0.950 . S
C165 N161 1.383 . S
C165 C164 1.439 . S
C165 C183 1.392 . S
N166 Co150 2.282 . S
N166 C169 1.332 . S
N166 C171 1.332 . S
C167 C168 1.386 . S
C167 C170 1.388 . S
C168 C167 1.386 . S
C168 C169 1.382 . S
C168 H194 0.950 . S
C169 N166 1.332 . S
C169 C168 1.382 . S
C169 H180 0.952 . S
C170 C167 1.388 . S
C170 C171 1.382 . S
C170 H195 0.950 . S
C171 N166 1.332 . S
C171 C170 1.382 . S
C171 H181 0.948 . S
N172 Co150 2.282 . S
N172 C176 1.332 . S
N172 C177 1.332 . S
C173 C174 1.388 . S
C173 C177 1.382 . S
C173 H196 0.950 . S
C174 C173 1.388 . S
C174 C175 1.386 . S
C175 C174 1.386 . S
C175 C176 1.382 . S
C175 H197 0.950 . S
C176 N172 1.332 . S
C176 C175 1.382 . S
C176 H178 0.952 . S
C177 N172 1.332 . S
C177 C173 1.382 . S
C177 H179 0.948 . S
H178 C176 0.952 . S
H179 C177 0.948 . S
H180 C169 0.952 . S
H181 C171 0.948 . S
C182 C148 1.395 . S
C182 C152 1.391 . S
C183 C145 1.389 . S
C183 C165 1.392 . S
C184 C155 1.392 . S
C184 C157 1.389 . S
C185 C160 1.395 . S
C185 C162 1.391 . S
H186 C146 0.951 . S
H187 C147 0.950 . S
H188 C153 0.949 . S
H189 C154 0.950 . S
H190 C158 0.951 . S
H191 C159 0.950 . S
H192 C163 0.949 . S
H193 C164 0.950 . S
H194 C168 0.950 . S
H195 C170 0.950 . S
H196 C173 0.950 . S
H197 C175 0.950 . S
H198 C206 0.929 . S
H199 C208 0.930 . S
H200 C210 0.930 . S
H201 C213 0.945 . S
H202 C216 0.930 . S
H203 C218 0.960 . S
H204 C218 0.960 . S
H205 C218 0.960 . S
C206 H198 0.929 . S
C206 C207 1.377 . S
C206 C208 1.384 . S
C207 C206 1.377 . S
C207 C213 1.363 1_455 S
C208 H199 0.930 . S
C208 C206 1.384 . S
C208 C209 1.372 . S
C209 C208 1.372 . S
C209 C210 1.400 1_455 S
C209 C214 1.490 . S
C210 H200 0.930 . S
C210 C209 1.400 1_655 S
C210 C213 1.397 . S
H211 C227 0.930 . S
H212 C228 0.931 . S
C213 H201 0.945 . S
C213 C207 1.363 1_655 S
C213 C210 1.397 . S
C214 C209 1.490 . S
C214 C216 1.395 . S
C214 C217 1.406 . S
H215 C221 0.930 1_655 S
C216 H202 0.930 . S
C216 C214 1.395 . S
C216 C219 1.403 . S
C217 C214 1.406 . S
C217 C218 1.523 1_455 S
C217 C221 1.398 . S
C218 H203 0.960 . S
C218 H204 0.960 . S
C218 H205 0.960 . S
C218 C217 1.523 1_655 S
C219 C216 1.403 . S
C219 C220 1.392 . S
C219 C223 1.495 . S
C220 C219 1.392 . S
C220 C221 1.385 . S
C220 C222 1.478 . S
C221 H215 0.930 1_455 S
C221 C217 1.398 . S
C221 C220 1.385 . S
C222 C220 1.478 . S
C222 C224 1.381 . S
C222 C228 1.383 1_455 S
C223 C219 1.495 . S
C223 H229 0.959 . S
C223 H230 0.961 . S
C223 H231 0.960 . S
C224 C222 1.381 . S
C224 C225 1.394 . S
C224 H232 0.930 . S
C225 C224 1.394 . S
C225 C226 1.383 . S
C225 H233 0.929 . S
C226 C225 1.383 . S
C226 C227 1.377 1_455 S
C227 H211 0.930 . S
C227 C226 1.377 1_655 S
C227 C228 1.379 . S
C228 H212 0.931 . S
C228 C222 1.383 1_655 S
C228 C227 1.379 . S
H229 C223 0.959 . S
H230 C223 0.961 . S
H231 C223 0.960 . S
H232 C224 0.930 . S
H233 C225 0.929 . S
H234 C242 0.929 . S
H235 C244 0.930 . S
H236 C246 0.930 . S
H237 C249 0.929 . S
H238 C252 0.930 . S
H239 C254 0.960 . S
H240 C254 0.960 . S
H241 C254 0.960 . S
C242 H234 0.929 . S
C242 C243 1.377 . S
C242 C244 1.384 . S
C243 C242 1.377 . S
C243 C249 1.390 . S
C244 H235 0.930 . S
C244 C242 1.384 . S
C244 C245 1.372 . S
C245 C244 1.372 . S
C245 C246 1.400 . S
C245 C250 1.490 . S
C246 H236 0.930 . S
C246 C245 1.400 . S
C246 C249 1.386 . S
H247 C263 0.930 . S
H248 C264 0.931 . S
C249 H237 0.929 . S
C249 C243 1.390 . S
C249 C246 1.386 . S
C250 C245 1.490 . S
C250 C252 1.395 . S
C250 C253 1.403 . S
H251 C257 0.930 . S
C252 H238 0.930 . S
C252 C250 1.395 . S
C252 C255 1.403 . S
C253 C250 1.403 . S
C253 C254 1.524 . S
C253 C257 1.400 . S
C254 H239 0.960 . S
C254 H240 0.960 . S
C254 H241 0.960 . S
C254 C253 1.524 . S
C255 C252 1.403 . S
C255 C256 1.392 . S
C255 C259 1.495 . S
C256 C255 1.392 . S
C256 C257 1.385 . S
C256 C258 1.478 . S
C257 H251 0.930 . S
C257 C253 1.400 . S
C257 C256 1.385 . S
C258 C256 1.478 . S
C258 C260 1.381 . S
C258 C264 1.383 . S
C259 C255 1.495 . S
C259 H265 0.959 . S
C259 H266 0.961 . S
C259 H267 0.960 . S
C260 C258 1.381 . S
C260 C261 1.394 . S
C260 H268 0.930 . S
C261 C260 1.394 . S
C261 C262 1.383 . S
C261 H269 0.929 . S
C262 C261 1.383 . S
C262 C263 1.377 . S
C263 H247 0.930 . S
C263 C262 1.377 . S
C263 C264 1.379 . S
C264 H248 0.931 . S
C264 C258 1.383 . S
C264 C263 1.379 . S
H265 C259 0.959 . S
H266 C259 0.961 . S
H267 C259 0.960 . S
H268 C260 0.930 . S
H269 C261 0.929 . S
H270 C278 0.929 . S
H271 C280 0.930 . S
H272 C282 0.930 . S
H273 C285 0.929 . S
H274 C288 0.930 . S
H275 C290 0.960 . S
H276 C290 0.960 . S
H277 C290 0.960 . S
C278 H270 0.929 . S
C278 C279 1.377 . S
C278 C280 1.384 . S
C279 C278 1.377 . S
C279 C285 1.390 . S
C280 H271 0.930 . S
C280 C278 1.384 . S
C280 C281 1.372 . S
C281 C280 1.372 . S
C281 C282 1.400 . S
C281 C286 1.490 . S
C282 H272 0.930 . S
C282 C281 1.400 . S
C282 C285 1.386 . S
H283 C299 0.930 . S
H284 C300 0.931 . S
C285 H273 0.929 . S
C285 C279 1.390 . S
C285 C282 1.386 . S
C286 C281 1.490 . S
C286 C288 1.395 . S
C286 C289 1.403 . S
H287 C293 0.930 . S
C288 H274 0.930 . S
C288 C286 1.395 . S
C288 C291 1.403 . S
C289 C286 1.403 . S
C289 C290 1.524 . S
C289 C293 1.400 . S
C290 H275 0.960 . S
C290 H276 0.960 . S
C290 H277 0.960 . S
C290 C289 1.524 . S
C291 C288 1.403 . S
C291 C292 1.392 . S
C291 C295 1.495 . S
C292 C291 1.392 . S
C292 C293 1.385 . S
C292 C294 1.478 . S
C293 H287 0.930 . S
C293 C289 1.400 . S
C293 C292 1.385 . S
C294 C292 1.478 . S
C294 C296 1.381 . S
C294 C300 1.383 . S
C295 C291 1.495 . S
C295 H301 0.959 . S
C295 H302 0.961 . S
C295 H303 0.960 . S
C296 C294 1.381 . S
C296 C297 1.394 . S
C296 H304 0.930 . S
C297 C296 1.394 . S
C297 C298 1.383 . S
C297 H305 0.929 . S
C298 C297 1.383 . S
C298 C299 1.377 . S
C299 H283 0.930 . S
C299 C298 1.377 . S
C299 C300 1.379 . S
C300 H284 0.931 . S
C300 C294 1.383 . S
C300 C299 1.379 . S
H301 C295 0.959 . S
H302 C295 0.961 . S
H303 C295 0.960 . S
H304 C296 0.930 . S
H305 C297 0.929 . S
H306 C314 0.929 . S
H307 C316 0.930 . S
H308 C318 0.930 1_655 S
H309 C321 0.929 . S
H310 C324 0.930 . S
H311 C326 0.960 1_655 S
H312 C326 0.960 . S
H313 C326 0.960 1_655 S
C314 H306 0.929 . S
C314 C315 1.377 . S
C314 C316 1.384 . S
C315 C314 1.377 . S
C315 C321 1.390 . S
C316 H307 0.930 . S
C316 C314 1.384 . S
C316 C317 1.372 . S
C317 C316 1.372 . S
C317 C318 1.400 . S
C317 C322 1.490 . S
C318 H308 0.930 1_455 S
C318 C317 1.400 . S
C318 C321 1.386 . S
H319 C335 0.930 . S
H320 C336 0.931 . S
C321 H309 0.929 . S
C321 C315 1.390 . S
C321 C318 1.386 . S
C322 C317 1.490 . S
C322 C324 1.395 . S
C322 C325 1.403 . S
H323 C329 0.930 . S
C324 H310 0.930 . S
C324 C322 1.395 . S
C324 C327 1.403 . S
C325 C322 1.403 . S
C325 C326 1.524 . S
C325 C329 1.400 . S
C326 H311 0.960 1_455 S
C326 H312 0.960 . S
C326 H313 0.960 1_455 S
C326 C325 1.524 . S
C327 C324 1.403 . S
C327 C328 1.392 . S
C327 C331 1.495 . S
C328 C327 1.392 . S
C328 C329 1.385 . S
C328 C330 1.478 . S
C329 H323 0.930 . S
C329 C325 1.400 . S
C329 C328 1.385 . S
C330 C328 1.478 . S
C330 C332 1.381 . S
C330 C336 1.383 1_455 S
C331 C327 1.495 . S
C331 H337 0.959 . S
C331 H338 0.961 . S
C331 H339 0.960 . S
C332 C330 1.381 . S
C332 C333 1.394 . S
C332 H340 0.930 . S
C333 C332 1.394 . S
C333 C334 1.383 . S
C333 H341 0.929 . S
C334 C333 1.383 . S
C334 C335 1.377 1_455 S
C335 H319 0.930 . S
C335 C334 1.377 1_655 S
C335 C336 1.379 . S
C336 H320 0.931 . S
C336 C330 1.383 1_655 S
C336 C335 1.379 . S
H337 C331 0.959 . S
H338 C331 0.961 . S
H339 C331 0.960 . S
H340 C332 0.930 . S
H341 C333 0.929 . S
H342 C350 0.929 . S
H343 C352 0.930 . S
H344 C354 0.930 . S
H345 C357 0.929 . S
H346 C360 0.930 . S
H347 C362 0.960 . S
H348 C362 0.960 . S
H349 C362 0.960 . S
C350 H342 0.929 . S
C350 C351 1.377 . S
C350 C352 1.384 . S
C351 C350 1.377 . S
C351 C357 1.390 . S
C352 H343 0.930 . S
C352 C350 1.384 . S
C352 C353 1.372 . S
C353 C352 1.372 . S
C353 C354 1.400 . S
C353 C358 1.490 . S
C354 H344 0.930 . S
C354 C353 1.400 . S
C354 C357 1.386 . S
H355 C371 0.930 . S
H356 C372 0.931 . S
C357 H345 0.929 . S
C357 C351 1.390 . S
C357 C354 1.386 . S
C358 C353 1.490 . S
C358 C360 1.395 . S
C358 C361 1.403 . S
H359 C365 0.930 . S
C360 H346 0.930 . S
C360 C358 1.395 . S
C360 C363 1.403 . S
C361 C358 1.403 . S
C361 C362 1.524 . S
C361 C365 1.400 . S
C362 H347 0.960 . S
C362 H348 0.960 . S
C362 H349 0.960 . S
C362 C361 1.524 . S
C363 C360 1.403 . S
C363 C364 1.392 . S
C363 C367 1.495 . S
C364 C363 1.392 . S
C364 C365 1.385 . S
C364 C366 1.478 . S
C365 H359 0.930 . S
C365 C361 1.400 . S
C365 C364 1.385 . S
C366 C364 1.478 . S
C366 C368 1.381 . S
C366 C372 1.383 . S
C367 C363 1.495 . S
C367 H373 0.959 . S
C367 H374 0.961 . S
C367 H375 0.960 . S
C368 C366 1.381 . S
C368 C369 1.394 . S
C368 H376 0.930 . S
C369 C368 1.394 . S
C369 C370 1.383 . S
C369 H377 0.929 . S
C370 C369 1.383 . S
C370 C371 1.377 . S
C371 H355 0.930 . S
C371 C370 1.377 . S
C371 C372 1.379 . S
C372 H356 0.931 . S
C372 C366 1.383 . S
C372 C371 1.379 . S
H373 C367 0.959 . S
H374 C367 0.961 . S
H375 C367 0.960 . S
H376 C368 0.930 . S
H377 C369 0.929 . S
H378 C386 0.929 . S
H379 C388 0.930 . S
H380 C390 0.930 . S
H381 C393 0.929 . S
H382 C396 0.930 . S
H383 C398 0.960 . S
H384 C398 0.960 . S
H385 C398 0.960 . S
C386 H378 0.929 . S
C386 C387 1.377 . S
C386 C388 1.384 . S
C387 C386 1.377 . S
C387 C393 1.390 . S
C388 H379 0.930 . S
C388 C386 1.384 . S
C388 C389 1.372 . S
C389 C388 1.372 . S
C389 C390 1.400 . S
C389 C394 1.490 . S
C390 H380 0.930 . S
C390 C389 1.400 . S
C390 C393 1.386 . S
H391 C407 0.930 . S
H392 C408 0.931 . S
C393 H381 0.929 . S
C393 C387 1.390 . S
C393 C390 1.386 . S
C394 C389 1.490 . S
C394 C396 1.395 . S
C394 C397 1.403 . S
H395 C401 0.930 . S
C396 H382 0.930 . S
C396 C394 1.395 . S
C396 C399 1.403 . S
C397 C394 1.403 . S
C397 C398 1.524 . S
C397 C401 1.400 . S
C398 H383 0.960 . S
C398 H384 0.960 . S
C398 H385 0.960 . S
C398 C397 1.524 . S
C399 C396 1.403 . S
C399 C400 1.392 . S
C399 C403 1.495 . S
C400 C399 1.392 . S
C400 C401 1.385 . S
C400 C402 1.478 . S
C401 H395 0.930 . S
C401 C397 1.400 . S
C401 C400 1.385 . S
C402 C400 1.478 . S
C402 C404 1.381 . S
C402 C408 1.383 . S
C403 C399 1.495 . S
C403 H409 0.959 . S
C403 H410 0.961 . S
C403 H411 0.960 . S
C404 C402 1.381 . S
C404 C405 1.394 . S
C404 H412 0.930 . S
C405 C404 1.394 . S
C405 C406 1.383 . S
C405 H413 0.929 . S
C406 C405 1.383 . S
C406 C407 1.377 . S
C407 H391 0.930 . S
C407 C406 1.377 . S
C407 C408 1.379 . S
C408 H392 0.931 . S
C408 C402 1.383 . S
C408 C407 1.379 . S
H409 C403 0.959 . S
H410 C403 0.961 . S
H411 C403 0.960 . S
H412 C404 0.930 . S
H413 C405 0.929 . S
H414 C422 0.929 1_455 S
H415 C424 0.930 . S
H416 C426 0.930 . S
H417 C429 0.929 . S
H418 C432 0.930 . S
H419 C434 0.960 . S
H420 C434 0.960 . S
H421 C434 0.960 . S
C422 H414 0.929 1_655 S
C422 C423 1.377 . S
C422 C424 1.384 . S
C423 C422 1.377 . S
C423 C429 1.390 . S
C424 H415 0.930 . S
C424 C422 1.384 . S
C424 C425 1.372 . S
C425 C424 1.372 . S
C425 C426 1.400 . S
C425 C430 1.490 . S
C426 H416 0.930 . S
C426 C425 1.400 . S
C426 C429 1.386 . S
H427 C443 0.930 . S
H428 C444 0.931 . S
C429 H417 0.929 . S
C429 C423 1.390 . S
C429 C426 1.386 . S
C430 C425 1.490 . S
C430 C432 1.395 . S
C430 C433 1.403 . S
H431 C437 0.930 . S
C432 H418 0.930 . S
C432 C430 1.395 . S
C432 C435 1.403 . S
C433 C430 1.403 . S
C433 C434 1.524 . S
C433 C437 1.400 . S
C434 H419 0.960 . S
C434 H420 0.960 . S
C434 H421 0.960 . S
C434 C433 1.524 . S
C435 C432 1.403 . S
C435 C436 1.392 . S
C435 C439 1.495 . S
C436 C435 1.392 . S
C436 C437 1.385 . S
C436 C438 1.478 . S
C437 H431 0.930 . S
C437 C433 1.400 . S
C437 C436 1.385 . S
C438 C436 1.478 . S
C438 C440 1.381 . S
C438 C444 1.383 . S
C439 C435 1.495 . S
C439 H445 0.959 . S
C439 H446 0.962 1_545 S
C439 H447 0.960 . S
C440 C438 1.381 . S
C440 C441 1.394 . S
C440 H448 0.930 . S
C441 C440 1.394 . S
C441 C442 1.383 . S
C441 H449 0.929 . S
C442 C441 1.383 . S
C442 C443 1.377 . S
C443 H427 0.930 . S
C443 C442 1.377 . S
C443 C444 1.379 . S
C444 H428 0.931 . S
C444 C438 1.383 . S
C444 C443 1.379 . S
H445 C439 0.959 . S
H446 C439 0.962 1_565 S
H447 C439 0.960 . S
H448 C440 0.930 . S
H449 C441 0.929 . S
H450 C458 0.916 1_545 S
H451 C460 0.940 . S
H452 C462 0.930 . S
H453 C465 0.929 . S
H454 C468 0.930 . S
H455 C470 0.958 . S
H456 C470 0.944 1_554 S
H457 C470 0.961 . S
C458 H450 0.916 1_565 S
C458 C459 1.377 . S
C458 C460 1.384 . S
C459 C458 1.377 . S
C459 C465 1.390 . S
C460 H451 0.940 . S
C460 C458 1.384 . S
C460 C461 1.372 1_554 S
C461 C460 1.372 1_556 S
C461 C462 1.400 . S
C461 C466 1.490 . S
C462 H452 0.930 . S
C462 C461 1.400 . S
C462 C465 1.386 1_556 S
H463 C479 0.930 . S
H464 C480 0.931 . S
C465 H453 0.929 . S
C465 C459 1.390 . S
C465 C462 1.386 1_554 S
C466 C461 1.490 . S
C466 C468 1.395 . S
C466 C469 1.403 . S
H467 C473 0.930 . S
C468 H454 0.930 . S
C468 C466 1.395 . S
C468 C471 1.403 . S
C469 C466 1.403 . S
C469 C470 1.539 . S
C469 C473 1.400 . S
C470 H455 0.958 . S
C470 H456 0.944 1_556 S
C470 H457 0.961 . S
C470 C469 1.539 . S
C471 C468 1.403 . S
C471 C472 1.392 . S
C471 C475 1.495 . S
C472 C471 1.392 . S
C472 C473 1.385 . S
C472 C474 1.478 . S
C473 H467 0.930 . S
C473 C469 1.400 . S
C473 C472 1.385 . S
C474 C472 1.478 . S
C474 C476 1.381 . S
C474 C480 1.383 . S
C475 C471 1.495 . S
C475 H481 0.959 . S
C475 H482 0.961 . S
C475 H483 0.960 . S
C476 C474 1.381 . S
C476 C477 1.394 . S
C476 H484 0.930 . S
C477 C476 1.394 . S
C477 C478 1.383 . S
C477 H485 0.929 . S
C478 C477 1.383 . S
C478 C479 1.377 . S
C479 H463 0.930 . S
C479 C478 1.377 . S
C479 C480 1.379 . S
C480 H464 0.931 . S
C480 C474 1.383 . S
C480 C479 1.379 . S
H481 C475 0.959 . S
H482 C475 0.961 . S
H483 C475 0.960 . S
H484 C476 0.930 . S
H485 C477 0.929 . S
H486 C494 0.927 1_545 S
H487 C496 0.930 . S
H488 C498 0.930 . S
H489 C501 0.929 . S
H490 C504 0.930 . S
H491 C506 0.960 . S
H492 C506 0.960 . S
H493 C506 0.960 . S
C494 H486 0.927 1_565 S
C494 C495 1.377 . S
C494 C496 1.387 . S
C495 C494 1.377 . S
C495 C501 1.390 1_455 S
C496 H487 0.930 . S
C496 C494 1.387 . S
C496 C497 1.372 . S
C497 C496 1.372 . S
C497 C498 1.400 1_455 S
C497 C502 1.490 . S
C498 H488 0.930 . S
C498 C497 1.400 1_655 S
C498 C501 1.386 . S
H499 C515 0.930 . S
H500 C516 0.931 . S
C501 H489 0.929 . S
C501 C495 1.390 1_655 S
C501 C498 1.386 . S
C502 C497 1.490 . S
C502 C504 1.395 . S
C502 C505 1.403 1_455 S
H503 C509 0.930 . S
C504 H490 0.930 . S
C504 C502 1.395 . S
C504 C507 1.403 . S
C505 C502 1.403 1_655 S
C505 C506 1.524 . S
C505 C509 1.400 . S
C506 H491 0.960 . S
C506 H492 0.960 . S
C506 H493 0.960 . S
C506 C505 1.524 . S
C507 C504 1.403 . S
C507 C508 1.392 . S
C507 C511 1.495 . S
C508 C507 1.392 . S
C508 C509 1.385 1_455 S
C508 C510 1.478 . S
C509 H503 0.930 . S
C509 C505 1.400 . S
C509 C508 1.385 1_655 S
C510 C508 1.478 . S
C510 C512 1.381 . S
C510 C516 1.383 1_455 S
C511 C507 1.495 . S
C511 H517 0.959 . S
C511 H518 0.961 . S
C511 H519 0.960 . S
C512 C510 1.381 . S
C512 C513 1.394 . S
C512 H520 0.930 . S
C513 C512 1.394 . S
C513 C514 1.383 . S
C513 H521 0.929 . S
C514 C513 1.383 . S
C514 C515 1.377 1_455 S
C515 H499 0.930 . S
C515 C514 1.377 1_655 S
C515 C516 1.379 . S
C516 H500 0.931 . S
C516 C510 1.383 1_655 S
C516 C515 1.379 . S
H517 C511 0.959 . S
H518 C511 0.961 . S
H519 C511 0.960 . S
H520 C512 0.930 . S
H521 C513 0.929 . S
H522 C530 0.929 . S
H523 C532 0.930 . S
H524 C534 0.930 . S
H525 C537 0.929 . S
H526 C540 0.930 . S
H527 C542 0.960 . S
H528 C542 0.960 . S
H529 C542 0.960 . S
C530 H522 0.929 . S
C530 C531 1.377 . S
C530 C532 1.384 . S
C531 C530 1.377 . S
C531 C537 1.390 1_545 S
C532 H523 0.930 . S
C532 C530 1.384 . S
C532 C533 1.372 . S
C533 C532 1.372 . S
C533 C534 1.400 1_545 S
C533 C538 1.490 . S
C534 H524 0.930 . S
C534 C533 1.400 1_565 S
C534 C537 1.386 . S
H535 C551 0.930 . S
H536 C552 0.931 1_565 S
C537 H525 0.929 . S
C537 C531 1.390 1_565 S
C537 C534 1.386 . S
C538 C533 1.490 . S
C538 C540 1.395 . S
C538 C541 1.403 . S
H539 C545 0.930 . S
C540 H526 0.930 . S
C540 C538 1.395 . S
C540 C543 1.403 . S
C541 C538 1.403 . S
C541 C542 1.524 . S
C541 C545 1.400 . S
C542 H527 0.960 . S
C542 H528 0.960 . S
C542 H529 0.960 . S
C542 C541 1.524 . S
C543 C540 1.403 . S
C543 C544 1.392 . S
C543 C547 1.495 . S
C544 C543 1.392 . S
C544 C545 1.385 . S
C544 C546 1.478 . S
C545 H539 0.930 . S
C545 C541 1.400 . S
C545 C544 1.385 . S
C546 C544 1.478 . S
C546 C548 1.381 . S
C546 C552 1.383 . S
C547 C543 1.495 . S
C547 H553 0.959 . S
C547 H554 0.959 1_545 S
C547 H555 0.960 . S
C548 C546 1.381 . S
C548 C549 1.394 . S
C548 H556 0.930 . S
C549 C548 1.394 . S
C549 C550 1.383 . S
C549 H557 0.929 . S
C550 C549 1.383 . S
C550 C551 1.377 . S
C551 H535 0.930 . S
C551 C550 1.377 . S
C551 C552 1.379 . S
C552 H536 0.931 1_545 S
C552 C546 1.383 . S
C552 C551 1.379 . S
H553 C547 0.959 . S
H554 C547 0.959 1_565 S
H555 C547 0.960 . S
H556 C548 0.930 . S
H557 C549 0.929 . S
H558 C566 0.929 . S
H559 C568 0.930 . S
H560 C570 0.930 . S
H561 C573 0.929 . S
H562 C576 0.930 . S
H563 C578 0.960 . S
H564 C578 0.960 . S
H565 C578 0.960 . S
C566 H558 0.929 . S
C566 C567 1.376 . S
C566 C568 1.385 1_554 S
C567 C566 1.376 . S
C567 C573 1.390 . S
C568 H559 0.930 . S
C568 C566 1.385 1_556 S
C568 C569 1.372 . S
C569 C568 1.372 . S
C569 C570 1.400 . S
C569 C574 1.490 . S
C570 H560 0.930 . S
C570 C569 1.400 . S
C570 C573 1.386 1_556 S
H571 C587 0.930 . S
H572 C588 0.931 . S
C573 H561 0.929 . S
C573 C567 1.390 . S
C573 C570 1.386 1_554 S
C574 C569 1.490 . S
C574 C576 1.395 . S
C574 C577 1.403 . S
H575 C581 0.930 . S
C576 H562 0.930 . S
C576 C574 1.395 . S
C576 C579 1.403 . S
C577 C574 1.403 . S
C577 C578 1.524 . S
C577 C581 1.400 . S
C578 H563 0.960 . S
C578 H564 0.960 . S
C578 H565 0.960 . S
C578 C577 1.524 . S
C579 C576 1.403 . S
C579 C580 1.392 . S
C579 C583 1.495 . S
C580 C579 1.392 . S
C580 C581 1.385 . S
C580 C582 1.478 . S
C581 H575 0.930 . S
C581 C577 1.400 . S
C581 C580 1.385 . S
C582 C580 1.478 . S
C582 C584 1.381 . S
C582 C588 1.383 . S
C583 C579 1.495 . S
C583 H589 0.959 . S
C583 H590 0.961 . S
C583 H591 0.960 . S
C584 C582 1.381 . S
C584 C585 1.394 . S
C584 H592 0.930 . S
C585 C584 1.394 . S
C585 C586 1.383 . S
C585 H593 0.929 . S
C586 C585 1.383 . S
C586 C587 1.377 . S
C587 H571 0.930 . S
C587 C586 1.377 . S
C587 C588 1.379 . S
C588 H572 0.931 . S
C588 C582 1.383 . S
C588 C587 1.379 . S
H589 C583 0.959 . S
H590 C583 0.961 . S
H591 C583 0.960 . S
H592 C584 0.930 . S
H593 C585 0.929 . S
H594 C602 0.929 . S
H595 C604 0.930 . S
H596 C606 0.930 . S
H597 C609 0.929 . S
H598 C612 0.930 . S
H599 C614 0.960 . S
H600 C614 0.960 . S
H601 C614 0.960 . S
C602 H594 0.929 . S
C602 C603 1.377 . S
C602 C604 1.384 . S
C603 C602 1.377 . S
C603 C609 1.390 . S
C604 H595 0.930 . S
C604 C602 1.384 . S
C604 C605 1.372 . S
C605 C604 1.372 . S
C605 C606 1.400 . S
C605 C610 1.490 . S
C606 H596 0.930 . S
C606 C605 1.400 . S
C606 C609 1.386 . S
H607 C623 0.930 . S
H608 C624 0.931 . S
C609 H597 0.929 . S
C609 C603 1.390 . S
C609 C606 1.386 . S
C610 C605 1.490 . S
C610 C612 1.395 1_455 S
C610 C613 1.403 . S
H611 C617 0.930 . S
C612 H598 0.930 . S
C612 C610 1.395 1_655 S
C612 C615 1.403 . S
C613 C610 1.403 . S
C613 C614 1.524 . S
C613 C617 1.400 . S
C614 H599 0.960 . S
C614 H600 0.960 . S
C614 H601 0.960 . S
C614 C613 1.524 . S
C615 C612 1.403 . S
C615 C616 1.392 1_655 S
C615 C619 1.495 . S
C616 C615 1.392 1_455 S
C616 C617 1.385 . S
C616 C618 1.478 . S
C617 H611 0.930 . S
C617 C613 1.400 . S
C617 C616 1.385 . S
C618 C616 1.478 . S
C618 C620 1.381 . S
C618 C624 1.383 . S
C619 C615 1.495 . S
C619 H625 0.959 . S
C619 H626 0.961 . S
C619 H627 0.960 . S
C620 C618 1.381 . S
C620 C621 1.394 . S
C620 H628 0.930 1_455 S
C621 C620 1.394 . S
C621 C622 1.383 . S
C621 H629 0.929 1_455 S
C622 C621 1.383 . S
C622 C623 1.377 . S
C623 H607 0.930 . S
C623 C622 1.377 . S
C623 C624 1.379 . S
C624 H608 0.931 . S
C624 C618 1.383 . S
C624 C623 1.379 . S
H625 C619 0.959 . S
H626 C619 0.961 . S
H627 C619 0.960 . S
H628 C620 0.930 1_655 S
H629 C621 0.929 1_655 S
C226 C61 1.385 . S
C207 C10 1.392 . S
C243 C21 1.402 . S
C262 C131 1.431 . S
C279 C31 1.350 . S
C298 C183 1.405 . S
C315 C0 1.365 . S
C334 C77 1.399 . S
C370 C121 1.420 . S
C351 C18 1.368 . S
C387 C34 1.378 . S
C406 C167 1.401 . S
C442 C114 1.369 . S
C423 C36 1.367 . S
C459 C8 1.384 1_565 S
C478 C174 1.408 . S
C514 C68 1.387 . S
C495 C23 1.393 1_565 S
C550 C130 1.336 . S
C531 C26 1.298 . S
C586 C184 1.418 . S
C567 C5 1.352 . S
C603 C13 1.357 . S
C622 C78 1.405 . S
