# Generated by pormake.
# Topology gar, (4,6)-cn, num edge types: 1
# Building blocks:
#     Node 0, Type 0, BuildingBlock: GALJAG_clean_sbu_0, # of connection points: 4
#     Node 1, Type 0, BuildingBlock: GALJAG_clean_sbu_0, # of connection points: 4
#     Node 2, Type 0, BuildingBlock: GALJAG_clean_sbu_0, # of connection points: 4
#     Node 3, Type 0, BuildingBlock: GALJAG_clean_sbu_0, # of connection points: 4
#     Node 4, Type 0, BuildingBlock: GALJAG_clean_sbu_0, # of connection points: 4
#     Node 5, Type 0, BuildingBlock: GALJAG_clean_sbu_0, # of connection points: 4
#     Node 6, Type 0, BuildingBlock: GALJAG_clean_sbu_0, # of connection points: 4
#     Node 7, Type 0, BuildingBlock: GALJAG_clean_sbu_0, # of connection points: 4
#     Node 8, Type 0, BuildingBlock: GALJAG_clean_sbu_0, # of connection points: 4
#     Node 9, Type 0, BuildingBlock: GALJAG_clean_sbu_0, # of connection points: 4
#     Node 10, Type 0, BuildingBlock: GALJAG_clean_sbu_0, # of connection points: 4
#     Node 11, Type 0, BuildingBlock: GALJAG_clean_sbu_0, # of connection points: 4
#     Node 12, Type 0, BuildingBlock: GALJAG_clean_sbu_0, # of connection points: 4
#     Node 13, Type 0, BuildingBlock: GALJAG_clean_sbu_0, # of connection points: 4
#     Node 14, Type 0, BuildingBlock: GALJAG_clean_sbu_0, # of connection points: 4
#     Node 15, Type 0, BuildingBlock: GALJAG_clean_sbu_0, # of connection points: 4
#     Node 16, Type 0, BuildingBlock: GALJAG_clean_sbu_0, # of connection points: 4
#     Node 17, Type 0, BuildingBlock: GALJAG_clean_sbu_0, # of connection points: 4
#     Node 18, Type 0, BuildingBlock: GALJAG_clean_sbu_0, # of connection points: 4
#     Node 19, Type 0, BuildingBlock: GALJAG_clean_sbu_0, # of connection points: 4
#     Node 20, Type 0, BuildingBlock: GALJAG_clean_sbu_0, # of connection points: 4
#     Node 21, Type 0, BuildingBlock: GALJAG_clean_sbu_0, # of connection points: 4
#     Node 22, Type 0, BuildingBlock: GALJAG_clean_sbu_0, # of connection points: 4
#     Node 23, Type 0, BuildingBlock: GALJAG_clean_sbu_0, # of connection points: 4
#     Node 24, Type 1, BuildingBlock: CUKXOW_clean_sbu_0, # of connection points: 6
#     Node 25, Type 1, BuildingBlock: CUKXOW_clean_sbu_0, # of connection points: 6
#     Node 26, Type 1, BuildingBlock: CUKXOW_clean_sbu_0, # of connection points: 6
#     Node 27, Type 1, BuildingBlock: CUKXOW_clean_sbu_0, # of connection points: 6
#     Node 28, Type 1, BuildingBlock: CUKXOW_clean_sbu_0, # of connection points: 6
#     Node 29, Type 1, BuildingBlock: CUKXOW_clean_sbu_0, # of connection points: 6
#     Node 30, Type 1, BuildingBlock: CUKXOW_clean_sbu_0, # of connection points: 6
#     Node 31, Type 1, BuildingBlock: CUKXOW_clean_sbu_0, # of connection points: 6
#     Node 32, Type 1, BuildingBlock: CUKXOW_clean_sbu_0, # of connection points: 6
#     Node 33, Type 1, BuildingBlock: CUKXOW_clean_sbu_0, # of connection points: 6
#     Node 34, Type 1, BuildingBlock: CUKXOW_clean_sbu_0, # of connection points: 6
#     Node 35, Type 1, BuildingBlock: CUKXOW_clean_sbu_0, # of connection points: 6
#     Node 36, Type 1, BuildingBlock: CUKXOW_clean_sbu_0, # of connection points: 6
#     Node 37, Type 1, BuildingBlock: CUKXOW_clean_sbu_0, # of connection points: 6
#     Node 38, Type 1, BuildingBlock: CUKXOW_clean_sbu_0, # of connection points: 6
#     Node 39, Type 1, BuildingBlock: CUKXOW_clean_sbu_0, # of connection points: 6
#     Edge 40, Type (0, 1), BuildingBlock: EZIPEK_clean_linker_0, # of connection points: 2
#     Edge 41, Type (0, 1), BuildingBlock: EZIPEK_clean_linker_0, # of connection points: 2
#     Edge 42, Type (0, 1), BuildingBlock: EZIPEK_clean_linker_0, # of connection points: 2
#     Edge 43, Type (0, 1), BuildingBlock: EZIPEK_clean_linker_0, # of connection points: 2
#     Edge 44, Type (0, 1), BuildingBlock: EZIPEK_clean_linker_0, # of connection points: 2
#     Edge 45, Type (0, 1), BuildingBlock: EZIPEK_clean_linker_0, # of connection points: 2
#     Edge 46, Type (0, 1), BuildingBlock: EZIPEK_clean_linker_0, # of connection points: 2
#     Edge 47, Type (0, 1), BuildingBlock: EZIPEK_clean_linker_0, # of connection points: 2
#     Edge 48, Type (0, 1), BuildingBlock: EZIPEK_clean_linker_0, # of connection points: 2
#     Edge 49, Type (0, 1), BuildingBlock: EZIPEK_clean_linker_0, # of connection points: 2
#     Edge 50, Type (0, 1), BuildingBlock: EZIPEK_clean_linker_0, # of connection points: 2
#     Edge 51, Type (0, 1), BuildingBlock: EZIPEK_clean_linker_0, # of connection points: 2
#     Edge 52, Type (0, 1), BuildingBlock: EZIPEK_clean_linker_0, # of connection points: 2
#     Edge 53, Type (0, 1), BuildingBlock: EZIPEK_clean_linker_0, # of connection points: 2
#     Edge 54, Type (0, 1), BuildingBlock: EZIPEK_clean_linker_0, # of connection points: 2
#     Edge 55, Type (0, 1), BuildingBlock: EZIPEK_clean_linker_0, # of connection points: 2
#     Edge 56, Type (0, 1), BuildingBlock: EZIPEK_clean_linker_0, # of connection points: 2
#     Edge 57, Type (0, 1), BuildingBlock: EZIPEK_clean_linker_0, # of connection points: 2
#     Edge 58, Type (0, 1), BuildingBlock: EZIPEK_clean_linker_0, # of connection points: 2
#     Edge 59, Type (0, 1), BuildingBlock: EZIPEK_clean_linker_0, # of connection points: 2
#     Edge 60, Type (0, 1), BuildingBlock: EZIPEK_clean_linker_0, # of connection points: 2
#     Edge 61, Type (0, 1), BuildingBlock: EZIPEK_clean_linker_0, # of connection points: 2
#     Edge 62, Type (0, 1), BuildingBlock: EZIPEK_clean_linker_0, # of connection points: 2
#     Edge 63, Type (0, 1), BuildingBlock: EZIPEK_clean_linker_0, # of connection points: 2
#     Edge 64, Type (0, 1), BuildingBlock: EZIPEK_clean_linker_0, # of connection points: 2
#     Edge 65, Type (0, 1), BuildingBlock: EZIPEK_clean_linker_0, # of connection points: 2
#     Edge 66, Type (0, 1), BuildingBlock: EZIPEK_clean_linker_0, # of connection points: 2
#     Edge 67, Type (0, 1), BuildingBlock: EZIPEK_clean_linker_0, # of connection points: 2
#     Edge 68, Type (0, 1), BuildingBlock: EZIPEK_clean_linker_0, # of connection points: 2
#     Edge 69, Type (0, 1), BuildingBlock: EZIPEK_clean_linker_0, # of connection points: 2
#     Edge 70, Type (0, 1), BuildingBlock: EZIPEK_clean_linker_0, # of connection points: 2
#     Edge 71, Type (0, 1), BuildingBlock: EZIPEK_clean_linker_0, # of connection points: 2
#     Edge 72, Type (0, 1), BuildingBlock: EZIPEK_clean_linker_0, # of connection points: 2
#     Edge 73, Type (0, 1), BuildingBlock: EZIPEK_clean_linker_0, # of connection points: 2
#     Edge 74, Type (0, 1), BuildingBlock: EZIPEK_clean_linker_0, # of connection points: 2
#     Edge 75, Type (0, 1), BuildingBlock: EZIPEK_clean_linker_0, # of connection points: 2
#     Edge 76, Type (0, 1), BuildingBlock: EZIPEK_clean_linker_0, # of connection points: 2
#     Edge 77, Type (0, 1), BuildingBlock: EZIPEK_clean_linker_0, # of connection points: 2
#     Edge 78, Type (0, 1), BuildingBlock: EZIPEK_clean_linker_0, # of connection points: 2
#     Edge 79, Type (0, 1), BuildingBlock: EZIPEK_clean_linker_0, # of connection points: 2
#     Edge 80, Type (0, 1), BuildingBlock: EZIPEK_clean_linker_0, # of connection points: 2
#     Edge 81, Type (0, 1), BuildingBlock: EZIPEK_clean_linker_0, # of connection points: 2
#     Edge 82, Type (0, 1), BuildingBlock: EZIPEK_clean_linker_0, # of connection points: 2
#     Edge 83, Type (0, 1), BuildingBlock: EZIPEK_clean_linker_0, # of connection points: 2
#     Edge 84, Type (0, 1), BuildingBlock: EZIPEK_clean_linker_0, # of connection points: 2
#     Edge 85, Type (0, 1), BuildingBlock: EZIPEK_clean_linker_0, # of connection points: 2
#     Edge 86, Type (0, 1), BuildingBlock: EZIPEK_clean_linker_0, # of connection points: 2
#     Edge 87, Type (0, 1), BuildingBlock: EZIPEK_clean_linker_0, # of connection points: 2
#     Edge 88, Type (0, 1), BuildingBlock: EZIPEK_clean_linker_0, # of connection points: 2
#     Edge 89, Type (0, 1), BuildingBlock: EZIPEK_clean_linker_0, # of connection points: 2
#     Edge 90, Type (0, 1), BuildingBlock: EZIPEK_clean_linker_0, # of connection points: 2
#     Edge 91, Type (0, 1), BuildingBlock: EZIPEK_clean_linker_0, # of connection points: 2
#     Edge 92, Type (0, 1), BuildingBlock: EZIPEK_clean_linker_0, # of connection points: 2
#     Edge 93, Type (0, 1), BuildingBlock: EZIPEK_clean_linker_0, # of connection points: 2
#     Edge 94, Type (0, 1), BuildingBlock: EZIPEK_clean_linker_0, # of connection points: 2
#     Edge 95, Type (0, 1), BuildingBlock: EZIPEK_clean_linker_0, # of connection points: 2
#     Edge 96, Type (0, 1), BuildingBlock: EZIPEK_clean_linker_0, # of connection points: 2
#     Edge 97, Type (0, 1), BuildingBlock: EZIPEK_clean_linker_0, # of connection points: 2
#     Edge 98, Type (0, 1), BuildingBlock: EZIPEK_clean_linker_0, # of connection points: 2
#     Edge 99, Type (0, 1), BuildingBlock: EZIPEK_clean_linker_0, # of connection points: 2
#     Edge 100, Type (0, 1), BuildingBlock: EZIPEK_clean_linker_0, # of connection points: 2
#     Edge 101, Type (0, 1), BuildingBlock: EZIPEK_clean_linker_0, # of connection points: 2
#     Edge 102, Type (0, 1), BuildingBlock: EZIPEK_clean_linker_0, # of connection points: 2
#     Edge 103, Type (0, 1), BuildingBlock: EZIPEK_clean_linker_0, # of connection points: 2
#     Edge 104, Type (0, 1), BuildingBlock: EZIPEK_clean_linker_0, # of connection points: 2
#     Edge 105, Type (0, 1), BuildingBlock: EZIPEK_clean_linker_0, # of connection points: 2
#     Edge 106, Type (0, 1), BuildingBlock: EZIPEK_clean_linker_0, # of connection points: 2
#     Edge 107, Type (0, 1), BuildingBlock: EZIPEK_clean_linker_0, # of connection points: 2
#     Edge 108, Type (0, 1), BuildingBlock: EZIPEK_clean_linker_0, # of connection points: 2
#     Edge 109, Type (0, 1), BuildingBlock: EZIPEK_clean_linker_0, # of connection points: 2
#     Edge 110, Type (0, 1), BuildingBlock: EZIPEK_clean_linker_0, # of connection points: 2
#     Edge 111, Type (0, 1), BuildingBlock: EZIPEK_clean_linker_0, # of connection points: 2
#     Edge 112, Type (0, 1), BuildingBlock: EZIPEK_clean_linker_0, # of connection points: 2
#     Edge 113, Type (0, 1), BuildingBlock: EZIPEK_clean_linker_0, # of connection points: 2
#     Edge 114, Type (0, 1), BuildingBlock: EZIPEK_clean_linker_0, # of connection points: 2
#     Edge 115, Type (0, 1), BuildingBlock: EZIPEK_clean_linker_0, # of connection points: 2
#     Edge 116, Type (0, 1), BuildingBlock: EZIPEK_clean_linker_0, # of connection points: 2
#     Edge 117, Type (0, 1), BuildingBlock: EZIPEK_clean_linker_0, # of connection points: 2
#     Edge 118, Type (0, 1), BuildingBlock: EZIPEK_clean_linker_0, # of connection points: 2
#     Edge 119, Type (0, 1), BuildingBlock: EZIPEK_clean_linker_0, # of connection points: 2
#     Edge 120, Type (0, 1), BuildingBlock: EZIPEK_clean_linker_0, # of connection points: 2
#     Edge 121, Type (0, 1), BuildingBlock: EZIPEK_clean_linker_0, # of connection points: 2
#     Edge 122, Type (0, 1), BuildingBlock: EZIPEK_clean_linker_0, # of connection points: 2
#     Edge 123, Type (0, 1), BuildingBlock: EZIPEK_clean_linker_0, # of connection points: 2
#     Edge 124, Type (0, 1), BuildingBlock: EZIPEK_clean_linker_0, # of connection points: 2
#     Edge 125, Type (0, 1), BuildingBlock: EZIPEK_clean_linker_0, # of connection points: 2
#     Edge 126, Type (0, 1), BuildingBlock: EZIPEK_clean_linker_0, # of connection points: 2
#     Edge 127, Type (0, 1), BuildingBlock: EZIPEK_clean_linker_0, # of connection points: 2
#     Edge 128, Type (0, 1), BuildingBlock: EZIPEK_clean_linker_0, # of connection points: 2
#     Edge 129, Type (0, 1), BuildingBlock: EZIPEK_clean_linker_0, # of connection points: 2
#     Edge 130, Type (0, 1), BuildingBlock: EZIPEK_clean_linker_0, # of connection points: 2
#     Edge 131, Type (0, 1), BuildingBlock: EZIPEK_clean_linker_0, # of connection points: 2
#     Edge 132, Type (0, 1), BuildingBlock: EZIPEK_clean_linker_0, # of connection points: 2
#     Edge 133, Type (0, 1), BuildingBlock: EZIPEK_clean_linker_0, # of connection points: 2
#     Edge 134, Type (0, 1), BuildingBlock: EZIPEK_clean_linker_0, # of connection points: 2
#     Edge 135, Type (0, 1), BuildingBlock: EZIPEK_clean_linker_0, # of connection points: 2
# Relax obj value: 0.139
# Max RMSD: 0.233
# Mean RMSD: 0.146
data_MOF--net-gar--node1-GALJAG_clean_sbu_0--node2-CUKXOW_clean_sbu_0--edge1-EZIPEK_clean_linker_0
_symmetry_space_group_name_H-M    P1
_symmetry_Int_Tables_number       1
_symmetry_cell_setting            triclinic
loop_
_symmetry_equiv_pos_as_xyz
'x, y, z'
_cell_length_a     40.970815
_cell_length_b     39.616707
_cell_length_c     39.612024
_cell_angle_alpha  93.921744
_cell_angle_beta   94.755519
_cell_angle_gamma 98.188175
loop_
_atom_site_label
_atom_site_type_symbol
_atom_site_fract_x
_atom_site_fract_y
_atom_site_fract_z
_atom_type_partial_charge
In0 In 0.04039 0.26674 0.44212 0.0
O1 O 0.05014 0.24215 0.39126 0.0
O2 O 0.09185 0.26811 0.42297 0.0
C3 C 0.9816 0.27349 0.41082 0.0
C4 C 0.04026 0.21288 0.47958 0.0
C5 C 0.04846 0.32729 0.47988 0.0
O6 O 0.00833 0.28992 0.40347 0.0
O7 O 0.98417 0.25388 0.43437 0.0
O8 O 0.03906 0.29927 0.49189 0.0
O9 O 0.05587 0.32446 0.44964 0.0
C10 C 0.08091 0.25145 0.39503 0.0
O11 O 0.06154 0.23943 0.48621 0.0
O12 O 0.0196 0.2138 0.45433 0.0
In13 In 0.99299 0.78401 0.61957 0.0
O14 O 0.96728 0.81249 0.57973 0.0
O15 O 0.01478 0.8353 0.60345 0.0
C16 C 0.98856 0.72764 0.57642 0.0
C17 C 0.04696 0.77234 0.65643 0.0
C18 C 0.95624 0.80217 0.66887 0.0
O19 O 1.00542 0.75583 0.57182 0.0
O20 O 0.9717 0.72824 0.60173 0.0
O21 O 0.9853 0.81647 0.6665 0.0
O22 O 0.94484 0.77872 0.64579 0.0
C23 C 0.99049 0.83758 0.58241 0.0
O24 O 0.01849 0.7575 0.66069 0.0
O25 O 0.04828 0.79272 0.63327 0.0
In26 In 0.54013 0.76954 0.92392 0.0
O27 O 0.55012 0.74367 0.87405 0.0
O28 O 0.59174 0.77084 0.90537 0.0
C29 C 0.48631 0.78547 0.89067 0.0
C30 C 0.53529 0.71299 0.95715 0.0
C31 C 0.54918 0.82623 0.96717 0.0
O32 O 0.515 0.79689 0.88379 0.0
O33 O 0.48441 0.7659 0.9145 0.0
O34 O 0.53818 0.79714 0.97595 0.0
O35 O 0.55828 0.82618 0.93749 0.0
C36 C 0.58083 0.7534 0.87776 0.0
O37 O 0.55698 0.73875 0.96616 0.0
O38 O 0.51601 0.71584 0.93126 0.0
In39 In 0.49819 0.28762 0.11396 0.0
O40 O 0.5089 0.24975 0.0725 0.0
O41 O 0.46536 0.23649 0.09727 0.0
C42 C 0.50831 0.3387 0.07358 0.0
C43 C 0.45309 0.29896 0.1575 0.0
C44 C 0.55378 0.28633 0.15479 0.0
O45 O 0.48198 0.31746 0.06989 0.0
O46 O 0.52909 0.33422 0.09745 0.0
O47 O 0.53494 0.30832 0.15968 0.0
O48 O 0.54467 0.26514 0.12945 0.0
C49 C 0.48426 0.22773 0.07572 0.0
O50 O 0.46991 0.27475 0.15985 0.0
O51 O 0.45777 0.31619 0.13228 0.0
In52 In 0.00843 0.76447 0.17735 0.0
O53 O 0.01662 0.73538 0.12786 0.0
O54 O 1.00557 0.70613 0.16964 0.0
C55 C 1.00263 0.81904 0.14015 0.0
C56 C 0.95179 0.76196 0.20951 0.0
C57 C 0.06845 0.77127 0.21504 0.0
O58 O 0.98629 0.78979 0.13187 0.0
O59 O 0.02148 0.82091 0.16727 0.0
O60 O 0.04144 0.76272 0.22766 0.0
O61 O 0.06507 0.77646 0.18401 0.0
C62 C 0.0123 0.70624 0.1391 0.0
O63 O 0.97721 0.78376 0.21827 0.0
O64 O 0.95495 0.74104 0.185 0.0
In65 In 0.54404 0.80126 0.37808 0.0
O66 O 0.57087 0.77977 0.33452 0.0
O67 O 0.59637 0.82303 0.36449 0.0
C68 C 0.48139 0.79255 0.34583 0.0
C69 C 0.55069 0.74993 0.41864 0.0
C70 C 0.54133 0.85898 0.41836 0.0
O71 O 0.50602 0.80845 0.33345 0.0
O72 O 0.48834 0.78093 0.37403 0.0
O73 O 0.55476 0.83436 0.42843 0.0
O74 O 0.53076 0.85552 0.38726 0.0
C75 C 0.59719 0.8007 0.3405 0.0
O76 O 0.56177 0.78074 0.4278 0.0
O77 O 0.53595 0.74477 0.38904 0.0
In78 In 0.50483 0.26792 0.67356 0.0
O79 O 0.51055 0.23425 0.62619 0.0
O80 O 0.50342 0.20926 0.6713 0.0
C81 C 0.50105 0.3215 0.63471 0.0
C82 C 0.44764 0.26768 0.70492 0.0
C83 C 0.56583 0.2777 0.70965 0.0
O84 O 0.48918 0.29113 0.62446 0.0
O85 O 0.51443 0.32533 0.66488 0.0
O86 O 0.53923 0.27005 0.72325 0.0
O87 O 0.56166 0.28084 0.67817 0.0
C88 C 0.50809 0.20659 0.64019 0.0
O89 O 0.47598 0.2786 0.71976 0.0
O90 O 0.448 0.25606 0.67457 0.0
In91 In 0.03893 0.2988 0.87541 0.0
O92 O 0.03103 0.27504 0.92555 0.0
O93 O 0.04912 0.24505 0.88672 0.0
C94 C 0.04415 0.35796 0.91534 0.0
C95 C 0.09254 0.29767 0.83887 0.0
C96 C 0.9775 0.29172 0.84041 0.0
O97 O 0.05717 0.33261 0.92417 0.0
O98 O 0.03001 0.35447 0.88551 0.0
O99 O 1.00255 0.30996 0.83128 0.0
O100 O 0.98342 0.27629 0.86651 0.0
C101 C 0.04129 0.24759 0.91682 0.0
O102 O 0.06507 0.279 0.8306 0.0
O103 O 0.09292 0.31774 0.86506 0.0
In104 In 0.4161 0.07377 0.26659 0.0
O105 O 0.46439 0.07683 0.23882 0.0
O106 O 0.41888 0.05943 0.20959 0.0
C107 C 0.451 0.07724 0.32927 0.0
C108 C 0.37868 0.12513 0.25765 0.0
C109 C 0.3743 0.01645 0.27616 0.0
O110 O 0.44608 0.05112 0.30857 0.0
O111 O 0.44001 0.10286 0.31793 0.0
O112 O 0.37099 0.04564 0.28894 0.0
O113 O 0.39814 0.01607 0.258 0.0
C114 C 0.44997 0.0649 0.21017 0.0
O115 O 0.36721 0.09374 0.25338 0.0
O116 O 0.40965 0.13124 0.26548 0.0
In117 In 0.2644 0.12583 0.49106 0.0
O118 O 0.24046 0.16962 0.51338 0.0
O119 O 0.27989 0.15293 0.54327 0.0
C120 C 0.28316 0.16781 0.44347 0.0
C121 C 0.30798 0.08531 0.51201 0.0
C122 C 0.2059 0.08504 0.47645 0.0
O123 O 0.29887 0.1695 0.47235 0.0
O124 O 0.25899 0.14399 0.43788 0.0
O125 O 0.2308 0.08016 0.46105 0.0
O126 O 0.21061 0.10996 0.4986 0.0
C127 C 0.25888 0.1732 0.54087 0.0
O128 O 0.28447 0.0916 0.52883 0.0
O129 O 0.30916 0.09853 0.48394 0.0
In130 In 0.16542 0.0096 0.80942 0.0
O131 O 0.11955 1.00046 0.77205 0.0
O132 O 0.16662 0.01029 0.75237 0.0
C133 C 0.12996 0.00433 0.86431 0.0
C134 C 0.19662 0.95447 0.80389 0.0
C135 C 0.19655 0.07491 0.80966 0.0
O136 O 0.11701 0.00669 0.83483 0.0
O137 O 0.16093 0.00442 0.86632 0.0
O138 O 0.21214 0.04983 0.81206 0.0
O139 O 0.16562 0.06748 0.80945 0.0
C140 C 0.13559 0.00429 0.74642 0.0
O141 O 0.21112 0.98296 0.81757 0.0
O142 O 0.16621 0.95331 0.79492 0.0
In143 In 0.22467 0.89294 0.04351 0.0
O144 O 0.21561 0.84641 0.07653 0.0
O145 O 0.24733 0.89051 0.09843 0.0
C146 C 0.22084 0.85655 0.98086 0.0
C147 C 0.17589 0.9339 0.0533 0.0
C148 C 0.28587 0.9261 0.03596 0.0
O149 O 0.21653 0.84215 0.008 0.0
O150 O 0.22433 0.88878 0.98503 0.0
O151 O 0.2604 0.94058 0.03296 0.0
O152 O 0.28058 0.89547 0.04321 0.0
C153 C 0.23499 0.8601 0.10188 0.0
O154 O 0.20543 0.94072 0.06616 0.0
O155 O 0.16987 0.90534 0.03585 0.0
In156 In 0.26938 0.42192 0.05053 0.0
O157 O 0.28084 0.37959 0.08336 0.0
O158 O 0.2347 0.39775 0.08722 0.0
C159 C 0.26133 0.37736 0.996 0.0
C160 C 0.23396 0.47113 0.03404 0.0
C161 C 0.3286 0.46005 0.06743 0.0
O162 O 0.23738 0.39026 0.00682 0.0
O163 O 0.28896 0.38643 0.01288 0.0
O164 O 0.30722 0.4569 0.08864 0.0
O165 O 0.32017 0.44392 0.03889 0.0
C166 C 0.25367 0.37695 0.09635 0.0
O167 O 0.25417 0.46059 0.01505 0.0
O168 O 0.2322 0.4576 0.06191 0.0
In169 In 0.81153 0.17097 0.01886 0.0
O170 O 0.83351 0.11997 0.01528 0.0
O171 O 0.86735 0.1652 0.01538 0.0
C172 C 0.74957 0.1378 0.02198 0.0
C173 C 0.81567 0.20494 0.08265 0.0
C174 C 0.80199 0.20504 0.96095 0.0
O175 O 0.77288 0.1226 0.013 0.0
O176 O 0.75716 0.16969 0.02839 0.0
O177 O 0.8199 0.21837 0.98729 0.0
O178 O 0.79042 0.17407 0.96295 0.0
C179 C 0.86326 0.13286 0.01418 0.0
O180 O 0.8194 0.22017 0.05597 0.0
O181 O 0.81261 0.17282 0.07765 0.0
In182 In 0.13276 0.48867 0.29079 0.0
O183 O 0.1788 0.46449 0.3079 0.0
O184 O 0.13591 0.43046 0.28847 0.0
C185 C 0.17164 0.54856 0.28514 0.0
C186 C 0.10138 0.48691 0.22634 0.0
C187 C 0.09902 0.49754 0.3473 0.0
O188 O 0.18327 0.52128 0.28986 0.0
O189 O 0.14054 0.54601 0.2842 0.0
O190 O 0.08812 0.47586 0.32264 0.0
O191 O 0.12716 0.51386 0.34404 0.0
C192 C 0.16596 0.43384 0.30026 0.0
O193 O 0.08656 0.48923 0.2529 0.0
O194 O 0.13128 0.483 0.23204 0.0
In195 In 0.77366 0.93152 0.54869 0.0
O196 O 0.78923 0.88916 0.57895 0.0
O197 O 0.74682 0.91088 0.59247 0.0
C198 C 0.76286 0.88561 0.49554 0.0
C199 C 0.73253 0.97453 0.52876 0.0
C200 C 0.8322 0.96984 0.56826 0.0
O201 O 0.74378 0.88478 0.51893 0.0
O202 O 0.78684 0.90974 0.49881 0.0
O203 O 0.82875 0.94482 0.54629 0.0
O204 O 0.8062 0.97566 0.58105 0.0
C205 C 0.7658 0.88892 0.59763 0.0
O206 O 0.73154 0.96148 0.55689 0.0
O207 O 0.75486 0.96676 0.51097 0.0
In208 In 0.86763 0.05537 0.24301 0.0
O209 O 0.921 0.06268 0.23041 0.0
O210 O 0.88466 0.06173 0.18896 0.0
C211 C 0.90135 0.0555 0.30365 0.0
C212 C 0.82832 0.10466 0.24934 0.0
C213 C 0.83224 0.99177 0.23714 0.0
O214 O 0.89793 0.03037 0.28172 0.0
O215 O 0.88805 0.0808 0.29511 0.0
O216 O 0.83923 0.00982 0.26491 0.0
O217 O 0.84219 0.00601 0.21147 0.0
C218 C 0.91505 0.06396 0.19901 0.0
O219 O 0.81668 0.07387 0.24032 0.0
O220 O 0.85944 0.1109 0.25298 0.0
In221 In 0.31485 0.67157 0.5235 0.0
O222 O 0.33747 0.62136 0.51994 0.0
O223 O 0.37057 0.66705 0.51836 0.0
C224 C 0.25272 0.63813 0.52254 0.0
C225 C 0.31582 0.70086 0.58886 0.0
C226 C 0.30689 0.70582 0.46602 0.0
O227 O 0.27681 0.62277 0.51652 0.0
O228 O 0.25977 0.67012 0.52806 0.0
O229 O 0.32393 0.71966 0.49275 0.0
O230 O 0.29551 0.67476 0.46765 0.0
C231 C 0.3669 0.6347 0.51763 0.0
O232 O 0.3162 0.71806 0.56319 0.0
O233 O 0.31806 0.66979 0.58195 0.0
In234 In 0.37013 0.55264 0.73603 0.0
O235 O 0.33047 0.58567 0.71859 0.0
O236 O 0.35893 0.59967 0.76602 0.0
C237 C 0.33563 0.48829 0.73257 0.0
C238 C 0.41261 0.56349 0.68768 0.0
C239 C 0.40456 0.54936 0.79576 0.0
O240 O 0.32145 0.51387 0.72673 0.0
O241 O 0.36657 0.49508 0.73843 0.0
O242 O 0.41806 0.5498 0.76831 0.0
O243 O 0.37393 0.55079 0.79325 0.0
C244 C 0.33577 0.60558 0.74548 0.0
O245 O 0.41512 0.58192 0.71519 0.0
O246 O 0.38704 0.54117 0.68301 0.0
In247 In 0.63094 0.98824 0.79202 0.0
O248 O 0.6778 0.96504 0.80902 0.0
O249 O 0.63687 0.93066 0.78581 0.0
C250 C 0.6676 0.04984 0.78792 0.0
C251 C 0.59899 0.98553 0.72768 0.0
C252 C 0.59642 0.9973 0.84824 0.0
O253 O 0.68019 0.02444 0.79765 0.0
O254 O 0.63656 0.0443 0.78093 0.0
O255 O 0.58604 0.97525 0.82381 0.0
O256 O 0.62424 0.01406 0.84479 0.0
C257 C 0.66643 0.93453 0.79901 0.0
O258 O 0.58393 0.97889 0.75357 0.0
O259 O 0.63006 0.99137 0.73383 0.0
In260 In 0.77309 0.62107 0.98877 0.0
O261 O 0.7922 0.58429 0.02415 0.0
O262 O 0.81748 0.59354 0.9801 0.0
C263 C 0.7121 0.58655 0.97385 0.0
C264 C 0.77255 0.66146 0.04519 0.0
C265 C 0.7851 0.66407 0.94028 0.0
O266 O 0.73743 0.57305 0.96799 0.0
O267 O 0.71767 0.61754 0.98516 0.0
O268 O 0.7958 0.67149 0.97088 0.0
O269 O 0.76945 0.63429 0.9334 0.0
C270 C 0.81579 0.57871 0.00725 0.0
O271 O 0.74738 0.64113 0.03245 0.0
O272 O 0.79826 0.66127 0.0298 0.0
In273 In 0.91866 0.57725 0.76459 0.0
O274 O 0.87271 0.59987 0.74642 0.0
O275 O 0.91438 0.63525 0.76753 0.0
C276 C 0.87555 0.52117 0.7748 0.0
C277 C 0.94932 0.56996 0.70601 0.0
C278 C 0.95541 0.57729 0.82589 0.0
O279 O 0.8707 0.55109 0.78343 0.0
O280 O 0.90169 0.51936 0.76053 0.0
O281 O 0.96098 0.56081 0.79915 0.0
O282 O 0.93288 0.59554 0.82144 0.0
C283 C 0.8845 0.63069 0.75501 0.0
O284 O 0.9622 0.59024 0.73119 0.0
O285 O 0.92096 0.55455 0.70997 0.0
In286 In 0.72873 0.39264 0.54209 0.0
O287 O 0.72038 0.34528 0.57376 0.0
O288 O 0.74907 0.39034 0.59786 0.0
C289 C 0.72412 0.3568 0.47936 0.0
C290 C 0.68053 0.43389 0.55206 0.0
C291 C 0.7902 0.42455 0.53485 0.0
O292 O 0.71822 0.3424 0.50618 0.0
O293 O 0.72964 0.38898 0.48373 0.0
O294 O 0.76475 0.43861 0.52932 0.0
O295 O 0.78484 0.39473 0.54436 0.0
C296 C 0.73782 0.35935 0.60021 0.0
O297 O 0.71057 0.4417 0.56298 0.0
O298 O 0.67387 0.40443 0.53644 0.0
In299 In 0.67454 0.51124 0.30675 0.0
O300 O 0.72316 0.48873 0.31231 0.0
O301 O 0.67931 0.45514 0.29389 0.0
C302 C 0.70658 0.57662 0.30814 0.0
C303 C 0.63704 0.50642 0.24802 0.0
C304 C 0.63486 0.5067 0.35821 0.0
O305 O 0.70172 0.56211 0.33506 0.0
O306 O 0.69611 0.55823 0.28135 0.0
O307 O 0.62621 0.51718 0.33001 0.0
O308 O 0.66383 0.49898 0.36094 0.0
C309 C 0.71022 0.45896 0.30079 0.0
O310 O 0.62449 0.50199 0.27571 0.0
O311 O 0.66821 0.51178 0.24984 0.0
Tb312 Tb 0.04617 0.08011 0.03744 0.0
C313 C 0.0543 0.02079 0.98091 0.0
Tb314 Tb 0.01029 1.00278 0.04217 0.0
O315 O 0.09615 0.07101 0.0569 0.0
O316 O 0.05637 0.03394 0.05588 0.0
O317 O 0.05669 0.05388 0.99043 0.0
C318 C 0.99868 0.93997 0.06472 0.0
O319 O 0.03802 0.99613 0.99724 0.0
C320 C 0.96861 0.04497 0.01802 0.0
C321 C 0.01177 0.06077 0.10323 0.0
O322 O 0.01904 0.94913 0.04236 0.0
O323 O 0.98384 0.96575 0.07283 0.0
O324 O 0.96048 0.01208 0.02006 0.0
O325 O 0.99931 0.04995 0.02705 0.0
O326 O 0.01173 0.02778 0.09362 0.0
O327 O 0.02192 0.08569 0.08407 0.0
C328 C 0.04874 0.13681 1.0041 0.0
O329 O 0.05796 0.13635 0.03657 0.0
O330 O 0.03877 0.10575 0.9913 0.0
C331 C 0.08755 0.03891 0.06269 0.0
Tb332 Tb 0.2777 0.81977 0.2966 0.0
C333 C 0.34313 0.78468 0.29115 0.0
Tb334 Tb 0.26995 0.7464 0.26925 0.0
O335 O 0.2646 0.80559 0.34718 0.0
O336 O 0.28665 0.77331 0.31678 0.0
O337 O 0.33006 0.81334 0.29531 0.0
C338 C 0.24739 0.67998 0.2706 0.0
O339 O 0.32429 0.75461 0.28206 0.0
C340 C 0.27414 0.78984 0.2214 0.0
C341 C 0.20481 0.78381 0.27502 0.0
O342 O 0.26421 0.69317 0.24693 0.0
O343 O 0.24398 0.70392 0.29336 0.0
O344 O 0.28318 0.75959 0.21869 0.0
O345 O 0.26062 0.79239 0.24883 0.0
O346 O 0.21763 0.75506 0.26923 0.0
O347 O 0.22391 0.8133 0.28543 0.0
C348 C 0.29805 0.88655 0.29504 0.0
O349 O 0.28476 0.87246 0.3204 0.0
O350 O 0.29934 0.86325 0.27088 0.0
C351 C 0.27291 0.77497 0.34412 0.0
Tb352 Tb 0.55573 0.04203 0.52168 0.0
C353 C 0.54099 0.00975 0.59259 0.0
Tb354 Tb 0.48537 0.0225 0.53695 0.0
O355 O 0.55381 0.09664 0.53174 0.0
O356 O 0.52496 0.0606 0.55669 0.0
O357 O 0.56298 0.01967 0.57093 0.0
C358 C 0.42259 0.02708 0.54893 0.0
O359 O 0.50867 0.01006 0.58553 0.0
C360 C 0.51089 0.97272 0.5061 0.0
C361 C 0.50042 0.05641 0.4676 0.0
O362 O 0.43236 1.00271 0.53061 0.0
O363 O 0.44856 0.04879 0.56028 0.0
O364 O 0.48784 0.96803 0.52678 0.0
O365 O 0.51607 0.00421 0.50159 0.0
O366 O 0.47964 0.05108 0.49143 0.0
O367 O 0.53169 0.05101 0.47242 0.0
C368 C 0.61701 0.03382 0.51022 0.0
O369 O 0.60655 0.06321 0.51339 0.0
O370 O 0.5929 0.00939 0.51254 0.0
C371 C 0.53 0.09186 0.55146 0.0
Tb372 Tb 0.27552 0.29107 0.80399 0.0
C373 C 0.28173 0.34891 0.75512 0.0
Tb374 Tb 0.25788 0.27134 0.72997 0.0
O375 O 0.32853 0.30253 0.79841 0.0
O376 O 0.2984 0.26582 0.76502 0.0
O377 O 0.27265 0.34102 0.78524 0.0
C378 C 0.25855 0.25454 0.66417 0.0
O379 O 0.28218 0.32467 0.73031 0.0
C380 C 0.20666 0.28014 0.76359 0.0
C381 C 0.2493 0.21324 0.78141 0.0
O382 O 0.24192 0.27705 0.67689 0.0
O383 O 0.27545 0.24236 0.68834 0.0
O384 O 0.20471 0.26104 0.73534 0.0
O385 O 0.23558 0.29667 0.7687 0.0
O386 O 0.247 0.22064 0.74911 0.0
O387 O 0.26123 0.23644 0.80666 0.0
C388 C 0.26888 0.30378 0.86925 0.0
O389 O 0.24645 0.28628 0.84747 0.0
O390 O 0.29499 0.31432 0.85429 0.0
C391 C 0.32711 0.28306 0.77044 0.0
Tb392 Tb 0.99689 0.02226 0.48992 0.0
C393 C 0.96208 0.02285 0.55879 0.0
Tb394 Tb 0.03769 0.02498 0.55777 0.0
O395 O 0.97111 0.97091 0.49361 0.0
O396 O 0.01825 0.98657 0.51858 0.0
O397 O 0.96129 0.03186 0.52698 0.0
C398 C 0.07406 0.01254 0.61256 0.0
O399 O 0.98871 0.01327 0.57382 0.0
C400 C 0.02188 0.08412 0.53925 0.0
C401 C 0.07528 0.02752 0.4915 0.0
O402 O 0.04983 0.99119 0.59668 0.0
O403 O 0.07797 0.0407 0.59752 0.0
O404 O 0.02613 0.07679 0.57063 0.0
O405 O 0.02911 0.05972 0.52104 0.0
O406 O 0.07735 0.02404 0.52469 0.0
O407 O 0.0467 0.02715 0.47277 0.0
C408 C 0.96844 0.03789 0.43217 0.0
O409 O 0.98468 0.01226 0.43532 0.0
O410 O 0.96824 0.0548 0.46134 0.0
C411 C 0.99332 0.96341 0.51595 0.0
Tb412 Tb 0.30048 0.78947 0.79605 0.0
C413 C 0.24696 0.79079 0.84986 0.0
Tb414 Tb 0.22489 0.76037 0.77242 0.0
O415 O 0.29616 0.84399 0.78973 0.0
O416 O 0.25704 0.80674 0.77826 0.0
O417 O 0.27871 0.79052 0.84478 0.0
C418 C 0.16664 0.76129 0.73845 0.0
O419 O 0.22224 0.781 0.82546 0.0
C420 C 0.25892 0.7101 0.78714 0.0
C421 C 0.2812 0.75413 0.72123 0.0
O422 O 0.17066 0.74933 0.76814 0.0
O423 O 0.19511 0.77263 0.7283 0.0
O424 O 0.22744 0.70587 0.77675 0.0
O425 O 0.26808 0.74217 0.7901 0.0
O426 O 0.24921 0.75476 0.72504 0.0
O427 O 0.30505 0.7634 0.74641 0.0
C428 C 0.36332 0.79924 0.82041 0.0
O429 O 0.33861 0.78864 0.83738 0.0
O430 O 0.3527 0.80471 0.78977 0.0
C431 C 0.26477 0.83861 0.77972 0.0
Tb432 Tb 0.4838 0.0132 0.01472 0.0
C433 C 0.53547 0.95982 0.02514 0.0
Tb434 Tb 0.55529 0.03916 0.03961 0.0
O435 O 0.49055 0.02427 0.96196 0.0
O436 O 0.52974 0.01386 0.9938 0.0
O437 O 0.50404 0.96491 0.01969 0.0
C438 C 0.61746 0.06923 0.03666 0.0
O439 O 0.56012 0.98539 0.0327 0.0
C440 C 0.51509 0.0277 0.0892 0.0
C441 C 0.50671 0.09332 0.02883 0.0
O442 O 0.6066 0.05368 0.06232 0.0
O443 O 0.59336 0.06791 0.01306 0.0
O444 O 0.54705 0.02777 0.09224 0.0
O445 O 0.50891 0.03822 0.06032 0.0
O446 O 0.53792 0.08787 0.03168 0.0
O447 O 0.48148 0.06793 0.02471 0.0
C448 C 0.42141 0.98302 0.01834 0.0
O449 O 0.43054 0.00658 0.9983 0.0
O450 O 0.44761 0.97582 0.03535 0.0
C451 C 0.52244 0.02412 0.96506 0.0
Tb452 Tb 0.23227 0.25342 0.27187 0.0
C453 C 0.28622 0.25651 0.3374 0.0
Tb454 Tb 0.30237 0.2997 0.27738 0.0
O455 O 0.24794 0.20412 0.25534 0.0
O456 O 0.28074 0.24875 0.26449 0.0
O457 O 0.25553 0.24784 0.32262 0.0
C458 C 0.36198 0.31748 0.25657 0.0
O459 O 0.3098 0.27662 0.32449 0.0
C460 C 0.25258 0.32849 0.30115 0.0
C461 C 0.25239 0.29525 0.20978 0.0
O462 O 0.34984 0.28723 0.26408 0.0
O463 O 0.34131 0.3386 0.26319 0.0
O464 O 0.28406 0.33842 0.31097 0.0
O465 O 0.25196 0.30593 0.2769 0.0
O466 O 0.28298 0.30302 0.2249 0.0
O467 O 0.22749 0.27725 0.22353 0.0
C468 C 0.17602 0.24137 0.30014 0.0
O469 O 0.18025 0.22907 0.26953 0.0
O470 O 0.20278 0.26042 0.3138 0.0
C471 C 0.27929 0.21706 0.25711 0.0
Tb472 Tb 0.50118 0.52257 0.98475 0.0
C473 C 0.45886 0.51571 0.04773 0.0
Tb474 Tb 0.5379 0.53727 0.06129 0.0
O475 O 0.49923 0.46617 0.98273 0.0
O476 O 0.52171 0.49724 0.02361 0.0
O477 O 0.45874 0.51852 0.01446 0.0
C478 C 0.57009 0.52806 0.1201 0.0
O479 O 0.486 0.51931 0.06946 0.0
C480 C 0.52747 0.59317 0.03262 0.0
C481 C 0.57895 0.54167 0.9961 0.0
O482 O 0.54184 0.53945 0.11673 0.0
O483 O 0.58037 0.52217 0.09044 0.0
O484 O 0.5427 0.59365 0.06287 0.0
O485 O 0.51795 0.56244 0.02264 0.0
O486 O 0.57892 0.53782 0.02931 0.0
O487 O 0.55179 0.53978 0.97494 0.0
C488 C 0.47193 0.53306 0.92526 0.0
O489 O 0.49432 0.51324 0.9297 0.0
O490 O 0.46589 0.54697 0.95429 0.0
C491 C 0.51568 0.4664 0.01241 0.0
Tb492 Tb 0.80457 0.28972 0.29425 0.0
C493 C 0.74873 0.29555 0.34644 0.0
Tb494 Tb 0.73339 0.27108 0.26791 0.0
O495 O 0.80802 0.3404 0.27461 0.0
O496 O 0.76377 0.31632 0.28878 0.0
O497 O 0.78067 0.29514 0.34227 0.0
C498 C 0.67571 0.27552 0.23408 0.0
O499 O 0.7257 0.2886 0.32019 0.0
C500 C 0.7616 0.21838 0.28607 0.0
C501 C 0.78958 0.26535 0.21572 0.0
O502 O 0.68009 0.25484 0.25756 0.0
O503 O 0.70381 0.29341 0.22954 0.0
O504 O 0.73019 0.22006 0.28692 0.0
O505 O 0.77412 0.24455 0.27296 0.0
O506 O 0.75756 0.26583 0.21986 0.0
O507 O 0.81261 0.27237 0.24202 0.0
C508 C 0.86084 0.28486 0.33034 0.0
O509 O 0.85742 0.30692 0.30797 0.0
O510 O 0.83282 0.26562 0.33219 0.0
C511 C 0.77653 0.34196 0.27499 0.0
Tb512 Tb 0.98511 0.51737 0.51306 0.0
C513 C 0.0364 0.46492 0.52835 0.0
Tb514 Tb 0.05592 0.54499 0.53566 0.0
O515 O 0.99166 0.52605 0.45963 0.0
O516 O 0.03078 0.51595 0.49194 0.0
O517 O 1.00504 0.46969 0.52201 0.0
C518 C 0.11837 0.57399 0.53227 0.0
O519 O 0.06095 0.49089 0.53436 0.0
C520 C 0.01729 0.53856 0.58596 0.0
C521 C 1.00536 0.59699 0.51716 0.0
O522 O 0.09666 0.56423 0.50656 0.0
O523 O 0.10495 0.56756 0.56016 0.0
O524 O 0.04875 0.53629 0.58887 0.0
O525 O 0.01006 0.54728 0.55654 0.0
O526 O 0.0367 0.59145 0.52089 0.0
O527 O 0.98086 0.57156 0.51872 0.0
C528 C 0.9233 0.48724 0.51702 0.0
O529 O 0.93342 0.50374 0.49166 0.0
O530 O 0.94793 0.48753 0.53985 0.0
C531 C 0.02336 0.52492 0.4627 0.0
Tb532 Tb 0.78189 0.79494 0.30809 0.0
C533 C 0.78246 0.85048 0.25396 0.0
Tb534 Tb 0.75985 0.77199 0.22904 0.0
O535 O 0.83502 0.78909 0.30646 0.0
O536 O 0.80223 0.78118 0.26374 0.0
O537 O 0.77991 0.84382 0.28626 0.0
C538 C 0.76782 0.74407 0.16868 0.0
O539 O 0.77809 0.82654 0.22787 0.0
C540 C 0.70994 0.78543 0.26334 0.0
C541 C 0.75575 0.71683 0.28533 0.0
O542 O 0.74867 0.76707 0.17396 0.0
O543 O 0.78258 0.73727 0.19711 0.0
O544 O 0.70616 0.77413 0.2313 0.0
O545 O 0.74037 0.7882 0.27257 0.0
O546 O 0.75074 0.72338 0.25283 0.0
O547 O 0.76873 0.74013 0.31034 0.0
C548 C 0.77181 0.8126 0.37099 0.0
O549 O 0.75239 0.78969 0.35094 0.0
O550 O 0.79734 0.82528 0.35601 0.0
C551 C 0.83222 0.78109 0.27371 0.0
Tb552 Tb 0.77507 0.32477 0.79404 0.0
C553 C 0.83846 0.28747 0.78946 0.0
Tb554 Tb 0.76504 0.24996 0.77227 0.0
O555 O 0.76348 0.31488 0.84657 0.0
O556 O 0.78354 0.2798 0.81765 0.0
O557 O 0.82551 0.31574 0.78491 0.0
C558 C 0.74126 0.18426 0.77671 0.0
O559 O 0.81866 0.25755 0.78894 0.0
C560 C 0.77154 0.28982 0.72158 0.0
C561 C 0.70146 0.29058 0.77303 0.0
O562 O 0.74028 0.20922 0.79931 0.0
O563 O 0.75669 0.19611 0.75154 0.0
O564 O 0.78029 0.2594 0.7214 0.0
O565 O 0.75725 0.2946 0.74816 0.0
O566 O 0.71315 0.26077 0.77163 0.0
O567 O 0.72168 0.32 0.7802 0.0
C568 C 0.79849 0.39106 0.79154 0.0
O569 O 0.781 0.37858 0.81501 0.0
O570 O 0.80196 0.36642 0.76966 0.0
C571 C 0.7706 0.28387 0.84501 0.0
Tb572 Tb 0.73728 0.75756 0.76493 0.0
C573 C 0.78418 0.75495 0.83431 0.0
Tb574 Tb 0.80729 0.80369 0.78004 0.0
O575 O 0.75434 0.70962 0.74656 0.0
O576 O 0.78661 0.75371 0.76198 0.0
O577 O 0.75545 0.74569 0.81562 0.0
C578 C 0.87145 0.82015 0.77154 0.0
O579 O 0.80826 0.77797 0.82618 0.0
C580 C 0.75536 0.83125 0.79972 0.0
C581 C 0.76473 0.8029 0.70832 0.0
O582 O 0.85719 0.79134 0.78081 0.0
O583 O 0.84915 0.84041 0.76826 0.0
O584 O 0.7861 0.84108 0.81255 0.0
O585 O 0.75697 0.8099 0.77499 0.0
O586 O 0.79408 0.80949 0.72643 0.0
O587 O 0.73808 0.78429 0.71841 0.0
C588 C 0.67822 0.74512 0.78686 0.0
O589 O 0.68508 0.73381 0.75679 0.0
O590 O 0.704 0.76339 0.80347 0.0
C591 C 0.78569 0.72258 0.75221 0.0
Tb592 Tb 0.54952 0.57686 0.53187 0.0
C593 C 0.55403 0.52102 0.47074 0.0
Tb594 Tb 0.51333 0.50193 0.53394 0.0
O595 O 0.59338 0.56734 0.56415 0.0
O596 O 0.56326 0.5275 0.53673 0.0
O597 O 0.55619 0.55375 0.48168 0.0
C598 C 0.50273 0.44028 0.55765 0.0
O599 O 0.54003 0.49574 0.48796 0.0
C600 C 0.47053 0.54558 0.51628 0.0
C601 C 0.51299 0.55695 0.596 0.0
O602 O 0.49767 0.44603 0.5257 0.0
O603 O 0.51303 0.46891 0.57549 0.0
O604 O 0.4624 0.51259 0.51719 0.0
O605 O 0.50137 0.55016 0.52397 0.0
O606 O 0.51379 0.52448 0.58584 0.0
O607 O 0.52213 0.58186 0.57657 0.0
C608 C 0.55749 0.63523 0.50085 0.0
O609 O 0.56435 0.63308 0.5334 0.0
O610 O 0.54746 0.60487 0.48656 0.0
C611 C 0.5877 0.53397 0.55909 0.0
Tb612 Tb 0.06397 0.54605 0.01971 0.0
C613 C 0.04858 0.51299 0.09012 0.0
Tb614 Tb 0.99412 0.52121 0.03184 0.0
O615 O 0.05811 0.59968 0.02839 0.0
O616 O 0.03046 0.56225 0.05286 0.0
O617 O 0.07094 0.52544 0.06989 0.0
C618 C 0.93017 0.52048 0.04174 0.0
O619 O 0.01621 0.51023 0.08137 0.0
C620 C 0.0258 0.47396 1.0051 0.0
C621 C 0.00915 0.55547 0.96263 0.0
O622 O 0.94205 0.49812 0.02272 0.0
O623 O 0.95466 0.54318 0.05496 0.0
O624 O 1.00218 0.46807 0.02498 0.0
O625 O 0.02787 0.50495 0.99871 0.0
O626 O 0.98715 0.54683 0.98456 0.0
O627 O 0.04119 0.55434 0.96958 0.0
C628 C 0.12654 0.54005 0.01241 0.0
O629 O 0.11499 0.56896 0.01335 0.0
O630 O 0.10308 0.51515 0.01502 0.0
C631 C 0.03383 0.59348 0.04734 0.0
C632 C 0.0695 0.22296 0.96614 0.0
C633 C 0.0431 0.2201 0.94003 0.0
C634 C 0.01769 0.16684 0.96079 0.0
C635 C 0.04611 0.16722 0.98434 0.0
N636 N 0.10149 0.19354 1.0057 0.0
N637 N 0.99419 0.18751 0.90943 0.0
C638 C 0.07258 0.19491 0.98632 0.0
C639 C 0.01791 0.19144 0.93639 0.0
N640 N 0.09171 0.25244 0.97157 0.0
N641 N 0.98966 0.14404 0.96269 0.0
H642 H 0.99249 0.20573 0.89181 0.0
H643 H 0.97771 0.16499 0.903 0.0
H644 H 0.98761 0.12607 0.98054 0.0
H645 H 0.96712 0.14525 0.94893 0.0
H646 H 0.10919 0.25765 0.9926 0.0
H647 H 0.09114 0.27286 0.95634 0.0
H648 H 0.12289 0.21109 1.00513 0.0
H649 H 0.10523 0.17323 0.02019 0.0
C650 C 0.12397 0.80676 0.23219 0.0
C651 C 0.1018 0.77632 0.23481 0.0
C652 C 0.14499 0.75582 0.27166 0.0
C653 C 0.16876 0.78335 0.26389 0.0
N654 N 0.18083 0.83192 0.23022 0.0
N655 N 0.09289 0.71935 0.25377 0.0
C656 C 0.15826 0.80823 0.24266 0.0
C657 C 0.11263 0.75022 0.25392 0.0
N658 N 0.11222 0.83471 0.2202 0.0
N659 N 0.15304 0.73545 0.29659 0.0
H660 H 0.06937 0.71384 0.2407 0.0
H661 H 0.10106 0.69819 0.26408 0.0
H662 H 0.17597 0.73958 0.31097 0.0
H663 H 0.13585 0.71695 0.30546 0.0
H664 H 0.12674 0.85863 0.22089 0.0
H665 H 0.08714 0.83503 0.21326 0.0
H666 H 0.17427 0.84806 0.21194 0.0
H667 H 0.20633 0.83311 0.23471 0.0
C668 C 0.54167 0.9221 0.43153 0.0
C669 C 0.53621 0.88843 0.44182 0.0
C670 C 0.52177 0.91161 0.49678 0.0
C671 C 0.52108 0.94428 0.48404 0.0
N672 N 0.52127 0.97589 0.43352 0.0
N673 N 0.51317 0.85064 0.48224 0.0
C674 C 0.52887 0.9485 0.44993 0.0
C675 C 0.52421 0.88295 0.47397 0.0
N676 N 0.55916 0.92913 0.40433 0.0
N677 N 0.52078 0.90769 0.53069 0.0
H678 H 0.51218 0.82884 0.4657 0.0
H679 H 0.50129 0.84591 0.50409 0.0
H680 H 0.52017 0.92789 0.54874 0.0
H681 H 0.52439 0.88497 0.54128 0.0
H682 H 0.56622 0.95404 0.39788 0.0
H683 H 0.5698 0.91066 0.39081 0.0
H684 H 0.52462 0.97852 0.40797 0.0
H685 H 0.50663 0.99267 0.4433 0.0
C686 C 0.39341 0.24165 0.72567 0.0
C687 C 0.4163 0.2711 0.72091 0.0
C688 C 0.37823 0.30769 0.74376 0.0
C689 C 0.3569 0.27833 0.75186 0.0
N690 N 0.34839 0.21738 0.75682 0.0
N691 N 0.43223 0.33243 0.72929 0.0
C692 C 0.36539 0.24523 0.74418 0.0
C693 C 0.40928 0.30414 0.73128 0.0
N694 N 0.39866 0.2101 0.71307 0.0
N695 N 0.36818 0.3391 0.7464 0.0
H696 H 0.45426 0.33177 0.7181 0.0
H697 H 0.4305 0.35645 0.74082 0.0
H698 H 0.3457 0.34291 0.75504 0.0
H699 H 0.38048 0.36077 0.73693 0.0
H700 H 0.38091 0.18833 0.71199 0.0
H701 H 0.41991 0.20597 0.70161 0.0
H702 H 0.35544 0.19314 0.75505 0.0
H703 H 0.32928 0.21905 0.77233 0.0
C704 C 0.01654 0.87904 0.5441 0.0
C705 C 0.9895 0.86791 0.56276 0.0
C706 C 0.96273 0.91677 0.54646 0.0
C707 C 0.99152 0.92989 0.53087 0.0
N708 N 0.04331 0.91885 0.50937 0.0
N709 N 0.93833 0.87788 0.5851 0.0
C710 C 0.01772 0.91012 0.52847 0.0
C711 C 0.96274 0.88692 0.56445 0.0
N712 N 0.0411 0.85942 0.54026 0.0
N713 N 0.93496 0.93223 0.54365 0.0
H714 H 0.93688 0.85617 0.59859 0.0
H715 H 0.9207 0.89324 0.59108 0.0
H716 H 0.93385 0.95535 0.53306 0.0
H717 H 0.9119 0.92085 0.54971 0.0
H718 H 0.0617 0.86711 0.52728 0.0
H719 H 0.0404 0.83509 0.54895 0.0
H720 H 0.04536 0.93958 0.49443 0.0
H721 H 0.04536 0.93958 0.49443 0.0
C722 C 0.43841 0.81711 0.88405 0.0
C723 C 0.45704 0.79283 0.87059 0.0
C724 C 0.41958 0.78242 0.81853 0.0
C725 C 0.39806 0.80236 0.83428 0.0
N726 N 0.38705 0.84098 0.8803 0.0
N727 N 0.4658 0.75096 0.82642 0.0
C728 C 0.40766 0.82064 0.86649 0.0
C729 C 0.44809 0.77548 0.83797 0.0
N730 N 0.45055 0.8371 0.91318 0.0
N731 N 0.4128 0.76982 0.78529 0.0
H732 H 0.4872 0.74543 0.83971 0.0
H733 H 0.4581 0.73426 0.80489 0.0
H734 H 0.39172 0.77314 0.77014 0.0
H735 H 0.4295 0.75842 0.77157 0.0
H736 H 0.43974 0.85747 0.92287 0.0
H737 H 0.47305 0.8349 0.92663 0.0
H738 H 0.39031 0.85156 0.90534 0.0
H739 H 0.36589 0.84675 0.86669 0.0
C740 C 0.47615 0.17992 0.02965 0.0
C741 C 0.48465 0.19164 0.0643 0.0
C742 C 0.50641 0.13876 0.07552 0.0
C743 C 0.49988 0.12769 0.04035 0.0
N744 N 0.47976 0.13702 0.98347 0.0
N745 N 0.50872 0.18371 0.12038 0.0
C746 C 0.48476 0.14796 0.01726 0.0
C747 C 0.49947 0.1712 0.08735 0.0
N748 N 0.45959 0.19939 0.00897 0.0
N749 N 0.51869 0.11793 0.09797 0.0
H750 H 0.50166 0.20589 0.13122 0.0
H751 H 0.52464 0.17303 0.13697 0.0
H752 H 0.5284 0.0961 0.09062 0.0
H753 H 0.51819 0.1214 0.12419 0.0
H754 H 0.45069 0.19197 0.98383 0.0
H755 H 0.45294 0.22266 0.01781 0.0
H756 H 0.47097 0.15127 0.96457 0.0
H757 H 0.48602 0.11384 0.97389 0.0
C758 C 0.09819 0.25837 0.33637 0.0
C759 C 0.10228 0.24398 0.36809 0.0
C760 C 0.15017 0.21939 0.35025 0.0
C761 C 0.14659 0.23455 0.31896 0.0
N762 N 0.11353 0.26094 0.2785 0.0
N763 N 0.12646 0.20427 0.40233 0.0
C764 C 0.1191 0.25127 0.31068 0.0
C765 C 0.12654 0.22239 0.37414 0.0
N766 N 0.07585 0.2806 0.33164 0.0
N767 N 0.17689 0.20307 0.35738 0.0
H768 H 0.10927 0.20577 0.42019 0.0
H769 H 0.14156 0.18572 0.40676 0.0
H770 H 0.19326 0.19831 0.3394 0.0
H771 H 0.18351 0.19525 0.38122 0.0
H772 H 0.07423 0.29488 0.31063 0.0
H773 H 0.0604 0.28694 0.34996 0.0
H774 H 0.09237 0.27069 0.2698 0.0
H775 H 0.12877 0.25622 0.25944 0.0
C776 C 0.96327 0.04005 0.17694 0.0
C777 C 0.94218 0.06562 0.17625 0.0
C778 C 0.9778 0.09697 0.13823 0.0
C779 C 0.99536 0.06863 0.13484 0.0
N780 N 0.01643 0.02458 0.16468 0.0
N781 N 0.92921 0.11894 0.15671 0.0
C782 C 0.9916 0.04354 0.15845 0.0
C783 C 0.94943 0.09431 0.15706 0.0
N784 N 0.95511 0.01121 0.1934 0.0
N785 N 0.99029 0.12752 0.12693 0.0
H786 H 0.90939 0.11894 0.1716 0.0
H787 H 0.93084 0.13832 0.14019 0.0
H788 H 0.01376 0.13198 0.11839 0.0
H789 H 0.98023 0.14995 0.13116 0.0
H790 H 0.96769 0.99018 0.19155 0.0
H791 H 0.93386 0.00676 0.20619 0.0
H792 H 0.01704 0.00836 0.18427 0.0
H793 H 0.03836 0.02849 0.15284 0.0
C794 C 0.31745 0.72336 0.40756 0.0
C795 C 0.29851 0.72471 0.43569 0.0
C796 C 0.26002 0.75589 0.40289 0.0
C797 C 0.27864 0.75353 0.37411 0.0
N798 N 0.31565 0.72038 0.34666 0.0
N799 N 0.24896 0.73777 0.45901 0.0
C800 C 0.30484 0.73327 0.37572 0.0
C801 C 0.269 0.73983 0.43305 0.0
N802 N 0.34749 0.71216 0.41101 0.0
N803 N 0.23304 0.77258 0.4011 0.0
H804 H 0.25534 0.72743 0.48175 0.0
H805 H 0.22527 0.74447 0.45754 0.0
H806 H 0.22212 0.77914 0.37824 0.0
H807 H 0.22138 0.77991 0.42219 0.0
H808 H 0.36402 0.71414 0.39235 0.0
H809 H 0.35718 0.70403 0.43376 0.0
H810 H 0.33371 0.70436 0.34626 0.0
H811 H 0.30192 0.7198 0.3234 0.0
C812 C 0.58937 0.97056 0.66388 0.0
C813 C 0.58181 0.98949 0.69336 0.0
C814 C 0.54761 0.02174 0.65675 0.0
C815 C 0.55387 1.0017 0.62741 0.0
N816 N 0.57781 0.95459 0.60318 0.0
N817 N 0.55087 0.03094 0.71817 0.0
C818 C 0.57409 0.97553 0.63106 0.0
C819 C 0.5598 0.01412 0.68985 0.0
N820 N 0.61136 0.9478 0.66726 0.0
N821 N 0.53215 0.04986 0.65294 0.0
H822 H 0.56174 0.02956 0.74264 0.0
H823 H 0.53128 0.04505 0.71772 0.0
H824 H 0.52319 0.05689 0.62948 0.0
H825 H 0.53072 0.06823 0.67263 0.0
H826 H 0.62163 0.93656 0.64696 0.0
H827 H 0.62059 0.94098 0.69077 0.0
H828 H 0.58883 0.93255 0.60422 0.0
H829 H 0.56785 0.95791 0.57879 0.0
C830 C 0.25126 0.37126 0.93301 0.0
C831 C 0.25837 0.35627 0.96376 0.0
C832 C 0.26955 0.30459 0.93224 0.0
C833 C 0.26172 0.31946 0.90171 0.0
N834 N 0.23719 0.3624 0.87226 0.0
N835 N 0.26802 0.30702 0.99348 0.0
C836 C 0.24976 0.35125 0.90188 0.0
C837 C 0.26555 0.3223 0.96365 0.0
N838 N 0.24848 0.40528 0.93334 0.0
N839 N 0.28161 0.27413 0.93112 0.0
H840 H 0.26521 0.31951 0.01688 0.0
H841 H 0.27022 0.28128 0.99487 0.0
H842 H 0.28348 0.25997 0.90833 0.0
H843 H 0.29125 0.26368 0.9525 0.0
H844 H 0.24705 0.41836 0.91146 0.0
H845 H 0.25083 0.42142 0.95555 0.0
H846 H 0.22481 0.38359 0.87145 0.0
H847 H 0.23639 0.34879 0.84865 0.0
C848 C 0.95377 0.05651 0.34051 0.0
C849 C 0.91883 0.05463 0.3373 0.0
C850 C 0.91645 0.04272 0.39681 0.0
C851 C 0.95148 0.04563 0.40025 0.0
N852 N 1.00416 0.06179 0.37842 0.0
N853 N 0.86696 0.05131 0.36257 0.0
C854 C 0.97039 0.05437 0.37295 0.0
C855 C 0.9002 0.0497 0.36562 0.0
N856 N 0.97095 0.05987 0.31245 0.0
N857 N 0.89864 0.03125 0.42259 0.0
H858 H 0.85371 0.05426 0.3396 0.0
H859 H 0.8528 0.052 0.38318 0.0
H860 H 0.90957 0.02565 0.44586 0.0
H861 H 0.87299 0.02471 0.42019 0.0
H862 H 0.99583 0.05716 0.31228 0.0
H863 H 0.95986 0.06363 0.28862 0.0
H864 H 0.01922 0.07173 0.36047 0.0
H865 H 0.01711 0.06081 0.40207 0.0
C866 C 0.32561 0.74556 0.63955 0.0
C867 C 0.30779 0.71455 0.62313 0.0
C868 C 0.27549 0.70781 0.67272 0.0
C869 C 0.29059 0.74063 0.68746 0.0
N870 N 0.32639 0.79337 0.6816 0.0
N871 N 0.25975 0.67088 0.62119 0.0
C872 C 0.31476 0.76021 0.67 0.0
C873 C 0.28114 0.69692 0.63896 0.0
N874 N 0.35359 0.76051 0.62676 0.0
N875 N 0.25655 0.68623 0.69129 0.0
H876 H 0.26151 0.66302 0.59589 0.0
H877 H 0.23798 0.65968 0.63031 0.0
H878 H 0.25183 0.6928 0.71608 0.0
H879 H 0.24834 0.66059 0.68328 0.0
H880 H 0.3696 0.7811 0.63945 0.0
H881 H 0.36251 0.75033 0.60497 0.0
H882 H 0.34134 0.81005 0.66812 0.0
H883 H 0.31854 0.80528 0.70314 0.0
C884 C 0.57244 0.03808 0.88828 0.0
C885 C 0.57711 0.00404 0.87803 0.0
C886 C 0.54213 0.98302 0.9221 0.0
C887 C 0.54105 0.01723 0.93494 0.0
N888 N 0.55906 0.07754 0.93297 0.0
N889 N 0.57152 0.94468 0.8901 0.0
C890 C 0.55747 0.04482 0.91888 0.0
C891 C 0.56329 0.97663 0.89626 0.0
N892 N 0.5804 0.06378 0.86773 0.0
N893 N 0.52222 0.95654 0.93382 0.0
H894 H 0.58773 0.93907 0.87228 0.0
H895 H 0.565 0.9246 0.90507 0.0
H896 H 0.50593 0.9601 0.95214 0.0
H897 H 0.51957 0.93143 0.92311 0.0
H898 H 0.57475 0.0884 0.87224 0.0
H899 H 0.58924 0.05961 0.84411 0.0
H900 H 0.57389 0.09837 0.92469 0.0
H901 H 0.54759 0.08348 0.95472 0.0
C902 C 0.25283 0.37153 0.15812 0.0
C903 C 0.24755 0.35561 0.12474 0.0
C904 C 0.24043 0.29882 0.14676 0.0
C905 C 0.2454 0.31487 0.18021 0.0
N906 N 0.24875 0.36621 0.21774 0.0
N907 N 0.23045 0.30533 0.08628 0.0
C908 C 0.24903 0.35113 0.18579 0.0
C909 C 0.23941 0.31953 0.11872 0.0
N910 N 0.26353 0.406 0.16356 0.0
N911 N 0.23821 0.26406 0.14189 0.0
H912 H 0.22944 0.32007 0.06547 0.0
H913 H 0.22158 0.2795 0.08022 0.0
H914 H 0.23803 0.24839 0.16203 0.0
H915 H 0.23819 0.2509 0.11824 0.0
H916 H 0.2723 0.41824 0.18735 0.0
H917 H 0.26617 0.42228 0.14405 0.0
H918 H 0.24678 0.39194 0.22294 0.0
H919 H 0.24757 0.35234 0.2389 0.0
C920 C 0.16315 0.99411 0.04926 0.0
C921 C 0.15211 0.95978 0.05597 0.0
C922 C 0.10041 0.97842 0.07411 0.0
C923 C 0.11117 0.01234 0.06576 0.0
N924 N 0.16058 0.05355 0.06415 0.0
N925 N 0.10879 0.91863 0.07332 0.0
C926 C 0.14482 0.0206 0.05887 0.0
C927 C 0.12028 0.95174 0.068 0.0
N928 N 0.1905 1.00151 0.03204 0.0
N929 N 0.07342 0.97276 0.09202 0.0
H930 H 0.12318 0.89905 0.07126 0.0
H931 H 0.08441 0.91014 0.07778 0.0
H932 H 0.06053 0.99239 0.09956 0.0
H933 H 0.06634 0.95004 0.10295 0.0
H934 H 0.19748 0.02549 0.02334 0.0
H935 H 0.20381 0.98286 0.02278 0.0
H936 H 0.18574 0.06035 0.06166 0.0
H937 H 0.15041 0.07294 0.07667 0.0
C938 C 0.65302 0.58183 0.95237 0.0
C939 C 0.67816 0.56763 0.97065 0.0
C940 C 0.63601 0.52761 0.99314 0.0
C941 C 0.61162 0.54753 0.98214 0.0
N942 N 0.59689 0.5941 0.94983 0.0
N943 N 0.69394 0.52724 0.00986 0.0
C944 C 0.61982 0.57432 0.96063 0.0
C945 C 0.66986 0.54005 0.99089 0.0
N946 N 0.66119 0.60275 0.92735 0.0
N947 N 0.62672 0.49654 1.00527 0.0
H948 H 0.71917 0.53527 0.00909 0.0
H949 H 0.68872 0.51018 0.02827 0.0
H950 H 0.60193 0.48602 1.00583 0.0
H951 H 0.64332 0.47964 0.01096 0.0
H952 H 0.64378 0.61153 0.91079 0.0
H953 H 0.68546 0.60833 0.92089 0.0
H954 H 0.60269 0.61596 0.93707 0.0
H955 H 0.5724 0.59064 0.95546 0.0
C956 C 0.72818 0.41546 0.26013 0.0
C957 C 0.72997 0.43112 0.29371 0.0
C958 C 0.76843 0.39272 0.31317 0.0
C959 C 0.76389 0.37497 0.28025 0.0
N960 N 0.74055 0.37114 0.22162 0.0
N961 N 0.74851 0.43242 0.35322 0.0
C962 C 0.74424 0.38671 0.25371 0.0
C963 C 0.74964 0.41952 0.32047 0.0
N964 N 0.71119 0.42806 0.23383 0.0
N965 N 0.79071 0.38395 0.33747 0.0
H966 H 0.73469 0.45165 0.35969 0.0
H967 H 0.75884 0.42218 0.37438 0.0
H968 H 0.80433 0.36397 0.33355 0.0
H969 H 0.79777 0.39807 0.36071 0.0
H970 H 0.70888 0.41677 0.20897 0.0
H971 H 0.70055 0.45036 0.23654 0.0
H972 H 0.75188 0.35016 0.21435 0.0
H973 H 0.75188 0.35016 0.21435 0.0
C974 C 0.8392 0.46963 0.55201 0.0
C975 C 0.82382 0.44133 0.52959 0.0
C976 C 0.87256 0.44502 0.49704 0.0
C977 C 0.88867 0.47213 0.52059 0.0
N978 N 0.88879 0.50984 0.57115 0.0
N979 N 0.82527 0.40049 0.48192 0.0
C980 C 0.87238 0.48432 0.54828 0.0
C981 C 0.84033 0.42861 0.50236 0.0
N982 N 0.82186 0.48264 0.57666 0.0
N983 N 0.88813 0.43502 0.4696 0.0
H984 H 0.80097 0.3891 0.48362 0.0
H985 H 0.83701 0.38726 0.4641 0.0
H986 H 0.91251 0.44471 0.46604 0.0
H987 H 0.87672 0.41822 0.44935 0.0
H988 H 0.82986 0.5055 0.59145 0.0
H989 H 0.79827 0.47141 0.58147 0.0
H990 H 0.88038 0.51693 0.59428 0.0
H991 H 0.91181 0.52352 0.56775 0.0
C992 C 0.33347 0.15047 0.28477 0.0
C993 C 0.35624 0.15179 0.25959 0.0
C994 C 0.33221 0.19981 0.23619 0.0
C995 C 0.30735 0.19648 0.25933 0.0
N996 N 0.2834 0.16697 0.30501 0.0
N997 N 0.37896 0.17948 0.21256 0.0
C998 C 0.30775 0.17129 0.28339 0.0
C999 C 0.35627 0.17716 0.23598 0.0
N1000 N 0.3377 0.13069 0.31137 0.0
N1001 N 0.3328 0.22339 0.21271 0.0
H1002 H 0.39684 0.16326 0.21111 0.0
H1003 H 0.37979 0.19773 0.19471 0.0
H1004 H 0.31586 0.24062 0.21027 0.0
H1005 H 0.31586 0.24062 0.21027 0.0
H1006 H 0.32465 0.13148 0.33279 0.0
H1007 H 0.35674 0.11589 0.31388 0.0
H1008 H 0.27926 0.14592 0.31928 0.0
H1009 H 0.26637 0.18379 0.30812 0.0
C1010 C 0.35671 0.08269 0.5535 0.0
C1011 C 0.3341 0.06674 0.52596 0.0
C1012 C 0.36284 0.01656 0.52457 0.0
C1013 C 0.38807 0.03491 0.54823 0.0
N1014 N 0.40056 0.07619 0.59652 0.0
N1015 N 0.31414 0.01836 0.48567 0.0
C1016 C 0.38232 0.06517 0.56633 0.0
C1017 C 0.33649 0.0334 0.51182 0.0
N1018 N 0.35512 0.11544 0.56588 0.0
N1019 N 0.36309 0.9826 0.51611 0.0
H1020 H 0.29369 0.02936 0.47688 0.0
H1021 H 0.31663 0.99591 0.47152 0.0
H1022 H 0.37982 0.96897 0.52846 0.0
H1023 H 0.34449 0.96699 0.50047 0.0
H1024 H 0.3733 0.12981 0.58305 0.0
H1025 H 0.33697 0.12946 0.55701 0.0
H1026 H 0.39607 0.09672 0.61242 0.0
H1027 H 0.41747 0.06192 0.60767 0.0
C1028 C 0.74997 0.61981 0.28808 0.0
C1029 C 0.72225 0.61271 0.30709 0.0
C1030 C 0.72082 0.67431 0.31727 0.0
C1031 C 0.7456 0.68116 0.29439 0.0
N1032 N 0.78365 0.66049 0.2574 0.0
N1033 N 0.67842 0.63273 0.33633 0.0
C1034 C 0.76012 0.65388 0.27959 0.0
C1035 C 0.7072 0.63983 0.32123 0.0
N1036 N 0.76732 0.59402 0.27922 0.0
N1037 N 0.70986 0.7006 0.33507 0.0
H1038 H 0.66744 0.60798 0.3398 0.0
H1039 H 0.66385 0.65119 0.34297 0.0
H1040 H 0.71657 0.72625 0.33115 0.0
H1041 H 0.69539 0.69708 0.35532 0.0
H1042 H 0.78963 0.59782 0.26824 0.0
H1043 H 0.76101 0.56902 0.2858 0.0
H1044 H 0.79196 0.64153 0.24228 0.0
H1045 H 0.79394 0.68517 0.25279 0.0
C1046 C 0.84994 0.4794 0.81345 0.0
C1047 C 0.85208 0.4904 0.78026 0.0
C1048 C 0.81143 0.44104 0.75731 0.0
C1049 C 0.81355 0.42716 0.78941 0.0
N1050 N 0.83849 0.43131 0.84737 0.0
N1051 N 0.83614 0.48138 0.71997 0.0
C1052 C 0.83336 0.44602 0.81753 0.0
C1053 C 0.83315 0.47113 0.75198 0.0
N1054 N 0.864 0.50062 0.84108 0.0
N1055 N 0.7878 0.42605 0.73224 0.0
H1056 H 0.85017 0.50438 0.71521 0.0
H1057 H 0.82628 0.46619 0.69799 0.0
H1058 H 0.77049 0.40487 0.73575 0.0
H1059 H 0.78303 0.43657 0.70929 0.0
H1060 H 0.86028 0.49538 0.866 0.0
H1061 H 0.87708 0.52487 0.83912 0.0
H1062 H 0.85589 0.44233 0.86716 0.0
H1063 H 0.82762 0.40673 0.8515 0.0
C1064 C 1.00291 0.84727 0.08455 0.0
C1065 C 0.99964 0.84918 0.1201 0.0
C1066 C 0.99861 0.91082 0.11962 0.0
C1067 C 0.9981 0.90841 0.08352 0.0
N1068 N 0.99318 0.87241 0.03117 0.0
N1069 N 0.9858 0.88149 0.16946 0.0
C1070 C 0.99833 0.87604 0.06582 0.0
C1071 C 0.99482 0.88054 0.13698 0.0
N1072 N 0.01199 0.81871 0.06885 0.0
N1073 N 1.00512 0.94192 0.1379 0.0
H1074 H 0.98213 0.85987 0.18306 0.0
H1075 H 0.97852 0.90306 0.18149 0.0
H1076 H 0.01092 0.96485 0.12695 0.0
H1077 H 0.00905 0.94458 0.16434 0.0
H1078 H 0.01814 0.81741 0.04385 0.0
H1079 H 0.01658 0.79749 0.08164 0.0
H1080 H 0.98977 0.84875 0.01715 0.0
H1081 H 0.98892 0.89259 0.01662 0.0
C1082 C 0.92787 0.32137 0.82881 0.0
C1083 C 0.94313 0.29167 0.82442 0.0
C1084 C 0.89262 0.26284 0.7903 0.0
C1085 C 0.87526 0.29027 0.79968 0.0
N1086 N 0.87732 0.34444 0.83422 0.0
N1087 N 0.93905 0.23257 0.80344 0.0
C1088 C 0.89314 0.31942 0.82029 0.0
C1089 C 0.92512 0.26187 0.80607 0.0
N1090 N 0.94634 0.35171 0.84171 0.0
N1091 N 0.87901 0.23873 0.7648 0.0
H1092 H 0.96332 0.23137 0.81304 0.0
H1093 H 0.92576 0.20902 0.79377 0.0
H1094 H 0.85676 0.24011 0.75053 0.0
H1095 H 0.89169 0.21987 0.75493 0.0
H1096 H 0.93755 0.37511 0.84089 0.0
H1097 H 0.97125 0.35421 0.85059 0.0
H1098 H 0.88887 0.36306 0.85295 0.0
H1099 H 0.85217 0.34547 0.83079 0.0
C1100 C 0.54067 0.159 0.62687 0.0
C1101 C 0.51143 0.17395 0.6211 0.0
C1102 C 0.49428 0.13504 0.56987 0.0
C1103 C 0.52297 0.1193 0.57608 0.0
N1104 N 0.57075 0.11205 0.61331 0.0
N1105 N 0.45707 0.17171 0.59217 0.0
C1106 C 0.54527 0.1299 0.60557 0.0
C1107 C 0.48718 0.16051 0.59413 0.0
N1108 N 0.5648 0.17367 0.65158 0.0
N1109 N 0.47454 0.12672 0.5401 0.0
H1110 H 0.45112 0.19021 0.60973 0.0
H1111 H 0.43702 0.16049 0.57528 0.0
H1112 H 0.47918 0.10848 0.52164 0.0
H1113 H 0.45522 0.13975 0.5324 0.0
H1114 H 0.58837 0.16669 0.6544 0.0
H1115 H 0.56208 0.19451 0.66812 0.0
H1116 H 0.58549 0.11593 0.63634 0.0
H1117 H 0.57564 0.09135 0.59783 0.0
C1118 C 0.64571 0.82663 0.30994 0.0
C1119 C 0.62733 0.79756 0.3223 0.0
C1120 C 0.66214 0.7606 0.29434 0.0
C1121 C 0.68255 0.78981 0.28498 0.0
N1122 N 0.69633 0.85117 0.28745 0.0
N1123 N 0.62473 0.73821 0.3342 0.0
C1124 C 0.67526 0.82302 0.29417 0.0
C1125 C 0.63739 0.76489 0.31671 0.0
N1126 N 0.63392 0.85725 0.31123 0.0
N1127 N 0.66585 0.72864 0.28146 0.0
H1128 H 0.60824 0.74062 0.35259 0.0
H1129 H 0.63363 0.71482 0.33343 0.0
H1130 H 0.68429 0.72409 0.26586 0.0
H1131 H 0.64913 0.70686 0.28445 0.0
H1132 H 0.64438 0.87837 0.29949 0.0
H1133 H 0.61175 0.86075 0.3211 0.0
H1134 H 0.69461 0.87592 0.29711 0.0
H1135 H 0.71702 0.84952 0.2742 0.0
C1136 C 0.06512 0.16633 0.50889 0.0
C1137 C 0.03759 0.18336 0.50067 0.0
C1138 C 1.00007 0.13571 0.51821 0.0
C1139 C 0.0274 0.11953 0.52878 0.0
N1140 N 0.08663 0.12239 0.54014 0.0
N1141 N 0.98083 0.18931 0.50851 0.0
C1142 C 0.06021 0.13598 0.52633 0.0
C1143 C 1.00572 0.1697 0.50902 0.0
N1144 N 0.09536 0.17764 0.49822 0.0
N1145 N 0.96878 0.11806 0.51465 0.0
H1146 H 0.98447 0.21499 0.50333 0.0
H1147 H 0.95785 0.18126 0.51711 0.0
H1148 H 0.96407 0.09229 0.51851 0.0
H1149 H 0.94835 0.12782 0.5039 0.0
H1150 H 0.11531 0.16405 0.50025 0.0
H1151 H 0.09996 0.19923 0.48478 0.0
H1152 H 0.1109 0.13498 0.54203 0.0
H1153 H 0.08406 0.09974 0.55226 0.0
C1154 C 0.58915 0.25266 0.18922 0.0
C1155 C 0.58384 0.2846 0.17747 0.0
C1156 C 0.63582 0.31155 0.20907 0.0
C1157 C 0.64366 0.27865 0.21553 0.0
N1158 N 0.63004 0.21708 0.20497 0.0
N1159 N 0.60506 0.34393 0.17166 0.0
C1160 C 0.62095 0.24889 0.20386 0.0
C1161 C 0.60791 0.31404 0.18619 0.0
N1162 N 0.56354 0.22628 0.18764 0.0
N1163 N 0.65405 0.34037 0.22573 0.0
H1164 H 0.58558 0.3467 0.15392 0.0
H1165 H 0.62378 0.36497 0.17473 0.0
H1166 H 0.67342 0.33968 0.24435 0.0
H1167 H 0.64747 0.3647 0.22399 0.0
H1168 H 0.56565 0.20335 0.19848 0.0
H1169 H 0.53929 0.22897 0.17938 0.0
H1170 H 0.61506 0.19503 0.19373 0.0
H1171 H 0.65378 0.21295 0.2135 0.0
C1172 C 0.52125 0.86405 1.00656 0.0
C1173 C 0.54894 0.85852 0.98848 0.0
C1174 C 0.56959 0.91969 0.99602 0.0
C1175 C 0.54328 0.92493 0.01636 0.0
N1176 N 0.50124 0.89964 0.05 0.0
N1177 N 0.60491 0.87954 0.97745 0.0
C1178 C 0.52159 0.89623 0.02475 0.0
C1179 C 0.57501 0.88583 0.98722 0.0
N1180 N 0.49347 0.84012 1.00445 0.0
N1181 N 0.58772 0.94621 0.98236 0.0
H1182 H 0.6101 0.8548 0.97207 0.0
H1183 H 0.62551 0.89853 0.97875 0.0
H1184 H 0.58316 0.97136 0.98447 0.0
H1185 H 0.60484 0.94244 0.96493 0.0
H1186 H 0.47175 0.84501 0.01456 0.0
H1187 H 0.49039 0.81699 0.98965 0.0
H1188 H 0.48685 0.87879 0.05882 0.0
H1189 H 0.50176 0.92267 0.06466 0.0
C1190 C 0.93661 0.78674 0.72464 0.0
C1191 C 0.93878 0.81003 0.69892 0.0
C1192 C 0.90971 0.84883 0.73216 0.0
C1193 C 0.90252 0.8228 0.75428 0.0
N1194 N 0.9219 0.77621 0.78159 0.0
N1195 N 0.93041 0.86457 0.67883 0.0
C1196 C 0.92009 0.79453 0.75367 0.0
C1197 C 0.92673 0.84183 0.70317 0.0
N1198 N 0.9497 0.75696 0.72093 0.0
N1199 N 0.90169 0.88055 0.74001 0.0
H1200 H 0.94382 0.86074 0.65802 0.0
H1201 H 0.91903 0.88641 0.67823 0.0
H1202 H 0.8924 0.88676 0.76301 0.0
H1203 H 0.90774 0.90158 0.72618 0.0
H1204 H 0.94592 0.73728 0.73692 0.0
H1205 H 0.96321 0.751 0.70073 0.0
H1206 H 0.93587 0.7564 0.78405 0.0
H1207 H 0.91228 0.78367 0.80405 0.0
C1208 C 0.12275 0.03095 0.92171 0.0
C1209 C 0.11094 0.00601 0.89464 0.0
C1210 C 0.06049 0.98973 0.92337 0.0
C1211 C 0.07419 0.01231 0.95209 0.0
N1212 N 0.12363 0.04621 0.98128 0.0
N1213 N 0.0712 0.95706 0.87231 0.0
C1214 C 0.10691 0.03034 0.95202 0.0
C1215 C 0.08055 0.98396 0.89622 0.0
N1216 N 0.14799 0.05667 0.9181 0.0
N1217 N 0.02801 0.97521 0.92101 0.0
H1218 H 0.08547 0.95178 0.85253 0.0
H1219 H 0.051 0.93823 0.87397 0.0
H1220 H 0.01237 0.97941 0.93981 0.0
H1221 H 0.01585 0.96145 0.89909 0.0
H1222 H 0.15495 0.07749 0.93607 0.0
H1223 H 0.15938 0.05957 0.89571 0.0
H1224 H 0.14865 0.05655 0.98323 0.0
H1225 H 0.11366 0.04521 1.00435 0.0
C1226 C 0.72164 0.31904 0.6455 0.0
C1227 C 0.7465 0.3406 0.6308 0.0
C1228 C 0.78766 0.32973 0.67655 0.0
C1229 C 0.76335 0.30625 0.68955 0.0
N1230 N 0.70886 0.27286 0.68177 0.0
N1231 N 0.805 0.35932 0.62808 0.0
C1232 C 0.73086 0.29912 0.67252 0.0
C1233 C 0.78003 0.34411 0.64525 0.0
N1234 N 0.68898 0.31882 0.63493 0.0
N1235 N 0.81808 0.33863 0.69426 0.0
H1236 H 0.80102 0.36829 0.60421 0.0
H1237 H 0.83 0.35961 0.63567 0.0
H1238 H 0.82512 0.32742 0.71627 0.0
H1239 H 0.83539 0.35884 0.68851 0.0
H1240 H 0.66963 0.30629 0.64696 0.0
H1241 H 0.68102 0.334 0.61636 0.0
H1242 H 0.68598 0.2642 0.66821 0.0
H1243 H 0.71464 0.25767 0.70124 0.0
C1244 C 0.44367 0.05213 0.38499 0.0
C1245 C 0.46261 0.07526 0.36579 0.0
C1246 C 0.50339 0.09078 0.4157 0.0
C1247 C 0.48688 0.06391 0.43297 0.0
N1248 N 0.44414 0.01433 0.43013 0.0
N1249 N 0.51207 0.11497 0.36172 0.0
C1250 C 0.45769 0.04341 0.41665 0.0
C1251 C 0.49288 0.09431 0.38088 0.0
N1252 N 0.41165 0.0392 0.3735 0.0
N1253 N 0.52827 0.11373 0.4329 0.0
H1254 H 0.50477 0.11856 0.33652 0.0
H1255 H 0.53609 0.12658 0.37001 0.0
H1256 H 0.5359 0.11259 0.45852 0.0
H1257 H 0.53914 0.13571 0.42278 0.0
H1258 H 0.39554 0.02499 0.38804 0.0
H1259 H 0.40005 0.04586 0.35102 0.0
H1260 H 0.42528 0.99663 0.41707 0.0
H1261 H 0.45375 0.00564 0.45252 0.0
C1262 C 0.77775 0.71919 0.07644 0.0
C1263 C 0.77202 0.68303 0.07663 0.0
C1264 C 0.75888 0.68767 0.13546 0.0
C1265 C 0.76805 0.72364 0.13646 0.0
N1266 N 0.7906 0.77372 0.10996 0.0
N1267 N 0.76366 0.63262 0.10767 0.0
C1268 C 0.77864 0.73954 0.1075 0.0
C1269 C 0.76441 0.66716 0.10652 0.0
N1270 N 0.78105 0.73403 0.0465 0.0
N1271 N 0.74355 0.67321 0.1615 0.0
H1272 H 0.76825 0.61666 0.0871 0.0
H1273 H 0.76173 0.62031 0.12999 0.0
H1274 H 0.7378 0.68745 0.18273 0.0
H1275 H 0.73336 0.64747 0.16041 0.0
H1276 H 0.78174 0.76017 0.04436 0.0
H1277 H 0.78028 0.71994 0.02315 0.0
H1278 H 0.80207 0.78595 0.09067 0.0
H1279 H 0.79146 0.78945 0.13234 0.0
C1280 C 0.10067 0.03219 0.70595 0.0
C1281 C 0.11915 0.00531 0.7123 0.0
C1282 C 0.10905 0.98335 0.65255 0.0
C1283 C 0.08884 0.00898 0.64687 0.0
N1284 N 0.05864 0.05224 0.66936 0.0
N1285 N 0.13722 0.95229 0.69388 0.0
C1286 C 0.08269 0.03185 0.67389 0.0
C1287 C 0.12234 0.97997 0.68622 0.0
N1288 N 0.10138 0.05883 0.73002 0.0
N1289 N 0.11633 0.96309 0.62569 0.0
H1290 H 0.14733 0.94917 0.71833 0.0
H1291 H 0.13731 0.93118 0.67676 0.0
H1292 H 0.1066 0.96467 0.60075 0.0
H1293 H 0.13373 0.94641 0.62766 0.0
H1294 H 0.09146 0.08101 0.7252 0.0
H1295 H 0.11451 0.06033 0.75391 0.0
H1296 H 0.05074 0.06669 0.68922 0.0
H1297 H 0.0441 0.05212 0.64644 0.0
C1298 C 0.75004 0.31398 0.44315 0.0
C1299 C 0.72734 0.33791 0.44578 0.0
C1300 C 0.71876 0.33476 0.3832 0.0
C1301 C 0.73942 0.30867 0.38056 0.0
N1302 N 0.76774 0.26782 0.40916 0.0
N1303 N 0.68436 0.36471 0.41826 0.0
C1304 C 0.75294 0.29661 0.41092 0.0
C1305 C 0.70993 0.34625 0.41576 0.0
N1306 N 0.77035 0.3091 0.47098 0.0
N1307 N 0.70907 0.35034 0.3551 0.0
H1308 H 0.67691 0.37312 0.44156 0.0
H1309 H 0.66839 0.36854 0.39747 0.0
H1310 H 0.71585 0.34445 0.33094 0.0
H1311 H 0.69711 0.37184 0.3563 0.0
H1312 H 0.7899 0.29504 0.46962 0.0
H1313 H 0.76987 0.32171 0.49486 0.0
H1314 H 0.77517 0.25593 0.43056 0.0
H1315 H 0.76928 0.25367 0.38631 0.0
C1316 C 0.48971 0.03078 0.18144 0.0
C1317 C 0.46765 0.05549 0.1799 0.0
C1318 C 0.4686 0.05226 0.11788 0.0
C1319 C 0.49521 0.03263 0.11961 0.0
N1320 N 0.52863 0.99987 0.15377 0.0
N1321 N 0.44117 0.09445 0.14677 0.0
C1322 C 0.50516 0.02111 0.15172 0.0
C1323 C 0.45874 0.06766 0.14816 0.0
N1324 N 0.49432 0.01488 0.21066 0.0
N1325 N 0.45072 0.05412 0.08771 0.0
H1326 H 0.4339 0.10679 0.1684 0.0
H1327 H 0.43706 0.10662 0.12461 0.0
H1328 H 0.45268 0.03787 0.06656 0.0
H1329 H 0.42996 0.06654 0.08541 0.0
H1330 H 0.50697 0.99399 0.21252 0.0
H1331 H 0.48323 0.02068 0.23265 0.0
H1332 H 0.54095 0.99504 0.17659 0.0
H1333 H 0.53588 0.98704 0.13245 0.0
C1334 C 0.76507 0.71413 0.91525 0.0
C1335 C 0.78745 0.68989 0.91533 0.0
C1336 C 0.81408 0.7154 0.86811 0.0
C1337 C 0.78913 0.73698 0.86538 0.0
N1338 N 0.74242 0.75921 0.88679 0.0
N1339 N 0.83348 0.66682 0.89367 0.0
C1340 C 0.76526 0.73721 0.88936 0.0
C1341 C 0.81229 0.69059 0.89249 0.0
N1342 N 0.74387 0.71514 0.94016 0.0
N1343 N 0.8391 0.71823 0.84717 0.0
H1344 H 0.83329 0.64895 0.91184 0.0
H1345 H 0.85052 0.66356 0.87614 0.0
H1346 H 0.84045 0.7343 0.8275 0.0
H1347 H 0.85978 0.70587 0.84995 0.0
H1348 H 0.72919 0.73419 0.94381 0.0
H1349 H 0.742 0.6977 0.95872 0.0
H1350 H 0.72149 0.75784 0.9001 0.0
H1351 H 0.74399 0.7788 0.8704 0.0
C1352 C 0.92011 0.1203 0.03564 0.0
C1353 C 0.8911 0.11155 0.01293 0.0
C1354 C 0.91417 0.0607 0.99047 0.0
C1355 C 0.94408 0.07053 0.01228 0.0
N1356 N 0.97838 0.11844 0.04441 0.0
N1357 N 0.86393 0.07722 0.96322 0.0
C1358 C 0.94784 0.10282 0.03168 0.0
C1359 C 0.88901 0.08267 0.98887 0.0
N1360 N 0.92112 0.14466 0.06201 0.0
N1361 N 0.90995 0.03066 0.97046 0.0
H1362 H 0.84592 0.0932 0.96044 0.0
H1363 H 0.86267 0.05893 0.94282 0.0
H1364 H 0.92918 0.0166 0.9667 0.0
H1365 H 0.88721 0.01936 0.95807 0.0
H1366 H 0.94073 0.14994 0.08096 0.0
H1367 H 0.90106 0.15705 0.0671 0.0
H1368 H 0.98314 0.14324 0.05612 0.0
H1369 H 0.99914 0.10912 0.03711 0.0
C1370 C 0.37074 0.51275 0.07174 0.0
C1371 C 0.36277 0.47733 0.07553 0.0
C1372 C 0.41819 0.46797 0.0643 0.0
C1373 C 0.42678 0.5034 0.0605 0.0
N1374 N 0.41401 0.5608 0.06771 0.0
N1375 N 0.38102 0.424 0.08706 0.0
C1376 C 0.40397 0.52634 0.06682 0.0
C1377 C 0.38754 0.4561 0.07631 0.0
N1378 N 0.34623 0.53277 0.07109 0.0
N1379 N 0.43771 0.44519 0.05322 0.0
H1380 H 0.35828 0.41483 0.09573 0.0
H1381 H 0.3991 0.40822 0.09068 0.0
H1382 H 0.45837 0.45274 0.0406 0.0
H1383 H 0.43119 0.41874 0.05264 0.0
H1384 H 0.34948 0.55796 0.06456 0.0
H1385 H 0.32208 0.52342 0.07595 0.0
H1386 H 0.39928 0.57896 0.07475 0.0
H1387 H 0.43818 0.57119 0.06395 0.0
C1388 C 0.33151 0.66613 0.76449 0.0
C1389 C 0.31534 0.63238 0.75465 0.0
C1390 C 0.26421 0.64758 0.77608 0.0
C1391 C 0.27984 0.68202 0.78321 0.0
N1392 N 0.33135 0.71757 0.80073 0.0
N1393 N 0.26567 0.59071 0.74976 0.0
C1394 C 0.31439 0.68967 0.78189 0.0
C1395 C 0.28144 0.62302 0.75996 0.0
N1396 N 0.36301 0.67607 0.75634 0.0
N1397 N 0.23421 0.63772 0.78795 0.0
H1398 H 0.27768 0.57125 0.74003 0.0
H1399 H 0.24015 0.58357 0.74887 0.0
H1400 H 0.22329 0.65403 0.80385 0.0
H1401 H 0.22223 0.6126 0.78618 0.0
H1402 H 0.37475 0.70134 0.75991 0.0
H1403 H 0.37611 0.65974 0.7429 0.0
H1404 H 0.35709 0.72329 0.80339 0.0
H1405 H 0.31951 0.73094 0.81831 0.0
C1406 C 0.19231 0.63016 0.50329 0.0
C1407 C 0.2187 0.62025 0.52388 0.0
C1408 C 0.17963 0.57729 0.54728 0.0
C1409 C 0.15292 0.59006 0.52977 0.0
N1410 N 0.13368 0.63316 0.49604 0.0
N1411 N 0.23711 0.58863 0.57009 0.0
C1412 C 0.15919 0.61768 0.50901 0.0
C1413 C 0.21233 0.59491 0.54713 0.0
N1414 N 0.19886 0.65068 0.47753 0.0
N1415 N 0.17408 0.54747 0.56276 0.0
H1416 H 0.2614 0.6011 0.57115 0.0
H1417 H 0.23292 0.57333 0.59012 0.0
H1418 H 0.15068 0.5331 0.56262 0.0
H1419 H 0.1931 0.53516 0.57277 0.0
H1420 H 0.18063 0.65585 0.4595 0.0
H1421 H 0.22285 0.65976 0.47204 0.0
H1422 H 0.13719 0.65564 0.48377 0.0
H1423 H 0.10915 0.62564 0.50058 0.0
C1424 C 0.68769 0.88333 0.77199 0.0
C1425 C 0.68687 0.90598 0.80102 0.0
C1426 C 0.72767 0.87609 0.83214 0.0
C1427 C 0.72768 0.85293 0.80295 0.0
N1428 N 0.69384 0.82621 0.75249 0.0
N1429 N 0.70024 0.91865 0.8614 0.0
C1430 C 0.70351 0.85393 0.77511 0.0
C1431 C 0.70531 0.90095 0.83192 0.0
N1432 N 0.6746 0.8903 0.74081 0.0
N1433 N 0.74836 0.87381 0.86047 0.0
H1434 H 0.68334 0.93596 0.86242 0.0
H1435 H 0.71034 0.914 0.88531 0.0
H1436 H 0.76084 0.85293 0.86373 0.0
H1437 H 0.75332 0.89271 0.88058 0.0
H1438 H 0.67776 0.87614 0.71844 0.0
H1439 H 0.66403 0.91228 0.73672 0.0
H1440 H 0.67482 0.82519 0.73309 0.0
H1441 H 0.7005 0.80257 0.75681 0.0
C1442 C 0.70589 0.02635 0.53808 0.0
C1443 C 0.70829 0.99642 0.51743 0.0
C1444 C 0.65745 1.00284 0.48328 0.0
C1445 C 0.65147 0.02782 0.50836 0.0
N1446 N 0.66986 0.06416 0.56 0.0
N1447 N 0.68712 0.95584 0.4696 0.0
C1448 C 0.676 0.04057 0.53542 0.0
C1449 C 0.68474 0.98499 0.48922 0.0
N1450 N 0.73228 0.041 0.56022 0.0
N1451 N 0.63668 0.99613 0.45401 0.0
H1452 H 0.70708 0.94238 0.47258 0.0
H1453 H 0.66844 0.94384 0.45152 0.0
H1454 H 0.61665 0.00927 0.44916 0.0
H1455 H 0.64103 0.98019 0.43338 0.0
H1456 H 0.73329 0.06462 0.57384 0.0
H1457 H 0.75456 0.03105 0.56233 0.0
H1458 H 0.68497 0.07077 0.58262 0.0
H1459 H 0.64872 0.07596 0.55886 0.0
C1460 C 0.29752 0.43308 0.71255 0.0
C1461 C 0.31777 0.45423 0.73875 0.0
C1462 C 0.31518 0.40655 0.77509 0.0
C1463 C 0.29313 0.38559 0.74981 0.0
N1464 N 0.25666 0.38242 0.69814 0.0
N1465 N 0.33656 0.46411 0.79838 0.0
C1466 C 0.28235 0.39985 0.71952 0.0
C1467 C 0.32364 0.44187 0.77107 0.0
N1468 N 0.29356 0.44422 0.68081 0.0
N1469 N 0.32986 0.39277 0.80208 0.0
H1470 H 0.34179 0.49043 0.79675 0.0
H1471 H 0.33836 0.45697 0.82323 0.0
H1472 H 0.32608 0.36689 0.80593 0.0
H1473 H 0.3489 0.40655 0.81875 0.0
H1474 H 0.28214 0.42848 0.65974 0.0
H1475 H 0.30385 0.46855 0.67509 0.0
H1476 H 0.24585 0.39288 0.67735 0.0
H1477 H 0.24374 0.35896 0.70324 0.0
C1478 C 0.21723 0.59633 0.30613 0.0
C1479 C 0.19287 0.58092 0.28 0.0
C1480 C 0.20606 0.62948 0.24571 0.0
C1481 C 0.23161 0.64401 0.27113 0.0
N1482 N 0.26664 0.63768 0.32146 0.0
N1483 N 0.16883 0.57874 0.22202 0.0
C1484 C 0.23874 0.62628 0.30012 0.0
C1485 C 0.1887 0.59626 0.24887 0.0
N1486 N 0.21882 0.58335 0.33724 0.0
N1487 N 0.19709 0.64804 0.21952 0.0
H1488 H 0.15587 0.55428 0.22325 0.0
H1489 H 0.16754 0.58708 0.19763 0.0
H1490 H 0.20921 0.67234 0.21605 0.0
H1491 H 0.17603 0.64043 0.20265 0.0
H1492 H 0.23354 0.59576 0.35842 0.0
H1493 H 0.20324 0.56166 0.34282 0.0
H1494 H 0.27486 0.62429 0.34143 0.0
H1495 H 0.28353 0.65874 0.31685 0.0
C1496 C 0.52306 0.70147 0.44801 0.0
C1497 C 0.55259 0.72231 0.44185 0.0
C1498 C 0.58443 0.69068 0.48086 0.0
C1499 C 0.55549 0.66676 0.48287 0.0
N1500 N 0.49765 0.64679 0.46314 0.0
N1501 N 0.61227 0.73454 0.44893 0.0
C1502 C 0.52495 0.67134 0.46493 0.0
C1503 C 0.58356 0.71662 0.45763 0.0
N1504 N 0.493 0.71118 0.43903 0.0
N1505 N 0.61289 0.68827 0.50052 0.0
H1506 H 0.61274 0.75306 0.43142 0.0
H1507 H 0.6357 0.72902 0.45669 0.0
H1508 H 0.61498 0.66871 0.51651 0.0
H1509 H 0.63369 0.70704 0.50286 0.0
H1510 H 0.47078 0.69894 0.44638 0.0
H1511 H 0.49047 0.73373 0.4276 0.0
H1512 H 0.47642 0.64726 0.44686 0.0
H1513 H 0.4967 0.62447 0.47547 0.0
C1514 C 0.60907 0.25894 0.75132 0.0
C1515 C 0.59948 0.28307 0.72892 0.0
C1516 C 0.65669 0.31328 0.73572 0.0
C1517 C 0.66578 0.29065 0.76028 0.0
N1518 N 0.64693 0.24875 0.79846 0.0
N1519 N 0.61223 0.33895 0.70845 0.0
C1520 C 0.6408 0.26557 0.77022 0.0
C1521 C 0.62269 0.31204 0.72386 0.0
N1522 N 0.58885 0.22874 0.75336 0.0
N1523 N 0.68026 0.33461 0.72182 0.0
H1524 H 0.58743 0.33963 0.70051 0.0
H1525 H 0.62751 0.36214 0.70718 0.0
H1526 H 0.70559 0.33549 0.72744 0.0
H1527 H 0.67473 0.34892 0.70156 0.0
H1528 H 0.59633 0.2089 0.76664 0.0
H1529 H 0.56605 0.22199 0.73906 0.0
H1530 H 0.62866 0.23251 0.80867 0.0
H1531 H 0.66928 0.25407 0.81373 0.0
C1532 C 0.03025 0.38362 0.97106 0.0
C1533 C 0.0432 0.38824 0.93932 0.0
C1534 C 0.052 0.45052 0.95285 0.0
C1535 C 0.03838 0.44576 0.98462 0.0
N1536 N 0.02974 0.40716 0.02876 0.0
N1537 N 0.07404 0.42511 0.90361 0.0
C1538 C 0.0323 0.4121 0.99523 0.0
C1539 C 0.05616 0.42145 0.93116 0.0
N1540 N 0.0143 0.35239 0.97768 0.0
N1541 N 0.06133 0.48253 0.94321 0.0
H1542 H 0.07799 0.40441 0.88753 0.0
H1543 H 0.08743 0.44819 0.89829 0.0
H1544 H 0.06692 0.50381 0.96044 0.0
H1545 H 0.06472 0.48771 0.9182 0.0
H1546 H 1.00144 0.34871 0.99908 0.0
H1547 H 0.01079 0.33097 0.96026 0.0
H1548 H 0.02816 0.38311 0.03818 0.0
H1549 H 0.03371 0.42728 0.04771 0.0
C1550 C 0.90294 0.79268 0.21572 0.0
C1551 C 0.91923 0.76441 0.22313 0.0
C1552 C 0.87588 0.74441 0.25988 0.0
C1553 C 0.85999 0.77329 0.25328 0.0
N1554 N 0.85612 0.82269 0.22181 0.0
N1555 N 0.91921 0.71038 0.24734 0.0
C1556 C 0.8728 0.7966 0.23009 0.0
C1557 C 0.90496 0.73925 0.24363 0.0
N1558 N 0.91674 0.81621 0.19524 0.0
N1559 N 0.86339 0.72225 0.28225 0.0
H1560 H 0.94101 0.7065 0.23681 0.0
H1561 H 0.90874 0.68933 0.25911 0.0
H1562 H 0.84112 0.72398 0.29279 0.0
H1563 H 0.8753 0.70276 0.29137 0.0
H1564 H 0.90934 0.83997 0.1924 0.0
H1565 H 0.9367 0.81247 0.18144 0.0
H1566 H 0.86108 0.83822 0.20217 0.0
H1567 H 0.83598 0.82799 0.23405 0.0
C1568 C 0.52381 0.37331 0.02508 0.0
C1569 C 0.51139 0.37094 0.05727 0.0
C1570 C 0.51394 0.43258 0.06433 0.0
C1571 C 0.52096 0.4351 0.03002 0.0
N1572 N 0.53607 0.40821 0.97829 0.0
N1573 N 0.48931 0.3973 0.10534 0.0
C1574 C 0.52696 0.40544 0.01051 0.0
C1575 C 0.50485 0.40025 0.07619 0.0
N1576 N 0.53316 0.34508 0.00897 0.0
N1577 N 0.51675 0.46098 0.08609 0.0
H1578 H 0.48281 0.37405 0.11559 0.0
H1579 H 0.47998 0.41749 0.1176 0.0
H1580 H 0.52757 0.48414 0.07922 0.0
H1581 H 0.51409 0.46066 0.11201 0.0
H1582 H 0.54536 0.34554 0.98696 0.0
H1583 H 0.53021 0.32116 0.01879 0.0
H1584 H 0.53678 0.38736 0.96105 0.0
H1585 H 0.54279 0.4318 0.96862 0.0
C1586 C 0.93509 0.24817 0.368 0.0
C1587 C 0.94985 0.27573 0.39159 0.0
C1588 C 0.90733 0.31009 0.37371 0.0
C1589 C 0.89174 0.28198 0.35104 0.0
N1590 N 0.88819 0.22317 0.32848 0.0
N1591 N 0.94878 0.3308 0.42084 0.0
C1592 C 0.90474 0.2506 0.34892 0.0
C1593 C 0.93571 0.30621 0.39545 0.0
N1594 N 0.95105 0.22045 0.36256 0.0
N1595 N 0.89485 0.34036 0.37462 0.0
H1596 H 0.96957 0.32866 0.43721 0.0
H1597 H 0.9379 0.35217 0.42753 0.0
H1598 H 0.87258 0.34348 0.36133 0.0
H1599 H 0.90714 0.36303 0.38737 0.0
H1600 H 0.94376 0.20134 0.34295 0.0
H1601 H 0.9732 0.21753 0.37627 0.0
H1602 H 0.8937 0.19838 0.32942 0.0
H1603 H 0.86775 0.22463 0.31144 0.0
C1604 C 0.96252 0.67347 0.54102 0.0
C1605 C 0.99131 0.69573 0.55557 0.0
C1606 C 0.02561 0.65991 0.52619 0.0
C1607 C 0.99847 0.63335 0.51998 0.0
N1608 N 0.93907 0.61879 0.51064 0.0
N1609 N 0.05132 0.70689 0.56538 0.0
C1610 C 0.96611 0.64131 0.52406 0.0
C1611 C 0.02319 0.68835 0.54878 0.0
N1612 N 0.93213 0.68374 0.54218 0.0
N1613 N 0.05322 0.65862 0.50945 0.0
H1614 H 0.05119 0.7264 0.58437 0.0
H1615 H 0.07475 0.70009 0.56299 0.0
H1616 H 0.05384 0.63982 0.48981 0.0
H1617 H 0.07299 0.67862 0.51161 0.0
H1618 H 0.91022 0.66998 0.53026 0.0
H1619 H 0.92895 0.70758 0.5532 0.0
H1620 H 0.91504 0.62004 0.51674 0.0
H1621 H 0.94079 0.5993 0.49208 0.0
C1622 C 0.62415 0.72188 0.85564 0.0
C1623 C 0.60204 0.74588 0.85081 0.0
C1624 C 0.62142 0.75615 0.79499 0.0
C1625 C 0.64729 0.73713 0.8028 0.0
N1626 N 0.67369 0.70073 0.83918 0.0
N1627 N 0.57866 0.78607 0.81631 0.0
C1628 C 0.64842 0.71916 0.83251 0.0
C1629 C 0.59989 0.76261 0.82026 0.0
N1630 N 0.62141 0.70131 0.8819 0.0
N1631 N 0.61817 0.76861 0.76377 0.0
H1632 H 0.5625 0.79148 0.83425 0.0
H1633 H 0.57835 0.8018 0.79634 0.0
H1634 H 0.63395 0.76408 0.74513 0.0
H1635 H 0.59843 0.78066 0.75522 0.0
H1636 H 0.63489 0.68121 0.88518 0.0
H1637 H 0.60336 0.70245 0.89883 0.0
H1638 H 0.67876 0.69091 0.86244 0.0
H1639 H 0.69052 0.69642 0.82153 0.0
C1640 C 0.45914 0.53566 0.66642 0.0
C1641 C 0.44091 0.56367 0.66654 0.0
C1642 C 0.48112 0.59421 0.63235 0.0
C1643 C 0.49542 0.56385 0.62713 0.0
N1644 N 0.50984 0.51456 0.6535 0.0
N1645 N 0.43401 0.61972 0.64974 0.0
C1646 C 0.48783 0.537 0.64838 0.0
C1647 C 0.452 0.59318 0.64987 0.0
N1648 N 0.44899 0.50763 0.68334 0.0
N1649 N 0.49702 0.62456 0.62357 0.0
H1650 H 0.41255 0.61976 0.66219 0.0
H1651 H 0.43885 0.64049 0.63526 0.0
H1652 H 0.52092 0.62709 0.61594 0.0
H1653 H 0.48916 0.64803 0.62896 0.0
H1654 H 0.45837 0.48464 0.68026 0.0
H1655 H 0.42994 0.5065 0.69928 0.0
H1656 H 0.50745 0.49574 0.67059 0.0
H1657 H 0.5329 0.51783 0.64379 0.0
C1658 C 0.81929 0.24546 0.91633 0.0
C1659 C 0.79373 0.22482 0.93093 0.0
C1660 C 0.75285 0.24173 0.88809 0.0
C1661 C 0.77809 0.2647 0.87569 0.0
N1662 N 0.83411 0.29394 0.88368 0.0
N1663 N 0.73497 0.20898 0.93457 0.0
C1664 C 0.81097 0.26808 0.89147 0.0
C1665 C 0.76014 0.22434 0.91774 0.0
N1666 N 0.85167 0.24251 0.92511 0.0
N1667 N 0.72187 0.23611 0.87126 0.0
H1668 H 0.73888 0.19723 0.95699 0.0
H1669 H 0.71014 0.2108 0.92823 0.0
H1670 H 0.71545 0.24939 0.85048 0.0
H1671 H 0.70342 0.21664 0.87626 0.0
H1672 H 0.87119 0.25422 0.91274 0.0
H1673 H 0.85884 0.22554 0.94229 0.0
H1674 H 0.85775 0.29989 0.89641 0.0
H1675 H 0.82818 0.31187 0.86713 0.0
C1676 C 0.0713 0.5223 0.18652 0.0
C1677 C 0.08622 0.49246 0.19164 0.0
C1678 C 0.07863 0.47739 0.1297 0.0
C1679 C 0.06062 0.50516 0.12513 0.0
N1680 N 0.03638 0.55194 0.15003 0.0
N1681 N 0.09896 0.43853 0.16851 0.0
C1682 C 0.05564 0.52672 0.15387 0.0
C1683 C 0.08852 0.46918 0.16329 0.0
N1684 N 0.07419 0.54783 0.21213 0.0
N1685 N 0.08678 0.45906 0.10196 0.0
H1686 H 0.10566 0.43128 0.19264 0.0
H1687 H 0.09797 0.41895 0.14935 0.0
H1688 H 0.07944 0.46369 0.07708 0.0
H1689 H 0.10299 0.44111 0.10349 0.0
H1690 H 0.06736 0.5718 0.20874 0.0
H1691 H 0.08662 0.54669 0.23594 0.0
H1692 H 0.02851 0.56563 0.17045 0.0
H1693 H 0.02628 0.55777 0.12651 0.0
C1694 C 0.7866 0.84034 0.46402 0.0
C1695 C 0.75974 0.8588 0.46767 0.0
C1696 C 0.73681 0.84068 0.40955 0.0
C1697 C 0.76496 0.82425 0.40513 0.0
N1698 N 0.81123 0.79979 0.42922 0.0
N1699 N 0.70442 0.86792 0.44888 0.0
C1700 C 0.78819 0.82128 0.43282 0.0
C1701 C 0.73301 0.85581 0.44214 0.0
N1702 N 0.81083 0.8418 0.49024 0.0
N1703 N 0.71514 0.84404 0.38222 0.0
H1704 H 0.70101 0.87943 0.47251 0.0
H1705 H 0.68294 0.86367 0.43224 0.0
H1706 H 0.71709 0.83353 0.35779 0.0
H1707 H 0.69643 0.85922 0.3831 0.0
H1708 H 0.83319 0.83264 0.48801 0.0
H1709 H 0.80882 0.85315 0.5144 0.0
H1710 H 0.82727 0.79423 0.44915 0.0
H1711 H 0.81247 0.78509 0.4066 0.0
C1712 C 0.42702 0.51243 0.83739 0.0
C1713 C 0.42282 0.54561 0.82838 0.0
C1714 C 0.45341 0.57102 0.88183 0.0
C1715 C 0.45472 0.5376 0.89219 0.0
N1716 N 0.43651 0.47663 0.88312 0.0
N1717 N 0.42792 0.60637 0.84284 0.0
C1718 C 0.43994 0.50827 0.87084 0.0
C1719 C 0.43471 0.57492 0.85091 0.0
N1720 N 0.41894 0.48491 0.81393 0.0
N1721 N 0.47128 0.59884 0.90062 0.0
H1722 H 0.41544 0.61035 0.81974 0.0
H1723 H 0.43264 0.62807 0.8599 0.0
H1724 H 0.48605 0.59699 0.92295 0.0
H1725 H 0.47393 0.62348 0.89259 0.0
H1726 H 0.42478 0.46068 0.81804 0.0
H1727 H 0.40896 0.48685 0.7892 0.0
H1728 H 0.42278 0.45493 0.8698 0.0
H1729 H 0.44436 0.47252 0.90801 0.0
C1730 C 0.78772 0.24567 0.11913 0.0
C1731 C 0.81139 0.22277 0.11648 0.0
C1732 C 0.82036 0.2266 0.17909 0.0
C1733 C 0.79897 0.25207 0.18164 0.0
N1734 N 0.7695 0.29176 0.15255 0.0
N1735 N 0.85562 0.19772 0.14409 0.0
C1736 C 0.78483 0.26334 0.15117 0.0
C1737 C 0.82935 0.21521 0.14654 0.0
N1738 N 0.76648 0.24927 0.09158 0.0
N1739 N 0.83069 0.21152 0.20728 0.0
H1740 H 0.86325 0.18949 0.12083 0.0
H1741 H 0.87189 0.19457 0.16489 0.0
H1742 H 0.82371 0.21715 0.23142 0.0
H1743 H 0.84334 0.19051 0.20618 0.0
H1744 H 0.74647 0.26267 0.09315 0.0
H1745 H 0.76653 0.23603 0.06794 0.0
H1746 H 0.76158 0.3031 0.13096 0.0
H1747 H 0.76817 0.30627 0.17519 0.0
C1748 C 0.07452 0.53855 0.38662 0.0
C1749 C 0.07966 0.50451 0.377 0.0
C1750 C 0.04451 0.48363 0.42107 0.0
C1751 C 0.04238 0.51788 0.43293 0.0
N1752 N 0.05935 0.57824 0.43005 0.0
N1753 N 0.07467 0.44542 0.38977 0.0
C1754 C 0.05863 0.54542 0.41661 0.0
C1755 C 0.06598 0.47723 0.39548 0.0
N1756 N 0.08311 0.56415 0.36613 0.0
N1757 N 0.02532 0.45709 0.43355 0.0
H1758 H 0.09096 0.43984 0.37202 0.0
H1759 H 0.06841 0.42546 0.40495 0.0
H1760 H 0.00915 0.46064 0.45202 0.0
H1761 H 0.02324 0.4318 0.42352 0.0
H1762 H 0.07688 0.58862 0.36993 0.0
H1763 H 0.0935 0.5602 0.34331 0.0
H1764 H 0.07413 0.59917 0.42189 0.0
H1765 H 0.04713 0.58426 0.45123 0.0
C1766 C 0.76821 0.88127 0.65924 0.0
C1767 C 0.76262 0.86642 0.62546 0.0
C1768 C 0.75661 0.80882 0.64552 0.0
C1769 C 0.76064 0.82384 0.67934 0.0
N1770 N 0.76271 0.87399 0.71837 0.0
N1771 N 0.74639 0.81694 0.58554 0.0
C1772 C 0.76404 0.85995 0.68615 0.0
C1773 C 0.75528 0.83038 0.61827 0.0
N1774 N 0.77943 0.91553 0.66578 0.0
N1775 N 0.75538 0.77426 0.63955 0.0
H1776 H 0.74529 0.83208 0.56505 0.0
H1777 H 0.73767 0.79116 0.57891 0.0
H1778 H 0.75563 0.75785 0.65906 0.0
H1779 H 0.75614 0.76205 0.61556 0.0
H1780 H 0.78791 0.92693 0.68999 0.0
H1781 H 0.78324 0.93227 0.6468 0.0
H1782 H 0.7607 0.89964 0.72407 0.0
H1783 H 0.76052 0.85948 0.73908 0.0
C1784 C 0.66488 0.49224 0.54309 0.0
C1785 C 0.65646 0.45929 0.55482 0.0
C1786 C 0.60625 0.47819 0.57603 0.0
C1787 C 0.61409 0.51059 0.56287 0.0
N1788 N 0.6591 0.55204 0.54809 0.0
N1789 N 0.61854 0.42024 0.58208 0.0
C1790 C 0.64582 0.51879 0.5507 0.0
C1791 C 0.62688 0.45205 0.57117 0.0
N1792 N 0.69006 0.49782 0.52259 0.0
N1793 N 0.58095 0.47396 0.59638 0.0
H1794 H 0.6338 0.40137 0.58064 0.0
H1795 H 0.59599 0.41179 0.59124 0.0
H1796 H 0.56867 0.49426 0.60353 0.0
H1797 H 0.57435 0.45221 0.60901 0.0
H1798 H 0.69469 0.51993 0.50986 0.0
H1799 H 0.70389 0.47894 0.51504 0.0
H1800 H 0.68359 0.5593 0.54313 0.0
H1801 H 0.6475 0.57288 0.5545 0.0
C1802 C 0.14679 0.08137 0.45595 0.0
C1803 C 0.1728 0.0646 0.4688 0.0
C1804 C 0.13252 0.01682 0.48205 0.0
C1805 C 0.10694 0.03705 0.47647 0.0
N1806 N 0.09002 0.0901 0.45904 0.0
N1807 N 0.19156 0.01585 0.49297 0.0
C1808 C 0.11387 0.06938 0.46277 0.0
C1809 C 0.16604 0.03175 0.48083 0.0
N1810 N 0.15388 0.1092 0.43781 0.0
N1811 N 0.12457 0.98342 0.48867 0.0
H1812 H 0.21634 0.02571 0.49139 0.0
H1813 H 0.18828 0.99384 0.50598 0.0
H1814 H 0.10009 0.97199 0.48919 0.0
H1815 H 0.14167 0.96639 0.49035 0.0
H1816 H 0.13583 0.12081 0.42495 0.0
H1817 H 0.17801 0.11841 0.43273 0.0
H1818 H 0.09493 0.11536 0.45294 0.0
H1819 H 0.06564 0.08345 0.46437 0.0
C1820 C 0.23974 0.92743 0.77449 0.0
C1821 C 0.21406 0.92496 0.79661 0.0
C1822 C 0.21373 0.86338 0.79548 0.0
C1823 C 0.24328 0.86631 0.77889 0.0
N1824 N 0.28377 0.90148 0.75055 0.0
N1825 N 0.18029 0.8913 0.83277 0.0
C1826 C 0.25613 0.89856 0.76785 0.0
C1827 C 0.20219 0.89316 0.8085 0.0
N1828 N 0.24733 0.95667 0.75849 0.0
N1829 N 0.19519 0.83238 0.7967 0.0
H1830 H 0.17156 0.91274 0.8434 0.0
H1831 H 0.17357 0.86906 0.84475 0.0
H1832 H 0.20029 0.81135 0.78235 0.0
H1833 H 0.17217 0.82889 0.80641 0.0
H1834 H 0.26326 0.95878 0.73934 0.0
H1835 H 0.23562 0.97815 0.76225 0.0
H1836 H 0.29713 0.92487 0.74604 0.0
H1837 H 0.29378 0.88029 0.7413 0.0
C1838 C 0.32856 0.9523 0.99958 0.0
C1839 C 0.31971 0.94347 0.03205 0.0
C1840 C 0.37666 0.96405 0.05645 0.0
C1841 C 0.38651 0.96885 0.02318 0.0
N1842 N 0.37251 0.96014 0.96242 0.0
N1843 N 0.33559 0.93812 0.09121 0.0
C1844 C 0.3626 0.96121 0.99455 0.0
C1845 C 0.34391 0.94832 0.06035 0.0
N1846 N 0.30457 0.95205 0.97341 0.0
N1847 N 0.39772 0.97626 0.08461 0.0
H1848 H 0.31128 0.92982 0.09618 0.0
H1849 H 0.35303 0.9362 0.1114 0.0
H1850 H 0.42174 0.98844 0.08373 0.0
H1851 H 0.39038 0.97728 0.10916 0.0
H1852 H 0.30937 0.96179 0.95026 0.0
H1853 H 0.27944 0.94474 0.97568 0.0
H1854 H 0.35652 0.95123 0.94083 0.0
H1855 H 0.39729 0.96433 0.95746 0.0
C1856 C 0.86488 0.68487 0.73549 0.0
C1857 C 0.86247 0.65759 0.75704 0.0
C1858 C 0.81129 0.6743 0.7768 0.0
C1859 C 0.81357 0.70192 0.75543 0.0
N1860 N 0.84493 0.73674 0.71824 0.0
N1861 N 0.83867 0.63167 0.80431 0.0
C1862 C 0.84135 0.70841 0.7362 0.0
C1863 C 0.83714 0.65387 0.7794 0.0
N1864 N 0.88868 0.68721 0.7132 0.0
N1865 N 0.78443 0.6675 0.79491 0.0
H1866 H 0.85787 0.61721 0.80788 0.0
H1867 H 0.82287 0.62983 0.82356 0.0
H1868 H 0.7669 0.68382 0.79762 0.0
H1869 H 0.77874 0.64488 0.80653 0.0
H1870 H 0.88988 0.70399 0.6941 0.0
H1871 H 0.90652 0.67087 0.71267 0.0
H1872 H 0.86604 0.745 0.70642 0.0
H1873 H 0.82744 0.75342 0.71684 0.0
C1874 C 0.84555 0.52783 1.002 0.0
C1875 C 0.84126 0.55882 0.02013 0.0
C1876 C 0.88695 0.55289 0.06205 0.0
C1877 C 0.89498 0.52599 0.04055 0.0
N1878 N 0.87381 0.47786 1.00065 0.0
N1879 N 0.85816 0.60189 0.06708 0.0
C1880 C 0.87178 0.51025 0.01359 0.0
C1881 C 0.86151 0.57126 0.05057 0.0
N1882 N 0.82508 0.51579 0.9734 0.0
N1883 N 0.90313 0.55999 0.09385 0.0
H1884 H 0.84025 0.61669 0.05938 0.0
H1885 H 0.87485 0.61411 0.08692 0.0
H1886 H 0.92035 0.5451 0.1033 0.0
H1887 H 0.89676 0.5775 0.11206 0.0
H1888 H 0.82916 0.49569 0.95672 0.0
H1889 H 0.8045 0.52698 0.96541 0.0
H1890 H 0.85673 0.46395 0.98211 0.0
H1891 H 0.89029 0.46315 0.01175 0.0
C1892 C 0.20807 0.13794 0.82647 0.0
C1893 C 0.21271 0.10989 0.80423 0.0
C1894 C 0.24627 0.14911 0.77078 0.0
C1895 C 0.23759 0.17759 0.79 0.0
N1896 N 0.20511 0.19834 0.83346 0.0
N1897 N 0.2316 0.08917 0.75155 0.0
C1898 C 0.21729 0.17185 0.81731 0.0
C1899 C 0.23067 0.11551 0.77544 0.0
N1900 N 0.19547 0.1322 0.85681 0.0
N1901 N 0.27041 0.15381 0.74901 0.0
H1902 H 0.22025 0.0642 0.75349 0.0
H1903 H 0.24103 0.09273 0.7282 0.0
H1904 H 0.28337 0.17773 0.7456 0.0
H1905 H 0.28009 0.13366 0.73713 0.0
H1906 H 0.1949 0.15159 0.8758 0.0
H1907 H 0.18872 0.10769 0.86444 0.0
H1908 H 0.18732 0.19486 0.85071 0.0
H1909 H 0.20968 0.22352 0.82716 0.0
C1910 C 0.32016 0.97682 0.2685 0.0
C1911 C 0.35321 0.98475 0.28373 0.0
C1912 C 0.34617 0.93206 0.31334 0.0
C1913 C 0.31464 0.92225 0.29497 0.0
N1914 N 0.27179 0.93358 0.25378 0.0
N1915 N 0.39895 0.96935 0.31881 0.0
C1916 C 0.30158 0.94429 0.27234 0.0
C1917 C 0.36651 0.9623 0.30583 0.0
N1918 N 0.30659 1.00038 0.25033 0.0
N1919 N 0.35676 0.9123 0.33783 0.0
H1920 H 0.41437 0.99171 0.31492 0.0
H1921 H 0.41139 0.95221 0.33165 0.0
H1922 H 0.34319 0.88932 0.3432 0.0
H1923 H 0.37778 0.91982 0.35474 0.0
H1924 H 0.28162 0.99777 0.24161 0.0
H1925 H 0.31989 0.02384 0.24579 0.0
H1926 H 0.26263 0.94633 0.23377 0.0
H1927 H 0.25675 0.91078 0.25735 0.0
C1928 C 0.47944 0.37579 0.62105 0.0
C1929 C 0.49932 0.35038 0.61282 0.0
C1930 C 0.51845 0.38181 0.56487 0.0
C1931 C 0.49819 0.4069 0.57287 0.0
N1932 N 0.4547 0.4249 0.60383 0.0
N1933 N 0.53389 0.326 0.57418 0.0
C1934 C 0.47733 0.40301 0.59965 0.0
C1935 C 0.51739 0.35227 0.58367 0.0
N1936 N 0.46268 0.37396 0.64948 0.0
N1937 N 0.54033 0.38729 0.54083 0.0
H1938 H 0.53581 0.30513 0.5885 0.0
H1939 H 0.54409 0.32375 0.55107 0.0
H1940 H 0.54164 0.40834 0.52632 0.0
H1941 H 0.55877 0.37234 0.53671 0.0
H1942 H 0.45122 0.39368 0.65952 0.0
H1943 H 0.4615 0.35309 0.6642 0.0
H1944 H 0.43662 0.42198 0.6208 0.0
H1945 H 0.452 0.44455 0.58804 0.0
C1946 C 0.4234 0.80501 0.3502 0.0
C1947 C 0.44641 0.79094 0.33068 0.0
C1948 C 0.40234 0.77482 0.28348 0.0
C1949 C 0.37873 0.78586 0.30444 0.0
N1950 N 0.36624 0.80424 0.36089 0.0
N1951 N 0.4571 0.7584 0.28019 0.0
C1952 C 0.38914 0.79896 0.33865 0.0
C1953 C 0.43572 0.7748 0.29762 0.0
N1954 N 0.43437 0.82554 0.37928 0.0
N1955 N 0.39317 0.76544 0.24982 0.0
H1956 H 0.48153 0.75792 0.28968 0.0
H1957 H 0.44997 0.74307 0.25765 0.0
H1958 H 0.36909 0.76513 0.23881 0.0
H1959 H 0.40987 0.76059 0.23232 0.0
H1960 H 0.41915 0.83966 0.39242 0.0
H1961 H 0.4593 0.83145 0.38837 0.0
H1962 H 0.37228 0.80971 0.38695 0.0
H1963 H 0.34085 0.79967 0.35417 0.0
C1964 C 0.04189 0.65626 0.12602 0.0
C1965 C 0.01545 0.67476 0.1178 0.0
C1966 C 0.99799 0.63614 0.06617 0.0
C1967 C 0.02643 0.62011 0.07252 0.0
N1968 N 0.07663 0.61526 0.10715 0.0
N1969 N 0.96819 0.68316 0.08054 0.0
C1970 C 0.04853 0.63002 0.10228 0.0
C1971 C 0.99337 0.66483 0.08804 0.0
N1972 N 0.06083 0.66393 0.15643 0.0
N1973 N 0.97515 0.62347 0.03953 0.0
H1974 H 0.96245 0.70258 0.09716 0.0
H1975 H 0.95367 0.68018 0.05741 0.0
H1976 H 0.97832 0.60314 0.02258 0.0
H1977 H 0.95208 0.63133 0.0354 0.0
H1978 H 0.07763 0.64877 0.16596 0.0
H1979 H 0.05845 0.68444 0.1735 0.0
H1980 H 0.09582 0.624 0.12593 0.0
H1981 H 0.08191 0.59517 0.09113 0.0
C1982 C 0.13148 0.26113 0.81426 0.0
C1983 C 0.12258 0.2941 0.82068 0.0
C1984 C 0.17062 0.31891 0.79214 0.0
C1985 C 0.17763 0.28538 0.78306 0.0
N1986 N 0.15934 0.2241 0.77961 0.0
N1987 N 0.13074 0.35411 0.81152 0.0
C1988 C 0.15632 0.25642 0.79212 0.0
C1989 C 0.1416 0.32303 0.80886 0.0
N1990 N 0.11771 0.23439 0.83106 0.0
N1991 N 0.19083 0.34695 0.7837 0.0
H1992 H 0.10927 0.35803 0.82267 0.0
H1993 H 0.14125 0.37545 0.80017 0.0
H1994 H 0.20873 0.34564 0.7667 0.0
H1995 H 0.19036 0.37166 0.79425 0.0
H1996 H 0.12597 0.21069 0.83031 0.0
H1997 H 0.10074 0.23691 0.84892 0.0
H1998 H 0.1415 0.20296 0.78161 0.0
H1999 H 0.17854 0.21821 0.76577 0.0
C2000 C 0.50176 0.66518 0.98337 0.0
C2001 C 0.53304 0.68153 0.97539 0.0
C2002 C 0.56074 0.64058 1.0063 0.0
C2003 C 0.5293 0.62245 0.01151 0.0
N2004 N 0.46976 0.61411 1.00065 0.0
N2005 N 0.5916 0.68008 0.97262 0.0
C2006 C 0.49976 0.63347 0.9983 0.0
C2007 C 0.56239 0.66805 0.98514 0.0
N2008 N 0.47433 0.68106 0.97909 0.0
N2009 N 0.58922 0.63139 0.02104 0.0
H2010 H 0.59381 0.69893 0.95558 0.0
H2011 H 0.61307 0.66902 0.97626 0.0
H2012 H 0.59002 0.60915 0.03341 0.0
H2013 H 0.61221 0.64675 0.02221 0.0
H2014 H 0.45164 0.67187 0.98765 0.0
H2015 H 0.47492 0.70537 0.97044 0.0
H2016 H 0.44781 0.61882 0.98786 0.0
H2017 H 0.46708 0.59175 0.01319 0.0
C2018 C 0.08512 0.73607 0.68408 0.0
C2019 C 0.07625 0.76882 0.67913 0.0
C2020 C 0.127 0.79646 0.71202 0.0
C2021 C 0.13478 0.76378 0.71947 0.0
N2022 N 0.11926 0.70239 0.71667 0.0
N2023 N 0.08354 0.82925 0.69654 0.0
C2024 C 0.113 0.73352 0.7071 0.0
C2025 C 0.09565 0.79877 0.69547 0.0
N2026 N 0.06816 0.70769 0.66541 0.0
N2027 N 0.14956 0.82539 0.72005 0.0
H2028 H 0.05994 0.83184 0.68598 0.0
H2029 H 0.09535 0.85109 0.71121 0.0
H2030 H 0.1729 0.82549 0.73248 0.0
H2031 H 0.14622 0.84909 0.71154 0.0
H2032 H 0.07571 0.68368 0.66519 0.0
H2033 H 0.04805 0.70857 0.64772 0.0
H2034 H 0.10232 0.68003 0.71154 0.0
H2035 H 0.1405 0.69912 0.73173 0.0
C2036 C 0.07466 0.388 0.4946 0.0
C2037 C 0.04873 0.36124 0.49846 0.0
C2038 C 0.0225 0.40176 0.53265 0.0
C2039 C 0.04411 0.42947 0.52209 0.0
N2040 N 0.0876 0.44764 0.48585 0.0
N2041 N 0.99403 0.34466 0.51685 0.0
C2042 C 0.06972 0.42242 0.50148 0.0
C2043 C 0.02169 0.36842 0.5167 0.0
N2044 N 0.10405 0.38066 0.48432 0.0
N2045 N 1.00276 0.4072 0.55798 0.0
H2046 H 0.99082 0.32054 0.50383 0.0
H2047 H 0.97258 0.35038 0.52696 0.0
H2048 H 1.0038 0.43111 0.57107 0.0
H2049 H 0.98849 0.38735 0.56848 0.0
H2050 H 0.12468 0.39932 0.48385 0.0
H2051 H 0.10894 0.35563 0.48022 0.0
H2052 H 0.10398 0.44247 0.46806 0.0
H2053 H 0.08352 0.47295 0.48689 0.0
C2054 C 0.39824 0.31329 0.17312 0.0
C2055 C 0.43092 0.3078 0.1834 0.0
C2056 C 0.42009 0.31545 0.2432 0.0
C2057 C 0.38795 0.32231 0.23285 0.0
N2058 N 0.3499 0.3373 0.18819 0.0
N2059 N 0.4758 0.31323 0.22804 0.0
C2060 C 0.37827 0.32467 0.19791 0.0
C2061 C 0.44276 0.3117 0.21842 0.0
N2062 N 0.38536 0.30546 0.14007 0.0
N2063 N 0.42875 0.31191 0.27669 0.0
H2064 H 0.49347 0.31205 0.2107 0.0
H2065 H 0.48614 0.31923 0.25302 0.0
H2066 H 0.4135 0.31676 0.29575 0.0
H2067 H 0.45022 0.30259 0.28526 0.0
H2068 H 0.36048 0.30532 0.13201 0.0
H2069 H 0.39851 0.29554 0.12127 0.0
H2070 H 0.3434 0.34235 0.16325 0.0
H2071 H 0.3347 0.34648 0.2053 0.0
C2072 C 0.58275 0.48752 0.38619 0.0
C2073 C 0.61432 0.50809 0.3873 0.0
C2074 C 0.60814 0.53097 0.44479 0.0
C2075 C 0.5749 0.51373 0.44255 0.0
N2076 N 0.5292 0.47837 0.40919 0.0
N2077 N 0.6537 0.555 0.41471 0.0
C2078 C 0.56184 0.49248 0.41278 0.0
C2079 C 0.6261 0.5313 0.41579 0.0
N2080 N 0.57307 0.46284 0.36008 0.0
N2081 N 0.62326 0.54623 0.47509 0.0
H2082 H 0.66757 0.55665 0.39383 0.0
H2083 H 0.66092 0.57534 0.43315 0.0
H2084 H 0.61167 0.54597 0.49739 0.0
H2085 H 0.64844 0.55582 0.47884 0.0
H2086 H 0.55192 0.44471 0.35943 0.0
H2087 H 0.5877 0.45877 0.34027 0.0
H2088 H 0.51727 0.46565 0.38669 0.0
H2089 H 0.51331 0.48163 0.42801 0.0
C2090 C 0.27886 0.84426 0.1449 0.0
C2091 C 0.24482 0.84145 0.13227 0.0
C2092 C 0.23095 0.80066 0.17509 0.0
C2093 C 0.26408 0.80742 0.19057 0.0
N2094 N 0.31886 0.83928 0.19246 0.0
N2095 N 0.18773 0.82136 0.14019 0.0
C2096 C 0.28777 0.83042 0.17619 0.0
C2097 C 0.22064 0.82078 0.14867 0.0
N2098 N 0.30302 0.85807 0.12595 0.0
N2099 N 0.20945 0.77424 0.18475 0.0
H2100 H 0.17908 0.83663 0.12204 0.0
H2101 H 0.16912 0.80945 0.15362 0.0
H2102 H 0.21625 0.75827 0.20309 0.0
H2103 H 0.18598 0.76608 0.17223 0.0
H2104 H 0.32818 0.85796 0.13236 0.0
H2105 H 0.29799 0.86591 0.10174 0.0
H2106 H 0.33602 0.85893 0.18538 0.0
H2107 H 0.32657 0.82886 0.21473 0.0
C2108 C 0.96692 0.53847 0.87211 0.0
C2109 C 0.97065 0.57191 0.86049 0.0
C2110 C 0.99825 0.59515 0.91678 0.0
C2111 C 0.99657 0.56147 0.92735 0.0
N2112 N 0.98415 0.50054 0.91337 0.0
N2113 N 0.99399 0.63148 0.86998 0.0
C2114 C 0.98236 0.53302 0.90447 0.0
C2115 C 0.9874 0.60014 0.88241 0.0
N2116 N 0.94701 0.51208 0.85314 0.0
N2117 N 0.00939 0.62242 0.93989 0.0
H2118 H 0.98674 0.63592 0.845 0.0
H2119 H 0.00895 0.65237 0.88337 0.0
H2120 H 0.01803 0.61958 0.96492 0.0
H2121 H 0.00792 0.64769 0.9351 0.0
H2122 H 0.93994 0.48828 0.86213 0.0
H2123 H 0.93485 0.5146 0.8295 0.0
H2124 H 0.97824 0.47889 0.89632 0.0
H2125 H 0.99409 0.49527 0.93717 0.0
C2126 C 0.22674 0.19977 0.58392 0.0
C2127 C 0.25665 0.19946 0.56834 0.0
C2128 C 0.28622 0.24167 0.6123 0.0
C2129 C 0.25651 0.24148 0.62827 0.0
N2130 N 0.1968 0.22798 0.62485 0.0
N2131 N 0.31197 0.22657 0.56157 0.0
C2132 C 0.22612 0.22337 0.61238 0.0
C2133 C 0.28555 0.2225 0.58064 0.0
N2134 N 0.19968 0.17584 0.57332 0.0
N2135 N 0.31517 0.25964 0.62784 0.0
H2136 H 0.31184 0.21349 0.53777 0.0
H2137 H 0.33268 0.24515 0.56767 0.0
H2138 H 0.31608 0.27614 0.64971 0.0
H2139 H 0.33838 0.2572 0.61989 0.0
H2140 H 0.17862 0.17208 0.58641 0.0
H2141 H 0.19903 0.15765 0.55292 0.0
H2142 H 0.17377 0.21827 0.61209 0.0
H2143 H 0.19513 0.24405 0.64632 0.0
C2144 C 0.60414 0.54095 0.21248 0.0
C2145 C 0.61717 0.51003 0.21637 0.0
C2146 C 0.59784 0.48971 0.1575 0.0
C2147 C 0.58723 0.5219 0.15277 0.0
N2148 N 0.58655 0.58056 0.17342 0.0
N2149 N 0.62965 0.45614 0.19297 0.0
C2150 C 0.5918 0.54811 0.1797 0.0
C2151 C 0.61497 0.48473 0.18896 0.0
N2152 N 0.60391 0.5637 0.24003 0.0
N2153 N 0.59044 0.46342 0.1326 0.0
H2154 H 0.6403 0.45049 0.21636 0.0
H2155 H 0.63283 0.43889 0.1729 0.0
H2156 H 0.57905 0.4659 0.10867 0.0
H2157 H 0.59358 0.43827 0.1363 0.0
H2158 H 0.59113 0.5846 0.23946 0.0
H2159 H 0.61433 0.56045 0.26428 0.0
H2160 H 0.59289 0.60159 0.19117 0.0
H2161 H 0.57908 0.58743 0.14936 0.0
C2162 C 0.20557 0.80864 0.93259 0.0
C2163 C 0.22715 0.83804 0.94794 0.0
C2164 C 0.25819 0.83832 0.89739 0.0
C2165 C 0.2394 0.80665 0.88363 0.0
N2166 N 0.19843 0.75859 0.892 0.0
N2167 N 0.28064 0.87293 0.94867 0.0
C2168 C 0.21388 0.79093 0.9023 0.0
C2169 C 0.25535 0.85057 0.93141 0.0
N2170 N 0.17663 0.79819 0.94618 0.0
N2171 N 0.2777 0.85794 0.87765 0.0
H2172 H 0.28106 0.88035 0.97445 0.0
H2173 H 0.30299 0.88043 0.93854 0.0
H2174 H 0.27888 0.85155 0.85192 0.0
H2175 H 0.28938 0.88262 0.88583 0.0
H2176 H 0.15833 0.77917 0.93424 0.0
H2177 H 0.16965 0.81061 0.9679 0.0
H2178 H 0.18198 0.74453 0.90631 0.0
H2179 H 0.2045 0.74452 0.87081 0.0
C2180 C 0.97917 0.58909 0.65523 0.0
C2181 C 0.96691 0.56243 0.67519 0.0
C2182 C 0.98412 0.5202 0.63417 0.0
C2183 C 0.99915 0.54699 0.61607 0.0
N2184 N 0.01563 0.60754 0.61254 0.0
N2185 N 0.96366 0.5031 0.68704 0.0
C2186 C 0.99794 0.58164 0.62746 0.0
C2187 C 0.97088 0.52808 0.66548 0.0
N2188 N 0.9718 0.62132 0.66192 0.0
N2189 N 0.98187 0.48708 0.62104 0.0
H2190 H 0.95512 0.50779 0.71074 0.0
H2191 H 0.96929 0.4784 0.68306 0.0
H2192 H 0.99166 0.48047 0.59848 0.0
H2193 H 0.96788 0.46658 0.63081 0.0
H2194 H 0.97682 0.64099 0.6461 0.0
H2195 H 0.95795 0.62768 0.68171 0.0
H2196 H 0.0186 0.63312 0.62189 0.0
H2197 H 0.02983 0.60327 0.59246 0.0
C2198 C 0.26595 0.21901 0.41795 0.0
C2199 C 0.28875 0.19528 0.42044 0.0
C2200 C 0.31741 0.21949 0.37381 0.0
C2201 C 0.29321 0.24178 0.37005 0.0
N2202 N 0.25244 0.27102 0.3949 0.0
N2203 N 0.34072 0.17816 0.40763 0.0
C2204 C 0.27012 0.24422 0.39439 0.0
C2205 C 0.31622 0.1975 0.4008 0.0
N2206 N 0.23982 0.21688 0.43746 0.0
N2207 N 0.34005 0.21766 0.35052 0.0
H2208 H 0.33981 0.16089 0.42638 0.0
H2209 H 0.36304 0.18091 0.39662 0.0
H2210 H 0.34232 0.23347 0.33069 0.0
H2211 H 0.35577 0.19925 0.34962 0.0
H2212 H 0.22013 0.23061 0.43378 0.0
H2213 H 0.23678 0.19997 0.45635 0.0
H2214 H 0.23706 0.27609 0.41367 0.0
H2215 H 0.25583 0.29028 0.37824 0.0
C2216 C 0.42522 0.62286 0.53474 0.0
C2217 C 0.39467 0.61361 0.51447 0.0
C2218 C 0.41542 0.56172 0.4913 0.0
C2219 C 0.44647 0.57157 0.51115 0.0
N2220 N 0.48355 0.62014 0.53891 0.0
N2221 N 0.36441 0.57866 0.46659 0.0
C2222 C 0.45217 0.60466 0.52913 0.0
C2223 C 0.39075 0.58416 0.49088 0.0
N2224 N 0.42852 0.64836 0.56035 0.0
N2225 N 0.40967 0.5313 0.47183 0.0
H2226 H 0.34687 0.59522 0.46429 0.0
H2227 H 0.36168 0.55979 0.44653 0.0
H2228 H 0.42842 0.51709 0.46646 0.0
H2229 H 0.38621 0.52001 0.46126 0.0
H2230 H 0.44952 0.65417 0.5776 0.0
H2231 H 0.40919 0.66134 0.56668 0.0
H2232 H 0.48942 0.64525 0.54968 0.0
H2233 H 0.50351 0.61006 0.53033 0.0
C2234 C 0.8894 0.97701 0.59687 0.0
C2235 C 0.86462 0.99082 0.57745 0.0
C2236 C 0.90558 0.03786 0.56476 0.0
C2237 C 0.9307 0.01924 0.57592 0.0
N2238 N 0.94711 0.98376 0.61962 0.0
N2239 N 0.84765 0.03638 0.54589 0.0
C2240 C 0.92296 0.99269 0.59759 0.0
C2241 C 0.8721 0.02237 0.56296 0.0
N2242 N 0.88073 0.94848 0.61359 0.0
N2243 N 0.91409 0.07105 0.55808 0.0
H2244 H 0.82266 0.02611 0.54493 0.0
H2245 H 0.85235 0.05724 0.53145 0.0
H2246 H 0.93834 0.0833 0.56424 0.0
H2247 H 0.89702 0.08717 0.55154 0.0
H2248 H 0.8976 0.93507 0.62587 0.0
H2249 H 0.85609 0.93768 0.61463 0.0
H2250 H 0.94308 0.9649 0.63644 0.0
H2251 H 0.97039 0.99851 0.62455 0.0
C2252 C 0.80956 0.14346 0.29403 0.0
C2253 C 0.80744 0.13064 0.25938 0.0
C2254 C 0.76779 0.16935 0.24457 0.0
C2255 C 0.77362 0.18537 0.27829 0.0
N2256 N 0.80065 0.18894 0.33495 0.0
N2257 N 0.78653 0.13237 0.20103 0.0
C2258 C 0.79454 0.17263 0.30303 0.0
C2259 C 0.78667 0.14347 0.23452 0.0
N2260 N 0.82495 0.12691 0.31848 0.0
N2261 N 0.74443 0.17906 0.22206 0.0
H2262 H 0.79977 0.11323 0.19283 0.0
H2263 H 0.77541 0.14379 0.18109 0.0
H2264 H 0.73068 0.19849 0.22791 0.0
H2265 H 0.73667 0.16614 0.19835 0.0
H2266 H 0.8248 0.13296 0.34445 0.0
H2267 H 0.83518 0.10481 0.3129 0.0
H2268 H 0.81905 0.18394 0.35286 0.0
H2269 H 0.78834 0.20894 0.34298 0.0
C2270 C 0.69794 0.09829 0.99859 0.0
C2271 C 0.71614 0.11951 0.0261 0.0
C2272 C 0.66889 0.10928 0.06021 0.0
C2273 C 0.65197 0.0855 0.0339 0.0
N2274 N 0.65359 0.05166 0.98108 0.0
N2275 N 0.72172 0.13929 0.08568 0.0
C2276 C 0.66739 0.07836 1.00391 0.0
C2277 C 0.70243 0.12333 0.05769 0.0
N2278 N 0.70907 0.09823 0.96699 0.0
N2279 N 0.65258 0.11988 0.08681 0.0
H2280 H 0.74662 0.14926 0.08524 0.0
H2281 H 0.71397 0.13959 0.11008 0.0
H2282 H 0.62776 0.11107 0.08929 0.0
H2283 H 0.66273 0.13994 0.10468 0.0
H2284 H 0.69499 0.08612 0.94527 0.0
H2285 H 0.73096 0.11303 0.96181 0.0
H2286 H 0.66542 0.04329 0.96048 0.0
H2287 H 0.63195 0.03547 0.98462 0.0
C2288 C 0.18291 0.37886 0.27594 0.0
C2289 C 0.18544 0.40453 0.30312 0.0
C2290 C 0.2287 0.37677 0.3331 0.0
C2291 C 0.22554 0.35082 0.30574 0.0
N2292 N 0.1865 0.31997 0.261 0.0
N2293 N 0.20475 0.42252 0.36163 0.0
C2294 C 0.19852 0.34951 0.28031 0.0
C2295 C 0.20672 0.40201 0.33292 0.0
N2296 N 0.16709 0.38293 0.24506 0.0
N2297 N 0.2521 0.37687 0.35974 0.0
H2298 H 0.18803 0.44 0.36292 0.0
H2299 H 0.2172 0.41998 0.3851 0.0
H2300 H 0.26465 0.35615 0.36363 0.0
H2301 H 0.25917 0.39754 0.3778 0.0
H2302 H 0.16767 0.36622 0.22366 0.0
H2303 H 0.15687 0.4048 0.23964 0.0
H2304 H 0.16549 0.31742 0.24372 0.0
H2305 H 0.19405 0.29695 0.2663 0.0
C2306 C 0.19004 0.48787 0.99335 0.0
C2307 C 0.21202 0.49566 0.02345 0.0
C2308 C 0.18379 0.54366 0.04025 0.0
C2309 C 0.16106 0.53457 0.01106 0.0
N2310 N 0.14898 0.5074 0.95464 0.0
N2311 N 0.23631 0.5364 0.06986 0.0
C2312 C 0.16686 0.5101 0.98562 0.0
C2313 C 0.21111 0.52553 0.04501 0.0
N2314 N 0.18901 0.4578 0.97388 0.0
N2315 N 0.17798 0.56781 0.06439 0.0
H2316 H 0.25678 0.52368 0.07357 0.0
H2317 H 0.23844 0.55954 0.0846 0.0
H2318 H 0.15898 0.58251 0.06084 0.0
H2319 H 0.19114 0.57238 0.0883 0.0
H2320 H 0.171 0.44938 0.95381 0.0
H2321 H 0.20407 0.43954 0.97956 0.0
H2322 H 0.15364 0.49174 0.93392 0.0
H2323 H 0.13172 0.5237 0.94895 0.0
C2324 C 0.8412 0.9337 0.25187 0.0
C2325 C 0.81995 0.95468 0.23661 0.0
C2326 C 0.77501 0.90583 0.22804 0.0
C2327 C 0.79508 0.8863 0.24746 0.0
N2328 N 0.84637 0.8834 0.2817 0.0
N2329 N 0.76631 0.9622 0.21143 0.0
C2330 C 0.82788 0.90076 0.26054 0.0
C2331 C 0.78679 0.94108 0.2247 0.0
N2332 N 0.87454 0.94483 0.25689 0.0
N2333 N 0.74467 0.89081 0.21312 0.0
H2334 H 0.77458 0.98775 0.20788 0.0
H2335 H 0.7409 0.9551 0.20568 0.0
H2336 H 0.73461 0.8657 0.21648 0.0
H2337 H 0.73027 0.90245 0.19584 0.0
H2338 H 0.89183 0.92936 0.26462 0.0
H2339 H 0.88535 0.96834 0.2496 0.0
H2340 H 0.86848 0.89466 0.29542 0.0
H2341 H 0.83886 0.85846 0.28762 0.0
C2342 C 0.71716 0.08688 0.76872 0.0
C2343 C 0.68743 0.08383 0.78522 0.0
C2344 C 0.69045 0.14596 0.78913 0.0
C2345 C 0.72256 0.14938 0.77762 0.0
N2346 N 0.76897 0.12249 0.76168 0.0
N2347 N 0.65099 0.11155 0.81919 0.0
C2348 C 0.73669 0.11967 0.7688 0.0
C2349 C 0.67558 0.11368 0.79781 0.0
N2350 N 0.72605 0.05899 0.75161 0.0
N2351 N 0.6732 0.17303 0.7901 0.0
H2352 H 0.6409 0.08857 0.82812 0.0
H2353 H 0.64362 0.13306 0.83125 0.0
H2354 H 0.68182 0.19634 0.78091 0.0
H2355 H 0.64859 0.17078 0.79566 0.0
H2356 H 0.74574 0.06063 0.73645 0.0
H2357 H 0.71182 0.03481 0.74954 0.0
H2358 H 0.78137 0.10144 0.75855 0.0
H2359 H 0.78428 0.14593 0.76206 0.0
loop_
_geom_bond_atom_site_label_1
_geom_bond_atom_site_label_2
_geom_bond_distance
_geom_bond_site_symmetry_2
_ccdc_geom_bond_type
In0 O1 2.294 . S
In0 O2 2.326 . S
In0 O6 2.266 1_455 S
In0 O7 2.326 1_455 S
In0 O8 2.266 . S
In0 O9 2.326 . S
In0 O11 2.294 . S
In0 O12 2.326 . S
O1 In0 2.294 . S
O1 C10 1.240 . S
O2 In0 2.326 . S
O2 C10 1.252 . S
C3 O6 1.252 . S
C3 O7 1.260 . S
C4 O11 1.240 . S
C4 O12 1.252 . S
C5 O8 1.252 . S
C5 O9 1.260 . S
O6 In0 2.266 1_655 S
O6 C3 1.252 . S
O7 In0 2.326 1_655 S
O7 C3 1.260 . S
O8 In0 2.266 . S
O8 C5 1.252 . S
O9 In0 2.326 . S
O9 C5 1.260 . S
C10 O1 1.240 . S
C10 O2 1.252 . S
O11 In0 2.294 . S
O11 C4 1.240 . S
O12 In0 2.326 . S
O12 C4 1.252 . S
In13 O14 2.294 . S
In13 O15 2.326 . S
In13 O19 2.266 1_455 S
In13 O20 2.326 1_455 S
In13 O21 2.266 1_455 S
In13 O22 2.326 1_455 S
In13 O24 2.294 . S
In13 O25 2.326 . S
O14 In13 2.294 . S
O14 C23 1.240 . S
O15 In13 2.326 . S
O15 C23 1.252 . S
C16 O19 1.252 . S
C16 O20 1.260 . S
C17 O24 1.240 . S
C17 O25 1.252 . S
C18 O21 1.252 . S
C18 O22 1.260 . S
O19 In13 2.266 1_655 S
O19 C16 1.252 . S
O20 In13 2.326 1_655 S
O20 C16 1.260 . S
O21 In13 2.266 1_655 S
O21 C18 1.252 . S
O22 In13 2.326 1_655 S
O22 C18 1.260 . S
C23 O14 1.240 . S
C23 O15 1.252 . S
O24 In13 2.294 . S
O24 C17 1.240 . S
O25 In13 2.326 . S
O25 C17 1.252 . S
In26 O27 2.294 . S
In26 O28 2.326 . S
In26 O32 2.266 . S
In26 O33 2.326 . S
In26 O34 2.266 . S
In26 O35 2.326 . S
In26 O37 2.294 . S
In26 O38 2.326 . S
O27 In26 2.294 . S
O27 C36 1.240 . S
O28 In26 2.326 . S
O28 C36 1.252 . S
C29 O32 1.252 . S
C29 O33 1.260 . S
C30 O37 1.240 . S
C30 O38 1.252 . S
C31 O34 1.252 . S
C31 O35 1.260 . S
O32 In26 2.266 . S
O32 C29 1.252 . S
O33 In26 2.326 . S
O33 C29 1.260 . S
O34 In26 2.266 . S
O34 C31 1.252 . S
O35 In26 2.326 . S
O35 C31 1.260 . S
C36 O27 1.240 . S
C36 O28 1.252 . S
O37 In26 2.294 . S
O37 C30 1.240 . S
O38 In26 2.326 . S
O38 C30 1.252 . S
In39 O40 2.294 . S
In39 O41 2.326 . S
In39 O45 2.266 . S
In39 O46 2.326 . S
In39 O47 2.266 . S
In39 O48 2.326 . S
In39 O50 2.294 . S
In39 O51 2.326 . S
O40 In39 2.294 . S
O40 C49 1.240 . S
O41 In39 2.326 . S
O41 C49 1.252 . S
C42 O45 1.252 . S
C42 O46 1.260 . S
C43 O50 1.240 . S
C43 O51 1.252 . S
C44 O47 1.252 . S
C44 O48 1.260 . S
O45 In39 2.266 . S
O45 C42 1.252 . S
O46 In39 2.326 . S
O46 C42 1.260 . S
O47 In39 2.266 . S
O47 C44 1.252 . S
O48 In39 2.326 . S
O48 C44 1.260 . S
C49 O40 1.240 . S
C49 O41 1.252 . S
O50 In39 2.294 . S
O50 C43 1.240 . S
O51 In39 2.326 . S
O51 C43 1.252 . S
In52 O53 2.293 1_455 S
In52 O54 2.326 . S
In52 O58 2.266 . S
In52 O59 2.326 . S
In52 O60 2.266 . S
In52 O61 2.326 . S
In52 O63 2.294 1_455 S
In52 O64 2.326 1_455 S
O53 In52 2.293 1_655 S
O53 C62 1.239 . S
O54 In52 2.326 . S
O54 C62 1.252 1_455 S
C55 O58 1.252 . S
C55 O59 1.260 . S
C56 O63 1.240 . S
C56 O64 1.252 . S
C57 O60 1.252 . S
C57 O61 1.260 . S
O58 In52 2.266 . S
O58 C55 1.252 . S
O59 In52 2.326 . S
O59 C55 1.260 . S
O60 In52 2.266 . S
O60 C57 1.252 . S
O61 In52 2.326 . S
O61 C57 1.260 . S
C62 O53 1.239 . S
C62 O54 1.252 1_655 S
O63 In52 2.294 1_655 S
O63 C56 1.240 . S
O64 In52 2.326 1_655 S
O64 C56 1.252 . S
In65 O66 2.294 . S
In65 O67 2.326 . S
In65 O71 2.266 . S
In65 O72 2.326 . S
In65 O73 2.266 . S
In65 O74 2.326 . S
In65 O76 2.294 . S
In65 O77 2.326 . S
O66 In65 2.294 . S
O66 C75 1.240 . S
O67 In65 2.326 . S
O67 C75 1.252 . S
C68 O71 1.252 . S
C68 O72 1.260 . S
C69 O76 1.240 . S
C69 O77 1.252 . S
C70 O73 1.252 . S
C70 O74 1.260 . S
O71 In65 2.266 . S
O71 C68 1.252 . S
O72 In65 2.326 . S
O72 C68 1.260 . S
O73 In65 2.266 . S
O73 C70 1.252 . S
O74 In65 2.326 . S
O74 C70 1.260 . S
C75 O66 1.240 . S
C75 O67 1.252 . S
O76 In65 2.294 . S
O76 C69 1.240 . S
O77 In65 2.326 . S
O77 C69 1.252 . S
In78 O79 2.294 . S
In78 O80 2.326 . S
In78 O84 2.266 . S
In78 O85 2.326 . S
In78 O86 2.266 . S
In78 O87 2.326 . S
In78 O89 2.294 . S
In78 O90 2.326 . S
O79 In78 2.294 . S
O79 C88 1.240 . S
O80 In78 2.326 . S
O80 C88 1.252 . S
C81 O84 1.252 . S
C81 O85 1.260 . S
C82 O89 1.240 . S
C82 O90 1.252 . S
C83 O86 1.252 . S
C83 O87 1.260 . S
O84 In78 2.266 . S
O84 C81 1.252 . S
O85 In78 2.326 . S
O85 C81 1.260 . S
O86 In78 2.266 . S
O86 C83 1.252 . S
O87 In78 2.326 . S
O87 C83 1.260 . S
C88 O79 1.240 . S
C88 O80 1.252 . S
O89 In78 2.294 . S
O89 C82 1.240 . S
O90 In78 2.326 . S
O90 C82 1.252 . S
In91 O92 2.294 . S
In91 O93 2.326 . S
In91 O97 2.266 . S
In91 O98 2.326 . S
In91 O99 2.266 1_455 S
In91 O100 2.326 1_455 S
In91 O102 2.294 . S
In91 O103 2.326 . S
O92 In91 2.294 . S
O92 C101 1.240 . S
O93 In91 2.326 . S
O93 C101 1.252 . S
C94 O97 1.252 . S
C94 O98 1.260 . S
C95 O102 1.240 . S
C95 O103 1.252 . S
C96 O99 1.252 . S
C96 O100 1.260 . S
O97 In91 2.266 . S
O97 C94 1.252 . S
O98 In91 2.326 . S
O98 C94 1.260 . S
O99 In91 2.266 1_655 S
O99 C96 1.252 . S
O100 In91 2.326 1_655 S
O100 C96 1.260 . S
C101 O92 1.240 . S
C101 O93 1.252 . S
O102 In91 2.294 . S
O102 C95 1.240 . S
O103 In91 2.326 . S
O103 C95 1.252 . S
In104 O105 2.294 . S
In104 O106 2.326 . S
In104 O110 2.266 . S
In104 O111 2.326 . S
In104 O112 2.266 . S
In104 O113 2.326 1_545 S
In104 O115 2.294 . S
In104 O116 2.326 . S
O105 In104 2.294 . S
O105 C114 1.240 . S
O106 In104 2.326 . S
O106 C114 1.252 . S
C107 O110 1.252 . S
C107 O111 1.260 . S
C108 O115 1.240 . S
C108 O116 1.252 . S
C109 O112 1.252 1_565 S
C109 O113 1.260 . S
O110 In104 2.266 . S
O110 C107 1.252 . S
O111 In104 2.326 . S
O111 C107 1.260 . S
O112 In104 2.266 . S
O112 C109 1.252 1_545 S
O113 In104 2.326 1_565 S
O113 C109 1.260 . S
C114 O105 1.240 . S
C114 O106 1.252 . S
O115 In104 2.294 . S
O115 C108 1.240 . S
O116 In104 2.326 . S
O116 C108 1.252 . S
In117 O118 2.294 . S
In117 O119 2.326 . S
In117 O123 2.266 . S
In117 O124 2.326 . S
In117 O125 2.266 . S
In117 O126 2.326 . S
In117 O128 2.294 . S
In117 O129 2.326 . S
O118 In117 2.294 . S
O118 C127 1.240 . S
O119 In117 2.326 . S
O119 C127 1.252 . S
C120 O123 1.252 . S
C120 O124 1.260 . S
C121 O128 1.240 . S
C121 O129 1.252 . S
C122 O125 1.252 . S
C122 O126 1.260 . S
O123 In117 2.266 . S
O123 C120 1.252 . S
O124 In117 2.326 . S
O124 C120 1.260 . S
O125 In117 2.266 . S
O125 C122 1.252 . S
O126 In117 2.326 . S
O126 C122 1.260 . S
C127 O118 1.240 . S
C127 O119 1.252 . S
O128 In117 2.294 . S
O128 C121 1.240 . S
O129 In117 2.326 . S
O129 C121 1.252 . S
In130 O131 2.294 1_545 S
In130 O132 2.326 1_545 S
In130 O136 2.266 . S
In130 O137 2.325 . S
In130 O138 2.264 . S
In130 O139 2.322 . S
In130 O141 2.296 1_545 S
In130 O142 2.330 1_545 S
O131 In130 2.294 1_565 S
O131 C140 1.240 . S
O132 In130 2.326 1_565 S
O132 C140 1.252 . S
C133 O136 1.252 . S
C133 O137 1.260 . S
C134 O141 1.240 . S
C134 O142 1.252 . S
C135 O138 1.252 . S
C135 O139 1.260 . S
O136 In130 2.266 . S
O136 C133 1.252 . S
O137 In130 2.325 . S
O137 C133 1.260 . S
O138 In130 2.264 . S
O138 C135 1.252 . S
O139 In130 2.322 . S
O139 C135 1.260 . S
C140 O131 1.240 . S
C140 O132 1.252 . S
O141 In130 2.296 1_565 S
O141 C134 1.240 . S
O142 In130 2.330 1_565 S
O142 C134 1.252 . S
In143 O144 2.294 . S
In143 O145 2.326 . S
In143 O149 2.266 1_554 S
In143 O150 2.326 1_554 S
In143 O151 2.266 . S
In143 O152 2.326 . S
In143 O154 2.294 . S
In143 O155 2.326 . S
O144 In143 2.294 . S
O144 C153 1.240 . S
O145 In143 2.326 . S
O145 C153 1.252 . S
C146 O149 1.252 . S
C146 O150 1.260 . S
C147 O154 1.240 . S
C147 O155 1.252 . S
C148 O151 1.252 . S
C148 O152 1.260 . S
O149 In143 2.266 1_556 S
O149 C146 1.252 . S
O150 In143 2.326 1_556 S
O150 C146 1.260 . S
O151 In143 2.266 . S
O151 C148 1.252 . S
O152 In143 2.326 . S
O152 C148 1.260 . S
C153 O144 1.240 . S
C153 O145 1.252 . S
O154 In143 2.294 . S
O154 C147 1.240 . S
O155 In143 2.326 . S
O155 C147 1.252 . S
In156 O157 2.294 . S
In156 O158 2.326 . S
In156 O162 2.266 1_554 S
In156 O163 2.326 1_554 S
In156 O164 2.266 . S
In156 O165 2.326 . S
In156 O167 2.294 . S
In156 O168 2.326 . S
O157 In156 2.294 . S
O157 C166 1.240 . S
O158 In156 2.326 . S
O158 C166 1.252 . S
C159 O162 1.252 . S
C159 O163 1.260 . S
C160 O167 1.240 . S
C160 O168 1.252 . S
C161 O164 1.252 . S
C161 O165 1.260 . S
O162 In156 2.266 1_556 S
O162 C159 1.252 . S
O163 In156 2.326 1_556 S
O163 C159 1.260 . S
O164 In156 2.266 . S
O164 C161 1.252 . S
O165 In156 2.326 . S
O165 C161 1.260 . S
C166 O157 1.240 . S
C166 O158 1.252 . S
O167 In156 2.294 . S
O167 C160 1.240 . S
O168 In156 2.326 . S
O168 C160 1.252 . S
In169 O170 2.294 . S
In169 O171 2.326 . S
In169 O175 2.266 1_554 S
In169 O176 2.326 . S
In169 O177 2.266 1_554 S
In169 O178 2.326 1_554 S
In169 O180 2.294 . S
In169 O181 2.326 . S
O170 In169 2.294 . S
O170 C179 1.240 . S
O171 In169 2.326 . S
O171 C179 1.252 . S
C172 O175 1.252 . S
C172 O176 1.260 1_556 S
C173 O180 1.240 . S
C173 O181 1.252 . S
C174 O177 1.252 . S
C174 O178 1.260 . S
O175 In169 2.266 1_556 S
O175 C172 1.252 . S
O176 In169 2.326 . S
O176 C172 1.260 1_554 S
O177 In169 2.266 1_556 S
O177 C174 1.252 . S
O178 In169 2.326 1_556 S
O178 C174 1.260 . S
C179 O170 1.240 . S
C179 O171 1.252 . S
O180 In169 2.294 . S
O180 C173 1.240 . S
O181 In169 2.326 . S
O181 C173 1.252 . S
In182 O183 2.294 . S
In182 O184 2.326 . S
In182 O188 2.266 . S
In182 O189 2.326 . S
In182 O190 2.266 . S
In182 O191 2.326 . S
In182 O193 2.294 . S
In182 O194 2.326 . S
O183 In182 2.294 . S
O183 C192 1.240 . S
O184 In182 2.326 . S
O184 C192 1.252 . S
C185 O188 1.252 . S
C185 O189 1.260 . S
C186 O193 1.240 . S
C186 O194 1.252 . S
C187 O190 1.252 . S
C187 O191 1.260 . S
O188 In182 2.266 . S
O188 C185 1.252 . S
O189 In182 2.326 . S
O189 C185 1.260 . S
O190 In182 2.266 . S
O190 C187 1.252 . S
O191 In182 2.326 . S
O191 C187 1.260 . S
C192 O183 1.240 . S
C192 O184 1.252 . S
O193 In182 2.294 . S
O193 C186 1.240 . S
O194 In182 2.326 . S
O194 C186 1.252 . S
In195 O196 2.294 . S
In195 O197 2.326 . S
In195 O201 2.266 . S
In195 O202 2.326 . S
In195 O203 2.266 . S
In195 O204 2.326 . S
In195 O206 2.294 . S
In195 O207 2.326 . S
O196 In195 2.294 . S
O196 C205 1.240 . S
O197 In195 2.326 . S
O197 C205 1.252 . S
C198 O201 1.252 . S
C198 O202 1.260 . S
C199 O206 1.240 . S
C199 O207 1.252 . S
C200 O203 1.252 . S
C200 O204 1.260 . S
O201 In195 2.266 . S
O201 C198 1.252 . S
O202 In195 2.326 . S
O202 C198 1.260 . S
O203 In195 2.266 . S
O203 C200 1.252 . S
O204 In195 2.326 . S
O204 C200 1.260 . S
C205 O196 1.240 . S
C205 O197 1.252 . S
O206 In195 2.294 . S
O206 C199 1.240 . S
O207 In195 2.326 . S
O207 C199 1.252 . S
In208 O209 2.294 . S
In208 O210 2.326 . S
In208 O214 2.266 . S
In208 O215 2.326 . S
In208 O216 2.266 . S
In208 O217 2.328 . S
In208 O219 2.294 . S
In208 O220 2.326 . S
O209 In208 2.294 . S
O209 C218 1.240 . S
O210 In208 2.326 . S
O210 C218 1.252 . S
C211 O214 1.252 . S
C211 O215 1.260 . S
C212 O219 1.240 . S
C212 O220 1.252 . S
C213 O216 1.252 1_565 S
C213 O217 1.260 1_565 S
O214 In208 2.266 . S
O214 C211 1.252 . S
O215 In208 2.326 . S
O215 C211 1.260 . S
O216 In208 2.266 . S
O216 C213 1.252 1_545 S
O217 In208 2.328 . S
O217 C213 1.260 1_545 S
C218 O209 1.240 . S
C218 O210 1.252 . S
O219 In208 2.294 . S
O219 C212 1.240 . S
O220 In208 2.326 . S
O220 C212 1.252 . S
In221 O222 2.294 . S
In221 O223 2.326 . S
In221 O227 2.266 . S
In221 O228 2.326 . S
In221 O229 2.266 . S
In221 O230 2.326 . S
In221 O232 2.294 . S
In221 O233 2.326 . S
O222 In221 2.294 . S
O222 C231 1.240 . S
O223 In221 2.326 . S
O223 C231 1.252 . S
C224 O227 1.252 . S
C224 O228 1.260 . S
C225 O232 1.240 . S
C225 O233 1.252 . S
C226 O229 1.252 . S
C226 O230 1.260 . S
O227 In221 2.266 . S
O227 C224 1.252 . S
O228 In221 2.326 . S
O228 C224 1.260 . S
O229 In221 2.266 . S
O229 C226 1.252 . S
O230 In221 2.326 . S
O230 C226 1.260 . S
C231 O222 1.240 . S
C231 O223 1.252 . S
O232 In221 2.294 . S
O232 C225 1.240 . S
O233 In221 2.326 . S
O233 C225 1.252 . S
In234 O235 2.294 . S
In234 O236 2.326 . S
In234 O240 2.266 . S
In234 O241 2.326 . S
In234 O242 2.266 . S
In234 O243 2.326 . S
In234 O245 2.294 . S
In234 O246 2.326 . S
O235 In234 2.294 . S
O235 C244 1.240 . S
O236 In234 2.326 . S
O236 C244 1.252 . S
C237 O240 1.252 . S
C237 O241 1.260 . S
C238 O245 1.240 . S
C238 O246 1.252 . S
C239 O242 1.252 . S
C239 O243 1.260 . S
O240 In234 2.266 . S
O240 C237 1.252 . S
O241 In234 2.326 . S
O241 C237 1.260 . S
O242 In234 2.266 . S
O242 C239 1.252 . S
O243 In234 2.326 . S
O243 C239 1.260 . S
C244 O235 1.240 . S
C244 O236 1.252 . S
O245 In234 2.294 . S
O245 C238 1.240 . S
O246 In234 2.326 . S
O246 C238 1.252 . S
In247 O248 2.294 1_545 S
In247 O249 2.326 1_545 S
In247 O253 2.266 . S
In247 O254 2.326 . S
In247 O255 2.266 . S
In247 O256 2.326 . S
In247 O258 2.294 1_545 S
In247 O259 2.326 1_545 S
O248 In247 2.294 1_565 S
O248 C257 1.240 . S
O249 In247 2.326 1_565 S
O249 C257 1.252 . S
C250 O253 1.252 . S
C250 O254 1.260 . S
C251 O258 1.240 . S
C251 O259 1.252 . S
C252 O255 1.252 . S
C252 O256 1.260 . S
O253 In247 2.266 . S
O253 C250 1.252 . S
O254 In247 2.326 . S
O254 C250 1.260 . S
O255 In247 2.266 . S
O255 C252 1.252 . S
O256 In247 2.326 . S
O256 C252 1.260 . S
C257 O248 1.240 . S
C257 O249 1.252 . S
O258 In247 2.294 1_565 S
O258 C251 1.240 . S
O259 In247 2.326 1_565 S
O259 C251 1.252 . S
In260 O261 2.298 . S
In260 O262 2.328 . S
In260 O266 2.264 1_554 S
In260 O267 2.325 1_554 S
In260 O268 2.243 1_554 S
In260 O269 2.291 1_554 S
In260 O271 2.315 . S
In260 O272 2.361 . S
O261 In260 2.298 . S
O261 C270 1.240 . S
O262 In260 2.328 . S
O262 C270 1.252 . S
C263 O266 1.252 . S
C263 O267 1.260 . S
C264 O271 1.240 . S
C264 O272 1.252 . S
C265 O268 1.252 . S
C265 O269 1.260 . S
O266 In260 2.264 1_556 S
O266 C263 1.252 . S
O267 In260 2.325 1_556 S
O267 C263 1.260 . S
O268 In260 2.243 1_556 S
O268 C265 1.252 . S
O269 In260 2.291 1_556 S
O269 C265 1.260 . S
C270 O261 1.240 . S
C270 O262 1.252 . S
O271 In260 2.315 . S
O271 C264 1.240 . S
O272 In260 2.361 . S
O272 C264 1.252 . S
In273 O274 2.294 . S
In273 O275 2.326 . S
In273 O279 2.266 . S
In273 O280 2.326 . S
In273 O281 2.266 . S
In273 O282 2.326 . S
In273 O284 2.294 . S
In273 O285 2.326 . S
O274 In273 2.294 . S
O274 C283 1.240 . S
O275 In273 2.326 . S
O275 C283 1.252 . S
C276 O279 1.252 . S
C276 O280 1.260 . S
C277 O284 1.240 . S
C277 O285 1.252 . S
C278 O281 1.252 . S
C278 O282 1.260 . S
O279 In273 2.266 . S
O279 C276 1.252 . S
O280 In273 2.326 . S
O280 C276 1.260 . S
O281 In273 2.266 . S
O281 C278 1.252 . S
O282 In273 2.326 . S
O282 C278 1.260 . S
C283 O274 1.240 . S
C283 O275 1.252 . S
O284 In273 2.294 . S
O284 C277 1.240 . S
O285 In273 2.326 . S
O285 C277 1.252 . S
In286 O287 2.294 . S
In286 O288 2.326 . S
In286 O292 2.266 . S
In286 O293 2.326 . S
In286 O294 2.266 . S
In286 O295 2.326 . S
In286 O297 2.294 . S
In286 O298 2.326 . S
O287 In286 2.294 . S
O287 C296 1.240 . S
O288 In286 2.326 . S
O288 C296 1.252 . S
C289 O292 1.252 . S
C289 O293 1.260 . S
C290 O297 1.240 . S
C290 O298 1.252 . S
C291 O294 1.252 . S
C291 O295 1.260 . S
O292 In286 2.266 . S
O292 C289 1.252 . S
O293 In286 2.326 . S
O293 C289 1.260 . S
O294 In286 2.266 . S
O294 C291 1.252 . S
O295 In286 2.326 . S
O295 C291 1.260 . S
C296 O287 1.240 . S
C296 O288 1.252 . S
O297 In286 2.294 . S
O297 C290 1.240 . S
O298 In286 2.326 . S
O298 C290 1.252 . S
In299 O300 2.294 . S
In299 O301 2.326 . S
In299 O305 2.266 . S
In299 O306 2.326 . S
In299 O307 2.266 . S
In299 O308 2.326 . S
In299 O310 2.294 . S
In299 O311 2.326 . S
O300 In299 2.294 . S
O300 C309 1.240 . S
O301 In299 2.326 . S
O301 C309 1.252 . S
C302 O305 1.252 . S
C302 O306 1.260 . S
C303 O310 1.240 . S
C303 O311 1.252 . S
C304 O307 1.252 . S
C304 O308 1.260 . S
O305 In299 2.266 . S
O305 C302 1.252 . S
O306 In299 2.326 . S
O306 C302 1.260 . S
O307 In299 2.266 . S
O307 C304 1.252 . S
O308 In299 2.326 . S
O308 C304 1.260 . S
C309 O300 1.240 . S
C309 O301 1.252 . S
O310 In299 2.294 . S
O310 C303 1.240 . S
O311 In299 2.326 . S
O311 C303 1.252 . S
Tb312 O315 2.453 . S
Tb312 O316 2.596 . S
Tb312 O317 2.374 1_554 S
Tb312 O325 2.343 . S
Tb312 O327 2.353 . S
Tb312 O329 2.427 . S
Tb312 O330 2.513 1_554 S
C313 O317 1.251 . S
C313 O319 1.263 . S
Tb314 O316 2.346 . S
Tb314 O319 2.355 1_554 S
Tb314 O322 2.414 1_545 S
Tb314 O323 2.504 1_545 S
Tb314 O324 2.462 1_455 S
Tb314 O325 2.609 . S
Tb314 O326 2.380 . S
O315 Tb312 2.453 . S
O315 C331 1.245 . S
O316 Tb312 2.596 . S
O316 Tb314 2.346 . S
O316 C331 1.259 . S
O317 Tb312 2.374 1_556 S
O317 C313 1.251 . S
C318 O322 1.275 . S
C318 O323 1.246 . S
O319 C313 1.263 . S
O319 Tb314 2.355 1_556 S
C320 O324 1.245 . S
C320 O325 1.259 1_655 S
C321 O326 1.250 . S
C321 O327 1.263 . S
O322 Tb314 2.414 1_565 S
O322 C318 1.275 . S
O323 Tb314 2.504 1_565 S
O323 C318 1.246 . S
O324 Tb314 2.462 1_655 S
O324 C320 1.245 . S
O325 Tb312 2.343 . S
O325 Tb314 2.609 . S
O325 C320 1.259 1_455 S
O326 Tb314 2.380 . S
O326 C321 1.250 . S
O327 Tb312 2.353 . S
O327 C321 1.263 . S
C328 O329 1.275 . S
C328 O330 1.246 1_554 S
O329 Tb312 2.427 . S
O329 C328 1.275 . S
O330 Tb312 2.513 1_556 S
O330 C328 1.246 1_556 S
C331 O315 1.245 . S
C331 O316 1.259 . S
Tb332 O335 2.453 . S
Tb332 O336 2.596 . S
Tb332 O337 2.374 . S
Tb332 O345 2.343 . S
Tb332 O347 2.353 . S
Tb332 O349 2.427 . S
Tb332 O350 2.513 . S
C333 O337 1.251 . S
C333 O339 1.263 . S
Tb334 O336 2.343 . S
Tb334 O339 2.353 . S
Tb334 O342 2.427 . S
Tb334 O343 2.513 . S
Tb334 O344 2.453 . S
Tb334 O345 2.596 . S
Tb334 O346 2.374 . S
O335 Tb332 2.453 . S
O335 C351 1.245 . S
O336 Tb332 2.596 . S
O336 Tb334 2.343 . S
O336 C351 1.259 . S
O337 Tb332 2.374 . S
O337 C333 1.251 . S
C338 O342 1.275 . S
C338 O343 1.246 . S
O339 C333 1.263 . S
O339 Tb334 2.353 . S
C340 O344 1.245 . S
C340 O345 1.259 . S
C341 O346 1.250 . S
C341 O347 1.263 . S
O342 Tb334 2.427 . S
O342 C338 1.275 . S
O343 Tb334 2.513 . S
O343 C338 1.246 . S
O344 Tb334 2.453 . S
O344 C340 1.245 . S
O345 Tb332 2.343 . S
O345 Tb334 2.596 . S
O345 C340 1.259 . S
O346 Tb334 2.374 . S
O346 C341 1.250 . S
O347 Tb332 2.353 . S
O347 C341 1.263 . S
C348 O349 1.275 . S
C348 O350 1.246 . S
O349 Tb332 2.427 . S
O349 C348 1.275 . S
O350 Tb332 2.513 . S
O350 C348 1.246 . S
C351 O335 1.245 . S
C351 O336 1.259 . S
Tb352 O355 2.453 . S
Tb352 O356 2.596 . S
Tb352 O357 2.374 . S
Tb352 O365 2.343 1_545 S
Tb352 O367 2.353 . S
Tb352 O369 2.427 1_545 S
Tb352 O370 2.513 1_545 S
C353 O357 1.251 . S
C353 O359 1.263 1_545 S
Tb354 O356 2.343 . S
Tb354 O359 2.353 1_545 S
Tb354 O362 2.427 . S
Tb354 O363 2.513 . S
Tb354 O364 2.453 1_545 S
Tb354 O365 2.596 1_545 S
Tb354 O366 2.374 . S
O355 Tb352 2.453 . S
O355 C371 1.245 . S
O356 Tb352 2.596 . S
O356 Tb354 2.343 . S
O356 C371 1.259 . S
O357 Tb352 2.374 . S
O357 C353 1.251 . S
C358 O362 1.275 . S
C358 O363 1.246 . S
O359 C353 1.263 1_565 S
O359 Tb354 2.353 1_565 S
C360 O364 1.245 . S
C360 O365 1.259 . S
C361 O366 1.250 . S
C361 O367 1.263 . S
O362 Tb354 2.427 . S
O362 C358 1.275 . S
O363 Tb354 2.513 . S
O363 C358 1.246 . S
O364 Tb354 2.453 1_565 S
O364 C360 1.245 . S
O365 Tb352 2.343 1_565 S
O365 Tb354 2.596 1_565 S
O365 C360 1.259 . S
O366 Tb354 2.374 . S
O366 C361 1.250 . S
O367 Tb352 2.353 . S
O367 C361 1.263 . S
C368 O369 1.275 . S
C368 O370 1.246 . S
O369 Tb352 2.427 1_565 S
O369 C368 1.275 . S
O370 Tb352 2.513 1_565 S
O370 C368 1.246 . S
C371 O355 1.245 . S
C371 O356 1.259 . S
Tb372 O375 2.453 . S
Tb372 O376 2.596 . S
Tb372 O377 2.374 . S
Tb372 O385 2.343 . S
Tb372 O387 2.353 . S
Tb372 O389 2.427 . S
Tb372 O390 2.513 . S
C373 O377 1.251 . S
C373 O379 1.263 . S
Tb374 O376 2.343 . S
Tb374 O379 2.353 . S
Tb374 O382 2.427 . S
Tb374 O383 2.513 . S
Tb374 O384 2.453 . S
Tb374 O385 2.596 . S
Tb374 O386 2.374 . S
O375 Tb372 2.453 . S
O375 C391 1.245 . S
O376 Tb372 2.596 . S
O376 Tb374 2.343 . S
O376 C391 1.259 . S
O377 Tb372 2.374 . S
O377 C373 1.251 . S
C378 O382 1.275 . S
C378 O383 1.246 . S
O379 C373 1.263 . S
O379 Tb374 2.353 . S
C380 O384 1.245 . S
C380 O385 1.259 . S
C381 O386 1.250 . S
C381 O387 1.263 . S
O382 Tb374 2.427 . S
O382 C378 1.275 . S
O383 Tb374 2.513 . S
O383 C378 1.246 . S
O384 Tb374 2.453 . S
O384 C380 1.245 . S
O385 Tb372 2.343 . S
O385 Tb374 2.596 . S
O385 C380 1.259 . S
O386 Tb374 2.374 . S
O386 C381 1.250 . S
O387 Tb372 2.353 . S
O387 C381 1.263 . S
C388 O389 1.275 . S
C388 O390 1.246 . S
O389 Tb372 2.427 . S
O389 C388 1.275 . S
O390 Tb372 2.513 . S
O390 C388 1.246 . S
C391 O375 1.245 . S
C391 O376 1.259 . S
Tb392 O395 2.453 . S
Tb392 O396 2.596 . S
Tb392 O397 2.374 1_455 S
Tb392 O405 2.343 1_565 S
Tb392 O407 2.353 1_565 S
Tb392 O409 2.427 1_565 S
Tb392 O410 2.513 1_465 S
C393 O397 1.251 . S
C393 O399 1.263 1_565 S
Tb394 O396 2.343 1_545 S
Tb394 O399 2.353 1_455 S
Tb394 O402 2.427 . S
Tb394 O403 2.513 . S
Tb394 O404 2.453 . S
Tb394 O405 2.596 . S
Tb394 O406 2.374 . S
O395 Tb392 2.453 . S
O395 C411 1.245 . S
O396 Tb392 2.596 . S
O396 Tb394 2.343 1_565 S
O396 C411 1.259 . S
O397 Tb392 2.374 1_655 S
O397 C393 1.251 . S
C398 O402 1.275 . S
C398 O403 1.246 . S
O399 C393 1.263 1_545 S
O399 Tb394 2.353 1_655 S
C400 O404 1.245 . S
C400 O405 1.259 . S
C401 O406 1.250 . S
C401 O407 1.263 . S
O402 Tb394 2.427 . S
O402 C398 1.275 . S
O403 Tb394 2.513 . S
O403 C398 1.246 . S
O404 Tb394 2.453 . S
O404 C400 1.245 . S
O405 Tb392 2.343 1_545 S
O405 Tb394 2.596 . S
O405 C400 1.259 . S
O406 Tb394 2.374 . S
O406 C401 1.250 . S
O407 Tb392 2.353 1_545 S
O407 C401 1.263 . S
C408 O409 1.275 1_655 S
C408 O410 1.246 . S
O409 Tb392 2.427 1_545 S
O409 C408 1.275 1_455 S
O410 Tb392 2.513 1_645 S
O410 C408 1.246 . S
C411 O395 1.245 . S
C411 O396 1.259 . S
Tb412 O415 2.453 . S
Tb412 O416 2.596 . S
Tb412 O417 2.374 . S
Tb412 O425 2.343 . S
Tb412 O427 2.353 . S
Tb412 O429 2.427 . S
Tb412 O430 2.513 . S
C413 O417 1.251 . S
C413 O419 1.263 . S
Tb414 O416 2.343 . S
Tb414 O419 2.353 . S
Tb414 O422 2.427 . S
Tb414 O423 2.513 . S
Tb414 O424 2.453 . S
Tb414 O425 2.596 . S
Tb414 O426 2.374 . S
O415 Tb412 2.453 . S
O415 C431 1.245 . S
O416 Tb412 2.596 . S
O416 Tb414 2.343 . S
O416 C431 1.259 . S
O417 Tb412 2.374 . S
O417 C413 1.251 . S
C418 O422 1.275 . S
C418 O423 1.246 . S
O419 C413 1.263 . S
O419 Tb414 2.353 . S
C420 O424 1.245 . S
C420 O425 1.259 . S
C421 O426 1.250 . S
C421 O427 1.263 . S
O422 Tb414 2.427 . S
O422 C418 1.275 . S
O423 Tb414 2.513 . S
O423 C418 1.246 . S
O424 Tb414 2.453 . S
O424 C420 1.245 . S
O425 Tb412 2.343 . S
O425 Tb414 2.596 . S
O425 C420 1.259 . S
O426 Tb414 2.374 . S
O426 C421 1.250 . S
O427 Tb412 2.353 . S
O427 C421 1.263 . S
C428 O429 1.275 . S
C428 O430 1.246 . S
O429 Tb412 2.427 . S
O429 C428 1.275 . S
O430 Tb412 2.513 . S
O430 C428 1.246 . S
C431 O415 1.245 . S
C431 O416 1.259 . S
Tb432 O435 2.453 . S
Tb432 O436 2.596 . S
Tb432 O437 2.374 1_545 S
Tb432 O445 2.343 1_556 S
Tb432 O447 2.353 1_556 S
Tb432 O449 2.427 1_556 S
Tb432 O450 2.513 1_546 S
C433 O437 1.251 . S
C433 O439 1.263 1_556 S
Tb434 O436 2.343 1_554 S
Tb434 O439 2.353 1_545 S
Tb434 O442 2.427 . S
Tb434 O443 2.513 . S
Tb434 O444 2.453 . S
Tb434 O445 2.596 . S
Tb434 O446 2.374 . S
O435 Tb432 2.453 . S
O435 C451 1.245 . S
O436 Tb432 2.596 . S
O436 Tb434 2.343 1_556 S
O436 C451 1.259 . S
O437 Tb432 2.374 1_565 S
O437 C433 1.251 . S
C438 O442 1.275 . S
C438 O443 1.246 . S
O439 C433 1.263 1_554 S
O439 Tb434 2.353 1_565 S
C440 O444 1.245 . S
C440 O445 1.259 . S
C441 O446 1.250 . S
C441 O447 1.263 . S
O442 Tb434 2.427 . S
O442 C438 1.275 . S
O443 Tb434 2.513 . S
O443 C438 1.246 . S
O444 Tb434 2.453 . S
O444 C440 1.245 . S
O445 Tb432 2.343 1_554 S
O445 Tb434 2.596 . S
O445 C440 1.259 . S
O446 Tb434 2.374 . S
O446 C441 1.250 . S
O447 Tb432 2.353 1_554 S
O447 C441 1.263 . S
C448 O449 1.275 . S
C448 O450 1.246 1_545 S
O449 Tb432 2.427 1_554 S
O449 C448 1.275 . S
O450 Tb432 2.513 1_564 S
O450 C448 1.246 1_565 S
C451 O435 1.245 . S
C451 O436 1.259 . S
Tb452 O455 2.453 . S
Tb452 O456 2.596 . S
Tb452 O457 2.374 . S
Tb452 O465 2.343 . S
Tb452 O467 2.353 . S
Tb452 O469 2.427 . S
Tb452 O470 2.513 . S
C453 O457 1.251 . S
C453 O459 1.263 . S
Tb454 O456 2.343 . S
Tb454 O459 2.353 . S
Tb454 O462 2.427 . S
Tb454 O463 2.513 . S
Tb454 O464 2.453 . S
Tb454 O465 2.596 . S
Tb454 O466 2.374 . S
O455 Tb452 2.453 . S
O455 C471 1.245 . S
O456 Tb452 2.596 . S
O456 Tb454 2.343 . S
O456 C471 1.259 . S
O457 Tb452 2.374 . S
O457 C453 1.251 . S
C458 O462 1.275 . S
C458 O463 1.246 . S
O459 C453 1.263 . S
O459 Tb454 2.353 . S
C460 O464 1.245 . S
C460 O465 1.259 . S
C461 O466 1.250 . S
C461 O467 1.263 . S
O462 Tb454 2.427 . S
O462 C458 1.275 . S
O463 Tb454 2.513 . S
O463 C458 1.246 . S
O464 Tb454 2.453 . S
O464 C460 1.245 . S
O465 Tb452 2.343 . S
O465 Tb454 2.596 . S
O465 C460 1.259 . S
O466 Tb454 2.374 . S
O466 C461 1.250 . S
O467 Tb452 2.353 . S
O467 C461 1.263 . S
C468 O469 1.275 . S
C468 O470 1.246 . S
O469 Tb452 2.427 . S
O469 C468 1.275 . S
O470 Tb452 2.513 . S
O470 C468 1.246 . S
C471 O455 1.245 . S
C471 O456 1.259 . S
Tb472 O475 2.453 . S
Tb472 O476 2.596 1_556 S
Tb472 O477 2.374 . S
Tb472 O485 2.343 . S
Tb472 O487 2.353 . S
Tb472 O489 2.427 . S
Tb472 O490 2.513 . S
C473 O477 1.251 1_554 S
C473 O479 1.263 . S
Tb474 O476 2.343 . S
Tb474 O479 2.353 . S
Tb474 O482 2.427 . S
Tb474 O483 2.513 . S
Tb474 O484 2.453 . S
Tb474 O485 2.596 1_554 S
Tb474 O486 2.374 . S
O475 Tb472 2.453 . S
O475 C491 1.245 1_556 S
O476 Tb472 2.596 1_554 S
O476 Tb474 2.343 . S
O476 C491 1.259 . S
O477 Tb472 2.374 . S
O477 C473 1.251 1_556 S
C478 O482 1.275 . S
C478 O483 1.246 . S
O479 C473 1.263 . S
O479 Tb474 2.353 . S
C480 O484 1.245 1_556 S
C480 O485 1.259 . S
C481 O486 1.257 . S
C481 O487 1.259 1_554 S
O482 Tb474 2.427 . S
O482 C478 1.275 . S
O483 Tb474 2.513 . S
O483 C478 1.246 . S
O484 Tb474 2.453 . S
O484 C480 1.245 1_554 S
O485 Tb472 2.343 . S
O485 Tb474 2.596 1_556 S
O485 C480 1.259 . S
O486 Tb474 2.374 . S
O486 C481 1.257 . S
O487 Tb472 2.353 . S
O487 C481 1.259 1_556 S
C488 O489 1.275 . S
C488 O490 1.246 . S
O489 Tb472 2.427 . S
O489 C488 1.275 . S
O490 Tb472 2.513 . S
O490 C488 1.246 . S
C491 O475 1.245 1_554 S
C491 O476 1.259 . S
Tb492 O495 2.453 . S
Tb492 O496 2.596 . S
Tb492 O497 2.374 . S
Tb492 O505 2.343 . S
Tb492 O507 2.353 . S
Tb492 O509 2.427 . S
Tb492 O510 2.513 . S
C493 O497 1.251 . S
C493 O499 1.263 . S
Tb494 O496 2.343 . S
Tb494 O499 2.353 . S
Tb494 O502 2.427 . S
Tb494 O503 2.513 . S
Tb494 O504 2.453 . S
Tb494 O505 2.596 . S
Tb494 O506 2.374 . S
O495 Tb492 2.453 . S
O495 C511 1.245 . S
O496 Tb492 2.596 . S
O496 Tb494 2.343 . S
O496 C511 1.259 . S
O497 Tb492 2.374 . S
O497 C493 1.251 . S
C498 O502 1.275 . S
C498 O503 1.246 . S
O499 C493 1.263 . S
O499 Tb494 2.353 . S
C500 O504 1.245 . S
C500 O505 1.259 . S
C501 O506 1.250 . S
C501 O507 1.263 . S
O502 Tb494 2.427 . S
O502 C498 1.275 . S
O503 Tb494 2.513 . S
O503 C498 1.246 . S
O504 Tb494 2.453 . S
O504 C500 1.245 . S
O505 Tb492 2.343 . S
O505 Tb494 2.596 . S
O505 C500 1.259 . S
O506 Tb494 2.374 . S
O506 C501 1.250 . S
O507 Tb492 2.353 . S
O507 C501 1.263 . S
C508 O509 1.275 . S
C508 O510 1.246 . S
O509 Tb492 2.427 . S
O509 C508 1.275 . S
O510 Tb492 2.513 . S
O510 C508 1.246 . S
C511 O495 1.245 . S
C511 O496 1.259 . S
Tb512 O515 2.453 . S
Tb512 O516 2.596 1_655 S
Tb512 O517 2.374 . S
Tb512 O525 2.343 . S
Tb512 O527 2.353 . S
Tb512 O529 2.427 . S
Tb512 O530 2.513 . S
C513 O517 1.251 1_455 S
C513 O519 1.263 . S
Tb514 O516 2.343 . S
Tb514 O519 2.353 . S
Tb514 O522 2.427 . S
Tb514 O523 2.513 . S
Tb514 O524 2.453 . S
Tb514 O525 2.596 1_455 S
Tb514 O526 2.374 . S
O515 Tb512 2.453 . S
O515 C531 1.245 1_655 S
O516 Tb512 2.596 1_455 S
O516 Tb514 2.343 . S
O516 C531 1.259 . S
O517 Tb512 2.374 . S
O517 C513 1.251 1_655 S
C518 O522 1.275 . S
C518 O523 1.246 . S
O519 C513 1.263 . S
O519 Tb514 2.353 . S
C520 O524 1.245 1_655 S
C520 O525 1.259 . S
C521 O526 1.250 1_655 S
C521 O527 1.263 . S
O522 Tb514 2.427 . S
O522 C518 1.275 . S
O523 Tb514 2.513 . S
O523 C518 1.246 . S
O524 Tb514 2.453 . S
O524 C520 1.245 1_455 S
O525 Tb512 2.343 . S
O525 Tb514 2.596 1_655 S
O525 C520 1.259 . S
O526 Tb514 2.374 . S
O526 C521 1.250 1_455 S
O527 Tb512 2.353 . S
O527 C521 1.263 . S
C528 O529 1.275 . S
C528 O530 1.246 . S
O529 Tb512 2.427 . S
O529 C528 1.275 . S
O530 Tb512 2.513 . S
O530 C528 1.246 . S
C531 O515 1.245 1_455 S
C531 O516 1.259 . S
Tb532 O535 2.453 . S
Tb532 O536 2.596 . S
Tb532 O537 2.374 . S
Tb532 O545 2.343 . S
Tb532 O547 2.353 . S
Tb532 O549 2.427 . S
Tb532 O550 2.513 . S
C533 O537 1.251 . S
C533 O539 1.263 . S
Tb534 O536 2.343 . S
Tb534 O539 2.353 . S
Tb534 O542 2.427 . S
Tb534 O543 2.513 . S
Tb534 O544 2.453 . S
Tb534 O545 2.596 . S
Tb534 O546 2.374 . S
O535 Tb532 2.453 . S
O535 C551 1.245 . S
O536 Tb532 2.596 . S
O536 Tb534 2.343 . S
O536 C551 1.259 . S
O537 Tb532 2.374 . S
O537 C533 1.251 . S
C538 O542 1.275 . S
C538 O543 1.246 . S
O539 C533 1.263 . S
O539 Tb534 2.353 . S
C540 O544 1.245 . S
C540 O545 1.259 . S
C541 O546 1.250 . S
C541 O547 1.263 . S
O542 Tb534 2.427 . S
O542 C538 1.275 . S
O543 Tb534 2.513 . S
O543 C538 1.246 . S
O544 Tb534 2.453 . S
O544 C540 1.245 . S
O545 Tb532 2.343 . S
O545 Tb534 2.596 . S
O545 C540 1.259 . S
O546 Tb534 2.374 . S
O546 C541 1.250 . S
O547 Tb532 2.353 . S
O547 C541 1.263 . S
C548 O549 1.275 . S
C548 O550 1.246 . S
O549 Tb532 2.427 . S
O549 C548 1.275 . S
O550 Tb532 2.513 . S
O550 C548 1.246 . S
C551 O535 1.245 . S
C551 O536 1.259 . S
Tb552 O555 2.453 . S
Tb552 O556 2.596 . S
Tb552 O557 2.374 . S
Tb552 O565 2.343 . S
Tb552 O567 2.353 . S
Tb552 O569 2.427 . S
Tb552 O570 2.513 . S
C553 O557 1.251 . S
C553 O559 1.263 . S
Tb554 O556 2.343 . S
Tb554 O559 2.353 . S
Tb554 O562 2.427 . S
Tb554 O563 2.513 . S
Tb554 O564 2.453 . S
Tb554 O565 2.596 . S
Tb554 O566 2.374 . S
O555 Tb552 2.453 . S
O555 C571 1.245 . S
O556 Tb552 2.596 . S
O556 Tb554 2.343 . S
O556 C571 1.259 . S
O557 Tb552 2.374 . S
O557 C553 1.251 . S
C558 O562 1.275 . S
C558 O563 1.246 . S
O559 C553 1.263 . S
O559 Tb554 2.353 . S
C560 O564 1.245 . S
C560 O565 1.259 . S
C561 O566 1.250 . S
C561 O567 1.263 . S
O562 Tb554 2.427 . S
O562 C558 1.275 . S
O563 Tb554 2.513 . S
O563 C558 1.246 . S
O564 Tb554 2.453 . S
O564 C560 1.245 . S
O565 Tb552 2.343 . S
O565 Tb554 2.596 . S
O565 C560 1.259 . S
O566 Tb554 2.374 . S
O566 C561 1.250 . S
O567 Tb552 2.353 . S
O567 C561 1.263 . S
C568 O569 1.275 . S
C568 O570 1.246 . S
O569 Tb552 2.427 . S
O569 C568 1.275 . S
O570 Tb552 2.513 . S
O570 C568 1.246 . S
C571 O555 1.245 . S
C571 O556 1.259 . S
Tb572 O575 2.453 . S
Tb572 O576 2.596 . S
Tb572 O577 2.374 . S
Tb572 O585 2.343 . S
Tb572 O587 2.353 . S
Tb572 O589 2.427 . S
Tb572 O590 2.513 . S
C573 O577 1.251 . S
C573 O579 1.263 . S
Tb574 O576 2.343 . S
Tb574 O579 2.353 . S
Tb574 O582 2.427 . S
Tb574 O583 2.513 . S
Tb574 O584 2.453 . S
Tb574 O585 2.596 . S
Tb574 O586 2.374 . S
O575 Tb572 2.453 . S
O575 C591 1.245 . S
O576 Tb572 2.596 . S
O576 Tb574 2.343 . S
O576 C591 1.259 . S
O577 Tb572 2.374 . S
O577 C573 1.251 . S
C578 O582 1.275 . S
C578 O583 1.246 . S
O579 C573 1.263 . S
O579 Tb574 2.353 . S
C580 O584 1.245 . S
C580 O585 1.259 . S
C581 O586 1.250 . S
C581 O587 1.263 . S
O582 Tb574 2.427 . S
O582 C578 1.275 . S
O583 Tb574 2.513 . S
O583 C578 1.246 . S
O584 Tb574 2.453 . S
O584 C580 1.245 . S
O585 Tb572 2.343 . S
O585 Tb574 2.596 . S
O585 C580 1.259 . S
O586 Tb574 2.374 . S
O586 C581 1.250 . S
O587 Tb572 2.353 . S
O587 C581 1.263 . S
C588 O589 1.275 . S
C588 O590 1.246 . S
O589 Tb572 2.427 . S
O589 C588 1.275 . S
O590 Tb572 2.513 . S
O590 C588 1.246 . S
C591 O575 1.245 . S
C591 O576 1.259 . S
Tb592 O595 2.453 . S
Tb592 O596 2.596 . S
Tb592 O597 2.374 . S
Tb592 O605 2.343 . S
Tb592 O607 2.353 . S
Tb592 O609 2.427 . S
Tb592 O610 2.513 . S
C593 O597 1.251 . S
C593 O599 1.263 . S
Tb594 O596 2.343 . S
Tb594 O599 2.353 . S
Tb594 O602 2.427 . S
Tb594 O603 2.513 . S
Tb594 O604 2.453 . S
Tb594 O605 2.596 . S
Tb594 O606 2.374 . S
O595 Tb592 2.453 . S
O595 C611 1.245 . S
O596 Tb592 2.596 . S
O596 Tb594 2.343 . S
O596 C611 1.259 . S
O597 Tb592 2.374 . S
O597 C593 1.251 . S
C598 O602 1.275 . S
C598 O603 1.246 . S
O599 C593 1.263 . S
O599 Tb594 2.353 . S
C600 O604 1.245 . S
C600 O605 1.259 . S
C601 O606 1.250 . S
C601 O607 1.263 . S
O602 Tb594 2.427 . S
O602 C598 1.275 . S
O603 Tb594 2.513 . S
O603 C598 1.246 . S
O604 Tb594 2.453 . S
O604 C600 1.245 . S
O605 Tb592 2.343 . S
O605 Tb594 2.596 . S
O605 C600 1.259 . S
O606 Tb594 2.374 . S
O606 C601 1.250 . S
O607 Tb592 2.353 . S
O607 C601 1.263 . S
C608 O609 1.275 . S
C608 O610 1.246 . S
O609 Tb592 2.427 . S
O609 C608 1.275 . S
O610 Tb592 2.513 . S
O610 C608 1.246 . S
C611 O595 1.245 . S
C611 O596 1.259 . S
Tb612 O615 2.453 . S
Tb612 O616 2.596 1_455 S
Tb612 O617 2.374 . S
Tb612 O625 2.343 . S
Tb612 O627 2.353 1_554 S
Tb612 O629 2.427 1_554 S
Tb612 O630 2.513 . S
C613 O617 1.251 . S
C613 O619 1.263 1_455 S
Tb614 O616 2.343 . S
Tb614 O619 2.353 . S
Tb614 O622 2.427 . S
Tb614 O623 2.513 . S
Tb614 O624 2.453 . S
Tb614 O625 2.596 1_655 S
Tb614 O626 2.374 1_554 S
O615 Tb612 2.453 . S
O615 C631 1.245 . S
O616 Tb612 2.596 1_655 S
O616 Tb614 2.343 . S
O616 C631 1.259 1_655 S
O617 Tb612 2.374 . S
O617 C613 1.251 . S
C618 O622 1.275 . S
C618 O623 1.246 . S
O619 C613 1.263 1_655 S
O619 Tb614 2.353 . S
C620 O624 1.245 . S
C620 O625 1.259 1_655 S
C621 O626 1.250 . S
C621 O627 1.263 1_655 S
O622 Tb614 2.427 . S
O622 C618 1.275 . S
O623 Tb614 2.513 . S
O623 C618 1.246 . S
O624 Tb614 2.453 . S
O624 C620 1.245 . S
O625 Tb612 2.343 . S
O625 Tb614 2.596 1_455 S
O625 C620 1.259 1_455 S
O626 Tb614 2.374 1_556 S
O626 C621 1.250 . S
O627 Tb612 2.353 1_556 S
O627 C621 1.263 1_455 S
C628 O629 1.275 1_554 S
C628 O630 1.246 . S
O629 Tb612 2.427 1_556 S
O629 C628 1.275 1_556 S
O630 Tb612 2.513 . S
O630 C628 1.246 . S
C631 O615 1.245 . S
C631 O616 1.259 1_455 S
C632 C633 1.363 . S
C632 C638 1.379 . S
C632 N640 1.356 . S
C633 C632 1.363 . S
C633 C639 1.363 . S
C634 C635 1.363 . S
C634 C639 1.379 . S
C634 N641 1.356 . S
C635 C634 1.363 . S
C635 C638 1.363 . S
N636 C638 1.356 1_554 S
N636 H648 0.984 . S
N636 H649 0.985 . S
N637 C639 1.356 . S
N637 H642 0.984 . S
N637 H643 0.985 1_455 S
C638 C632 1.379 . S
C638 C635 1.363 . S
C638 N636 1.356 1_556 S
C639 C633 1.363 . S
C639 C634 1.379 . S
C639 N637 1.356 . S
N640 C632 1.356 . S
N640 H646 0.984 . S
N640 H647 0.984 . S
N641 C634 1.356 . S
N641 H644 0.984 . S
N641 H645 0.985 . S
H642 N637 0.984 . S
H643 N637 0.985 1_655 S
H644 N641 0.984 . S
H645 N641 0.985 . S
H646 N640 0.984 . S
H647 N640 0.984 . S
H648 N636 0.984 . S
H649 N636 0.985 . S
C650 C651 1.363 . S
C650 C656 1.379 . S
C650 N658 1.356 . S
C651 C650 1.363 . S
C651 C657 1.363 . S
C652 C653 1.363 . S
C652 C657 1.379 . S
C652 N659 1.356 . S
C653 C652 1.363 . S
C653 C656 1.363 . S
N654 C656 1.356 . S
N654 H666 0.984 . S
N654 H667 0.985 . S
N655 C657 1.356 . S
N655 H660 0.984 . S
N655 H661 0.985 . S
C656 C650 1.379 . S
C656 C653 1.363 . S
C656 N654 1.356 . S
C657 C651 1.363 . S
C657 C652 1.379 . S
C657 N655 1.356 . S
N658 C650 1.356 . S
N658 H664 0.984 . S
N658 H665 0.984 . S
N659 C652 1.356 . S
N659 H662 0.984 . S
N659 H663 0.985 . S
H660 N655 0.984 . S
H661 N655 0.985 . S
H662 N659 0.984 . S
H663 N659 0.985 . S
H664 N658 0.984 . S
H665 N658 0.984 . S
H666 N654 0.984 . S
H667 N654 0.985 . S
C668 C669 1.363 . S
C668 C674 1.379 . S
C668 N676 1.356 . S
C669 C668 1.363 . S
C669 C675 1.363 . S
C670 C671 1.363 . S
C670 C675 1.379 . S
C670 N677 1.356 . S
C671 C670 1.363 . S
C671 C674 1.363 . S
N672 C674 1.356 . S
N672 H684 0.984 . S
N672 H685 0.985 . S
N673 C675 1.356 . S
N673 H678 0.984 . S
N673 H679 0.985 . S
C674 C668 1.379 . S
C674 C671 1.363 . S
C674 N672 1.356 . S
C675 C669 1.363 . S
C675 C670 1.379 . S
C675 N673 1.356 . S
N676 C668 1.356 . S
N676 H682 0.984 . S
N676 H683 0.984 . S
N677 C670 1.356 . S
N677 H680 0.984 . S
N677 H681 0.985 . S
H678 N673 0.984 . S
H679 N673 0.985 . S
H680 N677 0.984 . S
H681 N677 0.985 . S
H682 N676 0.984 . S
H683 N676 0.984 . S
H684 N672 0.984 . S
H685 N672 0.985 . S
C686 C687 1.363 . S
C686 C692 1.379 . S
C686 N694 1.356 . S
C687 C686 1.363 . S
C687 C693 1.363 . S
C688 C689 1.363 . S
C688 C693 1.379 . S
C688 N695 1.356 . S
C689 C688 1.363 . S
C689 C692 1.363 . S
N690 C692 1.356 . S
N690 H702 0.984 . S
N690 H703 0.985 . S
N691 C693 1.356 . S
N691 H696 0.984 . S
N691 H697 0.985 . S
C692 C686 1.379 . S
C692 C689 1.363 . S
C692 N690 1.356 . S
C693 C687 1.363 . S
C693 C688 1.379 . S
C693 N691 1.356 . S
N694 C686 1.356 . S
N694 H700 0.984 . S
N694 H701 0.984 . S
N695 C688 1.356 . S
N695 H698 0.984 . S
N695 H699 0.985 . S
H696 N691 0.984 . S
H697 N691 0.985 . S
H698 N695 0.984 . S
H699 N695 0.985 . S
H700 N694 0.984 . S
H701 N694 0.984 . S
H702 N690 0.984 . S
H703 N690 0.985 . S
C704 C705 1.363 . S
C704 C710 1.379 . S
C704 N712 1.356 . S
C705 C704 1.363 . S
C705 C711 1.363 1_455 S
C706 C707 1.358 1_655 S
C706 C711 1.379 . S
C706 N713 1.360 . S
C707 C706 1.358 1_455 S
C707 C710 1.363 . S
N708 C710 1.356 . S
N708 H720 0.984 . S
N708 H721 0.985 . S
N709 C711 1.356 . S
N709 H714 0.984 . S
N709 H715 0.985 . S
C710 C704 1.379 . S
C710 C707 1.363 . S
C710 N708 1.356 . S
C711 C705 1.363 1_655 S
C711 C706 1.379 . S
C711 N709 1.356 . S
N712 C704 1.356 . S
N712 H718 0.984 . S
N712 H719 0.984 . S
N713 C706 1.360 . S
N713 H716 0.984 . S
N713 H717 0.985 . S
H714 N709 0.984 . S
H715 N709 0.985 . S
H716 N713 0.984 . S
H717 N713 0.985 . S
H718 N712 0.984 . S
H719 N712 0.984 . S
H720 N708 0.984 . S
H721 N708 0.985 . S
C722 C723 1.363 . S
C722 C728 1.379 . S
C722 N730 1.356 . S
C723 C722 1.363 . S
C723 C729 1.363 . S
C724 C725 1.363 . S
C724 C729 1.379 . S
C724 N731 1.356 . S
C725 C724 1.363 . S
C725 C728 1.363 . S
N726 C728 1.356 . S
N726 H738 0.984 . S
N726 H739 0.985 . S
N727 C729 1.356 . S
N727 H732 0.984 . S
N727 H733 0.985 . S
C728 C722 1.379 . S
C728 C725 1.363 . S
C728 N726 1.356 . S
C729 C723 1.363 . S
C729 C724 1.379 . S
C729 N727 1.356 . S
N730 C722 1.356 . S
N730 H736 0.984 . S
N730 H737 0.984 . S
N731 C724 1.356 . S
N731 H734 0.984 . S
N731 H735 0.985 . S
H732 N727 0.984 . S
H733 N727 0.985 . S
H734 N731 0.984 . S
H735 N731 0.985 . S
H736 N730 0.984 . S
H737 N730 0.984 . S
H738 N726 0.984 . S
H739 N726 0.985 . S
C740 C741 1.363 . S
C740 C746 1.379 . S
C740 N748 1.356 . S
C741 C740 1.363 . S
C741 C747 1.363 . S
C742 C743 1.363 . S
C742 C747 1.379 . S
C742 N749 1.356 . S
C743 C742 1.363 . S
C743 C746 1.363 . S
N744 C746 1.356 . S
N744 H756 0.984 1_554 S
N744 H757 0.985 1_554 S
N745 C747 1.356 . S
N745 H750 0.984 . S
N745 H751 0.985 . S
C746 C740 1.379 . S
C746 C743 1.363 . S
C746 N744 1.356 . S
C747 C741 1.363 . S
C747 C742 1.379 . S
C747 N745 1.356 . S
N748 C740 1.356 . S
N748 H754 0.984 . S
N748 H755 0.984 . S
N749 C742 1.356 . S
N749 H752 0.984 . S
N749 H753 0.985 . S
H750 N745 0.984 . S
H751 N745 0.985 . S
H752 N749 0.984 . S
H753 N749 0.985 . S
H754 N748 0.984 . S
H755 N748 0.984 . S
H756 N744 0.984 1_556 S
H757 N744 0.985 1_556 S
C758 C759 1.363 . S
C758 C764 1.379 . S
C758 N766 1.356 . S
C759 C758 1.363 . S
C759 C765 1.363 . S
C760 C761 1.363 . S
C760 C765 1.379 . S
C760 N767 1.356 . S
C761 C760 1.363 . S
C761 C764 1.363 . S
N762 C764 1.356 . S
N762 H774 0.984 . S
N762 H775 0.985 . S
N763 C765 1.356 . S
N763 H768 0.984 . S
N763 H769 0.985 . S
C764 C758 1.379 . S
C764 C761 1.363 . S
C764 N762 1.356 . S
C765 C759 1.363 . S
C765 C760 1.379 . S
C765 N763 1.356 . S
N766 C758 1.356 . S
N766 H772 0.984 . S
N766 H773 0.984 . S
N767 C760 1.356 . S
N767 H770 0.984 . S
N767 H771 0.985 . S
H768 N763 0.984 . S
H769 N763 0.985 . S
H770 N767 0.984 . S
H771 N767 0.985 . S
H772 N766 0.984 . S
H773 N766 0.984 . S
H774 N762 0.984 . S
H775 N762 0.985 . S
C776 C777 1.363 . S
C776 C782 1.379 . S
C776 N784 1.356 . S
C777 C776 1.363 . S
C777 C783 1.363 . S
C778 C779 1.363 . S
C778 C783 1.379 . S
C778 N785 1.356 . S
C779 C778 1.363 . S
C779 C782 1.363 . S
N780 C782 1.356 1_455 S
N780 H792 0.984 . S
N780 H793 0.985 . S
N781 C783 1.356 . S
N781 H786 0.984 . S
N781 H787 0.985 . S
C782 C776 1.379 . S
C782 C779 1.363 . S
C782 N780 1.356 1_655 S
C783 C777 1.363 . S
C783 C778 1.379 . S
C783 N781 1.356 . S
N784 C776 1.356 . S
N784 H790 0.984 . S
N784 H791 0.984 . S
N785 C778 1.356 . S
N785 H788 0.984 1_655 S
N785 H789 0.985 . S
H786 N781 0.984 . S
H787 N781 0.985 . S
H788 N785 0.984 1_455 S
H789 N785 0.985 . S
H790 N784 0.984 . S
H791 N784 0.984 . S
H792 N780 0.984 . S
H793 N780 0.985 . S
C794 C795 1.363 . S
C794 C800 1.379 . S
C794 N802 1.356 . S
C795 C794 1.363 . S
C795 C801 1.363 . S
C796 C797 1.363 . S
C796 C801 1.379 . S
C796 N803 1.356 . S
C797 C796 1.363 . S
C797 C800 1.363 . S
N798 C800 1.356 . S
N798 H810 0.984 . S
N798 H811 0.985 . S
N799 C801 1.356 . S
N799 H804 0.984 . S
N799 H805 0.985 . S
C800 C794 1.379 . S
C800 C797 1.363 . S
C800 N798 1.356 . S
C801 C795 1.363 . S
C801 C796 1.379 . S
C801 N799 1.356 . S
N802 C794 1.356 . S
N802 H808 0.984 . S
N802 H809 0.984 . S
N803 C796 1.356 . S
N803 H806 0.984 . S
N803 H807 0.985 . S
H804 N799 0.984 . S
H805 N799 0.985 . S
H806 N803 0.984 . S
H807 N803 0.985 . S
H808 N802 0.984 . S
H809 N802 0.984 . S
H810 N798 0.984 . S
H811 N798 0.985 . S
C812 C813 1.363 . S
C812 C818 1.379 1_565 S
C812 N820 1.356 . S
C813 C812 1.363 . S
C813 C819 1.363 . S
C814 C815 1.363 . S
C814 C819 1.379 1_545 S
C814 N821 1.356 . S
C815 C814 1.363 . S
C815 C818 1.363 . S
N816 C818 1.356 . S
N816 H828 0.984 . S
N816 H829 0.985 . S
N817 C819 1.356 . S
N817 H822 0.984 . S
N817 H823 0.985 . S
C818 C812 1.379 1_545 S
C818 C815 1.363 . S
C818 N816 1.356 . S
C819 C813 1.363 . S
C819 C814 1.379 1_565 S
C819 N817 1.356 . S
N820 C812 1.356 . S
N820 H826 0.984 . S
N820 H827 0.984 . S
N821 C814 1.356 . S
N821 H824 0.984 . S
N821 H825 0.985 . S
H822 N817 0.984 . S
H823 N817 0.985 . S
H824 N821 0.984 . S
H825 N821 0.985 . S
H826 N820 0.984 . S
H827 N820 0.984 . S
H828 N816 0.984 . S
H829 N816 0.985 . S
C830 C831 1.363 . S
C830 C836 1.379 . S
C830 N838 1.356 . S
C831 C830 1.363 . S
C831 C837 1.363 . S
C832 C833 1.363 . S
C832 C837 1.379 . S
C832 N839 1.356 . S
C833 C832 1.363 . S
C833 C836 1.363 . S
N834 C836 1.356 . S
N834 H846 0.984 . S
N834 H847 0.985 . S
N835 C837 1.356 . S
N835 H840 0.984 1_556 S
N835 H841 0.985 1_556 S
C836 C830 1.379 . S
C836 C833 1.363 . S
C836 N834 1.356 . S
C837 C831 1.363 . S
C837 C832 1.379 . S
C837 N835 1.356 . S
N838 C830 1.356 . S
N838 H844 0.984 . S
N838 H845 0.984 . S
N839 C832 1.356 . S
N839 H842 0.984 . S
N839 H843 0.985 . S
H840 N835 0.984 1_554 S
H841 N835 0.985 1_554 S
H842 N839 0.984 . S
H843 N839 0.985 . S
H844 N838 0.984 . S
H845 N838 0.984 . S
H846 N834 0.984 . S
H847 N834 0.985 . S
C848 C849 1.363 . S
C848 C854 1.379 . S
C848 N856 1.356 . S
C849 C848 1.363 . S
C849 C855 1.363 . S
C850 C851 1.363 . S
C850 C855 1.379 . S
C850 N857 1.356 1_545 S
C851 C850 1.363 . S
C851 C854 1.363 . S
N852 C854 1.356 1_455 S
N852 H864 0.984 . S
N852 H865 0.985 . S
N853 C855 1.356 . S
N853 H858 0.984 . S
N853 H859 0.985 1_545 S
C854 C848 1.379 . S
C854 C851 1.363 . S
C854 N852 1.356 1_655 S
C855 C849 1.363 . S
C855 C850 1.379 . S
C855 N853 1.356 . S
N856 C848 1.356 . S
N856 H862 0.984 . S
N856 H863 0.984 . S
N857 C850 1.356 1_565 S
N857 H860 0.984 . S
N857 H861 0.985 . S
H858 N853 0.984 . S
H859 N853 0.985 1_565 S
H860 N857 0.984 . S
H861 N857 0.985 . S
H862 N856 0.984 . S
H863 N856 0.984 . S
H864 N852 0.984 . S
H865 N852 0.985 . S
C866 C867 1.363 . S
C866 C872 1.379 . S
C866 N874 1.356 . S
C867 C866 1.363 . S
C867 C873 1.363 . S
C868 C869 1.363 . S
C868 C873 1.379 . S
C868 N875 1.356 . S
C869 C868 1.363 . S
C869 C872 1.363 . S
N870 C872 1.356 . S
N870 H882 0.984 . S
N870 H883 0.985 . S
N871 C873 1.356 . S
N871 H876 0.984 . S
N871 H877 0.985 . S
C872 C866 1.379 . S
C872 C869 1.363 . S
C872 N870 1.356 . S
C873 C867 1.363 . S
C873 C868 1.379 . S
C873 N871 1.356 . S
N874 C866 1.356 . S
N874 H880 0.984 . S
N874 H881 0.984 . S
N875 C868 1.356 . S
N875 H878 0.984 . S
N875 H879 0.985 . S
H876 N871 0.984 . S
H877 N871 0.985 . S
H878 N875 0.984 . S
H879 N875 0.985 . S
H880 N874 0.984 . S
H881 N874 0.984 . S
H882 N870 0.984 . S
H883 N870 0.985 . S
C884 C885 1.363 . S
C884 C890 1.379 . S
C884 N892 1.356 . S
C885 C884 1.363 . S
C885 C891 1.363 1_545 S
C886 C887 1.363 . S
C886 C891 1.379 1_545 S
C886 N893 1.356 1_545 S
C887 C886 1.363 . S
C887 C890 1.363 . S
N888 C890 1.356 . S
N888 H900 0.984 . S
N888 H901 0.985 . S
N889 C891 1.356 . S
N889 H894 0.984 . S
N889 H895 0.985 . S
C890 C884 1.379 . S
C890 C887 1.363 . S
C890 N888 1.356 . S
C891 C885 1.363 1_565 S
C891 C886 1.379 1_565 S
C891 N889 1.356 . S
N892 C884 1.356 . S
N892 H898 0.984 . S
N892 H899 0.984 . S
N893 C886 1.356 1_565 S
N893 H896 0.984 1_565 S
N893 H897 0.985 . S
H894 N889 0.984 . S
H895 N889 0.985 . S
H896 N893 0.984 1_545 S
H897 N893 0.985 . S
H898 N892 0.984 . S
H899 N892 0.984 . S
H900 N888 0.984 . S
H901 N888 0.985 . S
C902 C903 1.363 . S
C902 C908 1.379 . S
C902 N910 1.356 . S
C903 C902 1.363 . S
C903 C909 1.363 . S
C904 C905 1.363 . S
C904 C909 1.379 . S
C904 N911 1.356 . S
C905 C904 1.363 . S
C905 C908 1.363 . S
N906 C908 1.356 . S
N906 H918 0.984 . S
N906 H919 0.985 . S
N907 C909 1.356 . S
N907 H912 0.984 . S
N907 H913 0.985 . S
C908 C902 1.379 . S
C908 C905 1.363 . S
C908 N906 1.356 . S
C909 C903 1.363 . S
C909 C904 1.379 . S
C909 N907 1.356 . S
N910 C902 1.356 . S
N910 H916 0.984 . S
N910 H917 0.984 . S
N911 C904 1.356 . S
N911 H914 0.984 . S
N911 H915 0.985 . S
H912 N907 0.984 . S
H913 N907 0.985 . S
H914 N911 0.984 . S
H915 N911 0.985 . S
H916 N910 0.984 . S
H917 N910 0.984 . S
H918 N906 0.984 . S
H919 N906 0.985 . S
C920 C921 1.363 . S
C920 C926 1.379 1_565 S
C920 N928 1.356 . S
C921 C920 1.363 . S
C921 C927 1.363 . S
C922 C923 1.363 . S
C922 C927 1.379 . S
C922 N929 1.356 . S
C923 C922 1.363 . S
C923 C926 1.363 1_565 S
N924 C926 1.356 . S
N924 H936 0.984 . S
N924 H937 0.985 . S
N925 C927 1.356 . S
N925 H930 0.984 . S
N925 H931 0.985 . S
C926 C920 1.379 1_545 S
C926 C923 1.363 1_545 S
C926 N924 1.356 . S
C927 C921 1.363 . S
C927 C922 1.379 . S
C927 N925 1.356 . S
N928 C920 1.356 . S
N928 H934 0.984 . S
N928 H935 0.984 . S
N929 C922 1.356 . S
N929 H932 0.984 . S
N929 H933 0.985 . S
H930 N925 0.984 . S
H931 N925 0.985 . S
H932 N929 0.984 . S
H933 N929 0.985 . S
H934 N928 0.984 . S
H935 N928 0.984 . S
H936 N924 0.984 . S
H937 N924 0.985 . S
C938 C939 1.363 . S
C938 C944 1.379 . S
C938 N946 1.356 . S
C939 C938 1.363 . S
C939 C945 1.363 1_556 S
C940 C941 1.363 1_554 S
C940 C945 1.379 . S
C940 N947 1.356 . S
C941 C940 1.363 1_556 S
C941 C944 1.363 . S
N942 C944 1.356 . S
N942 H954 0.984 . S
N942 H955 0.985 . S
N943 C945 1.356 . S
N943 H948 0.984 . S
N943 H949 0.985 . S
C944 C938 1.379 . S
C944 C941 1.363 . S
C944 N942 1.356 . S
C945 C939 1.363 1_554 S
C945 C940 1.379 . S
C945 N943 1.356 . S
N946 C938 1.356 . S
N946 H952 0.984 . S
N946 H953 0.984 . S
N947 C940 1.356 . S
N947 H950 0.984 . S
N947 H951 0.985 . S
H948 N943 0.984 . S
H949 N943 0.985 . S
H950 N947 0.984 . S
H951 N947 0.985 . S
H952 N946 0.984 . S
H953 N946 0.984 . S
H954 N942 0.984 . S
H955 N942 0.985 . S
C956 C957 1.363 . S
C956 C962 1.379 . S
C956 N964 1.356 . S
C957 C956 1.363 . S
C957 C963 1.363 . S
C958 C959 1.363 . S
C958 C963 1.379 . S
C958 N965 1.356 . S
C959 C958 1.363 . S
C959 C962 1.363 . S
N960 C962 1.356 . S
N960 H972 0.984 . S
N960 H973 0.985 . S
N961 C963 1.356 . S
N961 H966 0.984 . S
N961 H967 0.985 . S
C962 C956 1.379 . S
C962 C959 1.363 . S
C962 N960 1.356 . S
C963 C957 1.363 . S
C963 C958 1.379 . S
C963 N961 1.356 . S
N964 C956 1.356 . S
N964 H970 0.984 . S
N964 H971 0.984 . S
N965 C958 1.356 . S
N965 H968 0.984 . S
N965 H969 0.985 . S
H966 N961 0.984 . S
H967 N961 0.985 . S
H968 N965 0.984 . S
H969 N965 0.985 . S
H970 N964 0.984 . S
H971 N964 0.984 . S
H972 N960 0.984 . S
H973 N960 0.985 . S
C974 C975 1.363 . S
C974 C980 1.379 . S
C974 N982 1.356 . S
C975 C974 1.363 . S
C975 C981 1.363 . S
C976 C977 1.363 . S
C976 C981 1.379 . S
C976 N983 1.356 . S
C977 C976 1.363 . S
C977 C980 1.363 . S
N978 C980 1.356 . S
N978 H990 0.984 . S
N978 H991 0.985 . S
N979 C981 1.356 . S
N979 H984 0.984 . S
N979 H985 0.985 . S
C980 C974 1.379 . S
C980 C977 1.363 . S
C980 N978 1.356 . S
C981 C975 1.363 . S
C981 C976 1.379 . S
C981 N979 1.356 . S
N982 C974 1.356 . S
N982 H988 0.984 . S
N982 H989 0.984 . S
N983 C976 1.356 . S
N983 H986 0.984 . S
N983 H987 0.985 . S
H984 N979 0.984 . S
H985 N979 0.985 . S
H986 N983 0.984 . S
H987 N983 0.985 . S
H988 N982 0.984 . S
H989 N982 0.984 . S
H990 N978 0.984 . S
H991 N978 0.985 . S
C992 C993 1.363 . S
C992 C998 1.379 . S
C992 N1000 1.356 . S
C993 C992 1.363 . S
C993 C999 1.363 . S
C994 C995 1.363 . S
C994 C999 1.379 . S
C994 N1001 1.356 . S
C995 C994 1.363 . S
C995 C998 1.363 . S
N996 C998 1.356 . S
N996 H1008 0.984 . S
N996 H1009 0.985 . S
N997 C999 1.356 . S
N997 H1002 0.984 . S
N997 H1003 0.985 . S
C998 C992 1.379 . S
C998 C995 1.363 . S
C998 N996 1.356 . S
C999 C993 1.363 . S
C999 C994 1.379 . S
C999 N997 1.356 . S
N1000 C992 1.356 . S
N1000 H1006 0.984 . S
N1000 H1007 0.984 . S
N1001 C994 1.356 . S
N1001 H1004 0.984 . S
N1001 H1005 0.985 . S
H1002 N997 0.984 . S
H1003 N997 0.985 . S
H1004 N1001 0.984 . S
H1005 N1001 0.985 . S
H1006 N1000 0.984 . S
H1007 N1000 0.984 . S
H1008 N996 0.984 . S
H1009 N996 0.985 . S
C1010 C1011 1.363 . S
C1010 C1016 1.379 . S
C1010 N1018 1.356 . S
C1011 C1010 1.363 . S
C1011 C1017 1.363 . S
C1012 C1013 1.363 . S
C1012 C1017 1.379 . S
C1012 N1019 1.356 . S
C1013 C1012 1.363 . S
C1013 C1016 1.363 . S
N1014 C1016 1.356 . S
N1014 H1026 0.984 . S
N1014 H1027 0.985 . S
N1015 C1017 1.356 . S
N1015 H1020 0.984 . S
N1015 H1021 0.985 . S
C1016 C1010 1.379 . S
C1016 C1013 1.363 . S
C1016 N1014 1.356 . S
C1017 C1011 1.363 . S
C1017 C1012 1.379 . S
C1017 N1015 1.356 . S
N1018 C1010 1.356 . S
N1018 H1024 0.984 . S
N1018 H1025 0.984 . S
N1019 C1012 1.356 . S
N1019 H1022 0.984 . S
N1019 H1023 0.985 . S
H1020 N1015 0.984 . S
H1021 N1015 0.985 . S
H1022 N1019 0.984 . S
H1023 N1019 0.985 . S
H1024 N1018 0.984 . S
H1025 N1018 0.984 . S
H1026 N1014 0.984 . S
H1027 N1014 0.985 . S
C1028 C1029 1.363 . S
C1028 C1034 1.379 . S
C1028 N1036 1.356 . S
C1029 C1028 1.363 . S
C1029 C1035 1.363 . S
C1030 C1031 1.363 . S
C1030 C1035 1.379 . S
C1030 N1037 1.356 . S
C1031 C1030 1.363 . S
C1031 C1034 1.363 . S
N1032 C1034 1.356 . S
N1032 H1044 0.984 . S
N1032 H1045 0.985 . S
N1033 C1035 1.356 . S
N1033 H1038 0.984 . S
N1033 H1039 0.985 . S
C1034 C1028 1.379 . S
C1034 C1031 1.363 . S
C1034 N1032 1.356 . S
C1035 C1029 1.363 . S
C1035 C1030 1.379 . S
C1035 N1033 1.356 . S
N1036 C1028 1.356 . S
N1036 H1042 0.984 . S
N1036 H1043 0.984 . S
N1037 C1030 1.356 . S
N1037 H1040 0.984 . S
N1037 H1041 0.985 . S
H1038 N1033 0.984 . S
H1039 N1033 0.985 . S
H1040 N1037 0.984 . S
H1041 N1037 0.985 . S
H1042 N1036 0.984 . S
H1043 N1036 0.984 . S
H1044 N1032 0.984 . S
H1045 N1032 0.985 . S
C1046 C1047 1.363 . S
C1046 C1052 1.379 . S
C1046 N1054 1.356 . S
C1047 C1046 1.363 . S
C1047 C1053 1.363 . S
C1048 C1049 1.363 . S
C1048 C1053 1.379 . S
C1048 N1055 1.356 . S
C1049 C1048 1.363 . S
C1049 C1052 1.363 . S
N1050 C1052 1.356 . S
N1050 H1062 0.984 . S
N1050 H1063 0.985 . S
N1051 C1053 1.356 . S
N1051 H1056 0.984 . S
N1051 H1057 0.985 . S
C1052 C1046 1.379 . S
C1052 C1049 1.363 . S
C1052 N1050 1.356 . S
C1053 C1047 1.363 . S
C1053 C1048 1.379 . S
C1053 N1051 1.356 . S
N1054 C1046 1.356 . S
N1054 H1060 0.984 . S
N1054 H1061 0.984 . S
N1055 C1048 1.356 . S
N1055 H1058 0.984 . S
N1055 H1059 0.985 . S
H1056 N1051 0.984 . S
H1057 N1051 0.985 . S
H1058 N1055 0.984 . S
H1059 N1055 0.985 . S
H1060 N1054 0.984 . S
H1061 N1054 0.984 . S
H1062 N1050 0.984 . S
H1063 N1050 0.985 . S
C1064 C1065 1.363 . S
C1064 C1070 1.379 . S
C1064 N1072 1.356 . S
C1065 C1064 1.363 . S
C1065 C1071 1.363 . S
C1066 C1067 1.363 . S
C1066 C1071 1.379 . S
C1066 N1073 1.356 . S
C1067 C1066 1.363 . S
C1067 C1070 1.363 . S
N1068 C1070 1.356 . S
N1068 H1080 0.984 . S
N1068 H1081 0.985 . S
N1069 C1071 1.356 . S
N1069 H1074 0.984 . S
N1069 H1075 0.985 . S
C1070 C1064 1.379 . S
C1070 C1067 1.363 . S
C1070 N1068 1.356 . S
C1071 C1065 1.363 . S
C1071 C1066 1.379 . S
C1071 N1069 1.356 . S
N1072 C1064 1.356 . S
N1072 H1078 0.984 . S
N1072 H1079 0.984 . S
N1073 C1066 1.356 . S
N1073 H1076 0.984 . S
N1073 H1077 0.985 . S
H1074 N1069 0.984 . S
H1075 N1069 0.985 . S
H1076 N1073 0.984 . S
H1077 N1073 0.985 . S
H1078 N1072 0.984 . S
H1079 N1072 0.984 . S
H1080 N1068 0.984 . S
H1081 N1068 0.985 . S
C1082 C1083 1.363 . S
C1082 C1088 1.379 . S
C1082 N1090 1.356 . S
C1083 C1082 1.363 . S
C1083 C1089 1.363 . S
C1084 C1085 1.363 . S
C1084 C1089 1.379 . S
C1084 N1091 1.356 . S
C1085 C1084 1.363 . S
C1085 C1088 1.363 . S
N1086 C1088 1.356 . S
N1086 H1098 0.984 . S
N1086 H1099 0.985 . S
N1087 C1089 1.356 . S
N1087 H1092 0.984 . S
N1087 H1093 0.985 . S
C1088 C1082 1.379 . S
C1088 C1085 1.363 . S
C1088 N1086 1.356 . S
C1089 C1083 1.363 . S
C1089 C1084 1.379 . S
C1089 N1087 1.356 . S
N1090 C1082 1.356 . S
N1090 H1096 0.984 . S
N1090 H1097 0.984 . S
N1091 C1084 1.356 . S
N1091 H1094 0.984 . S
N1091 H1095 0.985 . S
H1092 N1087 0.984 . S
H1093 N1087 0.985 . S
H1094 N1091 0.984 . S
H1095 N1091 0.985 . S
H1096 N1090 0.984 . S
H1097 N1090 0.984 . S
H1098 N1086 0.984 . S
H1099 N1086 0.985 . S
C1100 C1101 1.363 . S
C1100 C1106 1.379 . S
C1100 N1108 1.356 . S
C1101 C1100 1.363 . S
C1101 C1107 1.363 . S
C1102 C1103 1.363 . S
C1102 C1107 1.379 . S
C1102 N1109 1.356 . S
C1103 C1102 1.363 . S
C1103 C1106 1.363 . S
N1104 C1106 1.356 . S
N1104 H1116 0.984 . S
N1104 H1117 0.985 . S
N1105 C1107 1.356 . S
N1105 H1110 0.984 . S
N1105 H1111 0.985 . S
C1106 C1100 1.379 . S
C1106 C1103 1.363 . S
C1106 N1104 1.356 . S
C1107 C1101 1.363 . S
C1107 C1102 1.379 . S
C1107 N1105 1.356 . S
N1108 C1100 1.356 . S
N1108 H1114 0.984 . S
N1108 H1115 0.984 . S
N1109 C1102 1.356 . S
N1109 H1112 0.984 . S
N1109 H1113 0.985 . S
H1110 N1105 0.984 . S
H1111 N1105 0.985 . S
H1112 N1109 0.984 . S
H1113 N1109 0.985 . S
H1114 N1108 0.984 . S
H1115 N1108 0.984 . S
H1116 N1104 0.984 . S
H1117 N1104 0.985 . S
C1118 C1119 1.363 . S
C1118 C1124 1.379 . S
C1118 N1126 1.356 . S
C1119 C1118 1.363 . S
C1119 C1125 1.363 . S
C1120 C1121 1.363 . S
C1120 C1125 1.379 . S
C1120 N1127 1.356 . S
C1121 C1120 1.363 . S
C1121 C1124 1.363 . S
N1122 C1124 1.356 . S
N1122 H1134 0.984 . S
N1122 H1135 0.985 . S
N1123 C1125 1.356 . S
N1123 H1128 0.984 . S
N1123 H1129 0.985 . S
C1124 C1118 1.379 . S
C1124 C1121 1.363 . S
C1124 N1122 1.356 . S
C1125 C1119 1.363 . S
C1125 C1120 1.379 . S
C1125 N1123 1.356 . S
N1126 C1118 1.356 . S
N1126 H1132 0.984 . S
N1126 H1133 0.984 . S
N1127 C1120 1.356 . S
N1127 H1130 0.984 . S
N1127 H1131 0.985 . S
H1128 N1123 0.984 . S
H1129 N1123 0.985 . S
H1130 N1127 0.984 . S
H1131 N1127 0.985 . S
H1132 N1126 0.984 . S
H1133 N1126 0.984 . S
H1134 N1122 0.984 . S
H1135 N1122 0.985 . S
C1136 C1137 1.363 . S
C1136 C1142 1.379 . S
C1136 N1144 1.356 . S
C1137 C1136 1.363 . S
C1137 C1143 1.363 1_455 S
C1138 C1139 1.363 1_655 S
C1138 C1143 1.379 . S
C1138 N1145 1.356 . S
C1139 C1138 1.363 1_455 S
C1139 C1142 1.363 . S
N1140 C1142 1.356 . S
N1140 H1152 0.984 . S
N1140 H1153 0.985 . S
N1141 C1143 1.356 . S
N1141 H1146 0.984 . S
N1141 H1147 0.985 . S
C1142 C1136 1.379 . S
C1142 C1139 1.363 . S
C1142 N1140 1.356 . S
C1143 C1137 1.363 1_655 S
C1143 C1138 1.379 . S
C1143 N1141 1.356 . S
N1144 C1136 1.356 . S
N1144 H1150 0.984 . S
N1144 H1151 0.984 . S
N1145 C1138 1.356 . S
N1145 H1148 0.984 . S
N1145 H1149 0.985 . S
H1146 N1141 0.984 . S
H1147 N1141 0.985 . S
H1148 N1145 0.984 . S
H1149 N1145 0.985 . S
H1150 N1144 0.984 . S
H1151 N1144 0.984 . S
H1152 N1140 0.984 . S
H1153 N1140 0.985 . S
C1154 C1155 1.363 . S
C1154 C1160 1.379 . S
C1154 N1162 1.356 . S
C1155 C1154 1.363 . S
C1155 C1161 1.363 . S
C1156 C1157 1.363 . S
C1156 C1161 1.379 . S
C1156 N1163 1.356 . S
C1157 C1156 1.363 . S
C1157 C1160 1.363 . S
N1158 C1160 1.356 . S
N1158 H1170 0.984 . S
N1158 H1171 0.985 . S
N1159 C1161 1.356 . S
N1159 H1164 0.984 . S
N1159 H1165 0.985 . S
C1160 C1154 1.379 . S
C1160 C1157 1.363 . S
C1160 N1158 1.356 . S
C1161 C1155 1.363 . S
C1161 C1156 1.379 . S
C1161 N1159 1.356 . S
N1162 C1154 1.356 . S
N1162 H1168 0.984 . S
N1162 H1169 0.984 . S
N1163 C1156 1.356 . S
N1163 H1166 0.984 . S
N1163 H1167 0.985 . S
H1164 N1159 0.984 . S
H1165 N1159 0.985 . S
H1166 N1163 0.984 . S
H1167 N1163 0.985 . S
H1168 N1162 0.984 . S
H1169 N1162 0.984 . S
H1170 N1158 0.984 . S
H1171 N1158 0.985 . S
C1172 C1173 1.363 . S
C1172 C1178 1.379 . S
C1172 N1180 1.356 . S
C1173 C1172 1.363 . S
C1173 C1179 1.363 . S
C1174 C1175 1.363 . S
C1174 C1179 1.379 . S
C1174 N1181 1.356 . S
C1175 C1174 1.363 . S
C1175 C1178 1.363 . S
N1176 C1178 1.356 1_554 S
N1176 H1188 0.984 . S
N1176 H1189 0.985 . S
N1177 C1179 1.356 . S
N1177 H1182 0.984 . S
N1177 H1183 0.985 . S
C1178 C1172 1.379 . S
C1178 C1175 1.363 . S
C1178 N1176 1.356 1_556 S
C1179 C1173 1.363 . S
C1179 C1174 1.379 . S
C1179 N1177 1.356 . S
N1180 C1172 1.356 . S
N1180 H1186 0.984 . S
N1180 H1187 0.984 . S
N1181 C1174 1.356 . S
N1181 H1184 0.984 . S
N1181 H1185 0.985 . S
H1182 N1177 0.984 . S
H1183 N1177 0.985 . S
H1184 N1181 0.984 . S
H1185 N1181 0.985 . S
H1186 N1180 0.984 . S
H1187 N1180 0.984 . S
H1188 N1176 0.984 . S
H1189 N1176 0.985 . S
C1190 C1191 1.363 . S
C1190 C1196 1.379 . S
C1190 N1198 1.356 . S
C1191 C1190 1.363 . S
C1191 C1197 1.363 . S
C1192 C1193 1.363 . S
C1192 C1197 1.379 . S
C1192 N1199 1.356 . S
C1193 C1192 1.363 . S
C1193 C1196 1.363 . S
N1194 C1196 1.356 . S
N1194 H1206 0.984 . S
N1194 H1207 0.985 . S
N1195 C1197 1.356 . S
N1195 H1200 0.984 . S
N1195 H1201 0.985 . S
C1196 C1190 1.379 . S
C1196 C1193 1.363 . S
C1196 N1194 1.356 . S
C1197 C1191 1.363 . S
C1197 C1192 1.379 . S
C1197 N1195 1.356 . S
N1198 C1190 1.356 . S
N1198 H1204 0.984 . S
N1198 H1205 0.984 . S
N1199 C1192 1.356 . S
N1199 H1202 0.984 . S
N1199 H1203 0.985 . S
H1200 N1195 0.984 . S
H1201 N1195 0.985 . S
H1202 N1199 0.984 . S
H1203 N1199 0.985 . S
H1204 N1198 0.984 . S
H1205 N1198 0.984 . S
H1206 N1194 0.984 . S
H1207 N1194 0.985 . S
C1208 C1209 1.363 . S
C1208 C1214 1.379 . S
C1208 N1216 1.356 . S
C1209 C1208 1.363 . S
C1209 C1215 1.363 1_545 S
C1210 C1211 1.363 . S
C1210 C1215 1.379 1_545 S
C1210 N1217 1.356 1_545 S
C1211 C1210 1.363 . S
C1211 C1214 1.363 . S
N1212 C1214 1.356 . S
N1212 H1224 0.984 . S
N1212 H1225 0.985 . S
N1213 C1215 1.356 . S
N1213 H1218 0.984 . S
N1213 H1219 0.985 . S
C1214 C1208 1.379 . S
C1214 C1211 1.363 . S
C1214 N1212 1.356 . S
C1215 C1209 1.363 1_565 S
C1215 C1210 1.379 1_565 S
C1215 N1213 1.356 . S
N1216 C1208 1.356 . S
N1216 H1222 0.984 . S
N1216 H1223 0.984 . S
N1217 C1210 1.356 1_565 S
N1217 H1220 0.984 . S
N1217 H1221 0.985 . S
H1218 N1213 0.984 . S
H1219 N1213 0.985 . S
H1220 N1217 0.984 . S
H1221 N1217 0.985 . S
H1222 N1216 0.984 . S
H1223 N1216 0.984 . S
H1224 N1212 0.984 . S
H1225 N1212 0.985 . S
C1226 C1227 1.363 . S
C1226 C1232 1.379 . S
C1226 N1234 1.356 . S
C1227 C1226 1.363 . S
C1227 C1233 1.363 . S
C1228 C1229 1.363 . S
C1228 C1233 1.379 . S
C1228 N1235 1.356 . S
C1229 C1228 1.363 . S
C1229 C1232 1.363 . S
N1230 C1232 1.356 . S
N1230 H1242 0.984 . S
N1230 H1243 0.985 . S
N1231 C1233 1.356 . S
N1231 H1236 0.984 . S
N1231 H1237 0.985 . S
C1232 C1226 1.379 . S
C1232 C1229 1.363 . S
C1232 N1230 1.356 . S
C1233 C1227 1.363 . S
C1233 C1228 1.379 . S
C1233 N1231 1.356 . S
N1234 C1226 1.356 . S
N1234 H1240 0.984 . S
N1234 H1241 0.984 . S
N1235 C1228 1.356 . S
N1235 H1238 0.984 . S
N1235 H1239 0.985 . S
H1236 N1231 0.984 . S
H1237 N1231 0.985 . S
H1238 N1235 0.984 . S
H1239 N1235 0.985 . S
H1240 N1234 0.984 . S
H1241 N1234 0.984 . S
H1242 N1230 0.984 . S
H1243 N1230 0.985 . S
C1244 C1245 1.363 . S
C1244 C1250 1.379 . S
C1244 N1252 1.356 1_545 S
C1245 C1244 1.363 . S
C1245 C1251 1.363 . S
C1246 C1247 1.363 . S
C1246 C1251 1.379 . S
C1246 N1253 1.356 . S
C1247 C1246 1.363 . S
C1247 C1250 1.363 . S
N1248 C1250 1.356 1_565 S
N1248 H1260 0.984 . S
N1248 H1261 0.985 . S
N1249 C1251 1.356 . S
N1249 H1254 0.984 . S
N1249 H1255 0.985 . S
C1250 C1244 1.379 . S
C1250 C1247 1.363 . S
C1250 N1248 1.356 1_545 S
C1251 C1245 1.363 . S
C1251 C1246 1.379 . S
C1251 N1249 1.356 . S
N1252 C1244 1.356 1_565 S
N1252 H1258 0.984 . S
N1252 H1259 0.984 1_565 S
N1253 C1246 1.356 . S
N1253 H1256 0.984 . S
N1253 H1257 0.985 . S
H1254 N1249 0.984 . S
H1255 N1249 0.985 . S
H1256 N1253 0.984 . S
H1257 N1253 0.985 . S
H1258 N1252 0.984 . S
H1259 N1252 0.984 1_545 S
H1260 N1248 0.984 . S
H1261 N1248 0.985 . S
C1262 C1263 1.363 . S
C1262 C1268 1.379 . S
C1262 N1270 1.356 . S
C1263 C1262 1.363 . S
C1263 C1269 1.363 . S
C1264 C1265 1.363 . S
C1264 C1269 1.379 . S
C1264 N1271 1.356 . S
C1265 C1264 1.363 . S
C1265 C1268 1.363 . S
N1266 C1268 1.356 . S
N1266 H1278 0.984 . S
N1266 H1279 0.985 . S
N1267 C1269 1.356 . S
N1267 H1272 0.984 . S
N1267 H1273 0.985 . S
C1268 C1262 1.379 . S
C1268 C1265 1.363 . S
C1268 N1266 1.356 . S
C1269 C1263 1.363 . S
C1269 C1264 1.379 . S
C1269 N1267 1.356 . S
N1270 C1262 1.356 . S
N1270 H1276 0.984 . S
N1270 H1277 0.984 . S
N1271 C1264 1.356 . S
N1271 H1274 0.984 . S
N1271 H1275 0.985 . S
H1272 N1267 0.984 . S
H1273 N1267 0.985 . S
H1274 N1271 0.984 . S
H1275 N1271 0.985 . S
H1276 N1270 0.984 . S
H1277 N1270 0.984 . S
H1278 N1266 0.984 . S
H1279 N1266 0.985 . S
C1280 C1281 1.363 1_545 S
C1280 C1286 1.379 . S
C1280 N1288 1.356 . S
C1281 C1280 1.363 1_565 S
C1281 C1287 1.363 . S
C1282 C1283 1.346 1_565 S
C1282 C1287 1.379 . S
C1282 N1289 1.356 . S
C1283 C1282 1.346 1_545 S
C1283 C1286 1.373 . S
N1284 C1286 1.356 . S
N1284 H1296 0.984 . S
N1284 H1297 0.985 . S
N1285 C1287 1.356 . S
N1285 H1290 0.984 . S
N1285 H1291 0.985 . S
C1286 C1280 1.379 . S
C1286 C1283 1.373 . S
C1286 N1284 1.356 . S
C1287 C1281 1.363 . S
C1287 C1282 1.379 . S
C1287 N1285 1.356 . S
N1288 C1280 1.356 . S
N1288 H1294 0.984 . S
N1288 H1295 0.984 . S
N1289 C1282 1.356 . S
N1289 H1292 0.984 . S
N1289 H1293 0.985 . S
H1290 N1285 0.984 . S
H1291 N1285 0.985 . S
H1292 N1289 0.984 . S
H1293 N1289 0.985 . S
H1294 N1288 0.984 . S
H1295 N1288 0.984 . S
H1296 N1284 0.984 . S
H1297 N1284 0.985 . S
C1298 C1299 1.363 . S
C1298 C1304 1.379 . S
C1298 N1306 1.356 . S
C1299 C1298 1.363 . S
C1299 C1305 1.363 . S
C1300 C1301 1.363 . S
C1300 C1305 1.379 . S
C1300 N1307 1.356 . S
C1301 C1300 1.363 . S
C1301 C1304 1.363 . S
N1302 C1304 1.356 . S
N1302 H1314 0.984 . S
N1302 H1315 0.985 . S
N1303 C1305 1.356 . S
N1303 H1308 0.984 . S
N1303 H1309 0.985 . S
C1304 C1298 1.379 . S
C1304 C1301 1.363 . S
C1304 N1302 1.356 . S
C1305 C1299 1.363 . S
C1305 C1300 1.379 . S
C1305 N1303 1.356 . S
N1306 C1298 1.356 . S
N1306 H1312 0.984 . S
N1306 H1313 0.984 . S
N1307 C1300 1.356 . S
N1307 H1310 0.984 . S
N1307 H1311 0.985 . S
H1308 N1303 0.984 . S
H1309 N1303 0.985 . S
H1310 N1307 0.984 . S
H1311 N1307 0.985 . S
H1312 N1306 0.984 . S
H1313 N1306 0.984 . S
H1314 N1302 0.984 . S
H1315 N1302 0.985 . S
C1316 C1317 1.363 . S
C1316 C1322 1.379 . S
C1316 N1324 1.356 . S
C1317 C1316 1.363 . S
C1317 C1323 1.363 . S
C1318 C1319 1.363 . S
C1318 C1323 1.379 . S
C1318 N1325 1.356 . S
C1319 C1318 1.363 . S
C1319 C1322 1.363 . S
N1320 C1322 1.356 1_565 S
N1320 H1332 0.984 . S
N1320 H1333 0.985 . S
N1321 C1323 1.356 . S
N1321 H1326 0.984 . S
N1321 H1327 0.985 . S
C1322 C1316 1.379 . S
C1322 C1319 1.363 . S
C1322 N1320 1.356 1_545 S
C1323 C1317 1.363 . S
C1323 C1318 1.379 . S
C1323 N1321 1.356 . S
N1324 C1316 1.356 . S
N1324 H1330 0.984 1_545 S
N1324 H1331 0.984 . S
N1325 C1318 1.356 . S
N1325 H1328 0.984 . S
N1325 H1329 0.985 . S
H1326 N1321 0.984 . S
H1327 N1321 0.985 . S
H1328 N1325 0.984 . S
H1329 N1325 0.985 . S
H1330 N1324 0.984 1_565 S
H1331 N1324 0.984 . S
H1332 N1320 0.984 . S
H1333 N1320 0.985 . S
C1334 C1335 1.363 . S
C1334 C1340 1.379 . S
C1334 N1342 1.356 . S
C1335 C1334 1.363 . S
C1335 C1341 1.363 . S
C1336 C1337 1.363 . S
C1336 C1341 1.379 . S
C1336 N1343 1.356 . S
C1337 C1336 1.363 . S
C1337 C1340 1.363 . S
N1338 C1340 1.356 . S
N1338 H1350 0.984 . S
N1338 H1351 0.985 . S
N1339 C1341 1.356 . S
N1339 H1344 0.984 . S
N1339 H1345 0.985 . S
C1340 C1334 1.379 . S
C1340 C1337 1.363 . S
C1340 N1338 1.356 . S
C1341 C1335 1.363 . S
C1341 C1336 1.379 . S
C1341 N1339 1.356 . S
N1342 C1334 1.356 . S
N1342 H1348 0.984 . S
N1342 H1349 0.984 . S
N1343 C1336 1.356 . S
N1343 H1346 0.984 . S
N1343 H1347 0.985 . S
H1344 N1339 0.984 . S
H1345 N1339 0.985 . S
H1346 N1343 0.984 . S
H1347 N1343 0.985 . S
H1348 N1342 0.984 . S
H1349 N1342 0.984 . S
H1350 N1338 0.984 . S
H1351 N1338 0.985 . S
C1352 C1353 1.363 . S
C1352 C1358 1.379 . S
C1352 N1360 1.356 . S
C1353 C1352 1.363 . S
C1353 C1359 1.363 1_554 S
C1354 C1355 1.363 1_556 S
C1354 C1359 1.379 . S
C1354 N1361 1.356 . S
C1355 C1354 1.363 1_554 S
C1355 C1358 1.363 . S
N1356 C1358 1.356 . S
N1356 H1368 0.984 . S
N1356 H1369 0.985 . S
N1357 C1359 1.356 . S
N1357 H1362 0.984 . S
N1357 H1363 0.985 . S
C1358 C1352 1.379 . S
C1358 C1355 1.363 . S
C1358 N1356 1.356 . S
C1359 C1353 1.363 1_556 S
C1359 C1354 1.379 . S
C1359 N1357 1.356 . S
N1360 C1352 1.356 . S
N1360 H1366 0.984 . S
N1360 H1367 0.984 . S
N1361 C1354 1.356 . S
N1361 H1364 0.984 . S
N1361 H1365 0.985 . S
H1362 N1357 0.984 . S
H1363 N1357 0.985 . S
H1364 N1361 0.984 . S
H1365 N1361 0.985 . S
H1366 N1360 0.984 . S
H1367 N1360 0.984 . S
H1368 N1356 0.984 . S
H1369 N1356 0.985 . S
C1370 C1371 1.363 . S
C1370 C1376 1.379 . S
C1370 N1378 1.356 . S
C1371 C1370 1.363 . S
C1371 C1377 1.363 . S
C1372 C1373 1.363 . S
C1372 C1377 1.379 . S
C1372 N1379 1.356 . S
C1373 C1372 1.363 . S
C1373 C1376 1.363 . S
N1374 C1376 1.356 . S
N1374 H1386 0.984 . S
N1374 H1387 0.985 . S
N1375 C1377 1.356 . S
N1375 H1380 0.984 . S
N1375 H1381 0.985 . S
C1376 C1370 1.379 . S
C1376 C1373 1.363 . S
C1376 N1374 1.356 . S
C1377 C1371 1.363 . S
C1377 C1372 1.379 . S
C1377 N1375 1.356 . S
N1378 C1370 1.356 . S
N1378 H1384 0.984 . S
N1378 H1385 0.984 . S
N1379 C1372 1.356 . S
N1379 H1382 0.984 . S
N1379 H1383 0.985 . S
H1380 N1375 0.984 . S
H1381 N1375 0.985 . S
H1382 N1379 0.984 . S
H1383 N1379 0.985 . S
H1384 N1378 0.984 . S
H1385 N1378 0.984 . S
H1386 N1374 0.984 . S
H1387 N1374 0.985 . S
C1388 C1389 1.363 . S
C1388 C1394 1.379 . S
C1388 N1396 1.356 . S
C1389 C1388 1.363 . S
C1389 C1395 1.363 . S
C1390 C1391 1.363 . S
C1390 C1395 1.379 . S
C1390 N1397 1.356 . S
C1391 C1390 1.363 . S
C1391 C1394 1.363 . S
N1392 C1394 1.356 . S
N1392 H1404 0.984 . S
N1392 H1405 0.985 . S
N1393 C1395 1.356 . S
N1393 H1398 0.984 . S
N1393 H1399 0.985 . S
C1394 C1388 1.379 . S
C1394 C1391 1.363 . S
C1394 N1392 1.356 . S
C1395 C1389 1.363 . S
C1395 C1390 1.379 . S
C1395 N1393 1.356 . S
N1396 C1388 1.356 . S
N1396 H1402 0.984 . S
N1396 H1403 0.984 . S
N1397 C1390 1.356 . S
N1397 H1400 0.984 . S
N1397 H1401 0.985 . S
H1398 N1393 0.984 . S
H1399 N1393 0.985 . S
H1400 N1397 0.984 . S
H1401 N1397 0.985 . S
H1402 N1396 0.984 . S
H1403 N1396 0.984 . S
H1404 N1392 0.984 . S
H1405 N1392 0.985 . S
C1406 C1407 1.363 . S
C1406 C1412 1.379 . S
C1406 N1414 1.356 . S
C1407 C1406 1.363 . S
C1407 C1413 1.363 . S
C1408 C1409 1.363 . S
C1408 C1413 1.379 . S
C1408 N1415 1.356 . S
C1409 C1408 1.363 . S
C1409 C1412 1.363 . S
N1410 C1412 1.356 . S
N1410 H1422 0.984 . S
N1410 H1423 0.985 . S
N1411 C1413 1.356 . S
N1411 H1416 0.984 . S
N1411 H1417 0.985 . S
C1412 C1406 1.379 . S
C1412 C1409 1.363 . S
C1412 N1410 1.356 . S
C1413 C1407 1.363 . S
C1413 C1408 1.379 . S
C1413 N1411 1.356 . S
N1414 C1406 1.356 . S
N1414 H1420 0.984 . S
N1414 H1421 0.984 . S
N1415 C1408 1.356 . S
N1415 H1418 0.984 . S
N1415 H1419 0.985 . S
H1416 N1411 0.984 . S
H1417 N1411 0.985 . S
H1418 N1415 0.984 . S
H1419 N1415 0.985 . S
H1420 N1414 0.984 . S
H1421 N1414 0.984 . S
H1422 N1410 0.984 . S
H1423 N1410 0.985 . S
C1424 C1425 1.363 . S
C1424 C1430 1.379 . S
C1424 N1432 1.356 . S
C1425 C1424 1.363 . S
C1425 C1431 1.363 . S
C1426 C1427 1.363 . S
C1426 C1431 1.379 . S
C1426 N1433 1.356 . S
C1427 C1426 1.363 . S
C1427 C1430 1.363 . S
N1428 C1430 1.356 . S
N1428 H1440 0.984 . S
N1428 H1441 0.985 . S
N1429 C1431 1.356 . S
N1429 H1434 0.984 . S
N1429 H1435 0.985 . S
C1430 C1424 1.379 . S
C1430 C1427 1.363 . S
C1430 N1428 1.356 . S
C1431 C1425 1.363 . S
C1431 C1426 1.379 . S
C1431 N1429 1.356 . S
N1432 C1424 1.356 . S
N1432 H1438 0.984 . S
N1432 H1439 0.984 . S
N1433 C1426 1.356 . S
N1433 H1436 0.984 . S
N1433 H1437 0.985 . S
H1434 N1429 0.984 . S
H1435 N1429 0.985 . S
H1436 N1433 0.984 . S
H1437 N1433 0.985 . S
H1438 N1432 0.984 . S
H1439 N1432 0.984 . S
H1440 N1428 0.984 . S
H1441 N1428 0.985 . S
C1442 C1443 1.363 . S
C1442 C1448 1.379 . S
C1442 N1450 1.356 . S
C1443 C1442 1.363 . S
C1443 C1449 1.363 . S
C1444 C1445 1.363 . S
C1444 C1449 1.379 . S
C1444 N1451 1.356 . S
C1445 C1444 1.363 . S
C1445 C1448 1.363 . S
N1446 C1448 1.356 1_545 S
N1446 H1458 0.984 . S
N1446 H1459 0.985 . S
N1447 C1449 1.356 . S
N1447 H1452 0.984 . S
N1447 H1453 0.985 . S
C1448 C1442 1.379 . S
C1448 C1445 1.363 . S
C1448 N1446 1.356 1_565 S
C1449 C1443 1.363 . S
C1449 C1444 1.379 . S
C1449 N1447 1.356 . S
N1450 C1442 1.356 . S
N1450 H1456 0.984 . S
N1450 H1457 0.984 . S
N1451 C1444 1.356 . S
N1451 H1454 0.984 . S
N1451 H1455 0.985 . S
H1452 N1447 0.984 . S
H1453 N1447 0.985 . S
H1454 N1451 0.984 . S
H1455 N1451 0.985 . S
H1456 N1450 0.984 . S
H1457 N1450 0.984 . S
H1458 N1446 0.984 . S
H1459 N1446 0.985 . S
C1460 C1461 1.363 . S
C1460 C1466 1.379 . S
C1460 N1468 1.356 . S
C1461 C1460 1.363 . S
C1461 C1467 1.363 . S
C1462 C1463 1.363 . S
C1462 C1467 1.379 . S
C1462 N1469 1.356 . S
C1463 C1462 1.363 . S
C1463 C1466 1.363 . S
N1464 C1466 1.356 . S
N1464 H1476 0.984 . S
N1464 H1477 0.985 . S
N1465 C1467 1.356 . S
N1465 H1470 0.984 . S
N1465 H1471 0.985 . S
C1466 C1460 1.379 . S
C1466 C1463 1.363 . S
C1466 N1464 1.356 . S
C1467 C1461 1.363 . S
C1467 C1462 1.379 . S
C1467 N1465 1.356 . S
N1468 C1460 1.356 . S
N1468 H1474 0.984 . S
N1468 H1475 0.984 . S
N1469 C1462 1.356 . S
N1469 H1472 0.984 . S
N1469 H1473 0.985 . S
H1470 N1465 0.984 . S
H1471 N1465 0.985 . S
H1472 N1469 0.984 . S
H1473 N1469 0.985 . S
H1474 N1468 0.984 . S
H1475 N1468 0.984 . S
H1476 N1464 0.984 . S
H1477 N1464 0.985 . S
C1478 C1479 1.363 . S
C1478 C1484 1.379 . S
C1478 N1486 1.356 . S
C1479 C1478 1.363 . S
C1479 C1485 1.363 . S
C1480 C1481 1.363 . S
C1480 C1485 1.379 . S
C1480 N1487 1.356 . S
C1481 C1480 1.363 . S
C1481 C1484 1.363 . S
N1482 C1484 1.356 . S
N1482 H1494 0.984 . S
N1482 H1495 0.985 . S
N1483 C1485 1.356 . S
N1483 H1488 0.984 . S
N1483 H1489 0.985 . S
C1484 C1478 1.379 . S
C1484 C1481 1.363 . S
C1484 N1482 1.356 . S
C1485 C1479 1.363 . S
C1485 C1480 1.379 . S
C1485 N1483 1.356 . S
N1486 C1478 1.356 . S
N1486 H1492 0.984 . S
N1486 H1493 0.984 . S
N1487 C1480 1.356 . S
N1487 H1490 0.984 . S
N1487 H1491 0.985 . S
H1488 N1483 0.984 . S
H1489 N1483 0.985 . S
H1490 N1487 0.984 . S
H1491 N1487 0.985 . S
H1492 N1486 0.984 . S
H1493 N1486 0.984 . S
H1494 N1482 0.984 . S
H1495 N1482 0.985 . S
C1496 C1497 1.363 . S
C1496 C1502 1.379 . S
C1496 N1504 1.356 . S
C1497 C1496 1.363 . S
C1497 C1503 1.363 . S
C1498 C1499 1.363 . S
C1498 C1503 1.379 . S
C1498 N1505 1.356 . S
C1499 C1498 1.363 . S
C1499 C1502 1.363 . S
N1500 C1502 1.356 . S
N1500 H1512 0.984 . S
N1500 H1513 0.985 . S
N1501 C1503 1.356 . S
N1501 H1506 0.984 . S
N1501 H1507 0.985 . S
C1502 C1496 1.379 . S
C1502 C1499 1.363 . S
C1502 N1500 1.356 . S
C1503 C1497 1.363 . S
C1503 C1498 1.379 . S
C1503 N1501 1.356 . S
N1504 C1496 1.356 . S
N1504 H1510 0.984 . S
N1504 H1511 0.984 . S
N1505 C1498 1.356 . S
N1505 H1508 0.984 . S
N1505 H1509 0.985 . S
H1506 N1501 0.984 . S
H1507 N1501 0.985 . S
H1508 N1505 0.984 . S
H1509 N1505 0.985 . S
H1510 N1504 0.984 . S
H1511 N1504 0.984 . S
H1512 N1500 0.984 . S
H1513 N1500 0.985 . S
C1514 C1515 1.363 . S
C1514 C1520 1.379 . S
C1514 N1522 1.356 . S
C1515 C1514 1.363 . S
C1515 C1521 1.363 . S
C1516 C1517 1.363 . S
C1516 C1521 1.379 . S
C1516 N1523 1.356 . S
C1517 C1516 1.363 . S
C1517 C1520 1.363 . S
N1518 C1520 1.356 . S
N1518 H1530 0.984 . S
N1518 H1531 0.985 . S
N1519 C1521 1.356 . S
N1519 H1524 0.984 . S
N1519 H1525 0.985 . S
C1520 C1514 1.379 . S
C1520 C1517 1.363 . S
C1520 N1518 1.356 . S
C1521 C1515 1.363 . S
C1521 C1516 1.379 . S
C1521 N1519 1.356 . S
N1522 C1514 1.356 . S
N1522 H1528 0.984 . S
N1522 H1529 0.984 . S
N1523 C1516 1.356 . S
N1523 H1526 0.984 . S
N1523 H1527 0.985 . S
H1524 N1519 0.984 . S
H1525 N1519 0.985 . S
H1526 N1523 0.984 . S
H1527 N1523 0.985 . S
H1528 N1522 0.984 . S
H1529 N1522 0.984 . S
H1530 N1518 0.984 . S
H1531 N1518 0.985 . S
C1532 C1533 1.363 1_655 S
C1532 C1538 1.379 . S
C1532 N1540 1.356 . S
C1533 C1532 1.363 1_455 S
C1533 C1539 1.363 . S
C1534 C1535 1.363 . S
C1534 C1539 1.379 . S
C1534 N1541 1.356 . S
C1535 C1534 1.363 . S
C1535 C1538 1.363 1_455 S
N1536 C1538 1.356 1_554 S
N1536 H1548 0.984 . S
N1536 H1549 0.985 . S
N1537 C1539 1.356 . S
N1537 H1542 0.984 . S
N1537 H1543 0.985 . S
C1538 C1532 1.379 . S
C1538 C1535 1.363 1_655 S
C1538 N1536 1.356 1_556 S
C1539 C1533 1.363 . S
C1539 C1534 1.379 . S
C1539 N1537 1.356 . S
N1540 C1532 1.356 . S
N1540 H1546 0.984 . S
N1540 H1547 0.984 . S
N1541 C1534 1.356 . S
N1541 H1544 0.984 . S
N1541 H1545 0.985 . S
H1542 N1537 0.984 . S
H1543 N1537 0.985 . S
H1544 N1541 0.984 . S
H1545 N1541 0.985 . S
H1546 N1540 0.984 . S
H1547 N1540 0.984 . S
H1548 N1536 0.984 . S
H1549 N1536 0.985 . S
C1550 C1551 1.363 . S
C1550 C1556 1.379 . S
C1550 N1558 1.356 . S
C1551 C1550 1.363 . S
C1551 C1557 1.363 . S
C1552 C1553 1.363 . S
C1552 C1557 1.379 . S
C1552 N1559 1.356 . S
C1553 C1552 1.363 . S
C1553 C1556 1.363 . S
N1554 C1556 1.356 . S
N1554 H1566 0.984 . S
N1554 H1567 0.985 . S
N1555 C1557 1.356 . S
N1555 H1560 0.984 . S
N1555 H1561 0.985 . S
C1556 C1550 1.379 . S
C1556 C1553 1.363 . S
C1556 N1554 1.356 . S
C1557 C1551 1.363 . S
C1557 C1552 1.379 . S
C1557 N1555 1.356 . S
N1558 C1550 1.356 . S
N1558 H1564 0.984 . S
N1558 H1565 0.984 . S
N1559 C1552 1.356 . S
N1559 H1562 0.984 . S
N1559 H1563 0.985 . S
H1560 N1555 0.984 . S
H1561 N1555 0.985 . S
H1562 N1559 0.984 . S
H1563 N1559 0.985 . S
H1564 N1558 0.984 . S
H1565 N1558 0.984 . S
H1566 N1554 0.984 . S
H1567 N1554 0.985 . S
C1568 C1569 1.363 . S
C1568 C1574 1.379 . S
C1568 N1576 1.356 . S
C1569 C1568 1.363 . S
C1569 C1575 1.363 . S
C1570 C1571 1.363 . S
C1570 C1575 1.379 . S
C1570 N1577 1.356 . S
C1571 C1570 1.363 . S
C1571 C1574 1.363 . S
N1572 C1574 1.356 . S
N1572 H1584 0.984 . S
N1572 H1585 0.985 . S
N1573 C1575 1.356 . S
N1573 H1578 0.984 . S
N1573 H1579 0.985 . S
C1574 C1568 1.379 . S
C1574 C1571 1.363 . S
C1574 N1572 1.356 . S
C1575 C1569 1.363 . S
C1575 C1570 1.379 . S
C1575 N1573 1.356 . S
N1576 C1568 1.356 . S
N1576 H1582 0.984 . S
N1576 H1583 0.984 . S
N1577 C1570 1.356 . S
N1577 H1580 0.984 . S
N1577 H1581 0.985 . S
H1578 N1573 0.984 . S
H1579 N1573 0.985 . S
H1580 N1577 0.984 . S
H1581 N1577 0.985 . S
H1582 N1576 0.984 . S
H1583 N1576 0.984 . S
H1584 N1572 0.984 . S
H1585 N1572 0.985 . S
C1586 C1587 1.363 . S
C1586 C1592 1.379 . S
C1586 N1594 1.356 . S
C1587 C1586 1.363 . S
C1587 C1593 1.363 . S
C1588 C1589 1.363 . S
C1588 C1593 1.379 . S
C1588 N1595 1.356 . S
C1589 C1588 1.363 . S
C1589 C1592 1.363 . S
N1590 C1592 1.356 . S
N1590 H1602 0.984 . S
N1590 H1603 0.985 . S
N1591 C1593 1.356 . S
N1591 H1596 0.984 . S
N1591 H1597 0.985 . S
C1592 C1586 1.379 . S
C1592 C1589 1.363 . S
C1592 N1590 1.356 . S
C1593 C1587 1.363 . S
C1593 C1588 1.379 . S
C1593 N1591 1.356 . S
N1594 C1586 1.356 . S
N1594 H1600 0.984 . S
N1594 H1601 0.984 . S
N1595 C1588 1.356 . S
N1595 H1598 0.984 . S
N1595 H1599 0.985 . S
H1596 N1591 0.984 . S
H1597 N1591 0.985 . S
H1598 N1595 0.984 . S
H1599 N1595 0.985 . S
H1600 N1594 0.984 . S
H1601 N1594 0.984 . S
H1602 N1590 0.984 . S
H1603 N1590 0.985 . S
C1604 C1605 1.363 . S
C1604 C1610 1.379 . S
C1604 N1612 1.356 . S
C1605 C1604 1.363 . S
C1605 C1611 1.363 1_655 S
C1606 C1607 1.363 1_455 S
C1606 C1611 1.379 . S
C1606 N1613 1.356 . S
C1607 C1606 1.363 1_655 S
C1607 C1610 1.363 . S
N1608 C1610 1.356 . S
N1608 H1620 0.984 . S
N1608 H1621 0.985 . S
N1609 C1611 1.356 . S
N1609 H1614 0.984 . S
N1609 H1615 0.985 . S
C1610 C1604 1.379 . S
C1610 C1607 1.363 . S
C1610 N1608 1.356 . S
C1611 C1605 1.363 1_455 S
C1611 C1606 1.379 . S
C1611 N1609 1.356 . S
N1612 C1604 1.356 . S
N1612 H1618 0.984 . S
N1612 H1619 0.984 . S
N1613 C1606 1.356 . S
N1613 H1616 0.984 . S
N1613 H1617 0.985 . S
H1614 N1609 0.984 . S
H1615 N1609 0.985 . S
H1616 N1613 0.984 . S
H1617 N1613 0.985 . S
H1618 N1612 0.984 . S
H1619 N1612 0.984 . S
H1620 N1608 0.984 . S
H1621 N1608 0.985 . S
C1622 C1623 1.363 . S
C1622 C1628 1.379 . S
C1622 N1630 1.356 . S
C1623 C1622 1.363 . S
C1623 C1629 1.363 . S
C1624 C1625 1.363 . S
C1624 C1629 1.379 . S
C1624 N1631 1.356 . S
C1625 C1624 1.363 . S
C1625 C1628 1.363 . S
N1626 C1628 1.356 . S
N1626 H1638 0.984 . S
N1626 H1639 0.985 . S
N1627 C1629 1.356 . S
N1627 H1632 0.984 . S
N1627 H1633 0.985 . S
C1628 C1622 1.379 . S
C1628 C1625 1.363 . S
C1628 N1626 1.356 . S
C1629 C1623 1.363 . S
C1629 C1624 1.379 . S
C1629 N1627 1.356 . S
N1630 C1622 1.356 . S
N1630 H1636 0.984 . S
N1630 H1637 0.984 . S
N1631 C1624 1.356 . S
N1631 H1634 0.984 . S
N1631 H1635 0.985 . S
H1632 N1627 0.984 . S
H1633 N1627 0.985 . S
H1634 N1631 0.984 . S
H1635 N1631 0.985 . S
H1636 N1630 0.984 . S
H1637 N1630 0.984 . S
H1638 N1626 0.984 . S
H1639 N1626 0.985 . S
C1640 C1641 1.363 . S
C1640 C1646 1.379 . S
C1640 N1648 1.356 . S
C1641 C1640 1.363 . S
C1641 C1647 1.363 . S
C1642 C1643 1.363 . S
C1642 C1647 1.379 . S
C1642 N1649 1.356 . S
C1643 C1642 1.363 . S
C1643 C1646 1.363 . S
N1644 C1646 1.356 . S
N1644 H1656 0.984 . S
N1644 H1657 0.985 . S
N1645 C1647 1.356 . S
N1645 H1650 0.984 . S
N1645 H1651 0.985 . S
C1646 C1640 1.379 . S
C1646 C1643 1.363 . S
C1646 N1644 1.356 . S
C1647 C1641 1.363 . S
C1647 C1642 1.379 . S
C1647 N1645 1.356 . S
N1648 C1640 1.356 . S
N1648 H1654 0.984 . S
N1648 H1655 0.984 . S
N1649 C1642 1.356 . S
N1649 H1652 0.984 . S
N1649 H1653 0.985 . S
H1650 N1645 0.984 . S
H1651 N1645 0.985 . S
H1652 N1649 0.984 . S
H1653 N1649 0.985 . S
H1654 N1648 0.984 . S
H1655 N1648 0.984 . S
H1656 N1644 0.984 . S
H1657 N1644 0.985 . S
C1658 C1659 1.363 . S
C1658 C1664 1.379 . S
C1658 N1666 1.356 . S
C1659 C1658 1.363 . S
C1659 C1665 1.363 . S
C1660 C1661 1.363 . S
C1660 C1665 1.379 . S
C1660 N1667 1.356 . S
C1661 C1660 1.363 . S
C1661 C1664 1.363 . S
N1662 C1664 1.356 . S
N1662 H1674 0.984 . S
N1662 H1675 0.985 . S
N1663 C1665 1.356 . S
N1663 H1668 0.984 . S
N1663 H1669 0.985 . S
C1664 C1658 1.379 . S
C1664 C1661 1.363 . S
C1664 N1662 1.356 . S
C1665 C1659 1.363 . S
C1665 C1660 1.379 . S
C1665 N1663 1.356 . S
N1666 C1658 1.356 . S
N1666 H1672 0.984 . S
N1666 H1673 0.984 . S
N1667 C1660 1.356 . S
N1667 H1670 0.984 . S
N1667 H1671 0.985 . S
H1668 N1663 0.984 . S
H1669 N1663 0.985 . S
H1670 N1667 0.984 . S
H1671 N1667 0.985 . S
H1672 N1666 0.984 . S
H1673 N1666 0.984 . S
H1674 N1662 0.984 . S
H1675 N1662 0.985 . S
C1676 C1677 1.363 . S
C1676 C1682 1.379 . S
C1676 N1684 1.356 . S
C1677 C1676 1.363 . S
C1677 C1683 1.363 . S
C1678 C1679 1.363 . S
C1678 C1683 1.379 . S
C1678 N1685 1.356 . S
C1679 C1678 1.363 . S
C1679 C1682 1.363 . S
N1680 C1682 1.356 . S
N1680 H1692 0.984 1_455 S
N1680 H1693 0.985 1_455 S
N1681 C1683 1.356 . S
N1681 H1686 0.984 . S
N1681 H1687 0.985 . S
C1682 C1676 1.379 . S
C1682 C1679 1.363 . S
C1682 N1680 1.356 . S
C1683 C1677 1.363 . S
C1683 C1678 1.379 . S
C1683 N1681 1.356 . S
N1684 C1676 1.356 . S
N1684 H1690 0.984 . S
N1684 H1691 0.984 . S
N1685 C1678 1.356 . S
N1685 H1688 0.984 . S
N1685 H1689 0.985 . S
H1686 N1681 0.984 . S
H1687 N1681 0.985 . S
H1688 N1685 0.984 . S
H1689 N1685 0.985 . S
H1690 N1684 0.984 . S
H1691 N1684 0.984 . S
H1692 N1680 0.984 1_655 S
H1693 N1680 0.985 1_655 S
C1694 C1695 1.363 . S
C1694 C1700 1.379 . S
C1694 N1702 1.356 . S
C1695 C1694 1.363 . S
C1695 C1701 1.363 . S
C1696 C1697 1.363 . S
C1696 C1701 1.379 . S
C1696 N1703 1.356 . S
C1697 C1696 1.363 . S
C1697 C1700 1.363 . S
N1698 C1700 1.356 . S
N1698 H1710 0.984 . S
N1698 H1711 0.985 . S
N1699 C1701 1.356 . S
N1699 H1704 0.984 . S
N1699 H1705 0.985 . S
C1700 C1694 1.379 . S
C1700 C1697 1.363 . S
C1700 N1698 1.356 . S
C1701 C1695 1.363 . S
C1701 C1696 1.379 . S
C1701 N1699 1.356 . S
N1702 C1694 1.356 . S
N1702 H1708 0.984 . S
N1702 H1709 0.984 . S
N1703 C1696 1.356 . S
N1703 H1706 0.984 . S
N1703 H1707 0.985 . S
H1704 N1699 0.984 . S
H1705 N1699 0.985 . S
H1706 N1703 0.984 . S
H1707 N1703 0.985 . S
H1708 N1702 0.984 . S
H1709 N1702 0.984 . S
H1710 N1698 0.984 . S
H1711 N1698 0.985 . S
C1712 C1713 1.363 . S
C1712 C1718 1.379 . S
C1712 N1720 1.356 . S
C1713 C1712 1.363 . S
C1713 C1719 1.363 . S
C1714 C1715 1.363 . S
C1714 C1719 1.379 . S
C1714 N1721 1.356 . S
C1715 C1714 1.363 . S
C1715 C1718 1.363 . S
N1716 C1718 1.356 . S
N1716 H1728 0.984 . S
N1716 H1729 0.985 . S
N1717 C1719 1.356 . S
N1717 H1722 0.984 . S
N1717 H1723 0.985 . S
C1718 C1712 1.379 . S
C1718 C1715 1.363 . S
C1718 N1716 1.356 . S
C1719 C1713 1.363 . S
C1719 C1714 1.379 . S
C1719 N1717 1.356 . S
N1720 C1712 1.356 . S
N1720 H1726 0.984 . S
N1720 H1727 0.984 . S
N1721 C1714 1.356 . S
N1721 H1724 0.984 . S
N1721 H1725 0.985 . S
H1722 N1717 0.984 . S
H1723 N1717 0.985 . S
H1724 N1721 0.984 . S
H1725 N1721 0.985 . S
H1726 N1720 0.984 . S
H1727 N1720 0.984 . S
H1728 N1716 0.984 . S
H1729 N1716 0.985 . S
C1730 C1731 1.363 . S
C1730 C1736 1.379 . S
C1730 N1738 1.356 . S
C1731 C1730 1.363 . S
C1731 C1737 1.363 . S
C1732 C1733 1.363 . S
C1732 C1737 1.379 . S
C1732 N1739 1.356 . S
C1733 C1732 1.363 . S
C1733 C1736 1.363 . S
N1734 C1736 1.356 . S
N1734 H1746 0.984 . S
N1734 H1747 0.985 . S
N1735 C1737 1.356 . S
N1735 H1740 0.984 . S
N1735 H1741 0.985 . S
C1736 C1730 1.379 . S
C1736 C1733 1.363 . S
C1736 N1734 1.356 . S
C1737 C1731 1.363 . S
C1737 C1732 1.379 . S
C1737 N1735 1.356 . S
N1738 C1730 1.356 . S
N1738 H1744 0.984 . S
N1738 H1745 0.984 . S
N1739 C1732 1.356 . S
N1739 H1742 0.984 . S
N1739 H1743 0.985 . S
H1740 N1735 0.984 . S
H1741 N1735 0.985 . S
H1742 N1739 0.984 . S
H1743 N1739 0.985 . S
H1744 N1738 0.984 . S
H1745 N1738 0.984 . S
H1746 N1734 0.984 . S
H1747 N1734 0.985 . S
C1748 C1749 1.363 . S
C1748 C1754 1.379 . S
C1748 N1756 1.356 . S
C1749 C1748 1.363 . S
C1749 C1755 1.363 . S
C1750 C1751 1.363 . S
C1750 C1755 1.379 . S
C1750 N1757 1.356 . S
C1751 C1750 1.363 . S
C1751 C1754 1.363 . S
N1752 C1754 1.356 . S
N1752 H1764 0.984 . S
N1752 H1765 0.985 . S
N1753 C1755 1.356 . S
N1753 H1758 0.984 . S
N1753 H1759 0.985 . S
C1754 C1748 1.379 . S
C1754 C1751 1.363 . S
C1754 N1752 1.356 . S
C1755 C1749 1.363 . S
C1755 C1750 1.379 . S
C1755 N1753 1.356 . S
N1756 C1748 1.356 . S
N1756 H1762 0.984 . S
N1756 H1763 0.984 . S
N1757 C1750 1.356 . S
N1757 H1760 0.984 . S
N1757 H1761 0.985 . S
H1758 N1753 0.984 . S
H1759 N1753 0.985 . S
H1760 N1757 0.984 . S
H1761 N1757 0.985 . S
H1762 N1756 0.984 . S
H1763 N1756 0.984 . S
H1764 N1752 0.984 . S
H1765 N1752 0.985 . S
C1766 C1767 1.363 . S
C1766 C1772 1.379 . S
C1766 N1774 1.356 . S
C1767 C1766 1.363 . S
C1767 C1773 1.363 . S
C1768 C1769 1.363 . S
C1768 C1773 1.379 . S
C1768 N1775 1.356 . S
C1769 C1768 1.363 . S
C1769 C1772 1.363 . S
N1770 C1772 1.356 . S
N1770 H1782 0.984 . S
N1770 H1783 0.985 . S
N1771 C1773 1.356 . S
N1771 H1776 0.984 . S
N1771 H1777 0.985 . S
C1772 C1766 1.379 . S
C1772 C1769 1.363 . S
C1772 N1770 1.356 . S
C1773 C1767 1.363 . S
C1773 C1768 1.379 . S
C1773 N1771 1.356 . S
N1774 C1766 1.356 . S
N1774 H1780 0.984 . S
N1774 H1781 0.984 . S
N1775 C1768 1.356 . S
N1775 H1778 0.984 . S
N1775 H1779 0.985 . S
H1776 N1771 0.984 . S
H1777 N1771 0.985 . S
H1778 N1775 0.984 . S
H1779 N1775 0.985 . S
H1780 N1774 0.984 . S
H1781 N1774 0.984 . S
H1782 N1770 0.984 . S
H1783 N1770 0.985 . S
C1784 C1785 1.363 . S
C1784 C1790 1.379 . S
C1784 N1792 1.356 . S
C1785 C1784 1.363 . S
C1785 C1791 1.363 . S
C1786 C1787 1.363 . S
C1786 C1791 1.379 . S
C1786 N1793 1.356 . S
C1787 C1786 1.363 . S
C1787 C1790 1.363 . S
N1788 C1790 1.356 . S
N1788 H1800 0.984 . S
N1788 H1801 0.985 . S
N1789 C1791 1.356 . S
N1789 H1794 0.984 . S
N1789 H1795 0.985 . S
C1790 C1784 1.379 . S
C1790 C1787 1.363 . S
C1790 N1788 1.356 . S
C1791 C1785 1.363 . S
C1791 C1786 1.379 . S
C1791 N1789 1.356 . S
N1792 C1784 1.356 . S
N1792 H1798 0.984 . S
N1792 H1799 0.984 . S
N1793 C1786 1.356 . S
N1793 H1796 0.984 . S
N1793 H1797 0.985 . S
H1794 N1789 0.984 . S
H1795 N1789 0.985 . S
H1796 N1793 0.984 . S
H1797 N1793 0.985 . S
H1798 N1792 0.984 . S
H1799 N1792 0.984 . S
H1800 N1788 0.984 . S
H1801 N1788 0.985 . S
C1802 C1803 1.363 . S
C1802 C1808 1.379 . S
C1802 N1810 1.356 . S
C1803 C1802 1.363 . S
C1803 C1809 1.363 . S
C1804 C1805 1.363 . S
C1804 C1809 1.379 . S
C1804 N1811 1.356 . S
C1805 C1804 1.363 . S
C1805 C1808 1.363 . S
N1806 C1808 1.356 . S
N1806 H1818 0.984 . S
N1806 H1819 0.985 . S
N1807 C1809 1.356 . S
N1807 H1812 0.984 . S
N1807 H1813 0.985 . S
C1808 C1802 1.379 . S
C1808 C1805 1.363 . S
C1808 N1806 1.356 . S
C1809 C1803 1.363 . S
C1809 C1804 1.379 . S
C1809 N1807 1.356 . S
N1810 C1802 1.356 . S
N1810 H1816 0.984 . S
N1810 H1817 0.984 . S
N1811 C1804 1.356 . S
N1811 H1814 0.984 . S
N1811 H1815 0.985 . S
H1812 N1807 0.984 . S
H1813 N1807 0.985 . S
H1814 N1811 0.984 . S
H1815 N1811 0.985 . S
H1816 N1810 0.984 . S
H1817 N1810 0.984 . S
H1818 N1806 0.984 . S
H1819 N1806 0.985 . S
C1820 C1821 1.363 . S
C1820 C1826 1.379 . S
C1820 N1828 1.356 . S
C1821 C1820 1.363 . S
C1821 C1827 1.363 . S
C1822 C1823 1.363 . S
C1822 C1827 1.379 . S
C1822 N1829 1.356 . S
C1823 C1822 1.363 . S
C1823 C1826 1.363 . S
N1824 C1826 1.356 . S
N1824 H1836 0.984 . S
N1824 H1837 0.985 . S
N1825 C1827 1.356 . S
N1825 H1830 0.984 . S
N1825 H1831 0.985 . S
C1826 C1820 1.379 . S
C1826 C1823 1.363 . S
C1826 N1824 1.356 . S
C1827 C1821 1.363 . S
C1827 C1822 1.379 . S
C1827 N1825 1.356 . S
N1828 C1820 1.356 . S
N1828 H1834 0.984 . S
N1828 H1835 0.984 . S
N1829 C1822 1.356 . S
N1829 H1832 0.984 . S
N1829 H1833 0.985 . S
H1830 N1825 0.984 . S
H1831 N1825 0.985 . S
H1832 N1829 0.984 . S
H1833 N1829 0.985 . S
H1834 N1828 0.984 . S
H1835 N1828 0.984 . S
H1836 N1824 0.984 . S
H1837 N1824 0.985 . S
C1838 C1839 1.363 . S
C1838 C1844 1.379 . S
C1838 N1846 1.356 . S
C1839 C1838 1.363 . S
C1839 C1845 1.363 . S
C1840 C1841 1.363 . S
C1840 C1845 1.379 . S
C1840 N1847 1.356 . S
C1841 C1840 1.363 . S
C1841 C1844 1.363 . S
N1842 C1844 1.356 1_545 S
N1842 H1854 0.978 1_554 S
N1842 H1855 0.985 . S
N1843 C1845 1.356 . S
N1843 H1848 0.984 . S
N1843 H1849 0.985 . S
C1844 C1838 1.379 . S
C1844 C1841 1.363 . S
C1844 N1842 1.356 1_565 S
C1845 C1839 1.363 . S
C1845 C1840 1.379 . S
C1845 N1843 1.356 . S
N1846 C1838 1.356 . S
N1846 H1852 0.984 . S
N1846 H1853 0.984 . S
N1847 C1840 1.356 . S
N1847 H1850 0.984 . S
N1847 H1851 0.985 . S
H1848 N1843 0.984 . S
H1849 N1843 0.985 . S
H1850 N1847 0.984 . S
H1851 N1847 0.985 . S
H1852 N1846 0.984 . S
H1853 N1846 0.984 . S
H1854 N1842 0.978 1_556 S
H1855 N1842 0.985 . S
C1856 C1857 1.363 . S
C1856 C1862 1.379 . S
C1856 N1864 1.356 . S
C1857 C1856 1.363 . S
C1857 C1863 1.363 . S
C1858 C1859 1.363 . S
C1858 C1863 1.379 . S
C1858 N1865 1.356 . S
C1859 C1858 1.363 . S
C1859 C1862 1.363 . S
N1860 C1862 1.356 . S
N1860 H1872 0.984 . S
N1860 H1873 0.985 . S
N1861 C1863 1.356 . S
N1861 H1866 0.984 . S
N1861 H1867 0.985 . S
C1862 C1856 1.379 . S
C1862 C1859 1.363 . S
C1862 N1860 1.356 . S
C1863 C1857 1.363 . S
C1863 C1858 1.379 . S
C1863 N1861 1.356 . S
N1864 C1856 1.356 . S
N1864 H1870 0.984 . S
N1864 H1871 0.984 . S
N1865 C1858 1.356 . S
N1865 H1868 0.984 . S
N1865 H1869 0.985 . S
H1866 N1861 0.984 . S
H1867 N1861 0.985 . S
H1868 N1865 0.984 . S
H1869 N1865 0.985 . S
H1870 N1864 0.984 . S
H1871 N1864 0.984 . S
H1872 N1860 0.984 . S
H1873 N1860 0.985 . S
C1874 C1875 1.363 . S
C1874 C1880 1.379 . S
C1874 N1882 1.356 1_554 S
C1875 C1874 1.363 . S
C1875 C1881 1.363 . S
C1876 C1877 1.363 . S
C1876 C1881 1.379 . S
C1876 N1883 1.356 . S
C1877 C1876 1.363 . S
C1877 C1880 1.363 . S
N1878 C1880 1.356 . S
N1878 H1890 0.984 . S
N1878 H1891 0.985 . S
N1879 C1881 1.356 . S
N1879 H1884 0.984 . S
N1879 H1885 0.985 . S
C1880 C1874 1.379 . S
C1880 C1877 1.363 . S
C1880 N1878 1.356 . S
C1881 C1875 1.363 . S
C1881 C1876 1.379 . S
C1881 N1879 1.356 . S
N1882 C1874 1.356 1_556 S
N1882 H1888 0.984 . S
N1882 H1889 0.984 . S
N1883 C1876 1.356 . S
N1883 H1886 0.984 . S
N1883 H1887 0.985 . S
H1884 N1879 0.984 . S
H1885 N1879 0.985 . S
H1886 N1883 0.984 . S
H1887 N1883 0.985 . S
H1888 N1882 0.984 . S
H1889 N1882 0.984 . S
H1890 N1878 0.984 . S
H1891 N1878 0.985 . S
C1892 C1893 1.363 . S
C1892 C1898 1.379 . S
C1892 N1900 1.356 . S
C1893 C1892 1.363 . S
C1893 C1899 1.363 . S
C1894 C1895 1.363 . S
C1894 C1899 1.379 . S
C1894 N1901 1.356 . S
C1895 C1894 1.363 . S
C1895 C1898 1.363 . S
N1896 C1898 1.356 . S
N1896 H1908 0.984 . S
N1896 H1909 0.985 . S
N1897 C1899 1.356 . S
N1897 H1902 0.984 . S
N1897 H1903 0.985 . S
C1898 C1892 1.379 . S
C1898 C1895 1.363 . S
C1898 N1896 1.356 . S
C1899 C1893 1.363 . S
C1899 C1894 1.379 . S
C1899 N1897 1.356 . S
N1900 C1892 1.356 . S
N1900 H1906 0.984 . S
N1900 H1907 0.984 . S
N1901 C1894 1.356 . S
N1901 H1904 0.984 . S
N1901 H1905 0.985 . S
H1902 N1897 0.984 . S
H1903 N1897 0.985 . S
H1904 N1901 0.984 . S
H1905 N1901 0.985 . S
H1906 N1900 0.984 . S
H1907 N1900 0.984 . S
H1908 N1896 0.984 . S
H1909 N1896 0.985 . S
C1910 C1911 1.363 . S
C1910 C1916 1.379 . S
C1910 N1918 1.356 . S
C1911 C1910 1.363 . S
C1911 C1917 1.363 . S
C1912 C1913 1.363 . S
C1912 C1917 1.379 . S
C1912 N1919 1.356 . S
C1913 C1912 1.363 . S
C1913 C1916 1.363 . S
N1914 C1916 1.356 . S
N1914 H1926 0.984 . S
N1914 H1927 0.985 . S
N1915 C1917 1.356 . S
N1915 H1920 0.984 . S
N1915 H1921 0.985 . S
C1916 C1910 1.379 . S
C1916 C1913 1.363 . S
C1916 N1914 1.356 . S
C1917 C1911 1.363 . S
C1917 C1912 1.379 . S
C1917 N1915 1.356 . S
N1918 C1910 1.356 . S
N1918 H1924 0.984 . S
N1918 H1925 0.984 . S
N1919 C1912 1.356 . S
N1919 H1922 0.984 . S
N1919 H1923 0.985 . S
H1920 N1915 0.984 . S
H1921 N1915 0.985 . S
H1922 N1919 0.984 . S
H1923 N1919 0.985 . S
H1924 N1918 0.984 . S
H1925 N1918 0.984 . S
H1926 N1914 0.984 . S
H1927 N1914 0.985 . S
C1928 C1929 1.363 . S
C1928 C1934 1.379 . S
C1928 N1936 1.356 . S
C1929 C1928 1.363 . S
C1929 C1935 1.363 . S
C1930 C1931 1.363 . S
C1930 C1935 1.379 . S
C1930 N1937 1.356 . S
C1931 C1930 1.363 . S
C1931 C1934 1.363 . S
N1932 C1934 1.356 . S
N1932 H1944 0.984 . S
N1932 H1945 0.985 . S
N1933 C1935 1.356 . S
N1933 H1938 0.984 . S
N1933 H1939 0.985 . S
C1934 C1928 1.379 . S
C1934 C1931 1.363 . S
C1934 N1932 1.356 . S
C1935 C1929 1.363 . S
C1935 C1930 1.379 . S
C1935 N1933 1.356 . S
N1936 C1928 1.356 . S
N1936 H1942 0.984 . S
N1936 H1943 0.984 . S
N1937 C1930 1.356 . S
N1937 H1940 0.984 . S
N1937 H1941 0.985 . S
H1938 N1933 0.984 . S
H1939 N1933 0.985 . S
H1940 N1937 0.984 . S
H1941 N1937 0.985 . S
H1942 N1936 0.984 . S
H1943 N1936 0.984 . S
H1944 N1932 0.984 . S
H1945 N1932 0.985 . S
C1946 C1947 1.363 . S
C1946 C1952 1.379 . S
C1946 N1954 1.356 . S
C1947 C1946 1.363 . S
C1947 C1953 1.363 . S
C1948 C1949 1.363 . S
C1948 C1953 1.379 . S
C1948 N1955 1.356 . S
C1949 C1948 1.363 . S
C1949 C1952 1.363 . S
N1950 C1952 1.356 . S
N1950 H1962 0.984 . S
N1950 H1963 0.985 . S
N1951 C1953 1.356 . S
N1951 H1956 0.984 . S
N1951 H1957 0.985 . S
C1952 C1946 1.379 . S
C1952 C1949 1.363 . S
C1952 N1950 1.356 . S
C1953 C1947 1.363 . S
C1953 C1948 1.379 . S
C1953 N1951 1.356 . S
N1954 C1946 1.356 . S
N1954 H1960 0.984 . S
N1954 H1961 0.984 . S
N1955 C1948 1.356 . S
N1955 H1958 0.984 . S
N1955 H1959 0.985 . S
H1956 N1951 0.984 . S
H1957 N1951 0.985 . S
H1958 N1955 0.984 . S
H1959 N1955 0.985 . S
H1960 N1954 0.984 . S
H1961 N1954 0.984 . S
H1962 N1950 0.984 . S
H1963 N1950 0.985 . S
C1964 C1965 1.363 1_455 S
C1964 C1970 1.379 . S
C1964 N1972 1.356 . S
C1965 C1964 1.363 1_655 S
C1965 C1971 1.363 . S
C1966 C1967 1.363 1_655 S
C1966 C1971 1.379 . S
C1966 N1973 1.356 . S
C1967 C1966 1.363 1_455 S
C1967 C1970 1.363 . S
N1968 C1970 1.356 . S
N1968 H1980 0.984 . S
N1968 H1981 0.985 . S
N1969 C1971 1.356 . S
N1969 H1974 0.984 . S
N1969 H1975 0.985 . S
C1970 C1964 1.379 . S
C1970 C1967 1.363 . S
C1970 N1968 1.356 . S
C1971 C1965 1.363 . S
C1971 C1966 1.379 . S
C1971 N1969 1.356 . S
N1972 C1964 1.356 . S
N1972 H1978 0.984 . S
N1972 H1979 0.984 . S
N1973 C1966 1.356 . S
N1973 H1976 0.984 . S
N1973 H1977 0.985 . S
H1974 N1969 0.984 . S
H1975 N1969 0.985 . S
H1976 N1973 0.984 . S
H1977 N1973 0.985 . S
H1978 N1972 0.984 . S
H1979 N1972 0.984 . S
H1980 N1968 0.984 . S
H1981 N1968 0.985 . S
C1982 C1983 1.363 . S
C1982 C1988 1.379 . S
C1982 N1990 1.356 . S
C1983 C1982 1.363 . S
C1983 C1989 1.363 . S
C1984 C1985 1.363 . S
C1984 C1989 1.379 . S
C1984 N1991 1.356 . S
C1985 C1984 1.363 . S
C1985 C1988 1.363 . S
N1986 C1988 1.356 . S
N1986 H1998 0.984 . S
N1986 H1999 0.985 . S
N1987 C1989 1.356 . S
N1987 H1992 0.984 . S
N1987 H1993 0.985 . S
C1988 C1982 1.379 . S
C1988 C1985 1.363 . S
C1988 N1986 1.356 . S
C1989 C1983 1.363 . S
C1989 C1984 1.379 . S
C1989 N1987 1.356 . S
N1990 C1982 1.356 . S
N1990 H1996 0.984 . S
N1990 H1997 0.984 . S
N1991 C1984 1.356 . S
N1991 H1994 0.984 . S
N1991 H1995 0.985 . S
H1992 N1987 0.984 . S
H1993 N1987 0.985 . S
H1994 N1991 0.984 . S
H1995 N1991 0.985 . S
H1996 N1990 0.984 . S
H1997 N1990 0.984 . S
H1998 N1986 0.984 . S
H1999 N1986 0.985 . S
C2000 C2001 1.363 . S
C2000 C2006 1.379 . S
C2000 N2008 1.356 . S
C2001 C2000 1.363 . S
C2001 C2007 1.363 . S
C2002 C2003 1.363 . S
C2002 C2007 1.379 . S
C2002 N2009 1.356 . S
C2003 C2002 1.363 . S
C2003 C2006 1.363 . S
N2004 C2006 1.356 . S
N2004 H2016 0.984 . S
N2004 H2017 0.985 . S
N2005 C2007 1.356 . S
N2005 H2010 0.984 . S
N2005 H2011 0.985 . S
C2006 C2000 1.379 . S
C2006 C2003 1.363 . S
C2006 N2004 1.356 . S
C2007 C2001 1.363 . S
C2007 C2002 1.379 . S
C2007 N2005 1.356 . S
N2008 C2000 1.356 . S
N2008 H2014 0.984 . S
N2008 H2015 0.984 . S
N2009 C2002 1.356 . S
N2009 H2012 0.984 1_556 S
N2009 H2013 0.985 1_556 S
H2010 N2005 0.984 . S
H2011 N2005 0.985 . S
H2012 N2009 0.984 1_554 S
H2013 N2009 0.985 1_554 S
H2014 N2008 0.984 . S
H2015 N2008 0.984 . S
H2016 N2004 0.984 . S
H2017 N2004 0.985 . S
C2018 C2019 1.363 . S
C2018 C2024 1.379 . S
C2018 N2026 1.356 . S
C2019 C2018 1.363 . S
C2019 C2025 1.363 . S
C2020 C2021 1.363 . S
C2020 C2025 1.379 . S
C2020 N2027 1.356 . S
C2021 C2020 1.363 . S
C2021 C2024 1.363 . S
N2022 C2024 1.356 . S
N2022 H2034 0.984 . S
N2022 H2035 0.985 . S
N2023 C2025 1.356 . S
N2023 H2028 0.984 . S
N2023 H2029 0.985 . S
C2024 C2018 1.379 . S
C2024 C2021 1.363 . S
C2024 N2022 1.356 . S
C2025 C2019 1.363 . S
C2025 C2020 1.379 . S
C2025 N2023 1.356 . S
N2026 C2018 1.356 . S
N2026 H2032 0.984 . S
N2026 H2033 0.984 . S
N2027 C2020 1.356 . S
N2027 H2030 0.984 . S
N2027 H2031 0.985 . S
H2028 N2023 0.984 . S
H2029 N2023 0.985 . S
H2030 N2027 0.984 . S
H2031 N2027 0.985 . S
H2032 N2026 0.984 . S
H2033 N2026 0.984 . S
H2034 N2022 0.984 . S
H2035 N2022 0.985 . S
C2036 C2037 1.363 . S
C2036 C2042 1.379 . S
C2036 N2044 1.356 . S
C2037 C2036 1.363 . S
C2037 C2043 1.363 . S
C2038 C2039 1.363 . S
C2038 C2043 1.379 . S
C2038 N2045 1.356 1_455 S
C2039 C2038 1.363 . S
C2039 C2042 1.363 . S
N2040 C2042 1.356 . S
N2040 H2052 0.984 . S
N2040 H2053 0.985 . S
N2041 C2043 1.356 1_655 S
N2041 H2046 0.984 . S
N2041 H2047 0.985 . S
C2042 C2036 1.379 . S
C2042 C2039 1.363 . S
C2042 N2040 1.356 . S
C2043 C2037 1.363 . S
C2043 C2038 1.379 . S
C2043 N2041 1.356 1_455 S
N2044 C2036 1.356 . S
N2044 H2050 0.984 . S
N2044 H2051 0.984 . S
N2045 C2038 1.356 1_655 S
N2045 H2048 0.984 . S
N2045 H2049 0.985 . S
H2046 N2041 0.984 . S
H2047 N2041 0.985 . S
H2048 N2045 0.984 . S
H2049 N2045 0.985 . S
H2050 N2044 0.984 . S
H2051 N2044 0.984 . S
H2052 N2040 0.984 . S
H2053 N2040 0.985 . S
C2054 C2055 1.363 . S
C2054 C2060 1.379 . S
C2054 N2062 1.356 . S
C2055 C2054 1.363 . S
C2055 C2061 1.363 . S
C2056 C2057 1.363 . S
C2056 C2061 1.379 . S
C2056 N2063 1.356 . S
C2057 C2056 1.363 . S
C2057 C2060 1.363 . S
N2058 C2060 1.356 . S
N2058 H2070 0.984 . S
N2058 H2071 0.985 . S
N2059 C2061 1.356 . S
N2059 H2064 0.984 . S
N2059 H2065 0.985 . S
C2060 C2054 1.379 . S
C2060 C2057 1.363 . S
C2060 N2058 1.356 . S
C2061 C2055 1.363 . S
C2061 C2056 1.379 . S
C2061 N2059 1.356 . S
N2062 C2054 1.356 . S
N2062 H2068 0.984 . S
N2062 H2069 0.984 . S
N2063 C2056 1.356 . S
N2063 H2066 0.984 . S
N2063 H2067 0.985 . S
H2064 N2059 0.984 . S
H2065 N2059 0.985 . S
H2066 N2063 0.984 . S
H2067 N2063 0.985 . S
H2068 N2062 0.984 . S
H2069 N2062 0.984 . S
H2070 N2058 0.984 . S
H2071 N2058 0.985 . S
C2072 C2073 1.363 . S
C2072 C2078 1.379 . S
C2072 N2080 1.356 . S
C2073 C2072 1.363 . S
C2073 C2079 1.363 . S
C2074 C2075 1.363 . S
C2074 C2079 1.379 . S
C2074 N2081 1.356 . S
C2075 C2074 1.363 . S
C2075 C2078 1.363 . S
N2076 C2078 1.356 . S
N2076 H2088 0.984 . S
N2076 H2089 0.985 . S
N2077 C2079 1.356 . S
N2077 H2082 0.984 . S
N2077 H2083 0.985 . S
C2078 C2072 1.379 . S
C2078 C2075 1.363 . S
C2078 N2076 1.356 . S
C2079 C2073 1.363 . S
C2079 C2074 1.379 . S
C2079 N2077 1.356 . S
N2080 C2072 1.356 . S
N2080 H2086 0.984 . S
N2080 H2087 0.984 . S
N2081 C2074 1.356 . S
N2081 H2084 0.984 . S
N2081 H2085 0.985 . S
H2082 N2077 0.984 . S
H2083 N2077 0.985 . S
H2084 N2081 0.984 . S
H2085 N2081 0.985 . S
H2086 N2080 0.984 . S
H2087 N2080 0.984 . S
H2088 N2076 0.984 . S
H2089 N2076 0.985 . S
C2090 C2091 1.363 . S
C2090 C2096 1.379 . S
C2090 N2098 1.356 . S
C2091 C2090 1.363 . S
C2091 C2097 1.363 . S
C2092 C2093 1.363 . S
C2092 C2097 1.379 . S
C2092 N2099 1.356 . S
C2093 C2092 1.363 . S
C2093 C2096 1.363 . S
N2094 C2096 1.356 . S
N2094 H2106 0.984 . S
N2094 H2107 0.985 . S
N2095 C2097 1.356 . S
N2095 H2100 0.984 . S
N2095 H2101 0.985 . S
C2096 C2090 1.379 . S
C2096 C2093 1.363 . S
C2096 N2094 1.356 . S
C2097 C2091 1.363 . S
C2097 C2092 1.379 . S
C2097 N2095 1.356 . S
N2098 C2090 1.356 . S
N2098 H2104 0.984 . S
N2098 H2105 0.984 . S
N2099 C2092 1.356 . S
N2099 H2102 0.984 . S
N2099 H2103 0.985 . S
H2100 N2095 0.984 . S
H2101 N2095 0.985 . S
H2102 N2099 0.984 . S
H2103 N2099 0.985 . S
H2104 N2098 0.984 . S
H2105 N2098 0.984 . S
H2106 N2094 0.984 . S
H2107 N2094 0.985 . S
C2108 C2109 1.363 . S
C2108 C2114 1.379 . S
C2108 N2116 1.356 . S
C2109 C2108 1.363 . S
C2109 C2115 1.363 . S
C2110 C2111 1.363 . S
C2110 C2115 1.379 . S
C2110 N2117 1.356 1_655 S
C2111 C2110 1.363 . S
C2111 C2114 1.363 . S
N2112 C2114 1.356 . S
N2112 H2124 0.984 . S
N2112 H2125 0.985 . S
N2113 C2115 1.356 . S
N2113 H2118 0.984 . S
N2113 H2119 0.985 . S
C2114 C2108 1.379 . S
C2114 C2111 1.363 . S
C2114 N2112 1.356 . S
C2115 C2109 1.363 . S
C2115 C2110 1.379 . S
C2115 N2113 1.356 . S
N2116 C2108 1.356 . S
N2116 H2122 0.984 . S
N2116 H2123 0.984 . S
N2117 C2110 1.356 1_455 S
N2117 H2120 0.984 . S
N2117 H2121 0.985 . S
H2118 N2113 0.984 . S
H2119 N2113 0.985 . S
H2120 N2117 0.984 . S
H2121 N2117 0.985 . S
H2122 N2116 0.984 . S
H2123 N2116 0.984 . S
H2124 N2112 0.984 . S
H2125 N2112 0.985 . S
C2126 C2127 1.363 . S
C2126 C2132 1.379 . S
C2126 N2134 1.356 . S
C2127 C2126 1.363 . S
C2127 C2133 1.363 . S
C2128 C2129 1.363 . S
C2128 C2133 1.379 . S
C2128 N2135 1.356 . S
C2129 C2128 1.363 . S
C2129 C2132 1.363 . S
N2130 C2132 1.356 . S
N2130 H2142 0.984 . S
N2130 H2143 0.985 . S
N2131 C2133 1.356 . S
N2131 H2136 0.984 . S
N2131 H2137 0.985 . S
C2132 C2126 1.379 . S
C2132 C2129 1.363 . S
C2132 N2130 1.356 . S
C2133 C2127 1.363 . S
C2133 C2128 1.379 . S
C2133 N2131 1.356 . S
N2134 C2126 1.356 . S
N2134 H2140 0.984 . S
N2134 H2141 0.984 . S
N2135 C2128 1.356 . S
N2135 H2138 0.984 . S
N2135 H2139 0.985 . S
H2136 N2131 0.984 . S
H2137 N2131 0.985 . S
H2138 N2135 0.984 . S
H2139 N2135 0.985 . S
H2140 N2134 0.984 . S
H2141 N2134 0.984 . S
H2142 N2130 0.984 . S
H2143 N2130 0.985 . S
C2144 C2145 1.363 . S
C2144 C2150 1.379 . S
C2144 N2152 1.356 . S
C2145 C2144 1.363 . S
C2145 C2151 1.363 . S
C2146 C2147 1.363 . S
C2146 C2151 1.379 . S
C2146 N2153 1.356 . S
C2147 C2146 1.363 . S
C2147 C2150 1.363 . S
N2148 C2150 1.356 . S
N2148 H2160 0.984 . S
N2148 H2161 0.985 . S
N2149 C2151 1.356 . S
N2149 H2154 0.984 . S
N2149 H2155 0.985 . S
C2150 C2144 1.379 . S
C2150 C2147 1.363 . S
C2150 N2148 1.356 . S
C2151 C2145 1.363 . S
C2151 C2146 1.379 . S
C2151 N2149 1.356 . S
N2152 C2144 1.356 . S
N2152 H2158 0.984 . S
N2152 H2159 0.984 . S
N2153 C2146 1.356 . S
N2153 H2156 0.984 . S
N2153 H2157 0.985 . S
H2154 N2149 0.984 . S
H2155 N2149 0.985 . S
H2156 N2153 0.984 . S
H2157 N2153 0.985 . S
H2158 N2152 0.984 . S
H2159 N2152 0.984 . S
H2160 N2148 0.984 . S
H2161 N2148 0.985 . S
C2162 C2163 1.363 . S
C2162 C2168 1.379 . S
C2162 N2170 1.356 . S
C2163 C2162 1.363 . S
C2163 C2169 1.363 . S
C2164 C2165 1.363 . S
C2164 C2169 1.379 . S
C2164 N2171 1.356 . S
C2165 C2164 1.363 . S
C2165 C2168 1.363 . S
N2166 C2168 1.356 . S
N2166 H2178 0.984 . S
N2166 H2179 0.985 . S
N2167 C2169 1.356 . S
N2167 H2172 0.984 . S
N2167 H2173 0.985 . S
C2168 C2162 1.379 . S
C2168 C2165 1.363 . S
C2168 N2166 1.356 . S
C2169 C2163 1.363 . S
C2169 C2164 1.379 . S
C2169 N2167 1.356 . S
N2170 C2162 1.356 . S
N2170 H2176 0.984 . S
N2170 H2177 0.984 . S
N2171 C2164 1.356 . S
N2171 H2174 0.984 . S
N2171 H2175 0.985 . S
H2172 N2167 0.984 . S
H2173 N2167 0.985 . S
H2174 N2171 0.984 . S
H2175 N2171 0.985 . S
H2176 N2170 0.984 . S
H2177 N2170 0.984 . S
H2178 N2166 0.984 . S
H2179 N2166 0.985 . S
C2180 C2181 1.363 . S
C2180 C2186 1.379 . S
C2180 N2188 1.356 . S
C2181 C2180 1.363 . S
C2181 C2187 1.363 . S
C2182 C2183 1.363 . S
C2182 C2187 1.379 . S
C2182 N2189 1.356 . S
C2183 C2182 1.363 . S
C2183 C2186 1.363 . S
N2184 C2186 1.356 1_455 S
N2184 H2196 0.984 . S
N2184 H2197 0.985 . S
N2185 C2187 1.356 . S
N2185 H2190 0.984 . S
N2185 H2191 0.985 . S
C2186 C2180 1.379 . S
C2186 C2183 1.363 . S
C2186 N2184 1.356 1_655 S
C2187 C2181 1.363 . S
C2187 C2182 1.379 . S
C2187 N2185 1.356 . S
N2188 C2180 1.356 . S
N2188 H2194 0.984 1_655 S
N2188 H2195 0.984 . S
N2189 C2182 1.356 . S
N2189 H2192 0.984 . S
N2189 H2193 0.985 . S
H2190 N2185 0.984 . S
H2191 N2185 0.985 . S
H2192 N2189 0.984 . S
H2193 N2189 0.985 . S
H2194 N2188 0.984 1_455 S
H2195 N2188 0.984 . S
H2196 N2184 0.984 . S
H2197 N2184 0.985 . S
C2198 C2199 1.363 . S
C2198 C2204 1.379 . S
C2198 N2206 1.356 . S
C2199 C2198 1.363 . S
C2199 C2205 1.363 . S
C2200 C2201 1.363 . S
C2200 C2205 1.379 . S
C2200 N2207 1.356 . S
C2201 C2200 1.363 . S
C2201 C2204 1.363 . S
N2202 C2204 1.356 . S
N2202 H2214 0.984 . S
N2202 H2215 0.985 . S
N2203 C2205 1.356 . S
N2203 H2208 0.984 . S
N2203 H2209 0.985 . S
C2204 C2198 1.379 . S
C2204 C2201 1.363 . S
C2204 N2202 1.356 . S
C2205 C2199 1.363 . S
C2205 C2200 1.379 . S
C2205 N2203 1.356 . S
N2206 C2198 1.356 . S
N2206 H2212 0.984 . S
N2206 H2213 0.984 . S
N2207 C2200 1.356 . S
N2207 H2210 0.984 . S
N2207 H2211 0.985 . S
H2208 N2203 0.984 . S
H2209 N2203 0.985 . S
H2210 N2207 0.984 . S
H2211 N2207 0.985 . S
H2212 N2206 0.984 . S
H2213 N2206 0.984 . S
H2214 N2202 0.984 . S
H2215 N2202 0.985 . S
C2216 C2217 1.363 . S
C2216 C2222 1.379 . S
C2216 N2224 1.356 . S
C2217 C2216 1.363 . S
C2217 C2223 1.363 . S
C2218 C2219 1.363 . S
C2218 C2223 1.379 . S
C2218 N2225 1.356 . S
C2219 C2218 1.363 . S
C2219 C2222 1.363 . S
N2220 C2222 1.356 . S
N2220 H2232 0.984 . S
N2220 H2233 0.985 . S
N2221 C2223 1.356 . S
N2221 H2226 0.984 . S
N2221 H2227 0.985 . S
C2222 C2216 1.379 . S
C2222 C2219 1.363 . S
C2222 N2220 1.356 . S
C2223 C2217 1.363 . S
C2223 C2218 1.379 . S
C2223 N2221 1.356 . S
N2224 C2216 1.356 . S
N2224 H2230 0.984 . S
N2224 H2231 0.984 . S
N2225 C2218 1.356 . S
N2225 H2228 0.984 . S
N2225 H2229 0.985 . S
H2226 N2221 0.984 . S
H2227 N2221 0.985 . S
H2228 N2225 0.984 . S
H2229 N2225 0.985 . S
H2230 N2224 0.984 . S
H2231 N2224 0.984 . S
H2232 N2220 0.984 . S
H2233 N2220 0.985 . S
C2234 C2235 1.363 . S
C2234 C2240 1.379 . S
C2234 N2242 1.356 . S
C2235 C2234 1.363 . S
C2235 C2241 1.363 . S
C2236 C2237 1.363 . S
C2236 C2241 1.379 . S
C2236 N2243 1.356 1_565 S
C2237 C2236 1.363 . S
C2237 C2240 1.363 . S
N2238 C2240 1.356 . S
N2238 H2250 0.984 . S
N2238 H2251 0.985 . S
N2239 C2241 1.356 . S
N2239 H2244 0.984 . S
N2239 H2245 0.985 1_565 S
C2240 C2234 1.379 . S
C2240 C2237 1.363 . S
C2240 N2238 1.356 . S
C2241 C2235 1.363 . S
C2241 C2236 1.379 . S
C2241 N2239 1.356 . S
N2242 C2234 1.356 . S
N2242 H2248 0.984 . S
N2242 H2249 0.984 . S
N2243 C2236 1.356 1_545 S
N2243 H2246 0.984 . S
N2243 H2247 0.985 . S
H2244 N2239 0.984 . S
H2245 N2239 0.985 1_545 S
H2246 N2243 0.984 . S
H2247 N2243 0.985 . S
H2248 N2242 0.984 . S
H2249 N2242 0.984 . S
H2250 N2238 0.984 . S
H2251 N2238 0.985 . S
C2252 C2253 1.363 . S
C2252 C2258 1.379 . S
C2252 N2260 1.356 . S
C2253 C2252 1.363 . S
C2253 C2259 1.363 . S
C2254 C2255 1.363 . S
C2254 C2259 1.379 . S
C2254 N2261 1.356 . S
C2255 C2254 1.363 . S
C2255 C2258 1.363 . S
N2256 C2258 1.356 . S
N2256 H2268 0.984 . S
N2256 H2269 0.985 . S
N2257 C2259 1.356 . S
N2257 H2262 0.984 . S
N2257 H2263 0.985 . S
C2258 C2252 1.379 . S
C2258 C2255 1.363 . S
C2258 N2256 1.356 . S
C2259 C2253 1.363 . S
C2259 C2254 1.379 . S
C2259 N2257 1.356 . S
N2260 C2252 1.356 . S
N2260 H2266 0.984 . S
N2260 H2267 0.984 . S
N2261 C2254 1.356 . S
N2261 H2264 0.984 . S
N2261 H2265 0.985 . S
H2262 N2257 0.984 . S
H2263 N2257 0.985 . S
H2264 N2261 0.984 . S
H2265 N2261 0.985 . S
H2266 N2260 0.984 . S
H2267 N2260 0.984 . S
H2268 N2256 0.984 . S
H2269 N2256 0.985 . S
C2270 C2271 1.363 . S
C2270 C2276 1.379 . S
C2270 N2278 1.356 . S
C2271 C2270 1.363 . S
C2271 C2277 1.363 1_556 S
C2272 C2273 1.363 1_554 S
C2272 C2277 1.379 . S
C2272 N2279 1.356 . S
C2273 C2272 1.363 1_556 S
C2273 C2276 1.363 . S
N2274 C2276 1.356 . S
N2274 H2286 0.984 . S
N2274 H2287 0.985 . S
N2275 C2277 1.356 . S
N2275 H2280 0.984 . S
N2275 H2281 0.985 . S
C2276 C2270 1.379 . S
C2276 C2273 1.363 . S
C2276 N2274 1.356 . S
C2277 C2271 1.363 1_554 S
C2277 C2272 1.379 . S
C2277 N2275 1.356 . S
N2278 C2270 1.356 . S
N2278 H2284 0.984 . S
N2278 H2285 0.984 . S
N2279 C2272 1.356 . S
N2279 H2282 0.984 . S
N2279 H2283 0.985 . S
H2280 N2275 0.984 . S
H2281 N2275 0.985 . S
H2282 N2279 0.984 . S
H2283 N2279 0.985 . S
H2284 N2278 0.984 . S
H2285 N2278 0.984 . S
H2286 N2274 0.984 . S
H2287 N2274 0.985 . S
C2288 C2289 1.363 . S
C2288 C2294 1.379 . S
C2288 N2296 1.356 . S
C2289 C2288 1.363 . S
C2289 C2295 1.363 . S
C2290 C2291 1.363 . S
C2290 C2295 1.379 . S
C2290 N2297 1.356 . S
C2291 C2290 1.363 . S
C2291 C2294 1.363 . S
N2292 C2294 1.356 . S
N2292 H2304 0.984 . S
N2292 H2305 0.985 . S
N2293 C2295 1.356 . S
N2293 H2298 0.984 . S
N2293 H2299 0.985 . S
C2294 C2288 1.379 . S
C2294 C2291 1.363 . S
C2294 N2292 1.356 . S
C2295 C2289 1.363 . S
C2295 C2290 1.379 . S
C2295 N2293 1.356 . S
N2296 C2288 1.356 . S
N2296 H2302 0.984 . S
N2296 H2303 0.984 . S
N2297 C2290 1.356 . S
N2297 H2300 0.984 . S
N2297 H2301 0.985 . S
H2298 N2293 0.984 . S
H2299 N2293 0.985 . S
H2300 N2297 0.984 . S
H2301 N2297 0.985 . S
H2302 N2296 0.984 . S
H2303 N2296 0.984 . S
H2304 N2292 0.984 . S
H2305 N2292 0.985 . S
C2306 C2307 1.363 . S
C2306 C2312 1.379 1_554 S
C2306 N2314 1.356 1_554 S
C2307 C2306 1.363 . S
C2307 C2313 1.363 . S
C2308 C2309 1.363 . S
C2308 C2313 1.379 . S
C2308 N2315 1.356 . S
C2309 C2308 1.363 . S
C2309 C2312 1.363 1_554 S
N2310 C2312 1.356 . S
N2310 H2322 0.984 . S
N2310 H2323 0.985 . S
N2311 C2313 1.356 . S
N2311 H2316 0.984 . S
N2311 H2317 0.985 . S
C2312 C2306 1.379 1_556 S
C2312 C2309 1.363 1_556 S
C2312 N2310 1.356 . S
C2313 C2307 1.363 . S
C2313 C2308 1.379 . S
C2313 N2311 1.356 . S
N2314 C2306 1.356 1_556 S
N2314 H2320 0.984 . S
N2314 H2321 0.984 1_556 S
N2315 C2308 1.356 . S
N2315 H2318 0.984 . S
N2315 H2319 0.985 . S
H2316 N2311 0.984 . S
H2317 N2311 0.985 . S
H2318 N2315 0.984 . S
H2319 N2315 0.985 . S
H2320 N2314 0.984 . S
H2321 N2314 0.984 1_554 S
H2322 N2310 0.984 . S
H2323 N2310 0.985 . S
C2324 C2325 1.363 . S
C2324 C2330 1.379 . S
C2324 N2332 1.356 . S
C2325 C2324 1.363 . S
C2325 C2331 1.363 . S
C2326 C2327 1.363 . S
C2326 C2331 1.379 . S
C2326 N2333 1.356 . S
C2327 C2326 1.363 . S
C2327 C2330 1.363 . S
N2328 C2330 1.356 . S
N2328 H2340 0.984 . S
N2328 H2341 0.985 . S
N2329 C2331 1.356 . S
N2329 H2334 0.984 . S
N2329 H2335 0.985 . S
C2330 C2324 1.379 . S
C2330 C2327 1.363 . S
C2330 N2328 1.356 . S
C2331 C2325 1.363 . S
C2331 C2326 1.379 . S
C2331 N2329 1.356 . S
N2332 C2324 1.356 . S
N2332 H2338 0.984 . S
N2332 H2339 0.984 . S
N2333 C2326 1.356 . S
N2333 H2336 0.984 . S
N2333 H2337 0.985 . S
H2334 N2329 0.984 . S
H2335 N2329 0.985 . S
H2336 N2333 0.984 . S
H2337 N2333 0.985 . S
H2338 N2332 0.984 . S
H2339 N2332 0.984 . S
H2340 N2328 0.984 . S
H2341 N2328 0.985 . S
C2342 C2343 1.363 . S
C2342 C2348 1.379 . S
C2342 N2350 1.356 . S
C2343 C2342 1.363 . S
C2343 C2349 1.363 . S
C2344 C2345 1.363 . S
C2344 C2349 1.379 . S
C2344 N2351 1.356 . S
C2345 C2344 1.363 . S
C2345 C2348 1.363 . S
N2346 C2348 1.356 . S
N2346 H2358 0.984 . S
N2346 H2359 0.985 . S
N2347 C2349 1.356 . S
N2347 H2352 0.984 . S
N2347 H2353 0.985 . S
C2348 C2342 1.379 . S
C2348 C2345 1.363 . S
C2348 N2346 1.356 . S
C2349 C2343 1.363 . S
C2349 C2344 1.379 . S
C2349 N2347 1.356 . S
N2350 C2342 1.356 . S
N2350 H2356 0.984 . S
N2350 H2357 0.984 . S
N2351 C2344 1.356 . S
N2351 H2354 0.984 . S
N2351 H2355 0.985 . S
H2352 N2347 0.984 . S
H2353 N2347 0.985 . S
H2354 N2351 0.984 . S
H2355 N2351 0.985 . S
H2356 N2350 0.984 . S
H2357 N2350 0.984 . S
H2358 N2346 0.984 . S
H2359 N2346 0.985 . S
C633 C101 1.402 . S
C635 C328 1.352 1_556 S
C651 C57 1.455 . S
C653 C341 1.427 . S
C669 C70 1.381 . S
C671 C360 1.397 . S
C689 C391 1.844 . S
C687 C82 1.863 . S
C705 C23 1.681 . S
C707 C411 1.690 . S
C725 C428 1.021 . S
C723 C29 1.036 . S
C743 C441 1.517 . S
C741 C49 1.509 . S
C759 C10 1.288 . S
C761 C468 1.233 . S
C779 C321 1.383 1_655 S
C777 C218 1.383 . S
C795 C226 1.551 . S
C797 C351 1.560 . S
C815 C353 1.652 . S
C813 C251 1.733 . S
C833 C388 0.934 . S
C831 C159 0.943 . S
C849 C211 1.223 . S
C851 C408 1.213 . S
C869 C421 1.786 . S
C867 C225 1.772 . S
C887 C451 1.409 . S
C885 C252 1.409 . S
C905 C461 1.282 . S
C903 C166 1.317 . S
C923 C331 1.690 1_565 S
C921 C147 1.660 . S
C939 C263 1.703 . S
C941 C481 1.705 1_556 S
C959 C511 1.703 . S
C957 C309 1.658 . S
C977 C528 1.234 . S
C975 C291 1.265 . S
C993 C108 1.906 . S
C995 C471 1.959 . S
C1011 C121 1.405 . S
C1013 C358 1.367 . S
C1029 C302 1.772 . S
C1031 C541 1.780 . S
C1049 C568 1.172 . S
C1047 C276 1.212 . S
C1067 C318 1.392 . S
C1065 C55 1.449 . S
C1085 C553 1.507 . S
C1083 C96 1.537 . S
C1101 C88 1.569 . S
C1103 C371 1.554 . S
C1119 C75 2.040 . S
C1121 C540 1.974 . S
C1139 C400 1.779 . S
C1137 C4 1.820 . S
C1155 C44 1.160 . S
C1157 C498 1.144 . S
C1175 C433 1.560 . S
C1173 C31 1.564 . S
C1193 C578 1.228 . S
C1191 C18 1.279 . S
C1211 C313 1.436 . S
C1209 C133 1.451 . S
C1229 C560 1.695 . S
C1227 C296 1.725 . S
C1245 C107 1.851 . S
C1247 C361 1.789 . S
C1263 C264 1.159 . S
C1265 C538 1.150 . S
C1281 C140 1.389 . S
C1283 C398 1.395 . S
C1301 C493 1.846 . S
C1299 C289 1.841 . S
C1317 C114 1.589 . S
C1319 C440 1.552 . S
C1335 C265 1.402 . S
C1337 C573 1.362 . S
C1353 C179 1.803 . S
C1355 C320 1.764 . S
C1371 C161 1.808 . S
C1373 C473 1.791 . S
C1389 C244 1.818 . S
C1391 C420 1.805 . S
C1407 C224 1.444 . S
C1409 C518 1.412 . S
C1427 C580 1.976 . S
C1425 C257 1.999 . S
C1443 C199 1.473 . S
C1445 C368 1.404 . S
C1463 C373 1.879 . S
C1461 C237 1.895 . S
C1481 C338 1.275 . S
C1479 C185 1.315 . S
C1497 C69 1.402 . S
C1499 C608 1.352 . S
C1517 C561 1.426 . S
C1515 C83 1.454 . S
C1533 C94 1.382 . S
C1535 C620 1.398 1_456 S
C1551 C56 1.863 . S
C1553 C551 1.845 . S
C1569 C42 1.690 . S
C1571 C491 1.697 . S
C1589 C508 1.021 . S
C1587 C3 1.037 . S
C1607 C521 1.526 . S
C1605 C16 1.517 . S
C1625 C588 1.235 . S
C1623 C36 1.290 . S
C1643 C601 1.382 . S
C1641 C238 1.382 . S
C1659 C174 1.550 . S
C1661 C571 1.560 . S
C1679 C613 1.652 . S
C1677 C186 1.733 . S
C1697 C548 0.933 . S
C1695 C198 0.942 . S
C1715 C488 1.214 . S
C1713 C239 1.224 . S
C1731 C173 1.772 . S
C1733 C501 1.787 . S
C1751 C531 1.410 . S
C1749 C187 1.410 . S
C1767 C205 1.318 . S
C1769 C581 1.283 . S
C1787 C611 1.689 . S
C1785 C290 1.659 . S
C1803 C122 1.703 . S
C1805 C401 1.708 . S
C1823 C431 1.706 . S
C1821 C134 1.664 . S
C1841 C448 1.234 1_565 S
C1839 C148 1.265 . S
C1859 C591 1.956 . S
C1857 C283 1.903 . S
C1875 C270 1.404 . S
C1877 C618 1.366 . S
C1895 C381 1.780 . S
C1893 C135 1.768 . S
C1913 C348 1.172 . S
C1911 C109 1.212 . S
C1929 C81 1.449 . S
C1931 C598 1.392 . S
C1949 C333 1.506 . S
C1947 C68 1.536 . S
C1965 C62 1.569 . S
C1967 C631 1.554 . S
C1983 C95 2.039 . S
C1985 C380 1.973 . S
C2001 C30 1.820 . S
C2003 C480 1.779 . S
C2021 C418 1.137 . S
C2019 C17 1.155 . S
C2037 C5 1.564 . S
C2039 C513 1.560 . S
C2055 C43 1.271 . S
C2057 C458 1.221 . S
C2075 C593 1.436 . S
C2073 C304 1.451 . S
C2091 C153 1.724 . S
C2093 C340 1.694 . S
C2111 C621 1.789 . S
C2109 C278 1.851 . S
C2127 C127 1.158 . S
C2129 C378 1.149 . S
C2145 C303 1.385 . S
C2147 C478 1.383 . S
C2165 C413 1.845 . S
C2163 C146 1.840 . S
C2181 C277 1.585 . S
C2183 C520 1.547 . S
C2201 C453 1.361 . S
C2199 C120 1.400 . S
C2219 C600 1.764 . S
C2217 C231 1.803 . S
C2237 C393 1.791 . S
C2235 C200 1.807 . S
C2253 C212 1.819 . S
C2255 C500 1.806 . S
C2273 C438 1.412 1_556 S
C2271 C172 1.443 . S
C2289 C192 1.998 . S
C2291 C460 1.974 . S
C2307 C160 1.473 . S
C2309 C628 1.404 . S
C2327 C533 1.880 . S
C2325 C213 1.896 . S
C2345 C558 1.275 . S
C2343 C250 1.316 . S
