# Generated by pormake.
# Topology gar, (4,6)-cn, num edge types: 1
# Building blocks:
#     Node 0, Type 0, BuildingBlock: TATPOV_clean_sbu_0, # of connection points: 4
#     Node 1, Type 0, BuildingBlock: TATPOV_clean_sbu_0, # of connection points: 4
#     Node 2, Type 0, BuildingBlock: TATPOV_clean_sbu_0, # of connection points: 4
#     Node 3, Type 0, BuildingBlock: TATPOV_clean_sbu_0, # of connection points: 4
#     Node 4, Type 0, BuildingBlock: TATPOV_clean_sbu_0, # of connection points: 4
#     Node 5, Type 0, BuildingBlock: TATPOV_clean_sbu_0, # of connection points: 4
#     Node 6, Type 0, BuildingBlock: TATPOV_clean_sbu_0, # of connection points: 4
#     Node 7, Type 0, BuildingBlock: TATPOV_clean_sbu_0, # of connection points: 4
#     Node 8, Type 0, BuildingBlock: TATPOV_clean_sbu_0, # of connection points: 4
#     Node 9, Type 0, BuildingBlock: TATPOV_clean_sbu_0, # of connection points: 4
#     Node 10, Type 0, BuildingBlock: TATPOV_clean_sbu_0, # of connection points: 4
#     Node 11, Type 0, BuildingBlock: TATPOV_clean_sbu_0, # of connection points: 4
#     Node 12, Type 0, BuildingBlock: TATPOV_clean_sbu_0, # of connection points: 4
#     Node 13, Type 0, BuildingBlock: TATPOV_clean_sbu_0, # of connection points: 4
#     Node 14, Type 0, BuildingBlock: TATPOV_clean_sbu_0, # of connection points: 4
#     Node 15, Type 0, BuildingBlock: TATPOV_clean_sbu_0, # of connection points: 4
#     Node 16, Type 0, BuildingBlock: TATPOV_clean_sbu_0, # of connection points: 4
#     Node 17, Type 0, BuildingBlock: TATPOV_clean_sbu_0, # of connection points: 4
#     Node 18, Type 0, BuildingBlock: TATPOV_clean_sbu_0, # of connection points: 4
#     Node 19, Type 0, BuildingBlock: TATPOV_clean_sbu_0, # of connection points: 4
#     Node 20, Type 0, BuildingBlock: TATPOV_clean_sbu_0, # of connection points: 4
#     Node 21, Type 0, BuildingBlock: TATPOV_clean_sbu_0, # of connection points: 4
#     Node 22, Type 0, BuildingBlock: TATPOV_clean_sbu_0, # of connection points: 4
#     Node 23, Type 0, BuildingBlock: TATPOV_clean_sbu_0, # of connection points: 4
#     Node 24, Type 1, BuildingBlock: BETDEL_clean_sbu_0, # of connection points: 6
#     Node 25, Type 1, BuildingBlock: BETDEL_clean_sbu_0, # of connection points: 6
#     Node 26, Type 1, BuildingBlock: BETDEL_clean_sbu_0, # of connection points: 6
#     Node 27, Type 1, BuildingBlock: BETDEL_clean_sbu_0, # of connection points: 6
#     Node 28, Type 1, BuildingBlock: BETDEL_clean_sbu_0, # of connection points: 6
#     Node 29, Type 1, BuildingBlock: BETDEL_clean_sbu_0, # of connection points: 6
#     Node 30, Type 1, BuildingBlock: BETDEL_clean_sbu_0, # of connection points: 6
#     Node 31, Type 1, BuildingBlock: BETDEL_clean_sbu_0, # of connection points: 6
#     Node 32, Type 1, BuildingBlock: BETDEL_clean_sbu_0, # of connection points: 6
#     Node 33, Type 1, BuildingBlock: BETDEL_clean_sbu_0, # of connection points: 6
#     Node 34, Type 1, BuildingBlock: BETDEL_clean_sbu_0, # of connection points: 6
#     Node 35, Type 1, BuildingBlock: BETDEL_clean_sbu_0, # of connection points: 6
#     Node 36, Type 1, BuildingBlock: BETDEL_clean_sbu_0, # of connection points: 6
#     Node 37, Type 1, BuildingBlock: BETDEL_clean_sbu_0, # of connection points: 6
#     Node 38, Type 1, BuildingBlock: BETDEL_clean_sbu_0, # of connection points: 6
#     Node 39, Type 1, BuildingBlock: BETDEL_clean_sbu_0, # of connection points: 6
#     Edge 40, Type (0, 1), None
#     Edge 41, Type (0, 1), None
#     Edge 42, Type (0, 1), None
#     Edge 43, Type (0, 1), None
#     Edge 44, Type (0, 1), None
#     Edge 45, Type (0, 1), None
#     Edge 46, Type (0, 1), None
#     Edge 47, Type (0, 1), None
#     Edge 48, Type (0, 1), None
#     Edge 49, Type (0, 1), None
#     Edge 50, Type (0, 1), None
#     Edge 51, Type (0, 1), None
#     Edge 52, Type (0, 1), None
#     Edge 53, Type (0, 1), None
#     Edge 54, Type (0, 1), None
#     Edge 55, Type (0, 1), None
#     Edge 56, Type (0, 1), None
#     Edge 57, Type (0, 1), None
#     Edge 58, Type (0, 1), None
#     Edge 59, Type (0, 1), None
#     Edge 60, Type (0, 1), None
#     Edge 61, Type (0, 1), None
#     Edge 62, Type (0, 1), None
#     Edge 63, Type (0, 1), None
#     Edge 64, Type (0, 1), None
#     Edge 65, Type (0, 1), None
#     Edge 66, Type (0, 1), None
#     Edge 67, Type (0, 1), None
#     Edge 68, Type (0, 1), None
#     Edge 69, Type (0, 1), None
#     Edge 70, Type (0, 1), None
#     Edge 71, Type (0, 1), None
#     Edge 72, Type (0, 1), None
#     Edge 73, Type (0, 1), None
#     Edge 74, Type (0, 1), None
#     Edge 75, Type (0, 1), None
#     Edge 76, Type (0, 1), None
#     Edge 77, Type (0, 1), None
#     Edge 78, Type (0, 1), None
#     Edge 79, Type (0, 1), None
#     Edge 80, Type (0, 1), None
#     Edge 81, Type (0, 1), None
#     Edge 82, Type (0, 1), None
#     Edge 83, Type (0, 1), None
#     Edge 84, Type (0, 1), None
#     Edge 85, Type (0, 1), None
#     Edge 86, Type (0, 1), None
#     Edge 87, Type (0, 1), None
#     Edge 88, Type (0, 1), None
#     Edge 89, Type (0, 1), None
#     Edge 90, Type (0, 1), None
#     Edge 91, Type (0, 1), None
#     Edge 92, Type (0, 1), None
#     Edge 93, Type (0, 1), None
#     Edge 94, Type (0, 1), None
#     Edge 95, Type (0, 1), None
#     Edge 96, Type (0, 1), None
#     Edge 97, Type (0, 1), None
#     Edge 98, Type (0, 1), None
#     Edge 99, Type (0, 1), None
#     Edge 100, Type (0, 1), None
#     Edge 101, Type (0, 1), None
#     Edge 102, Type (0, 1), None
#     Edge 103, Type (0, 1), None
#     Edge 104, Type (0, 1), None
#     Edge 105, Type (0, 1), None
#     Edge 106, Type (0, 1), None
#     Edge 107, Type (0, 1), None
#     Edge 108, Type (0, 1), None
#     Edge 109, Type (0, 1), None
#     Edge 110, Type (0, 1), None
#     Edge 111, Type (0, 1), None
#     Edge 112, Type (0, 1), None
#     Edge 113, Type (0, 1), None
#     Edge 114, Type (0, 1), None
#     Edge 115, Type (0, 1), None
#     Edge 116, Type (0, 1), None
#     Edge 117, Type (0, 1), None
#     Edge 118, Type (0, 1), None
#     Edge 119, Type (0, 1), None
#     Edge 120, Type (0, 1), None
#     Edge 121, Type (0, 1), None
#     Edge 122, Type (0, 1), None
#     Edge 123, Type (0, 1), None
#     Edge 124, Type (0, 1), None
#     Edge 125, Type (0, 1), None
#     Edge 126, Type (0, 1), None
#     Edge 127, Type (0, 1), None
#     Edge 128, Type (0, 1), None
#     Edge 129, Type (0, 1), None
#     Edge 130, Type (0, 1), None
#     Edge 131, Type (0, 1), None
#     Edge 132, Type (0, 1), None
#     Edge 133, Type (0, 1), None
#     Edge 134, Type (0, 1), None
#     Edge 135, Type (0, 1), None
# Relax obj value: 0.193
# Max RMSD: 0.319
# Mean RMSD: 0.180
data_MOF--net-gar--node1-TATPOV_clean_sbu_0--node2-BETDEL_clean_sbu_0--edge1-none
_symmetry_space_group_name_H-M    P1
_symmetry_Int_Tables_number       1
_symmetry_cell_setting            triclinic
loop_
_symmetry_equiv_pos_as_xyz
'x, y, z'
_cell_length_a     26.454672
_cell_length_b     24.269936
_cell_length_c     25.744546
_cell_angle_alpha  94.73024
_cell_angle_beta   90.267803
_cell_angle_gamma 100.41148
loop_
_atom_site_label
_atom_site_type_symbol
_atom_site_fract_x
_atom_site_fract_y
_atom_site_fract_z
_atom_type_partial_charge
Zn0 Zn 0.99901 0.27693 0.4827 0.0
Zn1 Zn 0.06374 0.27417 0.41139 0.0
O2 O 0.07508 0.353 0.45348 0.0
O3 O 0.04183 0.33528 0.52947 0.0
O4 O 0.12634 0.27383 0.36379 0.0
O5 O 0.98602 0.20023 0.5048 0.0
O6 O 0.04815 0.1972 0.44801 0.0
C7 C 0.06636 0.36946 0.50033 0.0
C8 C 0.96643 0.29688 0.3776 0.0
O9 O 0.00665 0.27955 0.36197 0.0
O10 O 0.95623 0.30072 0.4257 0.0
C11 C 0.13308 0.23304 0.33157 0.0
O12 O 0.10005 0.18548 0.32967 0.0
C13 C 0.01733 0.17387 0.48165 0.0
Zn14 Zn 0.98458 0.66399 0.64895 0.0
Zn15 Zn 0.00924 0.75735 0.60957 0.0
O16 O 0.94693 0.77174 0.65864 0.0
O17 O 0.93855 0.69492 0.69964 0.0
O18 O 0.03362 0.83081 0.57838 0.0
O19 O 0.05605 0.66199 0.67349 0.0
O20 O 0.07363 0.74818 0.64876 0.0
C21 C 0.92687 0.74259 0.69501 0.0
C22 C 0.98155 0.64569 0.54108 0.0
O23 O 0.00178 0.69756 0.54651 0.0
O24 O 0.96014 0.62293 0.57968 0.0
C25 C 0.05097 0.83925 0.53305 0.0
O26 O 0.05171 0.79671 0.49827 0.0
C27 C 0.08743 0.70709 0.66916 0.0
Zn28 Zn 0.49901 0.77695 0.9827 0.0
Zn29 Zn 0.56375 0.77419 0.91139 0.0
O30 O 0.57508 0.85302 0.95348 0.0
O31 O 0.54183 0.8353 0.02947 0.0
O32 O 0.62635 0.77384 0.86379 0.0
O33 O 0.48602 0.70025 0.00481 0.0
O34 O 0.54816 0.69722 0.94802 0.0
C35 C 0.56636 0.86948 0.00033 0.0
C36 C 0.46643 0.79689 0.87759 0.0
O37 O 0.50666 0.77956 0.86196 0.0
O38 O 0.45623 0.80073 0.9257 0.0
C39 C 0.63308 0.73305 0.83158 0.0
O40 O 0.60004 0.68549 0.82968 0.0
C41 C 0.51733 0.67389 0.98166 0.0
Zn42 Zn 0.48458 0.164 0.14895 0.0
Zn43 Zn 0.50924 0.25737 0.10957 0.0
O44 O 0.44693 0.27175 0.15865 0.0
O45 O 0.43855 0.19493 0.19965 0.0
O46 O 0.53362 0.33083 0.07838 0.0
O47 O 0.55606 0.162 0.17348 0.0
O48 O 0.57363 0.24819 0.14876 0.0
C49 C 0.42688 0.24262 0.19501 0.0
C50 C 0.48155 0.14571 0.04108 0.0
O51 O 0.50178 0.19758 0.04651 0.0
O52 O 0.46014 0.12294 0.07967 0.0
C53 C 0.55097 0.33926 0.03305 0.0
O54 O 0.55171 0.29673 -0.00172 0.0
C55 C 0.58744 0.2071 0.16916 0.0
Zn56 Zn 0.15121 0.78399 0.07834 0.0
Zn57 Zn 0.06572 0.764 0.13422 0.0
O58 O 0.0489 0.82845 0.09351 0.0
O59 O 0.11921 0.84602 0.04775 0.0
O60 O 0.00217 0.74156 0.17363 0.0
O61 O 0.13579 0.70454 0.0422 0.0
O62 O 0.06393 0.69324 0.0862 0.0
C63 C 0.07454 0.85512 0.0588 0.0
C64 C 0.17154 0.78954 0.19081 0.0
O65 O 0.12267 0.77869 0.19289 0.0
O66 O 0.19281 0.79475 0.14703 0.0
C67 C 0.99302 0.76861 0.21562 0.0
O68 O 0.02597 0.81308 0.23415 0.0
C69 C 0.09318 0.67491 0.0526 0.0
Zn70 Zn 0.42117 0.72358 0.43023 0.0
Zn71 Zn 0.5032 0.73604 0.37099 0.0
O72 O 0.511 0.81127 0.41403 0.0
O73 O 0.44127 0.80461 0.46143 0.0
O74 O 0.56238 0.74372 0.32584 0.0
O75 O 0.45235 0.6625 0.4631 0.0
O76 O 0.52078 0.6758 0.41452 0.0
C77 C 0.48363 0.83248 0.44789 0.0
C78 C 0.39727 0.71184 0.3183 0.0
O79 O 0.44581 0.72025 0.31464 0.0
O80 O 0.37726 0.71034 0.36292 0.0
C81 C 0.58514 0.7896 0.31039 0.0
O82 O 0.56955 0.83689 0.32446 0.0
C83 C 0.49655 0.65238 0.45148 0.0
Zn84 Zn 0.65121 0.28398 0.57833 0.0
Zn85 Zn 0.56573 0.26399 0.63421 0.0
O86 O 0.5489 0.32844 0.5935 0.0
O87 O 0.61922 0.34601 0.54774 0.0
O88 O 0.50218 0.24154 0.67362 0.0
O89 O 0.63579 0.20453 0.54219 0.0
O90 O 0.56394 0.19323 0.58619 0.0
C91 C 0.57455 0.35511 0.5588 0.0
C92 C 0.67154 0.28953 0.6908 0.0
O93 O 0.62267 0.27868 0.69288 0.0
O94 O 0.69282 0.29474 0.64702 0.0
C95 C 0.49302 0.2686 0.71561 0.0
O96 O 0.52598 0.31307 0.73414 0.0
C97 C 0.59318 0.1749 0.55259 0.0
Zn98 Zn 0.92118 0.22359 0.93023 0.0
Zn99 Zn 0.00321 0.23606 0.871 0.0
O100 O 0.01101 0.31128 0.91403 0.0
O101 O 0.94128 0.30463 0.96142 0.0
O102 O 0.0624 0.24373 0.82585 0.0
O103 O 0.95236 0.16251 0.9631 0.0
O104 O 0.02079 0.17581 0.91453 0.0
C105 C 0.98362 0.33249 0.9479 0.0
C106 C 0.89728 0.21185 0.81829 0.0
O107 O 0.94583 0.22026 0.81464 0.0
O108 O 0.87727 0.21035 0.86291 0.0
C109 C 0.08516 0.28961 0.81039 0.0
O110 O 0.06957 0.3369 0.82446 0.0
C111 C 0.99656 0.15239 0.95149 0.0
Zn112 Zn 0.46887 0.93577 0.29864 0.0
Zn113 Zn 0.42323 0.01678 0.30755 0.0
O114 O 0.47733 0.03437 0.36534 0.0
O115 O 0.53244 -0.01414 0.32992 0.0
O116 O 0.37086 0.06463 0.31621 0.0
O117 O 0.45616 0.93697 0.22198 0.0
O118 O 0.45249 0.02686 0.2372 0.0
C119 C 0.52233 0.02265 0.36382 0.0
C120 C 0.37403 0.89913 0.32484 0.0
O121 O 0.37511 0.94518 0.30585 0.0
O122 O 0.41564 0.887 0.34065 0.0
C123 C 0.32908 0.04849 0.28986 0.0
O124 O 0.32429 0.00507 0.25511 0.0
C125 C 0.45689 -0.01508 0.20591 0.0
Zn126 Zn 0.21081 0.22147 0.49667 0.0
Zn127 Zn 0.28223 0.16124 0.49113 0.0
O128 O 0.29785 0.20679 0.4228 0.0
O129 O 0.2403 0.26159 0.43243 0.0
O130 O 0.3413 0.12068 0.49897 0.0
O131 O 0.22575 0.25292 0.57222 0.0
O132 O 0.28678 0.20239 0.56744 0.0
C133 C 0.27662 0.24581 0.40647 0.0
C134 C 0.172 0.09956 0.48561 0.0
O135 O 0.21927 0.09551 0.48314 0.0
O136 O 0.1593 0.14767 0.48986 0.0
C137 C 0.34876 0.07657 0.47244 0.0
O138 O 0.31831 0.05519 0.43261 0.0
C139 C 0.26169 0.23481 0.59411 0.0
Zn140 Zn 0.11796 0.08286 0.80974 0.0
Zn141 Zn 0.16801 0.00116 0.79137 0.0
O142 O 0.11404 0.97508 0.84984 0.0
O143 O 0.08549 0.05335 0.87228 0.0
O144 O 0.20681 0.93463 0.77555 0.0
O145 O 0.07675 0.06553 0.74546 0.0
O146 O 0.12886 0.00592 0.72366 0.0
C147 C 0.08438 0.00176 0.87701 0.0
C148 C 0.22252 0.12583 0.8003 0.0
O149 O 0.2253 0.07368 0.79949 0.0
O150 O 0.17991 0.14171 0.80595 0.0
C151 C 0.2536 0.92943 0.78295 0.0
O152 O 0.28666 0.97159 0.80553 0.0
C153 C 0.09311 0.03215 0.7124 0.0
Zn154 Zn 0.34661 0.83584 0.95601 0.0
Zn155 Zn 0.28177 0.89423 0.97899 0.0
O156 O 0.25488 0.84022 0.91034 0.0
O157 O 0.30217 0.77466 0.91396 0.0
O158 O 0.2314 0.94787 0.0004 0.0
O159 O 0.36243 0.82215 0.02825 0.0
O160 O 0.29012 0.85333 0.04437 0.0
C161 C 0.26605 0.79269 0.89305 0.0
C162 C 0.38926 0.94365 0.94873 0.0
O163 O 0.34966 0.94776 0.97522 0.0
O164 O 0.39204 0.898 0.92282 0.0
C165 C 0.23612 0.00014 0.99321 0.0
O166 O 0.27345 0.02384 0.96454 0.0
C167 C 0.32744 0.83112 0.05915 0.0
Zn168 Zn 0.36174 0.28883 0.02632 0.0
Zn169 Zn 0.29146 0.35013 0.03712 0.0
O170 O 0.28266 0.31481 0.95876 0.0
O171 O 0.34219 0.26231 0.9505 0.0
O172 O 0.23305 0.39282 0.04084 0.0
O173 O 0.33356 0.24482 0.09001 0.0
O174 O 0.27603 0.29904 0.10203 0.0
C175 C 0.30705 0.28317 0.93018 0.0
C176 C 0.40314 0.4103 0.03466 0.0
O177 O 0.35629 0.41456 0.042 0.0
O178 O 0.41547 0.36197 0.0299 0.0
C179 C 0.23218 0.43105 0.01018 0.0
O180 O 0.2701 0.44335 0.97797 0.0
C181 C 0.29653 0.25863 0.1163 0.0
Zn182 Zn 0.72945 0.19027 0.06218 0.0
Zn183 Zn 0.79138 0.12738 0.04175 0.0
O184 O 0.78563 0.1609 0.97137 0.0
O185 O 0.71651 0.19835 0.98766 0.0
O186 O 0.84054 0.06959 0.03375 0.0
O187 O 0.77079 0.25183 0.10468 0.0
O188 O 0.81838 0.18623 0.10705 0.0
C189 C 0.74882 0.1837 0.95598 0.0
C190 C 0.68164 0.08756 0.07169 0.0
O191 O 0.72095 0.07976 0.04616 0.0
O192 O 0.68161 0.13369 0.09795 0.0
C193 C 0.83571 0.0202 0.01011 0.0
O194 O 0.79365 -0.00168 0.98309 0.0
C195 C 0.80772 0.23395 0.12432 0.0
Zn196 Zn 0.10099 0.57561 0.20525 0.0
Zn197 Zn 0.14303 0.49199 0.20735 0.0
O198 O 0.11012 0.49075 0.27764 0.0
O199 O 0.10695 0.58124 0.28334 0.0
O200 O 0.18955 0.43712 0.20443 0.0
O201 O 0.03868 0.52655 0.17061 0.0
O202 O 0.09483 0.47493 0.1439 0.0
C203 C 0.1054 0.5359 0.30454 0.0
C204 C 0.19961 0.60428 0.18598 0.0
O205 O 0.19493 0.56015 0.20895 0.0
O206 O 0.16042 0.61656 0.1647 0.0
C207 C 0.23527 0.44944 0.22318 0.0
O208 O 0.25252 0.49874 0.2479 0.0
C209 C 0.05082 0.48834 0.13953 0.0
Zn210 Zn 0.86173 0.78882 0.52632 0.0
Zn211 Zn 0.79146 0.85012 0.53712 0.0
O212 O 0.78266 0.81481 0.45876 0.0
O213 O 0.84218 0.76231 0.4505 0.0
O214 O 0.73305 0.89282 0.54085 0.0
O215 O 0.83355 0.74481 0.59001 0.0
O216 O 0.77603 0.79903 0.60203 0.0
C217 C 0.80704 0.78317 0.43018 0.0
C218 C 0.90314 0.91028 0.53466 0.0
O219 O 0.85629 0.91455 0.54201 0.0
O220 O 0.91547 0.86196 0.5299 0.0
C221 C 0.73218 0.93103 0.51017 0.0
O222 O 0.77009 0.94333 0.47796 0.0
C223 C 0.79652 0.75862 0.6163 0.0
Zn224 Zn 0.95241 0.94271 0.20725 0.0
Zn225 Zn 0.90753 0.0224 0.22454 0.0
O226 O 0.94577 0.01373 0.29228 0.0
O227 O 0.00086 0.95922 0.26598 0.0
O228 O 0.87028 0.09079 0.24087 0.0
O229 O 0.97861 0.96052 0.13992 0.0
O230 O 0.96242 0.04432 0.16544 0.0
C231 C 0.98293 -0.01143 0.30139 0.0
C232 C 0.85093 0.90037 0.21972 0.0
O233 O 0.84834 0.95198 0.21577 0.0
O234 O 0.89349 0.88424 0.21774 0.0
C235 C 0.82477 0.09713 0.22846 0.0
O236 O 0.79465 0.05706 0.19972 0.0
C237 C 0.98577 0.0127 0.13561 0.0
Zn238 Zn 0.22944 0.69025 0.56218 0.0
Zn239 Zn 0.29137 0.62737 0.54175 0.0
O240 O 0.28562 0.66089 0.47138 0.0
O241 O 0.2165 0.69834 0.48767 0.0
O242 O 0.34054 0.56959 0.53375 0.0
O243 O 0.27078 0.75181 0.60468 0.0
O244 O 0.31838 0.68622 0.60705 0.0
C245 C 0.24881 0.68369 0.45599 0.0
C246 C 0.18164 0.58753 0.5717 0.0
O247 O 0.22095 0.57974 0.54616 0.0
O248 O 0.18161 0.63366 0.59796 0.0
C249 C 0.33571 0.52019 0.51012 0.0
O250 O 0.29365 0.4983 0.4831 0.0
C251 C 0.30771 0.73394 0.62432 0.0
Zn252 Zn 0.45242 0.44271 0.70726 0.0
Zn253 Zn 0.40754 0.5224 0.72453 0.0
O254 O 0.44577 0.51374 0.79228 0.0
O255 O 0.50087 0.45924 0.76599 0.0
O256 O 0.37028 0.59079 0.74087 0.0
O257 O 0.47861 0.46052 0.63992 0.0
O258 O 0.46242 0.54432 0.66544 0.0
C259 C 0.48293 0.48858 0.80139 0.0
C260 C 0.35095 0.40037 0.71972 0.0
O261 O 0.34834 0.45197 0.71576 0.0
O262 O 0.39351 0.38424 0.71775 0.0
C263 C 0.32477 0.59712 0.72846 0.0
O264 O 0.29465 0.55706 0.69973 0.0
C265 C 0.48578 0.5127 0.63561 0.0
Zn266 Zn 0.60101 0.07562 0.70524 0.0
Zn267 Zn 0.64303 -0.008 0.70734 0.0
O268 O 0.61013 -0.00922 0.77764 0.0
O269 O 0.60696 0.08126 0.78333 0.0
O270 O 0.68956 0.93713 0.70443 0.0
O271 O 0.5387 0.02657 0.67059 0.0
O272 O 0.59483 0.97494 0.64389 0.0
C273 C 0.6054 0.03591 0.80453 0.0
C274 C 0.69962 0.10428 0.68597 0.0
O275 O 0.69494 0.06015 0.70894 0.0
O276 O 0.66044 0.11657 0.66469 0.0
C277 C 0.73528 0.94944 0.72317 0.0
O278 O 0.75253 -0.00125 0.74789 0.0
C279 C 0.55083 -0.01165 0.63953 0.0
Zn280 Zn 0.71081 0.72148 -0.00333 0.0
Zn281 Zn 0.78223 0.66125 0.99113 0.0
O282 O 0.79785 0.7068 0.9228 0.0
O283 O 0.74031 0.7616 0.93243 0.0
O284 O 0.8413 0.62069 -0.00102 0.0
O285 O 0.72575 0.75293 0.07222 0.0
O286 O 0.78678 0.7024 0.06744 0.0
C287 C 0.77663 0.74582 0.90647 0.0
C288 C 0.672 0.59958 0.98561 0.0
O289 O 0.71927 0.59552 0.98314 0.0
O290 O 0.6593 0.64769 0.98986 0.0
C291 C 0.84876 0.57658 0.97245 0.0
O292 O 0.81831 0.5552 0.93261 0.0
C293 C 0.76169 0.73483 0.09411 0.0
Zn294 Zn 0.96887 0.43578 0.79866 0.0
Zn295 Zn 0.92323 0.51679 0.80755 0.0
O296 O 0.97733 0.53438 0.86535 0.0
O297 O 0.03244 0.48586 0.82993 0.0
O298 O 0.87086 0.56463 0.81621 0.0
O299 O 0.95616 0.43697 0.722 0.0
O300 O 0.95249 0.52686 0.73721 0.0
C301 C 0.02233 0.52266 0.86382 0.0
C302 C 0.87403 0.39913 0.82484 0.0
O303 O 0.87512 0.44518 0.80586 0.0
O304 O 0.91564 0.38701 0.84067 0.0
C305 C 0.82907 0.54849 0.78987 0.0
O306 O 0.82428 0.50507 0.75513 0.0
C307 C 0.95689 0.48492 0.70591 0.0
Zn308 Zn 0.84661 0.33584 0.456 0.0
Zn309 Zn 0.78177 0.39423 0.47899 0.0
O310 O 0.75488 0.34022 0.41033 0.0
O311 O 0.80217 0.27466 0.41396 0.0
O312 O 0.7314 0.44788 0.5004 0.0
O313 O 0.86243 0.32216 0.52825 0.0
O314 O 0.79012 0.35333 0.54436 0.0
C315 C 0.76604 0.29269 0.39305 0.0
C316 C 0.88926 0.44365 0.44872 0.0
O317 O 0.84966 0.44776 0.47522 0.0
O318 O 0.89203 0.398 0.42281 0.0
C319 C 0.73612 0.50014 0.4932 0.0
O320 O 0.77345 0.52384 0.46454 0.0
C321 C 0.82744 0.33113 0.55914 0.0
Zn322 Zn 0.61796 0.58286 0.30974 0.0
Zn323 Zn 0.66801 0.50116 0.29137 0.0
O324 O 0.61404 0.47507 0.34984 0.0
O325 O 0.58549 0.55335 0.37228 0.0
O326 O 0.70681 0.43463 0.27555 0.0
O327 O 0.57675 0.56553 0.24546 0.0
O328 O 0.62885 0.50593 0.22366 0.0
C329 C 0.58438 0.50175 0.37701 0.0
C330 C 0.72252 0.62584 0.30031 0.0
O331 O 0.7253 0.57368 0.29949 0.0
O332 O 0.6799 0.64171 0.30595 0.0
C333 C 0.7536 0.42943 0.28295 0.0
O334 O 0.78665 0.47159 0.30554 0.0
C335 C 0.59311 0.53216 0.2124 0.0
Dy336 Dy 0.97703 0.96981 0.99024 0.0
C337 C 0.19483 0.0308 0.00991 0.0
C338 C 0.88078 -0.0081 0.00845 0.0
Dy339 Dy 0.09382 0.03796 0.02326 0.0
O340 O 0.89079 0.95358 0.97265 0.0
O341 O 0.92195 0.0131 0.03564 0.0
O342 O 0.00831 0.94053 0.91105 0.0
O343 O 0.04571 0.00862 0.95735 0.0
C344 C 0.05139 0.97727 0.91806 0.0
C345 C 0.02052 0.03264 0.09439 0.0
O346 O 0.06359 0.10806 0.98749 0.0
O347 O 0.97857 0.05945 0.9735 0.0
O348 O 0.16958 0.02205 0.0526 0.0
O349 O 0.16651 0.05028 0.9769 0.0
O350 O 0.06232 0.07158 0.0999 0.0
O351 O 0.02604 -0.00174 0.05695 0.0
O352 O 0.00567 0.9026 0.03148 0.0
O353 O 0.09217 0.94393 0.02353 0.0
C354 C 0.01426 0.10542 0.97361 0.0
C355 C 0.0559 0.90163 0.03573 0.0
Dy356 Dy 0.31488 0.76565 0.20167 0.0
C357 C 0.24545 0.69749 0.4025 0.0
C358 C 0.32816 0.81239 0.11093 0.0
Dy359 Dy 0.25599 0.73854 0.30872 0.0
O360 O 0.35127 0.77219 0.12374 0.0
O361 O 0.30038 0.82882 0.14838 0.0
O362 O 0.37863 0.71886 0.22463 0.0
O363 O 0.33221 0.75009 0.27931 0.0
C364 C 0.36507 0.7193 0.27348 0.0
C365 C 0.20379 0.78265 0.23616 0.0
O366 O 0.31244 0.8164 0.33382 0.0
O367 O 0.33338 0.84693 0.25148 0.0
O368 O 0.22282 0.73747 0.38826 0.0
O369 O 0.2702 0.67702 0.36441 0.0
O370 O 0.1899 0.78207 0.28488 0.0
O371 O 0.23842 0.75395 0.23105 0.0
O372 O 0.25938 0.68777 0.17634 0.0
O373 O 0.24065 0.65676 0.25909 0.0
C374 C 0.33463 0.85448 0.30324 0.0
C375 C 0.2389 0.64916 0.2072 0.0
Dy376 Dy 0.59797 -0.00442 0.49281 0.0
C377 C 0.39265 0.05116 0.48587 0.0
C378 C 0.68654 0.95666 0.50657 0.0
Dy379 Dy 0.48062 0.01349 0.50727 0.0
O380 O 0.67976 -0.00844 0.47256 0.0
O381 O 0.64527 0.94347 0.53344 0.0
O382 O 0.60094 0.03402 0.41526 0.0
O383 O 0.53212 -0.0017 0.44659 0.0
C384 C 0.551 0.02822 0.41204 0.0
C385 C 0.52601 0.98077 0.58887 0.0
O386 O 0.4658 0.92227 0.47967 0.0
O387 O 0.55157 0.90877 0.47328 0.0
O388 O 0.41871 0.06279 0.52959 0.0
O389 O 0.41347 0.01744 0.45452 0.0
O390 O 0.47598 0.97346 0.58324 0.0
O391 O 0.54649 0.01139 0.55498 0.0
O392 O 0.6116 0.08337 0.52952 0.0
O393 O 0.52857 0.1009 0.51496 0.0
C394 C 0.50098 0.8903 0.46962 0.0
C395 C 0.57789 0.11767 0.52882 0.0
Dy396 Dy 0.23272 0.28265 0.76593 0.0
C397 C 0.44164 0.25684 0.73647 0.0
C398 C 0.13467 0.28956 0.7873 0.0
Dy399 Dy 0.34056 0.24732 0.75728 0.0
O400 O 0.17229 0.33219 0.79148 0.0
O401 O 0.15046 0.24356 0.77128 0.0
O402 O 0.25929 0.36063 0.7244 0.0
O403 O 0.31112 0.32503 0.76804 0.0
C404 C 0.30714 0.36067 0.73591 0.0
C405 C 0.26626 0.16729 0.78545 0.0
O406 O 0.33956 0.26674 0.84405 0.0
O407 O 0.25519 0.28251 0.85137 0.0
O408 O 0.40635 0.21477 0.71899 0.0
O409 O 0.42207 0.29268 0.76658 0.0
O410 O 0.31458 0.16587 0.79425 0.0
O411 O 0.26206 0.20462 0.755 0.0
O412 O 0.23026 0.25464 0.68041 0.0
O413 O 0.31629 0.24528 0.67209 0.0
C414 C 0.29969 0.27636 0.87246 0.0
C415 C 0.2702 0.24632 0.6515 0.0
Dy416 Dy 0.03725 -0.0065 0.45181 0.0
C417 C 0.07315 0.02716 0.65991 0.0
C418 C 0.002 -0.0109 0.35382 0.0
Dy419 Dy 0.03767 0.0185 0.56139 0.0
O420 O 0.04387 0.97184 0.36644 0.0
O421 O 0.97797 0.00491 0.39439 0.0
O422 O 0.12406 0.01033 0.44789 0.0
O423 O 0.08732 0.05679 0.50221 0.0
C424 C 0.13062 0.04979 0.48592 0.0
C425 C 0.94405 0.96045 0.53063 0.0
O426 O 0.03231 0.10542 0.53996 0.0
O427 O 0.01149 0.07683 0.45404 0.0
O428 O 0.03191 0.04472 0.64603 0.0
O429 O 0.09596 0.00738 0.62026 0.0
O430 O 0.95153 0.00066 0.56785 0.0
O431 O 0.98691 0.95411 0.51186 0.0
O432 O 0.04143 0.90635 0.47182 0.0
O433 O 0.06812 0.9375 0.55576 0.0
C434 C 0.01761 0.11602 0.49316 0.0
C435 C 0.05898 0.89683 0.51775 0.0
Dy436 Dy 0.34342 0.78111 0.77711 0.0
C437 C 0.13931 0.71375 0.68991 0.0
C438 C 0.42707 0.80378 0.84072 0.0
Dy439 Dy 0.23086 0.74189 0.74007 0.0
O440 O 0.42921 0.79523 0.79038 0.0
O441 O 0.38049 0.80417 0.8549 0.0
O442 O 0.37043 0.75553 0.69689 0.0
O443 O 0.30065 0.7842 0.70625 0.0
C444 C 0.32869 0.76291 0.67388 0.0
C445 C 0.24573 0.76319 0.84318 0.0
O446 O 0.26602 0.6636 0.72057 0.0
O447 O 0.33757 0.68819 0.77576 0.0
O448 O 0.15288 0.68767 0.72836 0.0
O449 O 0.1763 0.75279 0.67735 0.0
O450 O 0.20464 0.771 0.81953 0.0
O451 O 0.2732 0.73984 0.81142 0.0
O452 O 0.31393 0.86402 0.78662 0.0
O453 O 0.23342 0.83447 0.74591 0.0
C454 C 0.30779 0.65141 0.743 0.0
C455 C 0.26854 0.87386 0.77047 0.0
Dy456 Dy 0.51707 0.00621 0.06135 0.0
C457 C 0.59291 0.0349 0.85894 0.0
C458 C 0.47136 -0.007 0.15315 0.0
Dy459 Dy 0.55286 0.03152 0.9547 0.0
O460 O 0.47648 0.95205 0.11924 0.0
O461 O 0.49081 0.04135 0.13713 0.0
O462 O 0.56972 0.9448 0.06463 0.0
O463 O 0.53526 0.95353 0.99339 0.0
C464 C 0.56669 0.92861 0.0153 0.0
C465 C 0.507 0.10913 0.00623 0.0
O466 O 0.47652 0.98103 0.93358 0.0
O467 O 0.44342 -0.00369 0.01515 0.0
O468 O 0.58575 0.07881 0.88826 0.0
O469 O 0.58003 -0.01053 0.88233 0.0
O470 O 0.50149 0.09821 0.95611 0.0
O471 O 0.53818 0.08194 0.02362 0.0
O472 O 0.5932 0.05508 0.0844 0.0
O473 O 0.62658 0.04403 0.00176 0.0
C474 C 0.43736 0.97965 0.96494 0.0
C475 C 0.63236 0.05689 0.05289 0.0
Dy476 Dy 0.28728 0.31122 0.2619 0.0
C477 C 0.29459 0.08773 0.28703 0.0
C478 C 0.26235 0.40383 0.22845 0.0
Dy479 Dy 0.27689 0.18624 0.25876 0.0
O480 O 0.30017 0.40492 0.26168 0.0
O481 O 0.24112 0.3531 0.21218 0.0
O482 O 0.2798 0.32222 0.34921 0.0
O483 O 0.30973 0.25418 0.31601 0.0
C484 C 0.29294 0.27474 0.35817 0.0
C485 C 0.2786 0.22659 0.16284 0.0
O486 O 0.19941 0.18987 0.29084 0.0
O487 O 0.2061 0.28656 0.29076 0.0
O488 O 0.27097 0.09332 0.24378 0.0
O489 O 0.30329 0.13446 0.31616 0.0
O490 O 0.29471 0.18097 0.1727 0.0
O491 O 0.2569 0.2438 0.20354 0.0
O492 O 0.3623 0.30095 0.22251 0.0
O493 O 0.36117 0.21456 0.2538 0.0
C494 C 0.18107 0.23651 0.30178 0.0
C495 C 0.38353 0.25592 0.22708 0.0
Dy496 Dy 0.53725 0.49352 0.95181 0.0
C497 C 0.57315 0.52717 0.15991 0.0
C498 C 0.50201 0.48912 0.85382 0.0
Dy499 Dy 0.53767 0.51852 0.0614 0.0
O500 O 0.54387 0.47186 0.86645 0.0
O501 O 0.47798 0.50493 0.89439 0.0
O502 O 0.62406 0.51035 0.94789 0.0
O503 O 0.58732 0.55681 0.00221 0.0
C504 C 0.63062 0.54981 0.98592 0.0
C505 C 0.44405 0.46047 0.03063 0.0
O506 O 0.5323 0.60544 0.03997 0.0
O507 O 0.51149 0.57685 0.95405 0.0
O508 O 0.53191 0.54473 0.14604 0.0
O509 O 0.59596 0.50739 0.12026 0.0
O510 O 0.45153 0.50068 0.06785 0.0
O511 O 0.4869 0.45413 0.01186 0.0
O512 O 0.54143 0.40637 0.97182 0.0
O513 O 0.56812 0.43751 0.05576 0.0
C514 C 0.51761 0.61604 0.99316 0.0
C515 C 0.55898 0.39685 0.01775 0.0
Dy516 Dy 0.84342 0.28112 0.27711 0.0
C517 C 0.63931 0.21376 0.1899 0.0
C518 C 0.92707 0.30378 0.34073 0.0
Dy519 Dy 0.73087 0.2419 0.24006 0.0
O520 O 0.92921 0.29524 0.29039 0.0
O521 O 0.88048 0.30416 0.35491 0.0
O522 O 0.87044 0.25553 0.19689 0.0
O523 O 0.80066 0.28421 0.20625 0.0
C524 C 0.8287 0.26292 0.17388 0.0
C525 C 0.74573 0.26319 0.34318 0.0
O526 O 0.76602 0.16361 0.22056 0.0
O527 O 0.83757 0.1882 0.27576 0.0
O528 O 0.65288 0.18767 0.22835 0.0
O529 O 0.6763 0.2528 0.17734 0.0
O530 O 0.70464 0.27101 0.31952 0.0
O531 O 0.7732 0.23984 0.31142 0.0
O532 O 0.81393 0.36403 0.28662 0.0
O533 O 0.73343 0.33448 0.24591 0.0
C534 C 0.80779 0.15141 0.24299 0.0
C535 C 0.76854 0.37386 0.27047 0.0
Dy536 Dy 0.01707 0.50619 0.56135 0.0
C537 C 0.09292 0.53487 0.35894 0.0
C538 C 0.97136 0.49299 0.65315 0.0
Dy539 Dy 0.05287 0.5315 0.45471 0.0
O540 O 0.97648 0.45203 0.61925 0.0
O541 O 0.99082 0.54134 0.63713 0.0
O542 O 0.06972 0.44477 0.56464 0.0
O543 O 0.03526 0.45351 0.4934 0.0
C544 C 0.06669 0.42859 0.5153 0.0
C545 C 0.00701 0.60911 0.50623 0.0
O546 O 0.97653 0.48101 0.43359 0.0
O547 O 0.94342 0.4963 0.51515 0.0
O548 O 0.08576 0.57879 0.38827 0.0
O549 O 0.08002 0.48944 0.38233 0.0
O550 O 0.0015 0.59819 0.45611 0.0
O551 O 0.03819 0.58192 0.52363 0.0
O552 O 0.0932 0.55506 0.58441 0.0
O553 O 0.12659 0.54401 0.50177 0.0
C554 C 0.93736 0.47964 0.46495 0.0
C555 C 0.13236 0.55686 0.55289 0.0
Dy556 Dy 0.73272 0.78265 0.26594 0.0
C557 C 0.94163 0.75685 0.23647 0.0
C558 C 0.63466 0.78955 0.2873 0.0
Dy559 Dy 0.84055 0.74733 0.25728 0.0
O560 O 0.67228 0.83218 0.29148 0.0
O561 O 0.65045 0.74355 0.27128 0.0
O562 O 0.75928 0.86064 0.2244 0.0
O563 O 0.81111 0.82504 0.26804 0.0
C564 C 0.80712 0.86068 0.23592 0.0
C565 C 0.76625 0.66729 0.28545 0.0
O566 O 0.83955 0.76674 0.34405 0.0
O567 O 0.75518 0.78251 0.35137 0.0
O568 O 0.90635 0.71478 0.21899 0.0
O569 O 0.92206 0.79269 0.26659 0.0
O570 O 0.81458 0.66588 0.29425 0.0
O571 O 0.76205 0.70462 0.255 0.0
O572 O 0.73026 0.75465 0.18041 0.0
O573 O 0.81628 0.74529 0.17209 0.0
C574 C 0.79968 0.77636 0.37246 0.0
C575 C 0.7702 0.74633 0.1515 0.0
Dy576 Dy 0.8149 0.26566 0.70166 0.0
C577 C 0.74546 0.1975 0.90249 0.0
C578 C 0.82816 0.3124 0.61093 0.0
Dy579 Dy 0.756 0.23854 0.80871 0.0
O580 O 0.85128 0.2722 0.62373 0.0
O581 O 0.80039 0.32882 0.64838 0.0
O582 O 0.87865 0.21888 0.72462 0.0
O583 O 0.83222 0.2501 0.7793 0.0
C584 C 0.86509 0.21931 0.77347 0.0
C585 C 0.70379 0.28264 0.73615 0.0
O586 O 0.81244 0.3164 0.83382 0.0
O587 O 0.83339 0.34693 0.75148 0.0
O588 O 0.72282 0.23747 0.88826 0.0
O589 O 0.77021 0.17702 0.86441 0.0
O590 O 0.6899 0.28206 0.78487 0.0
O591 O 0.73843 0.25395 0.73105 0.0
O592 O 0.7594 0.18777 0.67634 0.0
O593 O 0.74067 0.15675 0.75908 0.0
C594 C 0.83463 0.35448 0.80324 0.0
C595 C 0.73892 0.14916 0.70719 0.0
Dy596 Dy 0.78728 0.81122 0.7619 0.0
C597 C 0.79459 0.58773 0.78704 0.0
C598 C 0.76235 0.90383 0.72845 0.0
Dy599 Dy 0.77689 0.68624 0.75876 0.0
O600 O 0.80018 0.90492 0.76168 0.0
O601 O 0.74112 0.8531 0.71218 0.0
O602 O 0.7798 0.82223 0.84921 0.0
O603 O 0.80973 0.75418 0.81601 0.0
C604 C 0.79294 0.77475 0.85817 0.0
C605 C 0.77859 0.72659 0.66285 0.0
O606 O 0.69941 0.68987 0.79084 0.0
O607 O 0.7061 0.78656 0.79076 0.0
O608 O 0.77096 0.59332 0.74379 0.0
O609 O 0.80329 0.63446 0.81617 0.0
O610 O 0.79471 0.68096 0.6727 0.0
O611 O 0.7569 0.7438 0.70355 0.0
O612 O 0.8623 0.80093 0.72251 0.0
O613 O 0.86116 0.71455 0.7538 0.0
C614 C 0.68107 0.73652 0.80178 0.0
C615 C 0.88353 0.75592 0.72707 0.0
Dy616 Dy 0.47703 0.4698 0.49024 0.0
C617 C 0.69483 0.5308 0.5099 0.0
C618 C 0.38078 0.49189 0.50845 0.0
Dy619 Dy 0.59382 0.53795 0.52326 0.0
O620 O 0.39079 0.45357 0.47266 0.0
O621 O 0.42195 0.51309 0.53564 0.0
O622 O 0.50831 0.44052 0.41105 0.0
O623 O 0.54571 0.50861 0.45735 0.0
C624 C 0.55138 0.47726 0.41806 0.0
C625 C 0.52053 0.53263 0.59438 0.0
O626 O 0.56358 0.60806 0.48749 0.0
O627 O 0.47857 0.55944 0.47349 0.0
O628 O 0.66958 0.52206 0.5526 0.0
O629 O 0.66651 0.55027 0.47689 0.0
O630 O 0.56232 0.57158 0.5999 0.0
O631 O 0.52605 0.49825 0.55695 0.0
O632 O 0.50567 0.40259 0.53147 0.0
O633 O 0.59217 0.44392 0.52353 0.0
C634 C 0.51426 0.60541 0.4736 0.0
C635 C 0.5559 0.40162 0.53573 0.0
Dy636 Dy 0.09797 0.49559 0.99282 0.0
C637 C 0.89264 0.55117 0.98588 0.0
C638 C 0.18654 0.45667 0.00658 0.0
Dy639 Dy 0.98062 0.5135 0.00728 0.0
O640 O 0.17976 0.49158 0.97257 0.0
O641 O 0.14527 0.44347 0.03345 0.0
O642 O 0.10094 0.53404 0.91527 0.0
O643 O 0.03213 0.49832 0.9466 0.0
C644 C 0.051 0.52823 0.91205 0.0
C645 C 0.02601 0.48078 0.08888 0.0
O646 O 0.9658 0.42228 0.97967 0.0
O647 O 0.05157 0.40879 0.97328 0.0
O648 O 0.91871 0.5628 0.02959 0.0
O649 O 0.91346 0.51745 0.95453 0.0
O650 O 0.97597 0.47347 0.08324 0.0
O651 O 0.04648 0.5114 0.05499 0.0
O652 O 0.1116 0.58338 0.02954 0.0
O653 O 0.02857 0.60091 0.01497 0.0
C654 C 0.00099 0.39031 0.96962 0.0
C655 C 0.07789 0.61768 0.02884 0.0
loop_
_geom_bond_atom_site_label_1
_geom_bond_atom_site_label_2
_geom_bond_distance
_geom_bond_site_symmetry_2
_ccdc_geom_bond_type
Zn0 O3 2.031 1_655 S
Zn0 O5 2.049 . S
Zn0 O10 2.067 . S
Zn1 O2 1.962 . S
Zn1 O4 1.986 . S
Zn1 O6 1.996 . S
Zn1 O9 1.943 . S
O2 Zn1 1.962 . S
O2 C7 1.254 . S
O3 Zn0 2.031 1_455 S
O3 C7 1.269 . S
O4 Zn1 1.986 . S
O4 C11 1.262 . S
O5 Zn0 2.049 . S
O5 C13 1.260 1_655 S
O6 Zn1 1.996 . S
O6 C13 1.257 . S
C7 O2 1.254 . S
C7 O3 1.269 . S
C8 O9 1.249 1_655 S
C8 O10 1.270 . S
O9 Zn1 1.943 . S
O9 C8 1.249 1_455 S
O10 Zn0 2.067 . S
O10 C8 1.270 . S
C11 O4 1.262 . S
C11 O12 1.232 . S
O12 C11 1.232 . S
C13 O5 1.260 1_455 S
C13 O6 1.257 . S
Zn14 O17 2.031 1_455 S
Zn14 O19 2.049 . S
Zn14 O24 2.067 . S
Zn15 O16 1.962 1_455 S
Zn15 O18 1.986 . S
Zn15 O20 1.996 . S
Zn15 O23 1.943 . S
O16 Zn15 1.962 1_655 S
O16 C21 1.254 . S
O17 Zn14 2.031 1_655 S
O17 C21 1.269 . S
O18 Zn15 1.986 . S
O18 C25 1.262 . S
O19 Zn14 2.049 . S
O19 C27 1.260 . S
O20 Zn15 1.996 . S
O20 C27 1.257 . S
C21 O16 1.254 . S
C21 O17 1.269 . S
C22 O23 1.249 . S
C22 O24 1.270 . S
O23 Zn15 1.943 . S
O23 C22 1.249 . S
O24 Zn14 2.067 . S
O24 C22 1.270 . S
C25 O18 1.262 . S
C25 O26 1.232 1_455 S
O26 C25 1.232 1_655 S
C27 O19 1.260 . S
C27 O20 1.257 . S
Zn28 O31 2.031 . S
Zn28 O33 2.049 . S
Zn28 O38 2.067 . S
Zn29 O30 1.962 . S
Zn29 O32 1.986 . S
Zn29 O34 1.996 . S
Zn29 O37 1.943 . S
O30 Zn29 1.962 . S
O30 C35 1.254 . S
O31 Zn28 2.031 . S
O31 C35 1.269 . S
O32 Zn29 1.986 . S
O32 C39 1.262 . S
O33 Zn28 2.049 . S
O33 C41 1.260 . S
O34 Zn29 1.996 . S
O34 C41 1.257 . S
C35 O30 1.254 . S
C35 O31 1.269 . S
C36 O37 1.249 . S
C36 O38 1.270 . S
O37 Zn29 1.943 . S
O37 C36 1.249 . S
O38 Zn28 2.067 . S
O38 C36 1.270 . S
C39 O32 1.262 . S
C39 O40 1.232 . S
O40 C39 1.232 . S
C41 O33 1.260 . S
C41 O34 1.257 . S
Zn42 O45 2.031 . S
Zn42 O47 2.049 . S
Zn42 O52 2.067 . S
Zn43 O44 1.962 . S
Zn43 O46 1.986 . S
Zn43 O48 1.996 . S
Zn43 O51 1.943 . S
O44 Zn43 1.962 . S
O44 C49 1.254 . S
O45 Zn42 2.031 . S
O45 C49 1.269 . S
O46 Zn43 1.986 . S
O46 C53 1.262 . S
O47 Zn42 2.049 . S
O47 C55 1.260 . S
O48 Zn43 1.996 . S
O48 C55 1.257 . S
C49 O44 1.254 . S
C49 O45 1.269 . S
C50 O51 1.249 . S
C50 O52 1.270 . S
O51 Zn43 1.943 . S
O51 C50 1.249 . S
O52 Zn42 2.067 . S
O52 C50 1.270 . S
C53 O46 1.262 . S
C53 O54 1.232 . S
O54 C53 1.232 . S
C55 O47 1.260 . S
C55 O48 1.257 . S
Zn56 O59 2.031 . S
Zn56 O61 2.049 . S
Zn56 O66 2.067 . S
Zn57 O58 1.962 . S
Zn57 O60 1.986 1_455 S
Zn57 O62 1.996 . S
Zn57 O65 1.943 . S
O58 Zn57 1.962 . S
O58 C63 1.254 . S
O59 Zn56 2.031 . S
O59 C63 1.269 . S
O60 Zn57 1.986 1_655 S
O60 C67 1.262 . S
O61 Zn56 2.049 . S
O61 C69 1.260 . S
O62 Zn57 1.996 . S
O62 C69 1.257 . S
C63 O58 1.254 . S
C63 O59 1.269 . S
C64 O65 1.249 . S
C64 O66 1.270 . S
O65 Zn57 1.943 . S
O65 C64 1.249 . S
O66 Zn56 2.067 . S
O66 C64 1.270 . S
C67 O60 1.262 . S
C67 O68 1.232 1_655 S
O68 C67 1.232 1_455 S
C69 O61 1.260 . S
C69 O62 1.257 . S
Zn70 O73 2.031 . S
Zn70 O75 2.049 . S
Zn70 O80 2.067 . S
Zn71 O72 1.962 . S
Zn71 O74 1.986 . S
Zn71 O76 1.996 . S
Zn71 O79 1.943 . S
O72 Zn71 1.962 . S
O72 C77 1.254 . S
O73 Zn70 2.031 . S
O73 C77 1.269 . S
O74 Zn71 1.986 . S
O74 C81 1.262 . S
O75 Zn70 2.049 . S
O75 C83 1.260 . S
O76 Zn71 1.996 . S
O76 C83 1.257 . S
C77 O72 1.254 . S
C77 O73 1.269 . S
C78 O79 1.249 . S
C78 O80 1.270 . S
O79 Zn71 1.943 . S
O79 C78 1.249 . S
O80 Zn70 2.067 . S
O80 C78 1.270 . S
C81 O74 1.262 . S
C81 O82 1.232 . S
O82 C81 1.232 . S
C83 O75 1.260 . S
C83 O76 1.257 . S
Zn84 O87 2.031 . S
Zn84 O89 2.049 . S
Zn84 O94 2.067 . S
Zn85 O86 1.962 . S
Zn85 O88 1.986 . S
Zn85 O90 1.996 . S
Zn85 O93 1.943 . S
O86 Zn85 1.962 . S
O86 C91 1.254 . S
O87 Zn84 2.031 . S
O87 C91 1.269 . S
O88 Zn85 1.986 . S
O88 C95 1.262 . S
O89 Zn84 2.049 . S
O89 C97 1.260 . S
O90 Zn85 1.996 . S
O90 C97 1.257 . S
C91 O86 1.254 . S
C91 O87 1.269 . S
C92 O93 1.249 . S
C92 O94 1.270 . S
O93 Zn85 1.943 . S
O93 C92 1.249 . S
O94 Zn84 2.067 . S
O94 C92 1.270 . S
C95 O88 1.262 . S
C95 O96 1.232 . S
O96 C95 1.232 . S
C97 O89 1.260 . S
C97 O90 1.257 . S
Zn98 O101 2.031 . S
Zn98 O103 2.049 . S
Zn98 O108 2.067 . S
Zn99 O100 1.962 . S
Zn99 O102 1.986 . S
Zn99 O104 1.998 . S
Zn99 O107 1.943 1_455 S
O100 Zn99 1.962 . S
O100 C105 1.254 . S
O101 Zn98 2.031 . S
O101 C105 1.269 1_655 S
O102 Zn99 1.986 . S
O102 C109 1.262 . S
O103 Zn98 2.049 . S
O103 C111 1.260 . S
O104 Zn99 1.998 . S
O104 C111 1.251 1_455 S
C105 O100 1.254 . S
C105 O101 1.269 1_455 S
C106 O107 1.249 . S
C106 O108 1.270 . S
O107 Zn99 1.943 1_655 S
O107 C106 1.249 . S
O108 Zn98 2.067 . S
O108 C106 1.270 . S
C109 O102 1.262 . S
C109 O110 1.232 . S
O110 C109 1.232 . S
C111 O103 1.260 . S
C111 O104 1.251 1_655 S
Zn112 O115 2.031 . S
Zn112 O117 2.049 . S
Zn112 O122 2.067 . S
Zn113 O114 1.962 . S
Zn113 O116 1.986 . S
Zn113 O118 1.996 . S
Zn113 O121 1.943 1_545 S
O114 Zn113 1.962 . S
O114 C119 1.254 . S
O115 Zn112 2.031 . S
O115 C119 1.269 1_565 S
O116 Zn113 1.986 . S
O116 C123 1.262 . S
O117 Zn112 2.049 . S
O117 C125 1.260 . S
O118 Zn113 1.996 . S
O118 C125 1.257 1_545 S
C119 O114 1.254 . S
C119 O115 1.269 1_545 S
C120 O121 1.249 . S
C120 O122 1.270 . S
O121 Zn113 1.943 1_565 S
O121 C120 1.249 . S
O122 Zn112 2.067 . S
O122 C120 1.270 . S
C123 O116 1.262 . S
C123 O124 1.232 . S
O124 C123 1.232 . S
C125 O117 1.260 . S
C125 O118 1.257 1_565 S
Zn126 O129 2.031 . S
Zn126 O131 2.049 . S
Zn126 O136 2.067 . S
Zn127 O128 1.962 . S
Zn127 O130 1.986 . S
Zn127 O132 1.996 . S
Zn127 O135 1.943 . S
O128 Zn127 1.962 . S
O128 C133 1.254 . S
O129 Zn126 2.031 . S
O129 C133 1.269 . S
O130 Zn127 1.986 . S
O130 C137 1.262 . S
O131 Zn126 2.049 . S
O131 C139 1.260 . S
O132 Zn127 1.996 . S
O132 C139 1.257 . S
C133 O128 1.254 . S
C133 O129 1.269 . S
C134 O135 1.249 . S
C134 O136 1.270 . S
O135 Zn127 1.943 . S
O135 C134 1.249 . S
O136 Zn126 2.067 . S
O136 C134 1.270 . S
C137 O130 1.262 . S
C137 O138 1.232 . S
O138 C137 1.232 . S
C139 O131 1.260 . S
C139 O132 1.257 . S
Zn140 O143 2.031 . S
Zn140 O145 2.049 . S
Zn140 O150 2.067 . S
Zn141 O142 1.962 . S
Zn141 O144 1.986 . S
Zn141 O146 1.996 . S
Zn141 O149 1.943 1_565 S
O142 Zn141 1.962 . S
O142 C147 1.254 1_565 S
O143 Zn140 2.031 . S
O143 C147 1.269 . S
O144 Zn141 1.986 . S
O144 C151 1.262 . S
O145 Zn140 2.049 . S
O145 C153 1.260 . S
O146 Zn141 1.996 . S
O146 C153 1.257 1_565 S
C147 O142 1.254 1_545 S
C147 O143 1.269 . S
C148 O149 1.249 . S
C148 O150 1.270 . S
O149 Zn141 1.943 1_545 S
O149 C148 1.249 . S
O150 Zn140 2.067 . S
O150 C148 1.270 . S
C151 O144 1.262 . S
C151 O152 1.232 . S
O152 C151 1.232 . S
C153 O145 1.260 . S
C153 O146 1.257 1_545 S
Zn154 O157 2.031 1_554 S
Zn154 O159 2.049 . S
Zn154 O164 2.067 . S
Zn155 O156 1.962 1_554 S
Zn155 O158 1.986 . S
Zn155 O160 1.996 . S
Zn155 O163 1.943 . S
O156 Zn155 1.962 1_556 S
O156 C161 1.254 . S
O157 Zn154 2.031 1_556 S
O157 C161 1.269 . S
O158 Zn155 1.986 . S
O158 C165 1.262 . S
O159 Zn154 2.049 . S
O159 C167 1.260 . S
O160 Zn155 1.996 . S
O160 C167 1.257 . S
C161 O156 1.254 . S
C161 O157 1.269 . S
C162 O163 1.249 . S
C162 O164 1.270 . S
O163 Zn155 1.943 . S
O163 C162 1.249 . S
O164 Zn154 2.067 . S
O164 C162 1.270 . S
C165 O158 1.262 . S
C165 O166 1.232 1_554 S
O166 C165 1.232 1_556 S
C167 O159 1.260 . S
C167 O160 1.257 . S
Zn168 O171 2.031 1_554 S
Zn168 O173 2.049 . S
Zn168 O178 2.067 . S
Zn169 O170 1.962 1_554 S
Zn169 O172 1.986 . S
Zn169 O174 1.996 . S
Zn169 O177 1.943 . S
O170 Zn169 1.962 1_556 S
O170 C175 1.254 . S
O171 Zn168 2.031 1_556 S
O171 C175 1.269 . S
O172 Zn169 1.986 . S
O172 C179 1.262 . S
O173 Zn168 2.049 . S
O173 C181 1.260 . S
O174 Zn169 1.996 . S
O174 C181 1.257 . S
C175 O170 1.254 . S
C175 O171 1.269 . S
C176 O177 1.249 . S
C176 O178 1.270 . S
O177 Zn169 1.943 . S
O177 C176 1.249 . S
O178 Zn168 2.067 . S
O178 C176 1.270 . S
C179 O172 1.262 . S
C179 O180 1.232 1_554 S
O180 C179 1.232 1_556 S
C181 O173 1.260 . S
C181 O174 1.257 . S
Zn182 O185 2.031 1_554 S
Zn182 O187 2.049 . S
Zn182 O192 2.067 . S
Zn183 O184 1.962 1_554 S
Zn183 O186 1.986 . S
Zn183 O188 1.996 . S
Zn183 O191 1.943 . S
O184 Zn183 1.962 1_556 S
O184 C189 1.254 . S
O185 Zn182 2.031 1_556 S
O185 C189 1.269 . S
O186 Zn183 1.986 . S
O186 C193 1.262 . S
O187 Zn182 2.049 . S
O187 C195 1.260 . S
O188 Zn183 1.996 . S
O188 C195 1.257 . S
C189 O184 1.254 . S
C189 O185 1.269 . S
C190 O191 1.249 . S
C190 O192 1.270 . S
O191 Zn183 1.943 . S
O191 C190 1.249 . S
O192 Zn182 2.067 . S
O192 C190 1.270 . S
C193 O186 1.262 . S
C193 O194 1.232 1_554 S
O194 C193 1.232 1_556 S
C195 O187 1.260 . S
C195 O188 1.257 . S
Zn196 O199 2.031 . S
Zn196 O201 2.049 . S
Zn196 O206 2.067 . S
Zn197 O198 1.962 . S
Zn197 O200 1.986 . S
Zn197 O202 1.996 . S
Zn197 O205 1.943 . S
O198 Zn197 1.962 . S
O198 C203 1.254 . S
O199 Zn196 2.031 . S
O199 C203 1.269 . S
O200 Zn197 1.986 . S
O200 C207 1.262 . S
O201 Zn196 2.049 . S
O201 C209 1.260 . S
O202 Zn197 1.996 . S
O202 C209 1.257 . S
C203 O198 1.254 . S
C203 O199 1.269 . S
C204 O205 1.249 . S
C204 O206 1.270 . S
O205 Zn197 1.943 . S
O205 C204 1.249 . S
O206 Zn196 2.067 . S
O206 C204 1.270 . S
C207 O200 1.262 . S
C207 O208 1.232 . S
O208 C207 1.232 . S
C209 O201 1.260 . S
C209 O202 1.257 . S
Zn210 O213 2.031 . S
Zn210 O215 2.049 . S
Zn210 O220 2.067 . S
Zn211 O212 1.962 . S
Zn211 O214 1.986 . S
Zn211 O216 1.996 . S
Zn211 O219 1.943 . S
O212 Zn211 1.962 . S
O212 C217 1.254 . S
O213 Zn210 2.031 . S
O213 C217 1.269 . S
O214 Zn211 1.986 . S
O214 C221 1.262 . S
O215 Zn210 2.049 . S
O215 C223 1.260 . S
O216 Zn211 1.996 . S
O216 C223 1.257 . S
C217 O212 1.254 . S
C217 O213 1.269 . S
C218 O219 1.249 . S
C218 O220 1.270 . S
O219 Zn211 1.943 . S
O219 C218 1.249 . S
O220 Zn210 2.067 . S
O220 C218 1.270 . S
C221 O214 1.262 . S
C221 O222 1.232 . S
O222 C221 1.232 . S
C223 O215 1.260 . S
C223 O216 1.257 . S
Zn224 O227 2.031 . S
Zn224 O229 2.049 . S
Zn224 O234 2.067 . S
Zn225 O226 1.962 . S
Zn225 O228 1.986 . S
Zn225 O230 1.996 . S
Zn225 O233 1.943 1_545 S
O226 Zn225 1.962 . S
O226 C231 1.254 . S
O227 Zn224 2.031 . S
O227 C231 1.269 1_565 S
O228 Zn225 1.986 . S
O228 C235 1.262 . S
O229 Zn224 2.049 . S
O229 C237 1.260 1_565 S
O230 Zn225 1.996 . S
O230 C237 1.257 . S
C231 O226 1.254 . S
C231 O227 1.269 1_545 S
C232 O233 1.249 . S
C232 O234 1.270 . S
O233 Zn225 1.943 1_565 S
O233 C232 1.249 . S
O234 Zn224 2.067 . S
O234 C232 1.270 . S
C235 O228 1.262 . S
C235 O236 1.232 . S
O236 C235 1.232 . S
C237 O229 1.260 1_545 S
C237 O230 1.257 . S
Zn238 O241 2.031 . S
Zn238 O243 2.049 . S
Zn238 O248 2.067 . S
Zn239 O240 1.962 . S
Zn239 O242 1.986 . S
Zn239 O244 1.996 . S
Zn239 O247 1.943 . S
O240 Zn239 1.962 . S
O240 C245 1.254 . S
O241 Zn238 2.031 . S
O241 C245 1.269 . S
O242 Zn239 1.986 . S
O242 C249 1.262 . S
O243 Zn238 2.049 . S
O243 C251 1.260 . S
O244 Zn239 1.996 . S
O244 C251 1.257 . S
C245 O240 1.254 . S
C245 O241 1.269 . S
C246 O247 1.249 . S
C246 O248 1.270 . S
O247 Zn239 1.943 . S
O247 C246 1.249 . S
O248 Zn238 2.067 . S
O248 C246 1.270 . S
C249 O242 1.262 . S
C249 O250 1.232 . S
O250 C249 1.232 . S
C251 O243 1.260 . S
C251 O244 1.257 . S
Zn252 O255 2.031 . S
Zn252 O257 2.049 . S
Zn252 O262 2.067 . S
Zn253 O254 1.962 . S
Zn253 O256 1.986 . S
Zn253 O258 1.996 . S
Zn253 O261 1.943 . S
O254 Zn253 1.962 . S
O254 C259 1.254 . S
O255 Zn252 2.031 . S
O255 C259 1.269 . S
O256 Zn253 1.986 . S
O256 C263 1.262 . S
O257 Zn252 2.049 . S
O257 C265 1.260 . S
O258 Zn253 1.996 . S
O258 C265 1.257 . S
C259 O254 1.254 . S
C259 O255 1.269 . S
C260 O261 1.249 . S
C260 O262 1.270 . S
O261 Zn253 1.943 . S
O261 C260 1.249 . S
O262 Zn252 2.067 . S
O262 C260 1.270 . S
C263 O256 1.262 . S
C263 O264 1.232 . S
O264 C263 1.232 . S
C265 O257 1.260 . S
C265 O258 1.257 . S
Zn266 O269 2.031 . S
Zn266 O271 2.049 . S
Zn266 O276 2.067 . S
Zn267 O268 1.962 . S
Zn267 O270 1.986 1_545 S
Zn267 O272 1.996 . S
Zn267 O275 1.943 . S
O268 Zn267 1.962 . S
O268 C273 1.254 . S
O269 Zn266 2.031 . S
O269 C273 1.269 . S
O270 Zn267 1.986 1_565 S
O270 C277 1.262 . S
O271 Zn266 2.049 . S
O271 C279 1.260 . S
O272 Zn267 1.996 . S
O272 C279 1.257 . S
C273 O268 1.254 . S
C273 O269 1.269 . S
C274 O275 1.249 . S
C274 O276 1.270 . S
O275 Zn267 1.943 . S
O275 C274 1.249 . S
O276 Zn266 2.067 . S
O276 C274 1.270 . S
C277 O270 1.262 . S
C277 O278 1.232 . S
O278 C277 1.232 . S
C279 O271 1.260 . S
C279 O272 1.257 . S
Zn280 O283 2.031 1_554 S
Zn280 O285 2.049 . S
Zn280 O290 2.067 . S
Zn281 O282 1.962 1_554 S
Zn281 O284 1.986 . S
Zn281 O286 1.996 . S
Zn281 O289 1.943 1_554 S
O282 Zn281 1.962 1_556 S
O282 C287 1.254 . S
O283 Zn280 2.031 1_556 S
O283 C287 1.269 . S
O284 Zn281 1.986 . S
O284 C291 1.262 1_554 S
O285 Zn280 2.049 . S
O285 C293 1.260 . S
O286 Zn281 1.996 . S
O286 C293 1.257 . S
C287 O282 1.254 . S
C287 O283 1.269 . S
C288 O289 1.249 . S
C288 O290 1.270 1_556 S
O289 Zn281 1.943 1_556 S
O289 C288 1.249 . S
O290 Zn280 2.067 . S
O290 C288 1.270 1_554 S
C291 O284 1.262 1_556 S
C291 O292 1.232 . S
O292 C291 1.232 . S
C293 O285 1.260 . S
C293 O286 1.257 . S
Zn294 O297 2.031 . S
Zn294 O299 2.049 1_655 S
Zn294 O304 2.067 . S
Zn295 O296 1.962 . S
Zn295 O298 1.986 . S
Zn295 O300 1.996 . S
Zn295 O303 1.943 . S
O296 Zn295 1.962 . S
O296 C301 1.254 . S
O297 Zn294 2.031 . S
O297 C301 1.269 . S
O298 Zn295 1.986 . S
O298 C305 1.262 . S
O299 Zn294 2.049 1_455 S
O299 C307 1.260 1_455 S
O300 Zn295 1.996 . S
O300 C307 1.257 . S
C301 O296 1.254 . S
C301 O297 1.269 . S
C302 O303 1.249 . S
C302 O304 1.270 . S
O303 Zn295 1.943 . S
O303 C302 1.249 . S
O304 Zn294 2.067 . S
O304 C302 1.270 . S
C305 O298 1.262 . S
C305 O306 1.232 . S
O306 C305 1.232 . S
C307 O299 1.260 1_655 S
C307 O300 1.257 . S
Zn308 O311 2.031 . S
Zn308 O313 2.049 . S
Zn308 O318 2.067 . S
Zn309 O310 1.962 . S
Zn309 O312 1.986 . S
Zn309 O314 1.996 . S
Zn309 O317 1.943 . S
O310 Zn309 1.962 . S
O310 C315 1.254 . S
O311 Zn308 2.031 . S
O311 C315 1.269 . S
O312 Zn309 1.986 . S
O312 C319 1.262 . S
O313 Zn308 2.049 . S
O313 C321 1.260 . S
O314 Zn309 1.996 . S
O314 C321 1.257 . S
C315 O310 1.254 . S
C315 O311 1.269 . S
C316 O317 1.249 . S
C316 O318 1.270 . S
O317 Zn309 1.943 . S
O317 C316 1.249 . S
O318 Zn308 2.067 . S
O318 C316 1.270 . S
C319 O312 1.262 . S
C319 O320 1.232 . S
O320 C319 1.232 . S
C321 O313 1.260 . S
C321 O314 1.257 . S
Zn322 O325 2.031 . S
Zn322 O327 2.049 . S
Zn322 O332 2.067 . S
Zn323 O324 1.962 . S
Zn323 O326 1.986 . S
Zn323 O328 1.996 . S
Zn323 O331 1.943 . S
O324 Zn323 1.962 . S
O324 C329 1.254 . S
O325 Zn322 2.031 . S
O325 C329 1.269 . S
O326 Zn323 1.986 . S
O326 C333 1.262 . S
O327 Zn322 2.049 . S
O327 C335 1.260 . S
O328 Zn323 1.996 . S
O328 C335 1.257 . S
C329 O324 1.254 . S
C329 O325 1.269 . S
C330 O331 1.249 . S
C330 O332 1.270 . S
O331 Zn323 1.943 . S
O331 C330 1.249 . S
O332 Zn322 2.067 . S
O332 C330 1.270 . S
C333 O326 1.262 . S
C333 O334 1.232 . S
O334 C333 1.232 . S
C335 O327 1.260 . S
C335 O328 1.257 . S
Dy336 O340 2.398 1_565 S
Dy336 O341 2.491 1_566 S
Dy336 O342 2.406 . S
Dy336 O343 2.664 1_665 S
Dy336 O347 2.326 1_665 S
Dy336 O351 2.310 1_666 S
Dy336 O352 2.351 1_556 S
C337 O348 1.185 . S
C337 O349 1.356 1_545 S
C338 O340 1.185 . S
C338 O341 1.355 1_556 S
Dy339 O343 2.310 1_554 S
Dy339 O346 2.351 . S
Dy339 O348 2.398 . S
Dy339 O349 2.482 1_545 S
Dy339 O350 2.403 . S
Dy339 O351 2.664 . S
Dy339 O353 2.326 1_545 S
O340 Dy336 2.398 1_545 S
O340 C338 1.185 . S
O341 Dy336 2.491 1_544 S
O341 C338 1.355 1_554 S
O342 Dy336 2.406 . S
O342 C344 1.248 1_655 S
O343 Dy336 2.664 1_445 S
O343 Dy339 2.310 1_556 S
O343 C344 1.268 1_545 S
C344 O342 1.248 1_455 S
C344 O343 1.268 1_565 S
C345 O350 1.254 . S
C345 O351 1.268 . S
O346 Dy339 2.351 . S
O346 C354 1.249 1_554 S
O347 Dy336 2.326 1_445 S
O347 C354 1.267 . S
O348 C337 1.185 . S
O348 Dy339 2.398 . S
O349 C337 1.356 1_565 S
O349 Dy339 2.482 1_565 S
O350 Dy339 2.403 . S
O350 C345 1.254 . S
O351 Dy336 2.310 1_444 S
O351 Dy339 2.664 . S
O351 C345 1.268 . S
O352 Dy336 2.351 1_554 S
O352 C355 1.249 1_655 S
O353 Dy339 2.326 1_565 S
O353 C355 1.267 . S
C354 O346 1.249 1_556 S
C354 O347 1.267 . S
C355 O352 1.249 1_455 S
C355 O353 1.267 . S
Dy356 O360 2.398 . S
Dy356 O361 2.491 . S
Dy356 O362 2.403 . S
Dy356 O363 2.664 . S
Dy356 O367 2.326 . S
Dy356 O371 2.310 . S
Dy356 O372 2.351 . S
C357 O368 1.185 . S
C357 O369 1.355 . S
C358 O360 1.185 . S
C358 O361 1.355 . S
Dy359 O363 2.310 . S
Dy359 O366 2.351 . S
Dy359 O368 2.398 . S
Dy359 O369 2.491 . S
Dy359 O370 2.403 . S
Dy359 O371 2.664 . S
Dy359 O373 2.326 . S
O360 Dy356 2.398 . S
O360 C358 1.185 . S
O361 Dy356 2.491 . S
O361 C358 1.355 . S
O362 Dy356 2.403 . S
O362 C364 1.254 . S
O363 Dy356 2.664 . S
O363 Dy359 2.310 . S
O363 C364 1.268 . S
C364 O362 1.254 . S
C364 O363 1.268 . S
C365 O370 1.254 . S
C365 O371 1.268 . S
O366 Dy359 2.351 . S
O366 C374 1.249 . S
O367 Dy356 2.326 . S
O367 C374 1.267 . S
O368 C357 1.185 . S
O368 Dy359 2.398 . S
O369 C357 1.355 . S
O369 Dy359 2.491 . S
O370 Dy359 2.403 . S
O370 C365 1.254 . S
O371 Dy356 2.310 . S
O371 Dy359 2.664 . S
O371 C365 1.268 . S
O372 Dy356 2.351 . S
O372 C375 1.249 . S
O373 Dy359 2.326 . S
O373 C375 1.267 . S
C374 O366 1.249 . S
C374 O367 1.267 . S
C375 O372 1.249 . S
C375 O373 1.267 . S
Dy376 O380 2.398 1_545 S
Dy376 O381 2.491 1_545 S
Dy376 O382 2.403 . S
Dy376 O383 2.664 . S
Dy376 O387 2.326 1_545 S
Dy376 O391 2.310 . S
Dy376 O392 2.351 . S
C377 O388 1.185 . S
C377 O389 1.355 . S
C378 O380 1.185 . S
C378 O381 1.355 . S
Dy379 O383 2.310 . S
Dy379 O386 2.351 1_545 S
Dy379 O388 2.398 . S
Dy379 O389 2.491 . S
Dy379 O390 2.403 . S
Dy379 O391 2.664 . S
Dy379 O393 2.326 . S
O380 Dy376 2.398 1_565 S
O380 C378 1.185 . S
O381 Dy376 2.491 1_565 S
O381 C378 1.355 . S
O382 Dy376 2.403 . S
O382 C384 1.254 . S
O383 Dy376 2.664 . S
O383 Dy379 2.310 . S
O383 C384 1.268 . S
C384 O382 1.254 . S
C384 O383 1.268 . S
C385 O390 1.254 . S
C385 O391 1.268 . S
O386 Dy379 2.351 1_565 S
O386 C394 1.249 . S
O387 Dy376 2.326 1_565 S
O387 C394 1.267 . S
O388 C377 1.185 . S
O388 Dy379 2.398 . S
O389 C377 1.355 . S
O389 Dy379 2.491 . S
O390 Dy379 2.403 . S
O390 C385 1.254 . S
O391 Dy376 2.310 . S
O391 Dy379 2.664 . S
O391 C385 1.268 . S
O392 Dy376 2.351 . S
O392 C395 1.249 . S
O393 Dy379 2.326 . S
O393 C395 1.267 . S
C394 O386 1.249 . S
C394 O387 1.267 . S
C395 O392 1.249 . S
C395 O393 1.267 . S
Dy396 O400 2.398 . S
Dy396 O401 2.491 . S
Dy396 O402 2.403 . S
Dy396 O403 2.664 . S
Dy396 O407 2.326 . S
Dy396 O411 2.310 . S
Dy396 O412 2.351 . S
C397 O408 1.185 . S
C397 O409 1.355 . S
C398 O400 1.185 . S
C398 O401 1.355 . S
Dy399 O403 2.310 . S
Dy399 O406 2.351 . S
Dy399 O408 2.398 . S
Dy399 O409 2.491 . S
Dy399 O410 2.403 . S
Dy399 O411 2.664 . S
Dy399 O413 2.326 . S
O400 Dy396 2.398 . S
O400 C398 1.185 . S
O401 Dy396 2.491 . S
O401 C398 1.355 . S
O402 Dy396 2.403 . S
O402 C404 1.254 . S
O403 Dy396 2.664 . S
O403 Dy399 2.310 . S
O403 C404 1.268 . S
C404 O402 1.254 . S
C404 O403 1.268 . S
C405 O410 1.254 . S
C405 O411 1.268 . S
O406 Dy399 2.351 . S
O406 C414 1.249 . S
O407 Dy396 2.326 . S
O407 C414 1.267 . S
O408 C397 1.185 . S
O408 Dy399 2.398 . S
O409 C397 1.355 . S
O409 Dy399 2.491 . S
O410 Dy399 2.403 . S
O410 C405 1.254 . S
O411 Dy396 2.310 . S
O411 Dy399 2.664 . S
O411 C405 1.268 . S
O412 Dy396 2.351 . S
O412 C415 1.249 . S
O413 Dy399 2.326 . S
O413 C415 1.267 . S
C414 O406 1.249 . S
C414 O407 1.267 . S
C415 O412 1.249 . S
C415 O413 1.267 . S
Dy416 O420 2.398 1_565 S
Dy416 O421 2.491 1_465 S
Dy416 O422 2.403 1_565 S
Dy416 O423 2.664 1_565 S
Dy416 O427 2.326 1_565 S
Dy416 O431 2.310 1_465 S
Dy416 O432 2.351 . S
C417 O428 1.185 . S
C417 O429 1.355 . S
C418 O420 1.185 1_655 S
C418 O421 1.355 . S
Dy419 O423 2.310 . S
Dy419 O426 2.351 . S
Dy419 O428 2.398 . S
Dy419 O429 2.491 . S
Dy419 O430 2.403 1_455 S
Dy419 O431 2.664 1_455 S
Dy419 O433 2.326 1_545 S
O420 Dy416 2.398 1_545 S
O420 C418 1.185 1_455 S
O421 Dy416 2.491 1_645 S
O421 C418 1.355 . S
O422 Dy416 2.403 1_545 S
O422 C424 1.254 . S
O423 Dy416 2.664 1_545 S
O423 Dy419 2.310 . S
O423 C424 1.268 . S
C424 O422 1.254 . S
C424 O423 1.268 . S
C425 O430 1.254 1_565 S
C425 O431 1.268 1_565 S
O426 Dy419 2.351 . S
O426 C434 1.249 . S
O427 Dy416 2.326 1_545 S
O427 C434 1.267 . S
O428 C417 1.185 . S
O428 Dy419 2.398 . S
O429 C417 1.355 . S
O429 Dy419 2.491 . S
O430 Dy419 2.403 1_655 S
O430 C425 1.254 1_545 S
O431 Dy416 2.310 1_645 S
O431 Dy419 2.664 1_655 S
O431 C425 1.268 1_545 S
O432 Dy416 2.351 . S
O432 C435 1.249 . S
O433 Dy419 2.326 1_565 S
O433 C435 1.267 . S
C434 O426 1.249 . S
C434 O427 1.267 . S
C435 O432 1.249 . S
C435 O433 1.267 . S
Dy436 O440 2.398 . S
Dy436 O441 2.491 . S
Dy436 O442 2.403 . S
Dy436 O443 2.664 . S
Dy436 O447 2.326 . S
Dy436 O451 2.310 . S
Dy436 O452 2.351 . S
C437 O448 1.185 . S
C437 O449 1.355 . S
C438 O440 1.185 . S
C438 O441 1.355 . S
Dy439 O443 2.310 . S
Dy439 O446 2.351 . S
Dy439 O448 2.398 . S
Dy439 O449 2.491 . S
Dy439 O450 2.403 . S
Dy439 O451 2.664 . S
Dy439 O453 2.326 . S
O440 Dy436 2.398 . S
O440 C438 1.185 . S
O441 Dy436 2.491 . S
O441 C438 1.355 . S
O442 Dy436 2.403 . S
O442 C444 1.254 . S
O443 Dy436 2.664 . S
O443 Dy439 2.310 . S
O443 C444 1.268 . S
C444 O442 1.254 . S
C444 O443 1.268 . S
C445 O450 1.254 . S
C445 O451 1.268 . S
O446 Dy439 2.351 . S
O446 C454 1.249 . S
O447 Dy436 2.326 . S
O447 C454 1.267 . S
O448 C437 1.185 . S
O448 Dy439 2.398 . S
O449 C437 1.355 . S
O449 Dy439 2.491 . S
O450 Dy439 2.403 . S
O450 C445 1.254 . S
O451 Dy436 2.310 . S
O451 Dy439 2.664 . S
O451 C445 1.268 . S
O452 Dy436 2.351 . S
O452 C455 1.249 . S
O453 Dy439 2.326 . S
O453 C455 1.267 . S
C454 O446 1.249 . S
C454 O447 1.267 . S
C455 O452 1.249 . S
C455 O453 1.267 . S
Dy456 O460 2.398 1_545 S
Dy456 O461 2.491 . S
Dy456 O462 2.403 1_545 S
Dy456 O463 2.664 1_544 S
Dy456 O467 2.326 1_545 S
Dy456 O471 2.310 . S
Dy456 O472 2.351 . S
C457 O468 1.185 . S
C457 O469 1.355 . S
C458 O460 1.185 . S
C458 O461 1.355 1_565 S
Dy459 O463 2.310 1_545 S
Dy459 O466 2.351 . S
Dy459 O468 2.398 . S
Dy459 O469 2.491 . S
Dy459 O470 2.403 . S
Dy459 O471 2.664 1_556 S
Dy459 O473 2.326 . S
O460 Dy456 2.398 1_565 S
O460 C458 1.185 . S
O461 Dy456 2.491 . S
O461 C458 1.355 1_545 S
O462 Dy456 2.403 1_565 S
O462 C464 1.254 1_554 S
O463 Dy456 2.664 1_566 S
O463 Dy459 2.310 1_565 S
O463 C464 1.268 . S
C464 O462 1.254 1_556 S
C464 O463 1.268 . S
C465 O470 1.254 1_554 S
C465 O471 1.268 . S
O466 Dy459 2.351 . S
O466 C474 1.249 1_546 S
O467 Dy456 2.326 1_565 S
O467 C474 1.267 . S
O468 C457 1.185 . S
O468 Dy459 2.398 . S
O469 C457 1.355 . S
O469 Dy459 2.491 . S
O470 Dy459 2.403 . S
O470 C465 1.254 1_556 S
O471 Dy456 2.310 . S
O471 Dy459 2.664 1_554 S
O471 C465 1.268 . S
O472 Dy456 2.351 . S
O472 C475 1.249 . S
O473 Dy459 2.326 . S
O473 C475 1.267 1_556 S
C474 O466 1.249 1_564 S
C474 O467 1.267 . S
C475 O472 1.249 . S
C475 O473 1.267 1_554 S
Dy476 O480 2.398 . S
Dy476 O481 2.491 . S
Dy476 O482 2.403 . S
Dy476 O483 2.664 . S
Dy476 O487 2.326 . S
Dy476 O491 2.310 . S
Dy476 O492 2.351 . S
C477 O488 1.185 . S
C477 O489 1.355 . S
C478 O480 1.185 . S
C478 O481 1.355 . S
Dy479 O483 2.310 . S
Dy479 O486 2.351 . S
Dy479 O488 2.398 . S
Dy479 O489 2.491 . S
Dy479 O490 2.403 . S
Dy479 O491 2.664 . S
Dy479 O493 2.326 . S
O480 Dy476 2.398 . S
O480 C478 1.185 . S
O481 Dy476 2.491 . S
O481 C478 1.355 . S
O482 Dy476 2.403 . S
O482 C484 1.254 . S
O483 Dy476 2.664 . S
O483 Dy479 2.310 . S
O483 C484 1.268 . S
C484 O482 1.254 . S
C484 O483 1.268 . S
C485 O490 1.254 . S
C485 O491 1.268 . S
O486 Dy479 2.351 . S
O486 C494 1.249 . S
O487 Dy476 2.326 . S
O487 C494 1.267 . S
O488 C477 1.185 . S
O488 Dy479 2.398 . S
O489 C477 1.355 . S
O489 Dy479 2.491 . S
O490 Dy479 2.403 . S
O490 C485 1.254 . S
O491 Dy476 2.310 . S
O491 Dy479 2.664 . S
O491 C485 1.268 . S
O492 Dy476 2.351 . S
O492 C495 1.249 . S
O493 Dy479 2.326 . S
O493 C495 1.267 . S
C494 O486 1.249 . S
C494 O487 1.267 . S
C495 O492 1.249 . S
C495 O493 1.267 . S
Dy496 O500 2.398 . S
Dy496 O501 2.491 . S
Dy496 O502 2.403 . S
Dy496 O503 2.664 1_556 S
Dy496 O507 2.326 . S
Dy496 O511 2.310 . S
Dy496 O512 2.351 . S
C497 O508 1.185 . S
C497 O509 1.355 . S
C498 O500 1.185 . S
C498 O501 1.355 . S
Dy499 O503 2.310 . S
Dy499 O506 2.351 . S
Dy499 O508 2.398 . S
Dy499 O509 2.491 . S
Dy499 O510 2.403 . S
Dy499 O511 2.664 1_554 S
Dy499 O513 2.326 . S
O500 Dy496 2.398 . S
O500 C498 1.185 . S
O501 Dy496 2.491 . S
O501 C498 1.355 . S
O502 Dy496 2.403 . S
O502 C504 1.254 . S
O503 Dy496 2.664 1_554 S
O503 Dy499 2.310 . S
O503 C504 1.268 1_554 S
C504 O502 1.254 . S
C504 O503 1.268 1_556 S
C505 O510 1.254 . S
C505 O511 1.268 1_554 S
O506 Dy499 2.351 . S
O506 C514 1.249 1_554 S
O507 Dy496 2.326 . S
O507 C514 1.267 . S
O508 C497 1.185 . S
O508 Dy499 2.398 . S
O509 C497 1.355 . S
O509 Dy499 2.491 . S
O510 Dy499 2.403 . S
O510 C505 1.254 . S
O511 Dy496 2.310 . S
O511 Dy499 2.664 1_556 S
O511 C505 1.268 1_556 S
O512 Dy496 2.351 . S
O512 C515 1.249 1_556 S
O513 Dy499 2.326 . S
O513 C515 1.267 . S
C514 O506 1.249 1_556 S
C514 O507 1.267 . S
C515 O512 1.249 1_554 S
C515 O513 1.267 . S
Dy516 O520 2.398 . S
Dy516 O521 2.491 . S
Dy516 O522 2.403 . S
Dy516 O523 2.664 . S
Dy516 O527 2.326 . S
Dy516 O531 2.310 . S
Dy516 O532 2.351 . S
C517 O528 1.185 . S
C517 O529 1.355 . S
C518 O520 1.185 . S
C518 O521 1.355 . S
Dy519 O523 2.310 . S
Dy519 O526 2.351 . S
Dy519 O528 2.398 . S
Dy519 O529 2.491 . S
Dy519 O530 2.403 . S
Dy519 O531 2.664 . S
Dy519 O533 2.326 . S
O520 Dy516 2.398 . S
O520 C518 1.185 . S
O521 Dy516 2.491 . S
O521 C518 1.355 . S
O522 Dy516 2.403 . S
O522 C524 1.254 . S
O523 Dy516 2.664 . S
O523 Dy519 2.310 . S
O523 C524 1.268 . S
C524 O522 1.254 . S
C524 O523 1.268 . S
C525 O530 1.254 . S
C525 O531 1.268 . S
O526 Dy519 2.351 . S
O526 C534 1.249 . S
O527 Dy516 2.326 . S
O527 C534 1.267 . S
O528 C517 1.185 . S
O528 Dy519 2.398 . S
O529 C517 1.355 . S
O529 Dy519 2.491 . S
O530 Dy519 2.403 . S
O530 C525 1.254 . S
O531 Dy516 2.310 . S
O531 Dy519 2.664 . S
O531 C525 1.268 . S
O532 Dy516 2.351 . S
O532 C535 1.249 . S
O533 Dy519 2.326 . S
O533 C535 1.267 . S
C534 O526 1.249 . S
C534 O527 1.267 . S
C535 O532 1.249 . S
C535 O533 1.267 . S
Dy536 O540 2.401 . S
Dy536 O541 2.491 1_455 S
Dy536 O542 2.403 . S
Dy536 O543 2.664 . S
Dy536 O547 2.326 1_455 S
Dy536 O551 2.310 . S
Dy536 O552 2.351 . S
C537 O548 1.185 . S
C537 O549 1.355 . S
C538 O540 1.177 1_655 S
C538 O541 1.355 . S
Dy539 O543 2.310 . S
Dy539 O546 2.351 1_455 S
Dy539 O548 2.398 . S
Dy539 O549 2.491 . S
Dy539 O550 2.403 . S
Dy539 O551 2.664 . S
Dy539 O553 2.326 . S
O540 Dy536 2.401 . S
O540 C538 1.177 1_455 S
O541 Dy536 2.491 1_655 S
O541 C538 1.355 . S
O542 Dy536 2.403 . S
O542 C544 1.254 . S
O543 Dy536 2.664 . S
O543 Dy539 2.310 . S
O543 C544 1.268 . S
C544 O542 1.254 . S
C544 O543 1.268 . S
C545 O550 1.254 . S
C545 O551 1.268 . S
O546 Dy539 2.351 1_655 S
O546 C554 1.249 . S
O547 Dy536 2.326 1_655 S
O547 C554 1.267 . S
O548 C537 1.185 . S
O548 Dy539 2.398 . S
O549 C537 1.355 . S
O549 Dy539 2.491 . S
O550 Dy539 2.403 . S
O550 C545 1.254 . S
O551 Dy536 2.310 . S
O551 Dy539 2.664 . S
O551 C545 1.268 . S
O552 Dy536 2.351 . S
O552 C555 1.249 . S
O553 Dy539 2.326 . S
O553 C555 1.267 . S
C554 O546 1.249 . S
C554 O547 1.267 . S
C555 O552 1.249 . S
C555 O553 1.267 . S
Dy556 O560 2.398 . S
Dy556 O561 2.491 . S
Dy556 O562 2.403 . S
Dy556 O563 2.664 . S
Dy556 O567 2.326 . S
Dy556 O571 2.310 . S
Dy556 O572 2.351 . S
C557 O568 1.185 . S
C557 O569 1.355 . S
C558 O560 1.185 . S
C558 O561 1.355 . S
Dy559 O563 2.310 . S
Dy559 O566 2.351 . S
Dy559 O568 2.398 . S
Dy559 O569 2.491 . S
Dy559 O570 2.403 . S
Dy559 O571 2.664 . S
Dy559 O573 2.326 . S
O560 Dy556 2.398 . S
O560 C558 1.185 . S
O561 Dy556 2.491 . S
O561 C558 1.355 . S
O562 Dy556 2.403 . S
O562 C564 1.254 . S
O563 Dy556 2.664 . S
O563 Dy559 2.310 . S
O563 C564 1.268 . S
C564 O562 1.254 . S
C564 O563 1.268 . S
C565 O570 1.254 . S
C565 O571 1.268 . S
O566 Dy559 2.351 . S
O566 C574 1.249 . S
O567 Dy556 2.326 . S
O567 C574 1.267 . S
O568 C557 1.185 . S
O568 Dy559 2.398 . S
O569 C557 1.355 . S
O569 Dy559 2.491 . S
O570 Dy559 2.403 . S
O570 C565 1.254 . S
O571 Dy556 2.310 . S
O571 Dy559 2.664 . S
O571 C565 1.268 . S
O572 Dy556 2.351 . S
O572 C575 1.249 . S
O573 Dy559 2.326 . S
O573 C575 1.267 . S
C574 O566 1.249 . S
C574 O567 1.267 . S
C575 O572 1.249 . S
C575 O573 1.267 . S
Dy576 O580 2.398 . S
Dy576 O581 2.491 . S
Dy576 O582 2.403 . S
Dy576 O583 2.664 . S
Dy576 O587 2.326 . S
Dy576 O591 2.310 . S
Dy576 O592 2.351 . S
C577 O588 1.185 . S
C577 O589 1.355 . S
C578 O580 1.185 . S
C578 O581 1.355 . S
Dy579 O583 2.310 . S
Dy579 O586 2.351 . S
Dy579 O588 2.398 . S
Dy579 O589 2.491 . S
Dy579 O590 2.403 . S
Dy579 O591 2.664 . S
Dy579 O593 2.326 . S
O580 Dy576 2.398 . S
O580 C578 1.185 . S
O581 Dy576 2.491 . S
O581 C578 1.355 . S
O582 Dy576 2.403 . S
O582 C584 1.254 . S
O583 Dy576 2.664 . S
O583 Dy579 2.310 . S
O583 C584 1.268 . S
C584 O582 1.254 . S
C584 O583 1.268 . S
C585 O590 1.254 . S
C585 O591 1.268 . S
O586 Dy579 2.351 . S
O586 C594 1.249 . S
O587 Dy576 2.326 . S
O587 C594 1.267 . S
O588 C577 1.185 . S
O588 Dy579 2.398 . S
O589 C577 1.355 . S
O589 Dy579 2.491 . S
O590 Dy579 2.403 . S
O590 C585 1.254 . S
O591 Dy576 2.310 . S
O591 Dy579 2.664 . S
O591 C585 1.268 . S
O592 Dy576 2.351 . S
O592 C595 1.249 . S
O593 Dy579 2.326 . S
O593 C595 1.267 . S
C594 O586 1.249 . S
C594 O587 1.267 . S
C595 O592 1.249 . S
C595 O593 1.267 . S
Dy596 O600 2.398 . S
Dy596 O601 2.491 . S
Dy596 O602 2.403 . S
Dy596 O603 2.664 . S
Dy596 O607 2.326 . S
Dy596 O611 2.310 . S
Dy596 O612 2.351 . S
C597 O608 1.185 . S
C597 O609 1.355 . S
C598 O600 1.185 . S
C598 O601 1.355 . S
Dy599 O603 2.310 . S
Dy599 O606 2.351 . S
Dy599 O608 2.398 . S
Dy599 O609 2.491 . S
Dy599 O610 2.403 . S
Dy599 O611 2.664 . S
Dy599 O613 2.326 . S
O600 Dy596 2.398 . S
O600 C598 1.185 . S
O601 Dy596 2.491 . S
O601 C598 1.355 . S
O602 Dy596 2.403 . S
O602 C604 1.254 . S
O603 Dy596 2.664 . S
O603 Dy599 2.310 . S
O603 C604 1.268 . S
C604 O602 1.254 . S
C604 O603 1.268 . S
C605 O610 1.254 . S
C605 O611 1.268 . S
O606 Dy599 2.351 . S
O606 C614 1.249 . S
O607 Dy596 2.326 . S
O607 C614 1.267 . S
O608 C597 1.185 . S
O608 Dy599 2.398 . S
O609 C597 1.355 . S
O609 Dy599 2.491 . S
O610 Dy599 2.403 . S
O610 C605 1.254 . S
O611 Dy596 2.310 . S
O611 Dy599 2.664 . S
O611 C605 1.268 . S
O612 Dy596 2.351 . S
O612 C615 1.249 . S
O613 Dy599 2.326 . S
O613 C615 1.267 . S
C614 O606 1.249 . S
C614 O607 1.267 . S
C615 O612 1.249 . S
C615 O613 1.267 . S
Dy616 O620 2.398 . S
Dy616 O621 2.491 . S
Dy616 O622 2.403 . S
Dy616 O623 2.664 . S
Dy616 O627 2.326 . S
Dy616 O631 2.310 . S
Dy616 O632 2.351 . S
C617 O628 1.185 . S
C617 O629 1.355 . S
C618 O620 1.185 . S
C618 O621 1.355 . S
Dy619 O623 2.310 . S
Dy619 O626 2.351 . S
Dy619 O628 2.398 . S
Dy619 O629 2.491 . S
Dy619 O630 2.403 . S
Dy619 O631 2.664 . S
Dy619 O633 2.326 . S
O620 Dy616 2.398 . S
O620 C618 1.185 . S
O621 Dy616 2.491 . S
O621 C618 1.355 . S
O622 Dy616 2.403 . S
O622 C624 1.254 . S
O623 Dy616 2.664 . S
O623 Dy619 2.310 . S
O623 C624 1.268 . S
C624 O622 1.254 . S
C624 O623 1.268 . S
C625 O630 1.254 . S
C625 O631 1.268 . S
O626 Dy619 2.351 . S
O626 C634 1.249 . S
O627 Dy616 2.326 . S
O627 C634 1.267 . S
O628 C617 1.185 . S
O628 Dy619 2.398 . S
O629 C617 1.355 . S
O629 Dy619 2.491 . S
O630 Dy619 2.403 . S
O630 C625 1.254 . S
O631 Dy616 2.310 . S
O631 Dy619 2.664 . S
O631 C625 1.268 . S
O632 Dy616 2.351 . S
O632 C635 1.249 . S
O633 Dy619 2.326 . S
O633 C635 1.267 . S
C634 O626 1.249 . S
C634 O627 1.267 . S
C635 O632 1.249 . S
C635 O633 1.267 . S
Dy636 O640 2.398 . S
Dy636 O641 2.491 1_556 S
Dy636 O642 2.403 . S
Dy636 O643 2.664 . S
Dy636 O647 2.326 . S
Dy636 O651 2.310 1_556 S
Dy636 O652 2.351 1_556 S
C637 O648 1.185 . S
C637 O649 1.355 . S
C638 O640 1.185 . S
C638 O641 1.355 1_556 S
Dy639 O643 2.310 1_654 S
Dy639 O646 2.351 . S
Dy639 O648 2.398 . S
Dy639 O649 2.491 . S
Dy639 O650 2.403 . S
Dy639 O651 2.664 1_655 S
Dy639 O653 2.326 1_655 S
O640 Dy636 2.398 . S
O640 C638 1.185 . S
O641 Dy636 2.491 1_554 S
O641 C638 1.355 1_554 S
O642 Dy636 2.403 . S
O642 C644 1.254 . S
O643 Dy636 2.664 . S
O643 Dy639 2.310 1_456 S
O643 C644 1.268 . S
C644 O642 1.254 . S
C644 O643 1.268 . S
C645 O650 1.254 1_455 S
C645 O651 1.268 . S
O646 Dy639 2.351 . S
O646 C654 1.249 1_654 S
O647 Dy636 2.326 . S
O647 C654 1.267 . S
O648 C637 1.185 . S
O648 Dy639 2.398 . S
O649 C637 1.355 . S
O649 Dy639 2.491 . S
O650 Dy639 2.403 . S
O650 C645 1.254 1_655 S
O651 Dy636 2.310 1_554 S
O651 Dy639 2.664 1_455 S
O651 C645 1.268 . S
O652 Dy636 2.351 1_554 S
O652 C655 1.249 . S
O653 Dy639 2.326 1_455 S
O653 C655 1.267 . S
C654 O646 1.249 1_456 S
C654 O647 1.267 . S
C655 O652 1.249 . S
C655 O653 1.267 . S
C111 C354 2.238 1_655 S
C64 C365 2.317 . S
C77 C394 1.104 . S
C397 C95 1.279 . S
C25 C435 1.604 . S
C438 C36 1.961 . S
C465 C50 1.882 . S
C11 C494 1.941 . S
C345 C237 1.830 1_455 S
C245 C357 1.264 . S
C385 C279 1.387 . S
C414 C175 1.557 . S
C231 C418 1.171 . S
C444 C251 1.628 . S
C457 C273 0.874 . S
C485 C181 2.034 . S
C337 C165 2.188 1_545 S
C288 C504 2.034 . S
C535 C333 2.030 . S
C554 C316 0.834 . S
C123 C477 2.136 . S
C137 C377 1.960 . S
C330 C565 1.714 . S
C594 C302 1.183 . S
C355 C63 2.286 . S
C584 C106 2.244 . S
C97 C395 1.143 . S
C81 C558 1.251 . S
C434 C13 1.545 . S
C55 C517 1.095 . S
C464 C35 1.670 . S
C615 C21 2.144 . S
C344 C147 2.090 1_565 S
C578 C321 0.899 . S
C119 C384 1.492 . S
C293 C575 1.792 . S
C153 C417 1.008 . S
C525 C315 1.708 . S
C125 C458 0.841 . S
C287 C604 2.178 . S
C193 C338 2.052 1_554 S
C176 C505 2.005 . S
C263 C454 1.902 . S
C246 C555 0.970 . S
C598 C277 1.885 . S
C221 C378 1.764 . S
C404 C260 1.845 . S
C375 C204 1.035 . S
C83 C634 2.241 . S
C585 C92 2.317 . S
C105 C654 1.104 . S
C67 C557 1.279 . S
C53 C515 1.604 . S
C518 C8 1.961 . S
C545 C22 1.882 . S
C614 C39 1.941 . S
C625 C265 1.830 . S
C189 C577 1.264 . S
C645 C209 1.386 . S
C574 C217 1.557 . S
C498 C259 1.171 . S
C195 C524 1.628 . S
C537 C203 0.875 . S
C223 C605 2.035 . S
C617 C319 2.188 . S
C134 C424 2.034 . S
C455 C151 2.030 . S
C474 C162 0.834 . S
C597 C305 2.137 . S
C291 C637 1.960 1_556 S
C405 C148 1.714 . S
C374 C120 1.183 . S
C91 C635 2.286 . S
C364 C78 2.243 . S
C69 C655 1.143 . S
C109 C398 1.249 . S
C41 C514 1.545 . S
C437 C27 1.095 . S
C7 C544 1.670 . S
C49 C495 2.144 . S
C624 C329 2.090 . S
C167 C358 0.898 . S
C644 C301 1.492 1_455 S
C139 C415 1.793 . S
C335 C497 1.008 . S
C445 C161 1.708 . S
C307 C538 0.842 . S
C484 C133 2.178 . S
C618 C249 2.052 . S
C425 C218 2.006 . S
C235 C534 1.902 . S
C475 C190 0.970 . S
C207 C478 1.886 . S
C179 C638 1.765 1_554 S
C564 C232 1.845 . S
C595 C274 1.035 . S
