# Generated by pormake.
# Topology eea, (3,6)-cn, num edge types: 1
# Building blocks:
#     Node 0, Type 0, BuildingBlock: OLANEW_clean_sbu_2, # of connection points: 3
#     Node 1, Type 0, BuildingBlock: OLANEW_clean_sbu_2, # of connection points: 3
#     Node 2, Type 0, BuildingBlock: OLANEW_clean_sbu_2, # of connection points: 3
#     Node 3, Type 0, BuildingBlock: OLANEW_clean_sbu_2, # of connection points: 3
#     Node 4, Type 0, BuildingBlock: OLANEW_clean_sbu_2, # of connection points: 3
#     Node 5, Type 0, BuildingBlock: OLANEW_clean_sbu_2, # of connection points: 3
#     Node 6, Type 0, BuildingBlock: OLANEW_clean_sbu_2, # of connection points: 3
#     Node 7, Type 0, BuildingBlock: OLANEW_clean_sbu_2, # of connection points: 3
#     Node 8, Type 0, BuildingBlock: OLANEW_clean_sbu_2, # of connection points: 3
#     Node 9, Type 0, BuildingBlock: OLANEW_clean_sbu_2, # of connection points: 3
#     Node 10, Type 0, BuildingBlock: OLANEW_clean_sbu_2, # of connection points: 3
#     Node 11, Type 0, BuildingBlock: OLANEW_clean_sbu_2, # of connection points: 3
#     Node 12, Type 0, BuildingBlock: OLANEW_clean_sbu_2, # of connection points: 3
#     Node 13, Type 0, BuildingBlock: OLANEW_clean_sbu_2, # of connection points: 3
#     Node 14, Type 0, BuildingBlock: OLANEW_clean_sbu_2, # of connection points: 3
#     Node 15, Type 0, BuildingBlock: OLANEW_clean_sbu_2, # of connection points: 3
#     Node 16, Type 0, BuildingBlock: OLANEW_clean_sbu_2, # of connection points: 3
#     Node 17, Type 0, BuildingBlock: OLANEW_clean_sbu_2, # of connection points: 3
#     Node 18, Type 1, BuildingBlock: KUMBUR_clean_sbu_0, # of connection points: 6
#     Node 19, Type 1, BuildingBlock: KUMBUR_clean_sbu_0, # of connection points: 6
#     Node 20, Type 1, BuildingBlock: KUMBUR_clean_sbu_0, # of connection points: 6
#     Node 21, Type 1, BuildingBlock: KUMBUR_clean_sbu_0, # of connection points: 6
#     Node 22, Type 1, BuildingBlock: KUMBUR_clean_sbu_0, # of connection points: 6
#     Node 23, Type 1, BuildingBlock: KUMBUR_clean_sbu_0, # of connection points: 6
#     Node 24, Type 1, BuildingBlock: KUMBUR_clean_sbu_0, # of connection points: 6
#     Node 25, Type 1, BuildingBlock: KUMBUR_clean_sbu_0, # of connection points: 6
#     Node 26, Type 1, BuildingBlock: KUMBUR_clean_sbu_0, # of connection points: 6
#     Edge 27, Type (0, 1), BuildingBlock: ZUJKAS_clean_linker_0, # of connection points: 2
#     Edge 28, Type (0, 1), BuildingBlock: ZUJKAS_clean_linker_0, # of connection points: 2
#     Edge 29, Type (0, 1), BuildingBlock: ZUJKAS_clean_linker_0, # of connection points: 2
#     Edge 30, Type (0, 1), BuildingBlock: ZUJKAS_clean_linker_0, # of connection points: 2
#     Edge 31, Type (0, 1), BuildingBlock: ZUJKAS_clean_linker_0, # of connection points: 2
#     Edge 32, Type (0, 1), BuildingBlock: ZUJKAS_clean_linker_0, # of connection points: 2
#     Edge 33, Type (0, 1), BuildingBlock: ZUJKAS_clean_linker_0, # of connection points: 2
#     Edge 34, Type (0, 1), BuildingBlock: ZUJKAS_clean_linker_0, # of connection points: 2
#     Edge 35, Type (0, 1), BuildingBlock: ZUJKAS_clean_linker_0, # of connection points: 2
#     Edge 36, Type (0, 1), BuildingBlock: ZUJKAS_clean_linker_0, # of connection points: 2
#     Edge 37, Type (0, 1), BuildingBlock: ZUJKAS_clean_linker_0, # of connection points: 2
#     Edge 38, Type (0, 1), BuildingBlock: ZUJKAS_clean_linker_0, # of connection points: 2
#     Edge 39, Type (0, 1), BuildingBlock: ZUJKAS_clean_linker_0, # of connection points: 2
#     Edge 40, Type (0, 1), BuildingBlock: ZUJKAS_clean_linker_0, # of connection points: 2
#     Edge 41, Type (0, 1), BuildingBlock: ZUJKAS_clean_linker_0, # of connection points: 2
#     Edge 42, Type (0, 1), BuildingBlock: ZUJKAS_clean_linker_0, # of connection points: 2
#     Edge 43, Type (0, 1), BuildingBlock: ZUJKAS_clean_linker_0, # of connection points: 2
#     Edge 44, Type (0, 1), BuildingBlock: ZUJKAS_clean_linker_0, # of connection points: 2
#     Edge 45, Type (0, 1), BuildingBlock: ZUJKAS_clean_linker_0, # of connection points: 2
#     Edge 46, Type (0, 1), BuildingBlock: ZUJKAS_clean_linker_0, # of connection points: 2
#     Edge 47, Type (0, 1), BuildingBlock: ZUJKAS_clean_linker_0, # of connection points: 2
#     Edge 48, Type (0, 1), BuildingBlock: ZUJKAS_clean_linker_0, # of connection points: 2
#     Edge 49, Type (0, 1), BuildingBlock: ZUJKAS_clean_linker_0, # of connection points: 2
#     Edge 50, Type (0, 1), BuildingBlock: ZUJKAS_clean_linker_0, # of connection points: 2
#     Edge 51, Type (0, 1), BuildingBlock: ZUJKAS_clean_linker_0, # of connection points: 2
#     Edge 52, Type (0, 1), BuildingBlock: ZUJKAS_clean_linker_0, # of connection points: 2
#     Edge 53, Type (0, 1), BuildingBlock: ZUJKAS_clean_linker_0, # of connection points: 2
#     Edge 54, Type (0, 1), BuildingBlock: ZUJKAS_clean_linker_0, # of connection points: 2
#     Edge 55, Type (0, 1), BuildingBlock: ZUJKAS_clean_linker_0, # of connection points: 2
#     Edge 56, Type (0, 1), BuildingBlock: ZUJKAS_clean_linker_0, # of connection points: 2
#     Edge 57, Type (0, 1), BuildingBlock: ZUJKAS_clean_linker_0, # of connection points: 2
#     Edge 58, Type (0, 1), BuildingBlock: ZUJKAS_clean_linker_0, # of connection points: 2
#     Edge 59, Type (0, 1), BuildingBlock: ZUJKAS_clean_linker_0, # of connection points: 2
#     Edge 60, Type (0, 1), BuildingBlock: ZUJKAS_clean_linker_0, # of connection points: 2
#     Edge 61, Type (0, 1), BuildingBlock: ZUJKAS_clean_linker_0, # of connection points: 2
#     Edge 62, Type (0, 1), BuildingBlock: ZUJKAS_clean_linker_0, # of connection points: 2
#     Edge 63, Type (0, 1), BuildingBlock: ZUJKAS_clean_linker_0, # of connection points: 2
#     Edge 64, Type (0, 1), BuildingBlock: ZUJKAS_clean_linker_0, # of connection points: 2
#     Edge 65, Type (0, 1), BuildingBlock: ZUJKAS_clean_linker_0, # of connection points: 2
#     Edge 66, Type (0, 1), BuildingBlock: ZUJKAS_clean_linker_0, # of connection points: 2
#     Edge 67, Type (0, 1), BuildingBlock: ZUJKAS_clean_linker_0, # of connection points: 2
#     Edge 68, Type (0, 1), BuildingBlock: ZUJKAS_clean_linker_0, # of connection points: 2
#     Edge 69, Type (0, 1), BuildingBlock: ZUJKAS_clean_linker_0, # of connection points: 2
#     Edge 70, Type (0, 1), BuildingBlock: ZUJKAS_clean_linker_0, # of connection points: 2
#     Edge 71, Type (0, 1), BuildingBlock: ZUJKAS_clean_linker_0, # of connection points: 2
#     Edge 72, Type (0, 1), BuildingBlock: ZUJKAS_clean_linker_0, # of connection points: 2
#     Edge 73, Type (0, 1), BuildingBlock: ZUJKAS_clean_linker_0, # of connection points: 2
#     Edge 74, Type (0, 1), BuildingBlock: ZUJKAS_clean_linker_0, # of connection points: 2
#     Edge 75, Type (0, 1), BuildingBlock: ZUJKAS_clean_linker_0, # of connection points: 2
#     Edge 76, Type (0, 1), BuildingBlock: ZUJKAS_clean_linker_0, # of connection points: 2
#     Edge 77, Type (0, 1), BuildingBlock: ZUJKAS_clean_linker_0, # of connection points: 2
#     Edge 78, Type (0, 1), BuildingBlock: ZUJKAS_clean_linker_0, # of connection points: 2
#     Edge 79, Type (0, 1), BuildingBlock: ZUJKAS_clean_linker_0, # of connection points: 2
#     Edge 80, Type (0, 1), BuildingBlock: ZUJKAS_clean_linker_0, # of connection points: 2
# Relax obj value: 0.011
# Max RMSD: 0.148
# Mean RMSD: 0.104
data_MOF--net-eea--node1-OLANEW_clean_sbu_2--node2-KUMBUR_clean_sbu_0--edge1-ZUJKAS_clean_linker_0
_symmetry_space_group_name_H-M    P1
_symmetry_Int_Tables_number       1
_symmetry_cell_setting            triclinic
loop_
_symmetry_equiv_pos_as_xyz
'x, y, z'
_cell_length_a     77.420235
_cell_length_b     77.834419
_cell_length_c     83.388316
_cell_angle_alpha  94.684779
_cell_angle_beta   90.231634
_cell_angle_gamma 120.60954
loop_
_atom_site_label
_atom_site_type_symbol
_atom_site_fract_x
_atom_site_fract_y
_atom_site_fract_z
_atom_type_partial_charge
O0 O 0.21049 0.11511 0.44177 0.0
Cd1 Cd 0.18749 0.10078 0.41789 0.0
O2 O 0.23769 0.1235 0.42846 0.0
Cd3 Cd 0.22022 0.10543 0.4066 0.0
O4 O 0.20973 0.07578 0.39411 0.0
C5 C 0.22007 0.06821 0.3982 0.0
O6 O 0.23553 0.07889 0.40854 0.0
C7 C 0.22951 0.12356 0.44163 0.0
C8 C 0.18336 0.13033 0.40468 0.0
O9 O 0.17266 0.12108 0.41621 0.0
O10 O 0.19592 0.12547 0.39925 0.0
O11 O 0.90304 0.1249 0.43273 0.0
Cd12 Cd 0.90803 0.11478 0.40542 0.0
O13 O 0.91998 0.11353 0.4448 0.0
Cd14 Cd 0.91848 0.09615 0.42246 0.0
O15 O 0.89616 0.06912 0.40787 0.0
C16 C 0.87813 0.06441 0.4103 0.0
O17 O 0.87496 0.07626 0.42042 0.0
C18 C 0.91059 0.12301 0.44558 0.0
C19 C 0.94397 0.14495 0.39462 0.0
O20 O 0.92752 0.14493 0.39269 0.0
O21 O 0.94338 0.13054 0.40151 0.0
O22 O 0.90133 0.7583 0.43455 0.0
Cd23 Cd 0.90924 0.76986 0.40761 0.0
O24 O 0.87437 0.761 0.43648 0.0
Cd25 Cd 0.87382 0.77259 0.41356 0.0
O26 O 0.85675 0.78118 0.39842 0.0
C27 C 0.85462 0.79561 0.40415 0.0
O28 O 0.86386 0.8053 0.41806 0.0
C29 C 0.88649 0.75639 0.4424 0.0
C30 C 0.94751 0.77791 0.39926 0.0
O31 O 0.94468 0.79206 0.40487 0.0
O32 O 0.93232 0.76001 0.39761 0.0
O33 O 0.13668 0.22633 0.58995 0.0
Cd34 Cd 0.12975 0.21122 0.61558 0.0
O35 O 0.10982 0.22926 0.58839 0.0
Cd36 Cd 0.095 0.21666 0.61033 0.0
O37 O 0.06811 0.20863 0.62394 0.0
C38 C 0.05329 0.2068 0.61572 0.0
O39 O 0.05524 0.20933 0.6003 0.0
C40 C 0.12598 0.23163 0.58256 0.0
C41 C 0.16061 0.20508 0.62581 0.0
O42 O 0.14576 0.19168 0.61657 0.0
O43 O 0.16088 0.22138 0.63026 0.0
O44 O 0.77164 0.8713 0.59718 0.0
Cd45 Cd 0.78756 0.88039 0.62437 0.0
O46 O 0.80024 0.88784 0.58546 0.0
Cd47 Cd 0.81581 0.90437 0.60835 0.0
O48 O 0.82123 0.93051 0.62428 0.0
C49 C 0.8074 0.9347 0.62328 0.0
O50 O 0.79141 0.92276 0.61375 0.0
C51 C 0.78128 0.87604 0.58441 0.0
C52 C 0.79453 0.85062 0.63349 0.0
O53 O 0.77806 0.8501 0.63649 0.0
O54 O 0.80779 0.86532 0.6263 0.0
O55 O 0.09042 0.87245 0.59397 0.0
Cd56 Cd 0.08285 0.88366 0.61986 0.0
O57 O 0.11349 0.86781 0.6048 0.0
Cd58 Cd 0.11522 0.88472 0.62753 0.0
O59 O 0.13376 0.91488 0.63967 0.0
C60 C 0.14295 0.92818 0.63003 0.0
O61 O 0.13974 0.92273 0.61446 0.0
C62 C 0.10288 0.86642 0.59253 0.0
C63 C 0.04842 0.85229 0.6315 0.0
O64 O 0.04727 0.8641 0.62227 0.0
O65 O 0.06591 0.85545 0.63538 0.0
O66 O 0.89099 0.45522 0.7689 0.0
Cd67 Cd 0.8715 0.44475 0.74317 0.0
O68 O 0.91803 0.45848 0.7577 0.0
Cd69 Cd 0.90172 0.4422 0.73497 0.0
O70 O 0.88853 0.41202 0.72271 0.0
C71 C 0.88308 0.39848 0.7323 0.0
O72 O 0.88493 0.40376 0.74788 0.0
C73 C 0.90942 0.46037 0.7701 0.0
C74 C 0.86738 0.47583 0.73303 0.0
O75 O 0.85425 0.46289 0.74164 0.0
O76 O 0.88238 0.47396 0.72912 0.0
O77 O 0.57741 0.46321 0.77002 0.0
Cd78 Cd 0.58465 0.45457 0.74301 0.0
O79 O 0.57933 0.43938 0.78087 0.0
Cd80 Cd 0.57834 0.42394 0.75754 0.0
O81 O 0.55783 0.39781 0.74112 0.0
C82 C 0.53943 0.39243 0.74236 0.0
O83 O 0.53488 0.40324 0.75244 0.0
C84 C 0.57724 0.45461 0.78239 0.0
C85 C 0.62067 0.4859 0.73325 0.0
O86 O 0.60398 0.48526 0.73083 0.0
O87 O 0.62033 0.47165 0.74021 0.0
O88 O 0.57005 0.09552 0.76957 0.0
Cd89 Cd 0.57969 0.11315 0.74514 0.0
O90 O 0.5387 0.08878 0.76822 0.0
Cd91 Cd 0.53863 0.10406 0.74736 0.0
O92 O 0.52079 0.11395 0.73473 0.0
C93 C 0.50905 0.117 0.74354 0.0
O94 O 0.5092 0.11471 0.75897 0.0
C95 C 0.55263 0.08752 0.77515 0.0
C96 C 0.61681 0.11958 0.73488 0.0
O97 O 0.61575 0.13239 0.74487 0.0
O98 O 0.60032 0.10371 0.72971 0.0
O99 O 0.80439 0.56445 0.92312 0.0
Cd100 Cd 0.79609 0.54514 0.94658 0.0
O101 O 0.77775 0.56779 0.92153 0.0
Cd102 Cd 0.76155 0.55317 0.94245 0.0
O103 O 0.73471 0.54434 0.95634 0.0
C104 C 0.71924 0.54134 0.94832 0.0
O105 O 0.7204 0.54309 0.93276 0.0
C106 C 0.79431 0.57074 0.91613 0.0
C107 C 0.82818 0.54066 0.95635 0.0
O108 O 0.81592 0.52936 0.94456 0.0
O109 O 0.82527 0.55404 0.96366 0.0
O110 O 0.44547 0.20804 0.93188 0.0
Cd111 Cd 0.464 0.21738 0.95801 0.0
O112 O 0.47295 0.22681 0.91943 0.0
Cd113 Cd 0.48939 0.24369 0.94199 0.0
O114 O 0.49502 0.26929 0.95878 0.0
C115 C 0.4808 0.27297 0.95895 0.0
O116 O 0.46433 0.26091 0.94995 0.0
C117 C 0.45426 0.21388 0.91886 0.0
C118 C 0.46908 0.18643 0.96713 0.0
O119 O 0.45477 0.18868 0.97244 0.0
O120 O 0.48102 0.19885 0.9576 0.0
O121 O 0.75674 0.19487 0.92585 0.0
Cd122 Cd 0.74795 0.20801 0.9501 0.0
O123 O 0.78871 0.21104 0.93389 0.0
Cd124 Cd 0.78603 0.22701 0.95552 0.0
O125 O 0.80004 0.25591 0.96992 0.0
C126 C 0.80753 0.27087 0.96165 0.0
O127 O 0.80503 0.26757 0.94587 0.0
C128 C 0.77468 0.19922 0.92355 0.0
C129 C 0.71317 0.17806 0.96236 0.0
O130 O 0.71232 0.18897 0.95203 0.0
O131 O 0.73052 0.18145 0.967 0.0
O132 O 0.55211 0.78445 0.1041 0.0
Cd133 Cd 0.5286 0.77108 0.08049 0.0
O134 O 0.57869 0.79131 0.09035 0.0
Cd135 Cd 0.56025 0.77335 0.06882 0.0
O136 O 0.54697 0.74319 0.0565 0.0
C137 C 0.54179 0.72949 0.06591 0.0
O138 O 0.54378 0.73449 0.08153 0.0
C139 C 0.57102 0.792 0.10367 0.0
C140 C 0.52461 0.80139 0.0685 0.0
O141 O 0.51413 0.79186 0.08003 0.0
O142 O 0.53689 0.79647 0.06251 0.0
O143 O 0.24695 0.78774 0.10226 0.0
Cd144 Cd 0.25506 0.77664 0.07664 0.0
O145 O 0.25022 0.76621 0.11556 0.0
Cd146 Cd 0.24986 0.74888 0.09352 0.0
O147 O 0.2313 0.72262 0.07656 0.0
C148 C 0.2174 0.72248 0.06829 0.0
O149 O 0.21595 0.73864 0.06938 0.0
C150 C 0.24736 0.78091 0.11552 0.0
C151 C 0.28975 0.80831 0.06568 0.0
O152 O 0.2723 0.80487 0.06129 0.0
O153 O 0.29078 0.79659 0.07508 0.0
O154 O 0.23591 0.43065 0.10375 0.0
Cd155 Cd 0.24675 0.44833 0.07938 0.0
O156 O 0.20521 0.42583 0.10284 0.0
Cd157 Cd 0.20526 0.44112 0.0819 0.0
O158 O 0.18724 0.45045 0.06873 0.0
C159 C 0.16834 0.43836 0.06822 0.0
O160 O 0.1615 0.42137 0.07471 0.0
C161 C 0.21866 0.42362 0.10955 0.0
C162 C 0.28407 0.45426 0.07006 0.0
O163 O 0.2829 0.4672 0.07982 0.0
O164 O 0.26761 0.43849 0.0647 0.0
O165 O 0.47216 0.894 0.25768 0.0
Cd166 Cd 0.46791 0.88211 0.28452 0.0
O167 O 0.44249 0.8911 0.25376 0.0
Cd168 Cd 0.42834 0.88052 0.27642 0.0
O169 O 0.40222 0.87385 0.29073 0.0
C170 C 0.38775 0.87345 0.28308 0.0
O171 O 0.38956 0.87666 0.26778 0.0
C172 C 0.45974 0.89568 0.24886 0.0
C173 C 0.49954 0.87649 0.29357 0.0
O174 O 0.48311 0.86193 0.28678 0.0
O175 O 0.50099 0.89365 0.29615 0.0
O176 O 0.11241 0.53943 0.26202 0.0
Cd177 Cd 0.13366 0.54964 0.28679 0.0
O178 O 0.13782 0.56027 0.24851 0.0
Cd179 Cd 0.15603 0.57819 0.27012 0.0
O180 O 0.16544 0.60705 0.28363 0.0
C181 C 0.15708 0.60835 0.29639 0.0
O182 O 0.14368 0.59184 0.30235 0.0
C183 C 0.11966 0.5461 0.24871 0.0
C184 C 0.13762 0.51788 0.29545 0.0
O185 O 0.12452 0.5214 0.30175 0.0
O186 O 0.14898 0.52951 0.28522 0.0
O187 O 0.39187 0.53627 0.23547 0.0
Cd188 Cd 0.37332 0.54284 0.25629 0.0
O189 O 0.41751 0.55294 0.2528 0.0
Cd190 Cd 0.44904 0.57014 0.26131 0.0
O191 O 0.47737 0.59482 0.27224 0.0
C192 C 0.48918 0.60838 0.26362 0.0
O193 O 0.48441 0.60654 0.24817 0.0
C194 C 0.41043 0.54355 0.23896 0.0
C195 C 0.34765 0.50887 0.27138 0.0
O196 O 0.34154 0.51354 0.25906 0.0
O197 O 0.36602 0.52027 0.27655 0.0
Tb198 Tb 0.49062 0.98218 0.99189 0.0
C199 C 0.53772 0.05097 0.04495 0.0
C200 C 0.57224 0.0598 0.04201 0.0
C201 C 0.56468 0.08523 0.05238 0.0
C202 C 0.55148 0.0456 0.04031 0.0
C203 C 0.5441 0.07068 0.05148 0.0
C204 C 0.57875 0.0798 0.04761 0.0
C205 C 0.50959 0.05957 0.05718 0.0
N206 N 0.51806 0.0364 0.04402 0.0
C207 C 0.50403 0.04022 0.05058 0.0
C208 C 0.52968 0.07496 0.05741 0.0
Tb209 Tb 0.5102 0.00525 0.03267 0.0
N210 N 0.54451 0.02607 0.03524 0.0
C211 C 0.55773 0.01944 0.03297 0.0
C212 C 0.58578 0.05331 0.0386 0.0
C213 C 0.57849 0.03297 0.03435 0.0
H214 H 0.48845 0.02848 0.05033 0.0
H215 H 0.58883 0.02768 0.03205 0.0
H216 H 0.59462 0.091 0.04879 0.0
H217 H 0.49836 0.06262 0.06202 0.0
H218 H 0.55245 0.00382 0.02957 0.0
H219 H 0.41303 0.96341 0.99062 0.0
H220 H 0.60186 0.06374 0.03969 0.0
H221 H 0.51138 0.95727 0.97572 0.0
H222 H 0.44941 0.98552 0.99533 0.0
H223 H 0.50038 0.92294 0.9638 0.0
H224 H 0.56991 0.10054 0.05718 0.0
H225 H 0.39879 0.92773 0.98085 0.0
H226 H 0.4046 0.89947 0.972 0.0
H227 H 0.53395 0.08991 0.06256 0.0
H228 H 0.42842 0.88828 0.96501 0.0
N229 N 0.45623 0.96254 0.98904 0.0
C230 C 0.44365 0.96998 0.99128 0.0
C231 C 0.41488 0.93728 0.98322 0.0
C232 C 0.42777 0.92984 0.98046 0.0
C233 C 0.42287 0.95745 0.98862 0.0
C234 C 0.44862 0.94305 0.98341 0.0
H235 H 0.46422 0.89702 0.96166 0.0
N236 N 0.48181 0.95065 0.98094 0.0
C237 C 0.4894 0.92662 0.96817 0.0
C238 C 0.46192 0.93686 0.97925 0.0
C239 C 0.49557 0.94606 0.97491 0.0
C240 C 0.46899 0.91202 0.96704 0.0
C241 C 0.45491 0.91715 0.97231 0.0
O242 O 0.50485 0.98846 0.96986 0.0
O243 O 0.51528 0.00506 0.00733 0.0
O244 O 0.50741 0.02727 0.02005 0.0
O245 O 0.48464 0.00668 0.99871 0.0
O246 O 0.52231 0.99205 0.98836 0.0
O247 O 0.48064 0.99389 0.97465 0.0
O248 O 0.49693 -0.00147 0.05507 0.0
O249 O 0.48551 0.98256 0.01715 0.0
O250 O 0.49289 0.96013 1.00493 0.0
O251 O 0.5168 0.9813 0.02538 0.0
O252 O 0.47834 0.99467 0.03652 0.0
O253 O 0.52099 0.99333 0.04906 0.0
C254 C 0.52988 0.00575 1.00024 0.0
C255 C 0.4842 0.98511 0.94758 0.0
C256 C 0.48555 0.9877 0.91854 0.0
C257 C 0.49377 -0.00432 0.93436 0.0
C258 C 0.46779 0.96882 0.91619 0.0
C259 C 0.46641 0.96643 0.94493 0.0
C260 C 0.45833 0.95831 0.92931 0.0
C261 C 0.49456 0.02395 0.00798 0.0
C262 C 0.4929 0.99384 0.96401 0.0
C263 C 0.43414 0.90354 0.97022 0.0
C264 C 0.42058 0.90991 0.97421 0.0
C265 C 0.47078 0.98141 0.02433 0.0
C266 C 0.5186 0.00144 0.07647 0.0
C267 C 0.51171 0.98934 0.0893 0.0
C268 C 0.52097 -0.00311 0.10488 0.0
C269 C 0.5371 0.01681 0.10742 0.0
C270 C 0.53472 0.02122 0.07928 0.0
C271 C 0.54387 0.02886 0.09469 0.0
C272 C 0.50617 0.96366 0.01671 0.0
C273 C 0.50914 0.99306 0.06019 0.0
H274 H 0.50737 0.01026 0.93643 0.0
H275 H 0.46126 0.96212 0.90418 0.0
H276 H 0.45868 0.95817 0.95487 0.0
H277 H 0.44464 0.94383 0.92737 0.0
H278 H 0.4994 0.97397 0.08707 0.0
H279 H 0.54435 0.02315 0.1193 0.0
H280 H 0.54033 0.03072 0.06961 0.0
H281 H 0.55628 0.04416 0.09677 0.0
Tb282 Tb 0.01438 0.49561 0.99392 0.0
C283 C 0.95566 0.49545 0.04379 0.0
C284 C 0.95029 0.52221 0.0375 0.0
C285 C 0.92424 0.49379 0.05004 0.0
C286 C 0.96235 0.51343 0.03742 0.0
C287 C 0.93671 0.48558 0.05051 0.0
C288 C 0.93101 0.51208 0.04352 0.0
C289 C 0.94459 0.46121 0.05879 0.0
N290 N 0.96818 0.4881 0.04403 0.0
C291 C 0.96327 0.47162 0.05201 0.0
C292 C 0.93113 0.46808 0.05786 0.0
Tb293 Tb 0.99843 0.50608 0.03258 0.0
N294 N 0.98111 0.52276 0.03184 0.0
C295 C 0.98928 0.54176 0.02726 0.0
C296 C 0.95817 0.54112 0.03191 0.0
C297 C 0.97786 0.55105 0.02698 0.0
H298 H 0.97352 0.46613 0.05275 0.0
H299 H 0.98425 0.56584 0.02291 0.0
H300 H 0.92144 0.51848 0.04355 0.0
H301 H 0.94058 0.44791 0.06473 0.0
H302 H 0.00443 0.5497 0.02335 0.0
H303 H 0.02686 0.43428 1.00148 0.0
H304 H 0.94937 0.54835 0.03168 0.0
H305 H 0.04049 0.53653 0.9751 0.0
H306 H 0.00723 0.45102 1.00157 0.0
H307 H 0.07409 0.55522 0.96418 0.0
H308 H 0.90954 0.48635 0.05501 0.0
H309 H 0.0622 0.452 0.99382 0.0
H310 H 0.09111 0.48264 0.98364 0.0
H311 H 0.91669 0.46003 0.06317 0.0
H312 H 0.10399 0.51561 0.97339 0.0
N313 N 0.03126 0.47847 0.99439 0.0
C314 C 0.02258 0.45907 0.99814 0.0
C315 C 0.05365 0.45951 0.99383 0.0
C316 C 0.06212 0.47891 0.98914 0.0
C317 C 0.03369 0.44944 0.99812 0.0
C318 C 0.05031 0.48798 0.9894 0.0
H319 H 0.09762 0.54267 0.96583 0.0
N320 N 0.04514 0.51391 0.9833 0.0
C321 C 0.06965 0.54154 0.96968 0.0
C322 C 0.0575 0.50636 0.98359 0.0
C323 C 0.0506 0.53087 0.97585 0.0
C324 C 0.08291 0.53443 0.97067 0.0
C325 C 0.07678 0.51646 0.97745 0.0
O326 O 0.00578 0.49756 0.97049 0.0
O327 O 0.99516 0.50381 1.00674 0.0
O328 O 0.97275 0.47883 0.02101 0.0
O329 O 0.9889 0.46829 1.00247 0.0
O330 O 0.00665 0.51745 0.98648 0.0
O331 O 0.99894 0.46909 0.97833 0.0
O332 O 0.0088 0.50512 0.05565 0.0
O333 O 0.01731 0.49753 0.01969 0.0
O334 O 0.04015 0.52221 1.00627 0.0
O335 O 0.02361 0.53331 0.02372 0.0
O336 O 0.00608 0.48422 0.04014 0.0
O337 O 0.01319 0.53283 0.048 0.0
C338 C 0.9948 0.51583 0.99774 0.0
C339 C 0.00574 0.47411 0.95087 0.0
C340 C 0.00406 0.47185 0.92146 0.0
C341 C 0.99755 0.4756 0.93638 0.0
C342 C 0.01902 0.46665 0.9213 0.0
C343 C 0.02052 0.46874 0.95044 0.0
C344 C 0.02714 0.4651 0.93572 0.0
C345 C 0.97307 0.46501 0.01084 0.0
C346 C 0.99886 0.47863 0.9662 0.0
C347 C 0.08904 0.50801 0.9779 0.0
C348 C 0.08172 0.48925 0.98374 0.0
C349 C 0.01748 0.48538 0.02864 0.0
C350 C 0.00787 0.5276 0.07562 0.0
C351 C 0.01647 0.52576 0.08972 0.0
C352 C 0.00998 0.52854 0.10492 0.0
C353 C 0.99459 0.5331 0.10581 0.0
C354 C 0.99262 0.53229 0.07672 0.0
C355 C 0.98602 0.53499 0.09177 0.0
C356 C 0.0398 0.53627 0.01609 0.0
C357 C 0.01463 0.52379 0.05998 0.0
H358 H 0.98591 0.47943 0.93676 0.0
H359 H 0.02456 0.46395 0.91005 0.0
H360 H 0.02694 0.46732 0.96142 0.0
H361 H 0.03863 0.46108 0.93547 0.0
H362 H 0.02804 0.52184 0.0888 0.0
H363 H 0.9894 0.53551 0.11734 0.0
H364 H 0.9858 0.53386 0.06604 0.0
H365 H 0.97425 0.5386 0.09255 0.0
Tb366 Tb 0.51733 0.50096 0.03894 0.0
C367 C 0.46264 0.50552 0.98803 0.0
C368 C 0.42924 0.47856 0.99254 0.0
C369 C 0.43366 0.50844 0.98152 0.0
C370 C 0.45027 0.48703 0.99338 0.0
C371 C 0.45452 0.5163 0.98167 0.0
C372 C 0.42103 0.48959 0.98697 0.0
C373 C 0.488 0.54084 0.97487 0.0
N374 N 0.48265 0.5125 0.98833 0.0
C375 C 0.4953 0.52954 0.98126 0.0
C376 C 0.46755 0.53433 0.97527 0.0
Tb377 Tb 0.49331 0.49323 0.99935 0.0
N378 N 0.45882 0.47685 0.99852 0.0
C379 C 0.44695 0.45735 1.00182 0.0
C380 C 0.41711 0.45907 0.99685 0.0
C381 C 0.426 0.4483 1.00126 0.0
H382 H 0.51115 0.53476 0.98097 0.0
H383 H 0.41674 0.43306 1.00431 0.0
H384 H 0.40493 0.48345 0.98642 0.0
H385 H 0.49815 0.55457 0.96967 0.0
H386 H 0.45347 0.44877 1.00535 0.0
H387 H 0.59414 0.56086 0.03472 0.0
H388 H 0.40089 0.45202 0.99642 0.0
H389 H 0.49874 0.45877 0.05658 0.0
H390 H 0.5574 0.5451 0.03283 0.0
H391 H 0.51133 0.43873 0.06802 0.0
H392 H 0.42712 0.51657 0.97685 0.0
H393 H 0.60969 0.54202 0.04363 0.0
H394 H 0.60528 0.51054 0.05372 0.0
H395 H 0.46192 0.54308 0.97028 0.0
H396 H 0.58272 0.47722 0.06279 0.0
N397 N 0.55179 0.51711 0.04006 0.0
C398 C 0.5638 0.53656 0.0367 0.0
C399 C 0.59347 0.53492 0.0427 0.0
C400 C 0.58116 0.5154 0.04687 0.0
C401 C 0.58475 0.54562 0.03774 0.0
C402 C 0.56015 0.50691 0.04555 0.0
H403 H 0.54764 0.45041 0.06837 0.0
N404 N 0.52757 0.48138 0.05002 0.0
C405 C 0.52169 0.45264 0.06314 0.0
C406 C 0.54758 0.48837 0.05074 0.0
C407 C 0.51463 0.46409 0.05667 0.0
C408 C 0.54219 0.45925 0.06328 0.0
C409 C 0.55547 0.47749 0.05726 0.0
O410 O 0.5053 0.49855 0.0618 0.0
O411 O 0.49067 0.49379 0.02499 0.0
O412 O 0.49515 0.51987 0.0118 0.0
O413 O 0.52136 0.52916 0.03088 0.0
O414 O 0.48658 0.479 0.04486 0.0
O415 O 0.5287 0.52708 0.05494 0.0
O416 O 0.50606 0.49585 0.9768 0.0
O417 O 0.52 0.5004 0.0133 0.0
O418 O 0.51575 0.4745 0.02631 0.0
O419 O 0.48944 0.46507 0.00732 0.0
O420 O 0.52405 0.5154 0.99356 0.0
O421 O 0.48153 0.4675 0.98281 0.0
C422 C 0.47727 0.48124 0.03319 0.0
C423 C 0.52778 0.52166 0.08253 0.0
C424 C 0.52676 0.52662 0.11173 0.0
C425 C 0.51761 0.5225 0.09618 0.0
C426 C 0.54629 0.52982 0.11342 0.0
C427 C 0.54726 0.5249 0.08445 0.0
C428 C 0.55642 0.52892 0.09984 0.0
C429 C 0.50936 0.53313 0.02248 0.0
C430 C 0.51766 0.51739 0.06651 0.0
C431 C 0.57634 0.48541 0.05794 0.0
C432 C 0.58918 0.50436 0.05276 0.0
C433 C 0.5334 0.51306 1.00516 0.0
C434 C 0.48357 0.47448 0.95551 0.0
C435 C 0.49429 0.47506 0.94185 0.0
C436 C 0.48603 0.47324 0.92631 0.0
C437 C 0.46681 0.47084 0.92465 0.0
C438 C 0.46435 0.47191 0.95362 0.0
C439 C 0.45606 0.47013 0.93824 0.0
C440 C 0.50159 0.46121 0.01561 0.0
C441 C 0.49313 0.47737 0.97156 0.0
H442 H 0.50266 0.52027 0.09462 0.0
H443 H 0.55366 0.53283 0.12524 0.0
H444 H 0.55544 0.52445 0.07412 0.0
H445 H 0.57144 0.53137 0.10125 0.0
H446 H 0.50924 0.47729 0.94335 0.0
H447 H 0.45999 0.46923 0.91284 0.0
H448 H 0.45576 0.47131 0.96395 0.0
H449 H 0.44123 0.46817 0.93685 0.0
Tb450 Tb 0.15245 0.30997 0.32314 0.0
C451 C 0.19951 0.38031 0.37448 0.0
C452 C 0.23389 0.3887 0.3715 0.0
C453 C 0.22669 0.41473 0.38075 0.0
C454 C 0.2131 0.37458 0.37021 0.0
C455 C 0.20609 0.40031 0.38028 0.0
C456 C 0.24058 0.40893 0.37633 0.0
C457 C 0.17175 0.38976 0.3862 0.0
N458 N 0.17983 0.36584 0.37399 0.0
C459 C 0.16599 0.37011 0.38033 0.0
C460 C 0.19184 0.405 0.38595 0.0
Tb461 Tb 0.17164 0.3342 0.36373 0.0
N462 N 0.20597 0.35484 0.36595 0.0
C463 C 0.21903 0.34796 0.36414 0.0
C464 C 0.24728 0.3819 0.36853 0.0
C465 C 0.23981 0.36138 0.36514 0.0
H466 H 0.1504 0.35846 0.38044 0.0
H467 H 0.25005 0.35589 0.36321 0.0
H468 H 0.25648 0.42007 0.3772 0.0
H469 H 0.16067 0.39315 0.39085 0.0
H470 H 0.21357 0.33219 0.36139 0.0
H471 H 0.0748 0.29094 0.31978 0.0
H472 H 0.26337 0.39225 0.36933 0.0
H473 H 0.17371 0.28475 0.3086 0.0
H474 H 0.11114 0.31329 0.32476 0.0
H475 H 0.16304 0.25024 0.29748 0.0
H476 H 0.23207 0.43025 0.38498 0.0
H477 H 0.06079 0.25498 0.31108 0.0
H478 H 0.06692 0.22673 0.30312 0.0
H479 H 0.19627 0.42019 0.39054 0.0
H480 H 0.09098 0.21552 0.29728 0.0
N481 N 0.11812 0.29023 0.31964 0.0
C482 C 0.10547 0.29765 0.32112 0.0
C483 C 0.07686 0.2647 0.31346 0.0
C484 C 0.08987 0.2573 0.31129 0.0
C485 C 0.08471 0.28499 0.31829 0.0
C486 C 0.11066 0.27064 0.31444 0.0
H487 H 0.12691 0.22427 0.29489 0.0
N488 N 0.14396 0.27828 0.31287 0.0
C489 C 0.15192 0.254 0.30129 0.0
C490 C 0.1241 0.26442 0.31095 0.0
C491 C 0.1579 0.27356 0.30757 0.0
C492 C 0.13152 0.23936 0.2999 0.0
C493 C 0.11729 0.24458 0.30446 0.0
O494 O 0.16725 0.31582 0.30135 0.0
O495 O 0.17705 0.33306 0.33852 0.0
O496 O 0.16901 0.35572 0.35029 0.0
O497 O 0.14637 0.33457 0.32906 0.0
O498 O 0.18412 0.31923 0.3203 0.0
O499 O 0.14313 0.3216 0.30533 0.0
O500 O 0.1582 0.32833 0.38611 0.0
O501 O 0.147 0.31136 0.34829 0.0
O502 O 0.15366 0.28808 0.33712 0.0
O503 O 0.17757 0.30955 0.35748 0.0
O504 O 0.1398 0.32406 0.36726 0.0
O505 O 0.18259 0.32334 0.38096 0.0
C506 C 0.19172 0.33337 0.33185 0.0
C507 C 0.14753 0.31282 0.27852 0.0
C508 C 0.14907 0.31625 0.24961 0.0
C509 C 0.15683 0.32407 0.26554 0.0
C510 C 0.13203 0.29688 0.24689 0.0
C511 C 0.13051 0.29361 0.27552 0.0
C512 C 0.12287 0.28568 0.25978 0.0
C513 C 0.15637 0.35211 0.33797 0.0
C514 C 0.1557 0.32142 0.29508 0.0
C515 C 0.09655 0.23087 0.30215 0.0
C516 C 0.08286 0.23726 0.30548 0.0
C517 C 0.13228 0.31066 0.35516 0.0
C518 C 0.17998 0.33284 0.40799 0.0
C519 C 0.17335 0.32156 0.42133 0.0
C520 C 0.18216 0.33035 0.43689 0.0
C521 C 0.19773 0.35057 0.43883 0.0
C522 C 0.19558 0.35292 0.41024 0.0
C523 C 0.20437 0.36172 0.42558 0.0
C524 C 0.16676 0.29173 0.34909 0.0
C525 C 0.17062 0.32344 0.39184 0.0
H526 H 0.16984 0.33903 0.26789 0.0
H527 H 0.12587 0.29031 0.23478 0.0
H528 H 0.12307 0.28478 0.28529 0.0
H529 H 0.10976 0.2708 0.25756 0.0
H530 H 0.16122 0.30606 0.41961 0.0
H531 H 0.20501 0.35769 0.45058 0.0
H532 H 0.20107 0.36177 0.40018 0.0
H533 H 0.21644 0.37723 0.42719 0.0
Tb534 Tb 0.69138 0.83717 0.3233 0.0
C535 C 0.62174 0.81651 0.36788 0.0
C536 C 0.61398 0.84273 0.36624 0.0
C537 C 0.58773 0.80943 0.37186 0.0
C538 C 0.62772 0.83591 0.36516 0.0
C539 C 0.6018 0.80311 0.37163 0.0
C540 C 0.59382 0.82924 0.36918 0.0
C541 C 0.61173 0.77901 0.37619 0.0
N542 N 0.63587 0.81115 0.36778 0.0
C543 C 0.63135 0.79293 0.37252 0.0
C544 C 0.59681 0.78402 0.37554 0.0
Tb545 Tb 0.66752 0.83472 0.36128 0.0
N546 N 0.64737 0.84847 0.36257 0.0
C547 C 0.65454 0.86853 0.36214 0.0
C548 C 0.62108 0.86302 0.36495 0.0
C549 C 0.64151 0.87603 0.3631 0.0
H550 H 0.64274 0.78886 0.37299 0.0
H551 H 0.64724 0.89184 0.36238 0.0
H552 H 0.58299 0.83413 0.36986 0.0
H553 H 0.60813 0.76445 0.37953 0.0
H554 H 0.67025 0.87884 0.36066 0.0
H555 H 0.7122 0.78042 0.32249 0.0
H556 H 0.61105 0.86889 0.3658 0.0
H557 H 0.71612 0.88326 0.31202 0.0
H558 H 0.68895 0.7931 0.32384 0.0
H559 H 0.75078 0.90792 0.30579 0.0
H560 H 0.57228 0.79932 0.37456 0.0
H561 H 0.74842 0.8036 0.31938 0.0
H562 H 0.77633 0.83843 0.31523 0.0
H563 H 0.58165 0.77327 0.37849 0.0
H564 H 0.78685 0.87321 0.31055 0.0
N565 N 0.71167 0.82354 0.32192 0.0
C566 C 0.70463 0.80352 0.32241 0.0
C567 C 0.73825 0.80932 0.31996 0.0
C568 C 0.7452 0.82956 0.31852 0.0
C569 C 0.71782 0.79619 0.32166 0.0
C570 C 0.73132 0.83621 0.3194 0.0
H571 H 0.77734 0.8992 0.30673 0.0
N572 N 0.72301 0.86089 0.31687 0.0
C573 C 0.74719 0.89327 0.30891 0.0
C574 C 0.7372 0.8556 0.31672 0.0
C575 C 0.72753 0.87922 0.3124 0.0
C576 C 0.76215 0.88831 0.30949 0.0
C577 C 0.75718 0.86916 0.31319 0.0
O578 O 0.68498 0.84363 0.30077 0.0
O579 O 0.66848 0.83938 0.3362 0.0
O580 O 0.64561 0.80958 0.34472 0.0
O581 O 0.66713 0.80642 0.32674 0.0
O582 O 0.68158 0.85855 0.31906 0.0
O583 O 0.68016 0.81434 0.30415 0.0
O584 O 0.67418 0.82828 0.38372 0.0
O585 O 0.69032 0.83239 0.34836 0.0
O586 O 0.7134 0.86173 0.33999 0.0
O587 O 0.69225 0.86553 0.35797 0.0
O588 O 0.67723 0.81331 0.36558 0.0
O589 O 0.67848 0.8574 0.38056 0.0
C590 C 0.66796 0.85296 0.32941 0.0
C591 C 0.68904 0.82586 0.27839 0.0
C592 C 0.6872 0.82526 0.24911 0.0
C593 C 0.67906 0.82538 0.26415 0.0
C594 C 0.7056 0.82574 0.24857 0.0
C595 C 0.70735 0.82627 0.27762 0.0
C596 C 0.71558 0.82626 0.26276 0.0
C597 C 0.6494 0.79932 0.33323 0.0
C598 C 0.68008 0.82603 0.29385 0.0
C599 C 0.77136 0.86297 0.31308 0.0
C600 C 0.76537 0.84318 0.31575 0.0
C601 C 0.6908 0.81881 0.35519 0.0
C602 C 0.6698 0.84556 0.40626 0.0
C603 C 0.6801 0.84653 0.42049 0.0
C604 C 0.67173 0.84596 0.43554 0.0
C605 C 0.65279 0.84434 0.43606 0.0
C606 C 0.65101 0.84409 0.40705 0.0
C607 C 0.64256 0.84344 0.4219 0.0
C608 C 0.70997 0.87223 0.35147 0.0
C609 C 0.67883 0.84574 0.39076 0.0
H610 H 0.66477 0.82476 0.26479 0.0
H611 H 0.71236 0.82587 0.2372 0.0
H612 H 0.71523 0.82653 0.28841 0.0
H613 H 0.72974 0.82664 0.26224 0.0
H614 H 0.69477 0.84799 0.41981 0.0
H615 H 0.64578 0.84357 0.4474 0.0
H616 H 0.64289 0.84345 0.39627 0.0
H617 H 0.628 0.8422 0.42242 0.0
Tb618 Tb 0.18347 0.83366 0.37097 0.0
C619 C 0.13538 0.84488 0.31826 0.0
C620 C 0.10118 0.81739 0.31873 0.0
C621 C 0.10775 0.84899 0.3097 0.0
C622 C 0.12198 0.82565 0.32177 0.0
C623 C 0.12851 0.85672 0.31194 0.0
C624 C 0.0941 0.82931 0.31305 0.0
C625 C 0.16312 0.88216 0.30915 0.0
N626 N 0.15527 0.85162 0.32031 0.0
C627 C 0.16918 0.86974 0.31528 0.0
C628 C 0.14269 0.87572 0.30763 0.0
Tb629 Tb 0.16373 0.83025 0.33055 0.0
N630 N 0.12946 0.81456 0.32703 0.0
C631 C 0.11688 0.79458 0.3285 0.0
C632 C 0.08821 0.79719 0.32087 0.0
C633 C 0.09611 0.78569 0.32566 0.0
H634 H 0.18502 0.87492 0.31642 0.0
H635 H 0.08622 0.76995 0.32711 0.0
H636 H 0.07815 0.82329 0.3108 0.0
H637 H 0.17421 0.89667 0.30558 0.0
H638 H 0.1227 0.78543 0.33213 0.0
H639 H 0.26107 0.89362 0.37157 0.0
H640 H 0.07216 0.79022 0.31843 0.0
H641 H 0.16299 0.79029 0.38701 0.0
H642 H 0.22448 0.87833 0.36804 0.0
H643 H 0.17423 0.76923 0.39851 0.0
H644 H 0.10214 0.85788 0.30497 0.0
H645 H 0.2755 0.87363 0.3801 0.0
H646 H 0.2698 0.84111 0.38894 0.0
H647 H 0.13803 0.88531 0.30277 0.0
H648 H 0.24611 0.80717 0.39637 0.0
N649 N 0.21788 0.84946 0.37383 0.0
C650 C 0.23039 0.86928 0.37169 0.0
C651 C 0.25936 0.86673 0.37839 0.0
C652 C 0.24648 0.84682 0.38143 0.0
C653 C 0.25126 0.87808 0.37367 0.0
C654 C 0.22558 0.83861 0.37914 0.0
H655 H 0.21041 0.78037 0.40027 0.0
N656 N 0.19247 0.81303 0.38184 0.0
C657 C 0.18513 0.78336 0.39423 0.0
C658 C 0.21238 0.81971 0.38338 0.0
C659 C 0.17882 0.79539 0.38771 0.0
C660 C 0.20555 0.78967 0.39516 0.0
C661 C 0.21951 0.8082 0.38993 0.0
O662 O 0.16913 0.82934 0.39294 0.0
O663 O 0.15816 0.82782 0.35572 0.0
O664 O 0.16381 0.85524 0.3445 0.0
O665 O 0.18861 0.8628 0.36435 0.0
O666 O 0.15213 0.81082 0.37443 0.0
O667 O 0.19363 0.85842 0.38832 0.0
O668 O 0.17831 0.83529 0.30871 0.0
O669 O 0.18887 0.83566 0.34576 0.0
O670 O 0.18255 0.808 0.35753 0.0
O671 O 0.15883 0.80094 0.33672 0.0
O672 O 0.19521 0.85287 0.32721 0.0
O673 O 0.15362 0.80598 0.31272 0.0
C674 C 0.14396 0.81412 0.36258 0.0
C675 C 0.19041 0.84993 0.41518 0.0
C676 C 0.18725 0.85075 0.44433 0.0
C677 C 0.1792 0.8488 0.42866 0.0
C678 C 0.20664 0.85361 0.44626 0.0
C679 C 0.2098 0.85301 0.41741 0.0
C680 C 0.2178 0.85474 0.43287 0.0
C681 C 0.17727 0.8676 0.356 0.0
C682 C 0.1815 0.84766 0.39896 0.0
C683 C 0.24031 0.81584 0.39149 0.0
C684 C 0.25379 0.83514 0.38725 0.0
C685 C 0.20325 0.84911 0.33887 0.0
C686 C 0.15769 0.81521 0.28602 0.0
C687 C 0.16921 0.81616 0.27282 0.0
C688 C 0.16186 0.81475 0.25702 0.0
C689 C 0.14282 0.81256 0.25463 0.0
C690 C 0.13864 0.81281 0.28338 0.0
C691 C 0.13131 0.81159 0.26776 0.0
C692 C 0.16977 0.79599 0.34549 0.0
C693 C 0.16605 0.81707 0.30236 0.0
H694 H 0.16435 0.84675 0.42692 0.0
H695 H 0.21314 0.85485 0.45813 0.0
H696 H 0.21881 0.85417 0.40727 0.0
H697 H 0.23272 0.857 0.43448 0.0
H698 H 0.184 0.81817 0.2749 0.0
H699 H 0.13664 0.8112 0.2426 0.0
H700 H 0.12938 0.81177 0.29331 0.0
H701 H 0.1166 0.80973 0.26581 0.0
Tb702 Tb 0.82682 0.6527 0.66015 0.0
C703 C 0.87334 0.72471 0.71044 0.0
C704 C 0.90803 0.73375 0.70834 0.0
C705 C 0.89994 0.75946 0.7164 0.0
C706 C 0.88734 0.71929 0.70682 0.0
C707 C 0.87941 0.74475 0.71567 0.0
C708 C 0.91424 0.75396 0.71272 0.0
C709 C 0.8447 0.73378 0.72046 0.0
N710 N 0.85375 0.70998 0.70974 0.0
C711 C 0.83948 0.71408 0.71528 0.0
C712 C 0.86473 0.74923 0.72045 0.0
Tb713 Tb 0.84642 0.67832 0.70032 0.0
N714 N 0.88065 0.69959 0.70278 0.0
C715 C 0.8941 0.69315 0.70132 0.0
C716 C 0.92181 0.72734 0.7059 0.0
C717 C 0.9148 0.70691 0.70264 0.0
H718 H 0.82394 0.70226 0.71521 0.0
H719 H 0.92533 0.70173 0.70104 0.0
H720 H 0.93006 0.76534 0.71374 0.0
H721 H 0.83328 0.73702 0.72442 0.0
H722 H 0.88904 0.67746 0.69867 0.0
H723 H 0.74817 0.6301 0.65707 0.0
H724 H 0.93784 0.73796 0.70691 0.0
H725 H 0.84978 0.62863 0.64672 0.0
H726 H 0.78434 0.65381 0.66168 0.0
H727 H 0.84048 0.59411 0.63681 0.0
H728 H 0.90493 0.775 0.72021 0.0
H729 H 0.73558 0.59423 0.64913 0.0
H730 H 0.74324 0.56685 0.64197 0.0
H731 H 0.86875 0.76446 0.72453 0.0
H732 H 0.7684 0.55694 0.6367 0.0
N733 N 0.79262 0.63166 0.65703 0.0
C734 C 0.77928 0.63825 0.65835 0.0
C735 C 0.75158 0.60456 0.65132 0.0
C736 C 0.76528 0.59799 0.64938 0.0
C737 C 0.75863 0.62481 0.65573 0.0
C738 C 0.78594 0.61211 0.65226 0.0
H739 H 0.80474 0.56706 0.63458 0.0
N740 N 0.81966 0.62113 0.65073 0.0
C741 C 0.82893 0.59741 0.64026 0.0
C742 C 0.79999 0.60662 0.64902 0.0
C743 C 0.83414 0.61698 0.64584 0.0
C744 C 0.80875 0.58217 0.63907 0.0
C745 C 0.79395 0.58675 0.64317 0.0
O746 O 0.84113 0.65851 0.63817 0.0
O747 O 0.85137 0.67662 0.67505 0.0
O748 O 0.84321 0.69893 0.68609 0.0
O749 O 0.81956 0.67651 0.66593 0.0
O750 O 0.8587 0.66318 0.65668 0.0
O751 O 0.81597 0.6627 0.6421 0.0
O752 O 0.83322 0.6731 0.72279 0.0
O753 O 0.82181 0.65465 0.68535 0.0
O754 O 0.82904 0.63183 0.67471 0.0
O755 O 0.85349 0.6544 0.69428 0.0
O756 O 0.81446 0.66746 0.70413 0.0
O757 O 0.85755 0.66793 0.71781 0.0
C758 C 0.86612 0.67737 0.66819 0.0
C759 C 0.82051 0.65355 0.61539 0.0
C760 C 0.8224 0.65553 0.5863 0.0
C761 C 0.82974 0.66423 0.60215 0.0
C762 C 0.80568 0.63592 0.58394 0.0
C763 C 0.80382 0.63406 0.61276 0.0
C764 C 0.79649 0.62531 0.59711 0.0
C765 C 0.82963 0.69442 0.67429 0.0
C766 C 0.82868 0.66292 0.63179 0.0
C767 C 0.77337 0.57233 0.6411 0.0
C768 C 0.75906 0.57797 0.64411 0.0
C769 C 0.80701 0.65367 0.6923 0.0
C770 C 0.855 0.67788 0.74474 0.0
C771 C 0.84857 0.66665 0.75811 0.0
C772 C 0.85732 0.67556 0.77365 0.0
C773 C 0.87263 0.69589 0.77555 0.0
C774 C 0.87029 0.69808 0.74694 0.0
C775 C 0.87903 0.70702 0.76227 0.0
C776 C 0.84284 0.63629 0.6863 0.0
C777 C 0.84563 0.66828 0.72864 0.0
H778 H 0.84275 0.67923 0.60422 0.0
H779 H 0.79947 0.62889 0.57193 0.0
H780 H 0.79642 0.62565 0.62275 0.0
H781 H 0.78357 0.61027 0.59517 0.0
H782 H 0.83662 0.65107 0.75641 0.0
H783 H 0.87987 0.70312 0.78729 0.0
H784 H 0.87553 0.70694 0.73686 0.0
H785 H 0.89088 0.72262 0.76385 0.0
Tb786 Tb 0.34829 0.16215 0.66015 0.0
C787 C 0.28567 0.15276 0.70894 0.0
C788 C 0.27914 0.17936 0.70478 0.0
C789 C 0.25292 0.1484 0.71434 0.0
C790 C 0.29202 0.17149 0.70416 0.0
C791 C 0.26622 0.14114 0.71447 0.0
C792 C 0.25937 0.1675 0.70949 0.0
C793 C 0.27524 0.117 0.72119 0.0
N794 N 0.29904 0.14642 0.70898 0.0
C795 C 0.2944 0.12914 0.71563 0.0
C796 C 0.26098 0.12288 0.7204 0.0
Tb797 Tb 0.32989 0.16704 0.69928 0.0
N798 N 0.31129 0.18249 0.69988 0.0
C799 C 0.31907 0.20218 0.69725 0.0
C800 C 0.28673 0.1991 0.70117 0.0
C801 C 0.30688 0.21065 0.69764 0.0
H802 H 0.30527 0.12441 0.71621 0.0
H803 H 0.31302 0.22607 0.69513 0.0
H804 H 0.24916 0.17317 0.70984 0.0
H805 H 0.27148 0.1031 0.72606 0.0
H806 H 0.33455 0.21136 0.69441 0.0
H807 H 0.3657 0.10331 0.66241 0.0
H808 H 0.27733 0.20571 0.70148 0.0
H809 H 0.37275 0.20587 0.6446 0.0
H810 H 0.34431 0.11814 0.66479 0.0
H811 H 0.40617 0.22745 0.63436 0.0
H812 H 0.23782 0.13961 0.71838 0.0
H813 H 0.40084 0.12361 0.65461 0.0
H814 H 0.42852 0.15623 0.6461 0.0
H815 H 0.24618 0.11348 0.72477 0.0
H816 H 0.43959 0.19011 0.63848 0.0
N817 N 0.36712 0.14698 0.65888 0.0
C818 C 0.35957 0.12731 0.66142 0.0
C819 C 0.39152 0.13028 0.65574 0.0
C820 C 0.3989 0.15009 0.65245 0.0
C821 C 0.37169 0.11877 0.66008 0.0
C822 C 0.3861 0.15801 0.65398 0.0
H823 H 0.43126 0.21671 0.63387 0.0
N824 N 0.37895 0.1833 0.65039 0.0
C825 C 0.40248 0.21328 0.63867 0.0
C826 C 0.39224 0.17686 0.64957 0.0
C827 C 0.38351 0.20096 0.64445 0.0
C828 C 0.41662 0.2072 0.63844 0.0
C829 C 0.41147 0.18863 0.64369 0.0
O830 O 0.33946 0.16557 0.6373 0.0
O831 O 0.32771 0.16767 0.67367 0.0
O832 O 0.3055 0.14042 0.68572 0.0
O833 O 0.32364 0.13302 0.66689 0.0
O834 O 0.3394 0.18378 0.65455 0.0
O835 O 0.33442 0.1369 0.64311 0.0
O836 O 0.33901 0.16364 0.72203 0.0
O837 O 0.35033 0.16131 0.68573 0.0
O838 O 0.37288 0.18822 0.67403 0.0
O839 O 0.35476 0.19604 0.69254 0.0
O840 O 0.33865 0.14529 0.70492 0.0
O841 O 0.34328 0.1921 0.71656 0.0
C842 C 0.3271 0.18046 0.66578 0.0
C843 C 0.34103 0.14468 0.6161 0.0
C844 C 0.33869 0.14403 0.58683 0.0
C845 C 0.33195 0.14613 0.60211 0.0
C846 C 0.35483 0.14059 0.58579 0.0
C847 C 0.35702 0.14109 0.61481 0.0
C848 C 0.36391 0.13914 0.59972 0.0
C849 C 0.3071 0.128 0.67482 0.0
C850 C 0.33365 0.14719 0.63183 0.0
C851 C 0.42468 0.18125 0.64285 0.0
C852 C 0.41839 0.16198 0.6472 0.0
C853 C 0.35087 0.14849 0.69364 0.0
C854 C 0.337 0.18389 0.74348 0.0
C855 C 0.34753 0.1846 0.75749 0.0
C856 C 0.34041 0.18577 0.77282 0.0
C857 C 0.32245 0.18616 0.77384 0.0
C858 C 0.31928 0.18452 0.74479 0.0
C859 C 0.31204 0.1856 0.75991 0.0
C860 C 0.37139 0.2008 0.68483 0.0
C861 C 0.34449 0.18186 0.72768 0.0
H862 H 0.31937 0.14855 0.60314 0.0
H863 H 0.36052 0.13914 0.57423 0.0
H864 H 0.36413 0.13969 0.62538 0.0
H865 H 0.3763 0.13646 0.59881 0.0
H866 H 0.36141 0.18445 0.75639 0.0
H867 H 0.31633 0.1867 0.78539 0.0
H868 H 0.31102 0.18416 0.7342 0.0
H869 H 0.29827 0.18593 0.76083 0.0
Tb870 Tb 0.84876 0.16434 0.70247 0.0
C871 C 0.79697 0.17453 0.65241 0.0
C872 C 0.76309 0.14767 0.65567 0.0
C873 C 0.76874 0.17876 0.64621 0.0
C874 C 0.78404 0.15565 0.65685 0.0
C875 C 0.78952 0.18618 0.64667 0.0
C876 C 0.75553 0.15952 0.65073 0.0
C877 C 0.8235 0.21073 0.64098 0.0
N878 N 0.81689 0.18104 0.65297 0.0
C879 C 0.83013 0.19856 0.64674 0.0
C880 C 0.80314 0.20464 0.64114 0.0
Tb881 Tb 0.82644 0.16036 0.66294 0.0
N882 N 0.79198 0.14467 0.6614 0.0
C883 C 0.77958 0.1249 0.66372 0.0
C884 C 0.75039 0.12783 0.65902 0.0
C885 C 0.75868 0.1163 0.6628 0.0
H886 H 0.84591 0.20347 0.64664 0.0
H887 H 0.74899 0.10081 0.66509 0.0
H888 H 0.73949 0.15375 0.64994 0.0
H889 H 0.83411 0.2248 0.63644 0.0
H890 H 0.78563 0.11573 0.66676 0.0
H891 H 0.92648 0.22341 0.70113 0.0
H892 H 0.73421 0.12113 0.6583 0.0
H893 H 0.82843 0.12057 0.71795 0.0
H894 H 0.88986 0.20864 0.69867 0.0
H895 H 0.83974 0.09884 0.72807 0.0
H896 H 0.7627 0.18755 0.64199 0.0
H897 H 0.94079 0.20291 0.70862 0.0
H898 H 0.93502 0.17007 0.71673 0.0
H899 H 0.79803 0.21406 0.63663 0.0
H900 H 0.91138 0.13608 0.72405 0.0
N901 N 0.88314 0.17963 0.70413 0.0
C902 C 0.89575 0.19939 0.70188 0.0
C903 C 0.92463 0.19625 0.70741 0.0
C904 C 0.91171 0.17635 0.71045 0.0
C905 C 0.91661 0.20789 0.70326 0.0
C906 C 0.8908 0.16846 0.70882 0.0
H907 H 0.87581 0.10947 0.72854 0.0
N908 N 0.85772 0.14307 0.71215 0.0
C909 C 0.85055 0.11302 0.72379 0.0
C910 C 0.87761 0.1495 0.71302 0.0
C911 C 0.84421 0.12541 0.71806 0.0
C912 C 0.87091 0.11905 0.724 0.0
C913 C 0.88479 0.13765 0.71884 0.0
O914 O 0.83489 0.16043 0.72458 0.0
O915 O 0.82286 0.15911 0.68841 0.0
O916 O 0.82871 0.18657 0.67664 0.0
O917 O 0.8538 0.19363 0.69619 0.0
O918 O 0.81758 0.14217 0.70709 0.0
O919 O 0.8612 0.18859 0.72054 0.0
O920 O 0.8399 0.16439 0.64063 0.0
O921 O 0.85243 0.1659 0.67702 0.0
O922 O 0.84696 0.13851 0.68856 0.0
O923 O 0.8215 0.13115 0.66934 0.0
O924 O 0.85759 0.18259 0.65821 0.0
O925 O 0.8148 0.13567 0.64535 0.0
C926 C 0.80895 0.14587 0.69582 0.0
C927 C 0.85704 0.17823 0.74694 0.0
C928 C 0.85244 0.17447 0.77559 0.0
C929 C 0.8457 0.1762 0.76048 0.0
C930 C 0.87072 0.17487 0.77707 0.0
C931 C 0.87552 0.17908 0.74868 0.0
C932 C 0.88227 0.17734 0.76368 0.0
C933 C 0.84264 0.19877 0.68795 0.0
C934 C 0.84862 0.17804 0.73104 0.0
C935 C 0.90555 0.14501 0.71974 0.0
C936 C 0.91901 0.16435 0.71556 0.0
C937 C 0.86631 0.17909 0.66955 0.0
C938 C 0.81808 0.14445 0.61854 0.0
C939 C 0.82896 0.14483 0.60505 0.0
C940 C 0.82131 0.14371 0.58942 0.0
C941 C 0.80251 0.1422 0.58753 0.0
C942 C 0.79933 0.14289 0.61642 0.0
C943 C 0.79162 0.14179 0.60097 0.0
C944 C 0.83303 0.12623 0.67731 0.0
C945 C 0.82695 0.14623 0.63463 0.0
H946 H 0.8314 0.1755 0.7592 0.0
H947 H 0.8762 0.1736 0.78864 0.0
H948 H 0.88468 0.18095 0.73851 0.0
H949 H 0.89645 0.17786 0.76492 0.0
H950 H 0.84332 0.14576 0.60676 0.0
H951 H 0.7963 0.14155 0.57568 0.0
H952 H 0.79066 0.1425 0.62665 0.0
H953 H 0.77718 0.14067 0.5994 0.0
H954 H 0.32875 0.82174 0.07531 0.0
H955 H 0.35911 0.8509 0.06699 0.0
H956 H 0.32292 0.86304 0.03572 0.0
H957 H 0.29245 0.83393 0.04395 0.0
H958 H 0.35785 0.86368 0.02171 0.0
H959 H 0.37579 0.91081 0.0801 0.0
H960 H 0.37115 0.88582 0.08112 0.0
H961 H 0.35113 0.88935 0.07465 0.0
C962 C 0.32724 0.83059 0.06664 0.0
C963 C 0.30818 0.82556 0.06032 0.0
C964 C 0.34459 0.84728 0.06197 0.0
C965 C 0.34319 0.8592 0.0509 0.0
C966 C 0.32426 0.85405 0.04435 0.0
H967 H 0.43597 0.97911 0.03254 0.0
H968 H 0.40414 0.94897 0.03744 0.0
C969 C 0.30689 0.83743 0.04907 0.0
C970 C 0.36148 0.877 0.04604 0.0
H971 H 0.39952 0.92371 0.06011 0.0
C972 C 0.367 0.87684 0.03007 0.0
C973 C 0.37319 0.89414 0.05698 0.0
C974 C 0.36752 0.89524 0.07416 0.0
C975 C 0.38411 0.89337 0.02474 0.0
C976 C 0.39603 0.91047 0.03572 0.0
C977 C 0.39037 0.91063 0.05169 0.0
C978 C 0.41453 0.92836 0.03102 0.0
C979 C 0.38893 0.89261 0.00732 0.0
C980 C 0.43089 0.92678 0.0257 0.0
C981 C 0.44898 0.94394 0.02282 0.0
C982 C 0.45103 0.963 0.02515 0.0
C983 C 0.43463 0.96455 0.03038 0.0
C984 C 0.4165 0.94738 0.0332 0.0
H985 H 0.37598 0.8804 0.99974 0.0
H986 H 0.39331 0.90706 1.00257 0.0
H987 H 0.40171 0.88999 1.00626 0.0
H988 H 0.42998 0.91239 0.02443 0.0
H989 H 0.46152 0.94227 0.01943 0.0
H990 H 0.12743 0.41576 0.0663 0.0
H991 H 0.10362 0.42536 0.05769 0.0
H992 H 0.1527 0.48278 0.04704 0.0
H993 H 0.1768 0.47326 0.05561 0.0
H994 H 0.10271 0.45938 0.0723 0.0
H995 H 0.11342 0.4628 1.00643 0.0
H996 H 0.12118 0.44932 0.0184 0.0
H997 H 0.13575 0.47619 0.01956 0.0
C998 C 0.13324 0.43037 0.06196 0.0
C999 C 0.15406 0.44377 0.06169 0.0
C1000 C 0.11957 0.43582 0.05704 0.0
C1001 C 0.12637 0.45471 0.05163 0.0
C1002 C 0.14712 0.468 0.05096 0.0
H1003 H 0.05762 0.50966 0.02379 0.0
H1004 H 0.08471 0.50303 0.02919 0.0
C1005 C 0.16087 0.46257 0.05592 0.0
C1006 C 0.11164 0.46082 0.04781 0.0
H1007 H 0.09082 0.47208 0.01715 0.0
C1008 C 0.10011 0.46216 0.06024 0.0
C1009 C 0.10845 0.46465 0.03211 0.0
C1010 C 0.12022 0.46307 0.01828 0.0
C1011 C 0.08534 0.46708 0.0574 0.0
C1012 C 0.08166 0.47027 0.0416 0.0
C1013 C 0.09355 0.46944 0.02922 0.0
C1014 C 0.0652 0.474 0.03769 0.0
C1015 C 0.07398 0.46902 0.07142 0.0
C1016 C 0.04521 0.45977 0.04044 0.0
C1017 C 0.02975 0.46351 0.03731 0.0
C1018 C 0.0339 0.48129 0.03095 0.0
C1019 C 0.05389 0.49555 0.02819 0.0
C1020 C 0.0694 0.49183 0.03138 0.0
H1021 H 0.08247 0.47206 0.0831 0.0
H1022 H 0.07076 0.48125 0.07027 0.0
H1023 H 0.05947 0.45475 0.07174 0.0
H1024 H 0.04158 0.44576 0.04506 0.0
H1025 H 0.01448 0.45243 0.03973 0.0
H1026 H 0.53828 0.71423 0.03441 0.0
H1027 H 0.53002 0.68022 0.02451 0.0
H1028 H 0.52324 0.66398 0.07328 0.0
H1029 H 0.5311 0.69763 0.08323 0.0
H1030 H 0.55088 0.66179 0.0316 0.0
H1031 H 0.47275 0.61754 0.05029 0.0
H1032 H 0.48549 0.64438 0.04967 0.0
H1033 H 0.4898 0.63392 0.06666 0.0
C1034 C 0.53474 0.70332 0.043 0.0
C1035 C 0.53531 0.70864 0.05961 0.0
C1036 C 0.53006 0.68392 0.03732 0.0
C1037 C 0.52575 0.66949 0.04814 0.0
C1038 C 0.52606 0.67471 0.06468 0.0
H1039 H 0.53964 0.56641 0.04 0.0
H1040 H 0.5433 0.59951 0.04485 0.0
C1041 C 0.53069 0.69403 0.07036 0.0
C1042 C 0.5222 0.64937 0.04235 0.0
H1043 H 0.48969 0.59933 0.04423 0.0
C1044 C 0.5374 0.64812 0.03418 0.0
C1045 C 0.5045 0.63154 0.04554 0.0
C1046 C 0.48712 0.63187 0.05337 0.0
C1047 C 0.5357 0.62952 0.02967 0.0
C1048 C 0.51853 0.61176 0.03373 0.0
C1049 C 0.50298 0.61298 0.04132 0.0
C1050 C 0.51652 0.59179 0.03049 0.0
C1051 C 0.55231 0.62909 0.02057 0.0
C1052 C 0.49995 0.57628 0.02119 0.0
C1053 C 0.49766 0.55726 0.01856 0.0
C1054 C 0.51193 0.55337 0.02517 0.0
C1055 C 0.52845 0.5689 0.0346 0.0
C1056 C 0.53067 0.58791 0.03728 0.0
H1057 H 0.56104 0.64281 0.01426 0.0
H1058 H 0.56282 0.62838 0.0292 0.0
H1059 H 0.54623 0.61577 0.01157 0.0
H1060 H 0.48873 0.57889 0.01598 0.0
H1061 H 0.48454 0.54557 0.01152 0.0
H1062 H 0.81749 0.2831 0.99385 0.0
H1063 H 0.84228 0.31674 1.00603 0.0
H1064 H 0.85296 0.33845 0.95899 0.0
H1065 H 0.82801 0.30519 0.94683 0.0
H1066 H 0.88163 0.33681 1.00058 0.0
H1067 H 0.84885 0.38214 0.98471 0.0
H1068 H 0.83437 0.35508 0.98326 0.0
H1069 H 0.85006 0.36784 0.96724 0.0
C1070 C 0.82484 0.29514 0.98615 0.0
C1071 C 0.82079 0.29147 0.96937 0.0
C1072 C 0.83901 0.31434 0.99312 0.0
C1073 C 0.84927 0.33017 0.98345 0.0
C1074 C 0.84487 0.32661 0.96675 0.0
H1075 H 0.96827 0.43124 0.99361 0.0
H1076 H 0.93761 0.39851 0.98902 0.0
C1077 C 0.83069 0.3075 0.9598 0.0
C1078 C 0.86589 0.34995 0.99045 0.0
H1079 H 0.88479 0.40026 0.9905 0.0
C1080 C 0.88218 0.35069 0.99862 0.0
C1081 C 0.86648 0.36804 0.98813 0.0
C1082 C 0.84889 0.36824 0.98051 0.0
C1083 C 0.89949 0.36905 1.00377 0.0
C1084 C 0.9007 0.38711 1.0003 0.0
C1085 C 0.88399 0.38639 0.99292 0.0
C1086 C 0.91943 0.40683 1.00358 0.0
C1087 C 0.91634 0.36888 0.01277 0.0
C1088 C 0.91927 0.42259 0.01288 0.0
C1089 C 0.93671 0.44145 0.01532 0.0
C1090 C 0.95469 0.44491 0.00853 0.0
C1091 C 0.95477 0.42909 0.99915 0.0
C1092 C 0.93728 0.41028 0.99664 0.0
H1093 H 0.91067 0.35504 0.01901 0.0
H1094 H 0.92731 0.36923 1.00408 0.0
H1095 H 0.92432 0.3821 0.02183 0.0
H1096 H 0.90559 0.42032 0.01819 0.0
H1097 H 0.93596 0.45336 0.02232 0.0
H1098 H 0.7121 0.53943 0.9806 0.0
H1099 H 0.68114 0.53306 0.99341 0.0
H1100 H 0.65325 0.52715 0.94683 0.0
H1101 H 0.68384 0.53327 0.93398 0.0
H1102 H 0.66169 0.55506 0.99241 0.0
H1103 H 0.61164 0.47663 0.96646 0.0
H1104 H 0.63869 0.48906 0.9662 0.0
H1105 H 0.62465 0.49338 0.95145 0.0
C1106 C 0.69931 0.53659 0.97309 0.0
C1107 C 0.70044 0.53678 0.95626 0.0
C1108 C 0.68165 0.53299 0.98042 0.0
C1109 C 0.66479 0.52933 0.97105 0.0
C1110 C 0.66591 0.52951 0.95428 0.0
H1111 H 0.56481 0.54457 0.9931 0.0
H1112 H 0.59747 0.54868 0.98677 0.0
C1113 C 0.6835 0.53313 0.94695 0.0
C1114 C 0.64622 0.52612 0.97871 0.0
H1115 H 0.59552 0.49383 0.97764 0.0
C1116 C 0.64724 0.54156 0.98937 0.0
C1117 C 0.62742 0.50842 0.9749 0.0
C1118 C 0.62551 0.49084 0.96425 0.0
C1119 C 0.62984 0.54014 0.99578 0.0
C1120 C 0.61086 0.52291 0.99121 0.0
C1121 C 0.61 0.50712 0.98108 0.0
C1122 C 0.59163 0.52118 0.99617 0.0
C1123 C 0.63207 0.55721 0.00731 0.0
C1124 C 0.57719 0.50411 1.00317 0.0
C1125 C 0.55837 0.50157 1.00648 0.0
C1126 C 0.55376 0.51624 1.00315 0.0
C1127 C 0.56818 0.53328 0.99615 0.0
C1128 C 0.58691 0.53572 0.99266 0.0
H1129 H 0.64692 0.56506 0.01405 0.0
H1130 H 0.63112 0.5683 1.00037 0.0
H1131 H 0.62012 0.55195 0.01608 0.0
H1132 H 0.58033 0.49254 1.00581 0.0
H1133 H 0.54737 0.48794 0.01131 0.0
H1134 H 0.45405 0.16464 0.99292 0.0
H1135 H 0.45884 0.13769 1.00082 0.0
H1136 H 0.49375 0.14324 0.95928 0.0
H1137 H 0.48984 0.17082 0.9518 0.0
H1138 H 0.44775 0.10226 0.98711 0.0
H1139 H 0.53077 0.14466 0.99308 0.0
H1140 H 0.51647 0.15675 0.99049 0.0
H1141 H 0.5219 0.145 0.9733 0.0
C1142 C 0.46287 0.1602 0.98555 0.0
C1143 C 0.47173 0.16996 0.97183 0.0
C1144 C 0.46559 0.14478 0.99006 0.0
C1145 C 0.47702 0.13867 0.98085 0.0
C1146 C 0.48545 0.1481 0.96691 0.0
H1147 H 0.46912 0.02345 0.9847 0.0
H1148 H 0.46476 0.05109 0.97835 0.0
C1149 C 0.48307 0.16377 0.96256 0.0
C1150 C 0.47962 0.12207 0.98558 0.0
H1151 H 0.51481 0.10899 0.99214 0.0
C1152 C 0.46244 0.1038 0.98834 0.0
C1153 C 0.4988 0.12412 0.9875 0.0
C1154 C 0.51802 0.14377 0.98611 0.0
C1155 C 0.46385 0.08748 0.99268 0.0
C1156 C 0.48293 0.08917 0.99367 0.0
C1157 C 0.50014 0.10755 0.99117 0.0
C1158 C 0.48551 0.07224 0.99748 0.0
C1159 C 0.44487 0.0688 0.99652 0.0
C1160 C 0.4993 0.07507 0.00988 0.0
C1161 C 0.50229 0.05946 0.01322 0.0
C1162 C 0.49131 0.0405 1.00443 0.0
C1163 C 0.47763 0.03773 0.99191 0.0
C1164 C 0.47494 0.0535 0.98836 0.0
H1165 H 0.43315 0.07223 1.00041 0.0
H1166 H 0.43874 0.05805 0.98554 0.0
H1167 H 0.44778 0.06144 1.00617 0.0
H1168 H 0.50784 0.08944 0.01698 0.0
H1169 H 0.5134 0.06239 0.02258 0.0
H1170 H 0.67435 0.16678 0.95422 0.0
H1171 H 0.64368 0.13857 0.96308 0.0
H1172 H 0.67918 0.1238 0.99268 0.0
H1173 H 0.70998 0.15211 0.98401 0.0
H1174 H 0.63344 0.09846 0.95826 0.0
H1175 H 0.63706 0.1228 0.02332 0.0
H1176 H 0.65173 0.13998 0.00885 0.0
H1177 H 0.65942 0.12375 0.0163 0.0
C1178 C 0.67566 0.15768 0.96275 0.0
C1179 C 0.69461 0.16168 0.9684 0.0
C1180 C 0.65812 0.14157 0.9678 0.0
C1181 C 0.65918 0.12926 0.97866 0.0
C1182 C 0.67804 0.13336 0.98452 0.0
H1183 H 0.56436 0.00766 0.99159 0.0
H1184 H 0.59653 0.03775 0.98721 0.0
C1185 C 0.69562 0.14946 0.97947 0.0
C1186 C 0.64056 0.11133 0.98294 0.0
H1187 H 0.61186 0.08929 0.01443 0.0
C1188 C 0.6287 0.09646 0.97053 0.0
C1189 C 0.63439 0.10887 0.99896 0.0
C1190 C 0.64619 0.12475 0.01263 0.0
C1191 C 0.61089 0.07909 0.9737 0.0
C1192 C 0.60496 0.07641 0.98975 0.0
C1193 C 0.61665 0.09135 1.00217 0.0
C1194 C 0.58623 0.05842 0.99369 0.0
C1195 C 0.59835 0.06388 0.95983 0.0
C1196 C 0.57004 0.06021 0.99907 0.0
C1197 C 0.55175 0.04311 1.00156 0.0
C1198 C 0.54954 0.02401 0.99904 0.0
C1199 C 0.56584 0.02227 0.99381 0.0
C1200 C 0.58413 0.03938 0.99129 0.0
H1201 H 0.60274 0.07013 0.94802 0.0
H1202 H 0.60042 0.05078 0.95979 0.0
H1203 H 0.58214 0.05846 0.9611 0.0
H1204 H 0.57138 0.07479 1.00089 0.0
H1205 H 0.5393 0.04487 1.00509 0.0
H1206 H 0.8479 0.5508 0.98595 0.0
H1207 H 0.87577 0.54644 0.99402 0.0
H1208 H 0.87557 0.52211 0.94556 0.0
H1209 H 0.84691 0.52526 0.93777 0.0
H1210 H 0.88007 0.50108 0.96495 0.0
H1211 H 0.93343 0.58022 0.98713 0.0
H1212 H 0.9109 0.57 0.99796 0.0
H1213 H 0.90979 0.57254 0.97674 0.0
C1214 C 0.85387 0.54456 0.97704 0.0
C1215 C 0.84529 0.53843 0.96122 0.0
C1216 C 0.86994 0.54225 0.98161 0.0
C1217 C 0.87821 0.53441 0.97032 0.0
C1218 C 0.86957 0.52826 0.95452 0.0
H1219 H 0.99516 0.54559 0.98285 0.0
H1220 H 0.96663 0.5496 0.97621 0.0
C1221 C 0.85318 0.53008 0.95006 0.0
C1222 C 0.89542 0.53196 0.97498 0.0
H1223 H 0.94262 0.55646 0.99322 0.0
C1224 C 0.8938 0.51327 0.97103 0.0
C1225 C 0.91351 0.54788 0.98275 0.0
C1226 C 0.91711 0.56883 0.98623 0.0
C1227 C 0.90964 0.51006 0.97452 0.0
C1228 C 0.92736 0.52571 0.98293 0.0
C1229 C 0.92899 0.54438 0.98693 0.0
C1230 C 0.94467 0.52329 0.98719 0.0
C1231 C 0.90738 0.49012 0.9686 0.0
C1232 C 0.94196 0.50727 0.99564 0.0
C1233 C 0.95815 0.50471 0.99904 0.0
C1234 C 0.9776 0.51866 0.9948 0.0
C1235 C 0.98037 0.5348 0.9865 0.0
C1236 C 0.96409 0.53712 0.98276 0.0
H1237 H 0.89626 0.48264 0.95819 0.0
H1238 H 0.9219 0.49187 0.96489 0.0
H1239 H 0.90187 0.48005 0.9784 0.0
H1240 H 0.9273 0.49667 0.9996 0.0
H1241 H 0.95537 0.4918 1.005 0.0
H1242 H 0.5133 0.30216 0.97789 0.0
H1243 H 0.51758 0.33348 0.99119 0.0
H1244 H 0.45822 0.31677 0.97321 0.0
H1245 H 0.45366 0.28544 0.96022 0.0
H1246 H 0.51716 0.36338 0.97655 0.0
H1247 H 0.45711 0.33429 0.01997 0.0
H1248 H 0.46579 0.31889 0.00986 0.0
H1249 H 0.44782 0.32309 0.99981 0.0
C1250 C 0.50105 0.30503 0.97698 0.0
C1251 C 0.48312 0.29127 0.96802 0.0
C1252 C 0.50353 0.32293 0.98457 0.0
C1253 C 0.4881 0.32732 0.98341 0.0
C1254 C 0.47014 0.31349 0.97462 0.0
H1255 H 0.47125 0.42775 0.99839 0.0
H1256 H 0.46898 0.39542 0.99194 0.0
C1257 C 0.46762 0.29562 0.96709 0.0
C1258 C 0.49119 0.34692 0.99032 0.0
H1259 H 0.46992 0.3683 0.01405 0.0
C1260 C 0.50703 0.3645 0.98495 0.0
C1261 C 0.47794 0.34834 1.00127 0.0
C1262 C 0.46134 0.33015 0.00819 0.0
C1263 C 0.50947 0.38336 0.9897 0.0
C1264 C 0.49581 0.38467 1.0002 0.0
C1265 C 0.48029 0.3672 1.00592 0.0
C1266 C 0.49692 0.40398 1.00484 0.0
C1267 C 0.52614 0.40168 0.98296 0.0
C1268 C 0.51325 0.41936 0.01444 0.0
C1269 C 0.51461 0.43787 0.01816 0.0
C1270 C 0.49962 0.44129 0.01237 0.0
C1271 C 0.48308 0.42567 1.00301 0.0
C1272 C 0.48172 0.40716 0.99934 0.0
H1273 H 0.53312 0.39769 0.97282 0.0
H1274 H 0.52041 0.41109 0.97867 0.0
H1275 H 0.53801 0.41085 0.99259 0.0
H1276 H 0.52503 0.41711 0.01892 0.0
H1277 H 0.52762 0.44958 0.0253 0.0
H1278 H 0.18547 0.71711 0.04982 0.0
H1279 H 0.15661 0.68531 0.03849 0.0
H1280 H 0.184 0.65342 0.0555 0.0
H1281 H 0.21293 0.68513 0.06696 0.0
H1282 H 0.1531 0.65245 0.01615 0.0
H1283 H 0.12934 0.63125 0.07787 0.0
H1284 H 0.14749 0.65659 0.07395 0.0
H1285 H 0.15474 0.63804 0.07386 0.0
C1286 C 0.18551 0.70337 0.05098 0.0
C1287 C 0.2014 0.70364 0.05947 0.0
C1288 C 0.16902 0.68523 0.04446 0.0
C1289 C 0.16809 0.66706 0.04639 0.0
C1290 C 0.18437 0.66731 0.05409 0.0
H1291 H 0.07756 0.54665 1.00692 0.0
H1292 H 0.1087 0.5787 0.01315 0.0
C1293 C 0.20091 0.68545 0.06057 0.0
C1294 C 0.1495 0.64783 0.0413 0.0
H1295 H 0.10992 0.6075 0.05615 0.0
C1296 C 0.14366 0.64256 0.02485 0.0
C1297 C 0.13713 0.63516 0.05275 0.0
C1298 C 0.14232 0.64053 0.07062 0.0
C1299 C 0.12577 0.62476 0.01952 0.0
C1300 C 0.11357 0.61196 0.03097 0.0
C1301 C 0.11937 0.61733 0.04741 0.0
C1302 C 0.09455 0.59299 0.02624 0.0
C1303 C 0.11985 0.61996 1.00175 0.0
C1304 C 0.0763 0.59035 0.03165 0.0
C1305 C 0.05843 0.57206 0.02808 0.0
C1306 C 0.05852 0.55601 0.01909 0.0
C1307 C 0.07686 0.55877 0.01361 0.0
C1308 C 0.09471 0.5771 0.01715 0.0
H1309 H 0.1284 0.6333 0.99498 0.0
H1310 H 0.12297 0.60819 0.99682 0.0
H1311 H 0.10353 0.6141 0.99965 0.0
H1312 H 0.07592 0.60243 0.03877 0.0
H1313 H 0.04461 0.57047 0.03252 0.0
H1314 H 0.32147 0.48574 0.07991 0.0
H1315 H 0.35404 0.49068 0.07217 0.0
H1316 H 0.32411 0.43486 0.04173 0.0
H1317 H 0.29145 0.42987 0.04928 0.0
H1318 H 0.36939 0.46598 0.0768 0.0
H1319 H 0.36403 0.47423 0.01176 0.0
H1320 H 0.34749 0.47619 0.02605 0.0
H1321 H 0.34319 0.45198 0.01842 0.0
C1322 C 0.32179 0.47456 0.07149 0.0
C1323 C 0.30383 0.45742 0.06519 0.0
C1324 C 0.34042 0.47741 0.06708 0.0
C1325 C 0.34151 0.46329 0.0562 0.0
C1326 C 0.32363 0.44616 0.04989 0.0
H1327 H 0.44518 0.44903 0.04388 0.0
H1328 H 0.41195 0.44441 0.04904 0.0
C1329 C 0.30497 0.44327 0.05431 0.0
C1330 C 0.36138 0.46608 0.05207 0.0
H1331 H 0.3915 0.47126 0.02073 0.0
C1332 C 0.37423 0.46717 0.06454 0.0
C1333 C 0.36778 0.46785 0.03609 0.0
C1334 C 0.35501 0.4677 0.0223 0.0
C1335 C 0.39315 0.46967 0.06146 0.0
C1336 C 0.39929 0.47084 0.04544 0.0
C1337 C 0.38663 0.47011 0.03297 0.0
C1338 C 0.41897 0.47312 0.04148 0.0
C1339 C 0.40656 0.47135 0.07543 0.0
C1340 C 0.43376 0.49059 0.0352 0.0
C1341 C 0.45269 0.49321 0.03222 0.0
C1342 C 0.45697 0.47819 0.03512 0.0
C1343 C 0.44213 0.4607 0.04135 0.0
C1344 C 0.42322 0.45809 0.04435 0.0
H1345 H 0.40177 0.475 0.08713 0.0
H1346 H 0.40589 0.45682 0.07589 0.0
H1347 H 0.42243 0.48306 0.07397 0.0
H1348 H 0.43081 0.5024 0.03295 0.0
H1349 H 0.464 0.5071 0.02792 0.0
H1350 H 0.53733 0.81831 0.0402 0.0
H1351 H 0.53425 0.84545 0.03037 0.0
H1352 H 0.50534 0.84907 0.07359 0.0
H1353 H 0.5076 0.82139 0.08315 0.0
H1354 H 0.48645 0.85117 0.04843 0.0
H1355 H 0.56793 0.90401 0.04413 0.0
H1356 H 0.55931 0.88067 0.0321 0.0
H1357 H 0.55841 0.88114 0.0537 0.0
C1358 C 0.53035 0.82492 0.04761 0.0
C1359 C 0.52278 0.81778 0.06248 0.0
C1360 C 0.52873 0.84054 0.04203 0.0
C1361 C 0.51997 0.84964 0.05139 0.0
C1362 C 0.51224 0.84237 0.06618 0.0
H1363 H 0.53233 0.96479 0.03956 0.0
H1364 H 0.53512 0.93685 0.04759 0.0
C1365 C 0.51355 0.82655 0.07163 0.0
C1366 C 0.51841 0.86643 0.04571 0.0
H1367 H 0.54583 0.91298 0.03258 0.0
C1368 C 0.49946 0.86472 0.04502 0.0
C1369 C 0.53542 0.88426 0.04148 0.0
C1370 C 0.55643 0.88776 0.04304 0.0
C1371 C 0.49701 0.88025 0.0402 0.0
C1372 C 0.51389 0.89773 0.03536 0.0
C1373 C 0.53286 0.89948 0.03609 0.0
C1374 C 0.51236 0.9147 0.03006 0.0
C1375 C 0.47646 0.87796 0.04087 0.0
C1376 C 0.49887 0.91167 0.01735 0.0
C1377 C 0.49692 0.92757 0.01293 0.0
C1378 C 0.50886 0.94697 0.02083 0.0
C1379 C 0.52285 0.95008 0.0332 0.0
C1380 C 0.52453 0.9341 0.03779 0.0
H1381 H 0.46696 0.86688 0.04929 0.0
H1382 H 0.47753 0.89248 0.04474 0.0
H1383 H 0.46874 0.87249 0.02872 0.0
H1384 H 0.48968 0.89697 0.0109 0.0
H1385 H 0.48584 0.92452 1.00349 0.0
H1386 H 0.98042 0.14724 0.39395 0.0
H1387 H 0.01223 0.17486 0.3858 0.0
H1388 H 0.98273 0.20732 0.37537 0.0
H1389 H 0.95084 0.17978 0.38337 0.0
H1390 H 0.01879 0.19339 0.35351 0.0
H1391 H 0.03305 0.2452 0.40859 0.0
H1392 H 0.01717 0.2183 0.4083 0.0
H1393 H 0.00817 0.23246 0.39902 0.0
C1394 C 0.98068 0.16023 0.38989 0.0
C1395 C 0.96311 0.16134 0.38934 0.0
C1396 C 0.99885 0.17596 0.38523 0.0
C1397 C 0.99977 0.19312 0.38013 0.0
C1398 C 0.98228 0.19422 0.37941 0.0
H1399 H 0.09741 0.30972 0.36032 0.0
H1400 H 0.06461 0.28047 0.36452 0.0
C1401 C 0.96408 0.17846 0.38394 0.0
C1402 C 0.01904 0.20993 0.37554 0.0
H1403 H 0.05547 0.25801 0.38786 0.0
C1404 C 0.02691 0.20754 0.36098 0.0
C1405 C 0.02942 0.2283 0.38533 0.0
C1406 C 0.02168 0.23133 0.40125 0.0
C1407 C 0.04477 0.2233 0.35575 0.0
C1408 C 0.0553 0.24178 0.36556 0.0
C1409 C 0.0474 0.24397 0.38024 0.0
C1410 C 0.07458 0.25904 0.36108 0.0
C1411 C 0.05172 0.22012 0.33952 0.0
C1412 C 0.09111 0.25681 0.35755 0.0
C1413 C 0.10969 0.27345 0.35478 0.0
C1414 C 0.11218 0.29269 0.3557 0.0
C1415 C 0.09573 0.29497 0.35927 0.0
C1416 C 0.07705 0.27828 0.36173 0.0
H1417 H 0.0391 0.20811 0.33153 0.0
H1418 H 0.05869 0.23409 0.33348 0.0
H1419 H 0.063 0.21554 0.34108 0.0
H1420 H 0.08992 0.24234 0.35757 0.0
H1421 H 0.12227 0.27133 0.3527 0.0
H1422 H 0.8294 0.77558 0.37731 0.0
H1423 H 0.803 0.78068 0.3666 0.0
H1424 H 0.82069 0.83042 0.4027 0.0
H1425 H 0.84691 0.82535 0.41357 0.0
H1426 H 0.78008 0.80186 0.40178 0.0
H1427 H 0.80454 0.8241 0.34053 0.0
H1428 H 0.80368 0.80155 0.34524 0.0
H1429 H 0.82137 0.82512 0.35615 0.0
C1430 C 0.8279 0.78782 0.3828 0.0
C1431 C 0.84023 0.8 0.39635 0.0
C1432 C 0.81285 0.79077 0.37661 0.0
C1433 C 0.80998 0.80603 0.38378 0.0
C1434 C 0.82268 0.81858 0.39696 0.0
H1435 H 0.73072 0.84782 0.35555 0.0
H1436 H 0.7596 0.84419 0.3615 0.0
C1437 C 0.83768 0.81565 0.40316 0.0
C1438 C 0.79272 0.80789 0.37852 0.0
H1439 H 0.7718 0.81722 0.34667 0.0
C1440 C 0.77829 0.80524 0.38974 0.0
C1441 C 0.79049 0.81244 0.36283 0.0
C1442 C 0.80591 0.81615 0.3505 0.0
C1443 C 0.76161 0.80686 0.38568 0.0
C1444 C 0.75913 0.81095 0.3699 0.0
C1445 C 0.77365 0.81385 0.3587 0.0
C1446 C 0.74171 0.81268 0.365 0.0
C1447 C 0.74696 0.80453 0.39841 0.0
C1448 C 0.72211 0.7961 0.36476 0.0
C1449 C 0.7056 0.79812 0.36124 0.0
C1450 C 0.70845 0.81664 0.35757 0.0
C1451 C 0.72808 0.83321 0.35776 0.0
C1452 C 0.74459 0.83119 0.36127 0.0
H1453 H 0.7534 0.80603 0.41073 0.0
H1454 H 0.74236 0.81586 0.39787 0.0
H1455 H 0.73328 0.78943 0.39628 0.0
H1456 H 0.71958 0.78165 0.36752 0.0
H1457 H 0.69058 0.78522 0.3614 0.0
H1458 H 0.18792 0.04089 0.37794 0.0
H1459 H 0.17793 0.00591 0.36969 0.0
H1460 H 0.22942 0.01382 0.39681 0.0
H1461 H 0.23942 0.04852 0.40517 0.0
H1462 H 0.2002 0.98988 0.35327 0.0
H1463 H 0.18116 0.965 0.41449 0.0
H1464 H 0.18386 0.98819 0.40902 0.0
H1465 H 0.20573 0.98673 0.41376 0.0
C1466 C 0.19713 0.03518 0.3821 0.0
C1467 C 0.21437 0.04744 0.39232 0.0
C1468 C 0.1914 0.01522 0.37738 0.0
C1469 C 0.20275 0.00723 0.38289 0.0
C1470 C 0.22024 0.0196 0.3927 0.0
H1471 H 0.20725 0.89953 0.37478 0.0
H1472 H 0.21191 0.93295 0.38046 0.0
C1473 C 0.22598 0.03948 0.3974 0.0
C1474 C 0.19648 0.98597 0.37853 0.0
H1475 H 0.18458 0.94281 0.39505 0.0
C1476 C 0.19652 0.97946 0.36234 0.0
C1477 C 0.19164 0.97247 0.39041 0.0
C1478 C 0.19038 0.97835 0.40788 0.0
C1479 C 0.19273 0.96001 0.35782 0.0
C1480 C 0.18856 0.94675 0.36981 0.0
C1481 C 0.18792 0.95308 0.38591 0.0
C1482 C 0.18562 0.92648 0.36605 0.0
C1483 C 0.194 0.95404 0.34038 0.0
C1484 C 0.16913 0.91172 0.35621 0.0
C1485 C 0.16637 0.89255 0.35297 0.0
C1486 C 0.18007 0.88783 0.3595 0.0
C1487 C 0.19645 0.90264 0.3695 0.0
C1488 C 0.19916 0.92176 0.37275 0.0
H1489 H 0.20126 0.9672 0.33325 0.0
H1490 H 0.20256 0.94613 0.33934 0.0
H1491 H 0.17861 0.94361 0.33499 0.0
H1492 H 0.15828 0.91494 0.3512 0.0
H1493 H 0.15338 0.8814 0.34549 0.0
H1494 H 0.51729 0.64024 0.24868 0.0
H1495 H 0.54533 0.67174 0.26132 0.0
H1496 H 0.52916 0.6501 0.30812 0.0
H1497 H 0.50128 0.61842 0.29559 0.0
H1498 H 0.54239 0.69846 0.28331 0.0
H1499 H 0.58952 0.67159 0.30925 0.0
H1500 H 0.56945 0.65654 0.29416 0.0
H1501 H 0.56388 0.65862 0.31489 0.0
C1502 C 0.51983 0.64206 0.26164 0.0
C1503 C 0.50705 0.62681 0.27112 0.0
C1504 C 0.53584 0.66009 0.26885 0.0
C1505 C 0.53943 0.66317 0.28564 0.0
C1506 C 0.5269 0.64788 0.29512 0.0
H1507 H 0.60948 0.78086 0.3397 0.0
H1508 H 0.58259 0.74747 0.32907 0.0
C1509 C 0.5109 0.62982 0.28793 0.0
C1510 C 0.55559 0.68282 0.29324 0.0
H1511 H 0.59879 0.70535 0.31719 0.0
C1512 C 0.55475 0.69999 0.29069 0.0
C1513 C 0.57174 0.68475 0.30277 0.0
C1514 C 0.57388 0.66693 0.30534 0.0
C1515 C 0.56962 0.71907 0.29746 0.0
C1516 C 0.58553 0.72096 0.3073 0.0
C1517 C 0.58644 0.7038 0.30978 0.0
C1518 C 0.60188 0.74073 0.31452 0.0
C1519 C 0.5684 0.73709 0.29371 0.0
C1520 C 0.62171 0.74772 0.31027 0.0
C1521 C 0.63716 0.76665 0.3165 0.0
C1522 C 0.63308 0.77895 0.32717 0.0
C1523 C 0.61321 0.77174 0.33163 0.0
C1524 C 0.59777 0.75274 0.32543 0.0
H1525 H 0.55822 0.73365 0.28298 0.0
H1526 H 0.56245 0.74188 0.30413 0.0
H1527 H 0.58349 0.74985 0.29154 0.0
H1528 H 0.6252 0.73865 0.30189 0.0
H1529 H 0.65227 0.77167 0.31281 0.0
H1530 H 0.37918 0.86794 0.31491 0.0
H1531 H 0.34842 0.86223 0.32775 0.0
H1532 H 0.324 0.8653 0.28224 0.0
H1533 H 0.35438 0.87083 0.26934 0.0
H1534 H 0.33124 0.88696 0.3295 0.0
H1535 H 0.27929 0.81241 0.29723 0.0
H1536 H 0.30625 0.82356 0.29782 0.0
H1537 H 0.29404 0.83107 0.28396 0.0
C1538 C 0.3672 0.86728 0.30763 0.0
C1539 C 0.36922 0.86974 0.29107 0.0
C1540 C 0.34966 0.86405 0.31499 0.0
C1541 C 0.3338 0.86303 0.30589 0.0
C1542 C 0.33587 0.86562 0.28942 0.0
H1543 H 0.23638 0.88134 0.3294 0.0
H1544 H 0.26888 0.88467 0.32369 0.0
C1545 C 0.35333 0.86889 0.28208 0.0
C1546 C 0.31523 0.8598 0.31353 0.0
H1547 H 0.26417 0.82956 0.31039 0.0
C1548 C 0.31658 0.87427 0.3255 0.0
C1549 C 0.29613 0.84312 0.30845 0.0
C1550 C 0.29379 0.82654 0.29627 0.0
C1551 C 0.29926 0.87298 0.33199 0.0
C1552 C 0.28009 0.8569 0.3262 0.0
C1553 C 0.27883 0.84197 0.31476 0.0
C1554 C 0.26109 0.85568 0.33117 0.0
C1555 C 0.30175 0.88894 0.34488 0.0
C1556 C 0.24571 0.83816 0.337 0.0
C1557 C 0.22703 0.83614 0.34003 0.0
C1558 C 0.22347 0.85172 0.33749 0.0
C1559 C 0.2389 0.86928 0.33177 0.0
C1560 C 0.25752 0.87125 0.32864 0.0
H1561 H 0.31635 0.89556 0.35185 0.0
H1562 H 0.30152 0.90119 0.33912 0.0
H1563 H 0.28946 0.8829 0.35334 0.0
H1564 H 0.248 0.82583 0.33887 0.0
H1565 H 0.2153 0.82217 0.3439 0.0
H1566 H 0.15599 0.50047 0.27886 0.0
H1567 H 0.15806 0.47149 0.28539 0.0
H1568 H 0.12626 0.46822 0.32848 0.0
H1569 H 0.12335 0.49662 0.32162 0.0
H1570 H 0.17565 0.46599 0.30936 0.0
H1571 H 0.09418 0.41131 0.30994 0.0
H1572 H 0.10381 0.43556 0.30262 0.0
H1573 H 0.10162 0.43294 0.32391 0.0
C1574 C 0.14935 0.49351 0.28969 0.0
C1575 C 0.13937 0.50072 0.29967 0.0
C1576 C 0.15054 0.47694 0.29341 0.0
C1577 C 0.14195 0.46736 0.30726 0.0
C1578 C 0.13243 0.47489 0.31746 0.0
H1579 H 0.17605 0.39108 0.35136 0.0
H1580 H 0.17195 0.41846 0.34408 0.0
C1581 C 0.13092 0.49125 0.31359 0.0
C1582 C 0.14352 0.44991 0.31123 0.0
H1583 H 0.11612 0.40178 0.32126 0.0
C1584 C 0.16259 0.45191 0.31185 0.0
C1585 C 0.12647 0.43136 0.31419 0.0
C1586 C 0.10536 0.42757 0.31246 0.0
C1587 C 0.16515 0.43606 0.31559 0.0
C1588 C 0.14825 0.41791 0.31945 0.0
C1589 C 0.12912 0.41577 0.31854 0.0
C1590 C 0.15004 0.40095 0.32439 0.0
C1591 C 0.18591 0.43885 0.315 0.0
C1592 C 0.13839 0.38167 0.31629 0.0
C1593 C 0.14017 0.36571 0.32085 0.0
C1594 C 0.15372 0.36874 0.33357 0.0
C1595 C 0.16523 0.38804 0.34172 0.0
C1596 C 0.16318 0.40388 0.33735 0.0
H1597 H 0.19539 0.45038 0.30688 0.0
H1598 H 0.19341 0.44405 0.32724 0.0
H1599 H 0.18528 0.42462 0.3108 0.0
H1600 H 0.12806 0.379 0.3063 0.0
H1601 H 0.13106 0.35108 0.31426 0.0
H1602 H 0.30737 0.48407 0.2649 0.0
H1603 H 0.28441 0.45444 0.27814 0.0
H1604 H 0.33357 0.46294 0.30896 0.0
H1605 H 0.35666 0.49296 0.29598 0.0
H1606 H 0.2854 0.42002 0.27961 0.0
H1607 H 0.29167 0.4567 0.34118 0.0
H1608 H 0.30085 0.47072 0.32386 0.0
H1609 H 0.31502 0.46139 0.33314 0.0
C1610 C 0.31332 0.47972 0.27454 0.0
C1611 C 0.33382 0.4909 0.27942 0.0
C1612 C 0.30017 0.46277 0.28209 0.0
C1613 C 0.30724 0.45664 0.29466 0.0
C1614 C 0.32773 0.46765 0.29951 0.0
H1615 H 0.22669 0.33586 0.32374 0.0
H1616 H 0.25756 0.36574 0.31673 0.0
C1617 C 0.34091 0.48472 0.29201 0.0
C1618 C 0.29306 0.43833 0.30223 0.0
H1619 H 0.27091 0.42145 0.33745 0.0
C1620 C 0.28233 0.42028 0.29228 0.0
C1621 C 0.28905 0.4388 0.31875 0.0
C1622 C 0.2996 0.45794 0.32987 0.0
C1623 C 0.26727 0.40277 0.29827 0.0
C1624 C 0.26321 0.40322 0.31478 0.0
C1625 C 0.27427 0.42115 0.32484 0.0
C1626 C 0.24612 0.38581 0.32134 0.0
C1627 C 0.25518 0.38424 0.28667 0.0
C1628 C 0.2299 0.38743 0.32691 0.0
C1629 C 0.21244 0.37051 0.33102 0.0
C1630 C 0.21103 0.35173 0.32986 0.0
C1631 C 0.22754 0.35024 0.32484 0.0
C1632 C 0.24508 0.36723 0.32079 0.0
H1633 H 0.25741 0.38765 0.27391 0.0
H1634 H 0.25994 0.37327 0.28854 0.0
H1635 H 0.23889 0.37705 0.28878 0.0
H1636 H 0.23036 0.40161 0.32735 0.0
H1637 H 0.19985 0.37207 0.33443 0.0
H1638 H 0.49925 0.84118 0.29379 0.0
H1639 H 0.52713 0.8366 0.30129 0.0
H1640 H 0.56597 0.9007 0.31054 0.0
H1641 H 0.53804 0.90535 0.30357 0.0
H1642 H 0.56209 0.84856 0.28802 0.0
H1643 H 0.57737 0.88309 0.35102 0.0
H1644 H 0.5551 0.87722 0.33927 0.0
H1645 H 0.57856 0.89993 0.33703 0.0
C1646 C 0.51369 0.8543 0.29755 0.0
C1647 C 0.51638 0.87363 0.29818 0.0
C1648 C 0.52963 0.85165 0.30183 0.0
C1649 C 0.5486 0.86827 0.3068 0.0
C1650 C 0.55137 0.8876 0.30723 0.0
H1651 H 0.66759 0.88644 0.32354 0.0
H1652 H 0.63819 0.88973 0.31825 0.0
C1653 C 0.53539 0.89025 0.30311 0.0
C1654 C 0.56567 0.86542 0.31086 0.0
H1655 H 0.60262 0.87745 0.33971 0.0
C1656 C 0.57079 0.85469 0.2994 0.0
C1657 C 0.57705 0.87337 0.32574 0.0
C1658 C 0.57162 0.88386 0.33903 0.0
C1659 C 0.5872 0.85213 0.30226 0.0
C1660 C 0.5988 0.8605 0.31694 0.0
C1661 C 0.59368 0.8711 0.32845 0.0
C1662 C 0.61645 0.85853 0.32047 0.0
C1663 C 0.59234 0.84086 0.28944 0.0
C1664 C 0.61389 0.83993 0.32352 0.0
C1665 C 0.63061 0.83808 0.32663 0.0
C1666 C 0.65013 0.85487 0.32695 0.0
C1667 C 0.65266 0.87339 0.32364 0.0
C1668 C 0.63593 0.87527 0.32064 0.0
H1669 H 0.58383 0.83799 0.27781 0.0
H1670 H 0.60868 0.84937 0.28743 0.0
H1671 H 0.5887 0.82621 0.29351 0.0
H1672 H 0.59896 0.82685 0.32346 0.0
H1673 H 0.62822 0.82349 0.32861 0.0
H1674 H 0.17619 0.64377 0.28276 0.0
H1675 H 0.17887 0.67544 0.2926 0.0
H1676 H 0.14873 0.64955 0.33526 0.0
H1677 H 0.1453 0.61746 0.32517 0.0
H1678 H 0.13311 0.66905 0.32285 0.0
H1679 H 0.21578 0.71816 0.32641 0.0
H1680 H 0.20667 0.70545 0.30662 0.0
H1681 H 0.20362 0.6912 0.32346 0.0
C1682 C 0.17037 0.64486 0.29435 0.0
C1683 C 0.16058 0.6281 0.30321 0.0
C1684 C 0.17203 0.66305 0.30001 0.0
C1685 C 0.16432 0.66502 0.31481 0.0
C1686 C 0.15486 0.64841 0.32384 0.0
H1687 H 0.19116 0.78132 0.3592 0.0
H1688 H 0.18844 0.74901 0.35277 0.0
C1689 C 0.15296 0.6301 0.31808 0.0
C1690 C 0.16512 0.68404 0.32038 0.0
H1691 H 0.1968 0.73469 0.32682 0.0
C1692 C 0.14707 0.68339 0.32389 0.0
C1693 C 0.18335 0.70274 0.32194 0.0
C1694 C 0.20346 0.70443 0.31958 0.0
C1695 C 0.14669 0.70093 0.32858 0.0
C1696 C 0.16478 0.71973 0.32928 0.0
C1697 C 0.18287 0.72033 0.32609 0.0
C1698 C 0.16545 0.73897 0.33361 0.0
C1699 C 0.12695 0.69903 0.33304 0.0
C1700 C 0.15347 0.74423 0.32498 0.0
C1701 C 0.15457 0.7626 0.32898 0.0
C1702 C 0.16799 0.77623 0.34147 0.0
C1703 C 0.18025 0.77105 0.34983 0.0
C1704 C 0.17888 0.7526 0.34603 0.0
H1705 H 0.11632 0.68392 0.33679 0.0
H1706 H 0.12913 0.71046 0.34298 0.0
H1707 H 0.11988 0.70117 0.32238 0.0
H1708 H 0.14346 0.73428 0.315 0.0
H1709 H 0.1451 0.76618 0.32212 0.0
H1710 H 0.83825 0.05028 0.41386 0.0
H1711 H 0.80983 0.0179 0.40316 0.0
H1712 H 0.85037 0.00303 0.37909 0.0
H1713 H 0.87904 0.03537 0.38995 0.0
H1714 H 0.79698 0.00091 0.37137 0.0
H1715 H 0.81816 0.95575 0.406 0.0
H1716 H 0.82936 0.98249 0.41051 0.0
H1717 H 0.83743 0.9727 0.39381 0.0
C1718 C 0.84117 0.04018 0.40625 0.0
C1719 C 0.86094 0.04534 0.40286 0.0
C1720 C 0.82488 0.02168 0.40014 0.0
C1721 C 0.82803 0.00796 0.39057 0.0
C1722 C 0.84767 0.01327 0.38673 0.0
H1723 H 0.74967 0.88778 0.34595 0.0
H1724 H 0.77772 0.92102 0.35507 0.0
C1725 C 0.86401 0.03179 0.39287 0.0
C1726 C 0.81069 0.98803 0.38477 0.0
H1727 H 0.7905 0.93782 0.38705 0.0
C1728 C 0.79551 0.9871 0.37481 0.0
C1729 C 0.80881 0.97008 0.38936 0.0
C1730 C 0.8242 0.97021 0.40062 0.0
C1731 C 0.77864 0.96864 0.36907 0.0
C1732 C 0.77681 0.9507 0.37363 0.0
C1733 C 0.79197 0.95163 0.38359 0.0
C1734 C 0.7595 0.93074 0.36792 0.0
C1735 C 0.76315 0.96843 0.3579 0.0
C1736 C 0.73993 0.92511 0.37226 0.0
C1737 C 0.72374 0.90607 0.36696 0.0
C1738 C 0.7269 0.89238 0.35726 0.0
C1739 C 0.7466 0.89805 0.35315 0.0
C1740 C 0.76271 0.91702 0.35843 0.0
H1741 H 0.76899 0.98296 0.35267 0.0
H1742 H 0.75815 0.95628 0.34791 0.0
H1743 H 0.74982 0.9656 0.36473 0.0
H1744 H 0.73721 0.93537 0.37985 0.0
H1745 H 0.70879 0.90213 0.37043 0.0
H1746 H 0.96092 0.75153 0.39599 0.0
H1747 H 0.99434 0.75841 0.38895 0.0
H1748 H 0.01268 0.82019 0.38442 0.0
H1749 H 0.97961 0.81359 0.3923 0.0
H1750 H 0.01373 0.76933 0.3631 0.0
H1751 H 0.0586 0.82887 0.41209 0.0
H1752 H 0.03157 0.81403 0.4118 0.0
H1753 H 0.04377 0.83525 0.40013 0.0
C1754 C 0.97214 0.76662 0.39362 0.0
C1755 C 0.9677 0.78206 0.39483 0.0
C1756 C 0.99125 0.77055 0.38957 0.0
C1757 C 0.00626 0.78993 0.38646 0.0
C1758 C 1.00166 0.80527 0.3873 0.0
H1759 H 0.12994 0.83957 0.358 0.0
H1760 H 0.09594 0.83324 0.36207 0.0
C1761 C 0.98267 0.80145 0.39168 0.0
C1762 C 0.02645 0.79384 0.38186 0.0
H1763 H 0.07686 0.82427 0.391 0.0
C1764 C 0.02751 0.78132 0.36926 0.0
C1765 C 0.04452 0.80941 0.38992 0.0
C1766 C 0.04458 0.82251 0.40434 0.0
C1767 C 0.04601 0.78398 0.36443 0.0
C1768 C 0.06405 0.79974 0.37231 0.0
C1769 C 0.06304 0.81238 0.38481 0.0
C1770 C 0.0841 0.80291 0.36834 0.0
C1771 C 0.04597 0.76981 0.35096 0.0
C1772 C 0.08875 0.78798 0.37044 0.0
C1773 C 0.10811 0.79153 0.36797 0.0
C1774 C 0.12315 0.81001 0.36324 0.0
C1775 C 0.11852 0.82497 0.36112 0.0
C1776 C 0.09913 0.82141 0.36359 0.0
H1777 H 0.03235 0.76348 0.34273 0.0
H1778 H 0.05944 0.77731 0.34385 0.0
H1779 H 0.04596 0.75714 0.35619 0.0
H1780 H 0.07757 0.77377 0.37446 0.0
H1781 H 0.11144 0.77992 0.37001 0.0
H1782 H 0.16575 0.15038 0.41807 0.0
H1783 H 0.16317 0.17729 0.40732 0.0
H1784 H 0.19345 0.17296 0.36521 0.0
H1785 H 0.19684 0.14657 0.37625 0.0
H1786 H 0.20789 0.2107 0.37563 0.0
H1787 H 0.12497 0.1729 0.37284 0.0
H1788 H 0.13472 0.17475 0.39284 0.0
H1789 H 0.13804 0.15989 0.37679 0.0
C1790 C 0.17176 0.15508 0.40648 0.0
C1791 C 0.18139 0.14628 0.39795 0.0
C1792 C 0.17014 0.17038 0.40029 0.0
C1793 C 0.17768 0.17685 0.38527 0.0
C1794 C 0.1874 0.16814 0.37677 0.0
H1795 H 0.14595 0.25243 0.33643 0.0
H1796 H 0.14987 0.22495 0.34385 0.0
C1797 C 0.18931 0.15305 0.38308 0.0
C1798 C 0.17604 0.19316 0.3787 0.0
H1799 H 0.1428 0.20824 0.37057 0.0
C1800 C 0.19362 0.21007 0.37437 0.0
C1801 C 0.15739 0.19222 0.37677 0.0
C1802 C 0.1377 0.17386 0.37989 0.0
C1803 C 0.19315 0.22626 0.36856 0.0
C1804 C 0.17467 0.22584 0.36757 0.0
C1805 C 0.15702 0.20871 0.37152 0.0
C1806 C 0.17321 0.24293 0.3625 0.0
C1807 C 0.21242 0.24344 0.36327 0.0
C1808 C 0.18496 0.26224 0.37052 0.0
C1809 C 0.18315 0.27817 0.36597 0.0
C1810 C 0.16923 0.27502 0.35353 0.0
C1811 C 0.1572 0.25557 0.34575 0.0
C1812 C 0.15928 0.23975 0.35011 0.0
H1813 H 0.2232 0.23858 0.35971 0.0
H1814 H 0.20958 0.25 0.35296 0.0
H1815 H 0.21966 0.25532 0.37346 0.0
H1816 H 0.19534 0.26497 0.38048 0.0
H1817 H 0.19249 0.29286 0.37239 0.0
H1818 H 0.65768 0.48936 0.73335 0.0
H1819 H 0.68927 0.51738 0.7253 0.0
H1820 H 0.65855 0.5484 0.71395 0.0
H1821 H 0.62689 0.52045 0.72186 0.0
H1822 H 0.69583 0.53481 0.69305 0.0
H1823 H 0.70825 0.58818 0.74655 0.0
H1824 H 0.69265 0.56132 0.74678 0.0
H1825 H 0.6835 0.57488 0.73674 0.0
C1826 C 0.65763 0.50214 0.72915 0.0
C1827 C 0.63978 0.5027 0.72828 0.0
C1828 C 0.67568 0.5181 0.72455 0.0
C1829 C 0.67621 0.53497 0.71919 0.0
C1830 C 0.65844 0.53556 0.71822 0.0
H1831 H 0.77162 0.65172 0.69719 0.0
H1832 H 0.73933 0.62213 0.70194 0.0
C1833 C 0.64036 0.51955 0.72269 0.0
C1834 C 0.69531 0.55192 0.71443 0.0
H1835 H 0.73061 0.60075 0.72573 0.0
C1836 C 0.70353 0.54926 0.70017 0.0
C1837 C 0.70516 0.57066 0.72375 0.0
C1838 C 0.6971 0.57404 0.73938 0.0
C1839 C 0.72119 0.56507 0.69472 0.0
C1840 C 0.73119 0.58395 0.70405 0.0
C1841 C 0.72296 0.58642 0.71846 0.0
C1842 C 0.75021 0.60138 0.69931 0.0
C1843 C 0.72847 0.56147 0.67878 0.0
C1844 C 0.76709 0.59965 0.69603 0.0
C1845 C 0.78537 0.61648 0.6929 0.0
C1846 C 0.78721 0.63541 0.69323 0.0
C1847 C 0.77043 0.6372 0.69659 0.0
C1848 C 0.75204 0.62031 0.69937 0.0
H1849 H 0.71603 0.54908 0.6709 0.0
H1850 H 0.73535 0.57515 0.67237 0.0
H1851 H 0.73989 0.55719 0.68086 0.0
H1852 H 0.76642 0.58547 0.69651 0.0
H1853 H 0.79823 0.61476 0.69102 0.0
H1854 H 0.50237 0.12021 0.7118 0.0
H1855 H 0.47753 0.12734 0.70067 0.0
H1856 H 0.45826 0.1319 0.74847 0.0
H1857 H 0.48302 0.12504 0.75966 0.0
H1858 H 0.43584 0.10543 0.70281 0.0
H1859 H 0.46738 0.18318 0.73087 0.0
H1860 H 0.48163 0.17065 0.72985 0.0
H1861 H 0.46388 0.16583 0.74521 0.0
C1862 C 0.49298 0.12293 0.71995 0.0
C1863 C 0.49475 0.12213 0.73663 0.0
C1864 C 0.47878 0.12697 0.71357 0.0
C1865 C 0.46626 0.13045 0.72377 0.0
C1866 C 0.46805 0.1297 0.7404 0.0
H1867 H 0.34995 0.11634 0.70458 0.0
H1868 H 0.37836 0.11187 0.71039 0.0
C1869 C 0.48217 0.12564 0.74677 0.0
C1870 C 0.45066 0.13398 0.71709 0.0
H1871 H 0.43327 0.16647 0.72044 0.0
C1872 C 0.43539 0.11889 0.70648 0.0
C1873 C 0.45021 0.15162 0.72175 0.0
C1874 C 0.46676 0.16884 0.73242 0.0
C1875 C 0.41925 0.12062 0.70086 0.0
C1876 C 0.4182 0.13781 0.70622 0.0
C1877 C 0.43392 0.15322 0.71638 0.0
C1878 C 0.40078 0.13999 0.70192 0.0
C1879 C 0.40356 0.10391 0.6893 0.0
C1880 C 0.40388 0.15758 0.69577 0.0
C1881 C 0.3877 0.16034 0.69285 0.0
C1882 C 0.36802 0.14536 0.69562 0.0
C1883 C 0.36492 0.12788 0.70192 0.0
C1884 C 0.38113 0.12524 0.70509 0.0
H1885 H 0.4101 0.09632 0.68189 0.0
H1886 H 0.39162 0.09251 0.69626 0.0
H1887 H 0.39657 0.10944 0.68113 0.0
H1888 H 0.41889 0.16933 0.69343 0.0
H1889 H 0.3907 0.17432 0.68864 0.0
H1890 H 0.87232 0.36706 0.75016 0.0
H1891 H 0.86401 0.3331 0.74074 0.0
H1892 H 0.87011 0.34804 0.69161 0.0
H1893 H 0.87887 0.38235 0.70097 0.0
H1894 H 0.83362 0.30364 0.72017 0.0
H1895 H 0.90846 0.32695 0.69604 0.0
H1896 H 0.90374 0.34381 0.70883 0.0
H1897 H 0.89564 0.33836 0.68787 0.0
C1898 C 0.87184 0.36316 0.73733 0.0
C1899 C 0.87644 0.37749 0.72632 0.0
C1900 C 0.86704 0.34371 0.73197 0.0
C1901 C 0.86677 0.33815 0.71551 0.0
C1902 C 0.87065 0.35216 0.7044 0.0
H1903 H 0.81954 0.2134 0.67737 0.0
H1904 H 0.82514 0.24715 0.68301 0.0
C1905 C 0.87553 0.37171 0.70976 0.0
C1906 C 0.86277 0.31774 0.71018 0.0
H1907 H 0.88411 0.29242 0.69244 0.0
C1908 C 0.8446 0.30116 0.71403 0.0
C1909 C 0.87727 0.31459 0.70239 0.0
C1910 C 0.89746 0.33183 0.69864 0.0
C1911 C 0.84056 0.28149 0.7104 0.0
C1912 C 0.85495 0.27833 0.70242 0.0
C1913 C 0.87307 0.2949 0.69847 0.0
C1914 C 0.85181 0.25797 0.69856 0.0
C1915 C 0.82123 0.26432 0.71562 0.0
C1916 C 0.86527 0.25299 0.70505 0.0
C1917 C 0.86233 0.23377 0.70161 0.0
C1918 C 0.84589 0.21919 0.69154 0.0
C1919 C 0.83249 0.22429 0.685 0.0
C1920 C 0.83552 0.24354 0.68837 0.0
H1921 H 0.81438 0.26949 0.72508 0.0
H1922 H 0.81028 0.25715 0.7051 0.0
H1923 H 0.82376 0.25279 0.7203 0.0
H1924 H 0.87797 0.26394 0.71292 0.0
H1925 H 0.87295 0.23039 0.70685 0.0
H1926 H 0.16568 0.95912 0.61211 0.0
H1927 H 0.19227 0.99302 0.6216 0.0
H1928 H 0.18108 0.9789 0.67082 0.0
H1929 H 0.15455 0.94465 0.66139 0.0
H1930 H 0.19149 0.02283 0.64124 0.0
H1931 H 0.24123 -0.00035 0.66842 0.0
H1932 H 0.21968 0.9827 0.65513 0.0
H1933 H 0.21639 0.98843 0.67581 0.0
C1934 C 0.16879 0.96318 0.62497 0.0
C1935 C 0.15809 0.94911 0.63599 0.0
C1936 C 0.184 0.9826 0.63037 0.0
C1937 C 0.18887 0.98839 0.6469 0.0
C1938 C 0.17783 0.97461 0.65799 0.0
H1939 H 0.26879 0.11351 0.68461 0.0
H1940 H 0.2399 0.07968 0.67893 0.0
C1941 C 0.1626 0.95509 0.65259 0.0
C1942 C 0.20569 0.00881 0.65232 0.0
H1943 H 0.25239 0.03424 0.67136 0.0
C1944 C 0.20477 0.02536 0.6479 0.0
C1945 C 0.22311 0.01201 0.66081 0.0
C1946 C 0.22534 0.99479 0.66522 0.0
C1947 C 0.22085 0.04504 0.65164 0.0
C1948 C 0.23817 0.04825 0.6603 0.0
C1949 C 0.23904 0.03171 0.66482 0.0
C1950 C 0.25584 0.06861 0.66428 0.0
C1951 C 0.21942 0.06215 0.64581 0.0
C1952 C 0.27457 0.07348 0.65832 0.0
C1953 C 0.29125 0.09275 0.66177 0.0
C1954 C 0.28953 0.10749 0.67133 0.0
C1955 C 0.27075 0.10249 0.67738 0.0
C1956 C 0.25412 0.0832 0.67399 0.0
H1957 H 0.20755 0.05689 0.63602 0.0
H1958 H 0.2156 0.06954 0.65597 0.0
H1959 H 0.23396 0.07353 0.64134 0.0
H1960 H 0.27622 0.06241 0.65082 0.0
H1961 H 0.30546 0.09604 0.65691 0.0
H1962 H 0.0445 0.20296 0.64763 0.0
H1963 H 0.01316 0.19664 0.65971 0.0
H1964 H 0.98822 0.19513 0.61293 0.0
H1965 H 0.01918 0.2012 0.60079 0.0
H1966 H 0.99472 0.2198 0.65936 0.0
H1967 H 0.9446 0.14322 0.62971 0.0
H1968 H 0.97165 0.15517 0.63039 0.0
H1969 H 0.95884 0.16106 0.61572 0.0
C1970 C 0.03227 0.20112 0.63991 0.0
C1971 C 0.03433 0.20249 0.62323 0.0
C1972 C 0.01441 0.19755 0.64683 0.0
C1973 C 0.99825 0.19511 0.63718 0.0
C1974 C 1.00032 0.19654 0.62056 0.0
H1975 H 0.89869 0.21134 0.65923 0.0
H1976 H 0.93134 0.21526 0.65316 0.0
C1977 C 0.01812 0.20013 0.61365 0.0
C1978 C 0.97942 0.19176 0.6444 0.0
H1979 H 0.92856 0.16023 0.64138 0.0
C1980 C 0.98025 0.20665 0.65562 0.0
C1981 C 0.96059 0.1745 0.63965 0.0
C1982 C 0.95883 0.15747 0.62833 0.0
C1983 C 0.96268 0.20515 0.66171 0.0
C1984 C 0.94373 0.18841 0.65625 0.0
C1985 C 0.94301 0.17314 0.64552 0.0
C1986 C 0.9244 0.18664 0.66096 0.0
C1987 C 0.96474 0.22161 0.67388 0.0
C1988 C 0.90932 0.16901 0.66689 0.0
C1989 C 0.89051 0.16659 0.67 0.0
C1990 C 0.88654 0.18194 0.66759 0.0
C1991 C 0.90156 0.1995 0.66159 0.0
C1992 C 0.92028 0.20182 0.65826 0.0
H1993 H 0.9792 0.22865 0.68112 0.0
H1994 H 0.96461 0.23347 0.66743 0.0
H1995 H 0.95228 0.21597 0.68218 0.0
H1996 H 0.91199 0.15695 0.66887 0.0
H1997 H 0.87903 0.15258 0.67401 0.0
H1998 H 0.82775 0.8474 0.62859 0.0
H1999 H 0.83316 0.82054 0.63564 0.0
H2000 H 0.77471 0.79061 0.65547 0.0
H2001 H 0.76923 0.81752 0.64864 0.0
H2002 H 0.80509 0.79267 0.67528 0.0
H2003 H 0.80632 0.76366 0.61248 0.0
H2004 H 0.82369 0.79003 0.61709 0.0
H2005 H 0.79713 0.78053 0.6173 0.0
C2006 C 0.81603 0.83511 0.63445 0.0
C2007 C 0.79801 0.83456 0.63799 0.0
C2008 C 0.81911 0.81971 0.63838 0.0
C2009 C 0.80421 0.80344 0.64585 0.0
C2010 C 0.78635 0.803 0.64963 0.0
H2011 H 0.79845 0.69019 0.65532 0.0
H2012 H 0.79183 0.71646 0.64885 0.0
C2013 C 0.78325 0.81838 0.64571 0.0
C2014 C 0.80732 0.78698 0.64989 0.0
H2015 H 0.81578 0.75051 0.6333 0.0
C2016 C 0.80737 0.7834 0.66611 0.0
C2017 C 0.81002 0.77475 0.63787 0.0
C2018 C 0.80911 0.77726 0.62019 0.0
C2019 C 0.81043 0.76814 0.67068 0.0
C2020 C 0.81379 0.75635 0.65871 0.0
C2021 C 0.81337 0.75968 0.64246 0.0
C2022 C 0.81778 0.74047 0.66279 0.0
C2023 C 0.80975 0.76458 0.68825 0.0
C2024 C 0.83473 0.74531 0.67257 0.0
C2025 C 0.83856 0.73034 0.6763 0.0
C2026 C 0.82553 0.71023 0.67027 0.0
C2027 C 0.80873 0.70548 0.66024 0.0
C2028 C 0.80492 0.72048 0.65653 0.0
H2029 H 0.80184 0.77109 0.69516 0.0
H2030 H 0.80212 0.7483 0.68972 0.0
H2031 H 0.82533 0.77182 0.69356 0.0
H2032 H 0.84514 0.76071 0.67719 0.0
H2033 H 0.8519 0.73463 0.68373 0.0
H2034 H 0.00936 0.84015 0.62338 0.0
H2035 H 0.97904 0.81101 0.63166 0.0
H2036 H 0.01541 0.79647 0.66041 0.0
H2037 H 0.04589 0.82564 0.65222 0.0
H2038 H 0.97026 0.77043 0.62626 0.0
H2039 H 0.97226 0.79464 0.69122 0.0
H2040 H 0.98613 0.81212 0.67668 0.0
H2041 H 0.99513 0.79688 0.68402 0.0
C2042 C 0.01094 0.83088 0.63158 0.0
C2043 C 0.03005 0.83522 0.63714 0.0
C2044 C 0.99359 0.81423 0.63629 0.0
C2045 C 0.995 0.80173 0.64676 0.0
C2046 C 0.01401 0.80613 0.65251 0.0
H2047 H 0.90109 0.67961 0.66062 0.0
H2048 H 0.93317 0.70977 0.65607 0.0
C2049 C 0.0314 0.82274 0.64775 0.0
C2050 C 0.97658 0.78347 0.65089 0.0
H2051 H 0.94719 0.76135 0.68203 0.0
C2052 C 0.96522 0.76841 0.63845 0.0
C2053 C 0.97003 0.78101 0.66679 0.0
C2054 C 0.98139 0.79705 0.68047 0.0
C2055 C 0.94749 0.75085 0.6415 0.0
C2056 C 0.94108 0.74824 0.65742 0.0
C2057 C 0.95233 0.76335 0.66987 0.0
C2058 C 0.92228 0.7302 0.6612 0.0
C2059 C 0.9355 0.73537 0.62762 0.0
C2060 C 0.90573 0.73182 0.66578 0.0
C2061 C 0.88749 0.71468 0.66832 0.0
C2062 C 0.88566 0.69571 0.66672 0.0
C2063 C 0.90227 0.69413 0.66218 0.0
C2064 C 0.92051 0.71128 0.65956 0.0
H2065 H 0.9404 0.74133 0.61577 0.0
H2066 H 0.93747 0.72227 0.62819 0.0
H2067 H 0.91923 0.73 0.62837 0.0
H2068 H 0.90678 0.7463 0.66697 0.0
H2069 H 0.87479 0.71632 0.67123 0.0
H2070 H 0.16537 0.17318 0.61688 0.0
H2071 H 0.19282 0.16827 0.62509 0.0
H2072 H 0.22054 0.22478 0.6546 0.0
H2073 H 0.19311 0.2298 0.64653 0.0
H2074 H 0.23405 0.19372 0.62039 0.0
H2075 H 0.21964 0.1852 0.6853 0.0
H2076 H 0.20099 0.18265 0.67068 0.0
H2077 H 0.2211 0.20711 0.67828 0.0
C2078 C 0.17723 0.18452 0.6252 0.0
C2079 C 0.17702 0.20188 0.63106 0.0
C2080 C 0.19291 0.18168 0.62988 0.0
C2081 C 0.20859 0.19603 0.64061 0.0
C2082 C 0.20841 0.21334 0.64654 0.0
H2083 H 0.32736 0.21267 0.65569 0.0
H2084 H 0.29841 0.21643 0.64988 0.0
C2085 C 0.19277 0.21624 0.64182 0.0
C2086 C 0.22559 0.1933 0.64498 0.0
H2087 H 0.25016 0.18813 0.6767 0.0
C2088 C 0.23755 0.19246 0.6327 0.0
C2089 C 0.23001 0.19146 0.66102 0.0
C2090 C 0.21719 0.19147 0.67459 0.0
C2091 C 0.25402 0.19019 0.63605 0.0
C2092 C 0.25878 0.18892 0.65214 0.0
C2093 C 0.2466 0.18935 0.6644 0.0
C2094 C 0.27631 0.18703 0.65638 0.0
C2095 C 0.2661 0.18893 0.62232 0.0
C2096 C 0.27346 0.16939 0.66219 0.0
C2097 C 0.28996 0.16724 0.6655 0.0
C2098 C 0.30958 0.1829 0.66342 0.0
C2099 C 0.31238 0.20052 0.65761 0.0
C2100 C 0.2959 0.20265 0.65425 0.0
H2101 H 0.2579 0.1856 0.61046 0.0
H2102 H 0.28036 0.2035 0.62228 0.0
H2103 H 0.26992 0.17717 0.62377 0.0
H2104 H 0.25845 0.15713 0.66384 0.0
H2105 H 0.28728 0.15325 0.66944 0.0
H2106 H 0.83925 0.96386 0.64278 0.0
H2107 H 0.84378 -0.00419 0.65477 0.0
H2108 H 0.78589 0.98005 0.63395 0.0
H2109 H 0.78108 0.9481 0.62222 0.0
H2110 H 0.84504 0.02565 0.63844 0.0
H2111 H 0.78283 -0.00108 0.68003 0.0
H2112 H 0.79155 0.98295 0.67114 0.0
H2113 H 0.77455 0.98733 0.65982 0.0
C2114 C 0.82736 0.96708 0.64096 0.0
C2115 C 0.80978 0.9534 0.63157 0.0
C2116 C 0.82999 0.98534 0.64779 0.0
C2117 C 0.81504 0.99018 0.64545 0.0
C2118 C 0.79741 0.97645 0.63625 0.0
H2119 H 0.80235 0.09398 0.65917 0.0
H2120 H 0.79868 0.06107 0.6522 0.0
C2121 C 0.79475 0.95821 0.62945 0.0
C2122 C 0.81835 0.01009 0.65165 0.0
H2123 H 0.7974 0.03298 0.67389 0.0
C2124 C 0.83478 0.02728 0.64636 0.0
C2125 C 0.80491 0.01217 0.66195 0.0
C2126 C 0.78758 0.99437 0.6687 0.0
C2127 C 0.83774 0.04645 0.65064 0.0
C2128 C 0.82403 0.04846 0.66062 0.0
C2129 C 0.80781 0.03133 0.66616 0.0
C2130 C 0.82611 0.06822 0.66522 0.0
C2131 C 0.85514 0.06435 0.64405 0.0
C2132 C 0.84263 0.083 0.675 0.0
C2133 C 0.8448 0.1018 0.679 0.0
C2134 C 0.8304 0.10613 0.67335 0.0
C2135 C 0.81373 0.09117 0.6637 0.0
C2136 C 0.81157 0.07235 0.65973 0.0
H2137 H 0.86178 0.05985 0.63395 0.0
H2138 H 0.8503 0.07447 0.63975 0.0
H2139 H 0.86704 0.07297 0.65376 0.0
H2140 H 0.8539 0.08001 0.67951 0.0
H2141 H 0.85792 0.11299 0.68633 0.0
H2142 H 0.49902 0.37678 0.74363 0.0
H2143 H 0.47212 0.34461 0.73108 0.0
H2144 H 0.51591 0.33321 0.70873 0.0
H2145 H 0.54309 0.36537 0.72151 0.0
H2146 H 0.46188 0.32937 0.69892 0.0
H2147 H 0.48307 0.28374 0.73304 0.0
H2148 H 0.49332 0.3102 0.73843 0.0
H2149 H 0.50256 0.30183 0.72166 0.0
C2150 C 0.50299 0.3675 0.73601 0.0
C2151 C 0.52323 0.37358 0.73369 0.0
C2152 C 0.48757 0.34912 0.72882 0.0
C2153 C 0.49202 0.33638 0.71919 0.0
C2154 C 0.51217 0.34265 0.71639 0.0
H2155 H 0.41 0.21409 0.67636 0.0
H2156 H 0.4396 0.2473 0.68306 0.0
C2157 C 0.52767 0.36108 0.72362 0.0
C2158 C 0.47544 0.31644 0.71243 0.0
H2159 H 0.45526 0.26616 0.7144 0.0
C2160 C 0.46047 0.31554 0.70223 0.0
C2161 C 0.47366 0.29842 0.71678 0.0
C2162 C 0.48889 0.29848 0.72818 0.0
C2163 C 0.44366 0.2971 0.69637 0.0
C2164 C 0.44166 0.27914 0.70102 0.0
C2165 C 0.45687 0.27999 0.71088 0.0
C2166 C 0.42353 0.25933 0.69634 0.0
C2167 C 0.42819 0.29698 0.68524 0.0
C2168 C 0.40471 0.25505 0.70169 0.0
C2169 C 0.38772 0.23609 0.69786 0.0
C2170 C 0.38926 0.22104 0.68861 0.0
C2171 C 0.40819 0.22539 0.6833 0.0
C2172 C 0.42516 0.24434 0.68717 0.0
H2173 H 0.43443 0.3112 0.67945 0.0
H2174 H 0.42238 0.28426 0.67567 0.0
H2175 H 0.41535 0.29525 0.69227 0.0
H2176 H 0.40321 0.2663 0.70907 0.0
H2177 H 0.37342 0.23323 0.70222 0.0
H2178 H 0.65428 0.15104 0.74454 0.0
H2179 H 0.68673 0.1562 0.73625 0.0
H2180 H 0.65649 0.10089 0.7052 0.0
H2181 H 0.62393 0.09566 0.71332 0.0
H2182 H 0.70181 0.13091 0.74012 0.0
H2183 H 0.69638 0.14117 0.67555 0.0
H2184 H 0.68008 0.14303 0.69014 0.0
H2185 H 0.67543 0.11886 0.68201 0.0
C2186 C 0.65449 0.14003 0.73586 0.0
C2187 C 0.63648 0.12294 0.72958 0.0
C2188 C 0.67307 0.14301 0.73114 0.0
C2189 C 0.67403 0.12907 0.71995 0.0
C2190 C 0.6561 0.11204 0.71361 0.0
H2191 H 0.77615 0.1132 0.70515 0.0
H2192 H 0.74314 0.10901 0.71051 0.0
C2193 C 0.6375 0.10901 0.71835 0.0
C2194 C 0.69382 0.13188 0.71559 0.0
H2195 H 0.72376 0.13775 0.68399 0.0
C2196 C 0.70662 0.13245 0.72786 0.0
C2197 C 0.70016 0.13409 0.6996 0.0
C2198 C 0.6874 0.13445 0.68606 0.0
C2199 C 0.72544 0.13483 0.72454 0.0
C2200 C 0.73152 0.13645 0.70849 0.0
C2201 C 0.71893 0.13627 0.69625 0.0
C2202 C 0.75103 0.13851 0.70431 0.0
C2203 C 0.73879 0.13584 0.73827 0.0
C2204 C 0.76623 0.15632 0.69875 0.0
C2205 C 0.78505 0.15872 0.6957 0.0
C2206 C 0.78879 0.14315 0.69779 0.0
C2207 C 0.77352 0.1253 0.70326 0.0
C2208 C 0.75473 0.12293 0.70635 0.0
H2209 H 0.73399 0.13898 0.75015 0.0
H2210 H 0.73809 0.12124 0.73816 0.0
H2211 H 0.75466 0.14763 0.73697 0.0
H2212 H 0.76368 0.16855 0.69716 0.0
H2213 H 0.79669 0.17285 0.69199 0.0
H2214 H 0.89357 0.50655 0.716 0.0
H2215 H 0.89052 0.53452 0.7081 0.0
H2216 H 0.83354 0.5107 0.73022 0.0
H2217 H 0.8366 0.48287 0.73841 0.0
H2218 H 0.86129 0.5342 0.6888 0.0
H2219 H 0.86449 0.56859 0.7505 0.0
H2220 H 0.87129 0.54971 0.74646 0.0
H2221 H 0.84528 0.5426 0.74719 0.0
C2222 C 0.88041 0.50728 0.71923 0.0
C2223 C 0.86538 0.49254 0.72792 0.0
C2224 C 0.87869 0.52327 0.71469 0.0
C2225 C 0.86197 0.52486 0.7188 0.0
C2226 C 0.84679 0.51 0.72724 0.0
H2227 H 0.8196 0.59602 0.67745 0.0
H2228 H 0.82511 0.56946 0.6849 0.0
C2229 C 0.84851 0.49404 0.73182 0.0
C2230 C 0.86025 0.54189 0.71403 0.0
H2231 H 0.85508 0.58108 0.72906 0.0
C2232 C 0.86003 0.54452 0.69759 0.0
C2233 C 0.85891 0.5555 0.72555 0.0
C2234 C 0.8602 0.55413 0.74342 0.0
C2235 C 0.85805 0.56014 0.69233 0.0
C2236 C 0.85588 0.57325 0.70382 0.0
C2237 C 0.85656 0.57089 0.72027 0.0
C2238 C 0.85278 0.58945 0.69903 0.0
C2239 C 0.85854 0.5626 0.67454 0.0
C2240 C 0.86625 0.60949 0.70482 0.0
C2241 C 0.8631 0.62476 0.70064 0.0
C2242 C 0.84639 0.62024 0.6906 0.0
C2243 C 0.83284 0.60011 0.68494 0.0
C2244 C 0.83598 0.58487 0.68916 0.0
H2245 H 0.86592 0.55525 0.66801 0.0
H2246 H 0.84292 0.55551 0.66936 0.0
H2247 H 0.8666 0.5787 0.67238 0.0
H2248 H 0.87924 0.61333 0.71255 0.0
H2249 H 0.87379 0.64008 0.70526 0.0
H2250 H 0.43568 0.89729 0.22566 0.0
H2251 H 0.44535 0.91182 0.20002 0.0
H2252 H 0.50647 0.92725 0.21047 0.0
H2253 H 0.49684 0.91232 0.23602 0.0
H2254 H 0.47188 0.95039 0.19553 0.0
H2255 H 0.49665 0.90136 0.16472 0.0
H2256 H 0.48251 0.89504 0.18264 0.0
H2257 H 0.50915 0.9126 0.18415 0.0
C2258 C 0.45115 0.90357 0.22246 0.0
C2259 C 0.46548 0.9036 0.23292 0.0
C2260 C 0.45665 0.91188 0.20778 0.0
C2261 C 0.47657 0.92039 0.2032 0.0
C2262 C 0.4909 0.92034 0.21355 0.0
H2263 H 0.54383 0.99341 0.12802 0.0
H2264 H 0.53233 0.97407 0.15141 0.0
C2265 C 0.48539 0.91191 0.22822 0.0
C2266 C 0.48251 0.93038 0.18808 0.0
H2267 H 0.50476 0.93114 0.15261 0.0
C2268 C 0.47891 0.94606 0.18608 0.0
C2269 C 0.4917 0.92473 0.17576 0.0
C2270 C 0.49507 0.90738 0.17682 0.0
C2271 C 0.48462 0.95651 0.1723 0.0
C2272 C 0.49401 0.95101 0.1601 0.0
C2273 C 0.49755 0.9353 0.16201 0.0
C2274 C 0.50073 0.96183 0.14546 0.0
C2275 C 0.48105 0.9737 0.17107 0.0
C2276 C 0.48674 0.96104 0.13422 0.0
C2277 C 0.49326 0.9721 0.12085 0.0
C2278 C 0.51391 0.98418 0.11852 0.0
C2279 C 0.52784 0.9845 0.12961 0.0
C2280 C 0.52131 0.97336 0.14292 0.0
H2281 H 0.47741 0.97859 0.18282 0.0
H2282 H 0.49446 0.98674 0.16666 0.0
H2283 H 0.46823 0.96893 0.1623 0.0
H2284 H 0.47078 0.95202 0.1359 0.0
H2285 H 0.48217 0.97161 0.11258 0.0
H2286 H 0.13091 0.55632 0.21833 0.0
H2287 H 0.10907 0.54771 0.1942 0.0
H2288 H 0.05732 0.51075 0.22071 0.0
H2289 H 0.07906 0.51943 0.24506 0.0
H2290 H 0.08012 0.50988 0.17718 0.0
H2291 H 0.04597 0.55295 0.20387 0.0
H2292 H 0.06874 0.55556 0.2124 0.0
H2293 H 0.04487 0.53383 0.2153 0.0
C2294 C 0.11491 0.54618 0.21903 0.0
C2295 C 0.10671 0.53875 0.23369 0.0
C2296 C 0.10247 0.54125 0.2052 0.0
C2297 C 0.0816 0.52887 0.20577 0.0
C2298 C 0.07339 0.52059 0.22013 0.0
H2299 H 0.99145 0.51002 0.13157 0.0
H2300 H 0.00729 0.50747 0.15607 0.0
C2301 C 0.08585 0.52549 0.234 0.0
C2302 C 0.06852 0.52567 0.1915 0.0
H2303 H 0.03555 0.53838 0.17724 0.0
C2304 C 0.07021 0.51593 0.1772 0.0
C2305 C 0.05562 0.53358 0.19162 0.0
C2306 C 0.0537 0.5447 0.20655 0.0
C2307 C 0.05956 0.51416 0.16291 0.0
C2308 C 0.04724 0.52272 0.16289 0.0
C2309 C 0.04502 0.53186 0.17731 0.0
C2310 C 0.03752 0.52352 0.14786 0.0
C2311 C 0.06165 0.5032 0.14796 0.0
C2312 C 0.04931 0.53366 0.13526 0.0
C2313 C 0.04035 0.53522 0.12134 0.0
C2314 C 0.01941 0.5268 0.11977 0.0
C2315 C 0.00763 0.51679 0.13247 0.0
C2316 C 0.01663 0.51521 0.14641 0.0
H2317 H 0.06625 0.49241 0.15102 0.0
H2318 H 0.04736 0.49493 0.14046 0.0
H2319 H 0.07344 0.51423 0.14067 0.0
H2320 H 0.06552 0.54069 0.13632 0.0
H2321 H 0.04987 0.54336 0.11191 0.0
H2322 H 0.44455 0.54186 0.24393 0.0
H2323 H 0.46629 0.53988 0.22349 0.0
H2324 H 0.42681 0.53829 0.18603 0.0
H2325 H 0.40529 0.54075 0.20638 0.0
H2326 H 0.45529 0.5092 0.19727 0.0
H2327 H 0.4835 0.58448 0.17629 0.0
H2328 H 0.47189 0.5777 0.1953 0.0
H2329 H 0.45663 0.56947 0.17684 0.0
C2330 C 0.44076 0.54156 0.23137 0.0
C2331 C 0.42351 0.542 0.22677 0.0
C2332 C 0.45305 0.54018 0.21971 0.0
C2333 C 0.44833 0.5393 0.20329 0.0
C2334 C 0.43091 0.53934 0.19866 0.0
H2335 H 0.48729 0.50172 0.1178 0.0
H2336 H 0.46923 0.50476 0.14083 0.0
C2337 C 0.41858 0.54062 0.21029 0.0
C2338 C 0.46135 0.53795 0.19092 0.0
H2339 H 0.49038 0.56215 0.16028 0.0
C2340 C 0.46309 0.52081 0.18924 0.0
C2341 C 0.47167 0.55325 0.18062 0.0
C2342 C 0.47103 0.57236 0.18239 0.0
C2343 C 0.47443 0.51831 0.17717 0.0
C2344 C 0.48408 0.53325 0.16645 0.0
C2345 C 0.48283 0.55065 0.16845 0.0
C2346 C 0.49522 0.53097 0.15284 0.0
C2347 C 0.47606 0.49974 0.17602 0.0
C2348 C 0.51574 0.54489 0.15184 0.0
C2349 C 0.52607 0.54329 0.13862 0.0
C2350 C 0.516 0.52785 0.12609 0.0
C2351 C 0.49544 0.51388 0.12719 0.0
C2352 C 0.48515 0.51546 0.14042 0.0
H2353 H 0.47243 0.49255 0.18748 0.0
H2354 H 0.46526 0.48872 0.16639 0.0
H2355 H 0.4914 0.50331 0.17291 0.0
H2356 H 0.52374 0.55706 0.16124 0.0
H2357 H 0.54183 0.55443 0.13804 0.0
H2358 H 0.94789 0.46954 0.77713 0.0
H2359 H 0.96404 0.47495 0.80376 0.0
H2360 H 0.91206 0.47091 0.82599 0.0
H2361 H 0.89556 0.46511 0.79936 0.0
H2362 H 0.9738 0.503 0.83053 0.0
H2363 H 0.91678 0.42585 0.84387 0.0
H2364 H 0.91909 0.43403 0.82395 0.0
H2365 H 0.9068 0.44127 0.83896 0.0
C2366 C 0.93994 0.47003 0.78766 0.0
C2367 C 0.9203 0.46661 0.78611 0.0
C2368 C 0.94923 0.47316 0.80287 0.0
C2369 C 0.93908 0.47293 0.81682 0.0
C2370 C 0.91997 0.47073 0.81535 0.0
H2371 H 0.99416 0.49975 0.91455 0.0
H2372 H 0.97826 0.50092 0.88957 0.0
C2373 C 0.91062 0.46752 0.80012 0.0
C2374 C 0.94809 0.47378 0.83278 0.0
H2375 H 0.94175 0.44606 0.86428 0.0
C2376 C 0.96678 0.49063 0.83798 0.0
C2377 C 0.93899 0.45745 0.84232 0.0
C2378 C 0.9194 0.43853 0.83698 0.0
C2379 C 0.97667 0.49155 0.85246 0.0
C2380 C 0.96746 0.47529 0.86207 0.0
C2381 C 0.94871 0.45853 0.85692 0.0
C2382 C 0.97733 0.4749 0.87718 0.0
C2383 C 0.99717 0.50959 0.85709 0.0
C2384 C 0.98169 0.45965 0.8786 0.0
C2385 C 0.99049 0.45876 0.89292 0.0
C2386 C 0.99507 0.4731 0.90613 0.0
C2387 C 0.99068 0.48838 0.90465 0.0
C2388 C 0.98181 0.48922 0.89032 0.0
H2389 H 0.00411 0.51838 0.8467 0.0
H2390 H 0.99572 0.51956 0.8666 0.0
H2391 H 0.00743 0.50501 0.86198 0.0
H2392 H 0.97821 0.44837 0.86862 0.0
H2393 H 0.99337 0.44661 0.89372 0.0
H2394 H 0.56693 0.48313 0.78923 0.0
H2395 H 0.55493 0.4903 0.81455 0.0
H2396 H 0.56461 0.44745 0.83657 0.0
H2397 H 0.57669 0.44022 0.81137 0.0
H2398 H 0.52096 0.46005 0.82887 0.0
H2399 H 0.58861 0.4964 0.87081 0.0
H2400 H 0.59009 0.49499 0.84916 0.0
H2401 H 0.58386 0.47349 0.85971 0.0
C2402 C 0.5669 0.47551 0.79954 0.0
C2403 C 0.5727 0.46103 0.79824 0.0
C2404 C 0.56001 0.47962 0.81399 0.0
C2405 C 0.55903 0.46952 0.82745 0.0
C2406 C 0.56556 0.45566 0.8264 0.0
H2407 H 0.50697 0.45405 0.92015 0.0
H2408 H 0.52511 0.45434 0.89611 0.0
C2409 C 0.57236 0.45147 0.81195 0.0
C2410 C 0.54934 0.47194 0.84203 0.0
H2411 H 0.5571 0.4854 0.88257 0.0
C2412 C 0.52888 0.4658 0.8406 0.0
C2413 C 0.55972 0.47927 0.85729 0.0
C2414 C 0.58183 0.48659 0.85939 0.0
C2415 C 0.51834 0.46624 0.85411 0.0
C2416 C 0.52868 0.47349 0.86942 0.0
C2417 C 0.54922 0.47987 0.87082 0.0
C2418 C 0.51828 0.47402 0.88418 0.0
C2419 C 0.49607 0.45824 0.85194 0.0
C2420 C 0.5087 0.48524 0.88556 0.0
C2421 C 0.49824 0.48502 0.89924 0.0
C2422 C 0.49741 0.47377 0.91189 0.0
C2423 C 0.50745 0.46295 0.91065 0.0
C2424 C 0.51779 0.46308 0.89692 0.0
H2425 H 0.48956 0.44852 0.84044 0.0
H2426 H 0.48789 0.44947 0.86203 0.0
H2427 H 0.49349 0.47099 0.8517 0.0
H2428 H 0.5093 0.49417 0.87604 0.0
H2429 H 0.49096 0.49379 0.89999 0.0
H2430 H 0.57923 0.0856 0.7959 0.0
H2431 H 0.57158 0.06847 0.82063 0.0
H2432 H 0.50885 0.04852 0.8125 0.0
H2433 H 0.51621 0.06543 0.78795 0.0
H2434 H 0.55159 0.07475 0.84828 0.0
H2435 H 0.50982 -0.00329 0.81927 0.0
H2436 H 0.52671 0.01779 0.80855 0.0
H2437 H 0.5017 0.01271 0.81203 0.0
C2438 C 0.56379 0.07745 0.79933 0.0
C2439 C 0.54833 0.07685 0.78989 0.0
C2440 C 0.55948 0.06773 0.81346 0.0
C2441 C 0.53963 0.05704 0.81825 0.0
C2442 C 0.52422 0.05642 0.80888 0.0
H2443 H 0.46712 0.99233 0.89267 0.0
H2444 H 0.48252 0.00965 0.86899 0.0
C2445 C 0.5285 0.0662 0.79486 0.0
C2446 C 0.53478 0.0469 0.83327 0.0
H2447 H 0.5053 0.00125 0.84729 0.0
C2448 C 0.54174 0.05864 0.84813 0.0
C2449 C 0.52196 0.02591 0.83297 0.0
C2450 C 0.51474 0.01249 0.81735 0.0
C2451 C 0.5353 0.05003 0.86273 0.0
C2452 C 0.52181 0.02911 0.86239 0.0
C2453 C 0.51554 0.01731 0.84752 0.0
C2454 C 0.51294 0.01925 0.87715 0.0
C2455 C 0.54216 0.06348 0.87833 0.0
C2456 C 0.52495 0.01891 0.88964 0.0
C2457 C 0.51615 0.00895 0.90324 0.0
C2458 C 0.49517 -0.00099 0.90449 0.0
C2459 C 0.48327 -0.00044 0.89199 0.0
C2460 C 0.49206 0.00953 0.87847 0.0
H2461 H 0.54921 0.07957 0.87629 0.0
H2462 H 0.52934 0.0595 0.88617 0.0
H2463 H 0.55343 0.06148 0.88487 0.0
H2464 H 0.54106 0.02602 0.88874 0.0
H2465 H 0.5257 0.0086 0.91257 0.0
H2466 H 0.15882 0.23817 0.56555 0.0
H2467 H 0.16871 0.25321 0.53999 0.0
H2468 H 0.11724 0.26068 0.53905 0.0
H2469 H 0.10707 0.24546 0.56435 0.0
H2470 H 0.12246 0.24511 0.50964 0.0
H2471 H 0.19357 0.31283 0.53425 0.0
H2472 H 0.19132 0.28933 0.5378 0.0
H2473 H 0.17457 0.29634 0.54702 0.0
C2474 C 0.14962 0.24303 0.55992 0.0
C2475 C 0.1322 0.24068 0.56707 0.0
C2476 C 0.15534 0.2517 0.54534 0.0
C2477 C 0.14384 0.25829 0.53773 0.0
C2478 C 0.12635 0.25573 0.54473 0.0
H2479 H 0.17542 0.34231 0.46674 0.0
H2480 H 0.16595 0.32376 0.49057 0.0
C2481 C 0.1206 0.24706 0.55924 0.0
C2482 C 0.14989 0.2679 0.52246 0.0
H2483 H 0.18653 0.30915 0.5062 0.0
C2484 C 0.13651 0.25907 0.50884 0.0
C2485 C 0.16812 0.28623 0.52153 0.0
C2486 C 0.18268 0.29688 0.53594 0.0
C2487 C 0.14079 0.26814 0.49434 0.0
C2488 C 0.1591 0.28636 0.49337 0.0
C2489 C 0.17255 0.29511 0.50695 0.0
C2490 C 0.16426 0.29715 0.47864 0.0
C2491 C 0.12539 0.25846 0.48037 0.0
C2492 C 0.16643 0.28834 0.46399 0.0
C2493 C 0.17183 0.29893 0.45032 0.0
C2494 C 0.17536 0.3186 0.4511 0.0
C2495 C 0.17304 0.32729 0.46578 0.0
C2496 C 0.16758 0.31669 0.4794 0.0
H2497 H 0.11034 0.24733 0.48427 0.0
H2498 H 0.12404 0.26991 0.47426 0.0
H2499 H 0.13016 0.25051 0.47146 0.0
H2500 H 0.16432 0.27343 0.46321 0.0
H2501 H 0.17377 0.29193 0.43925 0.0
H2502 H 0.7971 0.88215 0.55466 0.0
H2503 H 0.77893 0.87454 0.52856 0.0
H2504 H 0.72264 0.84774 0.55187 0.0
H2505 H 0.7406 0.85489 0.57796 0.0
H2506 H 0.72083 0.82633 0.52305 0.0
H2507 H 0.75441 0.90739 0.51578 0.0
H2508 H 0.77243 0.89971 0.5185 0.0
H2509 H 0.7565 0.89842 0.53455 0.0
C2510 C 0.78084 0.87443 0.55423 0.0
C2511 C 0.77032 0.86933 0.56843 0.0
C2512 C 0.77049 0.8702 0.53931 0.0
C2513 C 0.74948 0.86099 0.53834 0.0
C2514 C 0.73888 0.85498 0.55237 0.0
H2515 H 0.67495 0.86691 0.4645 0.0
H2516 H 0.69333 0.86927 0.48924 0.0
C2517 C 0.74919 0.8591 0.56728 0.0
C2518 C 0.73854 0.85841 0.52288 0.0
H2519 H 0.73364 0.88455 0.49402 0.0
C2520 C 0.72364 0.83903 0.51666 0.0
C2521 C 0.74204 0.87506 0.51472 0.0
C2522 C 0.75707 0.89634 0.52127 0.0
C2523 C 0.71216 0.83584 0.50245 0.0
C2524 C 0.71596 0.85246 0.49413 0.0
C2525 C 0.73086 0.87183 0.50037 0.0
C2526 C 0.70426 0.85026 0.4792 0.0
C2527 C 0.6957 0.81478 0.49674 0.0
C2528 C 0.70437 0.83885 0.46532 0.0
C2529 C 0.69367 0.83728 0.45119 0.0
C2530 C 0.68282 0.84727 0.45063 0.0
C2531 C 0.68285 0.85876 0.46457 0.0
C2532 C 0.69348 0.86025 0.47869 0.0
H2533 H 0.69134 0.80467 0.50652 0.0
H2534 H 0.68216 0.81463 0.4921 0.0
H2535 H 0.70111 0.80865 0.48681 0.0
H2536 H 0.71289 0.83133 0.46535 0.0
H2537 H 0.69383 0.82817 0.44073 0.0
H2538 H 0.12993 0.85469 0.58508 0.0
H2539 H 0.13933 0.84836 0.5583 0.0
H2540 H 0.09355 0.85637 0.53666 0.0
H2541 H 0.08419 0.86307 0.56345 0.0
H2542 H 0.11845 0.8208 0.53134 0.0
H2543 H 0.14582 0.89955 0.51889 0.0
H2544 H 0.13959 0.8913 0.53875 0.0
H2545 H 0.11998 0.88535 0.5239 0.0
C2546 C 0.12166 0.85487 0.57466 0.0
C2547 C 0.10649 0.85967 0.57642 0.0
C2548 C 0.12704 0.85121 0.55935 0.0
C2549 C 0.11739 0.85228 0.54552 0.0
C2550 C 0.10144 0.85587 0.54721 0.0
H2551 H 0.14703 0.82558 0.44828 0.0
H2552 H 0.12816 0.82496 0.47197 0.0
C2553 C 0.09606 0.85959 0.56253 0.0
C2554 C 0.12503 0.85095 0.52949 0.0
H2555 H 0.14941 0.87887 0.49869 0.0
C2556 C 0.12505 0.8334 0.52409 0.0
C2557 C 0.13384 0.86753 0.5202 0.0
C2558 C 0.13501 0.88708 0.52573 0.0
C2559 C 0.13396 0.8321 0.50976 0.0
C2560 C 0.14285 0.84873 0.50053 0.0
C2561 C 0.14247 0.86612 0.50577 0.0
C2562 C 0.15395 0.84902 0.48603 0.0
C2563 C 0.13452 0.81329 0.50494 0.0
C2564 C 0.17457 0.86305 0.48596 0.0
C2565 C 0.18532 0.86359 0.47243 0.0
C2566 C 0.17565 0.85013 0.45865 0.0
C2567 C 0.1549 0.83621 0.45867 0.0
C2568 C 0.14414 0.83569 0.47225 0.0
H2569 H 0.13064 0.80355 0.51494 0.0
H2570 H 0.12351 0.80459 0.49466 0.0
H2571 H 0.14964 0.81705 0.501 0.0
H2572 H 0.18239 0.87355 0.49645 0.0
H2573 H 0.20119 0.87472 0.47272 0.0
H2574 H 0.6116 0.80739 0.10732 0.0
H2575 H 0.63169 0.81598 0.13255 0.0
H2576 H 0.57969 0.803 0.15951 0.0
H2577 H 0.55937 0.79418 0.13436 0.0
H2578 H 0.63939 0.84391 0.16027 0.0
H2579 H 0.59739 0.76432 0.174 0.0
H2580 H 0.59594 0.77174 0.15433 0.0
H2581 H 0.5822 0.77513 0.17035 0.0
C2582 C 0.60446 0.80659 0.1186 0.0
C2583 C 0.5838 0.79985 0.11881 0.0
C2584 C 0.61599 0.81154 0.133 0.0
C2585 C 0.60707 0.80978 0.14785 0.0
C2586 C 0.58674 0.80412 0.14814 0.0
H2587 H 0.66789 0.84564 0.24344 0.0
H2588 H 0.64871 0.84274 0.21891 0.0
C2589 C 0.57519 0.79916 0.13375 0.0
C2590 C 0.61877 0.81273 0.16294 0.0
H2591 H 0.62197 0.78777 0.19357 0.0
C2592 C 0.63558 0.83169 0.16761 0.0
C2593 C 0.61388 0.79665 0.17232 0.0
C2594 C 0.59648 0.77575 0.16748 0.0
C2595 C 0.6476 0.83502 0.18151 0.0
C2596 C 0.64251 0.81899 0.191 0.0
C2597 C 0.62574 0.80004 0.18629 0.0
C2598 C 0.65464 0.82135 0.20568 0.0
C2599 C 0.66589 0.8555 0.18574 0.0
C2600 C 0.66404 0.81005 0.20643 0.0
C2601 C 0.67483 0.81153 0.22044 0.0
C2602 C 0.67631 0.82425 0.23403 0.0
C2603 C 0.6669 0.8356 0.23322 0.0
C2604 C 0.65613 0.83413 0.21917 0.0
H2605 H 0.67024 0.86477 0.1754 0.0
H2606 H 0.66258 0.86346 0.1958 0.0
H2607 H 0.67886 0.85423 0.18976 0.0
H2608 H 0.66292 0.79999 0.19617 0.0
H2609 H 0.68165 0.80237 0.22076 0.0
H2610 H 0.24589 0.76898 0.14569 0.0
H2611 H 0.23478 0.77952 0.16996 0.0
H2612 H 0.22784 0.82156 0.14407 0.0
H2613 H 0.23874 0.81099 0.11964 0.0
H2614 H 0.24897 0.81808 0.18755 0.0
H2615 H 0.17139 0.78428 0.1603 0.0
H2616 H 0.18962 0.77878 0.15175 0.0
H2617 H 0.19118 0.80216 0.14898 0.0
C2618 C 0.24221 0.78062 0.14517 0.0
C2619 C 0.24297 0.78897 0.13066 0.0
C2620 C 0.2359 0.78664 0.15907 0.0
C2621 C 0.23019 0.80106 0.15871 0.0
C2622 C 0.23187 0.81015 0.14449 0.0
H2623 H 0.16764 0.83458 0.23007 0.0
H2624 H 0.18601 0.83366 0.20649 0.0
C2625 C 0.23818 0.80414 0.13057 0.0
C2626 C 0.22148 0.80571 0.17298 0.0
H2627 H 0.1776 0.80022 0.18662 0.0
C2628 C 0.2334 0.8143 0.18736 0.0
C2629 C 0.20117 0.80073 0.17265 0.0
C2630 C 0.18748 0.79083 0.15765 0.0
C2631 C 0.22551 0.818 0.20148 0.0
C2632 C 0.20506 0.81258 0.20123 0.0
C2633 C 0.19328 0.80439 0.18675 0.0
C2634 C 0.19523 0.81433 0.21597 0.0
C2635 C 0.23914 0.82775 0.21649 0.0
C2636 C 0.19424 0.80368 0.22907 0.0
C2637 C 0.18372 0.80412 0.2425 0.0
C2638 C 0.17381 0.81508 0.24304 0.0
C2639 C 0.17495 0.82585 0.22995 0.0
C2640 C 0.18553 0.82544 0.21652 0.0
H2641 H 0.25519 0.83636 0.21355 0.0
H2642 H 0.23539 0.838 0.22361 0.0
H2643 H 0.23728 0.81595 0.22412 0.0
H2644 H 0.20115 0.79456 0.22871 0.0
H2645 H 0.18284 0.79539 0.25227 0.0
H2646 H 0.18221 0.40308 0.12273 0.0
H2647 H 0.17419 0.38551 0.14699 0.0
H2648 H 0.23607 0.40186 0.15415 0.0
H2649 H 0.24436 0.41959 0.12973 0.0
H2650 H 0.18209 0.35298 0.15312 0.0
H2651 H 0.21991 0.4201 0.1981 0.0
H2652 H 0.21264 0.42157 0.17787 0.0
H2653 H 0.23383 0.41864 0.18131 0.0
C2654 C 0.19419 0.40303 0.12943 0.0
C2655 C 0.21397 0.41281 0.12426 0.0
C2656 C 0.18954 0.39294 0.1433 0.0
C2657 C 0.20456 0.39254 0.15241 0.0
C2658 C 0.22432 0.40219 0.14734 0.0
H2659 H 0.18923 0.33924 0.24418 0.0
H2660 H 0.20429 0.35767 0.2207 0.0
C2661 C 0.22899 0.41223 0.13336 0.0
C2662 C 0.19918 0.38163 0.16703 0.0
H2663 H 0.2021 0.38853 0.20816 0.0
C2664 C 0.18659 0.36072 0.16516 0.0
C2665 C 0.20522 0.39178 0.18269 0.0
C2666 C 0.21858 0.41428 0.18526 0.0
C2667 C 0.17953 0.34967 0.17856 0.0
C2668 C 0.18478 0.35989 0.19424 0.0
C2669 C 0.19799 0.38075 0.19613 0.0
C2670 C 0.17586 0.34926 0.20871 0.0
C2671 C 0.16648 0.32714 0.17576 0.0
C2672 C 0.15494 0.33888 0.20995 0.0
C2673 C 0.14633 0.32838 0.22329 0.0
C2674 C 0.15846 0.32819 0.23579 0.0
C2675 C 0.17948 0.33914 0.23478 0.0
C2676 C 0.1881 0.34961 0.22136 0.0
H2677 H 0.16908 0.32132 0.16396 0.0
H2678 H 0.16931 0.31973 0.18543 0.0
H2679 H 0.15044 0.32287 0.17567 0.0
H2680 H 0.14523 0.33889 0.20057 0.0
H2681 H 0.13013 0.32049 0.22387 0.0
H2682 H 0.77683 0.58655 0.89849 0.0
H2683 H 0.78819 0.60303 0.87381 0.0
H2684 H 0.83929 0.59499 0.87527 0.0
H2685 H 0.82819 0.57865 0.90016 0.0
H2686 H 0.84924 0.63328 0.86884 0.0
H2687 H 0.78469 0.57597 0.82887 0.0
H2688 H 0.7773 0.58517 0.84636 0.0
H2689 H 0.78991 0.57141 0.8487 0.0
C2690 C 0.79048 0.58823 0.8936 0.0
C2691 C 0.80154 0.58116 0.90131 0.0
C2692 C 0.79688 0.59755 0.8794 0.0
C2693 C 0.81437 0.59988 0.87253 0.0
C2694 C 0.82565 0.59318 0.88031 0.0
H2695 H 0.84879 0.63706 0.77586 0.0
H2696 H 0.83898 0.61829 0.79966 0.0
C2697 C 0.81928 0.58386 0.89454 0.0
C2698 C 0.82109 0.60979 0.85745 0.0
H2699 H 0.80602 0.60728 0.81834 0.0
C2700 C 0.83987 0.62752 0.85776 0.0
C2701 C 0.80897 0.6021 0.84294 0.0
C2702 C 0.78919 0.58251 0.8416 0.0
C2703 C 0.84657 0.63813 0.84409 0.0
C2704 C 0.834 0.63097 0.82982 0.0
C2705 C 0.81553 0.61288 0.82934 0.0
C2706 C 0.83964 0.64221 0.81534 0.0
C2707 C 0.8671 0.65684 0.84504 0.0
C2708 C 0.84282 0.6617 0.81617 0.0
C2709 C 0.84835 0.67241 0.80261 0.0
C2710 C 0.85067 0.6638 0.78788 0.0
C2711 C 0.847 0.64407 0.78698 0.0
C2712 C 0.84149 0.63337 0.80059 0.0
H2713 H 0.87691 0.65708 0.85493 0.0
H2714 H 0.87465 0.65813 0.83352 0.0
H2715 H 0.8655 0.67018 0.84746 0.0
H2716 H 0.84095 0.66861 0.82731 0.0
H2717 H 0.85067 0.68741 0.80363 0.0
H2718 H 0.46861 0.21949 0.88864 0.0
H2719 H 0.44934 0.21193 0.86311 0.0
H2720 H 0.39428 0.18613 0.88814 0.0
H2721 H 0.41336 0.19313 0.91367 0.0
H2722 H 0.3902 0.16463 0.8593 0.0
H2723 H 0.42586 0.2457 0.85148 0.0
H2724 H 0.44348 0.23734 0.85319 0.0
H2725 H 0.42876 0.23676 0.87 0.0
C2726 C 0.45238 0.212 0.8887 0.0
C2727 C 0.44253 0.20713 0.90322 0.0
C2728 C 0.4414 0.2078 0.87411 0.0
C2729 C 0.42043 0.19894 0.87379 0.0
C2730 C 0.41047 0.19312 0.88813 0.0
H2731 H 0.34644 0.20838 0.8015 0.0
H2732 H 0.36503 0.21011 0.82586 0.0
C2733 C 0.42142 0.19713 0.90272 0.0
C2734 C 0.40891 0.19657 0.85869 0.0
H2735 H 0.40426 0.22299 0.82996 0.0
C2736 C 0.39326 0.17737 0.85285 0.0
C2737 C 0.41272 0.21327 0.85047 0.0
C2738 C 0.42848 0.23445 0.85666 0.0
C2739 C 0.38137 0.1744 0.83896 0.0
C2740 C 0.38555 0.19104 0.83051 0.0
C2741 C 0.40117 0.21023 0.83638 0.0
C2742 C 0.37355 0.18911 0.81583 0.0
C2743 C 0.3641 0.15357 0.83375 0.0
C2744 C 0.37219 0.17677 0.80205 0.0
C2745 C 0.36128 0.1755 0.78815 0.0
C2746 C 0.35172 0.18676 0.78768 0.0
C2747 C 0.35327 0.19922 0.8015 0.0
C2748 C 0.36405 0.20036 0.81541 0.0
H2749 H 0.35956 0.1438 0.84378 0.0
H2750 H 0.35084 0.15401 0.82923 0.0
H2751 H 0.36877 0.14661 0.82387 0.0
H2752 H 0.37976 0.16829 0.80198 0.0
H2753 H 0.36026 0.16561 0.7778 0.0
H2754 H 0.74889 0.16907 0.90082 0.0
H2755 H 0.75763 0.15782 0.87543 0.0
H2756 H 0.82021 0.20186 0.88657 0.0
H2757 H 0.81176 0.21253 0.91204 0.0
H2758 H 0.77362 0.17699 0.8502 0.0
H2759 H 0.82481 0.15421 0.87353 0.0
H2760 H 0.80896 0.15921 0.88649 0.0
H2761 H 0.83309 0.17941 0.88151 0.0
C2762 C 0.76453 0.17612 0.89794 0.0
C2763 C 0.77965 0.19156 0.90851 0.0
C2764 C 0.7695 0.16969 0.88343 0.0
C2765 C 0.78964 0.17867 0.87924 0.0
C2766 C 0.80466 0.19419 0.88976 0.0
H2767 H 0.84 0.19965 0.78746 0.0
H2768 H 0.82201 0.19751 0.81194 0.0
C2769 C 0.79977 0.20039 0.9043 0.0
C2770 C 0.79506 0.17296 0.86346 0.0
H2771 H 0.83006 0.16418 0.84628 0.0
C2772 C 0.7857 0.1738 0.84933 0.0
C2773 C 0.81042 0.16822 0.86223 0.0
C2774 C 0.81969 0.16498 0.87678 0.0
C2775 C 0.7922 0.17134 0.83407 0.0
C2776 C 0.80901 0.16875 0.83297 0.0
C2777 C 0.81746 0.1666 0.84705 0.0
C2778 C 0.81882 0.16936 0.81758 0.0
C2779 C 0.78096 0.17161 0.81936 0.0
C2780 C 0.82372 0.15466 0.81283 0.0
C2781 C 0.83458 0.15626 0.79912 0.0
C2782 C 0.84049 0.17241 0.78982 0.0
C2783 C 0.83535 0.18692 0.79437 0.0
C2784 C 0.82488 0.18557 0.80826 0.0
H2785 H 0.76488 0.1658 0.82166 0.0
H2786 H 0.78749 0.1873 0.81637 0.0
H2787 H 0.78184 0.16249 0.80879 0.0
H2788 H 0.81934 0.14208 0.81984 0.0
H2789 H 0.83836 0.14487 0.79577 0.0
H2790 H 0.21715 0.12694 0.47181 0.0
H2791 H 0.23649 0.13552 0.49742 0.0
H2792 H 0.28883 0.14602 0.4719 0.0
H2793 H 0.26977 0.13786 0.44625 0.0
H2794 H 0.25231 0.11405 0.50741 0.0
H2795 H 0.31284 0.19324 0.50622 0.0
H2796 H 0.29065 0.18166 0.49279 0.0
H2797 H 0.31124 0.17781 0.48842 0.0
C2798 C 0.2329 0.1315 0.47162 0.0
C2799 C 0.24188 0.13161 0.45697 0.0
C2800 C 0.24392 0.1364 0.48628 0.0
C2801 C 0.26414 0.14156 0.48658 0.0
C2802 C 0.27338 0.1425 0.47197 0.0
H2803 H 0.32866 0.11995 0.55851 0.0
H2804 H 0.31076 0.12053 0.53454 0.0
C2805 C 0.2624 0.13769 0.4573 0.0
C2806 C 0.27485 0.1437 0.50205 0.0
H2807 H 0.31801 0.17442 0.52519 0.0
C2808 C 0.26656 0.12736 0.51139 0.0
C2809 C 0.29336 0.16111 0.5073 0.0
C2810 C 0.30245 0.17953 0.49824 0.0
C2811 C 0.27657 0.12768 0.52555 0.0
C2812 C 0.29557 0.14466 0.53033 0.0
C2813 C 0.30356 0.16131 0.52135 0.0
C2814 C 0.30743 0.14517 0.54452 0.0
C2815 C 0.26672 0.10983 0.53526 0.0
C2816 C 0.31205 0.15928 0.55784 0.0
C2817 C 0.32246 0.15912 0.57151 0.0
C2818 C 0.32853 0.14492 0.57204 0.0
C2819 C 0.32433 0.13117 0.55846 0.0
C2820 C 0.31393 0.13134 0.54482 0.0
H2821 H 0.25024 0.10068 0.53247 0.0
H2822 H 0.27313 0.10012 0.53232 0.0
H2823 H 0.26947 0.11463 0.54839 0.0
H2824 H 0.30729 0.17017 0.55777 0.0
H2825 H 0.32575 0.17011 0.58168 0.0
H2826 H 0.88846 0.14096 0.45153 0.0
H2827 H 0.8781 0.14821 0.47754 0.0
H2828 H 0.91337 0.12839 0.50158 0.0
H2829 H 0.92353 0.12067 0.47552 0.0
H2830 H 0.87512 0.11006 0.51064 0.0
H2831 H 0.90554 0.19186 0.51426 0.0
H2832 H 0.89119 0.17924 0.49571 0.0
H2833 H 0.91399 0.17925 0.50008 0.0
C2834 C 0.89435 0.13849 0.46235 0.0
C2835 C 0.90676 0.13014 0.46143 0.0
C2836 C 0.88851 0.14278 0.47724 0.0
C2837 C 0.89514 0.13906 0.49152 0.0
C2838 C 0.90815 0.13146 0.4907 0.0
H2839 H 0.86187 0.16701 0.58613 0.0
H2840 H 0.881 0.16604 0.56313 0.0
C2841 C 0.91396 0.12708 0.47579 0.0
C2842 C 0.88678 0.14111 0.50704 0.0
H2843 H 0.87854 0.17333 0.53148 0.0
C2844 C 0.87611 0.12397 0.51531 0.0
C2845 C 0.88825 0.1593 0.51323 0.0
C2846 C 0.90055 0.1785 0.50544 0.0
C2847 C 0.86618 0.12433 0.52925 0.0
C2848 C 0.8666 0.14219 0.53485 0.0
C2849 C 0.87798 0.15956 0.527 0.0
C2850 C 0.85498 0.14297 0.54867 0.0
C2851 C 0.85532 0.10555 0.53783 0.0
C2852 C 0.83399 0.13058 0.54803 0.0
C2853 C 0.82304 0.13096 0.56118 0.0
C2854 C 0.83287 0.14387 0.5752 0.0
C2855 C 0.85388 0.15664 0.57563 0.0
C2856 C 0.86482 0.15621 0.56247 0.0
H2857 H 0.86126 0.09539 0.53493 0.0
H2858 H 0.85664 0.10921 0.55109 0.0
H2859 H 0.83915 0.09731 0.5339 0.0
H2860 H 0.82607 0.12053 0.53736 0.0
H2861 H 0.80691 0.12085 0.56048 0.0
H2862 H 0.85723 0.75209 0.46268 0.0
H2863 H 0.84929 0.73644 0.48788 0.0
H2864 H 0.89844 0.72555 0.4832 0.0
H2865 H 0.90672 0.74147 0.45795 0.0
H2866 H 0.8383 0.69718 0.49131 0.0
H2867 H 0.9065 0.75035 0.53004 0.0
H2868 H 0.90028 0.75672 0.51138 0.0
H2869 H 0.91122 0.74115 0.51109 0.0
C2870 C 0.86653 0.74657 0.46704 0.0
C2871 C 0.88262 0.74803 0.45824 0.0
C2872 C 0.86194 0.73762 0.48147 0.0
C2873 C 0.87336 0.72999 0.48749 0.0
C2874 C 0.88964 0.73166 0.47892 0.0
H2875 H 0.83056 0.64179 0.55774 0.0
H2876 H 0.84395 0.65989 0.53393 0.0
C2877 C 0.89428 0.74067 0.46444 0.0
C2878 C 0.86735 0.71926 0.50224 0.0
H2879 H 0.88289 0.72035 0.54092 0.0
C2880 C 0.84806 0.70223 0.50215 0.0
C2881 C 0.88005 0.726 0.51641 0.0
C2882 C 0.90061 0.74465 0.51737 0.0
C2883 C 0.8411 0.69173 0.51582 0.0
C2884 C 0.85391 0.69822 0.5299 0.0
C2885 C 0.87318 0.71531 0.53005 0.0
C2886 C 0.84724 0.68771 0.5447 0.0
C2887 C 0.8199 0.67403 0.51519 0.0
C2888 C 0.84528 0.69756 0.55882 0.0
C2889 C 0.83762 0.68725 0.57245 0.0
C2890 C 0.83183 0.66691 0.57222 0.0
C2891 C 0.83449 0.65732 0.55821 0.0
C2892 C 0.84218 0.66764 0.54461 0.0
H2893 H 0.81057 0.67395 0.50499 0.0
H2894 H 0.82029 0.65994 0.51358 0.0
H2895 H 0.81252 0.67406 0.52658 0.0
H2896 H 0.84914 0.71306 0.55914 0.0
H2897 H 0.83564 0.69505 0.583 0.0
loop_
_geom_bond_atom_site_label_1
_geom_bond_atom_site_label_2
_geom_bond_distance
_geom_bond_site_symmetry_2
_ccdc_geom_bond_type
O0 Cd1 2.300 . S
O0 C7 1.275 . S
Cd1 O0 2.300 . S
Cd1 O9 2.381 . S
Cd1 O10 2.378 . S
O2 Cd3 2.385 . S
O2 C7 1.255 . S
Cd3 O2 2.385 . S
Cd3 O4 2.317 . S
O4 Cd3 2.317 . S
O4 C5 1.232 . S
C5 O4 1.232 . S
C5 O6 1.218 . S
O6 C5 1.218 . S
C7 O0 1.275 . S
C7 O2 1.255 . S
C8 O9 1.258 . S
C8 O10 1.256 . S
O9 Cd1 2.381 . S
O9 C8 1.258 . S
O10 Cd1 2.378 . S
O10 C8 1.256 . S
O11 Cd12 2.300 . S
O11 C18 1.275 . S
Cd12 O11 2.300 . S
Cd12 O20 2.381 . S
Cd12 O21 2.378 . S
O13 Cd14 2.385 . S
O13 C18 1.255 . S
Cd14 O13 2.385 . S
Cd14 O15 2.317 . S
O15 Cd14 2.317 . S
O15 C16 1.232 . S
C16 O15 1.232 . S
C16 O17 1.218 . S
O17 C16 1.218 . S
C18 O11 1.275 . S
C18 O13 1.255 . S
C19 O20 1.258 . S
C19 O21 1.256 . S
O20 Cd12 2.381 . S
O20 C19 1.258 . S
O21 Cd12 2.378 . S
O21 C19 1.256 . S
O22 Cd23 2.300 . S
O22 C29 1.275 . S
Cd23 O22 2.300 . S
Cd23 O31 2.381 . S
Cd23 O32 2.378 . S
O24 Cd25 2.385 . S
O24 C29 1.255 . S
Cd25 O24 2.385 . S
Cd25 O26 2.317 . S
O26 Cd25 2.317 . S
O26 C27 1.232 . S
C27 O26 1.232 . S
C27 O28 1.218 . S
O28 C27 1.218 . S
C29 O22 1.275 . S
C29 O24 1.255 . S
C30 O31 1.258 . S
C30 O32 1.256 . S
O31 Cd23 2.381 . S
O31 C30 1.258 . S
O32 Cd23 2.378 . S
O32 C30 1.256 . S
O33 Cd34 2.300 . S
O33 C40 1.275 . S
Cd34 O33 2.300 . S
Cd34 O42 2.381 . S
Cd34 O43 2.378 . S
O35 Cd36 2.385 . S
O35 C40 1.255 . S
Cd36 O35 2.385 . S
Cd36 O37 2.317 . S
O37 Cd36 2.317 . S
O37 C38 1.232 . S
C38 O37 1.232 . S
C38 O39 1.218 . S
O39 C38 1.218 . S
C40 O33 1.275 . S
C40 O35 1.255 . S
C41 O42 1.258 . S
C41 O43 1.256 . S
O42 Cd34 2.381 . S
O42 C41 1.258 . S
O43 Cd34 2.378 . S
O43 C41 1.256 . S
O44 Cd45 2.300 . S
O44 C51 1.275 . S
Cd45 O44 2.300 . S
Cd45 O53 2.381 . S
Cd45 O54 2.378 . S
O46 Cd47 2.385 . S
O46 C51 1.255 . S
Cd47 O46 2.385 . S
Cd47 O48 2.317 . S
O48 Cd47 2.317 . S
O48 C49 1.232 . S
C49 O48 1.232 . S
C49 O50 1.218 . S
O50 C49 1.218 . S
C51 O44 1.275 . S
C51 O46 1.255 . S
C52 O53 1.258 . S
C52 O54 1.256 . S
O53 Cd45 2.381 . S
O53 C52 1.258 . S
O54 Cd45 2.378 . S
O54 C52 1.256 . S
O55 Cd56 2.300 . S
O55 C62 1.275 . S
Cd56 O55 2.300 . S
Cd56 O64 2.381 . S
Cd56 O65 2.378 . S
O57 Cd58 2.385 . S
O57 C62 1.255 . S
Cd58 O57 2.385 . S
Cd58 O59 2.317 . S
O59 Cd58 2.317 . S
O59 C60 1.232 . S
C60 O59 1.232 . S
C60 O61 1.218 . S
O61 C60 1.218 . S
C62 O55 1.275 . S
C62 O57 1.255 . S
C63 O64 1.258 . S
C63 O65 1.256 . S
O64 Cd56 2.381 . S
O64 C63 1.258 . S
O65 Cd56 2.378 . S
O65 C63 1.256 . S
O66 Cd67 2.300 . S
O66 C73 1.275 . S
Cd67 O66 2.300 . S
Cd67 O75 2.381 . S
Cd67 O76 2.378 . S
O68 Cd69 2.385 . S
O68 C73 1.255 . S
Cd69 O68 2.385 . S
Cd69 O70 2.317 . S
O70 Cd69 2.317 . S
O70 C71 1.232 . S
C71 O70 1.232 . S
C71 O72 1.218 . S
O72 C71 1.218 . S
C73 O66 1.275 . S
C73 O68 1.255 . S
C74 O75 1.258 . S
C74 O76 1.256 . S
O75 Cd67 2.381 . S
O75 C74 1.258 . S
O76 Cd67 2.378 . S
O76 C74 1.256 . S
O77 Cd78 2.300 . S
O77 C84 1.275 . S
Cd78 O77 2.300 . S
Cd78 O86 2.381 . S
Cd78 O87 2.378 . S
O79 Cd80 2.385 . S
O79 C84 1.255 . S
Cd80 O79 2.385 . S
Cd80 O81 2.317 . S
O81 Cd80 2.317 . S
O81 C82 1.232 . S
C82 O81 1.232 . S
C82 O83 1.218 . S
O83 C82 1.218 . S
C84 O77 1.275 . S
C84 O79 1.255 . S
C85 O86 1.258 . S
C85 O87 1.256 . S
O86 Cd78 2.381 . S
O86 C85 1.258 . S
O87 Cd78 2.378 . S
O87 C85 1.256 . S
O88 Cd89 2.300 . S
O88 C95 1.275 . S
Cd89 O88 2.300 . S
Cd89 O97 2.381 . S
Cd89 O98 2.378 . S
O90 Cd91 2.385 . S
O90 C95 1.255 . S
Cd91 O90 2.385 . S
Cd91 O92 2.317 . S
O92 Cd91 2.317 . S
O92 C93 1.232 . S
C93 O92 1.232 . S
C93 O94 1.218 . S
O94 C93 1.218 . S
C95 O88 1.275 . S
C95 O90 1.255 . S
C96 O97 1.258 . S
C96 O98 1.256 . S
O97 Cd89 2.381 . S
O97 C96 1.258 . S
O98 Cd89 2.378 . S
O98 C96 1.256 . S
O99 Cd100 2.300 . S
O99 C106 1.275 . S
Cd100 O99 2.300 . S
Cd100 O108 2.381 . S
Cd100 O109 2.378 . S
O101 Cd102 2.385 . S
O101 C106 1.255 . S
Cd102 O101 2.385 . S
Cd102 O103 2.317 . S
O103 Cd102 2.317 . S
O103 C104 1.232 . S
C104 O103 1.232 . S
C104 O105 1.218 . S
O105 C104 1.218 . S
C106 O99 1.275 . S
C106 O101 1.255 . S
C107 O108 1.258 . S
C107 O109 1.256 . S
O108 Cd100 2.381 . S
O108 C107 1.258 . S
O109 Cd100 2.378 . S
O109 C107 1.256 . S
O110 Cd111 2.300 . S
O110 C117 1.275 . S
Cd111 O110 2.300 . S
Cd111 O119 2.381 . S
Cd111 O120 2.378 . S
O112 Cd113 2.385 . S
O112 C117 1.255 . S
Cd113 O112 2.385 . S
Cd113 O114 2.317 . S
O114 Cd113 2.317 . S
O114 C115 1.232 . S
C115 O114 1.232 . S
C115 O116 1.218 . S
O116 C115 1.218 . S
C117 O110 1.275 . S
C117 O112 1.255 . S
C118 O119 1.258 . S
C118 O120 1.256 . S
O119 Cd111 2.381 . S
O119 C118 1.258 . S
O120 Cd111 2.378 . S
O120 C118 1.256 . S
O121 Cd122 2.300 . S
O121 C128 1.275 . S
Cd122 O121 2.300 . S
Cd122 O130 2.381 . S
Cd122 O131 2.378 . S
O123 Cd124 2.385 . S
O123 C128 1.255 . S
Cd124 O123 2.385 . S
Cd124 O125 2.317 . S
O125 Cd124 2.317 . S
O125 C126 1.232 . S
C126 O125 1.232 . S
C126 O127 1.218 . S
O127 C126 1.218 . S
C128 O121 1.275 . S
C128 O123 1.255 . S
C129 O130 1.258 . S
C129 O131 1.256 . S
O130 Cd122 2.381 . S
O130 C129 1.258 . S
O131 Cd122 2.378 . S
O131 C129 1.256 . S
O132 Cd133 2.300 . S
O132 C139 1.275 . S
Cd133 O132 2.300 . S
Cd133 O141 2.381 . S
Cd133 O142 2.378 . S
O134 Cd135 2.385 . S
O134 C139 1.255 . S
Cd135 O134 2.385 . S
Cd135 O136 2.317 . S
O136 Cd135 2.317 . S
O136 C137 1.232 . S
C137 O136 1.232 . S
C137 O138 1.218 . S
O138 C137 1.218 . S
C139 O132 1.275 . S
C139 O134 1.255 . S
C140 O141 1.258 . S
C140 O142 1.256 . S
O141 Cd133 2.381 . S
O141 C140 1.258 . S
O142 Cd133 2.378 . S
O142 C140 1.256 . S
O143 Cd144 2.300 . S
O143 C150 1.275 . S
Cd144 O143 2.300 . S
Cd144 O152 2.381 . S
Cd144 O153 2.378 . S
O145 Cd146 2.385 . S
O145 C150 1.255 . S
Cd146 O145 2.385 . S
Cd146 O147 2.317 . S
O147 Cd146 2.317 . S
O147 C148 1.232 . S
C148 O147 1.232 . S
C148 O149 1.218 . S
O149 C148 1.218 . S
C150 O143 1.275 . S
C150 O145 1.255 . S
C151 O152 1.258 . S
C151 O153 1.256 . S
O152 Cd144 2.381 . S
O152 C151 1.258 . S
O153 Cd144 2.378 . S
O153 C151 1.256 . S
O154 Cd155 2.300 . S
O154 C161 1.275 . S
Cd155 O154 2.300 . S
Cd155 O163 2.381 . S
Cd155 O164 2.378 . S
O156 Cd157 2.385 . S
O156 C161 1.255 . S
Cd157 O156 2.385 . S
Cd157 O158 2.317 . S
O158 Cd157 2.317 . S
O158 C159 1.232 . S
C159 O158 1.232 . S
C159 O160 1.218 . S
O160 C159 1.218 . S
C161 O154 1.275 . S
C161 O156 1.255 . S
C162 O163 1.258 . S
C162 O164 1.256 . S
O163 Cd155 2.381 . S
O163 C162 1.258 . S
O164 Cd155 2.378 . S
O164 C162 1.256 . S
O165 Cd166 2.300 . S
O165 C172 1.275 . S
Cd166 O165 2.300 . S
Cd166 O174 2.381 . S
Cd166 O175 2.378 . S
O167 Cd168 2.385 . S
O167 C172 1.255 . S
Cd168 O167 2.385 . S
Cd168 O169 2.317 . S
O169 Cd168 2.317 . S
O169 C170 1.232 . S
C170 O169 1.232 . S
C170 O171 1.218 . S
O171 C170 1.218 . S
C172 O165 1.275 . S
C172 O167 1.255 . S
C173 O174 1.258 . S
C173 O175 1.256 . S
O174 Cd166 2.381 . S
O174 C173 1.258 . S
O175 Cd166 2.378 . S
O175 C173 1.256 . S
O176 Cd177 2.300 . S
O176 C183 1.275 . S
Cd177 O176 2.300 . S
Cd177 O185 2.381 . S
Cd177 O186 2.378 . S
O178 Cd179 2.385 . S
O178 C183 1.255 . S
Cd179 O178 2.385 . S
Cd179 O180 2.317 . S
O180 Cd179 2.317 . S
O180 C181 1.232 . S
C181 O180 1.232 . S
C181 O182 1.218 . S
O182 C181 1.218 . S
C183 O176 1.275 . S
C183 O178 1.255 . S
C184 O185 1.258 . S
C184 O186 1.256 . S
O185 Cd177 2.381 . S
O185 C184 1.258 . S
O186 Cd177 2.378 . S
O186 C184 1.256 . S
O187 Cd188 2.300 . S
O187 C194 1.275 . S
Cd188 O187 2.300 . S
Cd188 O196 2.381 . S
Cd188 O197 2.378 . S
O189 Cd190 2.385 . S
O189 C194 1.255 . S
Cd190 O189 2.385 . S
Cd190 O191 2.317 . S
O191 Cd190 2.317 . S
O191 C192 1.232 . S
C192 O191 1.232 . S
C192 O193 1.218 . S
O193 C192 1.218 . S
C194 O187 1.275 . S
C194 O189 1.255 . S
C195 O196 1.258 . S
C195 O197 1.256 . S
O196 Cd188 2.381 . S
O196 C195 1.258 . S
O197 Cd188 2.378 . S
O197 C195 1.256 . S
Tb198 N229 2.660 . S
Tb198 N236 2.600 . S
Tb198 O242 2.546 . S
Tb198 O243 2.610 1_566 S
Tb198 O245 2.320 1_565 S
Tb198 O246 2.552 1_565 S
Tb198 O247 2.413 1_565 S
Tb198 O249 2.362 1_556 S
Tb198 O250 2.421 . S
Tb198 C262 2.833 . S
C199 C202 1.432 . S
C199 C203 1.414 . S
C199 N206 1.359 . S
C200 C202 1.417 . S
C200 C204 1.432 . S
C200 C212 1.410 . S
C201 C203 1.444 . S
C201 C204 1.317 . S
C201 H224 0.929 . S
C202 C199 1.432 . S
C202 C200 1.417 . S
C202 N210 1.360 . S
C203 C199 1.414 . S
C203 C201 1.444 . S
C203 C208 1.385 . S
C204 C200 1.432 . S
C204 C201 1.317 . S
C204 H216 0.930 . S
C205 C207 1.392 . S
C205 C208 1.370 . S
C205 H217 0.931 . S
N206 C199 1.359 . S
N206 C207 1.327 . S
N206 Tb209 2.600 . S
C207 C205 1.392 . S
C207 N206 1.327 . S
C207 H214 0.930 . S
C208 C203 1.385 . S
C208 C205 1.370 . S
C208 H227 0.930 . S
Tb209 N206 2.600 . S
Tb209 N210 2.660 . S
Tb209 O243 2.362 . S
Tb209 O244 2.421 . S
Tb209 O248 2.546 . S
Tb209 O249 2.610 1_545 S
Tb209 O251 2.320 1_545 S
Tb209 O252 2.552 1_545 S
Tb209 O253 2.413 . S
Tb209 C273 2.833 . S
N210 C202 1.360 . S
N210 Tb209 2.660 . S
N210 C211 1.305 . S
C211 N210 1.305 . S
C211 C213 1.407 . S
C211 H218 0.930 . S
C212 C200 1.410 . S
C212 C213 1.345 . S
C212 H220 0.930 . S
C213 C211 1.407 . S
C213 C212 1.345 . S
C213 H215 0.930 . S
H214 C207 0.930 . S
H215 C213 0.930 . S
H216 C204 0.930 . S
H217 C205 0.931 . S
H218 C211 0.930 . S
H219 C233 0.930 . S
H220 C212 0.930 . S
H221 C239 0.930 . S
H222 C230 0.930 . S
H223 C237 0.931 . S
H224 C201 0.929 . S
H225 C231 0.930 . S
H226 C264 0.930 . S
H227 C208 0.930 . S
H228 C263 0.929 . S
N229 Tb198 2.660 . S
N229 C230 1.305 . S
N229 C234 1.360 . S
C230 H222 0.930 . S
C230 N229 1.305 . S
C230 C233 1.407 . S
C231 H225 0.930 . S
C231 C232 1.410 . S
C231 C233 1.345 . S
C232 C231 1.410 . S
C232 C234 1.417 . S
C232 C264 1.432 . S
C233 H219 0.930 . S
C233 C230 1.407 . S
C233 C231 1.345 . S
C234 N229 1.360 . S
C234 C232 1.417 . S
C234 C238 1.432 . S
H235 C240 0.930 . S
N236 Tb198 2.600 . S
N236 C238 1.359 . S
N236 C239 1.327 . S
C237 H223 0.931 . S
C237 C239 1.392 . S
C237 C240 1.370 . S
C238 C234 1.432 . S
C238 N236 1.359 . S
C238 C241 1.414 . S
C239 H221 0.930 . S
C239 N236 1.327 . S
C239 C237 1.392 . S
C240 H235 0.930 . S
C240 C237 1.370 . S
C240 C241 1.385 . S
C241 C238 1.414 . S
C241 C240 1.385 . S
C241 C263 1.444 . S
O242 Tb198 2.546 . S
O242 C262 1.251 . S
O243 Tb198 2.610 1_544 S
O243 Tb209 2.362 . S
O243 C254 1.283 1_554 S
O244 Tb209 2.421 . S
O244 C261 1.301 . S
O245 Tb198 2.320 1_545 S
O245 C261 1.234 1_556 S
O246 Tb198 2.552 1_545 S
O246 C254 1.243 . S
O247 Tb198 2.413 1_545 S
O247 C262 1.256 1_545 S
O248 Tb209 2.546 . S
O248 C273 1.251 . S
O249 Tb198 2.362 1_554 S
O249 Tb209 2.610 1_565 S
O249 C265 1.283 . S
O250 Tb198 2.421 . S
O250 C272 1.262 1_556 S
O251 Tb209 2.320 1_565 S
O251 C272 1.260 . S
O252 Tb209 2.552 1_565 S
O252 C265 1.243 . S
O253 Tb209 2.413 . S
O253 C273 1.256 . S
C254 O243 1.283 1_556 S
C254 O246 1.243 . S
C255 C257 1.382 1_565 S
C255 C259 1.393 . S
C255 C262 1.500 . S
C256 C257 1.400 . S
C256 C258 1.384 . S
C257 C255 1.382 1_545 S
C257 C256 1.400 . S
C257 H274 0.930 . S
C258 C256 1.384 . S
C258 C260 1.392 1_545 S
C258 H275 0.931 . S
C259 C255 1.393 . S
C259 C260 1.401 . S
C259 H276 0.930 . S
C260 C258 1.392 1_565 S
C260 C259 1.401 . S
C260 H277 0.930 . S
C261 O244 1.301 . S
C261 O245 1.234 1_554 S
C262 Tb198 2.833 . S
C262 O242 1.251 . S
C262 O247 1.256 1_565 S
C262 C255 1.500 . S
C263 H228 0.929 . S
C263 C241 1.444 . S
C263 C264 1.317 . S
C264 H226 0.930 . S
C264 C232 1.432 . S
C264 C263 1.317 . S
C265 O249 1.283 . S
C265 O252 1.243 . S
C266 C267 1.382 1_545 S
C266 C270 1.393 . S
C266 C273 1.500 . S
C267 C266 1.382 1_565 S
C267 C268 1.400 . S
C267 H278 0.930 . S
C268 C267 1.400 . S
C268 C269 1.384 . S
C269 C268 1.384 . S
C269 C271 1.392 1_565 S
C269 H279 0.931 . S
C270 C266 1.393 . S
C270 C271 1.401 . S
C270 H280 0.930 . S
C271 C269 1.392 1_545 S
C271 C270 1.401 . S
C271 H281 0.930 . S
C272 O250 1.262 1_554 S
C272 O251 1.260 . S
C273 Tb209 2.833 . S
C273 O248 1.251 . S
C273 O253 1.256 . S
C273 C266 1.500 . S
H274 C257 0.930 . S
H275 C258 0.931 . S
H276 C259 0.930 . S
H277 C260 0.930 . S
H278 C267 0.930 . S
H279 C269 0.931 . S
H280 C270 0.930 . S
H281 C271 0.930 . S
Tb282 N313 2.660 . S
Tb282 N320 2.600 . S
Tb282 O326 2.546 . S
Tb282 O327 2.610 1_456 S
Tb282 O329 2.320 1_455 S
Tb282 O330 2.552 1_455 S
Tb282 O331 2.413 1_455 S
Tb282 O333 2.362 1_556 S
Tb282 O334 2.421 1_556 S
Tb282 C346 2.833 . S
C283 C286 1.432 . S
C283 C287 1.414 . S
C283 N290 1.359 . S
C284 C286 1.417 . S
C284 C288 1.432 . S
C284 C296 1.410 . S
C285 C287 1.444 . S
C285 C288 1.317 . S
C285 H308 0.929 . S
C286 C283 1.432 . S
C286 C284 1.417 . S
C286 N294 1.360 . S
C287 C283 1.414 . S
C287 C285 1.444 . S
C287 C292 1.385 . S
C288 C284 1.432 . S
C288 C285 1.317 . S
C288 H300 0.930 . S
C289 C291 1.392 . S
C289 C292 1.370 . S
C289 H301 0.931 . S
N290 C283 1.359 . S
N290 C291 1.327 . S
N290 Tb293 2.600 . S
C291 C289 1.392 . S
C291 N290 1.327 . S
C291 H298 0.930 . S
C292 C287 1.385 . S
C292 C289 1.370 . S
C292 H311 0.930 . S
Tb293 N290 2.600 . S
Tb293 N294 2.660 . S
Tb293 O327 2.362 . S
Tb293 O328 2.421 . S
Tb293 O332 2.546 . S
Tb293 O333 2.610 1_655 S
Tb293 O335 2.320 1_655 S
Tb293 O336 2.552 1_655 S
Tb293 O337 2.413 1_655 S
Tb293 C357 2.833 1_655 S
N294 C286 1.360 . S
N294 Tb293 2.660 . S
N294 C295 1.305 . S
C295 N294 1.305 . S
C295 C297 1.407 . S
C295 H302 0.930 1_655 S
C296 C284 1.410 . S
C296 C297 1.345 . S
C296 H304 0.930 . S
C297 C295 1.407 . S
C297 C296 1.345 . S
C297 H299 0.930 . S
H298 C291 0.930 . S
H299 C297 0.930 . S
H300 C288 0.930 . S
H301 C289 0.931 . S
H302 C295 0.930 1_455 S
H303 C317 0.930 . S
H304 C296 0.930 . S
H305 C323 0.930 . S
H306 C314 0.973 . S
H307 C321 0.931 . S
H308 C285 0.929 . S
H309 C315 0.930 . S
H310 C348 0.930 . S
H311 C292 0.930 . S
H312 C347 0.929 . S
N313 Tb282 2.660 . S
N313 C314 1.305 . S
N313 C318 1.360 . S
C314 H306 0.973 . S
C314 N313 1.305 . S
C314 C317 1.407 . S
C315 H309 0.930 . S
C315 C316 1.410 . S
C315 C317 1.345 . S
C316 C315 1.410 . S
C316 C318 1.417 . S
C316 C348 1.432 . S
C317 H303 0.930 . S
C317 C314 1.407 . S
C317 C315 1.345 . S
C318 N313 1.360 . S
C318 C316 1.417 . S
C318 C322 1.432 . S
H319 C324 0.930 . S
N320 Tb282 2.600 . S
N320 C322 1.359 . S
N320 C323 1.327 . S
C321 H307 0.931 . S
C321 C323 1.392 . S
C321 C324 1.370 . S
C322 C318 1.432 . S
C322 N320 1.359 . S
C322 C325 1.414 . S
C323 H305 0.930 . S
C323 N320 1.327 . S
C323 C321 1.392 . S
C324 H319 0.930 . S
C324 C321 1.370 . S
C324 C325 1.385 . S
C325 C322 1.414 . S
C325 C324 1.385 . S
C325 C347 1.444 . S
O326 Tb282 2.546 . S
O326 C346 1.251 . S
O327 Tb282 2.610 1_654 S
O327 Tb293 2.362 . S
O327 C338 1.283 1_554 S
O328 Tb293 2.421 . S
O328 C345 1.262 . S
O329 Tb282 2.320 1_655 S
O329 C345 1.260 1_556 S
O330 Tb282 2.552 1_655 S
O330 C338 1.243 . S
O331 Tb282 2.413 1_655 S
O331 C346 1.256 1_655 S
O332 Tb293 2.546 . S
O332 C357 1.251 1_655 S
O333 Tb282 2.362 1_554 S
O333 Tb293 2.610 1_455 S
O333 C349 1.283 . S
O334 Tb282 2.421 1_554 S
O334 C356 1.262 . S
O335 Tb293 2.320 1_455 S
O335 C356 1.260 . S
O336 Tb293 2.552 1_455 S
O336 C349 1.243 . S
O337 Tb293 2.413 1_455 S
O337 C357 1.256 . S
C338 O327 1.283 1_556 S
C338 O330 1.243 . S
C339 C341 1.382 . S
C339 C343 1.393 1_655 S
C339 C346 1.500 1_655 S
C340 C341 1.400 . S
C340 C342 1.384 . S
C341 C339 1.382 . S
C341 C340 1.400 . S
C341 H358 0.930 . S
C342 C340 1.384 . S
C342 C344 1.392 1_655 S
C342 H359 0.931 . S
C343 C339 1.393 1_455 S
C343 C344 1.401 . S
C343 H360 0.930 . S
C344 C342 1.392 1_455 S
C344 C343 1.401 . S
C344 H361 0.930 . S
C345 O328 1.262 . S
C345 O329 1.260 1_554 S
C346 Tb282 2.833 . S
C346 O326 1.251 . S
C346 O331 1.256 1_455 S
C346 C339 1.500 1_455 S
C347 H312 0.929 . S
C347 C325 1.444 . S
C347 C348 1.317 . S
C348 H310 0.930 . S
C348 C316 1.432 . S
C348 C347 1.317 . S
C349 O333 1.283 . S
C349 O336 1.243 . S
C350 C351 1.382 . S
C350 C354 1.393 1_455 S
C350 C357 1.500 . S
C351 C350 1.382 . S
C351 C352 1.400 . S
C351 H362 0.930 . S
C352 C351 1.400 . S
C352 C353 1.384 . S
C353 C352 1.384 . S
C353 C355 1.392 . S
C353 H363 0.931 . S
C354 C350 1.393 1_655 S
C354 C355 1.401 1_655 S
C354 H364 0.930 . S
C355 C353 1.392 . S
C355 C354 1.401 1_455 S
C355 H365 0.930 1_455 S
C356 O334 1.262 . S
C356 O335 1.260 . S
C357 Tb293 2.833 1_455 S
C357 O332 1.251 1_455 S
C357 O337 1.256 . S
C357 C350 1.500 . S
H358 C341 0.930 . S
H359 C342 0.931 . S
H360 C343 0.930 . S
H361 C344 0.930 . S
H362 C351 0.930 . S
H363 C353 0.931 . S
H364 C354 0.930 . S
H365 C355 0.930 1_655 S
Tb366 N397 2.660 . S
Tb366 N404 2.600 . S
Tb366 O410 2.546 . S
Tb366 O411 2.610 . S
Tb366 O413 2.320 . S
Tb366 O414 2.552 . S
Tb366 O415 2.413 . S
Tb366 O417 2.396 . S
Tb366 O418 2.421 . S
Tb366 C430 2.833 . S
C367 C370 1.432 . S
C367 C371 1.414 . S
C367 N374 1.359 . S
C368 C370 1.417 . S
C368 C372 1.432 . S
C368 C380 1.410 . S
C369 C371 1.444 . S
C369 C372 1.317 . S
C369 H392 0.929 . S
C370 C367 1.432 . S
C370 C368 1.417 . S
C370 N378 1.360 . S
C371 C367 1.414 . S
C371 C369 1.444 . S
C371 C376 1.385 . S
C372 C368 1.432 . S
C372 C369 1.317 . S
C372 H384 0.930 . S
C373 C375 1.392 . S
C373 C376 1.370 . S
C373 H385 0.931 . S
N374 C367 1.359 . S
N374 C375 1.327 . S
N374 Tb377 2.600 . S
C375 C373 1.392 . S
C375 N374 1.327 . S
C375 H382 0.930 . S
C376 C371 1.385 . S
C376 C373 1.370 . S
C376 H395 0.930 . S
Tb377 N374 2.600 . S
Tb377 N378 2.660 . S
Tb377 O411 2.362 1_556 S
Tb377 O412 2.421 . S
Tb377 O416 2.546 . S
Tb377 O417 2.584 1_556 S
Tb377 O419 2.320 . S
Tb377 O420 2.552 . S
Tb377 O421 2.413 . S
Tb377 C441 2.833 . S
N378 C370 1.360 . S
N378 Tb377 2.660 . S
N378 C379 1.305 . S
C379 N378 1.305 . S
C379 C381 1.407 . S
C379 H386 0.930 . S
C380 C368 1.410 . S
C380 C381 1.345 . S
C380 H388 0.930 . S
C381 C379 1.407 . S
C381 C380 1.345 . S
C381 H383 0.930 . S
H382 C375 0.930 . S
H383 C381 0.930 . S
H384 C372 0.930 . S
H385 C373 0.931 . S
H386 C379 0.930 . S
H387 C401 0.930 . S
H388 C380 0.930 . S
H389 C407 0.930 . S
H390 C398 0.930 . S
H391 C405 0.931 . S
H392 C369 0.929 . S
H393 C399 0.930 . S
H394 C432 0.930 . S
H395 C376 0.930 . S
H396 C431 0.929 . S
N397 Tb366 2.660 . S
N397 C398 1.305 . S
N397 C402 1.360 . S
C398 H390 0.930 . S
C398 N397 1.305 . S
C398 C401 1.407 . S
C399 H393 0.930 . S
C399 C400 1.410 . S
C399 C401 1.345 . S
C400 C399 1.410 . S
C400 C402 1.417 . S
C400 C432 1.432 . S
C401 H387 0.930 . S
C401 C398 1.407 . S
C401 C399 1.345 . S
C402 N397 1.360 . S
C402 C400 1.417 . S
C402 C406 1.432 . S
H403 C408 0.930 . S
N404 Tb366 2.600 . S
N404 C406 1.359 . S
N404 C407 1.327 . S
C405 H391 0.931 . S
C405 C407 1.392 . S
C405 C408 1.370 . S
C406 C402 1.432 . S
C406 N404 1.359 . S
C406 C409 1.414 . S
C407 H389 0.930 . S
C407 N404 1.327 . S
C407 C405 1.392 . S
C408 H403 0.930 . S
C408 C405 1.370 . S
C408 C409 1.385 . S
C409 C406 1.414 . S
C409 C408 1.385 . S
C409 C431 1.444 . S
O410 Tb366 2.546 . S
O410 C430 1.251 . S
O411 Tb366 2.610 . S
O411 Tb377 2.362 1_554 S
O411 C422 1.283 . S
O412 Tb377 2.421 . S
O412 C429 1.262 1_556 S
O413 Tb366 2.320 . S
O413 C429 1.260 . S
O414 Tb366 2.552 . S
O414 C422 1.243 . S
O415 Tb366 2.413 . S
O415 C430 1.256 . S
O416 Tb377 2.546 . S
O416 C441 1.251 . S
O417 Tb366 2.396 . S
O417 Tb377 2.584 1_554 S
O417 C433 1.257 1_554 S
O418 Tb366 2.421 . S
O418 C440 1.262 1_554 S
O419 Tb377 2.320 . S
O419 C440 1.260 . S
O420 Tb377 2.552 . S
O420 C433 1.243 . S
O421 Tb377 2.413 . S
O421 C441 1.256 . S
C422 O411 1.283 . S
C422 O414 1.243 . S
C423 C425 1.382 . S
C423 C427 1.393 . S
C423 C430 1.500 . S
C424 C425 1.400 . S
C424 C426 1.384 . S
C425 C423 1.382 . S
C425 C424 1.400 . S
C425 H442 0.930 . S
C426 C424 1.384 . S
C426 C428 1.392 . S
C426 H443 0.931 . S
C427 C423 1.393 . S
C427 C428 1.401 . S
C427 H444 0.930 . S
C428 C426 1.392 . S
C428 C427 1.401 . S
C428 H445 0.930 . S
C429 O412 1.262 1_554 S
C429 O413 1.260 . S
C430 Tb366 2.833 . S
C430 O410 1.251 . S
C430 O415 1.256 . S
C430 C423 1.500 . S
C431 H396 0.929 . S
C431 C409 1.444 . S
C431 C432 1.317 . S
C432 H394 0.930 . S
C432 C400 1.432 . S
C432 C431 1.317 . S
C433 O417 1.257 1_556 S
C433 O420 1.243 . S
C434 C435 1.382 . S
C434 C438 1.393 . S
C434 C441 1.500 . S
C435 C434 1.382 . S
C435 C436 1.400 . S
C435 H446 0.930 . S
C436 C435 1.400 . S
C436 C437 1.384 . S
C437 C436 1.384 . S
C437 C439 1.392 . S
C437 H447 0.931 . S
C438 C434 1.393 . S
C438 C439 1.401 . S
C438 H448 0.930 . S
C439 C437 1.392 . S
C439 C438 1.401 . S
C439 H449 0.930 . S
C440 O418 1.262 1_556 S
C440 O419 1.260 . S
C441 Tb377 2.833 . S
C441 O416 1.251 . S
C441 O421 1.256 . S
C441 C434 1.500 . S
H442 C425 0.930 . S
H443 C426 0.931 . S
H444 C427 0.930 . S
H445 C428 0.930 . S
H446 C435 0.930 . S
H447 C437 0.931 . S
H448 C438 0.930 . S
H449 C439 0.930 . S
Tb450 N481 2.660 . S
Tb450 N488 2.600 . S
Tb450 O494 2.546 . S
Tb450 O495 2.610 . S
Tb450 O497 2.320 . S
Tb450 O498 2.552 . S
Tb450 O499 2.413 . S
Tb450 O501 2.362 . S
Tb450 O502 2.421 . S
Tb450 C514 2.833 . S
C451 C454 1.432 . S
C451 C455 1.414 . S
C451 N458 1.359 . S
C452 C454 1.417 . S
C452 C456 1.432 . S
C452 C464 1.410 . S
C453 C455 1.444 . S
C453 C456 1.317 . S
C453 H476 0.929 . S
C454 C451 1.432 . S
C454 C452 1.417 . S
C454 N462 1.360 . S
C455 C451 1.414 . S
C455 C453 1.444 . S
C455 C460 1.385 . S
C456 C452 1.432 . S
C456 C453 1.317 . S
C456 H468 0.930 . S
C457 C459 1.392 . S
C457 C460 1.370 . S
C457 H469 0.931 . S
N458 C451 1.359 . S
N458 C459 1.327 . S
N458 Tb461 2.600 . S
C459 C457 1.392 . S
C459 N458 1.327 . S
C459 H466 0.930 . S
C460 C455 1.385 . S
C460 C457 1.370 . S
C460 H479 0.930 . S
Tb461 N458 2.600 . S
Tb461 N462 2.660 . S
Tb461 O495 2.362 . S
Tb461 O496 2.421 . S
Tb461 O500 2.546 . S
Tb461 O501 2.610 . S
Tb461 O503 2.320 . S
Tb461 O504 2.552 . S
Tb461 O505 2.413 . S
Tb461 C525 2.833 . S
N462 C454 1.360 . S
N462 Tb461 2.660 . S
N462 C463 1.305 . S
C463 N462 1.305 . S
C463 C465 1.407 . S
C463 H470 0.930 . S
C464 C452 1.410 . S
C464 C465 1.345 . S
C464 H472 0.930 . S
C465 C463 1.407 . S
C465 C464 1.345 . S
C465 H467 0.930 . S
H466 C459 0.930 . S
H467 C465 0.930 . S
H468 C456 0.930 . S
H469 C457 0.931 . S
H470 C463 0.930 . S
H471 C485 0.930 . S
H472 C464 0.930 . S
H473 C491 0.930 . S
H474 C482 0.930 . S
H475 C489 0.931 . S
H476 C453 0.929 . S
H477 C483 0.930 . S
H478 C516 0.930 . S
H479 C460 0.930 . S
H480 C515 0.929 . S
N481 Tb450 2.660 . S
N481 C482 1.305 . S
N481 C486 1.360 . S
C482 H474 0.930 . S
C482 N481 1.305 . S
C482 C485 1.407 . S
C483 H477 0.930 . S
C483 C484 1.410 . S
C483 C485 1.345 . S
C484 C483 1.410 . S
C484 C486 1.417 . S
C484 C516 1.432 . S
C485 H471 0.930 . S
C485 C482 1.407 . S
C485 C483 1.345 . S
C486 N481 1.360 . S
C486 C484 1.417 . S
C486 C490 1.432 . S
H487 C492 0.930 . S
N488 Tb450 2.600 . S
N488 C490 1.359 . S
N488 C491 1.327 . S
C489 H475 0.931 . S
C489 C491 1.392 . S
C489 C492 1.370 . S
C490 C486 1.432 . S
C490 N488 1.359 . S
C490 C493 1.414 . S
C491 H473 0.930 . S
C491 N488 1.327 . S
C491 C489 1.392 . S
C492 H487 0.930 . S
C492 C489 1.370 . S
C492 C493 1.385 . S
C493 C490 1.414 . S
C493 C492 1.385 . S
C493 C515 1.444 . S
O494 Tb450 2.546 . S
O494 C514 1.251 . S
O495 Tb450 2.610 . S
O495 Tb461 2.362 . S
O495 C506 1.283 . S
O496 Tb461 2.421 . S
O496 C513 1.262 . S
O497 Tb450 2.320 . S
O497 C513 1.260 . S
O498 Tb450 2.552 . S
O498 C506 1.243 . S
O499 Tb450 2.413 . S
O499 C514 1.256 . S
O500 Tb461 2.546 . S
O500 C525 1.251 . S
O501 Tb450 2.362 . S
O501 Tb461 2.610 . S
O501 C517 1.283 . S
O502 Tb450 2.421 . S
O502 C524 1.262 . S
O503 Tb461 2.320 . S
O503 C524 1.260 . S
O504 Tb461 2.552 . S
O504 C517 1.243 . S
O505 Tb461 2.413 . S
O505 C525 1.256 . S
C506 O495 1.283 . S
C506 O498 1.243 . S
C507 C509 1.382 . S
C507 C511 1.393 . S
C507 C514 1.500 . S
C508 C509 1.400 . S
C508 C510 1.384 . S
C509 C507 1.382 . S
C509 C508 1.400 . S
C509 H526 0.930 . S
C510 C508 1.384 . S
C510 C512 1.392 . S
C510 H527 0.931 . S
C511 C507 1.393 . S
C511 C512 1.401 . S
C511 H528 0.930 . S
C512 C510 1.392 . S
C512 C511 1.401 . S
C512 H529 0.930 . S
C513 O496 1.262 . S
C513 O497 1.260 . S
C514 Tb450 2.833 . S
C514 O494 1.251 . S
C514 O499 1.256 . S
C514 C507 1.500 . S
C515 H480 0.929 . S
C515 C493 1.444 . S
C515 C516 1.317 . S
C516 H478 0.930 . S
C516 C484 1.432 . S
C516 C515 1.317 . S
C517 O501 1.283 . S
C517 O504 1.243 . S
C518 C519 1.382 . S
C518 C522 1.393 . S
C518 C525 1.500 . S
C519 C518 1.382 . S
C519 C520 1.400 . S
C519 H530 0.930 . S
C520 C519 1.400 . S
C520 C521 1.384 . S
C521 C520 1.384 . S
C521 C523 1.392 . S
C521 H531 0.931 . S
C522 C518 1.393 . S
C522 C523 1.401 . S
C522 H532 0.930 . S
C523 C521 1.392 . S
C523 C522 1.401 . S
C523 H533 0.930 . S
C524 O502 1.262 . S
C524 O503 1.260 . S
C525 Tb461 2.833 . S
C525 O500 1.251 . S
C525 O505 1.256 . S
C525 C518 1.500 . S
H526 C509 0.930 . S
H527 C510 0.931 . S
H528 C511 0.930 . S
H529 C512 0.930 . S
H530 C519 0.930 . S
H531 C521 0.931 . S
H532 C522 0.930 . S
H533 C523 0.930 . S
Tb534 N565 2.660 . S
Tb534 N572 2.600 . S
Tb534 O578 2.546 . S
Tb534 O579 2.610 . S
Tb534 O581 2.320 . S
Tb534 O582 2.552 . S
Tb534 O583 2.413 . S
Tb534 O585 2.362 . S
Tb534 O586 2.421 . S
Tb534 C598 2.833 . S
C535 C538 1.432 . S
C535 C539 1.414 . S
C535 N542 1.359 . S
C536 C538 1.417 . S
C536 C540 1.432 . S
C536 C548 1.410 . S
C537 C539 1.444 . S
C537 C540 1.317 . S
C537 H560 0.929 . S
C538 C535 1.432 . S
C538 C536 1.417 . S
C538 N546 1.360 . S
C539 C535 1.414 . S
C539 C537 1.444 . S
C539 C544 1.385 . S
C540 C536 1.432 . S
C540 C537 1.317 . S
C540 H552 0.930 . S
C541 C543 1.392 . S
C541 C544 1.370 . S
C541 H553 0.931 . S
N542 C535 1.359 . S
N542 C543 1.327 . S
N542 Tb545 2.600 . S
C543 C541 1.392 . S
C543 N542 1.327 . S
C543 H550 0.930 . S
C544 C539 1.385 . S
C544 C541 1.370 . S
C544 H563 0.930 . S
Tb545 N542 2.600 . S
Tb545 N546 2.660 . S
Tb545 O579 2.362 . S
Tb545 O580 2.421 . S
Tb545 O584 2.546 . S
Tb545 O585 2.610 . S
Tb545 O587 2.320 . S
Tb545 O588 2.552 . S
Tb545 O589 2.413 . S
Tb545 C609 2.833 . S
N546 C538 1.360 . S
N546 Tb545 2.660 . S
N546 C547 1.305 . S
C547 N546 1.305 . S
C547 C549 1.407 . S
C547 H554 0.930 . S
C548 C536 1.410 . S
C548 C549 1.345 . S
C548 H556 0.930 . S
C549 C547 1.407 . S
C549 C548 1.345 . S
C549 H551 0.930 . S
H550 C543 0.930 . S
H551 C549 0.930 . S
H552 C540 0.930 . S
H553 C541 0.931 . S
H554 C547 0.930 . S
H555 C569 0.930 . S
H556 C548 0.930 . S
H557 C575 0.930 . S
H558 C566 0.930 . S
H559 C573 0.931 . S
H560 C537 0.929 . S
H561 C567 0.930 . S
H562 C600 0.930 . S
H563 C544 0.930 . S
H564 C599 0.929 . S
N565 Tb534 2.660 . S
N565 C566 1.305 . S
N565 C570 1.360 . S
C566 H558 0.930 . S
C566 N565 1.305 . S
C566 C569 1.407 . S
C567 H561 0.930 . S
C567 C568 1.410 . S
C567 C569 1.345 . S
C568 C567 1.410 . S
C568 C570 1.417 . S
C568 C600 1.432 . S
C569 H555 0.930 . S
C569 C566 1.407 . S
C569 C567 1.345 . S
C570 N565 1.360 . S
C570 C568 1.417 . S
C570 C574 1.432 . S
H571 C576 0.930 . S
N572 Tb534 2.600 . S
N572 C574 1.359 . S
N572 C575 1.327 . S
C573 H559 0.931 . S
C573 C575 1.392 . S
C573 C576 1.370 . S
C574 C570 1.432 . S
C574 N572 1.359 . S
C574 C577 1.414 . S
C575 H557 0.930 . S
C575 N572 1.327 . S
C575 C573 1.392 . S
C576 H571 0.930 . S
C576 C573 1.370 . S
C576 C577 1.385 . S
C577 C574 1.414 . S
C577 C576 1.385 . S
C577 C599 1.444 . S
O578 Tb534 2.546 . S
O578 C598 1.251 . S
O579 Tb534 2.610 . S
O579 Tb545 2.362 . S
O579 C590 1.283 . S
O580 Tb545 2.421 . S
O580 C597 1.262 . S
O581 Tb534 2.320 . S
O581 C597 1.260 . S
O582 Tb534 2.552 . S
O582 C590 1.243 . S
O583 Tb534 2.413 . S
O583 C598 1.256 . S
O584 Tb545 2.546 . S
O584 C609 1.251 . S
O585 Tb534 2.362 . S
O585 Tb545 2.610 . S
O585 C601 1.283 . S
O586 Tb534 2.421 . S
O586 C608 1.262 . S
O587 Tb545 2.320 . S
O587 C608 1.260 . S
O588 Tb545 2.552 . S
O588 C601 1.243 . S
O589 Tb545 2.413 . S
O589 C609 1.256 . S
C590 O579 1.283 . S
C590 O582 1.243 . S
C591 C593 1.382 . S
C591 C595 1.393 . S
C591 C598 1.500 . S
C592 C593 1.400 . S
C592 C594 1.384 . S
C593 C591 1.382 . S
C593 C592 1.400 . S
C593 H610 0.930 . S
C594 C592 1.384 . S
C594 C596 1.392 . S
C594 H611 0.931 . S
C595 C591 1.393 . S
C595 C596 1.401 . S
C595 H612 0.930 . S
C596 C594 1.392 . S
C596 C595 1.401 . S
C596 H613 0.930 . S
C597 O580 1.262 . S
C597 O581 1.260 . S
C598 Tb534 2.833 . S
C598 O578 1.251 . S
C598 O583 1.256 . S
C598 C591 1.500 . S
C599 H564 0.929 . S
C599 C577 1.444 . S
C599 C600 1.317 . S
C600 H562 0.930 . S
C600 C568 1.432 . S
C600 C599 1.317 . S
C601 O585 1.283 . S
C601 O588 1.243 . S
C602 C603 1.382 . S
C602 C606 1.393 . S
C602 C609 1.500 . S
C603 C602 1.382 . S
C603 C604 1.400 . S
C603 H614 0.930 . S
C604 C603 1.400 . S
C604 C605 1.384 . S
C605 C604 1.384 . S
C605 C607 1.392 . S
C605 H615 0.931 . S
C606 C602 1.393 . S
C606 C607 1.401 . S
C606 H616 0.930 . S
C607 C605 1.392 . S
C607 C606 1.401 . S
C607 H617 0.930 . S
C608 O586 1.262 . S
C608 O587 1.260 . S
C609 Tb545 2.833 . S
C609 O584 1.251 . S
C609 O589 1.256 . S
C609 C602 1.500 . S
H610 C593 0.930 . S
H611 C594 0.931 . S
H612 C595 0.930 . S
H613 C596 0.930 . S
H614 C603 0.930 . S
H615 C605 0.931 . S
H616 C606 0.930 . S
H617 C607 0.930 . S
Tb618 N649 2.660 . S
Tb618 N656 2.600 . S
Tb618 O662 2.546 . S
Tb618 O663 2.610 . S
Tb618 O665 2.320 . S
Tb618 O666 2.552 . S
Tb618 O667 2.413 . S
Tb618 O669 2.362 . S
Tb618 O670 2.421 . S
Tb618 C682 2.833 . S
C619 C622 1.432 . S
C619 C623 1.414 . S
C619 N626 1.359 . S
C620 C622 1.417 . S
C620 C624 1.432 . S
C620 C632 1.410 . S
C621 C623 1.444 . S
C621 C624 1.317 . S
C621 H644 0.929 . S
C622 C619 1.432 . S
C622 C620 1.417 . S
C622 N630 1.360 . S
C623 C619 1.414 . S
C623 C621 1.444 . S
C623 C628 1.385 . S
C624 C620 1.432 . S
C624 C621 1.317 . S
C624 H636 0.930 . S
C625 C627 1.392 . S
C625 C628 1.370 . S
C625 H637 0.931 . S
N626 C619 1.359 . S
N626 C627 1.327 . S
N626 Tb629 2.600 . S
C627 C625 1.392 . S
C627 N626 1.327 . S
C627 H634 0.930 . S
C628 C623 1.385 . S
C628 C625 1.370 . S
C628 H647 0.930 . S
Tb629 N626 2.600 . S
Tb629 N630 2.660 . S
Tb629 O663 2.362 . S
Tb629 O664 2.421 . S
Tb629 O668 2.546 . S
Tb629 O669 2.610 . S
Tb629 O671 2.320 . S
Tb629 O672 2.552 . S
Tb629 O673 2.413 . S
Tb629 C693 2.833 . S
N630 C622 1.360 . S
N630 Tb629 2.660 . S
N630 C631 1.305 . S
C631 N630 1.305 . S
C631 C633 1.407 . S
C631 H638 0.930 . S
C632 C620 1.410 . S
C632 C633 1.345 . S
C632 H640 0.930 . S
C633 C631 1.407 . S
C633 C632 1.345 . S
C633 H635 0.930 . S
H634 C627 0.930 . S
H635 C633 0.930 . S
H636 C624 0.930 . S
H637 C625 0.931 . S
H638 C631 0.930 . S
H639 C653 0.930 . S
H640 C632 0.930 . S
H641 C659 0.930 . S
H642 C650 0.930 . S
H643 C657 0.931 . S
H644 C621 0.929 . S
H645 C651 0.930 . S
H646 C684 0.930 . S
H647 C628 0.930 . S
H648 C683 0.929 . S
N649 Tb618 2.660 . S
N649 C650 1.305 . S
N649 C654 1.360 . S
C650 H642 0.930 . S
C650 N649 1.305 . S
C650 C653 1.407 . S
C651 H645 0.930 . S
C651 C652 1.410 . S
C651 C653 1.345 . S
C652 C651 1.410 . S
C652 C654 1.417 . S
C652 C684 1.432 . S
C653 H639 0.930 . S
C653 C650 1.407 . S
C653 C651 1.345 . S
C654 N649 1.360 . S
C654 C652 1.417 . S
C654 C658 1.432 . S
H655 C660 0.930 . S
N656 Tb618 2.600 . S
N656 C658 1.359 . S
N656 C659 1.327 . S
C657 H643 0.931 . S
C657 C659 1.392 . S
C657 C660 1.370 . S
C658 C654 1.432 . S
C658 N656 1.359 . S
C658 C661 1.414 . S
C659 H641 0.930 . S
C659 N656 1.327 . S
C659 C657 1.392 . S
C660 H655 0.930 . S
C660 C657 1.370 . S
C660 C661 1.385 . S
C661 C658 1.414 . S
C661 C660 1.385 . S
C661 C683 1.444 . S
O662 Tb618 2.546 . S
O662 C682 1.251 . S
O663 Tb618 2.610 . S
O663 Tb629 2.362 . S
O663 C674 1.283 . S
O664 Tb629 2.421 . S
O664 C681 1.262 . S
O665 Tb618 2.320 . S
O665 C681 1.260 . S
O666 Tb618 2.552 . S
O666 C674 1.243 . S
O667 Tb618 2.413 . S
O667 C682 1.256 . S
O668 Tb629 2.546 . S
O668 C693 1.251 . S
O669 Tb618 2.362 . S
O669 Tb629 2.610 . S
O669 C685 1.283 . S
O670 Tb618 2.421 . S
O670 C692 1.262 . S
O671 Tb629 2.320 . S
O671 C692 1.260 . S
O672 Tb629 2.552 . S
O672 C685 1.243 . S
O673 Tb629 2.413 . S
O673 C693 1.256 . S
C674 O663 1.283 . S
C674 O666 1.243 . S
C675 C677 1.382 . S
C675 C679 1.393 . S
C675 C682 1.500 . S
C676 C677 1.400 . S
C676 C678 1.384 . S
C677 C675 1.382 . S
C677 C676 1.400 . S
C677 H694 0.930 . S
C678 C676 1.384 . S
C678 C680 1.392 . S
C678 H695 0.931 . S
C679 C675 1.393 . S
C679 C680 1.401 . S
C679 H696 0.930 . S
C680 C678 1.392 . S
C680 C679 1.401 . S
C680 H697 0.930 . S
C681 O664 1.262 . S
C681 O665 1.260 . S
C682 Tb618 2.833 . S
C682 O662 1.251 . S
C682 O667 1.256 . S
C682 C675 1.500 . S
C683 H648 0.929 . S
C683 C661 1.444 . S
C683 C684 1.317 . S
C684 H646 0.930 . S
C684 C652 1.432 . S
C684 C683 1.317 . S
C685 O669 1.283 . S
C685 O672 1.243 . S
C686 C687 1.382 . S
C686 C690 1.393 . S
C686 C693 1.500 . S
C687 C686 1.382 . S
C687 C688 1.400 . S
C687 H698 0.930 . S
C688 C687 1.400 . S
C688 C689 1.384 . S
C689 C688 1.384 . S
C689 C691 1.392 . S
C689 H699 0.931 . S
C690 C686 1.393 . S
C690 C691 1.401 . S
C690 H700 0.930 . S
C691 C689 1.392 . S
C691 C690 1.401 . S
C691 H701 0.930 . S
C692 O670 1.262 . S
C692 O671 1.260 . S
C693 Tb629 2.833 . S
C693 O668 1.251 . S
C693 O673 1.256 . S
C693 C686 1.500 . S
H694 C677 0.930 . S
H695 C678 0.931 . S
H696 C679 0.930 . S
H697 C680 0.930 . S
H698 C687 0.930 . S
H699 C689 0.931 . S
H700 C690 0.930 . S
H701 C691 0.930 . S
Tb702 N733 2.660 . S
Tb702 N740 2.600 . S
Tb702 O746 2.546 . S
Tb702 O747 2.610 . S
Tb702 O749 2.320 . S
Tb702 O750 2.552 . S
Tb702 O751 2.413 . S
Tb702 O753 2.362 . S
Tb702 O754 2.421 . S
Tb702 C766 2.833 . S
C703 C706 1.432 . S
C703 C707 1.414 . S
C703 N710 1.359 . S
C704 C706 1.417 . S
C704 C708 1.432 . S
C704 C716 1.410 . S
C705 C707 1.444 . S
C705 C708 1.317 . S
C705 H728 0.929 . S
C706 C703 1.432 . S
C706 C704 1.417 . S
C706 N714 1.360 . S
C707 C703 1.414 . S
C707 C705 1.444 . S
C707 C712 1.385 . S
C708 C704 1.432 . S
C708 C705 1.317 . S
C708 H720 0.930 . S
C709 C711 1.392 . S
C709 C712 1.370 . S
C709 H721 0.931 . S
N710 C703 1.359 . S
N710 C711 1.327 . S
N710 Tb713 2.600 . S
C711 C709 1.392 . S
C711 N710 1.327 . S
C711 H718 0.930 . S
C712 C707 1.385 . S
C712 C709 1.370 . S
C712 H731 0.930 . S
Tb713 N710 2.600 . S
Tb713 N714 2.660 . S
Tb713 O747 2.362 . S
Tb713 O748 2.421 . S
Tb713 O752 2.546 . S
Tb713 O753 2.610 . S
Tb713 O755 2.320 . S
Tb713 O756 2.552 . S
Tb713 O757 2.413 . S
Tb713 C777 2.833 . S
N714 C706 1.360 . S
N714 Tb713 2.660 . S
N714 C715 1.305 . S
C715 N714 1.305 . S
C715 C717 1.407 . S
C715 H722 0.930 . S
C716 C704 1.410 . S
C716 C717 1.345 . S
C716 H724 0.930 . S
C717 C715 1.407 . S
C717 C716 1.345 . S
C717 H719 0.930 . S
H718 C711 0.930 . S
H719 C717 0.930 . S
H720 C708 0.930 . S
H721 C709 0.931 . S
H722 C715 0.930 . S
H723 C737 0.930 . S
H724 C716 0.930 . S
H725 C743 0.930 . S
H726 C734 0.930 . S
H727 C741 0.931 . S
H728 C705 0.929 . S
H729 C735 0.930 . S
H730 C768 0.930 . S
H731 C712 0.930 . S
H732 C767 0.929 . S
N733 Tb702 2.660 . S
N733 C734 1.305 . S
N733 C738 1.360 . S
C734 H726 0.930 . S
C734 N733 1.305 . S
C734 C737 1.407 . S
C735 H729 0.930 . S
C735 C736 1.410 . S
C735 C737 1.345 . S
C736 C735 1.410 . S
C736 C738 1.417 . S
C736 C768 1.432 . S
C737 H723 0.930 . S
C737 C734 1.407 . S
C737 C735 1.345 . S
C738 N733 1.360 . S
C738 C736 1.417 . S
C738 C742 1.432 . S
H739 C744 0.930 . S
N740 Tb702 2.600 . S
N740 C742 1.359 . S
N740 C743 1.327 . S
C741 H727 0.931 . S
C741 C743 1.392 . S
C741 C744 1.370 . S
C742 C738 1.432 . S
C742 N740 1.359 . S
C742 C745 1.414 . S
C743 H725 0.930 . S
C743 N740 1.327 . S
C743 C741 1.392 . S
C744 H739 0.930 . S
C744 C741 1.370 . S
C744 C745 1.385 . S
C745 C742 1.414 . S
C745 C744 1.385 . S
C745 C767 1.444 . S
O746 Tb702 2.546 . S
O746 C766 1.251 . S
O747 Tb702 2.610 . S
O747 Tb713 2.362 . S
O747 C758 1.283 . S
O748 Tb713 2.421 . S
O748 C765 1.262 . S
O749 Tb702 2.320 . S
O749 C765 1.260 . S
O750 Tb702 2.552 . S
O750 C758 1.243 . S
O751 Tb702 2.413 . S
O751 C766 1.256 . S
O752 Tb713 2.546 . S
O752 C777 1.251 . S
O753 Tb702 2.362 . S
O753 Tb713 2.610 . S
O753 C769 1.283 . S
O754 Tb702 2.421 . S
O754 C776 1.262 . S
O755 Tb713 2.320 . S
O755 C776 1.260 . S
O756 Tb713 2.552 . S
O756 C769 1.243 . S
O757 Tb713 2.413 . S
O757 C777 1.256 . S
C758 O747 1.283 . S
C758 O750 1.243 . S
C759 C761 1.382 . S
C759 C763 1.393 . S
C759 C766 1.500 . S
C760 C761 1.400 . S
C760 C762 1.384 . S
C761 C759 1.382 . S
C761 C760 1.400 . S
C761 H778 0.930 . S
C762 C760 1.384 . S
C762 C764 1.392 . S
C762 H779 0.931 . S
C763 C759 1.393 . S
C763 C764 1.401 . S
C763 H780 0.930 . S
C764 C762 1.392 . S
C764 C763 1.401 . S
C764 H781 0.930 . S
C765 O748 1.262 . S
C765 O749 1.260 . S
C766 Tb702 2.833 . S
C766 O746 1.251 . S
C766 O751 1.256 . S
C766 C759 1.500 . S
C767 H732 0.929 . S
C767 C745 1.444 . S
C767 C768 1.317 . S
C768 H730 0.930 . S
C768 C736 1.432 . S
C768 C767 1.317 . S
C769 O753 1.283 . S
C769 O756 1.243 . S
C770 C771 1.382 . S
C770 C774 1.393 . S
C770 C777 1.500 . S
C771 C770 1.382 . S
C771 C772 1.400 . S
C771 H782 0.930 . S
C772 C771 1.400 . S
C772 C773 1.384 . S
C773 C772 1.384 . S
C773 C775 1.392 . S
C773 H783 0.931 . S
C774 C770 1.393 . S
C774 C775 1.401 . S
C774 H784 0.930 . S
C775 C773 1.392 . S
C775 C774 1.401 . S
C775 H785 0.930 . S
C776 O754 1.262 . S
C776 O755 1.260 . S
C777 Tb713 2.833 . S
C777 O752 1.251 . S
C777 O757 1.256 . S
C777 C770 1.500 . S
H778 C761 0.930 . S
H779 C762 0.931 . S
H780 C763 0.930 . S
H781 C764 0.930 . S
H782 C771 0.930 . S
H783 C773 0.931 . S
H784 C774 0.930 . S
H785 C775 0.930 . S
Tb786 N817 2.660 . S
Tb786 N824 2.600 . S
Tb786 O830 2.546 . S
Tb786 O831 2.610 . S
Tb786 O833 2.320 . S
Tb786 O834 2.552 . S
Tb786 O835 2.413 . S
Tb786 O837 2.362 . S
Tb786 O838 2.421 . S
Tb786 C850 2.833 . S
C787 C790 1.432 . S
C787 C791 1.414 . S
C787 N794 1.359 . S
C788 C790 1.417 . S
C788 C792 1.432 . S
C788 C800 1.410 . S
C789 C791 1.444 . S
C789 C792 1.317 . S
C789 H812 0.929 . S
C790 C787 1.432 . S
C790 C788 1.417 . S
C790 N798 1.360 . S
C791 C787 1.414 . S
C791 C789 1.444 . S
C791 C796 1.385 . S
C792 C788 1.432 . S
C792 C789 1.317 . S
C792 H804 0.930 . S
C793 C795 1.392 . S
C793 C796 1.370 . S
C793 H805 0.931 . S
N794 C787 1.359 . S
N794 C795 1.327 . S
N794 Tb797 2.600 . S
C795 C793 1.392 . S
C795 N794 1.327 . S
C795 H802 0.930 . S
C796 C791 1.385 . S
C796 C793 1.370 . S
C796 H815 0.930 . S
Tb797 N794 2.600 . S
Tb797 N798 2.660 . S
Tb797 O831 2.362 . S
Tb797 O832 2.421 . S
Tb797 O836 2.546 . S
Tb797 O837 2.610 . S
Tb797 O839 2.320 . S
Tb797 O840 2.552 . S
Tb797 O841 2.413 . S
Tb797 C861 2.833 . S
N798 C790 1.360 . S
N798 Tb797 2.660 . S
N798 C799 1.305 . S
C799 N798 1.305 . S
C799 C801 1.407 . S
C799 H806 0.930 . S
C800 C788 1.410 . S
C800 C801 1.345 . S
C800 H808 0.930 . S
C801 C799 1.407 . S
C801 C800 1.345 . S
C801 H803 0.930 . S
H802 C795 0.930 . S
H803 C801 0.930 . S
H804 C792 0.930 . S
H805 C793 0.931 . S
H806 C799 0.930 . S
H807 C821 0.930 . S
H808 C800 0.930 . S
H809 C827 0.930 . S
H810 C818 0.930 . S
H811 C825 0.931 . S
H812 C789 0.929 . S
H813 C819 0.930 . S
H814 C852 0.930 . S
H815 C796 0.930 . S
H816 C851 0.929 . S
N817 Tb786 2.660 . S
N817 C818 1.305 . S
N817 C822 1.360 . S
C818 H810 0.930 . S
C818 N817 1.305 . S
C818 C821 1.407 . S
C819 H813 0.930 . S
C819 C820 1.410 . S
C819 C821 1.345 . S
C820 C819 1.410 . S
C820 C822 1.417 . S
C820 C852 1.432 . S
C821 H807 0.930 . S
C821 C818 1.407 . S
C821 C819 1.345 . S
C822 N817 1.360 . S
C822 C820 1.417 . S
C822 C826 1.432 . S
H823 C828 0.930 . S
N824 Tb786 2.600 . S
N824 C826 1.359 . S
N824 C827 1.327 . S
C825 H811 0.931 . S
C825 C827 1.392 . S
C825 C828 1.370 . S
C826 C822 1.432 . S
C826 N824 1.359 . S
C826 C829 1.414 . S
C827 H809 0.930 . S
C827 N824 1.327 . S
C827 C825 1.392 . S
C828 H823 0.930 . S
C828 C825 1.370 . S
C828 C829 1.385 . S
C829 C826 1.414 . S
C829 C828 1.385 . S
C829 C851 1.444 . S
O830 Tb786 2.546 . S
O830 C850 1.251 . S
O831 Tb786 2.610 . S
O831 Tb797 2.362 . S
O831 C842 1.283 . S
O832 Tb797 2.421 . S
O832 C849 1.262 . S
O833 Tb786 2.320 . S
O833 C849 1.260 . S
O834 Tb786 2.552 . S
O834 C842 1.243 . S
O835 Tb786 2.413 . S
O835 C850 1.256 . S
O836 Tb797 2.546 . S
O836 C861 1.251 . S
O837 Tb786 2.362 . S
O837 Tb797 2.610 . S
O837 C853 1.283 . S
O838 Tb786 2.421 . S
O838 C860 1.262 . S
O839 Tb797 2.320 . S
O839 C860 1.260 . S
O840 Tb797 2.552 . S
O840 C853 1.243 . S
O841 Tb797 2.413 . S
O841 C861 1.256 . S
C842 O831 1.283 . S
C842 O834 1.243 . S
C843 C845 1.382 . S
C843 C847 1.393 . S
C843 C850 1.500 . S
C844 C845 1.400 . S
C844 C846 1.384 . S
C845 C843 1.382 . S
C845 C844 1.400 . S
C845 H862 0.930 . S
C846 C844 1.384 . S
C846 C848 1.392 . S
C846 H863 0.931 . S
C847 C843 1.393 . S
C847 C848 1.401 . S
C847 H864 0.930 . S
C848 C846 1.392 . S
C848 C847 1.401 . S
C848 H865 0.930 . S
C849 O832 1.262 . S
C849 O833 1.260 . S
C850 Tb786 2.833 . S
C850 O830 1.251 . S
C850 O835 1.256 . S
C850 C843 1.500 . S
C851 H816 0.929 . S
C851 C829 1.444 . S
C851 C852 1.317 . S
C852 H814 0.930 . S
C852 C820 1.432 . S
C852 C851 1.317 . S
C853 O837 1.283 . S
C853 O840 1.243 . S
C854 C855 1.382 . S
C854 C858 1.393 . S
C854 C861 1.500 . S
C855 C854 1.382 . S
C855 C856 1.400 . S
C855 H866 0.930 . S
C856 C855 1.400 . S
C856 C857 1.384 . S
C857 C856 1.384 . S
C857 C859 1.392 . S
C857 H867 0.931 . S
C858 C854 1.393 . S
C858 C859 1.401 . S
C858 H868 0.930 . S
C859 C857 1.392 . S
C859 C858 1.401 . S
C859 H869 0.930 . S
C860 O838 1.262 . S
C860 O839 1.260 . S
C861 Tb797 2.833 . S
C861 O836 1.251 . S
C861 O841 1.256 . S
C861 C854 1.500 . S
H862 C845 0.930 . S
H863 C846 0.931 . S
H864 C847 0.930 . S
H865 C848 0.930 . S
H866 C855 0.930 . S
H867 C857 0.931 . S
H868 C858 0.930 . S
H869 C859 0.930 . S
Tb870 N901 2.660 . S
Tb870 N908 2.600 . S
Tb870 O914 2.546 . S
Tb870 O915 2.610 . S
Tb870 O917 2.320 . S
Tb870 O918 2.552 . S
Tb870 O919 2.413 . S
Tb870 O921 2.362 . S
Tb870 O922 2.421 . S
Tb870 C934 2.833 . S
C871 C874 1.432 . S
C871 C875 1.414 . S
C871 N878 1.359 . S
C872 C874 1.417 . S
C872 C876 1.432 . S
C872 C884 1.410 . S
C873 C875 1.444 . S
C873 C876 1.317 . S
C873 H896 0.929 . S
C874 C871 1.432 . S
C874 C872 1.417 . S
C874 N882 1.360 . S
C875 C871 1.414 . S
C875 C873 1.444 . S
C875 C880 1.385 . S
C876 C872 1.432 . S
C876 C873 1.317 . S
C876 H888 0.930 . S
C877 C879 1.392 . S
C877 C880 1.370 . S
C877 H889 0.931 . S
N878 C871 1.359 . S
N878 C879 1.327 . S
N878 Tb881 2.600 . S
C879 C877 1.392 . S
C879 N878 1.327 . S
C879 H886 0.930 . S
C880 C875 1.385 . S
C880 C877 1.370 . S
C880 H899 0.930 . S
Tb881 N878 2.600 . S
Tb881 N882 2.660 . S
Tb881 O915 2.362 . S
Tb881 O916 2.421 . S
Tb881 O920 2.546 . S
Tb881 O921 2.610 . S
Tb881 O923 2.320 . S
Tb881 O924 2.552 . S
Tb881 O925 2.413 . S
Tb881 C945 2.833 . S
N882 C874 1.360 . S
N882 Tb881 2.660 . S
N882 C883 1.305 . S
C883 N882 1.305 . S
C883 C885 1.407 . S
C883 H890 0.930 . S
C884 C872 1.410 . S
C884 C885 1.345 . S
C884 H892 0.930 . S
C885 C883 1.407 . S
C885 C884 1.345 . S
C885 H887 0.930 . S
H886 C879 0.930 . S
H887 C885 0.930 . S
H888 C876 0.930 . S
H889 C877 0.931 . S
H890 C883 0.930 . S
H891 C905 0.930 . S
H892 C884 0.930 . S
H893 C911 0.930 . S
H894 C902 0.930 . S
H895 C909 0.931 . S
H896 C873 0.929 . S
H897 C903 0.930 . S
H898 C936 0.930 . S
H899 C880 0.930 . S
H900 C935 0.929 . S
N901 Tb870 2.660 . S
N901 C902 1.305 . S
N901 C906 1.360 . S
C902 H894 0.930 . S
C902 N901 1.305 . S
C902 C905 1.407 . S
C903 H897 0.930 . S
C903 C904 1.410 . S
C903 C905 1.345 . S
C904 C903 1.410 . S
C904 C906 1.417 . S
C904 C936 1.432 . S
C905 H891 0.930 . S
C905 C902 1.407 . S
C905 C903 1.345 . S
C906 N901 1.360 . S
C906 C904 1.417 . S
C906 C910 1.432 . S
H907 C912 0.930 . S
N908 Tb870 2.600 . S
N908 C910 1.359 . S
N908 C911 1.327 . S
C909 H895 0.931 . S
C909 C911 1.392 . S
C909 C912 1.370 . S
C910 C906 1.432 . S
C910 N908 1.359 . S
C910 C913 1.414 . S
C911 H893 0.930 . S
C911 N908 1.327 . S
C911 C909 1.392 . S
C912 H907 0.930 . S
C912 C909 1.370 . S
C912 C913 1.385 . S
C913 C910 1.414 . S
C913 C912 1.385 . S
C913 C935 1.444 . S
O914 Tb870 2.546 . S
O914 C934 1.251 . S
O915 Tb870 2.610 . S
O915 Tb881 2.362 . S
O915 C926 1.283 . S
O916 Tb881 2.421 . S
O916 C933 1.262 . S
O917 Tb870 2.320 . S
O917 C933 1.260 . S
O918 Tb870 2.552 . S
O918 C926 1.243 . S
O919 Tb870 2.413 . S
O919 C934 1.256 . S
O920 Tb881 2.546 . S
O920 C945 1.251 . S
O921 Tb870 2.362 . S
O921 Tb881 2.610 . S
O921 C937 1.283 . S
O922 Tb870 2.421 . S
O922 C944 1.262 . S
O923 Tb881 2.320 . S
O923 C944 1.260 . S
O924 Tb881 2.552 . S
O924 C937 1.243 . S
O925 Tb881 2.413 . S
O925 C945 1.256 . S
C926 O915 1.283 . S
C926 O918 1.243 . S
C927 C929 1.382 . S
C927 C931 1.393 . S
C927 C934 1.500 . S
C928 C929 1.400 . S
C928 C930 1.384 . S
C929 C927 1.382 . S
C929 C928 1.400 . S
C929 H946 0.930 . S
C930 C928 1.384 . S
C930 C932 1.392 . S
C930 H947 0.931 . S
C931 C927 1.393 . S
C931 C932 1.401 . S
C931 H948 0.930 . S
C932 C930 1.392 . S
C932 C931 1.401 . S
C932 H949 0.930 . S
C933 O916 1.262 . S
C933 O917 1.260 . S
C934 Tb870 2.833 . S
C934 O914 1.251 . S
C934 O919 1.256 . S
C934 C927 1.500 . S
C935 H900 0.929 . S
C935 C913 1.444 . S
C935 C936 1.317 . S
C936 H898 0.930 . S
C936 C904 1.432 . S
C936 C935 1.317 . S
C937 O921 1.283 . S
C937 O924 1.243 . S
C938 C939 1.382 . S
C938 C942 1.393 . S
C938 C945 1.500 . S
C939 C938 1.382 . S
C939 C940 1.400 . S
C939 H950 0.930 . S
C940 C939 1.400 . S
C940 C941 1.384 . S
C941 C940 1.384 . S
C941 C943 1.392 . S
C941 H951 0.931 . S
C942 C938 1.393 . S
C942 C943 1.401 . S
C942 H952 0.930 . S
C943 C941 1.392 . S
C943 C942 1.401 . S
C943 H953 0.930 . S
C944 O922 1.262 . S
C944 O923 1.260 . S
C945 Tb881 2.833 . S
C945 O920 1.251 . S
C945 O925 1.256 . S
C945 C938 1.500 . S
H946 C929 0.930 . S
H947 C930 0.931 . S
H948 C931 0.930 . S
H949 C932 0.930 . S
H950 C939 0.930 . S
H951 C941 0.931 . S
H952 C942 0.930 . S
H953 C943 0.930 . S
H954 C962 0.929 . S
H955 C964 0.930 . S
H956 C966 0.930 . S
H957 C969 0.929 . S
H958 C972 0.930 . S
H959 C974 0.960 . S
H960 C974 0.960 . S
H961 C974 0.960 . S
C962 H954 0.929 . S
C962 C963 1.377 . S
C962 C964 1.384 . S
C963 C962 1.377 . S
C963 C969 1.390 . S
C964 H955 0.930 . S
C964 C962 1.384 . S
C964 C965 1.372 . S
C965 C964 1.372 . S
C965 C966 1.400 . S
C965 C970 1.490 . S
C966 H956 0.930 . S
C966 C965 1.400 . S
C966 C969 1.386 . S
H967 C983 0.930 1_556 S
H968 C984 0.931 . S
C969 H957 0.929 . S
C969 C963 1.390 . S
C969 C966 1.386 . S
C970 C965 1.490 . S
C970 C972 1.395 . S
C970 C973 1.403 . S
H971 C977 0.930 . S
C972 H958 0.930 . S
C972 C970 1.395 . S
C972 C975 1.403 . S
C973 C970 1.403 . S
C973 C974 1.524 . S
C973 C977 1.400 . S
C974 H959 0.960 . S
C974 H960 0.960 . S
C974 H961 0.960 . S
C974 C973 1.524 . S
C975 C972 1.403 . S
C975 C976 1.392 . S
C975 C979 1.495 . S
C976 C975 1.392 . S
C976 C977 1.385 . S
C976 C978 1.478 . S
C977 H971 0.930 . S
C977 C973 1.400 . S
C977 C976 1.385 . S
C978 C976 1.478 . S
C978 C980 1.381 . S
C978 C984 1.383 . S
C979 C975 1.495 . S
C979 H985 0.959 . S
C979 H986 0.961 . S
C979 H987 0.960 . S
C980 C978 1.381 . S
C980 C981 1.394 . S
C980 H988 0.930 . S
C981 C980 1.394 . S
C981 C982 1.383 . S
C981 H989 0.929 . S
C982 C981 1.383 . S
C982 C983 1.377 . S
C983 H967 0.930 1_554 S
C983 C982 1.377 . S
C983 C984 1.379 . S
C984 H968 0.931 . S
C984 C978 1.383 . S
C984 C983 1.379 . S
H985 C979 0.959 . S
H986 C979 0.961 . S
H987 C979 0.960 . S
H988 C980 0.930 . S
H989 C981 0.929 . S
H990 C998 0.929 . S
H991 C1000 0.930 . S
H992 C1002 0.930 . S
H993 C1005 0.929 . S
H994 C1008 0.930 . S
H995 C1010 0.960 . S
H996 C1010 0.960 . S
H997 C1010 0.960 . S
C998 H990 0.929 . S
C998 C999 1.377 . S
C998 C1000 1.384 . S
C999 C998 1.377 . S
C999 C1005 1.390 . S
C1000 H991 0.930 . S
C1000 C998 1.384 . S
C1000 C1001 1.372 . S
C1001 C1000 1.372 . S
C1001 C1002 1.400 . S
C1001 C1006 1.490 . S
C1002 H992 0.930 . S
C1002 C1001 1.400 . S
C1002 C1005 1.386 . S
H1003 C1019 0.930 . S
H1004 C1020 0.931 . S
C1005 H993 0.929 . S
C1005 C999 1.390 . S
C1005 C1002 1.386 . S
C1006 C1001 1.490 . S
C1006 C1008 1.395 . S
C1006 C1009 1.403 . S
H1007 C1013 0.930 . S
C1008 H994 0.930 . S
C1008 C1006 1.395 . S
C1008 C1011 1.403 . S
C1009 C1006 1.403 . S
C1009 C1010 1.524 . S
C1009 C1013 1.400 . S
C1010 H995 0.960 . S
C1010 H996 0.960 . S
C1010 H997 0.960 . S
C1010 C1009 1.524 . S
C1011 C1008 1.403 . S
C1011 C1012 1.392 . S
C1011 C1015 1.495 . S
C1012 C1011 1.392 . S
C1012 C1013 1.385 . S
C1012 C1014 1.478 . S
C1013 H1007 0.930 . S
C1013 C1009 1.400 . S
C1013 C1012 1.385 . S
C1014 C1012 1.478 . S
C1014 C1016 1.381 . S
C1014 C1020 1.383 . S
C1015 C1011 1.495 . S
C1015 H1021 0.959 . S
C1015 H1022 0.961 . S
C1015 H1023 0.960 . S
C1016 C1014 1.381 . S
C1016 C1017 1.394 . S
C1016 H1024 0.930 . S
C1017 C1016 1.394 . S
C1017 C1018 1.383 . S
C1017 H1025 0.929 . S
C1018 C1017 1.383 . S
C1018 C1019 1.377 . S
C1019 H1003 0.930 . S
C1019 C1018 1.377 . S
C1019 C1020 1.379 . S
C1020 H1004 0.931 . S
C1020 C1014 1.383 . S
C1020 C1019 1.379 . S
H1021 C1015 0.959 . S
H1022 C1015 0.961 . S
H1023 C1015 0.960 . S
H1024 C1016 0.930 . S
H1025 C1017 0.929 . S
H1026 C1034 0.929 . S
H1027 C1036 0.930 . S
H1028 C1038 0.930 . S
H1029 C1041 0.929 . S
H1030 C1044 0.930 . S
H1031 C1046 0.960 . S
H1032 C1046 0.960 . S
H1033 C1046 0.960 . S
C1034 H1026 0.929 . S
C1034 C1035 1.377 . S
C1034 C1036 1.384 . S
C1035 C1034 1.377 . S
C1035 C1041 1.390 . S
C1036 H1027 0.930 . S
C1036 C1034 1.384 . S
C1036 C1037 1.372 . S
C1037 C1036 1.372 . S
C1037 C1038 1.400 . S
C1037 C1042 1.490 . S
C1038 H1028 0.930 . S
C1038 C1037 1.400 . S
C1038 C1041 1.386 . S
H1039 C1055 0.930 . S
H1040 C1056 0.931 . S
C1041 H1029 0.929 . S
C1041 C1035 1.390 . S
C1041 C1038 1.386 . S
C1042 C1037 1.490 . S
C1042 C1044 1.395 . S
C1042 C1045 1.403 . S
H1043 C1049 0.930 . S
C1044 H1030 0.930 . S
C1044 C1042 1.395 . S
C1044 C1047 1.403 . S
C1045 C1042 1.403 . S
C1045 C1046 1.524 . S
C1045 C1049 1.400 . S
C1046 H1031 0.960 . S
C1046 H1032 0.960 . S
C1046 H1033 0.960 . S
C1046 C1045 1.524 . S
C1047 C1044 1.403 . S
C1047 C1048 1.392 . S
C1047 C1051 1.495 . S
C1048 C1047 1.392 . S
C1048 C1049 1.385 . S
C1048 C1050 1.478 . S
C1049 H1043 0.930 . S
C1049 C1045 1.400 . S
C1049 C1048 1.385 . S
C1050 C1048 1.478 . S
C1050 C1052 1.381 . S
C1050 C1056 1.383 . S
C1051 C1047 1.495 . S
C1051 H1057 0.959 . S
C1051 H1058 0.961 . S
C1051 H1059 0.960 . S
C1052 C1050 1.381 . S
C1052 C1053 1.394 . S
C1052 H1060 0.930 . S
C1053 C1052 1.394 . S
C1053 C1054 1.383 . S
C1053 H1061 0.929 . S
C1054 C1053 1.383 . S
C1054 C1055 1.377 . S
C1055 H1039 0.930 . S
C1055 C1054 1.377 . S
C1055 C1056 1.379 . S
C1056 H1040 0.931 . S
C1056 C1050 1.383 . S
C1056 C1055 1.379 . S
H1057 C1051 0.959 . S
H1058 C1051 0.961 . S
H1059 C1051 0.960 . S
H1060 C1052 0.930 . S
H1061 C1053 0.929 . S
H1062 C1070 0.929 . S
H1063 C1072 0.930 . S
H1064 C1074 0.930 . S
H1065 C1077 0.929 . S
H1066 C1080 0.930 . S
H1067 C1082 0.960 . S
H1068 C1082 0.960 . S
H1069 C1082 0.960 . S
C1070 H1062 0.929 . S
C1070 C1071 1.377 . S
C1070 C1072 1.384 . S
C1071 C1070 1.377 . S
C1071 C1077 1.390 . S
C1072 H1063 0.930 . S
C1072 C1070 1.384 . S
C1072 C1073 1.372 . S
C1073 C1072 1.372 . S
C1073 C1074 1.400 . S
C1073 C1078 1.490 . S
C1074 H1064 0.930 . S
C1074 C1073 1.400 . S
C1074 C1077 1.386 . S
H1075 C1091 0.930 . S
H1076 C1092 0.931 . S
C1077 H1065 0.929 . S
C1077 C1071 1.390 . S
C1077 C1074 1.386 . S
C1078 C1073 1.490 . S
C1078 C1080 1.395 . S
C1078 C1081 1.403 . S
H1079 C1085 0.930 . S
C1080 H1066 0.930 . S
C1080 C1078 1.395 . S
C1080 C1083 1.403 . S
C1081 C1078 1.403 . S
C1081 C1082 1.524 . S
C1081 C1085 1.400 . S
C1082 H1067 0.960 . S
C1082 H1068 0.960 . S
C1082 H1069 0.960 . S
C1082 C1081 1.524 . S
C1083 C1080 1.403 . S
C1083 C1084 1.392 . S
C1083 C1087 1.495 . S
C1084 C1083 1.392 . S
C1084 C1085 1.385 . S
C1084 C1086 1.478 . S
C1085 H1079 0.930 . S
C1085 C1081 1.400 . S
C1085 C1084 1.385 . S
C1086 C1084 1.478 . S
C1086 C1088 1.381 . S
C1086 C1092 1.383 . S
C1087 C1083 1.495 . S
C1087 H1093 0.959 . S
C1087 H1094 0.961 . S
C1087 H1095 0.960 . S
C1088 C1086 1.381 . S
C1088 C1089 1.394 1_556 S
C1088 H1096 0.930 1_556 S
C1089 C1088 1.394 1_554 S
C1089 C1090 1.383 1_554 S
C1089 H1097 0.929 . S
C1090 C1089 1.383 1_556 S
C1090 C1091 1.377 . S
C1091 H1075 0.930 . S
C1091 C1090 1.377 . S
C1091 C1092 1.379 . S
C1092 H1076 0.931 . S
C1092 C1086 1.383 . S
C1092 C1091 1.379 . S
H1093 C1087 0.959 . S
H1094 C1087 0.961 . S
H1095 C1087 0.960 . S
H1096 C1088 0.930 1_554 S
H1097 C1089 0.929 . S
H1098 C1106 0.929 . S
H1099 C1108 0.930 . S
H1100 C1110 0.930 . S
H1101 C1113 0.929 . S
H1102 C1116 0.930 . S
H1103 C1118 0.960 . S
H1104 C1118 0.960 . S
H1105 C1118 0.960 . S
C1106 H1098 0.929 . S
C1106 C1107 1.377 . S
C1106 C1108 1.384 . S
C1107 C1106 1.377 . S
C1107 C1113 1.390 . S
C1108 H1099 0.930 . S
C1108 C1106 1.384 . S
C1108 C1109 1.372 . S
C1109 C1108 1.372 . S
C1109 C1110 1.400 . S
C1109 C1114 1.490 . S
C1110 H1100 0.930 . S
C1110 C1109 1.400 . S
C1110 C1113 1.386 . S
H1111 C1127 0.930 . S
H1112 C1128 0.931 . S
C1113 H1101 0.929 . S
C1113 C1107 1.390 . S
C1113 C1110 1.386 . S
C1114 C1109 1.490 . S
C1114 C1116 1.395 . S
C1114 C1117 1.403 . S
H1115 C1121 0.930 . S
C1116 H1102 0.930 . S
C1116 C1114 1.395 . S
C1116 C1119 1.403 . S
C1117 C1114 1.403 . S
C1117 C1118 1.524 . S
C1117 C1121 1.400 . S
C1118 H1103 0.960 . S
C1118 H1104 0.960 . S
C1118 H1105 0.960 . S
C1118 C1117 1.524 . S
C1119 C1116 1.403 . S
C1119 C1120 1.392 . S
C1119 C1123 1.495 1_556 S
C1120 C1119 1.392 . S
C1120 C1121 1.385 . S
C1120 C1122 1.478 . S
C1121 H1115 0.930 . S
C1121 C1117 1.400 . S
C1121 C1120 1.385 . S
C1122 C1120 1.478 . S
C1122 C1124 1.381 . S
C1122 C1128 1.383 . S
C1123 C1119 1.495 1_554 S
C1123 H1129 0.959 . S
C1123 H1130 0.961 1_554 S
C1123 H1131 0.960 . S
C1124 C1122 1.381 . S
C1124 C1125 1.394 1_556 S
C1124 H1132 0.930 1_556 S
C1125 C1124 1.394 1_554 S
C1125 C1126 1.383 1_554 S
C1125 H1133 0.929 . S
C1126 C1125 1.383 1_556 S
C1126 C1127 1.377 . S
C1127 H1111 0.930 . S
C1127 C1126 1.377 . S
C1127 C1128 1.379 . S
C1128 H1112 0.931 . S
C1128 C1122 1.383 . S
C1128 C1127 1.379 . S
H1129 C1123 0.959 . S
H1130 C1123 0.961 1_556 S
H1131 C1123 0.960 . S
H1132 C1124 0.930 1_554 S
H1133 C1125 0.929 . S
H1134 C1142 0.929 . S
H1135 C1144 0.930 . S
H1136 C1146 0.930 . S
H1137 C1149 0.929 . S
H1138 C1152 0.930 . S
H1139 C1154 0.960 1_554 S
H1140 C1154 0.960 1_554 S
H1141 C1154 0.960 . S
C1142 H1134 0.929 . S
C1142 C1143 1.377 . S
C1142 C1144 1.384 . S
C1143 C1142 1.377 . S
C1143 C1149 1.390 . S
C1144 H1135 0.930 . S
C1144 C1142 1.384 . S
C1144 C1145 1.372 . S
C1145 C1144 1.372 . S
C1145 C1146 1.400 . S
C1145 C1150 1.490 . S
C1146 H1136 0.930 . S
C1146 C1145 1.400 . S
C1146 C1149 1.386 . S
H1147 C1163 0.930 . S
H1148 C1164 0.931 . S
C1149 H1137 0.929 . S
C1149 C1143 1.390 . S
C1149 C1146 1.386 . S
C1150 C1145 1.490 . S
C1150 C1152 1.395 . S
C1150 C1153 1.403 . S
H1151 C1157 0.930 . S
C1152 H1138 0.930 . S
C1152 C1150 1.395 . S
C1152 C1155 1.403 . S
C1153 C1150 1.403 . S
C1153 C1154 1.524 . S
C1153 C1157 1.400 . S
C1154 H1139 0.960 1_556 S
C1154 H1140 0.960 1_556 S
C1154 H1141 0.960 . S
C1154 C1153 1.524 . S
C1155 C1152 1.403 . S
C1155 C1156 1.392 . S
C1155 C1159 1.495 . S
C1156 C1155 1.392 . S
C1156 C1157 1.385 . S
C1156 C1158 1.478 . S
C1157 H1151 0.930 . S
C1157 C1153 1.400 . S
C1157 C1156 1.385 . S
C1158 C1156 1.478 . S
C1158 C1160 1.381 . S
C1158 C1164 1.383 . S
C1159 C1155 1.495 . S
C1159 H1165 0.959 . S
C1159 H1166 0.961 . S
C1159 H1167 0.960 . S
C1160 C1158 1.381 . S
C1160 C1161 1.371 1_556 S
C1160 H1168 0.935 . S
C1161 C1160 1.371 1_554 S
C1161 C1162 1.363 1_554 S
C1161 H1169 0.979 . S
C1162 C1161 1.363 1_556 S
C1162 C1163 1.377 . S
C1163 H1147 0.930 . S
C1163 C1162 1.377 . S
C1163 C1164 1.379 . S
C1164 H1148 0.931 . S
C1164 C1158 1.383 . S
C1164 C1163 1.379 . S
H1165 C1159 0.959 . S
H1166 C1159 0.961 . S
H1167 C1159 0.960 . S
H1168 C1160 0.935 . S
H1169 C1161 0.979 . S
H1170 C1178 0.929 . S
H1171 C1180 0.930 . S
H1172 C1182 0.930 . S
H1173 C1185 0.929 . S
H1174 C1188 0.930 . S
H1175 C1190 0.960 . S
H1176 C1190 0.960 . S
H1177 C1190 0.960 . S
C1178 H1170 0.929 . S
C1178 C1179 1.377 . S
C1178 C1180 1.384 . S
C1179 C1178 1.377 . S
C1179 C1185 1.390 . S
C1180 H1171 0.930 . S
C1180 C1178 1.384 . S
C1180 C1181 1.372 . S
C1181 C1180 1.372 . S
C1181 C1182 1.400 . S
C1181 C1186 1.490 . S
C1182 H1172 0.930 . S
C1182 C1181 1.400 . S
C1182 C1185 1.386 . S
H1183 C1199 0.930 . S
H1184 C1200 0.931 . S
C1185 H1173 0.929 . S
C1185 C1179 1.390 . S
C1185 C1182 1.386 . S
C1186 C1181 1.490 . S
C1186 C1188 1.395 . S
C1186 C1189 1.403 . S
H1187 C1193 0.930 . S
C1188 H1174 0.930 . S
C1188 C1186 1.395 . S
C1188 C1191 1.403 . S
C1189 C1186 1.403 . S
C1189 C1190 1.524 . S
C1189 C1193 1.400 . S
C1190 H1175 0.960 . S
C1190 H1176 0.960 . S
C1190 H1177 0.960 . S
C1190 C1189 1.524 . S
C1191 C1188 1.403 . S
C1191 C1192 1.392 . S
C1191 C1195 1.495 . S
C1192 C1191 1.392 . S
C1192 C1193 1.385 . S
C1192 C1194 1.478 . S
C1193 H1187 0.930 . S
C1193 C1189 1.400 . S
C1193 C1192 1.385 . S
C1194 C1192 1.478 . S
C1194 C1196 1.381 . S
C1194 C1200 1.383 . S
C1195 C1191 1.495 . S
C1195 H1201 0.959 . S
C1195 H1202 0.961 . S
C1195 H1203 0.960 . S
C1196 C1194 1.381 . S
C1196 C1197 1.372 1_556 S
C1196 H1204 0.921 1_556 S
C1197 C1196 1.372 1_554 S
C1197 C1198 1.364 1_554 S
C1197 H1205 0.974 . S
C1198 C1197 1.364 1_556 S
C1198 C1199 1.377 . S
C1199 H1183 0.930 . S
C1199 C1198 1.377 . S
C1199 C1200 1.379 . S
C1200 H1184 0.931 . S
C1200 C1194 1.383 . S
C1200 C1199 1.379 . S
H1201 C1195 0.959 . S
H1202 C1195 0.961 . S
H1203 C1195 0.960 . S
H1204 C1196 0.921 1_554 S
H1205 C1197 0.974 . S
H1206 C1214 0.929 . S
H1207 C1216 0.930 . S
H1208 C1218 0.930 . S
H1209 C1221 0.929 . S
H1210 C1224 0.930 . S
H1211 C1226 0.960 . S
H1212 C1226 0.960 . S
H1213 C1226 0.960 . S
C1214 H1206 0.929 . S
C1214 C1215 1.377 . S
C1214 C1216 1.384 . S
C1215 C1214 1.377 . S
C1215 C1221 1.390 . S
C1216 H1207 0.930 . S
C1216 C1214 1.384 . S
C1216 C1217 1.372 . S
C1217 C1216 1.372 . S
C1217 C1218 1.400 . S
C1217 C1222 1.490 . S
C1218 H1208 0.930 . S
C1218 C1217 1.400 . S
C1218 C1221 1.386 . S
H1219 C1235 0.930 . S
H1220 C1236 0.931 . S
C1221 H1209 0.929 . S
C1221 C1215 1.390 . S
C1221 C1218 1.386 . S
C1222 C1217 1.490 . S
C1222 C1224 1.395 . S
C1222 C1225 1.403 . S
H1223 C1229 0.930 . S
C1224 H1210 0.930 . S
C1224 C1222 1.395 . S
C1224 C1227 1.403 . S
C1225 C1222 1.403 . S
C1225 C1226 1.524 . S
C1225 C1229 1.400 . S
C1226 H1211 0.960 . S
C1226 H1212 0.960 . S
C1226 H1213 0.960 . S
C1226 C1225 1.524 . S
C1227 C1224 1.403 . S
C1227 C1228 1.392 . S
C1227 C1231 1.495 . S
C1228 C1227 1.392 . S
C1228 C1229 1.385 . S
C1228 C1230 1.478 . S
C1229 H1223 0.930 . S
C1229 C1225 1.400 . S
C1229 C1228 1.385 . S
C1230 C1228 1.478 . S
C1230 C1232 1.381 1_556 S
C1230 C1236 1.383 . S
C1231 C1227 1.495 . S
C1231 H1237 0.959 . S
C1231 H1238 0.961 . S
C1231 H1239 0.960 . S
C1232 C1230 1.381 1_554 S
C1232 C1233 1.394 . S
C1232 H1240 0.930 . S
C1233 C1232 1.394 . S
C1233 C1234 1.383 1_554 S
C1233 H1241 0.929 . S
C1234 C1233 1.383 1_556 S
C1234 C1235 1.377 . S
C1235 H1219 0.930 . S
C1235 C1234 1.377 . S
C1235 C1236 1.379 . S
C1236 H1220 0.931 . S
C1236 C1230 1.383 . S
C1236 C1235 1.379 . S
H1237 C1231 0.959 . S
H1238 C1231 0.961 . S
H1239 C1231 0.960 . S
H1240 C1232 0.930 . S
H1241 C1233 0.929 . S
H1242 C1250 0.929 . S
H1243 C1252 0.930 . S
H1244 C1254 0.930 . S
H1245 C1257 0.929 . S
H1246 C1260 0.930 . S
H1247 C1262 0.960 . S
H1248 C1262 0.960 . S
H1249 C1262 0.960 . S
C1250 H1242 0.929 . S
C1250 C1251 1.377 . S
C1250 C1252 1.384 . S
C1251 C1250 1.377 . S
C1251 C1257 1.390 . S
C1252 H1243 0.930 . S
C1252 C1250 1.384 . S
C1252 C1253 1.372 . S
C1253 C1252 1.372 . S
C1253 C1254 1.400 . S
C1253 C1258 1.490 . S
C1254 H1244 0.930 . S
C1254 C1253 1.400 . S
C1254 C1257 1.386 . S
H1255 C1271 0.930 . S
H1256 C1272 0.931 . S
C1257 H1245 0.929 . S
C1257 C1251 1.390 . S
C1257 C1254 1.386 . S
C1258 C1253 1.490 . S
C1258 C1260 1.395 . S
C1258 C1261 1.403 . S
H1259 C1265 0.930 . S
C1260 H1246 0.930 . S
C1260 C1258 1.395 . S
C1260 C1263 1.403 . S
C1261 C1258 1.403 . S
C1261 C1262 1.524 . S
C1261 C1265 1.400 . S
C1262 H1247 0.960 . S
C1262 H1248 0.960 . S
C1262 H1249 0.960 . S
C1262 C1261 1.524 . S
C1263 C1260 1.403 . S
C1263 C1264 1.392 . S
C1263 C1267 1.495 . S
C1264 C1263 1.392 . S
C1264 C1265 1.385 . S
C1264 C1266 1.478 . S
C1265 H1259 0.930 . S
C1265 C1261 1.400 . S
C1265 C1264 1.385 . S
C1266 C1264 1.478 . S
C1266 C1268 1.381 . S
C1266 C1272 1.383 . S
C1267 C1263 1.495 . S
C1267 H1273 0.959 . S
C1267 H1274 0.961 . S
C1267 H1275 0.960 . S
C1268 C1266 1.381 . S
C1268 C1269 1.394 . S
C1268 H1276 0.930 1_556 S
C1269 C1268 1.394 . S
C1269 C1270 1.383 . S
C1269 H1277 0.929 1_556 S
C1270 C1269 1.383 . S
C1270 C1271 1.377 . S
C1271 H1255 0.930 . S
C1271 C1270 1.377 . S
C1271 C1272 1.379 . S
C1272 H1256 0.931 . S
C1272 C1266 1.383 . S
C1272 C1271 1.379 . S
H1273 C1267 0.959 . S
H1274 C1267 0.961 . S
H1275 C1267 0.960 . S
H1276 C1268 0.930 1_554 S
H1277 C1269 0.929 1_554 S
H1278 C1286 0.929 . S
H1279 C1288 0.930 . S
H1280 C1290 0.930 . S
H1281 C1293 0.929 . S
H1282 C1296 0.930 . S
H1283 C1298 0.960 . S
H1284 C1298 0.960 . S
H1285 C1298 0.960 . S
C1286 H1278 0.929 . S
C1286 C1287 1.377 . S
C1286 C1288 1.384 . S
C1287 C1286 1.377 . S
C1287 C1293 1.390 . S
C1288 H1279 0.930 . S
C1288 C1286 1.384 . S
C1288 C1289 1.372 . S
C1289 C1288 1.372 . S
C1289 C1290 1.400 . S
C1289 C1294 1.490 . S
C1290 H1280 0.930 . S
C1290 C1289 1.400 . S
C1290 C1293 1.386 . S
H1291 C1307 0.930 . S
H1292 C1308 0.931 . S
C1293 H1281 0.929 . S
C1293 C1287 1.390 . S
C1293 C1290 1.386 . S
C1294 C1289 1.490 . S
C1294 C1296 1.395 . S
C1294 C1297 1.403 . S
H1295 C1301 0.930 . S
C1296 H1282 0.930 . S
C1296 C1294 1.395 . S
C1296 C1299 1.403 . S
C1297 C1294 1.403 . S
C1297 C1298 1.524 . S
C1297 C1301 1.400 . S
C1298 H1283 0.960 . S
C1298 H1284 0.960 . S
C1298 H1285 0.960 . S
C1298 C1297 1.524 . S
C1299 C1296 1.403 . S
C1299 C1300 1.392 . S
C1299 C1303 1.495 . S
C1300 C1299 1.392 . S
C1300 C1301 1.385 . S
C1300 C1302 1.478 . S
C1301 H1295 0.930 . S
C1301 C1297 1.400 . S
C1301 C1300 1.385 . S
C1302 C1300 1.478 . S
C1302 C1304 1.381 . S
C1302 C1308 1.383 . S
C1303 C1299 1.495 . S
C1303 H1309 0.970 . S
C1303 H1310 0.962 . S
C1303 H1311 0.960 . S
C1304 C1302 1.381 . S
C1304 C1305 1.394 . S
C1304 H1312 0.930 . S
C1305 C1304 1.394 . S
C1305 C1306 1.383 . S
C1305 H1313 0.929 . S
C1306 C1305 1.383 . S
C1306 C1307 1.377 . S
C1307 H1291 0.930 . S
C1307 C1306 1.377 . S
C1307 C1308 1.379 . S
C1308 H1292 0.931 . S
C1308 C1302 1.383 . S
C1308 C1307 1.379 . S
H1309 C1303 0.970 . S
H1310 C1303 0.962 . S
H1311 C1303 0.960 . S
H1312 C1304 0.930 . S
H1313 C1305 0.929 . S
H1314 C1322 0.929 . S
H1315 C1324 0.930 . S
H1316 C1326 0.930 . S
H1317 C1329 0.929 . S
H1318 C1332 0.930 . S
H1319 C1334 0.960 . S
H1320 C1334 0.960 . S
H1321 C1334 0.960 . S
C1322 H1314 0.929 . S
C1322 C1323 1.377 . S
C1322 C1324 1.384 . S
C1323 C1322 1.377 . S
C1323 C1329 1.390 . S
C1324 H1315 0.930 . S
C1324 C1322 1.384 . S
C1324 C1325 1.372 . S
C1325 C1324 1.372 . S
C1325 C1326 1.400 . S
C1325 C1330 1.490 . S
C1326 H1316 0.930 . S
C1326 C1325 1.400 . S
C1326 C1329 1.386 . S
H1327 C1343 0.930 1_556 S
H1328 C1344 0.931 . S
C1329 H1317 0.929 . S
C1329 C1323 1.390 . S
C1329 C1326 1.386 . S
C1330 C1325 1.490 . S
C1330 C1332 1.395 . S
C1330 C1333 1.403 . S
H1331 C1337 0.930 . S
C1332 H1318 0.930 . S
C1332 C1330 1.395 . S
C1332 C1335 1.403 . S
C1333 C1330 1.403 . S
C1333 C1334 1.524 . S
C1333 C1337 1.400 . S
C1334 H1319 0.960 . S
C1334 H1320 0.960 . S
C1334 H1321 0.960 . S
C1334 C1333 1.524 . S
C1335 C1332 1.403 . S
C1335 C1336 1.392 . S
C1335 C1339 1.495 . S
C1336 C1335 1.392 . S
C1336 C1337 1.385 . S
C1336 C1338 1.478 . S
C1337 H1331 0.930 . S
C1337 C1333 1.400 . S
C1337 C1336 1.385 . S
C1338 C1336 1.478 . S
C1338 C1340 1.381 . S
C1338 C1344 1.383 . S
C1339 C1335 1.495 . S
C1339 H1345 0.959 . S
C1339 H1346 0.961 . S
C1339 H1347 0.960 . S
C1340 C1338 1.381 . S
C1340 C1341 1.394 . S
C1340 H1348 0.930 . S
C1341 C1340 1.394 . S
C1341 C1342 1.383 . S
C1341 H1349 0.929 . S
C1342 C1341 1.383 . S
C1342 C1343 1.377 . S
C1343 H1327 0.930 1_554 S
C1343 C1342 1.377 . S
C1343 C1344 1.379 . S
C1344 H1328 0.931 . S
C1344 C1338 1.383 . S
C1344 C1343 1.379 . S
H1345 C1339 0.959 . S
H1346 C1339 0.961 . S
H1347 C1339 0.960 . S
H1348 C1340 0.930 . S
H1349 C1341 0.929 . S
H1350 C1358 0.929 . S
H1351 C1360 0.930 . S
H1352 C1362 0.930 . S
H1353 C1365 0.929 . S
H1354 C1368 0.930 . S
H1355 C1370 0.960 . S
H1356 C1370 0.960 . S
H1357 C1370 0.960 . S
C1358 H1350 0.929 . S
C1358 C1359 1.377 . S
C1358 C1360 1.384 . S
C1359 C1358 1.377 . S
C1359 C1365 1.390 . S
C1360 H1351 0.930 . S
C1360 C1358 1.384 . S
C1360 C1361 1.372 . S
C1361 C1360 1.372 . S
C1361 C1362 1.400 . S
C1361 C1366 1.490 . S
C1362 H1352 0.930 . S
C1362 C1361 1.400 . S
C1362 C1365 1.386 . S
H1363 C1379 0.930 . S
H1364 C1380 0.931 . S
C1365 H1353 0.929 . S
C1365 C1359 1.390 . S
C1365 C1362 1.386 . S
C1366 C1361 1.490 . S
C1366 C1368 1.395 . S
C1366 C1369 1.403 . S
H1367 C1373 0.930 . S
C1368 H1354 0.930 . S
C1368 C1366 1.395 . S
C1368 C1371 1.403 . S
C1369 C1366 1.403 . S
C1369 C1370 1.524 . S
C1369 C1373 1.400 . S
C1370 H1355 0.960 . S
C1370 H1356 0.960 . S
C1370 H1357 0.960 . S
C1370 C1369 1.524 . S
C1371 C1368 1.403 . S
C1371 C1372 1.392 . S
C1371 C1375 1.495 . S
C1372 C1371 1.392 . S
C1372 C1373 1.385 . S
C1372 C1374 1.478 . S
C1373 H1367 0.930 . S
C1373 C1369 1.400 . S
C1373 C1372 1.385 . S
C1374 C1372 1.478 . S
C1374 C1376 1.381 . S
C1374 C1380 1.383 . S
C1375 C1371 1.495 . S
C1375 H1381 0.959 . S
C1375 H1382 0.961 . S
C1375 H1383 0.960 . S
C1376 C1374 1.381 . S
C1376 C1377 1.394 . S
C1376 H1384 0.930 . S
C1377 C1376 1.394 . S
C1377 C1378 1.383 . S
C1377 H1385 0.929 1_554 S
C1378 C1377 1.383 . S
C1378 C1379 1.377 . S
C1379 H1363 0.930 . S
C1379 C1378 1.377 . S
C1379 C1380 1.379 . S
C1380 H1364 0.931 . S
C1380 C1374 1.383 . S
C1380 C1379 1.379 . S
H1381 C1375 0.959 . S
H1382 C1375 0.961 . S
H1383 C1375 0.960 . S
H1384 C1376 0.930 . S
H1385 C1377 0.929 1_556 S
H1386 C1394 0.929 . S
H1387 C1396 0.930 . S
H1388 C1398 0.930 . S
H1389 C1401 0.929 . S
H1390 C1404 0.930 . S
H1391 C1406 0.960 . S
H1392 C1406 0.960 . S
H1393 C1406 0.960 1_655 S
C1394 H1386 0.929 . S
C1394 C1395 1.377 . S
C1394 C1396 1.384 1_655 S
C1395 C1394 1.377 . S
C1395 C1401 1.390 . S
C1396 H1387 0.930 . S
C1396 C1394 1.384 1_455 S
C1396 C1397 1.372 . S
C1397 C1396 1.372 . S
C1397 C1398 1.400 1_455 S
C1397 C1402 1.490 . S
C1398 H1388 0.930 . S
C1398 C1397 1.400 1_655 S
C1398 C1401 1.386 . S
H1399 C1415 0.930 . S
H1400 C1416 0.931 . S
C1401 H1389 0.929 . S
C1401 C1395 1.390 . S
C1401 C1398 1.386 . S
C1402 C1397 1.490 . S
C1402 C1404 1.395 . S
C1402 C1405 1.403 . S
H1403 C1409 0.930 . S
C1404 H1390 0.930 . S
C1404 C1402 1.395 . S
C1404 C1407 1.403 . S
C1405 C1402 1.403 . S
C1405 C1406 1.524 . S
C1405 C1409 1.400 . S
C1406 H1391 0.960 . S
C1406 H1392 0.960 . S
C1406 H1393 0.960 1_455 S
C1406 C1405 1.524 . S
C1407 C1404 1.403 . S
C1407 C1408 1.392 . S
C1407 C1411 1.495 . S
C1408 C1407 1.392 . S
C1408 C1409 1.385 . S
C1408 C1410 1.478 . S
C1409 H1403 0.930 . S
C1409 C1405 1.400 . S
C1409 C1408 1.385 . S
C1410 C1408 1.478 . S
C1410 C1412 1.381 . S
C1410 C1416 1.383 . S
C1411 C1407 1.495 . S
C1411 H1417 0.959 . S
C1411 H1418 0.961 . S
C1411 H1419 0.960 . S
C1412 C1410 1.381 . S
C1412 C1413 1.394 . S
C1412 H1420 0.930 . S
C1413 C1412 1.394 . S
C1413 C1414 1.383 . S
C1413 H1421 0.929 . S
C1414 C1413 1.383 . S
C1414 C1415 1.377 . S
C1415 H1399 0.930 . S
C1415 C1414 1.377 . S
C1415 C1416 1.379 . S
C1416 H1400 0.931 . S
C1416 C1410 1.383 . S
C1416 C1415 1.379 . S
H1417 C1411 0.959 . S
H1418 C1411 0.961 . S
H1419 C1411 0.960 . S
H1420 C1412 0.930 . S
H1421 C1413 0.929 . S
H1422 C1430 0.929 . S
H1423 C1432 0.930 . S
H1424 C1434 0.930 . S
H1425 C1437 0.929 . S
H1426 C1440 0.930 . S
H1427 C1442 0.960 . S
H1428 C1442 0.960 . S
H1429 C1442 0.960 . S
C1430 H1422 0.929 . S
C1430 C1431 1.377 . S
C1430 C1432 1.384 . S
C1431 C1430 1.377 . S
C1431 C1437 1.390 . S
C1432 H1423 0.930 . S
C1432 C1430 1.384 . S
C1432 C1433 1.372 . S
C1433 C1432 1.372 . S
C1433 C1434 1.400 . S
C1433 C1438 1.490 . S
C1434 H1424 0.930 . S
C1434 C1433 1.400 . S
C1434 C1437 1.386 . S
H1435 C1451 0.930 . S
H1436 C1452 0.931 . S
C1437 H1425 0.929 . S
C1437 C1431 1.390 . S
C1437 C1434 1.386 . S
C1438 C1433 1.490 . S
C1438 C1440 1.395 . S
C1438 C1441 1.403 . S
H1439 C1445 0.930 . S
C1440 H1426 0.930 . S
C1440 C1438 1.395 . S
C1440 C1443 1.403 . S
C1441 C1438 1.403 . S
C1441 C1442 1.524 . S
C1441 C1445 1.400 . S
C1442 H1427 0.960 . S
C1442 H1428 0.960 . S
C1442 H1429 0.960 . S
C1442 C1441 1.524 . S
C1443 C1440 1.403 . S
C1443 C1444 1.392 . S
C1443 C1447 1.495 . S
C1444 C1443 1.392 . S
C1444 C1445 1.385 . S
C1444 C1446 1.478 . S
C1445 H1439 0.930 . S
C1445 C1441 1.400 . S
C1445 C1444 1.385 . S
C1446 C1444 1.478 . S
C1446 C1448 1.381 . S
C1446 C1452 1.383 . S
C1447 C1443 1.495 . S
C1447 H1453 0.959 . S
C1447 H1454 0.961 . S
C1447 H1455 0.960 . S
C1448 C1446 1.381 . S
C1448 C1449 1.394 . S
C1448 H1456 0.930 . S
C1449 C1448 1.394 . S
C1449 C1450 1.383 . S
C1449 H1457 0.929 . S
C1450 C1449 1.383 . S
C1450 C1451 1.377 . S
C1451 H1435 0.930 . S
C1451 C1450 1.377 . S
C1451 C1452 1.379 . S
C1452 H1436 0.931 . S
C1452 C1446 1.383 . S
C1452 C1451 1.379 . S
H1453 C1447 0.959 . S
H1454 C1447 0.961 . S
H1455 C1447 0.960 . S
H1456 C1448 0.930 . S
H1457 C1449 0.929 . S
H1458 C1466 0.929 . S
H1459 C1468 0.930 . S
H1460 C1470 0.930 . S
H1461 C1473 0.929 . S
H1462 C1476 0.884 1_545 S
H1463 C1478 0.960 . S
H1464 C1478 0.960 . S
H1465 C1478 0.960 . S
C1466 H1458 0.929 . S
C1466 C1467 1.377 . S
C1466 C1468 1.384 . S
C1467 C1466 1.377 . S
C1467 C1473 1.390 . S
C1468 H1459 0.930 . S
C1468 C1466 1.384 . S
C1468 C1469 1.372 . S
C1469 C1468 1.372 . S
C1469 C1470 1.400 . S
C1469 C1474 1.490 1_545 S
C1470 H1460 0.930 . S
C1470 C1469 1.400 . S
C1470 C1473 1.386 . S
H1471 C1487 0.930 . S
H1472 C1488 0.931 . S
C1473 H1461 0.929 . S
C1473 C1467 1.390 . S
C1473 C1470 1.386 . S
C1474 C1469 1.490 1_565 S
C1474 C1476 1.395 . S
C1474 C1477 1.403 . S
H1475 C1481 0.930 . S
C1476 H1462 0.884 1_565 S
C1476 C1474 1.395 . S
C1476 C1479 1.403 . S
C1477 C1474 1.403 . S
C1477 C1478 1.524 . S
C1477 C1481 1.400 . S
C1478 H1463 0.960 . S
C1478 H1464 0.960 . S
C1478 H1465 0.960 . S
C1478 C1477 1.524 . S
C1479 C1476 1.403 . S
C1479 C1480 1.392 . S
C1479 C1483 1.495 . S
C1480 C1479 1.392 . S
C1480 C1481 1.385 . S
C1480 C1482 1.478 . S
C1481 H1475 0.930 . S
C1481 C1477 1.400 . S
C1481 C1480 1.385 . S
C1482 C1480 1.478 . S
C1482 C1484 1.381 . S
C1482 C1488 1.383 . S
C1483 C1479 1.495 . S
C1483 H1489 0.959 . S
C1483 H1490 0.961 . S
C1483 H1491 0.960 . S
C1484 C1482 1.381 . S
C1484 C1485 1.394 . S
C1484 H1492 0.930 . S
C1485 C1484 1.394 . S
C1485 C1486 1.383 . S
C1485 H1493 0.929 . S
C1486 C1485 1.383 . S
C1486 C1487 1.377 . S
C1487 H1471 0.930 . S
C1487 C1486 1.377 . S
C1487 C1488 1.379 . S
C1488 H1472 0.931 . S
C1488 C1482 1.383 . S
C1488 C1487 1.379 . S
H1489 C1483 0.959 . S
H1490 C1483 0.961 . S
H1491 C1483 0.960 . S
H1492 C1484 0.930 . S
H1493 C1485 0.929 . S
H1494 C1502 0.929 . S
H1495 C1504 0.930 . S
H1496 C1506 0.930 . S
H1497 C1509 0.929 . S
H1498 C1512 0.930 . S
H1499 C1514 0.960 . S
H1500 C1514 0.960 . S
H1501 C1514 0.960 . S
C1502 H1494 0.929 . S
C1502 C1503 1.377 . S
C1502 C1504 1.384 . S
C1503 C1502 1.377 . S
C1503 C1509 1.390 . S
C1504 H1495 0.930 . S
C1504 C1502 1.384 . S
C1504 C1505 1.372 . S
C1505 C1504 1.372 . S
C1505 C1506 1.400 . S
C1505 C1510 1.490 . S
C1506 H1496 0.930 . S
C1506 C1505 1.400 . S
C1506 C1509 1.386 . S
H1507 C1523 0.930 . S
H1508 C1524 0.931 . S
C1509 H1497 0.929 . S
C1509 C1503 1.390 . S
C1509 C1506 1.386 . S
C1510 C1505 1.490 . S
C1510 C1512 1.395 . S
C1510 C1513 1.403 . S
H1511 C1517 0.930 . S
C1512 H1498 0.930 . S
C1512 C1510 1.395 . S
C1512 C1515 1.403 . S
C1513 C1510 1.403 . S
C1513 C1514 1.524 . S
C1513 C1517 1.400 . S
C1514 H1499 0.960 . S
C1514 H1500 0.960 . S
C1514 H1501 0.960 . S
C1514 C1513 1.524 . S
C1515 C1512 1.403 . S
C1515 C1516 1.392 . S
C1515 C1519 1.495 . S
C1516 C1515 1.392 . S
C1516 C1517 1.385 . S
C1516 C1518 1.478 . S
C1517 H1511 0.930 . S
C1517 C1513 1.400 . S
C1517 C1516 1.385 . S
C1518 C1516 1.478 . S
C1518 C1520 1.381 . S
C1518 C1524 1.383 . S
C1519 C1515 1.495 . S
C1519 H1525 0.959 . S
C1519 H1526 0.961 . S
C1519 H1527 0.960 . S
C1520 C1518 1.381 . S
C1520 C1521 1.394 . S
C1520 H1528 0.930 . S
C1521 C1520 1.394 . S
C1521 C1522 1.383 . S
C1521 H1529 0.929 . S
C1522 C1521 1.383 . S
C1522 C1523 1.377 . S
C1523 H1507 0.930 . S
C1523 C1522 1.377 . S
C1523 C1524 1.379 . S
C1524 H1508 0.931 . S
C1524 C1518 1.383 . S
C1524 C1523 1.379 . S
H1525 C1519 0.959 . S
H1526 C1519 0.961 . S
H1527 C1519 0.960 . S
H1528 C1520 0.930 . S
H1529 C1521 0.929 . S
H1530 C1538 0.929 . S
H1531 C1540 0.930 . S
H1532 C1542 0.930 . S
H1533 C1545 0.929 . S
H1534 C1548 0.930 . S
H1535 C1550 0.960 . S
H1536 C1550 0.960 . S
H1537 C1550 0.960 . S
C1538 H1530 0.929 . S
C1538 C1539 1.377 . S
C1538 C1540 1.384 . S
C1539 C1538 1.377 . S
C1539 C1545 1.390 . S
C1540 H1531 0.930 . S
C1540 C1538 1.384 . S
C1540 C1541 1.372 . S
C1541 C1540 1.372 . S
C1541 C1542 1.400 . S
C1541 C1546 1.490 . S
C1542 H1532 0.930 . S
C1542 C1541 1.400 . S
C1542 C1545 1.386 . S
H1543 C1559 0.930 . S
H1544 C1560 0.931 . S
C1545 H1533 0.929 . S
C1545 C1539 1.390 . S
C1545 C1542 1.386 . S
C1546 C1541 1.490 . S
C1546 C1548 1.395 . S
C1546 C1549 1.403 . S
H1547 C1553 0.930 . S
C1548 H1534 0.930 . S
C1548 C1546 1.395 . S
C1548 C1551 1.403 . S
C1549 C1546 1.403 . S
C1549 C1550 1.524 . S
C1549 C1553 1.400 . S
C1550 H1535 0.960 . S
C1550 H1536 0.960 . S
C1550 H1537 0.960 . S
C1550 C1549 1.524 . S
C1551 C1548 1.403 . S
C1551 C1552 1.392 . S
C1551 C1555 1.495 . S
C1552 C1551 1.392 . S
C1552 C1553 1.385 . S
C1552 C1554 1.478 . S
C1553 H1547 0.930 . S
C1553 C1549 1.400 . S
C1553 C1552 1.385 . S
C1554 C1552 1.478 . S
C1554 C1556 1.381 . S
C1554 C1560 1.383 . S
C1555 C1551 1.495 . S
C1555 H1561 0.959 . S
C1555 H1562 0.961 . S
C1555 H1563 0.960 . S
C1556 C1554 1.381 . S
C1556 C1557 1.394 . S
C1556 H1564 0.930 . S
C1557 C1556 1.394 . S
C1557 C1558 1.383 . S
C1557 H1565 0.929 . S
C1558 C1557 1.383 . S
C1558 C1559 1.377 . S
C1559 H1543 0.930 . S
C1559 C1558 1.377 . S
C1559 C1560 1.379 . S
C1560 H1544 0.931 . S
C1560 C1554 1.383 . S
C1560 C1559 1.379 . S
H1561 C1555 0.959 . S
H1562 C1555 0.961 . S
H1563 C1555 0.960 . S
H1564 C1556 0.930 . S
H1565 C1557 0.929 . S
H1566 C1574 0.929 . S
H1567 C1576 0.930 . S
H1568 C1578 0.930 . S
H1569 C1581 0.929 . S
H1570 C1584 0.930 . S
H1571 C1586 0.960 . S
H1572 C1586 0.960 . S
H1573 C1586 0.960 . S
C1574 H1566 0.929 . S
C1574 C1575 1.377 . S
C1574 C1576 1.384 . S
C1575 C1574 1.377 . S
C1575 C1581 1.390 . S
C1576 H1567 0.930 . S
C1576 C1574 1.384 . S
C1576 C1577 1.372 . S
C1577 C1576 1.372 . S
C1577 C1578 1.400 . S
C1577 C1582 1.490 . S
C1578 H1568 0.930 . S
C1578 C1577 1.400 . S
C1578 C1581 1.386 . S
H1579 C1595 0.930 . S
H1580 C1596 0.931 . S
C1581 H1569 0.929 . S
C1581 C1575 1.390 . S
C1581 C1578 1.386 . S
C1582 C1577 1.490 . S
C1582 C1584 1.395 . S
C1582 C1585 1.403 . S
H1583 C1589 0.930 . S
C1584 H1570 0.930 . S
C1584 C1582 1.395 . S
C1584 C1587 1.403 . S
C1585 C1582 1.403 . S
C1585 C1586 1.524 . S
C1585 C1589 1.400 . S
C1586 H1571 0.960 . S
C1586 H1572 0.960 . S
C1586 H1573 0.960 . S
C1586 C1585 1.524 . S
C1587 C1584 1.403 . S
C1587 C1588 1.392 . S
C1587 C1591 1.495 . S
C1588 C1587 1.392 . S
C1588 C1589 1.385 . S
C1588 C1590 1.478 . S
C1589 H1583 0.930 . S
C1589 C1585 1.400 . S
C1589 C1588 1.385 . S
C1590 C1588 1.478 . S
C1590 C1592 1.381 . S
C1590 C1596 1.383 . S
C1591 C1587 1.495 . S
C1591 H1597 0.959 . S
C1591 H1598 0.961 . S
C1591 H1599 0.960 . S
C1592 C1590 1.381 . S
C1592 C1593 1.394 . S
C1592 H1600 0.930 . S
C1593 C1592 1.394 . S
C1593 C1594 1.383 . S
C1593 H1601 0.929 . S
C1594 C1593 1.383 . S
C1594 C1595 1.377 . S
C1595 H1579 0.930 . S
C1595 C1594 1.377 . S
C1595 C1596 1.379 . S
C1596 H1580 0.931 . S
C1596 C1590 1.383 . S
C1596 C1595 1.379 . S
H1597 C1591 0.959 . S
H1598 C1591 0.961 . S
H1599 C1591 0.960 . S
H1600 C1592 0.930 . S
H1601 C1593 0.929 . S
H1602 C1610 0.929 . S
H1603 C1612 0.930 . S
H1604 C1614 0.930 . S
H1605 C1617 0.929 . S
H1606 C1620 0.930 . S
H1607 C1622 0.960 . S
H1608 C1622 0.960 . S
H1609 C1622 0.960 . S
C1610 H1602 0.929 . S
C1610 C1611 1.377 . S
C1610 C1612 1.384 . S
C1611 C1610 1.377 . S
C1611 C1617 1.390 . S
C1612 H1603 0.930 . S
C1612 C1610 1.384 . S
C1612 C1613 1.372 . S
C1613 C1612 1.372 . S
C1613 C1614 1.400 . S
C1613 C1618 1.490 . S
C1614 H1604 0.930 . S
C1614 C1613 1.400 . S
C1614 C1617 1.386 . S
H1615 C1631 0.930 . S
H1616 C1632 0.931 . S
C1617 H1605 0.929 . S
C1617 C1611 1.390 . S
C1617 C1614 1.386 . S
C1618 C1613 1.490 . S
C1618 C1620 1.395 . S
C1618 C1621 1.403 . S
H1619 C1625 0.930 . S
C1620 H1606 0.930 . S
C1620 C1618 1.395 . S
C1620 C1623 1.403 . S
C1621 C1618 1.403 . S
C1621 C1622 1.524 . S
C1621 C1625 1.400 . S
C1622 H1607 0.960 . S
C1622 H1608 0.960 . S
C1622 H1609 0.960 . S
C1622 C1621 1.524 . S
C1623 C1620 1.403 . S
C1623 C1624 1.392 . S
C1623 C1627 1.495 . S
C1624 C1623 1.392 . S
C1624 C1625 1.385 . S
C1624 C1626 1.478 . S
C1625 H1619 0.930 . S
C1625 C1621 1.400 . S
C1625 C1624 1.385 . S
C1626 C1624 1.478 . S
C1626 C1628 1.381 . S
C1626 C1632 1.383 . S
C1627 C1623 1.495 . S
C1627 H1633 0.959 . S
C1627 H1634 0.961 . S
C1627 H1635 0.960 . S
C1628 C1626 1.381 . S
C1628 C1629 1.394 . S
C1628 H1636 0.930 . S
C1629 C1628 1.394 . S
C1629 C1630 1.383 . S
C1629 H1637 0.929 . S
C1630 C1629 1.383 . S
C1630 C1631 1.377 . S
C1631 H1615 0.930 . S
C1631 C1630 1.377 . S
C1631 C1632 1.379 . S
C1632 H1616 0.931 . S
C1632 C1626 1.383 . S
C1632 C1631 1.379 . S
H1633 C1627 0.959 . S
H1634 C1627 0.961 . S
H1635 C1627 0.960 . S
H1636 C1628 0.930 . S
H1637 C1629 0.929 . S
H1638 C1646 0.929 . S
H1639 C1648 0.930 . S
H1640 C1650 0.930 . S
H1641 C1653 0.929 . S
H1642 C1656 0.930 . S
H1643 C1658 0.960 . S
H1644 C1658 0.960 . S
H1645 C1658 0.960 . S
C1646 H1638 0.929 . S
C1646 C1647 1.377 . S
C1646 C1648 1.384 . S
C1647 C1646 1.377 . S
C1647 C1653 1.390 . S
C1648 H1639 0.930 . S
C1648 C1646 1.384 . S
C1648 C1649 1.372 . S
C1649 C1648 1.372 . S
C1649 C1650 1.400 . S
C1649 C1654 1.490 . S
C1650 H1640 0.930 . S
C1650 C1649 1.400 . S
C1650 C1653 1.386 . S
H1651 C1667 0.930 . S
H1652 C1668 0.931 . S
C1653 H1641 0.929 . S
C1653 C1647 1.390 . S
C1653 C1650 1.386 . S
C1654 C1649 1.490 . S
C1654 C1656 1.395 . S
C1654 C1657 1.403 . S
H1655 C1661 0.930 . S
C1656 H1642 0.930 . S
C1656 C1654 1.395 . S
C1656 C1659 1.403 . S
C1657 C1654 1.403 . S
C1657 C1658 1.524 . S
C1657 C1661 1.400 . S
C1658 H1643 0.960 . S
C1658 H1644 0.960 . S
C1658 H1645 0.960 . S
C1658 C1657 1.524 . S
C1659 C1656 1.403 . S
C1659 C1660 1.392 . S
C1659 C1663 1.495 . S
C1660 C1659 1.392 . S
C1660 C1661 1.385 . S
C1660 C1662 1.478 . S
C1661 H1655 0.930 . S
C1661 C1657 1.400 . S
C1661 C1660 1.385 . S
C1662 C1660 1.478 . S
C1662 C1664 1.381 . S
C1662 C1668 1.383 . S
C1663 C1659 1.495 . S
C1663 H1669 0.959 . S
C1663 H1670 0.961 . S
C1663 H1671 0.960 . S
C1664 C1662 1.381 . S
C1664 C1665 1.394 . S
C1664 H1672 0.930 . S
C1665 C1664 1.394 . S
C1665 C1666 1.383 . S
C1665 H1673 0.929 . S
C1666 C1665 1.383 . S
C1666 C1667 1.377 . S
C1667 H1651 0.930 . S
C1667 C1666 1.377 . S
C1667 C1668 1.379 . S
C1668 H1652 0.931 . S
C1668 C1662 1.383 . S
C1668 C1667 1.379 . S
H1669 C1663 0.959 . S
H1670 C1663 0.961 . S
H1671 C1663 0.960 . S
H1672 C1664 0.930 . S
H1673 C1665 0.929 . S
H1674 C1682 0.929 . S
H1675 C1684 0.930 . S
H1676 C1686 0.930 . S
H1677 C1689 0.929 . S
H1678 C1692 0.930 . S
H1679 C1694 0.960 . S
H1680 C1694 0.960 . S
H1681 C1694 0.960 . S
C1682 H1674 0.929 . S
C1682 C1683 1.377 . S
C1682 C1684 1.384 . S
C1683 C1682 1.377 . S
C1683 C1689 1.390 . S
C1684 H1675 0.930 . S
C1684 C1682 1.384 . S
C1684 C1685 1.372 . S
C1685 C1684 1.372 . S
C1685 C1686 1.400 . S
C1685 C1690 1.490 . S
C1686 H1676 0.930 . S
C1686 C1685 1.400 . S
C1686 C1689 1.386 . S
H1687 C1703 0.930 . S
H1688 C1704 0.931 . S
C1689 H1677 0.929 . S
C1689 C1683 1.390 . S
C1689 C1686 1.386 . S
C1690 C1685 1.490 . S
C1690 C1692 1.395 . S
C1690 C1693 1.403 . S
H1691 C1697 0.930 . S
C1692 H1678 0.930 . S
C1692 C1690 1.395 . S
C1692 C1695 1.403 . S
C1693 C1690 1.403 . S
C1693 C1694 1.524 . S
C1693 C1697 1.400 . S
C1694 H1679 0.960 . S
C1694 H1680 0.960 . S
C1694 H1681 0.960 . S
C1694 C1693 1.524 . S
C1695 C1692 1.403 . S
C1695 C1696 1.392 . S
C1695 C1699 1.495 . S
C1696 C1695 1.392 . S
C1696 C1697 1.385 . S
C1696 C1698 1.478 . S
C1697 H1691 0.930 . S
C1697 C1693 1.400 . S
C1697 C1696 1.385 . S
C1698 C1696 1.478 . S
C1698 C1700 1.381 . S
C1698 C1704 1.383 . S
C1699 C1695 1.495 . S
C1699 H1705 0.959 . S
C1699 H1706 0.961 . S
C1699 H1707 0.960 . S
C1700 C1698 1.381 . S
C1700 C1701 1.394 . S
C1700 H1708 0.930 . S
C1701 C1700 1.394 . S
C1701 C1702 1.383 . S
C1701 H1709 0.929 . S
C1702 C1701 1.383 . S
C1702 C1703 1.377 . S
C1703 H1687 0.930 . S
C1703 C1702 1.377 . S
C1703 C1704 1.379 . S
C1704 H1688 0.931 . S
C1704 C1698 1.383 . S
C1704 C1703 1.379 . S
H1705 C1699 0.959 . S
H1706 C1699 0.961 . S
H1707 C1699 0.960 . S
H1708 C1700 0.930 . S
H1709 C1701 0.929 . S
H1710 C1718 0.929 . S
H1711 C1720 0.930 . S
H1712 C1722 0.930 . S
H1713 C1725 0.929 . S
H1714 C1728 0.930 . S
H1715 C1730 0.960 . S
H1716 C1730 0.960 . S
H1717 C1730 0.960 . S
C1718 H1710 0.929 . S
C1718 C1719 1.377 . S
C1718 C1720 1.384 . S
C1719 C1718 1.377 . S
C1719 C1725 1.390 . S
C1720 H1711 0.930 . S
C1720 C1718 1.384 . S
C1720 C1721 1.372 . S
C1721 C1720 1.372 . S
C1721 C1722 1.400 . S
C1721 C1726 1.490 1_545 S
C1722 H1712 0.930 . S
C1722 C1721 1.400 . S
C1722 C1725 1.386 . S
H1723 C1739 0.930 . S
H1724 C1740 0.931 . S
C1725 H1713 0.929 . S
C1725 C1719 1.390 . S
C1725 C1722 1.386 . S
C1726 C1721 1.490 1_565 S
C1726 C1728 1.395 . S
C1726 C1729 1.403 . S
H1727 C1733 0.930 . S
C1728 H1714 0.930 . S
C1728 C1726 1.395 . S
C1728 C1731 1.403 . S
C1729 C1726 1.403 . S
C1729 C1730 1.524 . S
C1729 C1733 1.400 . S
C1730 H1715 0.960 . S
C1730 H1716 0.960 . S
C1730 H1717 0.960 . S
C1730 C1729 1.524 . S
C1731 C1728 1.403 . S
C1731 C1732 1.392 . S
C1731 C1735 1.495 . S
C1732 C1731 1.392 . S
C1732 C1733 1.385 . S
C1732 C1734 1.478 . S
C1733 H1727 0.930 . S
C1733 C1729 1.400 . S
C1733 C1732 1.385 . S
C1734 C1732 1.478 . S
C1734 C1736 1.381 . S
C1734 C1740 1.383 . S
C1735 C1731 1.495 . S
C1735 H1741 0.959 . S
C1735 H1742 0.961 . S
C1735 H1743 0.960 . S
C1736 C1734 1.381 . S
C1736 C1737 1.394 . S
C1736 H1744 0.930 . S
C1737 C1736 1.394 . S
C1737 C1738 1.383 . S
C1737 H1745 0.929 . S
C1738 C1737 1.383 . S
C1738 C1739 1.377 . S
C1739 H1723 0.930 . S
C1739 C1738 1.377 . S
C1739 C1740 1.379 . S
C1740 H1724 0.931 . S
C1740 C1734 1.383 . S
C1740 C1739 1.379 . S
H1741 C1735 0.959 . S
H1742 C1735 0.961 . S
H1743 C1735 0.960 . S
H1744 C1736 0.930 . S
H1745 C1737 0.929 . S
H1746 C1754 0.929 . S
H1747 C1756 0.930 . S
H1748 C1758 0.930 1_455 S
H1749 C1761 0.929 . S
H1750 C1764 0.930 . S
H1751 C1766 0.960 . S
H1752 C1766 0.960 . S
H1753 C1766 0.960 . S
C1754 H1746 0.929 . S
C1754 C1755 1.377 . S
C1754 C1756 1.384 . S
C1755 C1754 1.377 . S
C1755 C1761 1.390 . S
C1756 H1747 0.930 . S
C1756 C1754 1.384 . S
C1756 C1757 1.372 1_655 S
C1757 C1756 1.372 1_455 S
C1757 C1758 1.400 1_455 S
C1757 C1762 1.490 . S
C1758 H1748 0.930 1_655 S
C1758 C1757 1.400 1_655 S
C1758 C1761 1.386 . S
H1759 C1775 0.930 . S
H1760 C1776 0.931 . S
C1761 H1749 0.929 . S
C1761 C1755 1.390 . S
C1761 C1758 1.386 . S
C1762 C1757 1.490 . S
C1762 C1764 1.395 . S
C1762 C1765 1.403 . S
H1763 C1769 0.930 . S
C1764 H1750 0.930 . S
C1764 C1762 1.395 . S
C1764 C1767 1.403 . S
C1765 C1762 1.403 . S
C1765 C1766 1.524 . S
C1765 C1769 1.400 . S
C1766 H1751 0.960 . S
C1766 H1752 0.960 . S
C1766 H1753 0.960 . S
C1766 C1765 1.524 . S
C1767 C1764 1.403 . S
C1767 C1768 1.392 . S
C1767 C1771 1.495 . S
C1768 C1767 1.392 . S
C1768 C1769 1.385 . S
C1768 C1770 1.478 . S
C1769 H1763 0.930 . S
C1769 C1765 1.400 . S
C1769 C1768 1.385 . S
C1770 C1768 1.478 . S
C1770 C1772 1.381 . S
C1770 C1776 1.383 . S
C1771 C1767 1.495 . S
C1771 H1777 0.959 . S
C1771 H1778 0.961 . S
C1771 H1779 0.960 . S
C1772 C1770 1.381 . S
C1772 C1773 1.394 . S
C1772 H1780 0.930 . S
C1773 C1772 1.394 . S
C1773 C1774 1.383 . S
C1773 H1781 0.929 . S
C1774 C1773 1.383 . S
C1774 C1775 1.377 . S
C1775 H1759 0.930 . S
C1775 C1774 1.377 . S
C1775 C1776 1.379 . S
C1776 H1760 0.931 . S
C1776 C1770 1.383 . S
C1776 C1775 1.379 . S
H1777 C1771 0.959 . S
H1778 C1771 0.961 . S
H1779 C1771 0.960 . S
H1780 C1772 0.930 . S
H1781 C1773 0.929 . S
H1782 C1790 0.929 . S
H1783 C1792 0.930 . S
H1784 C1794 0.930 . S
H1785 C1797 0.929 . S
H1786 C1800 0.930 . S
H1787 C1802 0.960 . S
H1788 C1802 0.960 . S
H1789 C1802 0.960 . S
C1790 H1782 0.929 . S
C1790 C1791 1.377 . S
C1790 C1792 1.384 . S
C1791 C1790 1.377 . S
C1791 C1797 1.390 . S
C1792 H1783 0.930 . S
C1792 C1790 1.384 . S
C1792 C1793 1.372 . S
C1793 C1792 1.372 . S
C1793 C1794 1.400 . S
C1793 C1798 1.490 . S
C1794 H1784 0.930 . S
C1794 C1793 1.400 . S
C1794 C1797 1.386 . S
H1795 C1811 0.930 . S
H1796 C1812 0.931 . S
C1797 H1785 0.929 . S
C1797 C1791 1.390 . S
C1797 C1794 1.386 . S
C1798 C1793 1.490 . S
C1798 C1800 1.395 . S
C1798 C1801 1.403 . S
H1799 C1805 0.930 . S
C1800 H1786 0.930 . S
C1800 C1798 1.395 . S
C1800 C1803 1.403 . S
C1801 C1798 1.403 . S
C1801 C1802 1.524 . S
C1801 C1805 1.400 . S
C1802 H1787 0.960 . S
C1802 H1788 0.960 . S
C1802 H1789 0.960 . S
C1802 C1801 1.524 . S
C1803 C1800 1.403 . S
C1803 C1804 1.392 . S
C1803 C1807 1.495 . S
C1804 C1803 1.392 . S
C1804 C1805 1.385 . S
C1804 C1806 1.478 . S
C1805 H1799 0.930 . S
C1805 C1801 1.400 . S
C1805 C1804 1.385 . S
C1806 C1804 1.478 . S
C1806 C1808 1.381 . S
C1806 C1812 1.383 . S
C1807 C1803 1.495 . S
C1807 H1813 0.959 . S
C1807 H1814 0.961 . S
C1807 H1815 0.960 . S
C1808 C1806 1.381 . S
C1808 C1809 1.394 . S
C1808 H1816 0.930 . S
C1809 C1808 1.394 . S
C1809 C1810 1.383 . S
C1809 H1817 0.929 . S
C1810 C1809 1.383 . S
C1810 C1811 1.377 . S
C1811 H1795 0.930 . S
C1811 C1810 1.377 . S
C1811 C1812 1.379 . S
C1812 H1796 0.931 . S
C1812 C1806 1.383 . S
C1812 C1811 1.379 . S
H1813 C1807 0.959 . S
H1814 C1807 0.961 . S
H1815 C1807 0.960 . S
H1816 C1808 0.930 . S
H1817 C1809 0.929 . S
H1818 C1826 0.929 . S
H1819 C1828 0.930 . S
H1820 C1830 0.930 . S
H1821 C1833 0.929 . S
H1822 C1836 0.930 . S
H1823 C1838 0.960 . S
H1824 C1838 0.960 . S
H1825 C1838 0.960 . S
C1826 H1818 0.929 . S
C1826 C1827 1.377 . S
C1826 C1828 1.384 . S
C1827 C1826 1.377 . S
C1827 C1833 1.390 . S
C1828 H1819 0.930 . S
C1828 C1826 1.384 . S
C1828 C1829 1.372 . S
C1829 C1828 1.372 . S
C1829 C1830 1.400 . S
C1829 C1834 1.490 . S
C1830 H1820 0.930 . S
C1830 C1829 1.400 . S
C1830 C1833 1.386 . S
H1831 C1847 0.930 . S
H1832 C1848 0.931 . S
C1833 H1821 0.929 . S
C1833 C1827 1.390 . S
C1833 C1830 1.386 . S
C1834 C1829 1.490 . S
C1834 C1836 1.395 . S
C1834 C1837 1.403 . S
H1835 C1841 0.930 . S
C1836 H1822 0.930 . S
C1836 C1834 1.395 . S
C1836 C1839 1.403 . S
C1837 C1834 1.403 . S
C1837 C1838 1.524 . S
C1837 C1841 1.400 . S
C1838 H1823 0.960 . S
C1838 H1824 0.960 . S
C1838 H1825 0.960 . S
C1838 C1837 1.524 . S
C1839 C1836 1.403 . S
C1839 C1840 1.392 . S
C1839 C1843 1.495 . S
C1840 C1839 1.392 . S
C1840 C1841 1.385 . S
C1840 C1842 1.478 . S
C1841 H1835 0.930 . S
C1841 C1837 1.400 . S
C1841 C1840 1.385 . S
C1842 C1840 1.478 . S
C1842 C1844 1.381 . S
C1842 C1848 1.383 . S
C1843 C1839 1.495 . S
C1843 H1849 0.959 . S
C1843 H1850 0.961 . S
C1843 H1851 0.960 . S
C1844 C1842 1.381 . S
C1844 C1845 1.394 . S
C1844 H1852 0.930 . S
C1845 C1844 1.394 . S
C1845 C1846 1.383 . S
C1845 H1853 0.929 . S
C1846 C1845 1.383 . S
C1846 C1847 1.377 . S
C1847 H1831 0.930 . S
C1847 C1846 1.377 . S
C1847 C1848 1.379 . S
C1848 H1832 0.931 . S
C1848 C1842 1.383 . S
C1848 C1847 1.379 . S
H1849 C1843 0.959 . S
H1850 C1843 0.961 . S
H1851 C1843 0.960 . S
H1852 C1844 0.930 . S
H1853 C1845 0.929 . S
H1854 C1862 0.929 . S
H1855 C1864 0.930 . S
H1856 C1866 0.930 . S
H1857 C1869 0.929 . S
H1858 C1872 0.930 . S
H1859 C1874 0.960 . S
H1860 C1874 0.960 . S
H1861 C1874 0.960 . S
C1862 H1854 0.929 . S
C1862 C1863 1.377 . S
C1862 C1864 1.384 . S
C1863 C1862 1.377 . S
C1863 C1869 1.390 . S
C1864 H1855 0.930 . S
C1864 C1862 1.384 . S
C1864 C1865 1.372 . S
C1865 C1864 1.372 . S
C1865 C1866 1.400 . S
C1865 C1870 1.490 . S
C1866 H1856 0.930 . S
C1866 C1865 1.400 . S
C1866 C1869 1.386 . S
H1867 C1883 0.930 . S
H1868 C1884 0.931 . S
C1869 H1857 0.929 . S
C1869 C1863 1.390 . S
C1869 C1866 1.386 . S
C1870 C1865 1.490 . S
C1870 C1872 1.395 . S
C1870 C1873 1.403 . S
H1871 C1877 0.930 . S
C1872 H1858 0.930 . S
C1872 C1870 1.395 . S
C1872 C1875 1.403 . S
C1873 C1870 1.403 . S
C1873 C1874 1.524 . S
C1873 C1877 1.400 . S
C1874 H1859 0.960 . S
C1874 H1860 0.960 . S
C1874 H1861 0.960 . S
C1874 C1873 1.524 . S
C1875 C1872 1.403 . S
C1875 C1876 1.392 . S
C1875 C1879 1.495 . S
C1876 C1875 1.392 . S
C1876 C1877 1.385 . S
C1876 C1878 1.478 . S
C1877 H1871 0.930 . S
C1877 C1873 1.400 . S
C1877 C1876 1.385 . S
C1878 C1876 1.478 . S
C1878 C1880 1.381 . S
C1878 C1884 1.383 . S
C1879 C1875 1.495 . S
C1879 H1885 0.959 . S
C1879 H1886 0.961 . S
C1879 H1887 0.960 . S
C1880 C1878 1.381 . S
C1880 C1881 1.394 . S
C1880 H1888 0.930 . S
C1881 C1880 1.394 . S
C1881 C1882 1.383 . S
C1881 H1889 0.929 . S
C1882 C1881 1.383 . S
C1882 C1883 1.377 . S
C1883 H1867 0.930 . S
C1883 C1882 1.377 . S
C1883 C1884 1.379 . S
C1884 H1868 0.931 . S
C1884 C1878 1.383 . S
C1884 C1883 1.379 . S
H1885 C1879 0.959 . S
H1886 C1879 0.961 . S
H1887 C1879 0.960 . S
H1888 C1880 0.930 . S
H1889 C1881 0.929 . S
H1890 C1898 0.929 . S
H1891 C1900 0.930 . S
H1892 C1902 0.930 . S
H1893 C1905 0.929 . S
H1894 C1908 0.930 . S
H1895 C1910 0.960 . S
H1896 C1910 0.960 . S
H1897 C1910 0.960 . S
C1898 H1890 0.929 . S
C1898 C1899 1.377 . S
C1898 C1900 1.384 . S
C1899 C1898 1.377 . S
C1899 C1905 1.390 . S
C1900 H1891 0.930 . S
C1900 C1898 1.384 . S
C1900 C1901 1.372 . S
C1901 C1900 1.372 . S
C1901 C1902 1.400 . S
C1901 C1906 1.490 . S
C1902 H1892 0.930 . S
C1902 C1901 1.400 . S
C1902 C1905 1.386 . S
H1903 C1919 0.930 . S
H1904 C1920 0.931 . S
C1905 H1893 0.929 . S
C1905 C1899 1.390 . S
C1905 C1902 1.386 . S
C1906 C1901 1.490 . S
C1906 C1908 1.395 . S
C1906 C1909 1.403 . S
H1907 C1913 0.930 . S
C1908 H1894 0.930 . S
C1908 C1906 1.395 . S
C1908 C1911 1.403 . S
C1909 C1906 1.403 . S
C1909 C1910 1.524 . S
C1909 C1913 1.400 . S
C1910 H1895 0.960 . S
C1910 H1896 0.960 . S
C1910 H1897 0.960 . S
C1910 C1909 1.524 . S
C1911 C1908 1.403 . S
C1911 C1912 1.392 . S
C1911 C1915 1.495 . S
C1912 C1911 1.392 . S
C1912 C1913 1.385 . S
C1912 C1914 1.478 . S
C1913 H1907 0.930 . S
C1913 C1909 1.400 . S
C1913 C1912 1.385 . S
C1914 C1912 1.478 . S
C1914 C1916 1.381 . S
C1914 C1920 1.383 . S
C1915 C1911 1.495 . S
C1915 H1921 0.959 . S
C1915 H1922 0.961 . S
C1915 H1923 0.960 . S
C1916 C1914 1.381 . S
C1916 C1917 1.394 . S
C1916 H1924 0.930 . S
C1917 C1916 1.394 . S
C1917 C1918 1.383 . S
C1917 H1925 0.929 . S
C1918 C1917 1.383 . S
C1918 C1919 1.377 . S
C1919 H1903 0.930 . S
C1919 C1918 1.377 . S
C1919 C1920 1.379 . S
C1920 H1904 0.931 . S
C1920 C1914 1.383 . S
C1920 C1919 1.379 . S
H1921 C1915 0.959 . S
H1922 C1915 0.961 . S
H1923 C1915 0.960 . S
H1924 C1916 0.930 . S
H1925 C1917 0.929 . S
H1926 C1934 0.929 . S
H1927 C1936 0.930 . S
H1928 C1938 0.930 . S
H1929 C1941 0.929 . S
H1930 C1944 0.930 . S
H1931 C1946 0.962 1_545 S
H1932 C1946 0.963 . S
H1933 C1946 0.968 . S
C1934 H1926 0.929 . S
C1934 C1935 1.377 . S
C1934 C1936 1.384 . S
C1935 C1934 1.377 . S
C1935 C1941 1.390 . S
C1936 H1927 0.930 . S
C1936 C1934 1.384 . S
C1936 C1937 1.372 . S
C1937 C1936 1.372 . S
C1937 C1938 1.400 . S
C1937 C1942 1.490 1_565 S
C1938 H1928 0.930 . S
C1938 C1937 1.400 . S
C1938 C1941 1.386 . S
H1939 C1955 0.930 . S
H1940 C1956 0.931 . S
C1941 H1929 0.929 . S
C1941 C1935 1.390 . S
C1941 C1938 1.386 . S
C1942 C1937 1.490 1_545 S
C1942 C1944 1.395 . S
C1942 C1945 1.403 . S
H1943 C1949 0.930 . S
C1944 H1930 0.930 . S
C1944 C1942 1.395 . S
C1944 C1947 1.403 . S
C1945 C1942 1.403 . S
C1945 C1946 1.511 1_545 S
C1945 C1949 1.400 . S
C1946 H1931 0.962 1_565 S
C1946 H1932 0.963 . S
C1946 H1933 0.968 . S
C1946 C1945 1.511 1_565 S
C1947 C1944 1.403 . S
C1947 C1948 1.392 . S
C1947 C1951 1.495 . S
C1948 C1947 1.392 . S
C1948 C1949 1.385 . S
C1948 C1950 1.478 . S
C1949 H1943 0.930 . S
C1949 C1945 1.400 . S
C1949 C1948 1.385 . S
C1950 C1948 1.478 . S
C1950 C1952 1.381 . S
C1950 C1956 1.383 . S
C1951 C1947 1.495 . S
C1951 H1957 0.959 . S
C1951 H1958 0.961 . S
C1951 H1959 0.960 . S
C1952 C1950 1.381 . S
C1952 C1953 1.394 . S
C1952 H1960 0.930 . S
C1953 C1952 1.394 . S
C1953 C1954 1.383 . S
C1953 H1961 0.929 . S
C1954 C1953 1.383 . S
C1954 C1955 1.377 . S
C1955 H1939 0.930 . S
C1955 C1954 1.377 . S
C1955 C1956 1.379 . S
C1956 H1940 0.931 . S
C1956 C1950 1.383 . S
C1956 C1955 1.379 . S
H1957 C1951 0.959 . S
H1958 C1951 0.961 . S
H1959 C1951 0.960 . S
H1960 C1952 0.930 . S
H1961 C1953 0.929 . S
H1962 C1970 0.929 . S
H1963 C1972 0.930 . S
H1964 C1974 0.930 . S
H1965 C1977 0.929 . S
H1966 C1980 0.930 1_455 S
H1967 C1982 0.960 . S
H1968 C1982 0.960 . S
H1969 C1982 0.960 . S
C1970 H1962 0.929 . S
C1970 C1971 1.377 . S
C1970 C1972 1.384 . S
C1971 C1970 1.377 . S
C1971 C1977 1.390 . S
C1972 H1963 0.930 . S
C1972 C1970 1.384 . S
C1972 C1973 1.372 . S
C1973 C1972 1.372 . S
C1973 C1974 1.400 . S
C1973 C1978 1.490 1_455 S
C1974 H1964 0.930 . S
C1974 C1973 1.400 . S
C1974 C1977 1.386 . S
H1975 C1991 0.930 . S
H1976 C1992 0.931 . S
C1977 H1965 0.929 . S
C1977 C1971 1.390 . S
C1977 C1974 1.386 . S
C1978 C1973 1.490 1_655 S
C1978 C1980 1.395 . S
C1978 C1981 1.403 . S
H1979 C1985 0.930 . S
C1980 H1966 0.930 1_655 S
C1980 C1978 1.395 . S
C1980 C1983 1.403 . S
C1981 C1978 1.403 . S
C1981 C1982 1.524 . S
C1981 C1985 1.400 . S
C1982 H1967 0.960 . S
C1982 H1968 0.960 . S
C1982 H1969 0.960 . S
C1982 C1981 1.524 . S
C1983 C1980 1.403 . S
C1983 C1984 1.392 . S
C1983 C1987 1.495 . S
C1984 C1983 1.392 . S
C1984 C1985 1.385 . S
C1984 C1986 1.478 . S
C1985 H1979 0.930 . S
C1985 C1981 1.400 . S
C1985 C1984 1.385 . S
C1986 C1984 1.478 . S
C1986 C1988 1.381 . S
C1986 C1992 1.383 . S
C1987 C1983 1.495 . S
C1987 H1993 0.959 . S
C1987 H1994 0.961 . S
C1987 H1995 0.960 . S
C1988 C1986 1.381 . S
C1988 C1989 1.394 . S
C1988 H1996 0.930 . S
C1989 C1988 1.394 . S
C1989 C1990 1.383 . S
C1989 H1997 0.929 . S
C1990 C1989 1.383 . S
C1990 C1991 1.377 . S
C1991 H1975 0.930 . S
C1991 C1990 1.377 . S
C1991 C1992 1.379 . S
C1992 H1976 0.931 . S
C1992 C1986 1.383 . S
C1992 C1991 1.379 . S
H1993 C1987 0.959 . S
H1994 C1987 0.961 . S
H1995 C1987 0.960 . S
H1996 C1988 0.930 . S
H1997 C1989 0.929 . S
H1998 C2006 0.929 . S
H1999 C2008 0.930 . S
H2000 C2010 0.930 . S
H2001 C2013 0.929 . S
H2002 C2016 0.930 . S
H2003 C2018 0.960 . S
H2004 C2018 0.960 . S
H2005 C2018 0.960 . S
C2006 H1998 0.929 . S
C2006 C2007 1.377 . S
C2006 C2008 1.384 . S
C2007 C2006 1.377 . S
C2007 C2013 1.390 . S
C2008 H1999 0.930 . S
C2008 C2006 1.384 . S
C2008 C2009 1.372 . S
C2009 C2008 1.372 . S
C2009 C2010 1.400 . S
C2009 C2014 1.490 . S
C2010 H2000 0.930 . S
C2010 C2009 1.400 . S
C2010 C2013 1.386 . S
H2011 C2027 0.930 . S
H2012 C2028 0.931 . S
C2013 H2001 0.929 . S
C2013 C2007 1.390 . S
C2013 C2010 1.386 . S
C2014 C2009 1.490 . S
C2014 C2016 1.395 . S
C2014 C2017 1.403 . S
H2015 C2021 0.930 . S
C2016 H2002 0.930 . S
C2016 C2014 1.395 . S
C2016 C2019 1.403 . S
C2017 C2014 1.403 . S
C2017 C2018 1.524 . S
C2017 C2021 1.400 . S
C2018 H2003 0.960 . S
C2018 H2004 0.960 . S
C2018 H2005 0.960 . S
C2018 C2017 1.524 . S
C2019 C2016 1.403 . S
C2019 C2020 1.392 . S
C2019 C2023 1.495 . S
C2020 C2019 1.392 . S
C2020 C2021 1.385 . S
C2020 C2022 1.478 . S
C2021 H2015 0.930 . S
C2021 C2017 1.400 . S
C2021 C2020 1.385 . S
C2022 C2020 1.478 . S
C2022 C2024 1.381 . S
C2022 C2028 1.383 . S
C2023 C2019 1.495 . S
C2023 H2029 0.959 . S
C2023 H2030 0.961 . S
C2023 H2031 0.960 . S
C2024 C2022 1.381 . S
C2024 C2025 1.394 . S
C2024 H2032 0.930 . S
C2025 C2024 1.394 . S
C2025 C2026 1.383 . S
C2025 H2033 0.929 . S
C2026 C2025 1.383 . S
C2026 C2027 1.377 . S
C2027 H2011 0.930 . S
C2027 C2026 1.377 . S
C2027 C2028 1.379 . S
C2028 H2012 0.931 . S
C2028 C2022 1.383 . S
C2028 C2027 1.379 . S
H2029 C2023 0.959 . S
H2030 C2023 0.961 . S
H2031 C2023 0.960 . S
H2032 C2024 0.930 . S
H2033 C2025 0.929 . S
H2034 C2042 0.929 . S
H2035 C2044 0.930 1_655 S
H2036 C2046 0.936 . S
H2037 C2049 0.929 . S
H2038 C2052 0.930 . S
H2039 C2054 0.960 . S
H2040 C2054 0.960 . S
H2041 C2054 0.960 . S
C2042 H2034 0.929 . S
C2042 C2043 1.377 . S
C2042 C2044 1.384 . S
C2043 C2042 1.377 . S
C2043 C2049 1.390 . S
C2044 H2035 0.930 1_455 S
C2044 C2042 1.384 . S
C2044 C2045 1.372 1_455 S
C2045 C2044 1.372 1_655 S
C2045 C2046 1.436 . S
C2045 C2050 1.490 . S
C2046 H2036 0.936 . S
C2046 C2045 1.436 . S
C2046 C2049 1.347 1_655 S
H2047 C2063 0.930 . S
H2048 C2064 0.931 . S
C2049 H2037 0.929 . S
C2049 C2043 1.390 . S
C2049 C2046 1.347 1_455 S
C2050 C2045 1.490 . S
C2050 C2052 1.395 . S
C2050 C2053 1.403 . S
H2051 C2057 0.930 . S
C2052 H2038 0.930 . S
C2052 C2050 1.395 . S
C2052 C2055 1.403 . S
C2053 C2050 1.403 . S
C2053 C2054 1.524 . S
C2053 C2057 1.400 . S
C2054 H2039 0.960 . S
C2054 H2040 0.960 . S
C2054 H2041 0.960 . S
C2054 C2053 1.524 . S
C2055 C2052 1.403 . S
C2055 C2056 1.392 . S
C2055 C2059 1.495 . S
C2056 C2055 1.392 . S
C2056 C2057 1.385 . S
C2056 C2058 1.478 . S
C2057 H2051 0.930 . S
C2057 C2053 1.400 . S
C2057 C2056 1.385 . S
C2058 C2056 1.478 . S
C2058 C2060 1.381 . S
C2058 C2064 1.383 . S
C2059 C2055 1.495 . S
C2059 H2065 0.959 . S
C2059 H2066 0.961 . S
C2059 H2067 0.960 . S
C2060 C2058 1.381 . S
C2060 C2061 1.394 . S
C2060 H2068 0.930 . S
C2061 C2060 1.394 . S
C2061 C2062 1.383 . S
C2061 H2069 0.929 . S
C2062 C2061 1.383 . S
C2062 C2063 1.377 . S
C2063 H2047 0.930 . S
C2063 C2062 1.377 . S
C2063 C2064 1.379 . S
C2064 H2048 0.931 . S
C2064 C2058 1.383 . S
C2064 C2063 1.379 . S
H2065 C2059 0.959 . S
H2066 C2059 0.961 . S
H2067 C2059 0.960 . S
H2068 C2060 0.930 . S
H2069 C2061 0.929 . S
H2070 C2078 0.929 . S
H2071 C2080 0.930 . S
H2072 C2082 0.930 . S
H2073 C2085 0.929 . S
H2074 C2088 0.930 . S
H2075 C2090 0.960 . S
H2076 C2090 0.960 . S
H2077 C2090 0.960 . S
C2078 H2070 0.929 . S
C2078 C2079 1.377 . S
C2078 C2080 1.384 . S
C2079 C2078 1.377 . S
C2079 C2085 1.390 . S
C2080 H2071 0.930 . S
C2080 C2078 1.384 . S
C2080 C2081 1.372 . S
C2081 C2080 1.372 . S
C2081 C2082 1.400 . S
C2081 C2086 1.490 . S
C2082 H2072 0.930 . S
C2082 C2081 1.400 . S
C2082 C2085 1.386 . S
H2083 C2099 0.930 . S
H2084 C2100 0.931 . S
C2085 H2073 0.929 . S
C2085 C2079 1.390 . S
C2085 C2082 1.386 . S
C2086 C2081 1.490 . S
C2086 C2088 1.395 . S
C2086 C2089 1.403 . S
H2087 C2093 0.930 . S
C2088 H2074 0.930 . S
C2088 C2086 1.395 . S
C2088 C2091 1.403 . S
C2089 C2086 1.403 . S
C2089 C2090 1.524 . S
C2089 C2093 1.400 . S
C2090 H2075 0.960 . S
C2090 H2076 0.960 . S
C2090 H2077 0.960 . S
C2090 C2089 1.524 . S
C2091 C2088 1.403 . S
C2091 C2092 1.392 . S
C2091 C2095 1.495 . S
C2092 C2091 1.392 . S
C2092 C2093 1.385 . S
C2092 C2094 1.478 . S
C2093 H2087 0.930 . S
C2093 C2089 1.400 . S
C2093 C2092 1.385 . S
C2094 C2092 1.478 . S
C2094 C2096 1.381 . S
C2094 C2100 1.383 . S
C2095 C2091 1.495 . S
C2095 H2101 0.959 . S
C2095 H2102 0.961 . S
C2095 H2103 0.960 . S
C2096 C2094 1.381 . S
C2096 C2097 1.394 . S
C2096 H2104 0.930 . S
C2097 C2096 1.394 . S
C2097 C2098 1.383 . S
C2097 H2105 0.929 . S
C2098 C2097 1.383 . S
C2098 C2099 1.377 . S
C2099 H2083 0.930 . S
C2099 C2098 1.377 . S
C2099 C2100 1.379 . S
C2100 H2084 0.931 . S
C2100 C2094 1.383 . S
C2100 C2099 1.379 . S
H2101 C2095 0.959 . S
H2102 C2095 0.961 . S
H2103 C2095 0.960 . S
H2104 C2096 0.930 . S
H2105 C2097 0.929 . S
H2106 C2114 0.929 . S
H2107 C2116 0.930 . S
H2108 C2118 0.930 . S
H2109 C2121 0.929 . S
H2110 C2124 0.930 . S
H2111 C2126 0.960 . S
H2112 C2126 0.960 1_565 S
H2113 C2126 0.960 . S
C2114 H2106 0.929 . S
C2114 C2115 1.377 . S
C2114 C2116 1.384 . S
C2115 C2114 1.377 . S
C2115 C2121 1.390 . S
C2116 H2107 0.930 . S
C2116 C2114 1.384 . S
C2116 C2117 1.372 . S
C2117 C2116 1.372 . S
C2117 C2118 1.400 . S
C2117 C2122 1.490 1_565 S
C2118 H2108 0.930 . S
C2118 C2117 1.400 . S
C2118 C2121 1.386 . S
H2119 C2135 0.930 . S
H2120 C2136 0.931 . S
C2121 H2109 0.929 . S
C2121 C2115 1.390 . S
C2121 C2118 1.386 . S
C2122 C2117 1.490 1_545 S
C2122 C2124 1.395 . S
C2122 C2125 1.403 . S
H2123 C2129 0.930 . S
C2124 H2110 0.930 . S
C2124 C2122 1.395 . S
C2124 C2127 1.403 . S
C2125 C2122 1.403 . S
C2125 C2126 1.524 . S
C2125 C2129 1.400 . S
C2126 H2111 0.960 . S
C2126 H2112 0.960 1_545 S
C2126 H2113 0.960 . S
C2126 C2125 1.524 . S
C2127 C2124 1.403 . S
C2127 C2128 1.392 . S
C2127 C2131 1.495 . S
C2128 C2127 1.392 . S
C2128 C2129 1.385 . S
C2128 C2130 1.478 . S
C2129 H2123 0.930 . S
C2129 C2125 1.400 . S
C2129 C2128 1.385 . S
C2130 C2128 1.478 . S
C2130 C2132 1.381 . S
C2130 C2136 1.383 . S
C2131 C2127 1.495 . S
C2131 H2137 0.959 . S
C2131 H2138 0.961 . S
C2131 H2139 0.960 . S
C2132 C2130 1.381 . S
C2132 C2133 1.394 . S
C2132 H2140 0.930 . S
C2133 C2132 1.394 . S
C2133 C2134 1.383 . S
C2133 H2141 0.929 . S
C2134 C2133 1.383 . S
C2134 C2135 1.377 . S
C2135 H2119 0.930 . S
C2135 C2134 1.377 . S
C2135 C2136 1.379 . S
C2136 H2120 0.931 . S
C2136 C2130 1.383 . S
C2136 C2135 1.379 . S
H2137 C2131 0.959 . S
H2138 C2131 0.961 . S
H2139 C2131 0.960 . S
H2140 C2132 0.930 . S
H2141 C2133 0.929 . S
H2142 C2150 0.929 . S
H2143 C2152 0.930 . S
H2144 C2154 0.930 . S
H2145 C2157 0.929 . S
H2146 C2160 0.930 . S
H2147 C2162 0.960 . S
H2148 C2162 0.960 . S
H2149 C2162 0.960 . S
C2150 H2142 0.929 . S
C2150 C2151 1.377 . S
C2150 C2152 1.384 . S
C2151 C2150 1.377 . S
C2151 C2157 1.390 . S
C2152 H2143 0.930 . S
C2152 C2150 1.384 . S
C2152 C2153 1.372 . S
C2153 C2152 1.372 . S
C2153 C2154 1.400 . S
C2153 C2158 1.490 . S
C2154 H2144 0.930 . S
C2154 C2153 1.400 . S
C2154 C2157 1.386 . S
H2155 C2171 0.930 . S
H2156 C2172 0.931 . S
C2157 H2145 0.929 . S
C2157 C2151 1.390 . S
C2157 C2154 1.386 . S
C2158 C2153 1.490 . S
C2158 C2160 1.395 . S
C2158 C2161 1.403 . S
H2159 C2165 0.930 . S
C2160 H2146 0.930 . S
C2160 C2158 1.395 . S
C2160 C2163 1.403 . S
C2161 C2158 1.403 . S
C2161 C2162 1.524 . S
C2161 C2165 1.400 . S
C2162 H2147 0.960 . S
C2162 H2148 0.960 . S
C2162 H2149 0.960 . S
C2162 C2161 1.524 . S
C2163 C2160 1.403 . S
C2163 C2164 1.392 . S
C2163 C2167 1.495 . S
C2164 C2163 1.392 . S
C2164 C2165 1.385 . S
C2164 C2166 1.478 . S
C2165 H2159 0.930 . S
C2165 C2161 1.400 . S
C2165 C2164 1.385 . S
C2166 C2164 1.478 . S
C2166 C2168 1.381 . S
C2166 C2172 1.383 . S
C2167 C2163 1.495 . S
C2167 H2173 0.959 . S
C2167 H2174 0.961 . S
C2167 H2175 0.960 . S
C2168 C2166 1.381 . S
C2168 C2169 1.394 . S
C2168 H2176 0.930 . S
C2169 C2168 1.394 . S
C2169 C2170 1.383 . S
C2169 H2177 0.929 . S
C2170 C2169 1.383 . S
C2170 C2171 1.377 . S
C2171 H2155 0.930 . S
C2171 C2170 1.377 . S
C2171 C2172 1.379 . S
C2172 H2156 0.931 . S
C2172 C2166 1.383 . S
C2172 C2171 1.379 . S
H2173 C2167 0.959 . S
H2174 C2167 0.961 . S
H2175 C2167 0.960 . S
H2176 C2168 0.930 . S
H2177 C2169 0.929 . S
H2178 C2186 0.929 . S
H2179 C2188 0.930 . S
H2180 C2190 0.930 . S
H2181 C2193 0.929 . S
H2182 C2196 0.930 . S
H2183 C2198 0.960 . S
H2184 C2198 0.960 . S
H2185 C2198 0.960 . S
C2186 H2178 0.929 . S
C2186 C2187 1.377 . S
C2186 C2188 1.384 . S
C2187 C2186 1.377 . S
C2187 C2193 1.390 . S
C2188 H2179 0.930 . S
C2188 C2186 1.384 . S
C2188 C2189 1.372 . S
C2189 C2188 1.372 . S
C2189 C2190 1.400 . S
C2189 C2194 1.490 . S
C2190 H2180 0.930 . S
C2190 C2189 1.400 . S
C2190 C2193 1.386 . S
H2191 C2207 0.930 . S
H2192 C2208 0.931 . S
C2193 H2181 0.929 . S
C2193 C2187 1.390 . S
C2193 C2190 1.386 . S
C2194 C2189 1.490 . S
C2194 C2196 1.395 . S
C2194 C2197 1.403 . S
H2195 C2201 0.930 . S
C2196 H2182 0.930 . S
C2196 C2194 1.395 . S
C2196 C2199 1.403 . S
C2197 C2194 1.403 . S
C2197 C2198 1.524 . S
C2197 C2201 1.400 . S
C2198 H2183 0.960 . S
C2198 H2184 0.960 . S
C2198 H2185 0.960 . S
C2198 C2197 1.524 . S
C2199 C2196 1.403 . S
C2199 C2200 1.392 . S
C2199 C2203 1.495 . S
C2200 C2199 1.392 . S
C2200 C2201 1.385 . S
C2200 C2202 1.478 . S
C2201 H2195 0.930 . S
C2201 C2197 1.400 . S
C2201 C2200 1.385 . S
C2202 C2200 1.478 . S
C2202 C2204 1.381 . S
C2202 C2208 1.383 . S
C2203 C2199 1.495 . S
C2203 H2209 0.959 . S
C2203 H2210 0.961 . S
C2203 H2211 0.960 . S
C2204 C2202 1.381 . S
C2204 C2205 1.394 . S
C2204 H2212 0.930 . S
C2205 C2204 1.394 . S
C2205 C2206 1.383 . S
C2205 H2213 0.929 . S
C2206 C2205 1.383 . S
C2206 C2207 1.377 . S
C2207 H2191 0.930 . S
C2207 C2206 1.377 . S
C2207 C2208 1.379 . S
C2208 H2192 0.931 . S
C2208 C2202 1.383 . S
C2208 C2207 1.379 . S
H2209 C2203 0.959 . S
H2210 C2203 0.961 . S
H2211 C2203 0.960 . S
H2212 C2204 0.930 . S
H2213 C2205 0.929 . S
H2214 C2222 0.929 . S
H2215 C2224 0.930 . S
H2216 C2226 0.930 . S
H2217 C2229 0.929 . S
H2218 C2232 0.930 . S
H2219 C2234 0.960 . S
H2220 C2234 0.960 . S
H2221 C2234 0.960 . S
C2222 H2214 0.929 . S
C2222 C2223 1.377 . S
C2222 C2224 1.384 . S
C2223 C2222 1.377 . S
C2223 C2229 1.390 . S
C2224 H2215 0.930 . S
C2224 C2222 1.384 . S
C2224 C2225 1.372 . S
C2225 C2224 1.372 . S
C2225 C2226 1.400 . S
C2225 C2230 1.490 . S
C2226 H2216 0.930 . S
C2226 C2225 1.400 . S
C2226 C2229 1.386 . S
H2227 C2243 0.930 . S
H2228 C2244 0.931 . S
C2229 H2217 0.929 . S
C2229 C2223 1.390 . S
C2229 C2226 1.386 . S
C2230 C2225 1.490 . S
C2230 C2232 1.395 . S
C2230 C2233 1.403 . S
H2231 C2237 0.930 . S
C2232 H2218 0.930 . S
C2232 C2230 1.395 . S
C2232 C2235 1.403 . S
C2233 C2230 1.403 . S
C2233 C2234 1.524 . S
C2233 C2237 1.400 . S
C2234 H2219 0.960 . S
C2234 H2220 0.960 . S
C2234 H2221 0.960 . S
C2234 C2233 1.524 . S
C2235 C2232 1.403 . S
C2235 C2236 1.392 . S
C2235 C2239 1.495 . S
C2236 C2235 1.392 . S
C2236 C2237 1.385 . S
C2236 C2238 1.478 . S
C2237 H2231 0.930 . S
C2237 C2233 1.400 . S
C2237 C2236 1.385 . S
C2238 C2236 1.478 . S
C2238 C2240 1.381 . S
C2238 C2244 1.383 . S
C2239 C2235 1.495 . S
C2239 H2245 0.959 . S
C2239 H2246 0.961 . S
C2239 H2247 0.960 . S
C2240 C2238 1.381 . S
C2240 C2241 1.394 . S
C2240 H2248 0.930 . S
C2241 C2240 1.394 . S
C2241 C2242 1.383 . S
C2241 H2249 0.929 . S
C2242 C2241 1.383 . S
C2242 C2243 1.377 . S
C2243 H2227 0.930 . S
C2243 C2242 1.377 . S
C2243 C2244 1.379 . S
C2244 H2228 0.931 . S
C2244 C2238 1.383 . S
C2244 C2243 1.379 . S
H2245 C2239 0.959 . S
H2246 C2239 0.961 . S
H2247 C2239 0.960 . S
H2248 C2240 0.930 . S
H2249 C2241 0.929 . S
H2250 C2258 0.929 . S
H2251 C2260 0.930 . S
H2252 C2262 0.930 . S
H2253 C2265 0.929 . S
H2254 C2268 0.930 . S
H2255 C2270 0.960 . S
H2256 C2270 0.960 . S
H2257 C2270 0.960 . S
C2258 H2250 0.929 . S
C2258 C2259 1.377 . S
C2258 C2260 1.384 . S
C2259 C2258 1.377 . S
C2259 C2265 1.390 . S
C2260 H2251 0.930 . S
C2260 C2258 1.384 . S
C2260 C2261 1.372 . S
C2261 C2260 1.372 . S
C2261 C2262 1.400 . S
C2261 C2266 1.490 . S
C2262 H2252 0.930 . S
C2262 C2261 1.400 . S
C2262 C2265 1.386 . S
H2263 C2279 0.930 . S
H2264 C2280 0.931 . S
C2265 H2253 0.929 . S
C2265 C2259 1.390 . S
C2265 C2262 1.386 . S
C2266 C2261 1.490 . S
C2266 C2268 1.395 . S
C2266 C2269 1.403 . S
H2267 C2273 0.930 . S
C2268 H2254 0.930 . S
C2268 C2266 1.395 . S
C2268 C2271 1.403 . S
C2269 C2266 1.403 . S
C2269 C2270 1.524 . S
C2269 C2273 1.400 . S
C2270 H2255 0.960 . S
C2270 H2256 0.960 . S
C2270 H2257 0.960 . S
C2270 C2269 1.524 . S
C2271 C2268 1.403 . S
C2271 C2272 1.392 . S
C2271 C2275 1.495 . S
C2272 C2271 1.392 . S
C2272 C2273 1.385 . S
C2272 C2274 1.478 . S
C2273 H2267 0.930 . S
C2273 C2269 1.400 . S
C2273 C2272 1.385 . S
C2274 C2272 1.478 . S
C2274 C2276 1.381 . S
C2274 C2280 1.383 . S
C2275 C2271 1.495 . S
C2275 H2281 0.959 . S
C2275 H2282 0.961 . S
C2275 H2283 0.960 . S
C2276 C2274 1.381 . S
C2276 C2277 1.394 . S
C2276 H2284 0.930 . S
C2277 C2276 1.394 . S
C2277 C2278 1.383 . S
C2277 H2285 0.929 . S
C2278 C2277 1.383 . S
C2278 C2279 1.377 . S
C2279 H2263 0.930 . S
C2279 C2278 1.377 . S
C2279 C2280 1.379 . S
C2280 H2264 0.931 . S
C2280 C2274 1.383 . S
C2280 C2279 1.379 . S
H2281 C2275 0.959 . S
H2282 C2275 0.961 . S
H2283 C2275 0.960 . S
H2284 C2276 0.930 . S
H2285 C2277 0.929 . S
H2286 C2294 0.929 . S
H2287 C2296 0.930 . S
H2288 C2298 0.930 . S
H2289 C2301 0.929 . S
H2290 C2304 0.930 . S
H2291 C2306 0.960 . S
H2292 C2306 0.960 . S
H2293 C2306 0.960 . S
C2294 H2286 0.929 . S
C2294 C2295 1.377 . S
C2294 C2296 1.384 . S
C2295 C2294 1.377 . S
C2295 C2301 1.390 . S
C2296 H2287 0.930 . S
C2296 C2294 1.384 . S
C2296 C2297 1.372 . S
C2297 C2296 1.372 . S
C2297 C2298 1.400 . S
C2297 C2302 1.490 . S
C2298 H2288 0.930 . S
C2298 C2297 1.400 . S
C2298 C2301 1.386 . S
H2299 C2315 0.930 . S
H2300 C2316 0.931 . S
C2301 H2289 0.929 . S
C2301 C2295 1.390 . S
C2301 C2298 1.386 . S
C2302 C2297 1.490 . S
C2302 C2304 1.395 . S
C2302 C2305 1.403 . S
H2303 C2309 0.930 . S
C2304 H2290 0.930 . S
C2304 C2302 1.395 . S
C2304 C2307 1.403 . S
C2305 C2302 1.403 . S
C2305 C2306 1.524 . S
C2305 C2309 1.400 . S
C2306 H2291 0.960 . S
C2306 H2292 0.960 . S
C2306 H2293 0.960 . S
C2306 C2305 1.524 . S
C2307 C2304 1.403 . S
C2307 C2308 1.392 . S
C2307 C2311 1.495 . S
C2308 C2307 1.392 . S
C2308 C2309 1.385 . S
C2308 C2310 1.478 . S
C2309 H2303 0.930 . S
C2309 C2305 1.400 . S
C2309 C2308 1.385 . S
C2310 C2308 1.478 . S
C2310 C2312 1.381 . S
C2310 C2316 1.383 . S
C2311 C2307 1.495 . S
C2311 H2317 0.959 . S
C2311 H2318 0.961 . S
C2311 H2319 0.960 . S
C2312 C2310 1.381 . S
C2312 C2313 1.394 . S
C2312 H2320 0.930 . S
C2313 C2312 1.394 . S
C2313 C2314 1.383 . S
C2313 H2321 0.929 . S
C2314 C2313 1.383 . S
C2314 C2315 1.377 . S
C2315 H2299 0.930 . S
C2315 C2314 1.377 . S
C2315 C2316 1.379 . S
C2316 H2300 0.931 . S
C2316 C2310 1.383 . S
C2316 C2315 1.379 . S
H2317 C2311 0.959 . S
H2318 C2311 0.961 . S
H2319 C2311 0.960 . S
H2320 C2312 0.930 . S
H2321 C2313 0.929 . S
H2322 C2330 0.929 . S
H2323 C2332 0.930 . S
H2324 C2334 0.930 . S
H2325 C2337 0.929 . S
H2326 C2340 0.930 . S
H2327 C2342 0.960 . S
H2328 C2342 0.960 . S
H2329 C2342 0.960 . S
C2330 H2322 0.929 . S
C2330 C2331 1.377 . S
C2330 C2332 1.384 . S
C2331 C2330 1.377 . S
C2331 C2337 1.390 . S
C2332 H2323 0.930 . S
C2332 C2330 1.384 . S
C2332 C2333 1.372 . S
C2333 C2332 1.372 . S
C2333 C2334 1.400 . S
C2333 C2338 1.490 . S
C2334 H2324 0.930 . S
C2334 C2333 1.400 . S
C2334 C2337 1.386 . S
H2335 C2351 0.930 . S
H2336 C2352 0.931 . S
C2337 H2325 0.929 . S
C2337 C2331 1.390 . S
C2337 C2334 1.386 . S
C2338 C2333 1.490 . S
C2338 C2340 1.395 . S
C2338 C2341 1.403 . S
H2339 C2345 0.930 . S
C2340 H2326 0.930 . S
C2340 C2338 1.395 . S
C2340 C2343 1.403 . S
C2341 C2338 1.403 . S
C2341 C2342 1.524 . S
C2341 C2345 1.400 . S
C2342 H2327 0.960 . S
C2342 H2328 0.960 . S
C2342 H2329 0.960 . S
C2342 C2341 1.524 . S
C2343 C2340 1.403 . S
C2343 C2344 1.392 . S
C2343 C2347 1.495 . S
C2344 C2343 1.392 . S
C2344 C2345 1.385 . S
C2344 C2346 1.478 . S
C2345 H2339 0.930 . S
C2345 C2341 1.400 . S
C2345 C2344 1.385 . S
C2346 C2344 1.478 . S
C2346 C2348 1.381 . S
C2346 C2352 1.383 . S
C2347 C2343 1.495 . S
C2347 H2353 0.959 . S
C2347 H2354 0.961 . S
C2347 H2355 0.960 . S
C2348 C2346 1.381 . S
C2348 C2349 1.394 . S
C2348 H2356 0.930 . S
C2349 C2348 1.394 . S
C2349 C2350 1.383 . S
C2349 H2357 0.929 . S
C2350 C2349 1.383 . S
C2350 C2351 1.377 . S
C2351 H2335 0.930 . S
C2351 C2350 1.377 . S
C2351 C2352 1.379 . S
C2352 H2336 0.931 . S
C2352 C2346 1.383 . S
C2352 C2351 1.379 . S
H2353 C2347 0.959 . S
H2354 C2347 0.961 . S
H2355 C2347 0.960 . S
H2356 C2348 0.930 . S
H2357 C2349 0.929 . S
H2358 C2366 0.929 . S
H2359 C2368 0.930 . S
H2360 C2370 0.930 . S
H2361 C2373 0.929 . S
H2362 C2376 0.930 . S
H2363 C2378 0.960 . S
H2364 C2378 0.960 . S
H2365 C2378 0.960 . S
C2366 H2358 0.929 . S
C2366 C2367 1.377 . S
C2366 C2368 1.384 . S
C2367 C2366 1.377 . S
C2367 C2373 1.390 . S
C2368 H2359 0.930 . S
C2368 C2366 1.384 . S
C2368 C2369 1.372 . S
C2369 C2368 1.372 . S
C2369 C2370 1.400 . S
C2369 C2374 1.490 . S
C2370 H2360 0.930 . S
C2370 C2369 1.400 . S
C2370 C2373 1.386 . S
H2371 C2387 0.930 . S
H2372 C2388 0.931 . S
C2373 H2361 0.929 . S
C2373 C2367 1.390 . S
C2373 C2370 1.386 . S
C2374 C2369 1.490 . S
C2374 C2376 1.395 . S
C2374 C2377 1.403 . S
H2375 C2381 0.930 . S
C2376 H2362 0.930 . S
C2376 C2374 1.395 . S
C2376 C2379 1.403 . S
C2377 C2374 1.403 . S
C2377 C2378 1.524 . S
C2377 C2381 1.400 . S
C2378 H2363 0.960 . S
C2378 H2364 0.960 . S
C2378 H2365 0.960 . S
C2378 C2377 1.524 . S
C2379 C2376 1.403 . S
C2379 C2380 1.392 . S
C2379 C2383 1.495 . S
C2380 C2379 1.392 . S
C2380 C2381 1.385 . S
C2380 C2382 1.478 . S
C2381 H2375 0.930 . S
C2381 C2377 1.400 . S
C2381 C2380 1.385 . S
C2382 C2380 1.478 . S
C2382 C2384 1.381 . S
C2382 C2388 1.383 . S
C2383 C2379 1.495 . S
C2383 H2389 0.959 . S
C2383 H2390 0.961 . S
C2383 H2391 0.960 . S
C2384 C2382 1.381 . S
C2384 C2385 1.394 . S
C2384 H2392 0.930 . S
C2385 C2384 1.394 . S
C2385 C2386 1.383 . S
C2385 H2393 0.929 . S
C2386 C2385 1.383 . S
C2386 C2387 1.377 . S
C2387 H2371 0.930 . S
C2387 C2386 1.377 . S
C2387 C2388 1.379 . S
C2388 H2372 0.931 . S
C2388 C2382 1.383 . S
C2388 C2387 1.379 . S
H2389 C2383 0.959 . S
H2390 C2383 0.961 . S
H2391 C2383 0.960 . S
H2392 C2384 0.930 . S
H2393 C2385 0.929 . S
H2394 C2402 0.929 . S
H2395 C2404 0.930 . S
H2396 C2406 0.930 . S
H2397 C2409 0.929 . S
H2398 C2412 0.930 . S
H2399 C2414 0.960 . S
H2400 C2414 0.960 . S
H2401 C2414 0.960 . S
C2402 H2394 0.929 . S
C2402 C2403 1.377 . S
C2402 C2404 1.384 . S
C2403 C2402 1.377 . S
C2403 C2409 1.390 . S
C2404 H2395 0.930 . S
C2404 C2402 1.384 . S
C2404 C2405 1.372 . S
C2405 C2404 1.372 . S
C2405 C2406 1.400 . S
C2405 C2410 1.490 . S
C2406 H2396 0.930 . S
C2406 C2405 1.400 . S
C2406 C2409 1.386 . S
H2407 C2423 0.930 . S
H2408 C2424 0.931 . S
C2409 H2397 0.929 . S
C2409 C2403 1.390 . S
C2409 C2406 1.386 . S
C2410 C2405 1.490 . S
C2410 C2412 1.395 . S
C2410 C2413 1.403 . S
H2411 C2417 0.930 . S
C2412 H2398 0.930 . S
C2412 C2410 1.395 . S
C2412 C2415 1.403 . S
C2413 C2410 1.403 . S
C2413 C2414 1.524 . S
C2413 C2417 1.400 . S
C2414 H2399 0.960 . S
C2414 H2400 0.960 . S
C2414 H2401 0.960 . S
C2414 C2413 1.524 . S
C2415 C2412 1.403 . S
C2415 C2416 1.392 . S
C2415 C2419 1.495 . S
C2416 C2415 1.392 . S
C2416 C2417 1.385 . S
C2416 C2418 1.478 . S
C2417 H2411 0.930 . S
C2417 C2413 1.400 . S
C2417 C2416 1.385 . S
C2418 C2416 1.478 . S
C2418 C2420 1.381 . S
C2418 C2424 1.383 . S
C2419 C2415 1.495 . S
C2419 H2425 0.959 . S
C2419 H2426 0.961 . S
C2419 H2427 0.960 . S
C2420 C2418 1.381 . S
C2420 C2421 1.394 . S
C2420 H2428 0.930 . S
C2421 C2420 1.394 . S
C2421 C2422 1.383 . S
C2421 H2429 0.929 . S
C2422 C2421 1.383 . S
C2422 C2423 1.377 . S
C2423 H2407 0.930 . S
C2423 C2422 1.377 . S
C2423 C2424 1.379 . S
C2424 H2408 0.931 . S
C2424 C2418 1.383 . S
C2424 C2423 1.379 . S
H2425 C2419 0.959 . S
H2426 C2419 0.961 . S
H2427 C2419 0.960 . S
H2428 C2420 0.930 . S
H2429 C2421 0.929 . S
H2430 C2438 0.929 . S
H2431 C2440 0.930 . S
H2432 C2442 0.930 . S
H2433 C2445 0.929 . S
H2434 C2448 0.930 . S
H2435 C2450 0.960 . S
H2436 C2450 0.960 . S
H2437 C2450 0.960 . S
C2438 H2430 0.929 . S
C2438 C2439 1.377 . S
C2438 C2440 1.384 . S
C2439 C2438 1.377 . S
C2439 C2445 1.390 . S
C2440 H2431 0.930 . S
C2440 C2438 1.384 . S
C2440 C2441 1.372 . S
C2441 C2440 1.372 . S
C2441 C2442 1.400 . S
C2441 C2446 1.490 . S
C2442 H2432 0.930 . S
C2442 C2441 1.400 . S
C2442 C2445 1.386 . S
H2443 C2459 0.930 . S
H2444 C2460 0.931 . S
C2445 H2433 0.929 . S
C2445 C2439 1.390 . S
C2445 C2442 1.386 . S
C2446 C2441 1.490 . S
C2446 C2448 1.395 . S
C2446 C2449 1.403 . S
H2447 C2453 0.930 . S
C2448 H2434 0.930 . S
C2448 C2446 1.395 . S
C2448 C2451 1.403 . S
C2449 C2446 1.403 . S
C2449 C2450 1.524 . S
C2449 C2453 1.400 . S
C2450 H2435 0.960 . S
C2450 H2436 0.960 . S
C2450 H2437 0.960 . S
C2450 C2449 1.524 . S
C2451 C2448 1.403 . S
C2451 C2452 1.392 . S
C2451 C2455 1.495 . S
C2452 C2451 1.392 . S
C2452 C2453 1.385 . S
C2452 C2454 1.478 . S
C2453 H2447 0.930 . S
C2453 C2449 1.400 . S
C2453 C2452 1.385 . S
C2454 C2452 1.478 . S
C2454 C2456 1.381 . S
C2454 C2460 1.383 . S
C2455 C2451 1.495 . S
C2455 H2461 0.959 . S
C2455 H2462 0.961 . S
C2455 H2463 0.960 . S
C2456 C2454 1.381 . S
C2456 C2457 1.394 . S
C2456 H2464 0.930 . S
C2457 C2456 1.394 . S
C2457 C2458 1.383 . S
C2457 H2465 0.929 . S
C2458 C2457 1.383 . S
C2458 C2459 1.377 . S
C2459 H2443 0.930 . S
C2459 C2458 1.377 . S
C2459 C2460 1.379 . S
C2460 H2444 0.931 . S
C2460 C2454 1.383 . S
C2460 C2459 1.379 . S
H2461 C2455 0.959 . S
H2462 C2455 0.961 . S
H2463 C2455 0.960 . S
H2464 C2456 0.930 . S
H2465 C2457 0.929 . S
H2466 C2474 0.929 . S
H2467 C2476 0.930 . S
H2468 C2478 0.930 . S
H2469 C2481 0.929 . S
H2470 C2484 0.930 . S
H2471 C2486 0.960 . S
H2472 C2486 0.960 . S
H2473 C2486 0.960 . S
C2474 H2466 0.929 . S
C2474 C2475 1.377 . S
C2474 C2476 1.384 . S
C2475 C2474 1.377 . S
C2475 C2481 1.390 . S
C2476 H2467 0.930 . S
C2476 C2474 1.384 . S
C2476 C2477 1.372 . S
C2477 C2476 1.372 . S
C2477 C2478 1.400 . S
C2477 C2482 1.490 . S
C2478 H2468 0.930 . S
C2478 C2477 1.400 . S
C2478 C2481 1.386 . S
H2479 C2495 0.930 . S
H2480 C2496 0.931 . S
C2481 H2469 0.929 . S
C2481 C2475 1.390 . S
C2481 C2478 1.386 . S
C2482 C2477 1.490 . S
C2482 C2484 1.395 . S
C2482 C2485 1.403 . S
H2483 C2489 0.930 . S
C2484 H2470 0.930 . S
C2484 C2482 1.395 . S
C2484 C2487 1.403 . S
C2485 C2482 1.403 . S
C2485 C2486 1.524 . S
C2485 C2489 1.400 . S
C2486 H2471 0.960 . S
C2486 H2472 0.960 . S
C2486 H2473 0.960 . S
C2486 C2485 1.524 . S
C2487 C2484 1.403 . S
C2487 C2488 1.392 . S
C2487 C2491 1.495 . S
C2488 C2487 1.392 . S
C2488 C2489 1.385 . S
C2488 C2490 1.478 . S
C2489 H2483 0.930 . S
C2489 C2485 1.400 . S
C2489 C2488 1.385 . S
C2490 C2488 1.478 . S
C2490 C2492 1.381 . S
C2490 C2496 1.383 . S
C2491 C2487 1.495 . S
C2491 H2497 0.959 . S
C2491 H2498 0.961 . S
C2491 H2499 0.960 . S
C2492 C2490 1.381 . S
C2492 C2493 1.394 . S
C2492 H2500 0.930 . S
C2493 C2492 1.394 . S
C2493 C2494 1.383 . S
C2493 H2501 0.929 . S
C2494 C2493 1.383 . S
C2494 C2495 1.377 . S
C2495 H2479 0.930 . S
C2495 C2494 1.377 . S
C2495 C2496 1.379 . S
C2496 H2480 0.931 . S
C2496 C2490 1.383 . S
C2496 C2495 1.379 . S
H2497 C2491 0.959 . S
H2498 C2491 0.961 . S
H2499 C2491 0.960 . S
H2500 C2492 0.930 . S
H2501 C2493 0.929 . S
H2502 C2510 0.929 . S
H2503 C2512 0.930 . S
H2504 C2514 0.930 . S
H2505 C2517 0.929 . S
H2506 C2520 0.930 . S
H2507 C2522 0.960 . S
H2508 C2522 0.960 . S
H2509 C2522 0.960 . S
C2510 H2502 0.929 . S
C2510 C2511 1.377 . S
C2510 C2512 1.384 . S
C2511 C2510 1.377 . S
C2511 C2517 1.390 . S
C2512 H2503 0.930 . S
C2512 C2510 1.384 . S
C2512 C2513 1.372 . S
C2513 C2512 1.372 . S
C2513 C2514 1.400 . S
C2513 C2518 1.490 . S
C2514 H2504 0.930 . S
C2514 C2513 1.400 . S
C2514 C2517 1.386 . S
H2515 C2531 0.930 . S
H2516 C2532 0.931 . S
C2517 H2505 0.929 . S
C2517 C2511 1.390 . S
C2517 C2514 1.386 . S
C2518 C2513 1.490 . S
C2518 C2520 1.395 . S
C2518 C2521 1.403 . S
H2519 C2525 0.930 . S
C2520 H2506 0.930 . S
C2520 C2518 1.395 . S
C2520 C2523 1.403 . S
C2521 C2518 1.403 . S
C2521 C2522 1.524 . S
C2521 C2525 1.400 . S
C2522 H2507 0.960 . S
C2522 H2508 0.960 . S
C2522 H2509 0.960 . S
C2522 C2521 1.524 . S
C2523 C2520 1.403 . S
C2523 C2524 1.392 . S
C2523 C2527 1.495 . S
C2524 C2523 1.392 . S
C2524 C2525 1.385 . S
C2524 C2526 1.478 . S
C2525 H2519 0.930 . S
C2525 C2521 1.400 . S
C2525 C2524 1.385 . S
C2526 C2524 1.478 . S
C2526 C2528 1.381 . S
C2526 C2532 1.383 . S
C2527 C2523 1.495 . S
C2527 H2533 0.959 . S
C2527 H2534 0.961 . S
C2527 H2535 0.960 . S
C2528 C2526 1.381 . S
C2528 C2529 1.394 . S
C2528 H2536 0.930 . S
C2529 C2528 1.394 . S
C2529 C2530 1.383 . S
C2529 H2537 0.929 . S
C2530 C2529 1.383 . S
C2530 C2531 1.377 . S
C2531 H2515 0.930 . S
C2531 C2530 1.377 . S
C2531 C2532 1.379 . S
C2532 H2516 0.931 . S
C2532 C2526 1.383 . S
C2532 C2531 1.379 . S
H2533 C2527 0.959 . S
H2534 C2527 0.961 . S
H2535 C2527 0.960 . S
H2536 C2528 0.930 . S
H2537 C2529 0.929 . S
H2538 C2546 0.929 . S
H2539 C2548 0.930 . S
H2540 C2550 0.930 . S
H2541 C2553 0.929 . S
H2542 C2556 0.930 . S
H2543 C2558 0.960 . S
H2544 C2558 0.960 . S
H2545 C2558 0.960 . S
C2546 H2538 0.929 . S
C2546 C2547 1.377 . S
C2546 C2548 1.384 . S
C2547 C2546 1.377 . S
C2547 C2553 1.390 . S
C2548 H2539 0.930 . S
C2548 C2546 1.384 . S
C2548 C2549 1.372 . S
C2549 C2548 1.372 . S
C2549 C2550 1.400 . S
C2549 C2554 1.490 . S
C2550 H2540 0.930 . S
C2550 C2549 1.400 . S
C2550 C2553 1.386 . S
H2551 C2567 0.930 . S
H2552 C2568 0.931 . S
C2553 H2541 0.929 . S
C2553 C2547 1.390 . S
C2553 C2550 1.386 . S
C2554 C2549 1.490 . S
C2554 C2556 1.395 . S
C2554 C2557 1.403 . S
H2555 C2561 0.930 . S
C2556 H2542 0.930 . S
C2556 C2554 1.395 . S
C2556 C2559 1.403 . S
C2557 C2554 1.403 . S
C2557 C2558 1.524 . S
C2557 C2561 1.400 . S
C2558 H2543 0.960 . S
C2558 H2544 0.960 . S
C2558 H2545 0.960 . S
C2558 C2557 1.524 . S
C2559 C2556 1.403 . S
C2559 C2560 1.392 . S
C2559 C2563 1.495 . S
C2560 C2559 1.392 . S
C2560 C2561 1.385 . S
C2560 C2562 1.478 . S
C2561 H2555 0.930 . S
C2561 C2557 1.400 . S
C2561 C2560 1.385 . S
C2562 C2560 1.478 . S
C2562 C2564 1.381 . S
C2562 C2568 1.383 . S
C2563 C2559 1.495 . S
C2563 H2569 0.959 . S
C2563 H2570 0.961 . S
C2563 H2571 0.960 . S
C2564 C2562 1.381 . S
C2564 C2565 1.394 . S
C2564 H2572 0.930 . S
C2565 C2564 1.394 . S
C2565 C2566 1.383 . S
C2565 H2573 0.929 . S
C2566 C2565 1.383 . S
C2566 C2567 1.377 . S
C2567 H2551 0.930 . S
C2567 C2566 1.377 . S
C2567 C2568 1.379 . S
C2568 H2552 0.931 . S
C2568 C2562 1.383 . S
C2568 C2567 1.379 . S
H2569 C2563 0.959 . S
H2570 C2563 0.961 . S
H2571 C2563 0.960 . S
H2572 C2564 0.930 . S
H2573 C2565 0.929 . S
H2574 C2582 0.929 . S
H2575 C2584 0.930 . S
H2576 C2586 0.930 . S
H2577 C2589 0.929 . S
H2578 C2592 0.930 . S
H2579 C2594 0.960 . S
H2580 C2594 0.960 . S
H2581 C2594 0.960 . S
C2582 H2574 0.929 . S
C2582 C2583 1.377 . S
C2582 C2584 1.384 . S
C2583 C2582 1.377 . S
C2583 C2589 1.390 . S
C2584 H2575 0.930 . S
C2584 C2582 1.384 . S
C2584 C2585 1.372 . S
C2585 C2584 1.372 . S
C2585 C2586 1.400 . S
C2585 C2590 1.490 . S
C2586 H2576 0.930 . S
C2586 C2585 1.400 . S
C2586 C2589 1.386 . S
H2587 C2603 0.930 . S
H2588 C2604 0.931 . S
C2589 H2577 0.929 . S
C2589 C2583 1.390 . S
C2589 C2586 1.386 . S
C2590 C2585 1.490 . S
C2590 C2592 1.395 . S
C2590 C2593 1.403 . S
H2591 C2597 0.930 . S
C2592 H2578 0.930 . S
C2592 C2590 1.395 . S
C2592 C2595 1.403 . S
C2593 C2590 1.403 . S
C2593 C2594 1.524 . S
C2593 C2597 1.400 . S
C2594 H2579 0.960 . S
C2594 H2580 0.960 . S
C2594 H2581 0.960 . S
C2594 C2593 1.524 . S
C2595 C2592 1.403 . S
C2595 C2596 1.392 . S
C2595 C2599 1.495 . S
C2596 C2595 1.392 . S
C2596 C2597 1.385 . S
C2596 C2598 1.478 . S
C2597 H2591 0.930 . S
C2597 C2593 1.400 . S
C2597 C2596 1.385 . S
C2598 C2596 1.478 . S
C2598 C2600 1.381 . S
C2598 C2604 1.383 . S
C2599 C2595 1.495 . S
C2599 H2605 0.959 . S
C2599 H2606 0.961 . S
C2599 H2607 0.960 . S
C2600 C2598 1.381 . S
C2600 C2601 1.394 . S
C2600 H2608 0.930 . S
C2601 C2600 1.394 . S
C2601 C2602 1.383 . S
C2601 H2609 0.929 . S
C2602 C2601 1.383 . S
C2602 C2603 1.377 . S
C2603 H2587 0.930 . S
C2603 C2602 1.377 . S
C2603 C2604 1.379 . S
C2604 H2588 0.931 . S
C2604 C2598 1.383 . S
C2604 C2603 1.379 . S
H2605 C2599 0.959 . S
H2606 C2599 0.961 . S
H2607 C2599 0.960 . S
H2608 C2600 0.930 . S
H2609 C2601 0.929 . S
H2610 C2618 0.929 . S
H2611 C2620 0.930 . S
H2612 C2622 0.930 . S
H2613 C2625 0.929 . S
H2614 C2628 0.930 . S
H2615 C2630 0.960 . S
H2616 C2630 0.960 . S
H2617 C2630 0.960 . S
C2618 H2610 0.929 . S
C2618 C2619 1.377 . S
C2618 C2620 1.384 . S
C2619 C2618 1.377 . S
C2619 C2625 1.390 . S
C2620 H2611 0.930 . S
C2620 C2618 1.384 . S
C2620 C2621 1.372 . S
C2621 C2620 1.372 . S
C2621 C2622 1.400 . S
C2621 C2626 1.490 . S
C2622 H2612 0.930 . S
C2622 C2621 1.400 . S
C2622 C2625 1.386 . S
H2623 C2639 0.930 . S
H2624 C2640 0.931 . S
C2625 H2613 0.929 . S
C2625 C2619 1.390 . S
C2625 C2622 1.386 . S
C2626 C2621 1.490 . S
C2626 C2628 1.395 . S
C2626 C2629 1.403 . S
H2627 C2633 0.930 . S
C2628 H2614 0.930 . S
C2628 C2626 1.395 . S
C2628 C2631 1.403 . S
C2629 C2626 1.403 . S
C2629 C2630 1.524 . S
C2629 C2633 1.400 . S
C2630 H2615 0.960 . S
C2630 H2616 0.960 . S
C2630 H2617 0.960 . S
C2630 C2629 1.524 . S
C2631 C2628 1.403 . S
C2631 C2632 1.392 . S
C2631 C2635 1.495 . S
C2632 C2631 1.392 . S
C2632 C2633 1.385 . S
C2632 C2634 1.478 . S
C2633 H2627 0.930 . S
C2633 C2629 1.400 . S
C2633 C2632 1.385 . S
C2634 C2632 1.478 . S
C2634 C2636 1.381 . S
C2634 C2640 1.383 . S
C2635 C2631 1.495 . S
C2635 H2641 0.959 . S
C2635 H2642 0.961 . S
C2635 H2643 0.960 . S
C2636 C2634 1.381 . S
C2636 C2637 1.394 . S
C2636 H2644 0.930 . S
C2637 C2636 1.394 . S
C2637 C2638 1.383 . S
C2637 H2645 0.929 . S
C2638 C2637 1.383 . S
C2638 C2639 1.377 . S
C2639 H2623 0.930 . S
C2639 C2638 1.377 . S
C2639 C2640 1.379 . S
C2640 H2624 0.931 . S
C2640 C2634 1.383 . S
C2640 C2639 1.379 . S
H2641 C2635 0.959 . S
H2642 C2635 0.961 . S
H2643 C2635 0.960 . S
H2644 C2636 0.930 . S
H2645 C2637 0.929 . S
H2646 C2654 0.929 . S
H2647 C2656 0.930 . S
H2648 C2658 0.930 . S
H2649 C2661 0.929 . S
H2650 C2664 0.930 . S
H2651 C2666 0.960 . S
H2652 C2666 0.960 . S
H2653 C2666 0.960 . S
C2654 H2646 0.929 . S
C2654 C2655 1.377 . S
C2654 C2656 1.384 . S
C2655 C2654 1.377 . S
C2655 C2661 1.390 . S
C2656 H2647 0.930 . S
C2656 C2654 1.384 . S
C2656 C2657 1.372 . S
C2657 C2656 1.372 . S
C2657 C2658 1.400 . S
C2657 C2662 1.490 . S
C2658 H2648 0.930 . S
C2658 C2657 1.400 . S
C2658 C2661 1.386 . S
H2659 C2675 0.930 . S
H2660 C2676 0.931 . S
C2661 H2649 0.929 . S
C2661 C2655 1.390 . S
C2661 C2658 1.386 . S
C2662 C2657 1.490 . S
C2662 C2664 1.395 . S
C2662 C2665 1.403 . S
H2663 C2669 0.930 . S
C2664 H2650 0.930 . S
C2664 C2662 1.395 . S
C2664 C2667 1.403 . S
C2665 C2662 1.403 . S
C2665 C2666 1.524 . S
C2665 C2669 1.400 . S
C2666 H2651 0.960 . S
C2666 H2652 0.960 . S
C2666 H2653 0.960 . S
C2666 C2665 1.524 . S
C2667 C2664 1.403 . S
C2667 C2668 1.392 . S
C2667 C2671 1.495 . S
C2668 C2667 1.392 . S
C2668 C2669 1.385 . S
C2668 C2670 1.478 . S
C2669 H2663 0.930 . S
C2669 C2665 1.400 . S
C2669 C2668 1.385 . S
C2670 C2668 1.478 . S
C2670 C2672 1.381 . S
C2670 C2676 1.383 . S
C2671 C2667 1.495 . S
C2671 H2677 0.959 . S
C2671 H2678 0.961 . S
C2671 H2679 0.960 . S
C2672 C2670 1.381 . S
C2672 C2673 1.394 . S
C2672 H2680 0.930 . S
C2673 C2672 1.394 . S
C2673 C2674 1.383 . S
C2673 H2681 0.929 . S
C2674 C2673 1.383 . S
C2674 C2675 1.377 . S
C2675 H2659 0.930 . S
C2675 C2674 1.377 . S
C2675 C2676 1.379 . S
C2676 H2660 0.931 . S
C2676 C2670 1.383 . S
C2676 C2675 1.379 . S
H2677 C2671 0.959 . S
H2678 C2671 0.961 . S
H2679 C2671 0.960 . S
H2680 C2672 0.930 . S
H2681 C2673 0.929 . S
H2682 C2690 0.929 . S
H2683 C2692 0.930 . S
H2684 C2694 0.930 . S
H2685 C2697 0.929 . S
H2686 C2700 0.930 . S
H2687 C2702 0.960 . S
H2688 C2702 0.960 . S
H2689 C2702 0.960 . S
C2690 H2682 0.929 . S
C2690 C2691 1.377 . S
C2690 C2692 1.384 . S
C2691 C2690 1.377 . S
C2691 C2697 1.390 . S
C2692 H2683 0.930 . S
C2692 C2690 1.384 . S
C2692 C2693 1.372 . S
C2693 C2692 1.372 . S
C2693 C2694 1.400 . S
C2693 C2698 1.490 . S
C2694 H2684 0.930 . S
C2694 C2693 1.400 . S
C2694 C2697 1.386 . S
H2695 C2711 0.930 . S
H2696 C2712 0.931 . S
C2697 H2685 0.929 . S
C2697 C2691 1.390 . S
C2697 C2694 1.386 . S
C2698 C2693 1.490 . S
C2698 C2700 1.395 . S
C2698 C2701 1.403 . S
H2699 C2705 0.930 . S
C2700 H2686 0.930 . S
C2700 C2698 1.395 . S
C2700 C2703 1.403 . S
C2701 C2698 1.403 . S
C2701 C2702 1.524 . S
C2701 C2705 1.400 . S
C2702 H2687 0.960 . S
C2702 H2688 0.960 . S
C2702 H2689 0.960 . S
C2702 C2701 1.524 . S
C2703 C2700 1.403 . S
C2703 C2704 1.392 . S
C2703 C2707 1.495 . S
C2704 C2703 1.392 . S
C2704 C2705 1.385 . S
C2704 C2706 1.478 . S
C2705 H2699 0.930 . S
C2705 C2701 1.400 . S
C2705 C2704 1.385 . S
C2706 C2704 1.478 . S
C2706 C2708 1.381 . S
C2706 C2712 1.383 . S
C2707 C2703 1.495 . S
C2707 H2713 0.959 . S
C2707 H2714 0.961 . S
C2707 H2715 0.960 . S
C2708 C2706 1.381 . S
C2708 C2709 1.394 . S
C2708 H2716 0.930 . S
C2709 C2708 1.394 . S
C2709 C2710 1.383 . S
C2709 H2717 0.929 . S
C2710 C2709 1.383 . S
C2710 C2711 1.377 . S
C2711 H2695 0.930 . S
C2711 C2710 1.377 . S
C2711 C2712 1.379 . S
C2712 H2696 0.931 . S
C2712 C2706 1.383 . S
C2712 C2711 1.379 . S
H2713 C2707 0.959 . S
H2714 C2707 0.961 . S
H2715 C2707 0.960 . S
H2716 C2708 0.930 . S
H2717 C2709 0.929 . S
H2718 C2726 0.929 . S
H2719 C2728 0.930 . S
H2720 C2730 0.930 . S
H2721 C2733 0.929 . S
H2722 C2736 0.930 . S
H2723 C2738 0.960 . S
H2724 C2738 0.960 . S
H2725 C2738 0.960 . S
C2726 H2718 0.929 . S
C2726 C2727 1.377 . S
C2726 C2728 1.384 . S
C2727 C2726 1.377 . S
C2727 C2733 1.390 . S
C2728 H2719 0.930 . S
C2728 C2726 1.384 . S
C2728 C2729 1.372 . S
C2729 C2728 1.372 . S
C2729 C2730 1.400 . S
C2729 C2734 1.490 . S
C2730 H2720 0.930 . S
C2730 C2729 1.400 . S
C2730 C2733 1.386 . S
H2731 C2747 0.930 . S
H2732 C2748 0.931 . S
C2733 H2721 0.929 . S
C2733 C2727 1.390 . S
C2733 C2730 1.386 . S
C2734 C2729 1.490 . S
C2734 C2736 1.395 . S
C2734 C2737 1.403 . S
H2735 C2741 0.930 . S
C2736 H2722 0.930 . S
C2736 C2734 1.395 . S
C2736 C2739 1.403 . S
C2737 C2734 1.403 . S
C2737 C2738 1.524 . S
C2737 C2741 1.400 . S
C2738 H2723 0.960 . S
C2738 H2724 0.960 . S
C2738 H2725 0.960 . S
C2738 C2737 1.524 . S
C2739 C2736 1.403 . S
C2739 C2740 1.392 . S
C2739 C2743 1.495 . S
C2740 C2739 1.392 . S
C2740 C2741 1.385 . S
C2740 C2742 1.478 . S
C2741 H2735 0.930 . S
C2741 C2737 1.400 . S
C2741 C2740 1.385 . S
C2742 C2740 1.478 . S
C2742 C2744 1.381 . S
C2742 C2748 1.383 . S
C2743 C2739 1.495 . S
C2743 H2749 0.959 . S
C2743 H2750 0.961 . S
C2743 H2751 0.960 . S
C2744 C2742 1.381 . S
C2744 C2745 1.394 . S
C2744 H2752 0.930 . S
C2745 C2744 1.394 . S
C2745 C2746 1.383 . S
C2745 H2753 0.929 . S
C2746 C2745 1.383 . S
C2746 C2747 1.377 . S
C2747 H2731 0.930 . S
C2747 C2746 1.377 . S
C2747 C2748 1.379 . S
C2748 H2732 0.931 . S
C2748 C2742 1.383 . S
C2748 C2747 1.379 . S
H2749 C2743 0.959 . S
H2750 C2743 0.961 . S
H2751 C2743 0.960 . S
H2752 C2744 0.930 . S
H2753 C2745 0.929 . S
H2754 C2762 0.929 . S
H2755 C2764 0.930 . S
H2756 C2766 0.930 . S
H2757 C2769 0.929 . S
H2758 C2772 0.930 . S
H2759 C2774 0.960 . S
H2760 C2774 0.960 . S
H2761 C2774 0.960 . S
C2762 H2754 0.929 . S
C2762 C2763 1.377 . S
C2762 C2764 1.384 . S
C2763 C2762 1.377 . S
C2763 C2769 1.390 . S
C2764 H2755 0.930 . S
C2764 C2762 1.384 . S
C2764 C2765 1.372 . S
C2765 C2764 1.372 . S
C2765 C2766 1.400 . S
C2765 C2770 1.490 . S
C2766 H2756 0.930 . S
C2766 C2765 1.400 . S
C2766 C2769 1.386 . S
H2767 C2783 0.930 . S
H2768 C2784 0.931 . S
C2769 H2757 0.929 . S
C2769 C2763 1.390 . S
C2769 C2766 1.386 . S
C2770 C2765 1.490 . S
C2770 C2772 1.395 . S
C2770 C2773 1.403 . S
H2771 C2777 0.930 . S
C2772 H2758 0.930 . S
C2772 C2770 1.395 . S
C2772 C2775 1.403 . S
C2773 C2770 1.403 . S
C2773 C2774 1.524 . S
C2773 C2777 1.400 . S
C2774 H2759 0.960 . S
C2774 H2760 0.960 . S
C2774 H2761 0.960 . S
C2774 C2773 1.524 . S
C2775 C2772 1.403 . S
C2775 C2776 1.392 . S
C2775 C2779 1.495 . S
C2776 C2775 1.392 . S
C2776 C2777 1.385 . S
C2776 C2778 1.478 . S
C2777 H2771 0.930 . S
C2777 C2773 1.400 . S
C2777 C2776 1.385 . S
C2778 C2776 1.478 . S
C2778 C2780 1.381 . S
C2778 C2784 1.383 . S
C2779 C2775 1.495 . S
C2779 H2785 0.959 . S
C2779 H2786 0.961 . S
C2779 H2787 0.960 . S
C2780 C2778 1.381 . S
C2780 C2781 1.394 . S
C2780 H2788 0.930 . S
C2781 C2780 1.394 . S
C2781 C2782 1.383 . S
C2781 H2789 0.929 . S
C2782 C2781 1.383 . S
C2782 C2783 1.377 . S
C2783 H2767 0.930 . S
C2783 C2782 1.377 . S
C2783 C2784 1.379 . S
C2784 H2768 0.931 . S
C2784 C2778 1.383 . S
C2784 C2783 1.379 . S
H2785 C2779 0.959 . S
H2786 C2779 0.961 . S
H2787 C2779 0.960 . S
H2788 C2780 0.930 . S
H2789 C2781 0.929 . S
H2790 C2798 0.929 . S
H2791 C2800 0.930 . S
H2792 C2802 0.930 . S
H2793 C2805 0.929 . S
H2794 C2808 0.930 . S
H2795 C2810 0.960 . S
H2796 C2810 0.960 . S
H2797 C2810 0.960 . S
C2798 H2790 0.929 . S
C2798 C2799 1.377 . S
C2798 C2800 1.384 . S
C2799 C2798 1.377 . S
C2799 C2805 1.390 . S
C2800 H2791 0.930 . S
C2800 C2798 1.384 . S
C2800 C2801 1.372 . S
C2801 C2800 1.372 . S
C2801 C2802 1.400 . S
C2801 C2806 1.490 . S
C2802 H2792 0.930 . S
C2802 C2801 1.400 . S
C2802 C2805 1.386 . S
H2803 C2819 0.930 . S
H2804 C2820 0.931 . S
C2805 H2793 0.929 . S
C2805 C2799 1.390 . S
C2805 C2802 1.386 . S
C2806 C2801 1.490 . S
C2806 C2808 1.395 . S
C2806 C2809 1.403 . S
H2807 C2813 0.930 . S
C2808 H2794 0.930 . S
C2808 C2806 1.395 . S
C2808 C2811 1.403 . S
C2809 C2806 1.403 . S
C2809 C2810 1.524 . S
C2809 C2813 1.400 . S
C2810 H2795 0.960 . S
C2810 H2796 0.960 . S
C2810 H2797 0.960 . S
C2810 C2809 1.524 . S
C2811 C2808 1.403 . S
C2811 C2812 1.392 . S
C2811 C2815 1.495 . S
C2812 C2811 1.392 . S
C2812 C2813 1.385 . S
C2812 C2814 1.478 . S
C2813 H2807 0.930 . S
C2813 C2809 1.400 . S
C2813 C2812 1.385 . S
C2814 C2812 1.478 . S
C2814 C2816 1.381 . S
C2814 C2820 1.383 . S
C2815 C2811 1.495 . S
C2815 H2821 0.959 . S
C2815 H2822 0.961 . S
C2815 H2823 0.960 . S
C2816 C2814 1.381 . S
C2816 C2817 1.394 . S
C2816 H2824 0.930 . S
C2817 C2816 1.394 . S
C2817 C2818 1.383 . S
C2817 H2825 0.929 . S
C2818 C2817 1.383 . S
C2818 C2819 1.377 . S
C2819 H2803 0.930 . S
C2819 C2818 1.377 . S
C2819 C2820 1.379 . S
C2820 H2804 0.931 . S
C2820 C2814 1.383 . S
C2820 C2819 1.379 . S
H2821 C2815 0.959 . S
H2822 C2815 0.961 . S
H2823 C2815 0.960 . S
H2824 C2816 0.930 . S
H2825 C2817 0.929 . S
H2826 C2834 0.929 . S
H2827 C2836 0.930 . S
H2828 C2838 0.930 . S
H2829 C2841 0.929 . S
H2830 C2844 0.930 . S
H2831 C2846 0.960 . S
H2832 C2846 0.960 . S
H2833 C2846 0.960 . S
C2834 H2826 0.929 . S
C2834 C2835 1.377 . S
C2834 C2836 1.384 . S
C2835 C2834 1.377 . S
C2835 C2841 1.390 . S
C2836 H2827 0.930 . S
C2836 C2834 1.384 . S
C2836 C2837 1.372 . S
C2837 C2836 1.372 . S
C2837 C2838 1.400 . S
C2837 C2842 1.490 . S
C2838 H2828 0.930 . S
C2838 C2837 1.400 . S
C2838 C2841 1.386 . S
H2839 C2855 0.930 . S
H2840 C2856 0.931 . S
C2841 H2829 0.929 . S
C2841 C2835 1.390 . S
C2841 C2838 1.386 . S
C2842 C2837 1.490 . S
C2842 C2844 1.395 . S
C2842 C2845 1.403 . S
H2843 C2849 0.930 . S
C2844 H2830 0.930 . S
C2844 C2842 1.395 . S
C2844 C2847 1.403 . S
C2845 C2842 1.403 . S
C2845 C2846 1.524 . S
C2845 C2849 1.400 . S
C2846 H2831 0.960 . S
C2846 H2832 0.960 . S
C2846 H2833 0.960 . S
C2846 C2845 1.524 . S
C2847 C2844 1.403 . S
C2847 C2848 1.392 . S
C2847 C2851 1.495 . S
C2848 C2847 1.392 . S
C2848 C2849 1.385 . S
C2848 C2850 1.478 . S
C2849 H2843 0.930 . S
C2849 C2845 1.400 . S
C2849 C2848 1.385 . S
C2850 C2848 1.478 . S
C2850 C2852 1.381 . S
C2850 C2856 1.383 . S
C2851 C2847 1.495 . S
C2851 H2857 0.959 . S
C2851 H2858 0.961 . S
C2851 H2859 0.960 . S
C2852 C2850 1.381 . S
C2852 C2853 1.394 . S
C2852 H2860 0.930 . S
C2853 C2852 1.394 . S
C2853 C2854 1.383 . S
C2853 H2861 0.929 . S
C2854 C2853 1.383 . S
C2854 C2855 1.377 . S
C2855 H2839 0.930 . S
C2855 C2854 1.377 . S
C2855 C2856 1.379 . S
C2856 H2840 0.931 . S
C2856 C2850 1.383 . S
C2856 C2855 1.379 . S
H2857 C2851 0.959 . S
H2858 C2851 0.961 . S
H2859 C2851 0.960 . S
H2860 C2852 0.930 . S
H2861 C2853 0.929 . S
H2862 C2870 0.929 . S
H2863 C2872 0.930 . S
H2864 C2874 0.930 . S
H2865 C2877 0.929 . S
H2866 C2880 0.930 . S
H2867 C2882 0.960 . S
H2868 C2882 0.960 . S
H2869 C2882 0.960 . S
C2870 H2862 0.929 . S
C2870 C2871 1.377 . S
C2870 C2872 1.384 . S
C2871 C2870 1.377 . S
C2871 C2877 1.390 . S
C2872 H2863 0.930 . S
C2872 C2870 1.384 . S
C2872 C2873 1.372 . S
C2873 C2872 1.372 . S
C2873 C2874 1.400 . S
C2873 C2878 1.490 . S
C2874 H2864 0.930 . S
C2874 C2873 1.400 . S
C2874 C2877 1.386 . S
H2875 C2891 0.930 . S
H2876 C2892 0.931 . S
C2877 H2865 0.929 . S
C2877 C2871 1.390 . S
C2877 C2874 1.386 . S
C2878 C2873 1.490 . S
C2878 C2880 1.395 . S
C2878 C2881 1.403 . S
H2879 C2885 0.930 . S
C2880 H2866 0.930 . S
C2880 C2878 1.395 . S
C2880 C2883 1.403 . S
C2881 C2878 1.403 . S
C2881 C2882 1.524 . S
C2881 C2885 1.400 . S
C2882 H2867 0.960 . S
C2882 H2868 0.960 . S
C2882 H2869 0.960 . S
C2882 C2881 1.524 . S
C2883 C2880 1.403 . S
C2883 C2884 1.392 . S
C2883 C2887 1.495 . S
C2884 C2883 1.392 . S
C2884 C2885 1.385 . S
C2884 C2886 1.478 . S
C2885 H2879 0.930 . S
C2885 C2881 1.400 . S
C2885 C2884 1.385 . S
C2886 C2884 1.478 . S
C2886 C2888 1.381 . S
C2886 C2892 1.383 . S
C2887 C2883 1.495 . S
C2887 H2893 0.959 . S
C2887 H2894 0.961 . S
C2887 H2895 0.960 . S
C2888 C2886 1.381 . S
C2888 C2889 1.394 . S
C2888 H2896 0.930 . S
C2889 C2888 1.394 . S
C2889 C2890 1.383 . S
C2889 H2897 0.929 . S
C2890 C2889 1.383 . S
C2890 C2891 1.377 . S
C2891 H2875 0.930 . S
C2891 C2890 1.377 . S
C2891 C2892 1.379 . S
C2892 H2876 0.931 . S
C2892 C2886 1.383 . S
C2892 C2891 1.379 . S
H2893 C2887 0.959 . S
H2894 C2887 0.961 . S
H2895 C2887 0.960 . S
H2896 C2888 0.930 . S
H2897 C2889 0.929 . S
C963 C151 1.042 . S
C982 C265 1.017 . S
C999 C159 1.723 . S
C1018 C349 1.812 . S
C1035 C137 1.291 . S
C1054 C429 1.417 . S
C1071 C126 1.248 . S
C1090 C345 1.384 1_556 S
C1126 C433 1.787 . S
C1107 C104 1.690 . S
C1143 C118 1.002 . S
C1162 C261 0.968 1_556 S
C1198 C254 1.321 . S
C1179 C129 1.386 . S
C1234 C338 1.565 . S
C1215 C107 1.631 . S
C1251 C115 1.258 . S
C1270 C440 1.453 . S
C1287 C148 1.234 . S
C1306 C356 1.381 . S
C1323 C162 1.576 . S
C1342 C422 1.464 . S
C1378 C272 1.341 . S
C1359 C140 1.343 . S
C1414 C517 1.024 . S
C1395 C19 1.042 . S
C1431 C27 1.726 . S
C1450 C601 1.812 . S
C1467 C5 1.302 . S
C1486 C681 1.415 . S
C1503 C192 1.250 . S
C1522 C597 1.412 . S
C1539 C170 1.691 . S
C1558 C685 1.794 . S
C1575 C184 0.997 . S
C1594 C513 1.020 . S
C1611 C195 1.386 . S
C1630 C506 1.319 . S
C1647 C173 1.631 . S
C1666 C590 1.561 . S
C1702 C692 1.429 . S
C1683 C181 1.242 . S
C1719 C16 1.223 . S
C1738 C608 1.371 . S
C1774 C674 1.507 . S
C1755 C30 1.573 . S
C1791 C8 1.343 . S
C1810 C524 1.297 . S
C1846 C769 1.030 . S
C1827 C85 1.041 . S
C1863 C93 1.734 . S
C1882 C853 1.833 . S
C1918 C933 1.445 . S
C1899 C71 1.293 . S
C1954 C849 1.419 . S
C1935 C60 1.244 . S
C1990 C937 1.790 . S
C1971 C38 1.691 . S
C2007 C52 0.996 . S
C2026 C765 0.975 . S
C2043 C63 1.385 . S
C2062 C758 1.335 . S
C2079 C41 1.631 . S
C2098 C842 1.557 . S
C2134 C944 1.448 . S
C2115 C49 1.261 . S
C2151 C82 1.221 . S
C2170 C860 1.373 . S
C2187 C96 1.576 . S
C2206 C926 1.485 . S
C2223 C74 1.343 . S
C2242 C776 1.295 . S
C2259 C172 1.632 . S
C2278 C268 1.472 . S
C2314 C352 1.228 . S
C2295 C183 1.275 . S
C2331 C194 1.471 . S
C2350 C424 1.289 . S
C2367 C73 1.519 . S
C2386 C340 1.323 . S
C2403 C84 1.222 . S
C2422 C436 1.102 . S
C2458 C256 1.524 . S
C2439 C95 1.612 . S
C2475 C40 1.622 . S
C2494 C520 1.548 . S
C2511 C51 1.263 . S
C2530 C604 1.131 . S
C2547 C62 1.473 . S
C2566 C676 1.298 . S
C2583 C139 1.518 . S
C2602 C592 1.322 . S
C2638 C688 1.191 . S
C2619 C150 1.234 . S
C2655 C161 1.620 . S
C2674 C508 1.452 . S
C2691 C106 1.632 . S
C2710 C772 1.476 . S
C2727 C117 1.264 . S
C2746 C856 1.137 . S
C2782 C928 1.360 . S
C2763 C128 1.463 . S
C2799 C7 1.509 . S
C2818 C844 1.402 . S
C2835 C18 1.231 . S
C2854 C940 1.173 . S
C2871 C29 1.620 . S
C2890 C760 1.473 . S
