# Generated by pormake.
# Topology zzz, (3,6)-cn, num edge types: 1
# Building blocks:
#     Node 0, Type 0, BuildingBlock: WUSLED_clean_sbu_0, # of connection points: 3
#     Node 1, Type 0, BuildingBlock: WUSLED_clean_sbu_0, # of connection points: 3
#     Node 2, Type 0, BuildingBlock: WUSLED_clean_sbu_0, # of connection points: 3
#     Node 3, Type 0, BuildingBlock: WUSLED_clean_sbu_0, # of connection points: 3
#     Node 4, Type 0, BuildingBlock: WUSLED_clean_sbu_0, # of connection points: 3
#     Node 5, Type 0, BuildingBlock: WUSLED_clean_sbu_0, # of connection points: 3
#     Node 6, Type 0, BuildingBlock: WUSLED_clean_sbu_0, # of connection points: 3
#     Node 7, Type 0, BuildingBlock: WUSLED_clean_sbu_0, # of connection points: 3
#     Node 8, Type 1, BuildingBlock: FUNLAD_clean_sbu_0, # of connection points: 6
#     Node 9, Type 1, BuildingBlock: FUNLAD_clean_sbu_0, # of connection points: 6
#     Node 10, Type 1, BuildingBlock: FUNLAD_clean_sbu_0, # of connection points: 6
#     Node 11, Type 1, BuildingBlock: FUNLAD_clean_sbu_0, # of connection points: 6
#     Edge 12, Type (0, 1), BuildingBlock: ZUJKAS_clean_linker_0, # of connection points: 2
#     Edge 13, Type (0, 1), BuildingBlock: ZUJKAS_clean_linker_0, # of connection points: 2
#     Edge 14, Type (0, 1), BuildingBlock: ZUJKAS_clean_linker_0, # of connection points: 2
#     Edge 15, Type (0, 1), BuildingBlock: ZUJKAS_clean_linker_0, # of connection points: 2
#     Edge 16, Type (0, 1), BuildingBlock: ZUJKAS_clean_linker_0, # of connection points: 2
#     Edge 17, Type (0, 1), BuildingBlock: ZUJKAS_clean_linker_0, # of connection points: 2
#     Edge 18, Type (0, 1), BuildingBlock: ZUJKAS_clean_linker_0, # of connection points: 2
#     Edge 19, Type (0, 1), BuildingBlock: ZUJKAS_clean_linker_0, # of connection points: 2
#     Edge 20, Type (0, 1), BuildingBlock: ZUJKAS_clean_linker_0, # of connection points: 2
#     Edge 21, Type (0, 1), BuildingBlock: ZUJKAS_clean_linker_0, # of connection points: 2
#     Edge 22, Type (0, 1), BuildingBlock: ZUJKAS_clean_linker_0, # of connection points: 2
#     Edge 23, Type (0, 1), BuildingBlock: ZUJKAS_clean_linker_0, # of connection points: 2
#     Edge 24, Type (0, 1), BuildingBlock: ZUJKAS_clean_linker_0, # of connection points: 2
#     Edge 25, Type (0, 1), BuildingBlock: ZUJKAS_clean_linker_0, # of connection points: 2
#     Edge 26, Type (0, 1), BuildingBlock: ZUJKAS_clean_linker_0, # of connection points: 2
#     Edge 27, Type (0, 1), BuildingBlock: ZUJKAS_clean_linker_0, # of connection points: 2
#     Edge 28, Type (0, 1), BuildingBlock: ZUJKAS_clean_linker_0, # of connection points: 2
#     Edge 29, Type (0, 1), BuildingBlock: ZUJKAS_clean_linker_0, # of connection points: 2
#     Edge 30, Type (0, 1), BuildingBlock: ZUJKAS_clean_linker_0, # of connection points: 2
#     Edge 31, Type (0, 1), BuildingBlock: ZUJKAS_clean_linker_0, # of connection points: 2
#     Edge 32, Type (0, 1), BuildingBlock: ZUJKAS_clean_linker_0, # of connection points: 2
#     Edge 33, Type (0, 1), BuildingBlock: ZUJKAS_clean_linker_0, # of connection points: 2
#     Edge 34, Type (0, 1), BuildingBlock: ZUJKAS_clean_linker_0, # of connection points: 2
#     Edge 35, Type (0, 1), BuildingBlock: ZUJKAS_clean_linker_0, # of connection points: 2
# Relax obj value: 0.274
# Max RMSD: 0.209
# Mean RMSD: 0.184
data_MOF--net-zzz--node1-WUSLED_clean_sbu_0--node2-FUNLAD_clean_sbu_0--edge1-ZUJKAS_clean_linker_0
_symmetry_space_group_name_H-M    P1
_symmetry_Int_Tables_number       1
_symmetry_cell_setting            triclinic
loop_
_symmetry_equiv_pos_as_xyz
'x, y, z'
_cell_length_a     76.420275
_cell_length_b     80.402745
_cell_length_c     29.508294
_cell_angle_alpha  87.771082
_cell_angle_beta   87.991904
_cell_angle_gamma 91.556213
loop_
_atom_site_label
_atom_site_type_symbol
_atom_site_fract_x
_atom_site_fract_y
_atom_site_fract_z
_atom_type_partial_charge
C0 C 0.81758 0.45115 0.28655 0.0
C1 C 0.83442 0.44546 0.27598 0.0
C2 C 0.84529 0.45679 0.34519 0.0
C3 C 0.84814 0.44814 0.30528 0.0
C4 C 0.82837 0.46221 0.35605 0.0
C5 C 0.8146 0.45935 0.327 0.0
U6 U 0.80606 0.44287 0.16762 0.0
O7 O 0.78318 0.43239 0.13406 0.0
O8 O 0.79266 0.45816 0.11674 0.0
C9 C 0.78158 0.44597 0.10833 0.0
C10 C 0.80379 0.45023 0.25308 0.0
C11 C 0.76432 0.45021 0.0918 0.0
C12 C 0.73251 0.45021 0.09768 0.0
C13 C 0.74864 0.44713 0.11737 0.0
C14 C 0.74778 0.45961 0.02751 0.0
C15 C 0.73206 0.45647 0.05258 0.0
C16 C 0.76374 0.45645 0.0469 0.0
C17 C 0.84081 0.43256 0.0846 0.0
C18 C 0.83497 0.44082 0.00671 0.0
C19 C 0.86348 0.43068 0.02622 0.0
C20 C 0.85778 0.42828 0.07146 0.0
C21 C 0.85232 0.43764 0.99414 0.0
C22 C 0.82916 0.43805 0.05171 0.0
C23 C 0.83608 0.43421 0.13253 0.0
O24 O 0.80569 0.46156 0.21984 0.0
O25 O 0.79985 0.43527 0.23907 0.0
O26 O 0.82444 0.42324 0.15007 0.0
O27 O 0.83269 0.44959 0.14244 0.0
H28 H 0.83706 0.43937 0.24443 0.0
H29 H 0.86111 0.44399 0.29601 0.0
H30 H 0.82588 0.46885 0.38676 0.0
H31 H 0.80176 0.46397 0.33546 0.0
H32 H 0.72045 0.44773 0.11747 0.0
H33 H 0.74887 0.44219 0.15201 0.0
H34 H 0.74769 0.46421 0.9925 0.0
H35 H 0.7757 0.4586 0.0264 0.0
H36 H 0.82632 0.44641 0.98248 0.0
H37 H 0.87706 0.42849 0.01709 0.0
H38 H 0.86694 0.4242 0.09651 0.0
H39 H 0.816 0.44146 0.06151 0.0
C40 C 0.94183 0.80672 0.16758 0.0
C41 C 0.93919 0.82343 0.15435 0.0
C42 C 0.94611 0.83224 0.22996 0.0
C43 C 0.94122 0.83607 0.18534 0.0
C44 C 0.94846 0.81548 0.24326 0.0
C45 C 0.94625 0.80283 0.21239 0.0
U46 U 0.93118 0.79386 0.04984 0.0
O47 O 0.94632 0.78018 0.9991 0.0
O48 O 0.91973 0.77124 0.02145 0.0
C49 C 0.9334 0.76937 0.99398 0.0
C50 C 0.94089 0.7935 0.13423 0.0
C51 C 0.93752 0.75254 0.97986 0.0
C52 C 0.94752 0.72438 0.99324 0.0
C53 C 0.944 0.74024 0.00927 0.0
C54 C 0.93804 0.73316 0.91878 0.0
C55 C 0.94449 0.72066 0.94776 0.0
C56 C 0.93461 0.74888 0.93468 0.0
C57 C 0.91525 0.82604 0.96712 0.0
C58 C 0.9227 0.82294 0.88744 0.0
C59 C 0.91017 0.84851 0.91279 0.0
C60 C 0.90875 0.8418 0.95714 0.0
C61 C 0.91851 0.83961 0.87849 0.0
C62 C 0.92106 0.81617 0.93167 0.0
C63 C 0.91932 0.82139 0.01394 0.0
O64 O 0.92506 0.78881 0.12279 0.0
O65 O 0.95194 0.79564 0.0992 0.0
O66 O 0.93603 0.8189 0.01948 0.0
O67 O 0.90901 0.80992 0.03456 0.0
H68 H 0.93587 0.82673 0.11981 0.0
H69 H 0.93949 0.84889 0.17409 0.0
H70 H 0.9521 0.81219 0.27753 0.0
H71 H 0.94831 0.79003 0.22329 0.0
H72 H 0.95242 0.715 0.01647 0.0
H73 H 0.94629 0.74287 0.04432 0.0
H74 H 0.93588 0.73089 0.88343 0.0
H75 H 0.92967 0.75827 0.91144 0.0
H76 H 0.92922 0.81591 0.86153 0.0
H77 H 0.90698 0.86144 0.90682 0.0
H78 H 0.90418 0.84953 0.98414 0.0
H79 H 0.92606 0.8039 0.93891 0.0
C80 C 0.72633 0.00518 0.24664 0.0
C81 C 0.71026 0.0115 0.23325 0.0
C82 C 0.69692 0.00404 0.30805 0.0
C83 C 0.69572 0.01103 0.26376 0.0
C84 C 0.71302 0.9976 0.32102 0.0
C85 C 0.72756 0.99821 0.29068 0.0
U86 U 0.74792 0.00693 0.12696 0.0
O87 O 0.77209 0.02049 0.10144 0.0
O88 O 0.77032 0.99302 0.10038 0.0
C89 C 0.78011 0.00662 0.09291 0.0
C90 C 0.74193 0.00562 0.21543 0.0
C91 C 0.79497 0.00677 0.05932 0.0
C92 C 0.82662 0.00888 0.04674 0.0
C93 C 0.81178 0.00946 0.07555 0.0
C94 C 0.80815 0.0033 0.98383 0.0
C95 C 0.82512 0.00564 1.00056 0.0
C96 C 0.79317 0.00375 0.01308 0.0
C97 C 0.71356 0.00808 0.03143 0.0
C98 C 0.71659 0.00289 0.95097 0.0
C99 C 0.68804 0.00811 0.98535 0.0
C100 C 0.69556 0.01004 0.02705 0.0
C101 C 0.69842 0.00423 0.94732 0.0
C102 C 0.72417 0.00474 0.99319 0.0
C103 C 0.72019 0.00804 0.07728 0.0
O104 O 0.74405 0.99234 0.19151 0.0
O105 O 0.74512 0.01959 0.19157 0.0
O106 O 0.72867 0.0215 0.08948 0.0
O107 O 0.72695 0.99409 0.0921 0.0
H108 H 0.70895 0.01681 0.19925 0.0
H109 H 0.68347 0.01593 0.25252 0.0
H110 H 0.71447 0.9923 0.35494 0.0
H111 H 0.73982 0.99326 0.30169 0.0
H112 H 0.83934 0.01107 0.06079 0.0
H113 H 0.81348 0.01182 0.11106 0.0
H114 H 0.8065 1.00073 0.94845 0.0
H115 H 0.7803 1.0016 0.99978 0.0
H116 H 0.72473 1.00001 0.92171 0.0
H117 H 0.674 0.0093 0.98289 0.0
H118 H 0.6872 0.01255 0.0563 0.0
H119 H 0.73811 0.00315 0.99629 0.0
C120 C 0.57166 0.6921 0.24258 0.0
C121 C 0.57549 0.67603 0.22873 0.0
C122 C 0.56976 0.66446 0.30588 0.0
C123 C 0.57458 0.66239 0.25995 0.0
C124 C 0.56609 0.68068 0.31957 0.0
C125 C 0.56704 0.69432 0.28827 0.0
U126 U 0.57569 0.70584 0.12038 0.0
O127 O 0.56136 0.72306 0.07598 0.0
O128 O 0.59002 0.72616 0.08105 0.0
C129 C 0.5758 0.73111 0.06128 0.0
C130 C 0.57198 0.70631 0.20893 0.0
C131 C 0.57481 0.7485 0.04382 0.0
C132 C 0.57158 0.77828 0.0525 0.0
C133 C 0.57293 0.76209 0.07185 0.0
C134 C 0.57412 0.76732 0.97739 0.0
C135 C 0.5721 0.7811 0.00487 0.0
C136 C 0.57549 0.7513 0.99663 0.0
C137 C 0.58201 0.66851 0.04453 0.0
C138 C 0.5888 0.66988 0.96344 0.0
C139 C 0.58269 0.64323 0.00309 0.0
C140 C 0.58016 0.65121 0.04361 0.0
C141 C 0.58713 0.65244 0.96264 0.0
C142 C 0.58633 0.6779 0.00437 0.0
C143 C 0.57952 0.67623 0.08814 0.0
O144 O 0.58709 0.70934 0.18701 0.0
O145 O 0.55862 0.7066 0.18201 0.0
O146 O 0.56415 0.68268 0.0958 0.0
O147 O 0.59269 0.68557 0.10082 0.0
H148 H 0.57908 0.67399 0.19359 0.0
H149 H 0.57777 0.65024 0.24801 0.0
H150 H 0.56208 0.68282 0.35435 0.0
H151 H 0.56394 0.70657 0.29968 0.0
H152 H 0.57018 0.78858 0.0748 0.0
H153 H 0.5724 0.76018 0.10841 0.0
H154 H 0.5742 0.76879 0.94075 0.0
H155 H 0.57687 0.74096 0.97437 0.0
H156 H 0.59188 0.67724 0.93253 0.0
H157 H 0.58062 0.62985 0.00324 0.0
H158 H 0.57662 0.64385 0.07429 0.0
H159 H 0.58768 0.69134 0.00471 0.0
C160 C 0.21838 0.54104 0.08002 0.0
C161 C 0.20126 0.53972 0.09892 0.0
C162 C 0.18949 0.53892 0.02359 0.0
C163 C 0.18695 0.53863 0.07101 0.0
C164 C 0.20668 0.54052 0.00475 0.0
C165 C 0.22103 0.54155 0.03283 0.0
U166 U 0.23206 0.54515 0.19796 0.0
O167 O 0.25137 0.53246 0.24008 0.0
O168 O 0.25285 0.56009 0.22874 0.0
C169 C 0.25932 0.54671 0.24806 0.0
C170 C 0.23321 0.54206 0.11016 0.0
C171 C 0.27469 0.54758 0.27624 0.0
C172 C 0.30623 0.54942 0.28244 0.0
C173 C 0.29147 0.54933 0.25578 0.0
C174 C 0.28745 0.54648 0.35038 0.0
C175 C 0.30441 0.54785 0.33006 0.0
C176 C 0.27271 0.54628 0.32363 0.0
C177 C 0.19506 0.54887 0.28441 0.0
C178 C 0.20103 0.55053 0.3643 0.0
C179 C 0.17164 0.55462 0.33789 0.0
C180 C 0.17744 0.55203 0.29359 0.0
C181 C 0.18343 0.55401 0.3734 0.0
C182 C 0.20688 0.54812 0.31977 0.0
C183 C 0.2011 0.5469 0.23766 0.0
O184 O 0.23519 0.55651 0.12902 0.0
O185 O 0.23422 0.5293 0.13911 0.0
O186 O 0.20856 0.53272 0.22981 0.0
O187 O 0.20971 0.55993 0.21908 0.0
H188 H 0.19896 0.53948 0.13538 0.0
H189 H 0.17389 0.53765 0.08655 0.0
H190 H 0.20905 0.54063 0.96834 0.0
H191 H 0.23417 0.54265 0.01776 0.0
H192 H 0.31908 0.55066 0.26576 0.0
H193 H 0.29316 0.55036 0.21915 0.0
H194 H 0.28559 0.54505 0.38689 0.0
H195 H 0.25978 0.54493 0.33989 0.0
H196 H 0.21018 0.54982 0.39147 0.0
H197 H 0.15789 0.55688 0.3446 0.0
H198 H 0.16822 0.55256 0.26654 0.0
H199 H 0.22058 0.54571 0.31285 0.0
C200 C 0.10489 0.19708 0.20968 0.0
C201 C 0.10477 0.18026 0.22468 0.0
C202 C 0.09976 0.17129 0.14782 0.0
C203 C 0.10222 0.16752 0.19418 0.0
C204 C 0.1006 0.18818 0.13278 0.0
C205 C 0.10308 0.20091 0.16338 0.0
U206 U 0.11103 0.20872 0.3301 0.0
O207 O 0.12328 0.22995 0.36383 0.0
O208 O 0.09536 0.22328 0.37748 0.0
C209 C 0.10876 0.23295 0.38704 0.0
C210 C 0.10578 0.2105 0.24269 0.0
C211 C 0.10522 0.25007 0.40028 0.0
C212 C 0.10149 0.27976 0.38507 0.0
C213 C 0.10546 0.26388 0.36957 0.0
C214 C 0.0973 0.26804 0.46165 0.0
C215 C 0.09709 0.28191 0.43128 0.0
C216 C 0.10132 0.25237 0.44632 0.0
C217 C 0.1191 0.16957 0.40666 0.0
C218 C 0.12584 0.16731 0.48663 0.0
C219 C 0.11538 0.14313 0.44782 0.0
C220 C 0.11444 0.15267 0.4079 0.0
C221 C 0.12115 0.15024 0.48772 0.0
C222 C 0.12488 0.17696 0.4461 0.0
C223 C 0.11701 0.17887 0.36368 0.0
O224 O 0.09299 0.20989 0.27373 0.0
O225 O 0.12122 0.21343 0.25965 0.0
O226 O 0.12961 0.18951 0.34986 0.0
O227 O 0.10122 0.18431 0.35709 0.0
H228 H 0.10615 0.17698 0.2603 0.0
H229 H 0.10156 0.15475 0.20734 0.0
H230 H 0.09917 0.19163 0.0973 0.0
H231 H 0.10324 0.21378 0.15098 0.0
H232 H 0.10143 0.29024 0.36088 0.0
H233 H 0.10851 0.26238 0.33387 0.0
H234 H 0.09432 0.26929 0.4975 0.0
H235 H 0.10124 0.24191 0.47066 0.0
H236 H 0.12996 0.17318 0.51706 0.0
H237 H 0.11085 0.13025 0.44767 0.0
H238 H 0.10965 0.14687 0.37799 0.0
H239 H 0.12833 0.19012 0.44571 0.0
C240 C 0.31334 0.00582 0.12728 0.0
C241 C 0.33049 0.00596 0.14288 0.0
C242 C 0.34238 0.00588 0.06483 0.0
C243 C 0.34487 0.00598 0.11197 0.0
C244 C 0.3251 0.00596 0.04962 0.0
C245 C 0.31078 0.00591 0.08052 0.0
U246 U 0.2927 0.00713 0.24732 0.0
O247 O 0.26863 0.01964 0.26971 0.0
O248 O 0.27051 0.99232 0.2792 0.0
C249 C 0.26072 0.00545 0.28283 0.0
C250 C 0.29798 0.00542 0.15907 0.0
C251 C 0.2458 0.00515 0.31617 0.0
C252 C 0.21437 0.00796 0.32829 0.0
C253 C 0.22934 0.00897 0.29973 0.0
C254 C 0.23203 0.99961 0.39129 0.0
C255 C 0.21541 0.00317 0.3744 0.0
C256 C 0.24712 1.00047 0.36229 0.0
C257 C 0.32714 0.0122 0.34107 0.0
C258 C 0.32426 0.00748 0.4228 0.0
C259 C 0.35227 0.01635 0.38731 0.0
C260 C 0.34483 0.01663 0.345 0.0
C261 C 0.34215 0.01151 0.42647 0.0
C262 C 0.31672 0.00794 0.38015 0.0
C263 C 0.32066 0.0108 0.29532 0.0
O264 O 0.29629 0.99225 0.18681 0.0
O265 O 0.29488 0.01938 0.17919 0.0
O266 O 0.31206 0.02345 0.27869 0.0
O267 O 0.31399 0.9962 0.28541 0.0
H268 H 0.33274 0.00591 0.17894 0.0
H269 H 0.35792 0.00574 0.1251 0.0
H270 H 0.3226 0.00621 0.01372 0.0
H271 H 0.29764 0.0059 0.06782 0.0
H272 H 0.20193 0.01108 0.31416 0.0
H273 H 0.22801 0.01256 0.26426 0.0
H274 H 0.2333 0.99583 0.42662 0.0
H275 H 0.2597 0.99738 0.3757 0.0
H276 H 0.31633 0.00351 0.45261 0.0
H277 H 0.3662 0.01902 0.3891 0.0
H278 H 0.35309 0.0197 0.31505 0.0
H279 H 0.30303 0.00443 0.37745 0.0
C280 C 0.45576 0.31192 0.13119 0.0
C281 C 0.44993 0.32784 0.14132 0.0
C282 C 0.46052 0.33894 0.06677 0.0
C283 C 0.45219 0.3412 0.10934 0.0
C284 C 0.46598 0.32288 0.05653 0.0
C285 C 0.4636 0.30953 0.08838 0.0
U286 U 0.44791 0.29803 0.25392 0.0
O287 O 0.43669 0.27537 0.28996 0.0
O288 O 0.46399 0.28356 0.30108 0.0
C289 C 0.45099 0.27304 0.31266 0.0
C290 C 0.45506 0.29819 0.16626 0.0
C291 C 0.45486 0.2563 0.33142 0.0
C292 C 0.46173 0.22704 0.32512 0.0
C293 C 0.45775 0.24254 0.30457 0.0
C294 C 0.45966 0.23902 0.39906 0.0
C295 C 0.46295 0.22518 0.37269 0.0
C296 C 0.4557 0.25434 0.37867 0.0
C297 C 0.43627 0.33289 0.33298 0.0
C298 C 0.44538 0.33365 0.41089 0.0
C299 C 0.4313 0.35738 0.37621 0.0
C300 C 0.42937 0.34875 0.33654 0.0
C301 C 0.44011 0.35019 0.41265 0.0
C302 C 0.44345 0.32499 0.37109 0.0
C303 C 0.43894 0.32636 0.28769 0.0
O304 O 0.46716 0.29931 0.19663 0.0
O305 O 0.43947 0.29403 0.18431 0.0
O306 O 0.42738 0.31526 0.27491 0.0
O307 O 0.45519 0.32259 0.27771 0.0
H308 H 0.44401 0.33004 0.17438 0.0
H309 H 0.44797 0.35341 0.11853 0.0
H310 H 0.47224 0.32065 0.02391 0.0
H311 H 0.46826 0.29738 0.07989 0.0
H312 H 0.46422 0.21665 0.30377 0.0
H313 H 0.4571 0.24379 0.268 0.0
H314 H 0.46006 0.23801 0.43572 0.0
H315 H 0.45334 0.26477 0.40004 0.0
H316 H 0.45247 0.32804 0.43845 0.0
H317 H 0.42736 0.37022 0.3769 0.0
H318 H 0.42386 0.35502 0.30739 0.0
H319 H 0.4489 0.31274 0.36876 0.0
C320 C 0.0224 0.97556 0.73384 0.0
N321 N 0.00419 0.98208 0.60488 0.0
C322 C 0.01344 0.96816 0.59699 0.0
C323 C 0.00784 0.95665 0.56591 0.0
C324 C 0.99275 0.95951 0.54108 0.0
C325 C 0.98355 0.97411 0.54947 0.0
C326 C 0.98943 0.98518 0.5818 0.0
Zn327 Zn 0.01358 0.99785 0.6538 0.0
C328 C 0.98648 0.00427 0.72849 0.0
N329 N 0.03536 0.02565 0.76505 0.0
C330 C 0.04216 0.0191 0.80384 0.0
C331 C 0.03459 0.04254 0.75886 0.0
C332 C 0.0404 0.05328 0.7917 0.0
C333 C 0.04703 0.04691 0.83242 0.0
C334 C 0.04802 0.02948 0.83791 0.0
Zn335 Zn 0.02505 0.01002 0.71475 0.0
O336 O 0.02047 0.97707 0.6915 0.0
C337 C 0.05226 0.00319 0.64046 0.0
O338 O 0.02742 0.98811 0.75532 0.0
H339 H 0.02935 0.04808 0.72866 0.0
H340 H 0.02526 0.96584 0.61496 0.0
H341 H 0.04291 0.00578 0.80906 0.0
O342 O 0.03849 0.99851 0.62097 0.0
O343 O 0.05093 0.00812 0.68115 0.0
H344 H 0.98221 0.99628 0.58826 0.0
O345 O 0.02027 0.03072 0.67228 0.0
O346 O 0.00724 0.01895 0.61588 0.0
O347 O 0.99974 0.0112 0.74561 0.0
O348 O 0.98817 0.99772 0.68985 0.0
C349 C 0.01257 0.03192 0.63486 0.0
H350 H 0.01529 0.94552 0.56194 0.0
H351 H 0.97201 0.97714 0.53094 0.0
H352 H 0.03972 0.06657 0.78484 0.0
H353 H 0.05292 0.02382 0.86866 0.0
C354 C 0.49753 0.99105 0.62109 0.0
N355 N 0.51303 0.04013 0.64874 0.0
C356 C 0.51269 0.0422 0.60277 0.0
C357 C 0.50861 0.05755 0.58255 0.0
C358 C 0.50496 0.0711 0.60966 0.0
C359 C 0.50587 0.06879 0.65703 0.0
C360 C 0.50984 0.0531 0.67596 0.0
Zn361 Zn 0.51747 0.01638 0.67523 0.0
C362 C 0.48975 0.00466 0.74441 0.0
N363 N 0.52438 0.96561 0.72341 0.0
C364 C 0.52684 0.95217 0.69746 0.0
C365 C 0.52477 0.96404 0.76947 0.0
C366 C 0.52815 0.94876 0.79105 0.0
C367 C 0.53078 0.93459 0.76542 0.0
C368 C 0.52997 0.93649 0.71782 0.0
Zn369 Zn 0.52029 0.98931 0.69577 0.0
O370 O 0.50085 0.00636 0.6272 0.0
C371 C 0.54809 1.00111 0.62671 0.0
O372 O 0.50437 0.97996 0.64608 0.0
H373 H 0.52262 0.97473 0.78984 0.0
H374 H 0.51538 0.03185 0.58153 0.0
H375 H 0.52643 0.95359 0.66091 0.0
O376 O 0.53947 0.01438 0.62962 0.0
O377 O 0.54306 0.98822 0.65079 0.0
H378 H 0.51011 0.05123 0.71242 0.0
O379 O 0.53614 0.99931 0.74479 0.0
O380 O 0.53445 0.02566 0.72311 0.0
O381 O 0.49754 0.99104 0.73933 0.0
O382 O 0.49549 0.01778 0.7225 0.0
C383 C 0.54054 0.01448 0.7492 0.0
H384 H 0.50836 0.0588 0.54591 0.0
H385 H 0.50309 0.07886 0.67926 0.0
H386 H 0.52898 0.94823 0.8276 0.0
H387 H 0.53162 0.92599 0.69639 0.0
C388 C 0.52653 0.47574 0.63185 0.0
N389 N 0.48192 0.50538 0.64948 0.0
C390 C 0.47863 0.49821 0.60939 0.0
C391 C 0.46297 0.50081 0.58774 0.0
C392 C 0.45055 0.51142 0.60622 0.0
C393 C 0.45391 0.51826 0.64827 0.0
C394 C 0.4696 0.51493 0.66957 0.0
Zn395 Zn 0.50674 0.50303 0.67671 0.0
C396 C 0.50761 0.47699 0.75195 0.0
N397 N 0.55858 0.49692 0.72587 0.0
C398 C 0.57265 0.4931 0.69899 0.0
C399 C 0.56009 0.49851 0.77137 0.0
C400 C 0.57613 0.49621 0.79145 0.0
C401 C 0.59062 0.49176 0.76477 0.0
C402 C 0.58887 0.49021 0.718 0.0
Zn403 Zn 0.5342 0.49925 0.69934 0.0
O404 O 0.51219 0.4832 0.63534 0.0
C405 C 0.53332 0.52527 0.62366 0.0
O406 O 0.53946 0.48034 0.65439 0.0
H407 H 0.54877 0.50121 0.7925 0.0
H408 H 0.48824 0.49077 0.59278 0.0
H409 H 0.57124 0.49194 0.66291 0.0
O410 O 0.51724 0.52059 0.62578 0.0
O411 O 0.54388 0.51851 0.65088 0.0
H412 H 0.47199 0.52047 0.70155 0.0
O413 O 0.52851 0.51746 0.74506 0.0
O414 O 0.50244 0.52281 0.72026 0.0
O415 O 0.52392 0.48051 0.74662 0.0
O416 O 0.49679 0.48509 0.72826 0.0
C417 C 0.51458 0.5256 0.74739 0.0
H418 H 0.46084 0.4948 0.55611 0.0
H419 H 0.44483 0.5266 0.66395 0.0
H420 H 0.57705 0.49731 0.82778 0.0
H421 H 0.59987 0.48673 0.69659 0.0
C422 C 0.03614 0.5161 0.61588 0.0
N423 N 0.03063 0.46524 0.65781 0.0
C424 C 0.03648 0.46421 0.61379 0.0
C425 C 0.04298 0.44939 0.59778 0.0
C426 C 0.04304 0.43513 0.62661 0.0
C427 C 0.03652 0.43625 0.67146 0.0
C428 C 0.03057 0.45152 0.68658 0.0
Zn429 Zn 0.02146 0.48817 0.67927 0.0
C430 C 0.04631 0.50602 0.7356 0.0
N431 N 0.00401 0.53696 0.71251 0.0
C432 C 0.99728 0.54845 0.6833 0.0
C433 C 0.0057 0.5402 0.75711 0.0
C434 C 0.00073 0.55543 0.77382 0.0
C435 C 0.99393 0.56762 0.74452 0.0
C436 C 0.99209 0.56392 0.69869 0.0
Zn437 Zn 0.0126 0.51426 0.69136 0.0
O438 O 0.03568 0.50066 0.62656 0.0
C439 C 0.98768 0.49636 0.6343 0.0
O440 O 0.02576 0.52569 0.63579 0.0
H441 H 0.01103 0.53095 0.77995 0.0
H442 H 0.03602 0.47479 0.59033 0.0
H443 H 0.99608 0.54568 0.64794 0.0
O444 O 0.99917 0.4853 0.63896 0.0
O445 O 0.98974 0.51027 0.65302 0.0
H446 H 0.02593 0.4523 0.72141 0.0
O447 O 1.00016 0.50254 0.74842 0.0
O448 O 0.00754 0.47697 0.73413 0.0
O449 O 0.03566 0.51757 0.72788 0.0
O450 O 0.04342 0.4916 0.72059 0.0
C451 C 0.99996 0.48713 0.75956 0.0
H452 H 0.04759 0.44901 0.5627 0.0
H453 H 0.03631 0.42552 0.69484 0.0
H454 H 0.00209 0.55758 0.80955 0.0
H455 H 0.987 0.57298 0.67483 0.0
H456 H 0.18325 0.98993 0.35458 0.0
H457 H 0.15592 0.98995 0.40034 0.0
H458 H 0.18304 0.01358 0.50728 0.0
H459 H 0.21044 0.01386 0.46129 0.0
H460 H 0.14734 0.97565 0.48691 0.0
H461 H 0.14159 0.04428 0.48464 0.0
H462 H 0.15611 0.0339 0.44605 0.0
H463 H 0.16229 0.03706 0.50335 0.0
C464 C 0.18342 0.99521 0.38778 0.0
C465 C 0.19907 0.00204 0.40403 0.0
C466 C 0.16776 0.99514 0.414 0.0
C467 C 0.16731 1.00202 0.45701 0.0
C468 C 0.18298 0.00847 0.47388 0.0
H469 H 0.08482 0.01463 0.66585 0.0
H470 H 0.11274 0.01407 0.62189 0.0
C471 C 0.19869 0.00845 0.44774 0.0
C472 C 0.15047 0.00235 0.48425 0.0
H473 H 0.12165 0.02858 0.534 0.0
C474 C 0.14172 0.98722 0.49716 0.0
C475 C 0.14299 0.01745 0.49725 0.0
C476 C 0.15109 0.03412 0.48181 0.0
C477 C 0.126 0.98677 0.52368 0.0
C478 C 0.11867 1.00187 0.53737 0.0
C479 C 0.12735 0.017 0.5241 0.0
C480 C 0.10176 0.00221 0.5643 0.0
C481 C 0.11754 0.97008 0.53751 0.0
C482 C 0.08625 0.99598 0.54641 0.0
C483 C 0.07035 0.99628 0.57136 0.0
C484 C 0.06947 0.00289 0.61493 0.0
C485 C 0.085 0.00932 0.63267 0.0
C486 C 0.10097 0.00905 0.60749 0.0
H487 H 0.12692 0.95983 0.5345 0.0
H488 H 0.11218 0.97001 0.57299 0.0
H489 H 0.10655 0.9675 0.51497 0.0
H490 H 0.08638 0.99098 0.51285 0.0
H491 H 0.0587 0.99131 0.55626 0.0
H492 H 0.48503 0.2206 0.4429 0.0
H493 H 0.49195 0.19465 0.48318 0.0
H494 H 0.4589 0.16725 0.39513 0.0
H495 H 0.45188 0.19328 0.35448 0.0
H496 H 0.47026 0.1722 0.53101 0.0
H497 H 0.50379 0.14147 0.38854 0.0
H498 H 0.49893 0.16332 0.38611 0.0
H499 H 0.4821 0.14794 0.37628 0.0
C500 C 0.47918 0.20907 0.43203 0.0
C501 C 0.46785 0.20909 0.39538 0.0
C502 C 0.48321 0.19421 0.4551 0.0
C503 C 0.47612 0.17893 0.44204 0.0
C504 C 0.46485 0.17883 0.40533 0.0
H505 H 0.48242 0.07632 0.54093 0.0
H506 H 0.47527 0.10268 0.50288 0.0
C507 C 0.46083 0.19374 0.38207 0.0
C508 C 0.48025 0.16322 0.46763 0.0
H509 H 0.49774 0.12487 0.45579 0.0
C510 C 0.47633 0.16188 0.51458 0.0
C511 C 0.48826 0.14974 0.44635 0.0
C512 C 0.49369 0.15069 0.39665 0.0
C513 C 0.4798 0.14733 0.54051 0.0
C514 C 0.48765 0.1338 0.5191 0.0
C515 C 0.49167 0.1352 0.47223 0.0
C516 C 0.49153 0.11794 0.54424 0.0
C517 C 0.47462 0.14644 0.59037 0.0
C518 C 0.50304 0.11766 0.58042 0.0
C519 C 0.50714 0.10254 0.60242 0.0
C520 C 0.49999 0.08736 0.58826 0.0
C521 C 0.48836 0.08773 0.55231 0.0
C522 C 0.48421 0.10282 0.53059 0.0
H523 H 0.46494 0.15598 0.59906 0.0
H524 H 0.46897 0.13394 0.60079 0.0
H525 H 0.48642 0.1487 0.6104 0.0
H526 H 0.50918 0.1291 0.59103 0.0
H527 H 0.51629 0.10268 0.62962 0.0
H528 H 0.31008 0.56246 0.411 0.0
H529 H 0.33493 0.5585 0.46042 0.0
H530 H 0.35896 0.52702 0.3626 0.0
H531 H 0.33412 0.53059 0.31338 0.0
H532 H 0.34861 0.51784 0.47747 0.0
H533 H 0.39414 0.56988 0.41607 0.0
H534 H 0.37066 0.57219 0.41723 0.0
H535 H 0.38074 0.55917 0.37657 0.0
C536 C 0.32067 0.55472 0.39997 0.0
C537 C 0.32008 0.54677 0.35835 0.0
C538 C 0.33487 0.55257 0.42809 0.0
C539 C 0.34868 0.5425 0.41495 0.0
C540 C 0.34841 0.53492 0.37303 0.0
H541 H 0.44815 0.51574 0.51409 0.0
H542 H 0.42269 0.52303 0.47132 0.0
C543 C 0.33425 0.53705 0.3449 0.0
C544 C 0.36288 0.53891 0.4462 0.0
H545 H 0.40432 0.55111 0.47177 0.0
C546 C 0.36077 0.52514 0.47667 0.0
C547 C 0.37865 0.54846 0.44451 0.0
C548 C 0.38135 0.5633 0.41196 0.0
C549 C 0.37429 0.52038 0.50502 0.0
C550 C 0.39019 0.52989 0.50331 0.0
C551 C 0.39212 0.54386 0.47319 0.0
C552 C 0.40539 0.52503 0.53033 0.0
C553 C 0.37165 0.50485 0.53515 0.0
C554 C 0.40418 0.5237 0.57795 0.0
C555 C 0.41871 0.51908 0.60274 0.0
C556 C 0.4348 0.51595 0.58039 0.0
C557 C 0.43594 0.51758 0.53266 0.0
C558 C 0.42141 0.52198 0.50801 0.0
H559 H 0.36062 0.49685 0.52421 0.0
H560 H 0.38369 0.49742 0.53535 0.0
H561 H 0.36856 0.50845 0.5704 0.0
H562 H 0.39205 0.52632 0.59598 0.0
H563 H 0.41725 0.51789 0.63935 0.0
H564 H 0.11299 0.31283 0.41465 0.0
H565 H 0.10508 0.33915 0.44885 0.0
H566 H 0.06106 0.31415 0.52018 0.0
H567 H 0.06901 0.28797 0.4869 0.0
H568 H 0.07546 0.35748 0.44587 0.0
H569 H 0.08494 0.3357 0.62341 0.0
H570 H 0.09261 0.3243 0.57547 0.0
H571 H 0.07 0.32249 0.59479 0.0
C572 C 0.10158 0.31301 0.43743 0.0
C573 C 0.09176 0.29827 0.44852 0.0
C574 C 0.09711 0.32802 0.45712 0.0
C575 C 0.08274 0.32856 0.48813 0.0
C576 C 0.07254 0.31398 0.49765 0.0
H577 H 0.02781 0.40384 0.63649 0.0
H578 H 0.03802 0.37814 0.60321 0.0
C579 C 0.07705 0.29902 0.47836 0.0
C580 C 0.0781 0.34432 0.51007 0.0
H581 H 0.06986 0.36111 0.61322 0.0
C582 C 0.07441 0.35832 0.48245 0.0
C583 C 0.0767 0.34545 0.55789 0.0
C584 C 0.08144 0.33124 0.58963 0.0
C585 C 0.06886 0.37319 0.50124 0.0
C586 C 0.06718 0.37421 0.549 0.0
C587 C 0.07105 0.36029 0.57664 0.0
C588 C 0.06141 0.38963 0.57081 0.0
C589 C 0.06434 0.38755 0.46975 0.0
C590 C 0.07136 0.40453 0.56462 0.0
C591 C 0.06553 0.41919 0.58341 0.0
C592 C 0.04972 0.41924 0.60934 0.0
C593 C 0.04008 0.40418 0.61691 0.0
C594 C 0.04587 0.38951 0.59778 0.0
H595 H 0.06236 0.38353 0.43465 0.0
H596 H 0.05228 0.39359 0.48217 0.0
H597 H 0.07522 0.397 0.4684 0.0
H598 H 0.08361 0.40484 0.54497 0.0
H599 H 0.07339 0.43054 0.57762 0.0
H600 H 0.85573 0.99044 0.0207 0.0
H601 H 0.88293 0.99003 0.97471 0.0
H602 H 0.85871 0.01763 0.86681 0.0
H603 H 0.83144 0.01839 0.91316 0.0
H604 H 0.88983 0.97695 0.89096 0.0
H605 H 0.90395 0.04501 0.88412 0.0
H606 H 0.88806 0.03508 0.92382 0.0
H607 H 0.88246 0.03941 0.86595 0.0
C608 C 0.85617 0.99655 0.9873 0.0
C609 C 0.84135 0.00458 0.97088 0.0
C610 C 0.87176 0.99622 0.96091 0.0
C611 C 0.87304 0.00401 0.91747 0.0
C612 C 0.85819 0.01178 0.90053 0.0
H613 H 0.953 0.00606 0.69783 0.0
H614 H 0.92543 0.00536 0.74392 0.0
C615 C 0.84252 0.01204 0.92687 0.0
C616 C 0.88981 0.00375 0.88979 0.0
H617 H 0.92163 0.02885 0.83582 0.0
C618 C 0.89675 0.98831 0.87893 0.0
C619 C 0.89912 0.01854 0.87472 0.0
C620 C 0.89316 0.03546 0.88807 0.0
C621 C 0.91238 0.98731 0.85245 0.0
C622 C 0.92131 0.0021 0.83621 0.0
C623 C 0.91459 0.01752 0.84765 0.0
C624 C 0.93788 1.00181 0.80813 0.0
C625 C 0.91936 0.97049 0.84193 0.0
C626 C 0.95398 1.0 0.82893 0.0
C627 C 0.96969 1.00071 0.80283 0.0
C628 C 0.96962 0.00301 0.75527 0.0
C629 C 0.95345 0.0043 0.73434 0.0
C630 C 0.93772 0.00391 0.76062 0.0
H631 H 0.91012 0.96015 0.85346 0.0
H632 H 0.92206 0.96974 0.80485 0.0
H633 H 0.93194 0.96881 0.85902 0.0
H634 H 0.95441 0.99827 0.86547 0.0
H635 H 0.98193 0.99941 0.81988 0.0
H636 H 0.55064 0.80599 0.03325 0.0
H637 H 0.54479 0.8324 0.99303 0.0
H638 H 0.58197 0.82091 0.88653 0.0
H639 H 0.58842 0.79482 0.92701 0.0
H640 H 0.5718 0.86003 0.95338 0.0
H641 H 0.53098 0.82776 0.82906 0.0
H642 H 0.53465 0.8188 0.88492 0.0
H643 H 0.55182 0.81909 0.84188 0.0
C644 C 0.55788 0.80919 1.00179 0.0
C645 C 0.56985 0.79806 0.98325 0.0
C646 C 0.55442 0.82427 0.97869 0.0
C647 C 0.56275 0.82848 0.93649 0.0
C648 C 0.57521 0.81779 0.91876 0.0
H649 H 0.55173 0.90959 0.73433 0.0
H650 H 0.55924 0.88371 0.77454 0.0
C651 C 0.5788 0.80281 0.94193 0.0
C652 C 0.55796 0.8437 0.91005 0.0
H653 H 0.5355 0.85679 0.81753 0.0
C654 C 0.56383 0.85934 0.92376 0.0
C655 C 0.54766 0.84276 0.87125 0.0
C656 C 0.54077 0.82625 0.85576 0.0
C657 C 0.55974 0.87407 0.89947 0.0
C658 C 0.54927 0.87314 0.86095 0.0
C659 C 0.54352 0.85748 0.84705 0.0
C660 C 0.54388 0.88837 0.8354 0.0
C661 C 0.56684 0.89053 0.91474 0.0
C662 C 0.5323 0.89934 0.85567 0.0
C663 C 0.52767 0.91399 0.8325 0.0
C664 C 0.53467 0.9182 0.78853 0.0
C665 C 0.54591 0.90686 0.76786 0.0
C666 C 0.55036 0.89207 0.79095 0.0
H667 H 0.57763 0.88891 0.93867 0.0
H668 H 0.57175 0.8985 0.88515 0.0
H669 H 0.55617 0.89718 0.93219 0.0
H670 H 0.52687 0.89657 0.88962 0.0
H671 H 0.51857 0.92202 0.8493 0.0
H672 H 0.72058 0.48607 0.02085 0.0
H673 H 0.69587 0.49078 0.97176 0.0
H674 H 0.68251 0.43823 0.98115 0.0
H675 H 0.70697 0.43363 0.0316 0.0
H676 H 0.69289 0.47789 0.88912 0.0
H677 H 0.6349 0.45817 0.99893 0.0
H678 H 0.65619 0.46217 0.02151 0.0
H679 H 0.65148 0.44284 0.99515 0.0
C680 C 0.71202 0.47564 0.0134 0.0
C681 C 0.71543 0.45955 0.03024 0.0
C682 C 0.69801 0.4783 0.98519 0.0
C683 C 0.68727 0.46488 0.97297 0.0
C684 C 0.69037 0.44882 0.9909 0.0
H685 H 0.60523 0.46151 0.77363 0.0
H686 H 0.63003 0.45403 0.8206 0.0
C687 C 0.7043 0.44619 0.01968 0.0
C688 C 0.67377 0.46766 0.93877 0.0
H689 H 0.6299 0.4642 0.92128 0.0
C690 C 0.67911 0.47491 0.89622 0.0
C691 C 0.65581 0.46365 0.94794 0.0
C692 C 0.64918 0.45641 0.99347 0.0
C693 C 0.66697 0.47842 0.86284 0.0
C694 C 0.64907 0.4746 0.87228 0.0
C695 C 0.64371 0.46703 0.91429 0.0
C696 C 0.63551 0.47925 0.84004 0.0
C697 C 0.67328 0.48624 0.81772 0.0
C698 C 0.63063 0.49591 0.83522 0.0
C699 C 0.6164 0.50013 0.80902 0.0
C700 C 0.60709 0.48778 0.78679 0.0
C701 C 0.61243 0.47122 0.79009 0.0
C702 C 0.62648 0.46696 0.81693 0.0
H703 H 0.68775 0.48587 0.8129 0.0
H704 H 0.66708 0.47979 0.78952 0.0
H705 H 0.6694 0.49945 0.81571 0.0
H706 H 0.6374 0.50552 0.85312 0.0
H707 H 0.61237 0.51294 0.80708 0.0
H708 H 0.9729 0.70135 0.96342 0.0
H709 H 0.98033 0.67529 0.92793 0.0
H710 H 0.93227 0.67633 0.85571 0.0
H711 H 0.92475 0.70233 0.89097 0.0
H712 H 0.96309 0.64455 0.92835 0.0
H713 H 0.96865 0.67236 0.75308 0.0
H714 H 0.96734 0.68488 0.80248 0.0
H715 H 0.94788 0.6752 0.78163 0.0
C716 C 0.96382 0.69593 0.94039 0.0
C717 C 0.94833 0.70405 0.92966 0.0
C718 C 0.96813 0.68109 0.91991 0.0
C719 C 0.95707 0.67407 0.88826 0.0
C720 C 0.94126 0.68176 0.87895 0.0
H721 H 0.96487 0.58572 0.72533 0.0
H722 H 0.95571 0.61162 0.75926 0.0
C723 C 0.93697 0.69661 0.89927 0.0
C724 C 0.96209 0.6587 0.86514 0.0
H725 H 0.97102 0.64307 0.76094 0.0
C726 C 0.96488 0.64424 0.89176 0.0
C727 C 0.96429 0.65827 0.81732 0.0
C728 C 0.96204 0.67353 0.78691 0.0
C729 C 0.96968 0.62934 0.87196 0.0
C730 C 0.97215 0.62896 0.82421 0.0
C731 C 0.96916 0.64337 0.7975 0.0
C732 C 0.97816 0.61379 0.80158 0.0
C733 C 0.97173 0.61406 0.90244 0.0
C734 C 0.99409 0.60672 0.81287 0.0
C735 C 0.99933 0.59196 0.79363 0.0
C736 C 0.98885 0.584 0.76222 0.0
C737 C 0.97326 0.59152 0.74935 0.0
C738 C 0.96797 0.60628 0.76886 0.0
H739 H 0.96442 0.61503 0.93542 0.0
H740 H 0.96705 0.60263 0.88609 0.0
H741 H 0.98578 0.61271 0.90965 0.0
H742 H 0.00245 0.61255 0.83692 0.0
H743 H 0.01162 0.58675 0.80347 0.0
H744 H 0.13089 0.1181 0.50215 0.0
H745 H 0.1121 0.09853 0.54687 0.0
H746 H 0.09044 0.13898 0.62024 0.0
H747 H 0.10757 0.15888 0.57094 0.0
H748 H 0.09597 0.08598 0.61694 0.0
H749 H 0.05142 0.13177 0.53818 0.0
H750 H 0.0748 0.13395 0.53112 0.0
H751 H 0.06387 0.13969 0.58325 0.0
C752 C 0.12255 0.12283 0.52889 0.0
C753 C 0.11954 0.13997 0.53055 0.0
C754 C 0.11183 0.11157 0.55476 0.0
C755 C 0.09877 0.1175 0.58403 0.0
C756 C 0.09957 0.13433 0.59521 0.0
H757 H 0.00517 0.06197 0.6668 0.0
H758 H 0.02508 0.08574 0.64917 0.0
C759 C 0.10964 0.14571 0.56751 0.0
C760 C 0.08235 0.10736 0.5916 0.0
H761 H 0.03894 0.10676 0.56645 0.0
C762 C 0.08349 0.09061 0.60635 0.0
C763 C 0.06605 0.11326 0.57645 0.0
C764 C 0.06393 0.13058 0.55598 0.0
C765 C 0.06897 0.07961 0.60566 0.0
C766 C 0.05287 0.08565 0.59064 0.0
C767 C 0.05145 0.10237 0.57752 0.0
C768 C 0.03717 0.07479 0.59052 0.0
C769 C 0.07095 0.06156 0.62031 0.0
C770 C 0.0362 0.06185 0.56012 0.0
C771 C 0.02455 0.04843 0.56961 0.0
C772 C 0.01433 0.04789 0.61007 0.0
C773 C 0.01305 0.06222 0.6355 0.0
C774 C 0.0246 0.07565 0.6259 0.0
H775 H 0.08349 0.05943 0.63728 0.0
H776 H 0.05993 0.05723 0.64377 0.0
H777 H 0.07064 0.05378 0.59005 0.0
H778 H 0.04569 0.06126 0.53212 0.0
H779 H 0.0257 0.03747 0.54959 0.0
H780 H 0.34292 0.98234 0.47522 0.0
H781 H 0.36698 0.97404 0.52292 0.0
H782 H 0.38698 0.02477 0.51811 0.0
H783 H 0.363 0.03309 0.47035 0.0
H784 H 0.39967 0.98116 0.47218 0.0
H785 H 0.40059 0.00588 0.64541 0.0
H786 H 0.38048 0.00228 0.61624 0.0
H787 H 0.39412 0.02037 0.6016 0.0
C788 C 0.35186 0.99187 0.48658 0.0
C789 C 0.35132 0.00829 0.46887 0.0
C790 C 0.36563 0.9871 0.51362 0.0
C791 C 0.37875 0.99878 0.52365 0.0
C792 C 0.37686 0.01562 0.51109 0.0
H793 H 0.48631 0.00965 0.54971 0.0
H794 H 0.45714 0.00746 0.51885 0.0
C795 C 0.3632 0.02036 0.48376 0.0
C796 C 0.39614 0.99305 0.53604 0.0
H797 H 0.42802 0.99792 0.61255 0.0
C798 C 0.40575 0.98444 0.5034 0.0
C799 C 0.40406 0.99771 0.57626 0.0
C800 C 0.39426 0.00698 0.61212 0.0
C801 C 0.42339 0.98092 0.50925 0.0
C802 C 0.43136 0.98592 0.5489 0.0
C803 C 0.42164 0.994 0.58229 0.0
C804 C 0.45016 0.98423 0.55527 0.0
C805 C 0.43366 0.97256 0.47249 0.0
C806 C 0.45605 0.97132 0.5835 0.0
C807 C 0.47276 0.97245 0.60093 0.0
C808 C 0.48343 0.98671 0.59087 0.0
C809 C 0.4782 0.99863 0.55837 0.0
C810 C 0.4616 0.9974 0.54069 0.0
H811 H 0.42522 0.96839 0.44497 0.0
H812 H 0.44391 0.98139 0.45757 0.0
H813 H 0.4404 0.96165 0.48718 0.0
H814 H 0.44725 0.9611 0.59496 0.0
H815 H 0.47652 0.96308 0.62582 0.0
H816 H 0.43225 0.35233 0.50413 0.0
H817 H 0.44636 0.37163 0.55618 0.0
H818 H 0.48003 0.39129 0.44527 0.0
H819 H 0.46603 0.37243 0.39391 0.0
H820 H 0.4874 0.37587 0.56671 0.0
H821 H 0.4532 0.43177 0.50403 0.0
H822 H 0.44396 0.41089 0.50145 0.0
H823 H 0.46056 0.41835 0.4604 0.0
C824 C 0.44265 0.36084 0.49131 0.0
C825 C 0.448 0.36121 0.44527 0.0
C826 C 0.45066 0.37175 0.5208 0.0
C827 C 0.46405 0.3829 0.50412 0.0
C828 C 0.46956 0.3829 0.45841 0.0
H829 H 0.5273 0.46721 0.54374 0.0
H830 H 0.51364 0.44162 0.51723 0.0
C831 C 0.46157 0.37219 0.42921 0.0
C832 C 0.47266 0.39483 0.5332 0.0
H833 H 0.48065 0.4365 0.538 0.0
C834 C 0.4858 0.38916 0.56144 0.0
C835 C 0.47039 0.41205 0.52594 0.0
C836 C 0.45616 0.41868 0.4966 0.0
C837 C 0.49777 0.40039 0.57976 0.0
C838 C 0.49623 0.41766 0.56982 0.0
C839 C 0.48217 0.42325 0.54445 0.0
C840 C 0.5089 0.43037 0.58471 0.0
C841 C 0.51241 0.39358 0.60733 0.0
C842 C 0.51192 0.43195 0.63096 0.0
C843 C 0.52055 0.44612 0.64562 0.0
C844 C 0.52565 0.45911 0.61444 0.0
C845 C 0.52385 0.45709 0.56801 0.0
C846 C 0.5158 0.44262 0.55313 0.0
H847 H 0.51483 0.38036 0.60013 0.0
H848 H 0.52479 0.40095 0.60066 0.0
H849 H 0.50872 0.39411 0.64395 0.0
H850 H 0.50632 0.423 0.65611 0.0
H851 H 0.52133 0.44779 0.6818 0.0
H852 H 0.18399 0.53143 0.44389 0.0
H853 H 0.16294 0.53025 0.50847 0.0
H854 H 0.14629 0.57955 0.47093 0.0
H855 H 0.167 0.58063 0.40595 0.0
H856 H 0.14402 0.55297 0.58299 0.0
H857 H 0.11266 0.53981 0.42 0.0
H858 H 0.13599 0.53936 0.4262 0.0
H859 H 0.1254 0.55894 0.41985 0.0
C860 C 0.17653 0.54235 0.45108 0.0
C861 C 0.17669 0.55598 0.41991 0.0
C862 C 0.16464 0.54172 0.48809 0.0
C863 C 0.15303 0.55475 0.49375 0.0
C864 C 0.15528 0.56946 0.46696 0.0
H865 H 0.04364 0.54863 0.58918 0.0
H866 H 0.07286 0.56039 0.56692 0.0
C867 C 0.16695 0.57001 0.4297 0.0
C868 C 0.13565 0.55086 0.51445 0.0
H869 H 0.09423 0.54055 0.4846 0.0
C870 C 0.13306 0.55039 0.56174 0.0
C871 C 0.12161 0.54708 0.48621 0.0
C872 C 0.124 0.54615 0.43529 0.0
C873 C 0.11645 0.5463 0.58151 0.0
C874 C 0.10244 0.54303 0.55292 0.0
C875 C 0.10507 0.54359 0.50592 0.0
C876 C 0.08541 0.53661 0.57028 0.0
C877 C 0.11392 0.54505 0.63244 0.0
C878 C 0.08299 0.5194 0.57651 0.0
C879 C 0.06642 0.51264 0.58699 0.0
C880 C 0.05206 0.52305 0.59248 0.0
C881 C 0.05446 0.54033 0.58483 0.0
C882 C 0.0711 0.54708 0.57329 0.0
H883 H 0.12576 0.54938 0.6499 0.0
H884 H 0.10261 0.55253 0.64323 0.0
H885 H 0.11086 0.5319 0.64344 0.0
H886 H 0.09393 0.5112 0.57285 0.0
H887 H 0.06512 0.49927 0.59301 0.0
H888 H 0.90585 0.86157 0.81456 0.0
H889 H 0.92325 0.88465 0.77739 0.0
H890 H 0.9701 0.86387 0.83153 0.0
H891 H 0.95323 0.8405 0.86419 0.0
H892 H 0.9365 0.906 0.82378 0.0
H893 H 0.99226 0.88418 0.72387 0.0
H894 H 0.97404 0.87026 0.74002 0.0
H895 H 0.99243 0.87252 0.77658 0.0
C896 C 0.92 0.8615 0.81574 0.0
C897 C 0.92823 0.84929 0.84201 0.0
C898 C 0.92993 0.87475 0.79504 0.0
C899 C 0.94806 0.87611 0.80167 0.0
C900 C 0.95633 0.86301 0.8243 0.0
H901 H 0.02617 0.95697 0.81436 0.0
H902 H 0.00597 0.93402 0.84346 0.0
C903 C 0.94657 0.84956 0.84334 0.0
C904 C 0.9577 0.89225 0.79416 0.0
H905 H 0.9985 0.9088 0.76805 0.0
C906 C 0.94997 0.90659 0.81087 0.0
C907 C 0.97526 0.89324 0.77711 0.0
C908 C 0.9838 0.8792 0.75296 0.0
C909 C 0.95953 0.92165 0.81231 0.0
C910 C 0.97741 0.92211 0.79869 0.0
C911 C 0.98505 0.90799 0.7812 0.0
C912 C 0.98724 0.93785 0.79085 0.0
C913 C 0.95045 0.93704 0.82736 0.0
C914 C 0.98309 0.94736 0.75258 0.0
C915 C 0.99462 0.95963 0.73543 0.0
C916 C 0.01057 0.96293 0.75645 0.0
C917 C 0.01418 0.95437 0.79715 0.0
C918 C 0.00261 0.94152 0.81393 0.0
H919 H 0.93782 0.93394 0.84599 0.0
H920 H 0.95898 0.94443 0.84922 0.0
H921 H 0.94763 0.945 0.79704 0.0
H922 H 0.9715 0.94447 0.73386 0.0
H923 H 0.99115 0.96616 0.7044 0.0
H924 H 0.69545 0.02603 0.87597 0.0
H925 H 0.67029 0.02616 0.82683 0.0
H926 H 0.65497 0.97674 0.87776 0.0
H927 H 0.68011 0.97659 0.9268 0.0
H928 H 0.64604 0.9977 0.76872 0.0
H929 H 0.62589 0.01861 0.94073 0.0
H930 H 0.64829 0.02102 0.91965 0.0
H931 H 0.63939 1.00071 0.93583 0.0
C932 C 0.68737 0.01481 0.8743 0.0
C933 C 0.68954 1.00133 0.90496 0.0
C934 C 0.67302 0.01488 0.84632 0.0
C935 C 0.66079 1.00152 0.84926 0.0
C936 C 0.66439 0.98708 0.87493 0.0
H937 H 0.54939 0.99769 0.82589 0.0
H938 H 0.57921 0.99577 0.85246 0.0
C939 C 0.67873 0.987 0.90288 0.0
C940 C 0.64257 0.00468 0.83802 0.0
H941 H 0.60461 0.01852 0.88569 0.0
C942 C 0.63695 0.00229 0.79405 0.0
C943 C 0.63082 0.01047 0.87162 0.0
C944 C 0.63629 0.01293 0.91966 0.0
C945 C 0.61967 0.00566 0.78276 0.0
C946 C 0.60811 0.01192 0.81615 0.0
C947 C 0.6137 0.01403 0.86018 0.0
C948 C 0.5898 0.01547 0.80659 0.0
C949 C 0.61374 0.00213 0.73573 0.0
C950 C 0.58581 0.02807 0.77476 0.0
C951 C 0.56873 0.02938 0.76005 0.0
C952 C 0.55565 0.01794 0.77682 0.0
C953 C 0.55932 0.00661 0.81242 0.0
C954 C 0.57634 0.00539 0.82727 0.0
H955 H 0.62312 0.99431 0.7171 0.0
H956 H 0.60067 0.9957 0.73743 0.0
H957 H 0.61259 0.01405 0.71601 0.0
H958 H 0.59608 0.03619 0.75932 0.0
H959 H 0.56623 0.03815 0.73239 0.0
H960 H 0.6041 0.62393 0.94446 0.0
H961 H 0.59394 0.60371 0.89096 0.0
H962 H 0.561 0.64055 0.83084 0.0
H963 H 0.57075 0.66072 0.88485 0.0
H964 H 0.54746 0.61123 0.90249 0.0
H965 H 0.58423 0.59266 0.74665 0.0
H966 H 0.59562 0.59892 0.79611 0.0
H967 H 0.58455 0.61415 0.76276 0.0
C968 C 0.59538 0.62796 0.91828 0.0
C969 C 0.58769 0.64364 0.91968 0.0
C970 C 0.58973 0.61645 0.88749 0.0
C971 C 0.57656 0.62067 0.85769 0.0
C972 C 0.57121 0.63718 0.85376 0.0
H973 H 0.50469 0.55671 0.72413 0.0
H974 H 0.51705 0.58183 0.75661 0.0
C975 C 0.57678 0.64869 0.88472 0.0
C976 C 0.56447 0.60745 0.84414 0.0
H977 H 0.55752 0.57817 0.76614 0.0
C978 C 0.54953 0.60408 0.87242 0.0
C979 C 0.5676 0.59803 0.80567 0.0
C980 C 0.58386 0.601 0.77581 0.0
C981 C 0.5374 0.5915 0.86283 0.0
C982 C 0.54028 0.58234 0.82379 0.0
C983 C 0.55529 0.5856 0.7956 0.0
C984 C 0.5285 0.56852 0.81283 0.0
C985 C 0.5217 0.58795 0.89445 0.0
C986 C 0.52997 0.55309 0.83577 0.0
C987 C 0.52299 0.53882 0.81733 0.0
C988 C 0.5145 0.53997 0.77596 0.0
C989 C 0.51103 0.55563 0.75634 0.0
C990 C 0.51823 0.56991 0.77452 0.0
H991 H 0.52023 0.59758 0.92023 0.0
H992 H 0.50957 0.58724 0.87486 0.0
H993 H 0.52312 0.57569 0.91236 0.0
H994 H 0.53791 0.55189 0.86538 0.0
H995 H 0.52582 0.52677 0.83275 0.0
H996 H 0.85655 0.47023 0.97159 0.0
H997 H 0.88069 0.48188 0.92302 0.0
H998 H 0.89064 0.43302 0.87431 0.0
H999 H 0.86686 0.42123 0.92422 0.0
H1000 H 0.91426 0.4473 0.9404 0.0
H1001 H 0.90385 0.49061 0.79193 0.0
H1002 H 0.88922 0.49114 0.84109 0.0
H1003 H 0.88885 0.47329 0.80657 0.0
C1004 C 0.86319 0.46218 0.94834 0.0
C1005 C 0.86017 0.44486 0.95166 0.0
C1006 C 0.87693 0.46886 0.92054 0.0
C1007 C 0.88743 0.45822 0.89565 0.0
C1008 C 0.88255 0.44134 0.89343 0.0
H1009 H 0.98681 0.4557 0.7773 0.0
H1010 H 0.96087 0.44873 0.82557 0.0
C1011 C 0.86903 0.43461 0.92182 0.0
C1012 C 0.90574 0.46319 0.88524 0.0
H1013 H 0.93286 0.48715 0.81444 0.0
C1014 C 0.91837 0.45599 0.91279 0.0
C1015 C 0.9108 0.47491 0.85027 0.0
C1016 C 0.89755 0.48298 0.8205 0.0
C1017 C 0.93617 0.45971 0.90489 0.0
C1018 C 0.94127 0.47084 0.86874 0.0
C1019 C 0.92866 0.47863 0.84237 0.0
C1020 C 0.95958 0.47313 0.8538 0.0
C1021 C 0.94946 0.4516 0.93448 0.0
C1022 C 0.96784 0.48875 0.85656 0.0
C1023 C 0.98262 0.49274 0.8292 0.0
C1024 C 0.98893 0.48119 0.7985 0.0
C1025 C 0.98202 0.46484 0.80037 0.0
C1026 C 0.96727 0.46084 0.82792 0.0
H1027 H 0.94327 0.44542 0.96559 0.0
H1028 H 0.95642 0.44208 0.91503 0.0
H1029 H 0.95938 0.46099 0.94447 0.0
H1030 H 0.962 0.49826 0.87673 0.0
H1031 H 0.98807 0.50533 0.82902 0.0
H1032 H 0.11254 0.13942 0.14546 0.0
H1033 H 0.10474 0.11736 0.09411 0.0
H1034 H 0.06956 0.15027 0.0265 0.0
H1035 H 0.07701 0.17223 0.0778 0.0
H1036 H 0.07186 0.10216 0.07841 0.0
H1037 H 0.09959 0.13392 0.92088 0.0
H1038 H 0.10505 0.14038 0.97669 0.0
H1039 H 0.08481 0.14647 0.95244 0.0
C1040 C 0.10309 0.14199 0.11979 0.0
C1041 C 0.09555 0.15778 0.11577 0.0
C1042 C 0.09869 0.12933 0.0903 0.0
C1043 C 0.08675 0.13218 0.05583 0.0
C1044 C 0.07912 0.14784 0.05201 0.0
H1045 H 0.03279 0.07669 0.85554 0.0
H1046 H 0.04301 0.09635 0.91044 0.0
C1047 C 0.08346 0.16046 0.08144 0.0
C1048 C 0.082 0.1188 0.02423 0.0
H1049 H 0.08073 0.11028 0.91158 0.0
C1050 C 0.07399 0.10386 0.04198 0.0
C1051 C 0.08477 0.12094 0.9766 0.0
C1052 C 0.09417 0.13621 0.95544 0.0
C1053 C 0.06819 0.09134 0.01335 0.0
C1054 C 0.07056 0.09371 0.96575 0.0
C1055 C 0.07883 0.10849 0.94806 0.0
C1056 C 0.06413 0.08124 0.93356 0.0
C1057 C 0.05905 0.07585 0.03393 0.0
C1058 C 0.07259 0.06611 0.92812 0.0
C1059 C 0.06697 0.05486 0.89594 0.0
C1060 C 0.05271 0.05846 0.86845 0.0
C1061 C 0.04407 0.07353 0.87496 0.0
C1062 C 0.0498 0.0848 0.90676 0.0
H1063 H 0.05645 0.07667 0.07104 0.0
H1064 H 0.04643 0.0736 0.01731 0.0
H1065 H 0.06732 0.06495 0.02804 0.0
H1066 H 0.08378 0.06315 0.94816 0.0
H1067 H 0.07413 0.04355 0.89185 0.0
H1068 H 0.34486 0.98904 0.9856 0.0
H1069 H 0.36958 0.98882 0.93079 0.0
H1070 H 0.39935 0.02136 0.01368 0.0
H1071 H 0.37456 0.02198 0.06833 0.0
H1072 H 0.3868 0.01603 0.88149 0.0
H1073 H 0.43217 0.98214 0.99274 0.0
H1074 H 0.40886 0.98245 0.00482 0.0
H1075 H 0.42261 1.00006 0.01714 0.0
C1076 C 0.35658 0.9963 0.99212 0.0
C1077 C 0.35763 0.00554 0.03162 0.0
C1078 C 0.37076 0.99607 0.96077 0.0
C1079 C 0.38641 0.00491 0.96831 0.0
C1080 C 0.38753 0.01418 0.00753 0.0
H1081 H 0.4795 0.02994 0.79797 0.0
H1082 H 0.45407 0.02997 0.8515 0.0
C1083 C 0.37332 0.01449 0.03884 0.0
C1084 C 0.40144 0.00462 0.93483 0.0
H1085 H 0.44419 0.99344 0.92248 0.0
C1086 C 0.39934 0.01107 0.89046 0.0
C1087 C 0.41775 0.99797 0.94634 0.0
C1088 C 0.42053 0.99011 0.9927 0.0
C1089 C 0.41322 0.01141 0.85775 0.0
C1090 C 0.42959 0.00511 0.86962 0.0
C1091 C 0.43165 0.99841 0.91366 0.0
C1092 C 0.4447 0.00525 0.8365 0.0
C1093 C 0.41041 0.01844 0.81055 0.0
C1094 C 0.44784 0.99132 0.81053 0.0
C1095 C 0.46245 0.99118 0.78049 0.0
C1096 C 0.47406 0.00507 0.77543 0.0
C1097 C 0.47071 0.01913 0.80091 0.0
C1098 C 0.45623 0.01915 0.83151 0.0
H1099 H 0.39698 0.02314 0.80678 0.0
H1100 H 0.42004 0.02879 0.80217 0.0
H1101 H 0.41267 0.00866 0.78562 0.0
H1102 H 0.43904 0.98051 0.81374 0.0
H1103 H 0.46462 0.98024 0.76096 0.0
H1104 H 0.49085 0.34664 0.01751 0.0
H1105 H 0.49717 0.37029 0.9644 0.0
H1106 H 0.44465 0.38732 0.98698 0.0
H1107 H 0.43847 0.3639 0.04136 0.0
H1108 H 0.48439 0.37913 0.88663 0.0
H1109 H 0.47103 0.42969 0.00428 0.0
H1110 H 0.47205 0.40822 0.02373 0.0
H1111 H 0.45246 0.41589 0.99903 0.0
C1112 C 0.48063 0.35541 0.01118 0.0
C1113 C 0.46416 0.35336 0.03385 0.0
C1114 C 0.48427 0.36899 0.98079 0.0
C1115 C 0.47153 0.38088 0.97199 0.0
C1116 C 0.45494 0.37869 0.99401 0.0
H1117 H 0.47383 0.46751 0.77945 0.0
H1118 H 0.46436 0.44406 0.83128 0.0
C1119 C 0.45136 0.36521 0.02497 0.0
C1120 C 0.47564 0.39523 0.93903 0.0
H1121 H 0.47606 0.43781 0.92661 0.0
C1122 C 0.48258 0.39194 0.89558 0.0
C1123 C 0.47334 0.41206 0.95033 0.0
C1124 C 0.46698 0.41672 0.99701 0.0
C1125 C 0.48723 0.40486 0.86347 0.0
C1126 C 0.4849 0.4216 0.87484 0.0
C1127 C 0.47773 0.42495 0.91785 0.0
C1128 C 0.49056 0.43581 0.84323 0.0
C1129 C 0.49459 0.40053 0.81745 0.0
C1130 C 0.50842 0.43908 0.83312 0.0
C1131 C 0.51388 0.45254 0.80397 0.0
C1132 C 0.50158 0.46304 0.78402 0.0
C1133 C 0.48366 0.45973 0.79424 0.0
C1134 C 0.47822 0.44633 0.82383 0.0
H1135 H 0.49219 0.38719 0.81053 0.0
H1136 H 0.48879 0.40832 0.79026 0.0
H1137 H 0.50895 0.40306 0.81596 0.0
H1138 H 0.5182 0.43126 0.84802 0.0
H1139 H 0.52778 0.45461 0.79683 0.0
H1140 H 0.16121 0.51747 0.03623 0.0
H1141 H 0.13684 0.51354 0.98587 0.0
H1142 H 0.15879 0.55235 0.89427 0.0
H1143 H 0.18328 0.55634 0.94446 0.0
H1144 H 0.11182 0.53503 0.95342 0.0
H1145 H 0.15423 0.51277 0.81272 0.0
H1146 H 0.16183 0.51483 0.86949 0.0
H1147 H 0.16047 0.5329 0.83211 0.0
C1148 C 0.16078 0.52529 0.00557 0.0
C1149 C 0.17428 0.5371 0.99404 0.0
C1150 C 0.14686 0.523 0.9768 0.0
C1151 C 0.14619 0.53244 0.93594 0.0
C1152 C 0.15929 0.54465 0.92511 0.0
H1153 H 0.0668 0.53417 0.73088 0.0
H1154 H 0.09157 0.54095 0.77839 0.0
C1155 C 0.17328 0.5469 0.95377 0.0
C1156 C 0.13199 0.52913 0.90425 0.0
H1157 H 0.12424 0.51606 0.79775 0.0
C1158 C 0.11454 0.5309 0.91939 0.0
C1159 C 0.13558 0.52365 0.85993 0.0
C1160 C 0.15402 0.52077 0.8426 0.0
C1161 C 0.10059 0.52739 0.89123 0.0
C1162 C 0.10422 0.52191 0.8471 0.0
C1163 C 0.12161 0.5203 0.8317 0.0
C1164 C 0.08999 0.51748 0.81686 0.0
C1165 C 0.08201 0.5295 0.90859 0.0
C1166 C 0.08129 0.5019 0.82228 0.0
C1167 C 0.06739 0.49789 0.79471 0.0
C1168 C 0.06185 0.50955 0.76205 0.0
C1169 C 0.07077 0.52505 0.75623 0.0
C1170 C 0.08488 0.52892 0.78317 0.0
H1171 H 0.08143 0.53561 0.94172 0.0
H1172 H 0.07471 0.53702 0.8836 0.0
H1173 H 0.07529 0.51709 0.91278 0.0
H1174 H 0.08513 0.49294 0.8482 0.0
H1175 H 0.06062 0.48592 0.79992 0.0
H1176 H 0.97573 0.83798 0.27626 0.0
H1177 H 0.98183 0.86052 0.32775 0.0
H1178 H 0.93029 0.87938 0.30773 0.0
H1179 H 0.92425 0.85698 0.25535 0.0
H1180 H 0.97806 0.89778 0.30308 0.0
H1181 H 0.93728 0.87298 0.45195 0.0
H1182 H 0.9454 0.85967 0.40841 0.0
H1183 H 0.92775 0.87326 0.39692 0.0
C1184 C 0.96568 0.84688 0.28307 0.0
C1185 C 0.94951 0.84572 0.26196 0.0
C1186 C 0.96918 0.85976 0.31234 0.0
C1187 C 0.95648 0.87155 0.32181 0.0
C1188 C 0.94024 0.87036 0.30108 0.0
H1189 H 0.95901 0.95152 0.51615 0.0
H1190 H 0.94976 0.93149 0.4609 0.0
C1191 C 0.93683 0.85762 0.27111 0.0
C1192 C 0.96049 0.88528 0.35257 0.0
H1193 H 0.95252 0.8985 0.45986 0.0
C1194 C 0.97245 0.89799 0.33733 0.0
C1195 C 0.95301 0.88561 0.39701 0.0
C1196 C 0.94019 0.87215 0.41496 0.0
C1197 C 0.97721 0.91101 0.36538 0.0
C1198 C 0.97024 0.91107 0.41057 0.0
C1199 C 0.95796 0.89849 0.42543 0.0
C1200 C 0.97593 0.92373 0.44329 0.0
C1201 C 0.98943 0.92472 0.34586 0.0
C1202 C 0.99373 0.92609 0.45223 0.0
C1203 C 0.99914 0.93784 0.48302 0.0
C1204 C 0.98686 0.94733 0.50686 0.0
C1205 C 0.96897 0.94477 0.49817 0.0
C1206 C 0.96359 0.93314 0.4668 0.0
H1207 H 0.9888 0.9259 0.30831 0.0
H1208 H 0.98631 0.93691 0.36013 0.0
H1209 H 0.00309 0.92176 0.35402 0.0
H1210 H 0.00353 0.91874 0.43559 0.0
H1211 H 0.01304 0.93948 0.48779 0.0
H1212 H 0.68515 0.97808 0.3651 0.0
H1213 H 0.66007 0.97725 0.41915 0.0
H1214 H 0.64926 0.02814 0.38065 0.0
H1215 H 0.67401 0.02885 0.32567 0.0
H1216 H 0.65297 0.99397 0.49232 0.0
H1217 H 0.60174 0.00772 0.36937 0.0
H1218 H 0.62381 0.00304 0.3515 0.0
H1219 H 0.61857 0.0237 0.36817 0.0
C1220 C 0.67739 0.98908 0.36805 0.0
C1221 C 0.68152 0.00349 0.34074 0.0
C1222 C 0.66302 0.98859 0.39899 0.0
C1223 C 0.65245 0.00251 0.40356 0.0
C1224 C 0.65678 0.01703 0.3769 0.0
H1225 H 0.56316 0.02716 0.57564 0.0
H1226 H 0.58887 0.02705 0.52416 0.0
C1227 C 0.67101 0.01746 0.34553 0.0
C1228 C 0.63719 1.00192 0.43686 0.0
H1229 H 0.5933 0.0089 0.44753 0.0
C1230 C 0.6399 0.99712 0.48239 0.0
C1231 C 0.62005 0.00599 0.42415 0.0
C1232 C 0.61581 0.01023 0.37556 0.0
C1233 C 0.62614 0.99666 0.51552 0.0
C1234 C 0.6091 1.00097 0.50285 0.0
C1235 C 0.60636 0.00568 0.45736 0.0
C1236 C 0.5939 1.00093 0.53609 0.0
C1237 C 0.63008 0.99197 0.56403 0.0
C1238 C 0.58804 0.98626 0.5601 0.0
C1239 C 0.57326 0.98627 0.58978 0.0
C1240 C 0.56394 1.00093 0.59579 0.0
C1241 C 0.56992 0.0156 0.5718 0.0
C1242 C 0.58467 0.01558 0.54229 0.0
H1243 H 0.64432 0.99312 0.57021 0.0
H1244 H 0.6229 0.99989 0.58799 0.0
H1245 H 0.62583 0.97882 0.57159 0.0
H1246 H 0.5947 0.97471 0.55529 0.0
H1247 H 0.56904 0.97474 0.60761 0.0
H1248 H 0.55784 0.63247 0.29131 0.0
H1249 H 0.55415 0.60896 0.34626 0.0
H1250 H 0.57395 0.63943 0.45096 0.0
H1251 H 0.57811 0.66294 0.39611 0.0
H1252 H 0.57926 0.59293 0.40576 0.0
H1253 H 0.52473 0.62204 0.50084 0.0
H1254 H 0.53171 0.62898 0.44395 0.0
H1255 H 0.54443 0.63462 0.49128 0.0
C1256 C 0.56168 0.63418 0.32581 0.0
C1257 C 0.56815 0.64979 0.33908 0.0
C1258 C 0.55948 0.62069 0.35731 0.0
C1259 C 0.56353 0.62245 0.40296 0.0
C1260 C 0.57042 0.63783 0.41614 0.0
H1261 H 0.55804 0.54998 0.63529 0.0
H1262 H 0.56622 0.57374 0.58288 0.0
C1263 C 0.57271 0.65131 0.38465 0.0
C1264 C 0.56006 0.60837 0.43693 0.0
H1265 H 0.53416 0.59615 0.53004 0.0
C1266 C 0.56944 0.59367 0.433 0.0
C1267 C 0.5472 0.60927 0.47247 0.0
C1268 C 0.5363 0.6245 0.47746 0.0
C1269 C 0.56635 0.57994 0.46373 0.0
C1270 C 0.55344 0.58083 0.49898 0.0
C1271 C 0.54412 0.59553 0.50312 0.0
C1272 C 0.54887 0.5663 0.53052 0.0
C1273 C 0.57676 0.56445 0.45838 0.0
C1274 C 0.53636 0.55428 0.51857 0.0
C1275 C 0.53151 0.54087 0.54862 0.0
C1276 C 0.53929 0.539 0.59095 0.0
C1277 C 0.55203 0.55092 0.60261 0.0
C1278 C 0.55665 0.56453 0.57283 0.0
H1279 H 0.5873 0.56612 0.43157 0.0
H1280 H 0.58273 0.56087 0.49101 0.0
H1281 H 0.56787 0.55401 0.44955 0.0
H1282 H 0.53021 0.5554 0.48612 0.0
H1283 H 0.52166 0.53192 0.53869 0.0
H1284 H 0.85687 0.48746 0.36816 0.0
H1285 H 0.8813 0.49436 0.41637 0.0
H1286 H 0.89075 0.44201 0.43804 0.0
H1287 H 0.86685 0.43519 0.38794 0.0
H1288 H 0.88559 0.48748 0.50307 0.0
H1289 H 0.93933 0.45852 0.40618 0.0
H1290 H 0.91794 0.46116 0.38348 0.0
H1291 H 0.92186 0.44396 0.42245 0.0
C1292 C 0.86427 0.47747 0.38308 0.0
C1293 C 0.86005 0.46082 0.37443 0.0
C1294 C 0.87822 0.4814 0.41058 0.0
C1295 C 0.88811 0.46874 0.43039 0.0
C1296 C 0.88372 0.45205 0.42215 0.0
H1297 H 0.97387 0.46599 0.61488 0.0
H1298 H 0.94894 0.45987 0.56807 0.0
C1299 C 0.86998 0.44813 0.39387 0.0
C1300 C 0.90252 0.47306 0.461 0.0
H1301 H 0.94585 0.46731 0.47981 0.0
C1302 C 0.8988 0.48314 0.4978 0.0
C1303 C 0.91979 0.46743 0.45424 0.0
C1304 C 0.92503 0.45731 0.41419 0.0
C1305 C 0.91169 0.48744 0.52849 0.0
C1306 C 0.9289 0.48168 0.52193 0.0
C1307 C 0.93264 0.47167 0.48503 0.0
C1308 C 0.94327 0.48568 0.55295 0.0
C1309 C 0.90658 0.49775 0.56824 0.0
C1310 C 0.94837 0.50226 0.56049 0.0
C1311 C 0.96252 0.5058 0.58789 0.0
C1312 C 0.97208 0.49283 0.60737 0.0
C1313 C 0.96688 0.47627 0.6 0.0
C1314 C 0.95261 0.47275 0.57326 0.0
H1315 H 0.89221 0.49707 0.5756 0.0
H1316 H 0.91333 0.49363 0.59927 0.0
H1317 H 0.91037 0.51098 0.56014 0.0
H1318 H 0.94169 0.51247 0.54435 0.0
H1319 H 0.96628 0.51868 0.59272 0.0
loop_
_geom_bond_atom_site_label_1
_geom_bond_atom_site_label_2
_geom_bond_distance
_geom_bond_site_symmetry_2
_ccdc_geom_bond_type
C0 C1 1.264 . S
C0 C5 1.479 . S
C0 C10 1.465 . S
C1 C0 1.264 . S
C1 C3 1.339 . S
C1 H28 0.931 . S
C2 C3 1.395 . S
C2 C4 1.320 . S
C3 C1 1.339 . S
C3 C2 1.395 . S
C3 H29 0.929 . S
C4 C2 1.320 . S
C4 C5 1.405 . S
C4 H30 0.930 . S
C5 C0 1.479 . S
C5 C4 1.405 . S
C5 H31 0.931 . S
U6 O7 2.454 . S
U6 O8 2.458 . S
U6 C9 2.984 . S
U6 C10 2.847 . S
U6 C23 2.882 . S
U6 O24 2.441 . S
U6 O25 2.420 . S
U6 O26 2.455 . S
U6 O27 2.449 . S
O7 U6 2.454 . S
O7 C9 1.353 . S
O8 U6 2.458 . S
O8 C9 1.286 . S
C9 U6 2.984 . S
C9 O7 1.353 . S
C9 O8 1.286 . S
C9 C11 1.363 . S
C10 C0 1.465 . S
C10 U6 2.847 . S
C10 O24 1.249 . S
C10 O25 1.202 . S
C11 C9 1.363 . S
C11 C13 1.408 . S
C11 C16 1.342 . S
C12 C13 1.310 . S
C12 C15 1.461 . S
C12 H32 0.932 . S
C13 C11 1.408 . S
C13 C12 1.310 . S
C13 H33 0.930 . S
C14 C15 1.474 . S
C14 C16 1.285 . S
C14 H34 0.929 1_554 S
C15 C12 1.461 . S
C15 C14 1.474 . S
C16 C11 1.342 . S
C16 C14 1.285 . S
C16 H35 0.930 . S
C17 C20 1.424 . S
C17 C22 1.245 1_554 S
C17 C23 1.428 . S
C18 C21 1.260 . S
C18 C22 1.477 . S
C18 H36 0.932 . S
C19 C20 1.384 1_556 S
C19 C21 1.479 . S
C19 H37 0.929 1_556 S
C20 C17 1.424 . S
C20 C19 1.384 1_554 S
C20 H38 0.928 . S
C21 C18 1.260 . S
C21 C19 1.479 . S
C22 C17 1.245 1_556 S
C22 C18 1.477 . S
C22 H39 0.932 . S
C23 U6 2.882 . S
C23 C17 1.428 . S
C23 O26 1.301 . S
C23 O27 1.282 . S
O24 U6 2.441 . S
O24 C10 1.249 . S
O25 U6 2.420 . S
O25 C10 1.202 . S
O26 U6 2.455 . S
O26 C23 1.301 . S
O27 U6 2.449 . S
O27 C23 1.282 . S
H28 C1 0.931 . S
H29 C3 0.929 . S
H30 C4 0.930 . S
H31 C5 0.931 . S
H32 C12 0.932 . S
H33 C13 0.930 . S
H34 C14 0.929 1_556 S
H35 C16 0.930 . S
H36 C18 0.932 . S
H37 C19 0.929 1_554 S
H38 C20 0.928 . S
H39 C22 0.932 . S
C40 C41 1.264 . S
C40 C45 1.479 . S
C40 C50 1.465 . S
C41 C40 1.264 . S
C41 C43 1.339 . S
C41 H68 0.931 . S
C42 C43 1.395 . S
C42 C44 1.320 . S
C43 C41 1.339 . S
C43 C42 1.395 . S
C43 H69 0.929 . S
C44 C42 1.320 . S
C44 C45 1.405 . S
C44 H70 0.930 . S
C45 C40 1.479 . S
C45 C44 1.405 . S
C45 H71 0.931 . S
U46 O47 2.454 . S
U46 O48 2.458 1_554 S
U46 C49 2.984 1_554 S
U46 C50 2.847 . S
U46 C63 2.882 1_554 S
U46 O64 2.441 . S
U46 O65 2.420 . S
U46 O66 2.455 1_554 S
U46 O67 2.449 1_554 S
O47 U46 2.454 . S
O47 C49 1.353 1_554 S
O48 U46 2.458 1_556 S
O48 C49 1.286 . S
C49 U46 2.984 1_556 S
C49 O47 1.353 1_556 S
C49 O48 1.286 . S
C49 C51 1.363 . S
C50 C40 1.465 . S
C50 U46 2.847 . S
C50 O64 1.249 . S
C50 O65 1.202 . S
C51 C49 1.363 . S
C51 C53 1.408 1_556 S
C51 C56 1.342 . S
C52 C53 1.310 1_556 S
C52 C55 1.461 . S
C52 H72 0.932 1_556 S
C53 C51 1.408 1_554 S
C53 C52 1.310 1_554 S
C53 H73 0.930 . S
C54 C55 1.474 . S
C54 C56 1.285 . S
C54 H74 0.929 . S
C55 C52 1.461 . S
C55 C54 1.474 . S
C56 C51 1.342 . S
C56 C54 1.285 . S
C56 H75 0.930 . S
C57 C60 1.424 . S
C57 C62 1.245 . S
C57 C63 1.428 . S
C58 C61 1.260 . S
C58 C62 1.477 . S
C58 H76 0.932 . S
C59 C60 1.384 . S
C59 C61 1.479 . S
C59 H77 0.929 . S
C60 C57 1.424 . S
C60 C59 1.384 . S
C60 H78 0.928 . S
C61 C58 1.260 . S
C61 C59 1.479 . S
C62 C57 1.245 . S
C62 C58 1.477 . S
C62 H79 0.932 . S
C63 U46 2.882 1_556 S
C63 C57 1.428 . S
C63 O66 1.301 . S
C63 O67 1.282 . S
O64 U46 2.441 . S
O64 C50 1.249 . S
O65 U46 2.420 . S
O65 C50 1.202 . S
O66 U46 2.455 1_556 S
O66 C63 1.301 . S
O67 U46 2.449 1_556 S
O67 C63 1.282 . S
H68 C41 0.931 . S
H69 C43 0.929 . S
H70 C44 0.930 . S
H71 C45 0.931 . S
H72 C52 0.932 1_554 S
H73 C53 0.930 . S
H74 C54 0.929 . S
H75 C56 0.930 . S
H76 C58 0.932 . S
H77 C59 0.929 . S
H78 C60 0.928 . S
H79 C62 0.932 . S
C80 C81 1.264 . S
C80 C85 1.479 . S
C80 C90 1.465 . S
C81 C80 1.264 . S
C81 C83 1.339 . S
C81 H108 0.931 . S
C82 C83 1.395 . S
C82 C84 1.320 . S
C83 C81 1.339 . S
C83 C82 1.395 . S
C83 H109 0.929 . S
C84 C82 1.320 . S
C84 C85 1.405 . S
C84 H110 0.921 1_545 S
C85 C80 1.479 . S
C85 C84 1.405 . S
C85 H111 0.931 . S
U86 O87 2.454 . S
U86 O88 2.458 . S
U86 C89 2.984 . S
U86 C90 2.847 . S
U86 C103 2.882 . S
U86 O104 2.441 . S
U86 O105 2.420 . S
U86 O106 2.455 1_554 S
U86 O107 2.449 . S
O87 U86 2.454 . S
O87 C89 1.353 . S
O88 U86 2.458 . S
O88 C89 1.286 . S
C89 U86 2.984 . S
C89 O87 1.353 . S
C89 O88 1.286 . S
C89 C91 1.363 . S
C90 C80 1.465 . S
C90 U86 2.847 . S
C90 O104 1.249 . S
C90 O105 1.202 . S
C91 C89 1.363 . S
C91 C93 1.408 . S
C91 C96 1.356 1_554 S
C92 C93 1.310 . S
C92 C95 1.461 . S
C92 H112 0.936 . S
C93 C91 1.408 . S
C93 C92 1.310 . S
C93 H113 0.930 . S
C94 C95 1.474 1_566 S
C94 C96 1.278 1_565 S
C94 H114 0.931 . S
C95 C92 1.461 . S
C95 C94 1.474 1_544 S
C96 C91 1.356 1_556 S
C96 C94 1.278 1_545 S
C96 H115 0.929 . S
C97 C100 1.424 . S
C97 C102 1.245 . S
C97 C103 1.428 1_556 S
C98 C101 1.260 . S
C98 C102 1.477 . S
C98 H116 0.932 . S
C99 C100 1.384 . S
C99 C101 1.479 . S
C99 H117 0.929 . S
C100 C97 1.424 . S
C100 C99 1.384 . S
C100 H118 0.928 1_556 S
C101 C98 1.260 . S
C101 C99 1.479 . S
C102 C97 1.245 . S
C102 C98 1.477 . S
C102 H119 0.932 . S
C103 U86 2.882 . S
C103 C97 1.428 1_554 S
C103 O106 1.301 1_554 S
C103 O107 1.282 . S
O104 U86 2.441 . S
O104 C90 1.249 . S
O105 U86 2.420 . S
O105 C90 1.202 . S
O106 U86 2.455 1_556 S
O106 C103 1.301 1_556 S
O107 U86 2.449 . S
O107 C103 1.282 . S
H108 C81 0.931 . S
H109 C83 0.929 . S
H110 C84 0.921 1_565 S
H111 C85 0.931 . S
H112 C92 0.936 . S
H113 C93 0.930 . S
H114 C94 0.931 . S
H115 C96 0.929 . S
H116 C98 0.932 . S
H117 C99 0.929 . S
H118 C100 0.928 1_554 S
H119 C102 0.932 . S
C120 C121 1.264 . S
C120 C125 1.479 . S
C120 C130 1.465 . S
C121 C120 1.264 . S
C121 C123 1.339 . S
C121 H148 0.931 . S
C122 C123 1.395 . S
C122 C124 1.320 . S
C123 C121 1.339 . S
C123 C122 1.395 . S
C123 H149 0.929 . S
C124 C122 1.320 . S
C124 C125 1.405 . S
C124 H150 0.930 . S
C125 C120 1.479 . S
C125 C124 1.405 . S
C125 H151 0.931 . S
U126 O127 2.454 . S
U126 O128 2.458 . S
U126 C129 2.984 . S
U126 C130 2.847 . S
U126 C143 2.882 . S
U126 O144 2.441 . S
U126 O145 2.420 . S
U126 O146 2.455 . S
U126 O147 2.449 . S
O127 U126 2.454 . S
O127 C129 1.353 . S
O128 U126 2.458 . S
O128 C129 1.286 . S
C129 U126 2.984 . S
C129 O127 1.353 . S
C129 O128 1.286 . S
C129 C131 1.363 . S
C130 C120 1.465 . S
C130 U126 2.847 . S
C130 O144 1.249 . S
C130 O145 1.202 . S
C131 C129 1.363 . S
C131 C133 1.408 . S
C131 C136 1.342 1_554 S
C132 C133 1.310 . S
C132 C135 1.461 . S
C132 H152 0.932 . S
C133 C131 1.408 . S
C133 C132 1.310 . S
C133 H153 0.930 . S
C134 C135 1.474 1_556 S
C134 C136 1.285 . S
C134 H154 0.929 . S
C135 C132 1.461 . S
C135 C134 1.474 1_554 S
C136 C131 1.342 1_556 S
C136 C134 1.285 . S
C136 H155 0.930 . S
C137 C140 1.424 . S
C137 C142 1.245 . S
C137 C143 1.428 1_556 S
C138 C141 1.260 . S
C138 C142 1.477 . S
C138 H156 0.932 . S
C139 C140 1.384 . S
C139 C141 1.479 . S
C139 H157 0.929 . S
C140 C137 1.424 . S
C140 C139 1.384 . S
C140 H158 0.928 1_556 S
C141 C138 1.260 . S
C141 C139 1.479 . S
C142 C137 1.245 . S
C142 C138 1.477 . S
C142 H159 0.932 . S
C143 U126 2.882 . S
C143 C137 1.428 1_554 S
C143 O146 1.301 . S
C143 O147 1.282 . S
O144 U126 2.441 . S
O144 C130 1.249 . S
O145 U126 2.420 . S
O145 C130 1.202 . S
O146 U126 2.455 . S
O146 C143 1.301 . S
O147 U126 2.449 . S
O147 C143 1.282 . S
H148 C121 0.931 . S
H149 C123 0.929 . S
H150 C124 0.930 . S
H151 C125 0.931 . S
H152 C132 0.932 . S
H153 C133 0.930 . S
H154 C134 0.929 . S
H155 C136 0.930 . S
H156 C138 0.932 . S
H157 C139 0.929 . S
H158 C140 0.928 1_554 S
H159 C142 0.932 . S
C160 C161 1.264 . S
C160 C165 1.479 . S
C160 C170 1.465 . S
C161 C160 1.264 . S
C161 C163 1.339 . S
C161 H188 0.931 . S
C162 C163 1.395 . S
C162 C164 1.320 . S
C163 C161 1.339 . S
C163 C162 1.395 . S
C163 H189 0.929 . S
C164 C162 1.320 . S
C164 C165 1.405 . S
C164 H190 0.930 . S
C165 C160 1.479 . S
C165 C164 1.405 . S
C165 H191 0.931 . S
U166 O167 2.454 . S
U166 O168 2.458 . S
U166 C169 2.984 . S
U166 C170 2.847 . S
U166 C183 2.882 . S
U166 O184 2.441 . S
U166 O185 2.420 . S
U166 O186 2.455 . S
U166 O187 2.449 . S
O167 U166 2.454 . S
O167 C169 1.353 . S
O168 U166 2.458 . S
O168 C169 1.286 . S
C169 U166 2.984 . S
C169 O167 1.353 . S
C169 O168 1.286 . S
C169 C171 1.363 . S
C170 C160 1.465 . S
C170 U166 2.847 . S
C170 O184 1.249 . S
C170 O185 1.202 . S
C171 C169 1.363 . S
C171 C173 1.408 . S
C171 C176 1.342 . S
C172 C173 1.310 . S
C172 C175 1.461 . S
C172 H192 0.932 . S
C173 C171 1.408 . S
C173 C172 1.310 . S
C173 H193 0.930 . S
C174 C175 1.474 . S
C174 C176 1.285 . S
C174 H194 0.929 . S
C175 C172 1.461 . S
C175 C174 1.474 . S
C176 C171 1.342 . S
C176 C174 1.285 . S
C176 H195 0.930 . S
C177 C180 1.424 . S
C177 C182 1.245 . S
C177 C183 1.428 . S
C178 C181 1.260 . S
C178 C182 1.477 . S
C178 H196 0.932 . S
C179 C180 1.384 . S
C179 C181 1.479 . S
C179 H197 0.929 . S
C180 C177 1.424 . S
C180 C179 1.384 . S
C180 H198 0.928 . S
C181 C178 1.260 . S
C181 C179 1.479 . S
C182 C177 1.245 . S
C182 C178 1.477 . S
C182 H199 0.932 . S
C183 U166 2.882 . S
C183 C177 1.428 . S
C183 O186 1.301 . S
C183 O187 1.282 . S
O184 U166 2.441 . S
O184 C170 1.249 . S
O185 U166 2.420 . S
O185 C170 1.202 . S
O186 U166 2.455 . S
O186 C183 1.301 . S
O187 U166 2.449 . S
O187 C183 1.282 . S
H188 C161 0.931 . S
H189 C163 0.929 . S
H190 C164 0.930 . S
H191 C165 0.931 . S
H192 C172 0.932 . S
H193 C173 0.930 . S
H194 C174 0.929 . S
H195 C176 0.930 . S
H196 C178 0.932 . S
H197 C179 0.929 . S
H198 C180 0.928 . S
H199 C182 0.932 . S
C200 C201 1.264 . S
C200 C205 1.479 . S
C200 C210 1.465 . S
C201 C200 1.264 . S
C201 C203 1.339 . S
C201 H228 0.931 . S
C202 C203 1.395 . S
C202 C204 1.320 . S
C203 C201 1.339 . S
C203 C202 1.395 . S
C203 H229 0.929 . S
C204 C202 1.320 . S
C204 C205 1.405 . S
C204 H230 0.930 . S
C205 C200 1.479 . S
C205 C204 1.405 . S
C205 H231 0.931 . S
U206 O207 2.454 . S
U206 O208 2.458 . S
U206 C209 2.984 . S
U206 C210 2.847 . S
U206 C223 2.882 . S
U206 O224 2.441 . S
U206 O225 2.420 . S
U206 O226 2.455 . S
U206 O227 2.449 . S
O207 U206 2.454 . S
O207 C209 1.353 . S
O208 U206 2.458 . S
O208 C209 1.286 . S
C209 U206 2.984 . S
C209 O207 1.353 . S
C209 O208 1.286 . S
C209 C211 1.363 . S
C210 C200 1.465 . S
C210 U206 2.847 . S
C210 O224 1.249 . S
C210 O225 1.202 . S
C211 C209 1.363 . S
C211 C213 1.408 . S
C211 C216 1.342 . S
C212 C213 1.310 . S
C212 C215 1.461 . S
C212 H232 0.932 . S
C213 C211 1.408 . S
C213 C212 1.310 . S
C213 H233 0.930 . S
C214 C215 1.474 . S
C214 C216 1.285 . S
C214 H234 0.929 . S
C215 C212 1.461 . S
C215 C214 1.474 . S
C216 C211 1.342 . S
C216 C214 1.285 . S
C216 H235 0.930 . S
C217 C220 1.424 . S
C217 C222 1.245 . S
C217 C223 1.428 . S
C218 C221 1.260 . S
C218 C222 1.477 . S
C218 H236 0.932 . S
C219 C220 1.384 . S
C219 C221 1.479 . S
C219 H237 0.929 . S
C220 C217 1.424 . S
C220 C219 1.384 . S
C220 H238 0.928 . S
C221 C218 1.260 . S
C221 C219 1.479 . S
C222 C217 1.245 . S
C222 C218 1.477 . S
C222 H239 0.932 . S
C223 U206 2.882 . S
C223 C217 1.428 . S
C223 O226 1.301 . S
C223 O227 1.282 . S
O224 U206 2.441 . S
O224 C210 1.249 . S
O225 U206 2.420 . S
O225 C210 1.202 . S
O226 U206 2.455 . S
O226 C223 1.301 . S
O227 U206 2.449 . S
O227 C223 1.282 . S
H228 C201 0.931 . S
H229 C203 0.929 . S
H230 C204 0.930 . S
H231 C205 0.931 . S
H232 C212 0.932 . S
H233 C213 0.930 . S
H234 C214 0.929 . S
H235 C216 0.930 . S
H236 C218 0.932 . S
H237 C219 0.929 . S
H238 C220 0.928 . S
H239 C222 0.932 . S
C240 C241 1.264 . S
C240 C245 1.479 . S
C240 C250 1.465 . S
C241 C240 1.264 . S
C241 C243 1.339 . S
C241 H268 0.931 . S
C242 C243 1.395 . S
C242 C244 1.320 . S
C243 C241 1.339 . S
C243 C242 1.395 . S
C243 H269 0.929 . S
C244 C242 1.320 . S
C244 C245 1.405 . S
C244 H270 0.923 1_545 S
C245 C240 1.479 . S
C245 C244 1.405 . S
C245 H271 0.931 . S
U246 O247 2.454 . S
U246 O248 2.458 . S
U246 C249 2.984 . S
U246 C250 2.847 . S
U246 C263 2.882 . S
U246 O264 2.441 . S
U246 O265 2.420 . S
U246 O266 2.455 . S
U246 O267 2.449 . S
O247 U246 2.454 . S
O247 C249 1.353 . S
O248 U246 2.458 . S
O248 C249 1.286 . S
C249 U246 2.984 . S
C249 O247 1.353 . S
C249 O248 1.286 . S
C249 C251 1.363 . S
C250 C240 1.465 . S
C250 U246 2.847 . S
C250 O264 1.249 . S
C250 O265 1.202 . S
C251 C249 1.363 . S
C251 C253 1.408 . S
C251 C256 1.342 . S
C252 C253 1.310 . S
C252 C255 1.461 . S
C252 H272 0.932 . S
C253 C251 1.408 . S
C253 C252 1.310 . S
C253 H273 0.930 . S
C254 C255 1.474 1_565 S
C254 C256 1.286 1_565 S
C254 H274 0.929 . S
C255 C252 1.461 . S
C255 C254 1.474 1_545 S
C256 C251 1.342 . S
C256 C254 1.286 1_545 S
C256 H275 0.933 . S
C257 C260 1.424 . S
C257 C262 1.245 . S
C257 C263 1.428 . S
C258 C261 1.260 . S
C258 C262 1.477 . S
C258 H276 0.932 . S
C259 C260 1.384 . S
C259 C261 1.479 . S
C259 H277 0.929 . S
C260 C257 1.424 . S
C260 C259 1.384 . S
C260 H278 0.928 . S
C261 C258 1.260 . S
C261 C259 1.479 . S
C262 C257 1.245 . S
C262 C258 1.477 . S
C262 H279 0.932 . S
C263 U246 2.882 . S
C263 C257 1.428 . S
C263 O266 1.301 . S
C263 O267 1.282 . S
O264 U246 2.441 . S
O264 C250 1.249 . S
O265 U246 2.420 . S
O265 C250 1.202 . S
O266 U246 2.455 . S
O266 C263 1.301 . S
O267 U246 2.449 . S
O267 C263 1.282 . S
H268 C241 0.931 . S
H269 C243 0.929 . S
H270 C244 0.923 1_565 S
H271 C245 0.931 . S
H272 C252 0.932 . S
H273 C253 0.930 . S
H274 C254 0.929 . S
H275 C256 0.933 . S
H276 C258 0.932 . S
H277 C259 0.929 . S
H278 C260 0.928 . S
H279 C262 0.932 . S
C280 C281 1.264 . S
C280 C285 1.479 . S
C280 C290 1.465 . S
C281 C280 1.264 . S
C281 C283 1.339 . S
C281 H308 0.931 . S
C282 C283 1.395 . S
C282 C284 1.320 . S
C283 C281 1.339 . S
C283 C282 1.395 . S
C283 H309 0.929 . S
C284 C282 1.320 . S
C284 C285 1.405 . S
C284 H310 0.930 . S
C285 C280 1.479 . S
C285 C284 1.405 . S
C285 H311 0.931 . S
U286 O287 2.454 . S
U286 O288 2.458 . S
U286 C289 2.984 . S
U286 C290 2.847 . S
U286 C303 2.882 . S
U286 O304 2.441 . S
U286 O305 2.420 . S
U286 O306 2.455 . S
U286 O307 2.449 . S
O287 U286 2.454 . S
O287 C289 1.353 . S
O288 U286 2.458 . S
O288 C289 1.286 . S
C289 U286 2.984 . S
C289 O287 1.353 . S
C289 O288 1.286 . S
C289 C291 1.363 . S
C290 C280 1.465 . S
C290 U286 2.847 . S
C290 O304 1.249 . S
C290 O305 1.202 . S
C291 C289 1.363 . S
C291 C293 1.408 . S
C291 C296 1.342 . S
C292 C293 1.310 . S
C292 C295 1.461 . S
C292 H312 0.932 . S
C293 C291 1.408 . S
C293 C292 1.310 . S
C293 H313 0.930 . S
C294 C295 1.474 . S
C294 C296 1.285 . S
C294 H314 0.929 . S
C295 C292 1.461 . S
C295 C294 1.474 . S
C296 C291 1.342 . S
C296 C294 1.285 . S
C296 H315 0.930 . S
C297 C300 1.424 . S
C297 C302 1.245 . S
C297 C303 1.428 . S
C298 C301 1.260 . S
C298 C302 1.477 . S
C298 H316 0.932 . S
C299 C300 1.384 . S
C299 C301 1.479 . S
C299 H317 0.929 . S
C300 C297 1.424 . S
C300 C299 1.384 . S
C300 H318 0.928 . S
C301 C298 1.260 . S
C301 C299 1.479 . S
C302 C297 1.245 . S
C302 C298 1.477 . S
C302 H319 0.932 . S
C303 U286 2.882 . S
C303 C297 1.428 . S
C303 O306 1.301 . S
C303 O307 1.282 . S
O304 U286 2.441 . S
O304 C290 1.249 . S
O305 U286 2.420 . S
O305 C290 1.202 . S
O306 U286 2.455 . S
O306 C303 1.301 . S
O307 U286 2.449 . S
O307 C303 1.282 . S
H308 C281 0.931 . S
H309 C283 0.929 . S
H310 C284 0.930 . S
H311 C285 0.931 . S
H312 C292 0.932 . S
H313 C293 0.930 . S
H314 C294 0.929 . S
H315 C296 0.930 . S
H316 C298 0.932 . S
H317 C299 0.929 . S
H318 C300 0.928 . S
H319 C302 0.932 . S
C320 O336 1.251 . S
C320 O338 1.254 . S
N321 C322 1.333 . S
N321 C326 1.307 1_455 S
N321 Zn327 2.020 . S
C322 N321 1.333 . S
C322 C323 1.396 . S
C322 H340 0.952 . S
C323 C322 1.396 . S
C323 C324 1.364 1_455 S
C323 H350 0.962 . S
C324 C323 1.364 1_655 S
C324 C325 1.357 . S
C325 C324 1.357 . S
C325 C326 1.370 . S
C325 H351 0.950 . S
C326 N321 1.307 1_655 S
C326 C325 1.370 . S
C326 H344 0.948 . S
Zn327 N321 2.020 . S
Zn327 O336 2.039 . S
Zn327 O342 2.034 . S
Zn327 O346 2.025 1_565 S
Zn327 O348 2.024 1_455 S
C328 O347 1.294 . S
C328 O348 1.249 1_545 S
N329 C330 1.307 . S
N329 C331 1.333 . S
N329 Zn335 2.020 . S
C330 N329 1.307 . S
C330 C334 1.370 . S
C330 H341 0.948 . S
C331 N329 1.333 . S
C331 C332 1.379 . S
C331 H339 0.952 . S
C332 C331 1.379 . S
C332 C333 1.390 . S
C332 H352 0.949 . S
C333 C332 1.390 . S
C333 C334 1.357 . S
C334 C330 1.370 . S
C334 C333 1.357 . S
C334 H353 0.950 . S
Zn335 N329 2.020 . S
Zn335 O338 2.025 1_545 S
Zn335 O343 2.024 . S
Zn335 O345 2.039 . S
Zn335 O347 1.972 1_455 S
O336 C320 1.251 . S
O336 Zn327 2.039 . S
C337 O342 1.246 . S
C337 O343 1.249 1_565 S
O338 C320 1.254 . S
O338 Zn335 2.025 1_565 S
H339 C331 0.952 . S
H340 C322 0.952 . S
H341 C330 0.948 . S
O342 Zn327 2.034 . S
O342 C337 1.246 . S
O343 Zn335 2.024 . S
O343 C337 1.249 1_545 S
H344 C326 0.948 . S
O345 Zn335 2.039 . S
O345 C349 1.251 . S
O346 Zn327 2.025 1_545 S
O346 C349 1.254 . S
O347 C328 1.294 . S
O347 Zn335 1.972 1_655 S
O348 Zn327 2.024 1_655 S
O348 C328 1.249 1_565 S
C349 O345 1.251 . S
C349 O346 1.254 . S
H350 C323 0.962 . S
H351 C325 0.950 . S
H352 C332 0.949 . S
H353 C334 0.950 . S
C354 O370 1.251 1_565 S
C354 O372 1.254 . S
N355 C356 1.333 . S
N355 C360 1.307 . S
N355 Zn361 2.020 . S
C356 N355 1.333 . S
C356 C357 1.379 . S
C356 H374 0.952 . S
C357 C356 1.379 . S
C357 C358 1.390 . S
C357 H384 0.949 . S
C358 C357 1.390 . S
C358 C359 1.357 . S
C359 C358 1.357 . S
C359 C360 1.370 . S
C359 H385 0.950 . S
C360 N355 1.307 . S
C360 C359 1.370 . S
C360 H378 0.948 . S
Zn361 N355 2.020 . S
Zn361 O370 2.039 . S
Zn361 O376 2.034 . S
Zn361 O380 2.025 . S
Zn361 O382 2.024 . S
C362 O381 1.246 1_545 S
C362 O382 1.249 . S
N363 C364 1.307 . S
N363 C365 1.333 . S
N363 Zn369 2.020 . S
C364 N363 1.307 . S
C364 C368 1.370 . S
C364 H375 0.948 . S
C365 N363 1.333 . S
C365 C366 1.379 . S
C365 H373 0.952 . S
C366 C365 1.379 . S
C366 C367 1.390 . S
C366 H386 0.949 . S
C367 C366 1.390 . S
C367 C368 1.357 . S
C368 C364 1.370 . S
C368 C367 1.357 . S
C368 H387 0.950 . S
Zn369 N363 2.020 . S
Zn369 O372 2.025 . S
Zn369 O377 2.024 . S
Zn369 O379 2.039 . S
Zn369 O381 2.034 . S
O370 C354 1.251 1_545 S
O370 Zn361 2.039 . S
C371 O376 1.246 1_565 S
C371 O377 1.249 . S
O372 C354 1.254 . S
O372 Zn369 2.025 . S
H373 C365 0.952 . S
H374 C356 0.952 . S
H375 C364 0.948 . S
O376 Zn361 2.034 . S
O376 C371 1.246 1_545 S
O377 Zn369 2.024 . S
O377 C371 1.249 . S
H378 C360 0.948 . S
O379 Zn369 2.039 . S
O379 C383 1.251 1_565 S
O380 Zn361 2.025 . S
O380 C383 1.254 . S
O381 C362 1.246 1_565 S
O381 Zn369 2.034 . S
O382 Zn361 2.024 . S
O382 C362 1.249 . S
C383 O379 1.251 1_545 S
C383 O380 1.254 . S
H384 C357 0.949 . S
H385 C359 0.950 . S
H386 C366 0.949 . S
H387 C368 0.950 . S
C388 O404 1.251 . S
C388 O406 1.254 . S
N389 C390 1.333 . S
N389 C394 1.307 . S
N389 Zn395 2.020 . S
C390 N389 1.333 . S
C390 C391 1.379 . S
C390 H408 0.952 . S
C391 C390 1.379 . S
C391 C392 1.390 . S
C391 H418 0.949 . S
C392 C391 1.390 . S
C392 C393 1.357 . S
C393 C392 1.357 . S
C393 C394 1.370 . S
C393 H419 0.950 . S
C394 N389 1.307 . S
C394 C393 1.370 . S
C394 H412 0.948 . S
Zn395 N389 2.020 . S
Zn395 O404 2.039 . S
Zn395 O410 2.034 . S
Zn395 O414 2.025 . S
Zn395 O416 2.024 . S
C396 O415 1.246 . S
C396 O416 1.249 . S
N397 C398 1.307 . S
N397 C399 1.333 . S
N397 Zn403 2.020 . S
C398 N397 1.307 . S
C398 C402 1.370 . S
C398 H409 0.948 . S
C399 N397 1.333 . S
C399 C400 1.379 . S
C399 H407 0.952 . S
C400 C399 1.379 . S
C400 C401 1.390 . S
C400 H420 0.949 . S
C401 C400 1.390 . S
C401 C402 1.357 . S
C402 C398 1.370 . S
C402 C401 1.357 . S
C402 H421 0.950 . S
Zn403 N397 2.020 . S
Zn403 O406 2.025 . S
Zn403 O411 2.024 . S
Zn403 O413 2.039 . S
Zn403 O415 2.034 . S
O404 C388 1.251 . S
O404 Zn395 2.039 . S
C405 O410 1.246 . S
C405 O411 1.249 . S
O406 C388 1.254 . S
O406 Zn403 2.025 . S
H407 C399 0.952 . S
H408 C390 0.952 . S
H409 C398 0.948 . S
O410 Zn395 2.034 . S
O410 C405 1.246 . S
O411 Zn403 2.024 . S
O411 C405 1.249 . S
H412 C394 0.948 . S
O413 Zn403 2.039 . S
O413 C417 1.251 . S
O414 Zn395 2.025 . S
O414 C417 1.254 . S
O415 C396 1.246 . S
O415 Zn403 2.034 . S
O416 Zn395 2.024 . S
O416 C396 1.249 . S
C417 O413 1.251 . S
C417 O414 1.254 . S
H418 C391 0.949 . S
H419 C393 0.950 . S
H420 C400 0.949 . S
H421 C402 0.950 . S
C422 O438 1.251 . S
C422 O440 1.254 . S
N423 C424 1.333 . S
N423 C428 1.307 . S
N423 Zn429 2.020 . S
C424 N423 1.333 . S
C424 C425 1.379 . S
C424 H442 0.952 . S
C425 C424 1.379 . S
C425 C426 1.390 . S
C425 H452 0.949 . S
C426 C425 1.390 . S
C426 C427 1.357 . S
C427 C426 1.357 . S
C427 C428 1.370 . S
C427 H453 0.950 . S
C428 N423 1.307 . S
C428 C427 1.370 . S
C428 H446 0.948 . S
Zn429 N423 2.020 . S
Zn429 O438 2.039 . S
Zn429 O444 2.034 . S
Zn429 O448 2.025 . S
Zn429 O450 2.024 . S
C430 O449 1.246 . S
C430 O450 1.249 . S
N431 C432 1.307 . S
N431 C433 1.348 . S
N431 Zn437 2.020 . S
C432 N431 1.307 . S
C432 C436 1.370 . S
C432 H443 0.948 . S
C433 N431 1.348 . S
C433 C434 1.370 1_455 S
C433 H441 0.946 1_455 S
C434 C433 1.370 1_655 S
C434 C435 1.398 . S
C434 H454 0.949 . S
C435 C434 1.398 . S
C435 C436 1.339 1_655 S
C436 C432 1.370 . S
C436 C435 1.339 1_455 S
C436 H455 0.950 . S
Zn437 N431 2.020 . S
Zn437 O440 2.025 . S
Zn437 O445 2.024 1_455 S
Zn437 O447 2.039 1_455 S
Zn437 O449 2.034 . S
O438 C422 1.251 . S
O438 Zn429 2.039 . S
C439 O444 1.246 1_655 S
C439 O445 1.249 . S
O440 C422 1.254 . S
O440 Zn437 2.025 . S
H441 C433 0.946 1_655 S
H442 C424 0.952 . S
H443 C432 0.948 . S
O444 Zn429 2.034 . S
O444 C439 1.246 1_455 S
O445 Zn437 2.024 1_655 S
O445 C439 1.249 . S
H446 C428 0.948 . S
O447 Zn437 2.039 1_655 S
O447 C451 1.251 . S
O448 Zn429 2.025 . S
O448 C451 1.254 1_455 S
O449 C430 1.246 . S
O449 Zn437 2.034 . S
O450 Zn429 2.024 . S
O450 C430 1.249 . S
C451 O447 1.251 . S
C451 O448 1.254 1_655 S
H452 C425 0.949 . S
H453 C427 0.950 . S
H454 C434 0.949 . S
H455 C436 0.950 . S
H456 C464 0.929 . S
H457 C466 0.930 . S
H458 C468 0.930 . S
H459 C471 0.929 . S
H460 C474 0.930 . S
H461 C476 0.960 . S
H462 C476 0.960 . S
H463 C476 0.960 . S
C464 H456 0.929 . S
C464 C465 1.383 . S
C464 C466 1.384 . S
C465 C464 1.383 . S
C465 C471 1.384 1_565 S
C466 H457 0.930 . S
C466 C464 1.384 . S
C466 C467 1.372 . S
C467 C466 1.372 . S
C467 C468 1.400 1_565 S
C467 C472 1.490 . S
C468 H458 0.930 . S
C468 C467 1.400 1_545 S
C468 C471 1.386 . S
H469 C485 0.930 1_545 S
H470 C486 0.918 1_545 S
C471 H459 0.929 . S
C471 C465 1.384 1_545 S
C471 C468 1.386 . S
C472 C467 1.490 . S
C472 C474 1.395 . S
C472 C475 1.403 1_565 S
H473 C479 0.930 . S
C474 H460 0.930 . S
C474 C472 1.395 . S
C474 C477 1.403 . S
C475 C472 1.403 1_545 S
C475 C476 1.524 . S
C475 C479 1.400 . S
C476 H461 0.960 . S
C476 H462 0.960 . S
C476 H463 0.960 . S
C476 C475 1.524 . S
C477 C474 1.403 . S
C477 C478 1.392 . S
C477 C481 1.495 . S
C478 C477 1.392 . S
C478 C479 1.385 1_565 S
C478 C480 1.478 . S
C479 H473 0.930 . S
C479 C475 1.400 . S
C479 C478 1.385 1_545 S
C480 C478 1.478 . S
C480 C482 1.381 . S
C480 C486 1.383 . S
C481 C477 1.495 . S
C481 H487 0.959 . S
C481 H488 0.961 . S
C481 H489 0.960 . S
C482 C480 1.381 . S
C482 C483 1.394 . S
C482 H490 0.930 . S
C483 C482 1.394 . S
C483 C484 1.383 . S
C483 H491 0.929 . S
C484 C483 1.383 . S
C484 C485 1.377 . S
C485 H469 0.930 1_565 S
C485 C484 1.377 . S
C485 C486 1.379 . S
C486 H470 0.918 1_565 S
C486 C480 1.383 . S
C486 C485 1.379 . S
H487 C481 0.959 . S
H488 C481 0.961 . S
H489 C481 0.960 . S
H490 C482 0.930 . S
H491 C483 0.929 . S
H492 C500 0.929 . S
H493 C502 0.930 . S
H494 C504 0.930 . S
H495 C507 0.929 . S
H496 C510 0.930 . S
H497 C512 0.960 . S
H498 C512 0.960 . S
H499 C512 0.960 . S
C500 H492 0.929 . S
C500 C501 1.377 . S
C500 C502 1.384 . S
C501 C500 1.377 . S
C501 C507 1.390 . S
C502 H493 0.930 . S
C502 C500 1.384 . S
C502 C503 1.372 . S
C503 C502 1.372 . S
C503 C504 1.400 . S
C503 C508 1.490 . S
C504 H494 0.930 . S
C504 C503 1.400 . S
C504 C507 1.386 . S
H505 C521 0.930 . S
H506 C522 0.931 . S
C507 H495 0.929 . S
C507 C501 1.390 . S
C507 C504 1.386 . S
C508 C503 1.490 . S
C508 C510 1.395 . S
C508 C511 1.403 . S
H509 C515 0.930 . S
C510 H496 0.930 . S
C510 C508 1.395 . S
C510 C513 1.403 . S
C511 C508 1.403 . S
C511 C512 1.524 . S
C511 C515 1.400 . S
C512 H497 0.960 . S
C512 H498 0.960 . S
C512 H499 0.960 . S
C512 C511 1.524 . S
C513 C510 1.403 . S
C513 C514 1.392 . S
C513 C517 1.495 . S
C514 C513 1.392 . S
C514 C515 1.385 . S
C514 C516 1.478 . S
C515 H509 0.930 . S
C515 C511 1.400 . S
C515 C514 1.385 . S
C516 C514 1.478 . S
C516 C518 1.381 . S
C516 C522 1.383 . S
C517 C513 1.495 . S
C517 H523 0.959 . S
C517 H524 0.961 . S
C517 H525 0.960 . S
C518 C516 1.381 . S
C518 C519 1.394 . S
C518 H526 0.930 . S
C519 C518 1.394 . S
C519 C520 1.383 . S
C519 H527 0.929 . S
C520 C519 1.383 . S
C520 C521 1.377 . S
C521 H505 0.930 . S
C521 C520 1.377 . S
C521 C522 1.379 . S
C522 H506 0.931 . S
C522 C516 1.383 . S
C522 C521 1.379 . S
H523 C517 0.959 . S
H524 C517 0.961 . S
H525 C517 0.960 . S
H526 C518 0.930 . S
H527 C519 0.929 . S
H528 C536 0.929 . S
H529 C538 0.930 . S
H530 C540 0.930 . S
H531 C543 0.929 . S
H532 C546 0.930 . S
H533 C548 0.960 . S
H534 C548 0.960 . S
H535 C548 0.960 . S
C536 H528 0.929 . S
C536 C537 1.377 . S
C536 C538 1.384 . S
C537 C536 1.377 . S
C537 C543 1.390 . S
C538 H529 0.930 . S
C538 C536 1.384 . S
C538 C539 1.372 . S
C539 C538 1.372 . S
C539 C540 1.400 . S
C539 C544 1.490 . S
C540 H530 0.930 . S
C540 C539 1.400 . S
C540 C543 1.386 . S
H541 C557 0.930 . S
H542 C558 0.931 . S
C543 H531 0.929 . S
C543 C537 1.390 . S
C543 C540 1.386 . S
C544 C539 1.490 . S
C544 C546 1.395 . S
C544 C547 1.403 . S
H545 C551 0.930 . S
C546 H532 0.930 . S
C546 C544 1.395 . S
C546 C549 1.403 . S
C547 C544 1.403 . S
C547 C548 1.524 . S
C547 C551 1.400 . S
C548 H533 0.960 . S
C548 H534 0.960 . S
C548 H535 0.960 . S
C548 C547 1.524 . S
C549 C546 1.403 . S
C549 C550 1.392 . S
C549 C553 1.495 . S
C550 C549 1.392 . S
C550 C551 1.385 . S
C550 C552 1.478 . S
C551 H545 0.930 . S
C551 C547 1.400 . S
C551 C550 1.385 . S
C552 C550 1.478 . S
C552 C554 1.381 . S
C552 C558 1.383 . S
C553 C549 1.495 . S
C553 H559 0.959 . S
C553 H560 0.961 . S
C553 H561 0.960 . S
C554 C552 1.381 . S
C554 C555 1.394 . S
C554 H562 0.930 . S
C555 C554 1.394 . S
C555 C556 1.383 . S
C555 H563 0.929 . S
C556 C555 1.383 . S
C556 C557 1.377 . S
C557 H541 0.930 . S
C557 C556 1.377 . S
C557 C558 1.379 . S
C558 H542 0.931 . S
C558 C552 1.383 . S
C558 C557 1.379 . S
H559 C553 0.959 . S
H560 C553 0.961 . S
H561 C553 0.960 . S
H562 C554 0.930 . S
H563 C555 0.929 . S
H564 C572 0.929 . S
H565 C574 0.930 . S
H566 C576 0.930 . S
H567 C579 0.929 . S
H568 C582 0.930 . S
H569 C584 0.960 . S
H570 C584 0.960 . S
H571 C584 0.960 . S
C572 H564 0.929 . S
C572 C573 1.377 . S
C572 C574 1.384 . S
C573 C572 1.377 . S
C573 C579 1.390 . S
C574 H565 0.930 . S
C574 C572 1.384 . S
C574 C575 1.372 . S
C575 C574 1.372 . S
C575 C576 1.400 . S
C575 C580 1.490 . S
C576 H566 0.930 . S
C576 C575 1.400 . S
C576 C579 1.386 . S
H577 C593 0.930 . S
H578 C594 0.931 . S
C579 H567 0.929 . S
C579 C573 1.390 . S
C579 C576 1.386 . S
C580 C575 1.490 . S
C580 C582 1.395 . S
C580 C583 1.403 . S
H581 C587 0.930 . S
C582 H568 0.930 . S
C582 C580 1.395 . S
C582 C585 1.403 . S
C583 C580 1.403 . S
C583 C584 1.524 . S
C583 C587 1.400 . S
C584 H569 0.960 . S
C584 H570 0.960 . S
C584 H571 0.960 . S
C584 C583 1.524 . S
C585 C582 1.403 . S
C585 C586 1.392 . S
C585 C589 1.495 . S
C586 C585 1.392 . S
C586 C587 1.385 . S
C586 C588 1.478 . S
C587 H581 0.930 . S
C587 C583 1.400 . S
C587 C586 1.385 . S
C588 C586 1.478 . S
C588 C590 1.381 . S
C588 C594 1.383 . S
C589 C585 1.495 . S
C589 H595 0.959 . S
C589 H596 0.961 . S
C589 H597 0.960 . S
C590 C588 1.381 . S
C590 C591 1.394 . S
C590 H598 0.930 . S
C591 C590 1.394 . S
C591 C592 1.383 . S
C591 H599 0.929 . S
C592 C591 1.383 . S
C592 C593 1.377 . S
C593 H577 0.930 . S
C593 C592 1.377 . S
C593 C594 1.379 . S
C594 H578 0.931 . S
C594 C588 1.383 . S
C594 C593 1.379 . S
H595 C589 0.959 . S
H596 C589 0.961 . S
H597 C589 0.960 . S
H598 C590 0.930 . S
H599 C591 0.929 . S
H600 C608 0.929 1_554 S
H601 C610 0.930 . S
H602 C612 0.930 . S
H603 C615 0.929 . S
H604 C618 0.930 . S
H605 C620 0.960 . S
H606 C620 0.960 . S
H607 C620 0.960 . S
C608 H600 0.929 1_556 S
C608 C609 1.357 1_565 S
C608 C610 1.384 . S
C609 C608 1.357 1_545 S
C609 C615 1.411 . S
C610 H601 0.930 . S
C610 C608 1.384 . S
C610 C611 1.372 1_565 S
C611 C610 1.372 1_545 S
C611 C612 1.400 . S
C611 C616 1.490 . S
C612 H602 0.930 . S
C612 C611 1.400 . S
C612 C615 1.386 . S
H613 C629 0.930 . S
H614 C630 0.931 . S
C615 H603 0.929 . S
C615 C609 1.411 . S
C615 C612 1.386 . S
C616 C611 1.490 . S
C616 C618 1.395 1_545 S
C616 C619 1.403 . S
H617 C623 0.930 . S
C618 H604 0.930 . S
C618 C616 1.395 1_565 S
C618 C621 1.403 . S
C619 C616 1.403 . S
C619 C620 1.524 . S
C619 C623 1.400 . S
C620 H605 0.960 . S
C620 H606 0.960 . S
C620 H607 0.960 . S
C620 C619 1.524 . S
C621 C618 1.403 . S
C621 C622 1.373 1_565 S
C621 C625 1.495 . S
C622 C621 1.373 1_545 S
C622 C623 1.406 . S
C622 C624 1.479 . S
C623 H617 0.930 . S
C623 C619 1.400 . S
C623 C622 1.406 . S
C624 C622 1.479 . S
C624 C626 1.358 1_545 S
C624 C630 1.412 . S
C625 C621 1.495 . S
C625 H631 0.959 . S
C625 H632 0.961 . S
C625 H633 0.960 . S
C626 C624 1.358 1_565 S
C626 C627 1.394 . S
C626 H634 0.930 . S
C627 C626 1.394 . S
C627 C628 1.383 1_565 S
C627 H635 0.929 . S
C628 C627 1.383 1_545 S
C628 C629 1.377 . S
C629 H613 0.930 . S
C629 C628 1.377 . S
C629 C630 1.379 . S
C630 H614 0.931 . S
C630 C624 1.412 . S
C630 C629 1.379 . S
H631 C625 0.959 . S
H632 C625 0.961 . S
H633 C625 0.960 . S
H634 C626 0.930 . S
H635 C627 0.929 . S
H636 C644 0.929 . S
H637 C646 0.930 . S
H638 C648 0.930 . S
H639 C651 0.929 . S
H640 C654 0.930 . S
H641 C656 0.960 . S
H642 C656 0.960 . S
H643 C656 0.960 . S
C644 H636 0.929 . S
C644 C645 1.377 1_554 S
C644 C646 1.384 1_554 S
C645 C644 1.377 1_556 S
C645 C651 1.390 . S
C646 H637 0.930 . S
C646 C644 1.384 1_556 S
C646 C647 1.372 . S
C647 C646 1.372 . S
C647 C648 1.400 . S
C647 C652 1.490 . S
C648 H638 0.930 . S
C648 C647 1.400 . S
C648 C651 1.386 . S
H649 C665 0.930 . S
H650 C666 0.931 . S
C651 H639 0.929 . S
C651 C645 1.390 . S
C651 C648 1.386 . S
C652 C647 1.490 . S
C652 C654 1.395 . S
C652 C655 1.403 . S
H653 C659 0.930 . S
C654 H640 0.930 . S
C654 C652 1.395 . S
C654 C657 1.403 . S
C655 C652 1.403 . S
C655 C656 1.524 . S
C655 C659 1.400 . S
C656 H641 0.960 . S
C656 H642 0.960 . S
C656 H643 0.960 . S
C656 C655 1.524 . S
C657 C654 1.403 . S
C657 C658 1.392 . S
C657 C661 1.495 . S
C658 C657 1.392 . S
C658 C659 1.385 . S
C658 C660 1.478 . S
C659 H653 0.930 . S
C659 C655 1.400 . S
C659 C658 1.385 . S
C660 C658 1.478 . S
C660 C662 1.381 . S
C660 C666 1.383 . S
C661 C657 1.495 . S
C661 H667 0.959 . S
C661 H668 0.961 . S
C661 H669 0.960 . S
C662 C660 1.381 . S
C662 C663 1.394 . S
C662 H670 0.930 . S
C663 C662 1.394 . S
C663 C664 1.383 . S
C663 H671 0.929 . S
C664 C663 1.383 . S
C664 C665 1.377 . S
C665 H649 0.930 . S
C665 C664 1.377 . S
C665 C666 1.379 . S
C666 H650 0.931 . S
C666 C660 1.383 . S
C666 C665 1.379 . S
H667 C661 0.959 . S
H668 C661 0.961 . S
H669 C661 0.960 . S
H670 C662 0.930 . S
H671 C663 0.929 . S
H672 C680 0.929 . S
H673 C682 0.930 . S
H674 C684 0.930 . S
H675 C687 0.929 . S
H676 C690 0.930 . S
H677 C692 0.960 . S
H678 C692 0.960 1_554 S
H679 C692 0.960 . S
C680 H672 0.929 . S
C680 C681 1.377 . S
C680 C682 1.384 1_554 S
C681 C680 1.377 . S
C681 C687 1.390 . S
C682 H673 0.930 . S
C682 C680 1.384 1_556 S
C682 C683 1.372 . S
C683 C682 1.372 . S
C683 C684 1.400 . S
C683 C688 1.490 . S
C684 H674 0.930 . S
C684 C683 1.400 . S
C684 C687 1.386 1_556 S
H685 C701 0.930 . S
H686 C702 0.931 . S
C687 H675 0.929 . S
C687 C681 1.390 . S
C687 C684 1.386 1_554 S
C688 C683 1.490 . S
C688 C690 1.395 . S
C688 C691 1.403 . S
H689 C695 0.930 . S
C690 H676 0.930 . S
C690 C688 1.395 . S
C690 C693 1.403 . S
C691 C688 1.403 . S
C691 C692 1.524 . S
C691 C695 1.400 . S
C692 H677 0.960 . S
C692 H678 0.960 1_556 S
C692 H679 0.960 . S
C692 C691 1.524 . S
C693 C690 1.403 . S
C693 C694 1.392 . S
C693 C697 1.495 . S
C694 C693 1.392 . S
C694 C695 1.385 . S
C694 C696 1.478 . S
C695 H689 0.930 . S
C695 C691 1.400 . S
C695 C694 1.385 . S
C696 C694 1.478 . S
C696 C698 1.381 . S
C696 C702 1.383 . S
C697 C693 1.495 . S
C697 H703 0.959 . S
C697 H704 0.961 . S
C697 H705 0.960 . S
C698 C696 1.381 . S
C698 C699 1.394 . S
C698 H706 0.930 . S
C699 C698 1.394 . S
C699 C700 1.383 . S
C699 H707 0.929 . S
C700 C699 1.383 . S
C700 C701 1.377 . S
C701 H685 0.930 . S
C701 C700 1.377 . S
C701 C702 1.379 . S
C702 H686 0.931 . S
C702 C696 1.383 . S
C702 C701 1.379 . S
H703 C697 0.959 . S
H704 C697 0.961 . S
H705 C697 0.960 . S
H706 C698 0.930 . S
H707 C699 0.929 . S
H708 C716 0.929 . S
H709 C718 0.930 . S
H710 C720 0.930 . S
H711 C723 0.929 . S
H712 C726 0.930 . S
H713 C728 0.960 . S
H714 C728 0.960 . S
H715 C728 0.960 . S
C716 H708 0.929 . S
C716 C717 1.377 . S
C716 C718 1.384 . S
C717 C716 1.377 . S
C717 C723 1.390 . S
C718 H709 0.930 . S
C718 C716 1.384 . S
C718 C719 1.372 . S
C719 C718 1.372 . S
C719 C720 1.400 . S
C719 C724 1.490 . S
C720 H710 0.930 . S
C720 C719 1.400 . S
C720 C723 1.386 . S
H721 C737 0.930 . S
H722 C738 0.931 . S
C723 H711 0.929 . S
C723 C717 1.390 . S
C723 C720 1.386 . S
C724 C719 1.490 . S
C724 C726 1.395 . S
C724 C727 1.403 . S
H725 C731 0.930 . S
C726 H712 0.930 . S
C726 C724 1.395 . S
C726 C729 1.403 . S
C727 C724 1.403 . S
C727 C728 1.524 . S
C727 C731 1.400 . S
C728 H713 0.960 . S
C728 H714 0.960 . S
C728 H715 0.960 . S
C728 C727 1.524 . S
C729 C726 1.403 . S
C729 C730 1.392 . S
C729 C733 1.495 . S
C730 C729 1.392 . S
C730 C731 1.385 . S
C730 C732 1.478 . S
C731 H725 0.930 . S
C731 C727 1.400 . S
C731 C730 1.385 . S
C732 C730 1.478 . S
C732 C734 1.381 . S
C732 C738 1.383 . S
C733 C729 1.495 . S
C733 H739 0.959 . S
C733 H740 0.961 . S
C733 H741 0.960 . S
C734 C732 1.381 . S
C734 C735 1.394 1_655 S
C734 H742 0.930 1_655 S
C735 C734 1.394 1_455 S
C735 C736 1.383 1_455 S
C735 H743 0.929 . S
C736 C735 1.383 1_655 S
C736 C737 1.377 . S
C737 H721 0.930 . S
C737 C736 1.377 . S
C737 C738 1.379 . S
C738 H722 0.931 . S
C738 C732 1.383 . S
C738 C737 1.379 . S
H739 C733 0.959 . S
H740 C733 0.961 . S
H741 C733 0.960 . S
H742 C734 0.930 1_455 S
H743 C735 0.929 . S
H744 C752 0.929 . S
H745 C754 0.930 . S
H746 C756 0.930 . S
H747 C759 0.929 . S
H748 C762 0.930 . S
H749 C764 0.960 . S
H750 C764 0.960 . S
H751 C764 0.960 . S
C752 H744 0.929 . S
C752 C753 1.377 . S
C752 C754 1.384 . S
C753 C752 1.377 . S
C753 C759 1.390 . S
C754 H745 0.930 . S
C754 C752 1.384 . S
C754 C755 1.372 . S
C755 C754 1.372 . S
C755 C756 1.400 . S
C755 C760 1.490 . S
C756 H746 0.930 . S
C756 C755 1.400 . S
C756 C759 1.386 . S
H757 C773 0.930 . S
H758 C774 0.931 . S
C759 H747 0.929 . S
C759 C753 1.390 . S
C759 C756 1.386 . S
C760 C755 1.490 . S
C760 C762 1.395 . S
C760 C763 1.403 . S
H761 C767 0.930 . S
C762 H748 0.930 . S
C762 C760 1.395 . S
C762 C765 1.403 . S
C763 C760 1.403 . S
C763 C764 1.524 . S
C763 C767 1.400 . S
C764 H749 0.960 . S
C764 H750 0.960 . S
C764 H751 0.960 . S
C764 C763 1.524 . S
C765 C762 1.403 . S
C765 C766 1.392 . S
C765 C769 1.495 . S
C766 C765 1.392 . S
C766 C767 1.385 . S
C766 C768 1.478 . S
C767 H761 0.930 . S
C767 C763 1.400 . S
C767 C766 1.385 . S
C768 C766 1.478 . S
C768 C770 1.381 . S
C768 C774 1.383 . S
C769 C765 1.495 . S
C769 H775 0.959 . S
C769 H776 0.961 . S
C769 H777 0.960 . S
C770 C768 1.381 . S
C770 C771 1.394 . S
C770 H778 0.930 . S
C771 C770 1.394 . S
C771 C772 1.383 . S
C771 H779 0.929 . S
C772 C771 1.383 . S
C772 C773 1.377 . S
C773 H757 0.930 . S
C773 C772 1.377 . S
C773 C774 1.379 . S
C774 H758 0.931 . S
C774 C768 1.383 . S
C774 C773 1.379 . S
H775 C769 0.959 . S
H776 C769 0.961 . S
H777 C769 0.960 . S
H778 C770 0.930 . S
H779 C771 0.929 . S
H780 C788 0.929 . S
H781 C790 0.930 . S
H782 C792 0.930 . S
H783 C795 0.929 . S
H784 C798 0.930 . S
H785 C800 0.960 . S
H786 C800 0.960 . S
H787 C800 0.960 . S
C788 H780 0.929 . S
C788 C789 1.346 1_565 S
C788 C790 1.384 . S
C789 C788 1.346 1_545 S
C789 C795 1.418 . S
C790 H781 0.930 . S
C790 C788 1.384 . S
C790 C791 1.372 . S
C791 C790 1.372 . S
C791 C792 1.400 1_565 S
C791 C796 1.490 . S
C792 H782 0.930 . S
C792 C791 1.400 1_545 S
C792 C795 1.386 . S
H793 C809 0.930 . S
H794 C810 0.931 . S
C795 H783 0.929 . S
C795 C789 1.418 . S
C795 C792 1.386 . S
C796 C791 1.490 . S
C796 C798 1.395 . S
C796 C799 1.403 1_565 S
H797 C803 0.930 . S
C798 H784 0.930 . S
C798 C796 1.395 . S
C798 C801 1.403 . S
C799 C796 1.403 1_545 S
C799 C800 1.524 . S
C799 C803 1.400 . S
C800 H785 0.960 . S
C800 H786 0.960 . S
C800 H787 0.960 . S
C800 C799 1.524 . S
C801 C798 1.403 . S
C801 C802 1.392 . S
C801 C805 1.495 . S
C802 C801 1.392 . S
C802 C803 1.385 1_565 S
C802 C804 1.478 . S
C803 H797 0.930 . S
C803 C799 1.400 . S
C803 C802 1.385 1_545 S
C804 C802 1.478 . S
C804 C806 1.381 . S
C804 C810 1.383 1_565 S
C805 C801 1.495 . S
C805 H811 0.959 . S
C805 H812 0.961 . S
C805 H813 0.960 . S
C806 C804 1.381 . S
C806 C807 1.394 . S
C806 H814 0.930 . S
C807 C806 1.394 . S
C807 C808 1.383 . S
C807 H815 0.929 . S
C808 C807 1.383 . S
C808 C809 1.377 1_565 S
C809 H793 0.930 . S
C809 C808 1.377 1_545 S
C809 C810 1.379 . S
C810 H794 0.931 . S
C810 C804 1.383 1_545 S
C810 C809 1.379 . S
H811 C805 0.959 . S
H812 C805 0.961 . S
H813 C805 0.960 . S
H814 C806 0.930 . S
H815 C807 0.929 . S
H816 C824 0.929 . S
H817 C826 0.930 . S
H818 C828 0.930 . S
H819 C831 0.929 . S
H820 C834 0.930 . S
H821 C836 0.960 . S
H822 C836 0.960 . S
H823 C836 0.960 . S
C824 H816 0.929 . S
C824 C825 1.377 . S
C824 C826 1.384 . S
C825 C824 1.377 . S
C825 C831 1.390 . S
C826 H817 0.930 . S
C826 C824 1.384 . S
C826 C827 1.372 . S
C827 C826 1.372 . S
C827 C828 1.400 . S
C827 C832 1.490 . S
C828 H818 0.930 . S
C828 C827 1.400 . S
C828 C831 1.386 . S
H829 C845 0.930 . S
H830 C846 0.931 . S
C831 H819 0.929 . S
C831 C825 1.390 . S
C831 C828 1.386 . S
C832 C827 1.490 . S
C832 C834 1.395 . S
C832 C835 1.403 . S
H833 C839 0.930 . S
C834 H820 0.930 . S
C834 C832 1.395 . S
C834 C837 1.403 . S
C835 C832 1.403 . S
C835 C836 1.524 . S
C835 C839 1.400 . S
C836 H821 0.960 . S
C836 H822 0.960 . S
C836 H823 0.960 . S
C836 C835 1.524 . S
C837 C834 1.403 . S
C837 C838 1.392 . S
C837 C841 1.495 . S
C838 C837 1.392 . S
C838 C839 1.385 . S
C838 C840 1.478 . S
C839 H833 0.930 . S
C839 C835 1.400 . S
C839 C838 1.385 . S
C840 C838 1.478 . S
C840 C842 1.381 . S
C840 C846 1.383 . S
C841 C837 1.495 . S
C841 H847 0.959 . S
C841 H848 0.961 . S
C841 H849 0.960 . S
C842 C840 1.381 . S
C842 C843 1.394 . S
C842 H850 0.930 . S
C843 C842 1.394 . S
C843 C844 1.383 . S
C843 H851 0.929 . S
C844 C843 1.383 . S
C844 C845 1.377 . S
C845 H829 0.930 . S
C845 C844 1.377 . S
C845 C846 1.379 . S
C846 H830 0.931 . S
C846 C840 1.383 . S
C846 C845 1.379 . S
H847 C841 0.959 . S
H848 C841 0.961 . S
H849 C841 0.960 . S
H850 C842 0.930 . S
H851 C843 0.929 . S
H852 C860 0.929 . S
H853 C862 0.930 . S
H854 C864 0.930 . S
H855 C867 0.929 . S
H856 C870 0.930 . S
H857 C872 0.960 . S
H858 C872 0.960 . S
H859 C872 0.960 . S
C860 H852 0.929 . S
C860 C861 1.377 . S
C860 C862 1.384 . S
C861 C860 1.377 . S
C861 C867 1.390 . S
C862 H853 0.930 . S
C862 C860 1.384 . S
C862 C863 1.372 . S
C863 C862 1.372 . S
C863 C864 1.400 . S
C863 C868 1.490 . S
C864 H854 0.930 . S
C864 C863 1.400 . S
C864 C867 1.386 . S
H865 C881 0.930 . S
H866 C882 0.931 . S
C867 H855 0.929 . S
C867 C861 1.390 . S
C867 C864 1.386 . S
C868 C863 1.490 . S
C868 C870 1.395 . S
C868 C871 1.403 . S
H869 C875 0.930 . S
C870 H856 0.930 . S
C870 C868 1.395 . S
C870 C873 1.403 . S
C871 C868 1.403 . S
C871 C872 1.524 . S
C871 C875 1.400 . S
C872 H857 0.960 . S
C872 H858 0.960 . S
C872 H859 0.960 . S
C872 C871 1.524 . S
C873 C870 1.403 . S
C873 C874 1.392 . S
C873 C877 1.495 . S
C874 C873 1.392 . S
C874 C875 1.385 . S
C874 C876 1.478 . S
C875 H869 0.930 . S
C875 C871 1.400 . S
C875 C874 1.385 . S
C876 C874 1.478 . S
C876 C878 1.381 . S
C876 C882 1.383 . S
C877 C873 1.495 . S
C877 H883 0.959 . S
C877 H884 0.961 . S
C877 H885 0.960 . S
C878 C876 1.381 . S
C878 C879 1.394 . S
C878 H886 0.930 . S
C879 C878 1.394 . S
C879 C880 1.383 . S
C879 H887 0.929 . S
C880 C879 1.383 . S
C880 C881 1.377 . S
C881 H865 0.930 . S
C881 C880 1.377 . S
C881 C882 1.379 . S
C882 H866 0.931 . S
C882 C876 1.383 . S
C882 C881 1.379 . S
H883 C877 0.959 . S
H884 C877 0.961 . S
H885 C877 0.960 . S
H886 C878 0.930 . S
H887 C879 0.929 . S
H888 C896 0.929 . S
H889 C898 0.930 . S
H890 C900 0.930 . S
H891 C903 0.929 . S
H892 C906 0.930 . S
H893 C908 0.970 . S
H894 C908 0.960 . S
H895 C908 0.960 . S
C896 H888 0.929 . S
C896 C897 1.377 . S
C896 C898 1.384 . S
C897 C896 1.377 . S
C897 C903 1.390 . S
C898 H889 0.930 . S
C898 C896 1.384 . S
C898 C899 1.372 . S
C899 C898 1.372 . S
C899 C900 1.400 . S
C899 C904 1.490 . S
C900 H890 0.930 . S
C900 C899 1.400 . S
C900 C903 1.386 . S
H901 C917 0.930 . S
H902 C918 0.931 . S
C903 H891 0.929 . S
C903 C897 1.390 . S
C903 C900 1.386 . S
C904 C899 1.490 . S
C904 C906 1.395 . S
C904 C907 1.403 . S
H905 C911 0.863 1_455 S
C906 H892 0.930 . S
C906 C904 1.395 . S
C906 C909 1.403 . S
C907 C904 1.403 . S
C907 C908 1.524 . S
C907 C911 1.400 . S
C908 H893 0.970 . S
C908 H894 0.960 . S
C908 H895 0.960 . S
C908 C907 1.524 . S
C909 C906 1.403 . S
C909 C910 1.392 . S
C909 C913 1.495 . S
C910 C909 1.392 . S
C910 C911 1.385 . S
C910 C912 1.478 . S
C911 H905 0.863 1_655 S
C911 C907 1.400 . S
C911 C910 1.385 . S
C912 C910 1.478 . S
C912 C914 1.381 . S
C912 C918 1.383 1_655 S
C913 C909 1.495 . S
C913 H919 0.959 . S
C913 H920 0.961 . S
C913 H921 0.960 . S
C914 C912 1.381 . S
C914 C915 1.394 1_655 S
C914 H922 0.930 . S
C915 C914 1.394 1_455 S
C915 C916 1.383 . S
C915 H923 0.929 . S
C916 C915 1.383 . S
C916 C917 1.377 . S
C917 H901 0.930 . S
C917 C916 1.377 . S
C917 C918 1.379 . S
C918 H902 0.931 . S
C918 C912 1.383 1_455 S
C918 C917 1.379 . S
H919 C913 0.959 . S
H920 C913 0.961 . S
H921 C913 0.960 . S
H922 C914 0.930 . S
H923 C915 0.929 . S
H924 C932 0.929 . S
H925 C934 0.930 . S
H926 C936 0.930 . S
H927 C939 0.929 . S
H928 C942 0.920 1_565 S
H929 C944 0.960 . S
H930 C944 0.960 . S
H931 C944 0.960 . S
C932 H924 0.929 . S
C932 C933 1.370 1_545 S
C932 C934 1.384 . S
C933 C932 1.370 1_565 S
C933 C939 1.396 . S
C934 H925 0.930 . S
C934 C932 1.384 . S
C934 C935 1.372 . S
C935 C934 1.372 . S
C935 C936 1.400 1_545 S
C935 C940 1.490 . S
C936 H926 0.930 . S
C936 C935 1.400 1_565 S
C936 C939 1.386 . S
H937 C953 0.930 . S
H938 C954 0.931 . S
C939 H927 0.929 . S
C939 C933 1.396 . S
C939 C936 1.386 . S
C940 C935 1.490 . S
C940 C942 1.404 . S
C940 C943 1.403 . S
H941 C947 0.930 . S
C942 H928 0.920 1_545 S
C942 C940 1.404 . S
C942 C945 1.406 . S
C943 C940 1.403 . S
C943 C944 1.524 . S
C943 C947 1.400 . S
C944 H929 0.960 . S
C944 H930 0.960 . S
C944 H931 0.960 . S
C944 C943 1.524 . S
C945 C942 1.406 . S
C945 C946 1.392 . S
C945 C949 1.495 1_545 S
C946 C945 1.392 . S
C946 C947 1.385 . S
C946 C948 1.478 . S
C947 H941 0.930 . S
C947 C943 1.400 . S
C947 C946 1.385 . S
C948 C946 1.478 . S
C948 C950 1.381 . S
C948 C954 1.383 1_545 S
C949 C945 1.495 1_565 S
C949 H955 0.959 . S
C949 H956 0.961 . S
C949 H957 0.960 1_565 S
C950 C948 1.381 . S
C950 C951 1.394 . S
C950 H958 0.930 . S
C951 C950 1.394 . S
C951 C952 1.383 . S
C951 H959 0.929 . S
C952 C951 1.383 . S
C952 C953 1.377 1_545 S
C953 H937 0.930 . S
C953 C952 1.377 1_565 S
C953 C954 1.379 . S
C954 H938 0.931 . S
C954 C948 1.383 1_565 S
C954 C953 1.379 . S
H955 C949 0.959 . S
H956 C949 0.961 . S
H957 C949 0.960 1_545 S
H958 C950 0.930 . S
H959 C951 0.929 . S
H960 C968 0.929 . S
H961 C970 0.930 . S
H962 C972 0.930 . S
H963 C975 0.929 . S
H964 C978 0.930 . S
H965 C980 0.960 . S
H966 C980 0.960 . S
H967 C980 0.960 . S
C968 H960 0.929 . S
C968 C969 1.377 . S
C968 C970 1.384 . S
C969 C968 1.377 . S
C969 C975 1.390 . S
C970 H961 0.930 . S
C970 C968 1.384 . S
C970 C971 1.372 . S
C971 C970 1.372 . S
C971 C972 1.400 . S
C971 C976 1.490 . S
C972 H962 0.930 . S
C972 C971 1.400 . S
C972 C975 1.386 . S
H973 C989 0.930 . S
H974 C990 0.931 . S
C975 H963 0.929 . S
C975 C969 1.390 . S
C975 C972 1.386 . S
C976 C971 1.490 . S
C976 C978 1.395 . S
C976 C979 1.403 . S
H977 C983 0.930 . S
C978 H964 0.930 . S
C978 C976 1.395 . S
C978 C981 1.403 . S
C979 C976 1.403 . S
C979 C980 1.524 . S
C979 C983 1.400 . S
C980 H965 0.960 . S
C980 H966 0.960 . S
C980 H967 0.960 . S
C980 C979 1.524 . S
C981 C978 1.403 . S
C981 C982 1.392 . S
C981 C985 1.495 . S
C982 C981 1.392 . S
C982 C983 1.385 . S
C982 C984 1.478 . S
C983 H977 0.930 . S
C983 C979 1.400 . S
C983 C982 1.385 . S
C984 C982 1.478 . S
C984 C986 1.381 . S
C984 C990 1.383 . S
C985 C981 1.495 . S
C985 H991 0.959 . S
C985 H992 0.961 . S
C985 H993 0.960 . S
C986 C984 1.381 . S
C986 C987 1.394 . S
C986 H994 0.930 . S
C987 C986 1.394 . S
C987 C988 1.383 . S
C987 H995 0.929 . S
C988 C987 1.383 . S
C988 C989 1.377 . S
C989 H973 0.930 . S
C989 C988 1.377 . S
C989 C990 1.379 . S
C990 H974 0.931 . S
C990 C984 1.383 . S
C990 C989 1.379 . S
H991 C985 0.959 . S
H992 C985 0.961 . S
H993 C985 0.960 . S
H994 C986 0.930 . S
H995 C987 0.929 . S
H996 C1004 0.929 . S
H997 C1006 0.930 . S
H998 C1008 0.930 . S
H999 C1011 0.929 . S
H1000 C1014 0.930 . S
H1001 C1016 0.960 . S
H1002 C1016 0.960 . S
H1003 C1016 0.960 . S
C1004 H996 0.929 . S
C1004 C1005 1.377 . S
C1004 C1006 1.384 . S
C1005 C1004 1.377 . S
C1005 C1011 1.390 . S
C1006 H997 0.930 . S
C1006 C1004 1.384 . S
C1006 C1007 1.372 . S
C1007 C1006 1.372 . S
C1007 C1008 1.400 . S
C1007 C1012 1.490 . S
C1008 H998 0.930 . S
C1008 C1007 1.400 . S
C1008 C1011 1.386 . S
H1009 C1025 0.930 . S
H1010 C1026 0.931 . S
C1011 H999 0.929 . S
C1011 C1005 1.390 . S
C1011 C1008 1.386 . S
C1012 C1007 1.490 . S
C1012 C1014 1.395 . S
C1012 C1015 1.403 . S
H1013 C1019 0.930 . S
C1014 H1000 0.930 . S
C1014 C1012 1.395 . S
C1014 C1017 1.403 . S
C1015 C1012 1.403 . S
C1015 C1016 1.524 . S
C1015 C1019 1.400 . S
C1016 H1001 0.960 . S
C1016 H1002 0.960 . S
C1016 H1003 0.960 . S
C1016 C1015 1.524 . S
C1017 C1014 1.403 . S
C1017 C1018 1.392 . S
C1017 C1021 1.495 . S
C1018 C1017 1.392 . S
C1018 C1019 1.385 . S
C1018 C1020 1.478 . S
C1019 H1013 0.930 . S
C1019 C1015 1.400 . S
C1019 C1018 1.385 . S
C1020 C1018 1.478 . S
C1020 C1022 1.381 . S
C1020 C1026 1.383 . S
C1021 C1017 1.495 . S
C1021 H1027 0.959 . S
C1021 H1028 0.961 . S
C1021 H1029 0.960 . S
C1022 C1020 1.381 . S
C1022 C1023 1.394 . S
C1022 H1030 0.930 . S
C1023 C1022 1.394 . S
C1023 C1024 1.383 . S
C1023 H1031 0.929 1_655 S
C1024 C1023 1.383 . S
C1024 C1025 1.377 . S
C1025 H1009 0.930 . S
C1025 C1024 1.377 . S
C1025 C1026 1.379 . S
C1026 H1010 0.931 . S
C1026 C1020 1.383 . S
C1026 C1025 1.379 . S
H1027 C1021 0.959 . S
H1028 C1021 0.961 . S
H1029 C1021 0.960 . S
H1030 C1022 0.930 . S
H1031 C1023 0.929 1_455 S
H1032 C1040 0.929 . S
H1033 C1042 0.930 . S
H1034 C1044 0.930 . S
H1035 C1047 0.929 . S
H1036 C1050 0.930 . S
H1037 C1052 0.960 . S
H1038 C1052 0.960 . S
H1039 C1052 0.960 . S
C1040 H1032 0.929 . S
C1040 C1041 1.377 . S
C1040 C1042 1.384 . S
C1041 C1040 1.377 . S
C1041 C1047 1.390 . S
C1042 H1033 0.930 . S
C1042 C1040 1.384 . S
C1042 C1043 1.372 . S
C1043 C1042 1.372 . S
C1043 C1044 1.400 . S
C1043 C1048 1.490 . S
C1044 H1034 0.930 . S
C1044 C1043 1.400 . S
C1044 C1047 1.386 . S
H1045 C1061 0.930 . S
H1046 C1062 0.931 . S
C1047 H1035 0.929 . S
C1047 C1041 1.390 . S
C1047 C1044 1.386 . S
C1048 C1043 1.490 . S
C1048 C1050 1.395 . S
C1048 C1051 1.403 1_554 S
H1049 C1055 0.930 . S
C1050 H1036 0.930 . S
C1050 C1048 1.395 . S
C1050 C1053 1.403 . S
C1051 C1048 1.403 1_556 S
C1051 C1052 1.524 . S
C1051 C1055 1.400 . S
C1052 H1037 0.960 . S
C1052 H1038 0.960 . S
C1052 H1039 0.960 . S
C1052 C1051 1.524 . S
C1053 C1050 1.403 . S
C1053 C1054 1.392 1_554 S
C1053 C1057 1.495 . S
C1054 C1053 1.392 1_556 S
C1054 C1055 1.385 . S
C1054 C1056 1.478 . S
C1055 H1049 0.930 . S
C1055 C1051 1.400 . S
C1055 C1054 1.385 . S
C1056 C1054 1.478 . S
C1056 C1058 1.381 . S
C1056 C1062 1.383 . S
C1057 C1053 1.495 . S
C1057 H1063 0.959 . S
C1057 H1064 0.961 . S
C1057 H1065 0.960 . S
C1058 C1056 1.381 . S
C1058 C1059 1.394 . S
C1058 H1066 0.930 . S
C1059 C1058 1.394 . S
C1059 C1060 1.383 . S
C1059 H1067 0.929 . S
C1060 C1059 1.383 . S
C1060 C1061 1.377 . S
C1061 H1045 0.930 . S
C1061 C1060 1.377 . S
C1061 C1062 1.379 . S
C1062 H1046 0.931 . S
C1062 C1056 1.383 . S
C1062 C1061 1.379 . S
H1063 C1057 0.959 . S
H1064 C1057 0.961 . S
H1065 C1057 0.960 . S
H1066 C1058 0.930 . S
H1067 C1059 0.929 . S
H1068 C1076 0.929 . S
H1069 C1078 0.930 . S
H1070 C1080 0.930 . S
H1071 C1083 0.929 . S
H1072 C1086 0.930 . S
H1073 C1088 0.960 . S
H1074 C1088 0.960 . S
H1075 C1088 0.960 1_554 S
C1076 H1068 0.929 . S
C1076 C1077 1.375 1_566 S
C1076 C1078 1.384 . S
C1077 C1076 1.375 1_544 S
C1077 C1083 1.392 . S
C1078 H1069 0.930 . S
C1078 C1076 1.384 . S
C1078 C1079 1.361 1_565 S
C1079 C1078 1.361 1_545 S
C1079 C1080 1.412 1_556 S
C1079 C1084 1.490 . S
C1080 H1070 0.930 . S
C1080 C1079 1.412 1_554 S
C1080 C1083 1.386 . S
H1081 C1097 0.930 . S
H1082 C1098 0.931 . S
C1083 H1071 0.929 . S
C1083 C1077 1.392 . S
C1083 C1080 1.386 . S
C1084 C1079 1.490 . S
C1084 C1086 1.395 . S
C1084 C1087 1.403 1_545 S
H1085 C1091 0.930 . S
C1086 H1072 0.930 . S
C1086 C1084 1.395 . S
C1086 C1089 1.403 . S
C1087 C1084 1.403 1_565 S
C1087 C1088 1.524 . S
C1087 C1091 1.400 . S
C1088 H1073 0.960 . S
C1088 H1074 0.960 . S
C1088 H1075 0.960 1_556 S
C1088 C1087 1.524 . S
C1089 C1086 1.403 . S
C1089 C1090 1.392 . S
C1089 C1093 1.495 . S
C1090 C1089 1.392 . S
C1090 C1091 1.385 1_545 S
C1090 C1092 1.478 . S
C1091 H1085 0.930 . S
C1091 C1087 1.400 . S
C1091 C1090 1.385 1_565 S
C1092 C1090 1.478 . S
C1092 C1094 1.381 1_545 S
C1092 C1098 1.383 . S
C1093 C1089 1.495 . S
C1093 H1099 0.959 . S
C1093 H1100 0.961 . S
C1093 H1101 0.960 . S
C1094 C1092 1.381 1_565 S
C1094 C1095 1.394 . S
C1094 H1102 0.930 . S
C1095 C1094 1.394 . S
C1095 C1096 1.383 1_565 S
C1095 H1103 0.929 . S
C1096 C1095 1.383 1_545 S
C1096 C1097 1.377 . S
C1097 H1081 0.930 . S
C1097 C1096 1.377 . S
C1097 C1098 1.379 . S
C1098 H1082 0.931 . S
C1098 C1092 1.383 . S
C1098 C1097 1.379 . S
H1099 C1093 0.959 . S
H1100 C1093 0.961 . S
H1101 C1093 0.960 . S
H1102 C1094 0.930 . S
H1103 C1095 0.929 . S
H1104 C1112 0.929 . S
H1105 C1114 0.930 . S
H1106 C1116 0.930 . S
H1107 C1119 0.929 . S
H1108 C1122 0.930 . S
H1109 C1124 0.960 . S
H1110 C1124 0.960 1_554 S
H1111 C1124 0.960 . S
C1112 H1104 0.929 . S
C1112 C1113 1.377 . S
C1112 C1114 1.384 1_554 S
C1113 C1112 1.377 . S
C1113 C1119 1.390 . S
C1114 H1105 0.930 . S
C1114 C1112 1.384 1_556 S
C1114 C1115 1.372 . S
C1115 C1114 1.372 . S
C1115 C1116 1.400 . S
C1115 C1120 1.490 . S
C1116 H1106 0.930 . S
C1116 C1115 1.400 . S
C1116 C1119 1.386 1_556 S
H1117 C1133 0.930 . S
H1118 C1134 0.931 . S
C1119 H1107 0.929 . S
C1119 C1113 1.390 . S
C1119 C1116 1.386 1_554 S
C1120 C1115 1.490 . S
C1120 C1122 1.395 . S
C1120 C1123 1.403 . S
H1121 C1127 0.930 . S
C1122 H1108 0.930 . S
C1122 C1120 1.395 . S
C1122 C1125 1.403 . S
C1123 C1120 1.403 . S
C1123 C1124 1.524 . S
C1123 C1127 1.400 . S
C1124 H1109 0.960 . S
C1124 H1110 0.960 1_556 S
C1124 H1111 0.960 . S
C1124 C1123 1.524 . S
C1125 C1122 1.403 . S
C1125 C1126 1.392 . S
C1125 C1129 1.495 . S
C1126 C1125 1.392 . S
C1126 C1127 1.385 . S
C1126 C1128 1.478 . S
C1127 H1121 0.930 . S
C1127 C1123 1.400 . S
C1127 C1126 1.385 . S
C1128 C1126 1.478 . S
C1128 C1130 1.381 . S
C1128 C1134 1.383 . S
C1129 C1125 1.495 . S
C1129 H1135 0.959 . S
C1129 H1136 0.961 . S
C1129 H1137 0.960 . S
C1130 C1128 1.381 . S
C1130 C1131 1.394 . S
C1130 H1138 0.930 . S
C1131 C1130 1.394 . S
C1131 C1132 1.383 . S
C1131 H1139 0.929 . S
C1132 C1131 1.383 . S
C1132 C1133 1.377 . S
C1133 H1117 0.930 . S
C1133 C1132 1.377 . S
C1133 C1134 1.379 . S
C1134 H1118 0.931 . S
C1134 C1128 1.383 . S
C1134 C1133 1.379 . S
H1135 C1129 0.959 . S
H1136 C1129 0.961 . S
H1137 C1129 0.960 . S
H1138 C1130 0.930 . S
H1139 C1131 0.929 . S
H1140 C1148 0.929 . S
H1141 C1150 0.930 . S
H1142 C1152 0.930 . S
H1143 C1155 0.929 . S
H1144 C1158 0.930 . S
H1145 C1160 0.960 . S
H1146 C1160 0.960 . S
H1147 C1160 0.960 . S
C1148 H1140 0.929 . S
C1148 C1149 1.377 1_554 S
C1148 C1150 1.384 1_554 S
C1149 C1148 1.377 1_556 S
C1149 C1155 1.390 . S
C1150 H1141 0.930 . S
C1150 C1148 1.384 1_556 S
C1150 C1151 1.372 . S
C1151 C1150 1.372 . S
C1151 C1152 1.400 . S
C1151 C1156 1.490 . S
C1152 H1142 0.930 . S
C1152 C1151 1.400 . S
C1152 C1155 1.386 . S
H1153 C1169 0.930 . S
H1154 C1170 0.931 . S
C1155 H1143 0.929 . S
C1155 C1149 1.390 . S
C1155 C1152 1.386 . S
C1156 C1151 1.490 . S
C1156 C1158 1.395 . S
C1156 C1159 1.403 . S
H1157 C1163 0.930 . S
C1158 H1144 0.930 . S
C1158 C1156 1.395 . S
C1158 C1161 1.403 . S
C1159 C1156 1.403 . S
C1159 C1160 1.524 . S
C1159 C1163 1.400 . S
C1160 H1145 0.960 . S
C1160 H1146 0.960 . S
C1160 H1147 0.960 . S
C1160 C1159 1.524 . S
C1161 C1158 1.403 . S
C1161 C1162 1.392 . S
C1161 C1165 1.495 . S
C1162 C1161 1.392 . S
C1162 C1163 1.385 . S
C1162 C1164 1.478 . S
C1163 H1157 0.930 . S
C1163 C1159 1.400 . S
C1163 C1162 1.385 . S
C1164 C1162 1.478 . S
C1164 C1166 1.381 . S
C1164 C1170 1.383 . S
C1165 C1161 1.495 . S
C1165 H1171 0.959 . S
C1165 H1172 0.961 . S
C1165 H1173 0.960 . S
C1166 C1164 1.381 . S
C1166 C1167 1.394 . S
C1166 H1174 0.930 . S
C1167 C1166 1.394 . S
C1167 C1168 1.383 . S
C1167 H1175 0.929 . S
C1168 C1167 1.383 . S
C1168 C1169 1.377 . S
C1169 H1153 0.930 . S
C1169 C1168 1.377 . S
C1169 C1170 1.379 . S
C1170 H1154 0.931 . S
C1170 C1164 1.383 . S
C1170 C1169 1.379 . S
H1171 C1165 0.959 . S
H1172 C1165 0.961 . S
H1173 C1165 0.960 . S
H1174 C1166 0.930 . S
H1175 C1167 0.929 . S
H1176 C1184 0.929 . S
H1177 C1186 0.930 . S
H1178 C1188 0.930 . S
H1179 C1191 0.929 . S
H1180 C1194 0.930 . S
H1181 C1196 0.960 . S
H1182 C1196 0.960 . S
H1183 C1196 0.960 . S
C1184 H1176 0.929 . S
C1184 C1185 1.377 . S
C1184 C1186 1.384 . S
C1185 C1184 1.377 . S
C1185 C1191 1.390 . S
C1186 H1177 0.930 . S
C1186 C1184 1.384 . S
C1186 C1187 1.372 . S
C1187 C1186 1.372 . S
C1187 C1188 1.400 . S
C1187 C1192 1.490 . S
C1188 H1178 0.930 . S
C1188 C1187 1.400 . S
C1188 C1191 1.386 . S
H1189 C1205 0.930 . S
H1190 C1206 0.931 . S
C1191 H1179 0.929 . S
C1191 C1185 1.390 . S
C1191 C1188 1.386 . S
C1192 C1187 1.490 . S
C1192 C1194 1.395 . S
C1192 C1195 1.403 . S
H1193 C1199 0.930 . S
C1194 H1180 0.930 . S
C1194 C1192 1.395 . S
C1194 C1197 1.403 . S
C1195 C1192 1.403 . S
C1195 C1196 1.524 . S
C1195 C1199 1.400 . S
C1196 H1181 0.960 . S
C1196 H1182 0.960 . S
C1196 H1183 0.960 . S
C1196 C1195 1.524 . S
C1197 C1194 1.403 . S
C1197 C1198 1.392 . S
C1197 C1201 1.495 . S
C1198 C1197 1.392 . S
C1198 C1199 1.385 . S
C1198 C1200 1.478 . S
C1199 H1193 0.930 . S
C1199 C1195 1.400 . S
C1199 C1198 1.385 . S
C1200 C1198 1.478 . S
C1200 C1202 1.381 . S
C1200 C1206 1.383 . S
C1201 C1197 1.495 . S
C1201 H1207 0.959 . S
C1201 H1208 0.961 . S
C1201 H1209 0.960 . S
C1202 C1200 1.381 . S
C1202 C1203 1.394 . S
C1202 H1210 0.897 1_655 S
C1203 C1202 1.394 . S
C1203 C1204 1.383 . S
C1203 H1211 0.929 1_655 S
C1204 C1203 1.383 . S
C1204 C1205 1.377 . S
C1205 H1189 0.930 . S
C1205 C1204 1.377 . S
C1205 C1206 1.379 . S
C1206 H1190 0.931 . S
C1206 C1200 1.383 . S
C1206 C1205 1.379 . S
H1207 C1201 0.959 . S
H1208 C1201 0.961 . S
H1209 C1201 0.960 . S
H1210 C1202 0.897 1_455 S
H1211 C1203 0.929 1_455 S
H1212 C1220 0.929 . S
H1213 C1222 0.930 . S
H1214 C1224 0.930 . S
H1215 C1227 0.929 . S
H1216 C1230 0.930 . S
H1217 C1232 0.960 . S
H1218 C1232 0.960 1_565 S
H1219 C1232 0.960 . S
C1220 H1212 0.929 . S
C1220 C1221 1.399 . S
C1220 C1222 1.384 . S
C1221 C1220 1.399 . S
C1221 C1227 1.368 1_565 S
C1222 H1213 0.930 . S
C1222 C1220 1.384 . S
C1222 C1223 1.372 . S
C1223 C1222 1.372 . S
C1223 C1224 1.400 1_565 S
C1223 C1228 1.490 . S
C1224 H1214 0.930 . S
C1224 C1223 1.400 1_545 S
C1224 C1227 1.386 . S
H1225 C1241 0.930 . S
H1226 C1242 0.931 . S
C1227 H1215 0.929 . S
C1227 C1221 1.368 1_545 S
C1227 C1224 1.386 . S
C1228 C1223 1.490 . S
C1228 C1230 1.395 . S
C1228 C1231 1.403 1_565 S
H1229 C1235 0.930 . S
C1230 H1216 0.930 . S
C1230 C1228 1.395 . S
C1230 C1233 1.403 . S
C1231 C1228 1.403 1_545 S
C1231 C1232 1.524 . S
C1231 C1235 1.400 . S
C1232 H1217 0.960 . S
C1232 H1218 0.960 1_545 S
C1232 H1219 0.960 . S
C1232 C1231 1.524 . S
C1233 C1230 1.403 . S
C1233 C1234 1.392 . S
C1233 C1237 1.495 . S
C1234 C1233 1.392 . S
C1234 C1235 1.385 1_565 S
C1234 C1236 1.478 . S
C1235 H1229 0.930 . S
C1235 C1231 1.400 . S
C1235 C1234 1.385 1_545 S
C1236 C1234 1.478 . S
C1236 C1238 1.381 . S
C1236 C1242 1.383 1_565 S
C1237 C1233 1.495 . S
C1237 H1243 0.959 . S
C1237 H1244 0.961 . S
C1237 H1245 0.960 . S
C1238 C1236 1.381 . S
C1238 C1239 1.394 . S
C1238 H1246 0.930 . S
C1239 C1238 1.394 . S
C1239 C1240 1.383 . S
C1239 H1247 0.929 . S
C1240 C1239 1.383 . S
C1240 C1241 1.377 1_565 S
C1241 H1225 0.930 . S
C1241 C1240 1.377 1_545 S
C1241 C1242 1.379 . S
C1242 H1226 0.931 . S
C1242 C1236 1.383 1_545 S
C1242 C1241 1.379 . S
H1243 C1237 0.959 . S
H1244 C1237 0.961 . S
H1245 C1237 0.960 . S
H1246 C1238 0.930 . S
H1247 C1239 0.929 . S
H1248 C1256 0.929 . S
H1249 C1258 0.930 . S
H1250 C1260 0.930 . S
H1251 C1263 0.929 . S
H1252 C1266 0.930 . S
H1253 C1268 0.960 . S
H1254 C1268 0.960 . S
H1255 C1268 0.960 . S
C1256 H1248 0.929 . S
C1256 C1257 1.377 . S
C1256 C1258 1.384 . S
C1257 C1256 1.377 . S
C1257 C1263 1.390 . S
C1258 H1249 0.930 . S
C1258 C1256 1.384 . S
C1258 C1259 1.372 . S
C1259 C1258 1.372 . S
C1259 C1260 1.400 . S
C1259 C1264 1.490 . S
C1260 H1250 0.930 . S
C1260 C1259 1.400 . S
C1260 C1263 1.386 . S
H1261 C1277 0.930 . S
H1262 C1278 0.931 . S
C1263 H1251 0.929 . S
C1263 C1257 1.390 . S
C1263 C1260 1.386 . S
C1264 C1259 1.490 . S
C1264 C1266 1.395 . S
C1264 C1267 1.403 . S
H1265 C1271 0.930 . S
C1266 H1252 0.930 . S
C1266 C1264 1.395 . S
C1266 C1269 1.403 . S
C1267 C1264 1.403 . S
C1267 C1268 1.524 . S
C1267 C1271 1.400 . S
C1268 H1253 0.960 . S
C1268 H1254 0.960 . S
C1268 H1255 0.960 . S
C1268 C1267 1.524 . S
C1269 C1266 1.403 . S
C1269 C1270 1.392 . S
C1269 C1273 1.495 . S
C1270 C1269 1.392 . S
C1270 C1271 1.385 . S
C1270 C1272 1.478 . S
C1271 H1265 0.930 . S
C1271 C1267 1.400 . S
C1271 C1270 1.385 . S
C1272 C1270 1.478 . S
C1272 C1274 1.381 . S
C1272 C1278 1.383 . S
C1273 C1269 1.495 . S
C1273 H1279 0.959 . S
C1273 H1280 0.961 . S
C1273 H1281 0.960 . S
C1274 C1272 1.381 . S
C1274 C1275 1.394 . S
C1274 H1282 0.930 . S
C1275 C1274 1.394 . S
C1275 C1276 1.383 . S
C1275 H1283 0.929 . S
C1276 C1275 1.383 . S
C1276 C1277 1.377 . S
C1277 H1261 0.930 . S
C1277 C1276 1.377 . S
C1277 C1278 1.379 . S
C1278 H1262 0.931 . S
C1278 C1272 1.383 . S
C1278 C1277 1.379 . S
H1279 C1273 0.959 . S
H1280 C1273 0.961 . S
H1281 C1273 0.960 . S
H1282 C1274 0.930 . S
H1283 C1275 0.929 . S
H1284 C1292 0.929 . S
H1285 C1294 0.930 . S
H1286 C1296 0.930 . S
H1287 C1299 0.929 . S
H1288 C1302 0.930 . S
H1289 C1304 0.960 . S
H1290 C1304 0.960 . S
H1291 C1304 0.960 . S
C1292 H1284 0.929 . S
C1292 C1293 1.377 . S
C1292 C1294 1.384 . S
C1293 C1292 1.377 . S
C1293 C1299 1.390 . S
C1294 H1285 0.930 . S
C1294 C1292 1.384 . S
C1294 C1295 1.372 . S
C1295 C1294 1.372 . S
C1295 C1296 1.400 . S
C1295 C1300 1.490 . S
C1296 H1286 0.930 . S
C1296 C1295 1.400 . S
C1296 C1299 1.386 . S
H1297 C1313 0.930 . S
H1298 C1314 0.931 . S
C1299 H1287 0.929 . S
C1299 C1293 1.390 . S
C1299 C1296 1.386 . S
C1300 C1295 1.490 . S
C1300 C1302 1.395 . S
C1300 C1303 1.403 . S
H1301 C1307 0.930 . S
C1302 H1288 0.930 . S
C1302 C1300 1.395 . S
C1302 C1305 1.403 . S
C1303 C1300 1.403 . S
C1303 C1304 1.524 . S
C1303 C1307 1.400 . S
C1304 H1289 0.960 . S
C1304 H1290 0.960 . S
C1304 H1291 0.960 . S
C1304 C1303 1.524 . S
C1305 C1302 1.403 . S
C1305 C1306 1.392 . S
C1305 C1309 1.495 . S
C1306 C1305 1.392 . S
C1306 C1307 1.385 . S
C1306 C1308 1.478 . S
C1307 H1301 0.930 . S
C1307 C1303 1.400 . S
C1307 C1306 1.385 . S
C1308 C1306 1.478 . S
C1308 C1310 1.381 . S
C1308 C1314 1.383 . S
C1309 C1305 1.495 . S
C1309 H1315 0.959 . S
C1309 H1316 0.961 . S
C1309 H1317 0.960 . S
C1310 C1308 1.381 . S
C1310 C1311 1.394 . S
C1310 H1318 0.930 . S
C1311 C1310 1.394 . S
C1311 C1312 1.383 . S
C1311 H1319 0.929 . S
C1312 C1311 1.383 . S
C1312 C1313 1.377 . S
C1313 H1297 0.930 . S
C1313 C1312 1.377 . S
C1313 C1314 1.379 . S
C1314 H1298 0.931 . S
C1314 C1308 1.383 . S
C1314 C1313 1.379 . S
H1315 C1309 0.959 . S
H1316 C1309 0.961 . S
H1317 C1309 0.960 . S
H1318 C1310 0.930 . S
H1319 C1311 0.929 . S
C465 C255 1.840 1_565 S
C484 C337 1.855 . S
C520 C358 1.739 . S
C501 C295 1.699 . S
C556 C392 1.490 . S
C537 C175 1.453 . S
C592 C426 1.700 . S
C573 C215 1.687 . S
C628 C328 1.848 . S
C609 C95 1.840 1_556 S
C645 C135 1.700 1_556 S
C664 C367 1.723 . S
C681 C15 1.460 . S
C700 C401 1.497 . S
C717 C55 1.674 . S
C736 C435 1.719 . S
C772 C349 0.401 . S
C753 C221 0.509 . S
C808 C354 0.291 . S
C789 C261 0.355 . S
C844 C388 0.347 . S
C825 C301 0.301 . S
C861 C181 0.594 . S
C880 C422 0.306 . S
C897 C61 0.815 . S
C916 C320 0.416 . S
C952 C383 0.155 . S
C933 C101 0.339 1_565 S
C988 C417 0.383 . S
C969 C141 0.532 . S
C1005 C21 0.362 . S
C1024 C451 0.335 . S
C1041 C202 1.749 . S
C1060 C333 1.784 . S
C1077 C242 2.104 . S
C1096 C362 2.168 . S
C1132 C396 1.920 . S
C1113 C282 1.879 . S
C1168 C430 1.942 . S
C1149 C162 1.830 1_556 S
C1185 C42 1.684 . S
C1204 C324 1.794 . S
C1240 C371 2.166 . S
C1221 C82 2.102 1_565 S
C1276 C405 1.930 . S
C1257 C122 1.820 . S
C1293 C2 1.889 . S
C1312 C439 1.940 . S
