# Generated by pormake.
# Topology wbl, (4,4)-cn, num edge types: 1
# Building blocks:
#     Node 0, Type 0, BuildingBlock: MUDLON_clean_sbu_0, # of connection points: 4
#     Node 1, Type 0, BuildingBlock: MUDLON_clean_sbu_0, # of connection points: 4
#     Node 2, Type 0, BuildingBlock: MUDLON_clean_sbu_0, # of connection points: 4
#     Node 3, Type 0, BuildingBlock: MUDLON_clean_sbu_0, # of connection points: 4
#     Node 4, Type 0, BuildingBlock: MUDLON_clean_sbu_0, # of connection points: 4
#     Node 5, Type 0, BuildingBlock: MUDLON_clean_sbu_0, # of connection points: 4
#     Node 6, Type 0, BuildingBlock: MUDLON_clean_sbu_0, # of connection points: 4
#     Node 7, Type 0, BuildingBlock: MUDLON_clean_sbu_0, # of connection points: 4
#     Node 8, Type 1, BuildingBlock: QUQFOY_clean_sbu_1, # of connection points: 4
#     Node 9, Type 1, BuildingBlock: QUQFOY_clean_sbu_1, # of connection points: 4
#     Node 10, Type 1, BuildingBlock: QUQFOY_clean_sbu_1, # of connection points: 4
#     Node 11, Type 1, BuildingBlock: QUQFOY_clean_sbu_1, # of connection points: 4
#     Node 12, Type 1, BuildingBlock: QUQFOY_clean_sbu_1, # of connection points: 4
#     Node 13, Type 1, BuildingBlock: QUQFOY_clean_sbu_1, # of connection points: 4
#     Node 14, Type 1, BuildingBlock: QUQFOY_clean_sbu_1, # of connection points: 4
#     Node 15, Type 1, BuildingBlock: QUQFOY_clean_sbu_1, # of connection points: 4
#     Edge 16, Type (0, 1), BuildingBlock: UVAHIK_clean_linker_0, # of connection points: 2
#     Edge 17, Type (0, 1), BuildingBlock: UVAHIK_clean_linker_0, # of connection points: 2
#     Edge 18, Type (0, 1), BuildingBlock: UVAHIK_clean_linker_0, # of connection points: 2
#     Edge 19, Type (0, 1), BuildingBlock: UVAHIK_clean_linker_0, # of connection points: 2
#     Edge 20, Type (0, 1), BuildingBlock: UVAHIK_clean_linker_0, # of connection points: 2
#     Edge 21, Type (0, 1), BuildingBlock: UVAHIK_clean_linker_0, # of connection points: 2
#     Edge 22, Type (0, 1), BuildingBlock: UVAHIK_clean_linker_0, # of connection points: 2
#     Edge 23, Type (0, 1), BuildingBlock: UVAHIK_clean_linker_0, # of connection points: 2
#     Edge 24, Type (0, 1), BuildingBlock: UVAHIK_clean_linker_0, # of connection points: 2
#     Edge 25, Type (0, 1), BuildingBlock: UVAHIK_clean_linker_0, # of connection points: 2
#     Edge 26, Type (0, 1), BuildingBlock: UVAHIK_clean_linker_0, # of connection points: 2
#     Edge 27, Type (0, 1), BuildingBlock: UVAHIK_clean_linker_0, # of connection points: 2
#     Edge 28, Type (0, 1), BuildingBlock: UVAHIK_clean_linker_0, # of connection points: 2
#     Edge 29, Type (0, 1), BuildingBlock: UVAHIK_clean_linker_0, # of connection points: 2
#     Edge 30, Type (0, 1), BuildingBlock: UVAHIK_clean_linker_0, # of connection points: 2
#     Edge 31, Type (0, 1), BuildingBlock: UVAHIK_clean_linker_0, # of connection points: 2
#     Edge 32, Type (0, 1), BuildingBlock: UVAHIK_clean_linker_0, # of connection points: 2
#     Edge 33, Type (0, 1), BuildingBlock: UVAHIK_clean_linker_0, # of connection points: 2
#     Edge 34, Type (0, 1), BuildingBlock: UVAHIK_clean_linker_0, # of connection points: 2
#     Edge 35, Type (0, 1), BuildingBlock: UVAHIK_clean_linker_0, # of connection points: 2
#     Edge 36, Type (0, 1), BuildingBlock: UVAHIK_clean_linker_0, # of connection points: 2
#     Edge 37, Type (0, 1), BuildingBlock: UVAHIK_clean_linker_0, # of connection points: 2
#     Edge 38, Type (0, 1), BuildingBlock: UVAHIK_clean_linker_0, # of connection points: 2
#     Edge 39, Type (0, 1), BuildingBlock: UVAHIK_clean_linker_0, # of connection points: 2
#     Edge 40, Type (0, 1), BuildingBlock: UVAHIK_clean_linker_0, # of connection points: 2
#     Edge 41, Type (0, 1), BuildingBlock: UVAHIK_clean_linker_0, # of connection points: 2
#     Edge 42, Type (0, 1), BuildingBlock: UVAHIK_clean_linker_0, # of connection points: 2
#     Edge 43, Type (0, 1), BuildingBlock: UVAHIK_clean_linker_0, # of connection points: 2
#     Edge 44, Type (0, 1), BuildingBlock: UVAHIK_clean_linker_0, # of connection points: 2
#     Edge 45, Type (0, 1), BuildingBlock: UVAHIK_clean_linker_0, # of connection points: 2
#     Edge 46, Type (0, 1), BuildingBlock: UVAHIK_clean_linker_0, # of connection points: 2
#     Edge 47, Type (0, 1), BuildingBlock: UVAHIK_clean_linker_0, # of connection points: 2
# Relax obj value: 0.235
# Max RMSD: 0.253
# Mean RMSD: 0.183
data_MOF--net-wbl--node1-MUDLON_clean_sbu_0--node2-QUQFOY_clean_sbu_1--edge1-UVAHIK_clean_linker_0
_symmetry_space_group_name_H-M    P1
_symmetry_Int_Tables_number       1
_symmetry_cell_setting            triclinic
loop_
_symmetry_equiv_pos_as_xyz
'x, y, z'
_cell_length_a     44.608898
_cell_length_b     44.506538
_cell_length_c     97.889036
_cell_angle_alpha  92.876831
_cell_angle_beta   92.885918
_cell_angle_gamma 90.782758
loop_
_atom_site_label
_atom_site_type_symbol
_atom_site_fract_x
_atom_site_fract_y
_atom_site_fract_z
_atom_type_partial_charge
Mg0 Mg 0.23261 0.1802 0.37521 0.0
C1 C 0.24862 0.13077 0.39431 0.0
O2 O 0.27213 0.12908 0.38677 0.0
C3 C 0.16759 0.16799 0.36677 0.0
O4 O 0.17231 0.14568 0.37486 0.0
C5 C 0.25628 0.13657 0.35519 0.0
O6 O 0.2297 0.12547 0.35756 0.0
O7 O 0.26448 0.16163 0.36112 0.0
O8 O 0.22796 0.14906 0.39132 0.0
O9 O 0.24626 0.22094 0.38715 0.0
C10 C 0.22725 0.2417 0.38875 0.0
O11 O 0.20273 0.24097 0.38072 0.0
O12 O 0.18915 0.18594 0.36478 0.0
Mg13 Mg 0.04817 0.70929 0.6221 0.0
C14 C 0.09772 0.72368 0.64406 0.0
O15 O 0.10561 0.74351 0.63537 0.0
C16 C 0.04213 0.66753 0.5967 0.0
O17 O 0.02991 0.69151 0.59161 0.0
C18 C 0.08747 0.74346 0.60489 0.0
O19 O 0.09811 0.71611 0.60379 0.0
O20 O 0.06434 0.7479 0.61176 0.0
O21 O 0.07585 0.70572 0.64078 0.0
O22 O 0.00362 0.71295 0.62995 0.0
C23 C 0.9899 0.6882 0.63147 0.0
O24 O 0.001 0.66337 0.6261 0.0
O25 O 0.05174 0.66866 0.60917 0.0
Mg26 Mg 0.52935 0.54873 0.86195 0.0
C27 C 0.52974 0.60451 0.88125 0.0
O28 O 0.51132 0.6143 0.87163 0.0
C29 C 0.58155 0.56595 0.84502 0.0
O30 O 0.57699 0.59247 0.85101 0.0
C31 C 0.48947 0.58511 0.84361 0.0
O32 O 0.51579 0.59202 0.8391 0.0
O33 O 0.48804 0.56571 0.85267 0.0
O34 O 0.54236 0.57935 0.87924 0.0
O35 O 0.5223 0.50749 0.87231 0.0
C36 C 0.54426 0.48996 0.8741 0.0
O37 O 0.56885 0.49471 0.86763 0.0
O38 O 0.56492 0.54378 0.84767 0.0
Mg39 Mg 0.66327 0.05668 0.11796 0.0
C40 C 0.71459 0.03996 0.13712 0.0
O41 O 0.69923 0.0145 0.13675 0.0
C42 C 0.63929 0.00683 0.09814 0.0
O43 O 0.62998 0.02998 0.09137 0.0
C44 C 0.67788 0.08617 0.09214 0.0
O45 O 0.69341 0.06141 0.09081 0.0
O46 O 0.66217 0.09015 0.10255 0.0
O47 O 0.70595 0.06051 0.12934 0.0
O48 O 0.63185 0.06502 0.13396 0.0
C49 C 0.6136 0.04433 0.13682 0.0
O50 O 0.61123 0.01979 0.12878 0.0
O51 O 0.65499 0.01143 0.10926 0.0
Mg52 Mg 0.02502 0.69755 0.96625 0.0
C53 C 0.0053 0.7453 0.94756 0.0
O54 O 0.98201 0.72681 0.94615 0.0
C55 C 0.986 0.67275 0.98736 0.0
O56 O 0.01249 0.66648 0.99288 0.0
C57 C 0.07529 0.71625 0.98649 0.0
O58 O 0.06097 0.74176 0.98567 0.0
O59 O 0.06509 0.69325 0.97944 0.0
O60 O 0.02582 0.74038 0.95662 0.0
O61 O 0.02489 0.66544 0.94878 0.0
C62 C 0.99965 0.65448 0.94422 0.0
O63 O 0.97563 0.66086 0.95096 0.0
O64 O 0.98456 0.68813 0.97676 0.0
Mg65 Mg 0.56307 0.49985 0.20693 0.0
C66 C 0.52081 0.47623 0.18402 0.0
O67 O 0.54156 0.4556 0.18352 0.0
C68 C 0.58644 0.47057 0.23208 0.0
O69 O 0.59121 0.4991 0.23576 0.0
C70 C 0.53998 0.55311 0.22315 0.0
O71 O 0.5157 0.53594 0.22236 0.0
O72 O 0.56357 0.54342 0.21779 0.0
O73 O 0.52204 0.49565 0.19401 0.0
O74 O 0.59757 0.49968 0.19216 0.0
C75 C 0.61036 0.47521 0.18887 0.0
O76 O 0.60442 0.45107 0.19551 0.0
O77 O 0.5728 0.46382 0.22059 0.0
Mg78 Mg 0.68361 0.07289 0.46465 0.0
C79 C 0.65432 0.09814 0.43922 0.0
O80 O 0.63997 0.07211 0.43874 0.0
C81 C 0.64299 0.087 0.4883 0.0
O82 O 0.656 0.11364 0.4882 0.0
C83 C 0.73055 0.11661 0.47549 0.0
O84 O 0.70828 0.13428 0.47215 0.0
O85 O 0.72652 0.08829 0.47398 0.0
O86 O 0.67144 0.10551 0.44966 0.0
O87 O 0.68903 0.03213 0.45208 0.0
C88 C 0.66779 0.01279 0.45039 0.0
O89 O 0.64423 0.01588 0.45784 0.0
O90 O 0.65012 0.06643 0.47963 0.0
Mg91 Mg 0.18625 0.21281 0.72014 0.0
C92 C 0.22946 0.23626 0.70036 0.0
O93 O 0.20705 0.25447 0.69804 0.0
C94 C 0.17958 0.27793 0.7322 0.0
O95 O 0.20205 0.28451 0.72465 0.0
C96 C 0.17138 0.16819 0.74145 0.0
O97 O 0.14859 0.18617 0.74311 0.0
O98 O 0.18993 0.17365 0.7324 0.0
O99 O 0.22817 0.21861 0.71015 0.0
O100 O 0.15394 0.20607 0.7028 0.0
C101 C 0.13866 0.22865 0.69935 0.0
O102 O 0.14053 0.25336 0.70727 0.0
O103 O 0.17097 0.25068 0.73268 0.0
O104 O 0.44544 0.69567 0.02339 0.0
Cd105 Cd 0.42878 0.70554 0.04237 0.0
Cd106 Cd 0.47065 0.66669 0.05004 0.0
O107 O 0.47363 0.65774 0.0293 0.0
O108 O 0.39228 0.72917 0.0381 0.0
O109 O 0.39043 0.68452 0.04699 0.0
C110 C 0.37647 0.70738 0.0423 0.0
C111 C 0.4621 0.62834 0.06474 0.0
C112 C 0.46267 0.67425 0.02014 0.0
C113 C 0.4808 0.73021 0.06022 0.0
O114 O 0.49297 0.7048 0.0583 0.0
O115 O 0.454 0.73427 0.05573 0.0
O116 O 0.48763 0.63153 0.05931 0.0
O117 O 0.44092 0.64668 0.06158 0.0
O118 O 0.54408 0.90927 0.31534 0.0
Cd119 Cd 0.51575 0.90747 0.29801 0.0
Cd120 Cd 0.56664 0.91856 0.28602 0.0
O121 O 0.58423 0.92642 0.30583 0.0
O122 O 0.47452 0.91286 0.30461 0.0
O123 O 0.49737 0.9464 0.29261 0.0
C124 C 0.47436 0.93873 0.29922 0.0
C125 C 0.57037 0.95376 0.26933 0.0
C126 C 0.57104 0.91907 0.31641 0.0
C127 C 0.5371 0.8584 0.2793 0.0
O128 O 0.56081 0.87441 0.27886 0.0
O129 O 0.51487 0.86841 0.28567 0.0
O130 O 0.59315 0.93809 0.27316 0.0
O131 O 0.54564 0.95024 0.27544 0.0
O132 O 0.31158 0.02028 0.53493 0.0
Cd133 Cd 0.32945 0.01082 0.55398 0.0
Cd134 Cd 0.28925 0.05069 0.56216 0.0
O135 O 0.28411 0.05857 0.54155 0.0
O136 O 0.36926 0.99343 0.55035 0.0
O137 O 0.36378 0.03732 0.56154 0.0
C138 C 0.3813 0.0177 0.55609 0.0
C139 C 0.29502 0.09073 0.57847 0.0
C140 C 0.29442 0.04184 0.53204 0.0
C141 C 0.28016 0.9863 0.56951 0.0
O142 O 0.26915 0.0124 0.5688 0.0
O143 O 0.30585 0.98091 0.56497 0.0
O144 O 0.26951 0.08438 0.57213 0.0
O145 O 0.31783 0.07481 0.57519 0.0
O146 O 0.20873 0.82196 0.78596 0.0
Cd147 Cd 0.22412 0.84103 0.80458 0.0
Cd148 Cd 0.18426 0.80354 0.81408 0.0
O149 O 0.17084 0.79673 0.79364 0.0
O150 O 0.24425 0.87902 0.7999 0.0
O151 O 0.20314 0.87795 0.81162 0.0
C152 C 0.22294 0.89339 0.80564 0.0
C153 C 0.1484 0.81304 0.83017 0.0
C154 C 0.18558 0.80519 0.78371 0.0
C155 C 0.24934 0.79145 0.82065 0.0
O156 O 0.22243 0.78164 0.82067 0.0
O157 O 0.25502 0.81653 0.81557 0.0
O158 O 0.15053 0.78691 0.82404 0.0
O159 O 0.16649 0.83425 0.82705 0.0
O160 O 0.04047 0.29801 0.55599 0.0
Cd161 Cd 0.03164 0.31691 0.53745 0.0
Cd162 Cd 0.07079 0.27676 0.52925 0.0
O163 O 0.08036 0.27297 0.54996 0.0
O164 O 0.01045 0.35471 0.54226 0.0
O165 O 0.05474 0.35411 0.53308 0.0
C166 C 0.03304 0.36937 0.53806 0.0
C167 C 0.10811 0.28808 0.51447 0.0
C168 C 0.0628 0.28185 0.5591 0.0
C169 C 0.00743 0.26685 0.51866 0.0
O170 O 0.03276 0.25458 0.52062 0.0
O171 O 0.00317 0.29338 0.52351 0.0
O172 O 0.10604 0.26182 0.5194 0.0
O173 O 0.08933 0.30836 0.51823 0.0
O174 O 0.92607 0.52998 0.80075 0.0
Cd175 Cd 0.90718 0.5162 0.78186 0.0
Cd176 Cd 0.94055 0.56057 0.77374 0.0
O177 O 0.94435 0.57309 0.79443 0.0
O178 O 0.8685 0.49575 0.78531 0.0
O179 O 0.87145 0.53901 0.77516 0.0
C180 C 0.85513 0.51847 0.78018 0.0
C181 C 0.92962 0.59551 0.75724 0.0
C182 C 0.93889 0.55527 0.80379 0.0
C183 C 0.95805 0.49695 0.76583 0.0
O184 O 0.96584 0.52458 0.76712 0.0
O185 O 0.93291 0.48837 0.76995 0.0
O186 O 0.95553 0.5951 0.76368 0.0
O187 O 0.90926 0.57674 0.7606 0.0
O188 O 0.72628 0.42245 0.04803 0.0
Cd189 Cd 0.73686 0.40645 0.02881 0.0
Cd190 Cd 0.6919 0.43983 0.02133 0.0
O191 O 0.68128 0.43763 0.04156 0.0
O192 O 0.75796 0.368 0.0318 0.0
O193 O 0.71316 0.37041 0.02112 0.0
C194 C 0.7344 0.35426 0.02621 0.0
C195 C 0.65669 0.42865 0.00334 0.0
C196 C 0.70072 0.43228 0.05103 0.0
C197 C 0.75361 0.46106 0.01523 0.0
O198 O 0.72669 0.4686 0.01716 0.0
O199 O 0.76215 0.43462 0.01767 0.0
O200 O 0.65527 0.45311 0.01092 0.0
O201 O 0.67765 0.40994 0.00626 0.0
O202 O 0.82684 0.18498 0.26732 0.0
Cd203 Cd 0.82651 0.21596 0.28363 0.0
Cd204 Cd 0.81009 0.16853 0.2971 0.0
O205 O 0.8032 0.14913 0.2775 0.0
O206 O 0.81789 0.25609 0.27634 0.0
O207 O 0.78671 0.23167 0.28898 0.0
C208 C 0.79236 0.25476 0.28197 0.0
C209 C 0.77487 0.16154 0.31359 0.0
C210 C 0.81419 0.15918 0.26686 0.0
C211 C 0.87139 0.19699 0.30431 0.0
O212 O 0.85372 0.17456 0.30512 0.0
O213 O 0.86396 0.2184 0.2968 0.0
O214 O 0.79224 0.1402 0.30968 0.0
O215 O 0.77659 0.18674 0.30767 0.0
C216 C 0.26944 0.08854 0.34278 0.0
C217 C 0.27716 0.11844 0.34698 0.0
C218 C 0.2898 0.07027 0.33606 0.0
C219 C 0.35675 0.06939 0.31595 0.0
H220 H 0.3702 0.99222 0.33171 0.0
C221 C 0.45398 0.99089 0.30084 0.0
C222 C 0.44953 0.95971 0.30157 0.0
C223 C 0.4319 0.01092 0.30501 0.0
C224 C 0.36637 0.01337 0.32696 0.0
H225 H 0.31194 0.15295 0.34692 0.0
H226 H 0.34755 0.12088 0.33495 0.0
H227 H 0.33379 0.02618 0.34136 0.0
H228 H 0.41778 0.92495 0.3063 0.0
H229 H 0.37879 0.95963 0.31294 0.0
H230 H 0.38901 0.05637 0.30137 0.0
C231 C 0.32568 0.11172 0.33696 0.0
C232 C 0.34559 0.03293 0.33258 0.0
C233 C 0.30536 0.12999 0.34385 0.0
C234 C 0.42197 0.94889 0.30579 0.0
C235 C 0.39973 0.96884 0.30972 0.0
C236 C 0.37734 0.04959 0.31018 0.0
C237 C 0.31827 0.0815 0.33326 0.0
C238 C 0.34053 0.0611 0.32714 0.0
C239 C 0.40473 0.00016 0.30981 0.0
C240 C 0.3824 0.02126 0.31561 0.0
H241 H 0.24789 0.0789 0.34498 0.0
H242 H 0.28339 0.04715 0.33319 0.0
H243 H 0.35312 0.09095 0.31153 0.0
H244 H 0.4751 0.99987 0.29769 0.0
H245 H 0.43672 0.03483 0.30501 0.0
C246 C 0.13171 0.76365 0.59341 0.0
C247 C 0.10483 0.76898 0.59996 0.0
C248 C 0.14992 0.78757 0.58997 0.0
C249 C 0.16648 0.86764 0.59934 0.0
H250 H 0.20996 0.86366 0.56599 0.0
C251 C 0.23419 0.96797 0.58043 0.0
C252 C 0.26184 0.96171 0.57468 0.0
C253 C 0.21538 0.94464 0.58405 0.0
C254 C 0.19824 0.86494 0.57542 0.0
H255 H 0.07547 0.80372 0.6076 0.0
H256 H 0.10707 0.84561 0.60134 0.0
H257 H 0.17494 0.82322 0.57041 0.0
H258 H 0.29184 0.92598 0.56869 0.0
H259 H 0.25898 0.88524 0.57506 0.0
H260 H 0.18968 0.90956 0.60426 0.0
C261 C 0.11431 0.82284 0.59911 0.0
C262 C 0.17812 0.84179 0.57795 0.0
C263 C 0.09607 0.79885 0.60259 0.0
C264 C 0.27068 0.9316 0.57306 0.0
C265 C 0.25177 0.90824 0.57661 0.0
C266 C 0.18651 0.89088 0.59677 0.0
C267 C 0.14168 0.81747 0.59293 0.0
C268 C 0.16209 0.84277 0.58997 0.0
C269 C 0.22371 0.9145 0.58195 0.0
C270 C 0.20271 0.88971 0.58482 0.0
H271 H 0.13918 0.74093 0.59125 0.0
H272 H 0.17098 0.78256 0.58537 0.0
H273 H 0.1549 0.86889 0.60881 0.0
H274 H 0.22669 0.99091 0.58185 0.0
H275 H 0.19384 0.95018 0.58807 0.0
C276 C 0.46626 0.62877 0.83221 0.0
C277 C 0.463 0.60338 0.84001 0.0
C278 C 0.44238 0.64826 0.83015 0.0
C279 C 0.37112 0.67139 0.84512 0.0
H280 H 0.35986 0.7124 0.81126 0.0
C281 C 0.26841 0.7451 0.83153 0.0
C282 C 0.27429 0.77207 0.82518 0.0
C283 C 0.29144 0.72483 0.83413 0.0
C284 C 0.36293 0.70133 0.82083 0.0
H285 H 0.43165 0.57786 0.85129 0.0
H286 H 0.38964 0.61144 0.84736 0.0
H287 H 0.39868 0.67472 0.81334 0.0
H288 H 0.30928 0.79943 0.81711 0.0
H289 H 0.34936 0.76397 0.82161 0.0
H290 H 0.33486 0.69781 0.85247 0.0
C291 C 0.41093 0.61671 0.84313 0.0
C292 C 0.38518 0.67972 0.82203 0.0
C293 C 0.43493 0.59729 0.84527 0.0
C294 C 0.30394 0.77887 0.822 0.0
C295 C 0.32687 0.75847 0.82447 0.0
C296 C 0.34864 0.69283 0.84387 0.0
C297 C 0.41451 0.64274 0.83574 0.0
C298 C 0.38976 0.66463 0.83423 0.0
C299 C 0.32073 0.73098 0.8303 0.0
C300 C 0.3445 0.7082 0.83175 0.0
H301 H 0.4876 0.63425 0.82806 0.0
H302 H 0.44616 0.66824 0.82456 0.0
H303 H 0.37428 0.66061 0.85475 0.0
H304 H 0.24584 0.7392 0.83414 0.0
H305 H 0.28605 0.70378 0.83861 0.0
C306 C 0.61376 0.9703 0.08095 0.0
C307 C 0.62817 0.97616 0.0939 0.0
C308 C 0.60032 0.94223 0.07749 0.0
C309 C 0.55564 0.89077 0.07657 0.0
H310 H 0.58714 0.81587 0.08938 0.0
C311 C 0.48419 0.78254 0.0708 0.0
C312 C 0.49856 0.75605 0.06654 0.0
C313 C 0.50096 0.80827 0.07516 0.0
C314 C 0.57812 0.83655 0.08563 0.0
H315 H 0.64065 0.95686 0.11326 0.0
H316 H 0.61655 0.90823 0.10739 0.0
H317 H 0.61634 0.86236 0.09381 0.0
H318 H 0.54184 0.73542 0.06402 0.0
H319 H 0.57111 0.78054 0.07129 0.0
H320 H 0.518 0.86501 0.06797 0.0
C321 C 0.61607 0.92504 0.09976 0.0
C322 C 0.59473 0.86328 0.0883 0.0
C323 C 0.62981 0.95301 0.10316 0.0
C324 C 0.5301 0.75547 0.06728 0.0
C325 C 0.54689 0.78135 0.0715 0.0
C326 C 0.5392 0.86409 0.07381 0.0
C327 C 0.60065 0.91949 0.08698 0.0
C328 C 0.58365 0.89075 0.08382 0.0
C329 C 0.5325 0.80827 0.07519 0.0
C330 C 0.55011 0.83663 0.07836 0.0
H331 H 0.61238 0.98759 0.07354 0.0
H332 H 0.58929 0.93853 0.06743 0.0
H333 H 0.5461 0.91151 0.07315 0.0
H334 H 0.45992 0.78361 0.07049 0.0
H335 H 0.48912 0.82834 0.07828 0.0
C336 C 0.11733 0.74128 0.00088 0.0
C337 C 0.10374 0.71481 0.99488 0.0
C338 C 0.14515 0.74034 0.00804 0.0
C339 C 0.19856 0.69079 0.02551 0.0
H340 H 0.258 0.74833 0.01493 0.0
C341 C 0.32622 0.68136 0.03915 0.0
C342 C 0.34339 0.7081 0.04077 0.0
C343 C 0.29552 0.68223 0.03544 0.0
C344 C 0.24162 0.73246 0.01826 0.0
H345 H 0.10818 0.66642 0.99215 0.0
H346 H 0.15684 0.66483 0.00473 0.0
H347 H 0.20709 0.74978 0.00506 0.0
H348 H 0.34163 0.75673 0.04087 0.0
H349 H 0.28808 0.75839 0.03503 0.0
H350 H 0.23318 0.67351 0.03877 0.0
C351 C 0.14588 0.68627 0.00388 0.0
C352 C 0.2124 0.73325 0.01253 0.0
C353 C 0.11812 0.68723 0.9966 0.0
C354 C 0.329 0.73573 0.03951 0.0
C355 C 0.29833 0.73664 0.03604 0.0
C356 C 0.22783 0.69017 0.03138 0.0
C357 C 0.15991 0.71289 0.00946 0.0
C358 C 0.19058 0.71238 0.01604 0.0
C359 C 0.28137 0.70989 0.03345 0.0
C360 C 0.24978 0.71097 0.02779 0.0
H361 H 0.10681 0.76288 -0.0002 0.0
H362 H 0.15529 0.76117 0.01236 0.0
H363 H 0.1821 0.67454 0.02846 0.0
H364 H 0.3368 0.65973 0.04001 0.0
H365 H 0.28328 0.66115 0.03347 0.0
C366 C 0.56491 0.60291 0.22965 0.0
C367 C 0.5395 0.58388 0.2296 0.0
C368 C 0.56413 0.63235 0.23525 0.0
C369 C 0.51142 0.69257 0.2443 0.0
H370 H 0.58071 0.72714 0.26523 0.0
C371 C 0.51037 0.80901 0.27355 0.0
C372 C 0.53602 0.8275 0.2729 0.0
C373 C 0.51012 0.77929 0.26818 0.0
C374 C 0.56129 0.7179 0.25929 0.0
H375 H 0.49346 0.58073 0.23563 0.0
H376 H 0.49224 0.63201 0.24558 0.0
H377 H 0.58167 0.67497 0.25646 0.0
H378 H 0.58129 0.82939 0.26578 0.0
H379 H 0.58073 0.77773 0.25635 0.0
H380 H 0.49105 0.73558 0.24718 0.0
C381 C 0.51263 0.6243 0.24108 0.0
C382 C 0.56184 0.688 0.25426 0.0
C383 C 0.5134 0.59484 0.23545 0.0
C384 C 0.56119 0.81577 0.26652 0.0
C385 C 0.56096 0.78607 0.26119 0.0
C386 C 0.51085 0.72248 0.24936 0.0
C387 C 0.53794 0.64345 0.24097 0.0
C388 C 0.53698 0.67502 0.24664 0.0
C389 C 0.53555 0.76741 0.26207 0.0
C390 C 0.53585 0.73552 0.25684 0.0
H391 H 0.58536 0.59522 0.22518 0.0
H392 H 0.58389 0.64662 0.23484 0.0
H393 H 0.49206 0.68339 0.2383 0.0
H394 H 0.4906 0.81731 0.27841 0.0
H395 H 0.49028 0.76539 0.2691 0.0
C396 C 0.61041 0.10399 0.5073 0.0
C397 C 0.62014 0.0809 0.49832 0.0
C398 C 0.58826 0.09827 0.51651 0.0
C399 C 0.54963 0.03661 0.53315 0.0
H400 H 0.48353 0.09211 0.53474 0.0
C401 C 0.43186 0.00268 0.54855 0.0
C402 C 0.41364 0.02427 0.55484 0.0
C403 C 0.46064 0.01042 0.54481 0.0
C404 C 0.50208 0.07667 0.5347 0.0
H405 H 0.61458 0.03355 0.49216 0.0
H406 H 0.57593 0.02368 0.50812 0.0
H407 H 0.52701 0.10436 0.52191 0.0
H408 H 0.41222 0.07036 0.56306 0.0
H409 H 0.46274 0.0838 0.55668 0.0
H410 H 0.52434 0.00855 0.54565 0.0
C411 C 0.5856 0.04614 0.50816 0.0
C412 C 0.52701 0.08368 0.52729 0.0
C413 C 0.6076 0.05187 0.49892 0.0
C414 C 0.42564 0.05323 0.55818 0.0
C415 C 0.4545 0.061 0.55442 0.0
C416 C 0.52474 0.02963 0.5406 0.0
C417 C 0.57551 0.0693 0.51699 0.0
C418 C 0.55073 0.06341 0.52616 0.0
C419 C 0.47194 0.03995 0.54728 0.0
C420 C 0.50032 0.04924 0.54118 0.0
H421 H 0.61967 0.12659 0.50714 0.0
H422 H 0.58112 0.11654 0.52326 0.0
H423 H 0.56782 0.02078 0.53268 0.0
H424 H 0.42334 0.98014 0.54585 0.0
H425 H 0.47328 0.99366 0.53924 0.0
C426 C 0.15462 0.13466 0.7596 0.0
C427 C 0.17613 0.14246 0.75031 0.0
C428 C 0.1594 0.11052 0.76803 0.0
C429 C 0.21926 0.06319 0.78255 0.0
H430 H 0.15567 0.00367 0.78475 0.0
C431 C 0.24146 0.94197 0.79722 0.0
C432 C 0.21967 0.92609 0.80397 0.0
C433 C 0.23631 0.97133 0.79341 0.0
C434 C 0.1735 0.02036 0.78452 0.0
H435 H 0.21959 0.13108 0.74267 0.0
H436 H 0.22783 0.08906 0.75733 0.0
H437 H 0.14588 0.0492 0.77255 0.0
H438 H 0.17613 0.92928 0.8128 0.0
H439 H 0.1673 0.98087 0.80631 0.0
H440 H 0.24706 0.03419 0.79431 0.0
C441 C 0.2074 0.10175 0.75818 0.0
C442 C 0.16789 0.04643 0.77747 0.0
C443 C 0.20254 0.12569 0.74969 0.0
C444 C 0.19334 0.94088 0.80757 0.0
C445 C 0.18817 0.97035 0.80374 0.0
C446 C 0.22484 0.03722 0.78965 0.0
C447 C 0.18589 0.09386 0.76744 0.0
C448 C 0.19092 0.06778 0.77613 0.0
C449 C 0.20925 0.98561 0.79628 0.0
C450 C 0.20224 0.01512 0.79045 0.0
H451 H 0.13405 0.14716 0.76034 0.0
H452 H 0.14248 0.10506 0.77511 0.0
H453 H 0.2373 0.07953 0.78191 0.0
H454 H 0.26201 0.93127 0.7943 0.0
H455 H 0.25294 0.98221 0.78756 0.0
C456 C 0.62065 0.58685 0.83047 0.0
C457 C 0.60611 0.56183 0.83551 0.0
C458 C 0.64448 0.583 0.82183 0.0
C459 C 0.68335 0.52521 0.80036 0.0
H460 H 0.751 0.58063 0.80669 0.0
C461 C 0.80484 0.49907 0.78624 0.0
C462 C 0.82253 0.52247 0.78159 0.0
C463 C 0.7755 0.50436 0.79002 0.0
C464 C 0.7321 0.56525 0.80461 0.0
H465 H 0.60495 0.51309 0.83534 0.0
H466 H 0.64709 0.50635 0.82069 0.0
H467 H 0.70575 0.58908 0.81906 0.0
H468 H 0.82265 0.56932 0.77644 0.0
H469 H 0.77143 0.57857 0.78314 0.0
H470 H 0.7106 0.50066 0.78636 0.0
C471 C 0.63968 0.52899 0.82308 0.0
C472 C 0.70606 0.5701 0.8117 0.0
C473 C 0.61562 0.53284 0.83158 0.0
C474 C 0.80963 0.55081 0.78 0.0
C475 C 0.78038 0.55619 0.78392 0.0
C476 C 0.70958 0.52019 0.79338 0.0
C477 C 0.65461 0.55403 0.81817 0.0
C478 C 0.68145 0.54995 0.80981 0.0
C479 C 0.76334 0.53324 0.78934 0.0
C480 C 0.73435 0.53999 0.79555 0.0
H481 H 0.61364 0.60948 0.83319 0.0
H482 H 0.65499 0.60281 0.81806 0.0
H483 H 0.66467 0.50953 0.79843 0.0
H484 H 0.8141 0.47696 0.78755 0.0
H485 H 0.76299 0.48627 0.79422 0.0
C486 C 0.69627 0.1047 0.07024 0.0
C487 C 0.68026 0.10984 0.08212 0.0
C488 C 0.70028 0.12768 0.06123 0.0
C489 C 0.67299 0.20343 0.05239 0.0
H490 H 0.75258 0.21285 0.03883 0.0
C491 C 0.70301 0.30704 0.02282 0.0
C492 C 0.7302 0.32144 0.02738 0.0
C493 C 0.69668 0.27765 0.0264 0.0
C494 C 0.73022 0.21056 0.04252 0.0
H495 H 0.65532 0.143 0.09369 0.0
H496 H 0.66283 0.18319 0.0782 0.0
H497 H 0.74077 0.16905 0.0516 0.0
H498 H 0.77292 0.3155 0.03842 0.0
H499 H 0.76179 0.26473 0.04481 0.0
H500 H 0.66297 0.24579 0.04403 0.0
C501 C 0.67185 0.16126 0.07566 0.0
C502 C 0.72331 0.18522 0.04972 0.0
C503 C 0.6677 0.13824 0.08462 0.0
C504 C 0.75174 0.30511 0.03475 0.0
C505 C 0.74537 0.27583 0.03838 0.0
C506 C 0.67995 0.22884 0.04526 0.0
C507 C 0.6885 0.1564 0.06393 0.0
C508 C 0.6948 0.18166 0.05501 0.0
C509 C 0.71737 0.26208 0.03465 0.0
C510 C 0.70886 0.23307 0.04049 0.0
H511 H 0.70605 0.083 0.06795 0.0
H512 H 0.71281 0.12297 0.0522 0.0
H513 H 0.65064 0.20118 0.0561 0.0
H514 H 0.686 0.31893 0.01705 0.0
H515 H 0.67515 0.26752 0.02311 0.0
C516 C 0.13165 0.19736 0.35232 0.0
C517 C 0.13731 0.17265 0.36042 0.0
C518 C 0.10283 0.20205 0.34662 0.0
C519 C 0.02311 0.18218 0.3506 0.0
H520 H 0.01239 0.20573 0.31309 0.0
C521 C 0.90884 0.17426 0.32049 0.0
C522 C 0.90115 0.19737 0.31175 0.0
C523 C 0.9374 0.17352 0.32697 0.0
C524 C 0.01503 0.19958 0.32364 0.0
H525 H 0.1172 0.13333 0.36877 0.0
H526 H 0.06712 0.14131 0.35869 0.0
H527 H 0.06296 0.19975 0.32318 0.0
H528 H 0.91738 0.23819 0.30316 0.0
H529 H 0.96731 0.23692 0.31455 0.0
H530 H 0.97519 0.18164 0.35101 0.0
C531 C 0.08482 0.15734 0.35692 0.0
C532 C 0.044 0.19613 0.32942 0.0
C533 C 0.1136 0.15265 0.36262 0.0
C534 C 0.92257 0.22004 0.30982 0.0
C535 C 0.95123 0.21923 0.31627 0.0
C536 C 0.99417 0.1856 0.34483 0.0
C537 C 0.07906 0.18215 0.3489 0.0
C538 C 0.04835 0.18708 0.34292 0.0
C539 C 0.95901 0.19583 0.32484 0.0
C540 C 0.98979 0.19403 0.33124 0.0
H541 H 0.14942 0.21325 0.35047 0.0
H542 H 0.09907 0.22153 0.3406 0.0
H543 H 0.0257 0.17576 0.36112 0.0
H544 H 0.89292 0.15641 0.32222 0.0
H545 H 0.94279 0.15498 0.33337 0.0
C546 C 0.05688 0.61363 0.59374 0.0
C547 C 0.0442 0.63931 0.58816 0.0
C548 C 0.058 0.58668 0.58586 0.0
C549 C 0.02045 0.54596 0.55608 0.0
H550 H 0.08754 0.49219 0.56051 0.0
C551 C 0.06109 0.41856 0.53749 0.0
C552 C 0.0346 0.40257 0.53981 0.0
C553 C 0.06344 0.44952 0.54076 0.0
C554 C 0.06882 0.50709 0.55895 0.0
H555 H 0.0233 0.65699 0.56981 0.0
H556 H 0.02539 0.60987 0.55602 0.0
H557 H 0.09075 0.54277 0.57128 0.0
H558 H 0.98932 0.40676 0.54673 0.0
H559 H 0.99348 0.46039 0.5525 0.0
H560 H 0.99843 0.51017 0.54385 0.0
C561 C 0.03419 0.61055 0.56655 0.0
C562 C 0.07051 0.53596 0.56528 0.0
C563 C 0.03309 0.63757 0.57444 0.0
C564 C 0.01008 0.41838 0.54485 0.0
C565 C 0.0124 0.44924 0.54807 0.0
C566 C 0.01876 0.51709 0.54975 0.0
C567 C 0.04648 0.58474 0.5722 0.0
C568 C 0.04607 0.55546 0.56419 0.0
C569 C 0.03929 0.46508 0.54634 0.0
C570 C 0.04264 0.49706 0.55139 0.0
H571 H 0.06561 0.61417 0.60427 0.0
H572 H 0.06717 0.56711 0.59061 0.0
H573 H 0.00116 0.56034 0.55508 0.0
H574 H 0.08034 0.40703 0.53358 0.0
H575 H 0.08435 0.46117 0.53916 0.0
C576 C 0.76429 0.16115 0.48125 0.0
C577 C 0.76039 0.12976 0.47978 0.0
C578 C 0.79267 0.17394 0.48437 0.0
C579 C 0.8682 0.1582 0.49892 0.0
H580 H 0.88977 0.22988 0.48042 0.0
C581 C 0.9836 0.21844 0.50894 0.0
C582 C 0.98202 0.24972 0.51158 0.0
C583 C 0.95837 0.20199 0.50356 0.0
C584 C 0.88404 0.20992 0.48569 0.0
H585 H 0.78321 0.08712 0.48072 0.0
H586 H 0.83298 0.10957 0.48614 0.0
H587 H 0.84193 0.2043 0.47436 0.0
H588 H 0.9531 0.28838 0.51013 0.0
H589 H 0.90934 0.25978 0.50078 0.0
H590 H 0.91021 0.16417 0.51039 0.0
C591 C 0.81395 0.12424 0.48493 0.0
C592 C 0.85662 0.19532 0.48226 0.0
C593 C 0.78546 0.11139 0.4818 0.0
C594 C 0.95509 0.26431 0.50825 0.0
C595 C 0.93002 0.24794 0.50281 0.0
C596 C 0.89571 0.17281 0.50234 0.0
C597 C 0.8179 0.15568 0.48608 0.0
C598 C 0.8481 0.16965 0.48902 0.0
C599 C 0.93121 0.21655 0.50061 0.0
C600 C 0.90364 0.19916 0.49594 0.0
H601 H 0.74544 0.17596 0.47985 0.0
H602 H 0.79483 0.19822 0.48547 0.0
H603 H 0.86221 0.1386 0.50438 0.0
H604 H 0.00402 0.20653 0.51139 0.0
H605 H 0.96001 0.17785 0.50185 0.0
C606 C 0.16622 0.33238 0.73539 0.0
C607 C 0.1605 0.30204 0.73785 0.0
C608 C 0.14563 0.35452 0.73898 0.0
C609 C 0.07884 0.36895 0.75953 0.0
H610 H 0.06091 0.42819 0.73267 0.0
C611 C 0.97472 0.44367 0.76227 0.0
C612 C 0.97967 0.47456 0.76076 0.0
C613 C 0.99692 0.42292 0.75913 0.0
C614 C 0.06583 0.41193 0.74031 0.0
H615 H 0.1293 0.27142 0.7466 0.0
H616 H 0.09347 0.30974 0.75266 0.0
H617 H 0.10089 0.39232 0.72887 0.0
H618 H 0.0113 0.50769 0.75416 0.0
H619 H 0.04986 0.47143 0.7486 0.0
H620 H 0.04343 0.3883 0.77084 0.0
C621 C 0.11391 0.31662 0.74809 0.0
C622 C 0.08885 0.39147 0.73818 0.0
C623 C 0.13447 0.29456 0.74455 0.0
C624 C 0.00676 0.48406 0.75547 0.0
C625 C 0.02885 0.46329 0.75224 0.0
C626 C 0.05572 0.38927 0.7616 0.0
C627 C 0.1189 0.34678 0.74509 0.0
C628 C 0.09556 0.36963 0.74774 0.0
C629 C 0.02443 0.43258 0.75432 0.0
C630 C 0.04886 0.41089 0.75199 0.0
H631 H 0.18609 0.33894 0.73028 0.0
H632 H 0.15044 0.37763 0.73675 0.0
H633 H 0.08369 0.35277 0.76721 0.0
H634 H 0.95412 0.43557 0.76631 0.0
H635 H 0.9927 0.39931 0.76063 0.0
C636 C 0.95967 0.64181 0.00389 0.0
C637 C 0.95887 0.65699 0.99165 0.0
C638 C 0.93577 0.62305 0.00692 0.0
C639 C 0.85668 0.60071 0.99609 0.0
H640 H 0.87925 0.52639 0.01258 0.0
C641 C 0.80408 0.47539 0.00711 0.0
C642 C 0.77551 0.48385 0.01117 0.0
C643 C 0.82547 0.49722 0.00433 0.0
C644 C 0.87252 0.54682 0.0078 0.0
H645 H 0.93176 0.66542 0.97325 0.0
H646 H 0.8906 0.63214 0.9783 0.0
H647 H 0.91757 0.56389 0.00894 0.0
H648 H 0.74687 0.52191 0.01532 0.0
H649 H 0.78431 0.55987 0.01091 0.0
H650 H 0.8118 0.58294 0.99435 0.0
C651 C 0.90934 0.63506 0.98574 0.0
C652 C 0.8945 0.56868 0.00595 0.0
C653 C 0.93306 0.65414 0.9828 0.0
C654 C 0.76861 0.51458 0.01212 0.0
C655 C 0.7901 0.53641 0.00953 0.0
C656 C 0.83472 0.57868 0.99779 0.0
C657 C 0.91068 0.6187 0.99768 0.0
C658 C 0.88691 0.59596 8e-05 0.0
C659 C 0.81895 0.52806 0.00574 0.0
C660 C 0.84234 0.55141 0.00367 0.0
H661 H 0.97915 0.64375 0.01096 0.0
H662 H 0.93728 0.61148 0.01639 0.0
H663 H 0.84987 0.62152 0.99166 0.0
H664 H 0.81003 0.45188 0.00618 0.0
H665 H 0.84719 0.48987 0.00114 0.0
C666 C 0.61629 0.45478 0.25276 0.0
C667 C 0.60103 0.44701 0.24014 0.0
C668 C 0.63376 0.43369 0.25948 0.0
C669 C 0.65123 0.35225 0.2602 0.0
H670 H 0.73004 0.38219 0.27338 0.0
C671 C 0.77646 0.30334 0.27228 0.0
C672 C 0.76968 0.27827 0.2798 0.0
C673 C 0.75451 0.32441 0.26926 0.0
C674 C 0.70814 0.37346 0.26975 0.0
H675 H 0.59092 0.41048 0.22503 0.0
H676 H 0.62167 0.37377 0.23668 0.0
H677 H 0.693 0.41708 0.26473 0.0
H678 H 0.73466 0.25603 0.29033 0.0
H679 H 0.69628 0.29302 0.2851 0.0
H680 H 0.66692 0.30841 0.26474 0.0
C681 C 0.61993 0.39611 0.24146 0.0
C682 C 0.68674 0.39352 0.26493 0.0
C683 C 0.60236 0.41721 0.23475 0.0
C684 C 0.7406 0.2751 0.28451 0.0
C685 C 0.71856 0.29617 0.28144 0.0
C686 C 0.67266 0.33216 0.26504 0.0
C687 C 0.63647 0.40433 0.25373 0.0
C688 C 0.65815 0.38313 0.25992 0.0
C689 C 0.7252 0.32091 0.27366 0.0
C690 C 0.70154 0.34248 0.26966 0.0
H691 H 0.61553 0.47747 0.25727 0.0
H692 H 0.64572 0.44059 0.26905 0.0
H693 H 0.62934 0.34355 0.25654 0.0
H694 H 0.79862 0.30643 0.26847 0.0
H695 H 0.7603 0.34298 0.2631 0.0
C696 C 0.26982 0.09315 0.41015 0.0
C697 C 0.24839 0.11507 0.40726 0.0
C698 C 0.27216 0.08114 0.42307 0.0
C699 C 0.23401 0.07647 0.45599 0.0
H700 H 0.31554 0.06848 0.47092 0.0
C701 C 0.26538 0.06892 0.5139 0.0
C702 C 0.28692 0.04754 0.5175 0.0
C703 C 0.25889 0.07451 0.50014 0.0
C704 C 0.29263 0.07026 0.46684 0.0
H705 H 0.21171 0.14064 0.41546 0.0
H706 H 0.21628 0.12035 0.43806 0.0
H707 H 0.30695 0.08195 0.4473 0.0
H708 H 0.31824 0.01504 0.50945 0.0
H709 H 0.30702 0.02502 0.48552 0.0
H710 H 0.21992 0.06567 0.47581 0.0
C711 C 0.23098 0.11196 0.43032 0.0
C712 C 0.28766 0.07785 0.45327 0.0
C713 C 0.22844 0.12373 0.41735 0.0
C714 C 0.30158 0.03171 0.50705 0.0
C715 C 0.29526 0.03748 0.49334 0.0
C716 C 0.23902 0.06913 0.46963 0.0
C717 C 0.25334 0.09103 0.43344 0.0
C718 C 0.2583 0.08118 0.44767 0.0
C719 C 0.27399 0.05905 0.48974 0.0
C720 C 0.2684 0.06607 0.4752 0.0
H721 H 0.28531 0.08578 0.40254 0.0
H722 H 0.28916 0.06453 0.42501 0.0
H723 H 0.2111 0.07844 0.45197 0.0
H724 H 0.25364 0.08144 0.5217 0.0
H725 H 0.24256 0.09145 0.49765 0.0
C726 C 0.09824 0.70877 0.6684 0.0
C727 C 0.11097 0.72537 0.65824 0.0
C728 C 0.10801 0.71352 0.68213 0.0
C729 C 0.16905 0.74684 0.70521 0.0
H730 H 0.10565 0.76036 0.73042 0.0
C731 C 0.1917 0.80557 0.75845 0.0
C732 C 0.17659 0.79466 0.76949 0.0
C733 C 0.1842 0.79481 0.74506 0.0
C734 C 0.12365 0.7562 0.72358 0.0
H735 H 0.14508 0.75872 0.65442 0.0
H736 H 0.16213 0.76693 0.67837 0.0
H737 H 0.09285 0.74398 0.70669 0.0
H738 H 0.14161 0.76396 0.77511 0.0
H739 H 0.12875 0.74491 0.75173 0.0
H740 H 0.19986 0.75927 0.72206 0.0
C741 C 0.14461 0.75025 0.67573 0.0
C742 C 0.11632 0.74679 0.70998 0.0
C743 C 0.13474 0.74563 0.66201 0.0
C744 C 0.15359 0.77294 0.76683 0.0
C745 C 0.14617 0.76207 0.75342 0.0
C746 C 0.17641 0.75612 0.71882 0.0
C747 C 0.13084 0.73479 0.68596 0.0
C748 C 0.13892 0.74236 0.70062 0.0
C749 C 0.16151 0.77278 0.74239 0.0
C750 C 0.15377 0.76131 0.72812 0.0
H751 H 0.07995 0.6929 0.66584 0.0
H752 H 0.09728 0.70098 0.68979 0.0
H753 H 0.18696 0.74324 0.69826 0.0
H754 H 0.20942 0.82243 0.76013 0.0
H755 H 0.19606 0.80398 0.73679 0.0
C756 C 0.51338 0.64464 0.89799 0.0
C757 C 0.53052 0.61899 0.89522 0.0
C758 C 0.50938 0.65493 0.91149 0.0
C759 C 0.53602 0.64691 0.94775 0.0
H760 H 0.45294 0.66313 0.95499 0.0
C761 C 0.49134 0.6469 0.00208 0.0
C762 C 0.47098 0.66939 0.00574 0.0
C763 C 0.50008 0.64319 0.98859 0.0
C764 C 0.47631 0.65909 0.95314 0.0
H765 H 0.55871 0.58535 0.90445 0.0
H766 H 0.55151 0.60309 0.92794 0.0
H767 H 0.46724 0.65424 0.9315 0.0
H768 H 0.44376 0.70555 0.99805 0.0
H769 H 0.45909 0.69909 0.97457 0.0
H770 H 0.54488 0.65119 0.96947 0.0
C771 C 0.54124 0.61539 0.9197 0.0
C772 C 0.48456 0.65409 0.93966 0.0
C773 C 0.54528 0.60513 0.90621 0.0
C774 C 0.45939 0.68792 0.99559 0.0
C775 C 0.46811 0.68417 0.98211 0.0
C776 C 0.52775 0.65188 0.96125 0.0
C777 C 0.52243 0.63979 0.92251 0.0
C778 C 0.51445 0.64766 0.93679 0.0
C779 C 0.48863 0.66184 0.97846 0.0
C780 C 0.49774 0.65773 0.96411 0.0
H781 H 0.5019 0.65601 0.88976 0.0
H782 H 0.49528 0.6742 0.9133 0.0
H783 H 0.55929 0.64236 0.94588 0.0
H784 H 0.50069 0.63223 0.00964 0.0
H785 H 0.51558 0.62548 0.98607 0.0
C786 C 0.60718 0.06844 0.16022 0.0
C787 C 0.60006 0.04504 0.15035 0.0
C788 C 0.59888 0.06627 0.17374 0.0
C789 C 0.55263 0.02125 0.19638 0.0
H790 H 0.6183 0.0393 0.22312 0.0
C791 C 0.59894 0.97588 0.25083 0.0
C792 C 0.57207 0.9734 0.25762 0.0
C793 C 0.59986 0.99137 0.2388 0.0
C794 C 0.5997 0.03419 0.2158 0.0
H795 H 0.57677 0.00205 0.14674 0.0
H796 H 0.56272 0.99809 0.17022 0.0
H797 H 0.62247 0.05377 0.19965 0.0
H798 H 0.52541 0.9865 0.25744 0.0
H799 H 0.5271 0.01388 0.23646 0.0
H800 H 0.53066 2e-05 0.21235 0.0
C801 C 0.57449 0.01825 0.16757 0.0
C802 C 0.60191 0.04285 0.20235 0.0
C803 C 0.58273 0.02044 0.15408 0.0
C804 C 0.54644 0.9879 0.25242 0.0
C805 C 0.54736 0.00343 0.24036 0.0
C806 C 0.55047 0.0125 0.20982 0.0
C807 C 0.58327 0.04068 0.17768 0.0
C808 C 0.57876 0.03575 0.19238 0.0
C809 C 0.57394 0.00483 0.23325 0.0
C810 C 0.57435 0.01811 0.2196 0.0
H811 H 0.62036 0.08781 0.15768 0.0
H812 H 0.60554 0.0842 0.18121 0.0
H813 H 0.53419 0.01582 0.18901 0.0
H814 H 0.6191 0.96497 0.25454 0.0
H815 H 0.62062 0.9916 0.23353 0.0
C816 C 0.99234 0.76549 0.92466 0.0
C817 C 0.0113 0.76605 0.9366 0.0
C818 C 0.00143 0.77908 0.91297 0.0
C819 C 0.05667 0.82951 0.89851 0.0
H820 H 0.05694 0.7674 0.86933 0.0
C821 C 0.13493 0.83423 0.85315 0.0
C822 C 0.12679 0.81758 0.84095 0.0
C823 C 0.11641 0.83392 0.86429 0.0
C824 C 0.05644 0.78548 0.87712 0.0
H825 H 0.05322 0.78411 0.94605 0.0
H826 H 0.06893 0.80807 0.9256 0.0
H827 H 0.03137 0.75812 0.88992 0.0
H828 H 0.09199 0.78987 0.83027 0.0
H829 H 0.05871 0.79101 0.84921 0.0
H830 H 0.0818 0.85696 0.88567 0.0
C831 C 0.04716 0.79689 0.9253 0.0
C832 C 0.04181 0.78001 0.88901 0.0
C833 C 0.03819 0.78306 0.93699 0.0
C834 C 0.09891 0.80254 0.83967 0.0
C835 C 0.08002 0.80297 0.85061 0.0
C836 C 0.07093 0.83527 0.88645 0.0
C837 C 0.02949 0.7938 0.91301 0.0
C838 C 0.04213 0.80172 0.89991 0.0
C839 C 0.08905 0.8175 0.86329 0.0
C840 C 0.07144 0.8131 0.87565 0.0
H841 H 0.97135 0.75285 0.92402 0.0
H842 H 0.98722 0.7767 0.90366 0.0
H843 H 0.05721 0.84664 0.90679 0.0
H844 H 0.15646 0.84588 0.85438 0.0
H845 H 0.1244 0.84522 0.87385 0.0
C846 C 0.48308 0.50689 0.17112 0.0
C847 C 0.50205 0.4819 0.17149 0.0
C848 C 0.47114 0.51649 0.15861 0.0
C849 C 0.49475 0.51862 0.12399 0.0
H850 H 0.41653 0.55166 0.11532 0.0
C851 C 0.47513 0.57908 0.07429 0.0
C852 C 0.45825 0.60541 0.07492 0.0
C853 C 0.47483 0.55914 0.08485 0.0
C854 C 0.43858 0.54277 0.11761 0.0
H855 H 0.52084 0.44568 0.15911 0.0
H856 H 0.50017 0.46258 0.13735 0.0
H857 H 0.42507 0.52508 0.13643 0.0
H858 H 0.42686 0.63109 0.08677 0.0
H859 H 0.42745 0.59719 0.1056 0.0
H860 H 0.50919 0.53762 0.10587 0.0
C861 C 0.49484 0.47491 0.14673 0.0
C862 C 0.44335 0.52738 0.12967 0.0
C863 C 0.50658 0.46519 0.15922 0.0
C864 C 0.43999 0.61083 0.08602 0.0
C865 C 0.44026 0.59125 0.09679 0.0
C866 C 0.49019 0.53435 0.11212 0.0
C867 C 0.47808 0.50136 0.14625 0.0
C868 C 0.47156 0.5153 0.13299 0.0
C869 C 0.45835 0.56551 0.09653 0.0
C870 C 0.46211 0.54686 0.10876 0.0
H871 H 0.47899 0.52019 0.1804 0.0
H872 H 0.45831 0.53697 0.15855 0.0
H873 H 0.51694 0.51016 0.12642 0.0
H874 H 0.48909 0.57417 0.06574 0.0
H875 H 0.48823 0.53911 0.084 0.0
C876 C 0.68906 0.99277 0.42862 0.0
C877 C 0.66642 0.99195 0.4381 0.0
C878 C 0.68486 0.97808 0.4157 0.0
C879 C 0.63551 0.92416 0.3944 0.0
H880 H 0.65045 0.97838 0.3656 0.0
C881 C 0.57188 0.9148 0.34183 0.0
C882 C 0.58683 0.92211 0.3301 0.0
C883 C 0.58622 0.91854 0.35482 0.0
C884 C 0.64667 0.96264 0.37345 0.0
H885 H 0.62279 0.97285 0.44187 0.0
H886 H 0.61542 0.9474 0.41935 0.0
H887 H 0.66834 0.9919 0.38899 0.0
H888 H 0.62897 0.93831 0.32284 0.0
H889 H 0.65409 0.94468 0.34556 0.0
H890 H 0.613 0.89532 0.37886 0.0
C891 C 0.63643 0.95936 0.42188 0.0
C892 C 0.65698 0.97038 0.38688 0.0
C893 C 0.6406 0.97409 0.43479 0.0
C894 C 0.61673 0.93265 0.33166 0.0
C895 C 0.6311 0.93638 0.34468 0.0
C896 C 0.62525 0.91637 0.38094 0.0
C897 C 0.658 0.96217 0.41201 0.0
C898 C 0.65091 0.95158 0.39756 0.0
C899 C 0.6159 0.92964 0.35642 0.0
C900 C 0.63006 0.93589 0.37037 0.0
H901 H 0.70936 0.0061 0.43088 0.0
H902 H 0.70213 0.98018 0.4084 0.0
H903 H 0.63084 0.90902 0.40238 0.0
H904 H 0.54885 0.90661 0.34103 0.0
H905 H 0.57366 0.9136 0.36364 0.0
C906 C 0.26522 0.20276 0.68827 0.0
C907 C 0.25129 0.23079 0.68965 0.0
C908 C 0.27966 0.19451 0.67634 0.0
C909 C 0.2751 0.21259 0.63988 0.0
H910 H 0.3312 0.1471 0.63725 0.0
C911 C 0.32455 0.12078 0.59717 0.0
C912 C 0.29725 0.11428 0.58973 0.0
C913 C 0.32556 0.14097 0.60866 0.0
C914 C 0.31596 0.16581 0.63771 0.0
H915 H 0.24455 0.27346 0.68033 0.0
H916 H 0.27108 0.25975 0.65982 0.0
H917 H 0.3245 0.17294 0.65934 0.0
H918 H 0.24985 0.12461 0.58826 0.0
H919 H 0.25138 0.15884 0.60827 0.0
H920 H 0.26686 0.20579 0.61826 0.0
C921 C 0.26968 0.2435 0.66764 0.0
C922 C 0.31177 0.18039 0.65046 0.0
C923 C 0.25471 0.25153 0.67947 0.0
C924 C 0.27129 0.12912 0.59372 0.0
C925 C 0.27224 0.14906 0.60519 0.0
C926 C 0.27965 0.19837 0.62713 0.0
C927 C 0.28099 0.21431 0.6656 0.0
C928 C 0.29031 0.20313 0.65182 0.0
C929 C 0.29927 0.15499 0.61295 0.0
C930 C 0.2991 0.17389 0.62596 0.0
H931 H 0.26299 0.18622 0.69592 0.0
H932 H 0.28779 0.17177 0.67522 0.0
H933 H 0.25824 0.22982 0.64039 0.0
H934 H 0.34499 0.10977 0.59433 0.0
H935 H 0.34684 0.14526 0.61428 0.0
C936 C 0.52335 0.47264 0.8957 0.0
C937 C 0.54512 0.47009 0.88582 0.0
C938 C 0.52798 0.45973 0.90834 0.0
C939 C 0.57518 0.40832 0.92852 0.0
H940 H 0.57232 0.4718 0.95699 0.0
C941 C 0.64573 0.40683 0.97955 0.0
C942 C 0.63637 0.42368 0.99102 0.0
C943 C 0.62875 0.40638 0.96712 0.0
C944 C 0.57257 0.45338 0.94935 0.0
H945 H 0.58721 0.4493 0.8809 0.0
H946 H 0.5951 0.42659 0.90294 0.0
H947 H 0.55181 0.48026 0.93418 0.0
H948 H 0.60075 0.45106 0.99891 0.0
H949 H 0.57028 0.44895 0.97753 0.0
H950 H 0.59626 0.38148 0.9437 0.0
C951 C 0.5746 0.43875 0.90095 0.0
C952 C 0.56083 0.45834 0.9362 0.0
C953 C 0.57012 0.4519 0.88834 0.0
C954 C 0.60869 0.43823 0.99015 0.0
C955 C 0.59138 0.43721 0.97784 0.0
C956 C 0.58657 0.40313 0.94179 0.0
C957 C 0.55425 0.44372 0.91129 0.0
C958 C 0.56261 0.43617 0.92557 0.0
C959 C 0.60173 0.42231 0.96598 0.0
C960 C 0.5861 0.4259 0.95231 0.0
H961 H 0.50373 0.48633 0.89407 0.0
H962 H 0.51174 0.46358 0.91609 0.0
H963 H 0.5767 0.39077 0.92052 0.0
H964 H 0.66707 0.39548 0.97993 0.0
H965 H 0.63776 0.39488 0.95826 0.0
C966 C 0.74558 0.07735 0.15173 0.0
C967 C 0.73714 0.04724 0.14844 0.0
C968 C 0.76198 0.08526 0.16391 0.0
C969 C 0.77631 0.05658 0.19843 0.0
H970 H 0.82143 0.1316 0.20353 0.0
C971 C 0.7875 0.12125 0.25074 0.0
C972 C 0.81185 0.14114 0.25378 0.0
C973 C 0.78413 0.10594 0.23793 0.0
C974 C 0.80948 0.11024 0.20239 0.0
H975 H 0.74164 0.00146 0.15473 0.0
H976 H 0.77156 0.01506 0.17574 0.0
H977 H 0.80879 0.11113 0.1806 0.0
H978 H 0.85274 0.15932 0.24619 0.0
H979 H 0.84791 0.13141 0.22415 0.0
H980 H 0.77802 0.05507 0.22022 0.0
C981 C 0.76443 0.03278 0.16918 0.0
C982 C 0.80172 0.09871 0.18914 0.0
C983 C 0.74752 0.02491 0.15707 0.0
C984 C 0.83349 0.14443 0.24402 0.0
C985 C 0.83056 0.12853 0.23134 0.0
C986 C 0.78469 0.06774 0.21169 0.0
C987 C 0.77089 0.06319 0.17303 0.0
C988 C 0.78399 0.07236 0.18697 0.0
C989 C 0.80546 0.10959 0.22796 0.0
C990 C 0.80041 0.09533 0.21388 0.0
H991 H 0.73794 0.09517 0.14532 0.0
H992 H 0.76601 0.10894 0.16649 0.0
H993 H 0.76256 0.03631 0.19727 0.0
H994 H 0.77041 0.11843 0.25808 0.0
H995 H 0.76416 0.09212 0.23573 0.0
C996 C 0.2484 0.25355 0.41264 0.0
C997 C 0.22806 0.26019 0.4018 0.0
C998 C 0.24393 0.26468 0.42598 0.0
C999 C 0.19943 0.31634 0.44767 0.0
H1000 H 0.19329 0.24729 0.47001 0.0
C1001 C 0.12349 0.31379 0.49372 0.0
C1002 C 0.13 0.29371 0.50403 0.0
C1003 C 0.14179 0.31527 0.48256 0.0
C1004 C 0.19556 0.26715 0.46418 0.0
H1005 H 0.18925 0.28664 0.39621 0.0
H1006 H 0.18161 0.30615 0.41947 0.0
H1007 H 0.21572 0.24178 0.44808 0.0
H1008 H 0.16204 0.26146 0.51146 0.0
H1009 H 0.19489 0.26525 0.49249 0.0
H1010 H 0.17887 0.34167 0.46375 0.0
C1011 C 0.20083 0.29215 0.41768 0.0
C1012 C 0.20844 0.2639 0.45151 0.0
C1013 C 0.20517 0.28084 0.40435 0.0
C1014 C 0.15627 0.27682 0.50353 0.0
C1015 C 0.17495 0.27883 0.49257 0.0
C1016 C 0.1869 0.31975 0.46049 0.0
C1017 C 0.21925 0.28291 0.42872 0.0
C1018 C 0.20992 0.28824 0.44298 0.0
C1019 C 0.16734 0.29713 0.48163 0.0
C1020 C 0.18413 0.29498 0.46879 0.0
H1021 H 0.26645 0.23792 0.41104 0.0
H1022 H 0.25875 0.25758 0.43427 0.0
H1023 H 0.20041 0.33552 0.4413 0.0
H1024 H 0.10328 0.327 0.49384 0.0
H1025 H 0.1349 0.32944 0.47434 0.0
C1026 C 0.95644 0.65781 0.64532 0.0
C1027 C 0.96713 0.68617 0.64193 0.0
C1028 C 0.94099 0.6546 0.65722 0.0
C1029 C 0.93788 0.69284 0.69131 0.0
H1030 H 0.88935 0.6224 0.69745 0.0
C1031 C 0.89702 0.61451 0.73791 0.0
C1032 C 0.92455 0.61511 0.74558 0.0
C1033 C 0.89392 0.62993 0.72579 0.0
C1034 C 0.90234 0.64261 0.69599 0.0
H1035 H 0.96697 0.73392 0.64757 0.0
H1036 H 0.93907 0.72847 0.66814 0.0
H1037 H 0.89542 0.63738 0.67422 0.0
H1038 H 0.96988 0.63365 0.74692 0.0
H1039 H 0.96487 0.65961 0.72583 0.0
H1040 H 0.94464 0.69821 0.71306 0.0
C1041 C 0.94361 0.70849 0.66186 0.0
C1042 C 0.90619 0.65097 0.6826 0.0
C1043 C 0.95938 0.71167 0.64998 0.0
C1044 C 0.94835 0.63267 0.74127 0.0
C1045 C 0.94535 0.64785 0.72917 0.0
C1046 C 0.93364 0.68477 0.70469 0.0
C1047 C 0.93547 0.67975 0.66598 0.0
C1048 C 0.92526 0.6753 0.68004 0.0
C1049 C 0.91834 0.64615 0.72107 0.0
C1050 C 0.91708 0.65866 0.70719 0.0
H1051 H 0.96177 0.63768 0.6393 0.0
H1052 H 0.9354 0.63204 0.65999 0.0
H1053 H 0.95275 0.71171 0.68985 0.0
H1054 H 0.87817 0.60132 0.741 0.0
H1055 H 0.87263 0.6285 0.71996 0.0
C1056 C 0.67709 0.13909 0.42628 0.0
C1057 C 0.65668 0.1148 0.42657 0.0
C1058 C 0.68472 0.15029 0.41381 0.0
C1059 C 0.66639 0.14954 0.37648 0.0
H1060 H 0.75282 0.14637 0.37398 0.0
C1061 C 0.73508 0.18004 0.32914 0.0
C1062 C 0.75551 0.15777 0.32524 0.0
C1063 C 0.71927 0.17758 0.34106 0.0
C1064 C 0.72867 0.14751 0.37455 0.0
H1065 H 0.62605 0.08527 0.41408 0.0
H1066 H 0.63935 0.10497 0.39233 0.0
H1067 H 0.73086 0.14006 0.39595 0.0
H1068 H 0.77456 0.11501 0.33054 0.0
H1069 H 0.74749 0.11113 0.35138 0.0
H1070 H 0.6645 0.15657 0.35487 0.0
C1071 C 0.64952 0.11522 0.40174 0.0
C1072 C 0.7161 0.14419 0.38714 0.0
C1073 C 0.642 0.10387 0.41422 0.0
C1074 C 0.75906 0.13259 0.33324 0.0
C1075 C 0.74366 0.13039 0.34521 0.0
C1076 C 0.67908 0.15337 0.36385 0.0
C1077 C 0.67193 0.13761 0.40139 0.0
C1078 C 0.68482 0.14469 0.38823 0.0
C1079 C 0.72407 0.15309 0.34936 0.0
C1080 C 0.7103 0.15173 0.36276 0.0
H1081 H 0.68862 0.14826 0.4356 0.0
H1082 H 0.70174 0.16789 0.41384 0.0
H1083 H 0.64221 0.15001 0.37704 0.0
H1084 H 0.73183 0.19968 0.32316 0.0
H1085 H 0.70427 0.19537 0.34409 0.0
C1086 C 0.12253 0.20382 0.67647 0.0
C1087 C 0.12353 0.22931 0.68556 0.0
C1088 C 0.11172 0.20594 0.66287 0.0
C1089 C 0.10909 0.22172 0.63303 0.0
H1090 H 0.04908 0.27999 0.62312 0.0
C1091 C 0.09622 0.26425 0.57834 0.0
C1092 C 0.06773 0.27282 0.57335 0.0
C1093 C 0.10074 0.25621 0.59191 0.0
C1094 C 0.06554 0.26321 0.62561 0.0
H1095 H 0.11294 0.27672 0.68765 0.0
H1096 H 0.09518 0.28064 0.66408 0.0
H1097 H 0.05825 0.26923 0.64695 0.0
H1098 H 0.02137 0.27864 0.57846 0.0
H1099 H 0.02884 0.2634 0.60186 0.0
H1100 H 0.11558 0.21489 0.61162 0.0
C1101 C 0.10199 0.25879 0.66737 0.0
C1102 C 0.07116 0.25737 0.63938 0.0
C1103 C 0.11242 0.25659 0.68094 0.0
C1104 C 0.04371 0.27255 0.58208 0.0
C1105 C 0.04807 0.26394 0.59555 0.0
C1106 C 0.10311 0.22718 0.61922 0.0
C1107 C 0.10196 0.23366 0.65807 0.0
C1108 C 0.0935 0.23708 0.64331 0.0
C1109 C 0.07672 0.25599 0.60072 0.0
C1110 C 0.08167 0.24846 0.61534 0.0
H1111 H 0.13081 0.18244 0.67974 0.0
H1112 H 0.1115 0.18597 0.65608 0.0
H1113 H 0.12667 0.20615 0.63563 0.0
H1114 H 0.11518 0.26437 0.57185 0.0
H1115 H 0.12325 0.25081 0.59555 0.0
C1116 C 0.02133 0.63391 0.92255 0.0
C1117 C 0.99642 0.63853 0.93059 0.0
C1118 C 0.01746 0.62181 0.90909 0.0
C1119 C 0.96184 0.58159 0.88481 0.0
H1120 H 0.00717 0.61869 0.8572 0.0
C1121 C 0.94787 0.54146 0.82806 0.0
C1122 C 0.94779 0.56349 0.81827 0.0
C1123 C 0.95611 0.54892 0.84176 0.0
C1124 C 0.99416 0.60825 0.86477 0.0
H1125 H 0.94803 0.63319 0.93095 0.0
H1126 H 0.94126 0.61279 0.90756 0.0
H1127 H 0.01711 0.63391 0.88126 0.0
H1128 H 0.95638 0.61066 0.81516 0.0
H1129 H 0.96986 0.62396 0.83919 0.0
H1130 H 0.93785 0.55704 0.86834 0.0
C1131 C 0.96386 0.61798 0.91163 0.0
C1132 C 0.0002 0.61663 0.8786 0.0
C1133 C 0.96774 0.62988 0.92506 0.0
C1134 C 0.9563 0.59316 0.82246 0.0
C1135 C 0.96424 0.60072 0.83623 0.0
C1136 C 0.95565 0.5734 0.871 0.0
C1137 C 0.98859 0.61418 0.9034 0.0
C1138 C 0.98388 0.60362 0.88878 0.0
C1139 C 0.96412 0.57869 0.84606 0.0
C1140 C 0.97156 0.58678 0.86079 0.0
H1141 H 0.04374 0.64027 0.92652 0.0
H1142 H 0.03704 0.61874 0.9031 0.0
H1143 H 0.94911 0.5708 0.89238 0.0
H1144 H 0.94176 0.5183 0.82515 0.0
H1145 H 0.95633 0.53125 0.84897 0.0
C1146 C 0.63312 0.49834 0.16893 0.0
C1147 C 0.62716 0.47271 0.17623 0.0
C1148 C 0.64509 0.49546 0.15602 0.0
C1149 C 0.68118 0.44148 0.13188 0.0
H1150 H 0.644 0.49075 0.1044 0.0
C1151 C 0.66473 0.44491 0.06925 0.0
C1152 C 0.69393 0.43782 0.06557 0.0
C1153 C 0.65848 0.45019 0.083 0.0
C1154 C 0.65445 0.47665 0.11192 0.0
H1155 H 0.63044 0.4241 0.176 0.0
H1156 H 0.65071 0.41904 0.15343 0.0
H1157 H 0.63096 0.49797 0.12814 0.0
H1158 H 0.73956 0.43102 0.07345 0.0
H1159 H 0.7288 0.44085 0.09736 0.0
H1160 H 0.70363 0.41923 0.11554 0.0
C1161 C 0.64656 0.44141 0.15771 0.0
C1162 C 0.64734 0.48113 0.12559 0.0
C1163 C 0.63479 0.44431 0.17065 0.0
C1164 C 0.71676 0.43624 0.07594 0.0
C1165 C 0.71057 0.44173 0.08967 0.0
C1166 C 0.68815 0.43688 0.11818 0.0
C1167 C 0.65118 0.4669 0.1501 0.0
C1168 C 0.66044 0.46344 0.13573 0.0
C1169 C 0.68135 0.44872 0.09338 0.0
C1170 C 0.67468 0.45424 0.10802 0.0
H1171 H 0.62771 0.52058 0.173 0.0
H1172 H 0.64899 0.51561 0.15056 0.0
H1173 H 0.69192 0.42767 0.13944 0.0
H1174 H 0.6466 0.44616 0.06152 0.0
H1175 H 0.63561 0.45501 0.0855 0.0
loop_
_geom_bond_atom_site_label_1
_geom_bond_atom_site_label_2
_geom_bond_distance
_geom_bond_site_symmetry_2
_ccdc_geom_bond_type
Mg0 O7 2.141 . S
Mg0 O8 2.048 . S
Mg0 O9 2.048 . S
Mg0 O12 2.141 . S
C1 O2 1.313 . S
C1 O8 1.195 . S
O2 C1 1.313 . S
C3 O4 1.245 . S
C3 O12 1.289 . S
O4 C3 1.245 . S
C5 O6 1.245 . S
C5 O7 1.289 . S
O6 C5 1.245 . S
O7 Mg0 2.141 . S
O7 C5 1.289 . S
O8 Mg0 2.048 . S
O8 C1 1.195 . S
O9 Mg0 2.048 . S
O9 C10 1.195 . S
C10 O9 1.195 . S
C10 O11 1.313 . S
O11 C10 1.313 . S
O12 Mg0 2.141 . S
O12 C3 1.289 . S
Mg13 O20 2.141 . S
Mg13 O21 2.048 . S
Mg13 O22 2.048 . S
Mg13 O25 2.141 . S
C14 O15 1.313 . S
C14 O21 1.195 . S
O15 C14 1.313 . S
C16 O17 1.245 . S
C16 O25 1.289 . S
O17 C16 1.245 . S
C18 O19 1.245 . S
C18 O20 1.289 . S
O19 C18 1.245 . S
O20 Mg13 2.141 . S
O20 C18 1.289 . S
O21 Mg13 2.048 . S
O21 C14 1.195 . S
O22 Mg13 2.048 . S
O22 C23 1.195 . S
C23 O22 1.195 . S
C23 O24 1.313 . S
O24 C23 1.313 . S
O25 Mg13 2.141 . S
O25 C16 1.289 . S
Mg26 O33 2.141 . S
Mg26 O34 2.048 . S
Mg26 O35 2.048 . S
Mg26 O38 2.141 . S
C27 O28 1.313 . S
C27 O34 1.195 . S
O28 C27 1.313 . S
C29 O30 1.245 . S
C29 O38 1.289 . S
O30 C29 1.245 . S
C31 O32 1.245 . S
C31 O33 1.289 . S
O32 C31 1.245 . S
O33 Mg26 2.141 . S
O33 C31 1.289 . S
O34 Mg26 2.048 . S
O34 C27 1.195 . S
O35 Mg26 2.048 . S
O35 C36 1.195 . S
C36 O35 1.195 . S
C36 O37 1.313 . S
O37 C36 1.313 . S
O38 Mg26 2.141 . S
O38 C29 1.289 . S
Mg39 O46 2.141 . S
Mg39 O47 2.048 . S
Mg39 O48 2.048 1_545 S
Mg39 O51 2.141 1_545 S
C40 O41 1.313 . S
C40 O47 1.195 . S
O41 C40 1.313 . S
C42 O43 1.245 . S
C42 O51 1.289 . S
O43 C42 1.245 . S
C44 O45 1.245 . S
C44 O46 1.289 . S
O45 C44 1.245 . S
O46 Mg39 2.141 . S
O46 C44 1.289 . S
O47 Mg39 2.048 . S
O47 C40 1.195 . S
O48 Mg39 2.048 1_565 S
O48 C49 1.195 . S
C49 O48 1.195 . S
C49 O50 1.313 . S
O50 C49 1.313 . S
O51 Mg39 2.141 1_565 S
O51 C42 1.289 . S
Mg52 O59 2.141 . S
Mg52 O60 2.048 . S
Mg52 O61 2.048 1_455 S
Mg52 O64 2.141 1_455 S
C53 O54 1.313 . S
C53 O60 1.195 . S
O54 C53 1.313 . S
C55 O56 1.245 . S
C55 O64 1.289 . S
O56 C55 1.245 . S
C57 O58 1.245 . S
C57 O59 1.289 . S
O58 C57 1.245 . S
O59 Mg52 2.141 . S
O59 C57 1.289 . S
O60 Mg52 2.048 . S
O60 C53 1.195 . S
O61 Mg52 2.048 1_655 S
O61 C62 1.195 . S
C62 O61 1.195 . S
C62 O63 1.313 . S
O63 C62 1.313 . S
O64 Mg52 2.141 1_655 S
O64 C55 1.289 . S
Mg65 O72 2.141 . S
Mg65 O73 2.048 . S
Mg65 O74 2.048 . S
Mg65 O77 2.141 . S
C66 O67 1.313 . S
C66 O73 1.195 . S
O67 C66 1.313 . S
C68 O69 1.245 . S
C68 O77 1.289 . S
O69 C68 1.245 . S
C70 O71 1.245 . S
C70 O72 1.289 . S
O71 C70 1.245 . S
O72 Mg65 2.141 . S
O72 C70 1.289 . S
O73 Mg65 2.048 . S
O73 C66 1.195 . S
O74 Mg65 2.048 . S
O74 C75 1.195 . S
C75 O74 1.195 . S
C75 O76 1.313 . S
O76 C75 1.313 . S
O77 Mg65 2.141 . S
O77 C68 1.289 . S
Mg78 O85 2.141 . S
Mg78 O86 2.048 . S
Mg78 O87 2.048 1_545 S
Mg78 O90 2.141 . S
C79 O80 1.313 . S
C79 O86 1.195 . S
O80 C79 1.313 . S
C81 O82 1.245 . S
C81 O90 1.289 . S
O82 C81 1.245 . S
C83 O84 1.245 . S
C83 O85 1.289 . S
O84 C83 1.245 . S
O85 Mg78 2.141 . S
O85 C83 1.289 . S
O86 Mg78 2.048 . S
O86 C79 1.195 . S
O87 Mg78 2.048 1_565 S
O87 C88 1.195 1_565 S
C88 O87 1.195 1_545 S
C88 O89 1.313 . S
O89 C88 1.313 . S
O90 Mg78 2.141 . S
O90 C81 1.289 . S
Mg91 O98 2.141 . S
Mg91 O99 2.048 . S
Mg91 O100 2.048 . S
Mg91 O103 2.141 . S
C92 O93 1.313 . S
C92 O99 1.195 . S
O93 C92 1.313 . S
C94 O95 1.245 . S
C94 O103 1.289 . S
O95 C94 1.245 . S
C96 O97 1.245 . S
C96 O98 1.289 . S
O97 C96 1.245 . S
O98 Mg91 2.141 . S
O98 C96 1.289 . S
O99 Mg91 2.048 . S
O99 C92 1.195 . S
O100 Mg91 2.048 . S
O100 C101 1.195 . S
C101 O100 1.195 . S
C101 O102 1.313 . S
O102 C101 1.313 . S
O103 Mg91 2.141 . S
O103 C94 1.289 . S
O104 Cd105 2.223 . S
O104 C112 1.315 . S
Cd105 O104 2.223 . S
Cd105 O108 2.297 . S
Cd105 O109 2.439 . S
Cd105 O115 2.240 . S
Cd106 O107 2.240 . S
Cd106 O114 2.223 . S
Cd106 O116 2.297 . S
Cd106 O117 2.439 . S
O107 Cd106 2.240 . S
O107 C112 1.279 . S
O108 Cd105 2.297 . S
O108 C110 1.247 . S
O109 Cd105 2.439 . S
O109 C110 1.208 . S
C110 O108 1.247 . S
C110 O109 1.208 . S
C111 O116 1.247 . S
C111 O117 1.208 . S
C112 O104 1.315 . S
C112 O107 1.279 . S
C113 O114 1.315 . S
C113 O115 1.279 . S
O114 Cd106 2.223 . S
O114 C113 1.315 . S
O115 Cd105 2.240 . S
O115 C113 1.279 . S
O116 Cd106 2.297 . S
O116 C111 1.247 . S
O117 Cd106 2.439 . S
O117 C111 1.208 . S
O118 Cd119 2.223 . S
O118 C126 1.315 . S
Cd119 O118 2.223 . S
Cd119 O122 2.297 . S
Cd119 O123 2.439 . S
Cd119 O129 2.240 . S
Cd120 O121 2.240 . S
Cd120 O128 2.223 . S
Cd120 O130 2.297 . S
Cd120 O131 2.439 . S
O121 Cd120 2.240 . S
O121 C126 1.279 . S
O122 Cd119 2.297 . S
O122 C124 1.247 . S
O123 Cd119 2.439 . S
O123 C124 1.208 . S
C124 O122 1.247 . S
C124 O123 1.208 . S
C125 O130 1.247 . S
C125 O131 1.208 . S
C126 O118 1.315 . S
C126 O121 1.279 . S
C127 O128 1.315 . S
C127 O129 1.279 . S
O128 Cd120 2.223 . S
O128 C127 1.315 . S
O129 Cd119 2.240 . S
O129 C127 1.279 . S
O130 Cd120 2.297 . S
O130 C125 1.247 . S
O131 Cd120 2.439 . S
O131 C125 1.208 . S
O132 Cd133 2.223 . S
O132 C140 1.315 . S
Cd133 O132 2.223 . S
Cd133 O136 2.297 . S
Cd133 O137 2.439 1_565 S
Cd133 O143 2.240 . S
Cd134 O135 2.240 . S
Cd134 O142 2.223 1_545 S
Cd134 O144 2.297 . S
Cd134 O145 2.439 . S
O135 Cd134 2.240 . S
O135 C140 1.279 1_545 S
O136 Cd133 2.297 . S
O136 C138 1.247 . S
O137 Cd133 2.439 1_545 S
O137 C138 1.208 1_545 S
C138 O136 1.247 . S
C138 O137 1.208 1_565 S
C139 O144 1.247 . S
C139 O145 1.208 . S
C140 O132 1.315 . S
C140 O135 1.279 1_565 S
C141 O142 1.315 . S
C141 O143 1.279 . S
O142 Cd134 2.223 1_565 S
O142 C141 1.315 . S
O143 Cd133 2.240 . S
O143 C141 1.279 . S
O144 Cd134 2.297 . S
O144 C139 1.247 . S
O145 Cd134 2.439 . S
O145 C139 1.208 . S
O146 Cd147 2.223 . S
O146 C154 1.315 . S
Cd147 O146 2.223 . S
Cd147 O150 2.297 . S
Cd147 O151 2.439 . S
Cd147 O157 2.240 . S
Cd148 O149 2.240 . S
Cd148 O156 2.223 . S
Cd148 O158 2.297 . S
Cd148 O159 2.439 . S
O149 Cd148 2.240 . S
O149 C154 1.279 . S
O150 Cd147 2.297 . S
O150 C152 1.247 . S
O151 Cd147 2.439 . S
O151 C152 1.208 . S
C152 O150 1.247 . S
C152 O151 1.208 . S
C153 O158 1.247 . S
C153 O159 1.208 . S
C154 O146 1.315 . S
C154 O149 1.279 . S
C155 O156 1.315 . S
C155 O157 1.279 . S
O156 Cd148 2.223 . S
O156 C155 1.315 . S
O157 Cd147 2.240 . S
O157 C155 1.279 . S
O158 Cd148 2.297 . S
O158 C153 1.247 . S
O159 Cd148 2.439 . S
O159 C153 1.208 . S
O160 Cd161 2.223 . S
O160 C168 1.315 1_655 S
Cd161 O160 2.223 . S
Cd161 O164 2.297 . S
Cd161 O165 2.439 1_655 S
Cd161 O171 2.240 . S
Cd162 O163 2.240 . S
Cd162 O170 2.223 1_455 S
Cd162 O172 2.297 . S
Cd162 O173 2.439 . S
O163 Cd162 2.240 . S
O163 C168 1.279 . S
O164 Cd161 2.297 . S
O164 C166 1.235 1_655 S
O165 Cd161 2.439 1_455 S
O165 C166 1.214 . S
C166 O164 1.235 1_455 S
C166 O165 1.214 . S
C167 O172 1.247 . S
C167 O173 1.208 . S
C168 O160 1.315 1_455 S
C168 O163 1.279 . S
C169 O170 1.315 . S
C169 O171 1.279 . S
O170 Cd162 2.223 1_655 S
O170 C169 1.315 . S
O171 Cd161 2.240 . S
O171 C169 1.279 . S
O172 Cd162 2.297 . S
O172 C167 1.247 . S
O173 Cd162 2.439 . S
O173 C167 1.208 . S
O174 Cd175 2.223 . S
O174 C182 1.315 . S
Cd175 O174 2.223 . S
Cd175 O178 2.297 . S
Cd175 O179 2.439 . S
Cd175 O185 2.240 . S
Cd176 O177 2.240 . S
Cd176 O184 2.223 . S
Cd176 O186 2.297 . S
Cd176 O187 2.439 . S
O177 Cd176 2.240 . S
O177 C182 1.279 . S
O178 Cd175 2.297 . S
O178 C180 1.247 . S
O179 Cd175 2.439 . S
O179 C180 1.208 . S
C180 O178 1.247 . S
C180 O179 1.208 . S
C181 O186 1.247 . S
C181 O187 1.208 . S
C182 O174 1.315 . S
C182 O177 1.279 . S
C183 O184 1.315 . S
C183 O185 1.279 . S
O184 Cd176 2.223 . S
O184 C183 1.315 . S
O185 Cd175 2.240 . S
O185 C183 1.279 . S
O186 Cd176 2.297 . S
O186 C181 1.247 . S
O187 Cd176 2.439 . S
O187 C181 1.208 . S
O188 Cd189 2.223 . S
O188 C196 1.315 . S
Cd189 O188 2.223 . S
Cd189 O192 2.297 . S
Cd189 O193 2.439 . S
Cd189 O199 2.240 . S
Cd190 O191 2.240 . S
Cd190 O198 2.223 . S
Cd190 O200 2.297 1_554 S
Cd190 O201 2.439 1_554 S
O191 Cd190 2.240 . S
O191 C196 1.279 . S
O192 Cd189 2.297 . S
O192 C194 1.247 . S
O193 Cd189 2.439 . S
O193 C194 1.208 . S
C194 O192 1.247 . S
C194 O193 1.208 . S
C195 O200 1.247 . S
C195 O201 1.208 . S
C196 O188 1.315 . S
C196 O191 1.279 . S
C197 O198 1.315 . S
C197 O199 1.279 . S
O198 Cd190 2.223 . S
O198 C197 1.315 . S
O199 Cd189 2.240 . S
O199 C197 1.279 . S
O200 Cd190 2.297 1_556 S
O200 C195 1.247 . S
O201 Cd190 2.439 1_556 S
O201 C195 1.208 . S
O202 Cd203 2.223 . S
O202 C210 1.315 . S
Cd203 O202 2.223 . S
Cd203 O206 2.297 . S
Cd203 O207 2.439 . S
Cd203 O213 2.240 . S
Cd204 O205 2.240 . S
Cd204 O212 2.223 . S
Cd204 O214 2.297 . S
Cd204 O215 2.439 . S
O205 Cd204 2.240 . S
O205 C210 1.279 . S
O206 Cd203 2.297 . S
O206 C208 1.247 . S
O207 Cd203 2.439 . S
O207 C208 1.208 . S
C208 O206 1.247 . S
C208 O207 1.208 . S
C209 O214 1.247 . S
C209 O215 1.208 . S
C210 O202 1.315 . S
C210 O205 1.279 . S
C211 O212 1.315 . S
C211 O213 1.279 . S
O212 Cd204 2.223 . S
O212 C211 1.315 . S
O213 Cd203 2.240 . S
O213 C211 1.279 . S
O214 Cd204 2.297 . S
O214 C209 1.247 . S
O215 Cd204 2.439 . S
O215 C209 1.208 . S
C216 C217 1.349 . S
C216 C218 1.327 . S
C216 H241 0.950 . S
C217 C216 1.349 . S
C217 C233 1.349 . S
C218 C216 1.327 . S
C218 C237 1.429 . S
C218 H242 0.950 . S
C219 C236 1.589 . S
C219 C238 1.368 . S
C219 H243 0.949 . S
H220 C224 0.949 . S
C221 C222 1.349 . S
C221 C223 1.327 . S
C221 H244 0.950 . S
C222 C221 1.349 . S
C222 C234 1.349 . S
C223 C221 1.327 . S
C223 C239 1.429 . S
C223 H245 0.950 . S
C224 H220 0.949 . S
C224 C232 1.574 . S
C224 C240 1.368 . S
H225 C233 0.950 . S
H226 C231 0.950 . S
H227 C232 0.949 . S
H228 C234 0.950 . S
H229 C235 0.950 . S
H230 C236 0.955 . S
C231 H226 0.950 . S
C231 C233 1.327 . S
C231 C237 1.429 . S
C232 C224 1.574 . S
C232 H227 0.949 . S
C232 C238 1.368 1_565 S
C233 C217 1.349 . S
C233 H225 0.950 . S
C233 C231 1.327 . S
C234 C222 1.349 . S
C234 H228 0.950 . S
C234 C235 1.327 . S
C235 H229 0.950 . S
C235 C234 1.327 . S
C235 C239 1.429 . S
C236 C219 1.589 . S
C236 H230 0.955 . S
C236 C240 1.347 1_545 S
C237 C218 1.429 . S
C237 C231 1.429 . S
C237 C238 1.523 . S
C238 C219 1.368 . S
C238 C232 1.368 1_545 S
C238 C237 1.523 . S
C239 C223 1.429 . S
C239 C235 1.429 . S
C239 C240 1.523 . S
C240 C224 1.368 . S
C240 C236 1.347 1_565 S
C240 C239 1.523 . S
H241 C216 0.950 . S
H242 C218 0.950 . S
H243 C219 0.949 . S
H244 C221 0.950 . S
H245 C223 0.950 . S
C246 C247 1.349 . S
C246 C248 1.327 . S
C246 H271 0.950 . S
C247 C246 1.349 . S
C247 C263 1.349 . S
C248 C246 1.327 . S
C248 C267 1.429 . S
C248 H272 0.950 . S
C249 C266 1.574 . S
C249 C268 1.368 . S
C249 H273 0.949 . S
H250 C254 0.949 . S
C251 C252 1.349 . S
C251 C253 1.327 . S
C251 H274 0.950 . S
C252 C251 1.349 . S
C252 C264 1.349 . S
C253 C251 1.327 . S
C253 C269 1.429 . S
C253 H275 0.950 . S
C254 H250 0.949 . S
C254 C262 1.574 . S
C254 C270 1.368 . S
H255 C263 0.950 . S
H256 C261 0.950 . S
H257 C262 0.949 . S
H258 C264 0.950 . S
H259 C265 0.950 . S
H260 C266 0.949 . S
C261 H256 0.950 . S
C261 C263 1.327 . S
C261 C267 1.429 . S
C262 C254 1.574 . S
C262 H257 0.949 . S
C262 C268 1.368 . S
C263 C247 1.349 . S
C263 H255 0.950 . S
C263 C261 1.327 . S
C264 C252 1.349 . S
C264 H258 0.950 . S
C264 C265 1.327 . S
C265 H259 0.950 . S
C265 C264 1.327 . S
C265 C269 1.429 . S
C266 C249 1.574 . S
C266 H260 0.949 . S
C266 C270 1.368 . S
C267 C248 1.429 . S
C267 C261 1.429 . S
C267 C268 1.523 . S
C268 C249 1.368 . S
C268 C262 1.368 . S
C268 C267 1.523 . S
C269 C253 1.429 . S
C269 C265 1.429 . S
C269 C270 1.523 . S
C270 C254 1.368 . S
C270 C266 1.368 . S
C270 C269 1.523 . S
H271 C246 0.950 . S
H272 C248 0.950 . S
H273 C249 0.949 . S
H274 C251 0.950 . S
H275 C253 0.950 . S
C276 C277 1.349 . S
C276 C278 1.327 . S
C276 H301 0.950 . S
C277 C276 1.349 . S
C277 C293 1.349 . S
C278 C276 1.327 . S
C278 C297 1.429 . S
C278 H302 0.950 . S
C279 C296 1.574 . S
C279 C298 1.368 . S
C279 H303 0.949 . S
H280 C284 0.949 . S
C281 C282 1.349 . S
C281 C283 1.327 . S
C281 H304 0.950 . S
C282 C281 1.349 . S
C282 C294 1.349 . S
C283 C281 1.327 . S
C283 C299 1.429 . S
C283 H305 0.950 . S
C284 H280 0.949 . S
C284 C292 1.574 . S
C284 C300 1.368 . S
H285 C293 0.950 . S
H286 C291 0.950 . S
H287 C292 0.949 . S
H288 C294 0.950 . S
H289 C295 0.950 . S
H290 C296 0.949 . S
C291 H286 0.950 . S
C291 C293 1.327 . S
C291 C297 1.429 . S
C292 C284 1.574 . S
C292 H287 0.949 . S
C292 C298 1.368 . S
C293 C277 1.349 . S
C293 H285 0.950 . S
C293 C291 1.327 . S
C294 C282 1.349 . S
C294 H288 0.950 . S
C294 C295 1.327 . S
C295 H289 0.950 . S
C295 C294 1.327 . S
C295 C299 1.429 . S
C296 C279 1.574 . S
C296 H290 0.949 . S
C296 C300 1.368 . S
C297 C278 1.429 . S
C297 C291 1.429 . S
C297 C298 1.523 . S
C298 C279 1.368 . S
C298 C292 1.368 . S
C298 C297 1.523 . S
C299 C283 1.429 . S
C299 C295 1.429 . S
C299 C300 1.523 . S
C300 C284 1.368 . S
C300 C296 1.368 . S
C300 C299 1.523 . S
H301 C276 0.950 . S
H302 C278 0.950 . S
H303 C279 0.949 . S
H304 C281 0.950 . S
H305 C283 0.950 . S
C306 C307 1.349 . S
C306 C308 1.327 . S
C306 H331 0.950 . S
C307 C306 1.349 . S
C307 C323 1.349 . S
C308 C306 1.327 . S
C308 C327 1.429 . S
C308 H332 0.950 . S
C309 C326 1.574 . S
C309 C328 1.368 . S
C309 H333 0.949 . S
H310 C314 0.949 . S
C311 C312 1.349 . S
C311 C313 1.327 . S
C311 H334 0.950 . S
C312 C311 1.349 . S
C312 C324 1.349 . S
C313 C311 1.327 . S
C313 C329 1.429 . S
C313 H335 0.950 . S
C314 H310 0.949 . S
C314 C322 1.574 . S
C314 C330 1.368 . S
H315 C323 0.950 . S
H316 C321 0.950 . S
H317 C322 0.949 . S
H318 C324 0.950 . S
H319 C325 0.950 . S
H320 C326 0.949 . S
C321 H316 0.950 . S
C321 C323 1.327 . S
C321 C327 1.429 . S
C322 C314 1.574 . S
C322 H317 0.949 . S
C322 C328 1.368 . S
C323 C307 1.349 . S
C323 H315 0.950 . S
C323 C321 1.327 . S
C324 C312 1.349 . S
C324 H318 0.950 . S
C324 C325 1.327 . S
C325 H319 0.950 . S
C325 C324 1.327 . S
C325 C329 1.429 . S
C326 C309 1.574 . S
C326 H320 0.949 . S
C326 C330 1.368 . S
C327 C308 1.429 . S
C327 C321 1.429 . S
C327 C328 1.523 . S
C328 C309 1.368 . S
C328 C322 1.368 . S
C328 C327 1.523 . S
C329 C313 1.429 . S
C329 C325 1.429 . S
C329 C330 1.523 . S
C330 C314 1.368 . S
C330 C326 1.368 . S
C330 C329 1.523 . S
H331 C306 0.950 . S
H332 C308 0.950 . S
H333 C309 0.949 . S
H334 C311 0.950 . S
H335 C313 0.950 . S
C336 C337 1.349 . S
C336 C338 1.298 1_556 S
C336 H361 0.950 . S
C337 C336 1.349 . S
C337 C353 1.349 . S
C338 C336 1.298 1_554 S
C338 C357 1.419 1_554 S
C338 H362 0.993 . S
C339 C356 1.574 . S
C339 C358 1.368 . S
C339 H363 0.949 1_554 S
H340 C344 0.949 . S
C341 C342 1.349 . S
C341 C343 1.327 . S
C341 H364 0.950 . S
C342 C341 1.349 . S
C342 C354 1.349 . S
C343 C341 1.327 . S
C343 C359 1.429 . S
C343 H365 0.950 . S
C344 H340 0.949 . S
C344 C352 1.574 . S
C344 C360 1.368 . S
H345 C353 0.950 . S
H346 C351 0.950 . S
H347 C352 0.949 . S
H348 C354 0.950 . S
H349 C355 0.950 . S
H350 C356 0.949 . S
C351 H346 0.950 . S
C351 C353 1.327 . S
C351 C357 1.429 . S
C352 C344 1.574 . S
C352 H347 0.949 . S
C352 C358 1.368 . S
C353 C337 1.349 . S
C353 H345 0.950 . S
C353 C351 1.327 . S
C354 C342 1.349 . S
C354 H348 0.950 . S
C354 C355 1.327 . S
C355 H349 0.950 . S
C355 C354 1.327 . S
C355 C359 1.429 . S
C356 C339 1.574 . S
C356 H350 0.949 . S
C356 C360 1.368 . S
C357 C338 1.419 1_556 S
C357 C351 1.429 . S
C357 C358 1.523 1_556 S
C358 C339 1.368 . S
C358 C352 1.368 . S
C358 C357 1.523 1_554 S
C359 C343 1.429 . S
C359 C355 1.429 . S
C359 C360 1.523 . S
C360 C344 1.368 . S
C360 C356 1.368 . S
C360 C359 1.523 . S
H361 C336 0.950 . S
H362 C338 0.993 . S
H363 C339 0.949 1_556 S
H364 C341 0.950 . S
H365 C343 0.950 . S
C366 C367 1.349 . S
C366 C368 1.327 . S
C366 H391 0.950 . S
C367 C366 1.349 . S
C367 C383 1.349 . S
C368 C366 1.327 . S
C368 C387 1.429 . S
C368 H392 0.950 . S
C369 C386 1.574 . S
C369 C388 1.368 . S
C369 H393 0.949 . S
H370 C374 0.949 . S
C371 C372 1.349 . S
C371 C373 1.327 . S
C371 H394 0.950 . S
C372 C371 1.349 . S
C372 C384 1.349 . S
C373 C371 1.327 . S
C373 C389 1.429 . S
C373 H395 0.950 . S
C374 H370 0.949 . S
C374 C382 1.574 . S
C374 C390 1.368 . S
H375 C383 0.950 . S
H376 C381 0.950 . S
H377 C382 0.949 . S
H378 C384 0.950 . S
H379 C385 0.950 . S
H380 C386 0.949 . S
C381 H376 0.950 . S
C381 C383 1.327 . S
C381 C387 1.429 . S
C382 C374 1.574 . S
C382 H377 0.949 . S
C382 C388 1.368 . S
C383 C367 1.349 . S
C383 H375 0.950 . S
C383 C381 1.327 . S
C384 C372 1.349 . S
C384 H378 0.950 . S
C384 C385 1.327 . S
C385 H379 0.950 . S
C385 C384 1.327 . S
C385 C389 1.429 . S
C386 C369 1.574 . S
C386 H380 0.949 . S
C386 C390 1.368 . S
C387 C368 1.429 . S
C387 C381 1.429 . S
C387 C388 1.523 . S
C388 C369 1.368 . S
C388 C382 1.368 . S
C388 C387 1.523 . S
C389 C373 1.429 . S
C389 C385 1.429 . S
C389 C390 1.523 . S
C390 C374 1.368 . S
C390 C386 1.368 . S
C390 C389 1.523 . S
H391 C366 0.950 . S
H392 C368 0.950 . S
H393 C369 0.949 . S
H394 C371 0.950 . S
H395 C373 0.950 . S
C396 C397 1.349 . S
C396 C398 1.327 . S
C396 H421 0.950 . S
C397 C396 1.349 . S
C397 C413 1.349 1_545 S
C398 C396 1.327 . S
C398 C417 1.429 . S
C398 H422 0.950 . S
C399 C416 1.574 . S
C399 C418 1.368 1_565 S
C399 H423 0.949 . S
H400 C404 0.949 . S
C401 C402 1.349 1_565 S
C401 C403 1.327 . S
C401 H424 0.950 . S
C402 C401 1.349 1_545 S
C402 C414 1.349 . S
C403 C401 1.327 . S
C403 C419 1.429 1_565 S
C403 H425 0.950 . S
C404 H400 0.949 . S
C404 C412 1.574 . S
C404 C420 1.368 . S
H405 C413 0.950 . S
H406 C411 0.950 . S
H407 C412 0.949 . S
H408 C414 0.950 . S
H409 C415 0.950 . S
H410 C416 0.949 . S
C411 H406 0.950 . S
C411 C413 1.327 . S
C411 C417 1.429 1_565 S
C412 C404 1.574 . S
C412 H407 0.949 . S
C412 C418 1.368 . S
C413 C397 1.349 1_565 S
C413 H405 0.950 . S
C413 C411 1.327 . S
C414 C402 1.349 . S
C414 H408 0.950 . S
C414 C415 1.327 . S
C415 H409 0.950 . S
C415 C414 1.327 . S
C415 C419 1.429 . S
C416 C399 1.574 . S
C416 H410 0.949 . S
C416 C420 1.368 1_565 S
C417 C398 1.429 . S
C417 C411 1.429 1_545 S
C417 C418 1.523 . S
C418 C399 1.368 1_545 S
C418 C412 1.368 . S
C418 C417 1.523 . S
C419 C403 1.429 1_545 S
C419 C415 1.429 . S
C419 C420 1.523 . S
C420 C404 1.368 . S
C420 C416 1.368 1_545 S
C420 C419 1.523 . S
H421 C396 0.950 . S
H422 C398 0.950 . S
H423 C399 0.949 . S
H424 C401 0.950 . S
H425 C403 0.950 . S
C426 C427 1.349 . S
C426 C428 1.327 . S
C426 H451 0.950 . S
C427 C426 1.349 . S
C427 C443 1.349 . S
C428 C426 1.327 . S
C428 C447 1.429 . S
C428 H452 0.950 . S
C429 C446 1.574 . S
C429 C448 1.368 . S
C429 H453 0.949 . S
H430 C434 0.949 . S
C431 C432 1.349 . S
C431 C433 1.327 1_565 S
C431 H454 0.950 . S
C432 C431 1.349 . S
C432 C444 1.349 1_565 S
C433 C431 1.327 1_545 S
C433 C449 1.429 . S
C433 H455 0.950 . S
C434 H430 0.949 . S
C434 C442 1.574 . S
C434 C450 1.368 . S
H435 C443 0.950 . S
H436 C441 0.950 . S
H437 C442 0.949 . S
H438 C444 0.950 . S
H439 C445 0.950 . S
H440 C446 0.949 . S
C441 H436 0.950 . S
C441 C443 1.327 . S
C441 C447 1.429 . S
C442 C434 1.574 . S
C442 H437 0.949 . S
C442 C448 1.368 . S
C443 C427 1.349 . S
C443 H435 0.950 . S
C443 C441 1.327 . S
C444 C432 1.349 1_545 S
C444 H438 0.950 . S
C444 C445 1.327 . S
C445 H439 0.950 . S
C445 C444 1.327 . S
C445 C449 1.429 . S
C446 C429 1.574 . S
C446 H440 0.949 . S
C446 C450 1.368 . S
C447 C428 1.429 . S
C447 C441 1.429 . S
C447 C448 1.523 . S
C448 C429 1.368 . S
C448 C442 1.368 . S
C448 C447 1.523 . S
C449 C433 1.429 . S
C449 C445 1.429 . S
C449 C450 1.523 . S
C450 C434 1.368 . S
C450 C446 1.368 . S
C450 C449 1.523 . S
H451 C426 0.950 . S
H452 C428 0.950 . S
H453 C429 0.949 . S
H454 C431 0.950 . S
H455 C433 0.950 . S
C456 C457 1.349 . S
C456 C458 1.327 . S
C456 H481 0.950 . S
C457 C456 1.349 . S
C457 C473 1.349 . S
C458 C456 1.327 . S
C458 C477 1.429 . S
C458 H482 0.950 . S
C459 C476 1.574 . S
C459 C478 1.368 . S
C459 H483 0.949 . S
H460 C464 0.949 . S
C461 C462 1.349 . S
C461 C463 1.327 . S
C461 H484 0.950 . S
C462 C461 1.349 . S
C462 C474 1.349 . S
C463 C461 1.327 . S
C463 C479 1.429 . S
C463 H485 0.950 . S
C464 H460 0.949 . S
C464 C472 1.574 . S
C464 C480 1.368 . S
H465 C473 0.950 . S
H466 C471 0.950 . S
H467 C472 0.949 . S
H468 C474 0.950 . S
H469 C475 0.950 . S
H470 C476 0.949 . S
C471 H466 0.950 . S
C471 C473 1.327 . S
C471 C477 1.429 . S
C472 C464 1.574 . S
C472 H467 0.949 . S
C472 C478 1.368 . S
C473 C457 1.349 . S
C473 H465 0.950 . S
C473 C471 1.327 . S
C474 C462 1.349 . S
C474 H468 0.950 . S
C474 C475 1.327 . S
C475 H469 0.950 . S
C475 C474 1.327 . S
C475 C479 1.429 . S
C476 C459 1.574 . S
C476 H470 0.949 . S
C476 C480 1.368 . S
C477 C458 1.429 . S
C477 C471 1.429 . S
C477 C478 1.523 . S
C478 C459 1.368 . S
C478 C472 1.368 . S
C478 C477 1.523 . S
C479 C463 1.429 . S
C479 C475 1.429 . S
C479 C480 1.523 . S
C480 C464 1.368 . S
C480 C476 1.368 . S
C480 C479 1.523 . S
H481 C456 0.950 . S
H482 C458 0.950 . S
H483 C459 0.949 . S
H484 C461 0.950 . S
H485 C463 0.950 . S
C486 C487 1.349 . S
C486 C488 1.327 . S
C486 H511 0.950 . S
C487 C486 1.349 . S
C487 C503 1.349 . S
C488 C486 1.327 . S
C488 C507 1.429 . S
C488 H512 0.950 . S
C489 C506 1.574 . S
C489 C508 1.368 . S
C489 H513 0.949 . S
H490 C494 0.949 . S
C491 C492 1.349 . S
C491 C493 1.327 . S
C491 H514 0.950 . S
C492 C491 1.349 . S
C492 C504 1.349 . S
C493 C491 1.327 . S
C493 C509 1.429 . S
C493 H515 0.950 . S
C494 H490 0.949 . S
C494 C502 1.574 . S
C494 C510 1.368 . S
H495 C503 0.950 . S
H496 C501 0.950 . S
H497 C502 0.949 . S
H498 C504 0.950 . S
H499 C505 0.950 . S
H500 C506 0.949 . S
C501 H496 0.950 . S
C501 C503 1.327 . S
C501 C507 1.429 . S
C502 C494 1.574 . S
C502 H497 0.949 . S
C502 C508 1.368 . S
C503 C487 1.349 . S
C503 H495 0.950 . S
C503 C501 1.327 . S
C504 C492 1.349 . S
C504 H498 0.950 . S
C504 C505 1.327 . S
C505 H499 0.950 . S
C505 C504 1.327 . S
C505 C509 1.429 . S
C506 C489 1.574 . S
C506 H500 0.949 . S
C506 C510 1.368 . S
C507 C488 1.429 . S
C507 C501 1.429 . S
C507 C508 1.523 . S
C508 C489 1.368 . S
C508 C502 1.368 . S
C508 C507 1.523 . S
C509 C493 1.429 . S
C509 C505 1.429 . S
C509 C510 1.523 . S
C510 C494 1.368 . S
C510 C506 1.368 . S
C510 C509 1.523 . S
H511 C486 0.950 . S
H512 C488 0.950 . S
H513 C489 0.949 . S
H514 C491 0.950 . S
H515 C493 0.950 . S
C516 C517 1.349 . S
C516 C518 1.327 . S
C516 H541 0.950 . S
C517 C516 1.349 . S
C517 C533 1.349 . S
C518 C516 1.327 . S
C518 C537 1.429 . S
C518 H542 0.950 . S
C519 C536 1.574 . S
C519 C538 1.368 . S
C519 H543 0.949 . S
H520 C524 0.949 . S
C521 C522 1.349 . S
C521 C523 1.327 . S
C521 H544 0.950 . S
C522 C521 1.349 . S
C522 C534 1.349 . S
C523 C521 1.327 . S
C523 C539 1.429 . S
C523 H545 0.950 . S
C524 H520 0.949 . S
C524 C532 1.574 . S
C524 C540 1.368 . S
H525 C533 0.950 . S
H526 C531 0.950 . S
H527 C532 0.949 . S
H528 C534 0.950 . S
H529 C535 0.950 1_455 S
H530 C536 0.949 . S
C531 H526 0.950 . S
C531 C533 1.327 . S
C531 C537 1.429 . S
C532 C524 1.574 . S
C532 H527 0.949 . S
C532 C538 1.368 . S
C533 C517 1.349 . S
C533 H525 0.950 . S
C533 C531 1.327 . S
C534 C522 1.349 . S
C534 H528 0.950 . S
C534 C535 1.327 . S
C535 H529 0.950 1_655 S
C535 C534 1.327 . S
C535 C539 1.429 . S
C536 C519 1.574 . S
C536 H530 0.949 . S
C536 C540 1.368 . S
C537 C518 1.429 . S
C537 C531 1.429 . S
C537 C538 1.523 . S
C538 C519 1.368 . S
C538 C532 1.368 . S
C538 C537 1.523 . S
C539 C523 1.429 . S
C539 C535 1.429 . S
C539 C540 1.523 1_655 S
C540 C524 1.368 . S
C540 C536 1.368 . S
C540 C539 1.523 1_455 S
H541 C516 0.950 . S
H542 C518 0.950 . S
H543 C519 0.949 . S
H544 C521 0.950 . S
H545 C523 0.950 . S
C546 C547 1.349 . S
C546 C548 1.327 . S
C546 H571 0.928 1_455 S
C547 C546 1.349 . S
C547 C563 1.349 . S
C548 C546 1.327 . S
C548 C567 1.429 . S
C548 H572 0.950 1_455 S
C549 C566 1.574 . S
C549 C568 1.368 . S
C549 H573 0.949 . S
H550 C554 0.949 . S
C551 C552 1.349 . S
C551 C553 1.327 . S
C551 H574 0.950 . S
C552 C551 1.349 . S
C552 C564 1.349 1_455 S
C553 C551 1.327 . S
C553 C569 1.429 . S
C553 H575 0.950 . S
C554 H550 0.949 . S
C554 C562 1.574 1_655 S
C554 C570 1.368 1_655 S
H555 C563 0.950 . S
H556 C561 0.950 . S
H557 C562 0.949 1_655 S
H558 C564 0.950 . S
H559 C565 0.950 . S
H560 C566 0.949 . S
C561 H556 0.950 . S
C561 C563 1.327 . S
C561 C567 1.429 . S
C562 C554 1.574 1_455 S
C562 H557 0.949 1_455 S
C562 C568 1.368 . S
C563 C547 1.349 . S
C563 H555 0.950 . S
C563 C561 1.327 . S
C564 C552 1.349 1_655 S
C564 H558 0.950 . S
C564 C565 1.327 . S
C565 H559 0.950 . S
C565 C564 1.327 . S
C565 C569 1.429 1_655 S
C566 C549 1.574 . S
C566 H560 0.949 . S
C566 C570 1.368 . S
C567 C548 1.429 . S
C567 C561 1.429 . S
C567 C568 1.523 . S
C568 C549 1.368 . S
C568 C562 1.368 . S
C568 C567 1.523 . S
C569 C553 1.429 . S
C569 C565 1.429 1_455 S
C569 C570 1.523 . S
C570 C554 1.368 1_455 S
C570 C566 1.368 . S
C570 C569 1.523 . S
H571 C546 0.928 1_655 S
H572 C548 0.950 1_655 S
H573 C549 0.949 . S
H574 C551 0.950 . S
H575 C553 0.950 . S
C576 C577 1.349 . S
C576 C578 1.327 . S
C576 H601 0.950 . S
C577 C576 1.349 . S
C577 C593 1.349 . S
C578 C576 1.327 . S
C578 C597 1.429 . S
C578 H602 0.950 . S
C579 C596 1.574 . S
C579 C598 1.368 . S
C579 H603 0.949 . S
H580 C584 0.949 . S
C581 C582 1.349 . S
C581 C583 1.327 . S
C581 H604 0.950 . S
C582 C581 1.349 . S
C582 C594 1.349 . S
C583 C581 1.327 . S
C583 C599 1.429 . S
C583 H605 0.950 . S
C584 H580 0.949 . S
C584 C592 1.574 . S
C584 C600 1.368 . S
H585 C593 0.950 . S
H586 C591 0.950 . S
H587 C592 0.949 . S
H588 C594 0.950 . S
H589 C595 0.950 . S
H590 C596 0.949 . S
C591 H586 0.950 . S
C591 C593 1.327 . S
C591 C597 1.429 . S
C592 C584 1.574 . S
C592 H587 0.949 . S
C592 C598 1.368 . S
C593 C577 1.349 . S
C593 H585 0.950 . S
C593 C591 1.327 . S
C594 C582 1.349 . S
C594 H588 0.950 . S
C594 C595 1.327 . S
C595 H589 0.950 . S
C595 C594 1.327 . S
C595 C599 1.429 . S
C596 C579 1.574 . S
C596 H590 0.949 . S
C596 C600 1.368 . S
C597 C578 1.429 . S
C597 C591 1.429 . S
C597 C598 1.523 . S
C598 C579 1.368 . S
C598 C592 1.368 . S
C598 C597 1.523 . S
C599 C583 1.429 . S
C599 C595 1.429 . S
C599 C600 1.523 . S
C600 C584 1.368 . S
C600 C596 1.368 . S
C600 C599 1.523 . S
H601 C576 0.950 . S
H602 C578 0.950 . S
H603 C579 0.949 . S
H604 C581 0.950 . S
H605 C583 0.950 . S
C606 C607 1.349 . S
C606 C608 1.327 . S
C606 H631 0.950 . S
C607 C606 1.349 . S
C607 C623 1.349 . S
C608 C606 1.327 . S
C608 C627 1.429 . S
C608 H632 0.950 . S
C609 C626 1.574 1_455 S
C609 C628 1.368 . S
C609 H633 0.949 . S
H610 C614 0.949 . S
C611 C612 1.349 . S
C611 C613 1.327 . S
C611 H634 0.950 . S
C612 C611 1.349 . S
C612 C624 1.349 . S
C613 C611 1.327 . S
C613 C629 1.429 . S
C613 H635 0.950 . S
C614 H610 0.949 . S
C614 C622 1.574 . S
C614 C630 1.368 1_455 S
H615 C623 0.950 . S
H616 C621 0.950 . S
H617 C622 0.949 . S
H618 C624 0.950 . S
H619 C625 0.950 . S
H620 C626 0.949 . S
C621 H616 0.950 . S
C621 C623 1.327 . S
C621 C627 1.429 . S
C622 C614 1.574 . S
C622 H617 0.949 . S
C622 C628 1.368 . S
C623 C607 1.349 . S
C623 H615 0.950 . S
C623 C621 1.327 . S
C624 C612 1.349 . S
C624 H618 0.950 . S
C624 C625 1.327 . S
C625 H619 0.950 . S
C625 C624 1.327 . S
C625 C629 1.429 . S
C626 C609 1.574 1_655 S
C626 H620 0.949 . S
C626 C630 1.368 . S
C627 C608 1.429 . S
C627 C621 1.429 . S
C627 C628 1.523 . S
C628 C609 1.368 . S
C628 C622 1.368 . S
C628 C627 1.523 . S
C629 C613 1.429 . S
C629 C625 1.429 . S
C629 C630 1.523 . S
C630 C614 1.368 1_655 S
C630 C626 1.368 . S
C630 C629 1.523 . S
H631 C606 0.950 . S
H632 C608 0.950 . S
H633 C609 0.949 . S
H634 C611 0.950 . S
H635 C613 0.950 . S
C636 C637 1.349 . S
C636 C638 1.327 . S
C636 H661 0.950 . S
C637 C636 1.349 . S
C637 C653 1.349 . S
C638 C636 1.327 . S
C638 C657 1.429 . S
C638 H662 0.908 1_556 S
C639 C656 1.574 . S
C639 C658 1.368 . S
C639 H663 0.949 . S
H640 C644 0.949 . S
C641 C642 1.312 1_556 S
C641 C643 1.345 . S
C641 H664 0.971 . S
C642 C641 1.312 1_554 S
C642 C654 1.349 . S
C643 C641 1.345 . S
C643 C659 1.429 1_556 S
C643 H665 0.950 . S
C644 H640 0.949 . S
C644 C652 1.574 . S
C644 C660 1.368 1_554 S
H645 C653 0.950 . S
H646 C651 0.950 . S
H647 C652 0.949 . S
H648 C654 0.950 . S
H649 C655 0.950 . S
H650 C656 0.949 . S
C651 H646 0.950 . S
C651 C653 1.327 . S
C651 C657 1.429 . S
C652 C644 1.574 . S
C652 H647 0.949 . S
C652 C658 1.368 1_554 S
C653 C637 1.349 . S
C653 H645 0.950 . S
C653 C651 1.327 . S
C654 C642 1.349 . S
C654 H648 0.950 . S
C654 C655 1.327 . S
C655 H649 0.950 . S
C655 C654 1.327 . S
C655 C659 1.429 . S
C656 C639 1.574 . S
C656 H650 0.949 . S
C656 C660 1.368 . S
C657 C638 1.429 . S
C657 C651 1.429 . S
C657 C658 1.523 . S
C658 C639 1.368 . S
C658 C652 1.368 1_556 S
C658 C657 1.523 . S
C659 C643 1.429 1_554 S
C659 C655 1.429 . S
C659 C660 1.523 1_554 S
C660 C644 1.368 1_556 S
C660 C656 1.368 . S
C660 C659 1.523 1_556 S
H661 C636 0.950 . S
H662 C638 0.908 1_554 S
H663 C639 0.949 . S
H664 C641 0.971 . S
H665 C643 0.950 . S
C666 C667 1.349 . S
C666 C668 1.327 . S
C666 H691 0.950 . S
C667 C666 1.349 . S
C667 C683 1.349 . S
C668 C666 1.327 . S
C668 C687 1.429 . S
C668 H692 0.950 . S
C669 C686 1.574 . S
C669 C688 1.368 . S
C669 H693 0.949 . S
H670 C674 0.949 . S
C671 C672 1.349 . S
C671 C673 1.327 . S
C671 H694 0.950 . S
C672 C671 1.349 . S
C672 C684 1.349 . S
C673 C671 1.327 . S
C673 C689 1.429 . S
C673 H695 0.950 . S
C674 H670 0.949 . S
C674 C682 1.574 . S
C674 C690 1.368 . S
H675 C683 0.950 . S
H676 C681 0.950 . S
H677 C682 0.949 . S
H678 C684 0.950 . S
H679 C685 0.950 . S
H680 C686 0.949 . S
C681 H676 0.950 . S
C681 C683 1.327 . S
C681 C687 1.429 . S
C682 C674 1.574 . S
C682 H677 0.949 . S
C682 C688 1.368 . S
C683 C667 1.349 . S
C683 H675 0.950 . S
C683 C681 1.327 . S
C684 C672 1.349 . S
C684 H678 0.950 . S
C684 C685 1.327 . S
C685 H679 0.950 . S
C685 C684 1.327 . S
C685 C689 1.429 . S
C686 C669 1.574 . S
C686 H680 0.949 . S
C686 C690 1.368 . S
C687 C668 1.429 . S
C687 C681 1.429 . S
C687 C688 1.523 . S
C688 C669 1.368 . S
C688 C682 1.368 . S
C688 C687 1.523 . S
C689 C673 1.429 . S
C689 C685 1.429 . S
C689 C690 1.523 . S
C690 C674 1.368 . S
C690 C686 1.368 . S
C690 C689 1.523 . S
H691 C666 0.950 . S
H692 C668 0.950 . S
H693 C669 0.949 . S
H694 C671 0.950 . S
H695 C673 0.950 . S
C696 C697 1.349 . S
C696 C698 1.327 . S
C696 H721 0.950 . S
C697 C696 1.349 . S
C697 C713 1.349 . S
C698 C696 1.327 . S
C698 C717 1.429 . S
C698 H722 0.950 . S
C699 C716 1.574 . S
C699 C718 1.368 . S
C699 H723 0.949 . S
H700 C704 0.949 . S
C701 C702 1.349 . S
C701 C703 1.327 . S
C701 H724 0.950 . S
C702 C701 1.349 . S
C702 C714 1.349 1_545 S
C703 C701 1.327 . S
C703 C719 1.429 . S
C703 H725 0.950 . S
C704 H700 0.949 . S
C704 C712 1.574 . S
C704 C720 1.368 . S
H705 C713 0.950 . S
H706 C711 0.950 . S
H707 C712 0.949 . S
H708 C714 0.950 . S
H709 C715 0.950 1_565 S
H710 C716 0.949 . S
C711 H706 0.950 . S
C711 C713 1.327 . S
C711 C717 1.429 . S
C712 C704 1.574 . S
C712 H707 0.949 . S
C712 C718 1.368 . S
C713 C697 1.349 . S
C713 H705 0.950 . S
C713 C711 1.327 . S
C714 C702 1.349 1_565 S
C714 H708 0.950 . S
C714 C715 1.327 1_565 S
C715 H709 0.950 1_545 S
C715 C714 1.327 1_545 S
C715 C719 1.429 . S
C716 C699 1.574 . S
C716 H710 0.949 . S
C716 C720 1.368 . S
C717 C698 1.429 . S
C717 C711 1.429 . S
C717 C718 1.523 . S
C718 C699 1.368 . S
C718 C712 1.368 . S
C718 C717 1.523 . S
C719 C703 1.429 . S
C719 C715 1.429 . S
C719 C720 1.523 . S
C720 C704 1.368 . S
C720 C716 1.368 . S
C720 C719 1.523 . S
H721 C696 0.950 . S
H722 C698 0.950 . S
H723 C699 0.949 . S
H724 C701 0.950 . S
H725 C703 0.950 . S
C726 C727 1.349 . S
C726 C728 1.327 . S
C726 H751 0.950 . S
C727 C726 1.349 . S
C727 C743 1.349 . S
C728 C726 1.327 . S
C728 C747 1.429 . S
C728 H752 0.950 . S
C729 C746 1.574 . S
C729 C748 1.368 . S
C729 H753 0.949 . S
H730 C734 0.949 . S
C731 C732 1.349 . S
C731 C733 1.327 . S
C731 H754 0.950 . S
C732 C731 1.349 . S
C732 C744 1.349 . S
C733 C731 1.327 . S
C733 C749 1.429 . S
C733 H755 0.950 . S
C734 H730 0.949 . S
C734 C742 1.574 . S
C734 C750 1.368 . S
H735 C743 0.950 . S
H736 C741 0.950 . S
H737 C742 0.949 . S
H738 C744 0.950 . S
H739 C745 0.950 . S
H740 C746 0.949 . S
C741 H736 0.950 . S
C741 C743 1.327 . S
C741 C747 1.429 . S
C742 C734 1.574 . S
C742 H737 0.949 . S
C742 C748 1.368 . S
C743 C727 1.349 . S
C743 H735 0.950 . S
C743 C741 1.327 . S
C744 C732 1.349 . S
C744 H738 0.950 . S
C744 C745 1.327 . S
C745 H739 0.950 . S
C745 C744 1.327 . S
C745 C749 1.429 . S
C746 C729 1.574 . S
C746 H740 0.949 . S
C746 C750 1.368 . S
C747 C728 1.429 . S
C747 C741 1.429 . S
C747 C748 1.523 . S
C748 C729 1.368 . S
C748 C742 1.368 . S
C748 C747 1.523 . S
C749 C733 1.429 . S
C749 C745 1.429 . S
C749 C750 1.523 . S
C750 C734 1.368 . S
C750 C746 1.368 . S
C750 C749 1.523 . S
H751 C726 0.950 . S
H752 C728 0.950 . S
H753 C729 0.949 . S
H754 C731 0.950 . S
H755 C733 0.950 . S
C756 C757 1.349 . S
C756 C758 1.327 . S
C756 H781 0.950 . S
C757 C756 1.349 . S
C757 C773 1.349 . S
C758 C756 1.327 . S
C758 C777 1.429 . S
C758 H782 0.950 . S
C759 C776 1.574 . S
C759 C778 1.368 . S
C759 H783 0.949 . S
H760 C764 0.949 . S
C761 C762 1.349 . S
C761 C763 1.322 . S
C761 H784 0.950 . S
C762 C761 1.349 . S
C762 C774 1.349 . S
C763 C761 1.322 . S
C763 C779 1.433 1_554 S
C763 H785 0.951 1_554 S
C764 H760 0.949 . S
C764 C772 1.574 . S
C764 C780 1.368 . S
H765 C773 0.950 . S
H766 C771 0.950 . S
H767 C772 0.949 . S
H768 C774 0.950 . S
H769 C775 0.950 . S
H770 C776 0.949 . S
C771 H766 0.950 . S
C771 C773 1.327 . S
C771 C777 1.429 . S
C772 C764 1.574 . S
C772 H767 0.949 . S
C772 C778 1.368 . S
C773 C757 1.349 . S
C773 H765 0.950 . S
C773 C771 1.327 . S
C774 C762 1.349 . S
C774 H768 0.950 . S
C774 C775 1.327 1_554 S
C775 H769 0.950 . S
C775 C774 1.327 1_556 S
C775 C779 1.429 . S
C776 C759 1.574 . S
C776 H770 0.949 . S
C776 C780 1.368 . S
C777 C758 1.429 . S
C777 C771 1.429 . S
C777 C778 1.523 . S
C778 C759 1.368 . S
C778 C772 1.368 . S
C778 C777 1.523 . S
C779 C763 1.433 1_556 S
C779 C775 1.429 . S
C779 C780 1.523 . S
C780 C764 1.368 . S
C780 C776 1.368 . S
C780 C779 1.523 . S
H781 C756 0.950 . S
H782 C758 0.950 . S
H783 C759 0.949 . S
H784 C761 0.950 . S
H785 C763 0.951 1_556 S
C786 C787 1.349 . S
C786 C788 1.327 . S
C786 H811 0.950 . S
C787 C786 1.349 . S
C787 C803 1.349 . S
C788 C786 1.327 . S
C788 C807 1.429 . S
C788 H812 0.950 . S
C789 C806 1.574 . S
C789 C808 1.368 . S
C789 H813 0.949 . S
H790 C794 0.949 . S
C791 C792 1.349 . S
C791 C793 1.327 . S
C791 H814 0.950 . S
C792 C791 1.349 . S
C792 C804 1.349 . S
C793 C791 1.327 . S
C793 C809 1.429 . S
C793 H815 0.950 . S
C794 H790 0.949 . S
C794 C802 1.574 . S
C794 C810 1.368 . S
H795 C803 0.950 . S
H796 C801 0.950 . S
H797 C802 0.949 . S
H798 C804 0.950 . S
H799 C805 0.950 . S
H800 C806 0.949 . S
C801 H796 0.950 . S
C801 C803 1.327 . S
C801 C807 1.429 . S
C802 C794 1.574 . S
C802 H797 0.949 . S
C802 C808 1.368 . S
C803 C787 1.349 . S
C803 H795 0.950 . S
C803 C801 1.327 . S
C804 C792 1.349 . S
C804 H798 0.950 . S
C804 C805 1.327 . S
C805 H799 0.950 . S
C805 C804 1.327 . S
C805 C809 1.429 . S
C806 C789 1.574 . S
C806 H800 0.949 . S
C806 C810 1.368 . S
C807 C788 1.429 . S
C807 C801 1.429 . S
C807 C808 1.523 . S
C808 C789 1.368 . S
C808 C802 1.368 . S
C808 C807 1.523 . S
C809 C793 1.429 . S
C809 C805 1.429 . S
C809 C810 1.523 . S
C810 C794 1.368 . S
C810 C806 1.368 . S
C810 C809 1.523 . S
H811 C786 0.950 . S
H812 C788 0.950 . S
H813 C789 0.949 . S
H814 C791 0.950 . S
H815 C793 0.950 . S
C816 C817 1.349 . S
C816 C818 1.327 . S
C816 H841 0.950 . S
C817 C816 1.349 . S
C817 C833 1.349 . S
C818 C816 1.327 . S
C818 C837 1.429 . S
C818 H842 0.950 . S
C819 C836 1.574 . S
C819 C838 1.368 . S
C819 H843 0.949 . S
H820 C824 0.949 . S
C821 C822 1.349 . S
C821 C823 1.327 . S
C821 H844 0.950 . S
C822 C821 1.349 . S
C822 C834 1.349 . S
C823 C821 1.327 . S
C823 C839 1.429 . S
C823 H845 0.950 . S
C824 H820 0.949 . S
C824 C832 1.574 . S
C824 C840 1.368 . S
H825 C833 0.950 . S
H826 C831 0.950 . S
H827 C832 0.949 . S
H828 C834 0.950 . S
H829 C835 0.950 . S
H830 C836 0.949 . S
C831 H826 0.950 . S
C831 C833 1.327 . S
C831 C837 1.429 . S
C832 C824 1.574 . S
C832 H827 0.949 . S
C832 C838 1.368 . S
C833 C817 1.349 . S
C833 H825 0.950 . S
C833 C831 1.327 . S
C834 C822 1.349 . S
C834 H828 0.950 . S
C834 C835 1.327 . S
C835 H829 0.950 . S
C835 C834 1.327 . S
C835 C839 1.429 . S
C836 C819 1.574 . S
C836 H830 0.949 . S
C836 C840 1.368 . S
C837 C818 1.429 . S
C837 C831 1.429 . S
C837 C838 1.523 . S
C838 C819 1.368 . S
C838 C832 1.368 . S
C838 C837 1.523 . S
C839 C823 1.429 . S
C839 C835 1.429 . S
C839 C840 1.523 . S
C840 C824 1.368 . S
C840 C836 1.368 . S
C840 C839 1.523 . S
H841 C816 0.950 . S
H842 C818 0.950 . S
H843 C819 0.949 . S
H844 C821 0.950 . S
H845 C823 0.950 . S
C846 C847 1.349 . S
C846 C848 1.327 . S
C846 H871 0.950 . S
C847 C846 1.349 . S
C847 C863 1.349 . S
C848 C846 1.327 . S
C848 C867 1.429 . S
C848 H872 0.950 . S
C849 C866 1.574 . S
C849 C868 1.368 . S
C849 H873 0.949 . S
H850 C854 0.949 . S
C851 C852 1.349 . S
C851 C853 1.327 . S
C851 H874 0.950 . S
C852 C851 1.349 . S
C852 C864 1.349 . S
C853 C851 1.327 . S
C853 C869 1.429 . S
C853 H875 0.950 . S
C854 H850 0.949 . S
C854 C862 1.574 . S
C854 C870 1.368 . S
H855 C863 0.950 . S
H856 C861 0.950 . S
H857 C862 0.949 . S
H858 C864 0.950 . S
H859 C865 0.950 . S
H860 C866 0.949 . S
C861 H856 0.950 . S
C861 C863 1.327 . S
C861 C867 1.429 . S
C862 C854 1.574 . S
C862 H857 0.949 . S
C862 C868 1.368 . S
C863 C847 1.349 . S
C863 H855 0.950 . S
C863 C861 1.327 . S
C864 C852 1.349 . S
C864 H858 0.950 . S
C864 C865 1.327 . S
C865 H859 0.950 . S
C865 C864 1.327 . S
C865 C869 1.429 . S
C866 C849 1.574 . S
C866 H860 0.949 . S
C866 C870 1.368 . S
C867 C848 1.429 . S
C867 C861 1.429 . S
C867 C868 1.523 . S
C868 C849 1.368 . S
C868 C862 1.368 . S
C868 C867 1.523 . S
C869 C853 1.429 . S
C869 C865 1.429 . S
C869 C870 1.523 . S
C870 C854 1.368 . S
C870 C866 1.368 . S
C870 C869 1.523 . S
H871 C846 0.950 . S
H872 C848 0.950 . S
H873 C849 0.949 . S
H874 C851 0.950 . S
H875 C853 0.950 . S
C876 C877 1.349 . S
C876 C878 1.327 . S
C876 H901 0.950 1_565 S
C877 C876 1.349 . S
C877 C893 1.349 . S
C878 C876 1.327 . S
C878 C897 1.429 . S
C878 H902 0.950 . S
C879 C896 1.574 . S
C879 C898 1.368 . S
C879 H903 0.949 . S
H880 C884 0.949 . S
C881 C882 1.349 . S
C881 C883 1.327 . S
C881 H904 0.950 . S
C882 C881 1.349 . S
C882 C894 1.349 . S
C883 C881 1.327 . S
C883 C899 1.429 . S
C883 H905 0.950 . S
C884 H880 0.949 . S
C884 C892 1.574 . S
C884 C900 1.368 . S
H885 C893 0.950 . S
H886 C891 0.950 . S
H887 C892 0.949 . S
H888 C894 0.950 . S
H889 C895 0.950 . S
H890 C896 0.949 . S
C891 H886 0.950 . S
C891 C893 1.327 . S
C891 C897 1.429 . S
C892 C884 1.574 . S
C892 H887 0.949 . S
C892 C898 1.368 . S
C893 C877 1.349 . S
C893 H885 0.950 . S
C893 C891 1.327 . S
C894 C882 1.349 . S
C894 H888 0.950 . S
C894 C895 1.327 . S
C895 H889 0.950 . S
C895 C894 1.327 . S
C895 C899 1.429 . S
C896 C879 1.574 . S
C896 H890 0.949 . S
C896 C900 1.368 . S
C897 C878 1.429 . S
C897 C891 1.429 . S
C897 C898 1.523 . S
C898 C879 1.368 . S
C898 C892 1.368 . S
C898 C897 1.523 . S
C899 C883 1.429 . S
C899 C895 1.429 . S
C899 C900 1.523 . S
C900 C884 1.368 . S
C900 C896 1.368 . S
C900 C899 1.523 . S
H901 C876 0.950 1_545 S
H902 C878 0.950 . S
H903 C879 0.949 . S
H904 C881 0.950 . S
H905 C883 0.950 . S
C906 C907 1.349 . S
C906 C908 1.327 . S
C906 H931 0.950 . S
C907 C906 1.349 . S
C907 C923 1.349 . S
C908 C906 1.327 . S
C908 C927 1.429 . S
C908 H932 0.950 . S
C909 C926 1.574 . S
C909 C928 1.368 . S
C909 H933 0.949 . S
H910 C914 0.949 . S
C911 C912 1.349 . S
C911 C913 1.327 . S
C911 H934 0.950 . S
C912 C911 1.349 . S
C912 C924 1.349 . S
C913 C911 1.327 . S
C913 C929 1.429 . S
C913 H935 0.950 . S
C914 H910 0.949 . S
C914 C922 1.574 . S
C914 C930 1.368 . S
H915 C923 0.950 . S
H916 C921 0.950 . S
H917 C922 0.949 . S
H918 C924 0.950 . S
H919 C925 0.950 . S
H920 C926 0.949 . S
C921 H916 0.950 . S
C921 C923 1.327 . S
C921 C927 1.429 . S
C922 C914 1.574 . S
C922 H917 0.949 . S
C922 C928 1.368 . S
C923 C907 1.349 . S
C923 H915 0.950 . S
C923 C921 1.327 . S
C924 C912 1.349 . S
C924 H918 0.950 . S
C924 C925 1.327 . S
C925 H919 0.950 . S
C925 C924 1.327 . S
C925 C929 1.429 . S
C926 C909 1.574 . S
C926 H920 0.949 . S
C926 C930 1.368 . S
C927 C908 1.429 . S
C927 C921 1.429 . S
C927 C928 1.523 . S
C928 C909 1.368 . S
C928 C922 1.368 . S
C928 C927 1.523 . S
C929 C913 1.429 . S
C929 C925 1.429 . S
C929 C930 1.523 . S
C930 C914 1.368 . S
C930 C926 1.368 . S
C930 C929 1.523 . S
H931 C906 0.950 . S
H932 C908 0.950 . S
H933 C909 0.949 . S
H934 C911 0.950 . S
H935 C913 0.950 . S
C936 C937 1.349 . S
C936 C938 1.327 . S
C936 H961 0.950 . S
C937 C936 1.349 . S
C937 C953 1.349 . S
C938 C936 1.327 . S
C938 C957 1.429 . S
C938 H962 0.950 . S
C939 C956 1.574 . S
C939 C958 1.368 . S
C939 H963 0.949 . S
H940 C944 0.949 . S
C941 C942 1.349 . S
C941 C943 1.327 . S
C941 H964 0.950 . S
C942 C941 1.349 . S
C942 C954 1.349 . S
C943 C941 1.327 . S
C943 C959 1.429 . S
C943 H965 0.950 . S
C944 H940 0.949 . S
C944 C952 1.574 . S
C944 C960 1.368 . S
H945 C953 0.950 . S
H946 C951 0.950 . S
H947 C952 0.949 . S
H948 C954 0.950 . S
H949 C955 0.950 . S
H950 C956 0.949 . S
C951 H946 0.950 . S
C951 C953 1.327 . S
C951 C957 1.429 . S
C952 C944 1.574 . S
C952 H947 0.949 . S
C952 C958 1.368 . S
C953 C937 1.349 . S
C953 H945 0.950 . S
C953 C951 1.327 . S
C954 C942 1.349 . S
C954 H948 0.950 . S
C954 C955 1.327 . S
C955 H949 0.950 . S
C955 C954 1.327 . S
C955 C959 1.429 . S
C956 C939 1.574 . S
C956 H950 0.949 . S
C956 C960 1.368 . S
C957 C938 1.429 . S
C957 C951 1.429 . S
C957 C958 1.523 . S
C958 C939 1.368 . S
C958 C952 1.368 . S
C958 C957 1.523 . S
C959 C943 1.429 . S
C959 C955 1.429 . S
C959 C960 1.523 . S
C960 C944 1.368 . S
C960 C956 1.368 . S
C960 C959 1.523 . S
H961 C936 0.950 . S
H962 C938 0.950 . S
H963 C939 0.949 . S
H964 C941 0.950 . S
H965 C943 0.950 . S
C966 C967 1.349 . S
C966 C968 1.327 . S
C966 H991 0.950 . S
C967 C966 1.349 . S
C967 C983 1.349 . S
C968 C966 1.327 . S
C968 C987 1.429 . S
C968 H992 0.950 . S
C969 C986 1.574 . S
C969 C988 1.368 . S
C969 H993 0.949 . S
H970 C974 0.949 . S
C971 C972 1.349 . S
C971 C973 1.327 . S
C971 H994 0.950 . S
C972 C971 1.349 . S
C972 C984 1.349 . S
C973 C971 1.327 . S
C973 C989 1.429 . S
C973 H995 0.950 . S
C974 H970 0.949 . S
C974 C982 1.574 . S
C974 C990 1.368 . S
H975 C983 0.950 . S
H976 C981 0.950 . S
H977 C982 0.949 . S
H978 C984 0.950 . S
H979 C985 0.950 . S
H980 C986 0.949 . S
C981 H976 0.950 . S
C981 C983 1.327 . S
C981 C987 1.429 . S
C982 C974 1.574 . S
C982 H977 0.949 . S
C982 C988 1.368 . S
C983 C967 1.349 . S
C983 H975 0.950 . S
C983 C981 1.327 . S
C984 C972 1.349 . S
C984 H978 0.950 . S
C984 C985 1.327 . S
C985 H979 0.950 . S
C985 C984 1.327 . S
C985 C989 1.429 . S
C986 C969 1.574 . S
C986 H980 0.949 . S
C986 C990 1.368 . S
C987 C968 1.429 . S
C987 C981 1.429 . S
C987 C988 1.523 . S
C988 C969 1.368 . S
C988 C982 1.368 . S
C988 C987 1.523 . S
C989 C973 1.429 . S
C989 C985 1.429 . S
C989 C990 1.523 . S
C990 C974 1.368 . S
C990 C986 1.368 . S
C990 C989 1.523 . S
H991 C966 0.950 . S
H992 C968 0.950 . S
H993 C969 0.949 . S
H994 C971 0.950 . S
H995 C973 0.950 . S
C996 C997 1.349 . S
C996 C998 1.327 . S
C996 H1021 0.950 . S
C997 C996 1.349 . S
C997 C1013 1.349 . S
C998 C996 1.327 . S
C998 C1017 1.429 . S
C998 H1022 0.950 . S
C999 C1016 1.574 . S
C999 C1018 1.368 . S
C999 H1023 0.949 . S
H1000 C1004 0.949 . S
C1001 C1002 1.349 . S
C1001 C1003 1.327 . S
C1001 H1024 0.950 . S
C1002 C1001 1.349 . S
C1002 C1014 1.349 . S
C1003 C1001 1.327 . S
C1003 C1019 1.429 . S
C1003 H1025 0.950 . S
C1004 H1000 0.949 . S
C1004 C1012 1.574 . S
C1004 C1020 1.368 . S
H1005 C1013 0.950 . S
H1006 C1011 0.950 . S
H1007 C1012 0.949 . S
H1008 C1014 0.950 . S
H1009 C1015 0.950 . S
H1010 C1016 0.949 . S
C1011 H1006 0.950 . S
C1011 C1013 1.327 . S
C1011 C1017 1.429 . S
C1012 C1004 1.574 . S
C1012 H1007 0.949 . S
C1012 C1018 1.368 . S
C1013 C997 1.349 . S
C1013 H1005 0.950 . S
C1013 C1011 1.327 . S
C1014 C1002 1.349 . S
C1014 H1008 0.950 . S
C1014 C1015 1.327 . S
C1015 H1009 0.950 . S
C1015 C1014 1.327 . S
C1015 C1019 1.429 . S
C1016 C999 1.574 . S
C1016 H1010 0.949 . S
C1016 C1020 1.368 . S
C1017 C998 1.429 . S
C1017 C1011 1.429 . S
C1017 C1018 1.523 . S
C1018 C999 1.368 . S
C1018 C1012 1.368 . S
C1018 C1017 1.523 . S
C1019 C1003 1.429 . S
C1019 C1015 1.429 . S
C1019 C1020 1.523 . S
C1020 C1004 1.368 . S
C1020 C1016 1.368 . S
C1020 C1019 1.523 . S
H1021 C996 0.950 . S
H1022 C998 0.950 . S
H1023 C999 0.949 . S
H1024 C1001 0.950 . S
H1025 C1003 0.950 . S
C1026 C1027 1.352 . S
C1026 C1028 1.327 1_455 S
C1026 H1051 0.950 . S
C1027 C1026 1.352 . S
C1027 C1043 1.325 1_455 S
C1028 C1026 1.327 1_655 S
C1028 C1047 1.429 . S
C1028 H1052 0.950 . S
C1029 C1046 1.574 . S
C1029 C1048 1.368 . S
C1029 H1053 0.949 . S
H1030 C1034 0.949 . S
C1031 C1032 1.349 . S
C1031 C1033 1.327 . S
C1031 H1054 0.950 . S
C1032 C1031 1.349 . S
C1032 C1044 1.349 . S
C1033 C1031 1.327 . S
C1033 C1049 1.429 . S
C1033 H1055 0.950 . S
C1034 H1030 0.949 . S
C1034 C1042 1.574 . S
C1034 C1050 1.368 . S
H1035 C1043 0.950 . S
H1036 C1041 0.950 . S
H1037 C1042 0.949 . S
H1038 C1044 0.950 . S
H1039 C1045 0.950 . S
H1040 C1046 0.949 . S
C1041 H1036 0.950 . S
C1041 C1043 1.327 . S
C1041 C1047 1.429 . S
C1042 C1034 1.574 . S
C1042 H1037 0.949 . S
C1042 C1048 1.368 . S
C1043 C1027 1.325 1_655 S
C1043 H1035 0.950 . S
C1043 C1041 1.327 . S
C1044 C1032 1.349 . S
C1044 H1038 0.950 . S
C1044 C1045 1.327 . S
C1045 H1039 0.950 . S
C1045 C1044 1.327 . S
C1045 C1049 1.429 . S
C1046 C1029 1.574 . S
C1046 H1040 0.949 . S
C1046 C1050 1.368 . S
C1047 C1028 1.429 . S
C1047 C1041 1.429 . S
C1047 C1048 1.523 . S
C1048 C1029 1.368 . S
C1048 C1042 1.368 . S
C1048 C1047 1.523 . S
C1049 C1033 1.429 . S
C1049 C1045 1.429 . S
C1049 C1050 1.523 . S
C1050 C1034 1.368 . S
C1050 C1046 1.368 . S
C1050 C1049 1.523 . S
H1051 C1026 0.950 . S
H1052 C1028 0.950 . S
H1053 C1029 0.949 . S
H1054 C1031 0.950 . S
H1055 C1033 0.950 . S
C1056 C1057 1.349 . S
C1056 C1058 1.327 . S
C1056 H1081 0.950 . S
C1057 C1056 1.349 . S
C1057 C1073 1.349 . S
C1058 C1056 1.327 . S
C1058 C1077 1.429 . S
C1058 H1082 0.950 . S
C1059 C1076 1.574 . S
C1059 C1078 1.368 . S
C1059 H1083 0.949 . S
H1060 C1064 0.949 . S
C1061 C1062 1.349 . S
C1061 C1063 1.327 . S
C1061 H1084 0.950 . S
C1062 C1061 1.349 . S
C1062 C1074 1.349 . S
C1063 C1061 1.327 . S
C1063 C1079 1.429 . S
C1063 H1085 0.950 . S
C1064 H1060 0.949 . S
C1064 C1072 1.574 . S
C1064 C1080 1.368 . S
H1065 C1073 0.950 . S
H1066 C1071 0.950 . S
H1067 C1072 0.949 . S
H1068 C1074 0.950 . S
H1069 C1075 0.950 . S
H1070 C1076 0.949 . S
C1071 H1066 0.950 . S
C1071 C1073 1.327 . S
C1071 C1077 1.429 . S
C1072 C1064 1.574 . S
C1072 H1067 0.949 . S
C1072 C1078 1.368 . S
C1073 C1057 1.349 . S
C1073 H1065 0.950 . S
C1073 C1071 1.327 . S
C1074 C1062 1.349 . S
C1074 H1068 0.950 . S
C1074 C1075 1.327 . S
C1075 H1069 0.950 . S
C1075 C1074 1.327 . S
C1075 C1079 1.429 . S
C1076 C1059 1.574 . S
C1076 H1070 0.949 . S
C1076 C1080 1.368 . S
C1077 C1058 1.429 . S
C1077 C1071 1.429 . S
C1077 C1078 1.523 . S
C1078 C1059 1.368 . S
C1078 C1072 1.368 . S
C1078 C1077 1.523 . S
C1079 C1063 1.429 . S
C1079 C1075 1.429 . S
C1079 C1080 1.523 . S
C1080 C1064 1.368 . S
C1080 C1076 1.368 . S
C1080 C1079 1.523 . S
H1081 C1056 0.950 . S
H1082 C1058 0.950 . S
H1083 C1059 0.949 . S
H1084 C1061 0.950 . S
H1085 C1063 0.950 . S
C1086 C1087 1.349 . S
C1086 C1088 1.327 . S
C1086 H1111 0.950 . S
C1087 C1086 1.349 . S
C1087 C1103 1.349 . S
C1088 C1086 1.327 . S
C1088 C1107 1.429 . S
C1088 H1112 0.950 . S
C1089 C1106 1.574 . S
C1089 C1108 1.368 . S
C1089 H1113 0.949 . S
H1090 C1094 0.949 . S
C1091 C1092 1.349 . S
C1091 C1093 1.327 . S
C1091 H1114 0.950 . S
C1092 C1091 1.349 . S
C1092 C1104 1.349 . S
C1093 C1091 1.327 . S
C1093 C1109 1.429 . S
C1093 H1115 0.950 . S
C1094 H1090 0.949 . S
C1094 C1102 1.574 . S
C1094 C1110 1.368 . S
H1095 C1103 0.950 . S
H1096 C1101 0.950 . S
H1097 C1102 0.949 . S
H1098 C1104 0.950 1_655 S
H1099 C1105 0.950 . S
H1100 C1106 0.949 . S
C1101 H1096 0.950 . S
C1101 C1103 1.327 . S
C1101 C1107 1.429 . S
C1102 C1094 1.574 . S
C1102 H1097 0.949 . S
C1102 C1108 1.368 . S
C1103 C1087 1.349 . S
C1103 H1095 0.950 . S
C1103 C1101 1.327 . S
C1104 C1092 1.349 . S
C1104 H1098 0.950 1_455 S
C1104 C1105 1.327 . S
C1105 H1099 0.950 . S
C1105 C1104 1.327 . S
C1105 C1109 1.429 . S
C1106 C1089 1.574 . S
C1106 H1100 0.949 . S
C1106 C1110 1.368 . S
C1107 C1088 1.429 . S
C1107 C1101 1.429 . S
C1107 C1108 1.523 . S
C1108 C1089 1.368 . S
C1108 C1102 1.368 . S
C1108 C1107 1.523 . S
C1109 C1093 1.429 . S
C1109 C1105 1.429 . S
C1109 C1110 1.523 . S
C1110 C1094 1.368 . S
C1110 C1106 1.368 . S
C1110 C1109 1.523 . S
H1111 C1086 0.950 . S
H1112 C1088 0.950 . S
H1113 C1089 0.949 . S
H1114 C1091 0.950 . S
H1115 C1093 0.950 . S
C1116 C1117 1.349 . S
C1116 C1118 1.327 . S
C1116 H1141 0.950 . S
C1117 C1116 1.349 . S
C1117 C1133 1.349 . S
C1118 C1116 1.327 . S
C1118 C1137 1.429 . S
C1118 H1142 0.950 . S
C1119 C1136 1.574 . S
C1119 C1138 1.368 . S
C1119 H1143 0.949 . S
H1120 C1124 0.949 . S
C1121 C1122 1.349 . S
C1121 C1123 1.327 . S
C1121 H1144 0.950 . S
C1122 C1121 1.349 . S
C1122 C1134 1.349 . S
C1123 C1121 1.327 . S
C1123 C1139 1.429 . S
C1123 H1145 0.950 . S
C1124 H1120 0.949 . S
C1124 C1132 1.574 . S
C1124 C1140 1.368 . S
H1125 C1133 0.950 . S
H1126 C1131 0.950 . S
H1127 C1132 0.949 . S
H1128 C1134 0.950 . S
H1129 C1135 0.950 . S
H1130 C1136 0.949 . S
C1131 H1126 0.950 . S
C1131 C1133 1.327 . S
C1131 C1137 1.429 . S
C1132 C1124 1.574 . S
C1132 H1127 0.949 . S
C1132 C1138 1.368 . S
C1133 C1117 1.349 . S
C1133 H1125 0.950 . S
C1133 C1131 1.327 . S
C1134 C1122 1.349 . S
C1134 H1128 0.950 . S
C1134 C1135 1.327 . S
C1135 H1129 0.950 . S
C1135 C1134 1.327 . S
C1135 C1139 1.429 . S
C1136 C1119 1.574 . S
C1136 H1130 0.949 . S
C1136 C1140 1.368 . S
C1137 C1118 1.429 . S
C1137 C1131 1.429 . S
C1137 C1138 1.523 . S
C1138 C1119 1.368 . S
C1138 C1132 1.368 . S
C1138 C1137 1.523 . S
C1139 C1123 1.429 . S
C1139 C1135 1.429 . S
C1139 C1140 1.523 . S
C1140 C1124 1.368 . S
C1140 C1136 1.368 . S
C1140 C1139 1.523 . S
H1141 C1116 0.950 . S
H1142 C1118 0.950 . S
H1143 C1119 0.949 . S
H1144 C1121 0.950 . S
H1145 C1123 0.950 . S
C1146 C1147 1.349 . S
C1146 C1148 1.327 . S
C1146 H1171 0.950 . S
C1147 C1146 1.349 . S
C1147 C1163 1.349 . S
C1148 C1146 1.327 . S
C1148 C1167 1.429 . S
C1148 H1172 0.950 . S
C1149 C1166 1.574 . S
C1149 C1168 1.368 . S
C1149 H1173 0.949 . S
H1150 C1154 0.949 . S
C1151 C1152 1.349 . S
C1151 C1153 1.327 . S
C1151 H1174 0.950 . S
C1152 C1151 1.349 . S
C1152 C1164 1.349 . S
C1153 C1151 1.327 . S
C1153 C1169 1.429 . S
C1153 H1175 0.950 . S
C1154 H1150 0.949 . S
C1154 C1162 1.574 . S
C1154 C1170 1.368 . S
H1155 C1163 0.950 . S
H1156 C1161 0.950 . S
H1157 C1162 0.949 . S
H1158 C1164 0.950 . S
H1159 C1165 0.950 . S
H1160 C1166 0.949 . S
C1161 H1156 0.950 . S
C1161 C1163 1.327 . S
C1161 C1167 1.429 . S
C1162 C1154 1.574 . S
C1162 H1157 0.949 . S
C1162 C1168 1.368 . S
C1163 C1147 1.349 . S
C1163 H1155 0.950 . S
C1163 C1161 1.327 . S
C1164 C1152 1.349 . S
C1164 H1158 0.950 . S
C1164 C1165 1.327 . S
C1165 H1159 0.950 . S
C1165 C1164 1.327 . S
C1165 C1169 1.429 . S
C1166 C1149 1.574 . S
C1166 H1160 0.949 . S
C1166 C1170 1.368 . S
C1167 C1148 1.429 . S
C1167 C1161 1.429 . S
C1167 C1168 1.523 . S
C1168 C1149 1.368 . S
C1168 C1162 1.368 . S
C1168 C1167 1.523 . S
C1169 C1153 1.429 . S
C1169 C1165 1.429 . S
C1169 C1170 1.523 . S
C1170 C1154 1.368 . S
C1170 C1166 1.368 . S
C1170 C1169 1.523 . S
H1171 C1146 0.950 . S
H1172 C1148 0.950 . S
H1173 C1149 0.949 . S
H1174 C1151 0.950 . S
H1175 C1153 0.950 . S
C222 C124 1.241 . S
C217 C5 1.236 . S
C252 C141 1.427 . S
C247 C18 1.457 . S
C282 C155 1.606 . S
C277 C31 1.628 . S
C307 C42 1.385 . S
C312 C113 1.336 . S
C337 C57 1.000 . S
C342 C110 0.975 . S
C367 C70 0.915 . S
C372 C127 0.886 . S
C402 C138 1.381 1_545 S
C397 C81 1.362 . S
C432 C152 1.124 . S
C427 C96 1.159 . S
C457 C29 1.112 . S
C462 C180 1.121 . S
C492 C194 1.384 . S
C487 C44 1.425 . S
C517 C3 0.892 . S
C522 C211 0.877 . S
C552 C166 1.010 . S
C547 C16 0.994 . S
C577 C83 1.347 . S
C582 C169 1.325 . S
C607 C94 1.646 . S
C612 C183 1.592 . S
C642 C197 1.444 . S
C637 C55 1.503 . S
C667 C68 1.218 . S
C672 C208 1.223 . S
C702 C140 1.774 1_545 S
C697 C1 1.750 . S
C732 C154 1.865 . S
C727 C14 1.810 . S
C757 C27 1.722 . S
C762 C112 1.772 . S
C787 C49 1.697 . S
C792 C125 1.609 . S
C817 C53 1.345 . S
C822 C153 1.241 . S
C852 C111 1.118 . S
C847 C66 1.199 . S
C882 C126 1.546 . S
C877 C88 1.558 1_565 S
C912 C139 1.369 . S
C907 C92 1.480 . S
C942 C195 1.381 . S
C937 C36 1.481 . S
C972 C210 1.536 . S
C967 C40 1.562 . S
C997 C10 1.239 . S
C1002 C167 1.144 . S
C1032 C181 1.234 . S
C1027 C23 1.355 . S
C1062 C209 1.608 . S
C1057 C79 1.632 . S
C1087 C101 1.806 . S
C1092 C168 1.790 . S
C1122 C182 1.855 . S
C1117 C62 1.870 . S
C1152 C196 1.777 . S
C1147 C75 1.794 . S
