# Generated by pormake.
# Topology ssa, (4,4)-cn, num edge types: 1
# Building blocks:
#     Node 0, Type 0, BuildingBlock: NAWXER_clean_sbu_0, # of connection points: 4
#     Node 1, Type 0, BuildingBlock: NAWXER_clean_sbu_0, # of connection points: 4
#     Node 2, Type 0, BuildingBlock: NAWXER_clean_sbu_0, # of connection points: 4
#     Node 3, Type 0, BuildingBlock: NAWXER_clean_sbu_0, # of connection points: 4
#     Node 4, Type 0, BuildingBlock: NAWXER_clean_sbu_0, # of connection points: 4
#     Node 5, Type 0, BuildingBlock: NAWXER_clean_sbu_0, # of connection points: 4
#     Node 6, Type 1, BuildingBlock: KOZSID_clean_sbu_0, # of connection points: 4
#     Node 7, Type 1, BuildingBlock: KOZSID_clean_sbu_0, # of connection points: 4
#     Node 8, Type 1, BuildingBlock: KOZSID_clean_sbu_0, # of connection points: 4
#     Node 9, Type 1, BuildingBlock: KOZSID_clean_sbu_0, # of connection points: 4
#     Node 10, Type 1, BuildingBlock: KOZSID_clean_sbu_0, # of connection points: 4
#     Node 11, Type 1, BuildingBlock: KOZSID_clean_sbu_0, # of connection points: 4
#     Edge 12, Type (0, 1), BuildingBlock: OJICUG_clean_linker_0, # of connection points: 2
#     Edge 13, Type (0, 1), BuildingBlock: OJICUG_clean_linker_0, # of connection points: 2
#     Edge 14, Type (0, 1), BuildingBlock: OJICUG_clean_linker_0, # of connection points: 2
#     Edge 15, Type (0, 1), BuildingBlock: OJICUG_clean_linker_0, # of connection points: 2
#     Edge 16, Type (0, 1), BuildingBlock: OJICUG_clean_linker_0, # of connection points: 2
#     Edge 17, Type (0, 1), BuildingBlock: OJICUG_clean_linker_0, # of connection points: 2
#     Edge 18, Type (0, 1), BuildingBlock: OJICUG_clean_linker_0, # of connection points: 2
#     Edge 19, Type (0, 1), BuildingBlock: OJICUG_clean_linker_0, # of connection points: 2
#     Edge 20, Type (0, 1), BuildingBlock: OJICUG_clean_linker_0, # of connection points: 2
#     Edge 21, Type (0, 1), BuildingBlock: OJICUG_clean_linker_0, # of connection points: 2
#     Edge 22, Type (0, 1), BuildingBlock: OJICUG_clean_linker_0, # of connection points: 2
#     Edge 23, Type (0, 1), BuildingBlock: OJICUG_clean_linker_0, # of connection points: 2
#     Edge 24, Type (0, 1), BuildingBlock: OJICUG_clean_linker_0, # of connection points: 2
#     Edge 25, Type (0, 1), BuildingBlock: OJICUG_clean_linker_0, # of connection points: 2
#     Edge 26, Type (0, 1), BuildingBlock: OJICUG_clean_linker_0, # of connection points: 2
#     Edge 27, Type (0, 1), BuildingBlock: OJICUG_clean_linker_0, # of connection points: 2
#     Edge 28, Type (0, 1), BuildingBlock: OJICUG_clean_linker_0, # of connection points: 2
#     Edge 29, Type (0, 1), BuildingBlock: OJICUG_clean_linker_0, # of connection points: 2
#     Edge 30, Type (0, 1), BuildingBlock: OJICUG_clean_linker_0, # of connection points: 2
#     Edge 31, Type (0, 1), BuildingBlock: OJICUG_clean_linker_0, # of connection points: 2
#     Edge 32, Type (0, 1), BuildingBlock: OJICUG_clean_linker_0, # of connection points: 2
#     Edge 33, Type (0, 1), BuildingBlock: OJICUG_clean_linker_0, # of connection points: 2
#     Edge 34, Type (0, 1), BuildingBlock: OJICUG_clean_linker_0, # of connection points: 2
#     Edge 35, Type (0, 1), BuildingBlock: OJICUG_clean_linker_0, # of connection points: 2
# Relax obj value: 0.023
# Max RMSD: 0.069
# Mean RMSD: 0.032
data_MOF--net-ssa--node1-NAWXER_clean_sbu_0--node2-KOZSID_clean_sbu_0--edge1-OJICUG_clean_linker_0
_symmetry_space_group_name_H-M    P1
_symmetry_Int_Tables_number       1
_symmetry_cell_setting            triclinic
loop_
_symmetry_equiv_pos_as_xyz
'x, y, z'
_cell_length_a     39.528916
_cell_length_b     39.557641
_cell_length_c     27.67902
_cell_angle_alpha  94.388186
_cell_angle_beta   94.41572
_cell_angle_gamma 120.0256
loop_
_atom_site_label
_atom_site_type_symbol
_atom_site_fract_x
_atom_site_fract_y
_atom_site_fract_z
_atom_type_partial_charge
C0 C 0.04714 0.57151 0.05435 0.0
C1 C 0.95721 0.43578 0.97938 0.0
O2 O 0.01759 0.54574 0.07224 0.0
Zn3 Zn 1.00154 0.50259 0.02082 0.0
O4 O 0.05566 0.5623 0.01357 0.0
Zn5 Zn 0.03564 0.51297 0.95968 0.0
O6 O 0.01779 0.52952 0.90133 0.0
O7 O 0.98174 0.52173 0.96103 0.0
O8 O 0.98596 0.45601 0.95592 0.0
O9 O 0.95499 0.4509 0.02048 0.0
O10 O 0.04887 0.49164 0.03155 0.0
O11 O 0.08078 0.50354 0.96743 0.0
C12 C 0.9889 0.53034 0.91795 0.0
C13 C 0.07707 0.49312 0.01014 0.0
C14 C 0.502 0.04291 0.57119 0.0
C15 C 0.53228 0.94953 0.47968 0.0
O16 O 0.49943 0.01209 0.58616 0.0
Zn17 Zn 0.51586 0.99393 0.52869 0.0
O18 O 0.51235 0.05094 0.52882 0.0
Zn19 Zn 0.53011 0.02904 0.46841 0.0
O20 O 0.4882 0.01521 0.41498 0.0
O21 O 0.46839 0.97754 0.47382 0.0
O22 O 0.53673 0.97873 0.45809 0.0
O23 O 0.52095 0.94651 0.52188 0.0
O24 O 0.57481 0.04021 0.53347 0.0
O25 O 0.5842 0.07283 0.46983 0.0
C26 C 0.46088 0.98677 0.43271 0.0
C27 C 0.59763 0.06822 0.51059 0.0
C28 C 0.4979 0.45395 0.94191 0.0
C29 C 0.54003 0.58293 0.03949 0.0
O30 O 0.49449 0.48188 0.92678 0.0
Zn31 Zn 0.51778 0.51929 0.98776 0.0
O32 O 0.51248 0.45803 0.98642 0.0
Zn33 Zn 0.53775 0.50119 0.05009 0.0
O34 O 0.5021 0.47696 0.09793 0.0
O35 O 0.47537 0.492 0.03631 0.0
O36 O 0.54656 0.55925 0.06205 0.0
O37 O 0.52447 0.57243 0.99484 0.0
O38 O 0.57696 0.53176 0.99224 0.0
O39 O 0.59123 0.51008 0.0575 0.0
C40 C 0.47289 0.47804 0.07698 0.0
C41 C 0.60137 0.52659 0.0192 0.0
C42 C 0.05856 0.5792 0.49888 0.0
C43 C 0.97759 0.45876 0.57685 0.0
O44 O 0.06696 0.57406 0.54214 0.0
Zn45 Zn 0.02175 0.51974 0.54016 0.0
O46 O 0.02774 0.55143 0.47188 0.0
Zn47 Zn 0.9809 0.49218 0.47369 0.0
O48 O 0.93472 0.49728 0.46313 0.0
O49 O 0.97254 0.52876 0.53356 0.0
O50 O 0.96506 0.45735 0.53226 0.0
O51 O 0.01042 0.48856 0.59622 0.0
O52 O 0.038 0.49012 0.48801 0.0
O53 O 0.99198 0.46282 0.42405 0.0
C54 C 0.94161 0.51865 0.50361 0.0
C55 C 0.02516 0.47032 0.44525 0.0
C56 C 0.53526 0.98762 0.07518 0.0
C57 C 0.49182 0.07509 0.01615 0.0
O58 O 0.54524 0.0217 0.09614 0.0
Zn59 Zn 0.51523 0.03317 0.04768 0.0
O60 O 0.5133 0.9745 0.03378 0.0
Zn61 Zn 0.4823 0.99085 0.9836 0.0
O62 O 0.50856 0.99701 0.92405 0.0
O63 O 0.54715 0.04172 0.98632 0.0
O64 O 0.47798 0.0423 0.98853 0.0
O65 O 0.51471 0.08236 0.05537 0.0
O66 O 0.45605 0.98905 0.05642 0.0
O67 O 0.42814 0.94842 0.98757 0.0
C68 C 0.54174 0.02713 0.94154 0.0
C69 C 0.42634 0.95821 0.03187 0.0
C70 C 0.56025 0.51023 0.55891 0.0
C71 C 0.43399 0.47123 0.45578 0.0
O72 O 0.53237 0.51453 0.57253 0.0
Zn73 Zn 0.49617 0.49148 0.51045 0.0
O74 O 0.55682 0.4954 0.51473 0.0
Zn75 Zn 0.5149 0.47073 0.44964 0.0
O76 O 0.54167 0.50605 0.40257 0.0
O77 O 0.52609 0.53364 0.46265 0.0
O78 O 0.45762 0.46377 0.43446 0.0
O79 O 0.44367 0.48624 0.50062 0.0
O80 O 0.48292 0.43216 0.50748 0.0
O81 O 0.50519 0.41707 0.44341 0.0
C82 C 0.54122 0.53577 0.42291 0.0
C83 C 0.48829 0.40745 0.48153 0.0
C84 C 0.22042 0.50863 0.16403 0.0
C85 C 0.22762 0.54581 0.15604 0.0
C86 C 0.25042 0.57113 0.19702 0.0
C87 C 0.256 0.54827 0.22773 0.0
N88 N 0.23882 0.51012 0.20851 0.0
Co89 Co 0.23887 0.46746 0.24281 0.0
N90 N 0.28083 0.50607 0.29576 0.0
C91 C 0.29209 0.54436 0.30584 0.0
C92 C 0.32254 0.56415 0.34339 0.0
C93 C 0.331 0.53661 0.35804 0.0
C94 C 0.3049 0.50132 0.32871 0.0
N95 N 0.23954 0.42518 0.27687 0.0
C96 C 0.26739 0.42721 0.31093 0.0
C97 C 0.2562 0.39044 0.32464 0.0
C98 C 0.22016 0.36452 0.29808 0.0
C99 C 0.21134 0.38686 0.26982 0.0
N100 N 0.19624 0.42871 0.19049 0.0
C101 C 0.17321 0.38982 0.19267 0.0
C102 C 0.14534 0.37013 0.15243 0.0
C103 C 0.15041 0.39841 0.12345 0.0
C104 C 0.18105 0.43403 0.14784 0.0
N105 N 0.27914 0.4684 0.20503 0.0
C106 C 0.34095 0.46712 0.16369 0.0
C107 C 0.30458 0.43255 0.1619 0.0
C108 C 0.27424 0.43376 0.1831 0.0
C109 C 0.34538 0.50266 0.18479 0.0
C110 C 0.31388 0.50275 0.20455 0.0
N111 N 0.19856 0.46582 0.28129 0.0
C112 C 0.17116 0.45744 0.35722 0.0
C113 C 0.13896 0.45942 0.33574 0.0
C114 C 0.13754 0.46489 0.28635 0.0
C115 C 0.16736 0.46782 0.2599 0.0
C116 C 0.20068 0.46111 0.32964 0.0
H117 H 0.16494 0.47167 0.2221 0.0
H118 H 0.22512 0.4598 0.34753 0.0
H119 H 0.24729 0.40633 0.18309 0.0
H120 H 0.31808 0.53046 0.22069 0.0
C121 C 0.27908 0.56204 0.27342 0.0
C122 C 0.19081 0.47236 0.13222 0.0
C123 C 0.30306 0.46375 0.33365 0.0
C124 C 0.18086 0.37235 0.23091 0.0
H125 H 0.21622 0.55365 0.12477 0.0
H126 H 0.2614 0.60245 0.20371 0.0
H127 H 0.33824 0.59533 0.3567 0.0
H128 H 0.35418 0.54224 0.38653 0.0
H129 H 0.27233 0.3832 0.35122 0.0
H130 H 0.2032 0.33294 0.29803 0.0
H131 H 0.12396 0.33891 0.14493 0.0
H132 H 0.13265 0.39362 0.08905 0.0
H133 H 0.30004 0.40456 0.1456 0.0
H134 H 0.37294 0.53014 0.18593 0.0
H135 H 0.1736 0.45283 0.39507 0.0
H136 H 0.11391 0.46759 0.26818 0.0
C137 C 0.71737 0.21402 0.66342 0.0
C138 C 0.6868 0.21817 0.64216 0.0
C139 C 0.67822 0.23772 0.6774 0.0
C140 C 0.70364 0.24437 0.71829 0.0
N141 N 0.72845 0.23097 0.71077 0.0
Co142 Co 0.7691 0.23409 0.76097 0.0
N143 N 0.76569 0.27362 0.80606 0.0
C144 C 0.73686 0.28235 0.80314 0.0
C145 C 0.74366 0.31226 0.83831 0.0
C146 C 0.77891 0.32287 0.86523 0.0
C147 C 0.79145 0.29851 0.84501 0.0
N148 N 0.809 0.23647 0.8114 0.0
C149 C 0.82979 0.26346 0.85099 0.0
C150 C 0.85375 0.25354 0.87815 0.0
C151 C 0.84778 0.21897 0.85425 0.0
C152 C 0.82051 0.20983 0.81421 0.0
N153 N 0.77315 0.19507 0.71589 0.0
C154 C 0.79108 0.17483 0.72751 0.0
C155 C 0.79153 0.15194 0.68808 0.0
C156 C 0.7721 0.15752 0.6493 0.0
C157 C 0.76029 0.18317 0.66746 0.0
N158 N 0.81102 0.27728 0.73171 0.0
C159 C 0.86923 0.33799 0.68677 0.0
C160 C 0.87529 0.30877 0.70409 0.0
C161 C 0.84577 0.27857 0.72602 0.0
C162 C 0.83383 0.33664 0.69375 0.0
C163 C 0.8055 0.30651 0.71656 0.0
N164 N 0.7272 0.1912 0.79066 0.0
C165 C 0.66713 0.12778 0.78401 0.0
C166 C 0.66687 0.1315 0.83492 0.0
C167 C 0.69771 0.16606 0.86275 0.0
C168 C 0.72739 0.19506 0.84023 0.0
C169 C 0.69736 0.15785 0.76273 0.0
H170 H 0.75041 0.2209 0.86328 0.0
H171 H 0.69644 0.15409 0.72364 0.0
H172 H 0.85094 0.25601 0.73779 0.0
H173 H 0.77888 0.30677 0.72145 0.0
C174 C 0.70818 0.26707 0.76219 0.0
C175 C 0.73087 0.1891 0.63967 0.0
C176 C 0.82674 0.29812 0.86443 0.0
C177 C 0.811 0.18145 0.77431 0.0
H178 H 0.6714 0.20754 0.6054 0.0
H179 H 0.6565 0.24663 0.67316 0.0
H180 H 0.72611 0.32603 0.84245 0.0
H181 H 0.79355 0.34599 0.89589 0.0
H182 H 0.87362 0.26978 0.91144 0.0
H183 H 0.86291 0.20345 0.8637 0.0
H184 H 0.80481 0.13375 0.68745 0.0
H185 H 0.76561 0.14291 0.61225 0.0
H186 H 0.90208 0.30848 0.69931 0.0
H187 H 0.82797 0.35881 0.6815 0.0
H188 H 0.64438 0.10173 0.76059 0.0
H189 H 0.69881 0.17134 0.90194 0.0
C190 C 0.51576 0.71268 0.17 0.0
C191 C 0.47973 0.68494 0.14321 0.0
C192 C 0.45122 0.68582 0.16709 0.0
C193 C 0.47124 0.71383 0.20698 0.0
N194 N 0.51092 0.7314 0.20978 0.0
Co195 Co 0.55091 0.77264 0.26341 0.0
N196 N 0.50865 0.77064 0.3012 0.0
C197 C 0.46935 0.74587 0.28966 0.0
C198 C 0.44745 0.75213 0.32134 0.0
C199 C 0.47429 0.78314 0.3548 0.0
C200 C 0.51123 0.79406 0.34162 0.0
N201 N 0.5907 0.81483 0.31625 0.0
C202 C 0.58552 0.83485 0.35435 0.0
C203 C 0.62127 0.86378 0.38039 0.0
C204 C 0.65011 0.86271 0.35731 0.0
C205 C 0.63042 0.83329 0.31866 0.0
N206 N 0.59307 0.77383 0.22632 0.0
C207 C 0.63247 0.79667 0.23958 0.0
C208 C 0.65415 0.78934 0.20855 0.0
C209 C 0.62701 0.75948 0.17393 0.0
C210 C 0.59017 0.75019 0.18593 0.0
N211 N 0.55069 0.81442 0.22822 0.0
C212 C 0.55049 0.87417 0.17942 0.0
C213 C 0.58587 0.87733 0.19793 0.0
C214 C 0.5853 0.84711 0.22155 0.0
C215 C 0.51521 0.8409 0.18599 0.0
C216 C 0.51596 0.81178 0.21072 0.0
N217 N 0.55156 0.73075 0.29833 0.0
C218 C 0.58835 0.70586 0.34165 0.0
C219 C 0.55497 0.66839 0.33669 0.0
C220 C 0.51949 0.66287 0.31398 0.0
C221 C 0.51831 0.69437 0.29595 0.0
C222 C 0.58607 0.73629 0.32213 0.0
H223 H 0.49023 0.68839 0.27977 0.0
H224 H 0.61286 0.76379 0.32615 0.0
H225 H 0.61325 0.85085 0.23392 0.0
H226 H 0.48812 0.78744 0.21529 0.0
C227 C 0.45371 0.72086 0.24541 0.0
C228 C 0.55342 0.71763 0.15878 0.0
C229 C 0.54756 0.82867 0.36622 0.0
C230 C 0.64814 0.82355 0.28248 0.0
H231 H 0.47429 0.66489 0.11086 0.0
H232 H 0.41963 0.66689 0.15779 0.0
H233 H 0.41565 0.73729 0.31891 0.0
H234 H 0.4672 0.797 0.38435 0.0
H235 H 0.62592 0.88411 0.41213 0.0
H236 H 0.68165 0.8819 0.36672 0.0
H237 H 0.68592 0.80336 0.21145 0.0
H238 H 0.63349 0.74547 0.14381 0.0
H239 H 0.61385 0.90254 0.19315 0.0
H240 H 0.48708 0.8375 0.17237 0.0
H241 H 0.61635 0.71148 0.35964 0.0
H242 H 0.49263 0.63445 0.31068 0.0
C243 C 0.72583 0.56784 0.71382 0.0
C244 C 0.72785 0.60342 0.70885 0.0
C245 C 0.76425 0.63241 0.73082 0.0
C246 C 0.78239 0.61303 0.74788 0.0
N247 N 0.75977 0.57334 0.73826 0.0
Co248 Co 0.77496 0.53409 0.757 0.0
N249 N 0.82984 0.57687 0.78538 0.0
C250 C 0.84482 0.61614 0.78698 0.0
C251 C 0.88379 0.63837 0.80631 0.0
C252 C 0.89457 0.61176 0.81734 0.0
C253 C 0.86137 0.57463 0.8043 0.0
N254 N 0.78993 0.49486 0.77647 0.0
C255 C 0.82501 0.50025 0.79688 0.0
C256 C 0.82222 0.46466 0.80429 0.0
C257 C 0.78435 0.43579 0.78749 0.0
C258 C 0.7661 0.45524 0.77102 0.0
N259 N 0.7205 0.49128 0.72735 0.0
C260 C 0.70537 0.452 0.72603 0.0
C261 C 0.66742 0.42972 0.70293 0.0
C262 C 0.65778 0.4563 0.68807 0.0
C263 C 0.69055 0.49344 0.70302 0.0
N264 N 0.79391 0.53298 0.69304 0.0
C265 C 0.83106 0.53304 0.61034 0.0
C266 C 0.80576 0.49778 0.62764 0.0
C267 C 0.78739 0.4984 0.66855 0.0
C268 C 0.83467 0.5678 0.63266 0.0
C269 C 0.81589 0.56709 0.67356 0.0
N270 N 0.75587 0.53535 0.82137 0.0
C271 C 0.7106 0.50217 0.87891 0.0
C272 C 0.72035 0.53817 0.90513 0.0
C273 C 0.75038 0.57252 0.8909 0.0
C274 C 0.76771 0.57044 0.84951 0.0
C275 C 0.72875 0.50145 0.83772 0.0
H276 H 0.78983 0.59778 0.84039 0.0
H277 H 0.71934 0.47312 0.81895 0.0
H278 H 0.76928 0.47075 0.68088 0.0
H279 H 0.82071 0.59469 0.6898 0.0
C280 C 0.82154 0.63121 0.76976 0.0
C281 C 0.69157 0.52974 0.69319 0.0
C282 C 0.86163 0.53826 0.81004 0.0
C283 C 0.72755 0.43701 0.74705 0.0
H284 H 0.70554 0.60798 0.69056 0.0
H285 H 0.77641 0.66391 0.73304 0.0
H286 H 0.90228 0.67014 0.81128 0.0
H287 H 0.92372 0.61886 0.8328 0.0
H288 H 0.84528 0.45996 0.81982 0.0
H289 H 0.77184 0.40431 0.78647 0.0
H290 H 0.64898 0.39793 0.69745 0.0
H291 H 0.62978 0.44917 0.66843 0.0
H292 H 0.80192 0.47002 0.61166 0.0
H293 H 0.85318 0.59574 0.61983 0.0
H294 H 0.68755 0.47464 0.88842 0.0
H295 H 0.75971 0.60112 0.91075 0.0
C296 C 0.27461 0.8608 0.32991 0.0
C297 C 0.2684 0.89002 0.35051 0.0
C298 C 0.22895 0.87661 0.33917 0.0
C299 C 0.21342 0.84019 0.31225 0.0
N300 N 0.24066 0.8299 0.30628 0.0
Co301 Co 0.23216 0.78122 0.26822 0.0
N302 N 0.18285 0.77235 0.23101 0.0
C303 C 0.16216 0.78957 0.24348 0.0
C304 C 0.12879 0.7772 0.21126 0.0
C305 C 0.12802 0.74997 0.17684 0.0
C306 C 0.16099 0.74708 0.19027 0.0
N307 N 0.22381 0.73225 0.23089 0.0
C308 C 0.19836 0.71015 0.19037 0.0
C309 C 0.20118 0.67702 0.17761 0.0
C310 C 0.22874 0.67821 0.21196 0.0
C311 C 0.24127 0.71182 0.24369 0.0
N312 N 0.28151 0.79075 0.30548 0.0
C313 C 0.29264 0.76413 0.31121 0.0
C314 C 0.32935 0.7804 0.3378 0.0
C315 C 0.34195 0.81967 0.3492 0.0
C316 C 0.31211 0.82509 0.32873 0.0
N317 N 0.20149 0.74978 0.31783 0.0
C318 C 0.15723 0.70175 0.3863 0.0
C319 C 0.19296 0.73726 0.40169 0.0
C320 C 0.21449 0.76094 0.36693 0.0
C321 C 0.14465 0.69106 0.33591 0.0
C322 C 0.16686 0.71519 0.30275 0.0
N323 N 0.26279 0.81211 0.21845 0.0
C324 C 0.31285 0.8267 0.16538 0.0
C325 C 0.30936 0.85796 0.15026 0.0
C326 C 0.28156 0.86538 0.16964 0.0
C327 C 0.25831 0.8419 0.20311 0.0
C328 C 0.2897 0.8045 0.19963 0.0
H329 H 0.23706 0.84821 0.21708 0.0
H330 H 0.29412 0.78152 0.21145 0.0
H331 H 0.24173 0.78816 0.37971 0.0
H332 H 0.15588 0.70528 0.26465 0.0
C333 C 0.17691 0.81984 0.28274 0.0
C334 C 0.31259 0.8625 0.33371 0.0
C335 C 0.1671 0.71607 0.16789 0.0
C336 C 0.27218 0.72727 0.28241 0.0
H337 H 0.29012 0.91832 0.37065 0.0
H338 H 0.21403 0.8927 0.34675 0.0
H339 H 0.1077 0.78699 0.2124 0.0
H340 H 0.10504 0.73307 0.14636 0.0
H341 H 0.1841 0.65364 0.14763 0.0
H342 H 0.23864 0.65721 0.21335 0.0
H343 H 0.34598 0.76602 0.34548 0.0
H344 H 0.36997 0.84181 0.36969 0.0
H345 H 0.20396 0.74694 0.44022 0.0
H346 H 0.11789 0.66362 0.32172 0.0
H347 H 0.33426 0.82016 0.15199 0.0
H348 H 0.27772 0.88913 0.1589 0.0
C349 C 0.44544 0.28639 0.79255 0.0
C350 C 0.40862 0.28204 0.7955 0.0
C351 C 0.38145 0.24491 0.77355 0.0
C352 C 0.4031 0.22873 0.75841 0.0
N353 N 0.44252 0.25325 0.76939 0.0
Co354 Co 0.48461 0.2415 0.75293 0.0
N355 N 0.44459 0.18609 0.72294 0.0
C356 C 0.40498 0.16859 0.72093 0.0
C357 C 0.38497 0.13021 0.69912 0.0
C358 C 0.41346 0.1226 0.68653 0.0
C359 C 0.44939 0.15693 0.7014 0.0
N360 N 0.52669 0.23025 0.73503 0.0
C361 C 0.52385 0.19728 0.71153 0.0
C362 C 0.56077 0.20222 0.70711 0.0
C363 C 0.58782 0.23963 0.72813 0.0
C364 C 0.56609 0.25543 0.74391 0.0
N365 N 0.52469 0.29643 0.78434 0.0
C366 C 0.56435 0.31325 0.78884 0.0
C367 C 0.58445 0.35106 0.81248 0.0
C368 C 0.55595 0.35885 0.82432 0.0
C369 C 0.51994 0.32518 0.80711 0.0
N370 N 0.48524 0.22202 0.81696 0.0
C371 C 0.48419 0.18539 0.90089 0.0
C372 C 0.51965 0.20993 0.88336 0.0
C373 C 0.51954 0.22814 0.84201 0.0
C374 C 0.44979 0.18217 0.87786 0.0
C375 C 0.45094 0.20041 0.83632 0.0
N376 N 0.48372 0.26085 0.68889 0.0
C377 C 0.51666 0.30688 0.63212 0.0
C378 C 0.48068 0.29462 0.6037 0.0
C379 C 0.44667 0.26342 0.61693 0.0
C380 C 0.44887 0.24698 0.65908 0.0
C381 C 0.51752 0.28962 0.67413 0.0
H382 H 0.42176 0.22373 0.66736 0.0
H383 H 0.54571 0.30079 0.69482 0.0
H384 H 0.54743 0.24603 0.83018 0.0
H385 H 0.42343 0.19562 0.81983 0.0
C386 C 0.3874 0.18978 0.73702 0.0
C387 C 0.48218 0.32211 0.81364 0.0
C388 C 0.48712 0.16057 0.69303 0.0
C389 C 0.58183 0.29315 0.76923 0.0
H390 H 0.4021 0.30337 0.81237 0.0
H391 H 0.34968 0.23107 0.76995 0.0
H392 H 0.35338 0.11033 0.69241 0.0
H393 H 0.40836 0.09503 0.66802 0.0
H394 H 0.56745 0.18085 0.69079 0.0
H395 H 0.61958 0.25356 0.7323 0.0
H396 H 0.61606 0.37069 0.82003 0.0
H397 H 0.56107 0.38625 0.84343 0.0
H398 H 0.54725 0.21359 0.89978 0.0
H399 H 0.42168 0.16451 0.89079 0.0
H400 H 0.54388 0.33102 0.62346 0.0
H401 H 0.4182 0.25235 0.59552 0.0
C402 C 0.14232 0.49431 0.02285 0.0
C403 C 0.1055 0.48452 0.03759 0.0
H404 H 0.19836 0.49814 0.04119 0.0
C405 C 0.09657 0.46856 0.08189 0.0
H406 H 0.15036 0.50685 0.98921 0.0
C407 C 0.12382 0.4637 0.11128 0.0
C408 C 0.16093 0.47444 0.09742 0.0
H409 H 0.06861 0.4605 0.09467 0.0
H410 H 0.11617 0.45233 0.14568 0.0
C411 C 0.16982 0.4894 0.05258 0.0
C412 C 0.6498 0.08894 0.58061 0.0
C413 C 0.63736 0.0972 0.53636 0.0
H414 H 0.68812 0.11167 0.64796 0.0
C415 C 0.66022 0.13482 0.52234 0.0
H416 H 0.63338 0.06016 0.59238 0.0
C417 C 0.693 0.16444 0.55417 0.0
C418 C 0.70254 0.15688 0.60059 0.0
H419 H 0.65147 0.14202 0.4884 0.0
H420 H 0.70917 0.19384 0.54405 0.0
C421 C 0.68148 0.11849 0.61257 0.0
C422 C 0.56209 0.62885 0.11801 0.0
C423 C 0.54756 0.6203 0.06774 0.0
H424 H 0.57508 0.66603 0.18566 0.0
C425 C 0.53784 0.64614 0.04669 0.0
H426 H 0.57001 0.60983 0.13571 0.0
C427 C 0.54122 0.67878 0.07566 0.0
C428 C 0.55395 0.68593 0.12624 0.0
H429 H 0.52663 0.64059 0.00822 0.0
H430 H 0.53268 0.69774 0.05893 0.0
C431 C 0.56513 0.66113 0.14682 0.0
C432 C 0.87168 0.5005 0.50846 0.0
C433 C 0.9122 0.52767 0.52058 0.0
H434 H 0.81367 0.48099 0.52738 0.0
C435 C 0.92472 0.55998 0.55662 0.0
H436 H 0.86128 0.4752 0.48096 0.0
C437 C 0.89771 0.56325 0.58314 0.0
C438 C 0.85753 0.53412 0.5744 0.0
H439 H 0.95581 0.58141 0.56658 0.0
H440 H 0.90889 0.587 0.61306 0.0
C441 C 0.84453 0.50359 0.53539 0.0
C442 C 0.38481 0.94903 0.09952 0.0
C443 C 0.3924 0.93274 0.05761 0.0
H444 H 0.35246 0.93843 0.16093 0.0
C445 C 0.37034 0.89162 0.04446 0.0
H446 H 0.40134 0.98056 0.11084 0.0
C447 C 0.3428 0.86735 0.07386 0.0
C448 C 0.336 0.88367 0.11649 0.0
H449 H 0.37571 0.87805 0.01278 0.0
H450 H 0.32719 0.83571 0.06366 0.0
C451 C 0.35672 0.92489 0.12824 0.0
C452 C 0.50769 0.35823 0.5008 0.0
C453 C 0.48044 0.37114 0.50175 0.0
H454 H 0.52932 0.32372 0.53274 0.0
C455 C 0.45028 0.35447 0.53129 0.0
H456 H 0.53156 0.37103 0.47884 0.0
C457 C 0.44897 0.32756 0.56195 0.0
C458 C 0.4781 0.31704 0.56423 0.0
H459 H 0.42907 0.36412 0.53293 0.0
H460 H 0.42671 0.31721 0.58639 0.0
C461 C 0.50671 0.3316 0.53212 0.0
C462 C 0.5296 0.88375 0.47164 0.0
C463 C 0.53867 0.91917 0.4533 0.0
H464 H 0.52552 0.82731 0.45856 0.0
C465 C 0.55237 0.92492 0.40733 0.0
H466 H 0.519 0.87826 0.50677 0.0
C467 C 0.55589 0.89586 0.37995 0.0
C468 C 0.5458 0.86018 0.3976 0.0
H469 H 0.55983 0.95175 0.39187 0.0
H470 H 0.56578 0.90094 0.34436 0.0
C471 C 0.53321 0.85457 0.44405 0.0
C472 C 0.6533 0.50973 0.00455 0.0
C473 C 0.63861 0.53537 1.00074 0.0
H474 H 0.69106 0.49046 0.9771 0.0
C475 C 0.65517 0.5652 0.97075 0.0
H476 H 0.64074 0.48622 0.02704 0.0
C477 C 0.68374 0.56764 0.94231 0.0
C478 C 0.6962 0.54003 0.9428 0.0
H479 H 0.64429 0.58529 0.96705 0.0
H480 H 0.69391 0.58949 0.91733 0.0
C481 C 0.68171 0.51188 0.97552 0.0
C482 C 0.06761 0.62594 0.43863 0.0
C483 C 0.08437 0.61549 0.47708 0.0
H484 H 0.07701 0.66191 0.38159 0.0
C485 C 0.12565 0.63705 0.48948 0.0
H486 H 0.03594 0.61036 0.42841 0.0
C487 C 0.1496 0.66658 0.46172 0.0
C488 C 0.13269 0.67521 0.42122 0.0
H489 H 0.13951 0.62959 0.51873 0.0
H490 H 0.18133 0.68112 0.47038 0.0
C491 C 0.09129 0.65545 0.41146 0.0
C492 C 0.45274 0.09369 0.96169 0.0
C493 C 0.48533 0.10556 0.9971 0.0
H494 H 0.42702 0.10922 0.90352 0.0
C495 C 0.51485 0.14554 0.00606 0.0
H496 H 0.42949 0.06305 0.95403 0.0
C497 C 0.51346 0.17241 0.97688 0.0
C498 C 0.48241 0.15972 0.93852 0.0
H499 H 0.54043 0.15547 0.03297 0.0
H500 H 0.53757 0.20267 0.98289 0.0
C501 C 0.45128 0.12037 0.93277 0.0
C502 C 0.39058 0.45286 0.37541 0.0
C503 C 0.3978 0.46555 0.42616 0.0
H504 H 0.3552 0.44255 0.30685 0.0
C505 C 0.37172 0.47515 0.44677 0.0
H506 H 0.40983 0.44511 0.35802 0.0
C507 C 0.34016 0.47334 0.41714 0.0
C508 C 0.33432 0.46243 0.36622 0.0
H509 H 0.37618 0.48489 0.48557 0.0
H510 H 0.32086 0.48144 0.43379 0.0
C511 C 0.35927 0.45135 0.34589 0.0
C512 C 0.92867 0.38344 0.90784 0.0
C513 C 0.92469 0.39756 0.95407 0.0
H514 H 0.9003 0.34161 0.84323 0.0
C515 C 0.88828 0.37736 0.97201 0.0
H516 H 0.9563 0.39802 0.89286 0.0
C517 C 0.85615 0.34462 0.94326 0.0
C518 C 0.85997 0.33226 0.89607 0.0
H519 H 0.88433 0.38745 0.00746 0.0
H520 H 0.82831 0.32923 0.9576 0.0
C521 C 0.89663 0.35129 0.87915 0.0
C522 C 0.95234 0.52799 0.83705 0.0
C523 C 0.9608 0.53787 0.88821 0.0
H524 H 0.91382 0.51992 0.77209 0.0
C525 C 0.93803 0.55032 0.91242 0.0
H526 H 0.96888 0.51779 0.81735 0.0
C527 C 0.90683 0.5515 0.88672 0.0
C528 C 0.8973 0.54008 0.83608 0.0
H529 H 0.94361 0.55813 0.95177 0.0
H530 H 0.8893 0.56025 0.90666 0.0
C531 C 0.92069 0.52889 0.81124 0.0
C532 C 0.38957 0.93996 0.43174 0.0
C533 C 0.42117 0.96104 0.40542 0.0
H534 H 0.3304 0.89206 0.42927 0.0
C535 C 0.41549 0.95206 0.35428 0.0
H536 H 0.39316 0.9462 0.47121 0.0
C537 C 0.37943 0.92074 0.33036 0.0
C538 C 0.34874 0.89867 0.35733 0.0
H539 H 0.43955 0.96746 0.33328 0.0
H540 H 0.37597 0.9128 0.29121 0.0
C541 C 0.35373 0.90902 0.40793 0.0
C542 C 0.49182 0.38756 0.92764 0.0
C543 C 0.48886 0.41814 0.90844 0.0
H544 H 0.49188 0.33351 0.91266 0.0
C545 C 0.48075 0.41528 0.85735 0.0
H546 H 0.49798 0.38853 0.9667 0.0
C547 C 0.4772 0.38341 0.82638 0.0
C548 C 0.48159 0.35384 0.84595 0.0
H549 H 0.47848 0.43828 0.84122 0.0
H550 H 0.47219 0.38243 0.78714 0.0
C551 C 0.4883 0.35592 0.8968 0.0
C552 C 0.09086 0.47665 0.4409 0.0
C553 C 0.05192 0.46181 0.41899 0.0
H554 H 0.14873 0.48871 0.4319 0.0
C555 C 0.04085 0.44315 0.37049 0.0
H556 H 0.10059 0.49137 0.47816 0.0
C557 C 0.06864 0.44098 0.34391 0.0
C558 C 0.10819 0.4578 0.36511 0.0
H559 H 0.01108 0.43131 0.35257 0.0
H560 H 0.05924 0.42673 0.30646 0.0
C561 C 0.11862 0.47493 0.41429 0.0
C562 C 0.56517 0.05186 0.86191 0.0
C563 C 0.5736 0.04811 0.91085 0.0
H564 H 0.58741 0.08159 0.79986 0.0
C565 C 0.61309 0.06911 0.93276 0.0
H566 H 0.53498 0.03643 0.84414 0.0
C567 C 0.64321 0.09439 0.90731 0.0
C568 C 0.63483 0.1004 0.85935 0.0
H569 H 0.62068 0.06669 0.97029 0.0
H570 H 0.67313 0.10985 0.92589 0.0
C571 C 0.59538 0.07788 0.83654 0.0
C572 C 0.56871 0.60796 0.42701 0.0
C573 C 0.55244 0.57104 0.39854 0.0
H574 H 0.58273 0.66792 0.42935 0.0
C575 C 0.54024 0.56717 0.34841 0.0
H576 H 0.57795 0.61153 0.46586 0.0
C577 C 0.54193 0.59916 0.32784 0.0
C578 C 0.5567 0.63563 0.35689 0.0
H579 H 0.52695 0.53883 0.32592 0.0
H580 H 0.53077 0.59516 0.28958 0.0
C581 C 0.57128 0.64011 0.40623 0.0
C582 C 0.4869 0.06605 0.65068 0.0
C583 C 0.49546 0.07121 0.60238 0.0
H584 H 0.47738 0.0903 0.71726 0.0
C585 C 0.49968 0.10528 0.58413 0.0
H586 H 0.48359 0.04038 0.66608 0.0
C587 C 0.49625 0.13362 0.61335 0.0
C588 C 0.48832 0.12874 0.66159 0.0
H589 H 0.50631 0.11053 0.54725 0.0
H590 H 0.50032 0.15975 0.59843 0.0
C591 C 0.48335 0.09456 0.67998 0.0
C592 C 0.40092 0.45268 0.07308 0.0
C593 C 0.43792 0.46872 0.10137 0.0
H594 H 0.34103 0.43915 0.07103 0.0
C595 C 0.44223 0.48194 0.15126 0.0
H596 H 0.39699 0.44267 0.03441 0.0
C597 C 0.41054 0.48107 0.1718 0.0
C598 C 0.37389 0.4661 0.14301 0.0
H599 H 0.47064 0.4951 0.17362 0.0
H600 H 0.41479 0.49267 0.20993 0.0
C601 C 0.36904 0.45088 0.09387 0.0
C602 C 0.96488 0.42118 0.65073 0.0
C603 C 0.95129 0.42724 0.60548 0.0
H604 H 0.94984 0.38773 0.71167 0.0
C605 C 0.91091 0.40323 0.58745 0.0
H606 H 0.9957 0.4391 0.6658 0.0
C607 C 0.8848 0.3746 0.61389 0.0
C608 C 0.89815 0.3684 0.65899 0.0
H609 H 0.89907 0.40699 0.553 0.0
H610 H 0.85395 0.35703 0.59879 0.0
C611 C 0.93865 0.39171 0.67692 0.0
C612 C 0.52549 0.92069 0.07946 0.0
C613 C 0.54386 0.96043 0.10019 0.0
H614 H 0.51299 0.8625 0.08862 0.0
C615 C 0.56681 0.97219 0.14632 0.0
H616 H 0.50759 0.91042 0.04401 0.0
C617 C 0.57016 0.94441 0.17172 0.0
C618 C 0.55007 0.90447 0.15167 0.0
H619 H 0.58125 1.00252 0.1633 0.0
H620 H 0.58721 0.95383 0.2077 0.0
C621 C 0.52829 0.89304 0.10506 0.0
C622 C 0.62496 0.51301 0.57656 0.0
C623 C 0.59533 0.51887 0.5937 0.0
H624 H 0.67816 0.51183 0.59455 0.0
C625 C 0.59864 0.53013 0.64416 0.0
H626 H 0.6236 0.50428 0.53808 0.0
C627 C 0.63025 0.53448 0.67655 0.0
C628 C 0.65909 0.52765 0.6591 0.0
H629 H 0.57638 0.5347 0.65877 0.0
H630 H 0.63181 0.54244 0.71531 0.0
C631 C 0.65629 0.51725 0.60882 0.0
C632 C 0.0715 0.61982 0.13077 0.0
C633 C 0.0743 0.611 0.08168 0.0
H634 H 0.09924 0.6606 0.19662 0.0
C635 C 0.10593 0.63905 0.05989 0.0
H636 H 0.04762 0.59885 0.14859 0.0
C637 C 0.1353 0.67419 0.08735 0.0
C638 C 0.13336 0.68192 0.13682 0.0
H639 H 0.10888 0.63325 0.02203 0.0
H640 H 0.16025 0.69463 0.07051 0.0
C641 C 0.10094 0.65503 0.1582 0.0
loop_
_geom_bond_atom_site_label_1
_geom_bond_atom_site_label_2
_geom_bond_distance
_geom_bond_site_symmetry_2
_ccdc_geom_bond_type
C0 O2 1.247 . S
C0 O4 1.258 . S
C1 O8 1.247 . S
C1 O9 1.258 . S
O2 C0 1.247 . S
O2 Zn3 2.028 1_455 S
Zn3 O2 2.028 1_655 S
Zn3 O7 2.035 1_554 S
Zn3 O9 2.035 1_554 S
Zn3 O10 2.028 1_655 S
O4 C0 1.258 . S
O4 Zn5 2.035 1_554 S
Zn5 O4 2.035 1_556 S
Zn5 O6 2.028 1_455 S
Zn5 O8 2.028 1_455 S
Zn5 O11 2.035 1_556 S
O6 Zn5 2.028 1_655 S
O6 C12 1.247 . S
O7 Zn3 2.035 1_556 S
O7 C12 1.258 . S
O8 C1 1.247 . S
O8 Zn5 2.028 1_655 S
O9 C1 1.258 . S
O9 Zn3 2.035 1_556 S
O10 Zn3 2.028 1_455 S
O10 C13 1.247 . S
O11 Zn5 2.035 1_554 S
O11 C13 1.258 . S
C12 O6 1.247 . S
C12 O7 1.258 . S
C13 O10 1.247 . S
C13 O11 1.258 . S
C14 O16 1.247 . S
C14 O18 1.258 . S
C15 O22 1.247 . S
C15 O23 1.258 . S
O16 C14 1.247 . S
O16 Zn17 2.028 1_545 S
Zn17 O16 2.028 1_565 S
Zn17 O21 2.035 . S
Zn17 O23 2.035 . S
Zn17 O24 2.028 1_565 S
O18 C14 1.258 . S
O18 Zn19 2.035 . S
Zn19 O18 2.035 . S
Zn19 O20 2.028 1_545 S
Zn19 O22 2.028 1_545 S
Zn19 O25 2.035 . S
O20 Zn19 2.028 1_565 S
O20 C26 1.247 . S
O21 Zn17 2.035 . S
O21 C26 1.258 . S
O22 C15 1.247 . S
O22 Zn19 2.028 1_565 S
O23 C15 1.258 . S
O23 Zn17 2.035 . S
O24 Zn17 2.028 1_545 S
O24 C27 1.247 . S
O25 Zn19 2.035 . S
O25 C27 1.258 . S
C26 O20 1.247 . S
C26 O21 1.258 . S
C27 O24 1.247 . S
C27 O25 1.258 . S
C28 O30 1.247 . S
C28 O32 1.258 . S
C29 O36 1.247 . S
C29 O37 1.258 . S
O30 C28 1.247 . S
O30 Zn31 2.028 . S
Zn31 O30 2.028 . S
Zn31 O35 2.035 1_556 S
Zn31 O37 2.035 1_556 S
Zn31 O38 2.028 . S
O32 C28 1.258 . S
O32 Zn33 2.035 1_556 S
Zn33 O32 2.035 1_554 S
Zn33 O34 2.028 . S
Zn33 O36 2.028 . S
Zn33 O39 2.035 1_554 S
O34 Zn33 2.028 . S
O34 C40 1.247 . S
O35 Zn31 2.035 1_554 S
O35 C40 1.258 . S
O36 C29 1.247 . S
O36 Zn33 2.028 . S
O37 C29 1.258 . S
O37 Zn31 2.035 1_554 S
O38 Zn31 2.028 . S
O38 C41 1.247 . S
O39 Zn33 2.035 1_556 S
O39 C41 1.258 . S
C40 O34 1.247 . S
C40 O35 1.258 . S
C41 O38 1.247 . S
C41 O39 1.258 . S
C42 O44 1.247 . S
C42 O46 1.258 . S
C43 O50 1.247 . S
C43 O51 1.258 1_655 S
O44 C42 1.247 . S
O44 Zn45 2.028 . S
Zn45 O44 2.028 . S
Zn45 O49 2.035 . S
Zn45 O51 2.035 . S
Zn45 O52 2.028 . S
O46 C42 1.258 . S
O46 Zn47 2.035 1_455 S
Zn47 O46 2.035 1_655 S
Zn47 O48 2.028 . S
Zn47 O50 2.028 . S
Zn47 O53 2.035 1_655 S
O48 Zn47 2.028 . S
O48 C54 1.247 . S
O49 Zn45 2.035 . S
O49 C54 1.258 1_455 S
O50 C43 1.247 . S
O50 Zn47 2.028 . S
O51 C43 1.258 1_455 S
O51 Zn45 2.035 . S
O52 Zn45 2.028 . S
O52 C55 1.247 . S
O53 Zn47 2.035 1_455 S
O53 C55 1.258 . S
C54 O48 1.247 . S
C54 O49 1.258 1_655 S
C55 O52 1.247 . S
C55 O53 1.258 . S
C56 O58 1.247 . S
C56 O60 1.258 . S
C57 O64 1.247 . S
C57 O65 1.258 . S
O58 C56 1.247 . S
O58 Zn59 2.028 1_565 S
Zn59 O58 2.028 1_545 S
Zn59 O63 2.035 1_554 S
Zn59 O65 2.035 1_554 S
Zn59 O66 2.025 1_545 S
O60 C56 1.258 . S
O60 Zn61 2.035 1_554 S
Zn61 O60 2.035 1_556 S
Zn61 O62 2.028 1_565 S
Zn61 O64 2.028 1_565 S
Zn61 O67 2.035 1_556 S
O62 Zn61 2.028 1_545 S
O62 C68 1.247 . S
O63 Zn59 2.035 1_556 S
O63 C68 1.258 . S
O64 C57 1.247 . S
O64 Zn61 2.028 1_545 S
O65 C57 1.258 . S
O65 Zn59 2.035 1_556 S
O66 Zn59 2.025 1_565 S
O66 C69 1.255 . S
O67 Zn61 2.035 1_554 S
O67 C69 1.258 . S
C68 O62 1.247 . S
C68 O63 1.258 . S
C69 O66 1.255 . S
C69 O67 1.258 . S
C70 O72 1.247 . S
C70 O74 1.258 . S
C71 O78 1.247 . S
C71 O79 1.258 . S
O72 C70 1.247 . S
O72 Zn73 2.028 . S
Zn73 O72 2.028 . S
Zn73 O77 2.035 . S
Zn73 O79 2.035 . S
Zn73 O80 2.028 . S
O74 C70 1.258 . S
O74 Zn75 2.035 . S
Zn75 O74 2.035 . S
Zn75 O76 2.028 . S
Zn75 O78 2.028 . S
Zn75 O81 2.035 . S
O76 Zn75 2.028 . S
O76 C82 1.247 . S
O77 Zn73 2.035 . S
O77 C82 1.258 . S
O78 C71 1.247 . S
O78 Zn75 2.028 . S
O79 C71 1.258 . S
O79 Zn73 2.035 . S
O80 Zn73 2.028 . S
O80 C83 1.247 . S
O81 Zn75 2.035 . S
O81 C83 1.258 . S
C82 O76 1.247 . S
C82 O77 1.258 . S
C83 O80 1.247 . S
C83 O81 1.258 . S
C84 C85 1.443 . S
C84 N88 1.376 . S
C84 C122 1.389 . S
C85 C84 1.443 . S
C85 C86 1.340 . S
C85 H125 0.951 . S
C86 C85 1.340 . S
C86 C87 1.439 . S
C86 H126 0.950 . S
C87 C86 1.439 . S
C87 N88 1.374 . S
C87 C121 1.395 . S
N88 C84 1.376 . S
N88 C87 1.374 . S
N88 Co89 2.008 . S
Co89 N88 2.008 . S
Co89 N90 1.995 . S
Co89 N95 2.008 . S
Co89 N100 1.995 . S
Co89 N105 2.282 . S
Co89 N111 2.282 . S
N90 Co89 1.995 . S
N90 C91 1.376 . S
N90 C94 1.383 . S
C91 N90 1.376 . S
C91 C92 1.446 . S
C91 C121 1.391 . S
C92 C91 1.446 . S
C92 C93 1.339 . S
C92 H127 0.949 . S
C93 C92 1.339 . S
C93 C94 1.439 . S
C93 H128 0.950 . S
C94 N90 1.383 . S
C94 C93 1.439 . S
C94 C123 1.392 . S
N95 Co89 2.008 . S
N95 C96 1.376 . S
N95 C99 1.374 . S
C96 N95 1.376 . S
C96 C97 1.443 . S
C96 C123 1.389 . S
C97 C96 1.443 . S
C97 C98 1.340 . S
C97 H129 0.951 . S
C98 C97 1.340 . S
C98 C99 1.439 . S
C98 H130 0.950 . S
C99 N95 1.374 . S
C99 C98 1.439 . S
C99 C124 1.395 . S
N100 Co89 1.995 . S
N100 C101 1.376 . S
N100 C104 1.383 . S
C101 N100 1.376 . S
C101 C102 1.446 . S
C101 C124 1.391 . S
C102 C101 1.446 . S
C102 C103 1.339 . S
C102 H131 0.949 . S
C103 C102 1.339 . S
C103 C104 1.439 . S
C103 H132 0.950 . S
C104 N100 1.383 . S
C104 C103 1.439 . S
C104 C122 1.392 . S
N105 Co89 2.282 . S
N105 C108 1.332 . S
N105 C110 1.332 . S
C106 C107 1.386 . S
C106 C109 1.388 . S
C107 C106 1.386 . S
C107 C108 1.382 . S
C107 H133 0.950 . S
C108 N105 1.332 . S
C108 C107 1.382 . S
C108 H119 0.952 . S
C109 C106 1.388 . S
C109 C110 1.382 . S
C109 H134 0.950 . S
C110 N105 1.332 . S
C110 C109 1.382 . S
C110 H120 0.948 . S
N111 Co89 2.282 . S
N111 C115 1.332 . S
N111 C116 1.332 . S
C112 C113 1.388 . S
C112 C116 1.382 . S
C112 H135 0.950 . S
C113 C112 1.388 . S
C113 C114 1.386 . S
C114 C113 1.386 . S
C114 C115 1.382 . S
C114 H136 0.950 . S
C115 N111 1.332 . S
C115 C114 1.382 . S
C115 H117 0.952 . S
C116 N111 1.332 . S
C116 C112 1.382 . S
C116 H118 0.948 . S
H117 C115 0.952 . S
H118 C116 0.948 . S
H119 C108 0.952 . S
H120 C110 0.948 . S
C121 C87 1.395 . S
C121 C91 1.391 . S
C122 C84 1.389 . S
C122 C104 1.392 . S
C123 C94 1.392 . S
C123 C96 1.389 . S
C124 C99 1.395 . S
C124 C101 1.391 . S
H125 C85 0.951 . S
H126 C86 0.950 . S
H127 C92 0.949 . S
H128 C93 0.950 . S
H129 C97 0.951 . S
H130 C98 0.950 . S
H131 C102 0.949 . S
H132 C103 0.950 . S
H133 C107 0.950 . S
H134 C109 0.950 . S
H135 C112 0.950 . S
H136 C114 0.950 . S
C137 C138 1.443 . S
C137 N141 1.376 . S
C137 C175 1.389 . S
C138 C137 1.443 . S
C138 C139 1.340 . S
C138 H178 0.951 . S
C139 C138 1.340 . S
C139 C140 1.439 . S
C139 H179 0.950 . S
C140 C139 1.439 . S
C140 N141 1.374 . S
C140 C174 1.395 . S
N141 C137 1.376 . S
N141 C140 1.374 . S
N141 Co142 2.008 . S
Co142 N141 2.008 . S
Co142 N143 1.995 . S
Co142 N148 2.008 . S
Co142 N153 1.995 . S
Co142 N158 2.282 . S
Co142 N164 2.282 . S
N143 Co142 1.995 . S
N143 C144 1.376 . S
N143 C147 1.383 . S
C144 N143 1.376 . S
C144 C145 1.446 . S
C144 C174 1.391 . S
C145 C144 1.446 . S
C145 C146 1.339 . S
C145 H180 0.949 . S
C146 C145 1.339 . S
C146 C147 1.439 . S
C146 H181 0.950 . S
C147 N143 1.383 . S
C147 C146 1.439 . S
C147 C176 1.392 . S
N148 Co142 2.008 . S
N148 C149 1.376 . S
N148 C152 1.374 . S
C149 N148 1.376 . S
C149 C150 1.443 . S
C149 C176 1.389 . S
C150 C149 1.443 . S
C150 C151 1.340 . S
C150 H182 0.951 . S
C151 C150 1.340 . S
C151 C152 1.439 . S
C151 H183 0.950 . S
C152 N148 1.374 . S
C152 C151 1.439 . S
C152 C177 1.395 . S
N153 Co142 1.995 . S
N153 C154 1.376 . S
N153 C157 1.383 . S
C154 N153 1.376 . S
C154 C155 1.446 . S
C154 C177 1.391 . S
C155 C154 1.446 . S
C155 C156 1.339 . S
C155 H184 0.949 . S
C156 C155 1.339 . S
C156 C157 1.439 . S
C156 H185 0.950 . S
C157 N153 1.383 . S
C157 C156 1.439 . S
C157 C175 1.392 . S
N158 Co142 2.282 . S
N158 C161 1.332 . S
N158 C163 1.332 . S
C159 C160 1.386 . S
C159 C162 1.388 . S
C160 C159 1.386 . S
C160 C161 1.382 . S
C160 H186 0.950 . S
C161 N158 1.332 . S
C161 C160 1.382 . S
C161 H172 0.952 . S
C162 C159 1.388 . S
C162 C163 1.382 . S
C162 H187 0.950 . S
C163 N158 1.332 . S
C163 C162 1.382 . S
C163 H173 0.948 . S
N164 Co142 2.282 . S
N164 C168 1.332 . S
N164 C169 1.332 . S
C165 C166 1.388 . S
C165 C169 1.382 . S
C165 H188 0.950 . S
C166 C165 1.388 . S
C166 C167 1.386 . S
C167 C166 1.386 . S
C167 C168 1.382 . S
C167 H189 0.950 . S
C168 N164 1.332 . S
C168 C167 1.382 . S
C168 H170 0.952 . S
C169 N164 1.332 . S
C169 C165 1.382 . S
C169 H171 0.948 . S
H170 C168 0.952 . S
H171 C169 0.948 . S
H172 C161 0.952 . S
H173 C163 0.948 . S
C174 C140 1.395 . S
C174 C144 1.391 . S
C175 C137 1.389 . S
C175 C157 1.392 . S
C176 C147 1.392 . S
C176 C149 1.389 . S
C177 C152 1.395 . S
C177 C154 1.391 . S
H178 C138 0.951 . S
H179 C139 0.950 . S
H180 C145 0.949 . S
H181 C146 0.950 . S
H182 C150 0.951 . S
H183 C151 0.950 . S
H184 C155 0.949 . S
H185 C156 0.950 . S
H186 C160 0.950 . S
H187 C162 0.950 . S
H188 C165 0.950 . S
H189 C167 0.950 . S
C190 C191 1.443 . S
C190 N194 1.376 . S
C190 C228 1.389 . S
C191 C190 1.443 . S
C191 C192 1.340 . S
C191 H231 0.951 . S
C192 C191 1.340 . S
C192 C193 1.439 . S
C192 H232 0.950 . S
C193 C192 1.439 . S
C193 N194 1.374 . S
C193 C227 1.395 . S
N194 C190 1.376 . S
N194 C193 1.374 . S
N194 Co195 2.008 . S
Co195 N194 2.008 . S
Co195 N196 1.995 . S
Co195 N201 2.008 . S
Co195 N206 1.995 . S
Co195 N211 2.282 . S
Co195 N217 2.282 . S
N196 Co195 1.995 . S
N196 C197 1.376 . S
N196 C200 1.383 . S
C197 N196 1.376 . S
C197 C198 1.446 . S
C197 C227 1.391 . S
C198 C197 1.446 . S
C198 C199 1.339 . S
C198 H233 0.949 . S
C199 C198 1.339 . S
C199 C200 1.439 . S
C199 H234 0.950 . S
C200 N196 1.383 . S
C200 C199 1.439 . S
C200 C229 1.392 . S
N201 Co195 2.008 . S
N201 C202 1.376 . S
N201 C205 1.374 . S
C202 N201 1.376 . S
C202 C203 1.443 . S
C202 C229 1.389 . S
C203 C202 1.443 . S
C203 C204 1.340 . S
C203 H235 0.951 . S
C204 C203 1.340 . S
C204 C205 1.439 . S
C204 H236 0.950 . S
C205 N201 1.374 . S
C205 C204 1.439 . S
C205 C230 1.395 . S
N206 Co195 1.995 . S
N206 C207 1.376 . S
N206 C210 1.383 . S
C207 N206 1.376 . S
C207 C208 1.446 . S
C207 C230 1.391 . S
C208 C207 1.446 . S
C208 C209 1.339 . S
C208 H237 0.949 . S
C209 C208 1.339 . S
C209 C210 1.439 . S
C209 H238 0.950 . S
C210 N206 1.383 . S
C210 C209 1.439 . S
C210 C228 1.392 . S
N211 Co195 2.282 . S
N211 C214 1.332 . S
N211 C216 1.332 . S
C212 C213 1.386 . S
C212 C215 1.388 . S
C213 C212 1.386 . S
C213 C214 1.382 . S
C213 H239 0.950 . S
C214 N211 1.332 . S
C214 C213 1.382 . S
C214 H225 0.952 . S
C215 C212 1.388 . S
C215 C216 1.382 . S
C215 H240 0.950 . S
C216 N211 1.332 . S
C216 C215 1.382 . S
C216 H226 0.948 . S
N217 Co195 2.282 . S
N217 C221 1.332 . S
N217 C222 1.332 . S
C218 C219 1.388 . S
C218 C222 1.382 . S
C218 H241 0.950 . S
C219 C218 1.388 . S
C219 C220 1.386 . S
C220 C219 1.386 . S
C220 C221 1.382 . S
C220 H242 0.950 . S
C221 N217 1.332 . S
C221 C220 1.382 . S
C221 H223 0.952 . S
C222 N217 1.332 . S
C222 C218 1.382 . S
C222 H224 0.948 . S
H223 C221 0.952 . S
H224 C222 0.948 . S
H225 C214 0.952 . S
H226 C216 0.948 . S
C227 C193 1.395 . S
C227 C197 1.391 . S
C228 C190 1.389 . S
C228 C210 1.392 . S
C229 C200 1.392 . S
C229 C202 1.389 . S
C230 C205 1.395 . S
C230 C207 1.391 . S
H231 C191 0.951 . S
H232 C192 0.950 . S
H233 C198 0.949 . S
H234 C199 0.950 . S
H235 C203 0.951 . S
H236 C204 0.950 . S
H237 C208 0.949 . S
H238 C209 0.950 . S
H239 C213 0.950 . S
H240 C215 0.950 . S
H241 C218 0.950 . S
H242 C220 0.950 . S
C243 C244 1.443 . S
C243 N247 1.376 . S
C243 C281 1.389 . S
C244 C243 1.443 . S
C244 C245 1.340 . S
C244 H284 0.951 . S
C245 C244 1.340 . S
C245 C246 1.439 . S
C245 H285 0.950 . S
C246 C245 1.439 . S
C246 N247 1.374 . S
C246 C280 1.395 . S
N247 C243 1.376 . S
N247 C246 1.374 . S
N247 Co248 2.008 . S
Co248 N247 2.008 . S
Co248 N249 1.995 . S
Co248 N254 2.008 . S
Co248 N259 1.995 . S
Co248 N264 2.282 . S
Co248 N270 2.282 . S
N249 Co248 1.995 . S
N249 C250 1.376 . S
N249 C253 1.383 . S
C250 N249 1.376 . S
C250 C251 1.446 . S
C250 C280 1.391 . S
C251 C250 1.446 . S
C251 C252 1.339 . S
C251 H286 0.949 . S
C252 C251 1.339 . S
C252 C253 1.439 . S
C252 H287 0.950 . S
C253 N249 1.383 . S
C253 C252 1.439 . S
C253 C282 1.392 . S
N254 Co248 2.008 . S
N254 C255 1.376 . S
N254 C258 1.374 . S
C255 N254 1.376 . S
C255 C256 1.443 . S
C255 C282 1.389 . S
C256 C255 1.443 . S
C256 C257 1.340 . S
C256 H288 0.951 . S
C257 C256 1.340 . S
C257 C258 1.439 . S
C257 H289 0.950 . S
C258 N254 1.374 . S
C258 C257 1.439 . S
C258 C283 1.395 . S
N259 Co248 1.995 . S
N259 C260 1.376 . S
N259 C263 1.383 . S
C260 N259 1.376 . S
C260 C261 1.446 . S
C260 C283 1.391 . S
C261 C260 1.446 . S
C261 C262 1.339 . S
C261 H290 0.949 . S
C262 C261 1.339 . S
C262 C263 1.439 . S
C262 H291 0.950 . S
C263 N259 1.383 . S
C263 C262 1.439 . S
C263 C281 1.392 . S
N264 Co248 2.282 . S
N264 C267 1.332 . S
N264 C269 1.332 . S
C265 C266 1.386 . S
C265 C268 1.388 . S
C266 C265 1.386 . S
C266 C267 1.382 . S
C266 H292 0.950 . S
C267 N264 1.332 . S
C267 C266 1.382 . S
C267 H278 0.952 . S
C268 C265 1.388 . S
C268 C269 1.382 . S
C268 H293 0.950 . S
C269 N264 1.332 . S
C269 C268 1.382 . S
C269 H279 0.948 . S
N270 Co248 2.282 . S
N270 C274 1.332 . S
N270 C275 1.332 . S
C271 C272 1.388 . S
C271 C275 1.382 . S
C271 H294 0.950 . S
C272 C271 1.388 . S
C272 C273 1.386 . S
C273 C272 1.386 . S
C273 C274 1.382 . S
C273 H295 0.950 . S
C274 N270 1.332 . S
C274 C273 1.382 . S
C274 H276 0.952 . S
C275 N270 1.332 . S
C275 C271 1.382 . S
C275 H277 0.948 . S
H276 C274 0.952 . S
H277 C275 0.948 . S
H278 C267 0.952 . S
H279 C269 0.948 . S
C280 C246 1.395 . S
C280 C250 1.391 . S
C281 C243 1.389 . S
C281 C263 1.392 . S
C282 C253 1.392 . S
C282 C255 1.389 . S
C283 C258 1.395 . S
C283 C260 1.391 . S
H284 C244 0.951 . S
H285 C245 0.950 . S
H286 C251 0.949 . S
H287 C252 0.950 . S
H288 C256 0.951 . S
H289 C257 0.950 . S
H290 C261 0.949 . S
H291 C262 0.950 . S
H292 C266 0.950 . S
H293 C268 0.950 . S
H294 C271 0.950 . S
H295 C273 0.950 . S
C296 C297 1.443 . S
C296 N300 1.376 . S
C296 C334 1.389 . S
C297 C296 1.443 . S
C297 C298 1.340 . S
C297 H337 0.951 . S
C298 C297 1.340 . S
C298 C299 1.439 . S
C298 H338 0.950 . S
C299 C298 1.439 . S
C299 N300 1.374 . S
C299 C333 1.395 . S
N300 C296 1.376 . S
N300 C299 1.374 . S
N300 Co301 2.008 . S
Co301 N300 2.008 . S
Co301 N302 1.995 . S
Co301 N307 2.008 . S
Co301 N312 1.995 . S
Co301 N317 2.282 . S
Co301 N323 2.282 . S
N302 Co301 1.995 . S
N302 C303 1.376 . S
N302 C306 1.383 . S
C303 N302 1.376 . S
C303 C304 1.446 . S
C303 C333 1.391 . S
C304 C303 1.446 . S
C304 C305 1.339 . S
C304 H339 0.949 . S
C305 C304 1.339 . S
C305 C306 1.439 . S
C305 H340 0.950 . S
C306 N302 1.383 . S
C306 C305 1.439 . S
C306 C335 1.392 . S
N307 Co301 2.008 . S
N307 C308 1.376 . S
N307 C311 1.374 . S
C308 N307 1.376 . S
C308 C309 1.443 . S
C308 C335 1.389 . S
C309 C308 1.443 . S
C309 C310 1.340 . S
C309 H341 0.951 . S
C310 C309 1.340 . S
C310 C311 1.439 . S
C310 H342 0.950 . S
C311 N307 1.374 . S
C311 C310 1.439 . S
C311 C336 1.395 . S
N312 Co301 1.995 . S
N312 C313 1.376 . S
N312 C316 1.383 . S
C313 N312 1.376 . S
C313 C314 1.446 . S
C313 C336 1.391 . S
C314 C313 1.446 . S
C314 C315 1.339 . S
C314 H343 0.949 . S
C315 C314 1.339 . S
C315 C316 1.439 . S
C315 H344 0.950 . S
C316 N312 1.383 . S
C316 C315 1.439 . S
C316 C334 1.392 . S
N317 Co301 2.282 . S
N317 C320 1.332 . S
N317 C322 1.332 . S
C318 C319 1.386 . S
C318 C321 1.388 . S
C319 C318 1.386 . S
C319 C320 1.382 . S
C319 H345 0.950 . S
C320 N317 1.332 . S
C320 C319 1.382 . S
C320 H331 0.952 . S
C321 C318 1.388 . S
C321 C322 1.382 . S
C321 H346 0.950 . S
C322 N317 1.332 . S
C322 C321 1.382 . S
C322 H332 0.948 . S
N323 Co301 2.282 . S
N323 C327 1.332 . S
N323 C328 1.332 . S
C324 C325 1.388 . S
C324 C328 1.382 . S
C324 H347 0.950 . S
C325 C324 1.388 . S
C325 C326 1.386 . S
C326 C325 1.386 . S
C326 C327 1.382 . S
C326 H348 0.950 . S
C327 N323 1.332 . S
C327 C326 1.382 . S
C327 H329 0.952 . S
C328 N323 1.332 . S
C328 C324 1.382 . S
C328 H330 0.948 . S
H329 C327 0.952 . S
H330 C328 0.948 . S
H331 C320 0.952 . S
H332 C322 0.948 . S
C333 C299 1.395 . S
C333 C303 1.391 . S
C334 C296 1.389 . S
C334 C316 1.392 . S
C335 C306 1.392 . S
C335 C308 1.389 . S
C336 C311 1.395 . S
C336 C313 1.391 . S
H337 C297 0.951 . S
H338 C298 0.950 . S
H339 C304 0.949 . S
H340 C305 0.950 . S
H341 C309 0.951 . S
H342 C310 0.950 . S
H343 C314 0.949 . S
H344 C315 0.950 . S
H345 C319 0.950 . S
H346 C321 0.950 . S
H347 C324 0.950 . S
H348 C326 0.950 . S
C349 C350 1.443 . S
C349 N353 1.376 . S
C349 C387 1.389 . S
C350 C349 1.443 . S
C350 C351 1.340 . S
C350 H390 0.951 . S
C351 C350 1.340 . S
C351 C352 1.439 . S
C351 H391 0.950 . S
C352 C351 1.439 . S
C352 N353 1.374 . S
C352 C386 1.395 . S
N353 C349 1.376 . S
N353 C352 1.374 . S
N353 Co354 2.008 . S
Co354 N353 2.008 . S
Co354 N355 1.995 . S
Co354 N360 2.008 . S
Co354 N365 1.995 . S
Co354 N370 2.282 . S
Co354 N376 2.282 . S
N355 Co354 1.995 . S
N355 C356 1.376 . S
N355 C359 1.383 . S
C356 N355 1.376 . S
C356 C357 1.446 . S
C356 C386 1.391 . S
C357 C356 1.446 . S
C357 C358 1.339 . S
C357 H392 0.949 . S
C358 C357 1.339 . S
C358 C359 1.439 . S
C358 H393 0.950 . S
C359 N355 1.383 . S
C359 C358 1.439 . S
C359 C388 1.392 . S
N360 Co354 2.008 . S
N360 C361 1.376 . S
N360 C364 1.374 . S
C361 N360 1.376 . S
C361 C362 1.443 . S
C361 C388 1.389 . S
C362 C361 1.443 . S
C362 C363 1.340 . S
C362 H394 0.951 . S
C363 C362 1.340 . S
C363 C364 1.439 . S
C363 H395 0.950 . S
C364 N360 1.374 . S
C364 C363 1.439 . S
C364 C389 1.395 . S
N365 Co354 1.995 . S
N365 C366 1.376 . S
N365 C369 1.383 . S
C366 N365 1.376 . S
C366 C367 1.446 . S
C366 C389 1.391 . S
C367 C366 1.446 . S
C367 C368 1.339 . S
C367 H396 0.949 . S
C368 C367 1.339 . S
C368 C369 1.439 . S
C368 H397 0.950 . S
C369 N365 1.383 . S
C369 C368 1.439 . S
C369 C387 1.392 . S
N370 Co354 2.282 . S
N370 C373 1.332 . S
N370 C375 1.332 . S
C371 C372 1.386 . S
C371 C374 1.388 . S
C372 C371 1.386 . S
C372 C373 1.382 . S
C372 H398 0.950 . S
C373 N370 1.332 . S
C373 C372 1.382 . S
C373 H384 0.952 . S
C374 C371 1.388 . S
C374 C375 1.382 . S
C374 H399 0.950 . S
C375 N370 1.332 . S
C375 C374 1.382 . S
C375 H385 0.948 . S
N376 Co354 2.282 . S
N376 C380 1.332 . S
N376 C381 1.332 . S
C377 C378 1.388 . S
C377 C381 1.382 . S
C377 H400 0.950 . S
C378 C377 1.388 . S
C378 C379 1.386 . S
C379 C378 1.386 . S
C379 C380 1.382 . S
C379 H401 0.950 . S
C380 N376 1.332 . S
C380 C379 1.382 . S
C380 H382 0.952 . S
C381 N376 1.332 . S
C381 C377 1.382 . S
C381 H383 0.948 . S
H382 C380 0.952 . S
H383 C381 0.948 . S
H384 C373 0.952 . S
H385 C375 0.948 . S
C386 C352 1.395 . S
C386 C356 1.391 . S
C387 C349 1.389 . S
C387 C369 1.392 . S
C388 C359 1.392 . S
C388 C361 1.389 . S
C389 C364 1.395 . S
C389 C366 1.391 . S
H390 C350 0.951 . S
H391 C351 0.950 . S
H392 C357 0.949 . S
H393 C358 0.950 . S
H394 C362 0.951 . S
H395 C363 0.950 . S
H396 C367 0.949 . S
H397 C368 0.950 . S
H398 C372 0.950 . S
H399 C374 0.950 . S
H400 C377 0.950 . S
H401 C379 0.950 . S
C402 C403 1.387 . S
C402 H406 0.950 . S
C402 C411 1.390 . S
C403 C402 1.387 . S
C403 C405 1.387 . S
H404 C411 0.950 . S
C405 C403 1.387 . S
C405 C407 1.390 . S
C405 H409 0.950 . S
H406 C402 0.950 . S
C407 C405 1.390 . S
C407 C408 1.387 . S
C407 H410 0.950 . S
C408 C407 1.387 . S
C408 C411 1.387 . S
H409 C405 0.950 . S
H410 C407 0.950 . S
C411 C402 1.390 . S
C411 H404 0.950 . S
C411 C408 1.387 . S
C412 C413 1.387 . S
C412 H416 0.950 . S
C412 C421 1.390 . S
C413 C412 1.387 . S
C413 C415 1.387 . S
H414 C421 0.950 . S
C415 C413 1.387 . S
C415 C417 1.390 . S
C415 H419 0.950 . S
H416 C412 0.950 . S
C417 C415 1.390 . S
C417 C418 1.387 . S
C417 H420 0.950 . S
C418 C417 1.387 . S
C418 C421 1.387 . S
H419 C415 0.950 . S
H420 C417 0.950 . S
C421 C412 1.390 . S
C421 H414 0.950 . S
C421 C418 1.387 . S
C422 C423 1.387 . S
C422 H426 0.950 . S
C422 C431 1.390 . S
C423 C422 1.387 . S
C423 C425 1.387 . S
H424 C431 0.950 . S
C425 C423 1.387 . S
C425 C427 1.390 . S
C425 H429 0.950 . S
H426 C422 0.950 . S
C427 C425 1.390 . S
C427 C428 1.387 . S
C427 H430 0.950 . S
C428 C427 1.387 . S
C428 C431 1.387 . S
H429 C425 0.950 . S
H430 C427 0.950 . S
C431 C422 1.390 . S
C431 H424 0.950 . S
C431 C428 1.387 . S
C432 C433 1.387 . S
C432 H436 0.950 . S
C432 C441 1.390 . S
C433 C432 1.387 . S
C433 C435 1.387 . S
H434 C441 0.950 . S
C435 C433 1.387 . S
C435 C437 1.390 . S
C435 H439 0.950 . S
H436 C432 0.950 . S
C437 C435 1.390 . S
C437 C438 1.387 . S
C437 H440 0.950 . S
C438 C437 1.387 . S
C438 C441 1.387 . S
H439 C435 0.950 . S
H440 C437 0.950 . S
C441 C432 1.390 . S
C441 H434 0.950 . S
C441 C438 1.387 . S
C442 C443 1.387 . S
C442 H446 0.950 . S
C442 C451 1.390 . S
C443 C442 1.387 . S
C443 C445 1.387 . S
H444 C451 0.950 . S
C445 C443 1.387 . S
C445 C447 1.390 . S
C445 H449 0.950 . S
H446 C442 0.950 . S
C447 C445 1.390 . S
C447 C448 1.387 . S
C447 H450 0.950 . S
C448 C447 1.387 . S
C448 C451 1.387 . S
H449 C445 0.950 . S
H450 C447 0.950 . S
C451 C442 1.390 . S
C451 H444 0.950 . S
C451 C448 1.387 . S
C452 C453 1.387 . S
C452 H456 0.950 . S
C452 C461 1.390 . S
C453 C452 1.387 . S
C453 C455 1.387 . S
H454 C461 0.950 . S
C455 C453 1.387 . S
C455 C457 1.390 . S
C455 H459 0.950 . S
H456 C452 0.950 . S
C457 C455 1.390 . S
C457 C458 1.387 . S
C457 H460 0.950 . S
C458 C457 1.387 . S
C458 C461 1.387 . S
H459 C455 0.950 . S
H460 C457 0.950 . S
C461 C452 1.390 . S
C461 H454 0.950 . S
C461 C458 1.387 . S
C462 C463 1.387 . S
C462 H466 0.950 . S
C462 C471 1.390 . S
C463 C462 1.387 . S
C463 C465 1.387 . S
H464 C471 0.950 . S
C465 C463 1.387 . S
C465 C467 1.390 . S
C465 H469 0.950 . S
H466 C462 0.950 . S
C467 C465 1.390 . S
C467 C468 1.387 . S
C467 H470 0.950 . S
C468 C467 1.387 . S
C468 C471 1.387 . S
H469 C465 0.950 . S
H470 C467 0.950 . S
C471 C462 1.390 . S
C471 H464 0.950 . S
C471 C468 1.387 . S
C472 C473 1.387 . S
C472 H476 0.950 . S
C472 C481 1.390 . S
C473 C472 1.387 . S
C473 C475 1.387 . S
H474 C481 0.950 . S
C475 C473 1.387 . S
C475 C477 1.390 . S
C475 H479 0.950 . S
H476 C472 0.950 . S
C477 C475 1.390 . S
C477 C478 1.387 . S
C477 H480 0.950 . S
C478 C477 1.387 . S
C478 C481 1.387 . S
H479 C475 0.950 . S
H480 C477 0.950 . S
C481 C472 1.390 . S
C481 H474 0.950 . S
C481 C478 1.387 . S
C482 C483 1.387 . S
C482 H486 0.950 . S
C482 C491 1.390 . S
C483 C482 1.387 . S
C483 C485 1.387 . S
H484 C491 0.950 . S
C485 C483 1.387 . S
C485 C487 1.390 . S
C485 H489 0.950 . S
H486 C482 0.950 . S
C487 C485 1.390 . S
C487 C488 1.387 . S
C487 H490 0.950 . S
C488 C487 1.387 . S
C488 C491 1.387 . S
H489 C485 0.950 . S
H490 C487 0.950 . S
C491 C482 1.390 . S
C491 H484 0.950 . S
C491 C488 1.387 . S
C492 C493 1.387 . S
C492 H496 0.950 . S
C492 C501 1.390 . S
C493 C492 1.387 . S
C493 C495 1.387 . S
H494 C501 0.950 . S
C495 C493 1.387 . S
C495 C497 1.390 . S
C495 H499 0.950 . S
H496 C492 0.950 . S
C497 C495 1.390 . S
C497 C498 1.387 . S
C497 H500 0.950 . S
C498 C497 1.387 . S
C498 C501 1.387 . S
H499 C495 0.950 . S
H500 C497 0.950 . S
C501 C492 1.390 . S
C501 H494 0.950 . S
C501 C498 1.387 . S
C502 C503 1.387 . S
C502 H506 0.950 . S
C502 C511 1.390 . S
C503 C502 1.387 . S
C503 C505 1.387 . S
H504 C511 0.950 . S
C505 C503 1.387 . S
C505 C507 1.390 . S
C505 H509 0.950 . S
H506 C502 0.950 . S
C507 C505 1.390 . S
C507 C508 1.387 . S
C507 H510 0.950 . S
C508 C507 1.387 . S
C508 C511 1.387 . S
H509 C505 0.950 . S
H510 C507 0.950 . S
C511 C502 1.390 . S
C511 H504 0.950 . S
C511 C508 1.387 . S
C512 C513 1.387 . S
C512 H516 0.950 . S
C512 C521 1.390 . S
C513 C512 1.387 . S
C513 C515 1.387 . S
H514 C521 0.950 . S
C515 C513 1.387 . S
C515 C517 1.390 . S
C515 H519 0.950 . S
H516 C512 0.950 . S
C517 C515 1.390 . S
C517 C518 1.387 . S
C517 H520 0.950 . S
C518 C517 1.387 . S
C518 C521 1.387 . S
H519 C515 0.950 . S
H520 C517 0.950 . S
C521 C512 1.390 . S
C521 H514 0.950 . S
C521 C518 1.387 . S
C522 C523 1.387 . S
C522 H526 0.950 . S
C522 C531 1.390 . S
C523 C522 1.387 . S
C523 C525 1.387 . S
H524 C531 0.950 . S
C525 C523 1.387 . S
C525 C527 1.390 . S
C525 H529 0.950 . S
H526 C522 0.950 . S
C527 C525 1.390 . S
C527 C528 1.387 . S
C527 H530 0.950 . S
C528 C527 1.387 . S
C528 C531 1.387 . S
H529 C525 0.950 . S
H530 C527 0.950 . S
C531 C522 1.390 . S
C531 H524 0.950 . S
C531 C528 1.387 . S
C532 C533 1.387 . S
C532 H536 0.950 . S
C532 C541 1.390 . S
C533 C532 1.387 . S
C533 C535 1.387 . S
H534 C541 0.950 . S
C535 C533 1.387 . S
C535 C537 1.390 . S
C535 H539 0.950 . S
H536 C532 0.950 . S
C537 C535 1.390 . S
C537 C538 1.387 . S
C537 H540 0.950 . S
C538 C537 1.387 . S
C538 C541 1.387 . S
H539 C535 0.950 . S
H540 C537 0.950 . S
C541 C532 1.390 . S
C541 H534 0.950 . S
C541 C538 1.387 . S
C542 C543 1.387 . S
C542 H546 0.950 . S
C542 C551 1.390 . S
C543 C542 1.387 . S
C543 C545 1.387 . S
H544 C551 0.950 . S
C545 C543 1.387 . S
C545 C547 1.390 . S
C545 H549 0.950 . S
H546 C542 0.950 . S
C547 C545 1.390 . S
C547 C548 1.387 . S
C547 H550 0.950 . S
C548 C547 1.387 . S
C548 C551 1.387 . S
H549 C545 0.950 . S
H550 C547 0.950 . S
C551 C542 1.390 . S
C551 H544 0.950 . S
C551 C548 1.387 . S
C552 C553 1.387 . S
C552 H556 0.950 . S
C552 C561 1.390 . S
C553 C552 1.387 . S
C553 C555 1.387 . S
H554 C561 0.950 . S
C555 C553 1.387 . S
C555 C557 1.390 . S
C555 H559 0.950 . S
H556 C552 0.950 . S
C557 C555 1.390 . S
C557 C558 1.387 . S
C557 H560 0.950 . S
C558 C557 1.387 . S
C558 C561 1.387 . S
H559 C555 0.950 . S
H560 C557 0.950 . S
C561 C552 1.390 . S
C561 H554 0.950 . S
C561 C558 1.387 . S
C562 C563 1.387 . S
C562 H566 0.950 . S
C562 C571 1.390 . S
C563 C562 1.387 . S
C563 C565 1.387 . S
H564 C571 0.950 . S
C565 C563 1.387 . S
C565 C567 1.390 . S
C565 H569 0.950 . S
H566 C562 0.950 . S
C567 C565 1.390 . S
C567 C568 1.387 . S
C567 H570 0.950 . S
C568 C567 1.387 . S
C568 C571 1.387 . S
H569 C565 0.950 . S
H570 C567 0.950 . S
C571 C562 1.390 . S
C571 H564 0.950 . S
C571 C568 1.387 . S
C572 C573 1.387 . S
C572 H576 0.950 . S
C572 C581 1.390 . S
C573 C572 1.387 . S
C573 C575 1.387 . S
H574 C581 0.950 . S
C575 C573 1.387 . S
C575 C577 1.390 . S
C575 H579 0.950 . S
H576 C572 0.950 . S
C577 C575 1.390 . S
C577 C578 1.387 . S
C577 H580 0.950 . S
C578 C577 1.387 . S
C578 C581 1.387 . S
H579 C575 0.950 . S
H580 C577 0.950 . S
C581 C572 1.390 . S
C581 H574 0.950 . S
C581 C578 1.387 . S
C582 C583 1.387 . S
C582 H586 0.950 . S
C582 C591 1.390 . S
C583 C582 1.387 . S
C583 C585 1.387 . S
H584 C591 0.950 . S
C585 C583 1.387 . S
C585 C587 1.390 . S
C585 H589 0.950 . S
H586 C582 0.950 . S
C587 C585 1.390 . S
C587 C588 1.387 . S
C587 H590 0.950 . S
C588 C587 1.387 . S
C588 C591 1.387 . S
H589 C585 0.950 . S
H590 C587 0.950 . S
C591 C582 1.390 . S
C591 H584 0.950 . S
C591 C588 1.387 . S
C592 C593 1.387 . S
C592 H596 0.950 . S
C592 C601 1.390 . S
C593 C592 1.387 . S
C593 C595 1.387 . S
H594 C601 0.950 . S
C595 C593 1.387 . S
C595 C597 1.390 . S
C595 H599 0.950 . S
H596 C592 0.950 . S
C597 C595 1.390 . S
C597 C598 1.387 . S
C597 H600 0.950 . S
C598 C597 1.387 . S
C598 C601 1.387 . S
H599 C595 0.950 . S
H600 C597 0.950 . S
C601 C592 1.390 . S
C601 H594 0.950 . S
C601 C598 1.387 . S
C602 C603 1.387 . S
C602 H606 0.950 . S
C602 C611 1.390 . S
C603 C602 1.387 . S
C603 C605 1.387 . S
H604 C611 0.950 . S
C605 C603 1.387 . S
C605 C607 1.390 . S
C605 H609 0.950 . S
H606 C602 0.950 . S
C607 C605 1.390 . S
C607 C608 1.387 . S
C607 H610 0.950 . S
C608 C607 1.387 . S
C608 C611 1.387 . S
H609 C605 0.950 . S
H610 C607 0.950 . S
C611 C602 1.390 . S
C611 H604 0.950 . S
C611 C608 1.387 . S
C612 C613 1.387 . S
C612 H616 0.950 . S
C612 C621 1.390 . S
C613 C612 1.387 . S
C613 C615 1.387 . S
H614 C621 0.950 . S
C615 C613 1.387 . S
C615 C617 1.390 . S
C615 H619 0.950 . S
H616 C612 0.950 . S
C617 C615 1.390 . S
C617 C618 1.387 . S
C617 H620 0.950 . S
C618 C617 1.387 . S
C618 C621 1.387 . S
H619 C615 0.950 . S
H620 C617 0.950 . S
C621 C612 1.390 . S
C621 H614 0.950 . S
C621 C618 1.387 . S
C622 C623 1.387 . S
C622 H626 0.950 . S
C622 C631 1.390 . S
C623 C622 1.387 . S
C623 C625 1.387 . S
H624 C631 0.950 . S
C625 C623 1.387 . S
C625 C627 1.390 . S
C625 H629 0.950 . S
H626 C622 0.950 . S
C627 C625 1.390 . S
C627 C628 1.387 . S
C627 H630 0.950 . S
C628 C627 1.387 . S
C628 C631 1.387 . S
H629 C625 0.950 . S
H630 C627 0.950 . S
C631 C622 1.390 . S
C631 H624 0.950 . S
C631 C628 1.387 . S
C632 C633 1.387 . S
C632 H636 0.950 . S
C632 C641 1.390 . S
C633 C632 1.387 . S
C633 C635 1.387 . S
H634 C641 0.950 . S
C635 C633 1.387 . S
C635 C637 1.390 . S
C635 H639 0.950 . S
H636 C632 0.950 . S
C637 C635 1.390 . S
C637 C638 1.387 . S
C637 H640 0.950 . S
C638 C637 1.387 . S
C638 C641 1.387 . S
H639 C635 0.950 . S
H640 C637 0.950 . S
C641 C632 1.390 . S
C641 H634 0.950 . S
C641 C638 1.387 . S
C403 C13 1.928 . S
C408 C122 1.884 . S
C413 C27 1.658 . S
C418 C175 1.612 . S
C428 C228 1.777 . S
C423 C29 1.825 . S
C438 C265 1.479 . S
C433 C54 1.521 . S
C448 C325 1.715 . S
C443 C69 1.762 . S
C458 C378 1.564 . S
C453 C83 1.611 . S
C463 C15 1.928 . S
C468 C229 1.895 . S
C473 C41 1.611 . S
C478 C272 1.565 . S
C488 C318 1.722 . S
C483 C42 1.762 . S
C498 C371 1.481 . S
C493 C57 1.522 . S
C503 C71 1.825 . S
C508 C123 1.787 . S
C518 C176 1.622 . S
C513 C1 1.658 . S
C528 C282 1.884 . S
C523 C12 1.928 . S
C533 C26 1.658 . S
C538 C334 1.623 . S
C548 C387 1.787 . S
C543 C28 1.824 . S
C553 C55 1.521 . S
C558 C113 1.480 . S
C563 C68 1.761 . S
C568 C166 1.721 . S
C573 C82 1.612 . S
C578 C219 1.575 . S
C583 C14 1.928 . S
C588 C388 1.884 . S
C598 C106 1.567 . S
C593 C40 1.613 . S
C603 C43 1.762 . S
C608 C159 1.714 . S
C613 C56 1.522 . S
C618 C212 1.474 . S
C623 C70 1.824 . S
C628 C281 1.787 . S
C633 C0 1.656 . S
C638 C335 1.610 . S
