# Generated by pormake.
# Topology gar, (4,6)-cn, num edge types: 1
# Building blocks:
#     Node 0, Type 0, BuildingBlock: GALJAG_clean_sbu_0, # of connection points: 4
#     Node 1, Type 0, BuildingBlock: GALJAG_clean_sbu_0, # of connection points: 4
#     Node 2, Type 0, BuildingBlock: GALJAG_clean_sbu_0, # of connection points: 4
#     Node 3, Type 0, BuildingBlock: GALJAG_clean_sbu_0, # of connection points: 4
#     Node 4, Type 0, BuildingBlock: GALJAG_clean_sbu_0, # of connection points: 4
#     Node 5, Type 0, BuildingBlock: GALJAG_clean_sbu_0, # of connection points: 4
#     Node 6, Type 0, BuildingBlock: GALJAG_clean_sbu_0, # of connection points: 4
#     Node 7, Type 0, BuildingBlock: GALJAG_clean_sbu_0, # of connection points: 4
#     Node 8, Type 0, BuildingBlock: GALJAG_clean_sbu_0, # of connection points: 4
#     Node 9, Type 0, BuildingBlock: GALJAG_clean_sbu_0, # of connection points: 4
#     Node 10, Type 0, BuildingBlock: GALJAG_clean_sbu_0, # of connection points: 4
#     Node 11, Type 0, BuildingBlock: GALJAG_clean_sbu_0, # of connection points: 4
#     Node 12, Type 0, BuildingBlock: GALJAG_clean_sbu_0, # of connection points: 4
#     Node 13, Type 0, BuildingBlock: GALJAG_clean_sbu_0, # of connection points: 4
#     Node 14, Type 0, BuildingBlock: GALJAG_clean_sbu_0, # of connection points: 4
#     Node 15, Type 0, BuildingBlock: GALJAG_clean_sbu_0, # of connection points: 4
#     Node 16, Type 0, BuildingBlock: GALJAG_clean_sbu_0, # of connection points: 4
#     Node 17, Type 0, BuildingBlock: GALJAG_clean_sbu_0, # of connection points: 4
#     Node 18, Type 0, BuildingBlock: GALJAG_clean_sbu_0, # of connection points: 4
#     Node 19, Type 0, BuildingBlock: GALJAG_clean_sbu_0, # of connection points: 4
#     Node 20, Type 0, BuildingBlock: GALJAG_clean_sbu_0, # of connection points: 4
#     Node 21, Type 0, BuildingBlock: GALJAG_clean_sbu_0, # of connection points: 4
#     Node 22, Type 0, BuildingBlock: GALJAG_clean_sbu_0, # of connection points: 4
#     Node 23, Type 0, BuildingBlock: GALJAG_clean_sbu_0, # of connection points: 4
#     Node 24, Type 1, BuildingBlock: BETDAH_clean_sbu_0, # of connection points: 6
#     Node 25, Type 1, BuildingBlock: BETDAH_clean_sbu_0, # of connection points: 6
#     Node 26, Type 1, BuildingBlock: BETDAH_clean_sbu_0, # of connection points: 6
#     Node 27, Type 1, BuildingBlock: BETDAH_clean_sbu_0, # of connection points: 6
#     Node 28, Type 1, BuildingBlock: BETDAH_clean_sbu_0, # of connection points: 6
#     Node 29, Type 1, BuildingBlock: BETDAH_clean_sbu_0, # of connection points: 6
#     Node 30, Type 1, BuildingBlock: BETDAH_clean_sbu_0, # of connection points: 6
#     Node 31, Type 1, BuildingBlock: BETDAH_clean_sbu_0, # of connection points: 6
#     Node 32, Type 1, BuildingBlock: BETDAH_clean_sbu_0, # of connection points: 6
#     Node 33, Type 1, BuildingBlock: BETDAH_clean_sbu_0, # of connection points: 6
#     Node 34, Type 1, BuildingBlock: BETDAH_clean_sbu_0, # of connection points: 6
#     Node 35, Type 1, BuildingBlock: BETDAH_clean_sbu_0, # of connection points: 6
#     Node 36, Type 1, BuildingBlock: BETDAH_clean_sbu_0, # of connection points: 6
#     Node 37, Type 1, BuildingBlock: BETDAH_clean_sbu_0, # of connection points: 6
#     Node 38, Type 1, BuildingBlock: BETDAH_clean_sbu_0, # of connection points: 6
#     Node 39, Type 1, BuildingBlock: BETDAH_clean_sbu_0, # of connection points: 6
#     Edge 40, Type (0, 1), BuildingBlock: KIFKEQ_clean_linker_1, # of connection points: 2
#     Edge 41, Type (0, 1), BuildingBlock: KIFKEQ_clean_linker_1, # of connection points: 2
#     Edge 42, Type (0, 1), BuildingBlock: KIFKEQ_clean_linker_1, # of connection points: 2
#     Edge 43, Type (0, 1), BuildingBlock: KIFKEQ_clean_linker_1, # of connection points: 2
#     Edge 44, Type (0, 1), BuildingBlock: KIFKEQ_clean_linker_1, # of connection points: 2
#     Edge 45, Type (0, 1), BuildingBlock: KIFKEQ_clean_linker_1, # of connection points: 2
#     Edge 46, Type (0, 1), BuildingBlock: KIFKEQ_clean_linker_1, # of connection points: 2
#     Edge 47, Type (0, 1), BuildingBlock: KIFKEQ_clean_linker_1, # of connection points: 2
#     Edge 48, Type (0, 1), BuildingBlock: KIFKEQ_clean_linker_1, # of connection points: 2
#     Edge 49, Type (0, 1), BuildingBlock: KIFKEQ_clean_linker_1, # of connection points: 2
#     Edge 50, Type (0, 1), BuildingBlock: KIFKEQ_clean_linker_1, # of connection points: 2
#     Edge 51, Type (0, 1), BuildingBlock: KIFKEQ_clean_linker_1, # of connection points: 2
#     Edge 52, Type (0, 1), BuildingBlock: KIFKEQ_clean_linker_1, # of connection points: 2
#     Edge 53, Type (0, 1), BuildingBlock: KIFKEQ_clean_linker_1, # of connection points: 2
#     Edge 54, Type (0, 1), BuildingBlock: KIFKEQ_clean_linker_1, # of connection points: 2
#     Edge 55, Type (0, 1), BuildingBlock: KIFKEQ_clean_linker_1, # of connection points: 2
#     Edge 56, Type (0, 1), BuildingBlock: KIFKEQ_clean_linker_1, # of connection points: 2
#     Edge 57, Type (0, 1), BuildingBlock: KIFKEQ_clean_linker_1, # of connection points: 2
#     Edge 58, Type (0, 1), BuildingBlock: KIFKEQ_clean_linker_1, # of connection points: 2
#     Edge 59, Type (0, 1), BuildingBlock: KIFKEQ_clean_linker_1, # of connection points: 2
#     Edge 60, Type (0, 1), BuildingBlock: KIFKEQ_clean_linker_1, # of connection points: 2
#     Edge 61, Type (0, 1), BuildingBlock: KIFKEQ_clean_linker_1, # of connection points: 2
#     Edge 62, Type (0, 1), BuildingBlock: KIFKEQ_clean_linker_1, # of connection points: 2
#     Edge 63, Type (0, 1), BuildingBlock: KIFKEQ_clean_linker_1, # of connection points: 2
#     Edge 64, Type (0, 1), BuildingBlock: KIFKEQ_clean_linker_1, # of connection points: 2
#     Edge 65, Type (0, 1), BuildingBlock: KIFKEQ_clean_linker_1, # of connection points: 2
#     Edge 66, Type (0, 1), BuildingBlock: KIFKEQ_clean_linker_1, # of connection points: 2
#     Edge 67, Type (0, 1), BuildingBlock: KIFKEQ_clean_linker_1, # of connection points: 2
#     Edge 68, Type (0, 1), BuildingBlock: KIFKEQ_clean_linker_1, # of connection points: 2
#     Edge 69, Type (0, 1), BuildingBlock: KIFKEQ_clean_linker_1, # of connection points: 2
#     Edge 70, Type (0, 1), BuildingBlock: KIFKEQ_clean_linker_1, # of connection points: 2
#     Edge 71, Type (0, 1), BuildingBlock: KIFKEQ_clean_linker_1, # of connection points: 2
#     Edge 72, Type (0, 1), BuildingBlock: KIFKEQ_clean_linker_1, # of connection points: 2
#     Edge 73, Type (0, 1), BuildingBlock: KIFKEQ_clean_linker_1, # of connection points: 2
#     Edge 74, Type (0, 1), BuildingBlock: KIFKEQ_clean_linker_1, # of connection points: 2
#     Edge 75, Type (0, 1), BuildingBlock: KIFKEQ_clean_linker_1, # of connection points: 2
#     Edge 76, Type (0, 1), BuildingBlock: KIFKEQ_clean_linker_1, # of connection points: 2
#     Edge 77, Type (0, 1), BuildingBlock: KIFKEQ_clean_linker_1, # of connection points: 2
#     Edge 78, Type (0, 1), BuildingBlock: KIFKEQ_clean_linker_1, # of connection points: 2
#     Edge 79, Type (0, 1), BuildingBlock: KIFKEQ_clean_linker_1, # of connection points: 2
#     Edge 80, Type (0, 1), BuildingBlock: KIFKEQ_clean_linker_1, # of connection points: 2
#     Edge 81, Type (0, 1), BuildingBlock: KIFKEQ_clean_linker_1, # of connection points: 2
#     Edge 82, Type (0, 1), BuildingBlock: KIFKEQ_clean_linker_1, # of connection points: 2
#     Edge 83, Type (0, 1), BuildingBlock: KIFKEQ_clean_linker_1, # of connection points: 2
#     Edge 84, Type (0, 1), BuildingBlock: KIFKEQ_clean_linker_1, # of connection points: 2
#     Edge 85, Type (0, 1), BuildingBlock: KIFKEQ_clean_linker_1, # of connection points: 2
#     Edge 86, Type (0, 1), BuildingBlock: KIFKEQ_clean_linker_1, # of connection points: 2
#     Edge 87, Type (0, 1), BuildingBlock: KIFKEQ_clean_linker_1, # of connection points: 2
#     Edge 88, Type (0, 1), BuildingBlock: KIFKEQ_clean_linker_1, # of connection points: 2
#     Edge 89, Type (0, 1), BuildingBlock: KIFKEQ_clean_linker_1, # of connection points: 2
#     Edge 90, Type (0, 1), BuildingBlock: KIFKEQ_clean_linker_1, # of connection points: 2
#     Edge 91, Type (0, 1), BuildingBlock: KIFKEQ_clean_linker_1, # of connection points: 2
#     Edge 92, Type (0, 1), BuildingBlock: KIFKEQ_clean_linker_1, # of connection points: 2
#     Edge 93, Type (0, 1), BuildingBlock: KIFKEQ_clean_linker_1, # of connection points: 2
#     Edge 94, Type (0, 1), BuildingBlock: KIFKEQ_clean_linker_1, # of connection points: 2
#     Edge 95, Type (0, 1), BuildingBlock: KIFKEQ_clean_linker_1, # of connection points: 2
#     Edge 96, Type (0, 1), BuildingBlock: KIFKEQ_clean_linker_1, # of connection points: 2
#     Edge 97, Type (0, 1), BuildingBlock: KIFKEQ_clean_linker_1, # of connection points: 2
#     Edge 98, Type (0, 1), BuildingBlock: KIFKEQ_clean_linker_1, # of connection points: 2
#     Edge 99, Type (0, 1), BuildingBlock: KIFKEQ_clean_linker_1, # of connection points: 2
#     Edge 100, Type (0, 1), BuildingBlock: KIFKEQ_clean_linker_1, # of connection points: 2
#     Edge 101, Type (0, 1), BuildingBlock: KIFKEQ_clean_linker_1, # of connection points: 2
#     Edge 102, Type (0, 1), BuildingBlock: KIFKEQ_clean_linker_1, # of connection points: 2
#     Edge 103, Type (0, 1), BuildingBlock: KIFKEQ_clean_linker_1, # of connection points: 2
#     Edge 104, Type (0, 1), BuildingBlock: KIFKEQ_clean_linker_1, # of connection points: 2
#     Edge 105, Type (0, 1), BuildingBlock: KIFKEQ_clean_linker_1, # of connection points: 2
#     Edge 106, Type (0, 1), BuildingBlock: KIFKEQ_clean_linker_1, # of connection points: 2
#     Edge 107, Type (0, 1), BuildingBlock: KIFKEQ_clean_linker_1, # of connection points: 2
#     Edge 108, Type (0, 1), BuildingBlock: KIFKEQ_clean_linker_1, # of connection points: 2
#     Edge 109, Type (0, 1), BuildingBlock: KIFKEQ_clean_linker_1, # of connection points: 2
#     Edge 110, Type (0, 1), BuildingBlock: KIFKEQ_clean_linker_1, # of connection points: 2
#     Edge 111, Type (0, 1), BuildingBlock: KIFKEQ_clean_linker_1, # of connection points: 2
#     Edge 112, Type (0, 1), BuildingBlock: KIFKEQ_clean_linker_1, # of connection points: 2
#     Edge 113, Type (0, 1), BuildingBlock: KIFKEQ_clean_linker_1, # of connection points: 2
#     Edge 114, Type (0, 1), BuildingBlock: KIFKEQ_clean_linker_1, # of connection points: 2
#     Edge 115, Type (0, 1), BuildingBlock: KIFKEQ_clean_linker_1, # of connection points: 2
#     Edge 116, Type (0, 1), BuildingBlock: KIFKEQ_clean_linker_1, # of connection points: 2
#     Edge 117, Type (0, 1), BuildingBlock: KIFKEQ_clean_linker_1, # of connection points: 2
#     Edge 118, Type (0, 1), BuildingBlock: KIFKEQ_clean_linker_1, # of connection points: 2
#     Edge 119, Type (0, 1), BuildingBlock: KIFKEQ_clean_linker_1, # of connection points: 2
#     Edge 120, Type (0, 1), BuildingBlock: KIFKEQ_clean_linker_1, # of connection points: 2
#     Edge 121, Type (0, 1), BuildingBlock: KIFKEQ_clean_linker_1, # of connection points: 2
#     Edge 122, Type (0, 1), BuildingBlock: KIFKEQ_clean_linker_1, # of connection points: 2
#     Edge 123, Type (0, 1), BuildingBlock: KIFKEQ_clean_linker_1, # of connection points: 2
#     Edge 124, Type (0, 1), BuildingBlock: KIFKEQ_clean_linker_1, # of connection points: 2
#     Edge 125, Type (0, 1), BuildingBlock: KIFKEQ_clean_linker_1, # of connection points: 2
#     Edge 126, Type (0, 1), BuildingBlock: KIFKEQ_clean_linker_1, # of connection points: 2
#     Edge 127, Type (0, 1), BuildingBlock: KIFKEQ_clean_linker_1, # of connection points: 2
#     Edge 128, Type (0, 1), BuildingBlock: KIFKEQ_clean_linker_1, # of connection points: 2
#     Edge 129, Type (0, 1), BuildingBlock: KIFKEQ_clean_linker_1, # of connection points: 2
#     Edge 130, Type (0, 1), BuildingBlock: KIFKEQ_clean_linker_1, # of connection points: 2
#     Edge 131, Type (0, 1), BuildingBlock: KIFKEQ_clean_linker_1, # of connection points: 2
#     Edge 132, Type (0, 1), BuildingBlock: KIFKEQ_clean_linker_1, # of connection points: 2
#     Edge 133, Type (0, 1), BuildingBlock: KIFKEQ_clean_linker_1, # of connection points: 2
#     Edge 134, Type (0, 1), BuildingBlock: KIFKEQ_clean_linker_1, # of connection points: 2
#     Edge 135, Type (0, 1), BuildingBlock: KIFKEQ_clean_linker_1, # of connection points: 2
# Relax obj value: 0.204
# Max RMSD: 0.304
# Mean RMSD: 0.174
data_MOF--net-gar--node1-GALJAG_clean_sbu_0--node2-BETDAH_clean_sbu_0--edge1-KIFKEQ_clean_linker_1
_symmetry_space_group_name_H-M    P1
_symmetry_Int_Tables_number       1
_symmetry_cell_setting            triclinic
loop_
_symmetry_equiv_pos_as_xyz
'x, y, z'
_cell_length_a     63.3444
_cell_length_b     57.477608
_cell_length_c     57.474384
_cell_angle_alpha  98.637342
_cell_angle_beta   95.434047
_cell_angle_gamma 102.31569
loop_
_atom_site_label
_atom_site_type_symbol
_atom_site_fract_x
_atom_site_fract_y
_atom_site_fract_z
_atom_type_partial_charge
In0 In 0.11483 0.34569 0.39044 0.0
O1 O 0.13082 0.34752 0.35719 0.0
O2 O 0.15158 0.3527 0.38988 0.0
C3 C 0.0759 0.33576 0.36364 0.0
C4 C 0.11555 0.30844 0.41385 0.0
C5 C 0.11321 0.38988 0.41263 0.0
O6 O 0.09293 0.33318 0.35484 0.0
O7 O 0.07854 0.34255 0.38581 0.0
O8 O 0.10451 0.37065 0.41938 0.0
O9 O 0.12375 0.38701 0.39533 0.0
C10 C 0.15001 0.35185 0.36766 0.0
O11 O 0.12424 0.33008 0.42319 0.0
O12 O 0.10736 0.30555 0.39248 0.0
In13 In 1.00674 0.76463 0.68225 0.0
O14 O 0.99904 0.77603 0.64634 0.0
O15 O 0.01654 0.80292 0.67508 0.0
C16 C 1.01102 0.72366 0.65584 0.0
C17 C 0.03942 0.77379 0.7182 0.0
C18 C 0.97065 0.76212 0.70368 0.0
O19 O 0.99281 0.72898 0.65718 0.0
O20 O 0.02716 0.7394 0.66718 0.0
O21 O 0.97712 0.74365 0.69566 0.0
O22 O 0.98215 0.78188 0.70047 0.0
C23 C 1.00859 0.79793 0.65352 0.0
O24 O 0.02148 0.75924 0.7183 0.0
O25 O 0.04081 0.78356 0.70001 0.0
In26 In 0.62083 0.85065 0.89703 0.0
O27 O 0.63342 0.84805 0.86153 0.0
O28 O 0.65672 0.86172 0.89237 0.0
C29 C 0.57917 0.83224 0.87812 0.0
C30 C 0.62614 0.81771 0.92472 0.0
C31 C 0.62083 0.89747 0.91131 0.0
O32 O 0.59483 0.83121 0.86628 0.0
O33 O 0.58463 0.84189 0.89967 0.0
O34 O 0.63003 0.88567 0.92432 0.0
O35 O 0.61188 0.88568 0.89129 0.0
C36 C 0.6531 0.85667 0.86999 0.0
O37 O 0.62309 0.83817 0.93292 0.0
O38 O 0.62716 0.81416 0.90271 0.0
In39 In 0.49911 0.25302 0.17462 0.0
O40 O 0.48849 0.22459 0.14081 0.0
O41 O 0.5034 0.21458 0.17131 0.0
C42 C 0.50543 0.2873 0.14682 0.0
C43 C 0.46411 0.24691 0.19832 0.0
C44 C 0.53646 0.26625 0.20464 0.0
O45 O 0.51384 0.26921 0.14423 0.0
O46 O 0.49357 0.28799 0.16326 0.0
O47 O 0.52492 0.28107 0.20109 0.0
O48 O 0.52938 0.24527 0.19276 0.0
C49 C 0.49502 0.20827 0.14991 0.0
O50 O 0.4834 0.25257 0.20849 0.0
O51 O 0.4623 0.24515 0.17606 0.0
In52 In 0.10225 0.83117 0.14097 0.0
O53 O 0.10519 0.80093 0.11073 0.0
O54 O 0.08741 0.79066 0.13842 0.0
C55 C 0.10138 0.8692 0.11677 0.0
C56 C 0.06652 0.83108 0.16414 0.0
C57 C 0.14226 0.83462 0.16641 0.0
O58 O 0.09373 0.84732 0.10753 0.0
O59 O 0.11047 0.87198 0.13781 0.0
O60 O 0.12688 0.84193 0.17536 0.0
O61 O 0.13785 0.82639 0.14444 0.0
C62 C 0.09428 0.78386 0.11925 0.0
O63 O 0.08566 0.83562 0.17496 0.0
O64 O 0.06548 0.82668 0.14184 0.0
In65 In 0.51667 0.77643 0.42337 0.0
O66 O 0.53423 0.76912 0.39053 0.0
O67 O 0.55378 0.78334 0.42361 0.0
C68 C 0.47645 0.77327 0.39884 0.0
C69 C 0.5162 0.73748 0.44646 0.0
C70 C 0.52449 0.82404 0.44407 0.0
O71 O 0.49257 0.76905 0.38903 0.0
O72 O 0.48018 0.77798 0.42125 0.0
O73 O 0.52026 0.80703 0.45578 0.0
O74 O 0.5248 0.81702 0.42226 0.0
C75 C 0.55323 0.77624 0.40168 0.0
O76 O 0.52259 0.75921 0.45678 0.0
O77 O 0.50907 0.7353 0.4248 0.0
In78 In 0.60192 0.32894 0.64203 0.0
O79 O 0.60558 0.29896 0.61183 0.0
O80 O 0.58852 0.28826 0.63989 0.0
C81 C 0.60072 0.36654 0.61724 0.0
C82 C 0.56586 0.32961 0.66441 0.0
C83 C 0.641 0.33149 0.66886 0.0
O84 O 0.59199 0.3447 0.60874 0.0
O85 O 0.61097 0.36943 0.63776 0.0
O86 O 0.62422 0.33509 0.6777 0.0
O87 O 0.63843 0.32753 0.64645 0.0
C88 C 0.5954 0.28166 0.62067 0.0
O89 O 0.5849 0.34001 0.67437 0.0
O90 O 0.56508 0.31903 0.64336 0.0
In91 In 0.01726 0.27857 0.92231 0.0
O92 O 0.02444 0.26111 0.95516 0.0
O93 O 1.00847 0.23744 0.92385 0.0
C94 C 0.02498 0.3251 0.94643 0.0
C95 C 0.05316 0.27598 0.90033 0.0
C96 C 0.97961 0.27851 0.89415 0.0
O97 O 1.0117 0.30785 0.95222 0.0
O98 O 0.03434 0.3188 0.92897 0.0
O99 O 0.99809 0.28117 0.88708 0.0
O100 O 0.97978 0.27496 0.91534 0.0
C101 C 0.01686 0.23946 0.94508 0.0
O102 O 0.034 0.26868 0.88946 0.0
O103 O 0.05409 0.28433 0.9221 0.0
In104 In 0.44899 0.07129 0.31451 0.0
O105 O 0.47321 0.05243 0.29763 0.0
O106 O 0.46072 0.07731 0.27942 0.0
C107 C 0.47363 0.09122 0.3564 0.0
C108 C 0.42074 0.09933 0.30919 0.0
C109 C 0.42434 0.0261 0.30856 0.0
O110 O 0.4807 0.0933 0.33686 0.0
O111 O 0.45416 0.07956 0.35466 0.0
O112 O 0.42235 0.04025 0.29417 0.0
O113 O 0.43898 0.03468 0.32607 0.0
C114 C 0.47254 0.06218 0.2794 0.0
O115 O 0.41677 0.08079 0.31868 0.0
O116 O 0.43957 0.10451 0.30304 0.0
In117 In 0.2824 0.19408 0.50724 0.0
O118 O 0.29093 0.22903 0.53607 0.0
O119 O 0.27802 0.19575 0.54657 0.0
C120 C 0.28421 0.21448 0.4669 0.0
C121 C 0.31796 0.17407 0.50783 0.0
C122 C 0.24091 0.16689 0.50397 0.0
O123 O 0.28765 0.22684 0.4876 0.0
O124 O 0.27943 0.19195 0.46648 0.0
O125 O 0.25768 0.15934 0.50952 0.0
O126 O 0.24491 0.18814 0.49943 0.0
C127 C 0.28519 0.21823 0.55286 0.0
O128 O 0.299 0.16226 0.49916 0.0
O129 O 0.31907 0.19595 0.51602 0.0
In130 In 0.1801 0.02947 0.78885 0.0
O131 O 0.14802 0.01868 0.75854 0.0
O132 O 0.17631 0.03851 0.74919 0.0
C133 C 0.15782 0.0318 0.83213 0.0
C134 C 0.20227 0.98821 0.7864 0.0
C135 C 0.20558 0.07805 0.79123 0.0
O136 O 0.14908 0.02068 0.81154 0.0
O137 O 0.17762 0.04144 0.83121 0.0
O138 O 0.21314 0.0592 0.78819 0.0
O139 O 0.18561 0.07268 0.79394 0.0
C140 C 0.15639 0.02891 0.74237 0.0
O141 O 0.21058 1.0098 0.79677 0.0
O142 O 0.18295 0.98711 0.7773 0.0
In143 In 0.30896 0.96281 0.99523 0.0
O144 O 0.32654 0.94231 0.01791 0.0
O145 O 0.30097 0.95608 0.03208 0.0
C146 C 0.2948 0.92503 0.95956 0.0
C147 C 0.28122 0.99237 0.99741 0.0
C148 C 0.34939 0.98512 0.98954 0.0
O149 O 0.29695 0.9226 0.98101 0.0
O150 O 0.29878 0.94665 0.95616 0.0
O151 O 0.33615 0.97175 0.97257 0.0
O152 O 0.34178 0.98824 1.00898 0.0
C153 C 0.31556 0.94445 0.03491 0.0
O154 O 0.30158 1.0002 0.9995 0.0
O155 O 0.27487 0.96966 0.99414 0.0
In156 In 0.33337 0.40428 0.05073 0.0
O157 O 0.32224 0.37136 0.06932 0.0
O158 O 0.34109 0.40342 0.09079 0.0
C159 C 0.32939 0.38199 1.00442 0.0
C160 C 0.29895 0.42616 0.05042 0.0
C161 C 0.37541 0.43027 0.0551 0.0
O162 O 0.32916 0.37042 0.0215 0.0
O163 O 0.33149 0.40444 1.0107 0.0
O164 O 0.36021 0.43899 0.06283 0.0
O165 O 0.36964 0.40814 0.04579 0.0
C166 C 0.33072 0.38196 0.08999 0.0
O167 O 0.31854 0.43779 0.05339 0.0
O168 O 0.29666 0.40356 0.0477 0.0
In169 In 0.79306 0.13445 0.05472 0.0
O170 O 0.80038 0.099 0.03729 0.0
O171 O 0.82098 0.11885 0.06828 0.0
C172 C 0.75154 0.12692 0.06374 0.0
C173 C 0.80915 0.17068 0.09112 0.0
C174 C 0.79166 0.14889 1.01258 0.0
O175 O 0.76178 0.11024 0.06327 0.0
O176 O 0.76233 0.14667 0.05992 0.0
O177 O 0.80816 0.15634 0.0282 0.0
O178 O 0.77657 0.13316 0.01778 0.0
C179 C 0.81694 0.10066 0.05196 0.0
O180 O 0.80993 0.17347 0.0698 0.0
O181 O 0.80143 0.14929 0.09399 0.0
In182 In 0.18736 0.54419 0.24068 0.0
O183 O 0.22198 0.53976 0.24024 0.0
O184 O 0.1983 0.50992 0.24645 0.0
C185 C 0.19732 0.5913 0.23708 0.0
C186 C 0.15757 0.52432 0.20234 0.0
C187 C 0.17696 0.55034 0.28485 0.0
O188 O 0.2071 0.57635 0.22723 0.0
O189 O 0.18189 0.58228 0.24764 0.0
O190 O 0.16387 0.53723 0.26753 0.0
O191 O 0.1957 0.55925 0.28001 0.0
C192 C 0.21797 0.51854 0.24449 0.0
O193 O 0.153 0.52477 0.22322 0.0
O194 O 0.17725 0.5333 0.20087 0.0
In195 In 0.83471 0.90425 0.55361 0.0
O196 O 0.829 0.87092 0.57264 0.0
O197 O 0.83773 0.90546 0.59425 0.0
C198 C 0.83028 0.88262 0.50691 0.0
C199 C 0.79964 0.92499 0.55334 0.0
C200 C 0.87684 0.93009 0.55819 0.0
O201 O 0.82689 0.8706 0.52345 0.0
O202 O 0.83572 0.90519 0.51391 0.0
O203 O 0.86104 0.93962 0.56212 0.0
O204 O 0.8716 0.90728 0.55264 0.0
C205 C 0.83256 0.88291 0.59349 0.0
O206 O 0.8191 0.93709 0.55735 0.0
O207 O 0.79777 0.90242 0.54941 0.0
In208 In 0.93439 0.07291 0.26899 0.0
O209 O 0.96428 0.08485 0.2457 0.0
O210 O 0.93723 0.05999 0.22702 0.0
C211 C 0.95893 0.07423 0.31523 0.0
C212 C 0.91251 0.1142 0.27009 0.0
C213 C 0.90877 0.02438 0.26754 0.0
O214 O 0.9659 0.07031 0.29539 0.0
O215 O 0.94029 0.07883 0.31213 0.0
O216 O 0.90107 0.04313 0.26946 0.0
O217 O 0.92884 0.02984 0.2656 0.0
C218 C 0.95624 0.0719 0.2256 0.0
O219 O 0.90347 0.09206 0.26228 0.0
O220 O 0.9325 0.11585 0.27718 0.0
In221 In 0.30125 0.64159 0.5551 0.0
O222 O 0.30875 0.60696 0.53611 0.0
O223 O 0.32852 0.62481 0.56833 0.0
C224 C 0.25957 0.63197 0.56343 0.0
C225 C 0.31669 0.67678 0.59264 0.0
C226 C 0.29961 0.65804 0.51397 0.0
O227 O 0.27034 0.61576 0.56218 0.0
O228 O 0.26997 0.65241 0.56085 0.0
O229 O 0.31644 0.6645 0.52922 0.0
O230 O 0.2844 0.64232 0.51897 0.0
C231 C 0.32464 0.60738 0.55122 0.0
O232 O 0.31809 0.68035 0.57162 0.0
O233 O 0.30874 0.65517 0.59462 0.0
In234 In 0.43453 0.57002 0.76865 0.0
O235 O 0.40364 0.58911 0.76111 0.0
O236 O 0.43136 0.6123 0.77988 0.0
C237 C 0.40972 0.52117 0.76622 0.0
C238 C 0.45709 0.56827 0.72555 0.0
C239 C 0.45775 0.57091 0.81543 0.0
O240 O 0.40131 0.53912 0.76444 0.0
O241 O 0.43031 0.52754 0.76841 0.0
O242 O 0.46671 0.57917 0.79855 0.0
O243 O 0.43744 0.56332 0.80921 0.0
C244 C 0.41189 0.61086 0.77105 0.0
O245 O 0.46511 0.58087 0.74578 0.0
O246 O 0.43792 0.55676 0.72678 0.0
In247 In 0.67956 0.04797 0.74698 0.0
O248 O 0.69751 0.03137 0.77395 0.0
O249 O 0.69317 1.01477 0.73772 0.0
C250 C 0.70875 0.08592 0.73802 0.0
C251 C 0.64822 0.02813 0.71021 0.0
C252 C 0.66099 0.06695 0.78291 0.0
O253 O 0.71381 0.07136 0.75067 0.0
O254 O 0.689 0.08081 0.72906 0.0
O255 O 0.65729 0.04438 0.7757 0.0
O256 O 0.674 0.07973 0.77202 0.0
C257 C 0.70122 1.01509 0.75869 0.0
O258 O 0.64397 0.03506 0.73073 0.0
O259 O 0.66825 0.03107 0.70829 0.0
In260 In 0.77986 0.69534 1.00828 0.0
O261 O 0.79592 0.66278 1.0063 0.0
O262 O 0.81686 0.69765 0.0132 0.0
C263 C 0.73766 0.66919 1.00261 0.0
C264 C 0.7841 0.71794 0.05462 0.0
C265 C 0.78218 0.71662 0.9684 0.0
O266 O 0.75362 0.65977 0.99915 0.0
O267 O 0.74282 0.69198 1.00836 0.0
O268 O 0.78417 0.72853 0.98914 0.0
O269 O 0.77859 0.69408 0.96768 0.0
C270 C 0.81529 0.67514 1.01033 0.0
O271 O 0.78867 0.72937 0.03792 0.0
O272 O 0.77739 0.6954 0.04795 0.0
In273 In 0.94085 0.57257 0.82486 0.0
O274 O 0.91484 0.5809 0.80003 0.0
O275 O 0.92277 0.60218 0.83472 0.0
C276 C 0.9169 0.52818 0.8263 0.0
C277 C 0.96521 0.56792 0.78945 0.0
C278 C 0.9664 0.59222 0.86614 0.0
O279 O 0.90886 0.5447 0.81976 0.0
O280 O 0.9372 0.53407 0.83266 0.0
O281 O 0.97236 0.59574 0.84639 0.0
O282 O 0.94729 0.57963 0.865 0.0
C283 C 0.91077 0.59726 0.81495 0.0
O284 O 0.95847 0.58683 0.79532 0.0
O285 O 0.95992 0.55165 0.80167 0.0
In286 In 0.81704 0.44922 0.50714 0.0
O287 O 0.82651 0.41588 0.51733 0.0
O288 O 0.83298 0.44712 0.544 0.0
C289 C 0.79802 0.42503 0.4644 0.0
C290 C 0.78722 0.47079 0.52582 0.0
C291 C 0.85386 0.47416 0.49482 0.0
O292 O 0.79603 0.4159 0.48295 0.0
O293 O 0.80777 0.4471 0.46785 0.0
O294 O 0.84102 0.48459 0.50555 0.0
O295 O 0.84793 0.45145 0.49021 0.0
C296 C 0.83468 0.42566 0.53819 0.0
O297 O 0.80655 0.48195 0.52545 0.0
O298 O 0.78283 0.44866 0.5167 0.0
In299 In 0.68048 0.53238 0.28909 0.0
O300 O 0.71135 0.51307 0.29478 0.0
O301 O 0.68218 0.48954 0.27981 0.0
C302 C 0.70631 0.58088 0.29083 0.0
C303 C 0.65584 0.53102 0.24304 0.0
C304 C 0.65873 0.53294 0.33262 0.0
O305 O 0.71407 0.56221 0.28998 0.0
O306 O 0.686 0.57537 0.29148 0.0
O307 O 0.65074 0.52003 0.3125 0.0
O308 O 0.67766 0.54503 0.33116 0.0
C309 C 0.70222 0.49106 0.2865 0.0
O310 O 0.64883 0.53477 0.26288 0.0
O311 O 0.67462 0.52677 0.24608 0.0
Ho312 Ho 0.04142 0.03952 0.01601 0.0
Ho313 Ho 0.0729 0.06598 0.04217 0.0
C314 C 0.0474 0.09485 0.01478 0.0
C315 C 1.0028 0.01944 0.9934 0.0
C316 C 0.9814 0.01949 1.00104 0.0
C317 C 0.98001 0.02729 0.02505 0.0
C318 C 0.96039 0.03103 0.03214 0.0
C319 C 0.94184 0.02719 0.0153 0.0
C320 C 0.94302 0.01825 0.9914 0.0
C321 C 0.96275 1.01452 0.98431 0.0
C322 C 0.07589 0.04028 0.98786 0.0
C323 C 0.06769 1.01045 0.04306 0.0
C324 C 0.11103 0.08746 0.06512 0.0
C325 C 0.13259 0.09123 0.05712 0.0
C326 C 0.13471 0.09293 0.0333 0.0
C327 C 0.154 0.09071 0.02429 0.0
C328 C 0.17135 0.08634 0.03885 0.0
C329 C 0.16968 0.08643 0.06312 0.0
C330 C 0.15043 0.08887 0.07217 0.0
C331 C 0.03822 0.06474 0.07009 0.0
O332 O 0.0325 0.07591 0.01701 0.0
O333 O 0.0676 0.09384 0.02025 0.0
O334 O 0.0139 0.04056 0.99111 0.0
O335 O 0.01471 1.00792 1.00484 0.0
O336 O 0.06132 0.0217 0.99047 0.0
O337 O 0.07236 0.05831 1.00189 0.0
O338 O 0.0824 0.03006 0.04221 0.0
O339 O 0.04745 1.01056 0.03628 0.0
O340 O 0.10183 0.06492 0.06486 0.0
O341 O 0.09749 0.09892 0.05619 0.0
O342 O 0.05246 0.0835 0.06734 0.0
O343 O 0.0422 0.04688 0.05627 0.0
H344 H 0.99433 0.03139 0.0382 0.0
H345 H 0.9599 0.03764 0.05071 0.0
H346 H 0.92903 1.01536 0.97804 0.0
H347 H 0.96365 1.00873 0.96567 0.0
H348 H 0.12103 0.09453 0.02131 0.0
H349 H 0.15489 0.09107 1.00561 0.0
H350 H 0.18258 0.0828 0.07479 0.0
H351 H 0.14895 0.08723 0.09051 0.0
Ho352 Ho 0.31917 0.80324 0.25923 0.0
Ho353 Ho 0.30463 0.81373 0.3093 0.0
C354 C 0.33041 0.85801 0.28838 0.0
C355 C 0.32917 0.80235 0.21677 0.0
C356 C 0.32961 0.81892 0.19982 0.0
C357 C 0.31861 0.83767 0.20293 0.0
C358 C 0.31851 0.85294 0.18625 0.0
C359 C 0.32957 0.84977 0.16634 0.0
C360 C 0.34109 0.83133 0.16375 0.0
C361 C 0.34104 0.81596 0.18036 0.0
C362 C 0.34318 0.79109 0.29532 0.0
C363 C 0.286 0.76137 0.27597 0.0
C364 C 0.30411 0.81623 0.35433 0.0
C365 C 0.292 0.80142 0.36945 0.0
C366 C 0.28384 0.77655 0.36148 0.0
C367 C 0.27737 0.76141 0.37753 0.0
C368 C 0.27867 0.77099 0.40177 0.0
C369 C 0.28436 0.79629 0.40906 0.0
C370 C 0.29124 0.81139 0.39301 0.0
C371 C 0.27312 0.8192 0.27594 0.0
O372 O 0.32691 0.84386 0.26735 0.0
O373 O 0.32508 0.84992 0.30782 0.0
O374 O 0.34358 0.80998 0.23574 0.0
O375 O 0.30976 0.79254 0.22148 0.0
O376 O 0.33819 0.77863 0.27404 0.0
O377 O 0.33561 0.80981 0.29613 0.0
O378 O 0.29013 0.77381 0.29789 0.0
O379 O 0.29354 0.76991 0.25759 0.0
O380 O 0.2932 0.82796 0.34168 0.0
O381 O 0.31722 0.80579 0.34243 0.0
O382 O 0.27213 0.82216 0.2986 0.0
O383 O 0.29095 0.81356 0.27261 0.0
H384 H 0.30985 0.84027 0.21805 0.0
H385 H 0.30932 0.8668 0.18864 0.0
H386 H 0.35011 0.82873 0.14885 0.0
H387 H 0.34979 0.80169 0.17793 0.0
H388 H 0.28409 0.76857 0.34322 0.0
H389 H 0.27317 0.74209 0.37116 0.0
H390 H 0.28489 0.80432 0.42745 0.0
H391 H 0.29722 0.83065 0.39934 0.0
Ho392 Ho 0.58686 0.05559 0.53073 0.0
Ho393 Ho 0.53636 0.05071 0.53013 0.0
C394 C 0.55272 1.00327 0.51225 0.0
C395 C 0.62707 0.05164 0.53315 0.0
C396 C 0.64117 0.03457 0.53719 0.0
C397 C 0.64969 0.03276 0.56021 0.0
C398 C 0.66512 0.01887 0.56355 0.0
C399 C 0.67246 1.00651 0.54398 0.0
C400 C 0.66349 1.0079 0.52102 0.0
C401 C 0.64814 0.02177 0.51769 0.0
C402 C 0.56603 0.06979 0.49435 0.0
C403 C 0.57078 0.10297 0.5509 0.0
C404 C 0.49601 0.0538 0.52284 0.0
C405 C 0.48109 0.07061 0.52321 0.0
C406 C 0.47894 0.08424 0.50506 0.0
C407 C 0.46249 0.09715 0.50392 0.0
C408 C 0.44768 0.09657 0.52076 0.0
C409 C 0.45037 0.08359 0.5393 0.0
C410 C 0.46678 0.07075 0.54046 0.0
C411 C 0.55603 0.03506 0.56621 0.0
O412 O 0.57238 1.01498 0.52327 0.0
O413 O 0.53659 1.0144 0.50947 0.0
O414 O 0.61351 0.04627 0.51345 0.0
O415 O 0.61881 0.06144 0.55116 0.0
O416 O 0.58577 0.08032 0.50379 0.0
O417 O 0.55901 0.05181 0.50374 0.0
O418 O 0.55056 0.09097 0.54205 0.0
O419 O 0.58751 0.09245 0.55093 0.0
O420 O 0.5054 0.05106 0.54321 0.0
O421 O 0.50875 0.05336 0.50623 0.0
O422 O 0.53579 0.02628 0.55732 0.0
O423 O 0.56408 0.05318 0.55724 0.0
H424 H 0.64487 0.04254 0.57567 0.0
H425 H 0.67146 0.01803 0.5815 0.0
H426 H 0.66894 0.99902 0.50549 0.0
H427 H 0.64224 0.02307 0.49972 0.0
H428 H 0.48949 0.08432 0.49128 0.0
H429 H 0.46083 0.10678 0.48928 0.0
H430 H 0.43955 0.08304 0.55281 0.0
H431 H 0.46783 0.06026 0.55451 0.0
Ho432 Ho 0.28487 0.30571 0.77769 0.0
Ho433 Ho 0.33094 0.29325 0.77997 0.0
C434 C 0.31368 0.31214 0.82882 0.0
C435 C 0.24373 0.30465 0.77841 0.0
C436 C 0.22552 0.29919 0.79273 0.0
C437 C 0.21637 0.27564 0.79627 0.0
C438 C 0.19831 0.27129 0.8088 0.0
C439 C 0.18907 0.29039 0.81806 0.0
C440 C 0.19837 0.31387 0.81447 0.0
C441 C 0.21627 0.31816 0.80196 0.0
C442 C 0.31611 0.347 0.77281 0.0
C443 C 0.30239 0.28818 0.72869 0.0
C444 C 0.37204 0.29366 0.78015 0.0
C445 C 0.3919 0.30214 0.76938 0.0
C446 C 0.39228 0.3164 0.75154 0.0
C447 C 0.41122 0.32253 0.7407 0.0
C448 C 0.43007 0.31443 0.74744 0.0
C449 C 0.42945 0.30033 0.7655 0.0
C450 C 0.41065 0.29434 0.77632 0.0
C451 C 0.29972 0.25209 0.78531 0.0
O452 O 0.29388 0.30789 0.81699 0.0
O453 O 0.33095 0.31006 0.81805 0.0
O454 O 0.25944 0.32348 0.78748 0.0
O455 O 0.25087 0.28682 0.76731 0.0
O456 O 0.29529 0.34487 0.77223 0.0
O457 O 0.31899 0.32606 0.77533 0.0
O458 O 0.32209 0.29196 0.7407 0.0
O459 O 0.28506 0.29025 0.73935 0.0
O460 O 0.35635 0.2774 0.76657 0.0
O461 O 0.36481 0.30958 0.79408 0.0
O462 O 0.32054 0.25423 0.78609 0.0
O463 O 0.29693 0.27296 0.78247 0.0
H464 H 0.22302 0.26058 0.78924 0.0
H465 H 0.19167 0.25301 0.81135 0.0
H466 H 0.1915 0.32896 0.82087 0.0
H467 H 0.22273 0.33643 0.7992 0.0
H468 H 0.3779 0.32249 0.74583 0.0
H469 H 0.41108 0.3336 0.72704 0.0
H470 H 0.44332 0.29326 0.77091 0.0
H471 H 0.41061 0.2831 0.78987 0.0
Ho472 Ho 0.0555 0.07468 0.53981 0.0
Ho473 Ho 0.05903 0.02627 0.51771 0.0
C474 C 0.0373 0.05579 0.48152 0.0
C475 C 0.05912 0.12084 0.55073 0.0
C476 C 0.06235 0.14099 0.53749 0.0
C477 C 0.07544 0.1635 0.5486 0.0
C478 C 0.08116 0.18198 0.53552 0.0
C479 C 0.07394 0.17816 0.51105 0.0
C480 C 0.06022 0.1558 0.50015 0.0
C481 C 0.05449 0.13738 0.51326 0.0
C482 C 0.02336 0.03856 0.54796 0.0
C483 C 0.07697 0.04504 0.57587 0.0
C484 C 0.05608 0.98024 0.50777 0.0
C485 C 0.04994 0.96082 0.52151 0.0
C486 C 0.03554 0.9629 0.53841 0.0
C487 C 0.02971 0.9446 0.55158 0.0
C488 C 0.03853 0.92403 0.54854 0.0
C489 C 0.05306 0.92207 0.53162 0.0
C490 C 0.05865 0.94031 0.51817 0.0
C491 C 0.09171 0.06262 0.51069 0.0
O492 O 0.04342 0.0742 0.49988 0.0
O493 O 0.04071 0.03428 0.48446 0.0
O494 O 0.04035 0.10511 0.54581 0.0
O495 O 0.07555 0.11057 0.55254 0.0
O496 O 0.03216 0.05802 0.5633 0.0
O497 O 0.03115 0.03997 0.52868 0.0
O498 O 0.06936 0.02627 0.55805 0.0
O499 O 0.075 0.06687 0.57233 0.0
O500 O 0.07448 0.99589 0.51582 0.0
O501 O 0.04046 0.99058 0.50155 0.0
O502 O 0.08312 0.04343 0.49496 0.0
O503 O 0.08341 0.06063 0.52955 0.0
H504 H 0.08184 0.16652 0.56724 0.0
H505 H 0.09189 0.19893 0.54437 0.0
H506 H 0.05413 0.15246 0.4814 0.0
H507 H 0.04436 0.12017 0.50431 0.0
H508 H 0.0288 0.97872 0.54146 0.0
H509 H 0.01821 0.94661 0.56411 0.0
H510 H 0.06045 0.90669 0.52908 0.0
H511 H 0.06994 0.93851 0.50533 0.0
Ho512 Ho 0.32758 0.81715 0.77958 0.0
Ho513 Ho 0.28553 0.78084 0.77592 0.0
C514 C 0.32932 0.75803 0.77815 0.0
C515 C 0.36588 0.84454 0.79415 0.0
C516 C 0.3883 0.84154 0.79588 0.0
C517 C 0.39259 0.81855 0.79533 0.0
C518 C 0.41391 0.81608 0.79997 0.0
C519 C 0.43128 0.83662 0.80516 0.0
C520 C 0.427 0.85954 0.80428 0.0
C521 C 0.40561 0.86197 0.79974 0.0
C522 C 0.31045 0.79619 0.7348 0.0
C523 C 0.28362 0.83992 0.77709 0.0
C524 C 0.24676 0.75434 0.76344 0.0
C525 C 0.22505 0.75795 0.76758 0.0
C526 C 0.21852 0.77881 0.76284 0.0
C527 C 0.1981 0.78224 0.76743 0.0
C528 C 0.18384 0.76499 0.77701 0.0
C529 C 0.19061 0.74436 0.78218 0.0
C530 C 0.21103 0.74086 0.77744 0.0
C531 C 0.30254 0.8026 0.82067 0.0
O532 O 0.34002 0.78151 0.78308 0.0
O533 O 0.3076 0.75316 0.7729 0.0
O534 O 0.3559 0.84246 0.7727 0.0
O535 O 0.3536 0.83329 0.80802 0.0
O536 O 0.32107 0.81863 0.74072 0.0
O537 O 0.31069 0.78607 0.75272 0.0
O538 O 0.27282 0.81644 0.77288 0.0
O539 O 0.30541 0.84478 0.78156 0.0
O540 O 0.25923 0.75284 0.78238 0.0
O541 O 0.2572 0.76755 0.74953 0.0
O542 O 0.29195 0.78017 0.81513 0.0
O543 O 0.3022 0.81208 0.80241 0.0
H544 H 0.37944 0.8026 0.79232 0.0
H545 H 0.41663 0.79821 0.80074 0.0
H546 H 0.44012 0.87565 0.80784 0.0
H547 H 0.40254 0.87984 0.80003 0.0
H548 H 0.22908 0.79241 0.75541 0.0
H549 H 0.19325 0.7981 0.76278 0.0
H550 H 0.18008 0.73084 0.78974 0.0
H551 H 0.21591 0.7248 0.7815 0.0
Ho552 Ho 0.55621 0.03963 0.03457 0.0
Ho553 Ho 0.54779 0.07098 1.00194 0.0
C554 C 0.51106 0.02542 1.00008 0.0
C555 C 0.55615 1.01052 0.06483 0.0
C556 C 0.5442 1.00718 0.08501 0.0
C557 C 0.52727 0.01897 0.08858 0.0
C558 C 0.51779 0.01872 0.10943 0.0
C559 C 0.52515 1.00672 0.12707 0.0
C560 C 0.54153 0.99408 0.12296 0.0
C561 C 0.55103 0.99435 0.10201 0.0
C562 C 0.57826 0.03515 0.9964 0.0
C563 C 0.59061 0.08671 0.03957 0.0
C564 C 0.54849 0.10044 0.97193 0.0
C565 C 0.56394 0.11042 0.9567 0.0
C566 C 0.58447 0.1049 0.95733 0.0
C567 C 0.59741 0.11025 0.93965 0.0
C568 C 0.58989 0.12103 0.92108 0.0
C569 C 0.57006 0.12824 0.92165 0.0
C570 C 0.55713 0.12289 0.93937 0.0
C571 C 0.52588 0.07583 0.04008 0.0
O572 O 0.5205 0.02571 0.02159 0.0
O573 O 0.52098 0.03915 0.98621 0.0
O574 O 0.54444 1.00453 0.04399 0.0
O575 O 0.56989 0.03139 0.06735 0.0
O576 O 0.58588 0.03493 0.01791 0.0
O577 O 0.55874 0.03685 0.99583 0.0
O578 O 0.58323 0.08517 0.01701 0.0
O579 O 0.579 0.07366 0.05276 0.0
O580 O 0.55412 0.10757 0.99475 0.0
O581 O 0.54061 0.07713 0.96627 0.0
O582 O 0.51823 0.07634 0.0186 0.0
O583 O 0.54529 0.07369 0.04062 0.0
H584 H 0.52204 0.02923 0.07567 0.0
H585 H 0.5055 0.02901 0.11223 0.0
H586 H 0.5474 0.98458 0.1362 0.0
H587 H 0.5642 0.98528 0.09946 0.0
H588 H 0.58986 0.09513 0.9706 0.0
H589 H 0.61248 0.10421 0.93953 0.0
H590 H 0.56399 0.13673 0.90765 0.0
H591 H 0.54128 0.12725 0.93874 0.0
Ho592 Ho 0.32326 0.32135 0.28854 0.0
Ho593 Ho 0.28813 0.27422 0.26493 0.0
C594 C 0.27222 0.32031 0.28637 0.0
C595 C 0.34993 0.36297 0.29332 0.0
C596 C 0.34702 0.38573 0.28624 0.0
C597 C 0.33696 0.38581 0.26341 0.0
C598 C 0.32915 0.40572 0.25862 0.0
C599 C 0.33106 0.42572 0.27666 0.0
C600 C 0.34274 0.42645 0.2989 0.0
C601 C 0.35075 0.40659 0.30362 0.0
C602 C 0.31113 0.29418 0.32236 0.0
C603 C 0.33956 0.27294 0.27444 0.0
C604 C 0.26537 0.23062 0.25295 0.0
C605 C 0.27193 0.20847 0.25755 0.0
C606 C 0.27788 0.20578 0.28103 0.0
C607 C 0.29137 0.19039 0.28564 0.0
C608 C 0.29871 0.17712 0.26687 0.0
C609 C 0.2906 0.1774 0.24339 0.0
C610 C 0.27724 0.19305 0.23873 0.0
C611 C 0.29785 0.30793 0.23663 0.0
O612 O 0.29184 0.33366 0.28549 0.0
O613 O 0.26762 0.29645 0.28239 0.0
O614 O 0.33831 0.35625 0.3098 0.0
O615 O 0.34961 0.345 0.27621 0.0
O616 O 0.32521 0.31479 0.32667 0.0
O617 O 0.3047 0.28962 0.30038 0.0
O618 O 0.31907 0.26086 0.26783 0.0
O619 O 0.3453 0.29646 0.28248 0.0
O620 O 0.27658 0.242 0.23834 0.0
O621 O 0.26268 0.24536 0.27163 0.0
O622 O 0.27867 0.29412 0.23619 0.0
O623 O 0.31108 0.30235 0.25156 0.0
H624 H 0.33371 0.36993 0.24973 0.0
H625 H 0.32004 0.40456 0.24139 0.0
H626 H 0.34454 0.44179 0.31302 0.0
H627 H 0.35844 0.40686 0.32135 0.0
H628 H 0.27374 0.21705 0.29595 0.0
H629 H 0.29723 0.19005 0.3039 0.0
H630 H 0.29606 0.16714 0.22869 0.0
H631 H 0.27276 0.19471 0.22049 0.0
Ho632 Ho 0.55605 0.57726 0.03952 0.0
Ho633 Ho 0.55856 0.52446 0.01823 0.0
C634 C 0.53663 0.55487 0.98235 0.0
C635 C 0.5661 0.62391 0.0506 0.0
C636 C 0.57706 0.64338 0.0391 0.0
C637 C 0.58464 0.63799 0.01724 0.0
C638 C 0.59398 0.65661 1.0057 0.0
C639 C 0.59574 0.68094 0.01578 0.0
C640 C 0.58853 0.6862 0.03798 0.0
C641 C 0.57927 0.66754 0.04954 0.0
C642 C 0.51949 0.54473 0.0457 0.0
C643 C 0.57652 0.54623 0.07639 0.0
C644 C 0.55453 0.47816 1.01015 0.0
C645 C 0.5505 0.45901 0.02461 0.0
C646 C 0.54401 0.46367 0.0472 0.0
C647 C 0.53921 0.44509 0.06038 0.0
C648 C 0.54118 0.42163 0.05136 0.0
C649 C 0.54821 0.41719 0.02897 0.0
C650 C 0.55273 0.43572 0.01565 0.0
C651 C 0.59003 0.56059 1.00852 0.0
O652 O 0.54576 0.57449 0.99888 0.0
O653 O 0.53733 0.5329 0.98703 0.0
O654 O 0.54713 0.61149 0.03955 0.0
O655 O 0.57828 0.61015 0.05817 0.0
O656 O 0.52304 0.56786 0.05309 0.0
O657 O 0.53579 0.54106 0.0362 0.0
O658 O 0.5723 0.52771 0.05804 0.0
O659 O 0.57155 0.56722 0.07353 0.0
O660 O 0.5734 0.49369 0.01557 0.0
O661 O 0.53834 0.48854 1.0062 0.0
O662 O 0.58233 0.54002 0.99431 0.0
O663 O 0.58172 0.55983 0.02754 0.0
H664 H 0.583 0.61937 1.00892 0.0
H665 H 0.59962 0.65195 0.98879 0.0
H666 H 0.58938 0.7047 0.04609 0.0
H667 H 0.57341 0.67197 0.06638 0.0
H668 H 0.54253 0.48163 0.05458 0.0
H669 H 0.53411 0.44911 0.07772 0.0
H670 H 0.54977 0.39926 0.02153 0.0
H671 H 0.55776 0.43182 0.99826 0.0
Ho672 Ho 0.82799 0.32063 0.27372 0.0
Ho673 Ho 0.78666 0.28473 0.27465 0.0
C674 C 0.83059 0.26213 0.27594 0.0
C675 C 0.8663 0.34886 0.28391 0.0
C676 C 0.88871 0.34676 0.28206 0.0
C677 C 0.89463 0.32472 0.28291 0.0
C678 C 0.91643 0.32359 0.2836 0.0
C679 C 0.93262 0.3445 0.28337 0.0
C680 C 0.92638 0.36616 0.28089 0.0
C681 C 0.90456 0.36728 0.28032 0.0
C682 C 0.80874 0.29657 0.23058 0.0
C683 C 0.78386 0.34319 0.27332 0.0
C684 C 0.74752 0.25906 0.26332 0.0
C685 C 0.72604 0.26474 0.2648 0.0
C686 C 0.71243 0.26341 0.24371 0.0
C687 C 0.69284 0.27062 0.24436 0.0
C688 C 0.68635 0.27904 0.26615 0.0
C689 C 0.69967 0.2799 0.28734 0.0
C690 C 0.7195 0.27298 0.28668 0.0
C691 C 0.80542 0.31008 0.31767 0.0
O692 O 0.84123 0.28555 0.27817 0.0
O693 O 0.80876 0.2571 0.27307 0.0
O694 O 0.85397 0.34671 0.26377 0.0
O695 O 0.85635 0.33726 0.29924 0.0
O696 O 0.81922 0.31908 0.23458 0.0
O697 O 0.81021 0.28806 0.24941 0.0
O698 O 0.77325 0.31978 0.27089 0.0
O699 O 0.80568 0.34814 0.27602 0.0
O700 O 0.7594 0.25938 0.28338 0.0
O701 O 0.75878 0.26943 0.24814 0.0
O702 O 0.79528 0.28741 0.31423 0.0
O703 O 0.80408 0.31757 0.29833 0.0
H704 H 0.88255 0.30864 0.28404 0.0
H705 H 0.92069 0.3067 0.28579 0.0
H706 H 0.93848 0.38246 0.28035 0.0
H707 H 0.90016 0.38435 0.27933 0.0
H708 H 0.71712 0.25709 0.22666 0.0
H709 H 0.68259 0.26928 0.22779 0.0
H710 H 0.69488 0.28619 0.30433 0.0
H711 H 0.72974 0.27436 0.30325 0.0
Ho712 Ho 0.05906 0.54661 0.53924 0.0
Ho713 Ho 0.0542 0.57556 0.5024 0.0
C714 C 0.01302 0.53708 0.50659 0.0
C715 C 0.0558 0.52212 0.5735 0.0
C716 C 0.04598 0.52536 0.59534 0.0
C717 C 0.03559 0.54445 0.60007 0.0
C718 C 0.02757 0.54884 0.62164 0.0
C719 C 0.02973 0.53407 0.63869 0.0
C720 C 0.03968 0.51457 0.63361 0.0
C721 C 0.04787 0.51031 0.61205 0.0
C722 C 0.07759 0.53318 0.50025 0.0
C723 C 0.0979 0.58821 0.5388 0.0
C724 C 0.05944 0.60041 0.46865 0.0
C725 C 0.07742 0.60615 0.45483 0.0
C726 C 0.09485 0.59486 0.45708 0.0
C727 C 0.11042 0.59731 0.44155 0.0
C728 C 0.10877 0.6111 0.4235 0.0
C729 C 0.09213 0.62386 0.42248 0.0
C730 C 0.07646 0.6213 0.43803 0.0
C731 C 0.0356 0.58918 0.5411 0.0
O732 O 0.02291 0.53788 0.52805 0.0
O733 O 0.02343 0.54752 0.49081 0.0
O734 O 0.0422 0.51643 0.55391 0.0
O735 O 0.07272 0.5392 0.57243 0.0
O736 O 0.08551 0.53345 0.52177 0.0
O737 O 0.05943 0.53866 0.50022 0.0
O738 O 0.09007 0.58522 0.51619 0.0
O739 O 0.08571 0.57871 0.55375 0.0
O740 O 0.06351 0.61013 0.4911 0.0
O741 O 0.04964 0.57751 0.46516 0.0
O742 O 0.02776 0.58917 0.5195 0.0
O743 O 0.05365 0.58333 0.54134 0.0
H744 H 0.03397 0.55613 0.58719 0.0
H745 H 0.0197 0.56378 0.625 0.0
H746 H 0.04163 0.50303 0.64655 0.0
H747 H 0.05595 0.49557 0.60858 0.0
H748 H 0.09575 0.58305 0.46998 0.0
H749 H 0.12278 0.58694 0.44265 0.0
H750 H 0.09063 0.63485 0.40895 0.0
H751 H 0.06313 0.63025 0.43627 0.0
Ho752 Ho 0.78512 0.80843 0.27896 0.0
Ho753 Ho 0.83166 0.79666 0.28158 0.0
C754 C 0.81403 0.81518 0.33036 0.0
C755 C 0.74395 0.80701 0.2799 0.0
C756 C 0.7259 0.80155 0.29442 0.0
C757 C 0.71692 0.77801 0.29811 0.0
C758 C 0.69895 0.77362 0.31076 0.0
C759 C 0.68962 0.79266 0.32 0.0
C760 C 0.69878 0.81613 0.3163 0.0
C761 C 0.71659 0.82047 0.30366 0.0
C762 C 0.81604 0.8497 0.27339 0.0
C763 C 0.80256 0.78986 0.23024 0.0
C764 C 0.87295 0.79864 0.28107 0.0
C765 C 0.89196 0.80732 0.26885 0.0
C766 C 0.91252 0.81646 0.28235 0.0
C767 C 0.93134 0.82154 0.27129 0.0
C768 C 0.93011 0.81751 0.24636 0.0
C769 C 0.90935 0.80928 0.23284 0.0
C770 C 0.89048 0.80421 0.24395 0.0
C771 C 0.8007 0.75534 0.28691 0.0
O772 O 0.7943 0.8112 0.31837 0.0
O773 O 0.83136 0.81291 0.31975 0.0
O774 O 0.75957 0.82602 0.2887 0.0
O775 O 0.75119 0.7892 0.26891 0.0
O776 O 0.79516 0.84728 0.27233 0.0
O777 O 0.81906 0.82895 0.27644 0.0
O778 O 0.82236 0.79423 0.24218 0.0
O779 O 0.78524 0.79204 0.24087 0.0
O780 O 0.85741 0.78099 0.26905 0.0
O781 O 0.86552 0.81465 0.29465 0.0
O782 O 0.82159 0.75767 0.28794 0.0
O783 O 0.79779 0.77614 0.28397 0.0
H784 H 0.72362 0.76299 0.29109 0.0
H785 H 0.69242 0.75533 0.3134 0.0
H786 H 0.69184 0.83118 0.32268 0.0
H787 H 0.72292 0.83873 0.30079 0.0
H788 H 0.91411 0.81896 0.30156 0.0
H789 H 0.94694 0.82829 0.28232 0.0
H790 H 0.9077 0.80581 0.21364 0.0
H791 H 0.87485 0.7971 0.23305 0.0
Ho792 Ho 0.81788 0.30637 0.75417 0.0
Ho793 Ho 0.805 0.30744 0.80846 0.0
C794 C 0.83178 0.35597 0.79241 0.0
C795 C 0.81865 0.30808 0.70994 0.0
C796 C 0.83476 0.31739 0.69478 0.0
C797 C 0.84386 0.34227 0.69721 0.0
C798 C 0.85628 0.35111 0.68034 0.0
C799 C 0.85992 0.33524 0.66078 0.0
C800 C 0.85258 0.31018 0.65972 0.0
C801 C 0.83993 0.30135 0.67647 0.0
C802 C 0.85067 0.30007 0.7859 0.0
C803 C 0.79098 0.25817 0.77019 0.0
C804 C 0.80521 0.3047 0.8526 0.0
C805 C 0.79201 0.28908 0.86633 0.0
C806 C 0.78546 0.26403 0.8583 0.0
C807 C 0.7769 0.24878 0.87346 0.0
C808 C 0.77445 0.25837 0.89678 0.0
C809 C 0.77864 0.28366 0.90369 0.0
C810 C 0.7876 0.29891 0.88863 0.0
C811 C 0.77149 0.31199 0.77652 0.0
O812 O 0.82812 0.34582 0.76965 0.0
O813 O 0.82621 0.34433 0.80996 0.0
O814 O 0.82165 0.28933 0.71919 0.0
O815 O 0.81225 0.32418 0.72465 0.0
O816 O 0.85175 0.29942 0.76337 0.0
O817 O 0.83243 0.30429 0.78923 0.0
O818 O 0.79574 0.26793 0.79303 0.0
O819 O 0.79495 0.27054 0.75277 0.0
O820 O 0.79578 0.31966 0.84272 0.0
O821 O 0.81698 0.2941 0.83875 0.0
O822 O 0.77017 0.31128 0.79883 0.0
O823 O 0.79045 0.31003 0.7733 0.0
H824 H 0.84044 0.35509 0.71137 0.0
H825 H 0.86147 0.37053 0.68168 0.0
H826 H 0.85544 0.29747 0.6451 0.0
H827 H 0.83331 0.28204 0.67446 0.0
H828 H 0.78829 0.25607 0.84089 0.0
H829 H 0.77396 0.22945 0.86743 0.0
H830 H 0.77631 0.29166 0.92128 0.0
H831 H 0.79216 0.31827 0.89489 0.0
Ho832 Ho 0.82417 0.82718 0.79256 0.0
Ho833 Ho 0.78913 0.77547 0.77094 0.0
C834 C 0.77201 0.82374 0.78638 0.0
C835 C 0.84807 0.87009 0.79656 0.0
C836 C 0.84243 0.89182 0.78972 0.0
C837 C 0.82929 0.89013 0.76816 0.0
C838 C 0.81857 0.90831 0.76458 0.0
C839 C 0.82053 0.92828 0.78266 0.0
C840 C 0.83505 0.93095 0.80344 0.0
C841 C 0.84604 0.91286 0.80688 0.0
C842 C 0.81407 0.79949 0.82678 0.0
C843 C 0.84151 0.77923 0.77781 0.0
C844 C 0.76466 0.73299 0.76807 0.0
C845 C 0.76915 0.71233 0.77807 0.0
C846 C 0.7855 0.71641 0.79741 0.0
C847 C 0.79344 0.69731 0.80405 0.0
C848 C 0.78565 0.67387 0.79092 0.0
C849 C 0.76848 0.66952 0.77228 0.0
C850 C 0.76017 0.6887 0.76596 0.0
C851 C 0.79906 0.80294 0.7366 0.0
O852 O 0.79199 0.83758 0.78875 0.0
O853 O 0.76734 0.79978 0.78156 0.0
O854 O 0.83776 0.86242 0.81366 0.0
O855 O 0.84855 0.85251 0.7793 0.0
O856 O 0.82812 0.82014 0.83056 0.0
O857 O 0.80701 0.79517 0.80494 0.0
O858 O 0.82153 0.76519 0.77482 0.0
O859 O 0.84612 0.80316 0.78255 0.0
O860 O 0.77689 0.73906 0.75179 0.0
O861 O 0.76308 0.75167 0.78346 0.0
O862 O 0.785 0.78227 0.73293 0.0
O863 O 0.80616 0.80747 0.75846 0.0
H864 H 0.82585 0.87396 0.75483 0.0
H865 H 0.80729 0.90568 0.74851 0.0
H866 H 0.8369 0.9463 0.81755 0.0
H867 H 0.85596 0.91439 0.82372 0.0
H868 H 0.79336 0.73459 0.80623 0.0
H869 H 0.80705 0.70128 0.81807 0.0
H870 H 0.7624 0.65159 0.76181 0.0
H871 H 0.74782 0.68534 0.7507 0.0
Ho872 Ho 0.54201 0.53712 0.51595 0.0
Ho873 Ho 0.57421 0.56384 0.54284 0.0
C874 C 0.54705 0.5938 0.51776 0.0
C875 C 0.50361 0.51633 0.49324 0.0
C876 C 0.48215 0.51511 0.50112 0.0
C877 C 0.48063 0.52063 0.52543 0.0
C878 C 0.46116 0.5243 0.533 0.0
C879 C 0.44293 0.5227 0.51636 0.0
C880 C 0.44412 0.51569 0.49207 0.0
C881 C 0.46368 0.51201 0.4845 0.0
C882 C 0.57677 0.53847 0.4883 0.0
C883 C 0.56787 0.50809 0.5433 0.0
C884 C 0.6126 0.583 0.56647 0.0
C885 C 0.63299 0.57501 0.56548 0.0
C886 C 0.63417 0.55624 0.54734 0.0
C887 C 0.65248 0.54653 0.54753 0.0
C888 C 0.67007 0.55577 0.56558 0.0
C889 C 0.66936 0.57521 0.58324 0.0
C890 C 0.65073 0.58466 0.58332 0.0
C891 C 0.53915 0.56281 0.56996 0.0
O892 O 0.53265 0.57324 0.51607 0.0
O893 O 0.5671 0.59469 0.52636 0.0
O894 O 0.514 0.53801 0.49172 0.0
O895 O 0.51613 0.50486 0.5039 0.0
O896 O 0.56229 0.51969 0.49062 0.0
O897 O 0.57294 0.55625 0.50242 0.0
O898 O 0.58276 0.5273 0.54177 0.0
O899 O 0.54765 0.5087 0.53712 0.0
O900 O 0.59737 0.56847 0.57436 0.0
O901 O 0.60521 0.58991 0.54741 0.0
O902 O 0.55351 0.58167 0.56738 0.0
O903 O 0.54315 0.54487 0.5562 0.0
H904 H 0.49483 0.52334 0.5385 0.0
H905 H 0.46063 0.52944 0.55182 0.0
H906 H 0.4304 0.51457 0.47886 0.0
H907 H 0.4647 0.50804 0.46566 0.0
H908 H 0.62075 0.54879 0.53325 0.0
H909 H 0.65291 0.53172 0.53361 0.0
H910 H 0.68289 0.58255 0.59724 0.0
H911 H 0.65 0.59911 0.59745 0.0
Ho912 Ho 0.08475 0.55651 0.03662 0.0
Ho913 Ho 0.03385 0.55172 0.03207 0.0
C914 C 0.05066 0.50347 0.01723 0.0
C915 C 0.1245 0.55266 0.04731 0.0
C916 C 0.13914 0.53552 0.04549 0.0
C917 C 0.1449 0.52536 0.06528 0.0
C918 C 0.16091 0.51187 0.06498 0.0
C919 C 0.17175 0.5083 0.04491 0.0
C920 C 0.16553 0.5179 0.02487 0.0
C921 C 0.1495 0.53138 0.02517 0.0
C922 C 0.06585 0.5657 0.99634 0.0
C923 C 0.06791 0.60478 0.05127 0.0
C924 C 0.99398 0.55529 0.02153 0.0
C925 C 0.97911 0.57221 0.02274 0.0
C926 C 0.97397 0.58263 1.00291 0.0
C927 C 0.95759 0.59563 1.00253 0.0
C928 C 0.94576 0.59843 0.02191 0.0
C929 C 0.95141 0.58865 0.04203 0.0
C930 C 0.96779 0.57566 0.04241 0.0
C931 C 0.05307 0.54302 0.0725 0.0
O932 O 0.07065 0.51587 0.02664 0.0
O933 O 0.03406 0.51403 0.01483 0.0
O934 O 0.11768 0.55978 0.02793 0.0
O935 O 0.10954 0.54945 0.06148 0.0
O936 O 0.08544 0.57695 1.00605 0.0
O937 O 0.05808 0.54945 1.00762 0.0
O938 O 0.04794 0.59239 0.04176 0.0
O939 O 0.08448 0.5942 0.05387 0.0
O940 O 1.00112 0.54904 0.04127 0.0
O941 O 1.00873 0.55793 1.00706 0.0
O942 O 0.03356 0.53141 0.06287 0.0
O943 O 0.06054 0.5591 0.06096 0.0
H944 H 0.13751 0.52853 0.08135 0.0
H945 H 0.16538 0.50506 0.08086 0.0
H946 H 0.17324 0.51524 1.00896 0.0
H947 H 0.14568 0.53909 1.00967 0.0
H948 H 0.98209 0.58001 0.98729 0.0
H949 H 0.9536 0.60262 0.98661 0.0
H950 H 0.94294 0.59073 0.05745 0.0
H951 H 0.97111 0.56771 0.0579 0.0
H952 H 0.03979 0.23974 0.9881 0.0
H953 H 0.99985 0.191 0.92797 0.0
H954 H 0.04617 0.20525 1.00564 0.0
H955 H 1.00622 0.1564 0.94553 0.0
H956 H 1.00755 0.09959 0.99484 0.0
H957 H 0.99898 0.13423 0.97889 0.0
H958 H 0.0661 0.1732 0.99829 0.0
H959 H 0.07461 0.13869 0.01413 0.0
C960 C 0.03219 0.22166 0.97868 0.0
C961 C 0.01928 0.21825 0.95657 0.0
C962 C 0.03599 0.20181 0.98869 0.0
C963 C 0.02684 0.17788 0.97702 0.0
C964 C 0.01343 0.17448 0.95518 0.0
C965 C 1.00982 0.19436 0.94505 0.0
C966 C 0.02045 0.1156 0.99581 0.0
C967 C 0.04179 0.11627 1.00585 0.0
C968 C 0.01557 0.13545 0.98651 0.0
C969 C 0.03181 0.15668 0.98725 0.0
C970 C 0.05307 0.15738 0.9976 0.0
C971 C 0.05799 0.13747 1.00662 0.0
H972 H 0.15751 0.85692 0.2122 0.0
H973 H 0.17421 0.81128 0.15347 0.0
H974 H 0.19005 0.85434 0.23683 0.0
H975 H 0.20648 0.80771 0.17847 0.0
H976 H 0.27233 0.8195 0.22736 0.0
H977 H 0.24211 0.82474 0.19986 0.0
H978 H 0.20277 0.82736 0.25725 0.0
H979 H 0.23282 0.82325 0.28429 0.0
C980 C 0.16814 0.84628 0.20452 0.0
C981 C 0.16309 0.83424 0.18085 0.0
C982 C 0.18682 0.84457 0.21876 0.0
C983 C 0.20098 0.8304 0.20998 0.0
C984 C 0.19623 0.81891 0.186 0.0
C985 C 0.1776 0.82087 0.17163 0.0
C986 C 0.25721 0.8213 0.23396 0.0
C987 C 0.25512 0.8212 0.2581 0.0
C988 C 0.23978 0.8242 0.2182 0.0
C989 C 0.21984 0.82692 0.22621 0.0
C990 C 0.21787 0.82616 0.2503 0.0
C991 C 0.23518 0.82353 0.2659 0.0
H992 H 0.53335 0.84506 0.49128 0.0
H993 H 0.52506 0.86218 0.42089 0.0
H994 H 0.54043 0.88825 0.50827 0.0
H995 H 0.53178 0.9051 0.43782 0.0
H996 H 0.51959 0.97559 0.47896 0.0
H997 H 0.51286 0.9324 0.46315 0.0
H998 H 0.56944 0.92752 0.50856 0.0
H999 H 0.5764 0.97091 0.52425 0.0
C1000 C 0.53298 0.85801 0.47945 0.0
C1001 C 0.52862 0.85014 0.45472 0.0
C1002 C 0.53714 0.88275 0.48917 0.0
C1003 C 0.53662 0.90014 0.47441 0.0
C1004 C 0.53212 0.8922 0.44971 0.0
C1005 C 0.52835 0.86758 0.44 0.0
C1006 C 0.53061 0.96536 0.48564 0.0
C1007 C 0.54858 0.97682 0.50287 0.0
C1008 C 0.52679 0.94059 0.47647 0.0
C1009 C 0.54061 0.92647 0.48456 0.0
C1010 C 0.5584 0.93782 0.50206 0.0
C1011 C 0.56246 0.96273 0.51094 0.0
H1012 H 0.5625 0.3544 0.70808 0.0
H1013 H 0.52428 0.30406 0.6479 0.0
H1014 H 0.52987 0.35337 0.72777 0.0
H1015 H 0.49185 0.30224 0.66779 0.0
H1016 H 0.43281 0.31672 0.70021 0.0
H1017 H 0.46534 0.32275 0.68032 0.0
H1018 H 0.50532 0.32868 0.74712 0.0
H1019 H 0.47301 0.32421 0.76717 0.0
C1020 C 0.54713 0.34304 0.69909 0.0
C1021 C 0.54602 0.32931 0.67642 0.0
C1022 C 0.52839 0.34231 0.71043 0.0
C1023 C 0.50804 0.32767 0.69949 0.0
C1024 C 0.50702 0.31407 0.6767 0.0
C1025 C 0.52571 0.31495 0.66532 0.0
C1026 C 0.44856 0.31981 0.71077 0.0
C1027 C 0.4501 0.31977 0.73536 0.0
C1028 C 0.46728 0.32291 0.69926 0.0
C1029 C 0.48813 0.32597 0.71196 0.0
C1030 C 0.48969 0.32659 0.73665 0.0
C1031 C 0.47101 0.32366 0.74816 0.0
H1032 H 0.99084 0.79311 0.60717 0.0
H1033 H 0.03319 0.84384 0.66448 0.0
H1034 H 0.99683 0.82341 0.58132 0.0
H1035 H 0.03986 0.87361 0.63865 0.0
H1036 H 0.03244 0.93042 0.59537 0.0
H1037 H 0.02305 0.89983 0.61978 0.0
H1038 H 0.02418 0.8441 0.56066 0.0
H1039 H 0.03206 0.87472 0.53561 0.0
C1040 C 1.00142 0.81072 0.61421 0.0
C1041 C 1.01145 0.81618 0.63786 0.0
C1042 C 1.005 0.82801 0.59938 0.0
C1043 C 0.01879 0.85101 0.6079 0.0
C1044 C 0.02878 0.85631 0.63159 0.0
C1045 C 0.02506 0.83918 0.6464 0.0
C1046 C 0.03029 0.91163 0.58736 0.0
C1047 C 0.03297 0.9051 0.56343 0.0
C1048 C 0.02522 0.89406 0.60152 0.0
C1049 C 0.02302 0.86947 0.59228 0.0
C1050 C 0.02554 0.86285 0.56831 0.0
C1051 C 0.0304 0.88046 0.55403 0.0
H1052 H 0.54311 0.83298 0.90005 0.0
H1053 H 0.56396 0.8185 0.83095 0.0
H1054 H 0.50654 0.83114 0.88125 0.0
H1055 H 0.5274 0.81711 0.81212 0.0
H1056 H 0.45291 0.80223 0.78851 0.0
H1057 H 0.48778 0.79652 0.80612 0.0
H1058 H 0.49404 0.86032 0.85908 0.0
H1059 H 0.45912 0.86552 0.84217 0.0
C1060 C 0.53977 0.82898 0.88085 0.0
C1061 C 0.55639 0.82622 0.86693 0.0
C1062 C 0.5189 0.8281 0.8701 0.0
C1063 C 0.51432 0.82452 0.84526 0.0
C1064 C 0.53051 0.81992 0.83131 0.0
C1065 C 0.55142 0.82075 0.84209 0.0
C1066 C 0.46179 0.81498 0.80392 0.0
C1067 C 0.45332 0.83434 0.81395 0.0
C1068 C 0.48172 0.81176 0.81391 0.0
C1069 C 0.49339 0.82776 0.83416 0.0
C1070 C 0.48516 0.84741 0.84377 0.0
C1071 C 0.46534 0.85064 0.83381 0.0
H1072 H 0.48075 0.19156 0.10291 0.0
H1073 H 0.5083 0.1709 0.1662 0.0
H1074 H 0.48438 0.15401 0.07947 0.0
H1075 H 0.51153 0.133 0.14281 0.0
H1076 H 0.54721 0.0956 0.0845 0.0
H1077 H 0.5355 0.12372 0.11388 0.0
H1078 H 0.47296 0.11025 0.07077 0.0
H1079 H 0.48496 0.08261 0.04113 0.0
C1080 C 0.48717 0.17875 0.11187 0.0
C1081 C 0.49448 0.18425 0.13629 0.0
C1082 C 0.48909 0.15712 0.09849 0.0
C1083 C 0.49832 0.14054 0.10929 0.0
C1084 C 0.5046 0.14554 0.13395 0.0
C1085 C 0.50269 0.1672 0.14733 0.0
C1086 C 0.53078 0.09819 0.08165 0.0
C1087 C 0.51715 0.08748 0.06037 0.0
C1088 C 0.52401 0.11423 0.09851 0.0
C1089 C 0.50346 0.11961 0.09437 0.0
C1090 C 0.48908 0.10692 0.07415 0.0
C1091 C 0.49589 0.09103 0.05727 0.0
H1092 H 0.14983 0.35162 0.32036 0.0
H1093 H 0.19288 0.35873 0.38532 0.0
H1094 H 0.18041 0.35134 0.29767 0.0
H1095 H 0.22347 0.35818 0.36251 0.0
H1096 H 0.27665 0.36336 0.31606 0.0
H1097 H 0.24741 0.37804 0.33436 0.0
H1098 H 0.1999 0.31795 0.29143 0.0
H1099 H 0.22886 0.3034 0.27337 0.0
C1100 C 0.16589 0.35346 0.32982 0.0
C1101 C 0.16897 0.35473 0.35454 0.0
C1102 C 0.18336 0.35338 0.31683 0.0
C1103 C 0.20421 0.35458 0.32834 0.0
C1104 C 0.20758 0.35747 0.35323 0.0
C1105 C 0.19006 0.35753 0.36625 0.0
C1106 C 0.25988 0.35377 0.31011 0.0
C1107 C 0.25492 0.33213 0.29356 0.0
C1108 C 0.24323 0.36206 0.32065 0.0
C1109 C 0.22147 0.34903 0.31439 0.0
C1110 C 0.2165 0.32848 0.29646 0.0
C1111 C 0.23308 0.32004 0.28623 0.0
H1112 H 0.94366 0.04102 0.18092 0.0
H1113 H 0.99644 0.09923 0.21658 0.0
H1114 H 0.96207 0.03849 0.14516 0.0
H1115 H 0.01491 0.09687 0.18099 0.0
H1116 H 0.03955 0.10205 0.10768 0.0
H1117 H 0.02087 0.10349 0.1429 0.0
H1118 H 0.98826 0.02853 0.12036 0.0
H1119 H 1.00729 0.02721 0.08481 0.0
C1120 C 0.95922 0.05346 0.1814 0.0
C1121 C 0.96804 0.07045 0.20259 0.0
C1122 C 0.97011 0.0519 0.16045 0.0
C1123 C 0.99057 0.06744 0.15893 0.0
C1124 C 0.9993 0.08448 0.18022 0.0
C1125 C 0.98853 0.08583 0.20121 0.0
C1126 C 0.02848 0.08563 0.10997 0.0
C1127 C 0.02554 0.06447 0.09246 0.0
C1128 C 0.01757 0.08643 0.13078 0.0
C1129 C 1.00251 0.06617 0.13579 0.0
C1130 C 0.99933 0.04493 0.11807 0.0
C1131 C 1.01053 0.04406 0.09726 0.0
H1132 H 0.33005 0.68999 0.49696 0.0
H1133 H 0.26135 0.65584 0.48714 0.0
H1134 H 0.32316 0.71656 0.46928 0.0
H1135 H 0.25425 0.68314 0.46049 0.0
H1136 H 0.25274 0.72527 0.39864 0.0
H1137 H 0.25802 0.6957 0.4235 0.0
H1138 H 0.3075 0.75047 0.47062 0.0
H1139 H 0.30363 0.77928 0.44491 0.0
C1140 C 0.31353 0.68802 0.48867 0.0
C1141 C 0.29625 0.671 0.49425 0.0
C1142 C 0.3095 0.70343 0.47308 0.0
C1143 C 0.28806 0.70238 0.46313 0.0
C1144 C 0.27094 0.68442 0.46776 0.0
C1145 C 0.27503 0.66876 0.48305 0.0
C1146 C 0.26474 0.731 0.41431 0.0
C1147 C 0.27795 0.75462 0.4195 0.0
C1148 C 0.26766 0.71407 0.42867 0.0
C1149 C 0.28359 0.72056 0.44873 0.0
C1150 C 0.2956 0.74464 0.45486 0.0
C1151 C 0.29295 0.76139 0.44035 0.0
H1152 H 0.60652 0.03369 0.70693 0.0
H1153 H 0.652 1.00421 0.66683 0.0
H1154 H 0.58146 0.0281 0.67062 0.0
H1155 H 0.62656 0.9976 0.6306 0.0
H1156 H 0.59885 0.03679 0.57467 0.0
H1157 H 0.61861 0.02772 0.60901 0.0
H1158 H 0.55765 1.00357 0.63589 0.0
H1159 H 0.53805 1.01367 0.60127 0.0
C1160 C 0.61082 0.02528 0.69044 0.0
C1161 C 0.63134 0.01987 0.6895 0.0
C1162 C 0.5964 0.02191 0.66965 0.0
C1163 C 0.60222 1.01282 0.64767 0.0
C1164 C 0.62187 1.0052 0.6472 0.0
C1165 C 0.6364 1.00891 0.66791 0.0
C1166 C 0.58981 0.02974 0.58794 0.0
C1167 C 0.56722 0.02673 0.58577 0.0
C1168 C 0.60099 0.02397 0.60744 0.0
C1169 C 0.5897 1.01496 0.6253 0.0
C1170 C 0.56681 1.01072 0.62254 0.0
C1171 C 0.55562 0.01642 0.60277 0.0
H1172 H 0.34162 0.40391 0.96733 0.0
H1173 H 0.3132 0.33421 0.98404 0.0
H1174 H 0.3386 0.38567 0.92551 0.0
H1175 H 0.30964 0.31603 0.9419 0.0
H1176 H 0.28307 0.30547 0.85946 0.0
H1177 H 0.28746 0.32095 0.90217 0.0
H1178 H 0.35506 0.35368 0.9003 0.0
H1179 H 0.35088 0.33778 0.85772 0.0
C1180 C 0.33469 0.38467 0.96207 0.0
C1181 C 0.32765 0.37052 0.97905 0.0
C1182 C 0.33306 0.37421 0.93811 0.0
C1183 C 0.3239 0.3494 0.93036 0.0
C1184 C 0.3167 0.33521 0.9473 0.0
C1185 C 0.31881 0.3456 0.97142 0.0
C1186 C 0.29894 0.31578 0.86817 0.0
C1187 C 0.31662 0.32035 0.85508 0.0
C1188 C 0.30145 0.32456 0.89268 0.0
C1189 C 0.32158 0.3386 0.90463 0.0
C1190 C 0.33931 0.34302 0.8916 0.0
C1191 C 0.33693 0.33379 0.86721 0.0
H1192 H 0.99511 0.05471 0.32563 0.0
H1193 H 0.95053 0.08924 0.36168 0.0
H1194 H 0.01332 0.05058 0.36397 0.0
H1195 H 0.96894 0.08557 0.40012 0.0
H1196 H 0.01822 0.09328 0.4695 0.0
H1197 H 1.00021 0.0979 0.43123 0.0
H1198 H 0.01286 0.03072 0.39841 0.0
H1199 H 0.03051 0.02598 0.43673 0.0
C1200 C 0.98911 0.06164 0.34165 0.0
C1201 C 0.971 0.07246 0.33972 0.0
C1202 C 0.99965 0.0591 0.36406 0.0
C1203 C 0.99308 0.06763 0.38616 0.0
C1204 C 0.97511 0.07877 0.38417 0.0
C1205 C 0.9643 0.08087 0.36172 0.0
C1206 C 0.0173 0.07938 0.45424 0.0
C1207 C 0.02628 0.05918 0.45709 0.0
C1208 C 1.00665 0.08198 0.43188 0.0
C1209 C 1.00463 0.0648 0.41071 0.0
C1210 C 0.01387 0.04476 0.41358 0.0
C1211 C 0.02411 0.04192 0.43601 0.0
H1212 H 0.32024 0.72473 0.59145 0.0
H1213 H 0.31998 0.67357 0.63939 0.0
H1214 H 0.3176 0.75585 0.62434 0.0
H1215 H 0.31806 0.70472 0.67229 0.0
H1216 H 0.28616 0.7511 0.71888 0.0
H1217 H 0.28916 0.72381 0.68331 0.0
H1218 H 0.33521 0.78137 0.66217 0.0
H1219 H 0.33153 0.80899 0.69757 0.0
C1220 C 0.32024 0.72035 0.60913 0.0
C1221 C 0.3201 0.69672 0.6129 0.0
C1222 C 0.31865 0.73814 0.62793 0.0
C1223 C 0.31704 0.73254 0.65076 0.0
C1224 C 0.31855 0.70936 0.65474 0.0
C1225 C 0.31993 0.6916 0.63597 0.0
C1226 C 0.29647 0.75806 0.7063 0.0
C1227 C 0.30869 0.78202 0.71095 0.0
C1228 C 0.29846 0.74238 0.68613 0.0
C1229 C 0.31294 0.75027 0.67033 0.0
C1230 C 0.324 0.77475 0.67409 0.0
C1231 C 0.32183 0.79058 0.69427 0.0
H1232 H 0.67247 0.1133 0.80694 0.0
H1233 H 0.62643 0.04495 0.80257 0.0
H1234 H 0.6553 0.13129 0.8393 0.0
H1235 H 0.60922 0.063 0.83468 0.0
H1236 H 0.57042 0.10637 0.87557 0.0
H1237 H 0.58789 0.09659 0.84065 0.0
H1238 H 0.65111 0.12335 0.88255 0.0
H1239 H 0.63361 0.13353 0.9177 0.0
C1240 C 0.65864 0.10219 0.81285 0.0
C1241 C 0.65073 0.07774 0.80235 0.0
C1242 C 0.64889 0.11247 0.83131 0.0
C1243 C 0.63089 0.09856 0.83921 0.0
C1244 C 0.62292 0.07418 0.8286 0.0
C1245 C 0.63284 0.06381 0.81041 0.0
C1246 C 0.58806 0.11099 0.87722 0.0
C1247 C 0.60069 0.12059 0.89939 0.0
C1248 C 0.59801 0.10512 0.85728 0.0
C1249 C 0.62076 0.10889 0.85911 0.0
C1250 C 0.63351 0.12028 0.88077 0.0
C1251 C 0.62353 0.126 0.90084 0.0
H1252 H 0.35108 0.3994 0.13559 0.0
H1253 H 0.30309 0.3393 0.09365 0.0
H1254 H 0.34424 0.38226 0.17149 0.0
H1255 H 0.29616 0.32229 0.12947 0.0
H1256 H 0.27039 0.31572 0.20082 0.0
H1257 H 0.27934 0.33322 0.16589 0.0
H1258 H 0.34786 0.34627 0.19129 0.0
H1259 H 0.33883 0.32823 0.2263 0.0
C1260 C 0.33918 0.38244 0.13399 0.0
C1261 C 0.32763 0.37076 0.11166 0.0
C1262 C 0.33531 0.37257 0.15459 0.0
C1263 C 0.31954 0.35094 0.15349 0.0
C1264 C 0.30823 0.33912 0.13109 0.0
C1265 C 0.31231 0.3488 0.11048 0.0
C1266 C 0.2874 0.32238 0.19907 0.0
C1267 C 0.30388 0.32058 0.21647 0.0
C1268 C 0.29253 0.3323 0.1789 0.0
C1269 C 0.31434 0.34101 0.17556 0.0
C1270 C 0.33089 0.33983 0.19328 0.0
C1271 C 0.32572 0.32952 0.21338 0.0
H1272 H 0.29118 0.04176 1.00704 0.0
H1273 H 0.23701 0.97926 0.99295 0.0
H1274 H 0.26588 0.06818 1.01319 0.0
H1275 H 0.2119 1.00549 0.99942 0.0
H1276 H 0.16892 0.05587 0.99695 0.0
H1277 H 0.19679 0.03612 0.9831 0.0
H1278 H 0.24233 0.07651 0.04373 0.0
H1279 H 0.21467 0.09726 0.05709 0.0
C1280 C 0.27387 0.03371 1.00508 0.0
C1281 C 0.26602 1.00848 0.99961 0.0
C1282 C 0.25943 0.04881 1.00867 0.0
C1283 C 0.23693 0.03892 1.00672 0.0
C1284 C 0.22911 1.0137 1.00065 0.0
C1285 C 0.24351 0.99865 0.99713 0.0
C1286 C 0.18507 0.06124 1.00693 0.0
C1287 C 0.18951 0.07802 0.02828 0.0
C1288 C 0.20096 0.04964 0.99913 0.0
C1289 C 0.22159 0.05443 1.01256 0.0
C1290 C 0.22657 0.07245 0.03298 0.0
C1291 C 0.21067 0.08416 0.04076 0.0
H1292 H 0.70158 0.68426 0.01605 0.0
H1293 H 0.72247 0.62067 0.98647 0.0
H1294 H 0.66496 0.65941 0.01604 0.0
H1295 H 0.68602 0.59589 0.98649 0.0
H1296 H 0.61328 0.56073 0.97078 0.0
H1297 H 0.64793 0.58795 0.96771 0.0
H1298 H 0.64715 0.62775 0.03747 0.0
H1299 H 0.6127 0.60034 0.04057 0.0
C1300 C 0.69833 0.66502 1.00937 0.0
C1301 C 0.715 0.65448 1.00127 0.0
C1302 C 0.67736 0.65074 1.0095 0.0
C1303 C 0.67247 0.62559 1.00128 0.0
C1304 C 0.68906 0.6152 0.9927 0.0
C1305 C 0.71004 0.62941 0.9928 0.0
C1306 C 0.62044 0.5754 0.98539 0.0
C1307 C 0.61017 0.57836 1.00592 0.0
C1308 C 0.64036 0.59095 0.98368 0.0
C1309 C 0.65047 0.61004 1.00238 0.0
C1310 C 0.63981 0.61343 0.02261 0.0
C1311 C 0.62002 0.59768 0.02442 0.0
H1312 H 0.7463 0.49002 0.2995 0.0
H1313 H 0.68567 0.44082 0.26903 0.0
H1314 H 0.7646 0.45646 0.29661 0.0
H1315 H 0.70386 0.40706 0.26573 0.0
H1316 H 0.73844 0.34268 0.26983 0.0
H1317 H 0.71972 0.37604 0.27298 0.0
H1318 H 0.78179 0.42718 0.28345 0.0
H1319 H 0.80024 0.39384 0.2806 0.0
C1320 C 0.73661 0.47207 0.29206 0.0
C1321 C 0.71396 0.46916 0.28462 0.0
C1322 C 0.74739 0.45222 0.2902 0.0
C1323 C 0.73647 0.42765 0.28074 0.0
C1324 C 0.71371 0.42485 0.27336 0.0
C1325 C 0.70295 0.44474 0.2752 0.0
C1326 C 0.74831 0.36099 0.27276 0.0
C1327 C 0.77143 0.36453 0.27477 0.0
C1328 C 0.73731 0.38071 0.27455 0.0
C1329 C 0.7485 0.4057 0.27862 0.0
C1330 C 0.77166 0.40905 0.28063 0.0
C1331 C 0.78261 0.38937 0.27878 0.0
H1332 H 0.87605 0.51982 0.51486 0.0
H1333 H 0.88025 0.4569 0.46545 0.0
H1334 H 0.91475 0.53714 0.5144 0.0
H1335 H 0.91886 0.47437 0.4649 0.0
H1336 H 0.98737 0.52492 0.46349 0.0
H1337 H 0.94741 0.51264 0.45638 0.0
H1338 H 0.94547 0.51758 0.53181 0.0
H1339 H 0.98502 0.52941 0.53897 0.0
C1340 C 0.88509 0.51005 0.50339 0.0
C1341 C 0.87538 0.48692 0.49048 0.0
C1342 C 0.90716 0.5199 0.5032 0.0
C1343 C 0.91965 0.50687 0.48983 0.0
C1344 C 0.90948 0.48471 0.47528 0.0
C1345 C 0.88748 0.47472 0.47571 0.0
C1346 C 0.97835 0.52323 0.47848 0.0
C1347 C 0.98925 0.528 0.50175 0.0
C1348 C 0.9556 0.51634 0.47441 0.0
C1349 C 0.94356 0.51466 0.4936 0.0
C1350 C 0.95447 0.51924 0.51678 0.0
C1351 C 0.9771 0.52569 0.52082 0.0
H1352 H 0.37819 0.08649 0.31511 0.0
H1353 H 0.42483 0.14082 0.29036 0.0
H1354 H 0.34906 0.10551 0.30319 0.0
H1355 H 0.39542 0.16004 0.27853 0.0
H1356 H 0.33828 0.19944 0.2908 0.0
H1357 H 0.36891 0.18131 0.30028 0.0
H1358 H 0.33105 0.11174 0.26318 0.0
H1359 H 0.30037 0.13003 0.25357 0.0
C1360 C 0.38224 0.10262 0.30728 0.0
C1361 C 0.40375 0.11224 0.30366 0.0
C1362 C 0.36553 0.11333 0.30027 0.0
C1363 C 0.37005 0.134 0.28975 0.0
C1364 C 0.39162 0.14405 0.28662 0.0
C1365 C 0.40838 0.13313 0.2934 0.0
C1366 C 0.33658 0.18026 0.28474 0.0
C1367 C 0.31702 0.1659 0.27186 0.0
C1368 C 0.3541 0.17 0.28994 0.0
C1369 C 0.35219 0.14519 0.28255 0.0
C1370 C 0.33275 0.13091 0.26922 0.0
C1371 C 0.3153 0.14127 0.26372 0.0
H1372 H 0.31906 0.12693 0.49274 0.0
H1373 H 0.36042 0.19633 0.52513 0.0
H1374 H 0.35045 0.10865 0.4951 0.0
H1375 H 0.39182 0.17801 0.52784 0.0
H1376 H 0.44702 0.14084 0.50811 0.0
H1377 H 0.41596 0.15962 0.50403 0.0
H1378 H 0.37481 0.09802 0.52466 0.0
H1379 H 0.40555 0.07901 0.52801 0.0
C1380 C 0.33487 0.13829 0.50037 0.0
C1381 C 0.3372 0.16309 0.50878 0.0
C1382 C 0.35288 0.12779 0.50186 0.0
C1383 C 0.37374 0.14179 0.51176 0.0
C1384 C 0.37609 0.16669 0.51988 0.0
C1385 C 0.35805 0.17718 0.51846 0.0
C1386 C 0.43131 0.13124 0.51161 0.0
C1387 C 0.42889 0.10842 0.51849 0.0
C1388 C 0.41352 0.14211 0.50949 0.0
C1389 C 0.3928 0.13036 0.51399 0.0
C1390 C 0.39041 0.10752 0.52078 0.0
C1391 C 0.40817 0.09673 0.523 0.0
H1392 H 0.75032 0.59732 0.2863 0.0
H1393 H 0.69274 0.62445 0.29432 0.0
H1394 H 0.77102 0.63794 0.28495 0.0
H1395 H 0.71352 0.66553 0.29376 0.0
H1396 H 0.75405 0.73902 0.27742 0.0
H1397 H 0.73155 0.6984 0.27808 0.0
H1398 H 0.78952 0.6756 0.30114 0.0
H1399 H 0.81142 0.71518 0.29974 0.0
C1400 C 0.74197 0.61195 0.28803 0.0
C1401 C 0.71954 0.60685 0.29056 0.0
C1402 C 0.75406 0.63582 0.28743 0.0
C1403 C 0.74457 0.65628 0.28949 0.0
C1404 C 0.722 0.65103 0.29189 0.0
C1405 C 0.70988 0.62708 0.29239 0.0
C1406 C 0.76199 0.72538 0.28272 0.0
C1407 C 0.78497 0.73111 0.28848 0.0
C1408 C 0.74895 0.70168 0.28315 0.0
C1409 C 0.75818 0.68245 0.28936 0.0
C1410 C 0.78111 0.68873 0.29554 0.0
C1411 C 0.79397 0.71208 0.29499 0.0
H1412 H 0.87417 0.51147 0.8087 0.0
H1413 H 0.92986 0.48917 0.83971 0.0
H1414 H 0.85296 0.46983 0.80188 0.0
H1415 H 0.90843 0.44734 0.83291 0.0
H1416 H 0.85361 0.37977 0.8355 0.0
H1417 H 0.87384 0.42192 0.84576 0.0
H1418 H 0.85681 0.43202 0.77402 0.0
H1419 H 0.83663 0.38989 0.76362 0.0
C1420 C 0.8818 0.49771 0.8143 0.0
C1421 C 0.90369 0.50347 0.8246 0.0
C1422 C 0.86969 0.4739 0.81028 0.0
C1423 C 0.87917 0.45548 0.81669 0.0
C1424 C 0.90078 0.46132 0.82789 0.0
C1425 C 0.91302 0.48517 0.83172 0.0
C1426 C 0.85406 0.39102 0.82195 0.0
C1427 C 0.84348 0.38157 0.79876 0.0
C1428 C 0.86575 0.41504 0.82781 0.0
C1429 C 0.86678 0.4301 0.81068 0.0
C1430 C 0.85605 0.42076 0.78758 0.0
C1431 C 0.84462 0.39666 0.78162 0.0
H1432 H 0.11746 0.91801 0.13262 0.0
H1433 H 0.07795 0.86725 0.07354 0.0
H1434 H 0.11015 0.95163 0.11408 0.0
H1435 H 0.07071 0.90079 0.05493 0.0
H1436 H 0.04124 0.96595 0.04345 0.0
H1437 H 0.05034 0.9322 0.06025 0.0
H1438 H 0.11673 0.97319 0.08088 0.0
H1439 H 0.10755 1.00705 0.06412 0.0
C1440 C 0.10739 0.91399 0.11555 0.0
C1441 C 0.09833 0.88982 0.10462 0.0
C1442 C 0.10323 0.93333 0.10484 0.0
C1443 C 0.08971 0.92911 0.08295 0.0
C1444 C 0.08095 0.90489 0.07189 0.0
C1445 C 0.08525 0.88558 0.08251 0.0
C1446 C 0.05783 0.96776 0.05143 0.0
C1447 C 0.07363 0.98933 0.05233 0.0
C1448 C 0.06311 0.94828 0.06101 0.0
C1449 C 0.08433 0.94977 0.07203 0.0
C1450 C 0.10017 0.97134 0.07281 0.0
C1451 C 0.09493 0.99076 0.06302 0.0
H1452 H 0.97689 0.28858 0.84922 0.0
H1453 H 0.93743 0.27374 0.90481 0.0
H1454 H 0.94537 0.29356 0.82459 0.0
H1455 H 0.90541 0.2781 0.87976 0.0
H1456 H 0.8578 0.31228 0.83508 0.0
H1457 H 0.88804 0.3063 0.86191 0.0
H1458 H 0.91256 0.27144 0.8017 0.0
H1459 H 0.88284 0.27777 0.77532 0.0
C1460 C 0.96139 0.28612 0.85613 0.0
C1461 C 0.95977 0.28058 0.879 0.0
C1462 C 0.94316 0.28886 0.84189 0.0
C1463 C 0.92256 0.28603 0.84992 0.0
C1464 C 0.92093 0.28061 0.87292 0.0
C1465 C 0.93928 0.27791 0.88725 0.0
C1466 C 0.86946 0.30296 0.82773 0.0
C1467 C 0.86778 0.29534 0.80307 0.0
C1468 C 0.88689 0.29958 0.84309 0.0
C1469 C 0.90308 0.28856 0.8341 0.0
C1470 C 0.90088 0.28049 0.80942 0.0
C1471 C 0.88365 0.28396 0.79422 0.0
H1472 H 0.61438 0.26151 0.58397 0.0
H1473 H 0.56848 0.24288 0.63287 0.0
H1474 H 0.60878 0.21852 0.56694 0.0
H1475 H 0.56281 0.20015 0.61585 0.0
H1476 H 0.54045 0.1291 0.56191 0.0
H1477 H 0.54654 0.17208 0.57804 0.0
H1478 H 0.61587 0.1799 0.57862 0.0
H1479 H 0.60984 0.13675 0.5625 0.0
C1480 C 0.60306 0.24827 0.59103 0.0
C1481 C 0.59186 0.25568 0.60977 0.0
C1482 C 0.59994 0.22362 0.58137 0.0
C1483 C 0.58531 0.20581 0.58998 0.0
C1484 C 0.57403 0.21332 0.6086 0.0
C1485 C 0.57736 0.23786 0.61844 0.0
C1486 C 0.55703 0.1399 0.56546 0.0
C1487 C 0.57465 0.1293 0.56093 0.0
C1488 C 0.56052 0.1646 0.57482 0.0
C1489 C 0.5817 0.17952 0.57968 0.0
C1490 C 0.59933 0.16901 0.57492 0.0
C1491 C 0.59587 0.1442 0.56583 0.0
H1492 H 0.59553 0.78995 0.42269 0.0
H1493 H 0.55636 0.76379 0.35437 0.0
H1494 H 0.62857 0.79199 0.40376 0.0
H1495 H 0.58945 0.76635 0.33526 0.0
H1496 H 0.65333 0.75483 0.30989 0.0
H1497 H 0.62078 0.74922 0.33002 0.0
H1498 H 0.64898 0.81572 0.37913 0.0
H1499 H 0.68171 0.82076 0.35968 0.0
C1500 C 0.59397 0.78464 0.4036 0.0
C1501 C 0.57329 0.77678 0.39005 0.0
C1502 C 0.61295 0.78594 0.39269 0.0
C1503 C 0.61179 0.77946 0.3679 0.0
C1504 C 0.59104 0.77122 0.3544 0.0
C1505 C 0.57204 0.7699 0.36533 0.0
C1506 C 0.65273 0.76804 0.32522 0.0
C1507 C 0.67019 0.78831 0.33305 0.0
C1508 C 0.63392 0.76499 0.3366 0.0
C1509 C 0.63211 0.78206 0.35619 0.0
C1510 C 0.64978 0.80204 0.36429 0.0
C1511 C 0.66852 0.80509 0.35292 0.0
H1512 H 0.09443 0.26139 0.39813 0.0
H1513 H 0.13007 0.31057 0.46057 0.0
H1514 H 0.08562 0.22971 0.42177 0.0
H1515 H 0.12168 0.27864 0.4842 0.0
H1516 H 0.07701 0.22683 0.52239 0.0
H1517 H 0.0894 0.25781 0.49884 0.0
H1518 H 0.1005 0.20311 0.44407 0.0
H1519 H 0.08796 0.17215 0.46755 0.0
C1520 C 0.10073 0.26528 0.41683 0.0
C1521 C 0.11286 0.28847 0.42753 0.0
C1522 C 0.09573 0.2471 0.43038 0.0
C1523 C 0.1028 0.2517 0.45491 0.0
C1524 C 0.11567 0.27465 0.46542 0.0
C1525 C 0.12064 0.29287 0.45186 0.0
C1526 C 0.08224 0.22147 0.50539 0.0
C1527 C 0.08139 0.19705 0.49676 0.0
C1528 C 0.08942 0.23922 0.49194 0.0
C1529 C 0.09598 0.23294 0.46959 0.0
C1530 C 0.09527 0.20852 0.46106 0.0
C1531 C 0.08804 0.19077 0.47448 0.0
H1532 H 0.56177 0.3114 0.22296 0.0
H1533 H 0.55698 0.23535 0.22333 0.0
H1534 H 0.59798 0.3209 0.24636 0.0
H1535 H 0.59271 0.24473 0.24657 0.0
H1536 H 0.65413 0.26309 0.29204 0.0
H1537 H 0.61604 0.26548 0.28482 0.0
H1538 H 0.6325 0.31111 0.23285 0.0
H1539 H 0.6705 0.30895 0.24032 0.0
C1540 C 0.56828 0.29682 0.22846 0.0
C1541 C 0.55684 0.27264 0.2211 0.0
C1542 C 0.5889 0.30224 0.24183 0.0
C1543 C 0.59808 0.28356 0.24833 0.0
C1544 C 0.58593 0.25954 0.24216 0.0
C1545 C 0.56558 0.25414 0.22858 0.0
C1546 C 0.64969 0.27434 0.27975 0.0
C1547 C 0.66502 0.28544 0.26635 0.0
C1548 C 0.62794 0.27564 0.27557 0.0
C1549 C 0.62132 0.28817 0.25803 0.0
C1550 C 0.63714 0.3014 0.24652 0.0
C1551 C 0.65883 0.29997 0.2506 0.0
H1552 H 0.60072 0.92533 0.88651 0.0
H1553 H 0.63681 0.9259 0.95434 0.0
H1554 H 0.59378 0.96467 0.90154 0.0
H1555 H 0.62957 0.96486 0.96948 0.0
H1556 H 0.62067 0.03641 0.99351 0.0
H1557 H 0.63507 1.00751 0.96774 0.0
H1558 H 0.57035 0.97682 0.93009 0.0
H1559 H 0.55618 1.00629 0.95544 0.0
C1560 C 0.60743 0.93403 0.90453 0.0
C1561 C 0.6191 0.92248 0.91939 0.0
C1562 C 0.60341 0.95651 0.91312 0.0
C1563 C 0.61104 0.96786 0.9367 0.0
C1564 C 0.62372 0.95682 0.9511 0.0
C1565 C 0.62772 0.93437 0.94252 0.0
C1566 C 0.60972 0.02402 0.97913 0.0
C1567 C 0.58731 0.02317 0.97663 0.0
C1568 C 0.61791 1.00738 0.96452 0.0
C1569 C 0.60375 0.98946 0.94734 0.0
C1570 C 0.5817 0.99039 0.94316 0.0
C1571 C 0.57354 1.00724 0.95768 0.0
H1572 H 0.9565 0.79972 0.72606 0.0
H1573 H 0.94239 0.72159 0.71097 0.0
H1574 H 0.92578 0.79796 0.74854 0.0
H1575 H 0.91143 0.71985 0.73375 0.0
H1576 H 0.84214 0.7406 0.74425 0.0
H1577 H 0.8749 0.73203 0.72883 0.0
H1578 H 0.915 0.78486 0.7862 0.0
H1579 H 0.88238 0.79377 0.80121 0.0
C1580 C 0.94685 0.78217 0.72763 0.0
C1581 C 0.95176 0.76081 0.7168 0.0
C1582 C 0.92942 0.78114 0.74072 0.0
C1583 C 0.91651 0.75874 0.7432 0.0
C1584 C 0.92125 0.73731 0.73219 0.0
C1585 C 0.93888 0.73834 0.71918 0.0
C1586 C 0.85796 0.74962 0.75405 0.0
C1587 C 0.85991 0.7682 0.77353 0.0
C1588 C 0.87668 0.74475 0.74523 0.0
C1589 C 0.89737 0.75832 0.75601 0.0
C1590 C 0.89918 0.77461 0.77728 0.0
C1591 C 0.88057 0.77962 0.7859 0.0
H1592 H 0.11596 1.00771 0.84012 0.0
H1593 H 0.17206 0.06014 0.87796 0.0
H1594 H 0.09757 1.01036 0.87579 0.0
H1595 H 0.15368 0.06303 0.91376 0.0
H1596 H 0.10893 0.07669 0.9744 0.0
H1597 H 0.12802 0.07507 0.93888 0.0
H1598 H 0.09111 1.00208 0.91359 0.0
H1599 H 0.07246 1.00373 0.94886 0.0
C1600 C 0.12461 0.01991 0.85597 0.0
C1601 C 0.14601 0.03357 0.85517 0.0
C1602 C 0.11388 0.02142 0.877 0.0
C1603 C 0.12355 0.03697 0.89891 0.0
C1604 C 0.14492 0.05084 0.89797 0.0
C1605 C 0.15577 0.04906 0.877 0.0
C1606 C 0.10474 0.06021 0.96136 0.0
C1607 C 0.08855 0.04041 0.96543 0.0
C1608 C 0.11598 0.05916 0.94055 0.0
C1609 C 0.11162 0.0384 0.92208 0.0
C1610 C 0.09537 0.01876 0.92633 0.0
C1611 C 0.08446 0.01969 0.94717 0.0
H1612 H 0.84621 0.38293 0.5266 0.0
H1613 H 0.84862 0.44018 0.58553 0.0
H1614 H 0.86219 0.36035 0.55336 0.0
H1615 H 0.8639 0.41729 0.61244 0.0
H1616 H 0.8914 0.37598 0.65902 0.0
H1617 H 0.8929 0.39864 0.62625 0.0
H1618 H 0.84529 0.33937 0.58227 0.0
H1619 H 0.84364 0.31711 0.61458 0.0
C1620 C 0.85027 0.39072 0.54528 0.0
C1621 C 0.84575 0.41301 0.55416 0.0
C1622 C 0.85952 0.37786 0.56055 0.0
C1623 C 0.86418 0.38693 0.58502 0.0
C1624 C 0.8608 0.40992 0.59364 0.0
C1625 C 0.85174 0.42289 0.57831 0.0
C1626 C 0.88177 0.36756 0.64209 0.0
C1627 C 0.86697 0.34503 0.63963 0.0
C1628 C 0.88262 0.38053 0.62337 0.0
C1629 C 0.86879 0.37104 0.60192 0.0
C1630 C 0.85621 0.34723 0.59852 0.0
C1631 C 0.8553 0.33435 0.61718 0.0
H1632 H 0.46116 0.0904 0.4002 0.0
H1633 H 0.51794 0.1072 0.36418 0.0
H1634 H 0.4846 0.09115 0.4366 0.0
H1635 H 0.54139 0.10778 0.40071 0.0
H1636 H 0.57571 0.11241 0.47766 0.0
H1637 H 0.5536 0.12518 0.44654 0.0
H1638 H 0.50584 0.05755 0.43851 0.0
H1639 H 0.52805 0.0446 0.46863 0.0
C1640 C 0.47867 0.09493 0.40025 0.0
C1641 C 0.48776 0.09819 0.3793 0.0
C1642 C 0.49204 0.09536 0.42105 0.0
C1643 C 0.51467 0.09905 0.42119 0.0
C1644 C 0.52395 0.1049 0.40098 0.0
C1645 C 0.51054 0.10447 0.3801 0.0
C1646 C 0.56045 0.1004 0.46917 0.0
C1647 C 0.55328 0.07774 0.47573 0.0
C1648 C 0.54785 0.10772 0.45155 0.0
C1649 C 0.52787 0.09255 0.44063 0.0
C1650 C 0.5209 0.06987 0.44717 0.0
C1651 C 0.53359 0.06245 0.46438 0.0
H1652 H 0.80651 0.76391 0.07557 0.0
H1653 H 0.76711 0.69849 0.09122 0.0
H1654 H 0.81095 0.78249 0.11762 0.0
H1655 H 0.77125 0.71711 0.13301 0.0
H1656 H 0.76462 0.76758 0.20089 0.0
H1657 H 0.76001 0.75128 0.15847 0.0
H1658 H 0.82908 0.77632 0.15739 0.0
H1659 H 0.83381 0.79243 0.19995 0.0
C1660 C 0.79871 0.75355 0.08794 0.0
C1661 C 0.78646 0.7297 0.08 0.0
C1662 C 0.80133 0.76415 0.11205 0.0
C1663 C 0.79141 0.75133 0.12873 0.0
C1664 C 0.77895 0.7276 0.12066 0.0
C1665 C 0.77665 0.71688 0.09669 0.0
C1666 C 0.77884 0.76981 0.19164 0.0
C1667 C 0.7996 0.78135 0.20398 0.0
C1668 C 0.7762 0.7603 0.1673 0.0
C1669 C 0.79418 0.7624 0.15448 0.0
C1670 C 0.81486 0.77451 0.16665 0.0
C1671 C 0.81757 0.78366 0.19111 0.0
H1672 H 0.11534 1.00242 0.71786 0.0
H1673 H 0.16928 0.05909 0.70997 0.0
H1674 H 0.09678 1.0054 0.6791 0.0
H1675 H 0.15068 0.0625 0.67168 0.0
H1676 H 0.10342 0.07983 0.61226 0.0
H1677 H 0.12154 0.07563 0.65048 0.0
H1678 H 0.09439 0.99884 0.63496 0.0
H1679 H 0.07658 1.00306 0.5963 0.0
C1680 C 0.1234 0.01562 0.70805 0.0
C1681 C 0.14422 0.03043 0.71786 0.0
C1682 C 0.11263 0.01731 0.68539 0.0
C1683 C 0.12174 0.03433 0.67132 0.0
C1684 C 0.14249 0.04923 0.68134 0.0
C1685 C 0.15343 0.04716 0.70367 0.0
C1686 C 0.10119 0.0619 0.61674 0.0
C1687 C 0.08814 0.04189 0.60031 0.0
C1688 C 0.11187 0.05942 0.63904 0.0
C1689 C 0.10992 0.03679 0.64679 0.0
C1690 C 0.0966 0.01675 0.63047 0.0
C1691 C 0.08627 0.01918 0.60786 0.0
H1692 H 0.77233 0.37948 0.44965 0.0
H1693 H 0.81877 0.43553 0.42713 0.0
H1694 H 0.77426 0.35138 0.41396 0.0
H1695 H 0.82227 0.40742 0.39296 0.0
H1696 H 0.81323 0.3587 0.32343 0.0
H1697 H 0.80793 0.38626 0.35689 0.0
H1698 H 0.79635 0.32784 0.39712 0.0
H1699 H 0.7995 0.29945 0.36205 0.0
C1700 C 0.78267 0.38584 0.43684 0.0
C1701 C 0.79519 0.4097 0.44095 0.0
C1702 C 0.78415 0.36965 0.41665 0.0
C1703 C 0.79864 0.3769 0.40056 0.0
C1704 C 0.81056 0.4011 0.40448 0.0
C1705 C 0.80856 0.41737 0.42418 0.0
C1706 C 0.80962 0.35163 0.3394 0.0
C1707 C 0.80656 0.32683 0.34004 0.0
C1708 C 0.80674 0.3676 0.35882 0.0
C1709 C 0.80164 0.35946 0.37992 0.0
C1710 C 0.79971 0.33474 0.38101 0.0
C1711 C 0.80192 0.3185 0.36112 0.0
H1712 H 0.46828 0.07587 0.23632 0.0
H1713 H 0.49885 0.03024 0.27507 0.0
H1714 H 0.48094 0.05914 0.20015 0.0
H1715 H 0.51156 1.01349 0.23868 0.0
H1716 H 0.54916 0.01595 0.17084 0.0
H1717 H 0.53716 0.02811 0.20899 0.0
H1718 H 0.47148 0.01734 0.17421 0.0
H1719 H 0.48332 1.00475 0.13609 0.0
C1720 C 0.47792 0.06246 0.23716 0.0
C1721 C 0.48255 0.05429 0.25845 0.0
C1722 C 0.48495 0.05273 0.21643 0.0
C1723 C 0.49688 0.03477 0.21665 0.0
C1724 C 0.50231 0.02727 0.23811 0.0
C1725 C 0.4951 0.03688 0.25887 0.0
C1726 C 0.53204 0.01548 0.17142 0.0
C1727 C 0.5172 1.00968 0.15046 0.0
C1728 C 0.52523 0.02255 0.19324 0.0
C1729 C 0.50352 0.02406 0.19436 0.0
C1730 C 0.48842 0.01679 0.17366 0.0
C1731 C 0.49518 1.00957 0.15191 0.0
H1732 H 0.77442 0.69463 0.92148 0.0
H1733 H 0.79627 0.76468 0.96639 0.0
H1734 H 0.78088 0.71339 0.88638 0.0
H1735 H 0.80282 0.78335 0.93146 0.0
H1736 H 0.83818 0.80342 0.86902 0.0
H1737 H 0.8293 0.78318 0.90229 0.0
H1738 H 0.76823 0.74283 0.86171 0.0
H1739 H 0.77701 0.76393 0.82838 0.0
C1740 C 0.78047 0.71405 0.92388 0.0
C1741 C 0.78488 0.72812 0.94684 0.0
C1742 C 0.78408 0.72482 0.90372 0.0
C1743 C 0.79252 0.7499 0.90601 0.0
C1744 C 0.79657 0.76396 0.92897 0.0
C1745 C 0.79271 0.75326 0.94905 0.0
C1746 C 0.82287 0.79013 0.86705 0.0
C1747 C 0.8085 0.78497 0.84575 0.0
C1748 C 0.81772 0.7786 0.88625 0.0
C1749 C 0.79799 0.7614 0.88486 0.0
C1750 C 0.78367 0.75582 0.86338 0.0
C1751 C 0.78877 0.76772 0.84415 0.0
H1752 H 0.85012 0.09742 0.08399 0.0
H1753 H 0.81807 0.06787 1.01272 0.0
H1754 H 0.87874 0.07592 0.07683 0.0
H1755 H 0.84715 0.047 1.00518 0.0
H1756 H 0.89904 1.00276 1.00275 0.0
H1757 H 0.86667 0.01656 0.01354 0.0
H1758 H 0.90814 0.08285 0.05373 0.0
H1759 H 0.94012 0.06896 0.04332 0.0
C1760 C 0.84908 0.08607 0.06687 0.0
C1761 C 0.83204 0.08449 0.04882 0.0
C1762 C 0.86554 0.07389 0.0627 0.0
C1763 C 0.86546 0.06013 0.04028 0.0
C1764 C 0.84766 0.05735 0.02268 0.0
C1765 C 0.83103 0.06937 0.02696 0.0
C1766 C 0.90112 0.0202 0.014 0.0
C1767 C 0.92208 0.03468 0.02239 0.0
C1768 C 0.88264 0.02811 0.02015 0.0
C1769 C 0.88482 0.0507 0.03469 0.0
C1770 C 0.90583 0.06507 0.04305 0.0
C1771 C 0.9242 0.05714 0.03703 0.0
H1772 H 0.40702 0.42083 0.02803 0.0
H1773 H 0.39423 0.47392 0.083 0.0
H1774 H 0.44213 0.44752 0.026 0.0
H1775 H 0.42972 0.50003 0.08214 0.0
H1776 H 0.48151 0.55423 0.05757 0.0
H1777 H 0.44778 0.52603 0.06026 0.0
H1778 H 0.47805 0.46622 0.04189 0.0
H1779 H 0.51155 0.49491 0.03787 0.0
C1780 C 0.41191 0.43805 0.04001 0.0
C1781 C 0.39775 0.44532 0.05556 0.0
C1782 C 0.43216 0.45339 0.03895 0.0
C1783 C 0.43895 0.47631 0.05368 0.0
C1784 C 0.42502 0.48298 0.06993 0.0
C1785 C 0.40465 0.46786 0.07065 0.0
C1786 C 0.48097 0.53504 0.05409 0.0
C1787 C 0.49925 0.52681 0.04753 0.0
C1788 C 0.46159 0.51874 0.05587 0.0
C1789 C 0.45993 0.49358 0.0516 0.0
C1790 C 0.47839 0.48535 0.04507 0.0
C1791 C 0.49774 0.50178 0.0429 0.0
H1792 H 0.36884 0.61197 0.75315 0.0
H1793 H 0.42683 0.66059 0.79161 0.0
H1794 H 0.35027 0.6453 0.75464 0.0
H1795 H 0.40835 0.69407 0.79352 0.0
H1796 H 0.37459 0.75857 0.7874 0.0
H1797 H 0.39341 0.72542 0.78569 0.0
H1798 H 0.33169 0.67399 0.76564 0.0
H1799 H 0.31313 0.70723 0.76709 0.0
C1800 C 0.37787 0.62973 0.76209 0.0
C1801 C 0.39989 0.63255 0.7722 0.0
C1802 C 0.36692 0.64944 0.76311 0.0
C1803 C 0.37703 0.67378 0.77431 0.0
C1804 C 0.39915 0.67648 0.78439 0.0
C1805 C 0.41007 0.65673 0.7834 0.0
C1806 C 0.36479 0.74027 0.7826 0.0
C1807 C 0.34173 0.73666 0.77746 0.0
C1808 C 0.37586 0.72063 0.78167 0.0
C1809 C 0.36484 0.69562 0.77544 0.0
C1810 C 0.34173 0.69216 0.77031 0.0
C1811 C 0.3307 0.71178 0.77129 0.0
H1812 H 0.23408 0.66412 0.56211 0.0
H1813 H 0.23219 0.58977 0.56873 0.0
H1814 H 0.19457 0.65602 0.55972 0.0
H1815 H 0.19238 0.5818 0.56658 0.0
H1816 H 0.12189 0.58389 0.57918 0.0
H1817 H 0.16149 0.59619 0.58913 0.0
H1818 H 0.1661 0.62789 0.52575 0.0
H1819 H 0.12657 0.61538 0.51553 0.0
C1820 C 0.22525 0.64612 0.56345 0.0
C1821 C 0.23613 0.62745 0.56536 0.0
C1822 C 0.20267 0.64156 0.56203 0.0
C1823 C 0.1906 0.61832 0.56281 0.0
C1824 C 0.20148 0.59992 0.56607 0.0
C1825 C 0.22416 0.60442 0.56721 0.0
C1826 C 0.13132 0.59385 0.56757 0.0
C1827 C 0.12122 0.59866 0.54653 0.0
C1828 C 0.15393 0.6007 0.57322 0.0
C1829 C 0.16667 0.61284 0.55814 0.0
C1830 C 0.15651 0.61865 0.53771 0.0
C1831 C 0.13395 0.61147 0.53185 0.0
H1832 H 0.71072 0.97829 0.72907 0.0
H1833 H 0.72667 0.01875 0.80061 0.0
H1834 H 0.74018 0.95803 0.7362 0.0
H1835 H 0.75656 0.99899 0.80755 0.0
H1836 H 0.79564 0.9409 0.81616 0.0
H1837 H 0.76554 0.96077 0.81153 0.0
H1838 H 0.77967 0.97001 0.7409 0.0
H1839 H 0.80956 0.94968 0.74545 0.0
C1840 C 0.72039 0.98264 0.7464 0.0
C1841 C 0.71653 1.00015 0.76425 0.0
C1842 C 0.73741 0.97126 0.75039 0.0
C1843 C 0.75095 0.9773 0.77227 0.0
C1844 C 0.74638 0.99394 0.79052 0.0
C1845 C 0.72926 1.00523 0.78656 0.0
C1846 C 0.79262 0.94772 0.79988 0.0
C1847 C 0.80493 0.9439 0.78117 0.0
C1848 C 0.77531 0.95896 0.79718 0.0
C1849 C 0.77007 0.96665 0.77575 0.0
C1850 C 0.78301 0.96375 0.75743 0.0
C1851 C 0.80023 0.95237 0.76008 0.0
H1852 H 0.80005 0.97321 0.56057 0.0
H1853 H 0.75623 0.90255 0.54567 0.0
H1854 H 0.76898 0.99202 0.55949 0.0
H1855 H 0.72507 0.92132 0.54509 0.0
H1856 H 0.67593 0.96331 0.51846 0.0
H1857 H 0.70626 0.94358 0.52144 0.0
H1858 H 0.73927 0.99932 0.58038 0.0
H1859 H 0.70933 0.01962 0.57675 0.0
C1860 C 0.78376 0.96168 0.55721 0.0
C1861 C 0.78064 0.93637 0.55314 0.0
C1862 C 0.7659 0.97247 0.55675 0.0
C1863 C 0.74441 0.95825 0.55223 0.0
C1864 C 0.74133 0.9329 0.54833 0.0
C1865 C 0.75922 0.92211 0.54878 0.0
C1866 C 0.68967 0.97144 0.53203 0.0
C1867 C 0.69014 0.99321 0.54725 0.0
C1868 C 0.70702 0.95994 0.53391 0.0
C1869 C 0.72537 0.96985 0.55108 0.0
C1870 C 0.7256 0.9913 0.5667 0.0
C1871 C 0.70824 1.0028 0.56483 0.0
H1872 H 0.36484 0.50148 0.75748 0.0
H1873 H 0.42469 0.48059 0.77564 0.0
H1874 H 0.34429 0.46071 0.75814 0.0
H1875 H 0.40418 0.43972 0.77737 0.0
H1876 H 0.36182 0.35992 0.76797 0.0
H1877 H 0.38412 0.40019 0.76567 0.0
H1878 H 0.32819 0.43065 0.77497 0.0
H1879 H 0.30642 0.39112 0.7762 0.0
C1880 C 0.37377 0.48826 0.76182 0.0
C1881 C 0.39676 0.4951 0.7665 0.0
C1882 C 0.36178 0.46438 0.76248 0.0
C1883 C 0.37195 0.44573 0.76821 0.0
C1884 C 0.39509 0.45266 0.77271 0.0
C1885 C 0.4071 0.47656 0.77181 0.0
C1886 C 0.35428 0.37521 0.76946 0.0
C1887 C 0.33187 0.3715 0.77216 0.0
C1888 C 0.36722 0.39875 0.76821 0.0
C1889 C 0.35848 0.41984 0.76974 0.0
C1890 C 0.33616 0.41576 0.77289 0.0
C1891 C 0.32339 0.39251 0.77388 0.0
H1892 H 0.22082 0.61615 0.20767 0.0
H1893 H 0.19379 0.62516 0.2737 0.0
H1894 H 0.24013 0.65856 0.21619 0.0
H1895 H 0.21437 0.66685 0.28334 0.0
H1896 H 0.24655 0.74628 0.2905 0.0
H1897 H 0.22176 0.70646 0.27846 0.0
H1898 H 0.27065 0.68164 0.23988 0.0
H1899 H 0.2943 0.72189 0.25041 0.0
C1900 C 0.21892 0.62734 0.22392 0.0
C1901 C 0.20593 0.61751 0.24004 0.0
C1902 C 0.23022 0.65155 0.22904 0.0
C1903 C 0.22935 0.66614 0.2508 0.0
C1904 C 0.21539 0.65643 0.26634 0.0
C1905 C 0.20358 0.63245 0.26085 0.0
C1906 C 0.25184 0.73211 0.27955 0.0
C1907 C 0.27218 0.73687 0.27134 0.0
C1908 C 0.23771 0.70929 0.27262 0.0
C1909 C 0.24399 0.6907 0.2579 0.0
C1910 C 0.26481 0.69555 0.25049 0.0
C1911 C 0.27857 0.7185 0.25682 0.0
H1912 H 0.53566 0.7382 0.49143 0.0
H1913 H 0.50247 0.68891 0.42812 0.0
H1914 H 0.54186 0.70405 0.5097 0.0
H1915 H 0.50877 0.65471 0.44628 0.0
H1916 H 0.50828 0.59648 0.49333 0.0
H1917 H 0.49952 0.63089 0.47722 0.0
H1918 H 0.5637 0.67408 0.50617 0.0
H1919 H 0.57235 0.63982 0.52233 0.0
C1920 C 0.52952 0.72006 0.48144 0.0
C1921 C 0.51853 0.71642 0.45825 0.0
C1922 C 0.53323 0.70041 0.49187 0.0
C1923 C 0.52594 0.67642 0.47953 0.0
C1924 C 0.51448 0.67279 0.45652 0.0
C1925 C 0.51092 0.69247 0.44602 0.0
C1926 C 0.52047 0.61338 0.49644 0.0
C1927 C 0.54104 0.61525 0.50923 0.0
C1928 C 0.51549 0.63312 0.48702 0.0
C1929 C 0.53087 0.65545 0.49026 0.0
C1930 C 0.55128 0.65739 0.50346 0.0
C1931 C 0.55631 0.63762 0.51269 0.0
H1932 H 0.67623 0.31499 0.65445 0.0
H1933 H 0.65199 0.34534 0.7169 0.0
H1934 H 0.70803 0.31009 0.67923 0.0
H1935 H 0.68403 0.34151 0.74158 0.0
H1936 H 0.72942 0.30813 0.78355 0.0
H1937 H 0.69909 0.31307 0.75723 0.0
H1938 H 0.74162 0.32711 0.70391 0.0
H1939 H 0.77198 0.32102 0.73036 0.0
C1940 C 0.67784 0.32096 0.67346 0.0
C1941 C 0.66142 0.33044 0.68365 0.0
C1942 C 0.6962 0.31823 0.68774 0.0
C1943 C 0.69875 0.32507 0.71266 0.0
C1944 C 0.68258 0.33533 0.72264 0.0
C1945 C 0.66418 0.33779 0.70841 0.0
C1946 C 0.73235 0.31217 0.76616 0.0
C1947 C 0.75324 0.31424 0.75915 0.0
C1948 C 0.71489 0.3153 0.75103 0.0
C1949 C 0.71767 0.32097 0.72834 0.0
C1950 C 0.7386 0.32264 0.72111 0.0
C1951 C 0.75613 0.31924 0.7363 0.0
H1952 H 0.0568 0.36312 0.94043 0.0
H1953 H 1.00237 0.34535 0.97949 0.0
H1954 H 0.063 0.40557 0.95858 0.0
H1955 H 1.00859 0.38806 0.99777 0.0
H1956 H 1.0117 0.47052 1.00159 0.0
H1957 H 1.00573 0.42737 0.98599 0.0
H1958 H 0.0751 0.4329 0.9971 0.0
H1959 H 0.08114 0.47604 1.01262 0.0
C1960 C 0.0462 0.36825 0.95301 0.0
C1961 C 0.02907 0.35078 0.95849 0.0
C1962 C 0.04984 0.39263 0.96354 0.0
C1963 C 0.03633 0.40033 0.97969 0.0
C1964 C 0.01922 0.38283 0.98527 0.0
C1965 C 0.01572 0.35832 0.97491 0.0
C1966 C 0.02572 0.46257 1.00078 0.0
C1967 C 0.04693 0.47694 1.00831 0.0
C1968 C 0.02225 0.43773 0.99197 0.0
C1969 C 0.03991 0.42658 0.99021 0.0
C1970 C 0.06111 0.44089 0.99794 0.0
C1971 C 0.06457 0.46567 1.00696 0.0
H1972 H 0.0644 0.84055 0.21199 0.0
H1973 H 0.02392 0.81982 0.1441 0.0
H1974 H 0.03187 0.83867 0.23199 0.0
H1975 H 0.9914 0.81735 0.164 0.0
H1976 H 0.9377 0.83638 0.20577 0.0
H1977 H 0.97061 0.84074 0.18634 0.0
H1978 H 1.00146 0.81013 0.24075 0.0
H1979 H 0.96868 0.80588 0.26016 0.0
C1980 C 0.04855 0.83556 0.20133 0.0
C1981 C 0.0468 0.83034 0.17644 0.0
C1982 C 0.02985 0.83433 0.2128 0.0
C1983 C 1.00887 0.82781 0.19969 0.0
C1984 C 1.0072 0.82278 0.17475 0.0
C1985 C 0.02589 0.82404 0.1633 0.0
C1986 C 0.95147 0.8305 0.21355 0.0
C1987 C 0.95044 0.82084 0.23463 0.0
C1988 C 0.97039 0.83297 0.20237 0.0
C1989 C 0.98883 0.82581 0.21191 0.0
C1990 C 0.98781 0.81628 0.23306 0.0
C1991 C 0.96893 0.81384 0.24423 0.0
H1992 H 0.49585 0.33172 0.15439 0.0
H1993 H 0.52497 0.28637 0.1065 0.0
H1994 H 0.5046 0.36415 0.13154 0.0
H1995 H 0.5329 0.31831 0.08295 0.0
H1996 H 0.56484 0.38865 0.06034 0.0
H1997 H 0.55597 0.35629 0.08328 0.0
H1998 H 0.49569 0.37699 0.09569 0.0
H1999 H 0.50508 0.40984 0.07346 0.0
C2000 C 0.50389 0.3286 0.13878 0.0
C2001 C 0.50976 0.30654 0.13226 0.0
C2002 C 0.50882 0.34715 0.12557 0.0
C2003 C 0.51952 0.34397 0.10532 0.0
C2004 C 0.52505 0.32167 0.09865 0.0
C2005 C 0.52035 0.30324 0.11204 0.0
C2006 C 0.54968 0.38619 0.06795 0.0
C2007 C 0.53568 0.40179 0.06517 0.0
C2008 C 0.54451 0.36756 0.08102 0.0
C2009 C 0.52505 0.36388 0.09139 0.0
C2010 C 0.511 0.37947 0.0884 0.0
C2011 C 0.51632 0.39828 0.07558 0.0
H2012 H 0.0383 0.34187 0.37961 0.0
H2013 H 0.06638 0.32543 0.31515 0.0
H2014 H 1.00503 0.34422 0.35627 0.0
H2015 H 0.03266 0.32777 0.29163 0.0
H2016 H 0.95425 0.3097 0.26754 0.0
H2017 H 0.99016 0.30616 0.28463 0.0
H2018 H 0.99896 0.37551 0.32989 0.0
H2019 H 0.96322 0.37888 0.3135 0.0
C2020 C 0.03726 0.33848 0.36043 0.0
C2021 C 0.05496 0.33369 0.34916 0.0
C2022 C 0.01829 0.33999 0.3471 0.0
C2023 C 0.01658 0.33665 0.32226 0.0
C2024 C 0.03376 0.33054 0.31081 0.0
C2025 C 0.05293 0.32918 0.32423 0.0
C2026 C 0.96406 0.32435 0.28085 0.0
C2027 C 0.95583 0.34444 0.28936 0.0
C2028 C 0.98458 0.32236 0.29048 0.0
C2029 C 0.99698 0.34038 0.3088 0.0
C2030 C 0.98947 0.36124 0.31598 0.0
C2031 C 0.96911 0.36327 0.30637 0.0
H2032 H 0.97848 0.68493 0.6349 0.0
H2033 H 0.04855 0.71042 0.64674 0.0
H2034 H 0.98218 0.64732 0.61138 0.0
H2035 H 0.05228 0.67329 0.62264 0.0
H2036 H 0.05598 0.60123 0.58671 0.0
H2037 H 0.04799 0.63006 0.61856 0.0
H2038 H 0.99237 0.63728 0.57275 0.0
H2039 H 0.99993 0.60796 0.54149 0.0
C2040 C 0.99467 0.68246 0.63246 0.0
C2041 C 0.01324 0.70066 0.64233 0.0
C2042 C 0.99678 0.66095 0.61903 0.0
C2043 C 0.01751 0.65734 0.61509 0.0
C2044 C 0.03609 0.6753 0.62565 0.0
C2045 C 0.03397 0.69671 0.63922 0.0
C2046 C 0.04178 0.60861 0.58375 0.0
C2047 C 0.0288 0.60285 0.56158 0.0
C2048 C 0.03728 0.62519 0.60188 0.0
C2049 C 0.0198 0.63629 0.59802 0.0
C2050 C 1.00589 0.629 0.5764 0.0
C2051 C 1.01032 0.61236 0.55838 0.0
H2052 H 0.64839 0.84958 0.82178 0.0
H2053 H 0.69696 0.87048 0.8838 0.0
H2054 H 0.67705 0.84912 0.79635 0.0
H2055 H 0.72558 0.86955 0.85842 0.0
H2056 H 0.72853 0.80412 0.77508 0.0
H2057 H 0.69939 0.81921 0.79192 0.0
H2058 H 0.74542 0.88496 0.82649 0.0
H2059 H 0.77488 0.86967 0.80979 0.0
C2060 C 0.66522 0.85439 0.82995 0.0
C2061 C 0.6705 0.85956 0.85475 0.0
C2062 C 0.68159 0.8542 0.81539 0.0
C2063 C 0.70349 0.85909 0.82541 0.0
C2064 C 0.70885 0.86595 0.85016 0.0
C2065 C 0.69246 0.86621 0.86473 0.0
C2066 C 0.73241 0.82204 0.78581 0.0
C2067 C 0.75405 0.83543 0.79162 0.0
C2068 C 0.71564 0.83081 0.79529 0.0
C2069 C 0.72021 0.85312 0.8108 0.0
C2070 C 0.74155 0.86754 0.81484 0.0
C2071 C 0.75837 0.85881 0.8052 0.0
H2072 H 0.49749 0.59552 0.71687 0.0
H2073 H 0.44449 0.53792 0.68057 0.0
H2074 H 0.51594 0.59363 0.68123 0.0
H2075 H 0.46291 0.53583 0.64479 0.0
H2076 H 0.50824 0.5251 0.58439 0.0
H2077 H 0.48921 0.52602 0.61993 0.0
H2078 H 0.52178 0.6009 0.64315 0.0
H2079 H 0.54043 0.59989 0.60787 0.0
C2080 C 0.48953 0.58233 0.70136 0.0
C2081 C 0.46898 0.56697 0.70258 0.0
C2082 C 0.50029 0.58126 0.68034 0.0
C2083 C 0.49151 0.56454 0.65887 0.0
C2084 C 0.47099 0.54901 0.66023 0.0
C2085 C 0.4601 0.5503 0.68119 0.0
C2086 C 0.51145 0.54187 0.59696 0.0
C2087 C 0.52643 0.56239 0.59231 0.0
C2088 C 0.50025 0.5425 0.61778 0.0
C2089 C 0.50344 0.56357 0.6357 0.0
C2090 C 0.51847 0.58395 0.63086 0.0
C2091 C 0.52937 0.58341 0.61002 0.0
H2092 H 0.75402 0.14378 0.98322 0.0
H2093 H 0.82187 0.18162 0.99639 0.0
H2094 H 0.74684 0.17005 0.95531 0.0
H2095 H 0.81489 0.2073 0.96788 0.0
H2096 H 0.7938 0.26822 0.9427 0.0
H2097 H 0.7962 0.23978 0.9692 0.0
H2098 H 0.75334 0.18275 0.91761 0.0
H2099 H 0.74959 0.21178 0.89146 0.0
C2100 C 0.76752 0.15729 0.97965 0.0
C2101 C 0.78847 0.1609 0.99212 0.0
C2102 C 0.76337 0.17235 0.9637 0.0
C2103 C 0.78018 0.19112 0.95989 0.0
C2104 C 0.80145 0.19347 0.97106 0.0
C2105 C 0.80554 0.17859 0.98714 0.0
C2106 C 0.78417 0.24989 0.93722 0.0
C2107 C 0.77171 0.24227 0.91471 0.0
C2108 C 0.78597 0.23342 0.95227 0.0
C2109 C 0.77562 0.20887 0.9451 0.0
C2110 C 0.76174 0.20152 0.92348 0.0
C2111 C 0.75971 0.21813 0.90846 0.0
H2112 H 0.11344 0.51017 0.20149 0.0
H2113 H 0.16378 0.52429 0.15624 0.0
H2114 H 0.08584 0.50984 0.1685 0.0
H2115 H 0.13624 0.52401 0.12355 0.0
H2116 H 0.0901 0.57066 0.09799 0.0
H2117 H 0.1143 0.55926 0.12746 0.0
H2118 H 0.06929 0.49006 0.12155 0.0
H2119 H 0.04506 0.50129 0.09117 0.0
C2120 C 0.11852 0.51242 0.18433 0.0
C2121 C 0.14075 0.51776 0.18149 0.0
C2122 C 0.10274 0.51215 0.16551 0.0
C2123 C 0.1091 0.51728 0.14377 0.0
C2124 C 0.13107 0.52025 0.14031 0.0
C2125 C 0.14679 0.52041 0.159 0.0
C2126 C 0.08537 0.55298 0.10291 0.0
C2127 C 0.06601 0.53665 0.09208 0.0
C2128 C 0.09923 0.54644 0.11965 0.0
C2129 C 0.09378 0.52361 0.12624 0.0
C2130 C 0.07385 0.50764 0.11642 0.0
C2131 C 0.06003 0.5141 0.09925 0.0
H2132 H 0.80968 0.83625 0.48503 0.0
H2133 H 0.8463 0.90389 0.47086 0.0
H2134 H 0.80591 0.81876 0.44271 0.0
H2135 H 0.84288 0.88634 0.42885 0.0
H2136 H 0.85163 0.83816 0.36007 0.0
H2137 H 0.85579 0.85339 0.40275 0.0
H2138 H 0.78701 0.82554 0.40321 0.0
H2139 H 0.78272 0.8106 0.36044 0.0
C2140 C 0.81702 0.84734 0.47293 0.0
C2141 C 0.82827 0.87149 0.48137 0.0
C2142 C 0.81478 0.83735 0.44868 0.0
C2143 C 0.82414 0.85112 0.43235 0.0
C2144 C 0.83564 0.87515 0.44091 0.0
C2145 C 0.8375 0.88525 0.46501 0.0
C2146 C 0.83739 0.83511 0.36925 0.0
C2147 C 0.81682 0.82315 0.35669 0.0
C2148 C 0.83977 0.84397 0.39373 0.0
C2149 C 0.82173 0.84074 0.40645 0.0
C2150 C 0.80127 0.82822 0.39403 0.0
C2151 C 0.79881 0.81975 0.36945 0.0
H2152 H 0.443 0.54364 0.84955 0.0
H2153 H 0.50024 0.59401 0.83831 0.0
H2154 H 0.46141 0.53991 0.88787 0.0
H2155 H 0.51862 0.59078 0.87704 0.0
H2156 H 0.53989 0.59561 0.95974 0.0
H2157 H 0.52215 0.5996 0.92104 0.0
H2158 H 0.48906 0.52441 0.90941 0.0
H2159 H 0.50716 0.52035 0.94777 0.0
C2160 C 0.45953 0.55412 0.85513 0.0
C2161 C 0.46971 0.56921 0.84 0.0
C2162 C 0.47035 0.55185 0.87746 0.0
C2163 C 0.49198 0.56494 0.88654 0.0
C2164 C 0.50208 0.58031 0.87151 0.0
C2165 C 0.4914 0.58216 0.84887 0.0
C2166 C 0.5289 0.57977 0.94905 0.0
C2167 C 0.52538 0.55756 0.95775 0.0
C2168 C 0.5186 0.58206 0.92639 0.0
C2169 C 0.50367 0.56244 0.91113 0.0
C2170 C 0.50004 0.5403 0.92001 0.0
C2171 C 0.51071 0.53788 0.94238 0.0
H2172 H 0.81168 0.21807 0.08828 0.0
H2173 H 0.81482 0.16944 0.13828 0.0
H2174 H 0.81037 0.25031 0.12063 0.0
H2175 H 0.81442 0.2018 0.1707 0.0
H2176 H 0.78551 0.25045 0.21864 0.0
H2177 H 0.78692 0.22138 0.18379 0.0
H2178 H 0.82909 0.27749 0.15626 0.0
H2179 H 0.82682 0.30688 0.19086 0.0
C2180 C 0.81272 0.2145 0.10628 0.0
C2181 C 0.81316 0.19125 0.11083 0.0
C2182 C 0.81191 0.23294 0.12479 0.0
C2183 C 0.81174 0.22844 0.14814 0.0
C2184 C 0.81378 0.20562 0.15279 0.0
C2185 C 0.81431 0.18716 0.13429 0.0
C2186 C 0.7946 0.25667 0.20483 0.0
C2187 C 0.80609 0.28081 0.2074 0.0
C2188 C 0.79572 0.23997 0.18505 0.0
C2189 C 0.80865 0.24698 0.1676 0.0
C2190 C 0.81905 0.27151 0.16943 0.0
C2191 C 0.81769 0.28835 0.18918 0.0
H2192 H 0.13748 0.53449 0.29894 0.0
H2193 H 0.19978 0.58491 0.32162 0.0
H2194 H 0.12309 0.55276 0.33313 0.0
H2195 H 0.1852 0.60352 0.35572 0.0
H2196 H 0.15207 0.61012 0.426 0.0
H2197 H 0.17053 0.59556 0.39325 0.0
H2198 H 0.11378 0.59222 0.34374 0.0
H2199 H 0.09504 0.60561 0.37629 0.0
C2200 C 0.14818 0.54925 0.31142 0.0
C2201 C 0.16968 0.55836 0.30761 0.0
C2202 C 0.13988 0.55992 0.33081 0.0
C2203 C 0.15291 0.57992 0.34671 0.0
C2204 C 0.1748 0.58818 0.34367 0.0
C2205 C 0.18313 0.57747 0.32422 0.0
C2206 C 0.14369 0.60659 0.40806 0.0
C2207 C 0.12199 0.60865 0.40378 0.0
C2208 C 0.15428 0.59837 0.38935 0.0
C2209 C 0.14332 0.59217 0.3661 0.0
C2210 C 0.12237 0.59627 0.36161 0.0
C2211 C 0.11178 0.60438 0.38026 0.0
H2212 H 0.84176 0.90513 0.64029 0.0
H2213 H 0.81665 0.8352 0.59595 0.0
H2214 H 0.83479 0.88709 0.67565 0.0
H2215 H 0.80974 0.81718 0.63118 0.0
H2216 H 0.7751 0.79862 0.69417 0.0
H2217 H 0.78434 0.81806 0.66054 0.0
H2218 H 0.84554 0.85827 0.70097 0.0
H2219 H 0.83627 0.83814 0.73475 0.0
C2220 C 0.83491 0.88586 0.63808 0.0
C2221 C 0.8297 0.87166 0.61518 0.0
C2222 C 0.831 0.8755 0.6584 0.0
C2223 C 0.82151 0.85066 0.6564 0.0
C2224 C 0.81674 0.83642 0.63349 0.0
C2225 C 0.82083 0.84673 0.61323 0.0
C2226 C 0.7905 0.81174 0.69604 0.0
C2227 C 0.80477 0.81714 0.71743 0.0
C2228 C 0.79588 0.82279 0.6766 0.0
C2229 C 0.81578 0.83968 0.67781 0.0
C2230 C 0.82997 0.84552 0.6994 0.0
C2231 C 0.82461 0.83418 0.7189 0.0
H2232 H 0.74325 0.45365 0.51989 0.0
H2233 H 0.79444 0.51531 0.55341 0.0
H2234 H 0.71605 0.47482 0.53331 0.0
H2235 H 0.76728 0.5362 0.56791 0.0
H2236 H 0.7115 0.57625 0.55956 0.0
H2237 H 0.74087 0.55551 0.55293 0.0
H2238 H 0.69997 0.48939 0.56593 0.0
H2239 H 0.67041 0.51004 0.57123 0.0
C2240 C 0.74866 0.4716 0.5305 0.0
C2241 C 0.77089 0.48292 0.53549 0.0
C2242 C 0.73309 0.4837 0.53838 0.0
C2243 C 0.73944 0.50726 0.55175 0.0
C2244 C 0.76179 0.51825 0.55734 0.0
C2245 C 0.77735 0.50625 0.54915 0.0
C2246 C 0.70909 0.5574 0.56137 0.0
C2247 C 0.68887 0.54459 0.56574 0.0
C2248 C 0.72586 0.5455 0.55767 0.0
C2249 C 0.72271 0.52065 0.55861 0.0
C2250 C 0.70278 0.50834 0.56447 0.0
C2251 C 0.68595 0.52014 0.56775 0.0
H2252 H 0.22897 0.12893 0.52688 0.0
H2253 H 0.20215 0.17197 0.48172 0.0
H2254 H 0.19226 0.10539 0.52846 0.0
H2255 H 0.16529 0.14775 0.48274 0.0
H2256 H 0.1096 0.073 0.4709 0.0
H2257 H 0.14508 0.09958 0.4688 0.0
H2258 H 0.15661 0.11679 0.54525 0.0
H2259 H 0.12094 0.09091 0.54737 0.0
C2260 C 0.21524 0.13326 0.51714 0.0
C2261 C 0.21849 0.15232 0.50415 0.0
C2262 C 0.19421 0.11984 0.51816 0.0
C2263 C 0.17591 0.12475 0.50576 0.0
C2264 C 0.17912 0.14354 0.49242 0.0
C2265 C 0.20018 0.15741 0.49188 0.0
C2266 C 0.11963 0.08268 0.48723 0.0
C2267 C 0.11253 0.07979 0.50929 0.0
C2268 C 0.13988 0.09793 0.48602 0.0
C2269 C 0.15365 0.11015 0.50686 0.0
C2270 C 0.14639 0.1075 0.5289 0.0
C2271 C 0.12595 0.09273 0.5301 0.0
H2272 H 0.18689 0.9386 0.76547 0.0
H2273 H 0.24524 0.98646 0.80403 0.0
H2274 H 0.20504 0.9048 0.7631 0.0
H2275 H 0.26348 0.95281 0.80201 0.0
H2276 H 0.30012 0.89065 0.78736 0.0
H2277 H 0.28178 0.9241 0.78935 0.0
H2278 H 0.21966 0.87309 0.77158 0.0
H2279 H 0.23827 0.83964 0.76939 0.0
C2280 C 0.20365 0.94223 0.77361 0.0
C2281 C 0.21404 0.9663 0.78499 0.0
C2282 C 0.21437 0.92229 0.77233 0.0
C2283 C 0.23649 0.9247 0.78225 0.0
C2284 C 0.24681 0.94892 0.79363 0.0
C2285 C 0.23605 0.9688 0.79497 0.0
C2286 C 0.2825 0.88622 0.78377 0.0
C2287 C 0.27129 0.86137 0.77805 0.0
C2288 C 0.27161 0.90597 0.78508 0.0
C2289 C 0.24847 0.90269 0.78075 0.0
C2290 C 0.23726 0.87771 0.77497 0.0
C2291 C 0.24819 0.85792 0.77374 0.0
H2292 H 0.38105 1.01082 0.02473 0.0
H2293 H 0.37053 0.97672 0.95092 0.0
H2294 H 0.42027 0.01781 0.0243 0.0
H2295 H 0.41 0.9837 0.9506 0.0
H2296 H 0.48408 0.02783 0.96077 0.0
H2297 H 0.44428 0.01802 0.95589 0.0
H2298 H 0.44518 0.98878 0.02082 0.0
H2299 H 0.4848 0.99859 0.02588 0.0
C2300 C 0.38712 1.00515 1.00832 0.0
C2301 C 0.37278 0.99309 0.98791 0.0
C2302 C 0.40955 1.00891 1.00815 0.0
C2303 C 0.41806 1.00078 0.98756 0.0
C2304 C 0.40379 0.99 0.96672 0.0
C2305 C 0.38126 0.9861 0.96691 0.0
C2306 C 0.47579 0.01878 0.97371 0.0
C2307 C 0.48758 1.01436 0.99394 0.0
C2308 C 0.45302 1.01322 0.9709 0.0
C2309 C 0.44179 1.00324 0.9883 0.0
C2310 C 0.45354 0.99704 1.00747 0.0
C2311 C 0.47622 1.00249 1.01024 0.0
H2312 H 0.90008 0.63523 0.8419 0.0
H2313 H 0.87778 0.5811 0.77859 0.0
H2314 H 0.86673 0.64958 0.83601 0.0
H2315 H 0.84409 0.59462 0.77325 0.0
H2316 H 0.802 0.64823 0.75656 0.0
H2317 H 0.83137 0.62772 0.76222 0.0
H2318 H 0.82838 0.63868 0.83784 0.0
H2319 H 0.79933 0.66001 0.83208 0.0
C2320 C 0.88803 0.62644 0.82674 0.0
C2321 C 0.89155 0.60725 0.8106 0.0
C2322 C 0.8688 0.63438 0.82353 0.0
C2323 C 0.85262 0.62305 0.80429 0.0
C2324 C 0.85628 0.6039 0.78811 0.0
C2325 C 0.87561 0.59618 0.79116 0.0
C2326 C 0.8071 0.64549 0.77428 0.0
C2327 C 0.79851 0.65571 0.79391 0.0
C2328 C 0.82402 0.63383 0.77757 0.0
C2329 C 0.83251 0.63198 0.80055 0.0
C2330 C 0.82259 0.64041 0.81998 0.0
C2331 C 0.8058 0.65231 0.8167 0.0
H2332 H 0.81568 0.62712 1.00479 0.0
H2333 H 0.85851 0.69835 0.01924 0.0
H2334 H 0.84719 0.60907 1.00746 0.0
H2335 H 0.89008 0.68036 0.02238 0.0
H2336 H 0.94225 0.63871 1.00254 0.0
H2337 H 0.91095 0.65708 0.99929 0.0
H2338 H 0.87552 0.60407 0.0359 0.0
H2339 H 0.90641 0.5852 0.03832 0.0
C2340 C 0.83184 0.63894 1.00861 0.0
C2341 C 0.83455 0.66418 1.0118 0.0
C2342 C 0.84994 0.62859 1.01029 0.0
C2343 C 0.87129 0.64321 0.01523 0.0
C2344 C 0.87396 0.66849 0.01829 0.0
C2345 C 0.85583 0.67883 0.01662 0.0
C2346 C 0.92774 0.63087 1.00977 0.0
C2347 C 0.92697 0.61043 0.02072 0.0
C2348 C 0.90983 0.64158 1.00812 0.0
C2349 C 0.89059 0.63209 0.01729 0.0
C2350 C 0.8899 0.61175 0.02836 0.0
C2351 C 0.9078 0.60109 0.03005 0.0
H2352 H 0.19258 0.12207 0.79756 0.0
H2353 H 0.24867 0.09408 0.7833 0.0
H2354 H 0.21325 0.16312 0.79643 0.0
H2355 H 0.26919 0.13465 0.78148 0.0
H2356 H 0.31053 0.21143 0.79659 0.0
H2357 H 0.28861 0.17199 0.79844 0.0
H2358 H 0.23033 0.19594 0.77918 0.0
H2359 H 0.25289 0.23642 0.77793 0.0
C2360 C 0.20936 0.1245 0.79416 0.0
C2361 C 0.21866 0.10405 0.79076 0.0
C2362 C 0.22139 0.14842 0.79333 0.0
C2363 C 0.24351 0.15338 0.78904 0.0
C2364 C 0.25262 0.13271 0.78543 0.0
C2365 C 0.24062 0.10889 0.78631 0.0
C2366 C 0.29301 0.20862 0.79274 0.0
C2367 C 0.28396 0.22793 0.78708 0.0
C2368 C 0.28014 0.18536 0.79357 0.0
C2369 C 0.25711 0.17947 0.78861 0.0
C2370 C 0.24782 0.19895 0.78328 0.0
C2371 C 0.26089 0.22256 0.7825 0.0
H2372 H 0.39188 1.00474 0.2724 0.0
H2373 H 0.42491 0.99236 0.33712 0.0
H2374 H 0.36783 0.96459 0.26726 0.0
H2375 H 0.40111 0.95201 0.33175 0.0
H2376 H 0.34045 0.89263 0.32836 0.0
H2377 H 0.36259 0.93356 0.33284 0.0
H2378 H 0.36953 0.92198 0.25819 0.0
H2379 H 0.34703 0.88109 0.2535 0.0
C2380 C 0.39407 0.99335 0.2855 0.0
C2381 C 0.41024 1.00162 0.30522 0.0
C2382 C 0.38034 0.97037 0.28244 0.0
C2383 C 0.38255 0.95523 0.29912 0.0
C2384 C 0.39882 0.96346 0.31878 0.0
C2385 C 0.41257 0.98647 0.32184 0.0
C2386 C 0.34651 0.89884 0.31281 0.0
C2387 C 0.34207 0.88353 0.29057 0.0
C2388 C 0.35934 0.92224 0.31547 0.0
C2389 C 0.36798 0.93085 0.29595 0.0
C2390 C 0.36297 0.91586 0.27355 0.0
C2391 C 0.35013 0.89241 0.27086 0.0
H2392 H 0.57547 0.36462 0.57513 0.0
H2393 H 0.61876 0.41521 0.63165 0.0
H2394 H 0.56845 0.39817 0.55642 0.0
H2395 H 0.61165 0.44886 0.61304 0.0
H2396 H 0.60804 0.50354 0.56243 0.0
H2397 H 0.61701 0.46956 0.57915 0.0
H2398 H 0.54963 0.43072 0.56244 0.0
H2399 H 0.54075 0.46456 0.54564 0.0
C2400 C 0.58363 0.38291 0.58352 0.0
C2401 C 0.59771 0.38709 0.60495 0.0
C2402 C 0.57946 0.40224 0.57285 0.0
C2403 C 0.58935 0.42645 0.58317 0.0
C2404 C 0.60385 0.43058 0.60435 0.0
C2405 C 0.60789 0.41122 0.61512 0.0
C2406 C 0.59515 0.48769 0.56219 0.0
C2407 C 0.57364 0.48689 0.55259 0.0
C2408 C 0.60027 0.4682 0.57196 0.0
C2409 C 0.58409 0.44719 0.57226 0.0
C2410 C 0.56265 0.44634 0.56234 0.0
C2411 C 0.5575 0.46588 0.55276 0.0
H2412 H 0.44122 0.78845 0.41519 0.0
H2413 H 0.46448 0.76096 0.35086 0.0
H2414 H 0.40803 0.79221 0.3918 0.0
H2415 H 0.43163 0.76486 0.32756 0.0
H2416 H 0.36233 0.75289 0.29278 0.0
H2417 H 0.39304 0.74762 0.31866 0.0
H2418 H 0.39509 0.81581 0.36321 0.0
H2419 H 0.36397 0.82095 0.33716 0.0
C2420 C 0.4392 0.78303 0.39609 0.0
C2421 C 0.45554 0.77425 0.38497 0.0
C2422 C 0.42023 0.78538 0.38263 0.0
C2423 C 0.41697 0.77881 0.35769 0.0
C2424 C 0.43327 0.76979 0.3467 0.0
C2425 C 0.45224 0.76762 0.36009 0.0
C2426 C 0.3692 0.76673 0.30818 0.0
C2427 C 0.36071 0.78742 0.31276 0.0
C2428 C 0.38697 0.76377 0.323 0.0
C2429 C 0.39689 0.7814 0.34298 0.0
C2430 C 0.38789 0.80176 0.34809 0.0
C2431 C 0.37006 0.80477 0.33313 0.0
H2432 H 0.06539 0.74573 0.13006 0.0
H2433 H 0.11372 0.76313 0.08339 0.0
H2434 H 0.05887 0.70293 0.11275 0.0
H2435 H 0.10732 0.72013 0.06614 0.0
H2436 H 0.10694 0.63821 0.06386 0.0
H2437 H 0.11304 0.68148 0.07912 0.0
H2438 H 0.04355 0.6749 0.07412 0.0
H2439 H 0.03738 0.63166 0.05873 0.0
C2440 C 0.0746 0.74042 0.11605 0.0
C2441 C 0.09007 0.75789 0.10811 0.0
C2442 C 0.07078 0.71587 0.10604 0.0
C2443 C 0.08255 0.70803 0.08803 0.0
C2444 C 0.09807 0.72551 0.08009 0.0
C2445 C 0.10166 0.75016 0.08988 0.0
C2446 C 0.09293 0.64595 0.06595 0.0
C2447 C 0.07165 0.63131 0.0601 0.0
C2448 C 0.09645 0.67083 0.07457 0.0
C2449 C 0.0788 0.68171 0.0779 0.0
C2450 C 0.05753 0.6671 0.07197 0.0
C2451 C 0.05399 0.64229 0.06303 0.0
H2452 H 0.05585 0.26256 0.853 0.0
H2453 H 0.09549 0.28883 0.92105 0.0
H2454 H 0.0888 0.26445 0.83366 0.0
H2455 H 0.12833 0.29015 0.90192 0.0
H2456 H 0.18132 0.31852 0.85778 0.0
H2457 H 0.14864 0.31367 0.87727 0.0
H2458 H 0.12007 0.2473 0.82811 0.0
H2459 H 0.1526 0.25274 0.80789 0.0
C2460 C 0.0716 0.2685 0.86385 0.0
C2461 C 0.07303 0.27568 0.88855 0.0
C2462 C 0.09052 0.26945 0.85279 0.0
C2463 C 0.11134 0.2776 0.86616 0.0
C2464 C 0.11266 0.28421 0.89095 0.0
C2465 C 0.09379 0.28332 0.90196 0.0
C2466 C 0.16806 0.30292 0.851 0.0
C2467 C 0.16962 0.28613 0.8311 0.0
C2468 C 0.14935 0.29997 0.86241 0.0
C2469 C 0.13159 0.28008 0.85433 0.0
C2470 C 0.13328 0.263 0.83468 0.0
C2471 C 0.15207 0.26596 0.82326 0.0
H2472 H 0.63198 0.77229 0.91065 0.0
H2473 H 0.62042 0.81978 0.97141 0.0
H2474 H 0.62808 0.73921 0.93317 0.0
H2475 H 0.61604 0.7866 0.99378 0.0
H2476 H 0.62286 0.72545 0.03335 0.0
H2477 H 0.63374 0.75887 1.01203 0.0
H2478 H 0.59753 0.71452 0.94722 0.0
H2479 H 0.58669 0.68127 0.96844 0.0
C2480 C 0.62883 0.77572 0.9289 0.0
C2481 C 0.62637 0.79858 0.93922 0.0
C2482 C 0.62645 0.75673 0.94175 0.0
C2483 C 0.62153 0.76018 0.9652 0.0
C2484 C 0.62002 0.78336 0.97584 0.0
C2485 C 0.62243 0.80236 0.96298 0.0
C2486 C 0.61728 0.72285 0.01453 0.0
C2487 C 0.60387 0.7007 1.00261 0.0
C2488 C 0.62352 0.74198 1.00233 0.0
C2489 C 0.6165 0.73938 0.97793 0.0
C2490 C 0.60355 0.71703 0.96592 0.0
C2491 C 0.59732 0.69793 0.9781 0.0
H2492 H 0.04376 0.74742 0.75336 0.0
H2493 H 0.07755 0.8075 0.72389 0.0
H2494 H 0.07762 0.7477 0.77781 0.0
H2495 H 0.11121 0.8077 0.74806 0.0
H2496 H 0.17031 0.80622 0.79256 0.0
H2497 H 0.13303 0.81163 0.78745 0.0
H2498 H 0.1094 0.73496 0.76176 0.0
H2499 H 0.14638 0.72959 0.76638 0.0
C2500 C 0.05827 0.76108 0.7526 0.0
C2501 C 0.05823 0.77713 0.73643 0.0
C2502 C 0.0776 0.76123 0.76656 0.0
C2503 C 0.09705 0.77756 0.76465 0.0
C2504 C 0.09645 0.79503 0.75009 0.0
C2505 C 0.07722 0.79476 0.73604 0.0
C2506 C 0.15708 0.79048 0.78622 0.0
C2507 C 0.16133 0.76756 0.77937 0.0
C2508 C 0.13578 0.79357 0.78347 0.0
C2509 C 0.11838 0.77377 0.77398 0.0
C2510 C 0.12244 0.75053 0.76935 0.0
C2511 C 0.14371 0.74746 0.77196 0.0
H2512 H 0.13561 0.43493 0.4081 0.0
H2513 H 0.08118 0.39771 0.43864 0.0
H2514 H 0.12745 0.47386 0.42355 0.0
H2515 H 0.07285 0.43625 0.45343 0.0
H2516 H 0.05154 0.50505 0.46123 0.0
H2517 H 0.06099 0.47216 0.435 0.0
H2518 H 0.12766 0.49489 0.46874 0.0
H2519 H 0.11815 0.52742 0.49521 0.0
C2520 C 0.12193 0.4351 0.41803 0.0
C2521 C 0.10915 0.41342 0.42242 0.0
C2522 C 0.11721 0.45725 0.42668 0.0
C2523 C 0.09933 0.45787 0.43925 0.0
C2524 C 0.08647 0.43616 0.44336 0.0
C2525 C 0.09143 0.41417 0.4352 0.0
C2526 C 0.06834 0.50349 0.46244 0.0
C2527 C 0.0841 0.51836 0.48037 0.0
C2528 C 0.07371 0.48469 0.44754 0.0
C2529 C 0.09497 0.48096 0.45016 0.0
C2530 C 0.1112 0.49749 0.46639 0.0
C2531 C 0.10575 0.51598 0.48154 0.0
H2532 H 0.46478 0.24702 0.24572 0.0
H2533 H 0.42103 0.23755 0.18085 0.0
H2534 H 0.43398 0.2444 0.26843 0.0
H2535 H 0.39029 0.23544 0.20358 0.0
H2536 H 0.33655 0.22923 0.24607 0.0
H2537 H 0.36685 0.21496 0.23019 0.0
H2538 H 0.41241 0.27434 0.2765 0.0
H2539 H 0.38242 0.28835 0.29248 0.0
C2540 C 0.44855 0.24414 0.23631 0.0
C2541 C 0.44528 0.24299 0.2116 0.0
C2542 C 0.43094 0.24254 0.24929 0.0
C2543 C 0.40976 0.23985 0.23782 0.0
C2544 C 0.40638 0.2372 0.21292 0.0
C2545 C 0.424 0.23873 0.19992 0.0
C2546 C 0.35307 0.23877 0.25337 0.0
C2547 C 0.35715 0.26036 0.26997 0.0
C2548 C 0.37038 0.23064 0.2442 0.0
C2549 C 0.39194 0.24386 0.2517 0.0
C2550 C 0.39599 0.26375 0.27031 0.0
C2551 C 0.37876 0.27192 0.27935 0.0
H2552 H 0.67109 0.5638 0.37736 0.0
H2553 H 0.61877 0.50508 0.34167 0.0
H2554 H 0.65269 0.56595 0.41314 0.0
H2555 H 0.60032 0.50706 0.3773 0.0
H2556 H 0.57578 0.50136 0.45061 0.0
H2557 H 0.59444 0.50029 0.41537 0.0
H2558 H 0.6264 0.57542 0.43806 0.0
H2559 H 0.6074 0.57637 0.47364 0.0
C2560 C 0.65564 0.55117 0.37688 0.0
C2561 C 0.64695 0.53415 0.35567 0.0
C2562 C 0.64476 0.5525 0.39784 0.0
C2563 C 0.62442 0.53671 0.39938 0.0
C2564 C 0.61583 0.51965 0.37807 0.0
C2565 C 0.62659 0.51851 0.35705 0.0
C2566 C 0.5867 0.5179 0.44835 0.0
C2567 C 0.58948 0.53898 0.46594 0.0
C2568 C 0.59761 0.51731 0.42752 0.0
C2569 C 0.61249 0.53774 0.42255 0.0
C2570 C 0.6155 0.5589 0.44032 0.0
C2571 C 0.60431 0.55955 0.46116 0.0
H2572 H 0.29522 0.94709 0.07489 0.0
H2573 H 0.34374 0.91596 0.04182 0.0
H2574 H 0.29961 0.92542 0.108 0.0
H2575 H 0.34806 0.89451 0.07472 0.0
H2576 H 0.32472 0.83543 0.11838 0.0
H2577 H 0.3225 0.86017 0.08782 0.0
H2578 H 0.32871 0.92313 0.14172 0.0
H2579 H 0.33151 0.89847 0.17256 0.0
C2580 C 0.30692 0.93581 0.07481 0.0
C2581 C 0.31901 0.93303 0.05576 0.0
C2582 C 0.30949 0.92354 0.09375 0.0
C2583 C 0.32404 0.9082 0.09371 0.0
C2584 C 0.33654 0.906 0.07497 0.0
C2585 C 0.3341 0.91835 0.05622 0.0
C2586 C 0.32599 0.85461 0.12378 0.0
C2587 C 0.32845 0.86503 0.14789 0.0
C2588 C 0.32462 0.86873 0.10628 0.0
C2589 C 0.32553 0.89352 0.11249 0.0
C2590 C 0.32782 0.90399 0.13654 0.0
C2591 C 0.32937 0.88988 0.15412 0.0
H2592 H 0.95685 0.58721 0.91044 0.0
H2593 H 1.01051 0.6097 0.87146 0.0
H2594 H 0.98255 0.58546 0.94409 0.0
H2595 H 0.03624 0.60777 0.90523 0.0
H2596 H 0.02856 0.53951 0.97003 0.0
H2597 H 1.00496 0.55278 0.9414 0.0
H2598 H 0.05086 0.6219 0.95079 0.0
H2599 H 0.07447 0.60866 0.98013 0.0
C2600 C 0.97415 0.59247 0.90933 0.0
C2601 C 0.98171 0.59808 0.88821 0.0
C2602 C 0.98882 0.59139 0.92854 0.0
C2603 C 1.01126 0.59594 0.92692 0.0
C2604 C 0.01898 0.60412 0.90681 0.0
C2605 C 1.00426 0.60519 0.88752 0.0
C2606 C 0.03356 0.55757 0.96607 0.0
C2607 C 0.05305 0.57324 0.97747 0.0
C2608 C 0.02003 0.56522 0.94984 0.0
C2609 C 0.02591 0.58855 0.9444 0.0
C2610 C 0.04592 0.60393 0.95497 0.0
C2611 C 0.0594 0.59633 0.97155 0.0
H2612 H 0.26585 0.20003 0.58872 0.0
H2613 H 0.3088 0.26375 0.57415 0.0
H2614 H 0.26964 0.21861 0.63041 0.0
H2615 H 0.31283 0.28236 0.6162 0.0
H2616 H 0.33397 0.29026 0.6988 0.0
H2617 H 0.32936 0.27519 0.65604 0.0
H2618 H 0.25985 0.25314 0.65602 0.0
H2619 H 0.26436 0.26832 0.69865 0.0
C2620 C 0.27605 0.21809 0.5944 0.0
C2621 C 0.287 0.23039 0.57803 0.0
C2622 C 0.27815 0.2288 0.61833 0.0
C2623 C 0.29152 0.25202 0.62673 0.0
C2624 C 0.30249 0.2644 0.61037 0.0
C2625 C 0.30009 0.2538 0.58626 0.0
C2626 C 0.31767 0.28238 0.68967 0.0
C2627 C 0.29955 0.2805 0.70232 0.0
C2628 C 0.31503 0.27385 0.6651 0.0
C2629 C 0.29424 0.26284 0.65255 0.0
C2630 C 0.27612 0.26131 0.66513 0.0
C2631 C 0.27871 0.27016 0.6896 0.0
H2632 H 0.61884 0.54913 0.23256 0.0
H2633 H 0.66477 0.51662 0.19679 0.0
H2634 H 0.60033 0.55261 0.19412 0.0
H2635 H 0.64613 0.5197 0.15829 0.0
H2636 H 0.59699 0.51007 0.08882 0.0
H2637 H 0.61522 0.50629 0.12724 0.0
H2638 H 0.59995 0.5722 0.1596 0.0
H2639 H 0.58203 0.57611 0.1211 0.0
C2640 C 0.62508 0.54253 0.21657 0.0
C2641 C 0.64364 0.53245 0.21858 0.0
C2642 C 0.61437 0.54469 0.19412 0.0
C2643 C 0.62126 0.53651 0.17211 0.0
C2644 C 0.6397 0.52616 0.17418 0.0
C2645 C 0.65064 0.52442 0.19665 0.0
C2646 C 0.5974 0.52389 0.10401 0.0
C2647 C 0.58762 0.54348 0.10099 0.0
C2648 C 0.60817 0.52177 0.12645 0.0
C2649 C 0.60953 0.53885 0.14752 0.0
C2650 C 0.59948 0.55828 0.1445 0.0
C2651 C 0.58907 0.56063 0.12198 0.0
H2652 H 0.28833 0.92553 0.91224 0.0
H2653 H 0.29481 0.87819 0.96288 0.0
H2654 H 0.29032 0.89353 0.88014 0.0
H2655 H 0.29737 0.84628 0.93073 0.0
H2656 H 0.28282 0.79016 0.85894 0.0
H2657 H 0.27855 0.81838 0.8937 0.0
H2658 H 0.3211 0.87663 0.86947 0.0
H2659 H 0.32479 0.84879 0.83472 0.0
C2660 C 0.28986 0.90816 0.91645 0.0
C2661 C 0.29166 0.90441 0.94002 0.0
C2662 C 0.29123 0.88993 0.89813 0.0
C2663 C 0.2946 0.86766 0.90306 0.0
C2664 C 0.29487 0.8633 0.92645 0.0
C2665 C 0.29338 0.88155 0.94481 0.0
C2666 C 0.29165 0.80889 0.86144 0.0
C2667 C 0.30404 0.81741 0.84416 0.0
C2668 C 0.28912 0.82503 0.88122 0.0
C2669 C 0.29901 0.84979 0.88389 0.0
C2670 C 0.31273 0.85778 0.86749 0.0
C2671 C 0.31513 0.84178 0.84778 0.0
H2672 H 0.98483 0.53108 0.77678 0.0
H2673 H 0.97229 0.59654 0.75596 0.0
H2674 H 1.00234 0.52345 0.74135 0.0
H2675 H 0.98912 0.58853 0.7201 0.0
H2676 H 0.03667 0.57773 0.66766 0.0
H2677 H 0.02313 0.58672 0.70553 0.0
H2678 H 0.99123 0.51122 0.69935 0.0
H2679 H 1.00522 0.50224 0.66175 0.0
C2680 C 0.98589 0.54386 0.76463 0.0
C2681 C 0.97718 0.56436 0.76901 0.0
C2682 C 0.99577 0.53941 0.74427 0.0
C2683 C 0.99696 0.55528 0.72783 0.0
C2684 C 0.9887 0.57611 0.73256 0.0
C2685 C 0.97897 0.58066 0.75303 0.0
C2686 C 0.02673 0.56311 0.67445 0.0
C2687 C 0.02189 0.53932 0.66183 0.0
C2688 C 0.01897 0.56824 0.69608 0.0
C2689 C 1.00608 0.5497 0.70541 0.0
C2690 C 1.00143 0.52585 0.69284 0.0
C2691 C 1.00935 0.52069 0.67129 0.0
H2692 H 0.2706 0.19259 0.42036 0.0
H2693 H 0.30308 0.26114 0.46367 0.0
H2694 H 0.27451 0.21056 0.3846 0.0
H2695 H 0.30818 0.27885 0.42824 0.0
H2696 H 0.30131 0.31325 0.36452 0.0
H2697 H 0.29273 0.29364 0.39814 0.0
H2698 H 0.29678 0.22531 0.35758 0.0
H2699 H 0.30417 0.24524 0.32333 0.0
C2700 C 0.27867 0.21152 0.42224 0.0
C2701 C 0.28636 0.22545 0.44497 0.0
C2702 C 0.2811 0.22185 0.40165 0.0
C2703 C 0.29157 0.2464 0.40311 0.0
C2704 C 0.29945 0.26014 0.426 0.0
C2705 C 0.2967 0.24991 0.44653 0.0
C2706 C 0.29997 0.29393 0.36268 0.0
C2707 C 0.30317 0.28074 0.34121 0.0
C2708 C 0.29536 0.28263 0.38216 0.0
C2709 C 0.29446 0.25777 0.38117 0.0
C2710 C 0.29708 0.24438 0.35927 0.0
C2711 C 0.30126 0.25573 0.33949 0.0
H2712 H 0.32583 0.57543 0.51144 0.0
H2713 H 0.35541 0.60069 0.58423 0.0
H2714 H 0.3529 0.55152 0.50488 0.0
H2715 H 0.38193 0.57606 0.57804 0.0
H2716 H 0.44343 0.56344 0.54723 0.0
H2717 H 0.41281 0.58015 0.55736 0.0
H2718 H 0.36845 0.51838 0.51285 0.0
H2719 H 0.3995 0.5018 0.50228 0.0
C2720 C 0.33782 0.5754 0.52617 0.0
C2721 C 0.33876 0.59015 0.54823 0.0
C2722 C 0.35326 0.56159 0.52247 0.0
C2723 C 0.36978 0.56212 0.54085 0.0
C2724 C 0.36975 0.57569 0.56335 0.0
C2725 C 0.3545 0.5897 0.56695 0.0
C2726 C 0.42712 0.55313 0.54 0.0
C2727 C 0.42384 0.53124 0.52408 0.0
C2728 C 0.40952 0.5627 0.54585 0.0
C2729 C 0.38812 0.55055 0.53604 0.0
C2730 C 0.38475 0.5283 0.52053 0.0
C2731 C 0.40247 0.51878 0.51453 0.0
H2732 H 0.91223 0.91504 0.54259 0.0
H2733 H 0.89232 0.97849 0.57436 0.0
H2734 H 0.94849 0.93997 0.54102 0.0
H2735 H 0.92837 1.00332 0.57278 0.0
H2736 H 1.00114 0.03797 0.58638 0.0
H2737 H 0.96678 1.01074 0.59015 0.0
H2738 H 0.9654 0.97213 0.51932 0.0
H2739 H 0.99982 0.99948 0.51557 0.0
C2740 C 0.91564 0.93426 0.54943 0.0
C2741 C 0.89936 0.94475 0.55864 0.0
C2742 C 0.93637 0.94858 0.54837 0.0
C2743 C 0.94141 0.9737 0.55676 0.0
C2744 C 0.92521 0.98403 0.5664 0.0
C2745 C 0.90447 0.96979 0.56723 0.0
C2746 C 0.99356 0.0236 0.57164 0.0
C2747 C 1.00315 0.02099 0.55062 0.0
C2748 C 0.9738 1.00804 0.57376 0.0
C2749 C 0.96319 0.98929 0.55499 0.0
C2750 C 0.97316 0.98624 0.5342 0.0
C2751 C 0.99284 1.00199 0.532 0.0
H2752 H 0.86845 0.11495 0.25619 0.0
H2753 H 0.92889 0.1648 0.28607 0.0
H2754 H 0.85011 0.14845 0.25743 0.0
H2755 H 0.91067 0.19851 0.28768 0.0
H2756 H 0.87611 0.26254 0.2807 0.0
H2757 H 0.89483 0.22923 0.27927 0.0
H2758 H 0.83274 0.17817 0.26869 0.0
H2759 H 0.81428 0.21146 0.26987 0.0
C2760 C 0.8781 0.13303 0.26316 0.0
C2761 C 0.90072 0.1361 0.27097 0.0
C2762 C 0.86729 0.15287 0.26403 0.0
C2763 C 0.87814 0.17762 0.27277 0.0
C2764 C 0.90086 0.18058 0.28053 0.0
C2765 C 0.91165 0.16071 0.27969 0.0
C2766 C 0.86621 0.24428 0.27809 0.0
C2767 C 0.84307 0.24079 0.2755 0.0
C2768 C 0.87723 0.22456 0.27731 0.0
C2769 C 0.86607 0.19959 0.27377 0.0
C2770 C 0.84288 0.19627 0.2712 0.0
C2771 C 0.83192 0.21595 0.27204 0.0
H2772 H 0.72772 0.16078 0.06328 0.0
H2773 H 0.72286 0.08592 0.06983 0.0
H2774 H 0.68842 0.15483 0.06203 0.0
H2775 H 0.68328 0.08007 0.06872 0.0
H2776 H 0.61393 0.08256 0.08052 0.0
H2777 H 0.65339 0.09486 0.09105 0.0
H2778 H 0.65871 0.12903 0.02922 0.0
H2779 H 0.61926 0.11659 0.01843 0.0
C2780 C 0.71828 0.14312 0.06483 0.0
C2781 C 0.72827 0.12367 0.06638 0.0
C2782 C 0.69581 0.13978 0.06408 0.0
C2783 C 0.68292 0.11701 0.06512 0.0
C2784 C 0.69297 0.09787 0.06805 0.0
C2785 C 0.71554 0.10115 0.06858 0.0
C2786 C 0.62344 0.09317 0.06943 0.0
C2787 C 0.61355 0.09844 0.0485 0.0
C2788 C 0.64601 0.10003 0.07543 0.0
C2789 C 0.65898 0.11263 0.06082 0.0
C2790 C 0.64899 0.11939 0.04082 0.0
C2791 C 0.62644 0.11225 0.03463 0.0
H2792 H 0.21453 0.47559 0.26007 0.0
H2793 H 0.2604 0.53233 0.23757 0.0
H2794 H 0.24383 0.45533 0.26859 0.0
H2795 H 0.28969 0.51204 0.24615 0.0
H2796 H 0.32694 0.44896 0.23885 0.0
H2797 H 0.29993 0.47249 0.23072 0.0
H2798 H 0.27783 0.4651 0.29864 0.0
H2799 H 0.30451 0.44145 0.30663 0.0
C2800 C 0.23083 0.48363 0.25683 0.0
C2801 C 0.23524 0.5055 0.24821 0.0
C2802 C 0.2476 0.47217 0.26187 0.0
C2803 C 0.26899 0.4823 0.2582 0.0
C2804 C 0.2733 0.50387 0.24906 0.0
C2805 C 0.25657 0.51545 0.24421 0.0
C2806 C 0.31653 0.45277 0.25216 0.0
C2807 C 0.31782 0.4435 0.27337 0.0
C2808 C 0.30115 0.46621 0.24754 0.0
C2809 C 0.2867 0.47029 0.26396 0.0
C2810 C 0.28863 0.4619 0.28558 0.0
C2811 C 0.3041 0.44869 0.29028 0.0
H2812 H 0.25539 0.40452 0.04374 0.0
H2813 H 0.30009 0.47455 0.05579 0.0
H2814 H 0.22463 0.42387 0.04207 0.0
H2815 H 0.26938 0.49398 0.05459 0.0
H2816 H 0.21025 0.51981 0.02638 0.0
H2817 H 0.2404 0.49969 0.0274 0.0
H2818 H 0.20562 0.44849 0.06628 0.0
H2819 H 0.17504 0.46808 0.06445 0.0
C2820 C 0.25866 0.42407 0.04615 0.0
C2821 C 0.28022 0.43798 0.04986 0.0
C2822 C 0.24099 0.4352 0.04533 0.0
C2823 C 0.24442 0.46054 0.04816 0.0
C2824 C 0.26604 0.47442 0.05198 0.0
C2825 C 0.28369 0.46329 0.05282 0.0
C2826 C 0.20885 0.50405 0.03487 0.0
C2827 C 0.19007 0.49557 0.04525 0.0
C2828 C 0.22633 0.49268 0.03574 0.0
C2829 C 0.22559 0.47247 0.04702 0.0
C2830 C 0.20675 0.46386 0.05725 0.0
C2831 C 0.18926 0.47527 0.05642 0.0
H2832 H 0.92245 0.98086 0.2628 0.0
H2833 H 0.86526 1.00783 0.27406 0.0
H2834 H 0.9021 0.93972 0.26391 0.0
H2835 H 0.84501 0.96712 0.27587 0.0
H2836 H 0.80483 0.88977 0.26105 0.0
H2837 H 0.82637 0.92941 0.25928 0.0
H2838 H 0.88492 0.90694 0.28076 0.0
H2839 H 0.86277 0.86622 0.28185 0.0
C2840 C 0.90548 0.97818 0.26555 0.0
C2841 C 0.89579 0.99838 0.26812 0.0
C2842 C 0.89363 0.95421 0.26637 0.0
C2843 C 0.87131 0.9489 0.26981 0.0
C2844 C 0.86179 0.96932 0.2726 0.0
C2845 C 0.87362 0.99322 0.27172 0.0
C2846 C 0.82234 0.89294 0.26539 0.0
C2847 C 0.83159 0.87397 0.27161 0.0
C2848 C 0.83498 0.91633 0.26462 0.0
C2849 C 0.85796 0.9227 0.27022 0.0
C2850 C 0.86746 0.90356 0.27613 0.0
C2851 C 0.85462 0.87982 0.27682 0.0
H2852 H 0.75035 0.10253 0.76011 0.0
H2853 H 0.70062 0.12197 0.71513 0.0
H2854 H 0.77225 0.14385 0.76588 0.0
H2855 H 0.72249 0.16335 0.72106 0.0
H2856 H 0.77482 0.2326 0.72574 0.0
H2857 H 0.75749 0.18971 0.71472 0.0
H2858 H 0.76593 0.18196 0.7884 0.0
H2859 H 0.78349 0.22479 0.79954 0.0
C2860 C 0.74431 0.11551 0.75106 0.0
C2861 C 0.7237 0.10916 0.73737 0.0
C2862 C 0.75676 0.13917 0.75452 0.0
C2863 C 0.74888 0.15683 0.74423 0.0
C2864 C 0.72897 0.15006 0.72916 0.0
C2865 C 0.71645 0.1264 0.72578 0.0
C2866 C 0.77308 0.22177 0.73963 0.0
C2867 C 0.78049 0.23216 0.76357 0.0
C2868 C 0.76311 0.19723 0.73327 0.0
C2869 C 0.76048 0.18254 0.75067 0.0
C2870 C 0.76806 0.19282 0.77456 0.0
C2871 C 0.77793 0.2174 0.78096 0.0
loop_
_geom_bond_atom_site_label_1
_geom_bond_atom_site_label_2
_geom_bond_distance
_geom_bond_site_symmetry_2
_ccdc_geom_bond_type
In0 O1 2.294 . S
In0 O2 2.326 . S
In0 O6 2.266 . S
In0 O7 2.326 . S
In0 O8 2.266 . S
In0 O9 2.326 . S
In0 O11 2.294 . S
In0 O12 2.326 . S
O1 In0 2.294 . S
O1 C10 1.240 . S
O2 In0 2.326 . S
O2 C10 1.252 . S
C3 O6 1.252 . S
C3 O7 1.260 . S
C4 O11 1.240 . S
C4 O12 1.252 . S
C5 O8 1.252 . S
C5 O9 1.260 . S
O6 In0 2.266 . S
O6 C3 1.252 . S
O7 In0 2.326 . S
O7 C3 1.260 . S
O8 In0 2.266 . S
O8 C5 1.252 . S
O9 In0 2.326 . S
O9 C5 1.260 . S
C10 O1 1.240 . S
C10 O2 1.252 . S
O11 In0 2.294 . S
O11 C4 1.240 . S
O12 In0 2.326 . S
O12 C4 1.252 . S
In13 O14 2.294 . S
In13 O15 2.326 . S
In13 O19 2.266 1_455 S
In13 O20 2.326 1_455 S
In13 O21 2.264 1_455 S
In13 O22 2.322 1_455 S
In13 O24 2.296 . S
In13 O25 2.330 . S
O14 In13 2.294 . S
O14 C23 1.240 . S
O15 In13 2.326 . S
O15 C23 1.252 . S
C16 O19 1.252 . S
C16 O20 1.260 . S
C17 O24 1.240 . S
C17 O25 1.252 . S
C18 O21 1.252 . S
C18 O22 1.260 . S
O19 In13 2.266 1_655 S
O19 C16 1.252 . S
O20 In13 2.326 1_655 S
O20 C16 1.260 . S
O21 In13 2.264 1_655 S
O21 C18 1.252 . S
O22 In13 2.322 1_655 S
O22 C18 1.260 . S
C23 O14 1.240 . S
C23 O15 1.252 . S
O24 In13 2.296 . S
O24 C17 1.240 . S
O25 In13 2.330 . S
O25 C17 1.252 . S
In26 O27 2.294 . S
In26 O28 2.326 . S
In26 O32 2.266 . S
In26 O33 2.326 . S
In26 O34 2.266 . S
In26 O35 2.326 . S
In26 O37 2.294 . S
In26 O38 2.326 . S
O27 In26 2.294 . S
O27 C36 1.240 . S
O28 In26 2.326 . S
O28 C36 1.252 . S
C29 O32 1.252 . S
C29 O33 1.260 . S
C30 O37 1.240 . S
C30 O38 1.252 . S
C31 O34 1.252 . S
C31 O35 1.260 . S
O32 In26 2.266 . S
O32 C29 1.252 . S
O33 In26 2.326 . S
O33 C29 1.260 . S
O34 In26 2.266 . S
O34 C31 1.252 . S
O35 In26 2.326 . S
O35 C31 1.260 . S
C36 O27 1.240 . S
C36 O28 1.252 . S
O37 In26 2.294 . S
O37 C30 1.240 . S
O38 In26 2.326 . S
O38 C30 1.252 . S
In39 O40 2.294 . S
In39 O41 2.326 . S
In39 O45 2.266 . S
In39 O46 2.326 . S
In39 O47 2.266 . S
In39 O48 2.326 . S
In39 O50 2.294 . S
In39 O51 2.326 . S
O40 In39 2.294 . S
O40 C49 1.240 . S
O41 In39 2.326 . S
O41 C49 1.252 . S
C42 O45 1.252 . S
C42 O46 1.260 . S
C43 O50 1.240 . S
C43 O51 1.252 . S
C44 O47 1.252 . S
C44 O48 1.260 . S
O45 In39 2.266 . S
O45 C42 1.252 . S
O46 In39 2.326 . S
O46 C42 1.260 . S
O47 In39 2.266 . S
O47 C44 1.252 . S
O48 In39 2.326 . S
O48 C44 1.260 . S
C49 O40 1.240 . S
C49 O41 1.252 . S
O50 In39 2.294 . S
O50 C43 1.240 . S
O51 In39 2.326 . S
O51 C43 1.252 . S
In52 O53 2.294 . S
In52 O54 2.326 . S
In52 O58 2.266 . S
In52 O59 2.326 . S
In52 O60 2.266 . S
In52 O61 2.326 . S
In52 O63 2.294 . S
In52 O64 2.326 . S
O53 In52 2.294 . S
O53 C62 1.240 . S
O54 In52 2.326 . S
O54 C62 1.252 . S
C55 O58 1.252 . S
C55 O59 1.260 . S
C56 O63 1.240 . S
C56 O64 1.252 . S
C57 O60 1.252 . S
C57 O61 1.260 . S
O58 In52 2.266 . S
O58 C55 1.252 . S
O59 In52 2.326 . S
O59 C55 1.260 . S
O60 In52 2.266 . S
O60 C57 1.252 . S
O61 In52 2.326 . S
O61 C57 1.260 . S
C62 O53 1.240 . S
C62 O54 1.252 . S
O63 In52 2.294 . S
O63 C56 1.240 . S
O64 In52 2.326 . S
O64 C56 1.252 . S
In65 O66 2.294 . S
In65 O67 2.326 . S
In65 O71 2.266 . S
In65 O72 2.326 . S
In65 O73 2.266 . S
In65 O74 2.326 . S
In65 O76 2.294 . S
In65 O77 2.326 . S
O66 In65 2.294 . S
O66 C75 1.240 . S
O67 In65 2.326 . S
O67 C75 1.252 . S
C68 O71 1.252 . S
C68 O72 1.260 . S
C69 O76 1.240 . S
C69 O77 1.252 . S
C70 O73 1.252 . S
C70 O74 1.260 . S
O71 In65 2.266 . S
O71 C68 1.252 . S
O72 In65 2.326 . S
O72 C68 1.260 . S
O73 In65 2.266 . S
O73 C70 1.252 . S
O74 In65 2.326 . S
O74 C70 1.260 . S
C75 O66 1.240 . S
C75 O67 1.252 . S
O76 In65 2.294 . S
O76 C69 1.240 . S
O77 In65 2.326 . S
O77 C69 1.252 . S
In78 O79 2.294 . S
In78 O80 2.326 . S
In78 O84 2.266 . S
In78 O85 2.326 . S
In78 O86 2.266 . S
In78 O87 2.326 . S
In78 O89 2.294 . S
In78 O90 2.326 . S
O79 In78 2.294 . S
O79 C88 1.240 . S
O80 In78 2.326 . S
O80 C88 1.252 . S
C81 O84 1.252 . S
C81 O85 1.260 . S
C82 O89 1.240 . S
C82 O90 1.252 . S
C83 O86 1.252 . S
C83 O87 1.260 . S
O84 In78 2.266 . S
O84 C81 1.252 . S
O85 In78 2.326 . S
O85 C81 1.260 . S
O86 In78 2.266 . S
O86 C83 1.252 . S
O87 In78 2.326 . S
O87 C83 1.260 . S
C88 O79 1.240 . S
C88 O80 1.252 . S
O89 In78 2.294 . S
O89 C82 1.240 . S
O90 In78 2.326 . S
O90 C82 1.252 . S
In91 O92 2.294 . S
In91 O93 2.326 . S
In91 O97 2.266 . S
In91 O98 2.326 . S
In91 O99 2.266 1_455 S
In91 O100 2.326 1_455 S
In91 O102 2.294 . S
In91 O103 2.326 . S
O92 In91 2.294 . S
O92 C101 1.240 . S
O93 In91 2.326 . S
O93 C101 1.252 . S
C94 O97 1.252 . S
C94 O98 1.260 . S
C95 O102 1.240 . S
C95 O103 1.252 . S
C96 O99 1.252 . S
C96 O100 1.260 . S
O97 In91 2.266 . S
O97 C94 1.252 . S
O98 In91 2.326 . S
O98 C94 1.260 . S
O99 In91 2.266 1_655 S
O99 C96 1.252 . S
O100 In91 2.326 1_655 S
O100 C96 1.260 . S
C101 O92 1.240 . S
C101 O93 1.252 . S
O102 In91 2.294 . S
O102 C95 1.240 . S
O103 In91 2.326 . S
O103 C95 1.252 . S
In104 O105 2.294 . S
In104 O106 2.326 . S
In104 O110 2.266 . S
In104 O111 2.326 . S
In104 O112 2.266 1_545 S
In104 O113 2.326 1_545 S
In104 O115 2.294 . S
In104 O116 2.326 . S
O105 In104 2.294 . S
O105 C114 1.240 . S
O106 In104 2.326 . S
O106 C114 1.252 . S
C107 O110 1.252 . S
C107 O111 1.260 . S
C108 O115 1.240 . S
C108 O116 1.252 . S
C109 O112 1.252 . S
C109 O113 1.260 . S
O110 In104 2.266 . S
O110 C107 1.252 . S
O111 In104 2.326 . S
O111 C107 1.260 . S
O112 In104 2.266 1_565 S
O112 C109 1.252 . S
O113 In104 2.326 1_565 S
O113 C109 1.260 . S
C114 O105 1.240 . S
C114 O106 1.252 . S
O115 In104 2.294 . S
O115 C108 1.240 . S
O116 In104 2.326 . S
O116 C108 1.252 . S
In117 O118 2.294 . S
In117 O119 2.326 . S
In117 O123 2.266 . S
In117 O124 2.326 . S
In117 O125 2.266 . S
In117 O126 2.326 . S
In117 O128 2.294 . S
In117 O129 2.326 . S
O118 In117 2.294 . S
O118 C127 1.240 . S
O119 In117 2.326 . S
O119 C127 1.252 . S
C120 O123 1.252 . S
C120 O124 1.260 . S
C121 O128 1.240 . S
C121 O129 1.252 . S
C122 O125 1.252 . S
C122 O126 1.260 . S
O123 In117 2.266 . S
O123 C120 1.252 . S
O124 In117 2.326 . S
O124 C120 1.260 . S
O125 In117 2.266 . S
O125 C122 1.252 . S
O126 In117 2.326 . S
O126 C122 1.260 . S
C127 O118 1.240 . S
C127 O119 1.252 . S
O128 In117 2.294 . S
O128 C121 1.240 . S
O129 In117 2.326 . S
O129 C121 1.252 . S
In130 O131 2.294 1_545 S
In130 O132 2.326 . S
In130 O136 2.266 . S
In130 O137 2.326 . S
In130 O138 2.266 . S
In130 O139 2.326 . S
In130 O141 2.294 1_545 S
In130 O142 2.326 1_545 S
O131 In130 2.294 1_565 S
O131 C140 1.240 . S
O132 In130 2.326 . S
O132 C140 1.252 1_545 S
C133 O136 1.252 . S
C133 O137 1.260 . S
C134 O141 1.240 . S
C134 O142 1.252 . S
C135 O138 1.252 . S
C135 O139 1.260 . S
O136 In130 2.266 . S
O136 C133 1.252 . S
O137 In130 2.326 . S
O137 C133 1.260 . S
O138 In130 2.266 . S
O138 C135 1.252 . S
O139 In130 2.326 . S
O139 C135 1.260 . S
C140 O131 1.240 . S
C140 O132 1.252 1_565 S
O141 In130 2.294 1_565 S
O141 C134 1.240 . S
O142 In130 2.326 1_565 S
O142 C134 1.252 . S
In143 O144 2.294 . S
In143 O145 2.326 . S
In143 O149 2.266 1_554 S
In143 O150 2.326 1_554 S
In143 O151 2.266 . S
In143 O152 2.326 . S
In143 O154 2.294 . S
In143 O155 2.326 . S
O144 In143 2.294 . S
O144 C153 1.240 . S
O145 In143 2.326 . S
O145 C153 1.252 . S
C146 O149 1.252 . S
C146 O150 1.260 . S
C147 O154 1.240 . S
C147 O155 1.252 . S
C148 O151 1.252 . S
C148 O152 1.260 . S
O149 In143 2.266 1_556 S
O149 C146 1.252 . S
O150 In143 2.326 1_556 S
O150 C146 1.260 . S
O151 In143 2.266 . S
O151 C148 1.252 . S
O152 In143 2.326 . S
O152 C148 1.260 . S
C153 O144 1.240 . S
C153 O145 1.252 . S
O154 In143 2.294 . S
O154 C147 1.240 . S
O155 In143 2.326 . S
O155 C147 1.252 . S
In156 O157 2.294 . S
In156 O158 2.326 . S
In156 O162 2.266 1_554 S
In156 O163 2.326 1_554 S
In156 O164 2.266 . S
In156 O165 2.326 . S
In156 O167 2.294 . S
In156 O168 2.326 . S
O157 In156 2.294 . S
O157 C166 1.240 . S
O158 In156 2.326 . S
O158 C166 1.252 . S
C159 O162 1.252 . S
C159 O163 1.260 . S
C160 O167 1.240 . S
C160 O168 1.252 . S
C161 O164 1.252 . S
C161 O165 1.260 . S
O162 In156 2.266 1_556 S
O162 C159 1.252 . S
O163 In156 2.326 1_556 S
O163 C159 1.260 . S
O164 In156 2.266 . S
O164 C161 1.252 . S
O165 In156 2.326 . S
O165 C161 1.260 . S
C166 O157 1.240 . S
C166 O158 1.252 . S
O167 In156 2.294 . S
O167 C160 1.240 . S
O168 In156 2.326 . S
O168 C160 1.252 . S
In169 O170 2.294 . S
In169 O171 2.326 . S
In169 O175 2.266 . S
In169 O176 2.326 . S
In169 O177 2.266 . S
In169 O178 2.326 1_554 S
In169 O180 2.294 . S
In169 O181 2.326 . S
O170 In169 2.294 . S
O170 C179 1.240 . S
O171 In169 2.326 . S
O171 C179 1.252 . S
C172 O175 1.252 . S
C172 O176 1.260 . S
C173 O180 1.240 . S
C173 O181 1.252 . S
C174 O177 1.252 1_556 S
C174 O178 1.260 . S
O175 In169 2.266 . S
O175 C172 1.252 . S
O176 In169 2.326 . S
O176 C172 1.260 . S
O177 In169 2.266 . S
O177 C174 1.252 1_554 S
O178 In169 2.326 1_556 S
O178 C174 1.260 . S
C179 O170 1.240 . S
C179 O171 1.252 . S
O180 In169 2.294 . S
O180 C173 1.240 . S
O181 In169 2.326 . S
O181 C173 1.252 . S
In182 O183 2.294 . S
In182 O184 2.326 . S
In182 O188 2.266 . S
In182 O189 2.326 . S
In182 O190 2.266 . S
In182 O191 2.326 . S
In182 O193 2.294 . S
In182 O194 2.326 . S
O183 In182 2.294 . S
O183 C192 1.240 . S
O184 In182 2.326 . S
O184 C192 1.252 . S
C185 O188 1.252 . S
C185 O189 1.260 . S
C186 O193 1.240 . S
C186 O194 1.252 . S
C187 O190 1.252 . S
C187 O191 1.260 . S
O188 In182 2.266 . S
O188 C185 1.252 . S
O189 In182 2.326 . S
O189 C185 1.260 . S
O190 In182 2.266 . S
O190 C187 1.252 . S
O191 In182 2.326 . S
O191 C187 1.260 . S
C192 O183 1.240 . S
C192 O184 1.252 . S
O193 In182 2.294 . S
O193 C186 1.240 . S
O194 In182 2.326 . S
O194 C186 1.252 . S
In195 O196 2.294 . S
In195 O197 2.326 . S
In195 O201 2.266 . S
In195 O202 2.326 . S
In195 O203 2.266 . S
In195 O204 2.326 . S
In195 O206 2.294 . S
In195 O207 2.326 . S
O196 In195 2.294 . S
O196 C205 1.240 . S
O197 In195 2.326 . S
O197 C205 1.252 . S
C198 O201 1.252 . S
C198 O202 1.260 . S
C199 O206 1.240 . S
C199 O207 1.252 . S
C200 O203 1.252 . S
C200 O204 1.260 . S
O201 In195 2.266 . S
O201 C198 1.252 . S
O202 In195 2.326 . S
O202 C198 1.260 . S
O203 In195 2.266 . S
O203 C200 1.252 . S
O204 In195 2.326 . S
O204 C200 1.260 . S
C205 O196 1.240 . S
C205 O197 1.252 . S
O206 In195 2.294 . S
O206 C199 1.240 . S
O207 In195 2.326 . S
O207 C199 1.252 . S
In208 O209 2.294 . S
In208 O210 2.326 . S
In208 O214 2.266 . S
In208 O215 2.326 . S
In208 O216 2.266 . S
In208 O217 2.326 . S
In208 O219 2.294 . S
In208 O220 2.326 . S
O209 In208 2.294 . S
O209 C218 1.240 . S
O210 In208 2.326 . S
O210 C218 1.252 . S
C211 O214 1.252 . S
C211 O215 1.260 . S
C212 O219 1.240 . S
C212 O220 1.252 . S
C213 O216 1.252 . S
C213 O217 1.260 . S
O214 In208 2.266 . S
O214 C211 1.252 . S
O215 In208 2.326 . S
O215 C211 1.260 . S
O216 In208 2.266 . S
O216 C213 1.252 . S
O217 In208 2.326 . S
O217 C213 1.260 . S
C218 O209 1.240 . S
C218 O210 1.252 . S
O219 In208 2.294 . S
O219 C212 1.240 . S
O220 In208 2.326 . S
O220 C212 1.252 . S
In221 O222 2.294 . S
In221 O223 2.326 . S
In221 O227 2.266 . S
In221 O228 2.326 . S
In221 O229 2.266 . S
In221 O230 2.326 . S
In221 O232 2.294 . S
In221 O233 2.326 . S
O222 In221 2.294 . S
O222 C231 1.240 . S
O223 In221 2.326 . S
O223 C231 1.252 . S
C224 O227 1.252 . S
C224 O228 1.260 . S
C225 O232 1.240 . S
C225 O233 1.252 . S
C226 O229 1.252 . S
C226 O230 1.260 . S
O227 In221 2.266 . S
O227 C224 1.252 . S
O228 In221 2.326 . S
O228 C224 1.260 . S
O229 In221 2.266 . S
O229 C226 1.252 . S
O230 In221 2.326 . S
O230 C226 1.260 . S
C231 O222 1.240 . S
C231 O223 1.252 . S
O232 In221 2.294 . S
O232 C225 1.240 . S
O233 In221 2.326 . S
O233 C225 1.252 . S
In234 O235 2.294 . S
In234 O236 2.326 . S
In234 O240 2.266 . S
In234 O241 2.326 . S
In234 O242 2.266 . S
In234 O243 2.326 . S
In234 O245 2.294 . S
In234 O246 2.326 . S
O235 In234 2.294 . S
O235 C244 1.240 . S
O236 In234 2.326 . S
O236 C244 1.252 . S
C237 O240 1.252 . S
C237 O241 1.260 . S
C238 O245 1.240 . S
C238 O246 1.252 . S
C239 O242 1.252 . S
C239 O243 1.260 . S
O240 In234 2.266 . S
O240 C237 1.252 . S
O241 In234 2.326 . S
O241 C237 1.260 . S
O242 In234 2.266 . S
O242 C239 1.252 . S
O243 In234 2.326 . S
O243 C239 1.260 . S
C244 O235 1.240 . S
C244 O236 1.252 . S
O245 In234 2.294 . S
O245 C238 1.240 . S
O246 In234 2.326 . S
O246 C238 1.252 . S
In247 O248 2.294 . S
In247 O249 2.326 . S
In247 O253 2.266 . S
In247 O254 2.326 . S
In247 O255 2.266 . S
In247 O256 2.326 . S
In247 O258 2.294 . S
In247 O259 2.326 . S
O248 In247 2.294 . S
O248 C257 1.240 . S
O249 In247 2.326 . S
O249 C257 1.252 . S
C250 O253 1.252 . S
C250 O254 1.260 . S
C251 O258 1.240 . S
C251 O259 1.252 . S
C252 O255 1.252 . S
C252 O256 1.260 . S
O253 In247 2.266 . S
O253 C250 1.252 . S
O254 In247 2.326 . S
O254 C250 1.260 . S
O255 In247 2.266 . S
O255 C252 1.252 . S
O256 In247 2.326 . S
O256 C252 1.260 . S
C257 O248 1.240 . S
C257 O249 1.252 . S
O258 In247 2.294 . S
O258 C251 1.240 . S
O259 In247 2.326 . S
O259 C251 1.252 . S
In260 O261 2.294 . S
In260 O262 2.326 . S
In260 O266 2.266 1_554 S
In260 O267 2.326 . S
In260 O268 2.266 1_554 S
In260 O269 2.326 1_554 S
In260 O271 2.294 . S
In260 O272 2.326 . S
O261 In260 2.294 . S
O261 C270 1.240 . S
O262 In260 2.326 . S
O262 C270 1.252 . S
C263 O266 1.252 . S
C263 O267 1.260 1_556 S
C264 O271 1.240 . S
C264 O272 1.252 . S
C265 O268 1.252 . S
C265 O269 1.260 . S
O266 In260 2.266 1_556 S
O266 C263 1.252 . S
O267 In260 2.326 . S
O267 C263 1.260 1_554 S
O268 In260 2.266 1_556 S
O268 C265 1.252 . S
O269 In260 2.326 1_556 S
O269 C265 1.260 . S
C270 O261 1.240 . S
C270 O262 1.252 . S
O271 In260 2.294 . S
O271 C264 1.240 . S
O272 In260 2.326 . S
O272 C264 1.252 . S
In273 O274 2.294 . S
In273 O275 2.326 . S
In273 O279 2.266 . S
In273 O280 2.326 . S
In273 O281 2.266 . S
In273 O282 2.326 . S
In273 O284 2.294 . S
In273 O285 2.326 . S
O274 In273 2.294 . S
O274 C283 1.240 . S
O275 In273 2.326 . S
O275 C283 1.252 . S
C276 O279 1.252 . S
C276 O280 1.260 . S
C277 O284 1.240 . S
C277 O285 1.252 . S
C278 O281 1.252 . S
C278 O282 1.260 . S
O279 In273 2.266 . S
O279 C276 1.252 . S
O280 In273 2.326 . S
O280 C276 1.260 . S
O281 In273 2.266 . S
O281 C278 1.252 . S
O282 In273 2.326 . S
O282 C278 1.260 . S
C283 O274 1.240 . S
C283 O275 1.252 . S
O284 In273 2.294 . S
O284 C277 1.240 . S
O285 In273 2.326 . S
O285 C277 1.252 . S
In286 O287 2.294 . S
In286 O288 2.326 . S
In286 O292 2.266 . S
In286 O293 2.326 . S
In286 O294 2.266 . S
In286 O295 2.326 . S
In286 O297 2.294 . S
In286 O298 2.326 . S
O287 In286 2.294 . S
O287 C296 1.240 . S
O288 In286 2.326 . S
O288 C296 1.252 . S
C289 O292 1.252 . S
C289 O293 1.260 . S
C290 O297 1.240 . S
C290 O298 1.252 . S
C291 O294 1.252 . S
C291 O295 1.260 . S
O292 In286 2.266 . S
O292 C289 1.252 . S
O293 In286 2.326 . S
O293 C289 1.260 . S
O294 In286 2.266 . S
O294 C291 1.252 . S
O295 In286 2.326 . S
O295 C291 1.260 . S
C296 O287 1.240 . S
C296 O288 1.252 . S
O297 In286 2.294 . S
O297 C290 1.240 . S
O298 In286 2.326 . S
O298 C290 1.252 . S
In299 O300 2.294 . S
In299 O301 2.326 . S
In299 O305 2.266 . S
In299 O306 2.326 . S
In299 O307 2.266 . S
In299 O308 2.326 . S
In299 O310 2.294 . S
In299 O311 2.326 . S
O300 In299 2.294 . S
O300 C309 1.240 . S
O301 In299 2.326 . S
O301 C309 1.252 . S
C302 O305 1.252 . S
C302 O306 1.260 . S
C303 O310 1.240 . S
C303 O311 1.252 . S
C304 O307 1.252 . S
C304 O308 1.260 . S
O305 In299 2.266 . S
O305 C302 1.252 . S
O306 In299 2.326 . S
O306 C302 1.260 . S
O307 In299 2.266 . S
O307 C304 1.252 . S
O308 In299 2.326 . S
O308 C304 1.260 . S
C309 O300 1.240 . S
C309 O301 1.252 . S
O310 In299 2.294 . S
O310 C303 1.240 . S
O311 In299 2.326 . S
O311 C303 1.252 . S
Ho312 C315 2.811 1_455 S
Ho312 O332 2.322 . S
Ho312 O334 2.378 1_454 S
Ho312 O335 2.524 1_455 S
Ho312 O336 2.381 1_554 S
Ho312 O337 2.669 . S
Ho312 O339 2.346 . S
Ho312 O343 2.305 . S
Ho313 C324 2.811 . S
Ho313 O333 2.346 . S
Ho313 O337 2.305 . S
Ho313 O338 2.322 . S
Ho313 O340 2.378 . S
Ho313 O341 2.524 . S
Ho313 O342 2.381 . S
Ho313 O343 2.669 . S
C314 O332 1.259 . S
C314 O333 1.268 . S
C315 Ho312 2.811 1_655 S
C315 C316 1.492 . S
C315 O334 1.215 1_554 S
C315 O335 1.289 . S
C316 C315 1.492 . S
C316 C317 1.360 . S
C316 C321 1.396 1_554 S
C317 C316 1.360 . S
C317 C318 1.442 . S
C317 H344 0.930 . S
C318 C317 1.442 . S
C318 C319 1.381 1_554 S
C318 H345 0.931 . S
C319 C318 1.381 1_556 S
C319 C320 1.321 . S
C320 C319 1.321 . S
C320 C321 1.403 . S
C320 H346 0.934 . S
C321 C316 1.396 1_556 S
C321 C320 1.403 . S
C321 H347 0.930 . S
C322 O336 1.275 . S
C322 O337 1.256 1_556 S
C323 O338 1.259 . S
C323 O339 1.268 . S
C324 Ho313 2.811 . S
C324 C325 1.488 . S
C324 O340 1.215 . S
C324 O341 1.289 . S
C325 C324 1.488 . S
C325 C326 1.348 . S
C325 C330 1.413 . S
C326 C325 1.348 . S
C326 C327 1.442 . S
C326 H348 0.930 . S
C327 C326 1.442 . S
C327 C328 1.381 . S
C327 H349 0.931 1_545 S
C328 C327 1.381 . S
C328 C329 1.321 . S
C329 C328 1.321 . S
C329 C330 1.403 . S
C329 H350 0.934 . S
C330 C325 1.413 . S
C330 C329 1.403 . S
C330 H351 0.930 . S
C331 O342 1.275 . S
C331 O343 1.256 . S
O332 Ho312 2.322 . S
O332 C314 1.259 . S
O333 Ho313 2.346 . S
O333 C314 1.268 . S
O334 Ho312 2.378 1_656 S
O334 C315 1.215 1_556 S
O335 Ho312 2.524 1_655 S
O335 C315 1.289 . S
O336 Ho312 2.381 1_556 S
O336 C322 1.275 . S
O337 Ho312 2.669 . S
O337 Ho313 2.305 . S
O337 C322 1.256 1_554 S
O338 Ho313 2.322 . S
O338 C323 1.259 . S
O339 Ho312 2.346 . S
O339 C323 1.268 . S
O340 Ho313 2.378 . S
O340 C324 1.215 . S
O341 Ho313 2.524 . S
O341 C324 1.289 . S
O342 Ho313 2.381 . S
O342 C331 1.275 . S
O343 Ho312 2.305 . S
O343 Ho313 2.669 . S
O343 C331 1.256 . S
H344 C317 0.930 . S
H345 C318 0.931 . S
H346 C320 0.934 . S
H347 C321 0.930 . S
H348 C326 0.930 . S
H349 C327 0.931 1_565 S
H350 C329 0.934 . S
H351 C330 0.930 . S
Ho352 C355 2.811 . S
Ho352 O372 2.322 . S
Ho352 O374 2.378 . S
Ho352 O375 2.524 . S
Ho352 O376 2.381 . S
Ho352 O377 2.669 . S
Ho352 O379 2.346 . S
Ho352 O383 2.305 . S
Ho353 C364 2.811 . S
Ho353 O373 2.346 . S
Ho353 O377 2.305 . S
Ho353 O378 2.322 . S
Ho353 O380 2.378 . S
Ho353 O381 2.524 . S
Ho353 O382 2.381 . S
Ho353 O383 2.669 . S
C354 O372 1.259 . S
C354 O373 1.268 . S
C355 Ho352 2.811 . S
C355 C356 1.488 . S
C355 O374 1.215 . S
C355 O375 1.289 . S
C356 C355 1.488 . S
C356 C357 1.348 . S
C356 C361 1.413 . S
C357 C356 1.348 . S
C357 C358 1.442 . S
C357 H384 0.930 . S
C358 C357 1.442 . S
C358 C359 1.381 . S
C358 H385 0.931 . S
C359 C358 1.381 . S
C359 C360 1.321 . S
C360 C359 1.321 . S
C360 C361 1.403 . S
C360 H386 0.934 . S
C361 C356 1.413 . S
C361 C360 1.403 . S
C361 H387 0.930 . S
C362 O376 1.275 . S
C362 O377 1.256 . S
C363 O378 1.259 . S
C363 O379 1.268 . S
C364 Ho353 2.811 . S
C364 C365 1.488 . S
C364 O380 1.215 . S
C364 O381 1.289 . S
C365 C364 1.488 . S
C365 C366 1.348 . S
C365 C370 1.413 . S
C366 C365 1.348 . S
C366 C367 1.442 . S
C366 H388 0.930 . S
C367 C366 1.442 . S
C367 C368 1.381 . S
C367 H389 0.931 . S
C368 C367 1.381 . S
C368 C369 1.321 . S
C369 C368 1.321 . S
C369 C370 1.403 . S
C369 H390 0.934 . S
C370 C365 1.413 . S
C370 C369 1.403 . S
C370 H391 0.930 . S
C371 O382 1.275 . S
C371 O383 1.256 . S
O372 Ho352 2.322 . S
O372 C354 1.259 . S
O373 Ho353 2.346 . S
O373 C354 1.268 . S
O374 Ho352 2.378 . S
O374 C355 1.215 . S
O375 Ho352 2.524 . S
O375 C355 1.289 . S
O376 Ho352 2.381 . S
O376 C362 1.275 . S
O377 Ho352 2.669 . S
O377 Ho353 2.305 . S
O377 C362 1.256 . S
O378 Ho353 2.322 . S
O378 C363 1.259 . S
O379 Ho352 2.346 . S
O379 C363 1.268 . S
O380 Ho353 2.378 . S
O380 C364 1.215 . S
O381 Ho353 2.524 . S
O381 C364 1.289 . S
O382 Ho353 2.381 . S
O382 C371 1.275 . S
O383 Ho352 2.305 . S
O383 Ho353 2.669 . S
O383 C371 1.256 . S
H384 C357 0.930 . S
H385 C358 0.931 . S
H386 C360 0.934 . S
H387 C361 0.930 . S
H388 C366 0.930 . S
H389 C367 0.931 . S
H390 C369 0.934 . S
H391 C370 0.930 . S
Ho392 C395 2.811 . S
Ho392 O412 2.322 1_545 S
Ho392 O414 2.378 . S
Ho392 O415 2.524 . S
Ho392 O416 2.381 . S
Ho392 O417 2.669 . S
Ho392 O419 2.346 . S
Ho392 O423 2.305 . S
Ho393 C404 2.811 . S
Ho393 O413 2.346 1_545 S
Ho393 O417 2.305 . S
Ho393 O418 2.322 . S
Ho393 O420 2.378 . S
Ho393 O421 2.524 . S
Ho393 O422 2.381 . S
Ho393 O423 2.669 . S
C394 O412 1.259 . S
C394 O413 1.268 . S
C395 Ho392 2.811 . S
C395 C396 1.488 1_545 S
C395 O414 1.215 . S
C395 O415 1.289 . S
C396 C395 1.488 1_565 S
C396 C397 1.348 . S
C396 C401 1.413 . S
C397 C396 1.348 . S
C397 C398 1.442 . S
C397 H424 0.930 . S
C398 C397 1.442 . S
C398 C399 1.381 . S
C398 H425 0.931 . S
C399 C398 1.381 . S
C399 C400 1.321 . S
C400 C399 1.321 . S
C400 C401 1.403 . S
C400 H426 0.934 . S
C401 C396 1.413 . S
C401 C400 1.403 . S
C401 H427 0.930 . S
C402 O416 1.275 . S
C402 O417 1.256 . S
C403 O418 1.259 . S
C403 O419 1.268 . S
C404 Ho393 2.811 . S
C404 C405 1.488 . S
C404 O420 1.215 . S
C404 O421 1.289 . S
C405 C404 1.488 . S
C405 C406 1.348 . S
C405 C410 1.413 . S
C406 C405 1.348 . S
C406 C407 1.442 . S
C406 H428 0.930 . S
C407 C406 1.442 . S
C407 C408 1.381 . S
C407 H429 0.931 . S
C408 C407 1.381 . S
C408 C409 1.321 . S
C409 C408 1.321 . S
C409 C410 1.403 . S
C409 H430 0.934 . S
C410 C405 1.413 . S
C410 C409 1.403 . S
C410 H431 0.930 . S
C411 O422 1.275 . S
C411 O423 1.256 . S
O412 Ho392 2.322 1_565 S
O412 C394 1.259 . S
O413 Ho393 2.346 1_565 S
O413 C394 1.268 . S
O414 Ho392 2.378 . S
O414 C395 1.215 . S
O415 Ho392 2.524 . S
O415 C395 1.289 . S
O416 Ho392 2.381 . S
O416 C402 1.275 . S
O417 Ho392 2.669 . S
O417 Ho393 2.305 . S
O417 C402 1.256 . S
O418 Ho393 2.322 . S
O418 C403 1.259 . S
O419 Ho392 2.346 . S
O419 C403 1.268 . S
O420 Ho393 2.378 . S
O420 C404 1.215 . S
O421 Ho393 2.524 . S
O421 C404 1.289 . S
O422 Ho393 2.381 . S
O422 C411 1.275 . S
O423 Ho392 2.305 . S
O423 Ho393 2.669 . S
O423 C411 1.256 . S
H424 C397 0.930 . S
H425 C398 0.931 . S
H426 C400 0.934 . S
H427 C401 0.930 . S
H428 C406 0.930 . S
H429 C407 0.931 . S
H430 C409 0.934 . S
H431 C410 0.930 . S
Ho432 C435 2.811 . S
Ho432 O452 2.322 . S
Ho432 O454 2.378 . S
Ho432 O455 2.524 . S
Ho432 O456 2.381 . S
Ho432 O457 2.669 . S
Ho432 O459 2.346 . S
Ho432 O463 2.305 . S
Ho433 C444 2.811 . S
Ho433 O453 2.346 . S
Ho433 O457 2.305 . S
Ho433 O458 2.322 . S
Ho433 O460 2.378 . S
Ho433 O461 2.524 . S
Ho433 O462 2.381 . S
Ho433 O463 2.669 . S
C434 O452 1.259 . S
C434 O453 1.268 . S
C435 Ho432 2.811 . S
C435 C436 1.488 . S
C435 O454 1.215 . S
C435 O455 1.289 . S
C436 C435 1.488 . S
C436 C437 1.348 . S
C436 C441 1.413 . S
C437 C436 1.348 . S
C437 C438 1.442 . S
C437 H464 0.930 . S
C438 C437 1.442 . S
C438 C439 1.381 . S
C438 H465 0.931 . S
C439 C438 1.381 . S
C439 C440 1.321 . S
C440 C439 1.321 . S
C440 C441 1.403 . S
C440 H466 0.934 . S
C441 C436 1.413 . S
C441 C440 1.403 . S
C441 H467 0.930 . S
C442 O456 1.275 . S
C442 O457 1.256 . S
C443 O458 1.259 . S
C443 O459 1.268 . S
C444 Ho433 2.811 . S
C444 C445 1.488 . S
C444 O460 1.215 . S
C444 O461 1.289 . S
C445 C444 1.488 . S
C445 C446 1.348 . S
C445 C450 1.413 . S
C446 C445 1.348 . S
C446 C447 1.442 . S
C446 H468 0.930 . S
C447 C446 1.442 . S
C447 C448 1.381 . S
C447 H469 0.931 . S
C448 C447 1.381 . S
C448 C449 1.321 . S
C449 C448 1.321 . S
C449 C450 1.403 . S
C449 H470 0.934 . S
C450 C445 1.413 . S
C450 C449 1.403 . S
C450 H471 0.930 . S
C451 O462 1.275 . S
C451 O463 1.256 . S
O452 Ho432 2.322 . S
O452 C434 1.259 . S
O453 Ho433 2.346 . S
O453 C434 1.268 . S
O454 Ho432 2.378 . S
O454 C435 1.215 . S
O455 Ho432 2.524 . S
O455 C435 1.289 . S
O456 Ho432 2.381 . S
O456 C442 1.275 . S
O457 Ho432 2.669 . S
O457 Ho433 2.305 . S
O457 C442 1.256 . S
O458 Ho433 2.322 . S
O458 C443 1.259 . S
O459 Ho432 2.346 . S
O459 C443 1.268 . S
O460 Ho433 2.378 . S
O460 C444 1.215 . S
O461 Ho433 2.524 . S
O461 C444 1.289 . S
O462 Ho433 2.381 . S
O462 C451 1.275 . S
O463 Ho432 2.305 . S
O463 Ho433 2.669 . S
O463 C451 1.256 . S
H464 C437 0.930 . S
H465 C438 0.931 . S
H466 C440 0.934 . S
H467 C441 0.930 . S
H468 C446 0.930 . S
H469 C447 0.931 . S
H470 C449 0.934 . S
H471 C450 0.930 . S
Ho472 C475 2.811 . S
Ho472 O492 2.322 . S
Ho472 O494 2.378 . S
Ho472 O495 2.524 . S
Ho472 O496 2.381 . S
Ho472 O497 2.669 . S
Ho472 O499 2.346 . S
Ho472 O503 2.305 . S
Ho473 C484 2.811 . S
Ho473 O493 2.346 1_565 S
Ho473 O497 2.305 1_565 S
Ho473 O498 2.322 1_565 S
Ho473 O500 2.378 . S
Ho473 O501 2.524 . S
Ho473 O502 2.381 1_565 S
Ho473 O503 2.669 1_565 S
C474 O492 1.259 . S
C474 O493 1.268 . S
C475 Ho472 2.811 . S
C475 C476 1.488 . S
C475 O494 1.215 . S
C475 O495 1.289 . S
C476 C475 1.488 . S
C476 C477 1.348 . S
C476 C481 1.413 . S
C477 C476 1.348 . S
C477 C478 1.442 . S
C477 H504 0.930 . S
C478 C477 1.442 . S
C478 C479 1.381 . S
C478 H505 0.931 . S
C479 C478 1.381 . S
C479 C480 1.321 . S
C480 C479 1.321 . S
C480 C481 1.403 . S
C480 H506 0.934 . S
C481 C476 1.413 . S
C481 C480 1.403 . S
C481 H507 0.930 . S
C482 O496 1.275 . S
C482 O497 1.256 . S
C483 O498 1.259 . S
C483 O499 1.268 . S
C484 Ho473 2.811 . S
C484 C485 1.488 . S
C484 O500 1.215 . S
C484 O501 1.289 . S
C485 C484 1.488 . S
C485 C486 1.348 . S
C485 C490 1.413 . S
C486 C485 1.348 . S
C486 C487 1.442 . S
C486 H508 0.930 . S
C487 C486 1.442 . S
C487 C488 1.381 . S
C487 H509 0.931 . S
C488 C487 1.381 . S
C488 C489 1.321 . S
C489 C488 1.321 . S
C489 C490 1.403 . S
C489 H510 0.934 . S
C490 C485 1.413 . S
C490 C489 1.403 . S
C490 H511 0.930 . S
C491 O502 1.275 . S
C491 O503 1.256 . S
O492 Ho472 2.322 . S
O492 C474 1.259 . S
O493 Ho473 2.346 1_545 S
O493 C474 1.268 . S
O494 Ho472 2.378 . S
O494 C475 1.215 . S
O495 Ho472 2.524 . S
O495 C475 1.289 . S
O496 Ho472 2.381 . S
O496 C482 1.275 . S
O497 Ho472 2.669 . S
O497 Ho473 2.305 1_545 S
O497 C482 1.256 . S
O498 Ho473 2.322 1_545 S
O498 C483 1.259 . S
O499 Ho472 2.346 . S
O499 C483 1.268 . S
O500 Ho473 2.378 . S
O500 C484 1.215 . S
O501 Ho473 2.524 . S
O501 C484 1.289 . S
O502 Ho473 2.381 1_545 S
O502 C491 1.275 . S
O503 Ho472 2.305 . S
O503 Ho473 2.669 1_545 S
O503 C491 1.256 . S
H504 C477 0.930 . S
H505 C478 0.931 . S
H506 C480 0.934 . S
H507 C481 0.930 . S
H508 C486 0.930 . S
H509 C487 0.931 . S
H510 C489 0.934 . S
H511 C490 0.930 . S
Ho512 C515 2.811 . S
Ho512 O532 2.322 . S
Ho512 O534 2.378 . S
Ho512 O535 2.524 . S
Ho512 O536 2.381 . S
Ho512 O537 2.669 . S
Ho512 O539 2.346 . S
Ho512 O543 2.305 . S
Ho513 C524 2.811 . S
Ho513 O533 2.346 . S
Ho513 O537 2.305 . S
Ho513 O538 2.322 . S
Ho513 O540 2.378 . S
Ho513 O541 2.524 . S
Ho513 O542 2.381 . S
Ho513 O543 2.669 . S
C514 O532 1.259 . S
C514 O533 1.268 . S
C515 Ho512 2.811 . S
C515 C516 1.488 . S
C515 O534 1.215 . S
C515 O535 1.289 . S
C516 C515 1.488 . S
C516 C517 1.348 . S
C516 C521 1.413 . S
C517 C516 1.348 . S
C517 C518 1.442 . S
C517 H544 0.930 . S
C518 C517 1.442 . S
C518 C519 1.381 . S
C518 H545 0.931 . S
C519 C518 1.381 . S
C519 C520 1.321 . S
C520 C519 1.321 . S
C520 C521 1.403 . S
C520 H546 0.934 . S
C521 C516 1.413 . S
C521 C520 1.403 . S
C521 H547 0.930 . S
C522 O536 1.275 . S
C522 O537 1.256 . S
C523 O538 1.259 . S
C523 O539 1.268 . S
C524 Ho513 2.811 . S
C524 C525 1.488 . S
C524 O540 1.215 . S
C524 O541 1.289 . S
C525 C524 1.488 . S
C525 C526 1.348 . S
C525 C530 1.413 . S
C526 C525 1.348 . S
C526 C527 1.442 . S
C526 H548 0.930 . S
C527 C526 1.442 . S
C527 C528 1.381 . S
C527 H549 0.931 . S
C528 C527 1.381 . S
C528 C529 1.321 . S
C529 C528 1.321 . S
C529 C530 1.403 . S
C529 H550 0.934 . S
C530 C525 1.413 . S
C530 C529 1.403 . S
C530 H551 0.930 . S
C531 O542 1.275 . S
C531 O543 1.256 . S
O532 Ho512 2.322 . S
O532 C514 1.259 . S
O533 Ho513 2.346 . S
O533 C514 1.268 . S
O534 Ho512 2.378 . S
O534 C515 1.215 . S
O535 Ho512 2.524 . S
O535 C515 1.289 . S
O536 Ho512 2.381 . S
O536 C522 1.275 . S
O537 Ho512 2.669 . S
O537 Ho513 2.305 . S
O537 C522 1.256 . S
O538 Ho513 2.322 . S
O538 C523 1.259 . S
O539 Ho512 2.346 . S
O539 C523 1.268 . S
O540 Ho513 2.378 . S
O540 C524 1.215 . S
O541 Ho513 2.524 . S
O541 C524 1.289 . S
O542 Ho513 2.381 . S
O542 C531 1.275 . S
O543 Ho512 2.305 . S
O543 Ho513 2.669 . S
O543 C531 1.256 . S
H544 C517 0.930 . S
H545 C518 0.931 . S
H546 C520 0.934 . S
H547 C521 0.930 . S
H548 C526 0.930 . S
H549 C527 0.931 . S
H550 C529 0.934 . S
H551 C530 0.930 . S
Ho552 C555 2.811 . S
Ho552 O572 2.322 . S
Ho552 O574 2.378 . S
Ho552 O575 2.524 . S
Ho552 O576 2.381 . S
Ho552 O577 2.669 1_554 S
Ho552 O579 2.346 . S
Ho552 O583 2.305 . S
Ho553 C564 2.811 . S
Ho553 O573 2.346 . S
Ho553 O577 2.305 . S
Ho553 O578 2.322 . S
Ho553 O580 2.378 . S
Ho553 O581 2.524 . S
Ho553 O582 2.381 . S
Ho553 O583 2.669 1_556 S
C554 O572 1.259 . S
C554 O573 1.268 1_554 S
C555 Ho552 2.811 . S
C555 C556 1.488 . S
C555 O574 1.215 . S
C555 O575 1.289 . S
C556 C555 1.488 . S
C556 C557 1.348 . S
C556 C561 1.413 1_545 S
C557 C556 1.348 . S
C557 C558 1.442 . S
C557 H584 0.930 . S
C558 C557 1.442 . S
C558 C559 1.398 . S
C558 H585 0.931 . S
C559 C558 1.398 . S
C559 C560 1.311 1_545 S
C560 C559 1.311 1_565 S
C560 C561 1.403 . S
C560 H586 0.934 . S
C561 C556 1.413 1_565 S
C561 C560 1.403 . S
C561 H587 0.930 . S
C562 O576 1.275 1_556 S
C562 O577 1.256 . S
C563 O578 1.259 1_554 S
C563 O579 1.268 . S
C564 Ho553 2.811 . S
C564 C565 1.488 . S
C564 O580 1.215 . S
C564 O581 1.289 . S
C565 C564 1.488 . S
C565 C566 1.348 . S
C565 C570 1.413 . S
C566 C565 1.348 . S
C566 C567 1.442 . S
C566 H588 0.930 . S
C567 C566 1.442 . S
C567 C568 1.381 . S
C567 H589 0.931 . S
C568 C567 1.381 . S
C568 C569 1.321 . S
C569 C568 1.321 . S
C569 C570 1.403 . S
C569 H590 0.934 . S
C570 C565 1.413 . S
C570 C569 1.403 . S
C570 H591 0.930 . S
C571 O582 1.275 1_554 S
C571 O583 1.256 . S
O572 Ho552 2.322 . S
O572 C554 1.259 . S
O573 Ho553 2.346 . S
O573 C554 1.268 1_556 S
O574 Ho552 2.378 . S
O574 C555 1.215 . S
O575 Ho552 2.524 . S
O575 C555 1.289 . S
O576 Ho552 2.381 . S
O576 C562 1.275 1_554 S
O577 Ho552 2.669 1_556 S
O577 Ho553 2.305 . S
O577 C562 1.256 . S
O578 Ho553 2.322 . S
O578 C563 1.259 1_556 S
O579 Ho552 2.346 . S
O579 C563 1.268 . S
O580 Ho553 2.378 . S
O580 C564 1.215 . S
O581 Ho553 2.524 . S
O581 C564 1.289 . S
O582 Ho553 2.381 . S
O582 C571 1.275 1_556 S
O583 Ho552 2.305 . S
O583 Ho553 2.669 1_554 S
O583 C571 1.256 . S
H584 C557 0.930 . S
H585 C558 0.931 . S
H586 C560 0.934 . S
H587 C561 0.930 . S
H588 C566 0.930 . S
H589 C567 0.931 . S
H590 C569 0.934 . S
H591 C570 0.930 . S
Ho592 C595 2.811 . S
Ho592 O612 2.322 . S
Ho592 O614 2.378 . S
Ho592 O615 2.524 . S
Ho592 O616 2.381 . S
Ho592 O617 2.669 . S
Ho592 O619 2.346 . S
Ho592 O623 2.305 . S
Ho593 C604 2.811 . S
Ho593 O613 2.346 . S
Ho593 O617 2.305 . S
Ho593 O618 2.322 . S
Ho593 O620 2.378 . S
Ho593 O621 2.524 . S
Ho593 O622 2.381 . S
Ho593 O623 2.669 . S
C594 O612 1.259 . S
C594 O613 1.268 . S
C595 Ho592 2.811 . S
C595 C596 1.488 . S
C595 O614 1.215 . S
C595 O615 1.289 . S
C596 C595 1.488 . S
C596 C597 1.348 . S
C596 C601 1.413 . S
C597 C596 1.348 . S
C597 C598 1.442 . S
C597 H624 0.930 . S
C598 C597 1.442 . S
C598 C599 1.381 . S
C598 H625 0.931 . S
C599 C598 1.381 . S
C599 C600 1.321 . S
C600 C599 1.321 . S
C600 C601 1.403 . S
C600 H626 0.934 . S
C601 C596 1.413 . S
C601 C600 1.403 . S
C601 H627 0.930 . S
C602 O616 1.275 . S
C602 O617 1.256 . S
C603 O618 1.259 . S
C603 O619 1.268 . S
C604 Ho593 2.811 . S
C604 C605 1.488 . S
C604 O620 1.215 . S
C604 O621 1.289 . S
C605 C604 1.488 . S
C605 C606 1.348 . S
C605 C610 1.413 . S
C606 C605 1.348 . S
C606 C607 1.442 . S
C606 H628 0.930 . S
C607 C606 1.442 . S
C607 C608 1.381 . S
C607 H629 0.931 . S
C608 C607 1.381 . S
C608 C609 1.321 . S
C609 C608 1.321 . S
C609 C610 1.403 . S
C609 H630 0.934 . S
C610 C605 1.413 . S
C610 C609 1.403 . S
C610 H631 0.930 . S
C611 O622 1.275 . S
C611 O623 1.256 . S
O612 Ho592 2.322 . S
O612 C594 1.259 . S
O613 Ho593 2.346 . S
O613 C594 1.268 . S
O614 Ho592 2.378 . S
O614 C595 1.215 . S
O615 Ho592 2.524 . S
O615 C595 1.289 . S
O616 Ho592 2.381 . S
O616 C602 1.275 . S
O617 Ho592 2.669 . S
O617 Ho593 2.305 . S
O617 C602 1.256 . S
O618 Ho593 2.322 . S
O618 C603 1.259 . S
O619 Ho592 2.346 . S
O619 C603 1.268 . S
O620 Ho593 2.378 . S
O620 C604 1.215 . S
O621 Ho593 2.524 . S
O621 C604 1.289 . S
O622 Ho593 2.381 . S
O622 C611 1.275 . S
O623 Ho592 2.305 . S
O623 Ho593 2.669 . S
O623 C611 1.256 . S
H624 C597 0.930 . S
H625 C598 0.931 . S
H626 C600 0.934 . S
H627 C601 0.930 . S
H628 C606 0.930 . S
H629 C607 0.931 . S
H630 C609 0.934 . S
H631 C610 0.930 . S
Ho632 C635 2.811 1_554 S
Ho632 O652 2.322 1_554 S
Ho632 O654 2.378 . S
Ho632 O655 2.524 1_554 S
Ho632 O656 2.381 . S
Ho632 O657 2.669 . S
Ho632 O659 2.346 . S
Ho632 O663 2.305 . S
Ho633 C644 2.811 1_556 S
Ho633 O653 2.346 . S
Ho633 O657 2.305 1_556 S
Ho633 O658 2.322 1_556 S
Ho633 O660 2.378 1_556 S
Ho633 O661 2.524 1_556 S
Ho633 O662 2.381 . S
Ho633 O663 2.669 1_556 S
C634 O652 1.259 . S
C634 O653 1.268 . S
C635 Ho632 2.811 1_556 S
C635 C636 1.488 . S
C635 O654 1.215 1_556 S
C635 O655 1.289 . S
C636 C635 1.488 . S
C636 C637 1.348 . S
C636 C641 1.413 . S
C637 C636 1.348 . S
C637 C638 1.442 . S
C637 H664 0.930 . S
C638 C637 1.442 . S
C638 C639 1.381 . S
C638 H665 0.931 . S
C639 C638 1.381 . S
C639 C640 1.321 . S
C640 C639 1.321 . S
C640 C641 1.403 . S
C640 H666 0.934 . S
C641 C636 1.413 . S
C641 C640 1.403 . S
C641 H667 0.930 . S
C642 O656 1.275 . S
C642 O657 1.256 . S
C643 O658 1.259 . S
C643 O659 1.268 . S
C644 Ho633 2.811 1_554 S
C644 C645 1.488 . S
C644 O660 1.215 . S
C644 O661 1.289 . S
C645 C644 1.488 . S
C645 C646 1.348 . S
C645 C650 1.413 . S
C646 C645 1.348 . S
C646 C647 1.442 . S
C646 H668 0.930 . S
C647 C646 1.442 . S
C647 C648 1.381 . S
C647 H669 0.931 . S
C648 C647 1.381 . S
C648 C649 1.321 . S
C649 C648 1.321 . S
C649 C650 1.403 . S
C649 H670 0.934 . S
C650 C645 1.413 . S
C650 C649 1.403 . S
C650 H671 0.930 . S
C651 O662 1.275 . S
C651 O663 1.252 1_556 S
O652 Ho632 2.322 1_556 S
O652 C634 1.259 . S
O653 Ho633 2.346 . S
O653 C634 1.268 . S
O654 Ho632 2.378 . S
O654 C635 1.215 1_554 S
O655 Ho632 2.524 1_556 S
O655 C635 1.289 . S
O656 Ho632 2.381 . S
O656 C642 1.275 . S
O657 Ho632 2.669 . S
O657 Ho633 2.305 1_554 S
O657 C642 1.256 . S
O658 Ho633 2.322 1_554 S
O658 C643 1.259 . S
O659 Ho632 2.346 . S
O659 C643 1.268 . S
O660 Ho633 2.378 1_554 S
O660 C644 1.215 . S
O661 Ho633 2.524 1_554 S
O661 C644 1.289 . S
O662 Ho633 2.381 . S
O662 C651 1.275 . S
O663 Ho632 2.305 . S
O663 Ho633 2.669 1_554 S
O663 C651 1.252 1_554 S
H664 C637 0.930 . S
H665 C638 0.931 . S
H666 C640 0.934 . S
H667 C641 0.930 . S
H668 C646 0.930 . S
H669 C647 0.931 . S
H670 C649 0.934 . S
H671 C650 0.930 . S
Ho672 C675 2.811 . S
Ho672 O692 2.322 . S
Ho672 O694 2.378 . S
Ho672 O695 2.524 . S
Ho672 O696 2.381 . S
Ho672 O697 2.669 . S
Ho672 O699 2.346 . S
Ho672 O703 2.305 . S
Ho673 C684 2.811 . S
Ho673 O693 2.346 . S
Ho673 O697 2.305 . S
Ho673 O698 2.322 . S
Ho673 O700 2.378 . S
Ho673 O701 2.524 . S
Ho673 O702 2.381 . S
Ho673 O703 2.669 . S
C674 O692 1.259 . S
C674 O693 1.268 . S
C675 Ho672 2.811 . S
C675 C676 1.488 . S
C675 O694 1.215 . S
C675 O695 1.289 . S
C676 C675 1.488 . S
C676 C677 1.348 . S
C676 C681 1.413 . S
C677 C676 1.348 . S
C677 C678 1.442 . S
C677 H704 0.930 . S
C678 C677 1.442 . S
C678 C679 1.381 . S
C678 H705 0.931 . S
C679 C678 1.381 . S
C679 C680 1.321 . S
C680 C679 1.321 . S
C680 C681 1.403 . S
C680 H706 0.934 . S
C681 C676 1.413 . S
C681 C680 1.403 . S
C681 H707 0.930 . S
C682 O696 1.275 . S
C682 O697 1.256 . S
C683 O698 1.259 . S
C683 O699 1.268 . S
C684 Ho673 2.811 . S
C684 C685 1.488 . S
C684 O700 1.215 . S
C684 O701 1.289 . S
C685 C684 1.488 . S
C685 C686 1.348 . S
C685 C690 1.413 . S
C686 C685 1.348 . S
C686 C687 1.442 . S
C686 H708 0.930 . S
C687 C686 1.442 . S
C687 C688 1.381 . S
C687 H709 0.931 . S
C688 C687 1.381 . S
C688 C689 1.321 . S
C689 C688 1.321 . S
C689 C690 1.403 . S
C689 H710 0.934 . S
C690 C685 1.413 . S
C690 C689 1.403 . S
C690 H711 0.930 . S
C691 O702 1.275 . S
C691 O703 1.256 . S
O692 Ho672 2.322 . S
O692 C674 1.259 . S
O693 Ho673 2.346 . S
O693 C674 1.268 . S
O694 Ho672 2.378 . S
O694 C675 1.215 . S
O695 Ho672 2.524 . S
O695 C675 1.289 . S
O696 Ho672 2.381 . S
O696 C682 1.275 . S
O697 Ho672 2.669 . S
O697 Ho673 2.305 . S
O697 C682 1.256 . S
O698 Ho673 2.322 . S
O698 C683 1.259 . S
O699 Ho672 2.346 . S
O699 C683 1.268 . S
O700 Ho673 2.378 . S
O700 C684 1.215 . S
O701 Ho673 2.524 . S
O701 C684 1.289 . S
O702 Ho673 2.381 . S
O702 C691 1.275 . S
O703 Ho672 2.305 . S
O703 Ho673 2.669 . S
O703 C691 1.256 . S
H704 C677 0.930 . S
H705 C678 0.931 . S
H706 C680 0.934 . S
H707 C681 0.930 . S
H708 C686 0.930 . S
H709 C687 0.931 . S
H710 C689 0.934 . S
H711 C690 0.930 . S
Ho712 C715 2.811 . S
Ho712 O732 2.322 . S
Ho712 O734 2.378 . S
Ho712 O735 2.524 . S
Ho712 O736 2.381 . S
Ho712 O737 2.669 . S
Ho712 O739 2.346 . S
Ho712 O743 2.305 . S
Ho713 C724 2.811 . S
Ho713 O733 2.346 1_455 S
Ho713 O737 2.305 . S
Ho713 O738 2.322 . S
Ho713 O740 2.378 . S
Ho713 O741 2.524 . S
Ho713 O742 2.381 . S
Ho713 O743 2.669 . S
C714 O732 1.259 1_655 S
C714 O733 1.268 . S
C715 Ho712 2.811 . S
C715 C716 1.476 1_455 S
C715 O734 1.215 . S
C715 O735 1.289 . S
C716 C715 1.476 1_655 S
C716 C717 1.365 . S
C716 C721 1.404 1_655 S
C717 C716 1.365 . S
C717 C718 1.442 . S
C717 H744 0.930 . S
C718 C717 1.442 . S
C718 C719 1.381 . S
C718 H745 0.931 . S
C719 C718 1.381 . S
C719 C720 1.321 . S
C720 C719 1.321 . S
C720 C721 1.393 1_655 S
C720 H746 0.934 . S
C721 C716 1.404 1_455 S
C721 C720 1.393 1_455 S
C721 H747 0.945 . S
C722 O736 1.275 . S
C722 O737 1.256 . S
C723 O738 1.259 . S
C723 O739 1.268 . S
C724 Ho713 2.811 . S
C724 C725 1.488 . S
C724 O740 1.215 . S
C724 O741 1.289 . S
C725 C724 1.488 . S
C725 C726 1.348 . S
C725 C730 1.413 . S
C726 C725 1.348 . S
C726 C727 1.442 . S
C726 H748 0.930 . S
C727 C726 1.442 . S
C727 C728 1.381 . S
C727 H749 0.931 . S
C728 C727 1.381 . S
C728 C729 1.321 . S
C729 C728 1.321 . S
C729 C730 1.403 . S
C729 H750 0.934 . S
C730 C725 1.413 . S
C730 C729 1.403 . S
C730 H751 0.930 . S
C731 O742 1.275 . S
C731 O743 1.256 . S
O732 Ho712 2.322 . S
O732 C714 1.259 1_455 S
O733 Ho713 2.346 1_655 S
O733 C714 1.268 . S
O734 Ho712 2.378 . S
O734 C715 1.215 . S
O735 Ho712 2.524 . S
O735 C715 1.289 . S
O736 Ho712 2.381 . S
O736 C722 1.275 . S
O737 Ho712 2.669 . S
O737 Ho713 2.305 . S
O737 C722 1.256 . S
O738 Ho713 2.322 . S
O738 C723 1.259 . S
O739 Ho712 2.346 . S
O739 C723 1.268 . S
O740 Ho713 2.378 . S
O740 C724 1.215 . S
O741 Ho713 2.524 . S
O741 C724 1.289 . S
O742 Ho713 2.381 . S
O742 C731 1.275 . S
O743 Ho712 2.305 . S
O743 Ho713 2.669 . S
O743 C731 1.256 . S
H744 C717 0.930 . S
H745 C718 0.931 . S
H746 C720 0.934 . S
H747 C721 0.945 . S
H748 C726 0.930 . S
H749 C727 0.931 . S
H750 C729 0.934 . S
H751 C730 0.930 . S
Ho752 C755 2.811 . S
Ho752 O772 2.322 . S
Ho752 O774 2.378 . S
Ho752 O775 2.524 . S
Ho752 O776 2.381 . S
Ho752 O777 2.669 . S
Ho752 O779 2.346 . S
Ho752 O783 2.305 . S
Ho753 C764 2.811 . S
Ho753 O773 2.346 . S
Ho753 O777 2.305 . S
Ho753 O778 2.322 . S
Ho753 O780 2.378 . S
Ho753 O781 2.524 . S
Ho753 O782 2.381 . S
Ho753 O783 2.669 . S
C754 O772 1.259 . S
C754 O773 1.268 . S
C755 Ho752 2.811 . S
C755 C756 1.488 . S
C755 O774 1.215 . S
C755 O775 1.289 . S
C756 C755 1.488 . S
C756 C757 1.348 . S
C756 C761 1.413 . S
C757 C756 1.348 . S
C757 C758 1.442 . S
C757 H784 0.930 . S
C758 C757 1.442 . S
C758 C759 1.381 . S
C758 H785 0.931 . S
C759 C758 1.381 . S
C759 C760 1.321 . S
C760 C759 1.321 . S
C760 C761 1.403 . S
C760 H786 0.934 . S
C761 C756 1.413 . S
C761 C760 1.403 . S
C761 H787 0.930 . S
C762 O776 1.275 . S
C762 O777 1.256 . S
C763 O778 1.259 . S
C763 O779 1.268 . S
C764 Ho753 2.811 . S
C764 C765 1.488 . S
C764 O780 1.215 . S
C764 O781 1.289 . S
C765 C764 1.488 . S
C765 C766 1.348 . S
C765 C770 1.413 . S
C766 C765 1.348 . S
C766 C767 1.442 . S
C766 H788 0.930 . S
C767 C766 1.442 . S
C767 C768 1.381 . S
C767 H789 0.931 . S
C768 C767 1.381 . S
C768 C769 1.321 . S
C769 C768 1.321 . S
C769 C770 1.403 . S
C769 H790 0.934 . S
C770 C765 1.413 . S
C770 C769 1.403 . S
C770 H791 0.930 . S
C771 O782 1.275 . S
C771 O783 1.256 . S
O772 Ho752 2.322 . S
O772 C754 1.259 . S
O773 Ho753 2.346 . S
O773 C754 1.268 . S
O774 Ho752 2.378 . S
O774 C755 1.215 . S
O775 Ho752 2.524 . S
O775 C755 1.289 . S
O776 Ho752 2.381 . S
O776 C762 1.275 . S
O777 Ho752 2.669 . S
O777 Ho753 2.305 . S
O777 C762 1.256 . S
O778 Ho753 2.322 . S
O778 C763 1.259 . S
O779 Ho752 2.346 . S
O779 C763 1.268 . S
O780 Ho753 2.378 . S
O780 C764 1.215 . S
O781 Ho753 2.524 . S
O781 C764 1.289 . S
O782 Ho753 2.381 . S
O782 C771 1.275 . S
O783 Ho752 2.305 . S
O783 Ho753 2.669 . S
O783 C771 1.256 . S
H784 C757 0.930 . S
H785 C758 0.931 . S
H786 C760 0.934 . S
H787 C761 0.930 . S
H788 C766 0.930 . S
H789 C767 0.931 . S
H790 C769 0.934 . S
H791 C770 0.930 . S
Ho792 C795 2.811 . S
Ho792 O812 2.322 . S
Ho792 O814 2.378 . S
Ho792 O815 2.524 . S
Ho792 O816 2.381 . S
Ho792 O817 2.669 . S
Ho792 O819 2.346 . S
Ho792 O823 2.305 . S
Ho793 C804 2.811 . S
Ho793 O813 2.346 . S
Ho793 O817 2.305 . S
Ho793 O818 2.322 . S
Ho793 O820 2.378 . S
Ho793 O821 2.524 . S
Ho793 O822 2.381 . S
Ho793 O823 2.669 . S
C794 O812 1.259 . S
C794 O813 1.268 . S
C795 Ho792 2.811 . S
C795 C796 1.488 . S
C795 O814 1.215 . S
C795 O815 1.289 . S
C796 C795 1.488 . S
C796 C797 1.348 . S
C796 C801 1.413 . S
C797 C796 1.348 . S
C797 C798 1.442 . S
C797 H824 0.930 . S
C798 C797 1.442 . S
C798 C799 1.381 . S
C798 H825 0.931 . S
C799 C798 1.381 . S
C799 C800 1.321 . S
C800 C799 1.321 . S
C800 C801 1.403 . S
C800 H826 0.934 . S
C801 C796 1.413 . S
C801 C800 1.403 . S
C801 H827 0.930 . S
C802 O816 1.275 . S
C802 O817 1.256 . S
C803 O818 1.259 . S
C803 O819 1.268 . S
C804 Ho793 2.811 . S
C804 C805 1.488 . S
C804 O820 1.215 . S
C804 O821 1.289 . S
C805 C804 1.488 . S
C805 C806 1.348 . S
C805 C810 1.413 . S
C806 C805 1.348 . S
C806 C807 1.442 . S
C806 H828 0.930 . S
C807 C806 1.442 . S
C807 C808 1.381 . S
C807 H829 0.931 . S
C808 C807 1.381 . S
C808 C809 1.321 . S
C809 C808 1.321 . S
C809 C810 1.403 . S
C809 H830 0.934 . S
C810 C805 1.413 . S
C810 C809 1.403 . S
C810 H831 0.930 . S
C811 O822 1.275 . S
C811 O823 1.256 . S
O812 Ho792 2.322 . S
O812 C794 1.259 . S
O813 Ho793 2.346 . S
O813 C794 1.268 . S
O814 Ho792 2.378 . S
O814 C795 1.215 . S
O815 Ho792 2.524 . S
O815 C795 1.289 . S
O816 Ho792 2.381 . S
O816 C802 1.275 . S
O817 Ho792 2.669 . S
O817 Ho793 2.305 . S
O817 C802 1.256 . S
O818 Ho793 2.322 . S
O818 C803 1.259 . S
O819 Ho792 2.346 . S
O819 C803 1.268 . S
O820 Ho793 2.378 . S
O820 C804 1.215 . S
O821 Ho793 2.524 . S
O821 C804 1.289 . S
O822 Ho793 2.381 . S
O822 C811 1.275 . S
O823 Ho792 2.305 . S
O823 Ho793 2.669 . S
O823 C811 1.256 . S
H824 C797 0.930 . S
H825 C798 0.931 . S
H826 C800 0.934 . S
H827 C801 0.930 . S
H828 C806 0.930 . S
H829 C807 0.931 . S
H830 C809 0.934 . S
H831 C810 0.930 . S
Ho832 C835 2.811 . S
Ho832 O852 2.322 . S
Ho832 O854 2.378 . S
Ho832 O855 2.524 . S
Ho832 O856 2.381 . S
Ho832 O857 2.669 . S
Ho832 O859 2.346 . S
Ho832 O863 2.305 . S
Ho833 C844 2.811 . S
Ho833 O853 2.346 . S
Ho833 O857 2.305 . S
Ho833 O858 2.322 . S
Ho833 O860 2.378 . S
Ho833 O861 2.524 . S
Ho833 O862 2.381 . S
Ho833 O863 2.669 . S
C834 O852 1.259 . S
C834 O853 1.268 . S
C835 Ho832 2.811 . S
C835 C836 1.488 . S
C835 O854 1.215 . S
C835 O855 1.289 . S
C836 C835 1.488 . S
C836 C837 1.348 . S
C836 C841 1.413 . S
C837 C836 1.348 . S
C837 C838 1.442 . S
C837 H864 0.930 . S
C838 C837 1.442 . S
C838 C839 1.381 . S
C838 H865 0.931 . S
C839 C838 1.381 . S
C839 C840 1.321 . S
C840 C839 1.321 . S
C840 C841 1.403 . S
C840 H866 0.934 . S
C841 C836 1.413 . S
C841 C840 1.403 . S
C841 H867 0.930 . S
C842 O856 1.275 . S
C842 O857 1.256 . S
C843 O858 1.259 . S
C843 O859 1.268 . S
C844 Ho833 2.811 . S
C844 C845 1.488 . S
C844 O860 1.215 . S
C844 O861 1.289 . S
C845 C844 1.488 . S
C845 C846 1.348 . S
C845 C850 1.413 . S
C846 C845 1.348 . S
C846 C847 1.442 . S
C846 H868 0.930 . S
C847 C846 1.442 . S
C847 C848 1.381 . S
C847 H869 0.931 . S
C848 C847 1.381 . S
C848 C849 1.321 . S
C849 C848 1.321 . S
C849 C850 1.403 . S
C849 H870 0.934 . S
C850 C845 1.413 . S
C850 C849 1.403 . S
C850 H871 0.930 . S
C851 O862 1.275 . S
C851 O863 1.256 . S
O852 Ho832 2.322 . S
O852 C834 1.259 . S
O853 Ho833 2.346 . S
O853 C834 1.268 . S
O854 Ho832 2.378 . S
O854 C835 1.215 . S
O855 Ho832 2.524 . S
O855 C835 1.289 . S
O856 Ho832 2.381 . S
O856 C842 1.275 . S
O857 Ho832 2.669 . S
O857 Ho833 2.305 . S
O857 C842 1.256 . S
O858 Ho833 2.322 . S
O858 C843 1.259 . S
O859 Ho832 2.346 . S
O859 C843 1.268 . S
O860 Ho833 2.378 . S
O860 C844 1.215 . S
O861 Ho833 2.524 . S
O861 C844 1.289 . S
O862 Ho833 2.381 . S
O862 C851 1.275 . S
O863 Ho832 2.305 . S
O863 Ho833 2.669 . S
O863 C851 1.256 . S
H864 C837 0.930 . S
H865 C838 0.931 . S
H866 C840 0.934 . S
H867 C841 0.930 . S
H868 C846 0.930 . S
H869 C847 0.931 . S
H870 C849 0.934 . S
H871 C850 0.930 . S
Ho872 C875 2.811 . S
Ho872 O892 2.322 . S
Ho872 O894 2.378 . S
Ho872 O895 2.524 . S
Ho872 O896 2.381 . S
Ho872 O897 2.669 . S
Ho872 O899 2.346 . S
Ho872 O903 2.305 . S
Ho873 C884 2.811 . S
Ho873 O893 2.346 . S
Ho873 O897 2.305 . S
Ho873 O898 2.322 . S
Ho873 O900 2.378 . S
Ho873 O901 2.524 . S
Ho873 O902 2.381 . S
Ho873 O903 2.669 . S
C874 O892 1.259 . S
C874 O893 1.268 . S
C875 Ho872 2.811 . S
C875 C876 1.488 . S
C875 O894 1.215 . S
C875 O895 1.289 . S
C876 C875 1.488 . S
C876 C877 1.348 . S
C876 C881 1.413 . S
C877 C876 1.348 . S
C877 C878 1.442 . S
C877 H904 0.930 . S
C878 C877 1.442 . S
C878 C879 1.381 . S
C878 H905 0.931 . S
C879 C878 1.381 . S
C879 C880 1.321 . S
C880 C879 1.321 . S
C880 C881 1.403 . S
C880 H906 0.934 . S
C881 C876 1.413 . S
C881 C880 1.403 . S
C881 H907 0.930 . S
C882 O896 1.275 . S
C882 O897 1.256 . S
C883 O898 1.259 . S
C883 O899 1.268 . S
C884 Ho873 2.811 . S
C884 C885 1.488 . S
C884 O900 1.215 . S
C884 O901 1.289 . S
C885 C884 1.488 . S
C885 C886 1.348 . S
C885 C890 1.413 . S
C886 C885 1.348 . S
C886 C887 1.442 . S
C886 H908 0.930 . S
C887 C886 1.442 . S
C887 C888 1.381 . S
C887 H909 0.931 . S
C888 C887 1.381 . S
C888 C889 1.321 . S
C889 C888 1.321 . S
C889 C890 1.403 . S
C889 H910 0.934 . S
C890 C885 1.413 . S
C890 C889 1.403 . S
C890 H911 0.930 . S
C891 O902 1.275 . S
C891 O903 1.256 . S
O892 Ho872 2.322 . S
O892 C874 1.259 . S
O893 Ho873 2.346 . S
O893 C874 1.268 . S
O894 Ho872 2.378 . S
O894 C875 1.215 . S
O895 Ho872 2.524 . S
O895 C875 1.289 . S
O896 Ho872 2.381 . S
O896 C882 1.275 . S
O897 Ho872 2.669 . S
O897 Ho873 2.305 . S
O897 C882 1.256 . S
O898 Ho873 2.322 . S
O898 C883 1.259 . S
O899 Ho872 2.346 . S
O899 C883 1.268 . S
O900 Ho873 2.378 . S
O900 C884 1.215 . S
O901 Ho873 2.524 . S
O901 C884 1.289 . S
O902 Ho873 2.381 . S
O902 C891 1.275 . S
O903 Ho872 2.305 . S
O903 Ho873 2.669 . S
O903 C891 1.256 . S
H904 C877 0.930 . S
H905 C878 0.931 . S
H906 C880 0.934 . S
H907 C881 0.930 . S
H908 C886 0.930 . S
H909 C887 0.931 . S
H910 C889 0.934 . S
H911 C890 0.930 . S
Ho912 C915 2.811 . S
Ho912 O932 2.322 . S
Ho912 O934 2.378 1_554 S
Ho912 O935 2.524 . S
Ho912 O936 2.381 1_554 S
Ho912 O937 2.669 . S
Ho912 O939 2.346 . S
Ho912 O943 2.305 . S
Ho913 C924 2.811 1_455 S
Ho913 O933 2.346 . S
Ho913 O937 2.305 . S
Ho913 O938 2.322 . S
Ho913 O940 2.378 1_455 S
Ho913 O941 2.524 1_455 S
Ho913 O942 2.381 . S
Ho913 O943 2.669 . S
C914 O932 1.259 . S
C914 O933 1.268 . S
C915 Ho912 2.811 . S
C915 C916 1.488 . S
C915 O934 1.215 1_554 S
C915 O935 1.289 . S
C916 C915 1.488 . S
C916 C917 1.348 . S
C916 C921 1.413 1_554 S
C917 C916 1.348 . S
C917 C918 1.442 . S
C917 H944 0.930 . S
C918 C917 1.442 . S
C918 C919 1.381 1_554 S
C918 H945 0.931 . S
C919 C918 1.381 1_556 S
C919 C920 1.321 . S
C920 C919 1.321 . S
C920 C921 1.403 . S
C920 H946 0.934 . S
C921 C916 1.413 1_556 S
C921 C920 1.403 . S
C921 H947 0.930 . S
C922 O936 1.275 . S
C922 O937 1.256 1_556 S
C923 O938 1.259 . S
C923 O939 1.268 . S
C924 Ho913 2.811 1_655 S
C924 C925 1.488 . S
C924 O940 1.215 . S
C924 O941 1.289 . S
C925 C924 1.488 . S
C925 C926 1.348 . S
C925 C930 1.413 . S
C926 C925 1.348 . S
C926 C927 1.442 . S
C926 H948 0.930 . S
C927 C926 1.442 . S
C927 C928 1.381 . S
C927 H949 0.931 . S
C928 C927 1.381 . S
C928 C929 1.321 . S
C929 C928 1.321 . S
C929 C930 1.403 . S
C929 H950 0.934 . S
C930 C925 1.413 . S
C930 C929 1.403 . S
C930 H951 0.930 . S
C931 O942 1.275 . S
C931 O943 1.256 . S
O932 Ho912 2.322 . S
O932 C914 1.259 . S
O933 Ho913 2.346 . S
O933 C914 1.268 . S
O934 Ho912 2.378 1_556 S
O934 C915 1.215 1_556 S
O935 Ho912 2.524 . S
O935 C915 1.289 . S
O936 Ho912 2.381 1_556 S
O936 C922 1.275 . S
O937 Ho912 2.669 . S
O937 Ho913 2.305 . S
O937 C922 1.256 1_554 S
O938 Ho913 2.322 . S
O938 C923 1.259 . S
O939 Ho912 2.346 . S
O939 C923 1.268 . S
O940 Ho913 2.378 1_655 S
O940 C924 1.215 . S
O941 Ho913 2.524 1_655 S
O941 C924 1.289 . S
O942 Ho913 2.381 . S
O942 C931 1.275 . S
O943 Ho912 2.305 . S
O943 Ho913 2.669 . S
O943 C931 1.256 . S
H944 C917 0.930 . S
H945 C918 0.931 . S
H946 C920 0.934 . S
H947 C921 0.930 . S
H948 C926 0.930 . S
H949 C927 0.931 . S
H950 C929 0.934 . S
H951 C930 0.930 . S
H952 C960 0.950 . S
H953 C965 0.950 . S
H954 C962 0.950 1_554 S
H955 C964 0.950 . S
H956 C966 0.950 . S
H957 C968 0.950 . S
H958 C970 0.950 . S
H959 C971 0.950 . S
C960 H952 0.950 . S
C960 C961 1.386 . S
C960 C962 1.391 . S
C961 C960 1.386 . S
C961 C965 1.393 . S
C962 H954 0.950 1_556 S
C962 C960 1.391 . S
C962 C963 1.400 . S
C963 C962 1.400 . S
C963 C964 1.398 . S
C963 C969 1.491 . S
C964 H955 0.950 . S
C964 C963 1.398 . S
C964 C965 1.391 . S
C965 H953 0.950 . S
C965 C961 1.393 . S
C965 C964 1.391 . S
C966 H956 0.950 . S
C966 C967 1.386 1_556 S
C966 C968 1.391 . S
C967 C966 1.386 1_554 S
C967 C971 1.393 . S
C968 H957 0.950 . S
C968 C966 1.391 . S
C968 C969 1.400 . S
C969 C963 1.491 . S
C969 C968 1.400 . S
C969 C970 1.398 1_556 S
C970 H958 0.950 . S
C970 C969 1.398 1_554 S
C970 C971 1.391 . S
C971 H959 0.950 . S
C971 C967 1.393 . S
C971 C970 1.391 . S
H972 C980 0.950 . S
H973 C985 0.950 . S
H974 C982 0.950 . S
H975 C984 0.950 . S
H976 C986 0.950 . S
H977 C988 0.950 . S
H978 C990 0.950 . S
H979 C991 0.950 . S
C980 H972 0.950 . S
C980 C981 1.386 . S
C980 C982 1.391 . S
C981 C980 1.386 . S
C981 C985 1.393 . S
C982 H974 0.950 . S
C982 C980 1.391 . S
C982 C983 1.400 . S
C983 C982 1.400 . S
C983 C984 1.398 . S
C983 C989 1.491 . S
C984 H975 0.950 . S
C984 C983 1.398 . S
C984 C985 1.391 . S
C985 H973 0.950 . S
C985 C981 1.393 . S
C985 C984 1.391 . S
C986 H976 0.950 . S
C986 C987 1.386 . S
C986 C988 1.391 . S
C987 C986 1.386 . S
C987 C991 1.393 . S
C988 H977 0.950 . S
C988 C986 1.391 . S
C988 C989 1.400 . S
C989 C983 1.491 . S
C989 C988 1.400 . S
C989 C990 1.398 . S
C990 H978 0.950 . S
C990 C989 1.398 . S
C990 C991 1.391 . S
C991 H979 0.950 . S
C991 C987 1.393 . S
C991 C990 1.391 . S
H992 C1000 0.950 . S
H993 C1005 0.950 . S
H994 C1002 0.950 . S
H995 C1004 0.950 . S
H996 C1006 0.950 . S
H997 C1008 0.950 . S
H998 C1010 0.950 . S
H999 C1011 0.950 . S
C1000 H992 0.950 . S
C1000 C1001 1.386 . S
C1000 C1002 1.391 . S
C1001 C1000 1.386 . S
C1001 C1005 1.393 . S
C1002 H994 0.950 . S
C1002 C1000 1.391 . S
C1002 C1003 1.400 . S
C1003 C1002 1.400 . S
C1003 C1004 1.398 . S
C1003 C1009 1.491 . S
C1004 H995 0.950 . S
C1004 C1003 1.398 . S
C1004 C1005 1.391 . S
C1005 H993 0.950 . S
C1005 C1001 1.393 . S
C1005 C1004 1.391 . S
C1006 H996 0.950 . S
C1006 C1007 1.386 . S
C1006 C1008 1.391 . S
C1007 C1006 1.386 . S
C1007 C1011 1.393 . S
C1008 H997 0.950 . S
C1008 C1006 1.391 . S
C1008 C1009 1.400 . S
C1009 C1003 1.491 . S
C1009 C1008 1.400 . S
C1009 C1010 1.398 . S
C1010 H998 0.950 . S
C1010 C1009 1.398 . S
C1010 C1011 1.391 . S
C1011 H999 0.950 . S
C1011 C1007 1.393 . S
C1011 C1010 1.391 . S
H1012 C1020 0.950 . S
H1013 C1025 0.950 . S
H1014 C1022 0.950 . S
H1015 C1024 0.950 . S
H1016 C1026 0.950 . S
H1017 C1028 0.950 . S
H1018 C1030 0.950 . S
H1019 C1031 0.950 . S
C1020 H1012 0.950 . S
C1020 C1021 1.386 . S
C1020 C1022 1.391 . S
C1021 C1020 1.386 . S
C1021 C1025 1.393 . S
C1022 H1014 0.950 . S
C1022 C1020 1.391 . S
C1022 C1023 1.400 . S
C1023 C1022 1.400 . S
C1023 C1024 1.398 . S
C1023 C1029 1.491 . S
C1024 H1015 0.950 . S
C1024 C1023 1.398 . S
C1024 C1025 1.391 . S
C1025 H1013 0.950 . S
C1025 C1021 1.393 . S
C1025 C1024 1.391 . S
C1026 H1016 0.950 . S
C1026 C1027 1.386 . S
C1026 C1028 1.391 . S
C1027 C1026 1.386 . S
C1027 C1031 1.393 . S
C1028 H1017 0.950 . S
C1028 C1026 1.391 . S
C1028 C1029 1.400 . S
C1029 C1023 1.491 . S
C1029 C1028 1.400 . S
C1029 C1030 1.398 . S
C1030 H1018 0.950 . S
C1030 C1029 1.398 . S
C1030 C1031 1.391 . S
C1031 H1019 0.950 . S
C1031 C1027 1.393 . S
C1031 C1030 1.391 . S
H1032 C1040 0.950 1_655 S
H1033 C1045 0.950 . S
H1034 C1042 0.950 . S
H1035 C1044 0.950 . S
H1036 C1046 0.950 . S
H1037 C1048 0.950 . S
H1038 C1050 0.950 . S
H1039 C1051 0.950 . S
C1040 H1032 0.950 1_455 S
C1040 C1041 1.386 . S
C1040 C1042 1.391 . S
C1041 C1040 1.386 . S
C1041 C1045 1.393 . S
C1042 H1034 0.950 . S
C1042 C1040 1.391 . S
C1042 C1043 1.400 . S
C1043 C1042 1.400 . S
C1043 C1044 1.398 . S
C1043 C1049 1.491 . S
C1044 H1035 0.950 . S
C1044 C1043 1.398 . S
C1044 C1045 1.391 . S
C1045 H1033 0.950 . S
C1045 C1041 1.393 . S
C1045 C1044 1.391 . S
C1046 H1036 0.950 . S
C1046 C1047 1.386 . S
C1046 C1048 1.391 . S
C1047 C1046 1.386 . S
C1047 C1051 1.393 . S
C1048 H1037 0.950 . S
C1048 C1046 1.391 . S
C1048 C1049 1.400 . S
C1049 C1043 1.491 . S
C1049 C1048 1.400 . S
C1049 C1050 1.398 . S
C1050 H1038 0.950 . S
C1050 C1049 1.398 . S
C1050 C1051 1.391 . S
C1051 H1039 0.950 . S
C1051 C1047 1.393 . S
C1051 C1050 1.391 . S
H1052 C1060 0.950 . S
H1053 C1065 0.950 . S
H1054 C1062 0.950 . S
H1055 C1064 0.950 . S
H1056 C1066 0.950 . S
H1057 C1068 0.950 . S
H1058 C1070 0.950 . S
H1059 C1071 0.950 . S
C1060 H1052 0.950 . S
C1060 C1061 1.386 . S
C1060 C1062 1.391 . S
C1061 C1060 1.386 . S
C1061 C1065 1.393 . S
C1062 H1054 0.950 . S
C1062 C1060 1.391 . S
C1062 C1063 1.400 . S
C1063 C1062 1.400 . S
C1063 C1064 1.398 . S
C1063 C1069 1.491 . S
C1064 H1055 0.950 . S
C1064 C1063 1.398 . S
C1064 C1065 1.391 . S
C1065 H1053 0.950 . S
C1065 C1061 1.393 . S
C1065 C1064 1.391 . S
C1066 H1056 0.950 . S
C1066 C1067 1.386 . S
C1066 C1068 1.391 . S
C1067 C1066 1.386 . S
C1067 C1071 1.393 . S
C1068 H1057 0.950 . S
C1068 C1066 1.391 . S
C1068 C1069 1.400 . S
C1069 C1063 1.491 . S
C1069 C1068 1.400 . S
C1069 C1070 1.398 . S
C1070 H1058 0.950 . S
C1070 C1069 1.398 . S
C1070 C1071 1.391 . S
C1071 H1059 0.950 . S
C1071 C1067 1.393 . S
C1071 C1070 1.391 . S
H1072 C1080 0.950 . S
H1073 C1085 0.950 . S
H1074 C1082 0.950 . S
H1075 C1084 0.950 . S
H1076 C1086 0.950 . S
H1077 C1088 0.950 . S
H1078 C1090 0.950 . S
H1079 C1091 0.950 . S
C1080 H1072 0.950 . S
C1080 C1081 1.386 . S
C1080 C1082 1.391 . S
C1081 C1080 1.386 . S
C1081 C1085 1.393 . S
C1082 H1074 0.950 . S
C1082 C1080 1.391 . S
C1082 C1083 1.400 . S
C1083 C1082 1.400 . S
C1083 C1084 1.398 . S
C1083 C1089 1.491 . S
C1084 H1075 0.950 . S
C1084 C1083 1.398 . S
C1084 C1085 1.391 . S
C1085 H1073 0.950 . S
C1085 C1081 1.393 . S
C1085 C1084 1.391 . S
C1086 H1076 0.950 . S
C1086 C1087 1.386 . S
C1086 C1088 1.391 . S
C1087 C1086 1.386 . S
C1087 C1091 1.393 . S
C1088 H1077 0.950 . S
C1088 C1086 1.391 . S
C1088 C1089 1.400 . S
C1089 C1083 1.491 . S
C1089 C1088 1.400 . S
C1089 C1090 1.398 . S
C1090 H1078 0.950 . S
C1090 C1089 1.398 . S
C1090 C1091 1.391 . S
C1091 H1079 0.950 . S
C1091 C1087 1.393 . S
C1091 C1090 1.391 . S
H1092 C1100 0.950 . S
H1093 C1105 0.950 . S
H1094 C1102 0.950 . S
H1095 C1104 0.950 . S
H1096 C1106 0.950 . S
H1097 C1108 0.950 . S
H1098 C1110 0.950 . S
H1099 C1111 0.950 . S
C1100 H1092 0.950 . S
C1100 C1101 1.386 . S
C1100 C1102 1.391 . S
C1101 C1100 1.386 . S
C1101 C1105 1.393 . S
C1102 H1094 0.950 . S
C1102 C1100 1.391 . S
C1102 C1103 1.400 . S
C1103 C1102 1.400 . S
C1103 C1104 1.398 . S
C1103 C1109 1.491 . S
C1104 H1095 0.950 . S
C1104 C1103 1.398 . S
C1104 C1105 1.391 . S
C1105 H1093 0.950 . S
C1105 C1101 1.393 . S
C1105 C1104 1.391 . S
C1106 H1096 0.950 . S
C1106 C1107 1.386 . S
C1106 C1108 1.391 . S
C1107 C1106 1.386 . S
C1107 C1111 1.393 . S
C1108 H1097 0.950 . S
C1108 C1106 1.391 . S
C1108 C1109 1.400 . S
C1109 C1103 1.491 . S
C1109 C1108 1.400 . S
C1109 C1110 1.398 . S
C1110 H1098 0.950 . S
C1110 C1109 1.398 . S
C1110 C1111 1.391 . S
C1111 H1099 0.950 . S
C1111 C1107 1.393 . S
C1111 C1110 1.391 . S
H1112 C1120 0.950 . S
H1113 C1125 0.950 . S
H1114 C1122 0.950 . S
H1115 C1124 0.950 . S
H1116 C1126 0.950 . S
H1117 C1128 0.950 . S
H1118 C1130 0.992 . S
H1119 C1131 0.950 . S
C1120 H1112 0.950 . S
C1120 C1121 1.386 . S
C1120 C1122 1.391 . S
C1121 C1120 1.386 . S
C1121 C1125 1.393 . S
C1122 H1114 0.950 . S
C1122 C1120 1.391 . S
C1122 C1123 1.400 . S
C1123 C1122 1.400 . S
C1123 C1124 1.398 1_655 S
C1123 C1129 1.491 1_655 S
C1124 H1115 0.950 . S
C1124 C1123 1.398 1_455 S
C1124 C1125 1.391 1_455 S
C1125 H1113 0.950 . S
C1125 C1121 1.393 . S
C1125 C1124 1.391 1_655 S
C1126 H1116 0.950 . S
C1126 C1127 1.386 . S
C1126 C1128 1.391 . S
C1127 C1126 1.386 . S
C1127 C1131 1.393 . S
C1128 H1117 0.950 . S
C1128 C1126 1.391 . S
C1128 C1129 1.400 . S
C1129 C1123 1.491 1_455 S
C1129 C1128 1.400 . S
C1129 C1130 1.384 1_455 S
C1130 H1118 0.992 . S
C1130 C1129 1.384 1_655 S
C1130 C1131 1.365 1_655 S
C1131 H1119 0.950 . S
C1131 C1127 1.393 . S
C1131 C1130 1.365 1_455 S
H1132 C1140 0.950 . S
H1133 C1145 0.950 . S
H1134 C1142 0.950 . S
H1135 C1144 0.950 . S
H1136 C1146 0.950 . S
H1137 C1148 0.950 . S
H1138 C1150 0.950 . S
H1139 C1151 0.950 . S
C1140 H1132 0.950 . S
C1140 C1141 1.386 . S
C1140 C1142 1.391 . S
C1141 C1140 1.386 . S
C1141 C1145 1.393 . S
C1142 H1134 0.950 . S
C1142 C1140 1.391 . S
C1142 C1143 1.400 . S
C1143 C1142 1.400 . S
C1143 C1144 1.398 . S
C1143 C1149 1.491 . S
C1144 H1135 0.950 . S
C1144 C1143 1.398 . S
C1144 C1145 1.391 . S
C1145 H1133 0.950 . S
C1145 C1141 1.393 . S
C1145 C1144 1.391 . S
C1146 H1136 0.950 . S
C1146 C1147 1.386 . S
C1146 C1148 1.391 . S
C1147 C1146 1.386 . S
C1147 C1151 1.393 . S
C1148 H1137 0.950 . S
C1148 C1146 1.391 . S
C1148 C1149 1.400 . S
C1149 C1143 1.491 . S
C1149 C1148 1.400 . S
C1149 C1150 1.398 . S
C1150 H1138 0.950 . S
C1150 C1149 1.398 . S
C1150 C1151 1.391 . S
C1151 H1139 0.950 . S
C1151 C1147 1.393 . S
C1151 C1150 1.391 . S
H1152 C1160 0.950 . S
H1153 C1165 0.950 . S
H1154 C1162 0.950 . S
H1155 C1164 0.950 . S
H1156 C1166 0.950 . S
H1157 C1168 0.950 . S
H1158 C1170 0.950 . S
H1159 C1171 0.950 . S
C1160 H1152 0.950 . S
C1160 C1161 1.386 . S
C1160 C1162 1.391 . S
C1161 C1160 1.386 . S
C1161 C1165 1.393 . S
C1162 H1154 0.950 . S
C1162 C1160 1.391 . S
C1162 C1163 1.400 . S
C1163 C1162 1.400 . S
C1163 C1164 1.398 . S
C1163 C1169 1.491 . S
C1164 H1155 0.950 . S
C1164 C1163 1.398 . S
C1164 C1165 1.391 . S
C1165 H1153 0.950 . S
C1165 C1161 1.393 . S
C1165 C1164 1.391 . S
C1166 H1156 0.950 . S
C1166 C1167 1.386 . S
C1166 C1168 1.391 . S
C1167 C1166 1.386 . S
C1167 C1171 1.393 . S
C1168 H1157 0.950 . S
C1168 C1166 1.391 . S
C1168 C1169 1.400 . S
C1169 C1163 1.491 . S
C1169 C1168 1.400 . S
C1169 C1170 1.398 . S
C1170 H1158 0.950 . S
C1170 C1169 1.398 . S
C1170 C1171 1.391 . S
C1171 H1159 0.950 . S
C1171 C1167 1.393 . S
C1171 C1170 1.391 . S
H1172 C1180 0.950 . S
H1173 C1185 0.950 . S
H1174 C1182 0.950 . S
H1175 C1184 0.950 . S
H1176 C1186 0.950 . S
H1177 C1188 0.950 . S
H1178 C1190 0.950 . S
H1179 C1191 0.950 . S
C1180 H1172 0.950 . S
C1180 C1181 1.386 . S
C1180 C1182 1.391 . S
C1181 C1180 1.386 . S
C1181 C1185 1.393 . S
C1182 H1174 0.950 . S
C1182 C1180 1.391 . S
C1182 C1183 1.400 . S
C1183 C1182 1.400 . S
C1183 C1184 1.398 . S
C1183 C1189 1.491 . S
C1184 H1175 0.950 . S
C1184 C1183 1.398 . S
C1184 C1185 1.391 . S
C1185 H1173 0.950 . S
C1185 C1181 1.393 . S
C1185 C1184 1.391 . S
C1186 H1176 0.950 . S
C1186 C1187 1.386 . S
C1186 C1188 1.391 . S
C1187 C1186 1.386 . S
C1187 C1191 1.393 . S
C1188 H1177 0.950 . S
C1188 C1186 1.391 . S
C1188 C1189 1.400 . S
C1189 C1183 1.491 . S
C1189 C1188 1.400 . S
C1189 C1190 1.398 . S
C1190 H1178 0.950 . S
C1190 C1189 1.398 . S
C1190 C1191 1.391 . S
C1191 H1179 0.950 . S
C1191 C1187 1.393 . S
C1191 C1190 1.391 . S
H1192 C1200 0.967 . S
H1193 C1205 0.950 . S
H1194 C1202 0.950 . S
H1195 C1204 0.950 . S
H1196 C1206 0.950 . S
H1197 C1208 0.903 1_655 S
H1198 C1210 0.950 . S
H1199 C1211 0.950 . S
C1200 H1192 0.967 . S
C1200 C1201 1.386 . S
C1200 C1202 1.391 1_655 S
C1201 C1200 1.386 . S
C1201 C1205 1.393 . S
C1202 H1194 0.950 . S
C1202 C1200 1.391 1_455 S
C1202 C1203 1.400 1_455 S
C1203 C1202 1.400 1_655 S
C1203 C1204 1.398 . S
C1203 C1209 1.491 1_655 S
C1204 H1195 0.950 . S
C1204 C1203 1.398 . S
C1204 C1205 1.391 . S
C1205 H1193 0.950 . S
C1205 C1201 1.393 . S
C1205 C1204 1.391 . S
C1206 H1196 0.950 . S
C1206 C1207 1.386 . S
C1206 C1208 1.417 . S
C1207 C1206 1.386 . S
C1207 C1211 1.393 . S
C1208 H1197 0.903 1_455 S
C1208 C1206 1.417 . S
C1208 C1209 1.422 . S
C1209 C1203 1.491 1_455 S
C1209 C1208 1.422 . S
C1209 C1210 1.398 . S
C1210 H1198 0.950 . S
C1210 C1209 1.398 . S
C1210 C1211 1.391 . S
C1211 H1199 0.950 . S
C1211 C1207 1.393 . S
C1211 C1210 1.391 . S
H1212 C1220 0.950 . S
H1213 C1225 0.950 . S
H1214 C1222 0.950 . S
H1215 C1224 0.950 . S
H1216 C1226 0.950 . S
H1217 C1228 0.950 . S
H1218 C1230 0.950 . S
H1219 C1231 0.950 . S
C1220 H1212 0.950 . S
C1220 C1221 1.386 . S
C1220 C1222 1.391 . S
C1221 C1220 1.386 . S
C1221 C1225 1.393 . S
C1222 H1214 0.950 . S
C1222 C1220 1.391 . S
C1222 C1223 1.400 . S
C1223 C1222 1.400 . S
C1223 C1224 1.398 . S
C1223 C1229 1.491 . S
C1224 H1215 0.950 . S
C1224 C1223 1.398 . S
C1224 C1225 1.391 . S
C1225 H1213 0.950 . S
C1225 C1221 1.393 . S
C1225 C1224 1.391 . S
C1226 H1216 0.950 . S
C1226 C1227 1.386 . S
C1226 C1228 1.391 . S
C1227 C1226 1.386 . S
C1227 C1231 1.393 . S
C1228 H1217 0.950 . S
C1228 C1226 1.391 . S
C1228 C1229 1.400 . S
C1229 C1223 1.491 . S
C1229 C1228 1.400 . S
C1229 C1230 1.398 . S
C1230 H1218 0.950 . S
C1230 C1229 1.398 . S
C1230 C1231 1.391 . S
C1231 H1219 0.950 . S
C1231 C1227 1.393 . S
C1231 C1230 1.391 . S
H1232 C1240 0.950 . S
H1233 C1245 0.950 . S
H1234 C1242 0.950 . S
H1235 C1244 0.950 . S
H1236 C1246 0.950 . S
H1237 C1248 0.950 . S
H1238 C1250 0.950 . S
H1239 C1251 0.950 . S
C1240 H1232 0.950 . S
C1240 C1241 1.386 . S
C1240 C1242 1.391 . S
C1241 C1240 1.386 . S
C1241 C1245 1.393 . S
C1242 H1234 0.950 . S
C1242 C1240 1.391 . S
C1242 C1243 1.400 . S
C1243 C1242 1.400 . S
C1243 C1244 1.398 . S
C1243 C1249 1.491 . S
C1244 H1235 0.950 . S
C1244 C1243 1.398 . S
C1244 C1245 1.391 . S
C1245 H1233 0.950 . S
C1245 C1241 1.393 . S
C1245 C1244 1.391 . S
C1246 H1236 0.950 . S
C1246 C1247 1.386 . S
C1246 C1248 1.391 . S
C1247 C1246 1.386 . S
C1247 C1251 1.393 . S
C1248 H1237 0.950 . S
C1248 C1246 1.391 . S
C1248 C1249 1.400 . S
C1249 C1243 1.491 . S
C1249 C1248 1.400 . S
C1249 C1250 1.398 . S
C1250 H1238 0.950 . S
C1250 C1249 1.398 . S
C1250 C1251 1.391 . S
C1251 H1239 0.950 . S
C1251 C1247 1.393 . S
C1251 C1250 1.391 . S
H1252 C1260 0.950 . S
H1253 C1265 0.950 . S
H1254 C1262 0.950 . S
H1255 C1264 0.950 . S
H1256 C1266 0.950 . S
H1257 C1268 0.950 . S
H1258 C1270 0.950 . S
H1259 C1271 0.950 . S
C1260 H1252 0.950 . S
C1260 C1261 1.386 . S
C1260 C1262 1.391 . S
C1261 C1260 1.386 . S
C1261 C1265 1.393 . S
C1262 H1254 0.950 . S
C1262 C1260 1.391 . S
C1262 C1263 1.400 . S
C1263 C1262 1.400 . S
C1263 C1264 1.398 . S
C1263 C1269 1.491 . S
C1264 H1255 0.950 . S
C1264 C1263 1.398 . S
C1264 C1265 1.391 . S
C1265 H1253 0.950 . S
C1265 C1261 1.393 . S
C1265 C1264 1.391 . S
C1266 H1256 0.950 . S
C1266 C1267 1.386 . S
C1266 C1268 1.391 . S
C1267 C1266 1.386 . S
C1267 C1271 1.393 . S
C1268 H1257 0.950 . S
C1268 C1266 1.391 . S
C1268 C1269 1.400 . S
C1269 C1263 1.491 . S
C1269 C1268 1.400 . S
C1269 C1270 1.398 . S
C1270 H1258 0.950 . S
C1270 C1269 1.398 . S
C1270 C1271 1.391 . S
C1271 H1259 0.950 . S
C1271 C1267 1.393 . S
C1271 C1270 1.391 . S
H1272 C1280 0.950 1_556 S
H1273 C1285 0.950 . S
H1274 C1282 0.950 . S
H1275 C1284 0.950 . S
H1276 C1286 0.950 . S
H1277 C1288 0.950 . S
H1278 C1290 0.945 1_545 S
H1279 C1291 0.950 . S
C1280 H1272 0.950 1_554 S
C1280 C1281 1.386 . S
C1280 C1282 1.391 . S
C1281 C1280 1.386 . S
C1281 C1285 1.393 . S
C1282 H1274 0.950 . S
C1282 C1280 1.391 . S
C1282 C1283 1.400 . S
C1283 C1282 1.400 . S
C1283 C1284 1.398 . S
C1283 C1289 1.491 . S
C1284 H1275 0.950 . S
C1284 C1283 1.398 . S
C1284 C1285 1.391 . S
C1285 H1273 0.950 . S
C1285 C1281 1.393 . S
C1285 C1284 1.391 . S
C1286 H1276 0.950 . S
C1286 C1287 1.386 1_565 S
C1286 C1288 1.391 . S
C1287 C1286 1.386 1_545 S
C1287 C1291 1.393 . S
C1288 H1277 0.950 . S
C1288 C1286 1.391 . S
C1288 C1289 1.400 . S
C1289 C1283 1.491 . S
C1289 C1288 1.400 . S
C1289 C1290 1.398 . S
C1290 H1278 0.945 1_565 S
C1290 C1289 1.398 . S
C1290 C1291 1.391 1_565 S
C1291 H1279 0.950 . S
C1291 C1287 1.393 . S
C1291 C1290 1.391 1_545 S
H1292 C1300 0.950 . S
H1293 C1305 0.950 . S
H1294 C1302 0.950 . S
H1295 C1304 0.950 . S
H1296 C1306 0.950 . S
H1297 C1308 0.950 . S
H1298 C1310 0.950 . S
H1299 C1311 0.950 . S
C1300 H1292 0.950 . S
C1300 C1301 1.386 1_554 S
C1300 C1302 1.391 . S
C1301 C1300 1.386 1_556 S
C1301 C1305 1.393 . S
C1302 H1294 0.950 . S
C1302 C1300 1.391 . S
C1302 C1303 1.400 1_554 S
C1303 C1302 1.400 1_556 S
C1303 C1304 1.398 . S
C1303 C1309 1.491 . S
C1304 H1295 0.950 . S
C1304 C1303 1.398 . S
C1304 C1305 1.391 . S
C1305 H1293 0.950 . S
C1305 C1301 1.393 . S
C1305 C1304 1.391 . S
C1306 H1296 0.950 . S
C1306 C1307 1.387 1_556 S
C1306 C1308 1.391 . S
C1307 C1306 1.387 1_554 S
C1307 C1311 1.392 . S
C1308 H1297 0.950 . S
C1308 C1306 1.391 . S
C1308 C1309 1.400 . S
C1309 C1303 1.491 . S
C1309 C1308 1.400 . S
C1309 C1310 1.398 1_556 S
C1310 H1298 0.950 . S
C1310 C1309 1.398 1_554 S
C1310 C1311 1.391 . S
C1311 H1299 0.950 . S
C1311 C1307 1.392 . S
C1311 C1310 1.391 . S
H1312 C1320 0.950 . S
H1313 C1325 0.950 . S
H1314 C1322 0.950 . S
H1315 C1324 0.950 . S
H1316 C1326 0.950 . S
H1317 C1328 0.950 . S
H1318 C1330 0.950 . S
H1319 C1331 0.950 . S
C1320 H1312 0.950 . S
C1320 C1321 1.386 . S
C1320 C1322 1.391 . S
C1321 C1320 1.386 . S
C1321 C1325 1.393 . S
C1322 H1314 0.950 . S
C1322 C1320 1.391 . S
C1322 C1323 1.400 . S
C1323 C1322 1.400 . S
C1323 C1324 1.398 . S
C1323 C1329 1.491 . S
C1324 H1315 0.950 . S
C1324 C1323 1.398 . S
C1324 C1325 1.391 . S
C1325 H1313 0.950 . S
C1325 C1321 1.393 . S
C1325 C1324 1.391 . S
C1326 H1316 0.950 . S
C1326 C1327 1.386 . S
C1326 C1328 1.391 . S
C1327 C1326 1.386 . S
C1327 C1331 1.393 . S
C1328 H1317 0.950 . S
C1328 C1326 1.391 . S
C1328 C1329 1.400 . S
C1329 C1323 1.491 . S
C1329 C1328 1.400 . S
C1329 C1330 1.398 . S
C1330 H1318 0.950 . S
C1330 C1329 1.398 . S
C1330 C1331 1.391 . S
C1331 H1319 0.950 . S
C1331 C1327 1.393 . S
C1331 C1330 1.391 . S
H1332 C1340 0.950 . S
H1333 C1345 0.950 . S
H1334 C1342 0.950 . S
H1335 C1344 0.950 . S
H1336 C1346 0.950 . S
H1337 C1348 0.950 . S
H1338 C1350 0.950 . S
H1339 C1351 0.950 . S
C1340 H1332 0.950 . S
C1340 C1341 1.386 . S
C1340 C1342 1.391 . S
C1341 C1340 1.386 . S
C1341 C1345 1.393 . S
C1342 H1334 0.950 . S
C1342 C1340 1.391 . S
C1342 C1343 1.400 . S
C1343 C1342 1.400 . S
C1343 C1344 1.398 . S
C1343 C1349 1.491 . S
C1344 H1335 0.950 . S
C1344 C1343 1.398 . S
C1344 C1345 1.391 . S
C1345 H1333 0.950 . S
C1345 C1341 1.393 . S
C1345 C1344 1.391 . S
C1346 H1336 0.950 . S
C1346 C1347 1.386 . S
C1346 C1348 1.391 . S
C1347 C1346 1.386 . S
C1347 C1351 1.393 . S
C1348 H1337 0.950 . S
C1348 C1346 1.391 . S
C1348 C1349 1.400 . S
C1349 C1343 1.491 . S
C1349 C1348 1.400 . S
C1349 C1350 1.398 . S
C1350 H1338 0.950 . S
C1350 C1349 1.398 . S
C1350 C1351 1.391 . S
C1351 H1339 0.950 . S
C1351 C1347 1.393 . S
C1351 C1350 1.391 . S
H1352 C1360 0.950 . S
H1353 C1365 0.950 . S
H1354 C1362 0.950 . S
H1355 C1364 0.950 . S
H1356 C1366 0.950 . S
H1357 C1368 0.950 . S
H1358 C1370 0.950 . S
H1359 C1371 0.950 . S
C1360 H1352 0.950 . S
C1360 C1361 1.386 . S
C1360 C1362 1.391 . S
C1361 C1360 1.386 . S
C1361 C1365 1.393 . S
C1362 H1354 0.950 . S
C1362 C1360 1.391 . S
C1362 C1363 1.400 . S
C1363 C1362 1.400 . S
C1363 C1364 1.398 . S
C1363 C1369 1.491 . S
C1364 H1355 0.950 . S
C1364 C1363 1.398 . S
C1364 C1365 1.391 . S
C1365 H1353 0.950 . S
C1365 C1361 1.393 . S
C1365 C1364 1.391 . S
C1366 H1356 0.950 . S
C1366 C1367 1.386 . S
C1366 C1368 1.391 . S
C1367 C1366 1.386 . S
C1367 C1371 1.393 . S
C1368 H1357 0.950 . S
C1368 C1366 1.391 . S
C1368 C1369 1.400 . S
C1369 C1363 1.491 . S
C1369 C1368 1.400 . S
C1369 C1370 1.398 . S
C1370 H1358 0.950 . S
C1370 C1369 1.398 . S
C1370 C1371 1.391 . S
C1371 H1359 0.950 . S
C1371 C1367 1.393 . S
C1371 C1370 1.391 . S
H1372 C1380 0.950 . S
H1373 C1385 0.950 . S
H1374 C1382 0.950 . S
H1375 C1384 0.950 . S
H1376 C1386 0.950 . S
H1377 C1388 0.950 . S
H1378 C1390 0.950 . S
H1379 C1391 0.950 . S
C1380 H1372 0.950 . S
C1380 C1381 1.386 . S
C1380 C1382 1.391 . S
C1381 C1380 1.386 . S
C1381 C1385 1.393 . S
C1382 H1374 0.950 . S
C1382 C1380 1.391 . S
C1382 C1383 1.400 . S
C1383 C1382 1.400 . S
C1383 C1384 1.398 . S
C1383 C1389 1.491 . S
C1384 H1375 0.950 . S
C1384 C1383 1.398 . S
C1384 C1385 1.391 . S
C1385 H1373 0.950 . S
C1385 C1381 1.393 . S
C1385 C1384 1.391 . S
C1386 H1376 0.950 . S
C1386 C1387 1.386 . S
C1386 C1388 1.391 . S
C1387 C1386 1.386 . S
C1387 C1391 1.393 . S
C1388 H1377 0.950 . S
C1388 C1386 1.391 . S
C1388 C1389 1.400 . S
C1389 C1383 1.491 . S
C1389 C1388 1.400 . S
C1389 C1390 1.398 . S
C1390 H1378 0.950 . S
C1390 C1389 1.398 . S
C1390 C1391 1.391 . S
C1391 H1379 0.950 . S
C1391 C1387 1.393 . S
C1391 C1390 1.391 . S
H1392 C1400 0.950 . S
H1393 C1405 0.950 . S
H1394 C1402 0.950 . S
H1395 C1404 0.950 . S
H1396 C1406 0.950 . S
H1397 C1408 0.950 . S
H1398 C1410 0.950 . S
H1399 C1411 0.950 . S
C1400 H1392 0.950 . S
C1400 C1401 1.386 . S
C1400 C1402 1.391 . S
C1401 C1400 1.386 . S
C1401 C1405 1.393 . S
C1402 H1394 0.950 . S
C1402 C1400 1.391 . S
C1402 C1403 1.400 . S
C1403 C1402 1.400 . S
C1403 C1404 1.398 . S
C1403 C1409 1.491 . S
C1404 H1395 0.950 . S
C1404 C1403 1.398 . S
C1404 C1405 1.391 . S
C1405 H1393 0.950 . S
C1405 C1401 1.393 . S
C1405 C1404 1.391 . S
C1406 H1396 0.950 . S
C1406 C1407 1.386 . S
C1406 C1408 1.391 . S
C1407 C1406 1.386 . S
C1407 C1411 1.393 . S
C1408 H1397 0.950 . S
C1408 C1406 1.391 . S
C1408 C1409 1.400 . S
C1409 C1403 1.491 . S
C1409 C1408 1.400 . S
C1409 C1410 1.398 . S
C1410 H1398 0.950 . S
C1410 C1409 1.398 . S
C1410 C1411 1.391 . S
C1411 H1399 0.950 . S
C1411 C1407 1.393 . S
C1411 C1410 1.391 . S
H1412 C1420 0.950 . S
H1413 C1425 0.950 . S
H1414 C1422 0.950 . S
H1415 C1424 0.950 . S
H1416 C1426 0.950 . S
H1417 C1428 0.950 . S
H1418 C1430 0.950 . S
H1419 C1431 0.950 . S
C1420 H1412 0.950 . S
C1420 C1421 1.386 . S
C1420 C1422 1.391 . S
C1421 C1420 1.386 . S
C1421 C1425 1.393 . S
C1422 H1414 0.950 . S
C1422 C1420 1.391 . S
C1422 C1423 1.400 . S
C1423 C1422 1.400 . S
C1423 C1424 1.398 . S
C1423 C1429 1.491 . S
C1424 H1415 0.950 . S
C1424 C1423 1.398 . S
C1424 C1425 1.391 . S
C1425 H1413 0.950 . S
C1425 C1421 1.393 . S
C1425 C1424 1.391 . S
C1426 H1416 0.950 . S
C1426 C1427 1.386 . S
C1426 C1428 1.391 . S
C1427 C1426 1.386 . S
C1427 C1431 1.393 . S
C1428 H1417 0.950 . S
C1428 C1426 1.391 . S
C1428 C1429 1.400 . S
C1429 C1423 1.491 . S
C1429 C1428 1.400 . S
C1429 C1430 1.398 . S
C1430 H1418 0.950 . S
C1430 C1429 1.398 . S
C1430 C1431 1.391 . S
C1431 H1419 0.950 . S
C1431 C1427 1.393 . S
C1431 C1430 1.391 . S
H1432 C1440 0.950 . S
H1433 C1445 0.950 . S
H1434 C1442 0.950 . S
H1435 C1444 0.950 . S
H1436 C1446 0.950 . S
H1437 C1448 0.950 . S
H1438 C1450 0.950 . S
H1439 C1451 0.950 . S
C1440 H1432 0.950 . S
C1440 C1441 1.386 . S
C1440 C1442 1.391 . S
C1441 C1440 1.386 . S
C1441 C1445 1.393 . S
C1442 H1434 0.950 . S
C1442 C1440 1.391 . S
C1442 C1443 1.400 . S
C1443 C1442 1.400 . S
C1443 C1444 1.398 . S
C1443 C1449 1.491 . S
C1444 H1435 0.950 . S
C1444 C1443 1.398 . S
C1444 C1445 1.391 . S
C1445 H1433 0.950 . S
C1445 C1441 1.393 . S
C1445 C1444 1.391 . S
C1446 H1436 0.950 . S
C1446 C1447 1.386 . S
C1446 C1448 1.391 . S
C1447 C1446 1.386 . S
C1447 C1451 1.393 . S
C1448 H1437 0.950 . S
C1448 C1446 1.391 . S
C1448 C1449 1.400 . S
C1449 C1443 1.491 . S
C1449 C1448 1.400 . S
C1449 C1450 1.398 . S
C1450 H1438 0.950 . S
C1450 C1449 1.398 . S
C1450 C1451 1.391 . S
C1451 H1439 0.950 . S
C1451 C1447 1.393 . S
C1451 C1450 1.391 . S
H1452 C1460 0.950 . S
H1453 C1465 0.950 . S
H1454 C1462 0.950 . S
H1455 C1464 0.950 . S
H1456 C1466 0.950 . S
H1457 C1468 0.950 . S
H1458 C1470 0.950 . S
H1459 C1471 0.950 . S
C1460 H1452 0.950 . S
C1460 C1461 1.386 . S
C1460 C1462 1.391 . S
C1461 C1460 1.386 . S
C1461 C1465 1.393 . S
C1462 H1454 0.950 . S
C1462 C1460 1.391 . S
C1462 C1463 1.400 . S
C1463 C1462 1.400 . S
C1463 C1464 1.398 . S
C1463 C1469 1.491 . S
C1464 H1455 0.950 . S
C1464 C1463 1.398 . S
C1464 C1465 1.391 . S
C1465 H1453 0.950 . S
C1465 C1461 1.393 . S
C1465 C1464 1.391 . S
C1466 H1456 0.950 . S
C1466 C1467 1.386 . S
C1466 C1468 1.391 . S
C1467 C1466 1.386 . S
C1467 C1471 1.393 . S
C1468 H1457 0.950 . S
C1468 C1466 1.391 . S
C1468 C1469 1.400 . S
C1469 C1463 1.491 . S
C1469 C1468 1.400 . S
C1469 C1470 1.398 . S
C1470 H1458 0.950 . S
C1470 C1469 1.398 . S
C1470 C1471 1.391 . S
C1471 H1459 0.950 . S
C1471 C1467 1.393 . S
C1471 C1470 1.391 . S
H1472 C1480 0.950 . S
H1473 C1485 0.950 . S
H1474 C1482 0.950 . S
H1475 C1484 0.950 . S
H1476 C1486 0.950 . S
H1477 C1488 0.950 . S
H1478 C1490 0.950 . S
H1479 C1491 0.950 . S
C1480 H1472 0.950 . S
C1480 C1481 1.386 . S
C1480 C1482 1.391 . S
C1481 C1480 1.386 . S
C1481 C1485 1.393 . S
C1482 H1474 0.950 . S
C1482 C1480 1.391 . S
C1482 C1483 1.400 . S
C1483 C1482 1.400 . S
C1483 C1484 1.398 . S
C1483 C1489 1.491 . S
C1484 H1475 0.950 . S
C1484 C1483 1.398 . S
C1484 C1485 1.391 . S
C1485 H1473 0.950 . S
C1485 C1481 1.393 . S
C1485 C1484 1.391 . S
C1486 H1476 0.950 . S
C1486 C1487 1.386 . S
C1486 C1488 1.391 . S
C1487 C1486 1.386 . S
C1487 C1491 1.393 . S
C1488 H1477 0.950 . S
C1488 C1486 1.391 . S
C1488 C1489 1.400 . S
C1489 C1483 1.491 . S
C1489 C1488 1.400 . S
C1489 C1490 1.398 . S
C1490 H1478 0.950 . S
C1490 C1489 1.398 . S
C1490 C1491 1.391 . S
C1491 H1479 0.950 . S
C1491 C1487 1.393 . S
C1491 C1490 1.391 . S
H1492 C1500 0.950 . S
H1493 C1505 0.950 . S
H1494 C1502 0.950 . S
H1495 C1504 0.950 . S
H1496 C1506 0.950 . S
H1497 C1508 0.950 . S
H1498 C1510 0.950 . S
H1499 C1511 0.950 . S
C1500 H1492 0.950 . S
C1500 C1501 1.386 . S
C1500 C1502 1.391 . S
C1501 C1500 1.386 . S
C1501 C1505 1.393 . S
C1502 H1494 0.950 . S
C1502 C1500 1.391 . S
C1502 C1503 1.400 . S
C1503 C1502 1.400 . S
C1503 C1504 1.398 . S
C1503 C1509 1.491 . S
C1504 H1495 0.950 . S
C1504 C1503 1.398 . S
C1504 C1505 1.391 . S
C1505 H1493 0.950 . S
C1505 C1501 1.393 . S
C1505 C1504 1.391 . S
C1506 H1496 0.950 . S
C1506 C1507 1.386 . S
C1506 C1508 1.391 . S
C1507 C1506 1.386 . S
C1507 C1511 1.393 . S
C1508 H1497 0.950 . S
C1508 C1506 1.391 . S
C1508 C1509 1.400 . S
C1509 C1503 1.491 . S
C1509 C1508 1.400 . S
C1509 C1510 1.398 . S
C1510 H1498 0.950 . S
C1510 C1509 1.398 . S
C1510 C1511 1.391 . S
C1511 H1499 0.950 . S
C1511 C1507 1.393 . S
C1511 C1510 1.391 . S
H1512 C1520 0.950 . S
H1513 C1525 0.950 . S
H1514 C1522 0.950 . S
H1515 C1524 0.950 . S
H1516 C1526 0.950 . S
H1517 C1528 0.950 . S
H1518 C1530 0.950 . S
H1519 C1531 0.950 . S
C1520 H1512 0.950 . S
C1520 C1521 1.386 . S
C1520 C1522 1.391 . S
C1521 C1520 1.386 . S
C1521 C1525 1.393 . S
C1522 H1514 0.950 . S
C1522 C1520 1.391 . S
C1522 C1523 1.400 . S
C1523 C1522 1.400 . S
C1523 C1524 1.398 . S
C1523 C1529 1.491 . S
C1524 H1515 0.950 . S
C1524 C1523 1.398 . S
C1524 C1525 1.391 . S
C1525 H1513 0.950 . S
C1525 C1521 1.393 . S
C1525 C1524 1.391 . S
C1526 H1516 0.950 . S
C1526 C1527 1.386 . S
C1526 C1528 1.391 . S
C1527 C1526 1.386 . S
C1527 C1531 1.393 . S
C1528 H1517 0.950 . S
C1528 C1526 1.391 . S
C1528 C1529 1.400 . S
C1529 C1523 1.491 . S
C1529 C1528 1.400 . S
C1529 C1530 1.398 . S
C1530 H1518 0.950 . S
C1530 C1529 1.398 . S
C1530 C1531 1.391 . S
C1531 H1519 0.950 . S
C1531 C1527 1.393 . S
C1531 C1530 1.391 . S
H1532 C1540 0.950 . S
H1533 C1545 0.950 . S
H1534 C1542 0.950 . S
H1535 C1544 0.950 . S
H1536 C1546 0.950 . S
H1537 C1548 0.950 . S
H1538 C1550 0.950 . S
H1539 C1551 0.950 . S
C1540 H1532 0.950 . S
C1540 C1541 1.386 . S
C1540 C1542 1.391 . S
C1541 C1540 1.386 . S
C1541 C1545 1.393 . S
C1542 H1534 0.950 . S
C1542 C1540 1.391 . S
C1542 C1543 1.400 . S
C1543 C1542 1.400 . S
C1543 C1544 1.398 . S
C1543 C1549 1.491 . S
C1544 H1535 0.950 . S
C1544 C1543 1.398 . S
C1544 C1545 1.391 . S
C1545 H1533 0.950 . S
C1545 C1541 1.393 . S
C1545 C1544 1.391 . S
C1546 H1536 0.950 . S
C1546 C1547 1.386 . S
C1546 C1548 1.391 . S
C1547 C1546 1.386 . S
C1547 C1551 1.393 . S
C1548 H1537 0.950 . S
C1548 C1546 1.391 . S
C1548 C1549 1.400 . S
C1549 C1543 1.491 . S
C1549 C1548 1.400 . S
C1549 C1550 1.398 . S
C1550 H1538 0.950 . S
C1550 C1549 1.398 . S
C1550 C1551 1.391 . S
C1551 H1539 0.950 . S
C1551 C1547 1.393 . S
C1551 C1550 1.391 . S
H1552 C1560 0.950 . S
H1553 C1565 0.950 . S
H1554 C1562 0.950 . S
H1555 C1564 0.950 . S
H1556 C1566 0.950 1_545 S
H1557 C1568 0.950 . S
H1558 C1570 0.950 . S
H1559 C1571 0.950 . S
C1560 H1552 0.950 . S
C1560 C1561 1.386 . S
C1560 C1562 1.391 . S
C1561 C1560 1.386 . S
C1561 C1565 1.393 . S
C1562 H1554 0.950 . S
C1562 C1560 1.391 . S
C1562 C1563 1.400 . S
C1563 C1562 1.400 . S
C1563 C1564 1.398 . S
C1563 C1569 1.491 . S
C1564 H1555 0.950 . S
C1564 C1563 1.398 . S
C1564 C1565 1.391 . S
C1565 H1553 0.950 . S
C1565 C1561 1.393 . S
C1565 C1564 1.391 . S
C1566 H1556 0.950 1_565 S
C1566 C1567 1.386 . S
C1566 C1568 1.391 . S
C1567 C1566 1.386 . S
C1567 C1571 1.393 . S
C1568 H1557 0.950 . S
C1568 C1566 1.391 . S
C1568 C1569 1.400 . S
C1569 C1563 1.491 . S
C1569 C1568 1.400 . S
C1569 C1570 1.398 . S
C1570 H1558 0.950 . S
C1570 C1569 1.398 . S
C1570 C1571 1.391 . S
C1571 H1559 0.950 . S
C1571 C1567 1.393 . S
C1571 C1570 1.391 . S
H1572 C1580 0.950 . S
H1573 C1585 0.950 . S
H1574 C1582 0.950 . S
H1575 C1584 0.950 . S
H1576 C1586 0.950 . S
H1577 C1588 0.950 . S
H1578 C1590 0.950 . S
H1579 C1591 0.950 . S
C1580 H1572 0.950 . S
C1580 C1581 1.386 . S
C1580 C1582 1.391 . S
C1581 C1580 1.386 . S
C1581 C1585 1.393 . S
C1582 H1574 0.950 . S
C1582 C1580 1.391 . S
C1582 C1583 1.400 . S
C1583 C1582 1.400 . S
C1583 C1584 1.398 . S
C1583 C1589 1.491 . S
C1584 H1575 0.950 . S
C1584 C1583 1.398 . S
C1584 C1585 1.391 . S
C1585 H1573 0.950 . S
C1585 C1581 1.393 . S
C1585 C1584 1.391 . S
C1586 H1576 0.950 . S
C1586 C1587 1.386 . S
C1586 C1588 1.391 . S
C1587 C1586 1.386 . S
C1587 C1591 1.393 . S
C1588 H1577 0.950 . S
C1588 C1586 1.391 . S
C1588 C1589 1.400 . S
C1589 C1583 1.491 . S
C1589 C1588 1.400 . S
C1589 C1590 1.398 . S
C1590 H1578 0.950 . S
C1590 C1589 1.398 . S
C1590 C1591 1.391 . S
C1591 H1579 0.950 . S
C1591 C1587 1.393 . S
C1591 C1590 1.391 . S
H1592 C1600 0.950 . S
H1593 C1605 0.950 1_565 S
H1594 C1602 0.950 . S
H1595 C1604 0.948 . S
H1596 C1606 0.950 . S
H1597 C1608 0.950 . S
H1598 C1610 0.950 . S
H1599 C1611 0.950 . S
C1600 H1592 0.950 . S
C1600 C1601 1.386 . S
C1600 C1602 1.391 . S
C1601 C1600 1.386 . S
C1601 C1605 1.393 . S
C1602 H1594 0.950 . S
C1602 C1600 1.391 . S
C1602 C1603 1.400 . S
C1603 C1602 1.400 . S
C1603 C1604 1.398 . S
C1603 C1609 1.491 . S
C1604 H1595 0.948 . S
C1604 C1603 1.398 . S
C1604 C1605 1.391 . S
C1605 H1593 0.950 1_545 S
C1605 C1601 1.393 . S
C1605 C1604 1.391 . S
C1606 H1596 0.950 . S
C1606 C1607 1.386 . S
C1606 C1608 1.391 . S
C1607 C1606 1.386 . S
C1607 C1611 1.393 . S
C1608 H1597 0.950 . S
C1608 C1606 1.391 . S
C1608 C1609 1.400 . S
C1609 C1603 1.491 . S
C1609 C1608 1.400 . S
C1609 C1610 1.398 . S
C1610 H1598 0.950 . S
C1610 C1609 1.398 . S
C1610 C1611 1.391 . S
C1611 H1599 0.950 . S
C1611 C1607 1.393 . S
C1611 C1610 1.391 . S
H1612 C1620 0.950 . S
H1613 C1625 0.950 . S
H1614 C1622 0.950 . S
H1615 C1624 0.950 . S
H1616 C1626 0.950 . S
H1617 C1628 0.950 . S
H1618 C1630 0.950 . S
H1619 C1631 0.950 . S
C1620 H1612 0.950 . S
C1620 C1621 1.386 . S
C1620 C1622 1.391 . S
C1621 C1620 1.386 . S
C1621 C1625 1.393 . S
C1622 H1614 0.950 . S
C1622 C1620 1.391 . S
C1622 C1623 1.400 . S
C1623 C1622 1.400 . S
C1623 C1624 1.398 . S
C1623 C1629 1.491 . S
C1624 H1615 0.950 . S
C1624 C1623 1.398 . S
C1624 C1625 1.391 . S
C1625 H1613 0.950 . S
C1625 C1621 1.393 . S
C1625 C1624 1.391 . S
C1626 H1616 0.950 . S
C1626 C1627 1.386 . S
C1626 C1628 1.391 . S
C1627 C1626 1.386 . S
C1627 C1631 1.393 . S
C1628 H1617 0.950 . S
C1628 C1626 1.391 . S
C1628 C1629 1.400 . S
C1629 C1623 1.491 . S
C1629 C1628 1.400 . S
C1629 C1630 1.398 . S
C1630 H1618 0.950 . S
C1630 C1629 1.398 . S
C1630 C1631 1.391 . S
C1631 H1619 0.950 . S
C1631 C1627 1.393 . S
C1631 C1630 1.391 . S
H1632 C1640 0.950 1_565 S
H1633 C1645 0.950 . S
H1634 C1642 0.960 . S
H1635 C1644 0.950 . S
H1636 C1646 0.950 . S
H1637 C1648 0.950 . S
H1638 C1650 0.950 . S
H1639 C1651 0.950 . S
C1640 H1632 0.950 1_545 S
C1640 C1641 1.386 . S
C1640 C1642 1.391 . S
C1641 C1640 1.386 . S
C1641 C1645 1.393 . S
C1642 H1634 0.960 . S
C1642 C1640 1.391 . S
C1642 C1643 1.400 . S
C1643 C1642 1.400 . S
C1643 C1644 1.398 . S
C1643 C1649 1.491 . S
C1644 H1635 0.950 . S
C1644 C1643 1.398 . S
C1644 C1645 1.391 . S
C1645 H1633 0.950 . S
C1645 C1641 1.393 . S
C1645 C1644 1.391 . S
C1646 H1636 0.950 . S
C1646 C1647 1.386 . S
C1646 C1648 1.391 . S
C1647 C1646 1.386 . S
C1647 C1651 1.393 . S
C1648 H1637 0.950 . S
C1648 C1646 1.391 . S
C1648 C1649 1.400 . S
C1649 C1643 1.491 . S
C1649 C1648 1.400 . S
C1649 C1650 1.398 . S
C1650 H1638 0.950 . S
C1650 C1649 1.398 . S
C1650 C1651 1.391 . S
C1651 H1639 0.950 . S
C1651 C1647 1.393 . S
C1651 C1650 1.391 . S
H1652 C1660 0.950 . S
H1653 C1665 0.950 . S
H1654 C1662 0.950 . S
H1655 C1664 0.950 . S
H1656 C1666 0.950 . S
H1657 C1668 0.950 . S
H1658 C1670 0.950 . S
H1659 C1671 0.950 . S
C1660 H1652 0.950 . S
C1660 C1661 1.386 . S
C1660 C1662 1.391 . S
C1661 C1660 1.386 . S
C1661 C1665 1.393 . S
C1662 H1654 0.950 . S
C1662 C1660 1.391 . S
C1662 C1663 1.400 . S
C1663 C1662 1.400 . S
C1663 C1664 1.398 . S
C1663 C1669 1.491 . S
C1664 H1655 0.950 . S
C1664 C1663 1.398 . S
C1664 C1665 1.391 . S
C1665 H1653 0.950 . S
C1665 C1661 1.393 . S
C1665 C1664 1.391 . S
C1666 H1656 0.950 . S
C1666 C1667 1.386 . S
C1666 C1668 1.391 . S
C1667 C1666 1.386 . S
C1667 C1671 1.393 . S
C1668 H1657 0.950 . S
C1668 C1666 1.391 . S
C1668 C1669 1.400 . S
C1669 C1663 1.491 . S
C1669 C1668 1.400 . S
C1669 C1670 1.398 . S
C1670 H1658 0.950 . S
C1670 C1669 1.398 . S
C1670 C1671 1.391 . S
C1671 H1659 0.950 . S
C1671 C1667 1.393 . S
C1671 C1670 1.391 . S
H1672 C1680 0.950 . S
H1673 C1685 0.950 . S
H1674 C1682 0.950 . S
H1675 C1684 0.950 . S
H1676 C1686 0.950 . S
H1677 C1688 0.950 . S
H1678 C1690 0.950 . S
H1679 C1691 0.950 . S
C1680 H1672 0.950 . S
C1680 C1681 1.386 . S
C1680 C1682 1.391 . S
C1681 C1680 1.386 . S
C1681 C1685 1.393 1_565 S
C1682 H1674 0.950 . S
C1682 C1680 1.391 . S
C1682 C1683 1.400 1_565 S
C1683 C1682 1.400 1_545 S
C1683 C1684 1.398 . S
C1683 C1689 1.491 . S
C1684 H1675 0.950 . S
C1684 C1683 1.398 . S
C1684 C1685 1.391 . S
C1685 H1673 0.950 . S
C1685 C1681 1.393 1_545 S
C1685 C1684 1.391 . S
C1686 H1676 0.950 . S
C1686 C1687 1.386 . S
C1686 C1688 1.391 . S
C1687 C1686 1.386 . S
C1687 C1691 1.393 1_545 S
C1688 H1677 0.950 . S
C1688 C1686 1.391 . S
C1688 C1689 1.400 . S
C1689 C1683 1.491 . S
C1689 C1688 1.400 . S
C1689 C1690 1.398 1_545 S
C1690 H1678 0.950 . S
C1690 C1689 1.398 1_565 S
C1690 C1691 1.391 . S
C1691 H1679 0.950 . S
C1691 C1687 1.393 1_565 S
C1691 C1690 1.391 . S
H1692 C1700 0.950 . S
H1693 C1705 0.950 . S
H1694 C1702 0.950 . S
H1695 C1704 0.950 . S
H1696 C1706 0.950 . S
H1697 C1708 0.950 . S
H1698 C1710 0.950 . S
H1699 C1711 0.950 . S
C1700 H1692 0.950 . S
C1700 C1701 1.386 . S
C1700 C1702 1.391 . S
C1701 C1700 1.386 . S
C1701 C1705 1.393 . S
C1702 H1694 0.950 . S
C1702 C1700 1.391 . S
C1702 C1703 1.400 . S
C1703 C1702 1.400 . S
C1703 C1704 1.398 . S
C1703 C1709 1.491 . S
C1704 H1695 0.950 . S
C1704 C1703 1.398 . S
C1704 C1705 1.391 . S
C1705 H1693 0.950 . S
C1705 C1701 1.393 . S
C1705 C1704 1.391 . S
C1706 H1696 0.950 . S
C1706 C1707 1.386 . S
C1706 C1708 1.391 . S
C1707 C1706 1.386 . S
C1707 C1711 1.393 . S
C1708 H1697 0.950 . S
C1708 C1706 1.391 . S
C1708 C1709 1.400 . S
C1709 C1703 1.491 . S
C1709 C1708 1.400 . S
C1709 C1710 1.398 . S
C1710 H1698 0.950 . S
C1710 C1709 1.398 . S
C1710 C1711 1.391 . S
C1711 H1699 0.950 . S
C1711 C1707 1.393 . S
C1711 C1710 1.391 . S
H1712 C1720 0.950 . S
H1713 C1725 0.950 . S
H1714 C1722 0.950 . S
H1715 C1724 0.950 . S
H1716 C1726 0.950 . S
H1717 C1728 0.950 . S
H1718 C1730 0.950 . S
H1719 C1731 0.950 . S
C1720 H1712 0.950 . S
C1720 C1721 1.386 . S
C1720 C1722 1.391 . S
C1721 C1720 1.386 . S
C1721 C1725 1.393 1_545 S
C1722 H1714 0.950 . S
C1722 C1720 1.391 . S
C1722 C1723 1.400 . S
C1723 C1722 1.400 . S
C1723 C1724 1.398 1_545 S
C1723 C1729 1.491 1_545 S
C1724 H1715 0.950 . S
C1724 C1723 1.398 1_565 S
C1724 C1725 1.391 . S
C1725 H1713 0.950 . S
C1725 C1721 1.393 1_565 S
C1725 C1724 1.391 . S
C1726 H1716 0.950 . S
C1726 C1727 1.386 . S
C1726 C1728 1.391 . S
C1727 C1726 1.386 . S
C1727 C1731 1.393 1_565 S
C1728 H1717 0.950 . S
C1728 C1726 1.391 . S
C1728 C1729 1.413 . S
C1729 C1723 1.491 1_565 S
C1729 C1728 1.413 . S
C1729 C1730 1.386 1_565 S
C1730 H1718 0.950 . S
C1730 C1729 1.386 1_545 S
C1730 C1731 1.391 . S
C1731 H1719 0.950 . S
C1731 C1727 1.393 1_545 S
C1731 C1730 1.391 . S
H1732 C1740 0.950 . S
H1733 C1745 0.950 . S
H1734 C1742 0.950 . S
H1735 C1744 0.950 . S
H1736 C1746 0.950 . S
H1737 C1748 0.950 . S
H1738 C1750 0.950 . S
H1739 C1751 0.950 . S
C1740 H1732 0.950 . S
C1740 C1741 1.386 . S
C1740 C1742 1.391 . S
C1741 C1740 1.386 . S
C1741 C1745 1.393 . S
C1742 H1734 0.950 . S
C1742 C1740 1.391 . S
C1742 C1743 1.400 . S
C1743 C1742 1.400 . S
C1743 C1744 1.398 . S
C1743 C1749 1.491 . S
C1744 H1735 0.950 . S
C1744 C1743 1.398 . S
C1744 C1745 1.391 . S
C1745 H1733 0.950 . S
C1745 C1741 1.393 . S
C1745 C1744 1.391 . S
C1746 H1736 0.950 . S
C1746 C1747 1.386 . S
C1746 C1748 1.391 . S
C1747 C1746 1.386 . S
C1747 C1751 1.393 . S
C1748 H1737 0.950 . S
C1748 C1746 1.391 . S
C1748 C1749 1.400 . S
C1749 C1743 1.491 . S
C1749 C1748 1.400 . S
C1749 C1750 1.398 . S
C1750 H1738 0.950 . S
C1750 C1749 1.398 . S
C1750 C1751 1.391 . S
C1751 H1739 0.950 . S
C1751 C1747 1.393 . S
C1751 C1750 1.391 . S
H1752 C1760 0.950 . S
H1753 C1765 0.950 . S
H1754 C1762 0.950 . S
H1755 C1764 0.950 1_556 S
H1756 C1766 0.950 . S
H1757 C1768 0.950 . S
H1758 C1770 0.950 . S
H1759 C1771 0.950 . S
C1760 H1752 0.950 . S
C1760 C1761 1.386 . S
C1760 C1762 1.391 . S
C1761 C1760 1.386 . S
C1761 C1765 1.393 . S
C1762 H1754 0.950 . S
C1762 C1760 1.391 . S
C1762 C1763 1.400 . S
C1763 C1762 1.400 . S
C1763 C1764 1.398 . S
C1763 C1769 1.491 . S
C1764 H1755 0.950 1_554 S
C1764 C1763 1.398 . S
C1764 C1765 1.391 . S
C1765 H1753 0.950 . S
C1765 C1761 1.393 . S
C1765 C1764 1.391 . S
C1766 H1756 0.950 . S
C1766 C1767 1.386 . S
C1766 C1768 1.391 . S
C1767 C1766 1.386 . S
C1767 C1771 1.393 1_556 S
C1768 H1757 0.950 . S
C1768 C1766 1.391 . S
C1768 C1769 1.400 1_556 S
C1769 C1763 1.491 . S
C1769 C1768 1.400 1_554 S
C1769 C1770 1.398 . S
C1770 H1758 0.950 . S
C1770 C1769 1.398 . S
C1770 C1771 1.391 . S
C1771 H1759 0.950 . S
C1771 C1767 1.393 1_554 S
C1771 C1770 1.391 . S
H1772 C1780 0.950 . S
H1773 C1785 0.950 1_556 S
H1774 C1782 0.950 . S
H1775 C1784 0.950 1_556 S
H1776 C1786 0.950 1_556 S
H1777 C1788 0.950 1_556 S
H1778 C1790 0.950 . S
H1779 C1791 0.950 . S
C1780 H1772 0.950 . S
C1780 C1781 1.386 . S
C1780 C1782 1.391 . S
C1781 C1780 1.386 . S
C1781 C1785 1.393 . S
C1782 H1774 0.950 . S
C1782 C1780 1.391 . S
C1782 C1783 1.400 . S
C1783 C1782 1.400 . S
C1783 C1784 1.398 . S
C1783 C1789 1.491 . S
C1784 H1775 0.950 1_554 S
C1784 C1783 1.398 . S
C1784 C1785 1.391 . S
C1785 H1773 0.950 1_554 S
C1785 C1781 1.393 . S
C1785 C1784 1.391 . S
C1786 H1776 0.950 1_554 S
C1786 C1787 1.386 . S
C1786 C1788 1.391 . S
C1787 C1786 1.386 . S
C1787 C1791 1.393 . S
C1788 H1777 0.950 1_554 S
C1788 C1786 1.391 . S
C1788 C1789 1.400 . S
C1789 C1783 1.491 . S
C1789 C1788 1.400 . S
C1789 C1790 1.398 . S
C1790 H1778 0.950 . S
C1790 C1789 1.398 . S
C1790 C1791 1.391 . S
C1791 H1779 0.950 . S
C1791 C1787 1.393 . S
C1791 C1790 1.391 . S
H1792 C1800 0.950 . S
H1793 C1805 0.950 . S
H1794 C1802 0.950 . S
H1795 C1804 0.950 . S
H1796 C1806 0.950 . S
H1797 C1808 0.950 . S
H1798 C1810 0.950 . S
H1799 C1811 0.950 . S
C1800 H1792 0.950 . S
C1800 C1801 1.386 . S
C1800 C1802 1.391 . S
C1801 C1800 1.386 . S
C1801 C1805 1.393 . S
C1802 H1794 0.950 . S
C1802 C1800 1.391 . S
C1802 C1803 1.400 . S
C1803 C1802 1.400 . S
C1803 C1804 1.398 . S
C1803 C1809 1.491 . S
C1804 H1795 0.950 . S
C1804 C1803 1.398 . S
C1804 C1805 1.391 . S
C1805 H1793 0.950 . S
C1805 C1801 1.393 . S
C1805 C1804 1.391 . S
C1806 H1796 0.950 . S
C1806 C1807 1.386 . S
C1806 C1808 1.391 . S
C1807 C1806 1.386 . S
C1807 C1811 1.393 . S
C1808 H1797 0.950 . S
C1808 C1806 1.391 . S
C1808 C1809 1.400 . S
C1809 C1803 1.491 . S
C1809 C1808 1.400 . S
C1809 C1810 1.398 . S
C1810 H1798 0.950 . S
C1810 C1809 1.398 . S
C1810 C1811 1.391 . S
C1811 H1799 0.950 . S
C1811 C1807 1.393 . S
C1811 C1810 1.391 . S
H1812 C1820 0.950 . S
H1813 C1825 0.950 . S
H1814 C1822 0.950 . S
H1815 C1824 0.950 . S
H1816 C1826 0.950 . S
H1817 C1828 0.950 . S
H1818 C1830 0.950 . S
H1819 C1831 0.950 . S
C1820 H1812 0.950 . S
C1820 C1821 1.386 . S
C1820 C1822 1.391 . S
C1821 C1820 1.386 . S
C1821 C1825 1.393 . S
C1822 H1814 0.950 . S
C1822 C1820 1.391 . S
C1822 C1823 1.400 . S
C1823 C1822 1.400 . S
C1823 C1824 1.398 . S
C1823 C1829 1.491 . S
C1824 H1815 0.950 . S
C1824 C1823 1.398 . S
C1824 C1825 1.391 . S
C1825 H1813 0.950 . S
C1825 C1821 1.393 . S
C1825 C1824 1.391 . S
C1826 H1816 0.950 . S
C1826 C1827 1.386 . S
C1826 C1828 1.391 . S
C1827 C1826 1.386 . S
C1827 C1831 1.393 . S
C1828 H1817 0.950 . S
C1828 C1826 1.391 . S
C1828 C1829 1.400 . S
C1829 C1823 1.491 . S
C1829 C1828 1.400 . S
C1829 C1830 1.398 . S
C1830 H1818 0.950 . S
C1830 C1829 1.398 . S
C1830 C1831 1.391 . S
C1831 H1819 0.950 . S
C1831 C1827 1.393 . S
C1831 C1830 1.391 . S
H1832 C1840 0.950 . S
H1833 C1845 0.950 . S
H1834 C1842 0.950 . S
H1835 C1844 0.950 . S
H1836 C1846 0.950 . S
H1837 C1848 0.950 . S
H1838 C1850 0.950 . S
H1839 C1851 0.950 . S
C1840 H1832 0.950 . S
C1840 C1841 1.386 1_565 S
C1840 C1842 1.391 . S
C1841 C1840 1.386 1_545 S
C1841 C1845 1.393 . S
C1842 H1834 0.950 . S
C1842 C1840 1.391 . S
C1842 C1843 1.400 . S
C1843 C1842 1.400 . S
C1843 C1844 1.398 . S
C1843 C1849 1.491 . S
C1844 H1835 0.950 . S
C1844 C1843 1.398 . S
C1844 C1845 1.391 1_565 S
C1845 H1833 0.950 . S
C1845 C1841 1.393 . S
C1845 C1844 1.391 1_545 S
C1846 H1836 0.950 . S
C1846 C1847 1.386 . S
C1846 C1848 1.391 . S
C1847 C1846 1.386 . S
C1847 C1851 1.393 . S
C1848 H1837 0.950 . S
C1848 C1846 1.391 . S
C1848 C1849 1.400 . S
C1849 C1843 1.491 . S
C1849 C1848 1.400 . S
C1849 C1850 1.398 . S
C1850 H1838 0.950 . S
C1850 C1849 1.398 . S
C1850 C1851 1.391 . S
C1851 H1839 0.950 . S
C1851 C1847 1.393 . S
C1851 C1850 1.391 . S
H1852 C1860 0.950 . S
H1853 C1865 0.950 . S
H1854 C1862 0.950 . S
H1855 C1864 0.950 . S
H1856 C1866 0.950 . S
H1857 C1868 0.950 . S
H1858 C1870 0.950 . S
H1859 C1871 0.950 . S
C1860 H1852 0.950 . S
C1860 C1861 1.386 . S
C1860 C1862 1.391 . S
C1861 C1860 1.386 . S
C1861 C1865 1.393 . S
C1862 H1854 0.950 . S
C1862 C1860 1.391 . S
C1862 C1863 1.400 . S
C1863 C1862 1.400 . S
C1863 C1864 1.398 . S
C1863 C1869 1.491 . S
C1864 H1855 0.950 . S
C1864 C1863 1.398 . S
C1864 C1865 1.391 . S
C1865 H1853 0.950 . S
C1865 C1861 1.393 . S
C1865 C1864 1.391 . S
C1866 H1856 0.950 . S
C1866 C1867 1.386 . S
C1866 C1868 1.391 . S
C1867 C1866 1.386 . S
C1867 C1871 1.393 . S
C1868 H1857 0.950 . S
C1868 C1866 1.391 . S
C1868 C1869 1.400 . S
C1869 C1863 1.491 . S
C1869 C1868 1.400 . S
C1869 C1870 1.398 . S
C1870 H1858 0.950 . S
C1870 C1869 1.398 . S
C1870 C1871 1.391 . S
C1871 H1859 0.950 . S
C1871 C1867 1.393 . S
C1871 C1870 1.391 . S
H1872 C1880 0.950 . S
H1873 C1885 0.950 . S
H1874 C1882 0.950 . S
H1875 C1884 0.950 . S
H1876 C1886 0.950 . S
H1877 C1888 0.950 . S
H1878 C1890 0.950 . S
H1879 C1891 0.950 . S
C1880 H1872 0.950 . S
C1880 C1881 1.386 . S
C1880 C1882 1.391 . S
C1881 C1880 1.386 . S
C1881 C1885 1.393 . S
C1882 H1874 0.950 . S
C1882 C1880 1.391 . S
C1882 C1883 1.400 . S
C1883 C1882 1.400 . S
C1883 C1884 1.398 . S
C1883 C1889 1.491 . S
C1884 H1875 0.950 . S
C1884 C1883 1.398 . S
C1884 C1885 1.391 . S
C1885 H1873 0.950 . S
C1885 C1881 1.393 . S
C1885 C1884 1.391 . S
C1886 H1876 0.950 . S
C1886 C1887 1.386 . S
C1886 C1888 1.391 . S
C1887 C1886 1.386 . S
C1887 C1891 1.393 . S
C1888 H1877 0.950 . S
C1888 C1886 1.391 . S
C1888 C1889 1.400 . S
C1889 C1883 1.491 . S
C1889 C1888 1.400 . S
C1889 C1890 1.398 . S
C1890 H1878 0.950 . S
C1890 C1889 1.398 . S
C1890 C1891 1.391 . S
C1891 H1879 0.950 . S
C1891 C1887 1.393 . S
C1891 C1890 1.391 . S
H1892 C1900 0.950 . S
H1893 C1905 0.950 . S
H1894 C1902 0.950 . S
H1895 C1904 0.950 . S
H1896 C1906 0.950 . S
H1897 C1908 0.950 . S
H1898 C1910 0.950 . S
H1899 C1911 0.950 . S
C1900 H1892 0.950 . S
C1900 C1901 1.386 . S
C1900 C1902 1.391 . S
C1901 C1900 1.386 . S
C1901 C1905 1.393 . S
C1902 H1894 0.950 . S
C1902 C1900 1.391 . S
C1902 C1903 1.400 . S
C1903 C1902 1.400 . S
C1903 C1904 1.398 . S
C1903 C1909 1.491 . S
C1904 H1895 0.950 . S
C1904 C1903 1.398 . S
C1904 C1905 1.391 . S
C1905 H1893 0.950 . S
C1905 C1901 1.393 . S
C1905 C1904 1.391 . S
C1906 H1896 0.950 . S
C1906 C1907 1.386 . S
C1906 C1908 1.391 . S
C1907 C1906 1.386 . S
C1907 C1911 1.393 . S
C1908 H1897 0.950 . S
C1908 C1906 1.391 . S
C1908 C1909 1.400 . S
C1909 C1903 1.491 . S
C1909 C1908 1.400 . S
C1909 C1910 1.398 . S
C1910 H1898 0.950 . S
C1910 C1909 1.398 . S
C1910 C1911 1.391 . S
C1911 H1899 0.950 . S
C1911 C1907 1.393 . S
C1911 C1910 1.391 . S
H1912 C1920 0.950 . S
H1913 C1925 0.950 . S
H1914 C1922 0.950 . S
H1915 C1924 0.950 . S
H1916 C1926 0.950 . S
H1917 C1928 0.950 . S
H1918 C1930 0.950 . S
H1919 C1931 0.950 . S
C1920 H1912 0.950 . S
C1920 C1921 1.386 . S
C1920 C1922 1.391 . S
C1921 C1920 1.386 . S
C1921 C1925 1.393 . S
C1922 H1914 0.950 . S
C1922 C1920 1.391 . S
C1922 C1923 1.400 . S
C1923 C1922 1.400 . S
C1923 C1924 1.398 . S
C1923 C1929 1.491 . S
C1924 H1915 0.950 . S
C1924 C1923 1.398 . S
C1924 C1925 1.391 . S
C1925 H1913 0.950 . S
C1925 C1921 1.393 . S
C1925 C1924 1.391 . S
C1926 H1916 0.950 . S
C1926 C1927 1.386 . S
C1926 C1928 1.391 . S
C1927 C1926 1.386 . S
C1927 C1931 1.393 . S
C1928 H1917 0.950 . S
C1928 C1926 1.391 . S
C1928 C1929 1.400 . S
C1929 C1923 1.491 . S
C1929 C1928 1.400 . S
C1929 C1930 1.398 . S
C1930 H1918 0.950 . S
C1930 C1929 1.398 . S
C1930 C1931 1.391 . S
C1931 H1919 0.950 . S
C1931 C1927 1.393 . S
C1931 C1930 1.391 . S
H1932 C1940 0.950 . S
H1933 C1945 0.950 . S
H1934 C1942 0.950 . S
H1935 C1944 0.950 . S
H1936 C1946 0.950 . S
H1937 C1948 0.950 . S
H1938 C1950 0.950 . S
H1939 C1951 0.950 . S
C1940 H1932 0.950 . S
C1940 C1941 1.386 . S
C1940 C1942 1.391 . S
C1941 C1940 1.386 . S
C1941 C1945 1.393 . S
C1942 H1934 0.950 . S
C1942 C1940 1.391 . S
C1942 C1943 1.400 . S
C1943 C1942 1.400 . S
C1943 C1944 1.398 . S
C1943 C1949 1.491 . S
C1944 H1935 0.950 . S
C1944 C1943 1.398 . S
C1944 C1945 1.391 . S
C1945 H1933 0.950 . S
C1945 C1941 1.393 . S
C1945 C1944 1.391 . S
C1946 H1936 0.950 . S
C1946 C1947 1.386 . S
C1946 C1948 1.391 . S
C1947 C1946 1.386 . S
C1947 C1951 1.393 . S
C1948 H1937 0.950 . S
C1948 C1946 1.391 . S
C1948 C1949 1.400 . S
C1949 C1943 1.491 . S
C1949 C1948 1.400 . S
C1949 C1950 1.398 . S
C1950 H1938 0.950 . S
C1950 C1949 1.398 . S
C1950 C1951 1.391 . S
C1951 H1939 0.950 . S
C1951 C1947 1.393 . S
C1951 C1950 1.391 . S
H1952 C1960 0.950 . S
H1953 C1965 0.950 1_655 S
H1954 C1962 0.950 . S
H1955 C1964 0.950 1_655 S
H1956 C1966 0.950 . S
H1957 C1968 0.950 1_655 S
H1958 C1970 0.950 . S
H1959 C1971 0.950 . S
C1960 H1952 0.950 . S
C1960 C1961 1.386 . S
C1960 C1962 1.391 . S
C1961 C1960 1.386 . S
C1961 C1965 1.393 . S
C1962 H1954 0.950 . S
C1962 C1960 1.391 . S
C1962 C1963 1.400 . S
C1963 C1962 1.400 . S
C1963 C1964 1.398 . S
C1963 C1969 1.491 . S
C1964 H1955 0.950 1_455 S
C1964 C1963 1.398 . S
C1964 C1965 1.391 . S
C1965 H1953 0.950 1_455 S
C1965 C1961 1.393 . S
C1965 C1964 1.391 . S
C1966 H1956 0.950 . S
C1966 C1967 1.386 . S
C1966 C1968 1.391 1_554 S
C1967 C1966 1.386 . S
C1967 C1971 1.393 . S
C1968 H1957 0.950 1_455 S
C1968 C1966 1.391 1_556 S
C1968 C1969 1.400 . S
C1969 C1963 1.491 . S
C1969 C1968 1.400 . S
C1969 C1970 1.398 1_556 S
C1970 H1958 0.950 . S
C1970 C1969 1.398 1_554 S
C1970 C1971 1.391 . S
C1971 H1959 0.950 . S
C1971 C1967 1.393 . S
C1971 C1970 1.391 . S
H1972 C1980 0.950 . S
H1973 C1985 0.950 . S
H1974 C1982 0.950 . S
H1975 C1984 0.950 . S
H1976 C1986 0.950 . S
H1977 C1988 0.950 . S
H1978 C1990 0.950 . S
H1979 C1991 0.950 . S
C1980 H1972 0.950 . S
C1980 C1981 1.386 . S
C1980 C1982 1.391 1_455 S
C1981 C1980 1.386 . S
C1981 C1985 1.393 . S
C1982 H1974 0.950 . S
C1982 C1980 1.391 1_655 S
C1982 C1983 1.400 . S
C1983 C1982 1.400 . S
C1983 C1984 1.398 . S
C1983 C1989 1.491 . S
C1984 H1975 0.950 . S
C1984 C1983 1.398 . S
C1984 C1985 1.391 1_655 S
C1985 H1973 0.950 . S
C1985 C1981 1.393 . S
C1985 C1984 1.391 1_455 S
C1986 H1976 0.950 . S
C1986 C1987 1.386 . S
C1986 C1988 1.391 . S
C1987 C1986 1.386 . S
C1987 C1991 1.393 . S
C1988 H1977 0.950 . S
C1988 C1986 1.391 . S
C1988 C1989 1.400 . S
C1989 C1983 1.491 . S
C1989 C1988 1.400 . S
C1989 C1990 1.398 . S
C1990 H1978 0.950 . S
C1990 C1989 1.398 . S
C1990 C1991 1.391 . S
C1991 H1979 0.950 . S
C1991 C1987 1.393 . S
C1991 C1990 1.391 . S
H1992 C2000 0.950 . S
H1993 C2005 0.950 . S
H1994 C2002 0.950 . S
H1995 C2004 0.950 . S
H1996 C2006 0.950 . S
H1997 C2008 0.950 . S
H1998 C2010 0.950 . S
H1999 C2011 0.950 . S
C2000 H1992 0.950 . S
C2000 C2001 1.386 . S
C2000 C2002 1.391 . S
C2001 C2000 1.386 . S
C2001 C2005 1.393 . S
C2002 H1994 0.950 . S
C2002 C2000 1.391 . S
C2002 C2003 1.400 . S
C2003 C2002 1.400 . S
C2003 C2004 1.398 . S
C2003 C2009 1.491 . S
C2004 H1995 0.950 . S
C2004 C2003 1.398 . S
C2004 C2005 1.391 . S
C2005 H1993 0.950 . S
C2005 C2001 1.393 . S
C2005 C2004 1.391 . S
C2006 H1996 0.950 . S
C2006 C2007 1.386 . S
C2006 C2008 1.391 . S
C2007 C2006 1.386 . S
C2007 C2011 1.393 . S
C2008 H1997 0.950 . S
C2008 C2006 1.391 . S
C2008 C2009 1.400 . S
C2009 C2003 1.491 . S
C2009 C2008 1.400 . S
C2009 C2010 1.398 . S
C2010 H1998 0.950 . S
C2010 C2009 1.398 . S
C2010 C2011 1.391 . S
C2011 H1999 0.950 . S
C2011 C2007 1.393 . S
C2011 C2010 1.391 . S
H2012 C2020 0.950 . S
H2013 C2025 0.950 . S
H2014 C2022 0.950 1_655 S
H2015 C2024 0.950 . S
H2016 C2026 0.950 . S
H2017 C2028 0.960 . S
H2018 C2030 0.950 . S
H2019 C2031 0.950 . S
C2020 H2012 0.950 . S
C2020 C2021 1.386 . S
C2020 C2022 1.391 . S
C2021 C2020 1.386 . S
C2021 C2025 1.393 . S
C2022 H2014 0.950 1_455 S
C2022 C2020 1.391 . S
C2022 C2023 1.400 . S
C2023 C2022 1.400 . S
C2023 C2024 1.398 . S
C2023 C2029 1.491 1_455 S
C2024 H2015 0.950 . S
C2024 C2023 1.398 . S
C2024 C2025 1.391 . S
C2025 H2013 0.950 . S
C2025 C2021 1.393 . S
C2025 C2024 1.391 . S
C2026 H2016 0.950 . S
C2026 C2027 1.386 . S
C2026 C2028 1.391 . S
C2027 C2026 1.386 . S
C2027 C2031 1.393 . S
C2028 H2017 0.960 . S
C2028 C2026 1.391 . S
C2028 C2029 1.400 . S
C2029 C2023 1.491 1_655 S
C2029 C2028 1.400 . S
C2029 C2030 1.398 . S
C2030 H2018 0.950 . S
C2030 C2029 1.398 . S
C2030 C2031 1.391 . S
C2031 H2019 0.950 . S
C2031 C2027 1.393 . S
C2031 C2030 1.391 . S
H2032 C2040 0.950 . S
H2033 C2045 0.950 . S
H2034 C2042 0.950 . S
H2035 C2044 0.950 . S
H2036 C2046 0.950 . S
H2037 C2048 0.950 . S
H2038 C2050 0.950 . S
H2039 C2051 0.950 1_655 S
C2040 H2032 0.950 . S
C2040 C2041 1.386 . S
C2040 C2042 1.391 . S
C2041 C2040 1.386 . S
C2041 C2045 1.393 1_655 S
C2042 H2034 0.950 . S
C2042 C2040 1.391 . S
C2042 C2043 1.400 1_655 S
C2043 C2042 1.400 1_455 S
C2043 C2044 1.398 . S
C2043 C2049 1.491 . S
C2044 H2035 0.950 . S
C2044 C2043 1.398 . S
C2044 C2045 1.391 . S
C2045 H2033 0.950 . S
C2045 C2041 1.393 1_455 S
C2045 C2044 1.391 . S
C2046 H2036 0.950 . S
C2046 C2047 1.386 . S
C2046 C2048 1.391 . S
C2047 C2046 1.386 . S
C2047 C2051 1.393 . S
C2048 H2037 0.950 . S
C2048 C2046 1.391 . S
C2048 C2049 1.400 . S
C2049 C2043 1.491 . S
C2049 C2048 1.400 . S
C2049 C2050 1.398 1_455 S
C2050 H2038 0.950 . S
C2050 C2049 1.398 1_655 S
C2050 C2051 1.391 1_655 S
C2051 H2039 0.950 1_455 S
C2051 C2047 1.393 . S
C2051 C2050 1.391 1_455 S
H2052 C2060 0.950 . S
H2053 C2065 0.950 . S
H2054 C2062 0.950 . S
H2055 C2064 0.950 . S
H2056 C2066 0.950 . S
H2057 C2068 0.950 . S
H2058 C2070 0.950 . S
H2059 C2071 0.950 . S
C2060 H2052 0.950 . S
C2060 C2061 1.386 . S
C2060 C2062 1.391 . S
C2061 C2060 1.386 . S
C2061 C2065 1.393 . S
C2062 H2054 0.950 . S
C2062 C2060 1.391 . S
C2062 C2063 1.400 . S
C2063 C2062 1.400 . S
C2063 C2064 1.398 . S
C2063 C2069 1.491 . S
C2064 H2055 0.950 . S
C2064 C2063 1.398 . S
C2064 C2065 1.391 . S
C2065 H2053 0.950 . S
C2065 C2061 1.393 . S
C2065 C2064 1.391 . S
C2066 H2056 0.950 . S
C2066 C2067 1.386 . S
C2066 C2068 1.391 . S
C2067 C2066 1.386 . S
C2067 C2071 1.393 . S
C2068 H2057 0.950 . S
C2068 C2066 1.391 . S
C2068 C2069 1.400 . S
C2069 C2063 1.491 . S
C2069 C2068 1.400 . S
C2069 C2070 1.398 . S
C2070 H2058 0.950 . S
C2070 C2069 1.398 . S
C2070 C2071 1.391 . S
C2071 H2059 0.950 . S
C2071 C2067 1.393 . S
C2071 C2070 1.391 . S
H2072 C2080 0.950 . S
H2073 C2085 0.950 . S
H2074 C2082 0.950 . S
H2075 C2084 0.950 . S
H2076 C2086 0.950 . S
H2077 C2088 0.950 . S
H2078 C2090 0.950 . S
H2079 C2091 0.950 . S
C2080 H2072 0.950 . S
C2080 C2081 1.386 . S
C2080 C2082 1.391 . S
C2081 C2080 1.386 . S
C2081 C2085 1.393 . S
C2082 H2074 0.950 . S
C2082 C2080 1.391 . S
C2082 C2083 1.400 . S
C2083 C2082 1.400 . S
C2083 C2084 1.398 . S
C2083 C2089 1.491 . S
C2084 H2075 0.950 . S
C2084 C2083 1.398 . S
C2084 C2085 1.391 . S
C2085 H2073 0.950 . S
C2085 C2081 1.393 . S
C2085 C2084 1.391 . S
C2086 H2076 0.950 . S
C2086 C2087 1.386 . S
C2086 C2088 1.391 . S
C2087 C2086 1.386 . S
C2087 C2091 1.393 . S
C2088 H2077 0.950 . S
C2088 C2086 1.391 . S
C2088 C2089 1.400 . S
C2089 C2083 1.491 . S
C2089 C2088 1.400 . S
C2089 C2090 1.398 . S
C2090 H2078 0.950 . S
C2090 C2089 1.398 . S
C2090 C2091 1.391 . S
C2091 H2079 0.950 . S
C2091 C2087 1.393 . S
C2091 C2090 1.391 . S
H2092 C2100 0.950 . S
H2093 C2105 0.950 . S
H2094 C2102 0.950 . S
H2095 C2104 0.950 . S
H2096 C2106 0.950 . S
H2097 C2108 0.950 . S
H2098 C2110 0.950 . S
H2099 C2111 0.950 . S
C2100 H2092 0.950 . S
C2100 C2101 1.386 . S
C2100 C2102 1.391 . S
C2101 C2100 1.386 . S
C2101 C2105 1.393 . S
C2102 H2094 0.950 . S
C2102 C2100 1.391 . S
C2102 C2103 1.400 . S
C2103 C2102 1.400 . S
C2103 C2104 1.398 . S
C2103 C2109 1.491 . S
C2104 H2095 0.950 . S
C2104 C2103 1.398 . S
C2104 C2105 1.391 . S
C2105 H2093 0.950 . S
C2105 C2101 1.393 . S
C2105 C2104 1.391 . S
C2106 H2096 0.950 . S
C2106 C2107 1.386 . S
C2106 C2108 1.391 . S
C2107 C2106 1.386 . S
C2107 C2111 1.393 . S
C2108 H2097 0.950 . S
C2108 C2106 1.391 . S
C2108 C2109 1.400 . S
C2109 C2103 1.491 . S
C2109 C2108 1.400 . S
C2109 C2110 1.398 . S
C2110 H2098 0.950 . S
C2110 C2109 1.398 . S
C2110 C2111 1.391 . S
C2111 H2099 0.950 . S
C2111 C2107 1.393 . S
C2111 C2110 1.391 . S
H2112 C2120 0.950 . S
H2113 C2125 0.950 . S
H2114 C2122 0.950 . S
H2115 C2124 0.950 . S
H2116 C2126 0.950 . S
H2117 C2128 0.950 . S
H2118 C2130 0.950 . S
H2119 C2131 0.950 . S
C2120 H2112 0.950 . S
C2120 C2121 1.386 . S
C2120 C2122 1.391 . S
C2121 C2120 1.386 . S
C2121 C2125 1.393 . S
C2122 H2114 0.950 . S
C2122 C2120 1.391 . S
C2122 C2123 1.400 . S
C2123 C2122 1.400 . S
C2123 C2124 1.398 . S
C2123 C2129 1.491 . S
C2124 H2115 0.950 . S
C2124 C2123 1.398 . S
C2124 C2125 1.391 . S
C2125 H2113 0.950 . S
C2125 C2121 1.393 . S
C2125 C2124 1.391 . S
C2126 H2116 0.950 . S
C2126 C2127 1.386 . S
C2126 C2128 1.391 . S
C2127 C2126 1.386 . S
C2127 C2131 1.393 . S
C2128 H2117 0.950 . S
C2128 C2126 1.391 . S
C2128 C2129 1.400 . S
C2129 C2123 1.491 . S
C2129 C2128 1.400 . S
C2129 C2130 1.398 . S
C2130 H2118 0.950 . S
C2130 C2129 1.398 . S
C2130 C2131 1.391 . S
C2131 H2119 0.950 . S
C2131 C2127 1.393 . S
C2131 C2130 1.391 . S
H2132 C2140 0.950 . S
H2133 C2145 0.950 . S
H2134 C2142 0.950 . S
H2135 C2144 0.950 . S
H2136 C2146 0.950 . S
H2137 C2148 0.950 . S
H2138 C2150 0.950 . S
H2139 C2151 0.950 . S
C2140 H2132 0.950 . S
C2140 C2141 1.386 . S
C2140 C2142 1.391 . S
C2141 C2140 1.386 . S
C2141 C2145 1.393 . S
C2142 H2134 0.950 . S
C2142 C2140 1.391 . S
C2142 C2143 1.400 . S
C2143 C2142 1.400 . S
C2143 C2144 1.398 . S
C2143 C2149 1.491 . S
C2144 H2135 0.950 . S
C2144 C2143 1.398 . S
C2144 C2145 1.391 . S
C2145 H2133 0.950 . S
C2145 C2141 1.393 . S
C2145 C2144 1.391 . S
C2146 H2136 0.950 . S
C2146 C2147 1.386 . S
C2146 C2148 1.391 . S
C2147 C2146 1.386 . S
C2147 C2151 1.393 . S
C2148 H2137 0.950 . S
C2148 C2146 1.391 . S
C2148 C2149 1.400 . S
C2149 C2143 1.491 . S
C2149 C2148 1.400 . S
C2149 C2150 1.398 . S
C2150 H2138 0.950 . S
C2150 C2149 1.398 . S
C2150 C2151 1.391 . S
C2151 H2139 0.950 . S
C2151 C2147 1.393 . S
C2151 C2150 1.391 . S
H2152 C2160 0.950 . S
H2153 C2165 0.950 . S
H2154 C2162 0.950 . S
H2155 C2164 0.950 . S
H2156 C2166 0.950 . S
H2157 C2168 0.950 . S
H2158 C2170 0.950 . S
H2159 C2171 0.950 . S
C2160 H2152 0.950 . S
C2160 C2161 1.386 . S
C2160 C2162 1.391 . S
C2161 C2160 1.386 . S
C2161 C2165 1.393 . S
C2162 H2154 0.950 . S
C2162 C2160 1.391 . S
C2162 C2163 1.400 . S
C2163 C2162 1.400 . S
C2163 C2164 1.398 . S
C2163 C2169 1.491 . S
C2164 H2155 0.950 . S
C2164 C2163 1.398 . S
C2164 C2165 1.391 . S
C2165 H2153 0.950 . S
C2165 C2161 1.393 . S
C2165 C2164 1.391 . S
C2166 H2156 0.950 . S
C2166 C2167 1.386 . S
C2166 C2168 1.391 . S
C2167 C2166 1.386 . S
C2167 C2171 1.393 . S
C2168 H2157 0.950 . S
C2168 C2166 1.391 . S
C2168 C2169 1.400 . S
C2169 C2163 1.491 . S
C2169 C2168 1.400 . S
C2169 C2170 1.398 . S
C2170 H2158 0.950 . S
C2170 C2169 1.398 . S
C2170 C2171 1.391 . S
C2171 H2159 0.950 . S
C2171 C2167 1.393 . S
C2171 C2170 1.391 . S
H2172 C2180 0.950 . S
H2173 C2185 0.950 . S
H2174 C2182 0.950 . S
H2175 C2184 0.950 . S
H2176 C2186 0.950 . S
H2177 C2188 0.950 . S
H2178 C2190 0.950 . S
H2179 C2191 0.950 . S
C2180 H2172 0.950 . S
C2180 C2181 1.386 . S
C2180 C2182 1.391 . S
C2181 C2180 1.386 . S
C2181 C2185 1.393 . S
C2182 H2174 0.950 . S
C2182 C2180 1.391 . S
C2182 C2183 1.400 . S
C2183 C2182 1.400 . S
C2183 C2184 1.398 . S
C2183 C2189 1.491 . S
C2184 H2175 0.950 . S
C2184 C2183 1.398 . S
C2184 C2185 1.391 . S
C2185 H2173 0.950 . S
C2185 C2181 1.393 . S
C2185 C2184 1.391 . S
C2186 H2176 0.950 . S
C2186 C2187 1.386 . S
C2186 C2188 1.391 . S
C2187 C2186 1.386 . S
C2187 C2191 1.393 . S
C2188 H2177 0.950 . S
C2188 C2186 1.391 . S
C2188 C2189 1.400 . S
C2189 C2183 1.491 . S
C2189 C2188 1.400 . S
C2189 C2190 1.398 . S
C2190 H2178 0.950 . S
C2190 C2189 1.398 . S
C2190 C2191 1.391 . S
C2191 H2179 0.950 . S
C2191 C2187 1.393 . S
C2191 C2190 1.391 . S
H2192 C2200 0.950 . S
H2193 C2205 0.950 . S
H2194 C2202 0.950 . S
H2195 C2204 0.950 . S
H2196 C2206 0.950 . S
H2197 C2208 0.950 . S
H2198 C2210 0.950 . S
H2199 C2211 0.950 . S
C2200 H2192 0.950 . S
C2200 C2201 1.386 . S
C2200 C2202 1.391 . S
C2201 C2200 1.386 . S
C2201 C2205 1.393 . S
C2202 H2194 0.950 . S
C2202 C2200 1.391 . S
C2202 C2203 1.400 . S
C2203 C2202 1.400 . S
C2203 C2204 1.398 . S
C2203 C2209 1.491 . S
C2204 H2195 0.950 . S
C2204 C2203 1.398 . S
C2204 C2205 1.391 . S
C2205 H2193 0.950 . S
C2205 C2201 1.393 . S
C2205 C2204 1.391 . S
C2206 H2196 0.950 . S
C2206 C2207 1.386 . S
C2206 C2208 1.391 . S
C2207 C2206 1.386 . S
C2207 C2211 1.393 . S
C2208 H2197 0.950 . S
C2208 C2206 1.391 . S
C2208 C2209 1.400 . S
C2209 C2203 1.491 . S
C2209 C2208 1.400 . S
C2209 C2210 1.398 . S
C2210 H2198 0.950 . S
C2210 C2209 1.398 . S
C2210 C2211 1.391 . S
C2211 H2199 0.950 . S
C2211 C2207 1.393 . S
C2211 C2210 1.391 . S
H2212 C2220 0.950 . S
H2213 C2225 0.950 . S
H2214 C2222 0.950 . S
H2215 C2224 0.950 . S
H2216 C2226 0.950 . S
H2217 C2228 0.950 . S
H2218 C2230 0.950 . S
H2219 C2231 0.950 . S
C2220 H2212 0.950 . S
C2220 C2221 1.386 . S
C2220 C2222 1.391 . S
C2221 C2220 1.386 . S
C2221 C2225 1.393 . S
C2222 H2214 0.950 . S
C2222 C2220 1.391 . S
C2222 C2223 1.400 . S
C2223 C2222 1.400 . S
C2223 C2224 1.398 . S
C2223 C2229 1.491 . S
C2224 H2215 0.950 . S
C2224 C2223 1.398 . S
C2224 C2225 1.391 . S
C2225 H2213 0.950 . S
C2225 C2221 1.393 . S
C2225 C2224 1.391 . S
C2226 H2216 0.950 . S
C2226 C2227 1.386 . S
C2226 C2228 1.391 . S
C2227 C2226 1.386 . S
C2227 C2231 1.393 . S
C2228 H2217 0.950 . S
C2228 C2226 1.391 . S
C2228 C2229 1.400 . S
C2229 C2223 1.491 . S
C2229 C2228 1.400 . S
C2229 C2230 1.398 . S
C2230 H2218 0.950 . S
C2230 C2229 1.398 . S
C2230 C2231 1.391 . S
C2231 H2219 0.950 . S
C2231 C2227 1.393 . S
C2231 C2230 1.391 . S
H2232 C2240 0.950 . S
H2233 C2245 0.950 . S
H2234 C2242 0.950 . S
H2235 C2244 0.950 . S
H2236 C2246 0.950 . S
H2237 C2248 0.950 . S
H2238 C2250 0.950 . S
H2239 C2251 0.950 . S
C2240 H2232 0.950 . S
C2240 C2241 1.386 . S
C2240 C2242 1.391 . S
C2241 C2240 1.386 . S
C2241 C2245 1.393 . S
C2242 H2234 0.950 . S
C2242 C2240 1.391 . S
C2242 C2243 1.400 . S
C2243 C2242 1.400 . S
C2243 C2244 1.398 . S
C2243 C2249 1.491 . S
C2244 H2235 0.950 . S
C2244 C2243 1.398 . S
C2244 C2245 1.391 . S
C2245 H2233 0.950 . S
C2245 C2241 1.393 . S
C2245 C2244 1.391 . S
C2246 H2236 0.950 . S
C2246 C2247 1.386 . S
C2246 C2248 1.391 . S
C2247 C2246 1.386 . S
C2247 C2251 1.393 . S
C2248 H2237 0.950 . S
C2248 C2246 1.391 . S
C2248 C2249 1.400 . S
C2249 C2243 1.491 . S
C2249 C2248 1.400 . S
C2249 C2250 1.398 . S
C2250 H2238 0.950 . S
C2250 C2249 1.398 . S
C2250 C2251 1.391 . S
C2251 H2239 0.950 . S
C2251 C2247 1.393 . S
C2251 C2250 1.391 . S
H2252 C2260 0.950 . S
H2253 C2265 0.950 . S
H2254 C2262 0.950 . S
H2255 C2264 0.950 . S
H2256 C2266 0.950 . S
H2257 C2268 0.950 . S
H2258 C2270 0.950 . S
H2259 C2271 0.950 . S
C2260 H2252 0.950 . S
C2260 C2261 1.386 . S
C2260 C2262 1.391 . S
C2261 C2260 1.386 . S
C2261 C2265 1.393 . S
C2262 H2254 0.950 . S
C2262 C2260 1.391 . S
C2262 C2263 1.400 . S
C2263 C2262 1.400 . S
C2263 C2264 1.398 . S
C2263 C2269 1.491 . S
C2264 H2255 0.950 . S
C2264 C2263 1.398 . S
C2264 C2265 1.391 . S
C2265 H2253 0.950 . S
C2265 C2261 1.393 . S
C2265 C2264 1.391 . S
C2266 H2256 0.950 . S
C2266 C2267 1.386 . S
C2266 C2268 1.391 . S
C2267 C2266 1.386 . S
C2267 C2271 1.393 . S
C2268 H2257 0.950 . S
C2268 C2266 1.391 . S
C2268 C2269 1.400 . S
C2269 C2263 1.491 . S
C2269 C2268 1.400 . S
C2269 C2270 1.398 . S
C2270 H2258 0.950 . S
C2270 C2269 1.398 . S
C2270 C2271 1.391 . S
C2271 H2259 0.950 . S
C2271 C2267 1.393 . S
C2271 C2270 1.391 . S
H2272 C2280 0.950 . S
H2273 C2285 0.950 . S
H2274 C2282 0.950 . S
H2275 C2284 0.950 . S
H2276 C2286 0.950 . S
H2277 C2288 0.950 . S
H2278 C2290 0.950 . S
H2279 C2291 0.950 . S
C2280 H2272 0.950 . S
C2280 C2281 1.386 . S
C2280 C2282 1.391 . S
C2281 C2280 1.386 . S
C2281 C2285 1.393 . S
C2282 H2274 0.950 . S
C2282 C2280 1.391 . S
C2282 C2283 1.400 . S
C2283 C2282 1.400 . S
C2283 C2284 1.398 . S
C2283 C2289 1.491 . S
C2284 H2275 0.950 . S
C2284 C2283 1.398 . S
C2284 C2285 1.391 . S
C2285 H2273 0.950 . S
C2285 C2281 1.393 . S
C2285 C2284 1.391 . S
C2286 H2276 0.950 . S
C2286 C2287 1.386 . S
C2286 C2288 1.391 . S
C2287 C2286 1.386 . S
C2287 C2291 1.393 . S
C2288 H2277 0.950 . S
C2288 C2286 1.391 . S
C2288 C2289 1.400 . S
C2289 C2283 1.491 . S
C2289 C2288 1.400 . S
C2289 C2290 1.398 . S
C2290 H2278 0.950 . S
C2290 C2289 1.398 . S
C2290 C2291 1.391 . S
C2291 H2279 0.950 . S
C2291 C2287 1.393 . S
C2291 C2290 1.391 . S
H2292 C2300 0.950 . S
H2293 C2305 0.950 1_556 S
H2294 C2302 0.950 . S
H2295 C2304 0.947 1_545 S
H2296 C2306 0.950 . S
H2297 C2308 0.958 . S
H2298 C2310 0.950 . S
H2299 C2311 0.950 . S
C2300 H2292 0.950 . S
C2300 C2301 1.386 . S
C2300 C2302 1.391 . S
C2301 C2300 1.386 . S
C2301 C2305 1.393 . S
C2302 H2294 0.950 . S
C2302 C2300 1.391 . S
C2302 C2303 1.400 . S
C2303 C2302 1.400 . S
C2303 C2304 1.400 1_554 S
C2303 C2309 1.491 . S
C2304 H2295 0.947 1_565 S
C2304 C2303 1.400 1_556 S
C2304 C2305 1.392 1_556 S
C2305 H2293 0.950 1_554 S
C2305 C2301 1.393 . S
C2305 C2304 1.392 1_554 S
C2306 H2296 0.950 . S
C2306 C2307 1.386 1_556 S
C2306 C2308 1.398 . S
C2307 C2306 1.386 1_554 S
C2307 C2311 1.393 . S
C2308 H2297 0.958 . S
C2308 C2306 1.398 . S
C2308 C2309 1.386 1_546 S
C2309 C2303 1.491 . S
C2309 C2308 1.386 1_564 S
C2309 C2310 1.398 . S
C2310 H2298 0.950 . S
C2310 C2309 1.398 . S
C2310 C2311 1.391 1_565 S
C2311 H2299 0.950 . S
C2311 C2307 1.393 . S
C2311 C2310 1.391 1_545 S
H2312 C2320 0.950 . S
H2313 C2325 0.950 . S
H2314 C2322 0.950 . S
H2315 C2324 0.950 . S
H2316 C2326 0.950 . S
H2317 C2328 0.950 . S
H2318 C2330 0.950 . S
H2319 C2331 0.950 . S
C2320 H2312 0.950 . S
C2320 C2321 1.386 . S
C2320 C2322 1.391 . S
C2321 C2320 1.386 . S
C2321 C2325 1.393 . S
C2322 H2314 0.950 . S
C2322 C2320 1.391 . S
C2322 C2323 1.400 . S
C2323 C2322 1.400 . S
C2323 C2324 1.398 . S
C2323 C2329 1.491 . S
C2324 H2315 0.950 . S
C2324 C2323 1.398 . S
C2324 C2325 1.391 . S
C2325 H2313 0.950 . S
C2325 C2321 1.393 . S
C2325 C2324 1.391 . S
C2326 H2316 0.950 . S
C2326 C2327 1.386 . S
C2326 C2328 1.391 . S
C2327 C2326 1.386 . S
C2327 C2331 1.393 . S
C2328 H2317 0.950 . S
C2328 C2326 1.391 . S
C2328 C2329 1.400 . S
C2329 C2323 1.491 . S
C2329 C2328 1.400 . S
C2329 C2330 1.398 . S
C2330 H2318 0.950 . S
C2330 C2329 1.398 . S
C2330 C2331 1.391 . S
C2331 H2319 0.950 . S
C2331 C2327 1.393 . S
C2331 C2330 1.391 . S
H2332 C2340 0.950 . S
H2333 C2345 0.950 . S
H2334 C2342 0.950 . S
H2335 C2344 0.950 . S
H2336 C2346 0.950 . S
H2337 C2348 0.950 . S
H2338 C2350 0.950 . S
H2339 C2351 0.950 . S
C2340 H2332 0.950 . S
C2340 C2341 1.386 . S
C2340 C2342 1.391 . S
C2341 C2340 1.386 . S
C2341 C2345 1.393 . S
C2342 H2334 0.950 . S
C2342 C2340 1.391 . S
C2342 C2343 1.400 . S
C2343 C2342 1.400 . S
C2343 C2344 1.398 . S
C2343 C2349 1.491 . S
C2344 H2335 0.950 . S
C2344 C2343 1.398 . S
C2344 C2345 1.391 . S
C2345 H2333 0.950 . S
C2345 C2341 1.393 . S
C2345 C2344 1.391 . S
C2346 H2336 0.950 . S
C2346 C2347 1.386 . S
C2346 C2348 1.391 . S
C2347 C2346 1.386 . S
C2347 C2351 1.393 . S
C2348 H2337 0.950 . S
C2348 C2346 1.391 . S
C2348 C2349 1.400 . S
C2349 C2343 1.491 . S
C2349 C2348 1.400 . S
C2349 C2350 1.398 . S
C2350 H2338 0.950 . S
C2350 C2349 1.398 . S
C2350 C2351 1.391 . S
C2351 H2339 0.950 . S
C2351 C2347 1.393 . S
C2351 C2350 1.391 . S
H2352 C2360 0.950 . S
H2353 C2365 0.950 . S
H2354 C2362 0.950 . S
H2355 C2364 0.950 . S
H2356 C2366 0.950 . S
H2357 C2368 0.950 . S
H2358 C2370 0.950 . S
H2359 C2371 0.950 . S
C2360 H2352 0.950 . S
C2360 C2361 1.386 . S
C2360 C2362 1.391 . S
C2361 C2360 1.386 . S
C2361 C2365 1.393 . S
C2362 H2354 0.950 . S
C2362 C2360 1.391 . S
C2362 C2363 1.400 . S
C2363 C2362 1.400 . S
C2363 C2364 1.398 . S
C2363 C2369 1.491 . S
C2364 H2355 0.950 . S
C2364 C2363 1.398 . S
C2364 C2365 1.391 . S
C2365 H2353 0.950 . S
C2365 C2361 1.393 . S
C2365 C2364 1.391 . S
C2366 H2356 0.950 . S
C2366 C2367 1.386 . S
C2366 C2368 1.391 . S
C2367 C2366 1.386 . S
C2367 C2371 1.393 . S
C2368 H2357 0.950 . S
C2368 C2366 1.391 . S
C2368 C2369 1.400 . S
C2369 C2363 1.491 . S
C2369 C2368 1.400 . S
C2369 C2370 1.398 . S
C2370 H2358 0.950 . S
C2370 C2369 1.398 . S
C2370 C2371 1.391 . S
C2371 H2359 0.950 . S
C2371 C2367 1.393 . S
C2371 C2370 1.391 . S
H2372 C2380 0.950 . S
H2373 C2385 0.950 . S
H2374 C2382 0.950 . S
H2375 C2384 0.950 . S
H2376 C2386 0.950 . S
H2377 C2388 0.950 . S
H2378 C2390 0.950 . S
H2379 C2391 0.950 . S
C2380 H2372 0.950 . S
C2380 C2381 1.386 . S
C2380 C2382 1.391 . S
C2381 C2380 1.386 . S
C2381 C2385 1.393 . S
C2382 H2374 0.950 . S
C2382 C2380 1.391 . S
C2382 C2383 1.400 . S
C2383 C2382 1.400 . S
C2383 C2384 1.398 . S
C2383 C2389 1.491 . S
C2384 H2375 0.950 . S
C2384 C2383 1.398 . S
C2384 C2385 1.391 . S
C2385 H2373 0.950 . S
C2385 C2381 1.393 . S
C2385 C2384 1.391 . S
C2386 H2376 0.950 . S
C2386 C2387 1.386 . S
C2386 C2388 1.391 . S
C2387 C2386 1.386 . S
C2387 C2391 1.393 . S
C2388 H2377 0.950 . S
C2388 C2386 1.391 . S
C2388 C2389 1.400 . S
C2389 C2383 1.491 . S
C2389 C2388 1.400 . S
C2389 C2390 1.398 . S
C2390 H2378 0.950 . S
C2390 C2389 1.398 . S
C2390 C2391 1.391 . S
C2391 H2379 0.950 . S
C2391 C2387 1.393 . S
C2391 C2390 1.391 . S
H2392 C2400 0.950 . S
H2393 C2405 0.950 . S
H2394 C2402 0.950 . S
H2395 C2404 0.950 . S
H2396 C2406 0.950 . S
H2397 C2408 0.950 . S
H2398 C2410 0.950 . S
H2399 C2411 0.950 . S
C2400 H2392 0.950 . S
C2400 C2401 1.386 . S
C2400 C2402 1.391 . S
C2401 C2400 1.386 . S
C2401 C2405 1.393 . S
C2402 H2394 0.950 . S
C2402 C2400 1.391 . S
C2402 C2403 1.400 . S
C2403 C2402 1.400 . S
C2403 C2404 1.398 . S
C2403 C2409 1.491 . S
C2404 H2395 0.950 . S
C2404 C2403 1.398 . S
C2404 C2405 1.391 . S
C2405 H2393 0.950 . S
C2405 C2401 1.393 . S
C2405 C2404 1.391 . S
C2406 H2396 0.950 . S
C2406 C2407 1.386 . S
C2406 C2408 1.391 . S
C2407 C2406 1.386 . S
C2407 C2411 1.393 . S
C2408 H2397 0.950 . S
C2408 C2406 1.391 . S
C2408 C2409 1.400 . S
C2409 C2403 1.491 . S
C2409 C2408 1.400 . S
C2409 C2410 1.398 . S
C2410 H2398 0.950 . S
C2410 C2409 1.398 . S
C2410 C2411 1.391 . S
C2411 H2399 0.950 . S
C2411 C2407 1.393 . S
C2411 C2410 1.391 . S
H2412 C2420 0.950 . S
H2413 C2425 0.950 . S
H2414 C2422 0.950 . S
H2415 C2424 0.950 . S
H2416 C2426 0.950 . S
H2417 C2428 0.950 . S
H2418 C2430 0.950 . S
H2419 C2431 0.950 . S
C2420 H2412 0.950 . S
C2420 C2421 1.386 . S
C2420 C2422 1.391 . S
C2421 C2420 1.386 . S
C2421 C2425 1.393 . S
C2422 H2414 0.950 . S
C2422 C2420 1.391 . S
C2422 C2423 1.400 . S
C2423 C2422 1.400 . S
C2423 C2424 1.398 . S
C2423 C2429 1.491 . S
C2424 H2415 0.950 . S
C2424 C2423 1.398 . S
C2424 C2425 1.391 . S
C2425 H2413 0.950 . S
C2425 C2421 1.393 . S
C2425 C2424 1.391 . S
C2426 H2416 0.950 . S
C2426 C2427 1.386 . S
C2426 C2428 1.391 . S
C2427 C2426 1.386 . S
C2427 C2431 1.393 . S
C2428 H2417 0.950 . S
C2428 C2426 1.391 . S
C2428 C2429 1.400 . S
C2429 C2423 1.491 . S
C2429 C2428 1.400 . S
C2429 C2430 1.398 . S
C2430 H2418 0.950 . S
C2430 C2429 1.398 . S
C2430 C2431 1.391 . S
C2431 H2419 0.950 . S
C2431 C2427 1.393 . S
C2431 C2430 1.391 . S
H2432 C2440 0.950 . S
H2433 C2445 0.950 . S
H2434 C2442 0.950 . S
H2435 C2444 0.950 . S
H2436 C2446 0.950 . S
H2437 C2448 0.950 . S
H2438 C2450 0.950 . S
H2439 C2451 0.950 . S
C2440 H2432 0.950 . S
C2440 C2441 1.386 . S
C2440 C2442 1.391 . S
C2441 C2440 1.386 . S
C2441 C2445 1.393 . S
C2442 H2434 0.950 . S
C2442 C2440 1.391 . S
C2442 C2443 1.400 . S
C2443 C2442 1.400 . S
C2443 C2444 1.398 . S
C2443 C2449 1.491 . S
C2444 H2435 0.950 . S
C2444 C2443 1.398 . S
C2444 C2445 1.391 . S
C2445 H2433 0.950 . S
C2445 C2441 1.393 . S
C2445 C2444 1.391 . S
C2446 H2436 0.950 . S
C2446 C2447 1.386 . S
C2446 C2448 1.391 . S
C2447 C2446 1.386 . S
C2447 C2451 1.393 . S
C2448 H2437 0.950 . S
C2448 C2446 1.391 . S
C2448 C2449 1.400 . S
C2449 C2443 1.491 . S
C2449 C2448 1.400 . S
C2449 C2450 1.398 . S
C2450 H2438 0.950 . S
C2450 C2449 1.398 . S
C2450 C2451 1.391 . S
C2451 H2439 0.950 . S
C2451 C2447 1.393 . S
C2451 C2450 1.391 . S
H2452 C2460 0.950 . S
H2453 C2465 0.950 . S
H2454 C2462 0.950 . S
H2455 C2464 0.950 . S
H2456 C2466 0.950 . S
H2457 C2468 0.950 . S
H2458 C2470 0.950 . S
H2459 C2471 0.950 . S
C2460 H2452 0.950 . S
C2460 C2461 1.386 . S
C2460 C2462 1.391 . S
C2461 C2460 1.386 . S
C2461 C2465 1.393 . S
C2462 H2454 0.950 . S
C2462 C2460 1.391 . S
C2462 C2463 1.400 . S
C2463 C2462 1.400 . S
C2463 C2464 1.398 . S
C2463 C2469 1.491 . S
C2464 H2455 0.950 . S
C2464 C2463 1.398 . S
C2464 C2465 1.391 . S
C2465 H2453 0.950 . S
C2465 C2461 1.393 . S
C2465 C2464 1.391 . S
C2466 H2456 0.950 . S
C2466 C2467 1.386 . S
C2466 C2468 1.391 . S
C2467 C2466 1.386 . S
C2467 C2471 1.393 . S
C2468 H2457 0.950 . S
C2468 C2466 1.391 . S
C2468 C2469 1.400 . S
C2469 C2463 1.491 . S
C2469 C2468 1.400 . S
C2469 C2470 1.398 . S
C2470 H2458 0.950 . S
C2470 C2469 1.398 . S
C2470 C2471 1.391 . S
C2471 H2459 0.950 . S
C2471 C2467 1.393 . S
C2471 C2470 1.391 . S
H2472 C2480 0.950 . S
H2473 C2485 0.950 . S
H2474 C2482 0.950 . S
H2475 C2484 0.950 . S
H2476 C2486 0.950 . S
H2477 C2488 0.950 . S
H2478 C2490 0.950 . S
H2479 C2491 0.950 . S
C2480 H2472 0.950 . S
C2480 C2481 1.386 . S
C2480 C2482 1.391 . S
C2481 C2480 1.386 . S
C2481 C2485 1.393 . S
C2482 H2474 0.950 . S
C2482 C2480 1.391 . S
C2482 C2483 1.400 . S
C2483 C2482 1.400 . S
C2483 C2484 1.398 . S
C2483 C2489 1.491 . S
C2484 H2475 0.950 . S
C2484 C2483 1.398 . S
C2484 C2485 1.391 . S
C2485 H2473 0.950 . S
C2485 C2481 1.393 . S
C2485 C2484 1.391 . S
C2486 H2476 0.950 . S
C2486 C2487 1.386 . S
C2486 C2488 1.391 . S
C2487 C2486 1.386 . S
C2487 C2491 1.393 . S
C2488 H2477 0.950 . S
C2488 C2486 1.391 . S
C2488 C2489 1.400 . S
C2489 C2483 1.491 . S
C2489 C2488 1.400 . S
C2489 C2490 1.398 . S
C2490 H2478 0.950 . S
C2490 C2489 1.398 . S
C2490 C2491 1.391 . S
C2491 H2479 0.950 . S
C2491 C2487 1.393 . S
C2491 C2490 1.391 . S
H2492 C2500 0.950 . S
H2493 C2505 0.950 . S
H2494 C2502 0.950 . S
H2495 C2504 0.950 . S
H2496 C2506 0.950 . S
H2497 C2508 0.950 . S
H2498 C2510 0.950 . S
H2499 C2511 0.950 . S
C2500 H2492 0.950 . S
C2500 C2501 1.386 . S
C2500 C2502 1.391 . S
C2501 C2500 1.386 . S
C2501 C2505 1.393 . S
C2502 H2494 0.950 . S
C2502 C2500 1.391 . S
C2502 C2503 1.400 . S
C2503 C2502 1.400 . S
C2503 C2504 1.398 . S
C2503 C2509 1.491 . S
C2504 H2495 0.950 . S
C2504 C2503 1.398 . S
C2504 C2505 1.391 . S
C2505 H2493 0.950 . S
C2505 C2501 1.393 . S
C2505 C2504 1.391 . S
C2506 H2496 0.950 . S
C2506 C2507 1.386 . S
C2506 C2508 1.391 . S
C2507 C2506 1.386 . S
C2507 C2511 1.393 . S
C2508 H2497 0.950 . S
C2508 C2506 1.391 . S
C2508 C2509 1.400 . S
C2509 C2503 1.491 . S
C2509 C2508 1.400 . S
C2509 C2510 1.398 . S
C2510 H2498 0.950 . S
C2510 C2509 1.398 . S
C2510 C2511 1.391 . S
C2511 H2499 0.950 . S
C2511 C2507 1.393 . S
C2511 C2510 1.391 . S
H2512 C2520 0.950 . S
H2513 C2525 0.950 . S
H2514 C2522 0.950 . S
H2515 C2524 0.950 . S
H2516 C2526 0.950 . S
H2517 C2528 0.950 . S
H2518 C2530 0.950 . S
H2519 C2531 0.950 . S
C2520 H2512 0.950 . S
C2520 C2521 1.386 . S
C2520 C2522 1.391 . S
C2521 C2520 1.386 . S
C2521 C2525 1.393 . S
C2522 H2514 0.950 . S
C2522 C2520 1.391 . S
C2522 C2523 1.400 . S
C2523 C2522 1.400 . S
C2523 C2524 1.398 . S
C2523 C2529 1.491 . S
C2524 H2515 0.950 . S
C2524 C2523 1.398 . S
C2524 C2525 1.391 . S
C2525 H2513 0.950 . S
C2525 C2521 1.393 . S
C2525 C2524 1.391 . S
C2526 H2516 0.950 . S
C2526 C2527 1.386 . S
C2526 C2528 1.391 . S
C2527 C2526 1.386 . S
C2527 C2531 1.393 . S
C2528 H2517 0.950 . S
C2528 C2526 1.391 . S
C2528 C2529 1.400 . S
C2529 C2523 1.491 . S
C2529 C2528 1.400 . S
C2529 C2530 1.398 . S
C2530 H2518 0.950 . S
C2530 C2529 1.398 . S
C2530 C2531 1.391 . S
C2531 H2519 0.950 . S
C2531 C2527 1.393 . S
C2531 C2530 1.391 . S
H2532 C2540 0.950 . S
H2533 C2545 0.950 . S
H2534 C2542 0.950 . S
H2535 C2544 0.950 . S
H2536 C2546 0.950 . S
H2537 C2548 0.950 . S
H2538 C2550 0.950 . S
H2539 C2551 0.950 . S
C2540 H2532 0.950 . S
C2540 C2541 1.386 . S
C2540 C2542 1.391 . S
C2541 C2540 1.386 . S
C2541 C2545 1.393 . S
C2542 H2534 0.950 . S
C2542 C2540 1.391 . S
C2542 C2543 1.400 . S
C2543 C2542 1.400 . S
C2543 C2544 1.398 . S
C2543 C2549 1.491 . S
C2544 H2535 0.950 . S
C2544 C2543 1.398 . S
C2544 C2545 1.391 . S
C2545 H2533 0.950 . S
C2545 C2541 1.393 . S
C2545 C2544 1.391 . S
C2546 H2536 0.950 . S
C2546 C2547 1.386 . S
C2546 C2548 1.391 . S
C2547 C2546 1.386 . S
C2547 C2551 1.393 . S
C2548 H2537 0.950 . S
C2548 C2546 1.391 . S
C2548 C2549 1.400 . S
C2549 C2543 1.491 . S
C2549 C2548 1.400 . S
C2549 C2550 1.398 . S
C2550 H2538 0.950 . S
C2550 C2549 1.398 . S
C2550 C2551 1.391 . S
C2551 H2539 0.950 . S
C2551 C2547 1.393 . S
C2551 C2550 1.391 . S
H2552 C2560 0.950 . S
H2553 C2565 0.950 . S
H2554 C2562 0.950 . S
H2555 C2564 0.950 . S
H2556 C2566 0.950 . S
H2557 C2568 0.950 . S
H2558 C2570 0.950 . S
H2559 C2571 0.950 . S
C2560 H2552 0.950 . S
C2560 C2561 1.386 . S
C2560 C2562 1.391 . S
C2561 C2560 1.386 . S
C2561 C2565 1.393 . S
C2562 H2554 0.950 . S
C2562 C2560 1.391 . S
C2562 C2563 1.400 . S
C2563 C2562 1.400 . S
C2563 C2564 1.398 . S
C2563 C2569 1.491 . S
C2564 H2555 0.950 . S
C2564 C2563 1.398 . S
C2564 C2565 1.391 . S
C2565 H2553 0.950 . S
C2565 C2561 1.393 . S
C2565 C2564 1.391 . S
C2566 H2556 0.950 . S
C2566 C2567 1.386 . S
C2566 C2568 1.391 . S
C2567 C2566 1.386 . S
C2567 C2571 1.393 . S
C2568 H2557 0.950 . S
C2568 C2566 1.391 . S
C2568 C2569 1.400 . S
C2569 C2563 1.491 . S
C2569 C2568 1.400 . S
C2569 C2570 1.398 . S
C2570 H2558 0.950 . S
C2570 C2569 1.398 . S
C2570 C2571 1.391 . S
C2571 H2559 0.950 . S
C2571 C2567 1.393 . S
C2571 C2570 1.391 . S
H2572 C2580 0.950 . S
H2573 C2585 0.950 . S
H2574 C2582 0.950 . S
H2575 C2584 0.950 . S
H2576 C2586 0.950 . S
H2577 C2588 0.950 . S
H2578 C2590 0.950 . S
H2579 C2591 0.950 . S
C2580 H2572 0.950 . S
C2580 C2581 1.386 . S
C2580 C2582 1.391 . S
C2581 C2580 1.386 . S
C2581 C2585 1.393 . S
C2582 H2574 0.950 . S
C2582 C2580 1.391 . S
C2582 C2583 1.400 . S
C2583 C2582 1.400 . S
C2583 C2584 1.398 . S
C2583 C2589 1.491 . S
C2584 H2575 0.950 . S
C2584 C2583 1.398 . S
C2584 C2585 1.391 . S
C2585 H2573 0.950 . S
C2585 C2581 1.393 . S
C2585 C2584 1.391 . S
C2586 H2576 0.950 . S
C2586 C2587 1.386 . S
C2586 C2588 1.391 . S
C2587 C2586 1.386 . S
C2587 C2591 1.393 . S
C2588 H2577 0.950 . S
C2588 C2586 1.391 . S
C2588 C2589 1.400 . S
C2589 C2583 1.491 . S
C2589 C2588 1.400 . S
C2589 C2590 1.398 . S
C2590 H2578 0.950 . S
C2590 C2589 1.398 . S
C2590 C2591 1.391 . S
C2591 H2579 0.950 . S
C2591 C2587 1.393 . S
C2591 C2590 1.391 . S
H2592 C2600 0.950 . S
H2593 C2605 0.950 . S
H2594 C2602 0.950 . S
H2595 C2604 0.950 . S
H2596 C2606 0.950 . S
H2597 C2608 0.961 1_655 S
H2598 C2610 0.950 . S
H2599 C2611 0.950 . S
C2600 H2592 0.950 . S
C2600 C2601 1.386 . S
C2600 C2602 1.391 . S
C2601 C2600 1.386 . S
C2601 C2605 1.393 . S
C2602 H2594 0.950 . S
C2602 C2600 1.391 . S
C2602 C2603 1.400 . S
C2603 C2602 1.400 . S
C2603 C2604 1.398 . S
C2603 C2609 1.491 . S
C2604 H2595 0.950 . S
C2604 C2603 1.398 . S
C2604 C2605 1.391 . S
C2605 H2593 0.950 . S
C2605 C2601 1.393 . S
C2605 C2604 1.391 . S
C2606 H2596 0.950 . S
C2606 C2607 1.386 . S
C2606 C2608 1.416 . S
C2607 C2606 1.386 . S
C2607 C2611 1.393 . S
C2608 H2597 0.961 1_455 S
C2608 C2606 1.416 . S
C2608 C2609 1.366 1_455 S
C2609 C2603 1.491 . S
C2609 C2608 1.366 1_655 S
C2609 C2610 1.398 . S
C2610 H2598 0.950 . S
C2610 C2609 1.398 . S
C2610 C2611 1.391 1_655 S
C2611 H2599 0.950 . S
C2611 C2607 1.393 . S
C2611 C2610 1.391 1_455 S
H2612 C2620 0.950 . S
H2613 C2625 0.950 . S
H2614 C2622 0.950 . S
H2615 C2624 0.950 . S
H2616 C2626 0.950 . S
H2617 C2628 0.950 . S
H2618 C2630 0.950 . S
H2619 C2631 0.950 . S
C2620 H2612 0.950 . S
C2620 C2621 1.386 . S
C2620 C2622 1.391 . S
C2621 C2620 1.386 . S
C2621 C2625 1.393 . S
C2622 H2614 0.950 . S
C2622 C2620 1.391 . S
C2622 C2623 1.400 . S
C2623 C2622 1.400 . S
C2623 C2624 1.398 . S
C2623 C2629 1.491 . S
C2624 H2615 0.950 . S
C2624 C2623 1.398 . S
C2624 C2625 1.391 . S
C2625 H2613 0.950 . S
C2625 C2621 1.393 . S
C2625 C2624 1.391 . S
C2626 H2616 0.950 . S
C2626 C2627 1.386 . S
C2626 C2628 1.391 . S
C2627 C2626 1.386 . S
C2627 C2631 1.393 . S
C2628 H2617 0.950 . S
C2628 C2626 1.391 . S
C2628 C2629 1.400 . S
C2629 C2623 1.491 . S
C2629 C2628 1.400 . S
C2629 C2630 1.398 . S
C2630 H2618 0.950 . S
C2630 C2629 1.398 . S
C2630 C2631 1.391 . S
C2631 H2619 0.950 . S
C2631 C2627 1.393 . S
C2631 C2630 1.391 . S
H2632 C2640 0.950 . S
H2633 C2645 0.950 . S
H2634 C2642 0.950 . S
H2635 C2644 0.950 . S
H2636 C2646 0.950 . S
H2637 C2648 0.950 . S
H2638 C2650 0.950 . S
H2639 C2651 0.950 . S
C2640 H2632 0.950 . S
C2640 C2641 1.386 . S
C2640 C2642 1.391 . S
C2641 C2640 1.386 . S
C2641 C2645 1.393 . S
C2642 H2634 0.950 . S
C2642 C2640 1.391 . S
C2642 C2643 1.400 . S
C2643 C2642 1.400 . S
C2643 C2644 1.398 . S
C2643 C2649 1.491 . S
C2644 H2635 0.950 . S
C2644 C2643 1.398 . S
C2644 C2645 1.391 . S
C2645 H2633 0.950 . S
C2645 C2641 1.393 . S
C2645 C2644 1.391 . S
C2646 H2636 0.950 . S
C2646 C2647 1.386 . S
C2646 C2648 1.391 . S
C2647 C2646 1.386 . S
C2647 C2651 1.393 . S
C2648 H2637 0.950 . S
C2648 C2646 1.391 . S
C2648 C2649 1.400 . S
C2649 C2643 1.491 . S
C2649 C2648 1.400 . S
C2649 C2650 1.398 . S
C2650 H2638 0.950 . S
C2650 C2649 1.398 . S
C2650 C2651 1.391 . S
C2651 H2639 0.950 . S
C2651 C2647 1.393 . S
C2651 C2650 1.391 . S
H2652 C2660 0.950 . S
H2653 C2665 0.950 . S
H2654 C2662 0.950 . S
H2655 C2664 0.950 . S
H2656 C2666 0.950 . S
H2657 C2668 0.950 . S
H2658 C2670 0.950 . S
H2659 C2671 0.950 . S
C2660 H2652 0.950 . S
C2660 C2661 1.386 . S
C2660 C2662 1.391 . S
C2661 C2660 1.386 . S
C2661 C2665 1.393 . S
C2662 H2654 0.950 . S
C2662 C2660 1.391 . S
C2662 C2663 1.400 . S
C2663 C2662 1.400 . S
C2663 C2664 1.398 . S
C2663 C2669 1.491 . S
C2664 H2655 0.950 . S
C2664 C2663 1.398 . S
C2664 C2665 1.391 . S
C2665 H2653 0.950 . S
C2665 C2661 1.393 . S
C2665 C2664 1.391 . S
C2666 H2656 0.950 . S
C2666 C2667 1.386 . S
C2666 C2668 1.391 . S
C2667 C2666 1.386 . S
C2667 C2671 1.393 . S
C2668 H2657 0.950 . S
C2668 C2666 1.391 . S
C2668 C2669 1.400 . S
C2669 C2663 1.491 . S
C2669 C2668 1.400 . S
C2669 C2670 1.398 . S
C2670 H2658 0.950 . S
C2670 C2669 1.398 . S
C2670 C2671 1.391 . S
C2671 H2659 0.950 . S
C2671 C2667 1.393 . S
C2671 C2670 1.391 . S
H2672 C2680 0.950 . S
H2673 C2685 0.950 . S
H2674 C2682 0.950 . S
H2675 C2684 0.950 . S
H2676 C2686 0.950 . S
H2677 C2688 0.950 . S
H2678 C2690 0.950 . S
H2679 C2691 0.950 . S
C2680 H2672 0.950 . S
C2680 C2681 1.386 . S
C2680 C2682 1.391 . S
C2681 C2680 1.386 . S
C2681 C2685 1.393 . S
C2682 H2674 0.950 . S
C2682 C2680 1.391 . S
C2682 C2683 1.400 . S
C2683 C2682 1.400 . S
C2683 C2684 1.398 . S
C2683 C2689 1.491 . S
C2684 H2675 0.950 . S
C2684 C2683 1.398 . S
C2684 C2685 1.391 . S
C2685 H2673 0.950 . S
C2685 C2681 1.393 . S
C2685 C2684 1.391 . S
C2686 H2676 0.950 . S
C2686 C2687 1.386 . S
C2686 C2688 1.391 . S
C2687 C2686 1.386 . S
C2687 C2691 1.393 . S
C2688 H2677 0.950 . S
C2688 C2686 1.391 . S
C2688 C2689 1.400 . S
C2689 C2683 1.491 . S
C2689 C2688 1.400 . S
C2689 C2690 1.398 . S
C2690 H2678 0.950 . S
C2690 C2689 1.398 . S
C2690 C2691 1.391 . S
C2691 H2679 0.950 . S
C2691 C2687 1.393 . S
C2691 C2690 1.391 . S
H2692 C2700 0.950 . S
H2693 C2705 0.950 . S
H2694 C2702 0.950 . S
H2695 C2704 0.950 . S
H2696 C2706 0.950 . S
H2697 C2708 0.950 . S
H2698 C2710 0.950 . S
H2699 C2711 0.950 . S
C2700 H2692 0.950 . S
C2700 C2701 1.386 . S
C2700 C2702 1.391 . S
C2701 C2700 1.386 . S
C2701 C2705 1.393 . S
C2702 H2694 0.950 . S
C2702 C2700 1.391 . S
C2702 C2703 1.400 . S
C2703 C2702 1.400 . S
C2703 C2704 1.398 . S
C2703 C2709 1.491 . S
C2704 H2695 0.950 . S
C2704 C2703 1.398 . S
C2704 C2705 1.391 . S
C2705 H2693 0.950 . S
C2705 C2701 1.393 . S
C2705 C2704 1.391 . S
C2706 H2696 0.950 . S
C2706 C2707 1.386 . S
C2706 C2708 1.391 . S
C2707 C2706 1.386 . S
C2707 C2711 1.393 . S
C2708 H2697 0.950 . S
C2708 C2706 1.391 . S
C2708 C2709 1.400 . S
C2709 C2703 1.491 . S
C2709 C2708 1.400 . S
C2709 C2710 1.398 . S
C2710 H2698 0.950 . S
C2710 C2709 1.398 . S
C2710 C2711 1.391 . S
C2711 H2699 0.950 . S
C2711 C2707 1.393 . S
C2711 C2710 1.391 . S
H2712 C2720 0.950 . S
H2713 C2725 0.950 . S
H2714 C2722 0.950 . S
H2715 C2724 0.950 . S
H2716 C2726 0.950 . S
H2717 C2728 0.950 . S
H2718 C2730 0.950 . S
H2719 C2731 0.950 . S
C2720 H2712 0.950 . S
C2720 C2721 1.386 . S
C2720 C2722 1.391 . S
C2721 C2720 1.386 . S
C2721 C2725 1.393 . S
C2722 H2714 0.950 . S
C2722 C2720 1.391 . S
C2722 C2723 1.400 . S
C2723 C2722 1.400 . S
C2723 C2724 1.398 . S
C2723 C2729 1.491 . S
C2724 H2715 0.950 . S
C2724 C2723 1.398 . S
C2724 C2725 1.391 . S
C2725 H2713 0.950 . S
C2725 C2721 1.393 . S
C2725 C2724 1.391 . S
C2726 H2716 0.950 . S
C2726 C2727 1.386 . S
C2726 C2728 1.391 . S
C2727 C2726 1.386 . S
C2727 C2731 1.393 . S
C2728 H2717 0.950 . S
C2728 C2726 1.391 . S
C2728 C2729 1.400 . S
C2729 C2723 1.491 . S
C2729 C2728 1.400 . S
C2729 C2730 1.398 . S
C2730 H2718 0.950 . S
C2730 C2729 1.398 . S
C2730 C2731 1.391 . S
C2731 H2719 0.950 . S
C2731 C2727 1.393 . S
C2731 C2730 1.391 . S
H2732 C2740 0.950 . S
H2733 C2745 0.950 . S
H2734 C2742 0.950 . S
H2735 C2744 0.950 . S
H2736 C2746 0.950 . S
H2737 C2748 0.950 . S
H2738 C2750 0.950 . S
H2739 C2751 0.950 . S
C2740 H2732 0.950 . S
C2740 C2741 1.386 . S
C2740 C2742 1.391 . S
C2741 C2740 1.386 . S
C2741 C2745 1.393 . S
C2742 H2734 0.950 . S
C2742 C2740 1.391 . S
C2742 C2743 1.400 . S
C2743 C2742 1.400 . S
C2743 C2744 1.398 . S
C2743 C2749 1.491 . S
C2744 H2735 0.950 . S
C2744 C2743 1.398 . S
C2744 C2745 1.391 . S
C2745 H2733 0.950 . S
C2745 C2741 1.393 . S
C2745 C2744 1.391 . S
C2746 H2736 0.950 . S
C2746 C2747 1.386 1_545 S
C2746 C2748 1.391 1_545 S
C2747 C2746 1.386 1_565 S
C2747 C2751 1.393 . S
C2748 H2737 0.950 . S
C2748 C2746 1.391 1_565 S
C2748 C2749 1.400 . S
C2749 C2743 1.491 . S
C2749 C2748 1.400 . S
C2749 C2750 1.398 . S
C2750 H2738 0.950 . S
C2750 C2749 1.398 . S
C2750 C2751 1.391 . S
C2751 H2739 0.950 . S
C2751 C2747 1.393 . S
C2751 C2750 1.391 . S
H2752 C2760 0.950 . S
H2753 C2765 0.950 . S
H2754 C2762 0.950 . S
H2755 C2764 0.950 . S
H2756 C2766 0.950 . S
H2757 C2768 0.950 . S
H2758 C2770 0.950 . S
H2759 C2771 0.950 . S
C2760 H2752 0.950 . S
C2760 C2761 1.386 . S
C2760 C2762 1.391 . S
C2761 C2760 1.386 . S
C2761 C2765 1.393 . S
C2762 H2754 0.950 . S
C2762 C2760 1.391 . S
C2762 C2763 1.400 . S
C2763 C2762 1.400 . S
C2763 C2764 1.398 . S
C2763 C2769 1.491 . S
C2764 H2755 0.950 . S
C2764 C2763 1.398 . S
C2764 C2765 1.391 . S
C2765 H2753 0.950 . S
C2765 C2761 1.393 . S
C2765 C2764 1.391 . S
C2766 H2756 0.950 . S
C2766 C2767 1.386 . S
C2766 C2768 1.391 . S
C2767 C2766 1.386 . S
C2767 C2771 1.393 . S
C2768 H2757 0.950 . S
C2768 C2766 1.391 . S
C2768 C2769 1.400 . S
C2769 C2763 1.491 . S
C2769 C2768 1.400 . S
C2769 C2770 1.398 . S
C2770 H2758 0.950 . S
C2770 C2769 1.398 . S
C2770 C2771 1.391 . S
C2771 H2759 0.950 . S
C2771 C2767 1.393 . S
C2771 C2770 1.391 . S
H2772 C2780 0.950 . S
H2773 C2785 0.950 . S
H2774 C2782 0.950 . S
H2775 C2784 0.950 . S
H2776 C2786 0.950 . S
H2777 C2788 0.950 . S
H2778 C2790 0.950 . S
H2779 C2791 0.950 . S
C2780 H2772 0.950 . S
C2780 C2781 1.386 1_556 S
C2780 C2782 1.391 . S
C2781 C2780 1.386 1_554 S
C2781 C2785 1.393 . S
C2782 H2774 0.950 . S
C2782 C2780 1.391 . S
C2782 C2783 1.400 1_556 S
C2783 C2782 1.400 1_554 S
C2783 C2784 1.398 . S
C2783 C2789 1.491 . S
C2784 H2775 0.950 . S
C2784 C2783 1.398 . S
C2784 C2785 1.391 . S
C2785 H2773 0.950 . S
C2785 C2781 1.393 . S
C2785 C2784 1.391 . S
C2786 H2776 0.950 . S
C2786 C2787 1.386 . S
C2786 C2788 1.391 . S
C2787 C2786 1.386 . S
C2787 C2791 1.393 1_554 S
C2788 H2777 0.950 . S
C2788 C2786 1.391 . S
C2788 C2789 1.400 . S
C2789 C2783 1.491 . S
C2789 C2788 1.400 . S
C2789 C2790 1.398 1_554 S
C2790 H2778 0.950 . S
C2790 C2789 1.398 1_556 S
C2790 C2791 1.391 . S
C2791 H2779 0.950 . S
C2791 C2787 1.393 1_556 S
C2791 C2790 1.391 . S
H2792 C2800 0.950 . S
H2793 C2805 0.950 . S
H2794 C2802 0.950 . S
H2795 C2804 0.950 . S
H2796 C2806 0.950 . S
H2797 C2808 0.950 . S
H2798 C2810 0.950 . S
H2799 C2811 0.950 . S
C2800 H2792 0.950 . S
C2800 C2801 1.386 . S
C2800 C2802 1.391 . S
C2801 C2800 1.386 . S
C2801 C2805 1.393 . S
C2802 H2794 0.950 . S
C2802 C2800 1.391 . S
C2802 C2803 1.400 . S
C2803 C2802 1.400 . S
C2803 C2804 1.398 . S
C2803 C2809 1.491 . S
C2804 H2795 0.950 . S
C2804 C2803 1.398 . S
C2804 C2805 1.391 . S
C2805 H2793 0.950 . S
C2805 C2801 1.393 . S
C2805 C2804 1.391 . S
C2806 H2796 0.950 . S
C2806 C2807 1.386 . S
C2806 C2808 1.391 . S
C2807 C2806 1.386 . S
C2807 C2811 1.393 . S
C2808 H2797 0.950 . S
C2808 C2806 1.391 . S
C2808 C2809 1.400 . S
C2809 C2803 1.491 . S
C2809 C2808 1.400 . S
C2809 C2810 1.398 . S
C2810 H2798 0.950 . S
C2810 C2809 1.398 . S
C2810 C2811 1.391 . S
C2811 H2799 0.950 . S
C2811 C2807 1.393 . S
C2811 C2810 1.391 . S
H2812 C2820 0.950 . S
H2813 C2825 0.940 1_556 S
H2814 C2822 0.950 . S
H2815 C2824 0.950 1_556 S
H2816 C2826 0.950 . S
H2817 C2828 0.950 . S
H2818 C2830 0.950 . S
H2819 C2831 0.950 . S
C2820 H2812 0.950 . S
C2820 C2821 1.386 . S
C2820 C2822 1.391 . S
C2821 C2820 1.386 . S
C2821 C2825 1.393 . S
C2822 H2814 0.950 . S
C2822 C2820 1.391 . S
C2822 C2823 1.400 . S
C2823 C2822 1.400 . S
C2823 C2824 1.398 . S
C2823 C2829 1.491 . S
C2824 H2815 0.950 1_554 S
C2824 C2823 1.398 . S
C2824 C2825 1.391 . S
C2825 H2813 0.940 1_554 S
C2825 C2821 1.393 . S
C2825 C2824 1.391 . S
C2826 H2816 0.950 . S
C2826 C2827 1.386 . S
C2826 C2828 1.391 . S
C2827 C2826 1.386 . S
C2827 C2831 1.393 1_556 S
C2828 H2817 0.950 . S
C2828 C2826 1.391 . S
C2828 C2829 1.400 1_556 S
C2829 C2823 1.491 . S
C2829 C2828 1.400 1_554 S
C2829 C2830 1.398 . S
C2830 H2818 0.950 . S
C2830 C2829 1.398 . S
C2830 C2831 1.391 . S
C2831 H2819 0.950 . S
C2831 C2827 1.393 1_554 S
C2831 C2830 1.391 . S
H2832 C2840 0.950 . S
H2833 C2845 0.950 . S
H2834 C2842 0.950 . S
H2835 C2844 0.950 . S
H2836 C2846 0.950 . S
H2837 C2848 0.950 . S
H2838 C2850 0.950 . S
H2839 C2851 0.950 . S
C2840 H2832 0.950 . S
C2840 C2841 1.386 . S
C2840 C2842 1.391 . S
C2841 C2840 1.386 . S
C2841 C2845 1.393 . S
C2842 H2834 0.950 . S
C2842 C2840 1.391 . S
C2842 C2843 1.400 . S
C2843 C2842 1.400 . S
C2843 C2844 1.398 . S
C2843 C2849 1.491 . S
C2844 H2835 0.950 . S
C2844 C2843 1.398 . S
C2844 C2845 1.391 . S
C2845 H2833 0.950 . S
C2845 C2841 1.393 . S
C2845 C2844 1.391 . S
C2846 H2836 0.950 . S
C2846 C2847 1.386 . S
C2846 C2848 1.391 . S
C2847 C2846 1.386 . S
C2847 C2851 1.393 . S
C2848 H2837 0.950 . S
C2848 C2846 1.391 . S
C2848 C2849 1.400 . S
C2849 C2843 1.491 . S
C2849 C2848 1.400 . S
C2849 C2850 1.398 . S
C2850 H2838 0.950 . S
C2850 C2849 1.398 . S
C2850 C2851 1.391 . S
C2851 H2839 0.950 . S
C2851 C2847 1.393 . S
C2851 C2850 1.391 . S
H2852 C2860 0.950 . S
H2853 C2865 0.950 . S
H2854 C2862 0.950 . S
H2855 C2864 0.950 . S
H2856 C2866 0.950 . S
H2857 C2868 0.950 . S
H2858 C2870 0.950 . S
H2859 C2871 0.950 . S
C2860 H2852 0.950 . S
C2860 C2861 1.386 . S
C2860 C2862 1.391 . S
C2861 C2860 1.386 . S
C2861 C2865 1.393 . S
C2862 H2854 0.950 . S
C2862 C2860 1.391 . S
C2862 C2863 1.400 . S
C2863 C2862 1.400 . S
C2863 C2864 1.398 . S
C2863 C2869 1.491 . S
C2864 H2855 0.950 . S
C2864 C2863 1.398 . S
C2864 C2865 1.391 . S
C2865 H2853 0.950 . S
C2865 C2861 1.393 . S
C2865 C2864 1.391 . S
C2866 H2856 0.950 . S
C2866 C2867 1.386 . S
C2866 C2868 1.391 . S
C2867 C2866 1.386 . S
C2867 C2871 1.393 . S
C2868 H2857 0.950 . S
C2868 C2866 1.391 . S
C2868 C2869 1.400 . S
C2869 C2863 1.491 . S
C2869 C2868 1.400 . S
C2869 C2870 1.398 . S
C2870 H2858 0.950 . S
C2870 C2869 1.398 . S
C2870 C2871 1.391 . S
C2871 H2859 0.950 . S
C2871 C2867 1.393 . S
C2871 C2870 1.391 . S
C961 C101 2.212 . S
C967 C314 2.154 . S
C981 C57 2.073 . S
C987 C371 2.119 . S
C1001 C70 1.017 . S
C1007 C394 0.997 . S
C1027 C448 1.372 . S
C1021 C82 1.384 . S
C1041 C23 1.450 . S
C1047 C488 1.409 . S
C1067 C519 0.464 . S
C1061 C29 0.431 . S
C1087 C571 1.236 . S
C1081 C49 1.162 . S
C1101 C10 1.867 . S
C1107 C594 1.775 . S
C1127 C331 2.410 . S
C1121 C218 2.401 . S
C1141 C226 0.643 . S
C1147 C368 0.684 . S
C1167 C411 1.286 . S
C1161 C251 1.277 . S
C1187 C434 1.171 . S
C1181 C159 1.210 . S
C1201 C211 1.869 . S
C1207 C474 1.821 . S
C1227 C522 1.450 . S
C1221 C225 1.461 . S
C1247 C568 0.432 . S
C1241 C252 0.335 . S
C1267 C611 2.023 . S
C1261 C166 2.039 . S
C1287 C328 1.512 . S
C1281 C147 1.555 . S
C1301 C263 1.905 . S
C1307 C651 1.939 1_554 S
C1327 C683 2.597 . S
C1321 C309 2.638 . S
C1347 C714 0.497 . S
C1341 C291 0.460 . S
C1361 C108 1.613 . S
C1367 C608 1.574 . S
C1381 C121 1.618 . S
C1387 C408 1.594 . S
C1401 C302 2.189 . S
C1407 C771 2.205 . S
C1427 C794 0.629 . S
C1421 C276 0.577 . S
C1447 C323 2.325 1_565 S
C1441 C55 2.359 . S
C1467 C802 2.362 . S
C1461 C96 2.369 . S
C1481 C88 1.418 . S
C1487 C403 1.403 . S
C1501 C75 1.591 . S
C1507 C759 1.573 . S
C1527 C479 1.409 . S
C1521 C4 1.434 . S
C1541 C44 0.637 . S
C1547 C688 0.631 . S
C1567 C562 1.630 1_565 S
C1561 C31 1.600 . S
C1587 C843 1.871 . S
C1581 C18 1.931 . S
C1607 C322 2.630 . S
C1601 C133 2.640 . S
C1627 C799 0.623 . S
C1621 C296 0.628 . S
C1641 C107 1.547 . S
C1647 C402 1.538 . S
C1661 C264 1.564 . S
C1667 C763 1.547 . S
C1681 C140 2.068 . S
C1687 C483 2.055 . S
C1707 C691 1.565 . S
C1701 C289 1.586 . S
C1721 C114 0.516 . S
C1727 C559 0.552 1_565 S
C1741 C265 2.260 . S
C1747 C842 2.237 . S
C1761 C179 1.619 . S
C1767 C319 1.589 . S
C1781 C161 2.172 . S
C1787 C642 2.169 . S
C1801 C244 2.867 . S
C1807 C514 2.812 . S
C1821 C224 1.019 . S
C1827 C723 1.002 . S
C1847 C839 1.466 . S
C1841 C257 1.487 . S
C1861 C199 1.670 . S
C1867 C399 1.655 . S
C1887 C442 2.449 . S
C1881 C237 2.472 . S
C1907 C363 0.805 . S
C1901 C185 0.790 . S
C1921 C69 2.209 . S
C1927 C874 2.150 . S
C1947 C811 2.117 . S
C1941 C83 2.070 . S
C1961 C94 1.019 . S
C1967 C914 1.006 . S
C1981 C56 1.382 . S
C1987 C768 1.363 . S
C2001 C42 1.462 . S
C2007 C648 1.409 . S
C2027 C679 0.473 . S
C2021 C3 0.437 . S
C2047 C731 1.243 . S
C2041 C16 1.161 . S
C2067 C834 1.791 . S
C2061 C36 1.872 . S
C2087 C891 2.411 . S
C2081 C238 2.400 . S
C2101 C174 0.594 . S
C2107 C808 0.612 . S
C2127 C931 1.285 . S
C2121 C186 1.280 . S
C2147 C754 1.180 . S
C2141 C198 1.208 . S
C2167 C634 1.813 . S
C2161 C239 1.860 . S
C2181 C173 1.450 . S
C2187 C682 1.452 . S
C2207 C728 0.502 . S
C2201 C187 0.395 . S
C2221 C205 2.036 . S
C2227 C851 2.023 . S
C2247 C888 1.493 . S
C2241 C290 1.543 . S
C2261 C122 1.907 . S
C2267 C491 1.936 . S
C2287 C523 2.594 . S
C2281 C134 2.638 . S
C2307 C554 0.497 . S
C2301 C148 0.443 . S
C2327 C848 1.561 . S
C2321 C283 1.604 . S
C2341 C270 1.614 . S
C2347 C928 1.595 . S
C2367 C451 2.198 . S
C2361 C135 2.196 . S
C2387 C354 0.646 . S
C2381 C109 0.579 . S
C2401 C81 2.353 . S
C2407 C883 2.338 . S
C2427 C362 2.367 . S
C2421 C68 2.361 . S
C2441 C62 1.424 . S
C2447 C923 1.382 . S
C2461 C95 1.585 . S
C2467 C439 1.570 . S
C2481 C30 1.431 . S
C2487 C639 1.408 . S
C2507 C528 0.643 . S
C2501 C17 0.620 . S
C2521 C5 1.599 . S
C2527 C722 1.616 . S
C2541 C43 1.915 . S
C2547 C603 1.874 . S
C2567 C882 2.631 . S
C2561 C304 2.639 . S
C2581 C153 0.638 . S
C2587 C359 0.665 . S
C2607 C922 1.530 . S
C2601 C278 1.550 . S
C2621 C127 1.564 . S
C2627 C443 1.547 . S
C2641 C303 2.055 . S
C2647 C643 2.055 . S
C2667 C531 1.554 . S
C2661 C146 1.584 . S
C2681 C277 0.505 . S
C2687 C719 0.529 . S
C2707 C602 2.233 . S
C2701 C120 2.257 . S
C2727 C879 1.570 . S
C2721 C231 1.605 . S
C2747 C482 2.171 1_665 S
C2741 C200 2.168 . S
C2761 C212 2.867 . S
C2767 C674 2.814 . S
C2787 C563 1.004 . S
C2781 C172 1.019 . S
C2801 C192 1.495 . S
C2807 C599 1.475 . S
C2821 C160 1.675 . S
C2827 C919 1.662 . S
C2847 C762 2.455 . S
C2841 C213 2.472 1_565 S
C2867 C803 0.795 . S
C2861 C250 0.785 . S
