# Generated by pormake.
# Topology ocu, (6,8)-cn, num edge types: 1
# Building blocks:
#     Node 0, Type 0, BuildingBlock: VOLQOD_clean_sbu_1, # of connection points: 6
#     Node 1, Type 0, BuildingBlock: VOLQOD_clean_sbu_1, # of connection points: 6
#     Node 2, Type 0, BuildingBlock: VOLQOD_clean_sbu_1, # of connection points: 6
#     Node 3, Type 0, BuildingBlock: VOLQOD_clean_sbu_1, # of connection points: 6
#     Node 4, Type 0, BuildingBlock: VOLQOD_clean_sbu_1, # of connection points: 6
#     Node 5, Type 0, BuildingBlock: VOLQOD_clean_sbu_1, # of connection points: 6
#     Node 6, Type 0, BuildingBlock: VOLQOD_clean_sbu_1, # of connection points: 6
#     Node 7, Type 0, BuildingBlock: VOLQOD_clean_sbu_1, # of connection points: 6
#     Node 8, Type 1, BuildingBlock: GIZVER_clean_sbu_0, # of connection points: 8
#     Node 9, Type 1, BuildingBlock: GIZVER_clean_sbu_0, # of connection points: 8
#     Node 10, Type 1, BuildingBlock: GIZVER_clean_sbu_0, # of connection points: 8
#     Node 11, Type 1, BuildingBlock: GIZVER_clean_sbu_0, # of connection points: 8
#     Node 12, Type 1, BuildingBlock: GIZVER_clean_sbu_0, # of connection points: 8
#     Node 13, Type 1, BuildingBlock: GIZVER_clean_sbu_0, # of connection points: 8
#     Edge 14, Type (0, 1), BuildingBlock: KIFKEQ_clean_linker_1, # of connection points: 2
#     Edge 15, Type (0, 1), BuildingBlock: KIFKEQ_clean_linker_1, # of connection points: 2
#     Edge 16, Type (0, 1), BuildingBlock: KIFKEQ_clean_linker_1, # of connection points: 2
#     Edge 17, Type (0, 1), BuildingBlock: KIFKEQ_clean_linker_1, # of connection points: 2
#     Edge 18, Type (0, 1), BuildingBlock: KIFKEQ_clean_linker_1, # of connection points: 2
#     Edge 19, Type (0, 1), BuildingBlock: KIFKEQ_clean_linker_1, # of connection points: 2
#     Edge 20, Type (0, 1), BuildingBlock: KIFKEQ_clean_linker_1, # of connection points: 2
#     Edge 21, Type (0, 1), BuildingBlock: KIFKEQ_clean_linker_1, # of connection points: 2
#     Edge 22, Type (0, 1), BuildingBlock: KIFKEQ_clean_linker_1, # of connection points: 2
#     Edge 23, Type (0, 1), BuildingBlock: KIFKEQ_clean_linker_1, # of connection points: 2
#     Edge 24, Type (0, 1), BuildingBlock: KIFKEQ_clean_linker_1, # of connection points: 2
#     Edge 25, Type (0, 1), BuildingBlock: KIFKEQ_clean_linker_1, # of connection points: 2
#     Edge 26, Type (0, 1), BuildingBlock: KIFKEQ_clean_linker_1, # of connection points: 2
#     Edge 27, Type (0, 1), BuildingBlock: KIFKEQ_clean_linker_1, # of connection points: 2
#     Edge 28, Type (0, 1), BuildingBlock: KIFKEQ_clean_linker_1, # of connection points: 2
#     Edge 29, Type (0, 1), BuildingBlock: KIFKEQ_clean_linker_1, # of connection points: 2
#     Edge 30, Type (0, 1), BuildingBlock: KIFKEQ_clean_linker_1, # of connection points: 2
#     Edge 31, Type (0, 1), BuildingBlock: KIFKEQ_clean_linker_1, # of connection points: 2
#     Edge 32, Type (0, 1), BuildingBlock: KIFKEQ_clean_linker_1, # of connection points: 2
#     Edge 33, Type (0, 1), BuildingBlock: KIFKEQ_clean_linker_1, # of connection points: 2
#     Edge 34, Type (0, 1), BuildingBlock: KIFKEQ_clean_linker_1, # of connection points: 2
#     Edge 35, Type (0, 1), BuildingBlock: KIFKEQ_clean_linker_1, # of connection points: 2
#     Edge 36, Type (0, 1), BuildingBlock: KIFKEQ_clean_linker_1, # of connection points: 2
#     Edge 37, Type (0, 1), BuildingBlock: KIFKEQ_clean_linker_1, # of connection points: 2
#     Edge 38, Type (0, 1), BuildingBlock: KIFKEQ_clean_linker_1, # of connection points: 2
#     Edge 39, Type (0, 1), BuildingBlock: KIFKEQ_clean_linker_1, # of connection points: 2
#     Edge 40, Type (0, 1), BuildingBlock: KIFKEQ_clean_linker_1, # of connection points: 2
#     Edge 41, Type (0, 1), BuildingBlock: KIFKEQ_clean_linker_1, # of connection points: 2
#     Edge 42, Type (0, 1), BuildingBlock: KIFKEQ_clean_linker_1, # of connection points: 2
#     Edge 43, Type (0, 1), BuildingBlock: KIFKEQ_clean_linker_1, # of connection points: 2
#     Edge 44, Type (0, 1), BuildingBlock: KIFKEQ_clean_linker_1, # of connection points: 2
#     Edge 45, Type (0, 1), BuildingBlock: KIFKEQ_clean_linker_1, # of connection points: 2
#     Edge 46, Type (0, 1), BuildingBlock: KIFKEQ_clean_linker_1, # of connection points: 2
#     Edge 47, Type (0, 1), BuildingBlock: KIFKEQ_clean_linker_1, # of connection points: 2
#     Edge 48, Type (0, 1), BuildingBlock: KIFKEQ_clean_linker_1, # of connection points: 2
#     Edge 49, Type (0, 1), BuildingBlock: KIFKEQ_clean_linker_1, # of connection points: 2
#     Edge 50, Type (0, 1), BuildingBlock: KIFKEQ_clean_linker_1, # of connection points: 2
#     Edge 51, Type (0, 1), BuildingBlock: KIFKEQ_clean_linker_1, # of connection points: 2
#     Edge 52, Type (0, 1), BuildingBlock: KIFKEQ_clean_linker_1, # of connection points: 2
#     Edge 53, Type (0, 1), BuildingBlock: KIFKEQ_clean_linker_1, # of connection points: 2
#     Edge 54, Type (0, 1), BuildingBlock: KIFKEQ_clean_linker_1, # of connection points: 2
#     Edge 55, Type (0, 1), BuildingBlock: KIFKEQ_clean_linker_1, # of connection points: 2
#     Edge 56, Type (0, 1), BuildingBlock: KIFKEQ_clean_linker_1, # of connection points: 2
#     Edge 57, Type (0, 1), BuildingBlock: KIFKEQ_clean_linker_1, # of connection points: 2
#     Edge 58, Type (0, 1), BuildingBlock: KIFKEQ_clean_linker_1, # of connection points: 2
#     Edge 59, Type (0, 1), BuildingBlock: KIFKEQ_clean_linker_1, # of connection points: 2
#     Edge 60, Type (0, 1), BuildingBlock: KIFKEQ_clean_linker_1, # of connection points: 2
#     Edge 61, Type (0, 1), BuildingBlock: KIFKEQ_clean_linker_1, # of connection points: 2
# Relax obj value: 0.254
# Max RMSD: 0.358
# Mean RMSD: 0.249
data_MOF--net-ocu--node1-VOLQOD_clean_sbu_1--node2-GIZVER_clean_sbu_0--edge1-KIFKEQ_clean_linker_1
_symmetry_space_group_name_H-M    P1
_symmetry_Int_Tables_number       1
_symmetry_cell_setting            triclinic
loop_
_symmetry_equiv_pos_as_xyz
'x, y, z'
_cell_length_a     42.638206
_cell_length_b     44.59416
_cell_length_c     31.337279
_cell_angle_alpha  88.990679
_cell_angle_beta   90.880952
_cell_angle_gamma 101.12345
loop_
_atom_site_label
_atom_site_type_symbol
_atom_site_fract_x
_atom_site_fract_y
_atom_site_fract_z
_atom_type_partial_charge
O0 O 0.30981 0.30111 0.2745 0.0
Zn1 Zn 0.27647 0.26918 0.3042 0.0
O2 O 0.24999 0.24278 0.2612 0.0
Zn3 Zn 0.2051 0.24527 0.26655 0.0
Zn4 Zn 0.26353 0.25538 0.20292 0.0
Zn5 Zn 0.2534 0.20015 0.2703 0.0
O6 O 0.17715 0.20467 0.27953 0.0
O7 O 0.21104 0.17276 0.28293 0.0
O8 O 0.24847 0.29258 0.3388 0.0
O9 O 0.19975 0.27294 0.31415 0.0
O10 O 0.18825 0.26345 0.21388 0.0
O11 O 0.22864 0.27074 0.16866 0.0
O12 O 0.28001 0.22171 0.17201 0.0
O13 O 0.30021 0.24359 0.34418 0.0
O14 O 0.27327 0.1838 0.21989 0.0
O15 O 0.28163 0.19658 0.32078 0.0
C16 C 0.31567 0.30705 0.23514 0.0
C17 C 0.18282 0.17793 0.28563 0.0
C18 C 0.2001 0.27278 0.17789 0.0
C19 C 0.21818 0.29064 0.33915 0.0
C20 C 0.2827 0.19468 0.18341 0.0
C21 C 0.29882 0.21473 0.34649 0.0
O22 O 0.29974 0.29124 0.20584 0.0
O23 O 0.74049 0.20322 0.18827 0.0
Zn24 Zn 0.77162 0.2328 0.22732 0.0
O25 O 0.74738 0.2583 0.26086 0.0
Zn26 Zn 0.76062 0.30106 0.24704 0.0
Zn27 Zn 0.70199 0.24795 0.24861 0.0
Zn28 Zn 0.75362 0.25383 0.32193 0.0
O29 O 0.7775 0.32681 0.29697 0.0
O30 O 0.77705 0.29249 0.34908 0.0
O31 O 0.80578 0.26048 0.19059 0.0
O32 O 0.79564 0.306 0.20672 0.0
O33 O 0.72744 0.31821 0.21569 0.0
O34 O 0.68447 0.28148 0.22002 0.0
O35 O 0.67641 0.23302 0.30002 0.0
O36 O 0.79498 0.20829 0.26867 0.0
O37 O 0.71249 0.23745 0.35236 0.0
O38 O 0.78089 0.22336 0.33171 0.0
C39 C 0.71008 0.1998 0.1843 0.0
C40 C 0.78421 0.31987 0.33509 0.0
C41 C 0.69825 0.30779 0.20716 0.0
C42 C 0.81134 0.28958 0.18653 0.0
C43 C 0.68371 0.22994 0.33912 0.0
C44 C 0.79584 0.2073 0.30944 0.0
O45 O 0.69419 0.21521 0.20617 0.0
O46 O 0.70709 0.70999 0.26863 0.0
Zn47 Zn 0.74267 0.74181 0.29525 0.0
O48 O 0.77006 0.76375 0.24881 0.0
Zn49 Zn 0.81385 0.75803 0.25488 0.0
Zn50 Zn 0.75513 0.74961 0.19184 0.0
Zn51 Zn 0.77074 0.80724 0.25159 0.0
O52 O 0.84481 0.79665 0.2677 0.0
O53 O 0.8141 0.8314 0.26581 0.0
O54 O 0.76972 0.7196 0.33618 0.0
O55 O 0.81713 0.73184 0.30533 0.0
O56 O 0.82837 0.73671 0.20517 0.0
O57 O 0.78747 0.73073 0.15956 0.0
O58 O 0.73883 0.7826 0.1569 0.0
O59 O 0.72128 0.77174 0.32901 0.0
O60 O 0.75276 0.82298 0.1983 0.0
O61 O 0.74282 0.816 0.29829 0.0
C62 C 0.70147 0.70235 0.22978 0.0
C63 C 0.84118 0.82404 0.27214 0.0
C64 C 0.81543 0.7268 0.16999 0.0
C65 C 0.79945 0.71844 0.33487 0.0
C66 C 0.73991 0.81084 0.16424 0.0
C67 C 0.7246 0.80081 0.32602 0.0
O68 O 0.71826 0.71567 0.19933 0.0
O69 O 0.29357 0.78116 0.33253 0.0
Zn70 Zn 0.26431 0.75058 0.29362 0.0
O71 O 0.2401 0.77143 0.2519 0.0
Zn72 Zn 0.19427 0.76032 0.26138 0.0
Zn73 Zn 0.25285 0.81495 0.25801 0.0
Zn74 Zn 0.24837 0.76139 0.19348 0.0
O75 O 0.17082 0.73766 0.21135 0.0
O76 O 0.20979 0.7348 0.16632 0.0
O77 O 0.23351 0.71902 0.32745 0.0
O78 O 0.18619 0.72958 0.30877 0.0
O79 O 0.17524 0.7962 0.27873 0.0
O80 O 0.21782 0.83365 0.28013 0.0
O81 O 0.26908 0.83586 0.20415 0.0
O82 O 0.29276 0.72692 0.26233 0.0
O83 O 0.26704 0.79863 0.15767 0.0
O84 O 0.28178 0.73633 0.19441 0.0
C85 C 0.30188 0.81009 0.32764 0.0
C86 C 0.18061 0.72757 0.1772 0.0
C87 C 0.18824 0.82381 0.28635 0.0
C88 C 0.20318 0.71432 0.3306 0.0
C89 C 0.27434 0.8268 0.16722 0.0
C90 C 0.29706 0.72399 0.2226 0.0
O91 O 0.28888 0.82457 0.29937 0.0
O92 O 0.25554 0.69953 0.68194 0.0
Zn93 Zn 0.28401 0.72998 0.7214 0.0
O94 O 0.25842 0.75506 0.75243 0.0
Zn95 Zn 0.27276 0.79801 0.74007 0.0
Zn96 Zn 0.21408 0.74418 0.73536 0.0
Zn97 Zn 0.26108 0.74872 0.81391 0.0
O98 O 0.29023 0.8206 0.79278 0.0
O99 O 0.27639 0.78785 0.84643 0.0
O100 O 0.31828 0.75747 0.6863 0.0
O101 O 0.30832 0.80371 0.69891 0.0
O102 O 0.2382 0.8172 0.71387 0.0
O103 O 0.1957 0.77968 0.71498 0.0
O104 O 0.18734 0.72137 0.78145 0.0
O105 O 0.30817 0.70762 0.76359 0.0
O106 O 0.22059 0.72206 0.83678 0.0
O107 O 0.29527 0.72548 0.82539 0.0
C108 C 0.22641 0.69833 0.67064 0.0
C109 C 0.28961 0.81425 0.83257 0.0
C110 C 0.20867 0.80717 0.70637 0.0
C111 C 0.3242 0.78638 0.68067 0.0
C112 C 0.1932 0.71329 0.81937 0.0
C113 C 0.31137 0.71002 0.80398 0.0
O114 O 0.20946 0.71535 0.68745 0.0
O115 O 0.20746 0.2052 0.76026 0.0
Zn116 Zn 0.24302 0.23387 0.79166 0.0
O117 O 0.273 0.25707 0.74945 0.0
Zn118 Zn 0.31652 0.25268 0.76237 0.0
Zn119 Zn 0.26226 0.24329 0.69097 0.0
Zn120 Zn 0.27169 0.30011 0.7518 0.0
O121 O 0.34535 0.29236 0.77657 0.0
O122 O 0.31394 0.32605 0.76631 0.0
O123 O 0.26675 0.20787 0.83084 0.0
O124 O 0.31741 0.22531 0.81301 0.0
O125 O 0.33475 0.23252 0.71455 0.0
O126 O 0.29784 0.2262 0.66313 0.0
O127 O 0.24638 0.27573 0.65425 0.0
O128 O 0.22226 0.26283 0.82767 0.0
O129 O 0.25406 0.31507 0.6981 0.0
O130 O 0.24275 0.30761 0.7977 0.0
C131 C 0.20503 0.19702 0.72134 0.0
C132 C 0.34087 0.31974 0.77671 0.0
C133 C 0.32511 0.22296 0.67768 0.0
C134 C 0.29665 0.20848 0.83607 0.0
C135 C 0.24439 0.30319 0.66252 0.0
C136 C 0.2249 0.29185 0.8253 0.0
O137 O 0.22517 0.20899 0.69349 0.0
O138 O 0.78621 0.27444 0.82156 0.0
Zn139 Zn 0.75653 0.24655 0.7801 0.0
O140 O 0.73475 0.27069 0.73951 0.0
Zn141 Zn 0.68868 0.25749 0.74027 0.0
Zn142 Zn 0.74452 0.31278 0.75621 0.0
Zn143 Zn 0.74879 0.26786 0.68075 0.0
O144 O 0.67209 0.23549 0.68603 0.0
O145 O 0.71373 0.24376 0.64278 0.0
O146 O 0.72365 0.21566 0.81264 0.0
O147 O 0.67822 0.22585 0.78574 0.0
O148 O 0.66547 0.29161 0.75458 0.0
O149 O 0.70584 0.33033 0.76578 0.0
O150 O 0.77174 0.33736 0.71307 0.0
O151 O 0.78383 0.22249 0.74774 0.0
O152 O 0.77359 0.30844 0.65674 0.0
O153 O 0.78048 0.24117 0.68199 0.0
C154 C 0.78816 0.3027 0.82977 0.0
C155 C 0.68481 0.23125 0.65064 0.0
C156 C 0.67604 0.31936 0.76453 0.0
C157 C 0.69317 0.21078 0.81104 0.0
C158 C 0.782 0.33374 0.67607 0.0
C159 C 0.79163 0.22402 0.70858 0.0
O160 O 0.7716 0.31888 0.80888 0.0
O161 O 0.80512 0.79673 0.76946 0.0
Zn162 Zn 0.77282 0.76293 0.79774 0.0
O163 O 0.7476 0.73669 0.75336 0.0
Zn164 Zn 0.70264 0.73929 0.75561 0.0
Zn165 Zn 0.7632 0.74918 0.69604 0.0
Zn166 Zn 0.75042 0.69404 0.76279 0.0
O167 O 0.67384 0.69881 0.76832 0.0
O168 O 0.70799 0.6673 0.77621 0.0
O169 O 0.74349 0.78443 0.8331 0.0
O170 O 0.69638 0.76752 0.80198 0.0
O171 O 0.68775 0.75733 0.7018 0.0
O172 O 0.72929 0.76333 0.65862 0.0
O173 O 0.78253 0.71635 0.66776 0.0
O174 O 0.79757 0.73744 0.83651 0.0
O175 O 0.77128 0.67727 0.71345 0.0
O176 O 0.77842 0.69054 0.81312 0.0
C177 C 0.8119 0.80277 0.73035 0.0
C178 C 0.67965 0.6724 0.77684 0.0
C179 C 0.70065 0.76595 0.66618 0.0
C180 C 0.71345 0.78382 0.82986 0.0
C181 C 0.7837 0.6889 0.67875 0.0
C182 C 0.79594 0.70853 0.83863 0.0
O183 O 0.79777 0.78608 0.70064 0.0
Co184 Co 0.0339 0.95381 0.50975 0.0
Co185 Co 0.04048 0.97723 0.58464 0.0
Co186 Co 0.99477 0.01031 0.53261 0.0
O187 O 0.03382 0.99302 0.53215 0.0
H188 H 0.05245 0.00795 0.52413 0.0
O189 O 0.95633 0.02839 0.53274 0.0
Co190 Co 0.95874 0.06969 0.54896 0.0
Co191 Co 0.94979 0.04073 0.47806 0.0
H192 H 0.93763 0.01457 0.54318 0.0
O193 O 0.08069 0.97653 0.60125 0.0
O194 O 0.04557 0.93922 0.56764 0.0
O195 O 0.00749 0.97271 0.62642 0.0
O196 O 0.97197 0.98129 0.57753 0.0
O197 O 0.01474 0.03868 0.57688 0.0
O198 O 0.95726 0.10653 0.5656 0.0
O199 O 0.917 0.06562 0.561 0.0
O200 O 0.00408 0.07931 0.5427 0.0
O201 O 0.0173 0.03892 0.48707 0.0
O202 O 0.98125 0.03804 0.43542 0.0
O203 O 0.94995 0.08135 0.48805 0.0
O204 O 0.91027 0.0446 0.46126 0.0
C205 C 0.06615 0.93373 0.48055 0.0
C206 C 0.97279 0.95307 0.49096 0.0
C207 C 0.97881 0.97129 0.6143 0.0
C208 C 0.07291 0.94871 0.58738 0.0
C209 C 0.9276 0.09391 0.57199 0.0
C210 C 0.02062 0.06733 0.57009 0.0
C211 C 0.01014 0.0427 0.44789 0.0
C212 C 0.92226 0.07317 0.46856 0.0
O213 O 0.03737 0.91872 0.48754 0.0
O214 O 0.07522 0.96141 0.49481 0.0
O215 O 0.97499 0.98184 0.48828 0.0
O216 O 0.98941 0.94169 0.51885 0.0
Co217 Co 0.54564 0.93967 0.98781 0.0
Co218 Co 0.54346 0.95796 0.06536 0.0
Co219 Co 0.50728 0.99973 0.0044 0.0
O220 O 0.54425 0.97872 0.01304 0.0
H221 H 0.56437 0.99288 0.01019 0.0
O222 O 0.46991 0.01994 0.99632 0.0
Co223 Co 0.46844 0.05919 0.01891 0.0
Co224 Co 0.46718 0.03675 0.94277 0.0
H225 H 0.4501 0.00575 0.0014 0.0
O226 O 0.58198 0.95526 0.09072 0.0
O227 O 0.55236 0.92215 0.04526 0.0
O228 O 0.50335 0.94763 0.09409 0.0
O229 O 0.47939 0.9751 0.04867 0.0
O230 O 0.52696 0.03076 0.04698 0.0
O231 O 0.46285 0.09448 0.04053 0.0
O232 O 0.42577 0.05217 0.02812 0.0
O233 O 0.51402 0.07136 0.01432 0.0
O234 O 0.53473 0.02481 0.95962 0.0
O235 O 0.50501 0.04229 0.90925 0.0
O236 O 0.46124 0.07471 0.96017 0.0
O237 O 0.42767 0.04032 0.92066 0.0
C238 C 0.58056 0.91818 0.96523 0.0
C239 C 0.48039 0.94073 0.97137 0.0
C240 C 0.47856 0.95654 0.08018 0.0
C241 C 0.57799 0.93029 0.06887 0.0
C242 C 0.43317 0.08022 0.04164 0.0
C243 C 0.53353 0.05913 0.03696 0.0
C244 C 0.53192 0.03869 0.92413 0.0
C245 C 0.43453 0.06687 0.93861 0.0
O246 O 0.55057 0.905 0.96475 0.0
O247 O 0.58873 0.94618 0.97893 0.0
O248 O 0.48767 0.96907 0.96168 0.0
O249 O 0.50009 0.92757 0.99205 0.0
Co250 Co 0.04397 0.43565 0.98351 0.0
Co251 Co 0.04897 0.46022 0.0592 0.0
Co252 Co 0.00584 0.49575 -0.00121 0.0
O253 O 0.0443 0.47622 0.00441 0.0
H254 H 0.06366 0.4903 0.99679 0.0
O255 O 0.96689 0.51507 0.99285 0.0
Co256 Co 0.96868 0.55645 0.01097 0.0
Co257 Co 0.96275 0.52974 0.93676 0.0
H258 H 0.94754 0.50139 0.00152 0.0
O259 O 0.08838 0.45307 0.07926 0.0
O260 O 0.05116 0.42093 0.04224 0.0
O261 O 0.01224 0.4544 0.09511 0.0
O262 O 0.98101 0.46889 0.04423 0.0
O263 O 0.02637 0.5277 0.04095 0.0
O264 O 0.96778 0.5935 0.02849 0.0
O265 O 0.92639 0.55387 0.02382 0.0
O266 O 0.01257 0.56462 0.00161 0.0
O267 O 0.03082 0.5221 0.9532 0.0
O268 O 0.99982 0.53477 0.90084 0.0
O269 O 0.96044 0.56937 0.95181 0.0
O270 O 0.92339 0.53644 0.91587 0.0
C271 C 0.0774 0.41239 0.96113 0.0
C272 C 0.97979 0.43594 0.96587 0.0
C273 C 0.98477 0.45491 0.07937 0.0
C274 C 0.0783 0.42631 0.06301 0.0
C275 C 0.93755 0.58249 0.0332 0.0
C276 C 0.0298 0.55616 0.03111 0.0
C277 C 0.02727 0.53468 0.917 0.0
C278 C 0.93313 0.56341 0.9316 0.0
O279 O 0.04738 0.39955 0.9633 0.0
O280 O 0.08647 0.4407 0.97322 0.0
O281 O 0.98539 0.46446 0.95648 0.0
O282 O 0.99901 0.42474 0.99003 0.0
Co283 Co 0.53008 0.45416 0.99446 0.0
Co284 Co 0.54572 0.47226 0.06998 0.0
Co285 Co 0.49761 0.51084 0.03217 0.0
O286 O 0.53533 0.49224 0.02265 0.0
H287 H 0.55371 0.50687 0.01302 0.0
O288 O 0.46032 0.52985 0.04128 0.0
Co289 Co 0.46447 0.57053 0.06073 0.0
Co290 Co 0.44958 0.54428 0.98976 0.0
H291 H 0.44228 0.51591 0.05321 0.0
O292 O 0.58695 0.46999 0.07754 0.0
O293 O 0.54782 0.4356 0.04537 0.0
O294 O 0.51636 0.46492 0.11659 0.0
O295 O 0.47835 0.48147 0.07889 0.0
O296 O 0.52263 0.53782 0.07481 0.0
O297 O 0.46489 0.60707 0.08095 0.0
O298 O 0.42401 0.56661 0.07876 0.0
O299 O 0.50872 0.57946 0.04768 0.0
O300 O 0.51681 0.53992 0.98528 0.0
O301 O 0.47655 0.54323 0.94117 0.0
O302 O 0.45114 0.58436 0.00266 0.0
O303 O 0.40922 0.54793 0.98027 0.0
C304 C 0.55575 0.4343 0.95314 0.0
C305 C 0.46938 0.455 0.99109 0.0
C306 C 0.48746 0.46744 0.1113 0.0
C307 C 0.577 0.44345 0.06031 0.0
C308 C 0.43561 0.59463 0.09014 0.0
C309 C 0.5269 0.56679 0.07182 0.0
C310 C 0.50619 0.54566 0.94839 0.0
C311 C 0.42267 0.5765 0.98494 0.0
O312 O 0.5278 0.42022 0.96573 0.0
O313 O 0.56862 0.46068 0.96934 0.0
O314 O 0.47234 0.48388 0.98934 0.0
O315 O 0.48833 0.44335 0.01499 0.0
Co316 Co 0.07474 0.46573 0.51286 0.0
Co317 Co 0.0454 0.46245 0.4393 0.0
Co318 Co 0.01263 0.50422 0.50101 0.0
O319 O 0.03132 0.46639 0.49486 0.0
H320 H 0.01656 0.44812 0.50354 0.0
O321 O 0.99415 0.54213 0.50716 0.0
Co322 Co 0.95036 0.54264 0.49177 0.0
Co323 Co 0.98309 0.54734 0.56374 0.0
H324 H 0.00854 0.56024 0.49709 0.0
O325 O 0.04866 0.42459 0.41844 0.0
O326 O 0.08647 0.45755 0.45354 0.0
O327 O 0.05195 0.4981 0.40348 0.0
O328 O 0.0383 0.52788 0.45359 0.0
O329 O 0.97737 0.48606 0.4609 0.0
O330 O 0.91108 0.54637 0.47637 0.0
O331 O 0.955 0.58343 0.48155 0.0
O332 O 0.93962 0.50011 0.4991 0.0
O333 O 0.9864 0.48105 0.5484 0.0
O334 O 0.98173 0.51259 0.60119 0.0
O335 O 0.94035 0.54844 0.55214 0.0
O336 O 0.97606 0.58489 0.58411 0.0
C337 C 0.10022 0.43368 0.53427 0.0
C338 C 0.07718 0.52619 0.53016 0.0
C339 C 0.05091 0.52425 0.41786 0.0
C340 C 0.07772 0.43199 0.43311 0.0
C341 C 0.92449 0.57503 0.47284 0.0
C342 C 0.9481 0.4828 0.47155 0.0
C343 C 0.97719 0.48593 0.58582 0.0
C344 C 0.94689 0.57439 0.57177 0.0
O345 O 0.11328 0.46238 0.53023 0.0
O346 O 0.06972 0.4249 0.52559 0.0
O347 O 0.0479 0.52228 0.54108 0.0
O348 O 0.08614 0.50837 0.50364 0.0
Co349 Co 0.57581 0.96443 0.517 0.0
Co350 Co 0.55781 0.97416 0.44092 0.0
Co351 Co 0.51318 0.00156 0.50783 0.0
O352 O 0.53574 0.96861 0.4912 0.0
H353 H 0.52106 0.94918 0.49023 0.0
O354 O 0.49085 0.03473 0.52443 0.0
Co355 Co 0.45007 0.0381 0.50009 0.0
Co356 Co 0.47005 0.02874 0.57588 0.0
H357 H 0.50532 0.05429 0.52465 0.0
O358 O 0.56073 0.94045 0.40901 0.0
O359 O 0.59512 0.9628 0.45972 0.0
O360 O 0.56667 0.01516 0.41971 0.0
O361 O 0.53578 0.03313 0.46619 0.0
O362 O 0.47925 0.98591 0.46487 0.0
O363 O 0.41381 0.04473 0.47716 0.0
O364 O 0.45715 0.07969 0.49553 0.0
O365 O 0.43727 0.99453 0.49998 0.0
O366 O 0.49048 0.96986 0.54931 0.0
O367 O 0.46271 0.98797 0.59945 0.0
O368 O 0.4326 0.04021 0.55827 0.0
O369 O 0.46883 0.06273 0.6071 0.0
C370 C 0.59565 0.92801 0.53678 0.0
C371 C 0.57601 0.02579 0.5406 0.0
C372 C 0.5555 0.03694 0.43535 0.0
C373 C 0.58679 0.94139 0.43148 0.0
C374 C 0.42821 0.07317 0.47942 0.0
C375 C 0.45006 0.97781 0.47559 0.0
C376 C 0.47257 0.96605 0.58205 0.0
C377 C 0.44268 0.06231 0.58497 0.0
O378 O 0.61136 0.95593 0.54131 0.0
O379 O 0.56703 0.92338 0.51983 0.0
O380 O 0.5469 0.01705 0.55116 0.0
O381 O 0.58985 0.00851 0.5184 0.0
H382 H 0.11912 0.17929 0.28905 0.0
H383 H 0.18718 0.1208 0.31578 0.0
H384 H 0.07735 0.14194 0.32273 0.0
H385 H 0.14508 0.08319 0.34911 0.0
H386 H 0.07465 0.05514 0.46264 0.0
H387 H 0.11587 0.08346 0.41657 0.0
H388 H 0.04464 0.09009 0.31918 0.0
H389 H 0.0032 0.06205 0.36542 0.0
C390 C 0.12507 0.15822 0.30142 0.0
C391 C 0.1566 0.15321 0.30012 0.0
C392 C 0.10104 0.1367 0.3205 0.0
C393 C 0.10799 0.10972 0.33885 0.0
C394 C 0.13913 0.10397 0.3357 0.0
C395 C 0.16318 0.12545 0.31638 0.0
C396 C 0.06778 0.0623 0.43121 0.0
C397 C 0.03555 0.05667 0.41796 0.0
C398 C 0.09147 0.07834 0.40466 0.0
C399 C 0.08346 0.08916 0.36433 0.0
C400 C 0.05145 0.08235 0.35031 0.0
C401 C 0.02775 0.06619 0.37678 0.0
H402 H 0.84787 0.18528 0.28167 0.0
H403 H 0.7867 0.18563 0.39037 0.0
H404 H 0.88047 0.15537 0.32377 0.0
H405 H 0.81898 0.15607 0.43175 0.0
H406 H 0.85829 0.06788 0.46299 0.0
H407 H 0.82859 0.10145 0.4243 0.0
H408 H 0.917 0.16304 0.39447 0.0
H409 H 0.94695 0.1293 0.43395 0.0
C410 C 0.8413 0.17883 0.31429 0.0
C411 C 0.81473 0.18769 0.33268 0.0
C412 C 0.86011 0.16211 0.33844 0.0
C413 C 0.85222 0.15368 0.38097 0.0
C414 C 0.82551 0.16229 0.39903 0.0
C415 C 0.80707 0.1792 0.37526 0.0
C416 C 0.87134 0.08884 0.44877 0.0
C417 C 0.90481 0.09613 0.45138 0.0
C418 C 0.85438 0.10799 0.42663 0.0
C419 C 0.87061 0.13458 0.40614 0.0
C420 C 0.90407 0.14243 0.40971 0.0
C421 C 0.92109 0.12343 0.43265 0.0
H422 H 0.8993 0.81441 0.30185 0.0
H423 H 0.84051 0.88322 0.29191 0.0
H424 H 0.935 0.84643 0.35151 0.0
H425 H 0.87545 0.91456 0.34222 0.0
H426 H 0.95209 0.9739 0.41576 0.0
H427 H 0.92649 0.94459 0.35635 0.0
H428 H 0.93105 0.86077 0.4255 0.0
H429 H 0.9582 0.89043 0.48498 0.0
C430 C 0.89434 0.83661 0.30949 0.0
C431 C 0.86682 0.8461 0.29323 0.0
C432 C 0.91459 0.85476 0.33839 0.0
C433 C 0.90777 0.88277 0.35144 0.0
C434 C 0.88157 0.89319 0.33275 0.0
C435 C 0.86143 0.87514 0.30383 0.0
C436 C 0.94772 0.9492 0.41852 0.0
C437 C 0.95684 0.93446 0.45544 0.0
C438 C 0.93298 0.9324 0.3843 0.0
C439 C 0.92648 0.90036 0.38622 0.0
C440 C 0.93608 0.88547 0.4228 0.0
C441 C 0.95129 0.9024 0.45706 0.0
H442 H 0.12378 0.81372 0.29978 0.0
H443 H 0.21141 0.87862 0.32346 0.0
H444 H 0.09536 0.84249 0.34597 0.0
H445 H 0.18332 0.90655 0.37086 0.0
H446 H 0.06438 0.87318 0.4717 0.0
H447 H 0.09398 0.84891 0.42134 0.0
H448 H 0.1442 0.9378 0.37867 0.0
H449 H 0.1152 0.96203 0.43051 0.0
C450 C 0.1369 0.83425 0.31449 0.0
C451 C 0.16988 0.84367 0.30831 0.0
C452 C 0.12072 0.85057 0.34131 0.0
C453 C 0.13726 0.87642 0.36284 0.0
C454 C 0.16985 0.88681 0.3547 0.0
C455 C 0.18596 0.8707 0.32753 0.0
C456 C 0.08204 0.88749 0.45189 0.0
C457 C 0.0875 0.91943 0.45475 0.0
C458 C 0.09871 0.87363 0.42267 0.0
C459 C 0.12089 0.89145 0.39527 0.0
C460 C 0.12729 0.92343 0.39937 0.0
C461 C 0.11082 0.93731 0.42911 0.0
H462 H 0.14374 0.7975 0.69695 0.0
H463 H 0.23035 0.8618 0.66638 0.0
H464 H 0.11216 0.83079 0.66128 0.0
H465 H 0.19886 0.89452 0.62957 0.0
H466 H 0.13031 0.96186 0.62829 0.0
H467 H 0.1636 0.92669 0.6523 0.0
H468 H 0.09894 0.85222 0.59231 0.0
H469 H 0.06466 0.88767 0.56895 0.0
C470 C 0.15603 0.81863 0.68238 0.0
C471 C 0.18948 0.82727 0.68499 0.0
C472 C 0.13797 0.83751 0.66152 0.0
C473 C 0.15305 0.86525 0.64265 0.0
C474 C 0.18655 0.87348 0.64437 0.0
C475 C 0.20457 0.85477 0.66554 0.0
C476 C 0.12318 0.93805 0.61979 0.0
C477 C 0.09457 0.92745 0.59724 0.0
C478 C 0.1425 0.9179 0.6333 0.0
C479 C 0.13384 0.88668 0.62433 0.0
C480 C 0.10592 0.87615 0.60019 0.0
C481 C 0.08642 0.89642 0.58667 0.0
H482 H 0.14253 0.19049 0.74483 0.0
H483 H 0.2057 0.15374 0.66259 0.0
H484 H 0.0962 0.15849 0.70966 0.0
H485 H 0.15982 0.12167 0.62824 0.0
H486 H 0.07058 0.0477 0.6083 0.0
H487 H 0.11389 0.07728 0.6502 0.0
H488 H 0.07433 0.15843 0.62863 0.0
H489 H 0.03065 0.12874 0.58605 0.0
C490 C 0.14646 0.17504 0.72004 0.0
C491 C 0.17752 0.17439 0.70638 0.0
C492 C 0.12008 0.1571 0.69968 0.0
C493 C 0.12461 0.13788 0.66618 0.0
C494 C 0.15575 0.13625 0.65407 0.0
C495 C 0.18194 0.15453 0.67372 0.0
C496 C 0.07103 0.07186 0.61242 0.0
C497 C 0.04733 0.08601 0.59374 0.0
C498 C 0.09581 0.08871 0.63644 0.0
C499 C 0.09721 0.11997 0.64278 0.0
C500 C 0.07344 0.13421 0.6245 0.0
C501 C 0.04877 0.11737 0.59981 0.0
H502 H 0.80512 0.17077 0.74299 0.0
H503 H 0.82575 0.23386 0.6361 0.0
H504 H 0.83755 0.13745 0.71053 0.0
H505 H 0.85738 0.20078 0.60406 0.0
H506 H 0.94127 0.15465 0.58673 0.0
H507 H 0.90908 0.18496 0.62355 0.0
H508 H 0.83465 0.10514 0.64054 0.0
H509 H 0.86732 0.07417 0.60369 0.0
C510 C 0.81678 0.17762 0.71293 0.0
C511 C 0.81301 0.20487 0.69208 0.0
C512 C 0.83493 0.15847 0.69423 0.0
C513 C 0.84978 0.16666 0.65488 0.0
C514 C 0.84634 0.1941 0.63457 0.0
C515 C 0.82817 0.21297 0.65293 0.0
C516 C 0.91804 0.14341 0.59816 0.0
C517 C 0.90671 0.11203 0.59215 0.0
C518 C 0.89965 0.16082 0.61926 0.0
C519 C 0.86951 0.14731 0.6348 0.0
C520 C 0.85803 0.11592 0.62909 0.0
C521 C 0.8765 0.09836 0.60766 0.0
H522 H 0.82519 0.82575 0.65033 0.0
H523 H 0.85231 0.84234 0.78264 0.0
H524 H 0.86361 0.87058 0.62899 0.0
H525 H 0.89108 0.88793 0.76083 0.0
H526 H 0.9843 0.93709 0.68671 0.0
H527 H 0.94236 0.89938 0.71993 0.0
H528 H 0.87258 0.92657 0.63373 0.0
H529 H 0.91443 0.96389 0.59998 0.0
C530 C 0.83929 0.83901 0.675 0.0
C531 C 0.83569 0.83032 0.71827 0.0
C532 C 0.86113 0.86498 0.66271 0.0
C533 C 0.8801 0.88301 0.69326 0.0
C534 C 0.87672 0.87443 0.73661 0.0
C535 C 0.85455 0.84839 0.74905 0.0
C536 C 0.95992 0.9355 0.67539 0.0
C537 C 0.95283 0.95311 0.64008 0.0
C538 C 0.93586 0.91395 0.6946 0.0
C539 C 0.90431 0.90964 0.6789 0.0
C540 C 0.89684 0.92894 0.6459 0.0
C541 C 0.92083 0.95042 0.62667 0.0
H542 H 0.31666 0.21321 0.11063 0.0
H543 H 0.28754 0.13464 0.1936 0.0
H544 H 0.34991 0.18482 0.07084 0.0
H545 H 0.32096 0.10654 0.15416 0.0
H546 H 0.4398 0.14073 0.05983 0.0
H547 H 0.4 0.16727 0.08794 0.0
H548 H 0.32979 0.08338 0.08531 0.0
H549 H 0.36989 0.05658 0.05724 0.0
C550 C 0.31695 0.18978 0.12006 0.0
C551 C 0.29958 0.17635 0.15561 0.0
C552 C 0.33619 0.17357 0.0974 0.0
C553 C 0.33834 0.14348 0.10954 0.0
C554 C 0.31972 0.12957 0.14372 0.0
C555 C 0.30067 0.14581 0.16653 0.0
C556 C 0.41586 0.12788 0.06506 0.0
C557 C 0.40818 0.09639 0.05681 0.0
C558 C 0.39292 0.14322 0.08081 0.0
C559 C 0.36168 0.12748 0.08898 0.0
C560 C 0.35373 0.09611 0.07978 0.0
C561 C 0.37668 0.08077 0.06363 0.0
H562 H 0.87481 0.28596 0.18499 0.0
H563 H 0.80437 0.33267 0.12872 0.0
H564 H 0.91753 0.32577 0.1562 0.0
H565 H 0.8462 0.3727 0.1017 0.0
H566 H 0.9279 0.43466 0.03863 0.0
H567 H 0.88823 0.38985 0.05605 0.0
H568 H 0.93912 0.37777 0.17358 0.0
H569 H 0.98023 0.42188 0.15467 0.0
C570 C 0.86855 0.30411 0.16513 0.0
C571 C 0.83645 0.30626 0.15872 0.0
C572 C 0.8929 0.32727 0.14945 0.0
C573 C 0.88537 0.35285 0.1273 0.0
C574 C 0.85312 0.35342 0.11822 0.0
C575 C 0.82903 0.33038 0.13363 0.0
C576 C 0.93052 0.42284 0.06858 0.0
C577 C 0.95731 0.4321 0.09537 0.0
C578 C 0.90769 0.39691 0.07852 0.0
C579 C 0.91049 0.37988 0.1161 0.0
C580 C 0.93658 0.38983 0.14382 0.0
C581 C 0.95983 0.41552 0.13344 0.0
H582 H 0.74049 0.87179 0.16855 0.0
H583 H 0.69774 0.7914 0.09817 0.0
H584 H 0.70322 0.89977 0.13592 0.0
H585 H 0.66085 0.8202 0.06339 0.0
H586 H 0.57186 0.86794 0.07026 0.0
H587 H 0.6146 0.83902 0.08225 0.0
H588 H 0.68443 0.92339 0.07758 0.0
H589 H 0.64159 0.95197 0.06868 0.0
C590 C 0.72366 0.86026 0.14511 0.0
C591 C 0.72193 0.82916 0.1365 0.0
C592 C 0.70226 0.8765 0.12594 0.0
C593 C 0.67864 0.86232 0.09704 0.0
C594 C 0.67828 0.83174 0.08608 0.0
C595 C 0.6997 0.81532 0.10565 0.0
C596 C 0.59643 0.88009 0.07161 0.0
C597 C 0.60348 0.91213 0.06993 0.0
C598 C 0.62101 0.86357 0.07804 0.0
C599 C 0.65311 0.87886 0.082 0.0
C600 C 0.66004 0.91083 0.07638 0.0
C601 C 0.63551 0.92726 0.07113 0.0
H602 H 0.19645 0.6849 0.12415 0.0
H603 H 0.1152 0.71511 0.17754 0.0
H604 H 0.16053 0.64182 0.09115 0.0
H605 H 0.07942 0.67231 0.14386 0.0
H606 H 0.0303 0.61705 0.02886 0.0
H607 H 0.0667 0.65773 0.06418 0.0
H608 H 0.1186 0.59208 0.11885 0.0
H609 H 0.08114 0.5504 0.08385 0.0
C610 C 0.17093 0.68264 0.12834 0.0
C611 C 0.15865 0.70364 0.15318 0.0
C612 C 0.15047 0.65772 0.10993 0.0
C613 C 0.11729 0.65362 0.1153 0.0
C614 C 0.10495 0.67494 0.1393 0.0
C615 C 0.12541 0.69951 0.15838 0.0
C616 C 0.04921 0.61095 0.04864 0.0
C617 C 0.05256 0.58026 0.05379 0.0
C618 C 0.07007 0.63442 0.06892 0.0
C619 C 0.09533 0.62807 0.09434 0.0
C620 C 0.09923 0.59753 0.09929 0.0
C621 C 0.07778 0.57373 0.0795 0.0
H622 H 0.30773 0.80445 0.91543 0.0
H623 H 0.31777 0.87344 0.81535 0.0
H624 H 0.35004 0.8366 0.95654 0.0
H625 H 0.36036 0.90494 0.85561 0.0
H626 H 0.42926 0.96357 0.9409 0.0
H627 H 0.37779 0.93531 0.9163 0.0
H628 H 0.40739 0.85032 0.94899 0.0
H629 H 0.45863 0.8787 0.97488 0.0
C630 C 0.31839 0.82673 0.90259 0.0
C631 C 0.30953 0.83619 0.86183 0.0
C632 C 0.34293 0.84501 0.92597 0.0
C633 C 0.35903 0.87317 0.90916 0.0
C634 C 0.34846 0.88353 0.86982 0.0
C635 C 0.32402 0.86533 0.84653 0.0
C636 C 0.42475 0.93884 0.94315 0.0
C637 C 0.44833 0.92337 0.95915 0.0
C638 C 0.39519 0.92262 0.92898 0.0
C639 C 0.38848 0.89049 0.93013 0.0
C640 C 0.41154 0.87505 0.94795 0.0
C641 C 0.44109 0.89131 0.96244 0.0
H642 H 0.17576 0.26784 0.8798 0.0
H643 H 0.23153 0.35338 0.83397 0.0
H644 H 0.14211 0.29611 0.91945 0.0
H645 H 0.19772 0.38124 0.8721 0.0
H646 H 0.14305 0.42722 0.96382 0.0
H647 H 0.18079 0.39654 0.93919 0.0
H648 H 0.10185 0.3254 0.90155 0.0
H649 H 0.06445 0.35551 0.92703 0.0
C650 C 0.18105 0.29258 0.87847 0.0
C651 C 0.20616 0.30824 0.85329 0.0
C652 C 0.16165 0.30882 0.90095 0.0
C653 C 0.16702 0.34102 0.89878 0.0
C654 C 0.193 0.35655 0.87505 0.0
C655 C 0.21227 0.34043 0.85273 0.0
C656 C 0.13383 0.40502 0.95032 0.0
C657 C 0.10075 0.39405 0.94683 0.0
C658 C 0.15543 0.38739 0.93622 0.0
C659 C 0.14441 0.35847 0.91816 0.0
C660 C 0.1113 0.34729 0.91578 0.0
C661 C 0.08979 0.3648 0.93001 0.0
H662 H 0.71208 0.15973 0.84557 0.0
H663 H 0.63039 0.20339 0.82981 0.0
H664 H 0.67663 0.11315 0.87202 0.0
H665 H 0.59558 0.15734 0.85565 0.0
H666 H 0.53754 0.06478 0.84455 0.0
H667 H 0.58085 0.10482 0.81974 0.0
H668 H 0.63522 0.09417 0.93443 0.0
H669 H 0.59198 0.05377 0.95945 0.0
C670 C 0.68679 0.15962 0.84858 0.0
C671 C 0.67394 0.18504 0.83504 0.0
C672 C 0.66657 0.13297 0.8634 0.0
C673 C 0.63337 0.1315 0.86456 0.0
C674 C 0.62099 0.15762 0.85382 0.0
C675 C 0.64101 0.18406 0.83933 0.0
C676 C 0.55903 0.07034 0.86403 0.0
C677 C 0.56106 0.05644 0.90425 0.0
C678 C 0.58374 0.09335 0.84991 0.0
C679 C 0.61094 0.10295 0.87571 0.0
C680 C 0.61442 0.08718 0.91407 0.0
C681 C 0.58964 0.06403 0.92825 0.0
H682 H 0.86065 0.72427 0.8506 0.0
H683 H 0.7771 0.66001 0.89108 0.0
H684 H 0.89487 0.69085 0.88107 0.0
H685 H 0.81094 0.62728 0.92307 0.0
H686 H 0.94894 0.62456 0.95069 0.0
H687 H 0.916 0.66344 0.94009 0.0
H688 H 0.84035 0.59496 0.88739 0.0
H689 H 0.87258 0.5563 0.89916 0.0
C690 C 0.84971 0.7037 0.86777 0.0
C691 C 0.81631 0.69459 0.86842 0.0
C692 C 0.86926 0.68445 0.8851 0.0
C693 C 0.85562 0.65595 0.90356 0.0
C694 C 0.82223 0.64859 0.90799 0.0
C695 C 0.80282 0.66751 0.89018 0.0
C696 C 0.92514 0.61782 0.93721 0.0
C697 C 0.9134 0.58727 0.9258 0.0
C698 C 0.90632 0.64014 0.93099 0.0
C699 C 0.87538 0.63238 0.91319 0.0
C700 C 0.86374 0.60176 0.90209 0.0
C701 C 0.88243 0.57955 0.90837 0.0
H702 H 0.22266 0.31422 0.1146 0.0
H703 H 0.13565 0.27068 0.17696 0.0
H704 H 0.1935 0.34936 0.0776 0.0
H705 H 0.10665 0.30564 0.13992 0.0
H706 H 0.0589 0.36475 0.05051 0.0
H707 H 0.08843 0.32417 0.06837 0.0
H708 H 0.16958 0.39198 0.10819 0.0
H709 H 0.14018 0.4324 0.09066 0.0
C710 C 0.19719 0.3116 0.11959 0.0
C711 C 0.18154 0.2898 0.14904 0.0
C712 C 0.18055 0.33187 0.09861 0.0
C713 C 0.14786 0.33044 0.10614 0.0
C714 C 0.13178 0.30724 0.13323 0.0
C715 C 0.14846 0.28728 0.15463 0.0
C716 C 0.08316 0.37099 0.06267 0.0
C717 C 0.09701 0.40179 0.06983 0.0
C718 C 0.10003 0.34775 0.07291 0.0
C719 C 0.13128 0.35487 0.08983 0.0
C720 C 0.14565 0.38574 0.09488 0.0
C721 C 0.12867 0.40891 0.08521 0.0
H722 H 0.12857 0.70281 0.80852 0.0
H723 H 0.20424 0.66838 0.87444 0.0
H724 H 0.09027 0.65781 0.83123 0.0
H725 H 0.16646 0.62248 0.89524 0.0
H726 H 0.08382 0.55662 0.95754 0.0
H727 H 0.12366 0.60052 0.93708 0.0
H728 H 0.07454 0.60596 0.81622 0.0
H729 H 0.0333 0.56285 0.83804 0.0
C730 C 0.13691 0.6857 0.82829 0.0
C731 C 0.16933 0.68919 0.83993 0.0
C732 C 0.11508 0.65959 0.84071 0.0
C733 C 0.12525 0.636 0.86434 0.0
C734 C 0.15755 0.64014 0.87737 0.0
C735 C 0.17928 0.66657 0.86561 0.0
C736 C 0.08173 0.56671 0.92617 0.0
C737 C 0.05514 0.55623 0.8995 0.0
C738 C 0.10475 0.59208 0.91441 0.0
C739 C 0.1022 0.60733 0.87526 0.0
C740 C 0.07681 0.59547 0.84725 0.0
C741 C 0.05339 0.57039 0.85939 0.0
H742 H 0.33993 0.22252 0.90038 0.0
H743 H 0.28173 0.14661 0.83592 0.0
H744 H 0.36984 0.18791 0.9365 0.0
H745 H 0.31297 0.11204 0.86883 0.0
H746 H 0.36978 0.05134 0.93391 0.0
H747 H 0.33163 0.08487 0.92223 0.0
H748 H 0.40977 0.16296 0.92026 0.0
H749 H 0.44731 0.1293 0.93531 0.0
C750 C 0.33315 0.19821 0.89478 0.0
C751 C 0.30839 0.18709 0.86583 0.0
C752 C 0.35067 0.17835 0.91481 0.0
C753 C 0.34464 0.14702 0.90503 0.0
C754 C 0.31838 0.13579 0.8779 0.0
C755 C 0.30028 0.15559 0.85888 0.0
C756 C 0.37863 0.07576 0.93141 0.0
C757 C 0.41152 0.08773 0.93473 0.0
C758 C 0.35677 0.09507 0.92443 0.0
C759 C 0.36731 0.12685 0.91931 0.0
C760 C 0.40031 0.1388 0.92446 0.0
C761 C 0.42207 0.11948 0.93267 0.0
H762 H 0.84302 0.28481 0.85892 0.0
H763 H 0.78977 0.3576 0.86736 0.0
H764 H 0.88821 0.31648 0.89575 0.0
H765 H 0.83445 0.38886 0.90476 0.0
H766 H 0.93405 0.45024 0.91077 0.0
H767 H 0.88626 0.41637 0.88404 0.0
H768 H 0.90967 0.34205 0.96062 0.0
H769 H 0.95783 0.37571 0.98663 0.0
C770 C 0.84061 0.3072 0.86964 0.0
C771 C 0.81287 0.31873 0.85979 0.0
C772 C 0.86656 0.32544 0.89071 0.0
C773 C 0.86525 0.35552 0.90253 0.0
C774 C 0.83667 0.36617 0.89514 0.0
C775 C 0.8109 0.34807 0.874 0.0
C776 C 0.929 0.42671 0.922 0.0
C777 C 0.94999 0.41572 0.95057 0.0
C778 C 0.90142 0.40728 0.90692 0.0
C779 C 0.89402 0.37638 0.92015 0.0
C780 C 0.91479 0.36554 0.94926 0.0
C781 C 0.9424 0.38494 0.96428 0.0
H782 H 0.64972 0.77835 0.8414 0.0
H783 H 0.74036 0.8334 0.8793 0.0
H784 H 0.6218 0.81171 0.87913 0.0
H785 H 0.71183 0.86703 0.9186 0.0
H786 H 0.64053 0.93776 0.93086 0.0
H787 H 0.67631 0.90522 0.90428 0.0
H788 H 0.61103 0.82519 0.95015 0.0
H789 H 0.57522 0.85721 0.97462 0.0
C790 C 0.66381 0.79743 0.85829 0.0
C791 C 0.69738 0.80311 0.85719 0.0
C792 C 0.64768 0.81654 0.88033 0.0
C793 C 0.66449 0.84201 0.90228 0.0
C794 C 0.69816 0.84766 0.90187 0.0
C795 C 0.71449 0.82827 0.87971 0.0
C796 C 0.63411 0.91322 0.9354 0.0
C797 C 0.60465 0.89995 0.95356 0.0
C798 C 0.65466 0.8946 0.92049 0.0
C799 C 0.64617 0.8625 0.92415 0.0
C800 C 0.61787 0.84969 0.94549 0.0
C801 C 0.59729 0.8681 0.95953 0.0
H802 H 0.79054 0.68702 0.10626 0.0
H803 H 0.87826 0.72274 0.17447 0.0
H804 H 0.81776 0.65172 0.06866 0.0
H805 H 0.90502 0.68762 0.13758 0.0
H806 H 0.87419 0.5691 0.05812 0.0
H807 H 0.84279 0.60514 0.0861 0.0
H808 H 0.92268 0.67946 0.0656 0.0
H809 H 0.95379 0.64407 0.03883 0.0
C810 C 0.81567 0.68767 0.1128 0.0
C811 C 0.83225 0.70785 0.14327 0.0
C812 C 0.83113 0.66722 0.09162 0.0
C813 C 0.86353 0.66684 0.10012 0.0
C814 C 0.88015 0.68752 0.12985 0.0
C815 C 0.86475 0.70766 0.15114 0.0
C816 C 0.88486 0.59316 0.05947 0.0
C817 C 0.91674 0.60352 0.04718 0.0
C818 C 0.86686 0.61381 0.0752 0.0
C819 C 0.88048 0.6451 0.07874 0.0
C820 C 0.91173 0.65546 0.06431 0.0
C821 C 0.92958 0.63502 0.04892 0.0
H822 H 0.31485 0.81297 0.10729 0.0
H823 H 0.28493 0.88908 0.16752 0.0
H824 H 0.36342 0.84696 0.0832 0.0
H825 H 0.33353 0.92295 0.1434 0.0
H826 H 0.42185 0.97572 0.06937 0.0
H827 H 0.36829 0.94561 0.08055 0.0
H828 H 0.40945 0.87154 0.13289 0.0
H829 H 0.46299 0.90147 0.12177 0.0
C830 C 0.31797 0.83713 0.11393 0.0
C831 C 0.29633 0.84828 0.13989 0.0
C832 C 0.346 0.85648 0.10067 0.0
C833 C 0.35254 0.88731 0.11259 0.0
C834 C 0.32916 0.8992 0.13412 0.0
C835 C 0.30129 0.87981 0.14777 0.0
C836 C 0.41947 0.9532 0.08393 0.0
C837 C 0.44669 0.94101 0.09484 0.0
C838 C 0.38882 0.93595 0.09003 0.0
C839 C 0.38483 0.90607 0.10666 0.0
C840 C 0.41194 0.89431 0.11906 0.0
C841 C 0.44257 0.91166 0.11344 0.0
H842 H 0.66143 0.21161 0.13575 0.0
H843 H 0.71616 0.14135 0.16207 0.0
H844 H 0.6234 0.1764 0.09396 0.0
H845 H 0.67781 0.10545 0.1188 0.0
H846 H 0.57427 0.04576 0.09983 0.0
H847 H 0.62253 0.07872 0.12722 0.0
H848 H 0.61215 0.1471 0.03137 0.0
H849 H 0.56333 0.11462 0.0051 0.0
C850 C 0.6657 0.18865 0.1317 0.0
C851 C 0.69166 0.17917 0.15241 0.0
C852 C 0.64393 0.16842 0.10735 0.0
C853 C 0.64734 0.13793 0.10293 0.0
C854 C 0.6743 0.12872 0.12188 0.0
C855 C 0.69645 0.14927 0.14625 0.0
C856 C 0.58244 0.06775 0.08442 0.0
C857 C 0.56448 0.07789 0.05099 0.0
C858 C 0.61034 0.08655 0.09986 0.0
C859 C 0.62112 0.1158 0.08193 0.0
C860 C 0.60419 0.12504 0.04668 0.0
C861 C 0.57613 0.10643 0.03161 0.0
H862 H 0.61622 0.66276 0.75505 0.0
H863 H 0.68442 0.6285 0.83619 0.0
H864 H 0.57272 0.62709 0.78861 0.0
H865 H 0.64133 0.59483 0.87233 0.0
H866 H 0.56149 0.52823 0.92749 0.0
H867 H 0.60171 0.5534 0.87751 0.0
H868 H 0.54358 0.6211 0.84908 0.0
H869 H 0.50249 0.59406 0.89612 0.0
C870 C 0.62184 0.64746 0.78001 0.0
C871 C 0.65362 0.64836 0.79305 0.0
C872 C 0.59689 0.62721 0.79972 0.0
C873 C 0.60311 0.60814 0.83394 0.0
C874 C 0.63522 0.60849 0.84575 0.0
C875 C 0.66013 0.62804 0.82515 0.0
C876 C 0.55728 0.54821 0.90979 0.0
C877 C 0.52908 0.55932 0.91554 0.0
C878 C 0.58045 0.56292 0.88142 0.0
C879 C 0.57647 0.58981 0.85938 0.0
C880 C 0.5476 0.60027 0.86454 0.0
C881 C 0.524 0.58493 0.89184 0.0
H882 H 0.34046 0.72628 0.87991 0.0
H883 H 0.33221 0.65827 0.78162 0.0
H884 H 0.37081 0.69656 0.92477 0.0
H885 H 0.36256 0.62844 0.82691 0.0
H886 H 0.36433 0.56698 0.94618 0.0
H887 H 0.34255 0.60197 0.89961 0.0
H888 H 0.4237 0.67342 0.92726 0.0
H889 H 0.4463 0.638 0.97396 0.0
C890 C 0.34553 0.70516 0.86769 0.0
C891 C 0.33358 0.69421 0.82762 0.0
C892 C 0.36309 0.68837 0.89324 0.0
C893 C 0.3686 0.66022 0.87932 0.0
C894 C 0.35825 0.65007 0.83831 0.0
C895 C 0.34104 0.6671 0.81243 0.0
C896 C 0.37761 0.59016 0.94276 0.0
C897 C 0.40731 0.59961 0.96337 0.0
C898 C 0.3652 0.61006 0.91572 0.0
C899 C 0.38195 0.63997 0.90911 0.0
C900 C 0.41066 0.65022 0.93159 0.0
C901 C 0.4234 0.63007 0.95844 0.0
H902 H 0.40102 0.31525 0.80453 0.0
H903 H 0.33548 0.37806 0.79524 0.0
H904 H 0.43535 0.35018 0.85221 0.0
H905 H 0.36905 0.41224 0.84386 0.0
H906 H 0.45634 0.3929 0.98454 0.0
H907 H 0.42969 0.36287 0.92562 0.0
H908 H 0.41809 0.44594 0.85924 0.0
H909 H 0.44368 0.47584 0.91872 0.0
C910 C 0.39422 0.33673 0.81198 0.0
C911 C 0.36524 0.34363 0.79664 0.0
C912 C 0.41372 0.35658 0.83966 0.0
C913 C 0.40453 0.38361 0.85264 0.0
C914 C 0.37691 0.39164 0.8345 0.0
C915 C 0.35756 0.37194 0.8066 0.0
C916 C 0.44797 0.4047 0.95743 0.0
C917 C 0.45193 0.43668 0.95642 0.0
C918 C 0.43308 0.38755 0.9234 0.0
C919 C 0.42201 0.40204 0.88753 0.0
C920 C 0.42607 0.43405 0.88654 0.0
C921 C 0.4407 0.45118 0.92071 0.0
H922 H 0.68644 0.38144 0.77004 0.0
H923 H 0.61686 0.29969 0.79817 0.0
H924 H 0.65562 0.41155 0.81051 0.0
H925 H 0.58672 0.32946 0.84002 0.0
H926 H 0.52854 0.39192 0.896 0.0
H927 H 0.55477 0.3668 0.84275 0.0
H928 H 0.64646 0.41834 0.88393 0.0
H929 H 0.6198 0.44451 0.93613 0.0
C930 C 0.66429 0.36998 0.78439 0.0
C931 C 0.65415 0.33817 0.78117 0.0
C932 C 0.64681 0.38719 0.80798 0.0
C933 C 0.619 0.37291 0.82926 0.0
C934 C 0.60787 0.34134 0.82383 0.0
C935 C 0.62515 0.32419 0.79977 0.0
C936 C 0.55433 0.39796 0.89358 0.0
C937 C 0.57223 0.41997 0.92043 0.0
C938 C 0.56937 0.38348 0.86309 0.0
C939 C 0.60276 0.39033 0.85912 0.0
C940 C 0.62064 0.41281 0.88558 0.0
C941 C 0.60546 0.42767 0.91574 0.0
H942 H 0.63394 0.30454 0.19909 0.0
H943 H 0.72469 0.34839 0.14649 0.0
H944 H 0.60644 0.33349 0.14919 0.0
H945 H 0.69728 0.37608 0.09522 0.0
H946 H 0.64054 0.45442 0.07735 0.0
H947 H 0.67133 0.41769 0.1033 0.0
H948 H 0.59166 0.34409 0.07657 0.0
H949 H 0.56013 0.38143 0.05179 0.0
C950 C 0.6479 0.32017 0.17656 0.0
C951 C 0.68137 0.32496 0.17734 0.0
C952 C 0.6322 0.33633 0.14749 0.0
C953 C 0.64975 0.35711 0.11829 0.0
C954 C 0.68317 0.36065 0.11781 0.0
C955 C 0.69885 0.34498 0.14737 0.0
C956 C 0.62977 0.43036 0.07613 0.0
C957 C 0.59765 0.42078 0.06402 0.0
C958 C 0.64757 0.4092 0.09062 0.0
C959 C 0.63364 0.37801 0.09289 0.0
C960 C 0.60267 0.36811 0.07616 0.0
C961 C 0.58474 0.38942 0.06171 0.0
H962 H 0.70522 0.65442 0.18092 0.0
H963 H 0.63841 0.69599 0.25006 0.0
H964 H 0.66107 0.61961 0.14729 0.0
H965 H 0.5937 0.66114 0.21572 0.0
H966 H 0.53493 0.62792 0.08915 0.0
H967 H 0.57535 0.65763 0.13604 0.0
H968 H 0.61442 0.57691 0.16357 0.0
H969 H 0.57434 0.54725 0.11693 0.0
C970 C 0.68096 0.65544 0.18973 0.0
C971 C 0.67502 0.67755 0.21818 0.0
C972 C 0.65573 0.63559 0.17048 0.0
C973 C 0.62403 0.63786 0.17873 0.0
C974 C 0.618 0.65912 0.20871 0.0
C975 C 0.64342 0.67872 0.22868 0.0
C976 C 0.55216 0.61656 0.1052 0.0
C977 C 0.5516 0.58531 0.09906 0.0
C978 C 0.57499 0.63345 0.13243 0.0
C979 C 0.59781 0.61945 0.15357 0.0
C980 C 0.5971 0.58823 0.14761 0.0
C981 C 0.57419 0.57131 0.1208 0.0
H982 H 0.32933 0.73152 0.14854 0.0
H983 H 0.31551 0.67488 0.26265 0.0
H984 H 0.36348 0.6992 0.11979 0.0
H985 H 0.34991 0.64209 0.23328 0.0
H986 H 0.37723 0.57495 0.12731 0.0
H987 H 0.3452 0.60633 0.16451 0.0
H988 H 0.41801 0.68644 0.1412 0.0
H989 H 0.44987 0.65556 0.10439 0.0
C990 C 0.33378 0.71221 0.16758 0.0
C991 C 0.31982 0.70563 0.2078 0.0
C992 C 0.35338 0.69381 0.15116 0.0
C993 C 0.35916 0.66824 0.17437 0.0
C994 C 0.34555 0.66167 0.21482 0.0
C995 C 0.32621 0.68049 0.23168 0.0
C996 C 0.38634 0.59924 0.13026 0.0
C997 C 0.41591 0.61284 0.11271 0.0
C998 C 0.36822 0.61705 0.15184 0.0
C999 C 0.3793 0.64867 0.1556 0.0
C1000 C 0.40897 0.6621 0.13852 0.0
C1001 C 0.42714 0.64438 0.11744 0.0
H1002 H 0.32453 0.3337 0.15648 0.0
H1003 H 0.3636 0.34 0.28487 0.0
H1004 H 0.36567 0.37627 0.13414 0.0
H1005 H 0.40522 0.3831 0.26207 0.0
H1006 H 0.4951 0.42652 0.17544 0.0
H1007 H 0.45286 0.39057 0.21139 0.0
H1008 H 0.38167 0.43236 0.14691 0.0
H1009 H 0.42357 0.46811 0.11077 0.0
C1010 C 0.34188 0.3442 0.18004 0.0
C1011 C 0.34081 0.33334 0.22248 0.0
C1012 C 0.3653 0.36884 0.16727 0.0
C1013 C 0.38846 0.38319 0.19646 0.0
C1014 C 0.3876 0.37243 0.23895 0.0
C1015 C 0.36378 0.34785 0.25196 0.0
C1016 C 0.47047 0.42851 0.16963 0.0
C1017 C 0.46273 0.44985 0.13958 0.0
C1018 C 0.4463 0.40796 0.19037 0.0
C1019 C 0.41401 0.40837 0.18134 0.0
C1020 C 0.40638 0.43118 0.15383 0.0
C1021 C 0.43044 0.45172 0.13323 0.0
H1022 H 0.82795 0.71026 0.61728 0.0
H1023 H 0.78403 0.62764 0.68425 0.0
H1024 H 0.86564 0.68273 0.58486 0.0
H1025 H 0.82165 0.60028 0.65183 0.0
H1026 H 0.88213 0.55449 0.56444 0.0
H1027 H 0.8399 0.58203 0.58254 0.0
H1028 H 0.91127 0.66083 0.61629 0.0
H1029 H 0.95345 0.6334 0.59828 0.0
C1030 C 0.82588 0.68612 0.62445 0.0
C1031 C 0.80305 0.67124 0.65363 0.0
C1032 C 0.84765 0.67041 0.6061 0.0
C1033 C 0.84681 0.63939 0.61605 0.0
C1034 C 0.82283 0.62411 0.64329 0.0
C1035 C 0.80133 0.63986 0.66203 0.0
C1036 C 0.88881 0.57776 0.57548 0.0
C1037 C 0.92119 0.59161 0.58043 0.0
C1038 C 0.86461 0.5935 0.58589 0.0
C1039 C 0.87223 0.62357 0.60099 0.0
C1040 C 0.90459 0.63778 0.60442 0.0
C1041 C 0.92878 0.62195 0.59447 0.0
H1042 H 0.32483 0.81543 0.60418 0.0
H1043 H 0.3857 0.79385 0.70673 0.0
H1044 H 0.36867 0.85467 0.57731 0.0
H1045 H 0.42932 0.8339 0.68079 0.0
H1046 H 0.45125 0.9457 0.66128 0.0
H1047 H 0.42173 0.89461 0.6803 0.0
H1048 H 0.4322 0.86457 0.55209 0.0
H1049 H 0.46262 0.91519 0.53328 0.0
C1050 C 0.34808 0.81819 0.6197 0.0
C1051 C 0.3523 0.80144 0.6569 0.0
C1052 C 0.37304 0.84068 0.60456 0.0
C1053 C 0.40217 0.84723 0.62722 0.0
C1054 C 0.40706 0.82908 0.66282 0.0
C1055 C 0.38231 0.80607 0.67735 0.0
C1056 C 0.44798 0.92796 0.63754 0.0
C1057 C 0.45922 0.93441 0.59589 0.0
C1058 C 0.43129 0.89876 0.64844 0.0
C1059 C 0.42495 0.87581 0.6176 0.0
C1060 C 0.43708 0.88189 0.5764 0.0
C1061 C 0.45449 0.91083 0.56579 0.0
H1062 H 0.19848 0.28166 0.60198 0.0
H1063 H 0.2498 0.36471 0.65877 0.0
H1064 H 0.16322 0.31109 0.56425 0.0
H1065 H 0.21469 0.39365 0.62225 0.0
H1066 H 0.08354 0.3732 0.56081 0.0
H1067 H 0.1202 0.33958 0.58398 0.0
H1068 H 0.20075 0.41101 0.55302 0.0
H1069 H 0.16479 0.44448 0.53188 0.0
C1070 C 0.2027 0.30622 0.60564 0.0
C1071 C 0.22697 0.32089 0.6333 0.0
C1072 C 0.18225 0.32298 0.58452 0.0
C1073 C 0.18604 0.3547 0.59034 0.0
C1074 C 0.21126 0.36935 0.61652 0.0
C1075 C 0.23141 0.35271 0.63764 0.0
C1076 C 0.10908 0.38155 0.55896 0.0
C1077 C 0.1212 0.41176 0.54561 0.0
C1078 C 0.13007 0.36225 0.57179 0.0
C1079 C 0.16343 0.37283 0.57102 0.0
C1080 C 0.17526 0.40239 0.55515 0.0
C1081 C 0.15451 0.42162 0.54306 0.0
H1082 H 0.71077 0.19546 0.59629 0.0
H1083 H 0.62033 0.20983 0.64327 0.0
H1084 H 0.68443 0.14719 0.56561 0.0
H1085 H 0.59354 0.16247 0.6106 0.0
H1086 H 0.56258 0.0596 0.6068 0.0
H1087 H 0.58773 0.1111 0.62604 0.0
H1088 H 0.65054 0.11608 0.51798 0.0
H1089 H 0.62614 0.0634 0.50023 0.0
C1090 C 0.68504 0.18887 0.59875 0.0
C1091 C 0.66773 0.20649 0.62262 0.0
C1092 C 0.66982 0.161 0.58112 0.0
C1093 C 0.63677 0.15016 0.58636 0.0
C1094 C 0.61916 0.16923 0.60711 0.0
C1095 C 0.63445 0.19676 0.62539 0.0
C1096 C 0.58188 0.0716 0.58722 0.0
C1097 C 0.59256 0.05718 0.55227 0.0
C1098 C 0.59614 0.10149 0.59792 0.0
C1099 C 0.62118 0.11834 0.57348 0.0
C1100 C 0.63171 0.10393 0.53811 0.0
C1101 C 0.61773 0.07365 0.52784 0.0
H1102 H 0.79027 0.38168 0.32773 0.0
H1103 H 0.82482 0.31108 0.40026 0.0
H1104 H 0.82969 0.42055 0.36341 0.0
H1105 H 0.86462 0.35011 0.43542 0.0
H1106 H 0.9565 0.43011 0.43304 0.0
H1107 H 0.9146 0.38956 0.40438 0.0
H1108 H 0.84263 0.43981 0.44125 0.0
H1109 H 0.88402 0.47993 0.47018 0.0
C1110 C 0.80597 0.37452 0.35172 0.0
C1111 C 0.80444 0.34339 0.36127 0.0
C1112 C 0.82851 0.39673 0.37205 0.0
C1113 C 0.85028 0.38818 0.40174 0.0
C1114 C 0.84823 0.35716 0.41228 0.0
C1115 C 0.82526 0.33493 0.39252 0.0
C1116 C 0.93173 0.43242 0.43497 0.0
C1117 C 0.92353 0.45819 0.45366 0.0
C1118 C 0.90783 0.40918 0.41895 0.0
C1119 C 0.87551 0.4117 0.42076 0.0
C1120 C 0.86739 0.43744 0.43939 0.0
C1121 C 0.89112 0.46033 0.45597 0.0
H1122 H 0.74118 0.86021 0.34901 0.0
H1123 H 0.66595 0.78079 0.36326 0.0
H1124 H 0.70804 0.89162 0.38225 0.0
H1125 H 0.63248 0.81249 0.39699 0.0
H1126 H 0.57188 0.88986 0.38374 0.0
H1127 H 0.60542 0.85319 0.36794 0.0
H1128 H 0.68082 0.90304 0.44721 0.0
H1129 H 0.64726 0.94018 0.46272 0.0
C1130 C 0.7177 0.84931 0.36 0.0
C1131 C 0.70609 0.81801 0.35311 0.0
C1132 C 0.69875 0.86735 0.37938 0.0
C1133 C 0.66748 0.85468 0.39205 0.0
C1134 C 0.65637 0.82302 0.38717 0.0
C1135 C 0.67559 0.80479 0.36817 0.0
C1136 C 0.59556 0.89303 0.39802 0.0
C1137 C 0.60702 0.91831 0.42401 0.0
C1138 C 0.61468 0.87171 0.38933 0.0
C1139 C 0.64586 0.87514 0.4062 0.0
C1140 C 0.65701 0.89988 0.43334 0.0
C1141 C 0.63778 0.92118 0.44224 0.0
H1142 H 0.21166 0.65683 0.31895 0.0
H1143 H 0.15498 0.70971 0.38756 0.0
H1144 H 0.17427 0.61031 0.33677 0.0
H1145 H 0.11886 0.66294 0.40956 0.0
H1146 H 0.03884 0.58146 0.40333 0.0
H1147 H 0.07779 0.6273 0.38502 0.0
H1148 H 0.1517 0.57296 0.38145 0.0
H1149 H 0.11203 0.52733 0.39534 0.0
C1150 C 0.1919 0.6582 0.3397 0.0
C1151 C 0.18624 0.68664 0.35229 0.0
C1152 C 0.17025 0.63148 0.34996 0.0
C1153 C 0.14291 0.63252 0.37423 0.0
C1154 C 0.13881 0.66105 0.38953 0.0
C1155 C 0.15989 0.68788 0.37788 0.0
C1156 C 0.06328 0.57947 0.3971 0.0
C1157 C 0.07234 0.55093 0.39952 0.0
C1158 C 0.08588 0.60579 0.3876 0.0
C1159 C 0.11835 0.60426 0.38218 0.0
C1160 C 0.12707 0.57536 0.38429 0.0
C1161 C 0.10425 0.54902 0.39217 0.0
H1162 H 0.27787 0.16643 0.39833 0.0
H1163 H 0.36299 0.23115 0.36463 0.0
H1164 H 0.31006 0.13565 0.43792 0.0
H1165 H 0.3958 0.19946 0.40289 0.0
H1166 H 0.37311 0.06542 0.43329 0.0
H1167 H 0.34304 0.10337 0.40955 0.0
H1168 H 0.41255 0.1742 0.46908 0.0
H1169 H 0.44353 0.13557 0.49258 0.0
C1170 C 0.30353 0.17435 0.40021 0.0
C1171 C 0.31799 0.20103 0.37833 0.0
C1172 C 0.32205 0.15658 0.42252 0.0
C1173 C 0.35563 0.16458 0.42258 0.0
C1174 C 0.37003 0.19261 0.40348 0.0
C1175 C 0.35129 0.21079 0.38163 0.0
C1176 C 0.38213 0.08902 0.44158 0.0
C1177 C 0.4108 0.09738 0.46486 0.0
C1178 C 0.36463 0.11087 0.42822 0.0
C1179 C 0.375 0.14189 0.43796 0.0
C1180 C 0.40389 0.15051 0.46099 0.0
C1181 C 0.42163 0.12842 0.4744 0.0
H1182 H 0.63728 0.76895 0.6658 0.0
H1183 H 0.72536 0.8035 0.59962 0.0
H1184 H 0.61167 0.80586 0.62764 0.0
H1185 H 0.69947 0.84034 0.561 0.0
H1186 H 0.65719 0.92951 0.56364 0.0
H1187 H 0.68169 0.88666 0.5859 0.0
H1188 H 0.59327 0.82411 0.55864 0.0
H1189 H 0.56857 0.86709 0.53662 0.0
C1190 C 0.65099 0.78392 0.64234 0.0
C1191 C 0.6835 0.78346 0.63616 0.0
C1192 C 0.63623 0.80504 0.62031 0.0
C1193 C 0.65365 0.82632 0.59171 0.0
C1194 C 0.68556 0.82454 0.58336 0.0
C1195 C 0.7003 0.80322 0.60521 0.0
C1196 C 0.64295 0.90663 0.56228 0.0
C1197 C 0.61077 0.90178 0.54898 0.0
C1198 C 0.65713 0.88201 0.57457 0.0
C1199 C 0.63943 0.85195 0.57406 0.0
C1200 C 0.60746 0.84702 0.55975 0.0
C1201 C 0.59332 0.87166 0.54716 0.0
H1202 H 0.61899 0.21607 0.32653 0.0
H1203 H 0.69408 0.20097 0.41398 0.0
H1204 H 0.58323 0.17187 0.35736 0.0
H1205 H 0.65825 0.15671 0.44422 0.0
H1206 H 0.61275 0.05681 0.39753 0.0
H1207 H 0.63996 0.10947 0.38631 0.0
H1208 H 0.55826 0.14171 0.43411 0.0
H1209 H 0.53086 0.08862 0.44653 0.0
C1210 C 0.62748 0.20409 0.35337 0.0
C1211 C 0.6596 0.21145 0.36705 0.0
C1212 C 0.60696 0.1789 0.37104 0.0
C1213 C 0.61842 0.1608 0.40235 0.0
C1214 C 0.64917 0.17035 0.41971 0.0
C1215 C 0.66959 0.19573 0.40244 0.0
C1216 C 0.6003 0.075 0.40515 0.0
C1217 C 0.56957 0.06857 0.42258 0.0
C1218 C 0.61609 0.1051 0.39938 0.0
C1219 C 0.60129 0.12935 0.41021 0.0
C1220 C 0.57014 0.12319 0.42609 0.0
C1221 C 0.55449 0.09294 0.43277 0.0
H1222 H 0.86233 0.72758 0.35547 0.0
H1223 H 0.77195 0.66953 0.38616 0.0
H1224 H 0.89042 0.69451 0.39634 0.0
H1225 H 0.80037 0.63644 0.42912 0.0
H1226 H 0.86521 0.56361 0.43626 0.0
H1227 H 0.83267 0.60008 0.41318 0.0
H1228 H 0.90462 0.67391 0.46165 0.0
H1229 H 0.93785 0.6372 0.48327 0.0
C1230 C 0.84833 0.70796 0.37176 0.0
C1231 C 0.81486 0.70088 0.36687 0.0
C1232 C 0.86455 0.68908 0.39575 0.0
C1233 C 0.84783 0.66252 0.41587 0.0
C1234 C 0.81409 0.65644 0.4134 0.0
C1235 C 0.79773 0.6755 0.38916 0.0
C1236 C 0.87409 0.58763 0.44213 0.0
C1237 C 0.90446 0.5976 0.46072 0.0
C1238 C 0.85517 0.60858 0.42934 0.0
C1239 C 0.86596 0.64007 0.43523 0.0
C1240 C 0.89577 0.64989 0.45574 0.0
C1241 C 0.9149 0.62891 0.46808 0.0
H1242 H 0.34974 0.85316 0.29792 0.0
H1243 H 0.31208 0.80859 0.4147 0.0
H1244 H 0.38817 0.88945 0.33847 0.0
H1245 H 0.35079 0.84562 0.45602 0.0
H1246 H 0.38918 0.94973 0.49754 0.0
H1247 H 0.35678 0.90378 0.4666 0.0
H1248 H 0.43575 0.89358 0.38719 0.0
H1249 H 0.46811 0.93937 0.4178 0.0
C1250 C 0.35017 0.85082 0.33241 0.0
C1251 C 0.32804 0.82808 0.35323 0.0
C1252 C 0.37227 0.87156 0.35565 0.0
C1253 C 0.37252 0.87043 0.40045 0.0
C1254 C 0.35104 0.84704 0.42148 0.0
C1255 C 0.32914 0.82575 0.39796 0.0
C1256 C 0.39972 0.93756 0.47371 0.0
C1257 C 0.43103 0.94866 0.45949 0.0
C1258 C 0.38126 0.91104 0.45636 0.0
C1259 C 0.39365 0.89521 0.42424 0.0
C1260 C 0.42544 0.90549 0.41156 0.0
C1261 C 0.44394 0.9318 0.42907 0.0
H1262 H 0.23828 0.35186 0.35327 0.0
H1263 H 0.16364 0.27494 0.38404 0.0
H1264 H 0.20606 0.3866 0.38199 0.0
H1265 H 0.13221 0.30909 0.41473 0.0
H1266 H 0.06514 0.37568 0.3974 0.0
H1267 H 0.1019 0.34215 0.38298 0.0
H1268 H 0.17942 0.40733 0.43841 0.0
H1269 H 0.14243 0.4419 0.45096 0.0
C1270 C 0.21551 0.34234 0.36767 0.0
C1271 C 0.20329 0.31078 0.36614 0.0
C1272 C 0.19697 0.36222 0.3841 0.0
C1273 C 0.16606 0.35079 0.39975 0.0
C1274 C 0.15535 0.3189 0.40165 0.0
C1275 C 0.17352 0.29922 0.38454 0.0
C1276 C 0.08999 0.38299 0.4066 0.0
C1277 C 0.10072 0.41151 0.42553 0.0
C1278 C 0.11115 0.36349 0.39879 0.0
C1279 C 0.14375 0.37169 0.41001 0.0
C1280 C 0.15457 0.40025 0.42911 0.0
C1281 C 0.13331 0.41999 0.43659 0.0
H1282 H 0.38404 0.21252 0.69984 0.0
H1283 H 0.30998 0.19057 0.6034 0.0
H1284 H 0.41209 0.1758 0.6704 0.0
H1285 H 0.3392 0.15425 0.57228 0.0
H1286 H 0.37857 0.06254 0.57376 0.0
H1287 H 0.35118 0.1048 0.58799 0.0
H1288 H 0.4424 0.16321 0.61505 0.0
H1289 H 0.46911 0.12076 0.60341 0.0
C1290 C 0.37405 0.20036 0.67162 0.0
C1291 C 0.34455 0.20445 0.65427 0.0
C1292 C 0.39038 0.1793 0.65438 0.0
C1293 C 0.37802 0.16185 0.61881 0.0
C1294 C 0.34923 0.16693 0.60005 0.0
C1295 C 0.33265 0.18801 0.61762 0.0
C1296 C 0.39259 0.08449 0.58272 0.0
C1297 C 0.42579 0.08813 0.58891 0.0
C1298 C 0.37699 0.10883 0.59046 0.0
C1299 C 0.39446 0.13735 0.60374 0.0
C1300 C 0.42796 0.14136 0.6065 0.0
C1301 C 0.44334 0.117 0.59974 0.0
H1302 H 0.81308 0.38309 0.71915 0.0
H1303 H 0.81251 0.33779 0.59818 0.0
H1304 H 0.86196 0.41697 0.70098 0.0
H1305 H 0.86104 0.37399 0.57813 0.0
H1306 H 0.96414 0.42444 0.56972 0.0
H1307 H 0.91636 0.38779 0.59032 0.0
H1308 H 0.88459 0.45828 0.66187 0.0
H1309 H 0.93285 0.49373 0.64391 0.0
C1310 C 0.82288 0.38086 0.68793 0.0
C1311 C 0.80861 0.35758 0.66007 0.0
C1312 C 0.85114 0.40061 0.67736 0.0
C1313 C 0.86576 0.39851 0.63796 0.0
C1314 C 0.85091 0.37598 0.60917 0.0
C1315 C 0.82277 0.35552 0.62029 0.0
C1316 C 0.94735 0.4317 0.59101 0.0
C1317 C 0.95258 0.46194 0.60557 0.0
C1318 C 0.9196 0.41086 0.60214 0.0
C1319 C 0.89621 0.41995 0.6275 0.0
C1320 C 0.90212 0.44998 0.64305 0.0
C1321 C 0.93006 0.4705 0.63277 0.0
H1322 H 0.24011 0.64199 0.6532 0.0
H1323 H 0.17501 0.70224 0.62061 0.0
H1324 H 0.20528 0.60049 0.61509 0.0
H1325 H 0.14072 0.66123 0.58247 0.0
H1326 H 0.06634 0.57222 0.58117 0.0
H1327 H 0.10553 0.61459 0.60927 0.0
H1328 H 0.18084 0.58179 0.54478 0.0
H1329 H 0.14169 0.53911 0.51689 0.0
C1330 C 0.2189 0.64659 0.63694 0.0
C1331 C 0.21005 0.6752 0.64038 0.0
C1332 C 0.19891 0.62285 0.61525 0.0
C1333 C 0.16989 0.62747 0.59664 0.0
C1334 C 0.16245 0.65675 0.59745 0.0
C1335 C 0.18224 0.68029 0.61907 0.0
C1336 C 0.09122 0.57402 0.57289 0.0
C1337 C 0.10083 0.55226 0.54682 0.0
C1338 C 0.11367 0.59843 0.58876 0.0
C1339 C 0.14628 0.60161 0.57902 0.0
C1340 C 0.15595 0.57983 0.55303 0.0
C1341 C 0.13345 0.55548 0.53694 0.0
loop_
_geom_bond_atom_site_label_1
_geom_bond_atom_site_label_2
_geom_bond_distance
_geom_bond_site_symmetry_2
_ccdc_geom_bond_type
O0 Zn1 1.953 . S
O0 C16 1.225 . S
Zn1 O0 1.953 . S
Zn1 O2 1.949 . S
Zn1 O8 1.919 . S
Zn1 O13 1.924 . S
O2 Zn1 1.949 . S
O2 Zn3 1.923 . S
O2 Zn4 1.950 . S
O2 Zn5 1.945 . S
Zn3 O2 1.923 . S
Zn3 O6 1.933 . S
Zn3 O9 1.941 . S
Zn3 O10 1.965 . S
Zn4 O2 1.950 . S
Zn4 O11 1.938 . S
Zn4 O12 1.906 . S
Zn4 O22 1.953 . S
Zn5 O2 1.945 . S
Zn5 O7 1.932 . S
Zn5 O14 1.977 . S
Zn5 O15 1.910 . S
O6 Zn3 1.933 . S
O6 C17 1.226 . S
O7 Zn5 1.932 . S
O7 C17 1.307 . S
O8 Zn1 1.919 . S
O8 C19 1.253 . S
O9 Zn3 1.941 . S
O9 C19 1.283 . S
O10 Zn3 1.965 . S
O10 C18 1.303 . S
O11 Zn4 1.938 . S
O11 C18 1.247 . S
O12 Zn4 1.906 . S
O12 C20 1.304 . S
O13 Zn1 1.924 . S
O13 C21 1.311 . S
O14 Zn5 1.977 . S
O14 C20 1.272 . S
O15 Zn5 1.910 . S
O15 C21 1.231 . S
C16 O0 1.225 . S
C16 O22 1.298 . S
C17 O6 1.226 . S
C17 O7 1.307 . S
C18 O10 1.303 . S
C18 O11 1.247 . S
C19 O8 1.253 . S
C19 O9 1.283 . S
C20 O12 1.304 . S
C20 O14 1.272 . S
C21 O13 1.311 . S
C21 O15 1.231 . S
O22 Zn4 1.953 . S
O22 C16 1.298 . S
O23 Zn24 1.953 . S
O23 C39 1.225 . S
Zn24 O23 1.953 . S
Zn24 O25 1.949 . S
Zn24 O31 1.919 . S
Zn24 O36 1.924 . S
O25 Zn24 1.949 . S
O25 Zn26 1.923 . S
O25 Zn27 1.950 . S
O25 Zn28 1.945 . S
Zn26 O25 1.923 . S
Zn26 O29 1.933 . S
Zn26 O32 1.941 . S
Zn26 O33 1.965 . S
Zn27 O25 1.950 . S
Zn27 O34 1.938 . S
Zn27 O35 1.906 . S
Zn27 O45 1.953 . S
Zn28 O25 1.945 . S
Zn28 O30 1.932 . S
Zn28 O37 1.977 . S
Zn28 O38 1.910 . S
O29 Zn26 1.933 . S
O29 C40 1.226 . S
O30 Zn28 1.932 . S
O30 C40 1.307 . S
O31 Zn24 1.919 . S
O31 C42 1.253 . S
O32 Zn26 1.941 . S
O32 C42 1.283 . S
O33 Zn26 1.965 . S
O33 C41 1.303 . S
O34 Zn27 1.938 . S
O34 C41 1.247 . S
O35 Zn27 1.906 . S
O35 C43 1.304 . S
O36 Zn24 1.924 . S
O36 C44 1.311 . S
O37 Zn28 1.977 . S
O37 C43 1.272 . S
O38 Zn28 1.910 . S
O38 C44 1.231 . S
C39 O23 1.225 . S
C39 O45 1.298 . S
C40 O29 1.226 . S
C40 O30 1.307 . S
C41 O33 1.303 . S
C41 O34 1.247 . S
C42 O31 1.253 . S
C42 O32 1.283 . S
C43 O35 1.304 . S
C43 O37 1.272 . S
C44 O36 1.311 . S
C44 O38 1.231 . S
O45 Zn27 1.953 . S
O45 C39 1.298 . S
O46 Zn47 1.953 . S
O46 C62 1.225 . S
Zn47 O46 1.953 . S
Zn47 O48 1.949 . S
Zn47 O54 1.919 . S
Zn47 O59 1.924 . S
O48 Zn47 1.949 . S
O48 Zn49 1.923 . S
O48 Zn50 1.950 . S
O48 Zn51 1.945 . S
Zn49 O48 1.923 . S
Zn49 O52 1.933 . S
Zn49 O55 1.941 . S
Zn49 O56 1.965 . S
Zn50 O48 1.950 . S
Zn50 O57 1.938 . S
Zn50 O58 1.906 . S
Zn50 O68 1.953 . S
Zn51 O48 1.945 . S
Zn51 O53 1.932 . S
Zn51 O60 1.977 . S
Zn51 O61 1.910 . S
O52 Zn49 1.933 . S
O52 C63 1.226 . S
O53 Zn51 1.932 . S
O53 C63 1.307 . S
O54 Zn47 1.919 . S
O54 C65 1.253 . S
O55 Zn49 1.941 . S
O55 C65 1.283 . S
O56 Zn49 1.965 . S
O56 C64 1.303 . S
O57 Zn50 1.938 . S
O57 C64 1.247 . S
O58 Zn50 1.906 . S
O58 C66 1.304 . S
O59 Zn47 1.924 . S
O59 C67 1.311 . S
O60 Zn51 1.977 . S
O60 C66 1.272 . S
O61 Zn51 1.910 . S
O61 C67 1.231 . S
C62 O46 1.225 . S
C62 O68 1.298 . S
C63 O52 1.226 . S
C63 O53 1.307 . S
C64 O56 1.303 . S
C64 O57 1.247 . S
C65 O54 1.253 . S
C65 O55 1.283 . S
C66 O58 1.304 . S
C66 O60 1.272 . S
C67 O59 1.311 . S
C67 O61 1.231 . S
O68 Zn50 1.953 . S
O68 C62 1.298 . S
O69 Zn70 1.953 . S
O69 C85 1.225 . S
Zn70 O69 1.953 . S
Zn70 O71 1.949 . S
Zn70 O77 1.919 . S
Zn70 O82 1.924 . S
O71 Zn70 1.949 . S
O71 Zn72 1.923 . S
O71 Zn73 1.950 . S
O71 Zn74 1.945 . S
Zn72 O71 1.923 . S
Zn72 O75 1.933 . S
Zn72 O78 1.941 . S
Zn72 O79 1.965 . S
Zn73 O71 1.950 . S
Zn73 O80 1.938 . S
Zn73 O81 1.906 . S
Zn73 O91 1.953 . S
Zn74 O71 1.945 . S
Zn74 O76 1.932 . S
Zn74 O83 1.977 . S
Zn74 O84 1.910 . S
O75 Zn72 1.933 . S
O75 C86 1.226 . S
O76 Zn74 1.932 . S
O76 C86 1.307 . S
O77 Zn70 1.919 . S
O77 C88 1.253 . S
O78 Zn72 1.941 . S
O78 C88 1.283 . S
O79 Zn72 1.965 . S
O79 C87 1.303 . S
O80 Zn73 1.938 . S
O80 C87 1.247 . S
O81 Zn73 1.906 . S
O81 C89 1.304 . S
O82 Zn70 1.924 . S
O82 C90 1.311 . S
O83 Zn74 1.977 . S
O83 C89 1.272 . S
O84 Zn74 1.910 . S
O84 C90 1.231 . S
C85 O69 1.225 . S
C85 O91 1.298 . S
C86 O75 1.226 . S
C86 O76 1.307 . S
C87 O79 1.303 . S
C87 O80 1.247 . S
C88 O77 1.253 . S
C88 O78 1.283 . S
C89 O81 1.304 . S
C89 O83 1.272 . S
C90 O82 1.311 . S
C90 O84 1.231 . S
O91 Zn73 1.953 . S
O91 C85 1.298 . S
O92 Zn93 1.953 . S
O92 C108 1.225 . S
Zn93 O92 1.953 . S
Zn93 O94 1.949 . S
Zn93 O100 1.919 . S
Zn93 O105 1.924 . S
O94 Zn93 1.949 . S
O94 Zn95 1.923 . S
O94 Zn96 1.950 . S
O94 Zn97 1.945 . S
Zn95 O94 1.923 . S
Zn95 O98 1.933 . S
Zn95 O101 1.941 . S
Zn95 O102 1.965 . S
Zn96 O94 1.950 . S
Zn96 O103 1.938 . S
Zn96 O104 1.906 . S
Zn96 O114 1.953 . S
Zn97 O94 1.945 . S
Zn97 O99 1.932 . S
Zn97 O106 1.977 . S
Zn97 O107 1.910 . S
O98 Zn95 1.933 . S
O98 C109 1.226 . S
O99 Zn97 1.932 . S
O99 C109 1.307 . S
O100 Zn93 1.919 . S
O100 C111 1.253 . S
O101 Zn95 1.941 . S
O101 C111 1.283 . S
O102 Zn95 1.965 . S
O102 C110 1.303 . S
O103 Zn96 1.938 . S
O103 C110 1.247 . S
O104 Zn96 1.906 . S
O104 C112 1.304 . S
O105 Zn93 1.924 . S
O105 C113 1.311 . S
O106 Zn97 1.977 . S
O106 C112 1.272 . S
O107 Zn97 1.910 . S
O107 C113 1.231 . S
C108 O92 1.225 . S
C108 O114 1.298 . S
C109 O98 1.226 . S
C109 O99 1.307 . S
C110 O102 1.303 . S
C110 O103 1.247 . S
C111 O100 1.253 . S
C111 O101 1.283 . S
C112 O104 1.304 . S
C112 O106 1.272 . S
C113 O105 1.311 . S
C113 O107 1.231 . S
O114 Zn96 1.953 . S
O114 C108 1.298 . S
O115 Zn116 1.953 . S
O115 C131 1.225 . S
Zn116 O115 1.953 . S
Zn116 O117 1.949 . S
Zn116 O123 1.919 . S
Zn116 O128 1.924 . S
O117 Zn116 1.949 . S
O117 Zn118 1.923 . S
O117 Zn119 1.950 . S
O117 Zn120 1.945 . S
Zn118 O117 1.923 . S
Zn118 O121 1.933 . S
Zn118 O124 1.941 . S
Zn118 O125 1.965 . S
Zn119 O117 1.950 . S
Zn119 O126 1.938 . S
Zn119 O127 1.906 . S
Zn119 O137 1.953 . S
Zn120 O117 1.945 . S
Zn120 O122 1.932 . S
Zn120 O129 1.977 . S
Zn120 O130 1.910 . S
O121 Zn118 1.933 . S
O121 C132 1.226 . S
O122 Zn120 1.932 . S
O122 C132 1.307 . S
O123 Zn116 1.919 . S
O123 C134 1.253 . S
O124 Zn118 1.941 . S
O124 C134 1.283 . S
O125 Zn118 1.965 . S
O125 C133 1.303 . S
O126 Zn119 1.938 . S
O126 C133 1.247 . S
O127 Zn119 1.906 . S
O127 C135 1.304 . S
O128 Zn116 1.924 . S
O128 C136 1.311 . S
O129 Zn120 1.977 . S
O129 C135 1.272 . S
O130 Zn120 1.910 . S
O130 C136 1.231 . S
C131 O115 1.225 . S
C131 O137 1.298 . S
C132 O121 1.226 . S
C132 O122 1.307 . S
C133 O125 1.303 . S
C133 O126 1.247 . S
C134 O123 1.253 . S
C134 O124 1.283 . S
C135 O127 1.304 . S
C135 O129 1.272 . S
C136 O128 1.311 . S
C136 O130 1.231 . S
O137 Zn119 1.953 . S
O137 C131 1.298 . S
O138 Zn139 1.953 . S
O138 C154 1.225 . S
Zn139 O138 1.953 . S
Zn139 O140 1.949 . S
Zn139 O146 1.919 . S
Zn139 O151 1.924 . S
O140 Zn139 1.949 . S
O140 Zn141 1.923 . S
O140 Zn142 1.950 . S
O140 Zn143 1.945 . S
Zn141 O140 1.923 . S
Zn141 O144 1.933 . S
Zn141 O147 1.941 . S
Zn141 O148 1.965 . S
Zn142 O140 1.950 . S
Zn142 O149 1.938 . S
Zn142 O150 1.906 . S
Zn142 O160 1.953 . S
Zn143 O140 1.945 . S
Zn143 O145 1.932 . S
Zn143 O152 1.977 . S
Zn143 O153 1.910 . S
O144 Zn141 1.933 . S
O144 C155 1.226 . S
O145 Zn143 1.932 . S
O145 C155 1.307 . S
O146 Zn139 1.919 . S
O146 C157 1.253 . S
O147 Zn141 1.941 . S
O147 C157 1.283 . S
O148 Zn141 1.965 . S
O148 C156 1.303 . S
O149 Zn142 1.938 . S
O149 C156 1.247 . S
O150 Zn142 1.906 . S
O150 C158 1.304 . S
O151 Zn139 1.924 . S
O151 C159 1.311 . S
O152 Zn143 1.977 . S
O152 C158 1.272 . S
O153 Zn143 1.910 . S
O153 C159 1.231 . S
C154 O138 1.225 . S
C154 O160 1.298 . S
C155 O144 1.226 . S
C155 O145 1.307 . S
C156 O148 1.303 . S
C156 O149 1.247 . S
C157 O146 1.253 . S
C157 O147 1.283 . S
C158 O150 1.304 . S
C158 O152 1.272 . S
C159 O151 1.311 . S
C159 O153 1.231 . S
O160 Zn142 1.953 . S
O160 C154 1.298 . S
O161 Zn162 1.953 . S
O161 C177 1.225 . S
Zn162 O161 1.953 . S
Zn162 O163 1.949 . S
Zn162 O169 1.919 . S
Zn162 O174 1.924 . S
O163 Zn162 1.949 . S
O163 Zn164 1.923 . S
O163 Zn165 1.950 . S
O163 Zn166 1.945 . S
Zn164 O163 1.923 . S
Zn164 O167 1.933 . S
Zn164 O170 1.941 . S
Zn164 O171 1.965 . S
Zn165 O163 1.950 . S
Zn165 O172 1.938 . S
Zn165 O173 1.906 . S
Zn165 O183 1.953 . S
Zn166 O163 1.945 . S
Zn166 O168 1.932 . S
Zn166 O175 1.977 . S
Zn166 O176 1.910 . S
O167 Zn164 1.933 . S
O167 C178 1.226 . S
O168 Zn166 1.932 . S
O168 C178 1.307 . S
O169 Zn162 1.919 . S
O169 C180 1.253 . S
O170 Zn164 1.941 . S
O170 C180 1.283 . S
O171 Zn164 1.965 . S
O171 C179 1.303 . S
O172 Zn165 1.938 . S
O172 C179 1.247 . S
O173 Zn165 1.906 . S
O173 C181 1.304 . S
O174 Zn162 1.924 . S
O174 C182 1.311 . S
O175 Zn166 1.977 . S
O175 C181 1.272 . S
O176 Zn166 1.910 . S
O176 C182 1.231 . S
C177 O161 1.225 . S
C177 O183 1.298 . S
C178 O167 1.226 . S
C178 O168 1.307 . S
C179 O171 1.303 . S
C179 O172 1.247 . S
C180 O169 1.253 . S
C180 O170 1.283 . S
C181 O173 1.304 . S
C181 O175 1.272 . S
C182 O174 1.311 . S
C182 O176 1.231 . S
O183 Zn165 1.953 . S
O183 C177 1.298 . S
Co184 O187 2.042 . S
Co184 O194 2.264 . S
Co184 O213 2.286 . S
Co184 O214 2.069 . S
Co184 O216 2.015 1_455 S
Co185 O187 2.122 . S
Co185 O193 2.073 . S
Co185 O194 2.327 . S
Co185 O195 1.976 1_455 S
Co186 O187 2.087 1_545 S
Co186 O189 2.087 1_455 S
Co186 O196 2.111 1_445 S
Co186 O197 2.143 . S
Co186 O201 2.111 . S
Co186 O215 2.143 1_445 S
O187 Co184 2.042 . S
O187 Co185 2.122 . S
O187 Co186 2.087 1_565 S
O187 H188 0.980 . S
H188 O187 0.980 . S
O189 Co186 2.087 1_655 S
O189 Co190 2.042 . S
O189 Co191 2.122 . S
O189 H192 0.980 . S
Co190 O189 2.042 . S
Co190 O198 2.286 . S
Co190 O199 2.069 . S
Co190 O200 2.015 1_655 S
Co190 O203 2.264 . S
Co191 O189 2.122 . S
Co191 O202 1.976 1_655 S
Co191 O203 2.327 . S
Co191 O204 2.073 . S
H192 O189 0.980 . S
O193 Co185 2.073 . S
O193 C208 1.245 . S
O194 Co184 2.264 . S
O194 Co185 2.327 . S
O194 C208 1.257 . S
O195 Co185 1.976 1_655 S
O195 C207 1.251 . S
O196 Co186 2.111 1_665 S
O196 C207 1.274 . S
O197 Co186 2.143 . S
O197 C210 1.246 . S
O198 Co190 2.286 . S
O198 C209 1.259 . S
O199 Co190 2.069 . S
O199 C209 1.289 . S
O200 Co190 2.015 1_455 S
O200 C210 1.257 . S
O201 Co186 2.111 . S
O201 C211 1.274 . S
O202 Co191 1.976 1_455 S
O202 C211 1.251 . S
O203 Co190 2.264 . S
O203 Co191 2.327 . S
O203 C212 1.257 . S
O204 Co191 2.073 . S
O204 C212 1.245 . S
C205 O213 1.259 . S
C205 O214 1.289 . S
C206 O215 1.246 . S
C206 O216 1.257 . S
C207 O195 1.251 . S
C207 O196 1.274 . S
C208 O193 1.245 . S
C208 O194 1.257 . S
C209 O198 1.259 . S
C209 O199 1.289 . S
C210 O197 1.246 . S
C210 O200 1.257 . S
C211 O201 1.274 . S
C211 O202 1.251 . S
C212 O203 1.257 . S
C212 O204 1.245 . S
O213 Co184 2.286 . S
O213 C205 1.259 . S
O214 Co184 2.069 . S
O214 C205 1.289 . S
O215 Co186 2.143 1_665 S
O215 C206 1.246 . S
O216 Co184 2.015 1_655 S
O216 C206 1.257 . S
Co217 O220 2.042 1_556 S
Co217 O227 2.264 1_556 S
Co217 O246 2.286 . S
Co217 O247 2.069 . S
Co217 O249 2.015 . S
Co218 O220 2.122 . S
Co218 O226 2.073 . S
Co218 O227 2.327 . S
Co218 O228 1.976 . S
Co219 O220 2.087 1_545 S
Co219 O222 2.087 . S
Co219 O229 2.111 1_545 S
Co219 O230 2.143 . S
Co219 O234 2.111 1_554 S
Co219 O248 2.143 1_544 S
O220 Co217 2.042 1_554 S
O220 Co218 2.122 . S
O220 Co219 2.087 1_565 S
O220 H221 0.980 . S
H221 O220 0.980 . S
O222 Co219 2.087 . S
O222 Co223 2.042 . S
O222 Co224 2.122 1_554 S
O222 H225 0.980 . S
Co223 O222 2.042 . S
Co223 O231 2.286 . S
Co223 O232 2.069 . S
Co223 O233 2.015 . S
Co223 O236 2.264 1_554 S
Co224 O222 2.122 1_556 S
Co224 O235 1.976 . S
Co224 O236 2.327 . S
Co224 O237 2.073 . S
H225 O222 0.980 . S
O226 Co218 2.073 . S
O226 C241 1.245 . S
O227 Co217 2.264 1_554 S
O227 Co218 2.327 . S
O227 C241 1.257 . S
O228 Co218 1.976 . S
O228 C240 1.251 . S
O229 Co219 2.111 1_565 S
O229 C240 1.274 . S
O230 Co219 2.143 . S
O230 C243 1.246 . S
O231 Co223 2.286 . S
O231 C242 1.259 . S
O232 Co223 2.069 . S
O232 C242 1.289 . S
O233 Co223 2.015 . S
O233 C243 1.257 . S
O234 Co219 2.111 1_556 S
O234 C244 1.274 . S
O235 Co224 1.976 . S
O235 C244 1.251 . S
O236 Co223 2.264 1_556 S
O236 Co224 2.327 . S
O236 C245 1.257 . S
O237 Co224 2.073 . S
O237 C245 1.245 . S
C238 O246 1.259 . S
C238 O247 1.289 . S
C239 O248 1.246 . S
C239 O249 1.257 . S
C240 O228 1.251 . S
C240 O229 1.274 . S
C241 O226 1.245 . S
C241 O227 1.257 . S
C242 O231 1.259 . S
C242 O232 1.289 . S
C243 O230 1.246 . S
C243 O233 1.257 . S
C244 O234 1.274 . S
C244 O235 1.251 . S
C245 O236 1.257 . S
C245 O237 1.245 . S
O246 Co217 2.286 . S
O246 C238 1.259 . S
O247 Co217 2.069 . S
O247 C238 1.289 . S
O248 Co219 2.143 1_566 S
O248 C239 1.246 . S
O249 Co217 2.015 . S
O249 C239 1.257 . S
Co250 O253 2.042 1_556 S
Co250 O260 2.264 1_556 S
Co250 O279 2.286 . S
Co250 O280 2.069 . S
Co250 O282 2.015 1_455 S
Co251 O253 2.122 . S
Co251 O259 2.073 . S
Co251 O260 2.327 . S
Co251 O261 1.976 1_455 S
Co252 O253 2.087 . S
Co252 O255 2.087 1_454 S
Co252 O262 2.111 1_455 S
Co252 O263 2.143 . S
Co252 O267 2.111 1_554 S
Co252 O281 2.143 1_454 S
O253 Co250 2.042 1_554 S
O253 Co251 2.122 . S
O253 Co252 2.087 . S
O253 H254 0.980 . S
H254 O253 0.980 . S
O255 Co252 2.087 1_656 S
O255 Co256 2.042 1_556 S
O255 Co257 2.122 . S
O255 H258 0.980 . S
Co256 O255 2.042 1_554 S
Co256 O264 2.286 . S
Co256 O265 2.069 . S
Co256 O266 2.015 1_655 S
Co256 O269 2.264 1_554 S
Co257 O255 2.122 . S
Co257 O268 1.976 1_655 S
Co257 O269 2.327 . S
Co257 O270 2.073 . S
H258 O255 0.980 . S
O259 Co251 2.073 . S
O259 C274 1.245 . S
O260 Co250 2.264 1_554 S
O260 Co251 2.327 . S
O260 C274 1.257 . S
O261 Co251 1.976 1_655 S
O261 C273 1.251 . S
O262 Co252 2.111 1_655 S
O262 C273 1.274 . S
O263 Co252 2.143 . S
O263 C276 1.246 . S
O264 Co256 2.286 . S
O264 C275 1.259 . S
O265 Co256 2.069 . S
O265 C275 1.289 . S
O266 Co256 2.015 1_455 S
O266 C276 1.257 . S
O267 Co252 2.111 1_556 S
O267 C277 1.274 . S
O268 Co257 1.976 1_455 S
O268 C277 1.251 . S
O269 Co256 2.264 1_556 S
O269 Co257 2.327 . S
O269 C278 1.257 . S
O270 Co257 2.073 . S
O270 C278 1.245 . S
C271 O279 1.259 . S
C271 O280 1.289 . S
C272 O281 1.246 . S
C272 O282 1.257 . S
C273 O261 1.251 . S
C273 O262 1.274 . S
C274 O259 1.245 . S
C274 O260 1.257 . S
C275 O264 1.259 . S
C275 O265 1.289 . S
C276 O263 1.246 . S
C276 O266 1.257 . S
C277 O267 1.274 . S
C277 O268 1.251 . S
C278 O269 1.257 . S
C278 O270 1.245 . S
O279 Co250 2.286 . S
O279 C271 1.259 . S
O280 Co250 2.069 . S
O280 C271 1.289 . S
O281 Co252 2.143 1_656 S
O281 C272 1.246 . S
O282 Co250 2.015 1_655 S
O282 C272 1.257 . S
Co283 O286 2.042 1_556 S
Co283 O293 2.264 1_556 S
Co283 O312 2.286 . S
Co283 O313 2.069 . S
Co283 O315 2.015 . S
Co284 O286 2.122 . S
Co284 O292 2.073 . S
Co284 O293 2.327 . S
Co284 O294 1.976 . S
Co285 O286 2.087 . S
Co285 O288 2.087 1_554 S
Co285 O295 2.111 . S
Co285 O296 2.143 . S
Co285 O300 2.111 1_554 S
Co285 O314 2.143 1_554 S
O286 Co283 2.042 1_554 S
O286 Co284 2.122 . S
O286 Co285 2.087 . S
O286 H287 0.980 . S
H287 O286 0.980 . S
O288 Co285 2.087 1_556 S
O288 Co289 2.042 1_556 S
O288 Co290 2.122 . S
O288 H291 0.980 . S
Co289 O288 2.042 1_554 S
Co289 O297 2.286 . S
Co289 O298 2.069 . S
Co289 O299 2.015 . S
Co289 O302 2.264 1_554 S
Co290 O288 2.122 . S
Co290 O301 1.976 . S
Co290 O302 2.327 . S
Co290 O303 2.073 . S
H291 O288 0.980 . S
O292 Co284 2.073 . S
O292 C307 1.245 . S
O293 Co283 2.264 1_554 S
O293 Co284 2.327 . S
O293 C307 1.257 . S
O294 Co284 1.976 . S
O294 C306 1.251 . S
O295 Co285 2.111 . S
O295 C306 1.274 . S
O296 Co285 2.143 . S
O296 C309 1.246 . S
O297 Co289 2.286 . S
O297 C308 1.259 . S
O298 Co289 2.069 . S
O298 C308 1.289 . S
O299 Co289 2.015 . S
O299 C309 1.257 . S
O300 Co285 2.111 1_556 S
O300 C310 1.274 . S
O301 Co290 1.976 . S
O301 C310 1.251 . S
O302 Co289 2.264 1_556 S
O302 Co290 2.327 . S
O302 C311 1.257 . S
O303 Co290 2.073 . S
O303 C311 1.245 . S
C304 O312 1.259 . S
C304 O313 1.289 . S
C305 O314 1.246 . S
C305 O315 1.257 . S
C306 O294 1.251 . S
C306 O295 1.274 . S
C307 O292 1.245 . S
C307 O293 1.257 . S
C308 O297 1.259 . S
C308 O298 1.289 . S
C309 O296 1.246 . S
C309 O299 1.257 . S
C310 O300 1.274 . S
C310 O301 1.251 . S
C311 O302 1.257 . S
C311 O303 1.245 . S
O312 Co283 2.286 . S
O312 C304 1.259 . S
O313 Co283 2.069 . S
O313 C304 1.289 . S
O314 Co285 2.143 1_556 S
O314 C305 1.246 . S
O315 Co283 2.015 . S
O315 C305 1.257 . S
Co316 O319 2.042 . S
Co316 O326 2.264 . S
Co316 O345 2.286 . S
Co316 O346 2.069 . S
Co316 O348 2.015 . S
Co317 O319 2.122 . S
Co317 O325 2.073 . S
Co317 O326 2.327 . S
Co317 O327 1.976 . S
Co318 O319 2.087 . S
Co318 O321 2.087 1_455 S
Co318 O328 2.111 . S
Co318 O329 2.143 1_455 S
Co318 O333 2.111 1_455 S
Co318 O347 2.143 . S
O319 Co316 2.042 . S
O319 Co317 2.122 . S
O319 Co318 2.087 . S
O319 H320 0.980 . S
H320 O319 0.980 . S
O321 Co318 2.087 1_655 S
O321 Co322 2.042 . S
O321 Co323 2.122 . S
O321 H324 0.980 . S
Co322 O321 2.042 . S
Co322 O330 2.286 . S
Co322 O331 2.069 . S
Co322 O332 2.015 . S
Co322 O335 2.264 . S
Co323 O321 2.122 . S
Co323 O334 1.976 . S
Co323 O335 2.327 . S
Co323 O336 2.073 . S
H324 O321 0.980 . S
O325 Co317 2.073 . S
O325 C340 1.245 . S
O326 Co316 2.264 . S
O326 Co317 2.327 . S
O326 C340 1.257 . S
O327 Co317 1.976 . S
O327 C339 1.251 . S
O328 Co318 2.111 . S
O328 C339 1.274 . S
O329 Co318 2.143 1_655 S
O329 C342 1.246 . S
O330 Co322 2.286 . S
O330 C341 1.259 . S
O331 Co322 2.069 . S
O331 C341 1.289 . S
O332 Co322 2.015 . S
O332 C342 1.257 . S
O333 Co318 2.111 1_655 S
O333 C343 1.274 . S
O334 Co323 1.976 . S
O334 C343 1.251 . S
O335 Co322 2.264 . S
O335 Co323 2.327 . S
O335 C344 1.257 . S
O336 Co323 2.073 . S
O336 C344 1.245 . S
C337 O345 1.259 . S
C337 O346 1.289 . S
C338 O347 1.246 . S
C338 O348 1.257 . S
C339 O327 1.251 . S
C339 O328 1.274 . S
C340 O325 1.245 . S
C340 O326 1.257 . S
C341 O330 1.259 . S
C341 O331 1.289 . S
C342 O329 1.246 . S
C342 O332 1.257 . S
C343 O333 1.274 . S
C343 O334 1.251 . S
C344 O335 1.257 . S
C344 O336 1.245 . S
O345 Co316 2.286 . S
O345 C337 1.259 . S
O346 Co316 2.069 . S
O346 C337 1.289 . S
O347 Co318 2.143 . S
O347 C338 1.246 . S
O348 Co316 2.015 . S
O348 C338 1.257 . S
Co349 O352 2.042 . S
Co349 O359 2.264 . S
Co349 O378 2.286 . S
Co349 O379 2.069 . S
Co349 O381 2.015 1_565 S
Co350 O352 2.122 . S
Co350 O358 2.073 . S
Co350 O359 2.327 . S
Co350 O360 1.976 1_565 S
Co351 O352 2.087 1_545 S
Co351 O354 2.087 . S
Co351 O361 2.111 . S
Co351 O362 2.143 1_545 S
Co351 O366 2.111 1_545 S
Co351 O380 2.143 . S
O352 Co349 2.042 . S
O352 Co350 2.122 . S
O352 Co351 2.087 1_565 S
O352 H353 0.980 . S
H353 O352 0.980 . S
O354 Co351 2.087 . S
O354 Co355 2.042 . S
O354 Co356 2.122 . S
O354 H357 0.980 . S
Co355 O354 2.042 . S
Co355 O363 2.286 . S
Co355 O364 2.069 . S
Co355 O365 2.015 1_545 S
Co355 O368 2.264 . S
Co356 O354 2.122 . S
Co356 O367 1.976 1_545 S
Co356 O368 2.327 . S
Co356 O369 2.073 . S
H357 O354 0.980 . S
O358 Co350 2.073 . S
O358 C373 1.245 . S
O359 Co349 2.264 . S
O359 Co350 2.327 . S
O359 C373 1.257 . S
O360 Co350 1.976 1_545 S
O360 C372 1.251 . S
O361 Co351 2.111 . S
O361 C372 1.274 . S
O362 Co351 2.143 1_565 S
O362 C375 1.246 . S
O363 Co355 2.286 . S
O363 C374 1.259 . S
O364 Co355 2.069 . S
O364 C374 1.289 . S
O365 Co355 2.015 1_565 S
O365 C375 1.257 . S
O366 Co351 2.111 1_565 S
O366 C376 1.274 . S
O367 Co356 1.976 1_565 S
O367 C376 1.251 . S
O368 Co355 2.264 . S
O368 Co356 2.327 . S
O368 C377 1.257 . S
O369 Co356 2.073 . S
O369 C377 1.245 . S
C370 O378 1.259 . S
C370 O379 1.289 . S
C371 O380 1.246 . S
C371 O381 1.257 . S
C372 O360 1.251 . S
C372 O361 1.274 . S
C373 O358 1.245 . S
C373 O359 1.257 . S
C374 O363 1.259 . S
C374 O364 1.289 . S
C375 O362 1.246 . S
C375 O365 1.257 . S
C376 O366 1.274 . S
C376 O367 1.251 . S
C377 O368 1.257 . S
C377 O369 1.245 . S
O378 Co349 2.286 . S
O378 C370 1.259 . S
O379 Co349 2.069 . S
O379 C370 1.289 . S
O380 Co351 2.143 . S
O380 C371 1.246 . S
O381 Co349 2.015 1_545 S
O381 C371 1.257 . S
H382 C390 0.950 . S
H383 C395 0.950 . S
H384 C392 0.950 . S
H385 C394 0.950 . S
H386 C396 0.950 . S
H387 C398 0.950 . S
H388 C400 0.950 . S
H389 C401 0.950 . S
C390 H382 0.950 . S
C390 C391 1.386 . S
C390 C392 1.391 . S
C391 C390 1.386 . S
C391 C395 1.393 . S
C392 H384 0.950 . S
C392 C390 1.391 . S
C392 C393 1.400 . S
C393 C392 1.400 . S
C393 C394 1.398 . S
C393 C399 1.491 . S
C394 H385 0.950 . S
C394 C393 1.398 . S
C394 C395 1.391 . S
C395 H383 0.950 . S
C395 C391 1.393 . S
C395 C394 1.391 . S
C396 H386 0.950 . S
C396 C397 1.386 . S
C396 C398 1.391 . S
C397 C396 1.386 . S
C397 C401 1.393 . S
C398 H387 0.950 . S
C398 C396 1.391 . S
C398 C399 1.400 . S
C399 C393 1.491 . S
C399 C398 1.400 . S
C399 C400 1.398 . S
C400 H388 0.950 . S
C400 C399 1.398 . S
C400 C401 1.391 . S
C401 H389 0.950 . S
C401 C397 1.393 . S
C401 C400 1.391 . S
H402 C410 0.950 . S
H403 C415 0.950 . S
H404 C412 0.950 . S
H405 C414 0.950 . S
H406 C416 0.950 . S
H407 C418 0.950 . S
H408 C420 0.950 . S
H409 C421 0.950 . S
C410 H402 0.950 . S
C410 C411 1.386 . S
C410 C412 1.391 . S
C411 C410 1.386 . S
C411 C415 1.393 . S
C412 H404 0.950 . S
C412 C410 1.391 . S
C412 C413 1.400 . S
C413 C412 1.400 . S
C413 C414 1.398 . S
C413 C419 1.491 . S
C414 H405 0.950 . S
C414 C413 1.398 . S
C414 C415 1.391 . S
C415 H403 0.950 . S
C415 C411 1.393 . S
C415 C414 1.391 . S
C416 H406 0.950 . S
C416 C417 1.386 . S
C416 C418 1.391 . S
C417 C416 1.386 . S
C417 C421 1.393 . S
C418 H407 0.950 . S
C418 C416 1.391 . S
C418 C419 1.400 . S
C419 C413 1.491 . S
C419 C418 1.400 . S
C419 C420 1.398 . S
C420 H408 0.950 . S
C420 C419 1.398 . S
C420 C421 1.391 . S
C421 H409 0.950 . S
C421 C417 1.393 . S
C421 C420 1.391 . S
H422 C430 0.950 . S
H423 C435 0.950 . S
H424 C432 0.950 . S
H425 C434 0.950 . S
H426 C436 0.950 . S
H427 C438 0.950 . S
H428 C440 0.950 . S
H429 C441 0.950 . S
C430 H422 0.950 . S
C430 C431 1.386 . S
C430 C432 1.391 . S
C431 C430 1.386 . S
C431 C435 1.393 . S
C432 H424 0.950 . S
C432 C430 1.391 . S
C432 C433 1.400 . S
C433 C432 1.400 . S
C433 C434 1.398 . S
C433 C439 1.491 . S
C434 H425 0.950 . S
C434 C433 1.398 . S
C434 C435 1.391 . S
C435 H423 0.950 . S
C435 C431 1.393 . S
C435 C434 1.391 . S
C436 H426 0.950 . S
C436 C437 1.386 . S
C436 C438 1.391 . S
C437 C436 1.386 . S
C437 C441 1.393 . S
C438 H427 0.950 . S
C438 C436 1.391 . S
C438 C439 1.400 . S
C439 C433 1.491 . S
C439 C438 1.400 . S
C439 C440 1.398 . S
C440 H428 0.950 . S
C440 C439 1.398 . S
C440 C441 1.391 . S
C441 H429 0.950 . S
C441 C437 1.393 . S
C441 C440 1.391 . S
H442 C450 0.950 . S
H443 C455 0.950 . S
H444 C452 0.950 . S
H445 C454 0.950 . S
H446 C456 0.950 . S
H447 C458 0.950 . S
H448 C460 0.950 . S
H449 C461 0.950 . S
C450 H442 0.950 . S
C450 C451 1.386 . S
C450 C452 1.391 . S
C451 C450 1.386 . S
C451 C455 1.393 . S
C452 H444 0.950 . S
C452 C450 1.391 . S
C452 C453 1.400 . S
C453 C452 1.400 . S
C453 C454 1.398 . S
C453 C459 1.491 . S
C454 H445 0.950 . S
C454 C453 1.398 . S
C454 C455 1.391 . S
C455 H443 0.950 . S
C455 C451 1.393 . S
C455 C454 1.391 . S
C456 H446 0.950 . S
C456 C457 1.386 . S
C456 C458 1.391 . S
C457 C456 1.386 . S
C457 C461 1.393 . S
C458 H447 0.950 . S
C458 C456 1.391 . S
C458 C459 1.400 . S
C459 C453 1.491 . S
C459 C458 1.400 . S
C459 C460 1.398 . S
C460 H448 0.950 . S
C460 C459 1.398 . S
C460 C461 1.391 . S
C461 H449 0.950 . S
C461 C457 1.393 . S
C461 C460 1.391 . S
H462 C470 0.950 . S
H463 C475 0.950 . S
H464 C472 0.950 . S
H465 C474 0.950 . S
H466 C476 0.950 . S
H467 C478 0.950 . S
H468 C480 0.950 . S
H469 C481 0.950 . S
C470 H462 0.950 . S
C470 C471 1.386 . S
C470 C472 1.391 . S
C471 C470 1.386 . S
C471 C475 1.393 . S
C472 H464 0.950 . S
C472 C470 1.391 . S
C472 C473 1.400 . S
C473 C472 1.400 . S
C473 C474 1.398 . S
C473 C479 1.491 . S
C474 H465 0.950 . S
C474 C473 1.398 . S
C474 C475 1.391 . S
C475 H463 0.950 . S
C475 C471 1.393 . S
C475 C474 1.391 . S
C476 H466 0.950 . S
C476 C477 1.386 . S
C476 C478 1.391 . S
C477 C476 1.386 . S
C477 C481 1.393 . S
C478 H467 0.950 . S
C478 C476 1.391 . S
C478 C479 1.400 . S
C479 C473 1.491 . S
C479 C478 1.400 . S
C479 C480 1.398 . S
C480 H468 0.950 . S
C480 C479 1.398 . S
C480 C481 1.391 . S
C481 H469 0.950 . S
C481 C477 1.393 . S
C481 C480 1.391 . S
H482 C490 0.950 . S
H483 C495 0.950 . S
H484 C492 0.950 . S
H485 C494 0.950 . S
H486 C496 0.950 . S
H487 C498 0.950 . S
H488 C500 0.950 . S
H489 C501 0.950 . S
C490 H482 0.950 . S
C490 C491 1.386 . S
C490 C492 1.391 . S
C491 C490 1.386 . S
C491 C495 1.393 . S
C492 H484 0.950 . S
C492 C490 1.391 . S
C492 C493 1.400 . S
C493 C492 1.400 . S
C493 C494 1.398 . S
C493 C499 1.491 . S
C494 H485 0.950 . S
C494 C493 1.398 . S
C494 C495 1.391 . S
C495 H483 0.950 . S
C495 C491 1.393 . S
C495 C494 1.391 . S
C496 H486 0.950 . S
C496 C497 1.386 . S
C496 C498 1.391 . S
C497 C496 1.386 . S
C497 C501 1.393 . S
C498 H487 0.950 . S
C498 C496 1.391 . S
C498 C499 1.400 . S
C499 C493 1.491 . S
C499 C498 1.400 . S
C499 C500 1.398 . S
C500 H488 0.950 . S
C500 C499 1.398 . S
C500 C501 1.391 . S
C501 H489 0.950 . S
C501 C497 1.393 . S
C501 C500 1.391 . S
H502 C510 0.950 . S
H503 C515 0.950 . S
H504 C512 0.950 . S
H505 C514 0.950 . S
H506 C516 0.950 . S
H507 C518 0.950 . S
H508 C520 0.950 . S
H509 C521 0.950 . S
C510 H502 0.950 . S
C510 C511 1.386 . S
C510 C512 1.391 . S
C511 C510 1.386 . S
C511 C515 1.393 . S
C512 H504 0.950 . S
C512 C510 1.391 . S
C512 C513 1.400 . S
C513 C512 1.400 . S
C513 C514 1.398 . S
C513 C519 1.491 . S
C514 H505 0.950 . S
C514 C513 1.398 . S
C514 C515 1.391 . S
C515 H503 0.950 . S
C515 C511 1.393 . S
C515 C514 1.391 . S
C516 H506 0.950 . S
C516 C517 1.386 . S
C516 C518 1.391 . S
C517 C516 1.386 . S
C517 C521 1.393 . S
C518 H507 0.950 . S
C518 C516 1.391 . S
C518 C519 1.400 . S
C519 C513 1.491 . S
C519 C518 1.400 . S
C519 C520 1.398 . S
C520 H508 0.950 . S
C520 C519 1.398 . S
C520 C521 1.391 . S
C521 H509 0.950 . S
C521 C517 1.393 . S
C521 C520 1.391 . S
H522 C530 0.950 . S
H523 C535 0.950 . S
H524 C532 0.950 . S
H525 C534 0.950 . S
H526 C536 0.950 . S
H527 C538 0.950 . S
H528 C540 0.950 . S
H529 C541 0.950 . S
C530 H522 0.950 . S
C530 C531 1.386 . S
C530 C532 1.391 . S
C531 C530 1.386 . S
C531 C535 1.393 . S
C532 H524 0.950 . S
C532 C530 1.391 . S
C532 C533 1.400 . S
C533 C532 1.400 . S
C533 C534 1.398 . S
C533 C539 1.491 . S
C534 H525 0.950 . S
C534 C533 1.398 . S
C534 C535 1.391 . S
C535 H523 0.950 . S
C535 C531 1.393 . S
C535 C534 1.391 . S
C536 H526 0.950 . S
C536 C537 1.386 . S
C536 C538 1.391 . S
C537 C536 1.386 . S
C537 C541 1.393 . S
C538 H527 0.950 . S
C538 C536 1.391 . S
C538 C539 1.400 . S
C539 C533 1.491 . S
C539 C538 1.400 . S
C539 C540 1.398 . S
C540 H528 0.950 . S
C540 C539 1.398 . S
C540 C541 1.391 . S
C541 H529 0.950 . S
C541 C537 1.393 . S
C541 C540 1.391 . S
H542 C550 0.950 . S
H543 C555 0.950 . S
H544 C552 0.950 . S
H545 C554 0.950 . S
H546 C556 0.950 . S
H547 C558 0.950 . S
H548 C560 0.950 . S
H549 C561 0.950 . S
C550 H542 0.950 . S
C550 C551 1.386 . S
C550 C552 1.391 . S
C551 C550 1.386 . S
C551 C555 1.393 . S
C552 H544 0.950 . S
C552 C550 1.391 . S
C552 C553 1.400 . S
C553 C552 1.400 . S
C553 C554 1.398 . S
C553 C559 1.491 . S
C554 H545 0.950 . S
C554 C553 1.398 . S
C554 C555 1.391 . S
C555 H543 0.950 . S
C555 C551 1.393 . S
C555 C554 1.391 . S
C556 H546 0.950 . S
C556 C557 1.386 . S
C556 C558 1.391 . S
C557 C556 1.386 . S
C557 C561 1.393 . S
C558 H547 0.950 . S
C558 C556 1.391 . S
C558 C559 1.400 . S
C559 C553 1.491 . S
C559 C558 1.400 . S
C559 C560 1.398 . S
C560 H548 0.950 . S
C560 C559 1.398 . S
C560 C561 1.391 . S
C561 H549 0.950 . S
C561 C557 1.393 . S
C561 C560 1.391 . S
H562 C570 0.950 . S
H563 C575 0.950 . S
H564 C572 0.950 . S
H565 C574 0.950 . S
H566 C576 0.950 . S
H567 C578 0.950 . S
H568 C580 0.950 . S
H569 C581 0.950 . S
C570 H562 0.950 . S
C570 C571 1.386 . S
C570 C572 1.391 . S
C571 C570 1.386 . S
C571 C575 1.393 . S
C572 H564 0.950 . S
C572 C570 1.391 . S
C572 C573 1.400 . S
C573 C572 1.400 . S
C573 C574 1.398 . S
C573 C579 1.491 . S
C574 H565 0.950 . S
C574 C573 1.398 . S
C574 C575 1.391 . S
C575 H563 0.950 . S
C575 C571 1.393 . S
C575 C574 1.391 . S
C576 H566 0.950 . S
C576 C577 1.386 . S
C576 C578 1.391 . S
C577 C576 1.386 . S
C577 C581 1.393 . S
C578 H567 0.950 . S
C578 C576 1.391 . S
C578 C579 1.400 . S
C579 C573 1.491 . S
C579 C578 1.400 . S
C579 C580 1.398 . S
C580 H568 0.950 . S
C580 C579 1.398 . S
C580 C581 1.391 . S
C581 H569 0.950 . S
C581 C577 1.393 . S
C581 C580 1.391 . S
H582 C590 0.950 . S
H583 C595 0.950 . S
H584 C592 0.950 . S
H585 C594 0.950 . S
H586 C596 0.950 . S
H587 C598 0.950 . S
H588 C600 0.950 . S
H589 C601 0.950 . S
C590 H582 0.950 . S
C590 C591 1.386 . S
C590 C592 1.391 . S
C591 C590 1.386 . S
C591 C595 1.393 . S
C592 H584 0.950 . S
C592 C590 1.391 . S
C592 C593 1.400 . S
C593 C592 1.400 . S
C593 C594 1.398 . S
C593 C599 1.491 . S
C594 H585 0.950 . S
C594 C593 1.398 . S
C594 C595 1.391 . S
C595 H583 0.950 . S
C595 C591 1.393 . S
C595 C594 1.391 . S
C596 H586 0.950 . S
C596 C597 1.386 . S
C596 C598 1.391 . S
C597 C596 1.386 . S
C597 C601 1.393 . S
C598 H587 0.950 . S
C598 C596 1.391 . S
C598 C599 1.400 . S
C599 C593 1.491 . S
C599 C598 1.400 . S
C599 C600 1.398 . S
C600 H588 0.950 . S
C600 C599 1.398 . S
C600 C601 1.391 . S
C601 H589 0.950 . S
C601 C597 1.393 . S
C601 C600 1.391 . S
H602 C610 0.950 . S
H603 C615 0.950 . S
H604 C612 0.950 . S
H605 C614 0.950 . S
H606 C616 0.950 . S
H607 C618 0.950 . S
H608 C620 0.950 . S
H609 C621 0.950 . S
C610 H602 0.950 . S
C610 C611 1.386 . S
C610 C612 1.391 . S
C611 C610 1.386 . S
C611 C615 1.393 . S
C612 H604 0.950 . S
C612 C610 1.391 . S
C612 C613 1.400 . S
C613 C612 1.400 . S
C613 C614 1.398 . S
C613 C619 1.491 . S
C614 H605 0.950 . S
C614 C613 1.398 . S
C614 C615 1.391 . S
C615 H603 0.950 . S
C615 C611 1.393 . S
C615 C614 1.391 . S
C616 H606 0.950 . S
C616 C617 1.386 . S
C616 C618 1.391 . S
C617 C616 1.386 . S
C617 C621 1.393 . S
C618 H607 0.950 . S
C618 C616 1.391 . S
C618 C619 1.400 . S
C619 C613 1.491 . S
C619 C618 1.400 . S
C619 C620 1.398 . S
C620 H608 0.950 . S
C620 C619 1.398 . S
C620 C621 1.391 . S
C621 H609 0.950 . S
C621 C617 1.393 . S
C621 C620 1.391 . S
H622 C630 0.950 . S
H623 C635 0.950 . S
H624 C632 0.950 . S
H625 C634 0.950 . S
H626 C636 0.950 . S
H627 C638 0.950 . S
H628 C640 0.950 . S
H629 C641 0.950 . S
C630 H622 0.950 . S
C630 C631 1.386 . S
C630 C632 1.391 . S
C631 C630 1.386 . S
C631 C635 1.393 . S
C632 H624 0.950 . S
C632 C630 1.391 . S
C632 C633 1.400 . S
C633 C632 1.400 . S
C633 C634 1.398 . S
C633 C639 1.491 . S
C634 H625 0.950 . S
C634 C633 1.398 . S
C634 C635 1.391 . S
C635 H623 0.950 . S
C635 C631 1.393 . S
C635 C634 1.391 . S
C636 H626 0.950 . S
C636 C637 1.386 . S
C636 C638 1.391 . S
C637 C636 1.386 . S
C637 C641 1.393 . S
C638 H627 0.950 . S
C638 C636 1.391 . S
C638 C639 1.400 . S
C639 C633 1.491 . S
C639 C638 1.400 . S
C639 C640 1.398 . S
C640 H628 0.950 . S
C640 C639 1.398 . S
C640 C641 1.391 . S
C641 H629 0.950 . S
C641 C637 1.393 . S
C641 C640 1.391 . S
H642 C650 0.950 . S
H643 C655 0.950 . S
H644 C652 0.950 . S
H645 C654 0.950 . S
H646 C656 0.950 . S
H647 C658 0.950 . S
H648 C660 0.950 . S
H649 C661 0.950 . S
C650 H642 0.950 . S
C650 C651 1.386 . S
C650 C652 1.391 . S
C651 C650 1.386 . S
C651 C655 1.393 . S
C652 H644 0.950 . S
C652 C650 1.391 . S
C652 C653 1.400 . S
C653 C652 1.400 . S
C653 C654 1.398 . S
C653 C659 1.491 . S
C654 H645 0.950 . S
C654 C653 1.398 . S
C654 C655 1.391 . S
C655 H643 0.950 . S
C655 C651 1.393 . S
C655 C654 1.391 . S
C656 H646 0.950 . S
C656 C657 1.386 . S
C656 C658 1.391 . S
C657 C656 1.386 . S
C657 C661 1.393 . S
C658 H647 0.950 . S
C658 C656 1.391 . S
C658 C659 1.400 . S
C659 C653 1.491 . S
C659 C658 1.400 . S
C659 C660 1.398 . S
C660 H648 0.950 . S
C660 C659 1.398 . S
C660 C661 1.391 . S
C661 H649 0.950 . S
C661 C657 1.393 . S
C661 C660 1.391 . S
H662 C670 0.950 . S
H663 C675 0.950 . S
H664 C672 0.950 . S
H665 C674 0.950 . S
H666 C676 0.950 . S
H667 C678 0.950 . S
H668 C680 0.950 . S
H669 C681 0.950 1_554 S
C670 H662 0.950 . S
C670 C671 1.386 . S
C670 C672 1.391 . S
C671 C670 1.386 . S
C671 C675 1.393 . S
C672 H664 0.950 . S
C672 C670 1.391 . S
C672 C673 1.400 . S
C673 C672 1.400 . S
C673 C674 1.398 . S
C673 C679 1.491 . S
C674 H665 0.950 . S
C674 C673 1.398 . S
C674 C675 1.391 . S
C675 H663 0.950 . S
C675 C671 1.393 . S
C675 C674 1.391 . S
C676 H666 0.950 . S
C676 C677 1.386 . S
C676 C678 1.391 . S
C677 C676 1.386 . S
C677 C681 1.393 . S
C678 H667 0.950 . S
C678 C676 1.391 . S
C678 C679 1.400 . S
C679 C673 1.491 . S
C679 C678 1.400 . S
C679 C680 1.398 . S
C680 H668 0.950 . S
C680 C679 1.398 . S
C680 C681 1.391 . S
C681 H669 0.950 1_556 S
C681 C677 1.393 . S
C681 C680 1.391 . S
H682 C690 0.950 . S
H683 C695 0.950 . S
H684 C692 0.950 . S
H685 C694 0.950 . S
H686 C696 0.950 . S
H687 C698 0.950 . S
H688 C700 0.950 . S
H689 C701 0.950 . S
C690 H682 0.950 . S
C690 C691 1.386 . S
C690 C692 1.391 . S
C691 C690 1.386 . S
C691 C695 1.393 . S
C692 H684 0.950 . S
C692 C690 1.391 . S
C692 C693 1.400 . S
C693 C692 1.400 . S
C693 C694 1.398 . S
C693 C699 1.491 . S
C694 H685 0.950 . S
C694 C693 1.398 . S
C694 C695 1.391 . S
C695 H683 0.950 . S
C695 C691 1.393 . S
C695 C694 1.391 . S
C696 H686 0.950 . S
C696 C697 1.386 . S
C696 C698 1.391 . S
C697 C696 1.386 . S
C697 C701 1.393 . S
C698 H687 0.950 . S
C698 C696 1.391 . S
C698 C699 1.400 . S
C699 C693 1.491 . S
C699 C698 1.400 . S
C699 C700 1.398 . S
C700 H688 0.950 . S
C700 C699 1.398 . S
C700 C701 1.391 . S
C701 H689 0.950 . S
C701 C697 1.393 . S
C701 C700 1.391 . S
H702 C710 0.950 . S
H703 C715 0.950 . S
H704 C712 0.950 . S
H705 C714 0.950 . S
H706 C716 0.950 . S
H707 C718 0.950 . S
H708 C720 0.950 . S
H709 C721 0.950 . S
C710 H702 0.950 . S
C710 C711 1.386 . S
C710 C712 1.391 . S
C711 C710 1.386 . S
C711 C715 1.393 . S
C712 H704 0.950 . S
C712 C710 1.391 . S
C712 C713 1.400 . S
C713 C712 1.400 . S
C713 C714 1.398 . S
C713 C719 1.491 . S
C714 H705 0.950 . S
C714 C713 1.398 . S
C714 C715 1.391 . S
C715 H703 0.950 . S
C715 C711 1.393 . S
C715 C714 1.391 . S
C716 H706 0.950 . S
C716 C717 1.386 . S
C716 C718 1.391 . S
C717 C716 1.386 . S
C717 C721 1.393 . S
C718 H707 0.950 . S
C718 C716 1.391 . S
C718 C719 1.400 . S
C719 C713 1.491 . S
C719 C718 1.400 . S
C719 C720 1.398 . S
C720 H708 0.950 . S
C720 C719 1.398 . S
C720 C721 1.391 . S
C721 H709 0.950 . S
C721 C717 1.393 . S
C721 C720 1.391 . S
H722 C730 0.950 . S
H723 C735 0.950 . S
H724 C732 0.950 . S
H725 C734 0.950 . S
H726 C736 0.950 . S
H727 C738 0.950 . S
H728 C740 0.950 . S
H729 C741 0.950 . S
C730 H722 0.950 . S
C730 C731 1.386 . S
C730 C732 1.391 . S
C731 C730 1.386 . S
C731 C735 1.393 . S
C732 H724 0.950 . S
C732 C730 1.391 . S
C732 C733 1.400 . S
C733 C732 1.400 . S
C733 C734 1.398 . S
C733 C739 1.491 . S
C734 H725 0.950 . S
C734 C733 1.398 . S
C734 C735 1.391 . S
C735 H723 0.950 . S
C735 C731 1.393 . S
C735 C734 1.391 . S
C736 H726 0.950 . S
C736 C737 1.386 . S
C736 C738 1.391 . S
C737 C736 1.386 . S
C737 C741 1.393 . S
C738 H727 0.950 . S
C738 C736 1.391 . S
C738 C739 1.400 . S
C739 C733 1.491 . S
C739 C738 1.400 . S
C739 C740 1.398 . S
C740 H728 0.950 . S
C740 C739 1.398 . S
C740 C741 1.391 . S
C741 H729 0.950 . S
C741 C737 1.393 . S
C741 C740 1.391 . S
H742 C750 0.950 . S
H743 C755 0.950 . S
H744 C752 0.950 . S
H745 C754 0.950 . S
H746 C756 0.950 . S
H747 C758 0.950 . S
H748 C760 0.950 . S
H749 C761 0.950 1_554 S
C750 H742 0.950 . S
C750 C751 1.386 . S
C750 C752 1.391 . S
C751 C750 1.386 . S
C751 C755 1.393 . S
C752 H744 0.950 . S
C752 C750 1.391 . S
C752 C753 1.400 . S
C753 C752 1.400 . S
C753 C754 1.398 . S
C753 C759 1.491 . S
C754 H745 0.950 . S
C754 C753 1.398 . S
C754 C755 1.391 . S
C755 H743 0.950 . S
C755 C751 1.393 . S
C755 C754 1.391 . S
C756 H746 0.950 . S
C756 C757 1.386 . S
C756 C758 1.391 . S
C757 C756 1.386 . S
C757 C761 1.393 . S
C758 H747 0.950 . S
C758 C756 1.391 . S
C758 C759 1.400 . S
C759 C753 1.491 . S
C759 C758 1.400 . S
C759 C760 1.398 . S
C760 H748 0.950 . S
C760 C759 1.398 . S
C760 C761 1.391 . S
C761 H749 0.950 1_556 S
C761 C757 1.393 . S
C761 C760 1.391 . S
H762 C770 0.950 . S
H763 C775 0.950 . S
H764 C772 0.950 . S
H765 C774 0.950 . S
H766 C776 0.950 . S
H767 C778 0.950 . S
H768 C780 0.950 . S
H769 C781 0.950 . S
C770 H762 0.950 . S
C770 C771 1.386 . S
C770 C772 1.391 . S
C771 C770 1.386 . S
C771 C775 1.393 . S
C772 H764 0.950 . S
C772 C770 1.391 . S
C772 C773 1.400 . S
C773 C772 1.400 . S
C773 C774 1.398 . S
C773 C779 1.491 . S
C774 H765 0.950 . S
C774 C773 1.398 . S
C774 C775 1.391 . S
C775 H763 0.950 . S
C775 C771 1.393 . S
C775 C774 1.391 . S
C776 H766 0.950 . S
C776 C777 1.386 . S
C776 C778 1.391 . S
C777 C776 1.386 . S
C777 C781 1.393 . S
C778 H767 0.950 . S
C778 C776 1.391 . S
C778 C779 1.400 . S
C779 C773 1.491 . S
C779 C778 1.400 . S
C779 C780 1.398 . S
C780 H768 0.950 . S
C780 C779 1.398 . S
C780 C781 1.391 . S
C781 H769 0.950 . S
C781 C777 1.393 . S
C781 C780 1.391 . S
H782 C790 0.950 . S
H783 C795 0.950 . S
H784 C792 0.950 . S
H785 C794 0.950 . S
H786 C796 0.950 . S
H787 C798 0.950 . S
H788 C800 0.950 . S
H789 C801 0.950 . S
C790 H782 0.950 . S
C790 C791 1.386 . S
C790 C792 1.391 . S
C791 C790 1.386 . S
C791 C795 1.393 . S
C792 H784 0.950 . S
C792 C790 1.391 . S
C792 C793 1.400 . S
C793 C792 1.400 . S
C793 C794 1.398 . S
C793 C799 1.491 . S
C794 H785 0.950 . S
C794 C793 1.398 . S
C794 C795 1.391 . S
C795 H783 0.950 . S
C795 C791 1.393 . S
C795 C794 1.391 . S
C796 H786 0.950 . S
C796 C797 1.386 . S
C796 C798 1.391 . S
C797 C796 1.386 . S
C797 C801 1.393 . S
C798 H787 0.950 . S
C798 C796 1.391 . S
C798 C799 1.400 . S
C799 C793 1.491 . S
C799 C798 1.400 . S
C799 C800 1.398 . S
C800 H788 0.950 . S
C800 C799 1.398 . S
C800 C801 1.391 . S
C801 H789 0.950 . S
C801 C797 1.393 . S
C801 C800 1.391 . S
H802 C810 0.950 . S
H803 C815 0.950 . S
H804 C812 0.950 . S
H805 C814 0.950 . S
H806 C816 0.950 . S
H807 C818 0.950 . S
H808 C820 0.950 . S
H809 C821 0.950 . S
C810 H802 0.950 . S
C810 C811 1.386 . S
C810 C812 1.391 . S
C811 C810 1.386 . S
C811 C815 1.393 . S
C812 H804 0.950 . S
C812 C810 1.391 . S
C812 C813 1.400 . S
C813 C812 1.400 . S
C813 C814 1.398 . S
C813 C819 1.491 . S
C814 H805 0.950 . S
C814 C813 1.398 . S
C814 C815 1.391 . S
C815 H803 0.950 . S
C815 C811 1.393 . S
C815 C814 1.391 . S
C816 H806 0.950 . S
C816 C817 1.386 . S
C816 C818 1.391 . S
C817 C816 1.386 . S
C817 C821 1.393 . S
C818 H807 0.950 . S
C818 C816 1.391 . S
C818 C819 1.400 . S
C819 C813 1.491 . S
C819 C818 1.400 . S
C819 C820 1.398 . S
C820 H808 0.950 . S
C820 C819 1.398 . S
C820 C821 1.391 . S
C821 H809 0.950 . S
C821 C817 1.393 . S
C821 C820 1.391 . S
H822 C830 0.950 . S
H823 C835 0.950 . S
H824 C832 0.950 . S
H825 C834 0.950 . S
H826 C836 0.950 . S
H827 C838 0.950 . S
H828 C840 0.950 . S
H829 C841 0.950 . S
C830 H822 0.950 . S
C830 C831 1.386 . S
C830 C832 1.391 . S
C831 C830 1.386 . S
C831 C835 1.393 . S
C832 H824 0.950 . S
C832 C830 1.391 . S
C832 C833 1.400 . S
C833 C832 1.400 . S
C833 C834 1.398 . S
C833 C839 1.491 . S
C834 H825 0.950 . S
C834 C833 1.398 . S
C834 C835 1.391 . S
C835 H823 0.950 . S
C835 C831 1.393 . S
C835 C834 1.391 . S
C836 H826 0.950 . S
C836 C837 1.386 . S
C836 C838 1.391 . S
C837 C836 1.386 . S
C837 C841 1.393 . S
C838 H827 0.950 . S
C838 C836 1.391 . S
C838 C839 1.400 . S
C839 C833 1.491 . S
C839 C838 1.400 . S
C839 C840 1.398 . S
C840 H828 0.950 . S
C840 C839 1.398 . S
C840 C841 1.391 . S
C841 H829 0.950 . S
C841 C837 1.393 . S
C841 C840 1.391 . S
H842 C850 0.950 . S
H843 C855 0.950 . S
H844 C852 0.950 . S
H845 C854 0.950 . S
H846 C856 0.950 . S
H847 C858 0.950 . S
H848 C860 0.950 . S
H849 C861 0.950 . S
C850 H842 0.950 . S
C850 C851 1.386 . S
C850 C852 1.391 . S
C851 C850 1.386 . S
C851 C855 1.393 . S
C852 H844 0.950 . S
C852 C850 1.391 . S
C852 C853 1.400 . S
C853 C852 1.400 . S
C853 C854 1.398 . S
C853 C859 1.491 . S
C854 H845 0.950 . S
C854 C853 1.398 . S
C854 C855 1.391 . S
C855 H843 0.950 . S
C855 C851 1.393 . S
C855 C854 1.391 . S
C856 H846 0.950 . S
C856 C857 1.386 . S
C856 C858 1.391 . S
C857 C856 1.386 . S
C857 C861 1.393 . S
C858 H847 0.950 . S
C858 C856 1.391 . S
C858 C859 1.400 . S
C859 C853 1.491 . S
C859 C858 1.400 . S
C859 C860 1.398 . S
C860 H848 0.950 . S
C860 C859 1.398 . S
C860 C861 1.391 . S
C861 H849 0.950 . S
C861 C857 1.393 . S
C861 C860 1.391 . S
H862 C870 0.950 . S
H863 C875 0.950 . S
H864 C872 0.950 . S
H865 C874 0.950 . S
H866 C876 0.950 . S
H867 C878 0.950 . S
H868 C880 0.950 . S
H869 C881 0.950 . S
C870 H862 0.950 . S
C870 C871 1.386 . S
C870 C872 1.391 . S
C871 C870 1.386 . S
C871 C875 1.393 . S
C872 H864 0.950 . S
C872 C870 1.391 . S
C872 C873 1.400 . S
C873 C872 1.400 . S
C873 C874 1.398 . S
C873 C879 1.491 . S
C874 H865 0.950 . S
C874 C873 1.398 . S
C874 C875 1.391 . S
C875 H863 0.950 . S
C875 C871 1.393 . S
C875 C874 1.391 . S
C876 H866 0.950 . S
C876 C877 1.386 . S
C876 C878 1.391 . S
C877 C876 1.386 . S
C877 C881 1.393 . S
C878 H867 0.950 . S
C878 C876 1.391 . S
C878 C879 1.400 . S
C879 C873 1.491 . S
C879 C878 1.400 . S
C879 C880 1.398 . S
C880 H868 0.950 . S
C880 C879 1.398 . S
C880 C881 1.391 . S
C881 H869 0.950 . S
C881 C877 1.393 . S
C881 C880 1.391 . S
H882 C890 0.950 . S
H883 C895 0.950 . S
H884 C892 0.950 . S
H885 C894 0.950 . S
H886 C896 0.950 . S
H887 C898 0.950 . S
H888 C900 0.950 . S
H889 C901 0.950 . S
C890 H882 0.950 . S
C890 C891 1.386 . S
C890 C892 1.391 . S
C891 C890 1.386 . S
C891 C895 1.393 . S
C892 H884 0.950 . S
C892 C890 1.391 . S
C892 C893 1.400 . S
C893 C892 1.400 . S
C893 C894 1.398 . S
C893 C899 1.491 . S
C894 H885 0.950 . S
C894 C893 1.398 . S
C894 C895 1.391 . S
C895 H883 0.950 . S
C895 C891 1.393 . S
C895 C894 1.391 . S
C896 H886 0.950 . S
C896 C897 1.386 . S
C896 C898 1.391 . S
C897 C896 1.386 . S
C897 C901 1.393 . S
C898 H887 0.950 . S
C898 C896 1.391 . S
C898 C899 1.400 . S
C899 C893 1.491 . S
C899 C898 1.400 . S
C899 C900 1.398 . S
C900 H888 0.950 . S
C900 C899 1.398 . S
C900 C901 1.391 . S
C901 H889 0.950 . S
C901 C897 1.393 . S
C901 C900 1.391 . S
H902 C910 0.950 . S
H903 C915 0.950 . S
H904 C912 0.950 . S
H905 C914 0.950 . S
H906 C916 0.950 . S
H907 C918 0.950 . S
H908 C920 0.950 . S
H909 C921 0.950 . S
C910 H902 0.950 . S
C910 C911 1.386 . S
C910 C912 1.391 . S
C911 C910 1.386 . S
C911 C915 1.393 . S
C912 H904 0.950 . S
C912 C910 1.391 . S
C912 C913 1.400 . S
C913 C912 1.400 . S
C913 C914 1.398 . S
C913 C919 1.491 . S
C914 H905 0.950 . S
C914 C913 1.398 . S
C914 C915 1.391 . S
C915 H903 0.950 . S
C915 C911 1.393 . S
C915 C914 1.391 . S
C916 H906 0.950 . S
C916 C917 1.386 . S
C916 C918 1.391 . S
C917 C916 1.386 . S
C917 C921 1.393 . S
C918 H907 0.950 . S
C918 C916 1.391 . S
C918 C919 1.400 . S
C919 C913 1.491 . S
C919 C918 1.400 . S
C919 C920 1.398 . S
C920 H908 0.950 . S
C920 C919 1.398 . S
C920 C921 1.391 . S
C921 H909 0.950 . S
C921 C917 1.393 . S
C921 C920 1.391 . S
H922 C930 0.950 . S
H923 C935 0.950 . S
H924 C932 0.950 . S
H925 C934 0.950 . S
H926 C936 0.950 . S
H927 C938 0.950 . S
H928 C940 0.950 . S
H929 C941 0.950 . S
C930 H922 0.950 . S
C930 C931 1.386 . S
C930 C932 1.391 . S
C931 C930 1.386 . S
C931 C935 1.393 . S
C932 H924 0.950 . S
C932 C930 1.391 . S
C932 C933 1.400 . S
C933 C932 1.400 . S
C933 C934 1.398 . S
C933 C939 1.491 . S
C934 H925 0.950 . S
C934 C933 1.398 . S
C934 C935 1.391 . S
C935 H923 0.950 . S
C935 C931 1.393 . S
C935 C934 1.391 . S
C936 H926 0.950 . S
C936 C937 1.386 . S
C936 C938 1.391 . S
C937 C936 1.386 . S
C937 C941 1.393 . S
C938 H927 0.950 . S
C938 C936 1.391 . S
C938 C939 1.400 . S
C939 C933 1.491 . S
C939 C938 1.400 . S
C939 C940 1.398 . S
C940 H928 0.950 . S
C940 C939 1.398 . S
C940 C941 1.391 . S
C941 H929 0.950 . S
C941 C937 1.393 . S
C941 C940 1.391 . S
H942 C950 0.950 . S
H943 C955 0.950 . S
H944 C952 0.950 . S
H945 C954 0.950 . S
H946 C956 0.950 . S
H947 C958 0.950 . S
H948 C960 0.950 . S
H949 C961 0.950 . S
C950 H942 0.950 . S
C950 C951 1.386 . S
C950 C952 1.391 . S
C951 C950 1.386 . S
C951 C955 1.393 . S
C952 H944 0.950 . S
C952 C950 1.391 . S
C952 C953 1.400 . S
C953 C952 1.400 . S
C953 C954 1.398 . S
C953 C959 1.491 . S
C954 H945 0.950 . S
C954 C953 1.398 . S
C954 C955 1.391 . S
C955 H943 0.950 . S
C955 C951 1.393 . S
C955 C954 1.391 . S
C956 H946 0.950 . S
C956 C957 1.386 . S
C956 C958 1.391 . S
C957 C956 1.386 . S
C957 C961 1.393 . S
C958 H947 0.950 . S
C958 C956 1.391 . S
C958 C959 1.400 . S
C959 C953 1.491 . S
C959 C958 1.400 . S
C959 C960 1.398 . S
C960 H948 0.950 . S
C960 C959 1.398 . S
C960 C961 1.391 . S
C961 H949 0.950 . S
C961 C957 1.393 . S
C961 C960 1.391 . S
H962 C970 0.950 . S
H963 C975 0.950 . S
H964 C972 0.950 . S
H965 C974 0.950 . S
H966 C976 0.950 . S
H967 C978 0.950 . S
H968 C980 0.950 . S
H969 C981 0.950 . S
C970 H962 0.950 . S
C970 C971 1.386 . S
C970 C972 1.391 . S
C971 C970 1.386 . S
C971 C975 1.393 . S
C972 H964 0.950 . S
C972 C970 1.391 . S
C972 C973 1.400 . S
C973 C972 1.400 . S
C973 C974 1.398 . S
C973 C979 1.491 . S
C974 H965 0.950 . S
C974 C973 1.398 . S
C974 C975 1.391 . S
C975 H963 0.950 . S
C975 C971 1.393 . S
C975 C974 1.391 . S
C976 H966 0.950 . S
C976 C977 1.386 . S
C976 C978 1.391 . S
C977 C976 1.386 . S
C977 C981 1.393 . S
C978 H967 0.950 . S
C978 C976 1.391 . S
C978 C979 1.400 . S
C979 C973 1.491 . S
C979 C978 1.400 . S
C979 C980 1.398 . S
C980 H968 0.950 . S
C980 C979 1.398 . S
C980 C981 1.391 . S
C981 H969 0.950 . S
C981 C977 1.393 . S
C981 C980 1.391 . S
H982 C990 0.950 . S
H983 C995 0.950 . S
H984 C992 0.950 . S
H985 C994 0.950 . S
H986 C996 0.950 . S
H987 C998 0.950 . S
H988 C1000 0.950 . S
H989 C1001 0.950 . S
C990 H982 0.950 . S
C990 C991 1.386 . S
C990 C992 1.391 . S
C991 C990 1.386 . S
C991 C995 1.393 . S
C992 H984 0.950 . S
C992 C990 1.391 . S
C992 C993 1.400 . S
C993 C992 1.400 . S
C993 C994 1.398 . S
C993 C999 1.491 . S
C994 H985 0.950 . S
C994 C993 1.398 . S
C994 C995 1.391 . S
C995 H983 0.950 . S
C995 C991 1.393 . S
C995 C994 1.391 . S
C996 H986 0.950 . S
C996 C997 1.386 . S
C996 C998 1.391 . S
C997 C996 1.386 . S
C997 C1001 1.393 . S
C998 H987 0.950 . S
C998 C996 1.391 . S
C998 C999 1.400 . S
C999 C993 1.491 . S
C999 C998 1.400 . S
C999 C1000 1.398 . S
C1000 H988 0.950 . S
C1000 C999 1.398 . S
C1000 C1001 1.391 . S
C1001 H989 0.950 . S
C1001 C997 1.393 . S
C1001 C1000 1.391 . S
H1002 C1010 0.950 . S
H1003 C1015 0.950 . S
H1004 C1012 0.950 . S
H1005 C1014 0.950 . S
H1006 C1016 0.950 . S
H1007 C1018 0.950 . S
H1008 C1020 0.950 . S
H1009 C1021 0.950 . S
C1010 H1002 0.950 . S
C1010 C1011 1.386 . S
C1010 C1012 1.391 . S
C1011 C1010 1.386 . S
C1011 C1015 1.393 . S
C1012 H1004 0.950 . S
C1012 C1010 1.391 . S
C1012 C1013 1.400 . S
C1013 C1012 1.400 . S
C1013 C1014 1.398 . S
C1013 C1019 1.491 . S
C1014 H1005 0.950 . S
C1014 C1013 1.398 . S
C1014 C1015 1.391 . S
C1015 H1003 0.950 . S
C1015 C1011 1.393 . S
C1015 C1014 1.391 . S
C1016 H1006 0.950 . S
C1016 C1017 1.386 . S
C1016 C1018 1.391 . S
C1017 C1016 1.386 . S
C1017 C1021 1.393 . S
C1018 H1007 0.950 . S
C1018 C1016 1.391 . S
C1018 C1019 1.400 . S
C1019 C1013 1.491 . S
C1019 C1018 1.400 . S
C1019 C1020 1.398 . S
C1020 H1008 0.950 . S
C1020 C1019 1.398 . S
C1020 C1021 1.391 . S
C1021 H1009 0.950 . S
C1021 C1017 1.393 . S
C1021 C1020 1.391 . S
H1022 C1030 0.950 . S
H1023 C1035 0.950 . S
H1024 C1032 0.950 . S
H1025 C1034 0.950 . S
H1026 C1036 0.950 . S
H1027 C1038 0.950 . S
H1028 C1040 0.950 . S
H1029 C1041 0.950 . S
C1030 H1022 0.950 . S
C1030 C1031 1.386 . S
C1030 C1032 1.391 . S
C1031 C1030 1.386 . S
C1031 C1035 1.393 . S
C1032 H1024 0.950 . S
C1032 C1030 1.391 . S
C1032 C1033 1.400 . S
C1033 C1032 1.400 . S
C1033 C1034 1.398 . S
C1033 C1039 1.491 . S
C1034 H1025 0.950 . S
C1034 C1033 1.398 . S
C1034 C1035 1.391 . S
C1035 H1023 0.950 . S
C1035 C1031 1.393 . S
C1035 C1034 1.391 . S
C1036 H1026 0.950 . S
C1036 C1037 1.386 . S
C1036 C1038 1.391 . S
C1037 C1036 1.386 . S
C1037 C1041 1.393 . S
C1038 H1027 0.950 . S
C1038 C1036 1.391 . S
C1038 C1039 1.400 . S
C1039 C1033 1.491 . S
C1039 C1038 1.400 . S
C1039 C1040 1.398 . S
C1040 H1028 0.950 . S
C1040 C1039 1.398 . S
C1040 C1041 1.391 . S
C1041 H1029 0.950 . S
C1041 C1037 1.393 . S
C1041 C1040 1.391 . S
H1042 C1050 0.950 . S
H1043 C1055 0.950 . S
H1044 C1052 0.950 . S
H1045 C1054 0.950 . S
H1046 C1056 0.950 . S
H1047 C1058 0.950 . S
H1048 C1060 0.950 . S
H1049 C1061 0.950 . S
C1050 H1042 0.950 . S
C1050 C1051 1.386 . S
C1050 C1052 1.391 . S
C1051 C1050 1.386 . S
C1051 C1055 1.393 . S
C1052 H1044 0.950 . S
C1052 C1050 1.391 . S
C1052 C1053 1.400 . S
C1053 C1052 1.400 . S
C1053 C1054 1.398 . S
C1053 C1059 1.491 . S
C1054 H1045 0.950 . S
C1054 C1053 1.398 . S
C1054 C1055 1.391 . S
C1055 H1043 0.950 . S
C1055 C1051 1.393 . S
C1055 C1054 1.391 . S
C1056 H1046 0.950 . S
C1056 C1057 1.386 . S
C1056 C1058 1.391 . S
C1057 C1056 1.386 . S
C1057 C1061 1.393 . S
C1058 H1047 0.950 . S
C1058 C1056 1.391 . S
C1058 C1059 1.400 . S
C1059 C1053 1.491 . S
C1059 C1058 1.400 . S
C1059 C1060 1.398 . S
C1060 H1048 0.950 . S
C1060 C1059 1.398 . S
C1060 C1061 1.391 . S
C1061 H1049 0.950 . S
C1061 C1057 1.393 . S
C1061 C1060 1.391 . S
H1062 C1070 0.950 . S
H1063 C1075 0.950 . S
H1064 C1072 0.950 . S
H1065 C1074 0.950 . S
H1066 C1076 0.950 . S
H1067 C1078 0.950 . S
H1068 C1080 0.950 . S
H1069 C1081 0.950 . S
C1070 H1062 0.950 . S
C1070 C1071 1.386 . S
C1070 C1072 1.391 . S
C1071 C1070 1.386 . S
C1071 C1075 1.393 . S
C1072 H1064 0.950 . S
C1072 C1070 1.391 . S
C1072 C1073 1.400 . S
C1073 C1072 1.400 . S
C1073 C1074 1.398 . S
C1073 C1079 1.491 . S
C1074 H1065 0.950 . S
C1074 C1073 1.398 . S
C1074 C1075 1.391 . S
C1075 H1063 0.950 . S
C1075 C1071 1.393 . S
C1075 C1074 1.391 . S
C1076 H1066 0.950 . S
C1076 C1077 1.386 . S
C1076 C1078 1.391 . S
C1077 C1076 1.386 . S
C1077 C1081 1.393 . S
C1078 H1067 0.950 . S
C1078 C1076 1.391 . S
C1078 C1079 1.400 . S
C1079 C1073 1.491 . S
C1079 C1078 1.400 . S
C1079 C1080 1.398 . S
C1080 H1068 0.950 . S
C1080 C1079 1.398 . S
C1080 C1081 1.391 . S
C1081 H1069 0.950 . S
C1081 C1077 1.393 . S
C1081 C1080 1.391 . S
H1082 C1090 0.950 . S
H1083 C1095 0.950 . S
H1084 C1092 0.950 . S
H1085 C1094 0.950 . S
H1086 C1096 0.950 . S
H1087 C1098 0.950 . S
H1088 C1100 0.950 . S
H1089 C1101 0.950 . S
C1090 H1082 0.950 . S
C1090 C1091 1.386 . S
C1090 C1092 1.391 . S
C1091 C1090 1.386 . S
C1091 C1095 1.393 . S
C1092 H1084 0.950 . S
C1092 C1090 1.391 . S
C1092 C1093 1.400 . S
C1093 C1092 1.400 . S
C1093 C1094 1.398 . S
C1093 C1099 1.491 . S
C1094 H1085 0.950 . S
C1094 C1093 1.398 . S
C1094 C1095 1.391 . S
C1095 H1083 0.950 . S
C1095 C1091 1.393 . S
C1095 C1094 1.391 . S
C1096 H1086 0.950 . S
C1096 C1097 1.386 . S
C1096 C1098 1.391 . S
C1097 C1096 1.386 . S
C1097 C1101 1.393 . S
C1098 H1087 0.950 . S
C1098 C1096 1.391 . S
C1098 C1099 1.400 . S
C1099 C1093 1.491 . S
C1099 C1098 1.400 . S
C1099 C1100 1.398 . S
C1100 H1088 0.950 . S
C1100 C1099 1.398 . S
C1100 C1101 1.391 . S
C1101 H1089 0.950 . S
C1101 C1097 1.393 . S
C1101 C1100 1.391 . S
H1102 C1110 0.950 . S
H1103 C1115 0.950 . S
H1104 C1112 0.950 . S
H1105 C1114 0.950 . S
H1106 C1116 0.950 . S
H1107 C1118 0.950 . S
H1108 C1120 0.950 . S
H1109 C1121 0.950 . S
C1110 H1102 0.950 . S
C1110 C1111 1.386 . S
C1110 C1112 1.391 . S
C1111 C1110 1.386 . S
C1111 C1115 1.393 . S
C1112 H1104 0.950 . S
C1112 C1110 1.391 . S
C1112 C1113 1.400 . S
C1113 C1112 1.400 . S
C1113 C1114 1.398 . S
C1113 C1119 1.491 . S
C1114 H1105 0.950 . S
C1114 C1113 1.398 . S
C1114 C1115 1.391 . S
C1115 H1103 0.950 . S
C1115 C1111 1.393 . S
C1115 C1114 1.391 . S
C1116 H1106 0.950 . S
C1116 C1117 1.386 . S
C1116 C1118 1.391 . S
C1117 C1116 1.386 . S
C1117 C1121 1.393 . S
C1118 H1107 0.950 . S
C1118 C1116 1.391 . S
C1118 C1119 1.400 . S
C1119 C1113 1.491 . S
C1119 C1118 1.400 . S
C1119 C1120 1.398 . S
C1120 H1108 0.950 . S
C1120 C1119 1.398 . S
C1120 C1121 1.391 . S
C1121 H1109 0.950 . S
C1121 C1117 1.393 . S
C1121 C1120 1.391 . S
H1122 C1130 0.950 . S
H1123 C1135 0.950 . S
H1124 C1132 0.950 . S
H1125 C1134 0.950 . S
H1126 C1136 0.950 . S
H1127 C1138 0.950 . S
H1128 C1140 0.950 . S
H1129 C1141 0.950 . S
C1130 H1122 0.950 . S
C1130 C1131 1.386 . S
C1130 C1132 1.391 . S
C1131 C1130 1.386 . S
C1131 C1135 1.393 . S
C1132 H1124 0.950 . S
C1132 C1130 1.391 . S
C1132 C1133 1.400 . S
C1133 C1132 1.400 . S
C1133 C1134 1.398 . S
C1133 C1139 1.491 . S
C1134 H1125 0.950 . S
C1134 C1133 1.398 . S
C1134 C1135 1.391 . S
C1135 H1123 0.950 . S
C1135 C1131 1.393 . S
C1135 C1134 1.391 . S
C1136 H1126 0.950 . S
C1136 C1137 1.386 . S
C1136 C1138 1.391 . S
C1137 C1136 1.386 . S
C1137 C1141 1.393 . S
C1138 H1127 0.950 . S
C1138 C1136 1.391 . S
C1138 C1139 1.400 . S
C1139 C1133 1.491 . S
C1139 C1138 1.400 . S
C1139 C1140 1.398 . S
C1140 H1128 0.950 . S
C1140 C1139 1.398 . S
C1140 C1141 1.391 . S
C1141 H1129 0.950 . S
C1141 C1137 1.393 . S
C1141 C1140 1.391 . S
H1142 C1150 0.950 . S
H1143 C1155 0.950 . S
H1144 C1152 0.950 . S
H1145 C1154 0.950 . S
H1146 C1156 0.950 . S
H1147 C1158 0.950 . S
H1148 C1160 0.950 . S
H1149 C1161 0.950 . S
C1150 H1142 0.950 . S
C1150 C1151 1.386 . S
C1150 C1152 1.391 . S
C1151 C1150 1.386 . S
C1151 C1155 1.393 . S
C1152 H1144 0.950 . S
C1152 C1150 1.391 . S
C1152 C1153 1.400 . S
C1153 C1152 1.400 . S
C1153 C1154 1.398 . S
C1153 C1159 1.491 . S
C1154 H1145 0.950 . S
C1154 C1153 1.398 . S
C1154 C1155 1.391 . S
C1155 H1143 0.950 . S
C1155 C1151 1.393 . S
C1155 C1154 1.391 . S
C1156 H1146 0.950 . S
C1156 C1157 1.386 . S
C1156 C1158 1.391 . S
C1157 C1156 1.386 . S
C1157 C1161 1.393 . S
C1158 H1147 0.950 . S
C1158 C1156 1.391 . S
C1158 C1159 1.400 . S
C1159 C1153 1.491 . S
C1159 C1158 1.400 . S
C1159 C1160 1.398 . S
C1160 H1148 0.950 . S
C1160 C1159 1.398 . S
C1160 C1161 1.391 . S
C1161 H1149 0.950 . S
C1161 C1157 1.393 . S
C1161 C1160 1.391 . S
H1162 C1170 0.950 . S
H1163 C1175 0.950 . S
H1164 C1172 0.950 . S
H1165 C1174 0.950 . S
H1166 C1176 0.950 . S
H1167 C1178 0.950 . S
H1168 C1180 0.950 . S
H1169 C1181 0.950 . S
C1170 H1162 0.950 . S
C1170 C1171 1.386 . S
C1170 C1172 1.391 . S
C1171 C1170 1.386 . S
C1171 C1175 1.393 . S
C1172 H1164 0.950 . S
C1172 C1170 1.391 . S
C1172 C1173 1.400 . S
C1173 C1172 1.400 . S
C1173 C1174 1.398 . S
C1173 C1179 1.491 . S
C1174 H1165 0.950 . S
C1174 C1173 1.398 . S
C1174 C1175 1.391 . S
C1175 H1163 0.950 . S
C1175 C1171 1.393 . S
C1175 C1174 1.391 . S
C1176 H1166 0.950 . S
C1176 C1177 1.386 . S
C1176 C1178 1.391 . S
C1177 C1176 1.386 . S
C1177 C1181 1.393 . S
C1178 H1167 0.950 . S
C1178 C1176 1.391 . S
C1178 C1179 1.400 . S
C1179 C1173 1.491 . S
C1179 C1178 1.400 . S
C1179 C1180 1.398 . S
C1180 H1168 0.950 . S
C1180 C1179 1.398 . S
C1180 C1181 1.391 . S
C1181 H1169 0.950 . S
C1181 C1177 1.393 . S
C1181 C1180 1.391 . S
H1182 C1190 0.950 . S
H1183 C1195 0.950 . S
H1184 C1192 0.950 . S
H1185 C1194 0.950 . S
H1186 C1196 0.950 . S
H1187 C1198 0.950 . S
H1188 C1200 0.950 . S
H1189 C1201 0.950 . S
C1190 H1182 0.950 . S
C1190 C1191 1.386 . S
C1190 C1192 1.391 . S
C1191 C1190 1.386 . S
C1191 C1195 1.393 . S
C1192 H1184 0.950 . S
C1192 C1190 1.391 . S
C1192 C1193 1.400 . S
C1193 C1192 1.400 . S
C1193 C1194 1.398 . S
C1193 C1199 1.491 . S
C1194 H1185 0.950 . S
C1194 C1193 1.398 . S
C1194 C1195 1.391 . S
C1195 H1183 0.950 . S
C1195 C1191 1.393 . S
C1195 C1194 1.391 . S
C1196 H1186 0.950 . S
C1196 C1197 1.386 . S
C1196 C1198 1.391 . S
C1197 C1196 1.386 . S
C1197 C1201 1.393 . S
C1198 H1187 0.950 . S
C1198 C1196 1.391 . S
C1198 C1199 1.400 . S
C1199 C1193 1.491 . S
C1199 C1198 1.400 . S
C1199 C1200 1.398 . S
C1200 H1188 0.950 . S
C1200 C1199 1.398 . S
C1200 C1201 1.391 . S
C1201 H1189 0.950 . S
C1201 C1197 1.393 . S
C1201 C1200 1.391 . S
H1202 C1210 0.950 . S
H1203 C1215 0.950 . S
H1204 C1212 0.950 . S
H1205 C1214 0.950 . S
H1206 C1216 0.950 . S
H1207 C1218 0.950 . S
H1208 C1220 0.950 . S
H1209 C1221 0.950 . S
C1210 H1202 0.950 . S
C1210 C1211 1.386 . S
C1210 C1212 1.391 . S
C1211 C1210 1.386 . S
C1211 C1215 1.393 . S
C1212 H1204 0.950 . S
C1212 C1210 1.391 . S
C1212 C1213 1.400 . S
C1213 C1212 1.400 . S
C1213 C1214 1.398 . S
C1213 C1219 1.491 . S
C1214 H1205 0.950 . S
C1214 C1213 1.398 . S
C1214 C1215 1.391 . S
C1215 H1203 0.950 . S
C1215 C1211 1.393 . S
C1215 C1214 1.391 . S
C1216 H1206 0.950 . S
C1216 C1217 1.386 . S
C1216 C1218 1.391 . S
C1217 C1216 1.386 . S
C1217 C1221 1.393 . S
C1218 H1207 0.950 . S
C1218 C1216 1.391 . S
C1218 C1219 1.400 . S
C1219 C1213 1.491 . S
C1219 C1218 1.400 . S
C1219 C1220 1.398 . S
C1220 H1208 0.950 . S
C1220 C1219 1.398 . S
C1220 C1221 1.391 . S
C1221 H1209 0.950 . S
C1221 C1217 1.393 . S
C1221 C1220 1.391 . S
H1222 C1230 0.950 . S
H1223 C1235 0.950 . S
H1224 C1232 0.950 . S
H1225 C1234 0.950 . S
H1226 C1236 0.950 . S
H1227 C1238 0.950 . S
H1228 C1240 0.950 . S
H1229 C1241 0.950 . S
C1230 H1222 0.950 . S
C1230 C1231 1.386 . S
C1230 C1232 1.391 . S
C1231 C1230 1.386 . S
C1231 C1235 1.393 . S
C1232 H1224 0.950 . S
C1232 C1230 1.391 . S
C1232 C1233 1.400 . S
C1233 C1232 1.400 . S
C1233 C1234 1.398 . S
C1233 C1239 1.491 . S
C1234 H1225 0.950 . S
C1234 C1233 1.398 . S
C1234 C1235 1.391 . S
C1235 H1223 0.950 . S
C1235 C1231 1.393 . S
C1235 C1234 1.391 . S
C1236 H1226 0.950 . S
C1236 C1237 1.386 . S
C1236 C1238 1.391 . S
C1237 C1236 1.386 . S
C1237 C1241 1.393 . S
C1238 H1227 0.950 . S
C1238 C1236 1.391 . S
C1238 C1239 1.400 . S
C1239 C1233 1.491 . S
C1239 C1238 1.400 . S
C1239 C1240 1.398 . S
C1240 H1228 0.950 . S
C1240 C1239 1.398 . S
C1240 C1241 1.391 . S
C1241 H1229 0.950 . S
C1241 C1237 1.393 . S
C1241 C1240 1.391 . S
H1242 C1250 0.950 . S
H1243 C1255 0.950 . S
H1244 C1252 0.950 . S
H1245 C1254 0.950 . S
H1246 C1256 0.950 . S
H1247 C1258 0.950 . S
H1248 C1260 0.950 . S
H1249 C1261 0.950 . S
C1250 H1242 0.950 . S
C1250 C1251 1.386 . S
C1250 C1252 1.391 . S
C1251 C1250 1.386 . S
C1251 C1255 1.393 . S
C1252 H1244 0.950 . S
C1252 C1250 1.391 . S
C1252 C1253 1.400 . S
C1253 C1252 1.400 . S
C1253 C1254 1.398 . S
C1253 C1259 1.491 . S
C1254 H1245 0.950 . S
C1254 C1253 1.398 . S
C1254 C1255 1.391 . S
C1255 H1243 0.950 . S
C1255 C1251 1.393 . S
C1255 C1254 1.391 . S
C1256 H1246 0.950 . S
C1256 C1257 1.386 . S
C1256 C1258 1.391 . S
C1257 C1256 1.386 . S
C1257 C1261 1.393 . S
C1258 H1247 0.950 . S
C1258 C1256 1.391 . S
C1258 C1259 1.400 . S
C1259 C1253 1.491 . S
C1259 C1258 1.400 . S
C1259 C1260 1.398 . S
C1260 H1248 0.950 . S
C1260 C1259 1.398 . S
C1260 C1261 1.391 . S
C1261 H1249 0.950 . S
C1261 C1257 1.393 . S
C1261 C1260 1.391 . S
H1262 C1270 0.950 . S
H1263 C1275 0.950 . S
H1264 C1272 0.950 . S
H1265 C1274 0.950 . S
H1266 C1276 0.950 . S
H1267 C1278 0.950 . S
H1268 C1280 0.950 . S
H1269 C1281 0.950 . S
C1270 H1262 0.950 . S
C1270 C1271 1.386 . S
C1270 C1272 1.391 . S
C1271 C1270 1.386 . S
C1271 C1275 1.393 . S
C1272 H1264 0.950 . S
C1272 C1270 1.391 . S
C1272 C1273 1.400 . S
C1273 C1272 1.400 . S
C1273 C1274 1.398 . S
C1273 C1279 1.491 . S
C1274 H1265 0.950 . S
C1274 C1273 1.398 . S
C1274 C1275 1.391 . S
C1275 H1263 0.950 . S
C1275 C1271 1.393 . S
C1275 C1274 1.391 . S
C1276 H1266 0.950 . S
C1276 C1277 1.386 . S
C1276 C1278 1.391 . S
C1277 C1276 1.386 . S
C1277 C1281 1.393 . S
C1278 H1267 0.950 . S
C1278 C1276 1.391 . S
C1278 C1279 1.400 . S
C1279 C1273 1.491 . S
C1279 C1278 1.400 . S
C1279 C1280 1.398 . S
C1280 H1268 0.950 . S
C1280 C1279 1.398 . S
C1280 C1281 1.391 . S
C1281 H1269 0.950 . S
C1281 C1277 1.393 . S
C1281 C1280 1.391 . S
H1282 C1290 0.950 . S
H1283 C1295 0.950 . S
H1284 C1292 0.950 . S
H1285 C1294 0.950 . S
H1286 C1296 0.950 . S
H1287 C1298 0.950 . S
H1288 C1300 0.950 . S
H1289 C1301 0.950 . S
C1290 H1282 0.950 . S
C1290 C1291 1.386 . S
C1290 C1292 1.391 . S
C1291 C1290 1.386 . S
C1291 C1295 1.393 . S
C1292 H1284 0.950 . S
C1292 C1290 1.391 . S
C1292 C1293 1.400 . S
C1293 C1292 1.400 . S
C1293 C1294 1.398 . S
C1293 C1299 1.491 . S
C1294 H1285 0.950 . S
C1294 C1293 1.398 . S
C1294 C1295 1.391 . S
C1295 H1283 0.950 . S
C1295 C1291 1.393 . S
C1295 C1294 1.391 . S
C1296 H1286 0.950 . S
C1296 C1297 1.386 . S
C1296 C1298 1.391 . S
C1297 C1296 1.386 . S
C1297 C1301 1.393 . S
C1298 H1287 0.950 . S
C1298 C1296 1.391 . S
C1298 C1299 1.400 . S
C1299 C1293 1.491 . S
C1299 C1298 1.400 . S
C1299 C1300 1.398 . S
C1300 H1288 0.950 . S
C1300 C1299 1.398 . S
C1300 C1301 1.391 . S
C1301 H1289 0.950 . S
C1301 C1297 1.393 . S
C1301 C1300 1.391 . S
H1302 C1310 0.950 . S
H1303 C1315 0.950 . S
H1304 C1312 0.950 . S
H1305 C1314 0.950 . S
H1306 C1316 0.950 . S
H1307 C1318 0.950 . S
H1308 C1320 0.950 . S
H1309 C1321 0.950 . S
C1310 H1302 0.950 . S
C1310 C1311 1.386 . S
C1310 C1312 1.391 . S
C1311 C1310 1.386 . S
C1311 C1315 1.393 . S
C1312 H1304 0.950 . S
C1312 C1310 1.391 . S
C1312 C1313 1.400 . S
C1313 C1312 1.400 . S
C1313 C1314 1.398 . S
C1313 C1319 1.491 . S
C1314 H1305 0.950 . S
C1314 C1313 1.398 . S
C1314 C1315 1.391 . S
C1315 H1303 0.950 . S
C1315 C1311 1.393 . S
C1315 C1314 1.391 . S
C1316 H1306 0.950 . S
C1316 C1317 1.386 . S
C1316 C1318 1.391 . S
C1317 C1316 1.386 . S
C1317 C1321 1.393 . S
C1318 H1307 0.950 . S
C1318 C1316 1.391 . S
C1318 C1319 1.400 . S
C1319 C1313 1.491 . S
C1319 C1318 1.400 . S
C1319 C1320 1.398 . S
C1320 H1308 0.950 . S
C1320 C1319 1.398 . S
C1320 C1321 1.391 . S
C1321 H1309 0.950 . S
C1321 C1317 1.393 . S
C1321 C1320 1.391 . S
H1322 C1330 0.950 . S
H1323 C1335 0.950 . S
H1324 C1332 0.950 . S
H1325 C1334 0.950 . S
H1326 C1336 0.950 . S
H1327 C1338 0.950 . S
H1328 C1340 0.950 . S
H1329 C1341 0.950 . S
C1330 H1322 0.950 . S
C1330 C1331 1.386 . S
C1330 C1332 1.391 . S
C1331 C1330 1.386 . S
C1331 C1335 1.393 . S
C1332 H1324 0.950 . S
C1332 C1330 1.391 . S
C1332 C1333 1.400 . S
C1333 C1332 1.400 . S
C1333 C1334 1.398 . S
C1333 C1339 1.491 . S
C1334 H1325 0.950 . S
C1334 C1333 1.398 . S
C1334 C1335 1.391 . S
C1335 H1323 0.950 . S
C1335 C1331 1.393 . S
C1335 C1334 1.391 . S
C1336 H1326 0.950 . S
C1336 C1337 1.386 . S
C1336 C1338 1.391 . S
C1337 C1336 1.386 . S
C1337 C1341 1.393 . S
C1338 H1327 0.950 . S
C1338 C1336 1.391 . S
C1338 C1339 1.400 . S
C1339 C1333 1.491 . S
C1339 C1338 1.400 . S
C1339 C1340 1.398 . S
C1340 H1328 0.950 . S
C1340 C1339 1.398 . S
C1340 C1341 1.391 . S
C1341 H1329 0.950 . S
C1341 C1337 1.393 . S
C1341 C1340 1.391 . S
C397 C211 1.118 . S
C391 C17 1.184 . S
C417 C212 1.667 . S
C411 C44 1.703 . S
C437 C206 1.221 . S
C431 C63 1.248 . S
C451 C87 1.029 . S
C457 C205 1.029 . S
C471 C110 1.624 . S
C477 C208 1.557 . S
C497 C210 1.224 . S
C491 C131 1.242 . S
C511 C159 1.104 . S
C517 C209 1.169 . S
C531 C177 1.199 . S
C537 C207 1.132 . S
C557 C242 1.547 . S
C551 C20 1.363 . S
C571 C42 1.444 . S
C577 C273 1.368 . S
C597 C241 1.464 . S
C591 C66 1.365 . S
C617 C276 1.132 . S
C611 C86 1.136 . S
C631 C109 1.326 . S
C637 C239 1.315 . S
C657 C271 1.504 . S
C651 C136 1.409 . S
C671 C157 1.204 . S
C677 C244 1.186 . S
C691 C182 1.362 . S
C697 C278 1.392 . S
C711 C18 1.393 . S
C717 C274 1.346 . S
C731 C112 1.343 . S
C737 C277 1.436 . S
C757 C245 1.334 . S
C751 C134 1.322 . S
C777 C272 1.275 . S
C771 C154 1.277 . S
C791 C180 1.415 . S
C797 C238 1.463 . S
C811 C64 1.445 . S
C817 C275 1.461 . S
C837 C240 1.328 . S
C831 C89 1.213 . S
C851 C39 1.502 . S
C857 C243 1.481 . S
C871 C178 1.177 . S
C877 C310 1.110 . S
C891 C113 1.328 . S
C897 C311 1.316 . S
C917 C305 1.193 . S
C911 C132 1.234 . S
C937 C304 1.446 . S
C931 C156 1.447 . S
C951 C41 1.208 . S
C957 C307 1.131 . S
C977 C309 1.227 . S
C971 C62 1.245 . S
C991 C90 1.487 . S
C997 C308 1.541 . S
C1011 C16 1.182 . S
C1017 C306 1.083 . S
C1031 C181 1.459 . S
C1037 C344 1.552 . S
C1057 C376 1.204 . S
C1051 C111 1.229 . S
C1071 C135 1.190 . S
C1077 C337 1.293 . S
C1091 C155 1.377 . S
C1097 C371 1.381 . S
C1117 C342 1.102 . S
C1111 C40 1.129 . S
C1131 C67 1.660 . S
C1137 C373 1.762 . S
C1157 C339 1.354 . S
C1151 C88 1.433 . S
C1177 C374 1.421 . S
C1171 C21 1.272 . S
C1197 C370 1.321 . S
C1191 C179 1.315 . S
C1211 C43 1.166 . S
C1217 C372 1.355 . S
C1231 C65 1.237 . S
C1237 C341 1.292 . S
C1257 C375 1.540 . S
C1251 C85 1.518 . S
C1271 C19 1.522 . S
C1277 C340 1.537 . S
C1291 C133 1.638 . S
C1297 C377 1.589 . S
C1317 C343 1.425 . S
C1311 C158 1.360 . S
C1337 C338 1.285 . S
C1331 C108 1.274 . S
