# Generated by pormake.
# Topology gar, (4,6)-cn, num edge types: 1
# Building blocks:
#     Node 0, Type 0, BuildingBlock: GALJAG_clean_sbu_0, # of connection points: 4
#     Node 1, Type 0, BuildingBlock: GALJAG_clean_sbu_0, # of connection points: 4
#     Node 2, Type 0, BuildingBlock: GALJAG_clean_sbu_0, # of connection points: 4
#     Node 3, Type 0, BuildingBlock: GALJAG_clean_sbu_0, # of connection points: 4
#     Node 4, Type 0, BuildingBlock: GALJAG_clean_sbu_0, # of connection points: 4
#     Node 5, Type 0, BuildingBlock: GALJAG_clean_sbu_0, # of connection points: 4
#     Node 6, Type 0, BuildingBlock: GALJAG_clean_sbu_0, # of connection points: 4
#     Node 7, Type 0, BuildingBlock: GALJAG_clean_sbu_0, # of connection points: 4
#     Node 8, Type 0, BuildingBlock: GALJAG_clean_sbu_0, # of connection points: 4
#     Node 9, Type 0, BuildingBlock: GALJAG_clean_sbu_0, # of connection points: 4
#     Node 10, Type 0, BuildingBlock: GALJAG_clean_sbu_0, # of connection points: 4
#     Node 11, Type 0, BuildingBlock: GALJAG_clean_sbu_0, # of connection points: 4
#     Node 12, Type 0, BuildingBlock: GALJAG_clean_sbu_0, # of connection points: 4
#     Node 13, Type 0, BuildingBlock: GALJAG_clean_sbu_0, # of connection points: 4
#     Node 14, Type 0, BuildingBlock: GALJAG_clean_sbu_0, # of connection points: 4
#     Node 15, Type 0, BuildingBlock: GALJAG_clean_sbu_0, # of connection points: 4
#     Node 16, Type 0, BuildingBlock: GALJAG_clean_sbu_0, # of connection points: 4
#     Node 17, Type 0, BuildingBlock: GALJAG_clean_sbu_0, # of connection points: 4
#     Node 18, Type 0, BuildingBlock: GALJAG_clean_sbu_0, # of connection points: 4
#     Node 19, Type 0, BuildingBlock: GALJAG_clean_sbu_0, # of connection points: 4
#     Node 20, Type 0, BuildingBlock: GALJAG_clean_sbu_0, # of connection points: 4
#     Node 21, Type 0, BuildingBlock: GALJAG_clean_sbu_0, # of connection points: 4
#     Node 22, Type 0, BuildingBlock: GALJAG_clean_sbu_0, # of connection points: 4
#     Node 23, Type 0, BuildingBlock: GALJAG_clean_sbu_0, # of connection points: 4
#     Node 24, Type 1, BuildingBlock: NUHQIS_clean_sbu_0, # of connection points: 6
#     Node 25, Type 1, BuildingBlock: NUHQIS_clean_sbu_0, # of connection points: 6
#     Node 26, Type 1, BuildingBlock: NUHQIS_clean_sbu_0, # of connection points: 6
#     Node 27, Type 1, BuildingBlock: NUHQIS_clean_sbu_0, # of connection points: 6
#     Node 28, Type 1, BuildingBlock: NUHQIS_clean_sbu_0, # of connection points: 6
#     Node 29, Type 1, BuildingBlock: NUHQIS_clean_sbu_0, # of connection points: 6
#     Node 30, Type 1, BuildingBlock: NUHQIS_clean_sbu_0, # of connection points: 6
#     Node 31, Type 1, BuildingBlock: NUHQIS_clean_sbu_0, # of connection points: 6
#     Node 32, Type 1, BuildingBlock: NUHQIS_clean_sbu_0, # of connection points: 6
#     Node 33, Type 1, BuildingBlock: NUHQIS_clean_sbu_0, # of connection points: 6
#     Node 34, Type 1, BuildingBlock: NUHQIS_clean_sbu_0, # of connection points: 6
#     Node 35, Type 1, BuildingBlock: NUHQIS_clean_sbu_0, # of connection points: 6
#     Node 36, Type 1, BuildingBlock: NUHQIS_clean_sbu_0, # of connection points: 6
#     Node 37, Type 1, BuildingBlock: NUHQIS_clean_sbu_0, # of connection points: 6
#     Node 38, Type 1, BuildingBlock: NUHQIS_clean_sbu_0, # of connection points: 6
#     Node 39, Type 1, BuildingBlock: NUHQIS_clean_sbu_0, # of connection points: 6
#     Edge 40, Type (0, 1), BuildingBlock: ZUJKAS_clean_linker_0, # of connection points: 2
#     Edge 41, Type (0, 1), BuildingBlock: ZUJKAS_clean_linker_0, # of connection points: 2
#     Edge 42, Type (0, 1), BuildingBlock: ZUJKAS_clean_linker_0, # of connection points: 2
#     Edge 43, Type (0, 1), BuildingBlock: ZUJKAS_clean_linker_0, # of connection points: 2
#     Edge 44, Type (0, 1), BuildingBlock: ZUJKAS_clean_linker_0, # of connection points: 2
#     Edge 45, Type (0, 1), BuildingBlock: ZUJKAS_clean_linker_0, # of connection points: 2
#     Edge 46, Type (0, 1), BuildingBlock: ZUJKAS_clean_linker_0, # of connection points: 2
#     Edge 47, Type (0, 1), BuildingBlock: ZUJKAS_clean_linker_0, # of connection points: 2
#     Edge 48, Type (0, 1), BuildingBlock: ZUJKAS_clean_linker_0, # of connection points: 2
#     Edge 49, Type (0, 1), BuildingBlock: ZUJKAS_clean_linker_0, # of connection points: 2
#     Edge 50, Type (0, 1), BuildingBlock: ZUJKAS_clean_linker_0, # of connection points: 2
#     Edge 51, Type (0, 1), BuildingBlock: ZUJKAS_clean_linker_0, # of connection points: 2
#     Edge 52, Type (0, 1), BuildingBlock: ZUJKAS_clean_linker_0, # of connection points: 2
#     Edge 53, Type (0, 1), BuildingBlock: ZUJKAS_clean_linker_0, # of connection points: 2
#     Edge 54, Type (0, 1), BuildingBlock: ZUJKAS_clean_linker_0, # of connection points: 2
#     Edge 55, Type (0, 1), BuildingBlock: ZUJKAS_clean_linker_0, # of connection points: 2
#     Edge 56, Type (0, 1), BuildingBlock: ZUJKAS_clean_linker_0, # of connection points: 2
#     Edge 57, Type (0, 1), BuildingBlock: ZUJKAS_clean_linker_0, # of connection points: 2
#     Edge 58, Type (0, 1), BuildingBlock: ZUJKAS_clean_linker_0, # of connection points: 2
#     Edge 59, Type (0, 1), BuildingBlock: ZUJKAS_clean_linker_0, # of connection points: 2
#     Edge 60, Type (0, 1), BuildingBlock: ZUJKAS_clean_linker_0, # of connection points: 2
#     Edge 61, Type (0, 1), BuildingBlock: ZUJKAS_clean_linker_0, # of connection points: 2
#     Edge 62, Type (0, 1), BuildingBlock: ZUJKAS_clean_linker_0, # of connection points: 2
#     Edge 63, Type (0, 1), BuildingBlock: ZUJKAS_clean_linker_0, # of connection points: 2
#     Edge 64, Type (0, 1), BuildingBlock: ZUJKAS_clean_linker_0, # of connection points: 2
#     Edge 65, Type (0, 1), BuildingBlock: ZUJKAS_clean_linker_0, # of connection points: 2
#     Edge 66, Type (0, 1), BuildingBlock: ZUJKAS_clean_linker_0, # of connection points: 2
#     Edge 67, Type (0, 1), BuildingBlock: ZUJKAS_clean_linker_0, # of connection points: 2
#     Edge 68, Type (0, 1), BuildingBlock: ZUJKAS_clean_linker_0, # of connection points: 2
#     Edge 69, Type (0, 1), BuildingBlock: ZUJKAS_clean_linker_0, # of connection points: 2
#     Edge 70, Type (0, 1), BuildingBlock: ZUJKAS_clean_linker_0, # of connection points: 2
#     Edge 71, Type (0, 1), BuildingBlock: ZUJKAS_clean_linker_0, # of connection points: 2
#     Edge 72, Type (0, 1), BuildingBlock: ZUJKAS_clean_linker_0, # of connection points: 2
#     Edge 73, Type (0, 1), BuildingBlock: ZUJKAS_clean_linker_0, # of connection points: 2
#     Edge 74, Type (0, 1), BuildingBlock: ZUJKAS_clean_linker_0, # of connection points: 2
#     Edge 75, Type (0, 1), BuildingBlock: ZUJKAS_clean_linker_0, # of connection points: 2
#     Edge 76, Type (0, 1), BuildingBlock: ZUJKAS_clean_linker_0, # of connection points: 2
#     Edge 77, Type (0, 1), BuildingBlock: ZUJKAS_clean_linker_0, # of connection points: 2
#     Edge 78, Type (0, 1), BuildingBlock: ZUJKAS_clean_linker_0, # of connection points: 2
#     Edge 79, Type (0, 1), BuildingBlock: ZUJKAS_clean_linker_0, # of connection points: 2
#     Edge 80, Type (0, 1), BuildingBlock: ZUJKAS_clean_linker_0, # of connection points: 2
#     Edge 81, Type (0, 1), BuildingBlock: ZUJKAS_clean_linker_0, # of connection points: 2
#     Edge 82, Type (0, 1), BuildingBlock: ZUJKAS_clean_linker_0, # of connection points: 2
#     Edge 83, Type (0, 1), BuildingBlock: ZUJKAS_clean_linker_0, # of connection points: 2
#     Edge 84, Type (0, 1), BuildingBlock: ZUJKAS_clean_linker_0, # of connection points: 2
#     Edge 85, Type (0, 1), BuildingBlock: ZUJKAS_clean_linker_0, # of connection points: 2
#     Edge 86, Type (0, 1), BuildingBlock: ZUJKAS_clean_linker_0, # of connection points: 2
#     Edge 87, Type (0, 1), BuildingBlock: ZUJKAS_clean_linker_0, # of connection points: 2
#     Edge 88, Type (0, 1), BuildingBlock: ZUJKAS_clean_linker_0, # of connection points: 2
#     Edge 89, Type (0, 1), BuildingBlock: ZUJKAS_clean_linker_0, # of connection points: 2
#     Edge 90, Type (0, 1), BuildingBlock: ZUJKAS_clean_linker_0, # of connection points: 2
#     Edge 91, Type (0, 1), BuildingBlock: ZUJKAS_clean_linker_0, # of connection points: 2
#     Edge 92, Type (0, 1), BuildingBlock: ZUJKAS_clean_linker_0, # of connection points: 2
#     Edge 93, Type (0, 1), BuildingBlock: ZUJKAS_clean_linker_0, # of connection points: 2
#     Edge 94, Type (0, 1), BuildingBlock: ZUJKAS_clean_linker_0, # of connection points: 2
#     Edge 95, Type (0, 1), BuildingBlock: ZUJKAS_clean_linker_0, # of connection points: 2
#     Edge 96, Type (0, 1), BuildingBlock: ZUJKAS_clean_linker_0, # of connection points: 2
#     Edge 97, Type (0, 1), BuildingBlock: ZUJKAS_clean_linker_0, # of connection points: 2
#     Edge 98, Type (0, 1), BuildingBlock: ZUJKAS_clean_linker_0, # of connection points: 2
#     Edge 99, Type (0, 1), BuildingBlock: ZUJKAS_clean_linker_0, # of connection points: 2
#     Edge 100, Type (0, 1), BuildingBlock: ZUJKAS_clean_linker_0, # of connection points: 2
#     Edge 101, Type (0, 1), BuildingBlock: ZUJKAS_clean_linker_0, # of connection points: 2
#     Edge 102, Type (0, 1), BuildingBlock: ZUJKAS_clean_linker_0, # of connection points: 2
#     Edge 103, Type (0, 1), BuildingBlock: ZUJKAS_clean_linker_0, # of connection points: 2
#     Edge 104, Type (0, 1), BuildingBlock: ZUJKAS_clean_linker_0, # of connection points: 2
#     Edge 105, Type (0, 1), BuildingBlock: ZUJKAS_clean_linker_0, # of connection points: 2
#     Edge 106, Type (0, 1), BuildingBlock: ZUJKAS_clean_linker_0, # of connection points: 2
#     Edge 107, Type (0, 1), BuildingBlock: ZUJKAS_clean_linker_0, # of connection points: 2
#     Edge 108, Type (0, 1), BuildingBlock: ZUJKAS_clean_linker_0, # of connection points: 2
#     Edge 109, Type (0, 1), BuildingBlock: ZUJKAS_clean_linker_0, # of connection points: 2
#     Edge 110, Type (0, 1), BuildingBlock: ZUJKAS_clean_linker_0, # of connection points: 2
#     Edge 111, Type (0, 1), BuildingBlock: ZUJKAS_clean_linker_0, # of connection points: 2
#     Edge 112, Type (0, 1), BuildingBlock: ZUJKAS_clean_linker_0, # of connection points: 2
#     Edge 113, Type (0, 1), BuildingBlock: ZUJKAS_clean_linker_0, # of connection points: 2
#     Edge 114, Type (0, 1), BuildingBlock: ZUJKAS_clean_linker_0, # of connection points: 2
#     Edge 115, Type (0, 1), BuildingBlock: ZUJKAS_clean_linker_0, # of connection points: 2
#     Edge 116, Type (0, 1), BuildingBlock: ZUJKAS_clean_linker_0, # of connection points: 2
#     Edge 117, Type (0, 1), BuildingBlock: ZUJKAS_clean_linker_0, # of connection points: 2
#     Edge 118, Type (0, 1), BuildingBlock: ZUJKAS_clean_linker_0, # of connection points: 2
#     Edge 119, Type (0, 1), BuildingBlock: ZUJKAS_clean_linker_0, # of connection points: 2
#     Edge 120, Type (0, 1), BuildingBlock: ZUJKAS_clean_linker_0, # of connection points: 2
#     Edge 121, Type (0, 1), BuildingBlock: ZUJKAS_clean_linker_0, # of connection points: 2
#     Edge 122, Type (0, 1), BuildingBlock: ZUJKAS_clean_linker_0, # of connection points: 2
#     Edge 123, Type (0, 1), BuildingBlock: ZUJKAS_clean_linker_0, # of connection points: 2
#     Edge 124, Type (0, 1), BuildingBlock: ZUJKAS_clean_linker_0, # of connection points: 2
#     Edge 125, Type (0, 1), BuildingBlock: ZUJKAS_clean_linker_0, # of connection points: 2
#     Edge 126, Type (0, 1), BuildingBlock: ZUJKAS_clean_linker_0, # of connection points: 2
#     Edge 127, Type (0, 1), BuildingBlock: ZUJKAS_clean_linker_0, # of connection points: 2
#     Edge 128, Type (0, 1), BuildingBlock: ZUJKAS_clean_linker_0, # of connection points: 2
#     Edge 129, Type (0, 1), BuildingBlock: ZUJKAS_clean_linker_0, # of connection points: 2
#     Edge 130, Type (0, 1), BuildingBlock: ZUJKAS_clean_linker_0, # of connection points: 2
#     Edge 131, Type (0, 1), BuildingBlock: ZUJKAS_clean_linker_0, # of connection points: 2
#     Edge 132, Type (0, 1), BuildingBlock: ZUJKAS_clean_linker_0, # of connection points: 2
#     Edge 133, Type (0, 1), BuildingBlock: ZUJKAS_clean_linker_0, # of connection points: 2
#     Edge 134, Type (0, 1), BuildingBlock: ZUJKAS_clean_linker_0, # of connection points: 2
#     Edge 135, Type (0, 1), BuildingBlock: ZUJKAS_clean_linker_0, # of connection points: 2
# Relax obj value: 0.190
# Max RMSD: 0.278
# Mean RMSD: 0.153
data_MOF--net-gar--node1-GALJAG_clean_sbu_0--node2-NUHQIS_clean_sbu_0--edge1-ZUJKAS_clean_linker_0
_symmetry_space_group_name_H-M    P1
_symmetry_Int_Tables_number       1
_symmetry_cell_setting            triclinic
loop_
_symmetry_equiv_pos_as_xyz
'x, y, z'
_cell_length_a     73.948593
_cell_length_b     76.437292
_cell_length_c     73.33527
_cell_angle_alpha  93.222453
_cell_angle_beta   95.766864
_cell_angle_gamma 99.484074
loop_
_atom_site_label
_atom_site_type_symbol
_atom_site_fract_x
_atom_site_fract_y
_atom_site_fract_z
_atom_type_partial_charge
In0 In 0.05877 0.27879 0.40439 0.0
O1 O 0.07532 0.27452 0.37809 0.0
O2 O 0.09165 0.28389 0.40264 0.0
C3 C 0.02335 0.27768 0.38395 0.0
C4 C 0.05755 0.24517 0.42206 0.0
C5 C 0.06007 0.31377 0.42317 0.0
O6 O 0.03852 0.28402 0.37829 0.0
O7 O 0.02595 0.27141 0.39938 0.0
O8 O 0.05277 0.2992 0.42893 0.0
O9 O 0.06746 0.31075 0.40876 0.0
C10 C 0.09171 0.27942 0.38571 0.0
O11 O 0.06223 0.26051 0.43053 0.0
O12 O 0.05378 0.24674 0.40506 0.0
In13 In 0.03927 0.78714 0.64359 0.0
O14 O 0.03917 0.80539 0.61711 0.0
O15 O 0.04168 0.81917 0.64264 0.0
C16 C 0.03889 0.75224 0.62488 0.0
C17 C 0.07492 0.78993 0.66414 0.0
C18 C 1.0062 0.78472 0.66267 0.0
O19 O 0.03341 0.76519 0.6171 0.0
O20 O 0.04416 0.75672 0.64167 0.0
O21 O 0.02224 0.79216 0.6694 0.0
O22 O 1.00658 0.77838 0.64639 0.0
C23 C 0.04086 0.8207 0.62548 0.0
O24 O 0.05976 0.78488 0.67048 0.0
O25 O 0.07226 0.79405 0.64772 0.0
In26 In 0.55937 0.77861 0.90408 0.0
O27 O 0.57585 0.77237 0.87813 0.0
O28 O 0.59199 0.78604 0.90099 0.0
C29 C 0.52353 0.77723 0.88486 0.0
C30 C 0.55736 0.74525 0.92256 0.0
C31 C 0.56031 0.81415 0.92118 0.0
O32 O 0.53814 0.77791 0.87701 0.0
O33 O 0.52685 0.77676 0.90208 0.0
O34 O 0.56019 0.80029 0.93003 0.0
O35 O 0.5606 0.81025 0.90423 0.0
C36 C 0.59209 0.77941 0.88479 0.0
O37 O 0.56719 0.76 0.92891 0.0
O38 O 0.54854 0.74729 0.90735 0.0
In39 In 0.53838 0.28649 0.14327 0.0
O40 O 0.53357 0.26517 0.1162 0.0
O41 O 0.54109 0.25539 0.1411 0.0
C42 C 0.54076 0.32076 0.12655 0.0
C43 C 0.50505 0.28417 0.16195 0.0
C44 C 0.57413 0.28951 0.16366 0.0
O45 O 0.53869 0.30568 0.11763 0.0
O46 O 0.54166 0.31868 0.14363 0.0
O47 O 0.559 0.28561 0.17041 0.0
O48 O 0.57143 0.29244 0.14687 0.0
C49 C 0.53734 0.25157 0.12401 0.0
O50 O 0.52135 0.28595 0.16986 0.0
O51 O 0.50529 0.28341 0.14466 0.0
In52 In 0.08543 0.83496 0.1418 0.0
O53 O 0.06589 0.81269 0.12502 0.0
O54 O 0.09481 0.81341 0.12452 0.0
C55 C 0.08264 0.86367 0.12291 0.0
C56 C 0.0601 0.82444 0.16441 0.0
C57 C 0.11791 0.84034 0.16292 0.0
O58 O 0.08287 0.84866 0.11508 0.0
O59 O 0.08434 0.86427 0.14018 0.0
O60 O 0.10425 0.84687 0.16729 0.0
O61 O 0.1155 0.83183 0.14738 0.0
C62 C 0.07859 0.80534 0.11943 0.0
O63 O 0.07486 0.81825 0.16429 0.0
O64 O 0.05822 0.8362 0.15329 0.0
In65 In 0.50788 0.72959 0.39879 0.0
O66 O 0.53096 0.72361 0.38224 0.0
O67 O 0.53609 0.7468 0.40071 0.0
C68 C 0.48154 0.72708 0.37016 0.0
C69 C 0.50656 0.70107 0.41874 0.0
C70 C 0.50548 0.75865 0.42015 0.0
O71 O 0.49794 0.73458 0.36968 0.0
O72 O 0.47848 0.71995 0.38491 0.0
O73 O 0.51368 0.74647 0.42585 0.0
O74 O 0.49815 0.75602 0.40372 0.0
C75 C 0.54216 0.73726 0.38901 0.0
O76 O 0.49696 0.71297 0.42132 0.0
O77 O 0.51574 0.7029 0.40517 0.0
In78 In 0.58007 0.33635 0.6474 0.0
O79 O 0.57269 0.31662 0.62222 0.0
O80 O 0.57915 0.30679 0.64827 0.0
C81 C 0.57857 0.36469 0.62761 0.0
C82 C 0.55132 0.33062 0.66698 0.0
C83 C 0.61369 0.34156 0.66656 0.0
O84 O 0.5867 0.35223 0.62277 0.0
O85 O 0.57144 0.36288 0.64241 0.0
O86 O 0.60063 0.34859 0.67173 0.0
O87 O 0.61007 0.33272 0.65122 0.0
C88 C 0.5744 0.3033 0.6313 0.0
O89 O 0.56763 0.33584 0.67432 0.0
O90 O 0.54941 0.32892 0.64964 0.0
In91 In 1.00865 0.22984 0.89622 0.0
O92 O 1.0016 0.21867 0.92292 0.0
O93 O 1.0103 0.20145 0.90301 0.0
C94 C 0.01902 0.26239 0.91369 0.0
C95 C 0.03859 0.23112 0.87808 0.0
C96 C 0.97523 0.22596 0.8769 0.0
O97 O 0.02235 0.24845 0.92071 0.0
O98 O 1.01033 0.25995 0.89784 0.0
O99 O 0.98847 0.21991 0.87071 0.0
O100 O 0.97867 0.23303 0.89309 0.0
C101 C 1.00595 0.20373 0.9191 0.0
O102 O 0.02411 0.23624 0.87147 0.0
O103 O 0.03766 0.22472 0.89348 0.0
In104 In 0.49125 0.09561 0.30478 0.0
O105 O 0.51506 0.08472 0.2946 0.0
O106 O 0.50574 0.10582 0.28059 0.0
C107 C 0.50813 0.10654 0.33857 0.0
C108 C 0.46409 0.11126 0.28954 0.0
C109 C 0.47582 0.06129 0.30625 0.0
O110 O 0.51674 0.10617 0.32463 0.0
O111 O 0.49081 0.10333 0.33505 0.0
O112 O 0.48359 0.06701 0.29273 0.0
O113 O 0.47595 0.07287 0.31924 0.0
C114 C 0.51639 0.09445 0.2813 0.0
O115 O 0.46349 0.09472 0.28909 0.0
O116 O 0.47857 0.1204 0.29814 0.0
In117 In 0.31574 0.15765 0.52242 0.0
O118 O 0.3263 0.16694 0.5541 0.0
O119 O 0.30641 0.18026 0.54198 0.0
C120 C 0.31645 0.17573 0.48866 0.0
C121 C 0.34736 0.1394 0.5227 0.0
C122 C 0.27983 0.13645 0.5221 0.0
O123 O 0.32097 0.18351 0.50464 0.0
O124 O 0.31196 0.15912 0.48965 0.0
O125 O 0.2933 0.13594 0.53402 0.0
O126 O 0.28453 0.1469 0.51002 0.0
C127 C 0.31616 0.17843 0.55674 0.0
O128 O 0.33065 0.13167 0.52079 0.0
O129 O 0.34823 0.15612 0.52425 0.0
In130 In 0.19069 0.04947 0.83682 0.0
O131 O 0.16546 0.04516 0.81591 0.0
O132 O 0.19174 0.04904 0.8059 0.0
C133 C 0.17188 0.04608 0.86606 0.0
C134 C 0.20541 0.01984 0.83451 0.0
C135 C 0.20937 0.08301 0.84136 0.0
O136 O 0.16464 0.04905 0.85051 0.0
O137 O 0.18882 0.04515 0.867 0.0
O138 O 0.21721 0.06969 0.84334 0.0
O139 O 0.19213 0.0794 0.83733 0.0
C140 C 0.17444 0.04594 0.80218 0.0
O141 O 0.2152 0.03509 0.83765 0.0
O142 O 0.18824 0.01957 0.83328 0.0
In143 In 0.3081 0.88536 0.03756 0.0
O144 O 0.29482 0.86494 0.05656 0.0
O145 O 0.32306 0.87586 0.06305 0.0
C146 C 0.30175 0.87121 1.00197 0.0
C147 C 0.28265 0.90545 0.04545 0.0
C148 C 0.34085 0.90676 0.03676 0.0
O149 O 0.3056 0.86206 0.01521 0.0
O150 O 0.30075 0.88706 0.00678 0.0
O151 O 0.32634 0.91248 0.03986 0.0
O152 O 0.33893 0.89007 0.03388 0.0
C153 C 0.30917 0.86604 0.06775 0.0
O154 O 0.29943 0.90925 0.05174 0.0
O155 O 0.27845 0.89123 0.03515 0.0
In156 In 0.28077 0.40776 0.03154 0.0
O157 O 0.27675 0.38244 0.05001 0.0
O158 O 0.28685 0.40691 0.06439 0.0
C159 C 0.27949 0.38927 0.99603 0.0
C160 C 0.24803 0.42459 0.02992 0.0
C161 C 0.31756 0.42691 0.03231 0.0
O162 O 0.278 0.38162 0.01085 0.0
O163 O 0.28076 0.40592 0.99889 0.0
O164 O 0.30419 0.43387 0.03714 0.0
O165 O 0.31259 0.41053 0.02765 0.0
C166 C 0.28215 0.39038 0.06574 0.0
O167 O 0.26434 0.43268 0.0294 0.0
O168 O 0.24801 0.40812 0.0311 0.0
In169 In 0.78711 0.1928 0.02279 0.0
O170 O 0.80373 0.1716 0.03238 0.0
O171 O 0.81499 0.18918 0.0135 0.0
C172 C 0.75522 0.16923 0.01851 0.0
C173 C 0.7918 0.20993 0.05698 0.0
C174 C 0.78332 0.21207 0.99288 0.0
O175 O 0.77041 0.16507 0.01504 0.0
O176 O 0.75606 0.18534 0.02406 0.0
O177 O 0.78813 0.21936 0.0089 0.0
O178 O 0.78018 0.19535 0.99212 0.0
C179 C 0.81682 0.1762 0.02295 0.0
O180 O 0.80335 0.2131 0.04554 0.0
O181 O 0.77777 0.19863 0.05099 0.0
In182 In 0.12679 0.49573 0.27553 0.0
O183 O 0.14946 0.48052 0.2698 0.0
O184 O 0.12766 0.46724 0.28337 0.0
C185 C 0.14725 0.52828 0.28253 0.0
C186 C 0.11153 0.49482 0.24069 0.0
C187 C 0.10657 0.50143 0.30277 0.0
O188 O 0.15388 0.51439 0.28561 0.0
O189 O 0.13065 0.52562 0.27563 0.0
O190 O 0.09957 0.49809 0.28625 0.0
O191 O 0.12336 0.49998 0.30567 0.0
C192 C 0.14275 0.46664 0.2769 0.0
O193 O 0.10287 0.4872 0.25285 0.0
O194 O 0.1279 0.50209 0.24603 0.0
In195 In 0.77926 0.9064 0.53227 0.0
O196 O 0.77267 0.8811 0.55044 0.0
O197 O 0.78654 0.90462 0.56468 0.0
C198 C 0.78004 0.88719 0.49749 0.0
C199 C 0.74669 0.92349 0.53203 0.0
C200 C 0.81542 0.92667 0.53267 0.0
O201 O 0.77697 0.8798 0.51221 0.0
O202 O 0.78215 0.90392 0.50013 0.0
O203 O 0.80072 0.93242 0.5276 0.0
O204 O 0.81197 0.91114 0.53797 0.0
C205 C 0.77988 0.88845 0.56602 0.0
O206 O 0.76227 0.92963 0.54085 0.0
O207 O 0.74734 0.90889 0.52328 0.0
In208 In 0.90064 0.01464 0.22184 0.0
O209 O 0.92667 0.01282 0.20881 0.0
O210 O 0.90592 0.02402 0.19361 0.0
C211 C 0.92207 0.01365 0.25352 0.0
C212 C 0.88746 0.04517 0.22372 0.0
C213 C 0.87624 0.98402 0.21794 0.0
O214 O 0.92447 1.00561 0.2387 0.0
O215 O 0.90848 0.02169 0.2525 0.0
O216 O 0.87741 0.99526 0.23141 0.0
O217 O 0.88705 0.98843 0.20615 0.0
C218 C 0.92185 0.01999 0.19448 0.0
O219 O 0.87757 0.03077 0.21688 0.0
O220 O 0.9039 0.04409 0.22929 0.0
In221 In 0.28928 0.6912 0.5237 0.0
O222 O 0.30509 0.66918 0.53267 0.0
O223 O 0.3189 0.6896 0.51819 0.0
C224 C 0.25647 0.66893 0.51753 0.0
C225 C 0.29353 0.70805 0.55796 0.0
C226 C 0.28666 0.70962 0.49313 0.0
O227 O 0.27139 0.66445 0.51365 0.0
O228 O 0.25803 0.6847 0.52441 0.0
O229 O 0.28574 0.71662 0.50897 0.0
O230 O 0.2888 0.6936 0.49288 0.0
C231 C 0.3196 0.67538 0.52591 0.0
O232 O 0.30257 0.71409 0.54528 0.0
O233 O 0.28226 0.69391 0.55321 0.0
In234 In 0.39831 0.51883 0.71826 0.0
O235 O 0.37325 0.53291 0.71469 0.0
O236 O 0.39928 0.54787 0.72571 0.0
C237 C 0.37884 0.48585 0.7115 0.0
C238 C 0.41883 0.52849 0.69139 0.0
C239 C 0.41682 0.51502 0.75091 0.0
O240 O 0.3725 0.49825 0.71941 0.0
O241 O 0.39469 0.4903 0.70655 0.0
O242 O 0.42254 0.51125 0.73582 0.0
O243 O 0.40145 0.52018 0.74956 0.0
C244 C 0.38241 0.54778 0.72116 0.0
O245 O 0.42427 0.53217 0.70819 0.0
O246 O 0.40269 0.51971 0.68782 0.0
In247 In 0.62996 0.9947 0.77183 0.0
O248 O 0.65324 0.98005 0.76676 0.0
O249 O 0.63002 0.96567 0.77755 0.0
C250 C 0.64751 0.02812 0.77042 0.0
C251 C 0.60733 0.99075 0.74041 0.0
C252 C 0.62046 1.00131 0.80544 0.0
O253 O 0.6561 0.0153 0.77273 0.0
O254 O 0.63019 0.02392 0.76818 0.0
O255 O 0.60873 0.9945 0.79216 0.0
O256 O 0.63701 1.00328 0.80203 0.0
C257 C 0.64577 0.9656 0.77232 0.0
O258 O 0.60136 0.99063 0.75594 0.0
O259 O 0.62458 0.99202 0.74081 0.0
In260 In 0.81768 0.65753 0.0228 0.0
O261 O 0.83301 0.63196 0.0225 0.0
O262 O 0.85028 0.6566 0.02465 0.0
C263 C 0.78124 0.63799 0.02265 0.0
C264 C 0.81931 0.67622 0.05837 0.0
C265 C 0.8171 0.67477 0.98847 0.0
O266 O 0.79472 0.63108 0.01806 0.0
O267 O 0.78603 0.65441 0.02711 0.0
O268 O 0.82495 0.68218 1.00378 0.0
O269 O 0.80971 0.65893 0.99034 0.0
C270 C 0.84961 0.63989 0.02378 0.0
O271 O 0.81467 0.68238 0.04323 0.0
O272 O 0.82388 0.66111 0.05569 0.0
In273 In 0.9883 0.59718 0.805 0.0
O274 O 0.96698 0.61255 0.81446 0.0
O275 O 0.98608 0.62539 0.79756 0.0
C276 C 0.97034 0.56465 0.81038 0.0
C277 C 0.98729 0.5914 0.76865 0.0
C278 C 0.01798 0.59863 0.82985 0.0
O279 O 0.96466 0.57866 0.8154 0.0
O280 O 0.98523 0.56715 0.80322 0.0
O281 O 0.01839 0.59511 0.81293 0.0
O282 O 1.0032 0.60326 0.8339 0.0
C283 C 0.97174 0.62583 0.80549 0.0
O284 O 1.00185 0.59897 0.77847 0.0
O285 O 0.97334 0.58761 0.77715 0.0
In286 In 0.81139 0.38377 0.53731 0.0
O287 O 0.79532 0.36848 0.55844 0.0
O288 O 0.8235 0.36664 0.55866 0.0
C289 C 0.80721 0.36484 0.50383 0.0
C290 C 0.78857 0.40748 0.54261 0.0
C291 C 0.84316 0.40729 0.53901 0.0
O292 O 0.79388 0.36633 0.5129 0.0
O293 O 0.82265 0.372 0.51203 0.0
O294 O 0.82926 0.40816 0.52778 0.0
O295 O 0.84105 0.39451 0.54919 0.0
C296 C 0.80897 0.36289 0.56628 0.0
O297 O 0.8031 0.40725 0.55308 0.0
O298 O 0.78552 0.3958 0.5293 0.0
In299 In 0.69012 0.55288 0.33032 0.0
O300 O 0.71598 0.54657 0.31888 0.0
O301 O 0.70177 0.52767 0.33493 0.0
C302 C 0.70025 0.58838 0.33574 0.0
C303 C 0.66808 0.54605 0.29847 0.0
C304 C 0.67398 0.54222 0.35973 0.0
O305 O 0.7111 0.57778 0.33996 0.0
O306 O 0.6843 0.58107 0.32898 0.0
O307 O 0.66709 0.53711 0.34351 0.0
O308 O 0.68929 0.55266 0.36119 0.0
C309 C 0.71493 0.53157 0.32541 0.0
O310 O 0.66199 0.54803 0.31376 0.0
O311 O 0.68539 0.54787 0.29916 0.0
Tb312 Tb 0.05318 0.06229 0.04675 0.0
Eu313 Eu 0.09651 0.07019 0.06692 0.0
C314 C 0.08407 0.04918 0.02647 0.0
C315 C 0.07089 0.03219 0.06537 0.0
C316 C 1.00485 0.06979 0.03324 0.0
C317 C 0.9825 0.08339 0.01479 0.0
C318 C 0.99717 0.07393 0.01606 0.0
C319 C 0.99766 0.07542 0.04919 0.0
C320 C 0.98294 0.08481 0.04791 0.0
C321 C 0.9751 0.08877 0.03069 0.0
C322 C 0.0196 0.05885 0.03416 0.0
O323 O 0.05628 0.08267 0.06907 0.0
O324 O 0.07715 0.07213 0.08831 0.0
O325 O 0.08973 0.09629 0.05803 0.0
O326 O 0.06879 0.08366 0.03373 0.0
C327 C 0.0626 0.07977 0.08572 0.0
O328 O 0.11652 0.06661 0.08982 0.0
O329 O 0.12552 0.08203 0.06745 0.0
O330 O 0.09681 0.05986 0.0376 0.0
O331 O 0.06657 0.0461 0.02914 0.0
O332 O 0.0563 0.03989 0.06308 0.0
O333 O 0.08757 0.04074 0.06431 0.0
C334 C 0.08035 0.09729 0.04207 0.0
O335 O 0.03322 0.06339 0.02444 0.0
O336 O 0.02536 0.05432 0.05033 0.0
C337 C 0.1441 0.06179 0.07878 0.0
C338 C 0.16663 0.03574 0.07428 0.0
C339 C 0.16739 0.0454 0.09136 0.0
C340 C 0.15617 0.05828 0.09359 0.0
C341 C 0.14364 0.05247 0.06163 0.0
C342 C 0.15482 0.03965 0.05939 0.0
C343 C 0.13055 0.07356 0.08159 0.0
H344 H 0.97663 0.08607 1.00131 0.0
H345 H 1.00234 0.0696 1.00356 0.0
H346 H 1.00322 0.07241 0.06266 0.0
H347 H 0.9777 0.08896 0.06042 0.0
H348 H 0.1762 0.04259 0.10316 0.0
H349 H 0.15653 0.06513 0.10699 0.0
H350 H 0.13431 0.05481 0.05003 0.0
H351 H 0.1541 0.03271 0.04597 0.0
Tb352 Tb 0.30252 0.82105 0.29622 0.0
Eu353 Eu 0.29096 0.78092 0.27617 0.0
C354 C 0.26071 0.80317 0.28605 0.0
C355 C 0.29274 0.78845 0.31983 0.0
C356 C 0.32604 0.86735 0.31003 0.0
C357 C 0.33861 0.89852 0.31729 0.0
C358 C 0.32481 0.88393 0.31842 0.0
C359 C 0.34111 0.8654 0.30039 0.0
C360 C 0.35496 0.87999 0.29928 0.0
C361 C 0.35386 0.89669 0.30776 0.0
C362 C 0.3113 0.8523 0.31109 0.0
O363 O 0.32701 0.80868 0.29949 0.0
O364 O 0.32071 0.7903 0.27329 0.0
O365 O 0.28787 0.80014 0.2545 0.0
O366 O 0.30969 0.82317 0.268 0.0
C367 C 0.33231 0.79816 0.28708 0.0
O368 O 0.29822 0.75484 0.2707 0.0
O369 O 0.27281 0.76105 0.25725 0.0
O370 O 0.26498 0.78722 0.28613 0.0
O371 O 0.27338 0.81745 0.28651 0.0
O372 O 0.29072 0.80493 0.31717 0.0
O373 O 0.29636 0.77781 0.30649 0.0
C374 C 0.29927 0.815 0.25335 0.0
O375 O 0.29993 0.84795 0.2962 0.0
O376 O 0.31629 0.83841 0.3183 0.0
C377 C 0.27226 0.73169 0.26594 0.0
C378 C 0.25182 0.70009 0.27618 0.0
C379 C 0.26972 0.70642 0.28477 0.0
C380 C 0.27986 0.7221 0.27972 0.0
C381 C 0.25449 0.72518 0.25715 0.0
C382 C 0.24432 0.70956 0.26228 0.0
C383 C 0.28251 0.74862 0.2609 0.0
H384 H 0.33723 0.91127 0.3237 0.0
H385 H 0.31313 0.88561 0.32576 0.0
H386 H 0.34215 0.85262 0.29377 0.0
H387 H 0.36661 0.87815 0.29199 0.0
H388 H 0.27578 0.69937 0.29556 0.0
H389 H 0.29356 0.72673 0.28673 0.0
H390 H 0.24839 0.73223 0.24638 0.0
H391 H 0.23067 0.70478 0.25522 0.0
Tb392 Tb 0.53281 1.01122 0.53141 0.0
Eu393 Eu 0.55928 0.04825 0.52958 0.0
C394 C 0.54683 0.03479 0.56683 0.0
C395 C 0.51434 0.04736 0.5293 0.0
C396 C 0.51573 0.96333 0.52822 0.0
C397 C 0.50369 0.93181 0.52389 0.0
C398 C 0.50191 0.94893 0.53022 0.0
C399 C 0.53153 0.96051 0.52018 0.0
C400 C 0.53334 0.94341 0.51388 0.0
C401 C 0.51934 0.92892 0.51548 0.0
C402 C 0.51349 0.98134 0.53404 0.0
O403 O 0.53984 1.01029 0.50343 0.0
O404 O 0.54478 0.04031 0.50147 0.0
O405 O 0.57809 0.02783 0.52371 0.0
O406 O 0.56156 1.00459 0.53639 0.0
C407 C 0.54125 0.02415 0.49375 0.0
O408 O 0.57046 0.07072 0.5146 0.0
O409 O 0.58097 0.06911 0.54293 0.0
O410 O 0.5613 0.04109 0.5589 0.0
O411 O 0.532 0.0265 0.55688 0.0
O412 O 0.51251 0.02979 0.52576 0.0
O413 O 0.53115 0.05685 0.53355 0.0
C414 C 0.57714 0.01188 0.53005 0.0
O415 O 0.52589 0.98946 0.54701 0.0
O416 O 0.51056 0.99147 0.52071 0.0
C417 C 0.57829 0.09735 0.53378 0.0
C418 C 0.57238 0.13054 0.54786 0.0
C419 C 0.55876 0.11986 0.53546 0.0
C420 C 0.56163 0.10327 0.52858 0.0
C421 C 0.59219 0.10839 0.54548 0.0
C422 C 0.58923 0.12484 0.55255 0.0
C423 C 0.58054 0.07902 0.52909 0.0
H424 H 0.49257 0.92093 0.52508 0.0
H425 H 0.48964 0.95098 0.53639 0.0
H426 H 0.54234 0.97157 0.51859 0.0
H427 H 0.54564 0.94156 0.50765 0.0
H428 H 0.54565 0.12402 0.53176 0.0
H429 H 0.55058 0.09484 0.51975 0.0
H430 H 0.60505 0.10396 0.54972 0.0
H431 H 0.59997 0.13299 0.56197 0.0
Tb432 Tb 0.28057 0.28533 0.77097 0.0
Eu433 Eu 0.32166 0.28099 0.78542 0.0
C434 C 0.31433 0.31298 0.76201 0.0
C435 C 0.30384 0.26673 0.7428 0.0
C436 C 0.23158 0.28607 0.77189 0.0
C437 C 0.20402 0.29548 0.78138 0.0
C438 C 0.21859 0.29747 0.77052 0.0
C439 C 0.22991 0.27265 0.78419 0.0
C440 C 0.21531 0.27055 0.79491 0.0
C441 C 0.20227 0.28202 0.79373 0.0
C442 C 0.24782 0.2893 0.76189 0.0
O443 O 0.27826 0.25829 0.77928 0.0
O444 O 0.30307 0.26283 0.80096 0.0
O445 O 0.31359 0.30052 0.80713 0.0
O446 O 0.28242 0.29179 0.80135 0.0
C447 C 0.28743 0.25337 0.79375 0.0
O448 O 0.34088 0.26308 0.79248 0.0
O449 O 0.3498 0.29164 0.79715 0.0
O450 O 0.32538 0.30149 0.76487 0.0
O451 O 0.29772 0.31041 0.76716 0.0
O452 O 0.29097 0.27667 0.74495 0.0
O453 O 0.31544 0.26462 0.75722 0.0
C454 C 0.29694 0.30024 0.81238 0.0
O455 O 0.26072 0.30205 0.76938 0.0
O456 O 0.25451 0.27531 0.75675 0.0
C457 C 0.37103 0.27458 0.78748 0.0
C458 C 0.4025 0.27293 0.76951 0.0
C459 C 0.4022 0.26859 0.78788 0.0
C460 C 0.38652 0.26943 0.79683 0.0
C461 C 0.37104 0.2784 0.76904 0.0
C462 C 0.38667 0.27765 0.76013 0.0
C463 C 0.35479 0.27601 0.79684 0.0
H464 H 0.19432 0.30466 0.78033 0.0
H465 H 0.21992 0.30812 0.76134 0.0
H466 H 0.24001 0.26388 0.78569 0.0
H467 H 0.21418 0.25986 0.80403 0.0
H468 H 0.41414 0.26477 0.79538 0.0
H469 H 0.38657 0.26628 0.81105 0.0
H470 H 0.35907 0.2823 0.76164 0.0
H471 H 0.38655 0.2814 0.74611 0.0
Tb472 Tb 0.0468 0.02357 0.50503 0.0
Eu473 Eu 0.04639 0.04271 0.54394 0.0
C474 C 0.08509 0.04559 0.52598 0.0
C475 C 0.04979 0.99957 0.5408 0.0
C476 C 0.04925 0.01453 0.45494 0.0
C477 C 0.05222 1.00579 0.42326 0.0
C478 C 0.05429 1.0027 0.44189 0.0
C479 C 0.04394 0.0304 0.44942 0.0
C480 C 0.04157 0.03336 0.43081 0.0
C481 C 0.04469 0.02058 0.41744 0.0
C482 C 0.04651 1.00884 0.47338 0.0
O483 O 0.01859 0.01325 0.5121 0.0
O484 O 1.01561 0.03442 0.53406 0.0
O485 O 0.04591 0.06616 0.52528 0.0
O486 O 0.04284 0.05102 0.49705 0.0
C487 C 1.00818 0.02033 0.52304 0.0
O488 O 0.03402 0.04419 0.56964 0.0
O489 O 0.05689 0.06432 0.56493 0.0
O490 O 0.07736 0.04436 0.54142 0.0
O491 O 0.07488 0.03999 0.51026 0.0
O492 O 0.05137 1.00127 0.52301 0.0
O493 O 0.04787 0.01374 0.55122 0.0
C494 C 0.04444 0.06638 0.50715 0.0
O495 O 0.06088 1.01119 0.48568 0.0
O496 O 0.03204 0.01323 0.48 0.0
C497 C 0.05607 0.05424 0.59453 0.0
C498 C 0.07319 0.04551 0.62789 0.0
C499 C 0.05605 0.05131 0.62721 0.0
C500 C 0.04756 0.05567 0.61062 0.0
C501 C 0.07308 0.04833 0.5951 0.0
C502 C 0.08163 0.04411 0.61167 0.0
C503 C 0.0465 0.0574 0.57692 0.0
H504 H 0.0553 0.99595 0.41336 0.0
H505 H 0.05861 0.99048 0.44595 0.0
H506 H 0.04015 0.03981 0.45933 0.0
H507 H 0.03573 0.04488 0.42695 0.0
H508 H 0.04912 0.05231 0.63946 0.0
H509 H 0.03425 0.05989 0.61028 0.0
H510 H 0.07972 0.04686 0.58272 0.0
H511 H 0.09496 0.03998 0.61178 0.0
Tb512 Tb 0.29127 0.77005 0.78552 0.0
Eu513 Eu 0.3065 0.8084 0.77244 0.0
C514 C 0.29222 0.80465 0.81204 0.0
C515 C 0.26234 0.79073 0.76401 0.0
C516 C 0.28995 0.7236 0.79411 0.0
C517 C 0.29214 0.69339 0.80107 0.0
C518 C 0.28343 0.70823 0.80261 0.0
C519 C 0.30539 0.72423 0.7844 0.0
C520 C 0.31407 0.70951 0.78287 0.0
C521 C 0.30747 0.69389 0.79108 0.0
C522 C 0.28104 0.73922 0.79545 0.0
O523 O 0.29432 0.76568 0.75645 0.0
O524 O 0.31718 0.78894 0.75397 0.0
O525 O 0.33121 0.80176 0.79052 0.0
O526 O 0.32197 0.77161 0.78981 0.0
C527 C 0.30726 0.77372 0.74738 0.0
O528 O 0.31029 0.82506 0.74951 0.0
O529 O 0.32052 0.83593 0.7772 0.0
O530 O 0.2934 0.81471 0.79812 0.0
O531 O 0.29328 0.78773 0.81007 0.0
O532 O 0.2652 0.78016 0.77735 0.0
O533 O 0.27661 0.80106 0.75851 0.0
C534 C 0.33496 0.78589 0.79403 0.0
O535 O 0.29025 0.75232 0.8064 0.0
O536 O 0.27515 0.74466 0.77981 0.0
C537 C 0.307 0.85418 0.75754 0.0
C538 C 0.2885 0.88339 0.75686 0.0
C539 C 0.30673 0.88512 0.75229 0.0
C540 C 0.31595 0.87056 0.75269 0.0
C541 C 0.28855 0.85216 0.76113 0.0
C542 C 0.27938 0.86663 0.7608 0.0
C543 C 0.31694 0.83939 0.76013 0.0
H544 H 0.28685 0.68153 0.8076 0.0
H545 H 0.2716 0.70767 0.81029 0.0
H546 H 0.31057 0.73607 0.77777 0.0
H547 H 0.32561 0.71019 0.77478 0.0
H548 H 0.31404 0.89784 0.74905 0.0
H549 H 0.3302 0.87223 0.74981 0.0
H550 H 0.28149 0.83955 0.76494 0.0
H551 H 0.2655 0.86487 0.76473 0.0
Tb552 Tb 0.55389 0.0289 0.03412 0.0
Eu553 Eu 0.53952 0.04117 0.99483 0.0
C554 C 0.55025 1.00078 0.99735 0.0
C555 C 0.58273 0.04954 0.01017 0.0
C556 C 0.55263 0.01453 0.08081 0.0
C557 C 0.55285 1.00892 0.11291 0.0
C558 C 0.56172 1.0099 0.097 0.0
C559 C 0.53437 0.01741 0.08038 0.0
C560 C 0.52542 0.01626 0.09617 0.0
C561 C 0.53475 0.0125 0.11273 0.0
C562 C 0.56204 0.01628 0.06431 0.0
O563 O 0.55149 0.0571 0.04253 0.0
O564 O 0.53858 0.0654 0.0153 0.0
O565 O 0.51674 0.02129 1.00312 0.0
O566 O 0.52419 0.02763 0.03371 0.0
C567 C 0.54461 0.06926 0.03299 0.0
O568 O 0.51971 0.05517 0.98003 0.0
O569 O 0.53864 0.04242 0.96531 0.0
O570 O 0.54638 0.01338 0.98659 0.0
O571 O 0.55277 1.00435 0.01544 0.0
O572 O 0.57964 0.03857 0.02312 0.0
O573 O 0.56941 0.05342 0.99876 0.0
C574 C 0.51227 0.02053 0.01982 0.0
O575 O 0.55312 1.00691 0.04987 0.0
O576 O 0.56846 0.03245 0.06061 0.0
C577 C 0.53212 0.06942 0.9552 0.0
C578 C 0.54526 0.09324 0.92979 0.0
C579 C 0.52614 0.08728 0.92974 0.0
C580 C 0.51967 0.07506 0.9421 0.0
C581 C 0.55056 0.07793 0.95755 0.0
C582 C 0.55712 0.08969 0.94495 0.0
C583 C 0.52666 0.05323 0.96454 0.0
H584 H 0.56052 1.0063 0.12554 0.0
H585 H 0.5758 1.00752 0.09745 0.0
H586 H 0.52717 0.0209 0.06791 0.0
H587 H 0.51144 0.01893 0.09558 0.0
H588 H 0.51633 0.09054 0.91903 0.0
H589 H 0.50521 0.06905 0.94052 0.0
H590 H 0.5603 0.07415 0.96803 0.0
H591 H 0.57187 0.09412 0.94609 0.0
Tb592 Tb 0.30787 0.29834 0.28613 0.0
Eu593 Eu 0.28947 0.26179 0.26427 0.0
C594 C 0.30722 0.26239 0.30809 0.0
C595 C 0.33385 0.27771 0.26165 0.0
C596 C 0.3113 0.34426 0.30346 0.0
C597 C 0.294 0.36258 0.32058 0.0
C598 C 0.30671 0.35095 0.32027 0.0
C599 C 0.3043 0.35062 0.28705 0.0
C600 C 0.29168 0.36226 0.28736 0.0
C601 C 0.2858 0.36773 0.30406 0.0
C602 C 0.32014 0.32838 0.3029 0.0
O603 O 0.29709 0.30788 0.25934 0.0
O604 O 0.28649 0.28162 0.24217 0.0
O605 O 0.2641 0.27089 0.27531 0.0
O606 O 0.27896 0.29486 0.29417 0.0
C607 C 0.29071 0.29914 0.24319 0.0
O608 O 0.28474 0.24416 0.23914 0.0
O609 O 0.27203 0.23563 0.26301 0.0
O610 O 0.29755 0.25332 0.29339 0.0
O611 O 0.31439 0.27936 0.30703 0.0
O612 O 0.33186 0.29168 0.27237 0.0
O613 O 0.32006 0.26405 0.25848 0.0
C614 C 0.26367 0.28331 0.28849 0.0
O615 O 0.31165 0.31495 0.31053 0.0
O616 O 0.32497 0.32335 0.28714 0.0
C617 C 0.28513 0.21485 0.246 0.0
C618 C 0.30982 0.19099 0.24277 0.0
C619 C 0.29845 0.19417 0.22724 0.0
C620 C 0.28617 0.20614 0.22885 0.0
C621 C 0.29544 0.21046 0.2617 0.0
C622 C 0.30764 0.1986 0.26008 0.0
C623 C 0.27643 0.23075 0.24698 0.0
H624 H 0.28991 0.36684 0.33366 0.0
H625 H 0.31194 0.34621 0.33308 0.0
H626 H 0.3075 0.34568 0.27384 0.0
H627 H 0.28553 0.36587 0.27438 0.0
H628 H 0.29997 0.1884 0.21377 0.0
H629 H 0.27845 0.20951 0.21658 0.0
H630 H 0.29504 0.21706 0.27508 0.0
H631 H 0.31617 0.19613 0.27225 0.0
Tb632 Tb 0.5505 0.52397 0.00735 0.0
Eu633 Eu 0.54851 0.54384 0.0456 0.0
C634 C 0.58733 0.54673 0.02775 0.0
C635 C 0.55205 0.50026 0.04297 0.0
C636 C 0.54511 0.51301 0.9572 0.0
C637 C 0.54301 0.50676 0.92427 0.0
C638 C 0.55082 0.50453 0.94193 0.0
C639 C 0.53191 0.52413 0.95473 0.0
C640 C 0.52406 0.52634 0.93711 0.0
C641 C 0.52935 0.51749 0.9217 0.0
C642 C 0.5528 0.5101 0.97569 0.0
O643 O 0.52013 0.5181 0.00971 0.0
O644 O 0.51875 0.52964 0.03894 0.0
O645 O 0.54355 0.56605 0.02644 0.0
O646 O 0.54849 0.55196 0.99948 0.0
C647 C 0.51063 0.52023 0.02388 0.0
O648 O 0.53495 0.55598 0.06703 0.0
O649 O 0.56426 0.55531 0.07122 0.0
O650 O 0.57664 0.55533 0.03678 0.0
O651 O 0.57995 0.53125 0.01898 0.0
O652 O 0.55223 0.50114 0.02497 0.0
O653 O 0.5518 0.51509 0.05326 0.0
C654 C 0.54583 0.56668 0.00878 0.0
O655 O 0.56466 0.52328 0.98395 0.0
O656 O 0.54087 0.50367 0.98648 0.0
C657 C 0.54824 0.55132 0.09661 0.0
C658 C 0.55526 0.53766 0.1307 0.0
C659 C 0.55018 0.52607 0.11486 0.0
C660 C 0.54644 0.53287 0.09791 0.0
C661 C 0.55204 0.56279 0.11258 0.0
C662 C 0.55539 0.55596 0.12962 0.0
C663 C 0.54981 0.55859 0.07873 0.0
H664 H 0.54753 0.49997 0.91264 0.0
H665 H 0.56114 0.49603 0.94369 0.0
H666 H 0.52744 0.53083 0.96647 0.0
H667 H 0.51341 0.53449 0.93561 0.0
H668 H 0.55011 0.51193 0.11548 0.0
H669 H 0.54348 0.52385 0.08567 0.0
H670 H 0.55366 0.57706 0.11176 0.0
H671 H 0.55953 0.5651 0.14172 0.0
Tb672 Tb 0.79036 0.26978 0.28478 0.0
Eu673 Eu 0.80613 0.30835 0.27181 0.0
C674 C 0.79091 0.30402 0.31186 0.0
C675 C 0.7616 0.2907 0.26351 0.0
C676 C 0.78949 0.22292 0.28765 0.0
C677 C 0.79338 0.19228 0.29016 0.0
C678 C 0.78481 0.20657 0.29516 0.0
C679 C 0.80292 0.225 0.27536 0.0
C680 C 0.81134 0.2108 0.2703 0.0
C681 C 0.80658 0.19428 0.27755 0.0
C682 C 0.78093 0.23815 0.29264 0.0
O683 O 0.79345 0.26613 0.25565 0.0
O684 O 0.81696 0.28881 0.25357 0.0
O685 O 0.83175 0.30156 0.28798 0.0
O686 O 0.82106 0.27208 0.29118 0.0
C687 C 0.80681 0.27377 0.24685 0.0
O688 O 0.80941 0.32498 0.24879 0.0
O689 O 0.81993 0.33597 0.27638 0.0
O690 O 0.7961 0.31474 0.29922 0.0
O691 O 0.78821 0.28665 0.3089 0.0
O692 O 0.76426 0.27967 0.27645 0.0
O693 O 0.77595 0.3013 0.25845 0.0
C694 C 0.8347 0.286 0.29338 0.0
O695 O 0.79146 0.25032 0.30381 0.0
O696 O 0.77301 0.24505 0.27882 0.0
C697 C 0.80688 0.35454 0.25667 0.0
C698 C 0.7892 0.38429 0.25719 0.0
C699 C 0.80842 0.38642 0.25686 0.0
C700 C 0.81721 0.3716 0.25664 0.0
C701 C 0.78761 0.35229 0.25602 0.0
C702 C 0.77882 0.36706 0.25619 0.0
C703 C 0.81627 0.33933 0.25931 0.0
H704 H 0.78947 0.17962 0.29587 0.0
H705 H 0.77457 0.20485 0.30477 0.0
H706 H 0.80688 0.23766 0.26966 0.0
H707 H 0.82168 0.21276 0.26079 0.0
H708 H 0.81678 0.39955 0.25784 0.0
H709 H 0.83211 0.3735 0.25725 0.0
H710 H 0.77943 0.33916 0.25611 0.0
H711 H 0.76398 0.36504 0.25622 0.0
Tb712 Tb 0.05752 0.52926 0.53764 0.0
Eu713 Eu 0.03939 0.54031 0.49899 0.0
C714 C 0.05144 0.50026 0.50132 0.0
C715 C 0.08341 0.55012 0.51146 0.0
C716 C 0.0588 0.51763 0.58468 0.0
C717 C 0.05201 0.50379 0.61272 0.0
C718 C 0.06275 0.50603 0.59809 0.0
C719 C 0.04411 0.52693 0.58594 0.0
C720 C 0.03332 0.52457 0.60033 0.0
C721 C 0.03706 0.51289 0.61377 0.0
C722 C 0.06804 0.51831 0.56802 0.0
O723 O 0.05494 0.55761 0.54543 0.0
O724 O 0.03864 0.56456 0.5193 0.0
O725 O 0.01732 0.52128 0.50952 0.0
O726 O 0.02801 0.52649 0.53981 0.0
C727 C 0.04638 0.5691 0.5364 0.0
O728 O 0.01795 0.55265 0.48468 0.0
O729 O 0.03753 0.54144 0.46938 0.0
O730 O 0.04454 0.51185 0.49104 0.0
O731 O 0.05723 0.50486 0.51895 0.0
O732 O 0.08181 0.53913 0.52455 0.0
O733 O 0.06909 0.55348 0.50104 0.0
C734 C 1.01475 0.52017 0.52676 0.0
O735 O 0.05875 0.50807 0.55433 0.0
O736 O 0.07408 0.53415 0.56307 0.0
C737 C 0.02772 0.56686 0.45879 0.0
C738 C 0.04128 0.59151 0.43443 0.0
C739 C 0.02477 0.57935 0.42933 0.0
C740 C 0.01812 0.56704 0.44142 0.0
C741 C 0.04266 0.58045 0.46488 0.0
C742 C 0.04933 0.59283 0.45279 0.0
C743 C 0.02431 0.55088 0.46884 0.0
H744 H 0.05521 0.49485 0.62305 0.0
H745 H 0.07386 0.49852 0.59706 0.0
H746 H 0.04077 0.53581 0.57559 0.0
H747 H 0.02219 0.5321 0.60107 0.0
H748 H 0.01819 0.5778 0.41533 0.0
H749 H 1.00652 0.55666 0.43658 0.0
H750 H 0.05013 0.58052 0.47839 0.0
H751 H 0.06189 0.60218 0.45721 0.0
Tb752 Tb 0.78201 0.78068 0.27296 0.0
Eu753 Eu 0.82712 0.77702 0.28813 0.0
C754 C 0.81403 0.8092 0.26342 0.0
C755 C 0.80675 0.76259 0.2451 0.0
C756 C 0.73291 0.77459 0.27903 0.0
C757 C 0.70076 0.77361 0.28348 0.0
C758 C 0.71445 0.7731 0.27174 0.0
C759 C 0.73759 0.77648 0.29816 0.0
C760 C 0.72391 0.77674 0.30989 0.0
C761 C 0.70542 0.77542 0.30262 0.0
C762 C 0.74737 0.77498 0.26673 0.0
O763 O 0.79206 0.76167 0.28842 0.0
O764 O 0.81579 0.75215 0.3012 0.0
O765 O 0.81522 0.79043 0.31251 0.0
O766 O 0.78566 0.79417 0.30122 0.0
C767 C 0.79813 0.74991 0.29795 0.0
O768 O 0.85104 0.76397 0.2925 0.0
O769 O 0.85401 0.79241 0.2988 0.0
O770 O 0.82665 0.80008 0.26994 0.0
O771 O 0.7963 0.80468 0.26439 0.0
O772 O 0.79203 0.77008 0.24761 0.0
O773 O 0.82016 0.76262 0.25875 0.0
C774 C 0.79944 0.79619 0.31477 0.0
O775 O 0.75758 0.79054 0.26612 0.0
O776 O 0.75724 0.76234 0.26815 0.0
C777 C 0.87884 0.78128 0.28756 0.0
C778 C 0.90977 0.78332 0.26808 0.0
C779 C 0.9112 0.77981 0.28673 0.0
C780 C 0.89579 0.77879 0.29641 0.0
C781 C 0.87737 0.78498 0.26903 0.0
C782 C 0.89274 0.78601 0.25935 0.0
C783 C 0.86245 0.77878 0.29729 0.0
H784 H 0.68652 0.77238 0.27763 0.0
H785 H 0.71065 0.77169 0.25701 0.0
H786 H 0.75181 0.77789 0.30402 0.0
H787 H 0.72779 0.77823 0.32462 0.0
H788 H 0.92422 0.77791 0.29384 0.0
H789 H 0.89704 0.77583 0.31071 0.0
H790 H 0.86425 0.78673 0.26199 0.0
H791 H 0.89119 0.78852 0.24493 0.0
Tb792 Tb 0.80072 0.32163 0.79522 0.0
Eu793 Eu 0.79229 0.28144 0.7755 0.0
C794 C 0.75978 0.30145 0.78371 0.0
C795 C 0.79195 0.28913 0.81899 0.0
C796 C 0.82085 0.36904 0.8082 0.0
C797 C 0.82813 0.40112 0.80866 0.0
C798 C 0.81557 0.38572 0.81032 0.0
C799 C 0.83877 0.36782 0.8042 0.0
C800 C 0.85142 0.38324 0.80269 0.0
C801 C 0.84623 0.40006 0.80497 0.0
C802 C 0.80724 0.35311 0.80953 0.0
O803 O 0.8258 0.3104 0.80021 0.0
O804 O 0.82193 0.29256 0.77379 0.0
O805 O 0.78839 0.30032 0.75369 0.0
O806 O 0.80901 0.32408 0.76742 0.0
C807 C 0.8325 0.30057 0.7882 0.0
O808 O 0.80019 0.25531 0.77241 0.0
O809 O 0.77747 0.26166 0.7544 0.0
O810 O 0.76498 0.28588 0.78374 0.0
O811 O 0.77172 0.31632 0.78474 0.0
O812 O 0.78886 0.30521 0.81589 0.0
O813 O 0.79671 0.27879 0.80603 0.0
C814 C 0.79923 0.31552 0.75262 0.0
O815 O 0.79599 0.3479 0.79471 0.0
O816 O 0.81329 0.33984 0.81709 0.0
C817 C 0.77459 0.23234 0.76372 0.0
C818 C 0.75172 0.20115 0.77171 0.0
C819 C 0.76992 0.20557 0.78022 0.0
C820 C 0.78127 0.221 0.77623 0.0
C821 C 0.75651 0.2277 0.75494 0.0
C822 C 0.74516 0.2123 0.75896 0.0
C823 C 0.78618 0.24915 0.76018 0.0
H824 H 0.8236 0.41384 0.81014 0.0
H825 H 0.80168 0.38683 0.81315 0.0
H826 H 0.843 0.35498 0.8023 0.0
H827 H 0.8653 0.38199 0.80002 0.0
H828 H 0.7753 0.1972 0.79013 0.0
H829 H 0.7952 0.22414 0.78312 0.0
H830 H 0.75105 0.23605 0.74505 0.0
H831 H 0.73132 0.209 0.7519 0.0
Tb832 Tb 0.80895 0.79634 0.78604 0.0
Eu833 Eu 0.78987 0.76002 0.76394 0.0
C834 C 0.80788 0.76036 0.80775 0.0
C835 C 0.83464 0.77616 0.76141 0.0
C836 C 0.81074 0.84164 0.80329 0.0
C837 C 0.79087 0.85751 0.81995 0.0
C838 C 0.80517 0.8476 0.81998 0.0
C839 C 0.80317 0.84732 0.78674 0.0
C840 C 0.78889 0.85709 0.78673 0.0
C841 C 0.78205 0.86144 0.80322 0.0
C842 C 0.82061 0.82644 0.80281 0.0
O843 O 0.80024 0.80549 0.75839 0.0
O844 O 0.78385 0.78006 0.74291 0.0
O845 O 0.76479 0.76859 0.77589 0.0
O846 O 0.77969 0.79357 0.79328 0.0
C847 C 0.79079 0.79714 0.74311 0.0
O848 O 0.78564 0.74239 0.73882 0.0
O849 O 0.77272 0.7337 0.7625 0.0
O850 O 0.79828 0.75136 0.79296 0.0
O851 O 0.81502 0.77733 0.80691 0.0
O852 O 0.83359 0.78881 0.77421 0.0
O853 O 0.81994 0.7638 0.7562 0.0
C854 C 0.76444 0.78168 0.78834 0.0
O855 O 0.81286 0.81274 0.8106 0.0
O856 O 0.82551 0.82164 0.787 0.0
C857 C 0.78572 0.71276 0.74532 0.0
C858 C 0.80986 0.68797 0.74382 0.0
C859 C 0.80236 0.69423 0.72757 0.0
C860 C 0.79033 0.7065 0.72831 0.0
C861 C 0.79194 0.70532 0.76137 0.0
C862 C 0.80386 0.69303 0.76061 0.0
C863 C 0.77728 0.7289 0.74652 0.0
H864 H 0.78576 0.86085 0.83281 0.0
H865 H 0.81076 0.84332 0.83288 0.0
H866 H 0.80715 0.84302 0.77362 0.0
H867 H 0.78239 0.86026 0.7737 0.0
H868 H 0.80657 0.69037 0.71441 0.0
H869 H 0.78564 0.71201 0.71575 0.0
H870 H 0.78868 0.70986 0.77472 0.0
H871 H 0.8095 0.68864 0.77343 0.0
Tb872 Tb 0.55744 0.56362 0.54273 0.0
Eu873 Eu 0.60064 0.57138 0.56285 0.0
C874 C 0.58953 0.55744 0.51999 0.0
C875 C 0.57747 0.53246 0.55569 0.0
C876 C 0.50863 0.57002 0.53072 0.0
C877 C 0.4838 0.58185 0.51399 0.0
C878 C 0.49858 0.57256 0.5141 0.0
C879 C 0.50369 0.57703 0.5473 0.0
C880 C 0.48881 0.58622 0.5472 0.0
C881 C 0.47866 0.58869 0.53054 0.0
C882 C 0.52376 0.55961 0.53042 0.0
O883 O 0.55958 0.57984 0.56816 0.0
O884 O 0.58061 0.56653 0.58388 0.0
O885 O 0.59239 0.59821 0.5599 0.0
O886 O 0.57088 0.58901 0.5348 0.0
C887 C 0.56574 0.57374 0.58338 0.0
O888 O 0.62011 0.56675 0.58574 0.0
O889 O 0.62977 0.58318 0.56437 0.0
O890 O 0.60147 0.56768 0.53227 0.0
O891 O 0.57237 0.55176 0.52289 0.0
O892 O 0.56227 0.53934 0.55521 0.0
O893 O 0.5936 0.54225 0.55479 0.0
C894 C 0.58206 0.60155 0.54533 0.0
O895 O 0.5372 0.56554 0.52094 0.0
O896 O 0.52982 0.55403 0.546 0.0
C897 C 0.64832 0.5628 0.57558 0.0
C898 C 0.67193 0.53766 0.57128 0.0
C899 C 0.67134 0.54634 0.58862 0.0
C900 C 0.65964 0.55879 0.59073 0.0
C901 C 0.64904 0.55436 0.55822 0.0
C902 C 0.6608 0.54204 0.55607 0.0
C903 C 0.63442 0.57422 0.57824 0.0
H904 H 0.47613 0.58333 0.50095 0.0
H905 H 0.50207 0.56719 0.50117 0.0
H906 H 0.51122 0.57535 0.56035 0.0
H907 H 0.48532 0.59149 0.56016 0.0
H908 H 0.6795 0.54313 0.60068 0.0
H909 H 0.65905 0.56493 0.6043 0.0
H910 H 0.64023 0.55701 0.54634 0.0
H911 H 0.66109 0.53587 0.54247 0.0
Tb912 Tb 0.03436 0.51183 0.02587 0.0
Eu913 Eu 0.06055 0.54911 0.02509 0.0
C914 C 0.0483 0.53459 0.06249 0.0
C915 C 1.01595 0.54792 0.02622 0.0
C916 C 0.01798 0.46425 0.01877 0.0
C917 C 1.01102 0.43211 0.01708 0.0
C918 C 1.00772 0.44859 0.02388 0.0
C919 C 0.03169 0.4634 0.00703 0.0
C920 C 0.0349 0.447 1.00014 0.0
C921 C 0.02456 0.43123 1.00505 0.0
C922 C 1.01503 0.48156 0.02613 0.0
O923 O 0.04251 0.51208 0.99815 0.0
O924 O 0.04624 0.54203 0.99678 0.0
O925 O 0.07944 0.52878 0.0188 0.0
O926 O 0.06296 0.50513 0.03089 0.0
C927 C 0.04313 0.52607 0.98866 0.0
O928 O 0.06752 0.57451 0.01318 0.0
O929 O 0.08578 0.5674 0.03537 0.0
O930 O 0.06192 0.54288 0.05456 0.0
O931 O 0.03404 0.52483 0.0528 0.0
O932 O 1.01411 0.53059 0.02139 0.0
O933 O 0.03274 0.55719 0.03102 0.0
C934 C 0.07859 0.51272 0.02492 0.0
O935 O 0.02715 0.48887 0.0397 0.0
O936 O 1.01205 0.49277 0.01386 0.0
C937 C 0.08048 0.59657 0.03602 0.0
C938 C 0.07638 0.62827 0.05491 0.0
C939 C 0.08905 0.62844 0.0418 0.0
C940 C 0.09105 0.61263 0.03236 0.0
C941 C 0.0681 0.59631 0.04933 0.0
C942 C 0.06605 0.61206 0.05872 0.0
C943 C 0.0815 0.58008 0.02554 0.0
H944 H 1.00281 0.42008 0.02094 0.0
H945 H 0.99721 0.44912 0.03309 0.0
H946 H 0.03994 0.47543 1.00322 0.0
H947 H 0.04556 0.44663 0.99108 0.0
H948 H 0.09701 0.64083 0.03849 0.0
H949 H 0.10057 0.61297 0.02202 0.0
H950 H 0.05983 0.58393 0.05226 0.0
H951 H 0.05635 0.61157 0.06889 0.0
H952 H 1.00149 0.20817 0.95538 0.0
H953 H 0.01647 0.19401 0.9804 0.0
H954 H 0.03533 0.15916 0.94091 0.0
H955 H 0.02061 0.17339 0.91577 0.0
H956 H 1.01507 0.15817 0.99009 0.0
H957 H 0.0832 0.1877 0.97002 0.0
H958 H 0.06201 0.19486 0.96157 0.0
H959 H 0.06808 0.17489 0.95157 0.0
C960 C 1.0084 0.19717 0.95201 0.0
C961 C 1.01012 0.19202 0.93363 0.0
C962 C 0.01703 0.18919 0.96632 0.0
C963 C 0.02743 0.17599 0.9624 0.0
C964 C 0.02772 0.16969 0.94411 0.0
H965 H 0.08348 0.10214 0.00652 0.0
H966 H 0.07393 0.12643 0.98994 0.0
C967 C 0.01913 0.17767 0.92979 0.0
C968 C 0.0388 0.16942 0.97731 0.0
H969 H 0.08312 0.16497 0.9912 0.0
C970 C 0.02997 0.15989 0.99061 0.0
C971 C 0.05825 0.17203 0.978 0.0
C972 C 0.06849 0.18308 0.96464 0.0
C973 C 0.04001 0.15168 1.00383 0.0
C974 C 0.05938 0.15341 1.00383 0.0
C975 C 0.0683 0.16382 0.99119 0.0
C976 C 0.06985 0.14183 0.01441 0.0
C977 C 0.02972 0.14021 0.01686 0.0
C978 C 0.07188 0.14311 0.03371 0.0
C979 C 0.07757 0.12926 0.04324 0.0
C980 C 0.08108 0.11411 0.03344 0.0
C981 C 0.08085 0.11377 0.01429 0.0
C982 C 0.07537 0.1276 1.00483 0.0
H983 H 1.01452 0.13885 0.01375 0.0
H984 H 0.03347 0.12672 0.01623 0.0
H985 H 0.03365 0.14618 0.03114 0.0
H986 H 0.0678 0.15414 0.04127 0.0
H987 H 0.07749 0.12963 0.05802 0.0
H988 H 0.14566 0.82144 0.15931 0.0
H989 H 0.16841 0.81576 0.18385 0.0
H990 H 0.14911 0.85232 0.22127 0.0
H991 H 0.12606 0.85781 0.1969 0.0
H992 H 0.19651 0.83738 0.20633 0.0
H993 H 0.1419 0.80556 0.2466 0.0
H994 H 0.13718 0.81058 0.22301 0.0
H995 H 0.14017 0.8279 0.24122 0.0
C996 C 0.1465 0.82852 0.17267 0.0
C997 C 0.134 0.8399 0.1763 0.0
C998 C 0.15942 0.8252 0.18667 0.0
C999 C 0.16001 0.83325 0.20444 0.0
C1000 C 0.14846 0.84562 0.20775 0.0
H1001 H 0.24559 0.83273 0.29199 0.0
H1002 H 0.21778 0.8393 0.27478 0.0
C1003 C 0.13547 0.84887 0.19378 0.0
C1004 C 0.17236 0.82823 0.21956 0.0
H1005 H 0.17283 0.80877 0.26041 0.0
C1006 C 0.19135 0.83117 0.21817 0.0
C1007 C 0.16546 0.8199 0.23483 0.0
C1008 C 0.14505 0.81562 0.2365 0.0
C1009 C 0.20372 0.82613 0.23176 0.0
C1010 C 0.19686 0.81815 0.24717 0.0
C1011 C 0.1779 0.81508 0.24859 0.0
C1012 C 0.20957 0.81276 0.26163 0.0
C1013 C 0.22406 0.82918 0.22952 0.0
C1014 C 0.21326 0.79535 0.26074 0.0
C1015 C 0.22912 0.79152 0.27059 0.0
C1016 C 0.24143 0.80518 0.28119 0.0
C1017 C 0.23644 0.82204 0.28372 0.0
C1018 C 0.22056 0.82581 0.27396 0.0
H1019 H 0.22687 0.83374 0.21581 0.0
H1020 H 0.23154 0.83941 0.2402 0.0
H1021 H 0.22973 0.81675 0.23145 0.0
H1022 H 0.20483 0.78517 0.25121 0.0
H1023 H 0.23262 0.7784 0.26841 0.0
H1024 H 0.51995 0.76684 0.45579 0.0
H1025 H 0.52278 0.79541 0.47358 0.0
H1026 H 0.49555 0.8168 0.42724 0.0
H1027 H 0.49244 0.78822 0.40943 0.0
H1028 H 0.54132 0.8286 0.46394 0.0
H1029 H 0.46713 0.82906 0.47043 0.0
H1030 H 0.47573 0.80907 0.464 0.0
H1031 H 0.47248 0.82499 0.44738 0.0
C1032 C 0.51436 0.77757 0.44948 0.0
C1033 C 0.50589 0.77534 0.43129 0.0
C1034 C 0.51605 0.79386 0.45962 0.0
C1035 C 0.50922 0.80807 0.45173 0.0
C1036 C 0.50061 0.80584 0.43363 0.0
H1037 H 0.53085 0.92024 0.48247 0.0
H1038 H 0.53026 0.89047 0.46817 0.0
C1039 C 0.49887 0.78955 0.42349 0.0
C1040 C 0.51168 0.82544 0.46225 0.0
H1041 H 0.488 0.85583 0.47997 0.0
C1042 C 0.52969 0.83455 0.46756 0.0
C1043 C 0.49644 0.83301 0.46696 0.0
C1044 C 0.47684 0.82349 0.46206 0.0
C1045 C 0.53286 0.85129 0.47724 0.0
C1046 C 0.5176 0.859 0.48158 0.0
C1047 C 0.49962 0.84978 0.47655 0.0
C1048 C 0.51989 0.87684 0.49104 0.0
C1049 C 0.55241 0.86062 0.48282 0.0
C1050 C 0.51433 0.87888 0.50862 0.0
C1051 C 0.51473 0.89584 0.51688 0.0
C1052 C 0.52055 0.91098 0.50756 0.0
C1053 C 0.52656 0.90884 0.4901 0.0
C1054 C 0.52621 0.89187 0.4819 0.0
H1055 H 0.56253 0.8515 0.48153 0.0
H1056 H 0.55575 0.87166 0.47386 0.0
H1057 H 0.55398 0.86645 0.49723 0.0
H1058 H 0.50938 0.86734 0.51581 0.0
H1059 H 0.51026 0.89711 0.53043 0.0
H1060 H 0.5522 0.33373 0.7042 0.0
H1061 H 0.52774 0.32177 0.72249 0.0
H1062 H 0.49178 0.30298 0.67284 0.0
H1063 H 0.51617 0.31488 0.65439 0.0
H1064 H 0.49017 0.32953 0.72047 0.0
H1065 H 0.49351 0.25833 0.70354 0.0
H1066 H 0.51207 0.27614 0.70052 0.0
H1067 H 0.49164 0.2719 0.6844 0.0
C1068 C 0.53903 0.32719 0.69718 0.0
C1069 C 0.53605 0.32516 0.6779 0.0
C1070 C 0.52515 0.32033 0.70763 0.0
C1071 C 0.5082 0.31126 0.69893 0.0
C1072 C 0.50495 0.3097 0.67971 0.0
H1073 H 0.40605 0.26253 0.73391 0.0
H1074 H 0.43314 0.27049 0.71761 0.0
C1075 C 0.5188 0.31661 0.66923 0.0
C1076 C 0.49381 0.30363 0.71004 0.0
H1077 H 0.46959 0.26437 0.72088 0.0
C1078 C 0.4857 0.3153 0.7207 0.0
C1079 C 0.48813 0.28507 0.71013 0.0
C1080 C 0.49684 0.27206 0.69915 0.0
C1081 C 0.47162 0.30888 0.73121 0.0
C1082 C 0.46594 0.29029 0.7314 0.0
C1083 C 0.47414 0.2786 0.72079 0.0
C1084 C 0.45078 0.28289 0.74179 0.0
C1085 C 0.46253 0.32209 0.74152 0.0
C1086 C 0.45211 0.28646 0.76087 0.0
C1087 C 0.43661 0.28223 0.77016 0.0
C1088 C 0.41964 0.27415 0.76049 0.0
C1089 C 0.41884 0.26914 0.74164 0.0
C1090 C 0.43431 0.27354 0.73234 0.0
H1091 H 0.46542 0.33556 0.73639 0.0
H1092 H 0.44735 0.31771 0.74034 0.0
H1093 H 0.46792 0.32314 0.75628 0.0
H1094 H 0.46488 0.29335 0.76842 0.0
H1095 H 0.43768 0.28628 0.78467 0.0
H1096 H 0.0427 0.85541 0.6414 0.0
H1097 H 0.0441 0.88394 0.62727 0.0
H1098 H 0.04364 0.85691 0.57413 0.0
H1099 H 0.04162 0.82836 0.58823 0.0
H1100 H 0.06515 0.90606 0.61107 0.0
H1101 H 1.0082 0.88564 0.55578 0.0
H1102 H 1.01284 0.87133 0.57374 0.0
H1103 H 0.02587 0.87235 0.55417 0.0
C1104 C 0.04272 0.85534 0.62664 0.0
C1105 C 0.04183 0.83886 0.61628 0.0
C1106 C 0.0436 0.87204 0.61837 0.0
C1107 C 0.04355 0.87352 0.5991 0.0
C1108 C 0.043 0.85701 0.58879 0.0
H1109 H 0.05104 0.96541 0.52424 0.0
H1110 H 0.04986 0.93655 0.53784 0.0
C1111 C 0.04204 0.84029 0.59706 0.0
C1112 C 0.04453 0.89203 0.59021 0.0
H1113 H 0.02691 0.91364 0.55363 0.0
C1114 C 0.05656 0.90747 0.59856 0.0
C1115 C 0.03366 0.89499 0.57366 0.0
C1116 C 0.01929 0.88027 0.5639 0.0
C1117 C 0.0583 0.92469 0.5911 0.0
C1118 C 0.04747 0.92762 0.57455 0.0
C1119 C 0.03547 0.91219 0.56616 0.0
C1120 C 0.04833 0.9462 0.56588 0.0
C1121 C 0.07246 0.93953 0.60097 0.0
C1122 C 0.04766 0.9623 0.57634 0.0
C1123 C 0.04836 0.97914 0.56841 0.0
C1124 C 0.04972 0.98117 0.5494 0.0
C1125 C 0.0502 0.96506 0.53887 0.0
C1126 C 0.04943 0.94818 0.54681 0.0
H1127 H 0.08354 0.93429 0.60923 0.0
H1128 H 0.07891 0.94853 0.59118 0.0
H1129 H 0.06567 0.94738 0.61056 0.0
H1130 H 0.04621 0.96195 0.59084 0.0
H1131 H 0.04766 0.9907 0.57737 0.0
H1132 H 0.48997 0.77501 0.89937 0.0
H1133 H 0.45909 0.77566 0.88395 0.0
H1134 H 0.48173 0.7814 0.83234 0.0
H1135 H 0.51256 0.78029 0.84771 0.0
H1136 H 0.44236 0.79832 0.86725 0.0
H1137 H 0.43955 0.74393 0.81375 0.0
H1138 H 0.45776 0.74856 0.83252 0.0
H1139 H 0.45873 0.7614 0.81266 0.0
C1140 C 0.48846 0.77625 0.88468 0.0
C1141 C 0.50418 0.77741 0.87498 0.0
C1142 C 0.47056 0.77669 0.87575 0.0
C1143 C 0.46733 0.77823 0.85659 0.0
C1144 C 0.48312 0.77962 0.84691 0.0
H1145 H 0.36498 0.81267 0.805 0.0
H1146 H 0.3958 0.81077 0.81944 0.0
C1147 C 0.50105 0.77913 0.85585 0.0
C1148 C 0.44775 0.77884 0.84709 0.0
H1149 H 0.41576 0.76138 0.81019 0.0
C1150 C 0.4367 0.79015 0.85478 0.0
C1151 C 0.43953 0.76814 0.83083 0.0
C1152 C 0.4494 0.75469 0.82204 0.0
C1153 C 0.41851 0.79129 0.84682 0.0
C1154 C 0.41056 0.78109 0.83019 0.0
C1155 C 0.42144 0.7695 0.82269 0.0
C1156 C 0.39118 0.78216 0.82059 0.0
C1157 C 0.40776 0.80318 0.8568 0.0
C1158 C 0.37766 0.76679 0.81536 0.0
C1159 C 0.3597 0.76786 0.80682 0.0
C1160 C 0.3544 0.78435 0.80286 0.0
C1161 C 0.36807 0.79965 0.80776 0.0
C1162 C 0.38595 0.79858 0.81631 0.0
H1163 H 0.41291 0.80543 0.87165 0.0
H1164 H 0.4094 0.81632 0.85089 0.0
H1165 H 0.39285 0.79745 0.85546 0.0
H1166 H 0.38089 0.75383 0.81816 0.0
H1167 H 0.3499 0.75566 0.80337 0.0
H1168 H 0.52795 0.23829 0.08677 0.0
H1169 H 0.52878 0.20864 0.0721 0.0
H1170 H 0.54957 0.19223 0.12416 0.0
H1171 H 0.54814 0.22148 0.13879 0.0
H1172 H 0.55164 0.18825 0.06381 0.0
H1173 H 0.51389 0.14872 0.11279 0.0
H1174 H 0.51573 0.17254 0.1135 0.0
H1175 H 0.53419 0.16257 0.12427 0.0
C1176 C 0.53255 0.22838 0.09525 0.0
C1177 C 0.53774 0.23287 0.11434 0.0
C1178 C 0.53309 0.21109 0.0867 0.0
C1179 C 0.53878 0.1971 0.09666 0.0
C1180 C 0.54434 0.20181 0.11568 0.0
H1181 H 0.55495 0.08351 0.06971 0.0
H1182 H 0.55367 0.11314 0.08401 0.0
C1183 C 0.5437 0.21901 0.12422 0.0
C1184 C 0.53933 0.17812 0.08728 0.0
H1185 H 0.52921 0.13269 0.09226 0.0
C1186 C 0.54653 0.17623 0.07017 0.0
C1187 C 0.53286 0.16164 0.09487 0.0
C1188 C 0.52356 0.1614 0.11225 0.0
C1189 C 0.54787 0.1593 0.06115 0.0
C1190 C 0.54152 0.14284 0.06882 0.0
C1191 C 0.53429 0.14472 0.0859 0.0
C1192 C 0.54224 0.12387 0.05957 0.0
C1193 C 0.55686 0.15943 0.04359 0.0
C1194 C 0.53605 0.11872 0.04074 0.0
C1195 C 0.53679 0.10145 0.0324 0.0
C1196 C 0.54365 0.08801 0.0423 0.0
C1197 C 0.54959 0.09303 0.0612 0.0
C1198 C 0.54881 0.11031 0.06956 0.0
H1199 H 0.56624 0.17222 0.04268 0.0
H1200 H 0.56491 0.14846 0.04242 0.0
H1201 H 0.54602 0.15781 0.03172 0.0
H1202 H 0.53027 0.12803 0.03229 0.0
H1203 H 0.53184 0.09865 0.01796 0.0
H1204 H 0.09597 0.2664 0.35002 0.0
H1205 H 0.124 0.26706 0.33445 0.0
H1206 H 0.15632 0.29554 0.38233 0.0
H1207 H 0.12849 0.29408 0.3981 0.0
H1208 H 0.1482 0.28778 0.321 0.0
H1209 H 0.19151 0.26418 0.37667 0.0
H1210 H 0.16734 0.26418 0.37793 0.0
H1211 H 0.18405 0.28417 0.38437 0.0
C1212 C 0.10904 0.27267 0.35742 0.0
C1213 C 0.10942 0.27998 0.37572 0.0
C1214 C 0.12539 0.27312 0.34834 0.0
C1215 C 0.14323 0.28093 0.35691 0.0
C1216 C 0.14346 0.28864 0.37508 0.0
H1217 H 0.25791 0.30288 0.32043 0.0
H1218 H 0.22988 0.30232 0.33604 0.0
C1219 C 0.12716 0.288 0.38423 0.0
C1220 C 0.1611 0.28136 0.34682 0.0
H1221 H 0.2072 0.2765 0.35236 0.0
C1222 C 0.16094 0.28513 0.32806 0.0
C1223 C 0.17842 0.27795 0.35525 0.0
C1224 C 0.18034 0.27221 0.37458 0.0
C1225 C 0.17685 0.28595 0.31811 0.0
C1226 C 0.19417 0.28282 0.32664 0.0
C1227 C 0.19439 0.27909 0.34537 0.0
C1228 C 0.21191 0.28328 0.31652 0.0
C1229 C 0.17498 0.29072 0.29843 0.0
C1230 C 0.21221 0.27275 0.3 0.0
C1231 C 0.22855 0.27294 0.29098 0.0
C1232 C 0.24565 0.28381 0.29779 0.0
C1233 C 0.24534 0.29439 0.31429 0.0
C1234 C 0.22905 0.294 0.32344 0.0
H1235 H 0.16303 0.29761 0.29537 0.0
H1236 H 0.18766 0.2994 0.29521 0.0
H1237 H 0.17274 0.27836 0.2892 0.0
H1238 H 0.19976 0.26393 0.2941 0.0
H1239 H 0.22774 0.26434 0.27858 0.0
H1240 H 0.95633 0.01235 0.1939 0.0
H1241 H 0.97973 0.02503 0.17493 0.0
H1242 H 0.94027 0.05226 0.14596 0.0
H1243 H 0.91672 0.03976 0.16511 0.0
H1244 H 0.98026 0.02377 0.13633 0.0
H1245 H 0.98307 0.09241 0.16758 0.0
H1246 H 0.97197 0.07293 0.17751 0.0
H1247 H 0.96075 0.08099 0.15761 0.0
C1248 C 0.95255 0.02084 0.18333 0.0
C1249 C 0.9348 0.02525 0.18107 0.0
C1250 C 0.96592 0.02808 0.17254 0.0
C1251 C 0.96174 0.03983 0.1594 0.0
C1252 C 0.94376 0.04347 0.15635 0.0
H1253 H 0.03043 0.09297 0.08426 0.0
H1254 H 1.00606 0.08553 0.10403 0.0
C1255 C 0.93033 0.03623 0.16716 0.0
C1256 C 0.97653 0.04865 0.1494 0.0
H1257 H 1.00289 0.08891 0.14479 0.0
C1258 C 0.9852 0.03801 0.13812 0.0
C1259 C 0.98286 0.06722 0.15191 0.0
C1260 C 0.97432 0.0791 0.16441 0.0
C1261 C 1.00015 0.04546 0.12921 0.0
C1262 C 1.00669 0.06397 0.13197 0.0
C1263 C 0.99784 0.0747 0.14296 0.0
C1264 C 0.0225 0.07225 0.12302 0.0
C1265 C 1.00878 0.03353 0.11682 0.0
C1266 C 0.04005 0.06817 0.12795 0.0
C1267 C 0.05399 0.07231 0.11668 0.0
C1268 C 0.05044 0.08052 0.10033 0.0
C1269 C 0.03348 0.08639 0.09663 0.0
C1270 C 0.01954 0.0822 0.1079 0.0
H1271 H 0.99988 0.02032 0.11337 0.0
H1272 H 1.01154 0.03979 0.10385 0.0
H1273 H 0.02216 0.03138 0.12386 0.0
H1274 H 0.04253 0.06066 0.13978 0.0
H1275 H 0.06698 0.0678 0.12 0.0
H1276 H 0.28759 0.69621 0.45815 0.0
H1277 H 0.28683 0.71178 0.43 0.0
H1278 H 0.28245 0.76018 0.46112 0.0
H1279 H 0.28342 0.74464 0.48955 0.0
H1280 H 0.25982 0.72936 0.41396 0.0
H1281 H 0.32639 0.77564 0.43222 0.0
H1282 H 0.31978 0.75633 0.44469 0.0
H1283 H 0.30978 0.77591 0.44848 0.0
C1284 C 0.28648 0.71018 0.45906 0.0
C1285 C 0.28567 0.71922 0.47612 0.0
C1286 C 0.28602 0.71906 0.44292 0.0
C1287 C 0.28483 0.73721 0.44344 0.0
C1288 C 0.28372 0.74625 0.46041 0.0
H1289 H 0.28797 0.80678 0.35184 0.0
H1290 H 0.28475 0.79517 0.38205 0.0
C1291 C 0.28416 0.73734 0.47663 0.0
C1292 C 0.28474 0.74642 0.42609 0.0
H1293 H 0.30986 0.77835 0.40361 0.0
C1294 C 0.27072 0.74013 0.41174 0.0
C1295 C 0.29893 0.76052 0.42319 0.0
C1296 C 0.31468 0.76746 0.43787 0.0
C1297 C 0.27061 0.7474 0.39455 0.0
C1298 C 0.28507 0.76114 0.39148 0.0
C1299 C 0.2988 0.7678 0.40598 0.0
C1300 C 0.28666 0.76816 0.37309 0.0
C1301 C 0.25497 0.7403 0.3798 0.0
C1302 C 0.28902 0.75689 0.35805 0.0
C1303 C 0.29092 0.76346 0.3408 0.0
C1304 C 0.29055 0.78151 0.33818 0.0
C1305 C 0.28825 0.79281 0.35331 0.0
C1306 C 0.28642 0.78621 0.37061 0.0
H1307 H 0.24261 0.73364 0.38573 0.0
H1308 H 0.25103 0.75111 0.37157 0.0
H1309 H 0.25943 0.73034 0.37041 0.0
H1310 H 0.28961 0.74299 0.35971 0.0
H1311 H 0.29272 0.75436 0.32953 0.0
H1312 H 0.57196 0.9971 0.73692 0.0
H1313 H 0.5547 1.00474 0.70899 0.0
H1314 H 0.59922 0.99586 0.67783 0.0
H1315 H 0.61657 0.98834 0.70557 0.0
H1316 H 0.57086 0.03416 0.68737 0.0
H1317 H 0.55052 0.96887 0.64717 0.0
H1318 H 0.55591 0.97089 0.67188 0.0
H1319 H 0.57413 0.97356 0.65727 0.0
C1320 C 0.57785 0.99636 0.72401 0.0
C1321 C 0.59557 0.99213 0.72334 0.0
C1322 C 0.56803 1.00081 0.70816 0.0
C1323 C 0.57572 1.00077 0.69147 0.0
C1324 C 0.59303 0.99576 0.69061 0.0
H1325 H 0.57625 0.04824 0.59216 0.0
H1326 H 0.57953 0.04266 0.62471 0.0
C1327 C 0.6029 0.99148 0.70644 0.0
C1328 C 0.56653 1.00729 0.67512 0.0
H1329 H 0.55028 0.9948 0.63043 0.0
C1330 C 0.56597 0.02555 0.67499 0.0
C1331 C 0.56015 0.99595 0.65913 0.0
C1332 C 0.56003 0.97619 0.65883 0.0
C1333 C 0.56016 0.03295 0.6588 0.0
C1334 C 0.55487 0.02174 0.64254 0.0
C1335 C 0.55439 1.00334 0.64299 0.0
C1336 C 0.55151 0.02877 0.62445 0.0
C1337 C 0.56022 0.05269 0.65904 0.0
C1338 C 0.53454 0.0232 0.61376 0.0
C1339 C 0.53264 0.0263 0.59518 0.0
C1340 C 0.5478 0.03482 0.58699 0.0
C1341 C 0.56438 0.04155 0.59806 0.0
C1342 C 0.56623 0.03849 0.61669 0.0
H1343 H 0.55987 0.05859 0.67318 0.0
H1344 H 0.573 0.05926 0.65381 0.0
H1345 H 0.54824 0.05559 0.65003 0.0
H1346 H 0.52308 0.0156 0.61956 0.0
H1347 H 0.51961 0.0211 0.58706 0.0
H1348 H 0.2758 0.35289 0.98562 0.0
H1349 H 0.27839 0.33806 0.95547 0.0
H1350 H 0.28831 0.38892 0.93268 0.0
H1351 H 0.28586 0.4038 0.96276 0.0
H1352 H 0.25864 0.3563 0.91045 0.0
H1353 H 0.32974 0.34299 0.92757 0.0
H1354 H 0.31382 0.3406 0.94476 0.0
H1355 H 0.32218 0.36224 0.93775 0.0
C1356 C 0.27852 0.36103 0.97425 0.0
C1357 C 0.28052 0.37978 0.97709 0.0
C1358 C 0.28004 0.35243 0.95681 0.0
C1359 C 0.28362 0.36212 0.94127 0.0
C1360 C 0.2855 0.38082 0.94405 0.0
H1361 H 0.32194 0.32514 0.83575 0.0
H1362 H 0.31821 0.33962 0.86553 0.0
C1363 C 0.28405 0.38942 0.96149 0.0
C1364 C 0.28541 0.35287 0.92237 0.0
H1365 H 0.31502 0.33257 0.8982 0.0
C1366 C 0.27098 0.35108 0.90787 0.0
C1367 C 0.30149 0.34609 0.91836 0.0
C1368 C 0.31782 0.34802 0.9328 0.0
C1369 C 0.27209 0.34286 0.89004 0.0
C1370 C 0.28806 0.33563 0.88605 0.0
C1371 C 0.30259 0.33769 0.90062 0.0
C1372 C 0.29021 0.32638 0.86707 0.0
C1373 C 0.25612 0.3427 0.8755 0.0
C1374 C 0.27606 0.31354 0.85713 0.0
C1375 C 0.2781 0.30539 0.83962 0.0
C1376 C 0.2946 0.30921 0.83123 0.0
C1377 C 0.30894 0.32165 0.84135 0.0
C1378 C 0.30678 0.33003 0.85871 0.0
H1379 H 0.24828 0.35354 0.8785 0.0
H1380 H 0.26084 0.34421 0.86169 0.0
H1381 H 0.24646 0.32992 0.87521 0.0
H1382 H 0.26331 0.30947 0.86297 0.0
H1383 H 0.2667 0.29578 0.83276 0.0
H1384 H 0.92093 0.03192 0.28628 0.0
H1385 H 0.94387 0.03562 0.31332 0.0
H1386 H 0.97538 1.00172 0.28564 0.0
H1387 H 0.95267 0.99817 0.25848 0.0
H1388 H 0.95494 1.01042 0.33481 0.0
H1389 H 1.01398 0.04574 0.30294 0.0
H1390 H 0.99045 0.04299 0.29238 0.0
H1391 H 1.0034 0.02514 0.29039 0.0
C1392 C 0.93273 0.02523 0.28599 0.0
C1393 C 0.93508 0.0148 0.27029 0.0
C1394 C 0.94583 0.02741 0.30139 0.0
C1395 C 0.9615 0.01927 0.30128 0.0
C1396 C 0.96362 1.00849 0.28579 0.0
H1397 H 0.02767 0.99243 0.39386 0.0
H1398 H 1.00922 0.9934 0.36476 0.0
C1399 C 0.95055 1.00632 0.27038 0.0
C1400 C 0.97526 0.02143 0.31764 0.0
H1401 H 0.0212 0.03407 0.33195 0.0
C1402 C 0.96939 0.01572 0.33423 0.0
C1403 C 0.99403 0.0287 0.3169 0.0
C1404 C 1.00084 0.03617 0.29974 0.0
C1405 C 0.98194 0.01642 0.34997 0.0
C1406 C 1.0009 0.0226 0.34892 0.0
C1407 C 1.00669 0.02903 0.33256 0.0
C1408 C 1.01482 0.02206 0.36468 0.0
C1409 C 0.97477 1.01053 0.3676 0.0
C1410 C 0.02515 0.03781 0.37354 0.0
C1411 C 0.03619 0.03732 0.39008 0.0
C1412 C 0.03694 0.02105 0.398 0.0
C1413 C 0.02766 1.00521 0.38821 0.0
C1414 C 0.01683 1.00573 0.37165 0.0
H1415 H 0.95983 1.01105 0.36749 0.0
H1416 H 0.97663 0.99657 0.36927 0.0
H1417 H 0.9824 0.01894 0.37969 0.0
H1418 H 0.02395 0.05054 0.36817 0.0
H1419 H 0.04344 0.04973 0.39707 0.0
H1420 H 0.27418 0.69778 0.58637 0.0
H1421 H 0.27941 0.71013 0.61828 0.0
H1422 H 0.32469 0.7488 0.60508 0.0
H1423 H 0.31933 0.73662 0.57292 0.0
H1424 H 0.31112 0.71218 0.64263 0.0
H1425 H 0.29451 0.77959 0.63272 0.0
H1426 H 0.2883 0.76153 0.61508 0.0
H1427 H 0.31167 0.77317 0.61926 0.0
C1428 C 0.28516 0.70902 0.59019 0.0
C1429 C 0.2963 0.71626 0.57708 0.0
C1430 C 0.28816 0.71604 0.60847 0.0
C1431 C 0.30233 0.73051 0.61409 0.0
C1432 C 0.31345 0.73786 0.60102 0.0
H1433 H 0.33119 0.78748 0.72335 0.0
H1434 H 0.33208 0.77682 0.69136 0.0
C1435 C 0.31042 0.73084 0.58266 0.0
C1436 C 0.30566 0.73736 0.63376 0.0
H1437 H 0.30465 0.77362 0.6629 0.0
C1438 C 0.30976 0.72564 0.64705 0.0
C1439 C 0.30406 0.75497 0.63955 0.0
C1440 C 0.29925 0.76805 0.62596 0.0
C1441 C 0.31209 0.73094 0.66593 0.0
C1442 C 0.30989 0.74836 0.67176 0.0
C1443 C 0.30631 0.76026 0.65845 0.0
C1444 C 0.31025 0.7542 0.69154 0.0
C1445 C 0.31702 0.71782 0.67942 0.0
C1446 C 0.29774 0.74504 0.70236 0.0
C1447 C 0.29729 0.75101 0.72066 0.0
C1448 C 0.30919 0.76644 0.72856 0.0
C1449 C 0.32189 0.7755 0.71778 0.0
C1450 C 0.32237 0.76947 0.69945 0.0
H1451 H 0.324 0.70766 0.67296 0.0
H1452 H 0.32617 0.72461 0.69158 0.0
H1453 H 0.3042 0.71077 0.6842 0.0
H1454 H 0.28794 0.73349 0.6965 0.0
H1455 H 0.28721 0.74376 0.72845 0.0
H1456 H 0.64309 0.02325 0.83179 0.0
H1457 H 0.63366 0.04439 0.8537 0.0
H1458 H 0.57657 0.02179 0.83727 0.0
H1459 H 0.58583 1.00067 0.81528 0.0
H1460 H 0.60967 0.0692 0.84097 0.0
H1461 H 0.58185 0.02713 0.89444 0.0
H1462 H 0.59787 0.02042 0.87949 0.0
H1463 H 0.57381 0.01826 0.8713 0.0
C1464 C 0.62855 0.02241 0.83326 0.0
C1465 C 0.61516 1.01036 0.8218 0.0
C1466 C 0.62322 0.03459 0.84565 0.0
C1467 C 0.60448 0.03465 0.84695 0.0
C1468 C 0.59113 0.02183 0.83649 0.0
H1469 H 0.5294 0.08401 0.89404 0.0
H1470 H 0.54687 0.07611 0.86991 0.0
C1471 C 0.59643 1.00974 0.824 0.0
C1472 C 0.59862 0.04891 0.85807 0.0
H1473 H 0.57273 0.05557 0.89278 0.0
C1474 C 0.60182 0.06636 0.8525 0.0
C1475 C 0.58854 0.04507 0.8731 0.0
C1476 C 0.58543 0.02674 0.88008 0.0
C1477 C 0.59423 0.07993 0.86105 0.0
C1478 C 0.58329 0.07579 0.87537 0.0
C1479 C 0.58093 0.05857 0.88152 0.0
C1480 C 0.57327 0.08854 0.88403 0.0
C1481 C 0.59721 0.09836 0.85439 0.0
C1482 C 0.58218 0.10016 0.89885 0.0
C1483 C 0.57204 0.1053 0.91273 0.0
C1484 C 0.5532 0.09787 0.91233 0.0
C1485 C 0.54395 0.0895 0.89553 0.0
C1486 C 0.55398 0.08485 0.88149 0.0
H1487 H 0.60591 0.09939 0.84287 0.0
H1488 H 0.58369 0.10211 0.8498 0.0
H1489 H 0.60395 0.10807 0.86588 0.0
H1490 H 0.59709 0.10344 0.90085 0.0
H1491 H 0.5795 0.11294 0.92483 0.0
H1492 H 0.27396 0.35422 0.07228 0.0
H1493 H 0.27508 0.33984 0.10149 0.0
H1494 H 0.29365 0.39098 0.13091 0.0
H1495 H 0.29228 0.40532 0.10181 0.0
H1496 H 0.3 0.33508 0.12818 0.0
H1497 H 0.25571 0.37438 0.16316 0.0
H1498 H 0.25824 0.37565 0.13906 0.0
H1499 H 0.27543 0.38821 0.15615 0.0
C1500 C 0.2782 0.36253 0.08493 0.0
C1501 C 0.28288 0.38122 0.08414 0.0
C1502 C 0.27889 0.35417 0.10192 0.0
C1503 C 0.28408 0.36398 0.11921 0.0
C1504 C 0.28899 0.38266 0.11836 0.0
H1505 H 0.29815 0.33583 0.23768 0.0
H1506 H 0.29672 0.35084 0.20882 0.0
C1507 C 0.28836 0.391 0.10138 0.0
C1508 C 0.28474 0.35474 0.13773 0.0
H1509 H 0.27169 0.35617 0.18186 0.0
C1510 C 0.29363 0.33978 0.13977 0.0
C1511 C 0.27667 0.36036 0.15353 0.0
C1512 C 0.26582 0.3754 0.15288 0.0
C1513 C 0.29502 0.33092 0.15649 0.0
C1514 C 0.28691 0.3365 0.17228 0.0
C1515 C 0.27806 0.35148 0.17027 0.0
C1516 C 0.28739 0.32704 0.19066 0.0
C1517 C 0.30592 0.3159 0.15715 0.0
C1518 C 0.28227 0.30836 0.19114 0.0
C1519 C 0.28303 0.29966 0.20787 0.0
C1520 C 0.28881 0.30905 0.22529 0.0
C1521 C 0.29356 0.32779 0.22492 0.0
C1522 C 0.29275 0.33652 0.20812 0.0
H1523 H 0.31612 0.31702 0.14696 0.0
H1524 H 0.31339 0.31557 0.171 0.0
H1525 H 0.29635 0.30308 0.15372 0.0
H1526 H 0.27747 0.30029 0.17845 0.0
H1527 H 0.27913 0.28533 0.20705 0.0
H1528 H 0.24633 0.90218 0.03139 0.0
H1529 H 0.22536 0.92337 0.03643 0.0
H1530 H 0.26812 0.95651 0.07328 0.0
H1531 H 0.2891 0.93564 0.06822 0.0
H1532 H 0.21348 0.93686 0.06986 0.0
H1533 H 0.25346 0.99008 0.03445 0.0
H1534 H 0.25662 0.96717 0.03211 0.0
H1535 H 0.26695 0.98116 0.05224 0.0
C1536 C 0.25119 0.91395 0.04063 0.0
C1537 C 0.2694 0.91734 0.04928 0.0
C1538 C 0.23922 0.92601 0.04349 0.0
C1539 C 0.24532 0.94164 0.05496 0.0
C1540 C 0.26327 0.94471 0.06409 0.0
H1541 H 0.20244 0.03564 0.08828 0.0
H1542 H 0.2207 0.01205 0.08408 0.0
C1543 C 0.27521 0.93271 0.06123 0.0
C1544 C 0.23313 0.95498 0.05729 0.0
H1545 H 0.22995 0.99836 0.05119 0.0
C1546 C 0.21697 0.95028 0.06568 0.0
C1547 C 0.23776 0.97246 0.0518 0.0
C1548 C 0.25455 0.97803 0.04199 0.0
C1549 C 0.20556 0.96279 0.06923 0.0
C1550 C 0.21033 0.98034 0.06395 0.0
C1551 C 0.22638 0.98494 0.05534 0.0
C1552 C 0.1989 0.99421 0.06715 0.0
C1553 C 0.1888 0.95724 0.07906 0.0
C1554 C 0.18062 0.99204 0.05896 0.0
C1555 C 0.17012 1.00543 0.06144 0.0
C1556 C 0.17775 0.02136 0.07202 0.0
C1557 C 0.19607 0.02347 0.08023 0.0
C1558 C 0.20656 1.01005 0.07776 0.0
H1559 H 0.18979 0.94507 0.08643 0.0
H1560 H 0.18688 0.96803 0.0891 0.0
H1561 H 0.17636 0.95432 0.06886 0.0
H1562 H 0.17453 0.98008 0.05043 0.0
H1563 H 0.15599 1.00326 0.05509 0.0
H1564 H 0.76545 0.60318 0.00947 0.0
H1565 H 0.73351 0.58771 0.00968 0.0
H1566 H 0.72019 0.63415 0.03774 0.0
H1567 H 0.75171 0.64975 0.03684 0.0
H1568 H 0.71162 0.57611 0.03335 0.0
H1569 H 0.67716 0.62697 1.00086 0.0
H1570 H 0.70179 0.62816 1.00229 0.0
H1571 H 0.69126 0.63618 0.02154 0.0
C1572 C 0.75571 0.6102 0.01557 0.0
C1573 C 0.7615 0.62798 0.02294 0.0
C1574 C 0.73723 0.60124 0.01573 0.0
C1575 C 0.72363 0.60961 0.02329 0.0
C1576 C 0.72966 0.62724 0.03109 0.0
H1577 H 0.60624 0.57937 0.04328 0.0
H1578 H 0.6383 0.59339 0.042 0.0
C1579 C 0.74802 0.63622 0.03075 0.0
C1580 C 0.70354 0.59994 0.02337 0.0
H1581 H 0.65788 0.60477 0.01493 0.0
C1582 C 0.69996 0.58246 0.02913 0.0
C1583 C 0.68775 0.60772 0.01791 0.0
C1584 C 0.68965 0.6257 0.01012 0.0
C1585 C 0.68172 0.57308 0.0301 0.0
C1586 C 0.66598 0.581 0.02494 0.0
C1587 C 0.66955 0.59841 0.01906 0.0
C1588 C 0.64591 0.57178 0.0258 0.0
C1589 C 0.67958 0.55484 0.03728 0.0
C1590 C 0.63861 0.55471 0.01704 0.0
C1591 C 0.61995 0.54653 0.01775 0.0
C1592 C 0.60766 0.55503 0.02724 0.0
C1593 C 0.61497 0.57211 0.0359 0.0
C1594 C 0.63354 0.58029 0.03512 0.0
H1595 H 0.6924 0.55273 0.04551 0.0
H1596 H 0.66805 0.55272 0.04594 0.0
H1597 H 0.67657 0.54465 0.0255 0.0
H1598 H 0.64726 0.54772 0.00928 0.0
H1599 H 0.61512 0.53353 0.01068 0.0
H1600 H 0.74021 0.53486 0.30064 0.0
H1601 H 0.75413 0.51091 0.28721 0.0
H1602 H 0.72881 0.47484 0.32415 0.0
H1603 H 0.71472 0.49859 0.33753 0.0
H1604 H 0.77694 0.48686 0.30308 0.0
H1605 H 0.70772 0.45289 0.27151 0.0
H1606 H 0.71213 0.4758 0.28072 0.0
H1607 H 0.7094 0.4581 0.29588 0.0
C1608 C 0.73793 0.52191 0.30614 0.0
C1609 C 0.72622 0.51847 0.31995 0.0
C1610 C 0.74582 0.50828 0.29844 0.0
C1611 C 0.74207 0.49112 0.30445 0.0
C1612 C 0.7315 0.48798 0.31913 0.0
H1613 H 0.76407 0.38764 0.28117 0.0
H1614 H 0.75224 0.41439 0.29016 0.0
C1615 C 0.72358 0.50156 0.32681 0.0
C1616 C 0.74833 0.47622 0.29477 0.0
H1617 H 0.7324 0.43666 0.26996 0.0
C1618 C 0.76728 0.47594 0.29566 0.0
C1619 C 0.73557 0.46217 0.28504 0.0
C1620 C 0.71507 0.46226 0.28304 0.0
C1621 C 0.77384 0.46144 0.28773 0.0
C1622 C 0.76104 0.44714 0.27842 0.0
C1623 C 0.74212 0.44771 0.27708 0.0
C1624 C 0.76692 0.43077 0.27141 0.0
C1625 C 0.7943 0.46116 0.29007 0.0
C1626 C 0.77861 0.43107 0.25747 0.0
C1627 C 0.78538 0.41575 0.25225 0.0
C1628 C 0.78038 0.39994 0.2608 0.0
C1629 C 0.76797 0.39954 0.27415 0.0
C1630 C 0.76128 0.41483 0.27938 0.0
H1631 H 0.80185 0.47156 0.30056 0.0
H1632 H 0.79704 0.44798 0.29413 0.0
H1633 H 0.79993 0.46358 0.2768 0.0
H1634 H 0.78278 0.44322 0.25094 0.0
H1635 H 0.79475 0.41633 0.24178 0.0
H1636 H 0.87328 0.40996 0.56439 0.0
H1637 H 0.90206 0.43137 0.56645 0.0
H1638 H 0.88123 0.45491 0.5183 0.0
H1639 H 0.85224 0.43387 0.51647 0.0
H1640 H 0.9269 0.43576 0.54232 0.0
H1641 H 0.90001 0.49858 0.55252 0.0
H1642 H 0.88633 0.47711 0.55474 0.0
H1643 H 0.88853 0.48537 0.53241 0.0
C1644 C 0.87479 0.4198 0.55433 0.0
C1645 C 0.86049 0.42029 0.54029 0.0
C1646 C 0.89122 0.43203 0.55554 0.0
C1647 C 0.89369 0.44498 0.54275 0.0
C1648 C 0.87946 0.44539 0.52864 0.0
H1649 H 0.98265 0.51174 0.50399 0.0
H1650 H 0.95348 0.49454 0.51054 0.0
C1651 C 0.86296 0.43325 0.52751 0.0
C1652 C 0.91152 0.45734 0.54349 0.0
H1653 H 0.93051 0.50119 0.54303 0.0
C1654 C 0.92772 0.45008 0.5428 0.0
C1655 C 0.91261 0.47604 0.5442 0.0
C1656 C 0.89596 0.48474 0.54621 0.0
C1657 C 0.94482 0.46096 0.54195 0.0
C1658 C 0.94573 0.47955 0.54184 0.0
C1659 C 0.92969 0.4869 0.54309 0.0
C1660 C 0.96295 0.49132 0.5388 0.0
C1661 C 0.96172 0.45252 0.54041 0.0
C1662 C 0.97779 0.49549 0.55272 0.0
C1663 C 0.99453 0.50545 0.54907 0.0
C1664 C 0.99666 0.5112 0.53139 0.0
C1665 C 0.98152 0.50741 0.51771 0.0
C1666 C 0.96481 0.49764 0.52142 0.0
H1667 H 0.95843 0.43776 0.53931 0.0
H1668 H 0.96843 0.45695 0.52818 0.0
H1669 H 0.97182 0.45688 0.55271 0.0
H1670 H 0.97653 0.49074 0.56625 0.0
H1671 H 1.00594 0.50814 0.55989 0.0
H1672 H 0.43334 0.09313 0.26945 0.0
H1673 H 0.40738 0.10503 0.25487 0.0
H1674 H 0.43409 0.15823 0.27435 0.0
H1675 H 0.46046 0.14638 0.2889 0.0
H1676 H 0.38559 0.1239 0.27377 0.0
H1677 H 0.41683 0.16303 0.21992 0.0
H1678 H 0.42761 0.14628 0.23107 0.0
H1679 H 0.42931 0.16805 0.24243 0.0
C1680 C 0.43381 0.1074 0.27052 0.0
C1681 C 0.44888 0.11887 0.28037 0.0
C1682 C 0.41899 0.11414 0.26211 0.0
C1683 C 0.41897 0.13247 0.26334 0.0
C1684 C 0.43408 0.14404 0.27295 0.0
H1685 H 0.34552 0.20383 0.25411 0.0
H1686 H 0.37145 0.18777 0.25491 0.0
C1687 C 0.44902 0.13728 0.28138 0.0
C1688 C 0.40238 0.13923 0.25597 0.0
H1689 H 0.3873 0.16858 0.22719 0.0
C1690 C 0.38584 0.13344 0.26335 0.0
C1691 C 0.40284 0.15155 0.24232 0.0
C1692 C 0.42006 0.15749 0.23332 0.0
C1693 C 0.36991 0.14043 0.25818 0.0
C1694 C 0.37055 0.15332 0.24508 0.0
C1695 C 0.38689 0.15858 0.23713 0.0
C1696 C 0.35533 0.16333 0.24168 0.0
C1697 C 0.35284 0.13477 0.26755 0.0
C1698 C 0.33783 0.15499 0.23344 0.0
C1699 C 0.32293 0.16417 0.23302 0.0
C1700 C 0.32548 0.18166 0.24096 0.0
C1701 C 0.34322 0.19022 0.24821 0.0
C1702 C 0.35803 0.18114 0.24853 0.0
H1703 H 0.35546 0.12641 0.27913 0.0
H1704 H 0.34754 0.14659 0.27291 0.0
H1705 H 0.34189 0.12695 0.25745 0.0
H1706 H 0.33561 0.14126 0.22795 0.0
H1707 H 0.30934 0.15742 0.22726 0.0
H1708 H 0.34939 0.10287 0.52001 0.0
H1709 H 0.37655 0.08798 0.52126 0.0
H1710 H 0.4121 0.139 0.52738 0.0
H1711 H 0.38504 0.1538 0.5265 0.0
H1712 H 0.40393 0.08446 0.502 0.0
H1713 H 0.43979 0.11863 0.56701 0.0
H1714 H 0.41647 0.12083 0.55906 0.0
H1715 H 0.4357 0.13406 0.55019 0.0
C1716 C 0.36296 0.11104 0.52174 0.0
C1717 C 0.36447 0.12984 0.52327 0.0
C1718 C 0.37878 0.10238 0.52243 0.0
C1719 C 0.39716 0.11193 0.52489 0.0
C1720 C 0.39861 0.13075 0.52611 0.0
H1721 H 0.51183 0.08371 0.53313 0.0
H1722 H 0.48453 0.09831 0.53173 0.0
C1723 C 0.38281 0.1394 0.52541 0.0
C1724 C 0.41444 0.10237 0.52574 0.0
H1725 H 0.45719 0.10165 0.54976 0.0
C1726 C 0.41543 0.0883 0.51262 0.0
C1727 C 0.4301 0.10683 0.53934 0.0
C1728 C 0.43045 0.12077 0.55481 0.0
C1729 C 0.43106 0.0793 0.51237 0.0
C1730 C 0.44673 0.08375 0.52599 0.0
C1731 C 0.44571 0.09781 0.53913 0.0
C1732 C 0.46409 0.07427 0.52682 0.0
C1733 C 0.43073 0.06548 0.49679 0.0
C1734 C 0.46282 0.05547 0.5249 0.0
C1735 C 0.47873 0.04697 0.52558 0.0
C1736 C 0.49702 0.05665 0.52851 0.0
C1737 C 0.49833 0.07542 0.53079 0.0
C1738 C 0.48241 0.08393 0.53001 0.0
H1739 H 0.42148 0.06778 0.48459 0.0
H1740 H 0.44472 0.06541 0.49258 0.0
H1741 H 0.42535 0.05216 0.50124 0.0
H1742 H 0.44939 0.04711 0.52313 0.0
H1743 H 0.47661 0.03258 0.52395 0.0
H1744 H 0.67897 0.6137 0.32873 0.0
H1745 H 0.68974 0.6455 0.32653 0.0
H1746 H 0.74564 0.63835 0.34265 0.0
H1747 H 0.73496 0.60674 0.34531 0.0
H1748 H 0.73704 0.67002 0.35795 0.0
H1749 H 0.71664 0.66013 0.28222 0.0
H1750 H 0.6987 0.65446 0.29675 0.0
H1751 H 0.717 0.64168 0.29645 0.0
C1752 C 0.69351 0.619 0.3321 0.0
C1753 C 0.7062 0.60777 0.33694 0.0
C1754 C 0.69961 0.63711 0.33078 0.0
C1755 C 0.71848 0.64411 0.33409 0.0
C1756 C 0.731 0.63313 0.34 0.0
H1757 H 0.80503 0.71851 0.31043 0.0
H1758 H 0.78235 0.69488 0.32056 0.0
C1759 C 0.72491 0.61508 0.34146 0.0
C1760 C 0.72566 0.66239 0.32987 0.0
H1761 H 0.73438 0.68744 0.29367 0.0
C1762 C 0.73616 0.674 0.34396 0.0
C1763 C 0.7244 0.66748 0.31157 0.0
C1764 C 0.7137 0.6553 0.29581 0.0
C1765 C 0.74637 0.69016 0.34005 0.0
C1766 C 0.74604 0.69462 0.32166 0.0
C1767 C 0.73451 0.68374 0.30775 0.0
C1768 C 0.75948 0.70914 0.3163 0.0
C1769 C 0.75818 0.70203 0.35538 0.0
C1770 C 0.75382 0.72465 0.31045 0.0
C1771 C 0.76667 0.738 0.30474 0.0
C1772 C 0.78522 0.73592 0.30472 0.0
C1773 C 0.79085 0.7204 0.31059 0.0
C1774 C 0.77797 0.70701 0.31632 0.0
H1775 H 0.75409 0.69861 0.36908 0.0
H1776 H 0.77281 0.7005 0.35499 0.0
H1777 H 0.75725 0.7162 0.35359 0.0
H1778 H 0.73956 0.7264 0.31031 0.0
H1779 H 0.76209 0.74997 0.30041 0.0
H1780 H 0.93847 0.55552 0.82598 0.0
H1781 H 0.91894 0.52616 0.82386 0.0
H1782 H 0.95766 0.50444 0.79274 0.0
H1783 H 0.97745 0.53358 0.7952 0.0
H1784 H 0.90268 0.50716 0.79168 0.0
H1785 H 0.94876 0.46857 0.83101 0.0
H1786 H 0.95306 0.49257 0.83207 0.0
H1787 H 0.95871 0.47992 0.81267 0.0
C1788 C 0.94296 0.54441 0.81898 0.0
C1789 C 0.95949 0.54677 0.81084 0.0
C1790 C 0.93179 0.5277 0.81772 0.0
C1791 C 0.93698 0.51314 0.80829 0.0
C1792 C 0.95362 0.51542 0.8004 0.0
H1793 H 0.87228 0.40632 0.7809 0.0
H1794 H 0.89491 0.43349 0.77986 0.0
C1795 C 0.96486 0.53208 0.80178 0.0
C1796 C 0.92444 0.49585 0.8059 0.0
H1797 H 0.92065 0.45242 0.81592 0.0
C1798 C 0.90662 0.49519 0.79695 0.0
C1799 C 0.92974 0.48025 0.81264 0.0
C1800 C 0.94855 0.48031 0.82277 0.0
C1801 C 0.89379 0.47937 0.7949 0.0
C1802 C 0.89896 0.46394 0.80202 0.0
C1803 C 0.9169 0.46439 0.81045 0.0
C1804 C 0.88537 0.44766 0.80234 0.0
C1805 C 0.87468 0.47921 0.78543 0.0
C1806 C 0.87279 0.4468 0.81543 0.0
C1807 C 0.8601 0.43133 0.81625 0.0
C1808 C 0.85972 0.41649 0.80391 0.0
C1809 C 0.87238 0.41745 0.79074 0.0
C1810 C 0.8852 0.43294 0.79003 0.0
H1811 H 0.87376 0.49144 0.77812 0.0
H1812 H 0.87054 0.46743 0.77542 0.0
H1813 H 0.86468 0.47824 0.7958 0.0
H1814 H 0.87294 0.45807 0.82513 0.0
H1815 H 0.85078 0.43091 0.82677 0.0
H1816 H 0.08543 0.89769 0.13687 0.0
H1817 H 0.07749 0.92286 0.12074 0.0
H1818 H 0.06353 0.88947 0.07018 0.0
H1819 H 0.0719 0.86415 0.08625 0.0
H1820 H 0.08402 0.92148 0.06543 0.0
H1821 H 0.02606 0.93172 0.1042 0.0
H1822 H 0.04612 0.93079 0.11975 0.0
H1823 H 0.03579 0.91155 0.10464 0.0
C1824 C 0.08071 0.89571 0.12232 0.0
C1825 C 0.07916 0.87901 0.1128 0.0
C1826 C 0.07599 0.91003 0.11317 0.0
C1827 C 0.06937 0.90782 0.09444 0.0
C1828 C 0.06834 0.8913 0.08472 0.0
H1829 H 0.03876 1.00806 0.06024 0.0
H1830 H 0.03528 0.97587 0.06255 0.0
C1831 C 0.0732 0.87693 0.09387 0.0
C1832 C 0.06447 0.92321 0.0851 0.0
H1833 H 0.0421 0.95816 0.09167 0.0
C1834 C 0.0745 0.92932 0.07081 0.0
C1835 C 0.0516 0.93308 0.0917 0.0
C1836 C 0.03913 0.9263 0.10577 0.0
C1837 C 0.0734 0.946 0.06428 0.0
C1838 C 0.06237 0.95688 0.07267 0.0
C1839 C 0.05088 0.94996 0.08556 0.0
C1840 C 0.06437 0.97606 0.07012 0.0
C1841 C 0.08459 0.95208 0.04899 0.0
C1842 C 0.08179 0.98679 0.07409 0.0
C1843 C 0.08383 1.00507 0.07278 0.0
C1844 C 0.06842 0.013 0.06778 0.0
C1845 C 0.05088 1.00231 0.0642 0.0
C1846 C 0.04888 0.98394 0.06537 0.0
H1847 H 0.08603 0.94059 0.0396 0.0
H1848 H 0.07823 0.96177 0.04087 0.0
H1849 H 0.09866 0.95848 0.05496 0.0
H1850 H 0.09381 0.98105 0.07847 0.0
H1851 H 0.0975 0.01297 0.07576 0.0
H1852 H 0.94444 0.23643 0.8879 0.0
H1853 H 0.91983 0.24614 0.86841 0.0
H1854 H 0.94356 0.23015 0.82008 0.0
H1855 H 0.96839 0.22043 0.83957 0.0
H1856 H 0.93889 0.26623 0.8228 0.0
H1857 H 0.87476 0.22108 0.83386 0.0
H1858 H 0.88879 0.22986 0.85482 0.0
H1859 H 0.89741 0.21537 0.83889 0.0
C1860 C 0.94412 0.23448 0.87311 0.0
C1861 C 0.95834 0.22774 0.86523 0.0
C1862 C 0.93002 0.23999 0.862 0.0
C1863 C 0.92988 0.23878 0.84283 0.0
C1864 C 0.94345 0.2311 0.83486 0.0
H1865 H 0.84913 0.2779 0.76809 0.0
H1866 H 0.87488 0.26355 0.77923 0.0
C1867 C 0.95754 0.22548 0.846 0.0
C1868 C 0.91686 0.24749 0.83146 0.0
H1869 H 0.87111 0.24908 0.82196 0.0
C1870 C 0.92406 0.2623 0.82231 0.0
C1871 C 0.89757 0.24234 0.83096 0.0
C1872 C 0.88914 0.22619 0.84002 0.0
C1873 C 0.91238 0.27258 0.81331 0.0
C1874 C 0.89318 0.26782 0.81348 0.0
C1875 C 0.88593 0.25266 0.82201 0.0
C1876 C 0.88024 0.27875 0.80552 0.0
C1877 C 0.92049 0.28874 0.8041 0.0
C1878 C 0.87532 0.29243 0.81648 0.0
C1879 C 0.8606 0.30066 0.81022 0.0
C1880 C 0.85056 0.29518 0.79296 0.0
C1881 C 0.8565 0.28236 0.7815 0.0
C1882 C 0.87118 0.27413 0.7878 0.0
H1883 H 0.93571 0.29011 0.80431 0.0
H1884 H 0.91418 0.28795 0.78962 0.0
H1885 H 0.91721 0.30086 0.81119 0.0
H1886 H 0.88223 0.29607 0.83023 0.0
H1887 H 0.85642 0.31051 0.81936 0.0
H1888 H 0.57456 0.27302 0.6489 0.0
H1889 H 0.57067 0.24263 0.63506 0.0
H1890 H 0.56325 0.26179 0.58106 0.0
H1891 H 0.5669 0.29234 0.59484 0.0
H1892 H 0.53775 0.22972 0.5878 0.0
H1893 H 0.61172 0.22613 0.60708 0.0
H1894 H 0.59941 0.23257 0.62555 0.0
H1895 H 0.60315 0.24692 0.60723 0.0
C1896 C 0.57203 0.27076 0.63408 0.0
C1897 C 0.57123 0.28501 0.62289 0.0
C1898 C 0.56981 0.25343 0.62623 0.0
C1899 C 0.56692 0.25012 0.6071 0.0
C1900 C 0.56552 0.2642 0.59588 0.0
H1901 H 0.5604 0.15815 0.53116 0.0
H1902 H 0.55691 0.1868 0.54594 0.0
C1903 C 0.56767 0.28158 0.60374 0.0
C1904 C 0.56623 0.23203 0.59878 0.0
H1905 H 0.59266 0.20001 0.59339 0.0
C1906 C 0.54971 0.22316 0.58897 0.0
C1907 C 0.58189 0.22363 0.60047 0.0
C1908 C 0.60011 0.23281 0.61052 0.0
C1909 C 0.54838 0.20586 0.5809 0.0
C1910 C 0.56413 0.19753 0.58242 0.0
C1911 C 0.5806 0.20644 0.59232 0.0
C1912 C 0.56416 0.17973 0.5736 0.0
C1913 C 0.5301 0.19656 0.57114 0.0
C1914 C 0.56956 0.16642 0.58425 0.0
C1915 C 0.5719 0.15029 0.57584 0.0
C1916 C 0.56879 0.14721 0.55665 0.0
C1917 C 0.56277 0.16027 0.546 0.0
C1918 C 0.56064 0.17653 0.55443 0.0
H1919 H 0.51844 0.20243 0.57585 0.0
H1920 H 0.53003 0.19802 0.55617 0.0
H1921 H 0.52778 0.18214 0.57335 0.0
H1922 H 0.57237 0.16868 0.59906 0.0
H1923 H 0.57633 0.14027 0.5843 0.0
H1924 H 0.56693 0.76738 0.39979 0.0
H1925 H 0.59627 0.77725 0.38773 0.0
H1926 H 0.58842 0.72848 0.35308 0.0
H1927 H 0.55884 0.71868 0.36476 0.0
H1928 H 0.62817 0.76323 0.38701 0.0
H1929 H 0.5946 0.76687 0.31669 0.0
H1930 H 0.58178 0.76426 0.33632 0.0
H1931 H 0.58874 0.7453 0.32508 0.0
C1932 C 0.57151 0.75872 0.38966 0.0
C1933 C 0.56055 0.74237 0.383 0.0
C1934 C 0.58826 0.76437 0.38283 0.0
C1935 C 0.59425 0.75375 0.36927 0.0
C1936 C 0.58376 0.73704 0.36325 0.0
H1937 H 0.69892 0.75419 0.33052 0.0
H1938 H 0.67286 0.75198 0.34878 0.0
C1939 C 0.56695 0.73142 0.36998 0.0
C1940 C 0.61121 0.76031 0.36099 0.0
H1941 H 0.62721 0.7679 0.31974 0.0
C1942 C 0.62801 0.76444 0.37233 0.0
C1943 C 0.61081 0.76241 0.34195 0.0
C1944 C 0.59299 0.75967 0.32933 0.0
C1945 C 0.64464 0.76976 0.36492 0.0
C1946 C 0.64438 0.77048 0.34566 0.0
C1947 C 0.62744 0.76717 0.33449 0.0
C1948 C 0.66142 0.77348 0.3365 0.0
C1949 C 0.66223 0.77457 0.3778 0.0
C1950 C 0.66353 0.78613 0.32336 0.0
C1951 C 0.67812 0.78706 0.3126 0.0
C1952 C 0.69092 0.77549 0.31497 0.0
C1953 C 0.68927 0.76335 0.32861 0.0
C1954 C 0.6745 0.76221 0.33915 0.0
H1955 H 0.65946 0.77971 0.39154 0.0
H1956 H 0.66849 0.76248 0.37973 0.0
H1957 H 0.67236 0.78475 0.3723 0.0
H1958 H 0.65355 0.7949 0.32105 0.0
H1959 H 0.67926 0.79661 0.30222 0.0
H1960 H 0.06246 0.23722 0.45939 0.0
H1961 H 0.06023 0.20821 0.47292 0.0
H1962 H 0.04714 0.18156 0.41884 0.0
H1963 H 0.0495 0.21041 0.4054 0.0
H1964 H 0.03494 0.17968 0.4761 0.0
H1965 H 0.08396 0.15225 0.43556 0.0
H1966 H 0.0813 0.17526 0.43532 0.0
H1967 H 0.06526 0.15835 0.4212 0.0
C1968 C 0.05922 0.22526 0.45023 0.0
C1969 C 0.05636 0.22685 0.43096 0.0
C1970 C 0.05787 0.20832 0.45812 0.0
C1971 C 0.05385 0.19179 0.4473 0.0
C1972 C 0.05082 0.19346 0.42805 0.0
H1973 H 0.04155 0.07433 0.46964 0.0
H1974 H 0.04337 0.10326 0.45606 0.0
C1975 C 0.05204 0.21035 0.42019 0.0
C1976 C 0.05247 0.17321 0.45598 0.0
H1977 H 0.06624 0.13186 0.45282 0.0
C1978 C 0.04199 0.1694 0.47091 0.0
C1979 C 0.06129 0.15895 0.44977 0.0
C1980 C 0.07373 0.1614 0.43472 0.0
C1981 C 0.03975 0.15253 0.47908 0.0
C1982 C 0.04867 0.13828 0.47296 0.0
C1983 C 0.05917 0.14211 0.45801 0.0
C1984 C 0.04736 0.11969 0.48168 0.0
C1985 C 0.02699 0.15006 0.49386 0.0
C1986 C 0.04918 0.11799 0.50098 0.0
C1987 C 0.04796 0.10113 0.50888 0.0
C1988 C 0.04507 0.08463 0.49813 0.0
C1989 C 0.04358 0.08625 0.47882 0.0
C1990 C 0.04473 0.10318 0.47089 0.0
H1991 H 0.01653 0.15896 0.49253 0.0
H1992 H 0.01964 0.13613 0.49339 0.0
H1993 H 0.03514 0.15354 0.5075 0.0
H1994 H 0.05194 0.12985 0.51026 0.0
H1995 H 0.04956 0.10112 0.52372 0.0
H1996 H 0.60914 0.30115 0.15318 0.0
H1997 H 0.63972 0.30149 0.17009 0.0
H1998 H 0.61384 0.27928 0.21555 0.0
H1999 H 0.5833 0.27905 0.19876 0.0
H2000 H 0.65775 0.31828 0.20357 0.0
H2001 H 0.65045 0.24567 0.20925 0.0
H2002 H 0.63479 0.25534 0.19396 0.0
H2003 H 0.63239 0.25551 0.21812 0.0
C2004 C 0.60985 0.29631 0.16679 0.0
C2005 C 0.5933 0.29003 0.17434 0.0
C2006 C 0.62756 0.29652 0.17658 0.0
C2007 C 0.6297 0.29015 0.1943 0.0
C2008 C 0.61314 0.28398 0.2019 0.0
H2009 H 0.72692 0.27407 0.27186 0.0
H2010 H 0.69611 0.27454 0.25597 0.0
C2011 C 0.59543 0.28398 0.19221 0.0
C2012 C 0.64898 0.29019 0.20477 0.0
H2013 H 0.67695 0.26336 0.22568 0.0
C2014 C 0.66186 0.30618 0.20828 0.0
C2015 C 0.65491 0.27464 0.21139 0.0
C2016 C 0.64253 0.25677 0.2079 0.0
C2017 C 0.67971 0.30714 0.21825 0.0
C2018 C 0.68585 0.29151 0.2246 0.0
C2019 C 0.67289 0.27551 0.22108 0.0
C2020 C 0.70533 0.29142 0.23477 0.0
C2021 C 0.69146 0.32528 0.22248 0.0
C2022 C 0.72167 0.30045 0.22861 0.0
C2023 C 0.73948 0.30043 0.23799 0.0
C2024 C 0.74211 0.29102 0.25388 0.0
C2025 C 0.72587 0.28163 0.25987 0.0
C2026 C 0.70798 0.28185 0.25059 0.0
H2027 H 0.68283 0.33588 0.22284 0.0
H2028 H 0.7001 0.32618 0.23589 0.0
H2029 H 0.70059 0.32802 0.21149 0.0
H2030 H 0.7208 0.30741 0.2162 0.0
H2031 H 0.75133 0.30766 0.2325 0.0
H2032 H 0.55931 0.8456 0.90362 0.0
H2033 H 0.55789 0.87575 0.9162 0.0
H2034 H 0.55767 0.85718 0.97048 0.0
H2035 H 0.55939 0.82705 0.9579 0.0
H2036 H 0.53497 0.89246 0.9323 0.0
H2037 H 0.59492 0.90009 0.98503 0.0
H2038 H 0.58983 0.88162 0.96788 0.0
H2039 H 0.57777 0.8813 0.98805 0.0
C2040 C 0.55912 0.8478 0.91831 0.0
C2041 C 0.55968 0.83328 0.9295 0.0
C2042 C 0.55823 0.86538 0.92563 0.0
C2043 C 0.55802 0.86972 0.94469 0.0
C2044 C 0.55838 0.85511 0.95588 0.0
H2045 H 0.55422 0.9699 0.01523 0.0
H2046 H 0.5556 0.93977 1.00268 0.0
C2047 C 0.55922 0.83749 0.94853 0.0
C2048 C 0.55704 0.88909 0.95249 0.0
H2049 H 0.57625 0.92241 0.98632 0.0
C2050 C 0.54417 0.89888 0.94408 0.0
C2051 C 0.56872 0.8983 0.96803 0.0
C2052 C 0.58371 0.8899 0.97769 0.0
C2053 C 0.54236 0.91655 0.95068 0.0
C2054 C 0.55412 0.92584 0.96617 0.0
C2055 C 0.567 0.91602 0.97456 0.0
C2056 C 0.5532 0.94525 0.97397 0.0
C2057 C 0.52709 0.92471 0.94119 0.0
C2058 C 0.55163 0.95962 0.96268 0.0
C2059 C 0.55064 0.9772 0.97 0.0
C2060 C 0.55149 0.98173 0.98915 0.0
C2061 C 0.55346 0.96751 1.00046 0.0
C2062 C 0.5543 0.94991 0.99314 0.0
H2063 H 0.51578 0.91435 0.93429 0.0
H2064 H 0.52115 0.93315 0.95101 0.0
H2065 H 0.53266 0.93303 0.93044 0.0
H2066 H 0.55143 0.95741 0.94797 0.0
H2067 H 0.54934 0.98738 0.96049 0.0
H2068 H 0.97037 0.76535 0.6529 0.0
H2069 H 0.9427 0.76371 0.66931 0.0
H2070 H 0.97365 0.79994 0.71269 0.0
H2071 H 1.00128 0.80148 0.6964 0.0
H2072 H 0.93274 0.75245 0.70269 0.0
H2073 H 0.9293 0.82413 0.70515 0.0
H2074 H 0.94417 0.81441 0.69096 0.0
H2075 H 0.95099 0.81948 0.71518 0.0
C2076 C 0.97142 0.77307 0.66591 0.0
C2077 C 0.98861 0.78365 0.67295 0.0
C2078 C 0.95532 0.77209 0.67548 0.0
C2079 C 0.95526 0.78189 0.69251 0.0
C2080 C 0.97249 0.7924 0.69957 0.0
H2081 H 0.86932 0.79852 0.76866 0.0
H2082 H 0.89721 0.79925 0.75289 0.0
C2083 C 0.98864 0.7932 0.69013 0.0
C2084 C 0.93757 0.78095 0.70282 0.0
H2085 H 0.90902 0.80654 0.72255 0.0
C2086 C 0.92763 0.76439 0.70688 0.0
C2087 C 0.93025 0.79622 0.70883 0.0
C2088 C 0.93908 0.81457 0.7047 0.0
C2089 C 0.91162 0.76272 0.71674 0.0
C2090 C 0.9041 0.778 0.72256 0.0
C2091 C 0.91409 0.79456 0.71846 0.0
C2092 C 0.88631 0.77719 0.73282 0.0
C2093 C 0.90347 0.74436 0.7215 0.0
C2094 C 0.86983 0.76475 0.72742 0.0
C2095 C 0.85366 0.76418 0.73677 0.0
C2096 C 0.8527 0.77618 0.75201 0.0
C2097 C 0.86904 0.78879 0.75728 0.0
C2098 C 0.88528 0.78928 0.748 0.0
H2099 H 0.91395 0.73546 0.72218 0.0
H2100 H 0.89774 0.74473 0.73491 0.0
H2101 H 0.89227 0.7384 0.71063 0.0
H2102 H 0.86917 0.75553 0.71555 0.0
H2103 H 0.84165 0.75437 0.73171 0.0
H2104 H 0.13546 0.04754 0.86687 0.0
H2105 H 0.11775 0.0438 0.89328 0.0
H2106 H 0.16629 0.03489 0.92677 0.0
H2107 H 0.18416 0.03872 0.90052 0.0
H2108 H 0.11308 0.01362 0.91746 0.0
H2109 H 0.14829 0.07861 0.95216 0.0
H2110 H 0.14838 0.07305 0.92792 0.0
H2111 H 0.16343 0.06429 0.94448 0.0
C2112 C 0.14233 0.04475 0.87986 0.0
C2113 C 0.16119 0.04357 0.88177 0.0
C2114 C 0.13219 0.04252 0.89483 0.0
C2115 C 0.14083 0.03916 0.91183 0.0
C2116 C 0.15952 0.0376 0.91369 0.0
H2117 H 0.11677 0.03881 0.02235 0.0
H2118 H 0.12869 0.03227 0.99334 0.0
C2119 C 0.16968 0.03982 0.89875 0.0
C2120 C 0.1306 0.03821 0.92797 0.0
H2121 H 0.12931 0.05971 0.96954 0.0
C2122 C 0.1165 0.02366 0.92888 0.0
C2123 C 0.13508 0.05153 0.94257 0.0
C2124 C 0.1495 0.06785 0.94175 0.0
C2125 C 0.10716 0.02175 0.94457 0.0
C2126 C 0.1121 0.03481 0.95941 0.0
C2127 C 0.12584 0.04958 0.95819 0.0
C2128 C 0.10332 0.03382 0.9765 0.0
C2129 C 0.09245 1.0057 0.94537 0.0
C2130 C 0.08487 0.03604 0.97654 0.0
C2131 C 0.078 0.03965 0.99313 0.0
C2132 C 0.08968 0.04141 0.00969 0.0
C2133 C 0.10766 0.03781 0.00969 0.0
C2134 C 0.11441 0.03396 0.99319 0.0
H2135 H 0.09304 0.9951 0.93454 0.0
H2136 H 0.09383 1.00016 0.95902 0.0
H2137 H 0.07868 1.00972 0.9433 0.0
H2138 H 0.07623 0.03627 0.96375 0.0
H2139 H 0.06409 0.04245 0.99286 0.0
H2140 H 0.77905 0.35262 0.58469 0.0
H2141 H 0.77913 0.34416 0.61647 0.0
H2142 H 0.83824 0.34825 0.62111 0.0
H2143 H 0.8383 0.35654 0.58927 0.0
H2144 H 0.80108 0.31383 0.63441 0.0
H2145 H 0.82005 0.38432 0.66314 0.0
H2146 H 0.80731 0.37857 0.64067 0.0
H2147 H 0.83121 0.37666 0.64418 0.0
C2148 C 0.79203 0.35141 0.59235 0.0
C2149 C 0.80867 0.35522 0.58443 0.0
C2150 C 0.79205 0.34664 0.61052 0.0
C2151 C 0.8087 0.34575 0.62115 0.0
C2152 C 0.82526 0.34894 0.61313 0.0
H2153 H 0.82881 0.33656 0.74028 0.0
H2154 H 0.83215 0.34398 0.70843 0.0
C2155 C 0.82525 0.35358 0.5949 0.0
C2156 C 0.80875 0.34203 0.6408 0.0
H2157 H 0.81476 0.36242 0.6842 0.0
C2158 C 0.80412 0.32441 0.64533 0.0
C2159 C 0.81298 0.35586 0.65498 0.0
C2160 C 0.81816 0.37498 0.65067 0.0
C2161 C 0.80345 0.32024 0.66371 0.0
C2162 C 0.80691 0.33415 0.67794 0.0
C2163 C 0.81198 0.35176 0.67337 0.0
C2164 C 0.80472 0.33067 0.69749 0.0
C2165 C 0.79932 0.30091 0.66766 0.0
C2166 C 0.78801 0.32137 0.70212 0.0
C2167 C 0.78619 0.31696 0.72014 0.0
C2168 C 0.80088 0.32213 0.73413 0.0
C2169 C 0.81726 0.33239 0.72979 0.0
C2170 C 0.81919 0.33657 0.71159 0.0
H2171 H 0.8032 0.29217 0.65661 0.0
H2172 H 0.80675 0.29846 0.68094 0.0
H2173 H 0.78428 0.29701 0.66832 0.0
H2174 H 0.77639 0.31726 0.6917 0.0
H2175 H 0.77327 0.3093 0.7231 0.0
H2176 H 0.49232 0.10391 0.37048 0.0
H2177 H 0.50242 0.08707 0.39575 0.0
H2178 H 0.55339 0.0848 0.37257 0.0
H2179 H 0.54361 0.10196 0.3475 0.0
H2180 H 0.50842 0.05216 0.38426 0.0
H2181 H 0.56917 0.09096 0.42835 0.0
H2182 H 0.55341 0.10156 0.41413 0.0
H2183 H 0.56993 0.09052 0.4039 0.0
C2184 C 0.50606 0.10061 0.37125 0.0
C2185 C 0.51702 0.10394 0.35685 0.0
C2186 C 0.51173 0.09084 0.38559 0.0
C2187 C 0.52847 0.08447 0.38577 0.0
C2188 C 0.54045 0.08966 0.37267 0.0
H2189 H 0.56537 0.01888 0.46949 0.0
H2190 H 0.56284 0.02764 0.43777 0.0
C2191 C 0.53484 0.09955 0.35839 0.0
C2192 C 0.53196 0.07034 0.39785 0.0
H2193 H 0.55917 0.06155 0.43522 0.0
C2194 C 0.5196 0.05413 0.39535 0.0
C2195 C 0.54687 0.07279 0.41183 0.0
C2196 C 0.56059 0.08991 0.41487 0.0
C2197 C 0.52115 0.0406 0.40721 0.0
C2198 C 0.53526 0.04355 0.42206 0.0
C2199 C 0.54837 0.05929 0.42377 0.0
C2200 C 0.53478 0.03238 0.43783 0.0
C2201 C 0.50738 0.02353 0.40401 0.0
C2202 C 0.51948 0.03114 0.44787 0.0
C2203 C 0.52089 0.02603 0.4658 0.0
C2204 C 0.53759 0.02211 0.47383 0.0
C2205 C 0.55227 0.02154 0.46327 0.0
C2206 C 0.55086 0.02663 0.44526 0.0
H2207 H 0.5029 0.02033 0.38911 0.0
H2208 H 0.51314 0.01217 0.40966 0.0
H2209 H 0.49494 0.02514 0.41081 0.0
H2210 H 0.50711 0.03592 0.44264 0.0
H2211 H 0.5096 0.02691 0.47397 0.0
H2212 H 0.8024 0.70499 0.06818 0.0
H2213 H 0.80052 0.71904 0.09885 0.0
H2214 H 0.83293 0.68294 0.12349 0.0
H2215 H 0.83448 0.66862 0.0929 0.0
H2216 H 0.78595 0.70424 0.13153 0.0
H2217 H 0.86025 0.73191 0.14795 0.0
H2218 H 0.84998 0.72489 0.12474 0.0
H2219 H 0.85491 0.70865 0.14043 0.0
C2220 C 0.80925 0.7 0.08006 0.0
C2221 C 0.81871 0.6855 0.07755 0.0
C2222 C 0.8081 0.70812 0.09784 0.0
C2223 C 0.81672 0.70247 0.11409 0.0
C2224 C 0.82627 0.68805 0.11159 0.0
H2225 H 0.83195 0.74151 0.23385 0.0
H2226 H 0.83381 0.72725 0.20339 0.0
C2227 C 0.82712 0.67971 0.09384 0.0
C2228 C 0.81543 0.71133 0.1334 0.0
H2229 H 0.84136 0.73473 0.17164 0.0
C2230 C 0.79814 0.71096 0.14018 0.0
C2231 C 0.8311 0.72011 0.14536 0.0
C2232 C 0.85014 0.72161 0.13931 0.0
C2233 C 0.79615 0.71847 0.15808 0.0
C2234 C 0.81179 0.72766 0.16997 0.0
C2235 C 0.82911 0.72798 0.16311 0.0
C2236 C 0.81057 0.73678 0.1893 0.0
C2237 C 0.77711 0.7156 0.16426 0.0
C2238 C 0.79716 0.74757 0.19254 0.0
C2239 C 0.79589 0.75563 0.21029 0.0
C2240 C 0.80824 0.75378 0.22587 0.0
C2241 C 0.82199 0.74342 0.22259 0.0
C2242 C 0.82311 0.73516 0.20485 0.0
H2243 H 0.76836 0.70347 0.15707 0.0
H2244 H 0.77762 0.71424 0.17928 0.0
H2245 H 0.7703 0.72708 0.16084 0.0
H2246 H 0.78761 0.75008 0.18123 0.0
H2247 H 0.78521 0.76358 0.21171 0.0
H2248 H 0.19058 0.04335 0.77049 0.0
H2249 H 0.17506 0.03848 0.73903 0.0
H2250 H 0.12236 0.03681 0.75997 0.0
H2251 H 0.13767 0.04129 0.79135 0.0
H2252 H 0.12249 1.01046 0.73143 0.0
H2253 H 0.15313 0.07836 0.71438 0.0
H2254 H 0.16914 0.06435 0.7222 0.0
H2255 H 0.15413 0.07178 0.73764 0.0
C2256 C 0.17569 0.04192 0.76834 0.0
C2257 C 0.16531 0.04292 0.78328 0.0
C2258 C 0.16688 0.03912 0.75043 0.0
C2259 C 0.14763 0.03748 0.74728 0.0
C2260 C 0.13724 0.03802 0.76219 0.0
H2261 H 0.07559 0.06403 0.66113 0.0
H2262 H 0.09359 0.05936 0.6896 0.0
C2263 C 0.14601 0.04071 0.78007 0.0
C2264 C 0.13819 0.0363 0.7285 0.0
H2265 H 0.132 0.06098 0.69185 0.0
C2266 C 0.12466 0.02138 0.72263 0.0
C2267 C 0.14109 0.05068 0.71723 0.0
C2268 C 0.15505 0.06728 0.72316 0.0
C2269 C 0.11342 0.02073 0.70595 0.0
C2270 C 0.11605 0.03531 0.69493 0.0
C2271 C 0.13007 0.04988 0.70046 0.0
C2272 C 0.10361 0.03649 0.67826 0.0
C2273 C 0.09833 1.0049 0.70062 0.0
C2274 C 0.10306 0.02491 0.66265 0.0
C2275 C 0.09257 0.0274 0.6464 0.0
C2276 C 0.08268 0.04162 0.64553 0.0
C2277 C 0.08286 0.05284 0.66141 0.0
C2278 C 0.09324 0.05027 0.67763 0.0
H2279 H 0.0961 0.99625 0.71216 0.0
H2280 H 0.08515 1.0093 0.696 0.0
H2281 H 0.10213 0.99682 0.68901 0.0
H2282 H 0.11116 0.01432 0.66287 0.0
H2283 H 0.09247 0.0184 0.63443 0.0
H2284 H 0.77501 0.35084 0.48232 0.0
H2285 H 0.77115 0.34038 0.44969 0.0
H2286 H 0.83012 0.3515 0.44878 0.0
H2287 H 0.83408 0.36175 0.48138 0.0
H2288 H 0.78146 0.35922 0.41994 0.0
H2289 H 0.8169 0.30088 0.42518 0.0
H2290 H 0.80987 0.31202 0.44496 0.0
H2291 H 0.8306 0.32126 0.43554 0.0
C2292 C 0.78717 0.35081 0.47523 0.0
C2293 C 0.80486 0.35701 0.48452 0.0
C2294 C 0.78494 0.34492 0.45654 0.0
C2295 C 0.80034 0.34497 0.44675 0.0
C2296 C 0.81803 0.351 0.45606 0.0
H2297 H 0.80235 0.33841 0.32709 0.0
H2298 H 0.80379 0.34903 0.35949 0.0
C2299 C 0.82027 0.3569 0.47473 0.0
C2300 C 0.7979 0.33924 0.42672 0.0
H2301 H 0.80951 0.30958 0.39514 0.0
C2302 C 0.78754 0.34833 0.41452 0.0
C2303 C 0.8057 0.32493 0.41961 0.0
C2304 C 0.81625 0.31408 0.432 0.0
C2305 C 0.78497 0.34365 0.39545 0.0
C2306 C 0.79315 0.32963 0.38831 0.0
C2307 C 0.80334 0.32042 0.40054 0.0
C2308 C 0.79094 0.32384 0.36829 0.0
C2309 C 0.77321 0.35355 0.38317 0.0
C2310 C 0.7832 0.30618 0.36233 0.0
C2311 C 0.78241 0.30007 0.34388 0.0
C2312 C 0.78942 0.31144 0.33082 0.0
C2313 C 0.79665 0.32931 0.33667 0.0
C2314 C 0.79747 0.33542 0.35523 0.0
H2315 H 0.76427 0.36071 0.39108 0.0
H2316 H 0.7823 0.36351 0.37627 0.0
H2317 H 0.76435 0.34432 0.37238 0.0
H2318 H 0.77805 0.29698 0.37208 0.0
H2319 H 0.77671 0.28624 0.33997 0.0
H2320 H 0.51355 0.10685 0.24718 0.0
H2321 H 0.51716 0.08982 0.21896 0.0
H2322 H 0.54143 0.05219 0.2509 0.0
H2323 H 0.53822 0.06926 0.27915 0.0
H2324 H 0.55579 0.05795 0.21696 0.0
H2325 H 0.47927 0.04274 0.20999 0.0
H2326 H 0.48851 0.06609 0.21144 0.0
H2327 H 0.49286 0.05327 0.23073 0.0
C2328 C 0.52039 0.09539 0.24818 0.0
C2329 C 0.52517 0.08908 0.2653 0.0
C2330 C 0.52222 0.08557 0.23208 0.0
C2331 C 0.52885 0.06945 0.23304 0.0
C2332 C 0.53596 0.06445 0.25 0.0
H2333 H 0.53583 0.99232 0.14249 0.0
H2334 H 0.5308 1.0019 0.17379 0.0
C2335 C 0.5342 0.07428 0.2661 0.0
C2336 C 0.52654 0.05692 0.21671 0.0
H2337 H 0.49384 0.03323 0.18451 0.0
C2338 C 0.54228 0.05234 0.20994 0.0
C2339 C 0.5088 0.04939 0.20797 0.0
C2340 C 0.49137 0.05296 0.21549 0.0
C2341 C 0.54082 0.04127 0.19383 0.0
C2342 C 0.52312 0.03449 0.18454 0.0
C2343 C 0.50733 0.03841 0.1918 0.0
C2344 C 0.52111 0.02588 0.16589 0.0
C2345 C 0.55825 0.03772 0.18628 0.0
C2346 C 0.51602 0.0356 0.15118 0.0
C2347 C 0.51894 0.03027 0.13345 0.0
C2348 C 0.52693 0.01509 0.13022 0.0
C2349 C 0.53004 1.00428 0.14472 0.0
C2350 C 0.52711 1.00967 0.16252 0.0
H2351 H 0.57084 0.04579 0.19402 0.0
H2352 H 0.55926 0.02346 0.18712 0.0
H2353 H 0.55794 0.04066 0.17161 0.0
H2354 H 0.51133 0.04815 0.15361 0.0
H2355 H 0.51648 0.03895 0.12263 0.0
H2356 H 0.83261 0.70919 0.98022 0.0
H2357 H 0.83123 0.72308 0.95071 0.0
H2358 H 0.79913 0.67457 0.92427 0.0
H2359 H 0.80024 0.66086 0.95371 0.0
H2360 H 0.84291 0.71914 0.91817 0.0
H2361 H 0.76724 0.70619 0.90245 0.0
H2362 H 0.77835 0.70232 0.92451 0.0
H2363 H 0.77621 0.68601 0.90534 0.0
C2364 C 0.82512 0.70141 0.9682 0.0
C2365 C 0.81644 0.68368 0.96993 0.0
C2366 C 0.82435 0.70947 0.95102 0.0
C2367 C 0.81468 0.70038 0.93457 0.0
C2368 C 0.80624 0.68255 0.93631 0.0
H2369 H 0.79388 0.72567 0.81622 0.0
H2370 H 0.79593 0.71193 0.84571 0.0
C2371 C 0.80704 0.6745 0.95344 0.0
C2372 C 0.81376 0.70926 0.91585 0.0
H2373 H 0.78428 0.71615 0.87809 0.0
C2374 C 0.82996 0.71848 0.9096 0.0
C2375 C 0.79711 0.70881 0.90392 0.0
C2376 C 0.77872 0.70047 0.90944 0.0
C2377 C 0.83008 0.7265 0.89233 0.0
C2378 C 0.81343 0.72601 0.88038 0.0
C2379 C 0.79724 0.71681 0.88666 0.0
C2380 C 0.81248 0.73477 0.8616 0.0
C2381 C 0.84845 0.7349 0.88683 0.0
C2382 C 0.82081 0.7526 0.85968 0.0
C2383 C 0.81967 0.76059 0.84251 0.0
C2384 C 0.81006 0.75131 0.82615 0.0
C2385 C 0.80163 0.73352 0.82808 0.0
C2386 C 0.80273 0.72555 0.84527 0.0
H2387 H 0.85997 0.72929 0.8939 0.0
H2388 H 0.84886 0.73299 0.87177 0.0
H2389 H 0.85085 0.74938 0.89084 0.0
H2390 H 0.82799 0.76067 0.87164 0.0
H2391 H 0.82621 0.77431 0.84218 0.0
H2392 H 0.84657 0.1839 1.00376 0.0
H2393 H 0.87328 0.16872 1.00376 0.0
H2394 H 0.85037 0.13297 0.04224 0.0
H2395 H 0.82354 0.14793 0.04215 0.0
H2396 H 0.89852 0.16471 0.03347 0.0
H2397 H 0.86233 0.09905 1.00172 0.0
H2398 H 0.85194 0.11882 1.00106 0.0
H2399 H 0.85252 0.1068 0.02144 0.0
C2400 C 0.84719 0.17275 0.01215 0.0
C2401 C 0.83295 0.16705 0.02291 0.0
C2402 C 0.86245 0.1641 0.01214 0.0
C2403 C 0.86367 0.14956 0.02278 0.0
C2404 C 0.84952 0.14393 0.03363 0.0
H2405 H 0.94462 0.08277 0.04917 0.0
H2406 H 0.91795 0.09801 0.04684 0.0
C2407 C 0.83426 0.15256 0.03366 0.0
C2408 C 0.88004 0.14067 0.02303 0.0
H2409 H 0.89341 0.10054 0.01477 0.0
C2410 C 0.89744 0.15072 0.02925 0.0
C2411 C 0.87857 0.12241 0.0175 0.0
C2412 C 0.86037 0.11115 0.00989 0.0
C2413 C 0.91337 0.14288 0.03055 0.0
C2414 C 0.91185 0.12458 0.02525 0.0
C2415 C 0.89449 0.11456 0.01886 0.0
C2416 C 0.9281 0.1155 0.02657 0.0
C2417 C 0.93161 0.15412 0.03806 0.0
C2418 C 0.94255 0.12021 0.01581 0.0
C2419 C 0.95786 0.11159 0.01717 0.0
C2420 C 0.95895 0.09808 0.02929 0.0
C2421 C 0.94434 0.09332 0.03993 0.0
C2422 C 0.92903 0.10191 0.03852 0.0
H2423 H 0.9298 0.1668 0.04525 0.0
H2424 H 0.93952 0.14678 0.04777 0.0
H2425 H 0.93993 0.1574 0.02655 0.0
H2426 H 0.94196 0.1305 0.00631 0.0
H2427 H 0.96892 0.11561 0.00886 0.0
H2428 H 0.34651 0.41561 0.01633 0.0
H2429 H 0.37795 0.43148 0.01457 0.0
H2430 H 0.36559 0.47707 0.04488 0.0
H2431 H 0.33396 0.46131 0.0464 0.0
H2432 H 0.3912 0.46488 0.99913 0.0
H2433 H 0.41469 0.46941 0.07368 0.0
H2434 H 0.39452 0.45405 0.06349 0.0
H2435 H 0.39343 0.47722 0.06745 0.0
C2436 C 0.35038 0.42902 0.02271 0.0
C2437 C 0.33728 0.43694 0.0316 0.0
C2438 C 0.36858 0.4382 0.02164 0.0
C2439 C 0.37477 0.45567 0.02973 0.0
C2440 C 0.3617 0.46362 0.03866 0.0
H2441 H 0.4844 0.52761 0.04651 0.0
H2442 H 0.4525 0.5128 0.04701 0.0
C2443 C 0.34338 0.45453 0.03948 0.0
C2444 C 0.39459 0.46545 0.02859 0.0
H2445 H 0.43534 0.48405 0.05477 0.0
C2446 C 0.40081 0.46901 0.01136 0.0
C2447 C 0.40755 0.47123 0.04433 0.0
C2448 C 0.40238 0.46772 0.06332 0.0
C2449 C 0.41891 0.47826 0.00947 0.0
C2450 C 0.43212 0.48374 0.02522 0.0
C2451 C 0.4258 0.48011 0.04247 0.0
C2452 C 0.4522 0.49335 0.02428 0.0
C2453 C 0.42322 0.48272 0.99044 0.0
C2454 C 0.46369 0.4879 0.01142 0.0
C2455 C 0.48212 0.49681 0.01083 0.0
C2456 C 0.49028 0.51138 0.02338 0.0
C2457 C 0.47894 0.51664 0.03642 0.0
C2458 C 0.46043 0.50795 0.03679 0.0
H2459 H 0.41048 0.48351 0.98132 0.0
H2460 H 0.43275 0.49559 0.99071 0.0
H2461 H 0.42969 0.47204 0.98425 0.0
H2462 H 0.45861 0.47638 1.00195 0.0
H2463 H 0.4902 0.49189 1.00078 0.0
H2464 H 0.34579 0.54959 0.72108 0.0
H2465 H 0.33276 0.57502 0.73267 0.0
H2466 H 0.38733 0.60649 0.74238 0.0
H2467 H 0.40038 0.58135 0.73075 0.0
H2468 H 0.34367 0.5909 0.76939 0.0
H2469 H 0.35607 0.63986 0.71685 0.0
H2470 H 0.35606 0.61641 0.71217 0.0
H2471 H 0.37579 0.63033 0.72483 0.0
C2472 C 0.35491 0.56207 0.72526 0.0
C2473 C 0.37406 0.56353 0.7251 0.0
C2474 C 0.34749 0.57651 0.73193 0.0
C2475 C 0.35912 0.59257 0.73825 0.0
C2476 C 0.37814 0.59427 0.7373 0.0
H2477 H 0.34412 0.69189 0.79213 0.0
H2478 H 0.35745 0.66645 0.78138 0.0
C2479 C 0.38555 0.57987 0.73074 0.0
C2480 C 0.35172 0.60703 0.74743 0.0
H2481 H 0.34709 0.65047 0.74505 0.0
C2482 C 0.34425 0.60389 0.76403 0.0
C2483 C 0.35286 0.62398 0.74047 0.0
C2484 C 0.36049 0.62787 0.72253 0.0
C2485 C 0.33794 0.61741 0.77398 0.0
C2486 C 0.33889 0.63429 0.76693 0.0
C2487 C 0.34648 0.63746 0.7504 0.0
C2488 C 0.33123 0.64868 0.77592 0.0
C2489 C 0.33061 0.61365 0.79209 0.0
C2490 C 0.31217 0.64687 0.77673 0.0
C2491 C 0.30451 0.66135 0.78272 0.0
C2492 C 0.31583 0.67787 0.78789 0.0
C2493 C 0.33505 0.67936 0.78798 0.0
C2494 C 0.34269 0.66487 0.78194 0.0
H2495 H 0.33519 0.60174 0.7978 0.0
H2496 H 0.33514 0.62521 0.80232 0.0
H2497 H 0.3153 0.61114 0.79001 0.0
H2498 H 0.30312 0.63451 0.77183 0.0
H2499 H 0.28965 0.65989 0.78226 0.0
H2500 H 0.22509 0.67181 0.53323 0.0
H2501 H 0.19624 0.65043 0.53 0.0
H2502 H 0.21852 0.61709 0.49165 0.0
H2503 H 0.24773 0.63802 0.4956 0.0
H2504 H 0.17128 0.6388 0.50254 0.0
H2505 H 0.20155 0.58124 0.52613 0.0
H2506 H 0.21467 0.60344 0.5279 0.0
H2507 H 0.21128 0.59003 0.50644 0.0
C2508 C 0.22383 0.65989 0.52415 0.0
C2509 C 0.2387 0.65648 0.5148 0.0
C2510 C 0.20733 0.64768 0.52229 0.0
C2511 C 0.20528 0.63191 0.51088 0.0
C2512 C 0.21992 0.62883 0.50101 0.0
H2513 H 0.0945 0.56821 0.48211 0.0
H2514 H 0.1243 0.58707 0.48021 0.0
C2515 C 0.23656 0.64087 0.50314 0.0
C2516 C 0.18777 0.61884 0.50932 0.0
H2517 H 0.17008 0.5753 0.51384 0.0
C2518 C 0.17103 0.62492 0.50505 0.0
C2519 C 0.18737 0.60074 0.5128 0.0
C2520 C 0.20466 0.5935 0.51876 0.0
C2521 C 0.15396 0.61352 0.50434 0.0
C2522 C 0.15359 0.5953 0.50729 0.0
C2523 C 0.17034 0.58919 0.51137 0.0
C2524 C 0.13602 0.58263 0.50749 0.0
C2525 C 0.13654 0.62134 0.5012 0.0
C2526 C 0.13301 0.573 0.52298 0.0
C2527 C 0.1162 0.56183 0.52388 0.0
C2528 C 0.10193 0.56018 0.50938 0.0
C2529 C 0.10516 0.56933 0.49359 0.0
C2530 C 0.12213 0.58026 0.49256 0.0
H2531 H 0.1392 0.63598 0.50443 0.0
H2532 H 0.13087 0.61874 0.48653 0.0
H2533 H 0.12592 0.61531 0.50974 0.0
H2534 H 0.14351 0.5745 0.53465 0.0
H2535 H 0.11418 0.55504 0.53628 0.0
H2536 H 0.67964 0.9634 0.7623 0.0
H2537 H 0.69715 0.93946 0.76719 0.0
H2538 H 0.65142 0.90922 0.79017 0.0
H2539 H 0.63378 0.93347 0.7856 0.0
H2540 H 0.68422 0.91198 0.81208 0.0
H2541 H 0.69332 0.89086 0.74084 0.0
H2542 H 0.69967 0.91451 0.74506 0.0
H2543 H 0.67614 0.90408 0.74615 0.0
C2544 C 0.67317 0.95155 0.76814 0.0
C2545 C 0.65537 0.95027 0.77361 0.0
C2546 C 0.68314 0.93782 0.77079 0.0
C2547 C 0.67544 0.92247 0.77874 0.0
C2548 C 0.6575 0.92094 0.78386 0.0
H2549 H 0.74966 0.84523 0.78494 0.0
H2550 H 0.72066 0.85672 0.78114 0.0
C2551 C 0.64747 0.93475 0.78124 0.0
C2552 C 0.68697 0.90896 0.78313 0.0
H2553 H 0.71693 0.88573 0.76444 0.0
C2554 C 0.69108 0.90587 0.80165 0.0
C2555 C 0.69564 0.90079 0.76948 0.0
C2556 C 0.69079 0.90258 0.74926 0.0
C2557 C 0.70469 0.89583 0.807 0.0
C2558 C 0.7146 0.88912 0.79348 0.0
C2559 C 0.70952 0.89113 0.77485 0.0
C2560 C 0.73109 0.88102 0.79822 0.0
C2561 C 0.70857 0.89285 0.82707 0.0
C2562 C 0.74645 0.89077 0.80935 0.0
C2563 C 0.76298 0.88415 0.81165 0.0
C2564 C 0.76438 0.86792 0.80251 0.0
C2565 C 0.74887 0.85793 0.7919 0.0
C2566 C 0.73233 0.86441 0.7898 0.0
H2567 H 0.69614 0.89318 0.83433 0.0
H2568 H 0.71323 0.87991 0.82891 0.0
H2569 H 0.71959 0.90364 0.83364 0.0
H2570 H 0.74591 0.90382 0.8156 0.0
H2571 H 0.77485 0.89201 0.81986 0.0
H2572 H 0.71291 0.91578 0.50945 0.0
H2573 H 0.68562 0.93033 0.5091 0.0
H2574 H 0.71236 0.96588 0.55508 0.0
H2575 H 0.73992 0.95199 0.5547 0.0
H2576 H 0.65944 0.93454 0.52647 0.0
H2577 H 0.69513 1.00391 0.53013 0.0
H2578 H 0.70728 0.98561 0.52702 0.0
H2579 H 0.70296 0.99314 0.54972 0.0
C2580 C 0.71318 0.92684 0.51943 0.0
C2581 C 0.72927 0.93256 0.53196 0.0
C2582 C 0.69723 0.93529 0.51928 0.0
C2583 C 0.69624 0.94999 0.53172 0.0
C2584 C 0.71222 0.95534 0.54459 0.0
H2585 H 0.5837 0.98044 0.54606 0.0
H2586 H 0.61103 0.96601 0.54702 0.0
C2587 C 0.72826 0.94707 0.54454 0.0
C2588 C 0.67865 0.95916 0.53143 0.0
H2589 H 0.66368 0.99978 0.53566 0.0
C2590 C 0.66064 0.94885 0.52844 0.0
C2591 C 0.67913 0.978 0.53355 0.0
C2592 C 0.69714 0.99082 0.53508 0.0
C2593 C 0.64398 0.95637 0.52781 0.0
C2594 C 0.64449 0.97515 0.53086 0.0
C2595 C 0.66249 0.98547 0.53357 0.0
C2596 C 0.62694 0.98436 0.53071 0.0
C2597 C 0.62592 0.94383 0.52304 0.0
C2598 C 0.6259 1.00038 0.52203 0.0
C2599 C 0.6101 1.00902 0.52185 0.0
C2600 C 0.5942 1.00223 0.5303 0.0
C2601 C 0.59521 0.9863 0.53912 0.0
C2602 C 0.61112 0.97776 0.53947 0.0
H2603 H 0.62777 0.93157 0.51509 0.0
H2604 H 0.62027 0.93974 0.5359 0.0
H2605 H 0.61569 0.95017 0.51482 0.0
H2606 H 0.63737 1.00632 0.51509 0.0
H2607 H 0.6104 0.02116 0.51488 0.0
H2608 H 0.34631 0.47241 0.72419 0.0
H2609 H 0.3344 0.44101 0.72746 0.0
H2610 H 0.37894 0.42578 0.70003 0.0
H2611 H 0.39096 0.45707 0.69666 0.0
H2612 H 0.32681 0.4077 0.69898 0.0
H2613 H 0.38347 0.41065 0.75591 0.0
H2614 H 0.37544 0.43038 0.74832 0.0
H2615 H 0.38933 0.41921 0.73449 0.0
C2616 C 0.35331 0.46235 0.71846 0.0
C2617 C 0.36966 0.46715 0.71036 0.0
C2618 C 0.34648 0.44447 0.72033 0.0
C2619 C 0.35595 0.43125 0.71413 0.0
C2620 C 0.37156 0.4359 0.70495 0.0
H2621 H 0.34674 0.32244 0.74703 0.0
H2622 H 0.35694 0.35014 0.73289 0.0
C2623 C 0.37837 0.45375 0.70304 0.0
C2624 C 0.3507 0.41286 0.71906 0.0
H2625 H 0.36289 0.38368 0.74958 0.0
C2626 C 0.33471 0.40233 0.70993 0.0
C2627 C 0.36117 0.40604 0.73331 0.0
C2628 C 0.37828 0.41711 0.74371 0.0
C2629 C 0.32879 0.38502 0.71484 0.0
C2630 C 0.33895 0.37837 0.7295 0.0
C2631 C 0.35518 0.38881 0.73831 0.0
C2632 C 0.33235 0.36117 0.73685 0.0
C2633 C 0.31174 0.37403 0.70428 0.0
C2634 C 0.31529 0.35836 0.74393 0.0
C2635 C 0.30943 0.34263 0.75194 0.0
C2636 C 0.32064 0.32948 0.75326 0.0
C2637 C 0.33779 0.33233 0.74622 0.0
C2638 C 0.34361 0.34809 0.7381 0.0
H2639 H 0.30923 0.3785 0.69023 0.0
H2640 H 0.31286 0.3597 0.70314 0.0
H2641 H 0.29958 0.37555 0.71155 0.0
H2642 H 0.30664 0.3685 0.7436 0.0
H2643 H 0.29619 0.34092 0.75734 0.0
H2644 H 0.18459 0.5381 0.29037 0.0
H2645 H 0.20206 0.56848 0.29429 0.0
H2646 H 0.15118 0.58934 0.288 0.0
H2647 H 0.13373 0.55913 0.28361 0.0
H2648 H 0.1752 0.60261 0.26482 0.0
H2649 H 0.2107 0.60764 0.33568 0.0
H2650 H 0.21428 0.58866 0.32182 0.0
H2651 H 0.19147 0.59025 0.3275 0.0
C2652 C 0.17717 0.54919 0.29009 0.0
C2653 C 0.15787 0.54633 0.28652 0.0
C2654 C 0.18713 0.56651 0.29249 0.0
C2655 C 0.17787 0.58112 0.29165 0.0
C2656 C 0.15855 0.57822 0.28875 0.0
H2657 H 0.21571 0.69398 0.28256 0.0
H2658 H 0.19728 0.66561 0.28849 0.0
C2659 C 0.14863 0.56098 0.28617 0.0
C2660 C 0.18827 0.59934 0.29173 0.0
H2661 H 0.22167 0.63031 0.31625 0.0
C2662 C 0.1852 0.60876 0.27616 0.0
C2663 C 0.20132 0.60723 0.30653 0.0
C2664 C 0.20454 0.598 0.32391 0.0
C2665 C 0.19521 0.62572 0.27474 0.0
C2666 C 0.20847 0.6335 0.2894 0.0
C2667 C 0.21143 0.62422 0.30508 0.0
C2668 C 0.21993 0.65097 0.28816 0.0
C2669 C 0.19193 0.63495 0.25734 0.0
C2670 C 0.23882 0.65212 0.28668 0.0
C2671 C 0.24935 0.66824 0.2833 0.0
C2672 C 0.24109 0.68342 0.28136 0.0
C2673 C 0.22232 0.68238 0.28366 0.0
C2674 C 0.21182 0.66627 0.28711 0.0
H2675 H 0.18396 0.6257 0.24602 0.0
H2676 H 0.18399 0.64575 0.26005 0.0
H2677 H 0.20522 0.64102 0.25268 0.0
H2678 H 0.24525 0.64038 0.28743 0.0
H2679 H 0.26377 0.66867 0.28148 0.0
H2680 H 0.5296 0.67677 0.41796 0.0
H2681 H 0.54222 0.66278 0.44439 0.0
H2682 H 0.50553 0.68442 0.47817 0.0
H2683 H 0.49272 0.69838 0.45176 0.0
H2684 H 0.55941 0.68592 0.47668 0.0
H2685 H 0.50385 0.6321 0.49253 0.0
H2686 H 0.50438 0.64048 0.47001 0.0
H2687 H 0.49765 0.65347 0.48848 0.0
C2688 C 0.52378 0.67806 0.43085 0.0
C2689 C 0.51028 0.68877 0.43285 0.0
C2690 C 0.53108 0.67017 0.44594 0.0
C2691 C 0.52487 0.67272 0.46318 0.0
C2692 C 0.5104 0.68223 0.46491 0.0
H2693 H 0.56412 0.62538 0.561 0.0
H2694 H 0.55208 0.64883 0.54454 0.0
C2695 C 0.50308 0.69015 0.44981 0.0
C2696 C 0.53493 0.66708 0.47958 0.0
H2697 H 0.53173 0.63682 0.51192 0.0
C2698 C 0.55334 0.67528 0.48452 0.0
C2699 C 0.52682 0.65348 0.48992 0.0
C2700 C 0.50712 0.64424 0.485 0.0
C2701 C 0.56414 0.66973 0.49917 0.0
C2702 C 0.55634 0.65546 0.50888 0.0
C2703 C 0.53764 0.64788 0.50453 0.0
C2704 C 0.5678 0.64623 0.52148 0.0
C2705 C 0.58387 0.67892 0.50384 0.0
C2706 C 0.58139 0.63782 0.51443 0.0
C2707 C 0.58829 0.62458 0.52385 0.0
C2708 C 0.58175 0.61969 0.54042 0.0
C2709 C 0.56968 0.62936 0.54845 0.0
C2710 C 0.56267 0.64258 0.53898 0.0
H2711 H 0.5856 0.69298 0.50024 0.0
H2712 H 0.58856 0.67861 0.51867 0.0
H2713 H 0.59289 0.67208 0.49574 0.0
H2714 H 0.58522 0.6401 0.50078 0.0
H2715 H 0.59722 0.6169 0.51725 0.0
H2716 H 0.62395 0.3585 0.70064 0.0
H2717 H 0.64842 0.35263 0.72334 0.0
H2718 H 0.66481 0.31635 0.68348 0.0
H2719 H 0.64076 0.32245 0.66065 0.0
H2720 H 0.64983 0.31976 0.73604 0.0
H2721 H 0.71394 0.34458 0.70552 0.0
H2722 H 0.692 0.35058 0.69768 0.0
H2723 H 0.69756 0.32955 0.68988 0.0
C2724 C 0.63312 0.34967 0.69658 0.0
C2725 C 0.63049 0.34093 0.67891 0.0
C2726 C 0.64699 0.34625 0.70958 0.0
C2727 C 0.65842 0.33411 0.70505 0.0
C2728 C 0.65635 0.32601 0.68715 0.0
H2729 H 0.73381 0.27715 0.76262 0.0
H2730 H 0.70561 0.28373 0.74594 0.0
C2731 C 0.64258 0.32949 0.67412 0.0
C2732 C 0.67148 0.32876 0.71936 0.0
H2733 H 0.71659 0.325 0.72958 0.0
C2734 C 0.66446 0.32105 0.73474 0.0
C2735 C 0.69052 0.33047 0.71757 0.0
C2736 C 0.69899 0.33941 0.70186 0.0
C2737 C 0.67603 0.31467 0.7482 0.0
C2738 C 0.69489 0.31598 0.74608 0.0
C2739 C 0.70197 0.32387 0.73091 0.0
C2740 C 0.70796 0.3099 0.7597 0.0
C2741 C 0.66819 0.30646 0.76454 0.0
C2742 C 0.71791 0.32216 0.77347 0.0
C2743 C 0.73401 0.31851 0.7829 0.0
C2744 C 0.7403 0.30257 0.77861 0.0
C2745 C 0.7292 0.2895 0.76625 0.0
C2746 C 0.71314 0.29324 0.75668 0.0
H2747 H 0.65308 0.30617 0.76406 0.0
H2748 H 0.67101 0.29266 0.76512 0.0
H2749 H 0.67512 0.31411 0.77738 0.0
H2750 H 0.71407 0.33512 0.77584 0.0
H2751 H 0.7423 0.32875 0.79247 0.0
H2752 H 0.03608 0.27017 0.94852 0.0
H2753 H 0.04209 0.29913 0.96608 0.0
H2754 H 0.01968 0.32318 0.91905 0.0
H2755 H 1.01355 0.29427 0.90134 0.0
H2756 H 0.05707 0.34187 0.94347 0.0
H2757 H 0.99387 0.32204 0.97828 0.0
H2758 H 1.00963 0.30659 0.97608 0.0
H2759 H 0.99644 0.31205 0.95599 0.0
C2760 C 0.03263 0.28167 0.94185 0.0
C2761 C 0.02418 0.28001 0.92365 0.0
C2762 C 0.03612 0.29814 0.95187 0.0
C2763 C 0.03125 0.3131 0.94378 0.0
C2764 C 0.02354 0.31167 0.9254 0.0
H2765 H 0.02686 0.42184 0.96924 0.0
H2766 H 0.03109 0.39302 0.9559 0.0
C2767 C 0.01999 0.29519 0.91538 0.0
C2768 C 0.0327 0.32993 0.9549 0.0
H2769 H 1.00989 0.35116 0.98497 0.0
C2770 C 0.04691 0.34394 0.9527 0.0
C2771 C 0.01945 0.33234 0.96695 0.0
C2772 C 1.0039 0.31754 0.96953 0.0
C2773 C 0.04802 0.36061 0.96213 0.0
C2774 C 0.03426 0.36328 0.97358 0.0
C2775 C 0.02041 0.34903 0.97618 0.0
C2776 C 0.03308 0.381 0.98191 0.0
C2777 C 0.06386 0.37517 0.9597 0.0
C2778 C 0.03225 0.38359 1.00089 0.0
C2779 C 0.02953 0.39997 0.0085 0.0
C2780 C 0.02765 0.41395 0.99721 0.0
C2781 C 0.02858 0.41133 0.97825 0.0
C2782 C 0.03113 0.39494 0.97065 0.0
H2783 H 0.07606 0.36958 0.95596 0.0
H2784 H 0.05961 0.38318 0.94838 0.0
H2785 H 0.068 0.38414 0.9724 0.0
H2786 H 0.03354 0.3729 0.00976 0.0
H2787 H 0.02895 0.40175 0.02318 0.0
H2788 H 0.06025 0.79762 0.18735 0.0
H2789 H 0.03533 0.78509 0.2049 0.0
H2790 H 1.00272 0.82329 0.18475 0.0
H2791 H 0.02739 0.83572 0.16701 0.0
H2792 H 0.01914 0.80212 0.23211 0.0
H2793 H 0.96787 0.77558 0.17271 0.0
H2794 H 0.99217 0.78191 0.17061 0.0
H2795 H 0.97753 0.79851 0.1712 0.0
C2796 C 0.04775 0.80334 0.18669 0.0
C2797 C 0.04565 0.81757 0.17578 0.0
C2798 C 0.03357 0.79614 0.19666 0.0
C2799 C 0.01711 0.80304 0.19574 0.0
C2800 C 1.01518 0.81752 0.18522 0.0
H2801 H 0.92098 0.80762 0.24401 0.0
H2802 H 0.94757 0.80896 0.22659 0.0
C2803 C 0.02931 0.82469 0.17524 0.0
C2804 C 1.00208 0.79565 0.20627 0.0
H2805 H 0.95578 0.78037 0.20161 0.0
C2806 C 1.00535 0.79699 0.2255 0.0
C2807 C 0.98422 0.78877 0.19749 0.0
C2808 C 0.98026 0.78592 0.17685 0.0
C2809 C 0.99082 0.79292 0.23627 0.0
C2810 C 0.97275 0.78729 0.22745 0.0
C2811 C 0.9697 0.78486 0.20824 0.0
C2812 C 0.9566 0.78585 0.23779 0.0
C2813 C 0.99466 0.79567 0.25692 0.0
C2814 C 0.95295 0.77232 0.2497 0.0
C2815 C 0.93772 0.77149 0.25963 0.0
C2816 C 0.92597 0.78415 0.25769 0.0
C2817 C 0.92967 0.79759 0.24562 0.0
C2818 C 0.94485 0.79839 0.23572 0.0
H2819 H 1.00917 0.80194 0.26149 0.0
H2820 H 0.98534 0.80416 0.26243 0.0
H2821 H 0.99193 0.78263 0.26296 0.0
H2822 H 0.96182 0.76243 0.25125 0.0
H2823 H 0.93501 0.76084 0.26864 0.0
H2824 H 0.5413 0.3295 0.08957 0.0
H2825 H 0.54357 0.35864 0.07641 0.0
H2826 H 0.54452 0.38398 0.13045 0.0
H2827 H 0.54288 0.35504 0.14356 0.0
H2828 H 0.52548 0.38398 0.07082 0.0
H2829 H 0.5844 0.41933 0.11799 0.0
H2830 H 0.57708 0.39566 0.11794 0.0
H2831 H 0.56553 0.41083 0.1303 0.0
C2832 C 0.54215 0.34123 0.09881 0.0
C2833 C 0.54204 0.33924 0.11797 0.0
C2834 C 0.54343 0.35826 0.09113 0.0
C2835 C 0.54479 0.37455 0.10205 0.0
C2836 C 0.5443 0.37243 0.12118 0.0
H2837 H 0.55092 0.49157 0.07997 0.0
H2838 H 0.54905 0.46255 0.09328 0.0
C2839 C 0.54311 0.35544 0.12885 0.0
C2840 C 0.54624 0.39324 0.0935 0.0
H2841 H 0.56843 0.43737 0.09914 0.0
C2842 C 0.53507 0.39548 0.07714 0.0
C2843 C 0.55854 0.4091 0.10109 0.0
C2844 C 0.5722 0.40863 0.11767 0.0
C2845 C 0.53544 0.41222 0.06885 0.0
C2846 C 0.5477 0.42806 0.07645 0.0
C2847 C 0.55886 0.42584 0.09282 0.0
C2848 C 0.54914 0.44671 0.06787 0.0
C2849 C 0.5219 0.41272 0.05217 0.0
C2850 C 0.55029 0.44882 0.04883 0.0
C2851 C 0.55139 0.46575 0.04105 0.0
C2852 C 0.55161 0.48191 0.05175 0.0
C2853 C 0.55082 0.47991 0.07085 0.0
C2854 C 0.54973 0.46294 0.07863 0.0
H2855 H 0.50974 0.40194 0.05168 0.0
H2856 H 0.51696 0.42566 0.05194 0.0
H2857 H 0.52873 0.41069 0.03961 0.0
H2858 H 0.55058 0.43727 0.03971 0.0
H2859 H 0.55205 0.46611 0.0264 0.0
H2860 H 0.98913 0.25922 0.39028 0.0
H2861 H 0.9584 0.25991 0.37454 0.0
H2862 H 0.98252 0.29885 0.33978 0.0
H2863 H 1.0133 0.29732 0.3548 0.0
H2864 H 0.93554 0.28026 0.37106 0.0
H2865 H 0.95101 0.27125 0.29954 0.0
H2866 H 0.96755 0.26906 0.31866 0.0
H2867 H 0.96532 0.29073 0.31096 0.0
C2868 C 0.988 0.26778 0.37909 0.0
C2869 C 1.00415 0.278 0.37384 0.0
C2870 C 0.97015 0.26825 0.37 0.0
C2871 C 0.96741 0.27911 0.35526 0.0
C2872 C 0.9836 0.28966 0.35035 0.0
H2873 H 0.86787 0.30937 0.29373 0.0
H2874 H 0.89878 0.30729 0.30819 0.0
C2875 C 1.00149 0.28894 0.35922 0.0
C2876 C 0.94782 0.27968 0.34566 0.0
H2877 H 0.92243 0.28073 0.30353 0.0
C2878 C 0.93287 0.28017 0.35625 0.0
C2879 C 0.94346 0.27954 0.32618 0.0
C2880 C 0.95763 0.27742 0.31317 0.0
C2881 C 0.91454 0.28086 0.34831 0.0
C2882 C 0.91037 0.28112 0.32895 0.0
C2883 C 0.92521 0.28066 0.31832 0.0
C2884 C 0.89091 0.28206 0.31962 0.0
C2885 C 0.89974 0.28173 0.36087 0.0
C2886 C 0.87552 0.26852 0.32059 0.0
C2887 C 0.8576 0.26955 0.31195 0.0
C2888 C 0.85412 0.28428 0.30209 0.0
C2889 C 0.86958 0.29776 0.30109 0.0
C2890 C 0.88751 0.29658 0.30945 0.0
H2891 H 0.90562 0.2852 0.37541 0.0
H2892 H 0.89109 0.29168 0.35657 0.0
H2893 H 0.89064 0.26857 0.36007 0.0
H2894 H 0.87735 0.25696 0.32797 0.0
H2895 H 0.84636 0.25881 0.31322 0.0
H2896 H 0.02592 0.73719 0.58876 0.0
H2897 H 0.02684 0.70736 0.5746 0.0
H2898 H 0.05499 0.69436 0.62495 0.0
H2899 H 0.05347 0.72375 0.63918 0.0
H2900 H 0.04969 0.68798 0.56404 0.0
H2901 H 0.02119 0.64935 0.61882 0.0
H2902 H 0.02155 0.67296 0.61876 0.0
H2903 H 0.04178 0.66443 0.62762 0.0
C2904 C 0.03219 0.72799 0.59699 0.0
C2905 C 0.03941 0.73346 0.6155 0.0
C2906 C 0.03278 0.71061 0.58873 0.0
C2907 C 0.04056 0.6975 0.59843 0.0
C2908 C 0.04814 0.70321 0.61681 0.0
H2909 H 0.06029 0.58499 0.57193 0.0
H2910 H 0.05899 0.61477 0.58588 0.0
C2911 C 0.04744 0.72049 0.62507 0.0
C2912 C 0.04115 0.67842 0.58937 0.0
H2913 H 0.03473 0.63336 0.59667 0.0
C2914 C 0.04623 0.67616 0.57133 0.0
C2915 C 0.0368 0.66219 0.59819 0.0
C2916 C 0.02984 0.66228 0.61682 0.0
C2917 C 0.04752 0.65914 0.56249 0.0
C2918 C 0.04327 0.64295 0.57136 0.0
C2919 C 0.03817 0.6452 0.58938 0.0
C2920 C 0.044 0.6239 0.56239 0.0
C2921 C 0.05418 0.65895 0.54373 0.0
C2922 C 0.03585 0.61781 0.54427 0.0
C2923 C 0.03662 0.60048 0.53614 0.0
C2924 C 0.04545 0.5879 0.54557 0.0
C2925 C 0.05336 0.59383 0.5638 0.0
C2926 C 0.05257 0.61119 0.57195 0.0
H2927 H 0.06254 0.67194 0.54143 0.0
H2928 H 0.06265 0.64841 0.54182 0.0
H2929 H 0.04209 0.65642 0.5331 0.0
H2930 H 0.0285 0.6264 0.53626 0.0
H2931 H 0.03012 0.59693 0.52223 0.0
H2932 H 0.62813 0.79804 0.89451 0.0
H2933 H 0.65576 0.79898 0.87829 0.0
H2934 H 0.62462 0.76171 0.83582 0.0
H2935 H 0.59689 0.76151 0.85157 0.0
H2936 H 0.67891 0.78051 0.86956 0.0
H2937 H 0.64753 0.7911 0.80067 0.0
H2938 H 0.63506 0.79197 0.82046 0.0
H2939 H 0.63612 0.77088 0.80855 0.0
C2940 C 0.62699 0.79013 0.8816 0.0
C2941 C 0.60966 0.77984 0.87457 0.0
C2942 C 0.64311 0.79063 0.87216 0.0
C2943 C 0.64303 0.78083 0.85507 0.0
C2944 C 0.62574 0.77018 0.84832 0.0
H2945 H 0.72928 0.76056 0.78095 0.0
H2946 H 0.70143 0.76074 0.7966 0.0
C2947 C 0.60956 0.76987 0.85764 0.0
C2948 C 0.66085 0.78144 0.84485 0.0
H2949 H 0.67731 0.78303 0.80212 0.0
C2950 C 0.67831 0.78122 0.85481 0.0
C2951 C 0.66112 0.78241 0.8254 0.0
C2952 C 0.64401 0.7843 0.81317 0.0
C2953 C 0.69507 0.78149 0.8463 0.0
C2954 C 0.69524 0.78218 0.82686 0.0
C2955 C 0.67784 0.7824 0.81689 0.0
C2956 C 0.71299 0.78251 0.81673 0.0
C2957 C 0.7125 0.78043 0.85844 0.0
C2958 C 0.72956 0.79486 0.82192 0.0
C2959 C 0.74577 0.79489 0.81269 0.0
C2960 C 0.74648 0.78255 0.79766 0.0
C2961 C 0.72982 0.7704 0.79229 0.0
C2962 C 0.71358 0.77048 0.80141 0.0
H2963 H 0.70948 0.77475 0.87163 0.0
H2964 H 0.72119 0.7722 0.85148 0.0
H2965 H 0.72054 0.79403 0.86169 0.0
H2966 H 0.73004 0.80477 0.83317 0.0
H2967 H 0.75793 0.8046 0.81756 0.0
H2968 H 0.41836 0.51194 0.65722 0.0
H2969 H 0.44281 0.51729 0.63674 0.0
H2970 H 0.47116 0.56134 0.67381 0.0
H2971 H 0.44728 0.55579 0.69438 0.0
H2972 H 0.45854 0.54676 0.6189 0.0
H2973 H 0.50878 0.52776 0.67192 0.0
H2974 H 0.48421 0.52334 0.67318 0.0
H2975 H 0.49748 0.54489 0.68086 0.0
C2976 C 0.42969 0.52292 0.66075 0.0
C2977 C 0.4312 0.53331 0.67742 0.0
C2978 C 0.44361 0.52591 0.64914 0.0
C2979 C 0.45896 0.53936 0.65413 0.0
C2980 C 0.45965 0.55057 0.67005 0.0
H2981 H 0.54033 0.59321 0.59315 0.0
H2982 H 0.51427 0.58332 0.61029 0.0
C2983 C 0.44598 0.54745 0.68171 0.0
C2984 C 0.47482 0.54148 0.64335 0.0
H2985 H 0.5216 0.54518 0.64848 0.0
C2986 C 0.47232 0.54617 0.6252 0.0
C2987 C 0.49266 0.54014 0.65148 0.0
C2988 C 0.49592 0.53355 0.67036 0.0
C2989 C 0.48746 0.5507 0.61531 0.0
C2990 C 0.50549 0.5511 0.62415 0.0
C2991 C 0.50782 0.54529 0.64189 0.0
C2992 C 0.52214 0.55781 0.61542 0.0
C2993 C 0.48396 0.555 0.59556 0.0
C2994 C 0.53593 0.54736 0.614 0.0
C2995 C 0.55118 0.5533 0.60487 0.0
C2996 C 0.55266 0.56966 0.59688 0.0
C2997 C 0.53941 0.58054 0.59922 0.0
C2998 C 0.52439 0.57476 0.60868 0.0
H2999 H 0.47013 0.54819 0.5892 0.0
H3000 H 0.48429 0.56953 0.59503 0.0
H3001 H 0.49454 0.55105 0.58719 0.0
H3002 H 0.53455 0.53432 0.61932 0.0
H3003 H 0.5611 0.54456 0.603 0.0
H3004 H 0.79584 0.24748 0.98952 0.0
H3005 H 0.79607 0.26306 0.96109 0.0
H3006 H 0.76904 0.21463 0.93005 0.0
H3007 H 0.76885 0.19901 0.95824 0.0
H3008 H 0.81316 0.25275 0.92892 0.0
H3009 H 0.73823 0.25302 0.91294 0.0
H3010 H 0.74858 0.24997 0.93567 0.0
H3011 H 0.74405 0.23182 0.91828 0.0
C3012 C 0.78975 0.24023 0.97666 0.0
C3013 C 0.7823 0.22203 0.97613 0.0
C3014 C 0.78993 0.24913 0.96044 0.0
C3015 C 0.78241 0.24004 0.94348 0.0
C3016 C 0.77468 0.22196 0.943 0.0
H3017 H 0.80079 0.25818 0.8315 0.0
H3018 H 0.79858 0.24751 0.86213 0.0
C3019 C 0.77465 0.21305 0.95913 0.0
C3020 C 0.7835 0.24906 0.92609 0.0
H3021 H 0.75709 0.26021 0.88898 0.0
C3022 C 0.80092 0.25454 0.92027 0.0
C3023 C 0.76752 0.25149 0.91487 0.0
C3024 C 0.74852 0.24642 0.92077 0.0
C3025 C 0.80275 0.26183 0.90323 0.0
C3026 C 0.78674 0.2636 0.89167 0.0
C3027 C 0.76934 0.2587 0.89778 0.0
C3028 C 0.7878 0.27009 0.87301 0.0
C3029 C 0.82181 0.26752 0.89766 0.0
C3030 C 0.78211 0.28617 0.86881 0.0
C3031 C 0.78337 0.29236 0.85127 0.0
C3032 C 0.79016 0.28247 0.83751 0.0
C3033 C 0.79553 0.26619 0.84172 0.0
C3034 C 0.79437 0.26009 0.85927 0.0
H3035 H 0.83257 0.26924 0.90965 0.0
H3036 H 0.82486 0.25718 0.88774 0.0
H3037 H 0.8227 0.28019 0.89085 0.0
H3038 H 0.77689 0.29404 0.87919 0.0
H3039 H 0.77905 0.30491 0.84852 0.0
H3040 H 0.12797 0.51115 0.21332 0.0
H3041 H 0.11318 0.51826 0.18413 0.0
H3042 H 0.06072 0.4908 0.19698 0.0
H3043 H 0.07545 0.48387 0.2266 0.0
H3044 H 0.09371 0.49576 0.15546 0.0
H3045 H 0.05007 0.54041 0.18512 0.0
H3046 H 0.06904 0.53335 0.19857 0.0
H3047 H 0.04756 0.51835 0.19293 0.0
C3048 C 0.11331 0.50649 0.2099 0.0
C3049 C 0.10282 0.49701 0.22223 0.0
C3050 C 0.10488 0.51061 0.19325 0.0
C3051 C 0.08584 0.50534 0.18862 0.0
C3052 C 0.07539 0.4953 0.20055 0.0
H3053 H 0.02519 0.51501 0.08348 0.0
H3054 H 0.03212 0.50951 0.11574 0.0
C3055 C 0.08383 0.49119 0.21732 0.0
C3056 C 0.07721 0.51035 0.17112 0.0
H3057 H 0.04747 0.53613 0.15269 0.0
C3058 C 0.08352 0.50449 0.15484 0.0
C3059 C 0.06401 0.52184 0.17047 0.0
C3060 C 0.05733 0.52901 0.18768 0.0
C3061 C 0.07713 0.50997 0.13788 0.0
C3062 C 0.06415 0.52162 0.13725 0.0
C3063 C 0.05747 0.52721 0.1534 0.0
C3064 C 0.05779 0.52814 0.11969 0.0
C3065 C 0.08446 0.50348 0.12071 0.0
C3066 C 0.0696 0.54103 0.1117 0.0
C3067 C 0.06578 0.54416 0.09329 0.0
C3068 C 0.05011 0.53437 0.08267 0.0
C3069 C 0.03746 0.52265 0.09125 0.0
C3070 C 0.04132 0.51952 0.10968 0.0
H3071 H 0.09255 0.49267 0.12326 0.0
H3072 H 0.07293 0.49855 0.10979 0.0
H3073 H 0.09354 0.5147 0.11549 0.0
H3074 H 0.08237 0.54779 0.11936 0.0
H3075 H 0.07567 0.55344 0.08713 0.0
H3076 H 0.77509 0.85061 0.48735 0.0
H3077 H 0.77775 0.83531 0.45762 0.0
H3078 H 0.79168 0.88588 0.43493 0.0
H3079 H 0.78848 0.90114 0.46448 0.0
H3080 H 0.77175 0.86597 0.40889 0.0
H3081 H 0.82014 0.82307 0.43475 0.0
H3082 H 0.7991 0.81911 0.4452 0.0
H3083 H 0.814 0.84046 0.44928 0.0
C3084 C 0.77877 0.85857 0.4761 0.0
C3085 C 0.78158 0.87736 0.47883 0.0
C3086 C 0.78052 0.84969 0.45885 0.0
C3087 C 0.78544 0.85907 0.4434 0.0
C3088 C 0.78798 0.87787 0.44614 0.0
H3089 H 0.82563 0.80781 0.34516 0.0
H3090 H 0.82208 0.82266 0.37481 0.0
C3091 C 0.78616 0.88674 0.46333 0.0
C3092 C 0.78756 0.8496 0.42454 0.0
H3093 H 0.80682 0.81637 0.40377 0.0
C3094 C 0.77949 0.85514 0.40798 0.0
C3095 C 0.7979 0.8355 0.42245 0.0
C3096 C 0.80845 0.82929 0.43883 0.0
C3097 C 0.78111 0.84719 0.39016 0.0
C3098 C 0.79078 0.83258 0.38812 0.0
C3099 C 0.79912 0.82723 0.40467 0.0
C3100 C 0.79284 0.82309 0.36922 0.0
C3101 C 0.77289 0.85521 0.37363 0.0
C3102 C 0.77779 0.81765 0.35537 0.0
C3103 C 0.77989 0.80921 0.33802 0.0
C3104 C 0.79712 0.80538 0.33358 0.0
C3105 C 0.81208 0.81039 0.34758 0.0
C3106 C 0.81 0.81899 0.36485 0.0
H3107 H 0.7717 0.86932 0.37687 0.0
H3108 H 0.7813 0.85461 0.36197 0.0
H3109 H 0.75878 0.84778 0.36926 0.0
H3110 H 0.76412 0.81969 0.35797 0.0
H3111 H 0.7678 0.8055 0.32809 0.0
H3112 H 0.40887 0.5257 0.78484 0.0
H3113 H 0.42874 0.52778 0.81394 0.0
H3114 H 0.4697 0.5061 0.78608 0.0
H3115 H 0.45007 0.50423 0.75691 0.0
H3116 H 0.44266 0.50132 0.83207 0.0
H3117 H 0.49907 0.55197 0.81311 0.0
H3118 H 0.47655 0.54705 0.80009 0.0
H3119 H 0.49323 0.53278 0.79702 0.0
C3120 C 0.42207 0.5213 0.78495 0.0
C3121 C 0.42799 0.51487 0.76865 0.0
C3122 C 0.4334 0.52255 0.80154 0.0
C3123 C 0.4508 0.51744 0.80202 0.0
C3124 C 0.45649 0.51052 0.78586 0.0
H3125 H 0.51758 0.49039 0.89522 0.0
H3126 H 0.4992 0.4914 0.86586 0.0
C3127 C 0.44521 0.50931 0.76927 0.0
C3128 C 0.46283 0.51894 0.81953 0.0
H3129 H 0.50554 0.5375 0.84044 0.0
C3130 C 0.45637 0.50931 0.83396 0.0
C3131 C 0.48056 0.52963 0.82199 0.0
C3132 C 0.48773 0.5411 0.8073 0.0
C3133 C 0.46742 0.50963 0.85067 0.0
C3134 C 0.48549 0.51958 0.85279 0.0
C3135 C 0.49176 0.52968 0.8386 0.0
C3136 C 0.49808 0.51946 0.86966 0.0
C3137 C 0.45963 0.49939 0.86594 0.0
C3138 C 0.50418 0.5351 0.88103 0.0
C3139 C 0.51491 0.53464 0.89772 0.0
C3140 C 0.51973 0.51851 0.9032 0.0
C3141 C 0.51423 0.50304 0.89134 0.0
C3142 C 0.50356 0.50354 0.87467 0.0
H3143 H 0.44431 0.49643 0.8639 0.0
H3144 H 0.46477 0.48656 0.86625 0.0
H3145 H 0.46406 0.5069 0.8795 0.0
H3146 H 0.50019 0.54754 0.87724 0.0
H3147 H 0.51919 0.54682 0.90646 0.0
H3148 H 0.76977 0.2028 0.08425 0.0
H3149 H 0.77552 0.21438 0.11646 0.0
H3150 H 0.82658 0.2462 0.10572 0.0
H3151 H 0.82093 0.23463 0.07336 0.0
H3152 H 0.80805 0.21174 0.14168 0.0
H3153 H 0.79866 0.28163 0.1326 0.0
H3154 H 0.78968 0.26375 0.11526 0.0
H3155 H 0.8139 0.27258 0.11844 0.0
C3156 C 0.78216 0.21238 0.08868 0.0
C3157 C 0.79487 0.21785 0.07622 0.0
C3158 C 0.78544 0.21894 0.10712 0.0
C3159 C 0.80141 0.23124 0.11347 0.0
C3160 C 0.81406 0.23689 0.10106 0.0
H3161 H 0.83162 0.28668 0.22324 0.0
H3162 H 0.83257 0.27588 0.1913 0.0
C3163 C 0.81083 0.23025 0.08259 0.0
C3164 C 0.80492 0.23768 0.13322 0.0
H3165 H 0.80642 0.2742 0.16276 0.0
C3166 C 0.80778 0.22541 0.14631 0.0
C3167 C 0.80475 0.25555 0.13921 0.0
C3168 C 0.80148 0.26919 0.12572 0.0
C3169 C 0.8103 0.23049 0.16524 0.0
C3170 C 0.80943 0.24823 0.17131 0.0
C3171 C 0.80706 0.26061 0.15817 0.0
C3172 C 0.80987 0.25399 0.19114 0.0
C3173 C 0.81405 0.2168 0.17852 0.0
C3174 C 0.79688 0.24527 0.20176 0.0
C3175 C 0.79642 0.25129 0.22004 0.0
C3176 C 0.80876 0.26639 0.22809 0.0
C3177 C 0.82195 0.27499 0.21753 0.0
C3178 C 0.82247 0.26886 0.19923 0.0
H3179 H 0.82054 0.20629 0.17199 0.0
H3180 H 0.82321 0.22295 0.19094 0.0
H3181 H 0.80081 0.21025 0.18288 0.0
H3182 H 0.78669 0.23407 0.19576 0.0
H3183 H 0.78599 0.24439 0.22767 0.0
H3184 H 0.07326 0.51233 0.29755 0.0
H3185 H 0.06288 0.53529 0.31646 0.0
H3186 H 0.10966 0.53611 0.35687 0.0
H3187 H 0.12032 0.51336 0.33794 0.0
H3188 H 0.05442 0.53701 0.35211 0.0
H3189 H 0.11496 0.58811 0.34397 0.0
H3190 H 0.1093 0.56735 0.32993 0.0
H3191 H 0.12109 0.56816 0.35272 0.0
C3192 C 0.08111 0.51709 0.31067 0.0
C3193 C 0.09769 0.51117 0.31621 0.0
C3194 C 0.07527 0.53034 0.32133 0.0
C3195 C 0.08592 0.53783 0.33766 0.0
C3196 C 0.10164 0.53091 0.34396 0.0
H3197 H 0.07797 0.59176 0.43294 0.0
H3198 H 0.09066 0.58571 0.40464 0.0
C3199 C 0.10752 0.5177 0.33329 0.0
C3200 C 0.08047 0.55272 0.34827 0.0
H3201 H 0.09645 0.59476 0.36778 0.0
C3202 C 0.06339 0.54979 0.35524 0.0
C3203 C 0.09224 0.56937 0.35215 0.0
C3204 C 0.11035 0.57353 0.34415 0.0
C3205 C 0.05825 0.56262 0.36711 0.0
C3206 C 0.07038 0.57904 0.37171 0.0
C3207 C 0.0871 0.5823 0.36401 0.0
C3208 C 0.06727 0.59112 0.38706 0.0
C3209 C 0.04047 0.55793 0.37566 0.0
C3210 C 0.05104 0.59844 0.3865 0.0
C3211 C 0.04363 0.60197 0.40284 0.0
C3212 C 0.05243 0.59809 0.41969 0.0
C3213 C 0.07057 0.59457 0.42023 0.0
C3214 C 0.07791 0.59101 0.40394 0.0
H3215 H 0.034 0.54377 0.37244 0.0
H3216 H 0.04297 0.5605 0.39083 0.0
H3217 H 0.03048 0.5663 0.37038 0.0
H3218 H 0.0429 0.59909 0.3735 0.0
H3219 H 0.02989 0.60528 0.40206 0.0
H3220 H 0.76491 0.85362 0.57337 0.0
H3221 H 0.76624 0.83913 0.60251 0.0
H3222 H 0.79879 0.88706 0.62978 0.0
H3223 H 0.797 0.90163 0.60088 0.0
H3224 H 0.79041 0.82868 0.62563 0.0
H3225 H 0.76547 0.8797 0.66787 0.0
H3226 H 0.7649 0.8803 0.6433 0.0
H3227 H 0.78587 0.88885 0.65807 0.0
C3228 C 0.77226 0.86122 0.58556 0.0
C3229 C 0.78067 0.87912 0.58428 0.0
C3230 C 0.77308 0.85279 0.60251 0.0
C3231 C 0.78226 0.86176 0.61923 0.0
C3232 C 0.79095 0.87956 0.61779 0.0
H3233 H 0.80489 0.83233 0.73604 0.0
H3234 H 0.80291 0.84709 0.70711 0.0
C3235 C 0.79007 0.888 0.6009 0.0
C3236 C 0.78311 0.85248 0.6377 0.0
H3237 H 0.77823 0.85776 0.68414 0.0
C3238 C 0.78757 0.83516 0.6383 0.0
C3239 C 0.77959 0.86036 0.65488 0.0
C3240 C 0.77351 0.87824 0.65603 0.0
C3241 C 0.78901 0.82608 0.65487 0.0
C3242 C 0.7855 0.83397 0.67205 0.0
C3243 C 0.78105 0.85128 0.67146 0.0
C3244 C 0.78639 0.82467 0.6905 0.0
C3245 C 0.79504 0.80818 0.65374 0.0
C3246 C 0.77752 0.80694 0.69195 0.0
C3247 C 0.77868 0.79836 0.70873 0.0
C3248 C 0.78858 0.80701 0.72526 0.0
C3249 C 0.79706 0.8249 0.72398 0.0
C3250 C 0.79592 0.83348 0.70714 0.0
H3251 H 0.80298 0.80664 0.64183 0.0
H3252 H 0.80373 0.80615 0.66643 0.0
H3253 H 0.78266 0.79759 0.65182 0.0
H3254 H 0.76944 0.79956 0.68001 0.0
H3255 H 0.77178 0.78471 0.70867 0.0
H3256 H 0.79391 0.43497 0.56898 0.0
H3257 H 0.77348 0.45643 0.57435 0.0
H3258 H 0.73483 0.4307 0.52901 0.0
H3259 H 0.75522 0.40914 0.52352 0.0
H3260 H 0.76053 0.47963 0.54767 0.0
H3261 H 0.70347 0.43396 0.57312 0.0
H3262 H 0.72643 0.4288 0.57288 0.0
H3263 H 0.71117 0.42662 0.55194 0.0
C3264 C 0.78103 0.43384 0.56018 0.0
C3265 C 0.77615 0.42037 0.54583 0.0
C3266 C 0.76939 0.4461 0.56327 0.0
C3267 C 0.75258 0.44501 0.55221 0.0
C3268 C 0.74764 0.43159 0.53786 0.0
H3269 H 0.66389 0.50643 0.54945 0.0
H3270 H 0.68373 0.48438 0.54487 0.0
C3271 C 0.75933 0.41936 0.53469 0.0
C3272 C 0.74055 0.45832 0.55532 0.0
H3273 H 0.69862 0.46329 0.56857 0.0
C3274 C 0.74701 0.47611 0.5523 0.0
C3275 C 0.72291 0.45361 0.56127 0.0
C3276 C 0.71555 0.43475 0.56515 0.0
C3277 C 0.73617 0.48932 0.55475 0.0
C3278 C 0.71857 0.48467 0.56089 0.0
C3279 C 0.71212 0.46685 0.56392 0.0
C3280 C 0.70654 0.49807 0.56398 0.0
C3281 C 0.74349 0.50801 0.55025 0.0
C3282 C 0.71263 0.51298 0.57647 0.0
C3283 C 0.70143 0.52581 0.57889 0.0
C3284 C 0.68379 0.52387 0.56904 0.0
C3285 C 0.67755 0.50862 0.55694 0.0
C3286 C 0.68881 0.49588 0.55443 0.0
H3287 H 0.75446 0.50827 0.54092 0.0
H3288 H 0.7323 0.51439 0.54369 0.0
H3289 H 0.74957 0.51607 0.56312 0.0
H3290 H 0.72609 0.51474 0.58432 0.0
H3291 H 0.70674 0.53738 0.58827 0.0
H3292 H 0.2644 0.11774 0.55002 0.0
H3293 H 0.23247 0.1025 0.55092 0.0
H3294 H 0.21793 0.11689 0.49617 0.0
H3295 H 0.24971 0.13229 0.49531 0.0
H3296 H 0.1979 0.1149 0.54751 0.0
H3297 H 0.19706 0.06345 0.4911 0.0
H3298 H 0.21822 0.07665 0.50219 0.0
H3299 H 0.20402 0.08588 0.48523 0.0
C3300 C 0.2545 0.11762 0.53807 0.0
C3301 C 0.2601 0.12634 0.52252 0.0
C3302 C 0.23601 0.10885 0.53862 0.0
C3303 C 0.22228 0.10807 0.52354 0.0
C3304 C 0.22791 0.11677 0.508 0.0
H3305 H 0.1043 0.05642 0.49666 0.0
H3306 H 0.13628 0.07134 0.49669 0.0
C3307 C 0.2463 0.12574 0.50754 0.0
C3308 C 0.20226 0.09852 0.52414 0.0
H3309 H 0.16856 0.06507 0.50249 0.0
C3310 C 0.1916 0.10394 0.53767 0.0
C3311 C 0.19342 0.0842 0.51136 0.0
C3312 C 0.20375 0.07703 0.49672 0.0
C3313 C 0.17279 0.09603 0.53849 0.0
C3314 C 0.16395 0.08147 0.52585 0.0
C3315 C 0.17473 0.07605 0.51235 0.0
C3316 C 0.14373 0.07198 0.52607 0.0
C3317 C 0.16242 0.10409 0.55254 0.0
C3318 C 0.13636 0.06665 0.54242 0.0
C3319 C 0.11768 0.05821 0.54245 0.0
C3320 C 0.10546 0.05421 0.52606 0.0
C3321 C 0.11294 0.05907 0.50966 0.0
C3322 C 0.13153 0.06773 0.50968 0.0
H3323 H 0.16855 0.11823 0.55651 0.0
H3324 H 0.14769 0.10346 0.54732 0.0
H3325 H 0.16323 0.09676 0.56515 0.0
H3326 H 0.1451 0.06882 0.55536 0.0
H3327 H 0.11284 0.05469 0.55543 0.0
H3328 H 0.24175 0.01723 0.83537 0.0
H3329 H 0.25448 0.99258 0.82181 0.0
H3330 H 0.19963 0.9623 0.80891 0.0
H3331 H 0.18672 0.98684 0.82247 0.0
H3332 H 0.24793 0.95322 0.82853 0.0
H3333 H 0.22315 0.97042 0.75853 0.0
H3334 H 0.2258 0.98603 0.77844 0.0
H3335 H 0.20689 0.96776 0.77529 0.0
C3336 C 0.23244 1.00518 0.83 0.0
C3337 C 0.21326 1.00397 0.82978 0.0
C3338 C 0.23971 0.99117 0.82225 0.0
C3339 C 0.2279 0.97589 0.81415 0.0
C3340 C 0.20886 0.97416 0.81495 0.0
H3341 H 0.25234 0.88676 0.74826 0.0
H3342 H 0.23695 0.90983 0.76113 0.0
C3343 C 0.20156 0.98813 0.82277 0.0
C3344 C 0.2355 0.96232 0.80384 0.0
H3345 H 0.24005 0.94689 0.76028 0.0
C3346 C 0.24619 0.95174 0.81362 0.0
C3347 C 0.23299 0.9605 0.78443 0.0
C3348 C 0.22167 0.9718 0.77344 0.0
C3349 C 0.25463 0.93931 0.80441 0.0
C3350 C 0.25271 0.93792 0.78496 0.0
C3351 C 0.24163 0.94822 0.77519 0.0
C3352 C 0.26215 0.92575 0.77465 0.0
C3353 C 0.26535 0.92765 0.8156 0.0
C3354 C 0.28143 0.92771 0.77714 0.0
C3355 C 0.29022 0.91449 0.77006 0.0
C3356 C 0.27982 0.89922 0.76018 0.0
C3357 C 0.26065 0.8982 0.75616 0.0
C3358 C 0.25185 0.91137 0.76342 0.0
H3359 H 0.26129 0.92696 0.82976 0.0
H3360 H 0.26325 0.91393 0.80898 0.0
H3361 H 0.28028 0.93325 0.81668 0.0
H3362 H 0.28959 0.939 0.78543 0.0
H3363 H 0.30498 0.91569 0.77348 0.0
H3364 H 0.34851 0.94226 0.04662 0.0
H3365 H 0.37753 0.96258 0.04571 0.0
H3366 H 0.40224 0.91911 0.02531 0.0
H3367 H 0.37326 0.89854 0.02661 0.0
H3368 H 0.42518 0.94112 0.05236 0.0
H3369 H 0.39638 0.98067 0.99891 0.0
H3370 H 0.38421 0.97936 0.01891 0.0
H3371 H 0.38421 0.95953 1.00448 0.0
C3372 C 0.36012 0.93701 0.04193 0.0
C3373 C 0.35859 0.91884 0.03652 0.0
C3374 C 0.37666 0.94866 0.04135 0.0
C3375 C 0.39192 0.94241 0.0351 0.0
C3376 C 0.39058 0.9242 0.03008 0.0
H3377 H 0.48667 1.0007 0.99429 0.0
H3378 H 0.45756 0.98253 0.99929 0.0
C3379 C 0.37403 0.91249 0.03079 0.0
C3380 C 0.40921 0.95491 0.03366 0.0
H3381 H 0.42684 0.99161 0.01255 0.0
C3382 C 0.42558 0.95218 0.04368 0.0
C3383 C 0.40967 0.96922 0.02219 0.0
C3384 C 0.39273 0.97232 0.01037 0.0
C3385 C 0.44244 0.96337 0.04251 0.0
C3386 C 0.44282 0.97786 0.03127 0.0
C3387 C 0.42644 0.98061 0.02131 0.0
C3388 C 0.46028 0.98953 0.02855 0.0
C3389 C 0.45976 0.95926 0.05283 0.0
C3390 C 0.47132 0.99982 0.04331 0.0
C3391 C 0.48809 1.01026 0.04051 0.0
C3392 C 0.49401 1.01063 0.02287 0.0
C3393 C 0.48258 1.00073 0.00806 0.0
C3394 C 0.46592 0.9903 0.01088 0.0
H3395 H 0.45774 0.94553 0.05742 0.0
H3396 H 0.47133 0.96084 0.04418 0.0
H3397 H 0.46378 0.96867 0.06521 0.0
H3398 H 0.467 0.99974 0.05699 0.0
H3399 H 0.49643 0.01791 0.05215 0.0
H3400 H 0.94039 0.62908 0.8208 0.0
H3401 H 0.91446 0.6415 0.80665 0.0
H3402 H 0.94718 0.66161 0.76452 0.0
H3403 H 0.9733 0.64918 0.77857 0.0
H3404 H 0.91989 0.68426 0.78135 0.0
H3405 H 0.8913 0.61497 0.75339 0.0
H3406 H 0.89967 0.61791 0.77745 0.0
H3407 H 0.91557 0.62239 0.76067 0.0
C3408 C 0.9423 0.63667 0.80889 0.0
C3409 C 0.95879 0.638 0.80067 0.0
C3410 C 0.92745 0.64364 0.80078 0.0
C3411 C 0.92891 0.6521 0.7844 0.0
C3412 C 0.94586 0.65499 0.77712 0.0
H3413 H 0.83966 0.69528 0.72461 0.0
H3414 H 0.86919 0.68514 0.73052 0.0
C3415 C 0.96078 0.64799 0.78523 0.0
C3416 C 0.91219 0.65621 0.77408 0.0
H3417 H 0.8713 0.63616 0.75034 0.0
C3418 C 0.90933 0.67386 0.77432 0.0
C3419 C 0.8986 0.64249 0.76492 0.0
C3420 C 0.9014 0.62336 0.76391 0.0
C3421 C 0.89266 0.67809 0.76642 0.0
C3422 C 0.87877 0.66427 0.75775 0.0
C3423 C 0.88199 0.64669 0.75693 0.0
C3424 C 0.86017 0.6676 0.75121 0.0
C3425 C 0.8897 0.69716 0.76829 0.0
C3426 C 0.84499 0.65999 0.75983 0.0
C3427 C 0.82798 0.66544 0.7562 0.0
C3428 C 0.82593 0.67866 0.74395 0.0
C3429 C 0.84074 0.68503 0.73409 0.0
C3430 C 0.85772 0.67946 0.73763 0.0
H3431 H 0.90021 0.70543 0.77851 0.0
H3432 H 0.89066 0.703 0.75483 0.0
H3433 H 0.87581 0.69792 0.77246 0.0
H3434 H 0.84657 0.65062 0.77018 0.0
H3435 H 0.81673 0.66007 0.76375 0.0
H3436 H 0.85166 0.6035 0.021 0.0
H3437 H 0.87881 0.58865 0.02163 0.0
H3438 H 0.91433 0.63968 0.02762 0.0
H3439 H 0.88725 0.65448 0.02723 0.0
H3440 H 0.90599 0.58598 1.00119 0.0
H3441 H 0.942 0.6183 0.06702 0.0
H3442 H 0.91859 0.62049 0.05938 0.0
H3443 H 0.93764 0.63413 0.0507 0.0
C3444 C 0.86522 0.61168 0.02257 0.0
C3445 C 0.86675 0.63047 0.02419 0.0
C3446 C 0.88102 0.60304 0.02289 0.0
C3447 C 0.89936 0.61264 0.02509 0.0
C3448 C 0.90083 0.63145 0.02649 0.0
H3449 H 1.01365 0.58412 0.032 0.0
H3450 H 0.98646 0.59881 0.03132 0.0
C3451 C 0.88504 0.64008 0.02609 0.0
C3452 C 0.91656 0.60309 0.02549 0.0
H3453 H 0.95918 0.60156 0.04927 0.0
C3454 C 0.91749 0.58945 0.01186 0.0
C3455 C 0.93219 0.60713 0.03914 0.0
C3456 C 0.93255 0.62067 0.05499 0.0
C3457 C 0.93307 0.58048 0.0112 0.0
C3458 C 0.94868 0.58444 0.02492 0.0
C3459 C 0.94771 0.59808 0.03856 0.0
C3460 C 0.96595 0.57492 0.02533 0.0
C3461 C 0.93275 0.56724 0.99509 0.0
C3462 C 0.96458 0.55617 0.02257 0.0
C3463 C 0.98042 0.54762 0.02278 0.0
C3464 C 0.99871 0.55721 0.0261 0.0
C3465 C 1.00013 0.57592 0.02929 0.0
C3466 C 0.98428 0.58448 0.02894 0.0
H3467 H 0.92361 0.57006 0.98304 0.0
H3468 H 0.94677 0.5673 0.99088 0.0
H3469 H 0.92725 0.55372 0.99895 0.0
H3470 H 0.95111 0.54786 0.02046 0.0
H3471 H 0.97824 0.53328 0.02045 0.0
H3472 H 0.2467 0.09363 0.84489 0.0
H3473 H 0.26345 0.12366 0.8422 0.0
H3474 H 0.21193 0.1434 0.83651 0.0
H3475 H 0.19514 0.11353 0.83923 0.0
H3476 H 0.25736 0.1418 0.8105 0.0
H3477 H 0.24562 0.18097 0.87281 0.0
H3478 H 0.24291 0.15697 0.87129 0.0
H3479 H 0.2249 0.16775 0.86119 0.0
C3480 C 0.239 0.10446 0.84345 0.0
C3481 C 0.21964 0.10129 0.84218 0.0
C3482 C 0.24857 0.12156 0.84193 0.0
C3483 C 0.23891 0.13571 0.83937 0.0
C3484 C 0.21964 0.13269 0.83885 0.0
H3485 H 0.25732 0.22848 0.78065 0.0
H3486 H 0.24703 0.1999 0.793 0.0
C3487 C 0.21007 0.11561 0.84027 0.0
C3488 C 0.24858 0.15315 0.83498 0.0
H3489 H 0.25454 0.19759 0.8473 0.0
C3490 C 0.25702 0.15398 0.81869 0.0
C3491 C 0.24819 0.16896 0.84578 0.0
C3492 C 0.24007 0.16866 0.86385 0.0
C3493 C 0.2643 0.17035 0.81241 0.0
C3494 C 0.26287 0.18618 0.82263 0.0
C3495 C 0.25531 0.18536 0.83941 0.0
C3496 C 0.26867 0.20372 0.81574 0.0
C3497 C 0.27317 0.17062 0.79475 0.0
C3498 C 0.28394 0.21538 0.82477 0.0
C3499 C 0.28987 0.23167 0.81776 0.0
C3500 C 0.28051 0.23658 0.80168 0.0
C3501 C 0.26487 0.22505 0.79299 0.0
C3502 C 0.25901 0.20872 0.79998 0.0
H3503 H 0.27697 0.15755 0.79087 0.0
H3504 H 0.26331 0.17379 0.78349 0.0
H3505 H 0.28573 0.181 0.79596 0.0
H3506 H 0.29146 0.21171 0.83702 0.0
H3507 H 0.30191 0.24031 0.82484 0.0
H3508 H 0.47197 0.03514 0.27867 0.0
H3509 H 0.45385 1.00519 0.27747 0.0
H3510 H 0.43982 0.01581 0.33221 0.0
H3511 H 0.45797 0.04581 0.33358 0.0
H3512 H 0.45096 0.98114 0.32419 0.0
H3513 H 0.39614 0.99698 0.27302 0.0
H3514 H 0.4195 1.00187 0.26747 0.0
H3515 H 0.41267 0.01406 0.28649 0.0
C3516 C 0.46515 0.03105 0.29051 0.0
C3517 C 0.46624 0.04281 0.30618 0.0
C3518 C 0.45478 0.01398 0.28976 0.0
C3519 C 0.44537 1.00848 0.30465 0.0
C3520 C 0.44698 0.01993 0.32057 0.0
H3521 H 0.36931 0.92175 0.33532 0.0
H3522 H 0.3927 0.94794 0.33347 0.0
C3523 C 0.45731 0.03702 0.32132 0.0
C3524 C 0.4333 0.99098 0.30347 0.0
H3525 H 0.39215 0.96801 0.28297 0.0
C3526 C 0.43814 0.97818 0.31512 0.0
C3527 C 0.41671 0.98724 0.2915 0.0
C3528 C 0.41079 1.00075 0.27896 0.0
C3529 C 0.42663 0.96169 0.31529 0.0
C3530 C 0.40971 0.95819 0.30381 0.0
C3531 C 0.40514 0.9708 0.29176 0.0
C3532 C 0.39601 0.94201 0.30491 0.0
C3533 C 0.43268 0.94819 0.32775 0.0
C3534 C 0.3898 0.93028 0.28931 0.0
C3535 C 0.37622 0.91543 0.29025 0.0
C3536 C 0.36856 0.91217 0.30678 0.0
C3537 C 0.37484 0.92398 0.32236 0.0
C3538 C 0.38837 0.93881 0.32139 0.0
H3539 H 0.44791 0.95055 0.33114 0.0
H3540 H 0.42643 0.94927 0.34082 0.0
H3541 H 0.42816 0.93444 0.32137 0.0
H3542 H 0.39541 0.93268 0.27641 0.0
H3543 H 0.37146 0.90669 0.27795 0.0
H3544 H 0.56313 0.39335 0.63666 0.0
H3545 H 0.56245 0.41994 0.61984 0.0
H3546 H 0.59103 0.39807 0.57793 0.0
H3547 H 0.59179 0.37125 0.59472 0.0
H3548 H 0.59678 0.44161 0.61042 0.0
H3549 H 0.54461 0.41625 0.55057 0.0
H3550 H 0.54525 0.4055 0.5719 0.0
H3551 H 0.56238 0.40338 0.55666 0.0
C3552 C 0.56915 0.39412 0.62379 0.0
C3553 C 0.57759 0.38031 0.617 0.0
C3554 C 0.56871 0.40927 0.61421 0.0
C3555 C 0.57656 0.41079 0.59765 0.0
C3556 C 0.58472 0.39694 0.59061 0.0
H3557 H 0.6049 0.51303 0.55246 0.0
H3558 H 0.6048 0.4823 0.55992 0.0
C3559 C 0.58523 0.38174 0.60024 0.0
C3560 C 0.57729 0.42751 0.5886 0.0
H3561 H 0.55805 0.44663 0.55224 0.0
C3562 C 0.58846 0.44273 0.59762 0.0
C3563 C 0.56628 0.42875 0.57201 0.0
C3564 C 0.55384 0.41266 0.56216 0.0
C3565 C 0.58869 0.45938 0.59061 0.0
C3566 C 0.57762 0.4607 0.57404 0.0
C3567 C 0.56659 0.44543 0.56487 0.0
C3568 C 0.57671 0.47809 0.56674 0.0
C3569 C 0.6003 0.47553 0.6013 0.0
C3570 C 0.56066 0.48553 0.56745 0.0
C3571 C 0.56063 0.50308 0.56317 0.0
C3572 C 0.57668 0.51338 0.55818 0.0
C3573 C 0.5924 0.50551 0.55652 0.0
C3574 C 0.59238 0.48797 0.56072 0.0
H3575 H 0.60518 0.47266 0.61547 0.0
H3576 H 0.61259 0.48002 0.59415 0.0
H3577 H 0.59239 0.48665 0.60215 0.0
H3578 H 0.54845 0.47801 0.57209 0.0
H3579 H 0.54829 0.50876 0.56449 0.0
H3580 H 0.44504 0.71213 0.36734 0.0
H3581 H 0.41983 0.72136 0.34802 0.0
H3582 H 0.45936 0.75807 0.32332 0.0
H3583 H 0.48446 0.74831 0.34181 0.0
H3584 H 0.41218 0.75313 0.35134 0.0
H3585 H 0.42436 0.74058 0.27912 0.0
H3586 H 0.43613 0.7309 0.29772 0.0
H3587 H 0.44459 0.75321 0.29207 0.0
C3588 C 0.44833 0.7217 0.35731 0.0
C3589 C 0.46667 0.72954 0.3561 0.0
C3590 C 0.43394 0.72702 0.34633 0.0
C3591 C 0.43769 0.74035 0.33412 0.0
C3592 C 0.45608 0.74746 0.33224 0.0
H3593 H 0.3622 0.81402 0.31078 0.0
H3594 H 0.38928 0.80094 0.3208 0.0
C3595 C 0.47045 0.74194 0.34296 0.0
C3596 C 0.42256 0.74858 0.32536 0.0
H3597 H 0.40562 0.76293 0.2849 0.0
C3598 C 0.4106 0.75504 0.33676 0.0
C3599 C 0.42045 0.75105 0.30634 0.0
C3600 C 0.43197 0.74338 0.29311 0.0
C3601 C 0.39676 0.76409 0.32975 0.0
C3602 C 0.39532 0.76745 0.31091 0.0
C3603 C 0.40703 0.76071 0.29942 0.0
C3604 C 0.38094 0.77693 0.30274 0.0
C3605 C 0.38359 0.76958 0.34257 0.0
C3606 C 0.36812 0.76843 0.28826 0.0
C3607 C 0.35296 0.77608 0.28218 0.0
C3608 C 0.35026 0.79227 0.29064 0.0
C3609 C 0.36382 0.80141 0.3042 0.0
C3610 C 0.37918 0.79388 0.31004 0.0
H3611 H 0.38328 0.76167 0.35483 0.0
H3612 H 0.38816 0.78377 0.34749 0.0
H3613 H 0.36935 0.76797 0.33552 0.0
H3614 H 0.3693 0.75542 0.28231 0.0
H3615 H 0.34278 0.7687 0.27167 0.0
H3616 H 0.10361 0.78608 0.10782 0.0
H3617 H 0.09782 0.75455 0.09732 0.0
H3618 H 0.03953 0.75244 0.10013 0.0
H3619 H 0.04514 0.78406 0.11053 0.0
H3620 H 0.07894 0.72805 0.12048 0.0
H3621 H 0.04452 0.72656 0.04897 0.0
H3622 H 0.05916 0.74634 0.06005 0.0
H3623 H 0.0367 0.7394 0.06702 0.0
C3624 C 0.08952 0.77901 0.1058 0.0
C3625 C 0.07483 0.78745 0.11003 0.0
C3626 C 0.08626 0.76103 0.0999 0.0
C3627 C 0.06829 0.75132 0.09805 0.0
C3628 C 0.05347 0.75986 0.10138 0.0
H3629 H 0.04355 0.63843 0.06024 0.0
H3630 H 0.03871 0.66712 0.07371 0.0
C3631 C 0.05671 0.77787 0.10729 0.0
C3632 C 0.06544 0.73199 0.09396 0.0
H3633 H 0.05111 0.69954 0.05941 0.0
C3634 C 0.07267 0.72172 0.10721 0.0
C3635 C 0.05692 0.7239 0.0768 0.0
C3636 C 0.0489 0.73453 0.06229 0.0
C3637 C 0.07242 0.70356 0.10337 0.0
C3638 C 0.06508 0.69571 0.08574 0.0
C3639 C 0.0568 0.70573 0.07289 0.0
C3640 C 0.06781 0.6778 0.07957 0.0
C3641 C 0.0804 0.69304 0.11803 0.0
C3642 C 0.08577 0.67446 0.07851 0.0
C3643 C 0.08858 0.65817 0.07087 0.0
C3644 C 0.07345 0.64505 0.06411 0.0
C3645 C 0.05545 0.64829 0.06555 0.0
C3646 C 0.05265 0.66462 0.07316 0.0
H3647 H 0.0798 0.69917 0.13201 0.0
H3648 H 0.07299 0.67909 0.11699 0.0
H3649 H 0.09511 0.69285 0.11632 0.0
H3650 H 0.09762 0.68465 0.08308 0.0
H3651 H 0.10257 0.65593 0.07004 0.0
H3652 H 0.04404 0.24536 0.84546 0.0
H3653 H 0.07355 0.2542 0.83333 0.0
H3654 H 0.10175 0.23394 0.87985 0.0
H3655 H 0.07227 0.22475 0.89191 0.0
H3656 H 0.10314 0.27851 0.85174 0.0
H3657 H 0.12323 0.21272 0.83611 0.0
H3658 H 0.09998 0.21505 0.83994 0.0
H3659 H 0.11752 0.21659 0.85906 0.0
C3660 C 0.05649 0.24248 0.85292 0.0
C3661 C 0.0559 0.23434 0.86958 0.0
C3662 C 0.07331 0.24761 0.84603 0.0
C3663 C 0.08974 0.24463 0.85567 0.0
C3664 C 0.08916 0.23609 0.87208 0.0
H3665 H 0.20289 0.27364 0.82959 0.0
H3666 H 0.17641 0.26624 0.84693 0.0
C3667 C 0.07233 0.23089 0.87894 0.0
C3668 C 0.10755 0.25134 0.849 0.0
H3669 H 0.14497 0.23822 0.83232 0.0
C3670 C 0.11232 0.26972 0.84751 0.0
C3671 C 0.11951 0.23981 0.84372 0.0
C3672 C 0.11479 0.21993 0.84462 0.0
C3673 C 0.12866 0.27686 0.84052 0.0
C3674 C 0.14033 0.26528 0.83479 0.0
C3675 C 0.13589 0.247 0.83681 0.0
C3676 C 0.15646 0.27161 0.82526 0.0
C3677 C 0.13332 0.29669 0.83919 0.0
C3678 C 0.15386 0.27717 0.80745 0.0
C3679 C 0.16885 0.28111 0.79739 0.0
C3680 C 0.18667 0.27955 0.80503 0.0
C3681 C 0.18927 0.27463 0.8232 0.0
C3682 C 0.17424 0.27055 0.83318 0.0
H3683 H 0.12527 0.30406 0.84798 0.0
H3684 H 0.14826 0.30153 0.84325 0.0
H3685 H 0.13007 0.29977 0.82474 0.0
H3686 H 0.14014 0.27778 0.80106 0.0
H3687 H 0.16634 0.28463 0.78337 0.0
H3688 H 0.532 0.71337 0.91462 0.0
H3689 H 0.52991 0.68493 0.9289 0.0
H3690 H 0.57902 0.706 0.9652 0.0
H3691 H 0.58034 0.73472 0.95166 0.0
H3692 H 0.54343 0.65825 0.93229 0.0
H3693 H 0.55673 0.68399 1.00473 0.0
H3694 H 0.55346 0.69847 0.98663 0.0
H3695 H 0.5758 0.69237 0.99264 0.0
C3696 C 0.54231 0.71217 0.92583 0.0
C3697 C 0.55623 0.72712 0.93181 0.0
C3698 C 0.54116 0.69549 0.93415 0.0
C3699 C 0.55394 0.69239 0.949 0.0
C3700 C 0.56817 0.70728 0.95461 0.0
H3701 H 0.55702 0.57645 0.97451 0.0
H3702 H 0.55946 0.60507 0.96071 0.0
C3703 C 0.56912 0.72409 0.94651 0.0
C3704 C 0.55252 0.67382 0.95791 0.0
H3705 H 0.55848 0.65353 0.99889 0.0
C3706 C 0.54672 0.65753 0.94693 0.0
C3707 C 0.55621 0.67164 0.9772 0.0
C3708 C 0.56069 0.68753 0.99101 0.0
C3709 C 0.54482 0.64018 0.95412 0.0
C3710 C 0.5495 0.63798 0.97325 0.0
C3711 C 0.55504 0.65427 0.98428 0.0
C3712 C 0.54829 0.61941 0.98212 0.0
C3713 C 0.53689 0.62438 0.94083 0.0
C3714 C 0.54206 0.6167 0.99967 0.0
C3715 C 0.5411 0.60001 0.00798 0.0
C3716 C 0.54619 0.58469 0.99933 0.0
C3717 C 0.55253 0.58735 0.98186 0.0
C3718 C 0.55375 0.60412 0.97368 0.0
H3719 H 0.52815 0.62823 0.92901 0.0
H3720 H 0.54833 0.61884 0.93524 0.0
H3721 H 0.52836 0.61384 0.94758 0.0
H3722 H 0.5377 0.62759 0.00716 0.0
H3723 H 0.53627 0.59917 0.02141 0.0
H3724 H 0.08431 0.77727 0.69819 0.0
H3725 H 0.11497 0.77758 0.71487 0.0
H3726 H 0.14037 0.80388 0.6712 0.0
H3727 H 0.10977 0.8035 0.65449 0.0
H3728 H 0.14546 0.76286 0.70731 0.0
H3729 H 0.16774 0.8358 0.71455 0.0
H3730 H 0.14411 0.82563 0.70739 0.0
H3731 H 0.16093 0.82705 0.6912 0.0
C3732 C 0.09637 0.78324 0.69209 0.0
C3733 C 0.0941 0.79047 0.6748 0.0
C3734 C 0.11414 0.78337 0.70173 0.0
C3735 C 0.13059 0.79101 0.69478 0.0
C3736 C 0.12832 0.79819 0.67746 0.0
H3737 H 0.2514 0.80847 0.73371 0.0
H3738 H 0.22056 0.808 0.71776 0.0
C3739 C 0.11057 0.79788 0.66771 0.0
C3740 C 0.14987 0.79115 0.70535 0.0
H3741 H 0.19055 0.81848 0.72311 0.0
C3742 C 0.1552 0.77512 0.7108 0.0
C3743 C 0.16317 0.80692 0.71012 0.0
C3744 C 0.15871 0.82486 0.70569 0.0
C3745 C 0.173 0.77433 0.7201 0.0
C3746 C 0.1863 0.79013 0.72506 0.0
C3747 C 0.18089 0.80618 0.71963 0.0
C3748 C 0.20577 0.79036 0.73542 0.0
C3749 C 0.17751 0.75623 0.72377 0.0
C3750 C 0.20873 0.78094 0.7513 0.0
C3751 C 0.22671 0.78105 0.76048 0.0
C3752 C 0.24274 0.79087 0.75453 0.0
C3753 C 0.23975 0.80065 0.73897 0.0
C3754 C 0.22181 0.80041 0.72971 0.0
H3755 H 0.16899 0.74568 0.71403 0.0
H3756 H 0.19227 0.75573 0.72262 0.0
H3757 H 0.17446 0.7531 0.73785 0.0
H3758 H 0.19706 0.77353 0.75687 0.0
H3759 H 0.228 0.77342 0.7724 0.0
H3760 H 0.08 0.34686 0.4165 0.0
H3761 H 0.07883 0.37685 0.42968 0.0
H3762 H 0.03623 0.35477 0.46185 0.0
H3763 H 0.03826 0.32477 0.44948 0.0
H3764 H 0.05974 0.40015 0.42986 0.0
H3765 H 0.06083 0.38617 0.50267 0.0
H3766 H 0.06439 0.36977 0.48543 0.0
H3767 H 0.04131 0.3727 0.48943 0.0
C3768 C 0.07052 0.34824 0.42662 0.0
C3769 C 0.05947 0.33274 0.43189 0.0
C3770 C 0.06975 0.36576 0.43424 0.0
C3771 C 0.05775 0.36904 0.44756 0.0
C3772 C 0.04637 0.35348 0.45246 0.0
H3773 H 0.03561 0.48239 0.46738 0.0
H3774 H 0.03645 0.45218 0.45486 0.0
C3775 C 0.04738 0.33593 0.44507 0.0
C3776 C 0.05692 0.38842 0.45564 0.0
H3777 H 0.05263 0.41387 0.49523 0.0
C3778 C 0.05826 0.4029 0.44424 0.0
C3779 C 0.05536 0.39318 0.47456 0.0
C3780 C 0.0556 0.37969 0.48877 0.0
C3781 C 0.05788 0.42097 0.45072 0.0
C3782 C 0.05535 0.42555 0.46942 0.0
C3783 C 0.05427 0.41113 0.48089 0.0
C3784 C 0.05433 0.44489 0.47745 0.0
C3785 C 0.06107 0.43507 0.43728 0.0
C3786 C 0.06316 0.45187 0.4951 0.0
C3787 C 0.06227 0.4694 0.50261 0.0
C3788 C 0.05255 0.48124 0.49298 0.0
C3789 C 0.04357 0.47427 0.47543 0.0
C3790 C 0.04425 0.45665 0.46802 0.0
H3791 H 0.06903 0.43088 0.42622 0.0
H3792 H 0.04757 0.43727 0.43062 0.0
H3793 H 0.0687 0.44783 0.44418 0.0
H3794 H 0.07106 0.44377 0.50323 0.0
H3795 H 0.0694 0.4737 0.51614 0.0
H3796 H 0.50055 0.28 0.19913 0.0
H3797 H 0.47273 0.27816 0.21512 0.0
H3798 H 0.44102 0.28553 0.16448 0.0
H3799 H 0.46862 0.28637 0.14839 0.0
H3800 H 0.45037 0.29575 0.22598 0.0
H3801 H 0.40316 0.24856 0.17643 0.0
H3802 H 0.42745 0.25369 0.17425 0.0
H3803 H 0.412 0.26805 0.16553 0.0
C3804 C 0.48764 0.28104 0.19122 0.0
C3805 C 0.48737 0.28315 0.17209 0.0
C3806 C 0.4714 0.28004 0.20056 0.0
C3807 C 0.45376 0.28117 0.19144 0.0
C3808 C 0.45366 0.28374 0.17234 0.0
H3809 H 0.36327 0.30556 0.25965 0.0
H3810 H 0.39068 0.3066 0.24339 0.0
C3811 C 0.46985 0.28447 0.16295 0.0
C3812 C 0.43605 0.28016 0.20191 0.0
H3813 H 0.38908 0.26364 0.19888 0.0
C3814 C 0.43708 0.28859 0.21984 0.0
C3815 C 0.41809 0.27064 0.19488 0.0
C3816 C 0.4151 0.25956 0.17683 0.0
C3817 C 0.42154 0.28808 0.23028 0.0
C3818 C 0.40339 0.2794 0.22284 0.0
C3819 C 0.40241 0.27068 0.20506 0.0
C3820 C 0.38564 0.27886 0.23315 0.0
C3821 C 0.42519 0.2964 0.24971 0.0
C3822 C 0.37208 0.26326 0.23285 0.0
C3823 C 0.35578 0.26275 0.24207 0.0
C3824 C 0.35195 0.27781 0.25229 0.0
C3825 C 0.36539 0.29342 0.25248 0.0
C3826 C 0.38154 0.29398 0.2431 0.0
H3827 H 0.4397 0.29659 0.2555 0.0
H3828 H 0.42295 0.31041 0.24978 0.0
H3829 H 0.41597 0.28915 0.25886 0.0
H3830 H 0.37409 0.25118 0.22548 0.0
H3831 H 0.34608 0.25038 0.24111 0.0
H3832 H 0.68634 0.55038 0.39593 0.0
H3833 H 0.6686 0.54506 0.42205 0.0
H3834 H 0.62184 0.51783 0.3855 0.0
H3835 H 0.63948 0.52312 0.35926 0.0
H3836 H 0.6148 0.54641 0.40794 0.0
H3837 H 0.65007 0.50056 0.4487 0.0
H3838 H 0.6658 0.51885 0.44181 0.0
H3839 H 0.65238 0.50292 0.42461 0.0
C3840 C 0.67241 0.54296 0.39351 0.0
C3841 C 0.66423 0.53723 0.37563 0.0
C3842 C 0.66236 0.53981 0.40842 0.0
C3843 C 0.64405 0.53085 0.40563 0.0
C3844 C 0.63604 0.5246 0.38786 0.0
H3845 H 0.5693 0.53637 0.49115 0.0
H3846 H 0.58017 0.52664 0.46246 0.0
C3847 C 0.64611 0.52766 0.37294 0.0
C3848 C 0.63272 0.53016 0.42102 0.0
H3849 H 0.63246 0.51883 0.46524 0.0
C3850 C 0.61829 0.54001 0.42034 0.0
C3851 C 0.63738 0.52175 0.43705 0.0
C3852 C 0.65214 0.51027 0.43806 0.0
C3853 C 0.60929 0.54284 0.43586 0.0
C3854 C 0.6148 0.53537 0.45226 0.0
C3855 C 0.6284 0.52457 0.45259 0.0
C3856 C 0.60819 0.54036 0.46972 0.0
C3857 C 0.5949 0.55476 0.43502 0.0
C3858 C 0.62049 0.55106 0.48323 0.0
C3859 C 0.6144 0.55664 0.49957 0.0
C3860 C 0.59589 0.55155 0.50266 0.0
C3861 C 0.58363 0.54061 0.48914 0.0
C3862 C 0.58977 0.53503 0.47276 0.0
H3863 H 0.59386 0.56121 0.42184 0.0
H3864 H 0.58123 0.54679 0.4365 0.0
H3865 H 0.59813 0.56528 0.44651 0.0
H3866 H 0.63477 0.5553 0.48101 0.0
H3867 H 0.62422 0.56497 0.50973 0.0
H3868 H 0.33789 0.86976 0.09492 0.0
H3869 H 0.33722 0.86067 0.12635 0.0
H3870 H 0.27998 0.8368 0.1137 0.0
H3871 H 0.28053 0.84587 0.08217 0.0
H3872 H 0.31333 0.87126 0.15176 0.0
H3873 H 0.30385 0.79783 0.13927 0.0
H3874 H 0.31208 0.81281 0.12255 0.0
H3875 H 0.28796 0.80843 0.12545 0.0
C3876 C 0.32522 0.86231 0.09871 0.0
C3877 C 0.30927 0.85848 0.08599 0.0
C3878 C 0.32485 0.8572 0.11672 0.0
C3879 C 0.3086 0.84797 0.12238 0.0
C3880 C 0.29276 0.8437 0.10959 0.0
H3881 H 0.27403 0.80733 0.22313 0.0
H3882 H 0.27691 0.81643 0.19209 0.0
C3883 C 0.29309 0.8489 0.09156 0.0
C3884 C 0.30797 0.84365 0.14189 0.0
H3885 H 0.30082 0.8091 0.16935 0.0
C3886 C 0.31069 0.85767 0.15565 0.0
C3887 C 0.30451 0.82593 0.14693 0.0
C3888 C 0.30207 0.81034 0.13283 0.0
C3889 C 0.30951 0.85447 0.17426 0.0
C3890 C 0.30597 0.83672 0.17933 0.0
C3891 C 0.3035 0.82271 0.16553 0.0
C3892 C 0.30412 0.83226 0.1987 0.0
C3893 C 0.31142 0.87017 0.18816 0.0
C3894 C 0.31838 0.83824 0.21299 0.0
C3895 C 0.31665 0.83322 0.23095 0.0
C3896 C 0.30078 0.82182 0.23488 0.0
C3897 C 0.2865 0.81602 0.22059 0.0
C3898 C 0.28814 0.8212 0.20278 0.0
H3899 H 0.30886 0.88238 0.18154 0.0
H3900 H 0.3017 0.86746 0.19867 0.0
H3901 H 0.32568 0.87285 0.19525 0.0
H3902 H 0.33104 0.84645 0.21018 0.0
H3903 H 0.32796 0.83777 0.2416 0.0
H3904 H 0.02154 0.60613 0.86688 0.0
H3905 H 0.03309 0.5874 0.88975 0.0
H3906 H 0.05282 0.55668 0.84727 0.0
H3907 H 0.04169 0.57559 0.8243 0.0
H3908 H 0.01813 0.5426 0.87331 0.0
H3909 H 0.08959 0.56939 0.90506 0.0
H3910 H 0.07468 0.58516 0.89913 0.0
H3911 H 0.08189 0.57181 0.88126 0.0
C3912 C 0.02912 0.59594 0.86252 0.0
C3913 C 0.03057 0.59222 0.84382 0.0
C3914 C 0.03564 0.58522 0.87557 0.0
C3915 C 0.04362 0.57065 0.87007 0.0
C3916 C 0.04674 0.56794 0.85169 0.0
H3917 H 0.06172 0.50856 0.96523 0.0
H3918 H 0.06222 0.51282 0.93218 0.0
C3919 C 0.04046 0.57884 0.83864 0.0
C3920 C 0.04539 0.55677 0.88292 0.0
H3921 H 0.07101 0.549 0.92186 0.0
C3922 C 0.02991 0.54358 0.88364 0.0
C3923 C 0.06083 0.55803 0.89613 0.0
C3924 C 0.07781 0.57178 0.89542 0.0
C3925 C 0.0288 0.53267 0.89834 0.0
C3926 C 0.0435 0.53517 0.9126 0.0
C3927 C 0.05975 0.54711 0.91087 0.0
C3928 C 0.04073 0.52895 0.93096 0.0
C3929 C 1.01139 0.51948 0.89919 0.0
C3930 C 0.02823 0.53629 0.94095 0.0
C3931 C 0.02817 0.53414 0.95963 0.0
C3932 C 0.04041 0.52441 0.96858 0.0
C3933 C 0.052 0.51591 0.95842 0.0
C3934 C 0.05233 0.51837 0.93966 0.0
H3935 H 1.00457 0.51474 0.88518 0.0
H3936 H 1.01426 0.50785 0.90671 0.0
H3937 H 1.00159 0.52604 0.9065 0.0
H3938 H 0.01944 0.54479 0.93459 0.0
H3939 H 0.01924 0.5409 0.96732 0.0
H3940 H 0.338 0.17825 0.59012 0.0
H3941 H 0.33596 0.19292 0.6204 0.0
H3942 H 0.29015 0.21572 0.5973 0.0
H3943 H 0.29214 0.20103 0.56706 0.0
H3944 H 0.33987 0.2265 0.63543 0.0
H3945 H 0.26753 0.19688 0.64102 0.0
H3946 H 0.2802 0.18925 0.62327 0.0
H3947 H 0.26999 0.20894 0.62088 0.0
C3948 C 0.32743 0.18638 0.59136 0.0
C3949 C 0.31524 0.18818 0.57563 0.0
C3950 C 0.32625 0.1949 0.60895 0.0
C3951 C 0.31262 0.20547 0.61194 0.0
C3952 C 0.30058 0.20745 0.59613 0.0
H3953 H 0.28162 0.2664 0.70943 0.0
H3954 H 0.2841 0.25229 0.67905 0.0
C3955 C 0.30185 0.19906 0.57851 0.0
C3956 C 0.31124 0.21446 0.63124 0.0
H3957 H 0.28121 0.21998 0.6636 0.0
C3958 C 0.32697 0.22489 0.64149 0.0
C3959 C 0.29459 0.21282 0.63985 0.0
C3960 C 0.27715 0.20124 0.63081 0.0
C3961 C 0.32649 0.23376 0.65917 0.0
C3962 C 0.30984 0.23208 0.66782 0.0
C3963 C 0.29411 0.22163 0.65755 0.0
C3964 C 0.30841 0.241 0.68715 0.0
C3965 C 0.34391 0.24546 0.66807 0.0
C3966 C 0.32091 0.23962 0.70281 0.0
C3967 C 0.31948 0.24782 0.72048 0.0
C3968 C 0.3054 0.25782 0.72362 0.0
C3969 C 0.29278 0.25903 0.70803 0.0
C3970 C 0.29418 0.25079 0.69037 0.0
H3971 H 0.35327 0.25007 0.65772 0.0
H3972 H 0.34084 0.25731 0.67585 0.0
H3973 H 0.35139 0.23775 0.67772 0.0
H3974 H 0.33179 0.2319 0.70153 0.0
H3975 H 0.32952 0.24623 0.7318 0.0
H3976 H 0.67789 0.54155 0.26383 0.0
H3977 H 0.6572 0.53541 0.23504 0.0
H3978 H 0.61014 0.53454 0.26549 0.0
H3979 H 0.63062 0.54076 0.29423 0.0
H3980 H 0.62466 0.50596 0.22447 0.0
H3981 H 0.60824 0.57444 0.22837 0.0
H3982 H 0.62823 0.56864 0.24126 0.0
H3983 H 0.6058 0.56263 0.24874 0.0
C3984 C 0.66313 0.53998 0.26436 0.0
C3985 C 0.65582 0.54181 0.28119 0.0
C3986 C 0.65138 0.53639 0.24797 0.0
C3987 C 0.63225 0.53466 0.24827 0.0
C3988 C 0.62492 0.53598 0.26508 0.0
H3989 H 0.543 0.5382 0.16445 0.0
H3990 H 0.56035 0.53334 0.19349 0.0
C3991 C 0.63662 0.53957 0.28143 0.0
C3992 C 0.61991 0.53252 0.23099 0.0
H3993 H 0.59151 0.55429 0.20482 0.0
C3994 C 0.61734 0.51645 0.22009 0.0
C3995 C 0.61054 0.54631 0.22546 0.0
C3996 C 0.61339 0.56405 0.23645 0.0
C3997 C 0.60519 0.51367 0.20382 0.0
C3998 C 0.59573 0.5275 0.1983 0.0
C3999 C 0.59852 0.54359 0.20922 0.0
C4000 C 0.58362 0.52625 0.1808 0.0
C4001 C 0.60243 0.49592 0.19292 0.0
C4002 C 0.59066 0.52322 0.16405 0.0
C4003 C 0.58056 0.52555 0.14753 0.0
C4004 C 0.56353 0.53135 0.14759 0.0
C4005 C 0.55607 0.5336 0.1642 0.0
C4006 C 0.56598 0.53087 0.1807 0.0
H4007 H 0.60538 0.48521 0.20183 0.0
H4008 H 0.58815 0.49221 0.18597 0.0
H4009 H 0.61215 0.49665 0.18229 0.0
H4010 H 0.60444 0.52021 0.16377 0.0
H4011 H 0.58666 0.52409 0.13482 0.0
H4012 H 0.30454 0.83792 0.9873 0.0
H4013 H 0.30172 0.82758 0.95463 0.0
H4014 H 0.29062 0.87879 0.93955 0.0
H4015 H 0.29355 0.88921 0.972 0.0
H4016 H 0.27157 0.82584 0.92696 0.0
H4017 H 0.33305 0.87135 0.90966 0.0
H4018 H 0.32903 0.86731 0.93306 0.0
H4019 H 0.31675 0.88213 0.92061 0.0
C4020 C 0.30147 0.84695 0.97702 0.0
C4021 C 0.29935 0.86441 0.98229 0.0
C4022 C 0.29988 0.84104 0.95834 0.0
C4023 C 0.29627 0.8525 0.94457 0.0
C4024 C 0.29381 0.86981 0.94985 0.0
H4025 H 0.28869 0.83901 0.82355 0.0
H4026 H 0.28823 0.85114 0.85528 0.0
C4027 C 0.29537 0.87571 0.96846 0.0
C4028 C 0.2948 0.84631 0.92472 0.0
H4029 H 0.31416 0.8542 0.88485 0.0
C4030 C 0.28091 0.83202 0.91777 0.0
C4031 C 0.30684 0.85449 0.91262 0.0
C4032 C 0.32237 0.86958 0.91934 0.0
C4033 C 0.27866 0.82575 0.89912 0.0
C4034 C 0.29095 0.83367 0.88707 0.0
C4035 C 0.30469 0.84814 0.89398 0.0
C4036 C 0.29052 0.8264 0.86763 0.0
C4037 C 0.2629 0.81085 0.89249 0.0
C4038 C 0.29215 0.80856 0.86392 0.0
C4039 C 0.29222 0.80161 0.84591 0.0
C4040 C 0.29098 0.81234 0.83097 0.0
C4041 C 0.28952 0.83031 0.83464 0.0
C4042 C 0.28932 0.83726 0.8528 0.0
H4043 H 0.25145 0.81057 0.90125 0.0
H4044 H 0.25739 0.8121 0.87806 0.0
H4045 H 0.26785 0.79795 0.89325 0.0
H4046 H 0.29371 0.8 0.87504 0.0
H4047 H 0.29362 0.78778 0.8438 0.0
H4048 H 0.95799 0.57326 0.74608 0.0
H4049 H 0.95915 0.55597 0.71725 0.0
H4050 H 0.01736 0.57621 0.71942 0.0
H4051 H 0.01642 0.59348 0.74836 0.0
H4052 H 0.98999 0.5726 0.68189 0.0
H4053 H 0.99232 0.51303 0.72215 0.0
H4054 H 0.97626 0.52777 0.72646 0.0
H4055 H 1.00046 0.53522 0.73274 0.0
C4056 C 0.97095 0.57438 0.74019 0.0
C4057 C 0.98719 0.58455 0.74951 0.0
C4058 C 0.97156 0.56447 0.7238 0.0
C4059 C 0.98836 0.56474 0.71653 0.0
C4060 C 1.0043 0.57589 0.72502 0.0
H4061 H 0.05007 0.51589 0.64996 0.0
H4062 H 0.03313 0.52364 0.6753 0.0
C4063 C 1.00373 0.58576 0.74146 0.0
C4064 C 0.98984 0.5523 0.701 0.0
H4065 H 0.99846 0.51049 0.69134 0.0
C4066 C 0.99142 0.5589 0.68374 0.0
C4067 C 0.99172 0.53452 0.70374 0.0
C4068 C 0.99014 0.52708 0.72225 0.0
C4069 C 0.99583 0.54833 0.66919 0.0
C4070 C 0.99857 0.53076 0.67213 0.0
C4071 C 0.99613 0.52391 0.68919 0.0
C4072 C 1.00684 0.52062 0.65854 0.0
C4073 C 0.99873 0.55642 0.65116 0.0
C4074 C 0.99728 0.51515 0.64116 0.0
C4075 C 1.00693 0.51073 0.62669 0.0
C4076 C 0.02618 0.51174 0.62954 0.0
C4077 C 0.03525 0.51503 0.64743 0.0
C4078 C 0.0256 0.51948 0.66189 0.0
H4079 H 0.99818 0.57088 0.65194 0.0
H4080 H 1.01228 0.55449 0.64684 0.0
H4081 H 0.98783 0.5497 0.64035 0.0
H4082 H 0.98273 0.51578 0.63847 0.0
H4083 H 0.99962 0.50792 0.613 0.0
H4084 H 0.30488 0.16124 0.45268 0.0
H4085 H 0.30398 0.17565 0.42355 0.0
H4086 H 0.32581 0.22623 0.45294 0.0
H4087 H 0.32686 0.21177 0.48207 0.0
H4088 H 0.28635 0.19927 0.40774 0.0
H4089 H 0.35942 0.23134 0.414 0.0
H4090 H 0.35093 0.21522 0.42951 0.0
H4091 H 0.3478 0.23802 0.43286 0.0
C4092 C 0.30964 0.17545 0.4531 0.0
C4093 C 0.31609 0.18504 0.4703 0.0
C4094 C 0.30907 0.18384 0.43613 0.0
C4095 C 0.31515 0.20235 0.4352 0.0
C4096 C 0.32145 0.21198 0.45246 0.0
H4097 H 0.32275 0.27696 0.34345 0.0
H4098 H 0.32427 0.26292 0.37281 0.0
C4099 C 0.32192 0.20359 0.46946 0.0
C4100 C 0.31446 0.21135 0.41651 0.0
H4101 H 0.33991 0.23974 0.38957 0.0
C4102 C 0.29822 0.20802 0.40391 0.0
C4103 C 0.3296 0.22309 0.41071 0.0
C4104 C 0.34798 0.22703 0.42236 0.0
C4105 C 0.29658 0.21603 0.38667 0.0
C4106 C 0.31178 0.22767 0.38075 0.0
C4107 C 0.32801 0.23102 0.3934 0.0
C4108 C 0.31111 0.23646 0.36191 0.0
C4109 C 0.27801 0.21235 0.37532 0.0
C4110 C 0.30365 0.22682 0.34494 0.0
C4111 C 0.30269 0.235 0.32787 0.0
C4112 C 0.30942 0.25333 0.32653 0.0
C4113 C 0.31737 0.2629 0.34337 0.0
C4114 C 0.31824 0.25472 0.36049 0.0
H4115 H 0.26669 0.2087 0.384 0.0
H4116 H 0.27529 0.22406 0.36788 0.0
H4117 H 0.27762 0.20096 0.36515 0.0
H4118 H 0.29858 0.2127 0.34472 0.0
H4119 H 0.29653 0.2268 0.31558 0.0
H4120 H 0.34979 0.68308 0.50738 0.0
H4121 H 0.37652 0.66795 0.50796 0.0
H4122 H 0.35345 0.63303 0.54709 0.0
H4123 H 0.32639 0.64772 0.54608 0.0
H4124 H 0.40204 0.6647 0.53546 0.0
H4125 H 0.36506 0.59749 0.50952 0.0
H4126 H 0.35413 0.61691 0.50874 0.0
H4127 H 0.35651 0.60589 0.5297 0.0
C4128 C 0.35039 0.67212 0.51605 0.0
C4129 C 0.33596 0.6665 0.52661 0.0
C4130 C 0.36567 0.66349 0.51637 0.0
C4131 C 0.36686 0.64912 0.52729 0.0
C4132 C 0.35262 0.64373 0.53814 0.0
H4133 H 0.45133 0.58499 0.55327 0.0
H4134 H 0.42452 0.60008 0.55262 0.0
C4135 C 0.33722 0.65223 0.53767 0.0
C4136 C 0.38325 0.64014 0.52769 0.0
H4137 H 0.39658 0.59967 0.52146 0.0
C4138 C 0.40083 0.6505 0.53229 0.0
C4139 C 0.3817 0.62159 0.52351 0.0
C4140 C 0.36335 0.60985 0.51741 0.0
C4141 C 0.41685 0.6428 0.53313 0.0
C4142 C 0.41525 0.62426 0.52918 0.0
C4143 C 0.39772 0.61388 0.52457 0.0
C4144 C 0.43165 0.6154 0.52968 0.0
C4145 C 0.43535 0.65449 0.53854 0.0
C4146 C 0.44446 0.61896 0.51692 0.0
C4147 C 0.45979 0.6104 0.51727 0.0
C4148 C 0.46258 0.59809 0.53039 0.0
C4149 C 0.4497 0.59457 0.54316 0.0
C4150 C 0.43432 0.60308 0.54273 0.0
H4151 H 0.43397 0.66768 0.54487 0.0
H4152 H 0.44408 0.648 0.54837 0.0
H4153 H 0.44261 0.65666 0.52612 0.0
H4154 H 0.44251 0.62828 0.50659 0.0
H4155 H 0.46952 0.61349 0.50733 0.0
H4156 H 0.82711 0.95814 0.51637 0.0
H4157 H 0.85865 0.97363 0.51432 0.0
H4158 H 0.88028 0.93456 0.5462 0.0
H4159 H 0.84889 0.9187 0.54747 0.0
H4160 H 0.88613 0.99103 0.53463 0.0
H4161 H 0.9139 0.933 0.50885 0.0
H4162 H 0.8897 0.93187 0.51095 0.0
H4163 H 0.90552 0.92922 0.5306 0.0
C4164 C 0.83856 0.95273 0.52288 0.0
C4165 C 0.83504 0.93688 0.53197 0.0
C4166 C 0.85685 0.96171 0.52173 0.0
C4167 C 0.87259 0.95534 0.52964 0.0
C4168 C 0.86896 0.93976 0.5392 0.0
H4169 H 0.98397 0.02616 0.54866 0.0
H4170 H 0.95238 1.01111 0.5505 0.0
C4171 C 0.85071 0.93067 0.54014 0.0
C4172 C 0.89246 0.96506 0.52817 0.0
H4173 H 0.93611 0.95864 0.51966 0.0
C4174 C 0.89693 0.98379 0.53127 0.0
C4175 C 0.9071 0.95622 0.5234 0.0
C4176 C 0.90379 0.93651 0.51806 0.0
C4177 C 0.91497 0.99355 0.53009 0.0
C4178 C 0.92984 0.9846 0.52629 0.0
C4179 C 0.92528 0.96591 0.52287 0.0
C4180 C 0.94988 0.99418 0.52533 0.0
C4181 C 0.91755 0.01357 0.53232 0.0
C4182 C 0.96026 0.98968 0.51107 0.0
C4183 C 0.97878 0.99814 0.51023 0.0
C4184 C 0.98793 0.01167 0.52355 0.0
C4185 C 0.97763 0.01615 0.53785 0.0
C4186 C 0.9592 1.00751 0.53883 0.0
H4187 H 0.90437 0.0184 0.52869 0.0
H4188 H 0.92232 0.0181 0.54691 0.0
H4189 H 0.92786 0.01982 0.52358 0.0
H4190 H 0.954 0.97955 0.50035 0.0
H4191 H 0.98596 0.99402 0.499 0.0
H4192 H 0.85327 0.05157 0.21145 0.0
H4193 H 0.8404 0.0784 0.2184 0.0
H4194 H 0.89207 0.10259 0.24932 0.0
H4195 H 0.90516 0.0761 0.24204 0.0
H4196 H 0.83629 0.0907 0.25286 0.0
H4197 H 0.8799 0.14274 0.21928 0.0
H4198 H 0.87936 0.11929 0.21402 0.0
H4199 H 0.893 0.13054 0.23429 0.0
C4200 C 0.86196 0.06275 0.21944 0.0
C4201 C 0.88017 0.06179 0.22624 0.0
C4202 C 0.85461 0.07802 0.2234 0.0
C4203 C 0.86537 0.0925 0.2342 0.0
C4204 C 0.88369 0.09172 0.24061 0.0
H4205 H 0.82189 0.17134 0.29904 0.0
H4206 H 0.83681 0.1467 0.28882 0.0
C4207 C 0.89109 0.07653 0.23654 0.0
C4208 C 0.8569 0.1077 0.24019 0.0
H4209 H 0.86111 0.15283 0.24092 0.0
C4210 C 0.84161 0.10428 0.25013 0.0
C4211 C 0.86392 0.12536 0.23658 0.0
C4212 C 0.87984 0.12972 0.22531 0.0
C4213 C 0.83315 0.11808 0.25667 0.0
C4214 C 0.84047 0.13578 0.25352 0.0
C4215 C 0.85569 0.13922 0.24346 0.0
C4216 C 0.83204 0.15086 0.25989 0.0
C4217 C 0.81625 0.11355 0.26659 0.0
C4218 C 0.82489 0.16151 0.24702 0.0
C4219 C 0.81654 0.17558 0.2528 0.0
C4220 C 0.81521 0.1792 0.27157 0.0
C4221 C 0.8225 0.1686 0.28448 0.0
C4222 C 0.831 0.15459 0.27868 0.0
H4223 H 0.80977 0.09935 0.26377 0.0
H4224 H 0.82028 0.11602 0.28162 0.0
H4225 H 0.80582 0.12195 0.26256 0.0
H4226 H 0.82559 0.15881 0.23246 0.0
H4227 H 0.81092 0.18351 0.24258 0.0
H4228 H 0.74837 0.13637 1.00013 0.0
H4229 H 0.71958 0.11486 0.99653 0.0
H4230 H 0.6945 0.1507 0.0295 0.0
H4231 H 0.72298 0.17254 0.03243 0.0
H4232 H 0.70116 0.09712 0.02013 0.0
H4233 H 0.65599 0.13957 0.98662 0.0
H4234 H 0.68075 0.14589 0.98997 0.0
H4235 H 0.66711 0.14977 0.00836 0.0
C4236 C 0.73665 0.13971 0.00647 0.0
C4237 C 0.73785 0.1562 0.0164 0.0
C4238 C 0.72021 0.12739 1.00444 0.0
C4239 C 0.70469 0.13126 0.01241 0.0
C4240 C 0.70604 0.1476 0.0227 0.0
H4241 H 0.61171 0.05512 0.03724 0.0
H4242 H 0.64178 0.07378 0.03679 0.0
C4243 C 0.72238 0.16004 0.02448 0.0
C4244 C 0.68728 0.11804 0.01038 0.0
H4245 H 0.64079 0.11336 0.9987 0.0
C4246 C 0.68798 0.10063 0.01528 0.0
C4247 C 0.67009 0.12245 1.00368 0.0
C4248 C 0.66845 0.14038 0.99667 0.0
C4249 C 0.67194 0.08769 0.01414 0.0
C4250 C 0.65461 0.09244 0.00855 0.0
C4251 C 0.654 0.10971 1.0032 0.0
C4252 C 0.63688 0.07991 0.00841 0.0
C4253 C 0.67386 0.06901 0.01865 0.0
C4254 C 0.62387 0.07732 0.99275 0.0
C4255 C 0.60647 0.06697 0.99311 0.0
C4256 C 0.60178 0.05883 0.00911 0.0
C4257 C 0.61499 0.06098 0.02461 0.0
C4258 C 0.63228 0.07159 0.02433 0.0
H4259 H 0.68771 0.06611 0.01628 0.0
H4260 H 0.67226 0.06757 0.0334 0.0
H4261 H 0.66324 0.05897 0.0103 0.0
H4262 H 0.62704 0.08361 0.9803 0.0
H4263 H 0.5966 0.06559 0.98094 0.0
H4264 H 0.13516 0.43771 0.29704 0.0
H4265 H 0.15463 0.41499 0.30271 0.0
H4266 H 0.19224 0.43929 0.26642 0.0
H4267 H 0.17296 0.46176 0.26061 0.0
H4268 H 0.18471 0.40093 0.26299 0.0
H4269 H 0.20512 0.43012 0.33506 0.0
H4270 H 0.18093 0.42323 0.32755 0.0
H4271 H 0.19372 0.44181 0.31789 0.0
C4272 C 0.14742 0.43797 0.29007 0.0
C4273 C 0.15271 0.45157 0.27858 0.0
C4274 C 0.15852 0.42507 0.29336 0.0
C4275 C 0.17493 0.42569 0.28516 0.0
C4276 C 0.17962 0.43865 0.27289 0.0
H4277 H 0.27821 0.39479 0.2833 0.0
H4278 H 0.2493 0.40648 0.27969 0.0
C4279 C 0.16863 0.45151 0.26965 0.0
C4280 C 0.18824 0.41394 0.29024 0.0
H4281 H 0.22207 0.40931 0.32394 0.0
C4282 C 0.19266 0.40246 0.27642 0.0
C4283 C 0.19853 0.41604 0.30778 0.0
C4284 C 0.19449 0.42851 0.32297 0.0
C4285 C 0.20773 0.39364 0.27942 0.0
C4286 C 0.21872 0.39666 0.29658 0.0
C4287 C 0.21362 0.40721 0.31078 0.0
C4288 C 0.23636 0.39012 0.29951 0.0
C4289 C 0.21213 0.38159 0.26407 0.0
C4290 C 0.2388 0.37765 0.31242 0.0
C4291 C 0.25529 0.37097 0.31452 0.0
C4292 C 0.26959 0.37679 0.30385 0.0
C4293 C 0.26735 0.38991 0.29154 0.0
C4294 C 0.25085 0.39653 0.28941 0.0
H4295 H 0.19984 0.37686 0.25394 0.0
H4296 H 0.223 0.38905 0.25674 0.0
H4297 H 0.21735 0.36988 0.26952 0.0
H4298 H 0.22776 0.37271 0.32042 0.0
H4299 H 0.2565 0.36068 0.32392 0.0
H4300 H 0.21156 0.41045 0.0353 0.0
H4301 H 0.18399 0.42472 0.03448 0.0
H4302 H 0.21646 0.4739 0.02247 0.0
H4303 H 0.244 0.45967 0.02335 0.0
H4304 H 0.17285 0.45175 0.05389 0.0
H4305 H 0.17436 0.47297 0.9833 0.0
H4306 H 0.18874 0.45782 0.99225 0.0
H4307 H 0.19534 0.4814 0.99783 0.0
C4308 C 0.21297 0.42431 0.03239 0.0
C4309 C 0.23054 0.43359 0.02929 0.0
C4310 C 0.19692 0.43262 0.03196 0.0
C4311 C 0.19733 0.45067 0.02805 0.0
C4312 C 0.21495 0.45997 0.02507 0.0
H4313 H 0.11416 0.52481 0.01552 0.0
H4314 H 0.1414 0.51023 0.01667 0.0
C4315 C 0.23103 0.45172 0.02572 0.0
C4316 C 0.17969 0.45963 0.02742 0.0
H4317 H 0.15315 0.48429 1.00096 0.0
C4318 C 0.16863 0.45874 0.04217 0.0
C4319 C 0.17348 0.46912 0.0124 0.0
C4320 C 0.18345 0.47029 0.99546 0.0
C4321 C 0.15258 0.46709 0.04258 0.0
C4322 C 0.14625 0.47649 0.02749 0.0
C4323 C 0.15733 0.47733 0.01272 0.0
C4324 C 0.12868 0.48563 0.0268 0.0
C4325 C 0.14303 0.46628 0.05981 0.0
C4326 C 0.11139 0.47722 0.03172 0.0
C4327 C 0.0955 0.48576 0.03114 0.0
C4328 C 0.09575 0.50322 0.02539 0.0
C4329 C 0.11289 0.5115 0.02013 0.0
C4330 C 0.12879 0.50298 0.02076 0.0
H4331 H 0.15256 0.46428 0.07193 0.0
H4332 H 0.13744 0.47863 0.06274 0.0
H4333 H 0.13148 0.45483 0.0581 0.0
H4334 H 0.10994 0.46374 0.03583 0.0
H4335 H 0.08285 0.47851 0.03517 0.0
H4336 H 0.87602 0.95576 0.19349 0.0
H4337 H 0.8629 0.92474 0.19687 0.0
H4338 H 0.83866 0.94091 0.24481 0.0
H4339 H 0.85193 0.9719 0.2417 0.0
H4340 H 0.86304 0.91684 0.25077 0.0
H4341 H 0.81088 0.8939 0.19058 0.0
H4342 H 0.83274 0.90549 0.18536 0.0
H4343 H 0.8183 0.91713 0.19809 0.0
C4344 C 0.86746 0.95274 0.20444 0.0
C4345 C 0.86514 0.96616 0.21747 0.0
C4346 C 0.85992 0.93504 0.20629 0.0
C4347 C 0.84984 0.93063 0.22107 0.0
C4348 C 0.84642 0.94414 0.23332 0.0
H4349 H 0.79278 0.83346 0.25265 0.0
H4350 H 0.8027 0.86196 0.24061 0.0
C4351 C 0.85399 0.9618 0.23152 0.0
C4352 C 0.84513 0.91195 0.22532 0.0
H4353 H 0.81925 0.87184 0.20968 0.0
C4354 C 0.85346 0.90697 0.24181 0.0
C4355 C 0.83268 0.89924 0.21352 0.0
C4356 C 0.82298 0.90416 0.19595 0.0
C4357 C 0.84945 0.88957 0.24703 0.0
C4358 C 0.83712 0.87677 0.23517 0.0
C4359 C 0.82891 0.8817 0.21856 0.0
C4360 C 0.8312 0.85869 0.24068 0.0
C4361 C 0.85791 0.88523 0.26548 0.0
C4362 C 0.84396 0.84727 0.24434 0.0
C4363 C 0.8384 0.83094 0.25148 0.0
C4364 C 0.81996 0.8258 0.25481 0.0
C4365 C 0.80712 0.837 0.25033 0.0
C4366 C 0.81271 0.85329 0.24336 0.0
H4367 H 0.8639 0.89741 0.27448 0.0
H4368 H 0.84749 0.87696 0.27271 0.0
H4369 H 0.86915 0.87758 0.26342 0.0
H4370 H 0.85826 0.85116 0.24204 0.0
H4371 H 0.84855 0.82251 0.25459 0.0
H4372 H 0.68451 0.0406 0.77514 0.0
H4373 H 0.69979 0.0717 0.77911 0.0
H4374 H 0.64681 0.08869 0.7735 0.0
H4375 H 0.63144 0.05764 0.76918 0.0
H4376 H 0.67135 0.10633 0.75251 0.0
H4377 H 0.70348 0.10655 0.82407 0.0
H4378 H 0.70888 0.08908 0.80928 0.0
H4379 H 0.68536 0.08901 0.81368 0.0
C4380 C 0.67614 0.05097 0.77471 0.0
C4381 C 0.65682 0.04676 0.77184 0.0
C4382 C 0.68486 0.06869 0.77719 0.0
C4383 C 0.67437 0.08241 0.77702 0.0
C4384 C 0.65509 0.07824 0.77387 0.0
H4385 H 0.71546 0.19692 0.77778 0.0
H4386 H 0.69497 0.169 0.78145 0.0
C4387 C 0.64637 0.06053 0.77132 0.0
C4388 C 0.68364 0.10112 0.77911 0.0
H4389 H 0.71586 0.13067 0.80674 0.0
C4390 C 0.68085 0.11179 0.76449 0.0
C4391 C 0.69586 0.10816 0.79484 0.0
C4392 C 0.69844 0.09766 0.81144 0.0
C4393 C 0.69083 0.12904 0.76471 0.0
C4394 C 0.70375 0.13573 0.78004 0.0
C4395 C 0.70597 0.12537 0.79501 0.0
C4396 C 0.71623 0.1528 0.77994 0.0
C4397 C 0.68818 0.13966 0.74819 0.0
C4398 C 0.73498 0.15284 0.77847 0.0
C4399 C 0.74666 0.16867 0.77631 0.0
C4400 C 0.73972 0.18469 0.77564 0.0
C4401 C 0.72107 0.18469 0.77792 0.0
C4402 C 0.70939 0.16883 0.78009 0.0
H4403 H 0.67963 0.13152 0.7364 0.0
H4404 H 0.6812 0.15092 0.75192 0.0
H4405 H 0.70172 0.14528 0.74375 0.0
H4406 H 0.74042 0.14051 0.7783 0.0
H4407 H 0.76093 0.16826 0.77445 0.0
loop_
_geom_bond_atom_site_label_1
_geom_bond_atom_site_label_2
_geom_bond_distance
_geom_bond_site_symmetry_2
_ccdc_geom_bond_type
In0 O1 2.294 . S
In0 O2 2.326 . S
In0 O6 2.266 . S
In0 O7 2.326 . S
In0 O8 2.266 . S
In0 O9 2.326 . S
In0 O11 2.294 . S
In0 O12 2.326 . S
O1 In0 2.294 . S
O1 C10 1.240 . S
O2 In0 2.326 . S
O2 C10 1.252 . S
C3 O6 1.252 1_655 S
C3 O7 1.260 1_655 S
C4 O11 1.240 . S
C4 O12 1.252 . S
C5 O8 1.252 . S
C5 O9 1.260 . S
O6 In0 2.266 . S
O6 C3 1.252 1_455 S
O7 In0 2.326 . S
O7 C3 1.260 1_455 S
O8 In0 2.266 . S
O8 C5 1.252 . S
O9 In0 2.326 . S
O9 C5 1.260 . S
C10 O1 1.240 . S
C10 O2 1.252 . S
O11 In0 2.294 . S
O11 C4 1.240 . S
O12 In0 2.326 . S
O12 C4 1.252 . S
In13 O14 2.294 . S
In13 O15 2.326 . S
In13 O19 2.266 . S
In13 O20 2.326 . S
In13 O21 2.266 . S
In13 O22 2.326 . S
In13 O24 2.294 . S
In13 O25 2.326 . S
O14 In13 2.294 . S
O14 C23 1.240 . S
O15 In13 2.326 . S
O15 C23 1.252 . S
C16 O19 1.252 . S
C16 O20 1.260 . S
C17 O24 1.240 . S
C17 O25 1.252 . S
C18 O21 1.252 . S
C18 O22 1.260 . S
O19 In13 2.266 . S
O19 C16 1.252 . S
O20 In13 2.326 . S
O20 C16 1.260 . S
O21 In13 2.266 . S
O21 C18 1.252 . S
O22 In13 2.326 . S
O22 C18 1.260 . S
C23 O14 1.240 . S
C23 O15 1.252 . S
O24 In13 2.294 . S
O24 C17 1.240 . S
O25 In13 2.326 . S
O25 C17 1.252 . S
In26 O27 2.294 . S
In26 O28 2.326 . S
In26 O32 2.266 . S
In26 O33 2.326 . S
In26 O34 2.266 . S
In26 O35 2.326 . S
In26 O37 2.294 . S
In26 O38 2.326 . S
O27 In26 2.294 . S
O27 C36 1.240 . S
O28 In26 2.326 . S
O28 C36 1.252 . S
C29 O32 1.252 . S
C29 O33 1.260 . S
C30 O37 1.240 . S
C30 O38 1.252 . S
C31 O34 1.252 . S
C31 O35 1.260 . S
O32 In26 2.266 . S
O32 C29 1.252 . S
O33 In26 2.326 . S
O33 C29 1.260 . S
O34 In26 2.266 . S
O34 C31 1.252 . S
O35 In26 2.326 . S
O35 C31 1.260 . S
C36 O27 1.240 . S
C36 O28 1.252 . S
O37 In26 2.294 . S
O37 C30 1.240 . S
O38 In26 2.326 . S
O38 C30 1.252 . S
In39 O40 2.294 . S
In39 O41 2.326 . S
In39 O45 2.266 . S
In39 O46 2.326 . S
In39 O47 2.266 . S
In39 O48 2.326 . S
In39 O50 2.294 . S
In39 O51 2.326 . S
O40 In39 2.294 . S
O40 C49 1.240 . S
O41 In39 2.326 . S
O41 C49 1.252 . S
C42 O45 1.252 . S
C42 O46 1.260 . S
C43 O50 1.240 . S
C43 O51 1.252 . S
C44 O47 1.252 . S
C44 O48 1.260 . S
O45 In39 2.266 . S
O45 C42 1.252 . S
O46 In39 2.326 . S
O46 C42 1.260 . S
O47 In39 2.266 . S
O47 C44 1.252 . S
O48 In39 2.326 . S
O48 C44 1.260 . S
C49 O40 1.240 . S
C49 O41 1.252 . S
O50 In39 2.294 . S
O50 C43 1.240 . S
O51 In39 2.326 . S
O51 C43 1.252 . S
In52 O53 2.294 . S
In52 O54 2.326 . S
In52 O58 2.266 . S
In52 O59 2.326 . S
In52 O60 2.266 . S
In52 O61 2.326 . S
In52 O63 2.294 . S
In52 O64 2.326 . S
O53 In52 2.294 . S
O53 C62 1.240 . S
O54 In52 2.326 . S
O54 C62 1.252 . S
C55 O58 1.252 . S
C55 O59 1.260 . S
C56 O63 1.240 . S
C56 O64 1.252 . S
C57 O60 1.252 . S
C57 O61 1.260 . S
O58 In52 2.266 . S
O58 C55 1.252 . S
O59 In52 2.326 . S
O59 C55 1.260 . S
O60 In52 2.266 . S
O60 C57 1.252 . S
O61 In52 2.326 . S
O61 C57 1.260 . S
C62 O53 1.240 . S
C62 O54 1.252 . S
O63 In52 2.294 . S
O63 C56 1.240 . S
O64 In52 2.326 . S
O64 C56 1.252 . S
In65 O66 2.294 . S
In65 O67 2.326 . S
In65 O71 2.266 . S
In65 O72 2.326 . S
In65 O73 2.266 . S
In65 O74 2.326 . S
In65 O76 2.294 . S
In65 O77 2.326 . S
O66 In65 2.294 . S
O66 C75 1.240 . S
O67 In65 2.326 . S
O67 C75 1.252 . S
C68 O71 1.252 . S
C68 O72 1.260 . S
C69 O76 1.240 . S
C69 O77 1.252 . S
C70 O73 1.252 . S
C70 O74 1.260 . S
O71 In65 2.266 . S
O71 C68 1.252 . S
O72 In65 2.326 . S
O72 C68 1.260 . S
O73 In65 2.266 . S
O73 C70 1.252 . S
O74 In65 2.326 . S
O74 C70 1.260 . S
C75 O66 1.240 . S
C75 O67 1.252 . S
O76 In65 2.294 . S
O76 C69 1.240 . S
O77 In65 2.326 . S
O77 C69 1.252 . S
In78 O79 2.294 . S
In78 O80 2.326 . S
In78 O84 2.266 . S
In78 O85 2.326 . S
In78 O86 2.266 . S
In78 O87 2.326 . S
In78 O89 2.294 . S
In78 O90 2.326 . S
O79 In78 2.294 . S
O79 C88 1.240 . S
O80 In78 2.326 . S
O80 C88 1.252 . S
C81 O84 1.252 . S
C81 O85 1.260 . S
C82 O89 1.240 . S
C82 O90 1.252 . S
C83 O86 1.252 . S
C83 O87 1.260 . S
O84 In78 2.266 . S
O84 C81 1.252 . S
O85 In78 2.326 . S
O85 C81 1.260 . S
O86 In78 2.266 . S
O86 C83 1.252 . S
O87 In78 2.326 . S
O87 C83 1.260 . S
C88 O79 1.240 . S
C88 O80 1.252 . S
O89 In78 2.294 . S
O89 C82 1.240 . S
O90 In78 2.326 . S
O90 C82 1.252 . S
In91 O92 2.294 . S
In91 O93 2.328 1_455 S
In91 O97 2.266 . S
In91 O98 2.331 . S
In91 O99 2.264 1_455 S
In91 O100 2.323 1_455 S
In91 O102 2.296 . S
In91 O103 2.329 . S
O92 In91 2.294 . S
O92 C101 1.240 . S
O93 In91 2.328 1_655 S
O93 C101 1.252 1_655 S
C94 O97 1.254 . S
C94 O98 1.261 . S
C95 O102 1.240 . S
C95 O103 1.252 . S
C96 O99 1.252 . S
C96 O100 1.260 . S
O97 In91 2.266 . S
O97 C94 1.254 . S
O98 In91 2.331 . S
O98 C94 1.261 . S
O99 In91 2.264 1_655 S
O99 C96 1.252 . S
O100 In91 2.323 1_655 S
O100 C96 1.260 . S
C101 O92 1.240 . S
C101 O93 1.252 1_455 S
O102 In91 2.296 . S
O102 C95 1.240 . S
O103 In91 2.329 . S
O103 C95 1.252 . S
In104 O105 2.294 . S
In104 O106 2.326 . S
In104 O110 2.266 . S
In104 O111 2.326 . S
In104 O112 2.266 . S
In104 O113 2.326 . S
In104 O115 2.294 . S
In104 O116 2.326 . S
O105 In104 2.294 . S
O105 C114 1.240 . S
O106 In104 2.326 . S
O106 C114 1.252 . S
C107 O110 1.252 . S
C107 O111 1.260 . S
C108 O115 1.240 . S
C108 O116 1.252 . S
C109 O112 1.252 . S
C109 O113 1.260 . S
O110 In104 2.266 . S
O110 C107 1.252 . S
O111 In104 2.326 . S
O111 C107 1.260 . S
O112 In104 2.266 . S
O112 C109 1.252 . S
O113 In104 2.326 . S
O113 C109 1.260 . S
C114 O105 1.240 . S
C114 O106 1.252 . S
O115 In104 2.294 . S
O115 C108 1.240 . S
O116 In104 2.326 . S
O116 C108 1.252 . S
In117 O118 2.294 . S
In117 O119 2.326 . S
In117 O123 2.266 . S
In117 O124 2.326 . S
In117 O125 2.266 . S
In117 O126 2.326 . S
In117 O128 2.294 . S
In117 O129 2.326 . S
O118 In117 2.294 . S
O118 C127 1.240 . S
O119 In117 2.326 . S
O119 C127 1.252 . S
C120 O123 1.252 . S
C120 O124 1.260 . S
C121 O128 1.240 . S
C121 O129 1.252 . S
C122 O125 1.252 . S
C122 O126 1.260 . S
O123 In117 2.266 . S
O123 C120 1.252 . S
O124 In117 2.326 . S
O124 C120 1.260 . S
O125 In117 2.266 . S
O125 C122 1.252 . S
O126 In117 2.326 . S
O126 C122 1.260 . S
C127 O118 1.240 . S
C127 O119 1.252 . S
O128 In117 2.294 . S
O128 C121 1.240 . S
O129 In117 2.326 . S
O129 C121 1.252 . S
In130 O131 2.294 . S
In130 O132 2.326 . S
In130 O136 2.266 . S
In130 O137 2.326 . S
In130 O138 2.266 . S
In130 O139 2.326 . S
In130 O141 2.294 . S
In130 O142 2.326 . S
O131 In130 2.294 . S
O131 C140 1.240 . S
O132 In130 2.326 . S
O132 C140 1.252 . S
C133 O136 1.252 . S
C133 O137 1.260 . S
C134 O141 1.240 . S
C134 O142 1.252 . S
C135 O138 1.252 . S
C135 O139 1.260 . S
O136 In130 2.266 . S
O136 C133 1.252 . S
O137 In130 2.326 . S
O137 C133 1.260 . S
O138 In130 2.266 . S
O138 C135 1.252 . S
O139 In130 2.326 . S
O139 C135 1.260 . S
C140 O131 1.240 . S
C140 O132 1.252 . S
O141 In130 2.294 . S
O141 C134 1.240 . S
O142 In130 2.326 . S
O142 C134 1.252 . S
In143 O144 2.294 . S
In143 O145 2.326 . S
In143 O149 2.266 . S
In143 O150 2.326 . S
In143 O151 2.266 . S
In143 O152 2.326 . S
In143 O154 2.294 . S
In143 O155 2.326 . S
O144 In143 2.294 . S
O144 C153 1.240 . S
O145 In143 2.326 . S
O145 C153 1.252 . S
C146 O149 1.252 . S
C146 O150 1.260 . S
C147 O154 1.240 . S
C147 O155 1.252 . S
C148 O151 1.252 . S
C148 O152 1.260 . S
O149 In143 2.266 . S
O149 C146 1.252 . S
O150 In143 2.326 . S
O150 C146 1.260 . S
O151 In143 2.266 . S
O151 C148 1.252 . S
O152 In143 2.326 . S
O152 C148 1.260 . S
C153 O144 1.240 . S
C153 O145 1.252 . S
O154 In143 2.294 . S
O154 C147 1.240 . S
O155 In143 2.326 . S
O155 C147 1.252 . S
In156 O157 2.294 . S
In156 O158 2.326 . S
In156 O162 2.266 . S
In156 O163 2.326 1_554 S
In156 O164 2.266 . S
In156 O165 2.326 . S
In156 O167 2.294 . S
In156 O168 2.326 . S
O157 In156 2.294 . S
O157 C166 1.240 . S
O158 In156 2.326 . S
O158 C166 1.252 . S
C159 O162 1.252 1_556 S
C159 O163 1.260 . S
C160 O167 1.240 . S
C160 O168 1.252 . S
C161 O164 1.252 . S
C161 O165 1.260 . S
O162 In156 2.266 . S
O162 C159 1.252 1_554 S
O163 In156 2.326 1_556 S
O163 C159 1.260 . S
O164 In156 2.266 . S
O164 C161 1.252 . S
O165 In156 2.326 . S
O165 C161 1.260 . S
C166 O157 1.240 . S
C166 O158 1.252 . S
O167 In156 2.294 . S
O167 C160 1.240 . S
O168 In156 2.326 . S
O168 C160 1.252 . S
In169 O170 2.294 . S
In169 O171 2.326 . S
In169 O175 2.266 1_554 S
In169 O176 2.325 1_554 S
In169 O177 2.264 1_554 S
In169 O178 2.322 1_554 S
In169 O180 2.296 . S
In169 O181 2.330 . S
O170 In169 2.294 . S
O170 C179 1.240 . S
O171 In169 2.326 . S
O171 C179 1.252 . S
C172 O175 1.252 . S
C172 O176 1.260 . S
C173 O180 1.240 . S
C173 O181 1.252 . S
C174 O177 1.252 . S
C174 O178 1.260 . S
O175 In169 2.266 1_556 S
O175 C172 1.252 . S
O176 In169 2.325 1_556 S
O176 C172 1.260 . S
O177 In169 2.264 1_556 S
O177 C174 1.252 . S
O178 In169 2.322 1_556 S
O178 C174 1.260 . S
C179 O170 1.240 . S
C179 O171 1.252 . S
O180 In169 2.296 . S
O180 C173 1.240 . S
O181 In169 2.330 . S
O181 C173 1.252 . S
In182 O183 2.294 . S
In182 O184 2.326 . S
In182 O188 2.266 . S
In182 O189 2.326 . S
In182 O190 2.266 . S
In182 O191 2.326 . S
In182 O193 2.294 . S
In182 O194 2.326 . S
O183 In182 2.294 . S
O183 C192 1.240 . S
O184 In182 2.326 . S
O184 C192 1.252 . S
C185 O188 1.252 . S
C185 O189 1.260 . S
C186 O193 1.240 . S
C186 O194 1.252 . S
C187 O190 1.252 . S
C187 O191 1.260 . S
O188 In182 2.266 . S
O188 C185 1.252 . S
O189 In182 2.326 . S
O189 C185 1.260 . S
O190 In182 2.266 . S
O190 C187 1.252 . S
O191 In182 2.326 . S
O191 C187 1.260 . S
C192 O183 1.240 . S
C192 O184 1.252 . S
O193 In182 2.294 . S
O193 C186 1.240 . S
O194 In182 2.326 . S
O194 C186 1.252 . S
In195 O196 2.294 . S
In195 O197 2.326 . S
In195 O201 2.266 . S
In195 O202 2.326 . S
In195 O203 2.266 . S
In195 O204 2.326 . S
In195 O206 2.294 . S
In195 O207 2.326 . S
O196 In195 2.294 . S
O196 C205 1.240 . S
O197 In195 2.326 . S
O197 C205 1.252 . S
C198 O201 1.252 . S
C198 O202 1.260 . S
C199 O206 1.240 . S
C199 O207 1.252 . S
C200 O203 1.252 . S
C200 O204 1.260 . S
O201 In195 2.266 . S
O201 C198 1.252 . S
O202 In195 2.326 . S
O202 C198 1.260 . S
O203 In195 2.266 . S
O203 C200 1.252 . S
O204 In195 2.326 . S
O204 C200 1.260 . S
C205 O196 1.240 . S
C205 O197 1.252 . S
O206 In195 2.294 . S
O206 C199 1.240 . S
O207 In195 2.326 . S
O207 C199 1.252 . S
In208 O209 2.294 . S
In208 O210 2.326 . S
In208 O214 2.266 . S
In208 O215 2.326 . S
In208 O216 2.266 1_545 S
In208 O217 2.326 1_545 S
In208 O219 2.294 . S
In208 O220 2.326 . S
O209 In208 2.294 . S
O209 C218 1.240 . S
O210 In208 2.326 . S
O210 C218 1.252 . S
C211 O214 1.252 . S
C211 O215 1.260 . S
C212 O219 1.240 . S
C212 O220 1.252 . S
C213 O216 1.252 . S
C213 O217 1.260 . S
O214 In208 2.266 . S
O214 C211 1.252 . S
O215 In208 2.326 . S
O215 C211 1.260 . S
O216 In208 2.266 1_565 S
O216 C213 1.252 . S
O217 In208 2.326 1_565 S
O217 C213 1.260 . S
C218 O209 1.240 . S
C218 O210 1.252 . S
O219 In208 2.294 . S
O219 C212 1.240 . S
O220 In208 2.326 . S
O220 C212 1.252 . S
In221 O222 2.294 . S
In221 O223 2.326 . S
In221 O227 2.266 . S
In221 O228 2.326 . S
In221 O229 2.266 . S
In221 O230 2.326 . S
In221 O232 2.294 . S
In221 O233 2.326 . S
O222 In221 2.294 . S
O222 C231 1.240 . S
O223 In221 2.326 . S
O223 C231 1.252 . S
C224 O227 1.252 . S
C224 O228 1.260 . S
C225 O232 1.240 . S
C225 O233 1.252 . S
C226 O229 1.252 . S
C226 O230 1.260 . S
O227 In221 2.266 . S
O227 C224 1.252 . S
O228 In221 2.326 . S
O228 C224 1.260 . S
O229 In221 2.266 . S
O229 C226 1.252 . S
O230 In221 2.326 . S
O230 C226 1.260 . S
C231 O222 1.240 . S
C231 O223 1.252 . S
O232 In221 2.294 . S
O232 C225 1.240 . S
O233 In221 2.326 . S
O233 C225 1.252 . S
In234 O235 2.294 . S
In234 O236 2.326 . S
In234 O240 2.266 . S
In234 O241 2.326 . S
In234 O242 2.266 . S
In234 O243 2.326 . S
In234 O245 2.294 . S
In234 O246 2.326 . S
O235 In234 2.294 . S
O235 C244 1.240 . S
O236 In234 2.326 . S
O236 C244 1.252 . S
C237 O240 1.252 . S
C237 O241 1.260 . S
C238 O245 1.240 . S
C238 O246 1.252 . S
C239 O242 1.252 . S
C239 O243 1.260 . S
O240 In234 2.266 . S
O240 C237 1.252 . S
O241 In234 2.326 . S
O241 C237 1.260 . S
O242 In234 2.266 . S
O242 C239 1.252 . S
O243 In234 2.326 . S
O243 C239 1.260 . S
C244 O235 1.240 . S
C244 O236 1.252 . S
O245 In234 2.294 . S
O245 C238 1.240 . S
O246 In234 2.326 . S
O246 C238 1.252 . S
In247 O248 2.294 1_545 S
In247 O249 2.326 1_545 S
In247 O253 2.266 . S
In247 O254 2.326 . S
In247 O255 2.266 . S
In247 O256 2.326 . S
In247 O258 2.295 . S
In247 O259 2.326 . S
O248 In247 2.294 1_565 S
O248 C257 1.240 . S
O249 In247 2.326 1_565 S
O249 C257 1.252 . S
C250 O253 1.252 . S
C250 O254 1.260 . S
C251 O258 1.240 . S
C251 O259 1.252 . S
C252 O255 1.252 . S
C252 O256 1.260 . S
O253 In247 2.266 . S
O253 C250 1.252 . S
O254 In247 2.326 . S
O254 C250 1.260 . S
O255 In247 2.266 . S
O255 C252 1.252 . S
O256 In247 2.326 . S
O256 C252 1.260 . S
C257 O248 1.240 . S
C257 O249 1.252 . S
O258 In247 2.295 . S
O258 C251 1.240 . S
O259 In247 2.326 . S
O259 C251 1.252 . S
In260 O261 2.294 . S
In260 O262 2.326 . S
In260 O266 2.266 . S
In260 O267 2.326 . S
In260 O268 2.244 1_554 S
In260 O269 2.326 1_554 S
In260 O271 2.294 . S
In260 O272 2.326 . S
O261 In260 2.294 . S
O261 C270 1.240 . S
O262 In260 2.326 . S
O262 C270 1.252 . S
C263 O266 1.252 . S
C263 O267 1.260 . S
C264 O271 1.240 . S
C264 O272 1.252 . S
C265 O268 1.278 . S
C265 O269 1.260 . S
O266 In260 2.266 . S
O266 C263 1.252 . S
O267 In260 2.326 . S
O267 C263 1.260 . S
O268 In260 2.244 1_556 S
O268 C265 1.278 . S
O269 In260 2.326 1_556 S
O269 C265 1.260 . S
C270 O261 1.240 . S
C270 O262 1.252 . S
O271 In260 2.294 . S
O271 C264 1.240 . S
O272 In260 2.326 . S
O272 C264 1.252 . S
In273 O274 2.294 . S
In273 O275 2.326 . S
In273 O279 2.266 . S
In273 O280 2.326 . S
In273 O281 2.266 . S
In273 O282 2.326 . S
In273 O284 2.294 . S
In273 O285 2.326 . S
O274 In273 2.294 . S
O274 C283 1.240 . S
O275 In273 2.326 . S
O275 C283 1.252 . S
C276 O279 1.252 . S
C276 O280 1.260 . S
C277 O284 1.240 . S
C277 O285 1.252 . S
C278 O281 1.252 . S
C278 O282 1.260 . S
O279 In273 2.266 . S
O279 C276 1.252 . S
O280 In273 2.326 . S
O280 C276 1.260 . S
O281 In273 2.266 . S
O281 C278 1.252 . S
O282 In273 2.326 . S
O282 C278 1.260 . S
C283 O274 1.240 . S
C283 O275 1.252 . S
O284 In273 2.294 . S
O284 C277 1.240 . S
O285 In273 2.326 . S
O285 C277 1.252 . S
In286 O287 2.294 . S
In286 O288 2.326 . S
In286 O292 2.266 . S
In286 O293 2.326 . S
In286 O294 2.266 . S
In286 O295 2.326 . S
In286 O297 2.294 . S
In286 O298 2.326 . S
O287 In286 2.294 . S
O287 C296 1.240 . S
O288 In286 2.326 . S
O288 C296 1.252 . S
C289 O292 1.252 . S
C289 O293 1.260 . S
C290 O297 1.240 . S
C290 O298 1.252 . S
C291 O294 1.252 . S
C291 O295 1.260 . S
O292 In286 2.266 . S
O292 C289 1.252 . S
O293 In286 2.326 . S
O293 C289 1.260 . S
O294 In286 2.266 . S
O294 C291 1.252 . S
O295 In286 2.326 . S
O295 C291 1.260 . S
C296 O287 1.240 . S
C296 O288 1.252 . S
O297 In286 2.294 . S
O297 C290 1.240 . S
O298 In286 2.326 . S
O298 C290 1.252 . S
In299 O300 2.294 . S
In299 O301 2.326 . S
In299 O305 2.266 . S
In299 O306 2.326 . S
In299 O307 2.266 . S
In299 O308 2.326 . S
In299 O310 2.294 . S
In299 O311 2.326 . S
O300 In299 2.294 . S
O300 C309 1.240 . S
O301 In299 2.326 . S
O301 C309 1.252 . S
C302 O305 1.252 . S
C302 O306 1.260 . S
C303 O310 1.240 . S
C303 O311 1.252 . S
C304 O307 1.252 . S
C304 O308 1.260 . S
O305 In299 2.266 . S
O305 C302 1.252 . S
O306 In299 2.326 . S
O306 C302 1.260 . S
O307 In299 2.266 . S
O307 C304 1.252 . S
O308 In299 2.326 . S
O308 C304 1.260 . S
C309 O300 1.240 . S
C309 O301 1.252 . S
O310 In299 2.294 . S
O310 C303 1.240 . S
O311 In299 2.326 . S
O311 C303 1.252 . S
Tb312 C322 2.825 1_455 S
Tb312 O323 2.347 . S
Tb312 O326 2.366 . S
Tb312 O331 2.418 . S
Tb312 O332 2.384 . S
Tb312 O335 2.479 . S
Tb312 O336 2.478 . S
Eu313 O324 2.418 . S
Eu313 O325 2.384 . S
Eu313 O328 2.479 . S
Eu313 O329 2.471 . S
Eu313 O330 2.347 . S
Eu313 O333 2.366 . S
Eu313 C343 2.825 . S
C314 O330 1.259 . S
C314 O331 1.265 . S
C315 O332 1.255 . S
C315 O333 1.265 . S
C316 C318 1.380 1_554 S
C316 C319 1.374 . S
C316 C322 1.507 . S
C317 C318 1.384 . S
C317 C321 1.387 1_556 S
C317 H344 0.930 . S
C318 C316 1.380 1_556 S
C318 C317 1.384 . S
C318 H345 0.931 . S
C319 C316 1.374 . S
C319 C320 1.390 . S
C319 H346 0.930 . S
C320 C319 1.390 . S
C320 C321 1.391 . S
C320 H347 0.930 . S
C321 C317 1.387 1_554 S
C321 C320 1.391 . S
C322 Tb312 2.825 1_655 S
C322 C316 1.507 . S
C322 O335 1.238 1_655 S
C322 O336 1.246 1_655 S
O323 Tb312 2.347 . S
O323 C327 1.259 . S
O324 Eu313 2.418 . S
O324 C327 1.265 . S
O325 Eu313 2.384 . S
O325 C334 1.255 . S
O326 Tb312 2.366 . S
O326 C334 1.265 . S
C327 O323 1.259 . S
C327 O324 1.265 . S
O328 Eu313 2.479 . S
O328 C343 1.238 . S
O329 Eu313 2.471 . S
O329 C343 1.247 . S
O330 Eu313 2.347 . S
O330 C314 1.259 . S
O331 Tb312 2.418 . S
O331 C314 1.265 . S
O332 Tb312 2.384 . S
O332 C315 1.255 . S
O333 Eu313 2.366 . S
O333 C315 1.265 . S
C334 O325 1.255 . S
C334 O326 1.265 . S
O335 Tb312 2.479 . S
O335 C322 1.238 1_455 S
O336 Tb312 2.478 . S
O336 C322 1.246 1_455 S
C337 C340 1.380 . S
C337 C341 1.374 . S
C337 C343 1.507 . S
C338 C339 1.387 . S
C338 C342 1.391 . S
C339 C338 1.387 . S
C339 C340 1.384 . S
C339 H348 0.930 . S
C340 C337 1.380 . S
C340 C339 1.384 . S
C340 H349 0.931 . S
C341 C337 1.374 . S
C341 C342 1.390 . S
C341 H350 0.930 . S
C342 C338 1.391 . S
C342 C341 1.390 . S
C342 H351 0.930 . S
C343 Eu313 2.825 . S
C343 O328 1.238 . S
C343 O329 1.247 . S
C343 C337 1.507 . S
H344 C317 0.930 . S
H345 C318 0.931 . S
H346 C319 0.930 . S
H347 C320 0.930 . S
H348 C339 0.930 . S
H349 C340 0.931 . S
H350 C341 0.930 . S
H351 C342 0.930 . S
Tb352 C362 2.825 . S
Tb352 O363 2.347 . S
Tb352 O366 2.366 . S
Tb352 O371 2.418 . S
Tb352 O372 2.384 . S
Tb352 O375 2.479 . S
Tb352 O376 2.471 . S
Eu353 O364 2.418 . S
Eu353 O365 2.384 . S
Eu353 O368 2.479 . S
Eu353 O369 2.471 . S
Eu353 O370 2.347 . S
Eu353 O373 2.366 . S
Eu353 C383 2.825 . S
C354 O370 1.259 . S
C354 O371 1.265 . S
C355 O372 1.255 . S
C355 O373 1.265 . S
C356 C358 1.380 . S
C356 C359 1.374 . S
C356 C362 1.507 . S
C357 C358 1.384 . S
C357 C361 1.387 . S
C357 H384 0.930 . S
C358 C356 1.380 . S
C358 C357 1.384 . S
C358 H385 0.931 . S
C359 C356 1.374 . S
C359 C360 1.390 . S
C359 H386 0.930 . S
C360 C359 1.390 . S
C360 C361 1.391 . S
C360 H387 0.930 . S
C361 C357 1.387 . S
C361 C360 1.391 . S
C362 Tb352 2.825 . S
C362 C356 1.507 . S
C362 O375 1.238 . S
C362 O376 1.247 . S
O363 Tb352 2.347 . S
O363 C367 1.259 . S
O364 Eu353 2.418 . S
O364 C367 1.265 . S
O365 Eu353 2.384 . S
O365 C374 1.255 . S
O366 Tb352 2.366 . S
O366 C374 1.265 . S
C367 O363 1.259 . S
C367 O364 1.265 . S
O368 Eu353 2.479 . S
O368 C383 1.238 . S
O369 Eu353 2.471 . S
O369 C383 1.247 . S
O370 Eu353 2.347 . S
O370 C354 1.259 . S
O371 Tb352 2.418 . S
O371 C354 1.265 . S
O372 Tb352 2.384 . S
O372 C355 1.255 . S
O373 Eu353 2.366 . S
O373 C355 1.265 . S
C374 O365 1.255 . S
C374 O366 1.265 . S
O375 Tb352 2.479 . S
O375 C362 1.238 . S
O376 Tb352 2.471 . S
O376 C362 1.247 . S
C377 C380 1.380 . S
C377 C381 1.374 . S
C377 C383 1.507 . S
C378 C379 1.387 . S
C378 C382 1.391 . S
C379 C378 1.387 . S
C379 C380 1.384 . S
C379 H388 0.930 . S
C380 C377 1.380 . S
C380 C379 1.384 . S
C380 H389 0.931 . S
C381 C377 1.374 . S
C381 C382 1.390 . S
C381 H390 0.930 . S
C382 C378 1.391 . S
C382 C381 1.390 . S
C382 H391 0.930 . S
C383 Eu353 2.825 . S
C383 O368 1.238 . S
C383 O369 1.247 . S
C383 C377 1.507 . S
H384 C357 0.930 . S
H385 C358 0.931 . S
H386 C359 0.930 . S
H387 C360 0.930 . S
H388 C379 0.930 . S
H389 C380 0.931 . S
H390 C381 0.930 . S
H391 C382 0.930 . S
Tb392 C402 2.825 . S
Tb392 O403 2.347 1_565 S
Tb392 O406 2.366 . S
Tb392 O411 2.418 . S
Tb392 O412 2.384 1_565 S
Tb392 O415 2.479 . S
Tb392 O416 2.471 . S
Eu393 O404 2.418 . S
Eu393 O405 2.384 . S
Eu393 O408 2.479 . S
Eu393 O409 2.471 . S
Eu393 O410 2.347 . S
Eu393 O413 2.366 . S
Eu393 C423 2.825 . S
C394 O410 1.259 . S
C394 O411 1.265 1_545 S
C395 O412 1.255 . S
C395 O413 1.265 . S
C396 C398 1.380 . S
C396 C399 1.374 . S
C396 C402 1.507 . S
C397 C398 1.384 . S
C397 C401 1.387 . S
C397 H424 0.930 . S
C398 C396 1.380 . S
C398 C397 1.384 . S
C398 H425 0.931 . S
C399 C396 1.374 . S
C399 C400 1.390 . S
C399 H426 0.930 . S
C400 C399 1.390 . S
C400 C401 1.391 . S
C400 H427 0.930 . S
C401 C397 1.387 . S
C401 C400 1.391 . S
C402 Tb392 2.825 . S
C402 C396 1.507 . S
C402 O415 1.238 . S
C402 O416 1.247 . S
O403 Tb392 2.347 1_545 S
O403 C407 1.259 . S
O404 Eu393 2.418 . S
O404 C407 1.265 . S
O405 Eu393 2.384 . S
O405 C414 1.237 1_545 S
O406 Tb392 2.366 . S
O406 C414 1.273 . S
C407 O403 1.259 . S
C407 O404 1.265 . S
O408 Eu393 2.479 . S
O408 C423 1.238 . S
O409 Eu393 2.471 . S
O409 C423 1.247 . S
O410 Eu393 2.347 . S
O410 C394 1.259 . S
O411 Tb392 2.418 . S
O411 C394 1.265 1_565 S
O412 Tb392 2.384 1_545 S
O412 C395 1.255 . S
O413 Eu393 2.366 . S
O413 C395 1.265 . S
C414 O405 1.237 1_565 S
C414 O406 1.273 . S
O415 Tb392 2.479 . S
O415 C402 1.238 . S
O416 Tb392 2.471 . S
O416 C402 1.247 . S
C417 C420 1.380 . S
C417 C421 1.374 . S
C417 C423 1.507 . S
C418 C419 1.387 . S
C418 C422 1.391 . S
C419 C418 1.387 . S
C419 C420 1.384 . S
C419 H428 0.930 . S
C420 C417 1.380 . S
C420 C419 1.384 . S
C420 H429 0.931 . S
C421 C417 1.374 . S
C421 C422 1.390 . S
C421 H430 0.930 . S
C422 C418 1.391 . S
C422 C421 1.390 . S
C422 H431 0.930 . S
C423 Eu393 2.825 . S
C423 O408 1.238 . S
C423 O409 1.247 . S
C423 C417 1.507 . S
H424 C397 0.930 . S
H425 C398 0.931 . S
H426 C399 0.930 . S
H427 C400 0.930 . S
H428 C419 0.930 . S
H429 C420 0.931 . S
H430 C421 0.930 . S
H431 C422 0.930 . S
Tb432 C442 2.825 . S
Tb432 O443 2.347 . S
Tb432 O446 2.366 . S
Tb432 O451 2.418 . S
Tb432 O452 2.384 . S
Tb432 O455 2.479 . S
Tb432 O456 2.471 . S
Eu433 O444 2.418 . S
Eu433 O445 2.384 . S
Eu433 O448 2.479 . S
Eu433 O449 2.471 . S
Eu433 O450 2.347 . S
Eu433 O453 2.366 . S
Eu433 C463 2.825 . S
C434 O450 1.259 . S
C434 O451 1.265 . S
C435 O452 1.255 . S
C435 O453 1.265 . S
C436 C438 1.380 . S
C436 C439 1.374 . S
C436 C442 1.507 . S
C437 C438 1.384 . S
C437 C441 1.387 . S
C437 H464 0.930 . S
C438 C436 1.380 . S
C438 C437 1.384 . S
C438 H465 0.931 . S
C439 C436 1.374 . S
C439 C440 1.390 . S
C439 H466 0.930 . S
C440 C439 1.390 . S
C440 C441 1.391 . S
C440 H467 0.930 . S
C441 C437 1.387 . S
C441 C440 1.391 . S
C442 Tb432 2.825 . S
C442 C436 1.507 . S
C442 O455 1.238 . S
C442 O456 1.247 . S
O443 Tb432 2.347 . S
O443 C447 1.259 . S
O444 Eu433 2.418 . S
O444 C447 1.265 . S
O445 Eu433 2.384 . S
O445 C454 1.255 . S
O446 Tb432 2.366 . S
O446 C454 1.265 . S
C447 O443 1.259 . S
C447 O444 1.265 . S
O448 Eu433 2.479 . S
O448 C463 1.238 . S
O449 Eu433 2.471 . S
O449 C463 1.247 . S
O450 Eu433 2.347 . S
O450 C434 1.259 . S
O451 Tb432 2.418 . S
O451 C434 1.265 . S
O452 Tb432 2.384 . S
O452 C435 1.255 . S
O453 Eu433 2.366 . S
O453 C435 1.265 . S
C454 O445 1.255 . S
C454 O446 1.265 . S
O455 Tb432 2.479 . S
O455 C442 1.238 . S
O456 Tb432 2.471 . S
O456 C442 1.247 . S
C457 C460 1.380 . S
C457 C461 1.374 . S
C457 C463 1.507 . S
C458 C459 1.387 . S
C458 C462 1.391 . S
C459 C458 1.387 . S
C459 C460 1.384 . S
C459 H468 0.930 . S
C460 C457 1.380 . S
C460 C459 1.384 . S
C460 H469 0.931 . S
C461 C457 1.374 . S
C461 C462 1.390 . S
C461 H470 0.930 . S
C462 C458 1.391 . S
C462 C461 1.390 . S
C462 H471 0.930 . S
C463 Eu433 2.825 . S
C463 O448 1.238 . S
C463 O449 1.247 . S
C463 C457 1.507 . S
H464 C437 0.930 . S
H465 C438 0.931 . S
H466 C439 0.930 . S
H467 C440 0.930 . S
H468 C459 0.930 . S
H469 C460 0.931 . S
H470 C461 0.930 . S
H471 C462 0.930 . S
Tb472 C482 2.825 . S
Tb472 O483 2.347 . S
Tb472 O486 2.366 . S
Tb472 O491 2.418 . S
Tb472 O492 2.384 1_545 S
Tb472 O495 2.479 . S
Tb472 O496 2.471 . S
Eu473 O484 2.418 . S
Eu473 O485 2.384 . S
Eu473 O488 2.479 . S
Eu473 O489 2.471 . S
Eu473 O490 2.347 . S
Eu473 O493 2.333 1_545 S
Eu473 C503 2.825 . S
C474 O490 1.259 . S
C474 O491 1.265 . S
C475 O492 1.255 . S
C475 O493 1.291 . S
C476 C478 1.380 . S
C476 C479 1.353 1_455 S
C476 C482 1.507 . S
C477 C478 1.384 . S
C477 C481 1.387 . S
C477 H504 0.930 . S
C478 C476 1.380 . S
C478 C477 1.384 . S
C478 H505 0.931 . S
C479 C476 1.353 1_655 S
C479 C480 1.397 . S
C479 H506 0.945 . S
C480 C479 1.397 . S
C480 C481 1.391 1_655 S
C480 H507 0.930 . S
C481 C477 1.387 . S
C481 C480 1.391 1_455 S
C482 Tb472 2.825 . S
C482 C476 1.507 . S
C482 O495 1.238 . S
C482 O496 1.247 . S
O483 Tb472 2.347 . S
O483 C487 1.259 . S
O484 Eu473 2.418 . S
O484 C487 1.265 . S
O485 Eu473 2.384 . S
O485 C494 1.255 . S
O486 Tb472 2.366 . S
O486 C494 1.265 . S
C487 O483 1.259 . S
C487 O484 1.265 . S
O488 Eu473 2.479 . S
O488 C503 1.238 . S
O489 Eu473 2.471 . S
O489 C503 1.247 . S
O490 Eu473 2.347 . S
O490 C474 1.259 . S
O491 Tb472 2.418 . S
O491 C474 1.265 . S
O492 Tb472 2.384 1_565 S
O492 C475 1.255 . S
O493 Eu473 2.333 1_565 S
O493 C475 1.291 . S
C494 O485 1.255 . S
C494 O486 1.265 . S
O495 Tb472 2.479 . S
O495 C482 1.238 . S
O496 Tb472 2.471 . S
O496 C482 1.247 . S
C497 C500 1.380 . S
C497 C501 1.374 . S
C497 C503 1.507 . S
C498 C499 1.387 . S
C498 C502 1.391 . S
C499 C498 1.387 . S
C499 C500 1.384 . S
C499 H508 0.930 . S
C500 C497 1.380 . S
C500 C499 1.384 . S
C500 H509 0.931 . S
C501 C497 1.374 . S
C501 C502 1.390 . S
C501 H510 0.930 . S
C502 C498 1.391 . S
C502 C501 1.390 . S
C502 H511 0.930 . S
C503 Eu473 2.825 . S
C503 O488 1.238 . S
C503 O489 1.247 . S
C503 C497 1.507 . S
H504 C477 0.930 . S
H505 C478 0.931 . S
H506 C479 0.945 . S
H507 C480 0.930 . S
H508 C499 0.930 . S
H509 C500 0.931 . S
H510 C501 0.930 . S
H511 C502 0.930 . S
Tb512 C522 2.825 . S
Tb512 O523 2.347 . S
Tb512 O526 2.366 . S
Tb512 O531 2.418 . S
Tb512 O532 2.384 . S
Tb512 O535 2.479 . S
Tb512 O536 2.471 . S
Eu513 O524 2.418 . S
Eu513 O525 2.384 . S
Eu513 O528 2.479 . S
Eu513 O529 2.471 . S
Eu513 O530 2.347 . S
Eu513 O533 2.366 . S
Eu513 C543 2.825 . S
C514 O530 1.259 . S
C514 O531 1.265 . S
C515 O532 1.255 . S
C515 O533 1.265 . S
C516 C518 1.380 . S
C516 C519 1.374 . S
C516 C522 1.507 . S
C517 C518 1.384 . S
C517 C521 1.387 . S
C517 H544 0.930 . S
C518 C516 1.380 . S
C518 C517 1.384 . S
C518 H545 0.931 . S
C519 C516 1.374 . S
C519 C520 1.390 . S
C519 H546 0.930 . S
C520 C519 1.390 . S
C520 C521 1.391 . S
C520 H547 0.930 . S
C521 C517 1.387 . S
C521 C520 1.391 . S
C522 Tb512 2.825 . S
C522 C516 1.507 . S
C522 O535 1.238 . S
C522 O536 1.247 . S
O523 Tb512 2.347 . S
O523 C527 1.259 . S
O524 Eu513 2.418 . S
O524 C527 1.265 . S
O525 Eu513 2.384 . S
O525 C534 1.255 . S
O526 Tb512 2.366 . S
O526 C534 1.265 . S
C527 O523 1.259 . S
C527 O524 1.265 . S
O528 Eu513 2.479 . S
O528 C543 1.238 . S
O529 Eu513 2.471 . S
O529 C543 1.247 . S
O530 Eu513 2.347 . S
O530 C514 1.259 . S
O531 Tb512 2.418 . S
O531 C514 1.265 . S
O532 Tb512 2.384 . S
O532 C515 1.255 . S
O533 Eu513 2.366 . S
O533 C515 1.265 . S
C534 O525 1.255 . S
C534 O526 1.265 . S
O535 Tb512 2.479 . S
O535 C522 1.238 . S
O536 Tb512 2.471 . S
O536 C522 1.247 . S
C537 C540 1.380 . S
C537 C541 1.374 . S
C537 C543 1.507 . S
C538 C539 1.387 . S
C538 C542 1.391 . S
C539 C538 1.387 . S
C539 C540 1.384 . S
C539 H548 0.930 . S
C540 C537 1.380 . S
C540 C539 1.384 . S
C540 H549 0.931 . S
C541 C537 1.374 . S
C541 C542 1.390 . S
C541 H550 0.930 . S
C542 C538 1.391 . S
C542 C541 1.390 . S
C542 H551 0.930 . S
C543 Eu513 2.825 . S
C543 O528 1.238 . S
C543 O529 1.247 . S
C543 C537 1.507 . S
H544 C517 0.930 . S
H545 C518 0.931 . S
H546 C519 0.930 . S
H547 C520 0.930 . S
H548 C539 0.930 . S
H549 C540 0.931 . S
H550 C541 0.930 . S
H551 C542 0.930 . S
Tb552 C562 2.825 . S
Tb552 O563 2.347 . S
Tb552 O566 2.366 . S
Tb552 O571 2.464 . S
Tb552 O572 2.384 . S
Tb552 O575 2.479 . S
Tb552 O576 2.471 . S
Eu553 O564 2.432 . S
Eu553 O565 2.384 1_556 S
Eu553 O568 2.479 . S
Eu553 O569 2.471 . S
Eu553 O570 2.347 . S
Eu553 O573 2.366 . S
Eu553 C583 2.825 . S
C554 O570 1.259 1_554 S
C554 O571 1.276 . S
C555 O572 1.255 . S
C555 O573 1.265 1_554 S
C556 C558 1.380 . S
C556 C559 1.374 . S
C556 C562 1.507 . S
C557 C558 1.384 . S
C557 C561 1.387 . S
C557 H584 0.930 1_545 S
C558 C556 1.380 . S
C558 C557 1.384 . S
C558 H585 0.931 1_545 S
C559 C556 1.374 . S
C559 C560 1.390 . S
C559 H586 0.930 . S
C560 C559 1.390 . S
C560 C561 1.391 . S
C560 H587 0.930 . S
C561 C557 1.387 . S
C561 C560 1.391 . S
C562 Tb552 2.825 . S
C562 C556 1.507 . S
C562 O575 1.238 . S
C562 O576 1.247 . S
O563 Tb552 2.347 . S
O563 C567 1.259 . S
O564 Eu553 2.432 . S
O564 C567 1.230 1_556 S
O565 Eu553 2.384 1_554 S
O565 C574 1.255 . S
O566 Tb552 2.366 . S
O566 C574 1.265 . S
C567 O563 1.259 . S
C567 O564 1.230 1_554 S
O568 Eu553 2.479 . S
O568 C583 1.238 . S
O569 Eu553 2.471 . S
O569 C583 1.247 . S
O570 Eu553 2.347 . S
O570 C554 1.259 1_556 S
O571 Tb552 2.464 . S
O571 C554 1.276 . S
O572 Tb552 2.384 . S
O572 C555 1.255 . S
O573 Eu553 2.366 . S
O573 C555 1.265 1_556 S
C574 O565 1.255 . S
C574 O566 1.265 . S
O575 Tb552 2.479 . S
O575 C562 1.238 . S
O576 Tb552 2.471 . S
O576 C562 1.247 . S
C577 C580 1.380 . S
C577 C581 1.374 . S
C577 C583 1.507 . S
C578 C579 1.387 . S
C578 C582 1.391 . S
C579 C578 1.387 . S
C579 C580 1.384 . S
C579 H588 0.930 . S
C580 C577 1.380 . S
C580 C579 1.384 . S
C580 H589 0.931 . S
C581 C577 1.374 . S
C581 C582 1.390 . S
C581 H590 0.930 . S
C582 C578 1.391 . S
C582 C581 1.390 . S
C582 H591 0.930 . S
C583 Eu553 2.825 . S
C583 O568 1.238 . S
C583 O569 1.247 . S
C583 C577 1.507 . S
H584 C557 0.930 1_565 S
H585 C558 0.931 1_565 S
H586 C559 0.930 . S
H587 C560 0.930 . S
H588 C579 0.930 . S
H589 C580 0.931 . S
H590 C581 0.930 . S
H591 C582 0.930 . S
Tb592 C602 2.825 . S
Tb592 O603 2.347 . S
Tb592 O606 2.366 . S
Tb592 O611 2.418 . S
Tb592 O612 2.384 . S
Tb592 O615 2.479 . S
Tb592 O616 2.471 . S
Eu593 O604 2.418 . S
Eu593 O605 2.384 . S
Eu593 O608 2.479 . S
Eu593 O609 2.471 . S
Eu593 O610 2.347 . S
Eu593 O613 2.366 . S
Eu593 C623 2.825 . S
C594 O610 1.259 . S
C594 O611 1.265 . S
C595 O612 1.255 . S
C595 O613 1.265 . S
C596 C598 1.380 . S
C596 C599 1.374 . S
C596 C602 1.507 . S
C597 C598 1.384 . S
C597 C601 1.387 . S
C597 H624 0.930 . S
C598 C596 1.380 . S
C598 C597 1.384 . S
C598 H625 0.931 . S
C599 C596 1.374 . S
C599 C600 1.390 . S
C599 H626 0.930 . S
C600 C599 1.390 . S
C600 C601 1.391 . S
C600 H627 0.930 . S
C601 C597 1.387 . S
C601 C600 1.391 . S
C602 Tb592 2.825 . S
C602 C596 1.507 . S
C602 O615 1.238 . S
C602 O616 1.247 . S
O603 Tb592 2.347 . S
O603 C607 1.259 . S
O604 Eu593 2.418 . S
O604 C607 1.265 . S
O605 Eu593 2.384 . S
O605 C614 1.255 . S
O606 Tb592 2.366 . S
O606 C614 1.265 . S
C607 O603 1.259 . S
C607 O604 1.265 . S
O608 Eu593 2.479 . S
O608 C623 1.238 . S
O609 Eu593 2.471 . S
O609 C623 1.247 . S
O610 Eu593 2.347 . S
O610 C594 1.259 . S
O611 Tb592 2.418 . S
O611 C594 1.265 . S
O612 Tb592 2.384 . S
O612 C595 1.255 . S
O613 Eu593 2.366 . S
O613 C595 1.265 . S
C614 O605 1.255 . S
C614 O606 1.265 . S
O615 Tb592 2.479 . S
O615 C602 1.238 . S
O616 Tb592 2.471 . S
O616 C602 1.247 . S
C617 C620 1.380 . S
C617 C621 1.374 . S
C617 C623 1.507 . S
C618 C619 1.387 . S
C618 C622 1.391 . S
C619 C618 1.387 . S
C619 C620 1.384 . S
C619 H628 0.930 . S
C620 C617 1.380 . S
C620 C619 1.384 . S
C620 H629 0.931 . S
C621 C617 1.374 . S
C621 C622 1.390 . S
C621 H630 0.930 . S
C622 C618 1.391 . S
C622 C621 1.390 . S
C622 H631 0.930 . S
C623 Eu593 2.825 . S
C623 O608 1.238 . S
C623 O609 1.247 . S
C623 C617 1.507 . S
H624 C597 0.930 . S
H625 C598 0.931 . S
H626 C599 0.930 . S
H627 C600 0.930 . S
H628 C619 0.930 . S
H629 C620 0.931 . S
H630 C621 0.930 . S
H631 C622 0.930 . S
Tb632 C642 2.825 . S
Tb632 O643 2.347 1_556 S
Tb632 O646 2.366 . S
Tb632 O651 2.418 . S
Tb632 O652 2.384 1_556 S
Tb632 O655 2.479 . S
Tb632 O656 2.471 . S
Eu633 O644 2.418 . S
Eu633 O645 2.384 . S
Eu633 O648 2.479 . S
Eu633 O649 2.471 . S
Eu633 O650 2.347 . S
Eu633 O653 2.366 . S
Eu633 C663 2.825 . S
C634 O650 1.259 . S
C634 O651 1.265 1_554 S
C635 O652 1.255 . S
C635 O653 1.265 . S
C636 C638 1.380 . S
C636 C639 1.374 . S
C636 C642 1.507 . S
C637 C638 1.384 . S
C637 C641 1.387 . S
C637 H664 0.930 . S
C638 C636 1.380 . S
C638 C637 1.384 . S
C638 H665 0.931 . S
C639 C636 1.374 . S
C639 C640 1.390 . S
C639 H666 0.930 . S
C640 C639 1.390 . S
C640 C641 1.391 . S
C640 H667 0.930 . S
C641 C637 1.387 . S
C641 C640 1.391 . S
C642 Tb632 2.825 . S
C642 C636 1.507 . S
C642 O655 1.238 . S
C642 O656 1.247 . S
O643 Tb632 2.347 1_554 S
O643 C647 1.259 . S
O644 Eu633 2.418 . S
O644 C647 1.265 . S
O645 Eu633 2.384 . S
O645 C654 1.255 1_554 S
O646 Tb632 2.366 . S
O646 C654 1.265 . S
C647 O643 1.259 . S
C647 O644 1.265 . S
O648 Eu633 2.479 . S
O648 C663 1.238 . S
O649 Eu633 2.471 . S
O649 C663 1.247 . S
O650 Eu633 2.347 . S
O650 C634 1.259 . S
O651 Tb632 2.418 . S
O651 C634 1.265 1_556 S
O652 Tb632 2.384 1_554 S
O652 C635 1.255 . S
O653 Eu633 2.366 . S
O653 C635 1.265 . S
C654 O645 1.255 1_556 S
C654 O646 1.265 . S
O655 Tb632 2.479 . S
O655 C642 1.238 . S
O656 Tb632 2.471 . S
O656 C642 1.247 . S
C657 C660 1.380 . S
C657 C661 1.374 . S
C657 C663 1.507 . S
C658 C659 1.387 . S
C658 C662 1.391 . S
C659 C658 1.387 . S
C659 C660 1.384 . S
C659 H668 0.930 . S
C660 C657 1.380 . S
C660 C659 1.384 . S
C660 H669 0.931 . S
C661 C657 1.374 . S
C661 C662 1.390 . S
C661 H670 0.930 . S
C662 C658 1.391 . S
C662 C661 1.390 . S
C662 H671 0.930 . S
C663 Eu633 2.825 . S
C663 O648 1.238 . S
C663 O649 1.247 . S
C663 C657 1.507 . S
H664 C637 0.930 . S
H665 C638 0.931 . S
H666 C639 0.930 . S
H667 C640 0.930 . S
H668 C659 0.930 . S
H669 C660 0.931 . S
H670 C661 0.930 . S
H671 C662 0.930 . S
Tb672 C682 2.825 . S
Tb672 O683 2.347 . S
Tb672 O686 2.366 . S
Tb672 O691 2.418 . S
Tb672 O692 2.384 . S
Tb672 O695 2.479 . S
Tb672 O696 2.471 . S
Eu673 O684 2.418 . S
Eu673 O685 2.384 . S
Eu673 O688 2.479 . S
Eu673 O689 2.471 . S
Eu673 O690 2.347 . S
Eu673 O693 2.366 . S
Eu673 C703 2.825 . S
C674 O690 1.259 . S
C674 O691 1.265 . S
C675 O692 1.255 . S
C675 O693 1.265 . S
C676 C678 1.380 . S
C676 C679 1.374 . S
C676 C682 1.507 . S
C677 C678 1.384 . S
C677 C681 1.387 . S
C677 H704 0.930 . S
C678 C676 1.380 . S
C678 C677 1.384 . S
C678 H705 0.931 . S
C679 C676 1.374 . S
C679 C680 1.390 . S
C679 H706 0.930 . S
C680 C679 1.390 . S
C680 C681 1.391 . S
C680 H707 0.930 . S
C681 C677 1.387 . S
C681 C680 1.391 . S
C682 Tb672 2.825 . S
C682 C676 1.507 . S
C682 O695 1.238 . S
C682 O696 1.247 . S
O683 Tb672 2.347 . S
O683 C687 1.259 . S
O684 Eu673 2.418 . S
O684 C687 1.265 . S
O685 Eu673 2.384 . S
O685 C694 1.255 . S
O686 Tb672 2.366 . S
O686 C694 1.265 . S
C687 O683 1.259 . S
C687 O684 1.265 . S
O688 Eu673 2.479 . S
O688 C703 1.238 . S
O689 Eu673 2.471 . S
O689 C703 1.247 . S
O690 Eu673 2.347 . S
O690 C674 1.259 . S
O691 Tb672 2.418 . S
O691 C674 1.265 . S
O692 Tb672 2.384 . S
O692 C675 1.255 . S
O693 Eu673 2.366 . S
O693 C675 1.265 . S
C694 O685 1.255 . S
C694 O686 1.265 . S
O695 Tb672 2.479 . S
O695 C682 1.238 . S
O696 Tb672 2.471 . S
O696 C682 1.247 . S
C697 C700 1.380 . S
C697 C701 1.374 . S
C697 C703 1.507 . S
C698 C699 1.387 . S
C698 C702 1.391 . S
C699 C698 1.387 . S
C699 C700 1.384 . S
C699 H708 0.930 . S
C700 C697 1.380 . S
C700 C699 1.384 . S
C700 H709 0.931 . S
C701 C697 1.374 . S
C701 C702 1.390 . S
C701 H710 0.930 . S
C702 C698 1.391 . S
C702 C701 1.390 . S
C702 H711 0.930 . S
C703 Eu673 2.825 . S
C703 O688 1.238 . S
C703 O689 1.247 . S
C703 C697 1.507 . S
H704 C677 0.930 . S
H705 C678 0.931 . S
H706 C679 0.930 . S
H707 C680 0.930 . S
H708 C699 0.930 . S
H709 C700 0.931 . S
H710 C701 0.930 . S
H711 C702 0.930 . S
Tb712 C722 2.825 . S
Tb712 O723 2.347 . S
Tb712 O726 2.366 . S
Tb712 O731 2.418 . S
Tb712 O732 2.384 . S
Tb712 O735 2.479 . S
Tb712 O736 2.471 . S
Eu713 O724 2.418 . S
Eu713 O725 2.384 1_455 S
Eu713 O728 2.479 . S
Eu713 O729 2.471 . S
Eu713 O730 2.347 . S
Eu713 O733 2.366 . S
Eu713 C743 2.825 . S
C714 O730 1.259 . S
C714 O731 1.265 . S
C715 O732 1.255 . S
C715 O733 1.265 . S
C716 C718 1.380 . S
C716 C719 1.374 1_455 S
C716 C722 1.507 . S
C717 C718 1.384 . S
C717 C721 1.387 1_455 S
C717 H744 0.930 . S
C718 C716 1.380 . S
C718 C717 1.384 . S
C718 H745 0.931 . S
C719 C716 1.374 1_655 S
C719 C720 1.390 . S
C719 H746 0.930 . S
C720 C719 1.390 . S
C720 C721 1.391 . S
C720 H747 0.930 . S
C721 C717 1.387 1_655 S
C721 C720 1.391 . S
C722 Tb712 2.825 . S
C722 C716 1.507 . S
C722 O735 1.238 . S
C722 O736 1.247 . S
O723 Tb712 2.347 . S
O723 C727 1.259 . S
O724 Eu713 2.418 . S
O724 C727 1.265 . S
O725 Eu713 2.384 1_655 S
O725 C734 1.255 . S
O726 Tb712 2.366 . S
O726 C734 1.265 1_455 S
C727 O723 1.259 . S
C727 O724 1.265 . S
O728 Eu713 2.479 . S
O728 C743 1.238 . S
O729 Eu713 2.471 . S
O729 C743 1.247 . S
O730 Eu713 2.347 . S
O730 C714 1.259 . S
O731 Tb712 2.418 . S
O731 C714 1.265 . S
O732 Tb712 2.384 . S
O732 C715 1.255 . S
O733 Eu713 2.366 . S
O733 C715 1.265 . S
C734 O725 1.255 . S
C734 O726 1.265 1_655 S
O735 Tb712 2.479 . S
O735 C722 1.238 . S
O736 Tb712 2.471 . S
O736 C722 1.247 . S
C737 C740 1.380 . S
C737 C741 1.374 . S
C737 C743 1.507 . S
C738 C739 1.387 . S
C738 C742 1.391 . S
C739 C738 1.387 . S
C739 C740 1.384 . S
C739 H748 0.930 . S
C740 C737 1.380 . S
C740 C739 1.384 . S
C740 H749 0.931 . S
C741 C737 1.374 . S
C741 C742 1.390 . S
C741 H750 0.930 . S
C742 C738 1.391 . S
C742 C741 1.390 . S
C742 H751 0.930 . S
C743 Eu713 2.825 . S
C743 O728 1.238 . S
C743 O729 1.247 . S
C743 C737 1.507 . S
H744 C717 0.930 . S
H745 C718 0.931 . S
H746 C719 0.930 . S
H747 C720 0.930 . S
H748 C739 0.930 . S
H749 C740 0.931 . S
H750 C741 0.930 . S
H751 C742 0.930 . S
Tb752 C762 2.825 . S
Tb752 O763 2.347 . S
Tb752 O766 2.366 . S
Tb752 O771 2.418 . S
Tb752 O772 2.384 . S
Tb752 O775 2.479 . S
Tb752 O776 2.471 . S
Eu753 O764 2.418 . S
Eu753 O765 2.384 . S
Eu753 O768 2.479 . S
Eu753 O769 2.471 . S
Eu753 O770 2.347 . S
Eu753 O773 2.366 . S
Eu753 C783 2.825 . S
C754 O770 1.259 . S
C754 O771 1.265 . S
C755 O772 1.255 . S
C755 O773 1.265 . S
C756 C758 1.380 . S
C756 C759 1.374 . S
C756 C762 1.507 . S
C757 C758 1.384 . S
C757 C761 1.387 . S
C757 H784 0.930 . S
C758 C756 1.380 . S
C758 C757 1.384 . S
C758 H785 0.931 . S
C759 C756 1.374 . S
C759 C760 1.390 . S
C759 H786 0.930 . S
C760 C759 1.390 . S
C760 C761 1.391 . S
C760 H787 0.930 . S
C761 C757 1.387 . S
C761 C760 1.391 . S
C762 Tb752 2.825 . S
C762 C756 1.507 . S
C762 O775 1.238 . S
C762 O776 1.247 . S
O763 Tb752 2.347 . S
O763 C767 1.259 . S
O764 Eu753 2.418 . S
O764 C767 1.265 . S
O765 Eu753 2.384 . S
O765 C774 1.255 . S
O766 Tb752 2.366 . S
O766 C774 1.265 . S
C767 O763 1.259 . S
C767 O764 1.265 . S
O768 Eu753 2.479 . S
O768 C783 1.238 . S
O769 Eu753 2.471 . S
O769 C783 1.247 . S
O770 Eu753 2.347 . S
O770 C754 1.259 . S
O771 Tb752 2.418 . S
O771 C754 1.265 . S
O772 Tb752 2.384 . S
O772 C755 1.255 . S
O773 Eu753 2.366 . S
O773 C755 1.265 . S
C774 O765 1.255 . S
C774 O766 1.265 . S
O775 Tb752 2.479 . S
O775 C762 1.238 . S
O776 Tb752 2.471 . S
O776 C762 1.247 . S
C777 C780 1.380 . S
C777 C781 1.374 . S
C777 C783 1.507 . S
C778 C779 1.387 . S
C778 C782 1.391 . S
C779 C778 1.387 . S
C779 C780 1.384 . S
C779 H788 0.930 . S
C780 C777 1.380 . S
C780 C779 1.384 . S
C780 H789 0.931 . S
C781 C777 1.374 . S
C781 C782 1.390 . S
C781 H790 0.930 . S
C782 C778 1.391 . S
C782 C781 1.390 . S
C782 H791 0.930 . S
C783 Eu753 2.825 . S
C783 O768 1.238 . S
C783 O769 1.247 . S
C783 C777 1.507 . S
H784 C757 0.930 . S
H785 C758 0.931 . S
H786 C759 0.930 . S
H787 C760 0.930 . S
H788 C779 0.930 . S
H789 C780 0.931 . S
H790 C781 0.930 . S
H791 C782 0.930 . S
Tb792 C802 2.825 . S
Tb792 O803 2.347 . S
Tb792 O806 2.366 . S
Tb792 O811 2.418 . S
Tb792 O812 2.384 . S
Tb792 O815 2.479 . S
Tb792 O816 2.471 . S
Eu793 O804 2.418 . S
Eu793 O805 2.384 . S
Eu793 O808 2.479 . S
Eu793 O809 2.471 . S
Eu793 O810 2.347 . S
Eu793 O813 2.366 . S
Eu793 C823 2.825 . S
C794 O810 1.259 . S
C794 O811 1.265 . S
C795 O812 1.255 . S
C795 O813 1.265 . S
C796 C798 1.380 . S
C796 C799 1.374 . S
C796 C802 1.507 . S
C797 C798 1.384 . S
C797 C801 1.387 . S
C797 H824 0.930 . S
C798 C796 1.380 . S
C798 C797 1.384 . S
C798 H825 0.931 . S
C799 C796 1.374 . S
C799 C800 1.390 . S
C799 H826 0.930 . S
C800 C799 1.390 . S
C800 C801 1.391 . S
C800 H827 0.930 . S
C801 C797 1.387 . S
C801 C800 1.391 . S
C802 Tb792 2.825 . S
C802 C796 1.507 . S
C802 O815 1.238 . S
C802 O816 1.247 . S
O803 Tb792 2.347 . S
O803 C807 1.259 . S
O804 Eu793 2.418 . S
O804 C807 1.265 . S
O805 Eu793 2.384 . S
O805 C814 1.255 . S
O806 Tb792 2.366 . S
O806 C814 1.265 . S
C807 O803 1.259 . S
C807 O804 1.265 . S
O808 Eu793 2.479 . S
O808 C823 1.238 . S
O809 Eu793 2.471 . S
O809 C823 1.247 . S
O810 Eu793 2.347 . S
O810 C794 1.259 . S
O811 Tb792 2.418 . S
O811 C794 1.265 . S
O812 Tb792 2.384 . S
O812 C795 1.255 . S
O813 Eu793 2.366 . S
O813 C795 1.265 . S
C814 O805 1.255 . S
C814 O806 1.265 . S
O815 Tb792 2.479 . S
O815 C802 1.238 . S
O816 Tb792 2.471 . S
O816 C802 1.247 . S
C817 C820 1.380 . S
C817 C821 1.374 . S
C817 C823 1.507 . S
C818 C819 1.387 . S
C818 C822 1.391 . S
C819 C818 1.387 . S
C819 C820 1.384 . S
C819 H828 0.930 . S
C820 C817 1.380 . S
C820 C819 1.384 . S
C820 H829 0.931 . S
C821 C817 1.374 . S
C821 C822 1.390 . S
C821 H830 0.930 . S
C822 C818 1.391 . S
C822 C821 1.390 . S
C822 H831 0.930 . S
C823 Eu793 2.825 . S
C823 O808 1.238 . S
C823 O809 1.247 . S
C823 C817 1.507 . S
H824 C797 0.930 . S
H825 C798 0.931 . S
H826 C799 0.930 . S
H827 C800 0.930 . S
H828 C819 0.930 . S
H829 C820 0.931 . S
H830 C821 0.930 . S
H831 C822 0.930 . S
Tb832 C842 2.825 . S
Tb832 O843 2.347 . S
Tb832 O846 2.366 . S
Tb832 O851 2.418 . S
Tb832 O852 2.384 . S
Tb832 O855 2.479 . S
Tb832 O856 2.471 . S
Eu833 O844 2.418 . S
Eu833 O845 2.384 . S
Eu833 O848 2.479 . S
Eu833 O849 2.471 . S
Eu833 O850 2.347 . S
Eu833 O853 2.366 . S
Eu833 C863 2.825 . S
C834 O850 1.259 . S
C834 O851 1.265 . S
C835 O852 1.255 . S
C835 O853 1.265 . S
C836 C838 1.380 . S
C836 C839 1.374 . S
C836 C842 1.507 . S
C837 C838 1.384 . S
C837 C841 1.387 . S
C837 H864 0.930 . S
C838 C836 1.380 . S
C838 C837 1.384 . S
C838 H865 0.931 . S
C839 C836 1.374 . S
C839 C840 1.390 . S
C839 H866 0.930 . S
C840 C839 1.390 . S
C840 C841 1.391 . S
C840 H867 0.930 . S
C841 C837 1.387 . S
C841 C840 1.391 . S
C842 Tb832 2.825 . S
C842 C836 1.507 . S
C842 O855 1.238 . S
C842 O856 1.247 . S
O843 Tb832 2.347 . S
O843 C847 1.259 . S
O844 Eu833 2.418 . S
O844 C847 1.265 . S
O845 Eu833 2.384 . S
O845 C854 1.255 . S
O846 Tb832 2.366 . S
O846 C854 1.265 . S
C847 O843 1.259 . S
C847 O844 1.265 . S
O848 Eu833 2.479 . S
O848 C863 1.238 . S
O849 Eu833 2.471 . S
O849 C863 1.247 . S
O850 Eu833 2.347 . S
O850 C834 1.259 . S
O851 Tb832 2.418 . S
O851 C834 1.265 . S
O852 Tb832 2.384 . S
O852 C835 1.255 . S
O853 Eu833 2.366 . S
O853 C835 1.265 . S
C854 O845 1.255 . S
C854 O846 1.265 . S
O855 Tb832 2.479 . S
O855 C842 1.238 . S
O856 Tb832 2.471 . S
O856 C842 1.247 . S
C857 C860 1.380 . S
C857 C861 1.374 . S
C857 C863 1.507 . S
C858 C859 1.387 . S
C858 C862 1.391 . S
C859 C858 1.387 . S
C859 C860 1.384 . S
C859 H868 0.930 . S
C860 C857 1.380 . S
C860 C859 1.384 . S
C860 H869 0.931 . S
C861 C857 1.374 . S
C861 C862 1.390 . S
C861 H870 0.930 . S
C862 C858 1.391 . S
C862 C861 1.390 . S
C862 H871 0.930 . S
C863 Eu833 2.825 . S
C863 O848 1.238 . S
C863 O849 1.247 . S
C863 C857 1.507 . S
H864 C837 0.930 . S
H865 C838 0.931 . S
H866 C839 0.930 . S
H867 C840 0.930 . S
H868 C859 0.930 . S
H869 C860 0.931 . S
H870 C861 0.930 . S
H871 C862 0.930 . S
Tb872 C882 2.825 . S
Tb872 O883 2.347 . S
Tb872 O886 2.366 . S
Tb872 O891 2.418 . S
Tb872 O892 2.384 . S
Tb872 O895 2.479 . S
Tb872 O896 2.471 . S
Eu873 O884 2.418 . S
Eu873 O885 2.384 . S
Eu873 O888 2.479 . S
Eu873 O889 2.471 . S
Eu873 O890 2.347 . S
Eu873 O893 2.366 . S
Eu873 C903 2.825 . S
C874 O890 1.259 . S
C874 O891 1.265 . S
C875 O892 1.255 . S
C875 O893 1.265 . S
C876 C878 1.380 . S
C876 C879 1.374 . S
C876 C882 1.507 . S
C877 C878 1.384 . S
C877 C881 1.387 . S
C877 H904 0.930 . S
C878 C876 1.380 . S
C878 C877 1.384 . S
C878 H905 0.931 . S
C879 C876 1.374 . S
C879 C880 1.390 . S
C879 H906 0.930 . S
C880 C879 1.390 . S
C880 C881 1.391 . S
C880 H907 0.930 . S
C881 C877 1.387 . S
C881 C880 1.391 . S
C882 Tb872 2.825 . S
C882 C876 1.507 . S
C882 O895 1.238 . S
C882 O896 1.247 . S
O883 Tb872 2.347 . S
O883 C887 1.259 . S
O884 Eu873 2.418 . S
O884 C887 1.265 . S
O885 Eu873 2.384 . S
O885 C894 1.255 . S
O886 Tb872 2.366 . S
O886 C894 1.265 . S
C887 O883 1.259 . S
C887 O884 1.265 . S
O888 Eu873 2.479 . S
O888 C903 1.238 . S
O889 Eu873 2.471 . S
O889 C903 1.247 . S
O890 Eu873 2.347 . S
O890 C874 1.259 . S
O891 Tb872 2.418 . S
O891 C874 1.265 . S
O892 Tb872 2.384 . S
O892 C875 1.255 . S
O893 Eu873 2.366 . S
O893 C875 1.265 . S
C894 O885 1.255 . S
C894 O886 1.265 . S
O895 Tb872 2.479 . S
O895 C882 1.238 . S
O896 Tb872 2.471 . S
O896 C882 1.247 . S
C897 C900 1.380 . S
C897 C901 1.374 . S
C897 C903 1.507 . S
C898 C899 1.387 . S
C898 C902 1.391 . S
C899 C898 1.387 . S
C899 C900 1.384 . S
C899 H908 0.930 . S
C900 C897 1.380 . S
C900 C899 1.384 . S
C900 H909 0.931 . S
C901 C897 1.374 . S
C901 C902 1.390 . S
C901 H910 0.930 . S
C902 C898 1.391 . S
C902 C901 1.390 . S
C902 H911 0.930 . S
C903 Eu873 2.825 . S
C903 O888 1.238 . S
C903 O889 1.247 . S
C903 C897 1.507 . S
H904 C877 0.930 . S
H905 C878 0.931 . S
H906 C879 0.930 . S
H907 C880 0.930 . S
H908 C899 0.930 . S
H909 C900 0.931 . S
H910 C901 0.930 . S
H911 C902 0.930 . S
Tb912 C922 2.825 . S
Tb912 O923 2.347 . S
Tb912 O926 2.366 . S
Tb912 O931 2.418 . S
Tb912 O932 2.384 1_455 S
Tb912 O935 2.479 . S
Tb912 O936 2.471 . S
Eu913 O924 2.418 1_554 S
Eu913 O925 2.384 . S
Eu913 O928 2.479 . S
Eu913 O929 2.471 . S
Eu913 O930 2.347 . S
Eu913 O933 2.366 . S
Eu913 C943 2.825 . S
C914 O930 1.259 . S
C914 O931 1.265 . S
C915 O932 1.255 . S
C915 O933 1.265 1_655 S
C916 C918 1.380 . S
C916 C919 1.374 1_554 S
C916 C922 1.507 . S
C917 C918 1.384 . S
C917 C921 1.387 1_554 S
C917 H944 0.930 . S
C918 C916 1.380 . S
C918 C917 1.384 . S
C918 H945 0.931 . S
C919 C916 1.374 1_556 S
C919 C920 1.390 . S
C919 H946 0.930 . S
C920 C919 1.390 . S
C920 C921 1.391 . S
C920 H947 0.930 . S
C921 C917 1.387 1_556 S
C921 C920 1.391 . S
C922 Tb912 2.825 . S
C922 C916 1.507 . S
C922 O935 1.238 . S
C922 O936 1.247 . S
O923 Tb912 2.347 . S
O923 C927 1.259 1_554 S
O924 Eu913 2.418 1_556 S
O924 C927 1.265 . S
O925 Eu913 2.384 . S
O925 C934 1.255 . S
O926 Tb912 2.366 . S
O926 C934 1.265 . S
C927 O923 1.259 1_556 S
C927 O924 1.265 . S
O928 Eu913 2.479 . S
O928 C943 1.238 . S
O929 Eu913 2.471 . S
O929 C943 1.247 . S
O930 Eu913 2.347 . S
O930 C914 1.259 . S
O931 Tb912 2.418 . S
O931 C914 1.265 . S
O932 Tb912 2.384 1_655 S
O932 C915 1.255 . S
O933 Eu913 2.366 . S
O933 C915 1.265 1_455 S
C934 O925 1.255 . S
C934 O926 1.265 . S
O935 Tb912 2.479 . S
O935 C922 1.238 . S
O936 Tb912 2.471 . S
O936 C922 1.247 . S
C937 C940 1.380 . S
C937 C941 1.374 . S
C937 C943 1.507 . S
C938 C939 1.387 . S
C938 C942 1.391 . S
C939 C938 1.387 . S
C939 C940 1.384 . S
C939 H948 0.930 . S
C940 C937 1.380 . S
C940 C939 1.384 . S
C940 H949 0.931 . S
C941 C937 1.374 . S
C941 C942 1.390 . S
C941 H950 0.930 . S
C942 C938 1.391 . S
C942 C941 1.390 . S
C942 H951 0.930 . S
C943 Eu913 2.825 . S
C943 O928 1.238 . S
C943 O929 1.247 . S
C943 C937 1.507 . S
H944 C917 0.930 . S
H945 C918 0.931 . S
H946 C919 0.930 . S
H947 C920 0.930 . S
H948 C939 0.930 . S
H949 C940 0.931 . S
H950 C941 0.930 . S
H951 C942 0.930 . S
H952 C960 0.929 . S
H953 C962 0.930 . S
H954 C964 0.930 . S
H955 C967 0.929 1_655 S
H956 C970 0.930 . S
H957 C972 0.960 . S
H958 C972 0.960 . S
H959 C972 0.960 . S
C960 H952 0.929 . S
C960 C961 1.377 . S
C960 C962 1.384 . S
C961 C960 1.377 . S
C961 C967 1.390 . S
C962 H953 0.930 . S
C962 C960 1.384 . S
C962 C963 1.372 . S
C963 C962 1.372 . S
C963 C964 1.400 . S
C963 C968 1.490 . S
C964 H954 0.930 . S
C964 C963 1.400 . S
C964 C967 1.386 . S
H965 C981 0.930 . S
H966 C982 0.931 . S
C967 H955 0.929 1_455 S
C967 C961 1.390 . S
C967 C964 1.386 . S
C968 C963 1.490 . S
C968 C970 1.395 . S
C968 C971 1.403 . S
H969 C975 0.930 . S
C970 H956 0.930 . S
C970 C968 1.395 . S
C970 C973 1.403 . S
C971 C968 1.403 . S
C971 C972 1.524 . S
C971 C975 1.400 . S
C972 H957 0.960 . S
C972 H958 0.960 . S
C972 H959 0.960 . S
C972 C971 1.524 . S
C973 C970 1.403 . S
C973 C974 1.392 . S
C973 C977 1.495 1_556 S
C974 C973 1.392 . S
C974 C975 1.385 . S
C974 C976 1.450 1_556 S
C975 H969 0.930 . S
C975 C971 1.400 . S
C975 C974 1.385 . S
C976 C974 1.450 1_554 S
C976 C978 1.417 . S
C976 C982 1.375 1_554 S
C977 C973 1.495 1_554 S
C977 H983 0.959 1_455 S
C977 H984 0.961 1_455 S
C977 H985 0.960 . S
C978 C976 1.417 . S
C978 C979 1.394 . S
C978 H986 0.930 . S
C979 C978 1.394 . S
C979 C980 1.383 . S
C979 H987 0.929 . S
C980 C979 1.383 . S
C980 C981 1.377 . S
C981 H965 0.930 . S
C981 C980 1.377 . S
C981 C982 1.379 1_554 S
C982 H966 0.931 . S
C982 C976 1.375 1_556 S
C982 C981 1.379 1_556 S
H983 C977 0.959 1_655 S
H984 C977 0.961 1_655 S
H985 C977 0.960 . S
H986 C978 0.930 . S
H987 C979 0.929 . S
H988 C996 0.929 . S
H989 C998 0.930 . S
H990 C1000 0.930 . S
H991 C1003 0.929 . S
H992 C1006 0.930 . S
H993 C1008 0.960 . S
H994 C1008 0.960 . S
H995 C1008 0.960 . S
C996 H988 0.929 . S
C996 C997 1.377 . S
C996 C998 1.384 . S
C997 C996 1.377 . S
C997 C1003 1.390 . S
C998 H989 0.930 . S
C998 C996 1.384 . S
C998 C999 1.372 . S
C999 C998 1.372 . S
C999 C1000 1.400 . S
C999 C1004 1.490 . S
C1000 H990 0.930 . S
C1000 C999 1.400 . S
C1000 C1003 1.386 . S
H1001 C1017 0.930 . S
H1002 C1018 0.931 . S
C1003 H991 0.929 . S
C1003 C997 1.390 . S
C1003 C1000 1.386 . S
C1004 C999 1.490 . S
C1004 C1006 1.395 . S
C1004 C1007 1.403 . S
H1005 C1011 0.930 . S
C1006 H992 0.930 . S
C1006 C1004 1.395 . S
C1006 C1009 1.403 . S
C1007 C1004 1.403 . S
C1007 C1008 1.524 . S
C1007 C1011 1.400 . S
C1008 H993 0.960 . S
C1008 H994 0.960 . S
C1008 H995 0.960 . S
C1008 C1007 1.524 . S
C1009 C1006 1.403 . S
C1009 C1010 1.392 . S
C1009 C1013 1.495 . S
C1010 C1009 1.392 . S
C1010 C1011 1.385 . S
C1010 C1012 1.478 . S
C1011 H1005 0.930 . S
C1011 C1007 1.400 . S
C1011 C1010 1.385 . S
C1012 C1010 1.478 . S
C1012 C1014 1.381 . S
C1012 C1018 1.383 . S
C1013 C1009 1.495 . S
C1013 H1019 0.959 . S
C1013 H1020 0.961 . S
C1013 H1021 0.960 . S
C1014 C1012 1.381 . S
C1014 C1015 1.394 . S
C1014 H1022 0.930 . S
C1015 C1014 1.394 . S
C1015 C1016 1.383 . S
C1015 H1023 0.929 . S
C1016 C1015 1.383 . S
C1016 C1017 1.377 . S
C1017 H1001 0.930 . S
C1017 C1016 1.377 . S
C1017 C1018 1.379 . S
C1018 H1002 0.931 . S
C1018 C1012 1.383 . S
C1018 C1017 1.379 . S
H1019 C1013 0.959 . S
H1020 C1013 0.961 . S
H1021 C1013 0.960 . S
H1022 C1014 0.930 . S
H1023 C1015 0.929 . S
H1024 C1032 0.929 . S
H1025 C1034 0.930 . S
H1026 C1036 0.930 . S
H1027 C1039 0.929 . S
H1028 C1042 0.930 . S
H1029 C1044 0.960 . S
H1030 C1044 0.960 . S
H1031 C1044 0.960 . S
C1032 H1024 0.929 . S
C1032 C1033 1.377 . S
C1032 C1034 1.384 . S
C1033 C1032 1.377 . S
C1033 C1039 1.390 . S
C1034 H1025 0.930 . S
C1034 C1032 1.384 . S
C1034 C1035 1.372 . S
C1035 C1034 1.372 . S
C1035 C1036 1.400 . S
C1035 C1040 1.490 . S
C1036 H1026 0.930 . S
C1036 C1035 1.400 . S
C1036 C1039 1.386 . S
H1037 C1053 0.930 . S
H1038 C1054 0.931 . S
C1039 H1027 0.929 . S
C1039 C1033 1.390 . S
C1039 C1036 1.386 . S
C1040 C1035 1.490 . S
C1040 C1042 1.395 . S
C1040 C1043 1.403 . S
H1041 C1047 0.930 . S
C1042 H1028 0.930 . S
C1042 C1040 1.395 . S
C1042 C1045 1.403 . S
C1043 C1040 1.403 . S
C1043 C1044 1.524 . S
C1043 C1047 1.400 . S
C1044 H1029 0.960 . S
C1044 H1030 0.960 . S
C1044 H1031 0.960 . S
C1044 C1043 1.524 . S
C1045 C1042 1.403 . S
C1045 C1046 1.392 . S
C1045 C1049 1.495 . S
C1046 C1045 1.392 . S
C1046 C1047 1.385 . S
C1046 C1048 1.478 . S
C1047 H1041 0.930 . S
C1047 C1043 1.400 . S
C1047 C1046 1.385 . S
C1048 C1046 1.478 . S
C1048 C1050 1.381 . S
C1048 C1054 1.383 . S
C1049 C1045 1.495 . S
C1049 H1055 0.959 . S
C1049 H1056 0.961 . S
C1049 H1057 0.960 . S
C1050 C1048 1.381 . S
C1050 C1051 1.394 . S
C1050 H1058 0.930 . S
C1051 C1050 1.394 . S
C1051 C1052 1.383 . S
C1051 H1059 0.929 . S
C1052 C1051 1.383 . S
C1052 C1053 1.377 . S
C1053 H1037 0.930 . S
C1053 C1052 1.377 . S
C1053 C1054 1.379 . S
C1054 H1038 0.931 . S
C1054 C1048 1.383 . S
C1054 C1053 1.379 . S
H1055 C1049 0.959 . S
H1056 C1049 0.961 . S
H1057 C1049 0.960 . S
H1058 C1050 0.930 . S
H1059 C1051 0.929 . S
H1060 C1068 0.929 . S
H1061 C1070 0.930 . S
H1062 C1072 0.930 . S
H1063 C1075 0.929 . S
H1064 C1078 0.930 . S
H1065 C1080 0.960 . S
H1066 C1080 0.960 . S
H1067 C1080 0.960 . S
C1068 H1060 0.929 . S
C1068 C1069 1.377 . S
C1068 C1070 1.384 . S
C1069 C1068 1.377 . S
C1069 C1075 1.390 . S
C1070 H1061 0.930 . S
C1070 C1068 1.384 . S
C1070 C1071 1.372 . S
C1071 C1070 1.372 . S
C1071 C1072 1.400 . S
C1071 C1076 1.490 . S
C1072 H1062 0.930 . S
C1072 C1071 1.400 . S
C1072 C1075 1.386 . S
H1073 C1089 0.930 . S
H1074 C1090 0.931 . S
C1075 H1063 0.929 . S
C1075 C1069 1.390 . S
C1075 C1072 1.386 . S
C1076 C1071 1.490 . S
C1076 C1078 1.395 . S
C1076 C1079 1.403 . S
H1077 C1083 0.930 . S
C1078 H1064 0.930 . S
C1078 C1076 1.395 . S
C1078 C1081 1.403 . S
C1079 C1076 1.403 . S
C1079 C1080 1.524 . S
C1079 C1083 1.400 . S
C1080 H1065 0.960 . S
C1080 H1066 0.960 . S
C1080 H1067 0.960 . S
C1080 C1079 1.524 . S
C1081 C1078 1.403 . S
C1081 C1082 1.392 . S
C1081 C1085 1.495 . S
C1082 C1081 1.392 . S
C1082 C1083 1.385 . S
C1082 C1084 1.478 . S
C1083 H1077 0.930 . S
C1083 C1079 1.400 . S
C1083 C1082 1.385 . S
C1084 C1082 1.478 . S
C1084 C1086 1.381 . S
C1084 C1090 1.383 . S
C1085 C1081 1.495 . S
C1085 H1091 0.959 . S
C1085 H1092 0.961 . S
C1085 H1093 0.960 . S
C1086 C1084 1.381 . S
C1086 C1087 1.394 . S
C1086 H1094 0.930 . S
C1087 C1086 1.394 . S
C1087 C1088 1.383 . S
C1087 H1095 0.929 . S
C1088 C1087 1.383 . S
C1088 C1089 1.377 . S
C1089 H1073 0.930 . S
C1089 C1088 1.377 . S
C1089 C1090 1.379 . S
C1090 H1074 0.931 . S
C1090 C1084 1.383 . S
C1090 C1089 1.379 . S
H1091 C1085 0.959 . S
H1092 C1085 0.961 . S
H1093 C1085 0.960 . S
H1094 C1086 0.930 . S
H1095 C1087 0.929 . S
H1096 C1104 0.929 . S
H1097 C1106 0.930 . S
H1098 C1108 0.930 . S
H1099 C1111 0.929 . S
H1100 C1114 0.930 . S
H1101 C1116 0.960 . S
H1102 C1116 0.960 . S
H1103 C1116 0.960 . S
C1104 H1096 0.929 . S
C1104 C1105 1.377 . S
C1104 C1106 1.384 . S
C1105 C1104 1.377 . S
C1105 C1111 1.390 . S
C1106 H1097 0.930 . S
C1106 C1104 1.384 . S
C1106 C1107 1.372 . S
C1107 C1106 1.372 . S
C1107 C1108 1.400 . S
C1107 C1112 1.490 . S
C1108 H1098 0.930 . S
C1108 C1107 1.400 . S
C1108 C1111 1.386 . S
H1109 C1125 0.930 . S
H1110 C1126 0.931 . S
C1111 H1099 0.929 . S
C1111 C1105 1.390 . S
C1111 C1108 1.386 . S
C1112 C1107 1.490 . S
C1112 C1114 1.395 . S
C1112 C1115 1.403 . S
H1113 C1119 0.930 . S
C1114 H1100 0.930 . S
C1114 C1112 1.395 . S
C1114 C1117 1.403 . S
C1115 C1112 1.403 . S
C1115 C1116 1.524 . S
C1115 C1119 1.400 . S
C1116 H1101 0.960 . S
C1116 H1102 0.960 . S
C1116 H1103 0.960 . S
C1116 C1115 1.524 . S
C1117 C1114 1.403 . S
C1117 C1118 1.392 . S
C1117 C1121 1.495 . S
C1118 C1117 1.392 . S
C1118 C1119 1.385 . S
C1118 C1120 1.478 . S
C1119 H1113 0.930 . S
C1119 C1115 1.400 . S
C1119 C1118 1.385 . S
C1120 C1118 1.478 . S
C1120 C1122 1.381 . S
C1120 C1126 1.383 . S
C1121 C1117 1.495 . S
C1121 H1127 0.959 . S
C1121 H1128 0.961 . S
C1121 H1129 0.960 . S
C1122 C1120 1.381 . S
C1122 C1123 1.394 . S
C1122 H1130 0.930 . S
C1123 C1122 1.394 . S
C1123 C1124 1.383 . S
C1123 H1131 0.929 . S
C1124 C1123 1.383 . S
C1124 C1125 1.377 . S
C1125 H1109 0.930 . S
C1125 C1124 1.377 . S
C1125 C1126 1.379 . S
C1126 H1110 0.931 . S
C1126 C1120 1.383 . S
C1126 C1125 1.379 . S
H1127 C1121 0.959 . S
H1128 C1121 0.961 . S
H1129 C1121 0.960 . S
H1130 C1122 0.930 . S
H1131 C1123 0.929 . S
H1132 C1140 0.929 . S
H1133 C1142 0.930 . S
H1134 C1144 0.930 . S
H1135 C1147 0.929 . S
H1136 C1150 0.930 . S
H1137 C1152 0.960 . S
H1138 C1152 0.960 . S
H1139 C1152 0.960 . S
C1140 H1132 0.929 . S
C1140 C1141 1.377 . S
C1140 C1142 1.384 . S
C1141 C1140 1.377 . S
C1141 C1147 1.390 . S
C1142 H1133 0.930 . S
C1142 C1140 1.384 . S
C1142 C1143 1.372 . S
C1143 C1142 1.372 . S
C1143 C1144 1.400 . S
C1143 C1148 1.490 . S
C1144 H1134 0.930 . S
C1144 C1143 1.400 . S
C1144 C1147 1.386 . S
H1145 C1161 0.930 . S
H1146 C1162 0.931 . S
C1147 H1135 0.929 . S
C1147 C1141 1.390 . S
C1147 C1144 1.386 . S
C1148 C1143 1.490 . S
C1148 C1150 1.395 . S
C1148 C1151 1.403 . S
H1149 C1155 0.930 . S
C1150 H1136 0.930 . S
C1150 C1148 1.395 . S
C1150 C1153 1.403 . S
C1151 C1148 1.403 . S
C1151 C1152 1.524 . S
C1151 C1155 1.400 . S
C1152 H1137 0.960 . S
C1152 H1138 0.960 . S
C1152 H1139 0.960 . S
C1152 C1151 1.524 . S
C1153 C1150 1.403 . S
C1153 C1154 1.392 . S
C1153 C1157 1.495 . S
C1154 C1153 1.392 . S
C1154 C1155 1.385 . S
C1154 C1156 1.478 . S
C1155 H1149 0.930 . S
C1155 C1151 1.400 . S
C1155 C1154 1.385 . S
C1156 C1154 1.478 . S
C1156 C1158 1.381 . S
C1156 C1162 1.383 . S
C1157 C1153 1.495 . S
C1157 H1163 0.959 . S
C1157 H1164 0.961 . S
C1157 H1165 0.960 . S
C1158 C1156 1.381 . S
C1158 C1159 1.394 . S
C1158 H1166 0.930 . S
C1159 C1158 1.394 . S
C1159 C1160 1.383 . S
C1159 H1167 0.929 . S
C1160 C1159 1.383 . S
C1160 C1161 1.377 . S
C1161 H1145 0.930 . S
C1161 C1160 1.377 . S
C1161 C1162 1.379 . S
C1162 H1146 0.931 . S
C1162 C1156 1.383 . S
C1162 C1161 1.379 . S
H1163 C1157 0.959 . S
H1164 C1157 0.961 . S
H1165 C1157 0.960 . S
H1166 C1158 0.930 . S
H1167 C1159 0.929 . S
H1168 C1176 0.929 . S
H1169 C1178 0.930 . S
H1170 C1180 0.930 . S
H1171 C1183 0.929 . S
H1172 C1186 0.930 . S
H1173 C1188 0.960 . S
H1174 C1188 0.960 . S
H1175 C1188 0.960 . S
C1176 H1168 0.929 . S
C1176 C1177 1.377 . S
C1176 C1178 1.384 . S
C1177 C1176 1.377 . S
C1177 C1183 1.390 . S
C1178 H1169 0.930 . S
C1178 C1176 1.384 . S
C1178 C1179 1.372 . S
C1179 C1178 1.372 . S
C1179 C1180 1.400 . S
C1179 C1184 1.490 . S
C1180 H1170 0.930 . S
C1180 C1179 1.400 . S
C1180 C1183 1.386 . S
H1181 C1197 0.930 . S
H1182 C1198 0.931 . S
C1183 H1171 0.929 . S
C1183 C1177 1.390 . S
C1183 C1180 1.386 . S
C1184 C1179 1.490 . S
C1184 C1186 1.395 . S
C1184 C1187 1.403 . S
H1185 C1191 0.930 . S
C1186 H1172 0.930 . S
C1186 C1184 1.395 . S
C1186 C1189 1.403 . S
C1187 C1184 1.403 . S
C1187 C1188 1.524 . S
C1187 C1191 1.400 . S
C1188 H1173 0.960 . S
C1188 H1174 0.960 . S
C1188 H1175 0.960 . S
C1188 C1187 1.524 . S
C1189 C1186 1.403 . S
C1189 C1190 1.392 . S
C1189 C1193 1.495 . S
C1190 C1189 1.392 . S
C1190 C1191 1.385 . S
C1190 C1192 1.478 . S
C1191 H1185 0.930 . S
C1191 C1187 1.400 . S
C1191 C1190 1.385 . S
C1192 C1190 1.478 . S
C1192 C1194 1.381 . S
C1192 C1198 1.383 . S
C1193 C1189 1.495 . S
C1193 H1199 0.959 . S
C1193 H1200 0.961 . S
C1193 H1201 0.960 . S
C1194 C1192 1.381 . S
C1194 C1195 1.394 . S
C1194 H1202 0.930 . S
C1195 C1194 1.394 . S
C1195 C1196 1.383 . S
C1195 H1203 0.929 . S
C1196 C1195 1.383 . S
C1196 C1197 1.377 . S
C1197 H1181 0.930 . S
C1197 C1196 1.377 . S
C1197 C1198 1.379 . S
C1198 H1182 0.931 . S
C1198 C1192 1.383 . S
C1198 C1197 1.379 . S
H1199 C1193 0.959 . S
H1200 C1193 0.961 . S
H1201 C1193 0.960 . S
H1202 C1194 0.930 . S
H1203 C1195 0.929 . S
H1204 C1212 0.929 . S
H1205 C1214 0.930 . S
H1206 C1216 0.930 . S
H1207 C1219 0.929 . S
H1208 C1222 0.930 . S
H1209 C1224 0.960 . S
H1210 C1224 0.960 . S
H1211 C1224 0.960 . S
C1212 H1204 0.929 . S
C1212 C1213 1.377 . S
C1212 C1214 1.384 . S
C1213 C1212 1.377 . S
C1213 C1219 1.390 . S
C1214 H1205 0.930 . S
C1214 C1212 1.384 . S
C1214 C1215 1.372 . S
C1215 C1214 1.372 . S
C1215 C1216 1.400 . S
C1215 C1220 1.490 . S
C1216 H1206 0.930 . S
C1216 C1215 1.400 . S
C1216 C1219 1.386 . S
H1217 C1233 0.930 . S
H1218 C1234 0.931 . S
C1219 H1207 0.929 . S
C1219 C1213 1.390 . S
C1219 C1216 1.386 . S
C1220 C1215 1.490 . S
C1220 C1222 1.395 . S
C1220 C1223 1.403 . S
H1221 C1227 0.930 . S
C1222 H1208 0.930 . S
C1222 C1220 1.395 . S
C1222 C1225 1.403 . S
C1223 C1220 1.403 . S
C1223 C1224 1.524 . S
C1223 C1227 1.400 . S
C1224 H1209 0.960 . S
C1224 H1210 0.960 . S
C1224 H1211 0.960 . S
C1224 C1223 1.524 . S
C1225 C1222 1.403 . S
C1225 C1226 1.392 . S
C1225 C1229 1.495 . S
C1226 C1225 1.392 . S
C1226 C1227 1.385 . S
C1226 C1228 1.478 . S
C1227 H1221 0.930 . S
C1227 C1223 1.400 . S
C1227 C1226 1.385 . S
C1228 C1226 1.478 . S
C1228 C1230 1.381 . S
C1228 C1234 1.383 . S
C1229 C1225 1.495 . S
C1229 H1235 0.959 . S
C1229 H1236 0.961 . S
C1229 H1237 0.960 . S
C1230 C1228 1.381 . S
C1230 C1231 1.394 . S
C1230 H1238 0.930 . S
C1231 C1230 1.394 . S
C1231 C1232 1.383 . S
C1231 H1239 0.929 . S
C1232 C1231 1.383 . S
C1232 C1233 1.377 . S
C1233 H1217 0.930 . S
C1233 C1232 1.377 . S
C1233 C1234 1.379 . S
C1234 H1218 0.931 . S
C1234 C1228 1.383 . S
C1234 C1233 1.379 . S
H1235 C1229 0.959 . S
H1236 C1229 0.961 . S
H1237 C1229 0.960 . S
H1238 C1230 0.930 . S
H1239 C1231 0.929 . S
H1240 C1248 0.929 . S
H1241 C1250 0.930 . S
H1242 C1252 0.930 . S
H1243 C1255 0.929 . S
H1244 C1258 0.984 . S
H1245 C1260 0.960 . S
H1246 C1260 0.960 . S
H1247 C1260 0.960 . S
C1248 H1240 0.929 . S
C1248 C1249 1.377 . S
C1248 C1250 1.384 . S
C1249 C1248 1.377 . S
C1249 C1255 1.390 . S
C1250 H1241 0.930 . S
C1250 C1248 1.384 . S
C1250 C1251 1.372 . S
C1251 C1250 1.372 . S
C1251 C1252 1.400 . S
C1251 C1256 1.490 . S
C1252 H1242 0.930 . S
C1252 C1251 1.400 . S
C1252 C1255 1.386 . S
H1253 C1269 0.930 . S
H1254 C1270 0.992 . S
C1255 H1243 0.929 . S
C1255 C1249 1.390 . S
C1255 C1252 1.386 . S
C1256 C1251 1.490 . S
C1256 C1258 1.395 . S
C1256 C1259 1.403 . S
H1257 C1263 0.930 . S
C1258 H1244 0.984 . S
C1258 C1256 1.395 . S
C1258 C1261 1.403 . S
C1259 C1256 1.403 . S
C1259 C1260 1.524 . S
C1259 C1263 1.400 . S
C1260 H1245 0.960 . S
C1260 H1246 0.960 . S
C1260 H1247 0.960 . S
C1260 C1259 1.524 . S
C1261 C1258 1.403 . S
C1261 C1262 1.392 . S
C1261 C1265 1.457 1_545 S
C1262 C1261 1.392 . S
C1262 C1263 1.385 . S
C1262 C1264 1.478 1_655 S
C1263 H1257 0.930 . S
C1263 C1259 1.400 . S
C1263 C1262 1.385 . S
C1264 C1262 1.478 1_455 S
C1264 C1266 1.381 . S
C1264 C1270 1.370 1_455 S
C1265 C1261 1.457 1_565 S
C1265 H1271 0.995 . S
C1265 H1272 0.964 . S
C1265 H1273 0.962 1_665 S
C1266 C1264 1.381 . S
C1266 C1267 1.394 . S
C1266 H1274 0.930 . S
C1267 C1266 1.394 . S
C1267 C1268 1.383 . S
C1267 H1275 0.929 . S
C1268 C1267 1.383 . S
C1268 C1269 1.377 . S
C1269 H1253 0.930 . S
C1269 C1268 1.377 . S
C1269 C1270 1.334 1_455 S
C1270 H1254 0.992 . S
C1270 C1264 1.370 1_655 S
C1270 C1269 1.334 1_655 S
H1271 C1265 0.995 . S
H1272 C1265 0.964 . S
H1273 C1265 0.962 1_445 S
H1274 C1266 0.930 . S
H1275 C1267 0.929 . S
H1276 C1284 0.929 . S
H1277 C1286 0.930 . S
H1278 C1288 0.930 . S
H1279 C1291 0.929 . S
H1280 C1294 0.930 . S
H1281 C1296 0.960 . S
H1282 C1296 0.960 . S
H1283 C1296 0.960 . S
C1284 H1276 0.929 . S
C1284 C1285 1.377 . S
C1284 C1286 1.384 . S
C1285 C1284 1.377 . S
C1285 C1291 1.390 . S
C1286 H1277 0.930 . S
C1286 C1284 1.384 . S
C1286 C1287 1.372 . S
C1287 C1286 1.372 . S
C1287 C1288 1.400 . S
C1287 C1292 1.490 . S
C1288 H1278 0.930 . S
C1288 C1287 1.400 . S
C1288 C1291 1.386 . S
H1289 C1305 0.930 . S
H1290 C1306 0.931 . S
C1291 H1279 0.929 . S
C1291 C1285 1.390 . S
C1291 C1288 1.386 . S
C1292 C1287 1.490 . S
C1292 C1294 1.395 . S
C1292 C1295 1.403 . S
H1293 C1299 0.930 . S
C1294 H1280 0.930 . S
C1294 C1292 1.395 . S
C1294 C1297 1.403 . S
C1295 C1292 1.403 . S
C1295 C1296 1.524 . S
C1295 C1299 1.400 . S
C1296 H1281 0.960 . S
C1296 H1282 0.960 . S
C1296 H1283 0.960 . S
C1296 C1295 1.524 . S
C1297 C1294 1.403 . S
C1297 C1298 1.392 . S
C1297 C1301 1.495 . S
C1298 C1297 1.392 . S
C1298 C1299 1.385 . S
C1298 C1300 1.478 . S
C1299 H1293 0.930 . S
C1299 C1295 1.400 . S
C1299 C1298 1.385 . S
C1300 C1298 1.478 . S
C1300 C1302 1.381 . S
C1300 C1306 1.383 . S
C1301 C1297 1.495 . S
C1301 H1307 0.959 . S
C1301 H1308 0.961 . S
C1301 H1309 0.960 . S
C1302 C1300 1.381 . S
C1302 C1303 1.394 . S
C1302 H1310 0.930 . S
C1303 C1302 1.394 . S
C1303 C1304 1.383 . S
C1303 H1311 0.929 . S
C1304 C1303 1.383 . S
C1304 C1305 1.377 . S
C1305 H1289 0.930 . S
C1305 C1304 1.377 . S
C1305 C1306 1.379 . S
C1306 H1290 0.931 . S
C1306 C1300 1.383 . S
C1306 C1305 1.379 . S
H1307 C1301 0.959 . S
H1308 C1301 0.961 . S
H1309 C1301 0.960 . S
H1310 C1302 0.930 . S
H1311 C1303 0.929 . S
H1312 C1320 0.929 . S
H1313 C1322 0.930 . S
H1314 C1324 0.930 . S
H1315 C1327 0.929 . S
H1316 C1330 0.930 . S
H1317 C1332 0.960 . S
H1318 C1332 0.960 . S
H1319 C1332 0.960 . S
C1320 H1312 0.929 . S
C1320 C1321 1.378 . S
C1320 C1322 1.384 . S
C1321 C1320 1.378 . S
C1321 C1327 1.383 1_565 S
C1322 H1313 0.930 . S
C1322 C1320 1.384 . S
C1322 C1323 1.372 1_565 S
C1323 C1322 1.372 1_545 S
C1323 C1324 1.400 . S
C1323 C1328 1.490 . S
C1324 H1314 0.930 . S
C1324 C1323 1.400 . S
C1324 C1327 1.386 . S
H1325 C1341 0.930 . S
H1326 C1342 0.931 . S
C1327 H1315 0.929 . S
C1327 C1321 1.383 1_545 S
C1327 C1324 1.386 . S
C1328 C1323 1.490 . S
C1328 C1330 1.395 . S
C1328 C1331 1.403 1_545 S
H1329 C1335 0.930 . S
C1330 H1316 0.930 . S
C1330 C1328 1.395 . S
C1330 C1333 1.403 . S
C1331 C1328 1.403 1_565 S
C1331 C1332 1.524 . S
C1331 C1335 1.400 . S
C1332 H1317 0.960 . S
C1332 H1318 0.960 . S
C1332 H1319 0.960 . S
C1332 C1331 1.524 . S
C1333 C1330 1.403 . S
C1333 C1334 1.392 . S
C1333 C1337 1.495 . S
C1334 C1333 1.392 . S
C1334 C1335 1.385 1_545 S
C1334 C1336 1.478 . S
C1335 H1329 0.930 . S
C1335 C1331 1.400 . S
C1335 C1334 1.385 1_565 S
C1336 C1334 1.478 . S
C1336 C1338 1.381 . S
C1336 C1342 1.383 . S
C1337 C1333 1.495 . S
C1337 H1343 0.959 . S
C1337 H1344 0.961 . S
C1337 H1345 0.960 . S
C1338 C1336 1.381 . S
C1338 C1339 1.394 . S
C1338 H1346 0.930 . S
C1339 C1338 1.394 . S
C1339 C1340 1.383 . S
C1339 H1347 0.929 . S
C1340 C1339 1.383 . S
C1340 C1341 1.377 . S
C1341 H1325 0.930 . S
C1341 C1340 1.377 . S
C1341 C1342 1.379 . S
C1342 H1326 0.931 . S
C1342 C1336 1.383 . S
C1342 C1341 1.379 . S
H1343 C1337 0.959 . S
H1344 C1337 0.961 . S
H1345 C1337 0.960 . S
H1346 C1338 0.930 . S
H1347 C1339 0.929 . S
H1348 C1356 0.929 . S
H1349 C1358 0.930 . S
H1350 C1360 0.930 . S
H1351 C1363 0.929 . S
H1352 C1366 0.930 . S
H1353 C1368 0.960 . S
H1354 C1368 0.960 . S
H1355 C1368 0.960 . S
C1356 H1348 0.929 . S
C1356 C1357 1.377 . S
C1356 C1358 1.384 . S
C1357 C1356 1.377 . S
C1357 C1363 1.390 . S
C1358 H1349 0.930 . S
C1358 C1356 1.384 . S
C1358 C1359 1.372 . S
C1359 C1358 1.372 . S
C1359 C1360 1.400 . S
C1359 C1364 1.490 . S
C1360 H1350 0.930 . S
C1360 C1359 1.400 . S
C1360 C1363 1.386 . S
H1361 C1377 0.930 . S
H1362 C1378 0.931 . S
C1363 H1351 0.929 . S
C1363 C1357 1.390 . S
C1363 C1360 1.386 . S
C1364 C1359 1.490 . S
C1364 C1366 1.395 . S
C1364 C1367 1.403 . S
H1365 C1371 0.930 . S
C1366 H1352 0.930 . S
C1366 C1364 1.395 . S
C1366 C1369 1.403 . S
C1367 C1364 1.403 . S
C1367 C1368 1.524 . S
C1367 C1371 1.400 . S
C1368 H1353 0.960 . S
C1368 H1354 0.960 . S
C1368 H1355 0.960 . S
C1368 C1367 1.524 . S
C1369 C1366 1.403 . S
C1369 C1370 1.392 . S
C1369 C1373 1.495 . S
C1370 C1369 1.392 . S
C1370 C1371 1.385 . S
C1370 C1372 1.478 . S
C1371 H1365 0.930 . S
C1371 C1367 1.400 . S
C1371 C1370 1.385 . S
C1372 C1370 1.478 . S
C1372 C1374 1.381 . S
C1372 C1378 1.383 . S
C1373 C1369 1.495 . S
C1373 H1379 0.959 . S
C1373 H1380 0.961 . S
C1373 H1381 0.960 . S
C1374 C1372 1.381 . S
C1374 C1375 1.394 . S
C1374 H1382 0.930 . S
C1375 C1374 1.394 . S
C1375 C1376 1.383 . S
C1375 H1383 0.929 . S
C1376 C1375 1.383 . S
C1376 C1377 1.377 . S
C1377 H1361 0.930 . S
C1377 C1376 1.377 . S
C1377 C1378 1.379 . S
C1378 H1362 0.931 . S
C1378 C1372 1.383 . S
C1378 C1377 1.379 . S
H1379 C1373 0.959 . S
H1380 C1373 0.961 . S
H1381 C1373 0.960 . S
H1382 C1374 0.930 . S
H1383 C1375 0.929 . S
H1384 C1392 0.929 . S
H1385 C1394 0.930 . S
H1386 C1396 0.935 . S
H1387 C1399 0.929 . S
H1388 C1402 0.919 1_565 S
H1389 C1404 0.960 . S
H1390 C1404 0.960 . S
H1391 C1404 0.960 . S
C1392 H1384 0.929 . S
C1392 C1393 1.377 . S
C1392 C1394 1.384 . S
C1393 C1392 1.377 . S
C1393 C1399 1.390 1_545 S
C1394 H1385 0.930 . S
C1394 C1392 1.384 . S
C1394 C1395 1.372 . S
C1395 C1394 1.372 . S
C1395 C1396 1.396 1_545 S
C1395 C1400 1.490 . S
C1396 H1386 0.935 . S
C1396 C1395 1.396 1_565 S
C1396 C1399 1.385 . S
H1397 C1413 0.935 . S
H1398 C1414 0.931 1_565 S
C1399 H1387 0.929 . S
C1399 C1393 1.390 1_565 S
C1399 C1396 1.385 . S
C1400 C1395 1.490 . S
C1400 C1402 1.411 . S
C1400 C1403 1.403 . S
H1401 C1407 0.930 . S
C1402 H1388 0.919 1_545 S
C1402 C1400 1.411 . S
C1402 C1405 1.408 . S
C1403 C1400 1.403 . S
C1403 C1404 1.524 . S
C1403 C1407 1.400 . S
C1404 H1389 0.960 . S
C1404 H1390 0.960 . S
C1404 H1391 0.960 . S
C1404 C1403 1.524 . S
C1405 C1402 1.408 . S
C1405 C1406 1.415 . S
C1405 C1409 1.467 1_545 S
C1406 C1405 1.415 . S
C1406 C1407 1.385 . S
C1406 C1408 1.478 . S
C1407 H1401 0.930 . S
C1407 C1403 1.400 . S
C1407 C1406 1.385 . S
C1408 C1406 1.478 . S
C1408 C1410 1.381 . S
C1408 C1414 1.383 . S
C1409 C1405 1.467 1_565 S
C1409 H1415 0.959 . S
C1409 H1416 0.961 . S
C1409 H1417 0.961 . S
C1410 C1408 1.381 . S
C1410 C1411 1.394 . S
C1410 H1418 0.930 . S
C1411 C1410 1.394 . S
C1411 C1412 1.383 1_655 S
C1411 H1419 0.929 . S
C1412 C1411 1.383 1_455 S
C1412 C1413 1.377 . S
C1413 H1397 0.935 . S
C1413 C1412 1.377 . S
C1413 C1414 1.379 1_455 S
C1414 H1398 0.931 1_545 S
C1414 C1408 1.383 . S
C1414 C1413 1.379 1_655 S
H1415 C1409 0.959 . S
H1416 C1409 0.961 . S
H1417 C1409 0.961 . S
H1418 C1410 0.930 . S
H1419 C1411 0.929 . S
H1420 C1428 0.929 . S
H1421 C1430 0.930 . S
H1422 C1432 0.930 . S
H1423 C1435 0.929 . S
H1424 C1438 0.930 . S
H1425 C1440 0.960 . S
H1426 C1440 0.960 . S
H1427 C1440 0.960 . S
C1428 H1420 0.929 . S
C1428 C1429 1.377 . S
C1428 C1430 1.384 . S
C1429 C1428 1.377 . S
C1429 C1435 1.390 . S
C1430 H1421 0.930 . S
C1430 C1428 1.384 . S
C1430 C1431 1.372 . S
C1431 C1430 1.372 . S
C1431 C1432 1.400 . S
C1431 C1436 1.490 . S
C1432 H1422 0.930 . S
C1432 C1431 1.400 . S
C1432 C1435 1.386 . S
H1433 C1449 0.930 . S
H1434 C1450 0.931 . S
C1435 H1423 0.929 . S
C1435 C1429 1.390 . S
C1435 C1432 1.386 . S
C1436 C1431 1.490 . S
C1436 C1438 1.395 . S
C1436 C1439 1.403 . S
H1437 C1443 0.930 . S
C1438 H1424 0.930 . S
C1438 C1436 1.395 . S
C1438 C1441 1.403 . S
C1439 C1436 1.403 . S
C1439 C1440 1.524 . S
C1439 C1443 1.400 . S
C1440 H1425 0.960 . S
C1440 H1426 0.960 . S
C1440 H1427 0.960 . S
C1440 C1439 1.524 . S
C1441 C1438 1.403 . S
C1441 C1442 1.392 . S
C1441 C1445 1.495 . S
C1442 C1441 1.392 . S
C1442 C1443 1.385 . S
C1442 C1444 1.478 . S
C1443 H1437 0.930 . S
C1443 C1439 1.400 . S
C1443 C1442 1.385 . S
C1444 C1442 1.478 . S
C1444 C1446 1.381 . S
C1444 C1450 1.383 . S
C1445 C1441 1.495 . S
C1445 H1451 0.959 . S
C1445 H1452 0.961 . S
C1445 H1453 0.960 . S
C1446 C1444 1.381 . S
C1446 C1447 1.394 . S
C1446 H1454 0.930 . S
C1447 C1446 1.394 . S
C1447 C1448 1.383 . S
C1447 H1455 0.929 . S
C1448 C1447 1.383 . S
C1448 C1449 1.377 . S
C1449 H1433 0.930 . S
C1449 C1448 1.377 . S
C1449 C1450 1.379 . S
C1450 H1434 0.931 . S
C1450 C1444 1.383 . S
C1450 C1449 1.379 . S
H1451 C1445 0.959 . S
H1452 C1445 0.961 . S
H1453 C1445 0.960 . S
H1454 C1446 0.930 . S
H1455 C1447 0.929 . S
H1456 C1464 0.929 . S
H1457 C1466 0.930 . S
H1458 C1468 0.930 . S
H1459 C1471 0.929 1_565 S
H1460 C1474 0.930 . S
H1461 C1476 0.960 . S
H1462 C1476 0.960 . S
H1463 C1476 0.960 . S
C1464 H1456 0.929 . S
C1464 C1465 1.377 . S
C1464 C1466 1.384 . S
C1465 C1464 1.377 . S
C1465 C1471 1.390 . S
C1466 H1457 0.930 . S
C1466 C1464 1.384 . S
C1466 C1467 1.372 . S
C1467 C1466 1.372 . S
C1467 C1468 1.400 . S
C1467 C1472 1.490 . S
C1468 H1458 0.930 . S
C1468 C1467 1.400 . S
C1468 C1471 1.386 . S
H1469 C1485 0.930 . S
H1470 C1486 0.931 . S
C1471 H1459 0.929 1_545 S
C1471 C1465 1.390 . S
C1471 C1468 1.386 . S
C1472 C1467 1.490 . S
C1472 C1474 1.395 . S
C1472 C1475 1.403 . S
H1473 C1479 0.930 . S
C1474 H1460 0.930 . S
C1474 C1472 1.395 . S
C1474 C1477 1.403 . S
C1475 C1472 1.403 . S
C1475 C1476 1.524 1_545 S
C1475 C1479 1.400 . S
C1476 H1461 0.960 . S
C1476 H1462 0.960 . S
C1476 H1463 0.960 . S
C1476 C1475 1.524 1_565 S
C1477 C1474 1.403 . S
C1477 C1478 1.392 . S
C1477 C1481 1.495 . S
C1478 C1477 1.392 . S
C1478 C1479 1.385 . S
C1478 C1480 1.478 . S
C1479 H1473 0.930 . S
C1479 C1475 1.400 . S
C1479 C1478 1.385 . S
C1480 C1478 1.478 . S
C1480 C1482 1.381 . S
C1480 C1486 1.383 . S
C1481 C1477 1.495 . S
C1481 H1487 0.959 . S
C1481 H1488 0.961 . S
C1481 H1489 0.960 . S
C1482 C1480 1.381 . S
C1482 C1483 1.394 . S
C1482 H1490 0.930 . S
C1483 C1482 1.394 . S
C1483 C1484 1.383 . S
C1483 H1491 0.929 . S
C1484 C1483 1.383 . S
C1484 C1485 1.377 . S
C1485 H1469 0.930 . S
C1485 C1484 1.377 . S
C1485 C1486 1.379 . S
C1486 H1470 0.931 . S
C1486 C1480 1.383 . S
C1486 C1485 1.379 . S
H1487 C1481 0.959 . S
H1488 C1481 0.961 . S
H1489 C1481 0.960 . S
H1490 C1482 0.930 . S
H1491 C1483 0.929 . S
H1492 C1500 0.929 . S
H1493 C1502 0.930 . S
H1494 C1504 0.930 . S
H1495 C1507 0.929 . S
H1496 C1510 0.930 . S
H1497 C1512 0.960 . S
H1498 C1512 0.960 . S
H1499 C1512 0.960 . S
C1500 H1492 0.929 . S
C1500 C1501 1.377 . S
C1500 C1502 1.384 . S
C1501 C1500 1.377 . S
C1501 C1507 1.390 . S
C1502 H1493 0.930 . S
C1502 C1500 1.384 . S
C1502 C1503 1.372 . S
C1503 C1502 1.372 . S
C1503 C1504 1.400 . S
C1503 C1508 1.490 . S
C1504 H1494 0.930 . S
C1504 C1503 1.400 . S
C1504 C1507 1.386 . S
H1505 C1521 0.930 . S
H1506 C1522 0.931 . S
C1507 H1495 0.929 . S
C1507 C1501 1.390 . S
C1507 C1504 1.386 . S
C1508 C1503 1.490 . S
C1508 C1510 1.395 . S
C1508 C1511 1.403 . S
H1509 C1515 0.930 . S
C1510 H1496 0.930 . S
C1510 C1508 1.395 . S
C1510 C1513 1.403 . S
C1511 C1508 1.403 . S
C1511 C1512 1.524 . S
C1511 C1515 1.400 . S
C1512 H1497 0.960 . S
C1512 H1498 0.960 . S
C1512 H1499 0.960 . S
C1512 C1511 1.524 . S
C1513 C1510 1.403 . S
C1513 C1514 1.392 . S
C1513 C1517 1.495 . S
C1514 C1513 1.392 . S
C1514 C1515 1.385 . S
C1514 C1516 1.478 . S
C1515 H1509 0.930 . S
C1515 C1511 1.400 . S
C1515 C1514 1.385 . S
C1516 C1514 1.478 . S
C1516 C1518 1.381 . S
C1516 C1522 1.383 . S
C1517 C1513 1.495 . S
C1517 H1523 0.959 . S
C1517 H1524 0.961 . S
C1517 H1525 0.960 . S
C1518 C1516 1.381 . S
C1518 C1519 1.394 . S
C1518 H1526 0.930 . S
C1519 C1518 1.394 . S
C1519 C1520 1.383 . S
C1519 H1527 0.929 . S
C1520 C1519 1.383 . S
C1520 C1521 1.377 . S
C1521 H1505 0.930 . S
C1521 C1520 1.377 . S
C1521 C1522 1.379 . S
C1522 H1506 0.931 . S
C1522 C1516 1.383 . S
C1522 C1521 1.379 . S
H1523 C1517 0.959 . S
H1524 C1517 0.961 . S
H1525 C1517 0.960 . S
H1526 C1518 0.930 . S
H1527 C1519 0.929 . S
H1528 C1536 0.929 . S
H1529 C1538 0.930 . S
H1530 C1540 0.930 . S
H1531 C1543 0.929 . S
H1532 C1546 0.930 . S
H1533 C1548 0.960 . S
H1534 C1548 0.960 . S
H1535 C1548 0.960 . S
C1536 H1528 0.929 . S
C1536 C1537 1.377 . S
C1536 C1538 1.384 . S
C1537 C1536 1.377 . S
C1537 C1543 1.390 . S
C1538 H1529 0.930 . S
C1538 C1536 1.384 . S
C1538 C1539 1.372 . S
C1539 C1538 1.372 . S
C1539 C1540 1.400 . S
C1539 C1544 1.490 . S
C1540 H1530 0.930 . S
C1540 C1539 1.400 . S
C1540 C1543 1.386 . S
H1541 C1557 0.930 1_545 S
H1542 C1558 0.931 . S
C1543 H1531 0.929 . S
C1543 C1537 1.390 . S
C1543 C1540 1.386 . S
C1544 C1539 1.490 . S
C1544 C1546 1.395 . S
C1544 C1547 1.403 . S
H1545 C1551 0.930 . S
C1546 H1532 0.930 . S
C1546 C1544 1.395 . S
C1546 C1549 1.403 . S
C1547 C1544 1.403 . S
C1547 C1548 1.524 . S
C1547 C1551 1.400 . S
C1548 H1533 0.960 . S
C1548 H1534 0.960 . S
C1548 H1535 0.960 . S
C1548 C1547 1.524 . S
C1549 C1546 1.403 . S
C1549 C1550 1.392 . S
C1549 C1553 1.495 . S
C1550 C1549 1.392 . S
C1550 C1551 1.385 . S
C1550 C1552 1.478 . S
C1551 H1545 0.930 . S
C1551 C1547 1.400 . S
C1551 C1550 1.385 . S
C1552 C1550 1.478 . S
C1552 C1554 1.381 . S
C1552 C1558 1.383 . S
C1553 C1549 1.495 . S
C1553 H1559 0.959 . S
C1553 H1560 0.961 . S
C1553 H1561 0.960 . S
C1554 C1552 1.381 . S
C1554 C1555 1.394 . S
C1554 H1562 0.930 . S
C1555 C1554 1.394 . S
C1555 C1556 1.405 . S
C1555 H1563 0.929 . S
C1556 C1555 1.405 . S
C1556 C1557 1.394 . S
C1557 H1541 0.930 1_565 S
C1557 C1556 1.394 . S
C1557 C1558 1.379 . S
C1558 H1542 0.931 . S
C1558 C1552 1.383 . S
C1558 C1557 1.379 . S
H1559 C1553 0.959 . S
H1560 C1553 0.961 . S
H1561 C1553 0.960 . S
H1562 C1554 0.930 . S
H1563 C1555 0.929 . S
H1564 C1572 0.929 . S
H1565 C1574 0.930 . S
H1566 C1576 0.930 . S
H1567 C1579 0.929 . S
H1568 C1582 0.930 . S
H1569 C1584 0.960 . S
H1570 C1584 0.960 . S
H1571 C1584 0.960 . S
C1572 H1564 0.929 . S
C1572 C1573 1.377 1_556 S
C1572 C1574 1.384 . S
C1573 C1572 1.377 1_554 S
C1573 C1579 1.390 . S
C1574 H1565 0.930 . S
C1574 C1572 1.384 . S
C1574 C1575 1.372 1_556 S
C1575 C1574 1.372 1_554 S
C1575 C1576 1.400 . S
C1575 C1580 1.490 . S
C1576 H1566 0.930 . S
C1576 C1575 1.400 . S
C1576 C1579 1.386 . S
H1577 C1593 0.930 . S
H1578 C1594 0.931 . S
C1579 H1567 0.929 . S
C1579 C1573 1.390 . S
C1579 C1576 1.386 . S
C1580 C1575 1.490 . S
C1580 C1582 1.395 . S
C1580 C1583 1.403 . S
H1581 C1587 0.930 . S
C1582 H1568 0.930 . S
C1582 C1580 1.395 . S
C1582 C1585 1.403 . S
C1583 C1580 1.403 . S
C1583 C1584 1.524 . S
C1583 C1587 1.400 . S
C1584 H1569 0.960 . S
C1584 H1570 0.960 . S
C1584 H1571 0.960 . S
C1584 C1583 1.524 . S
C1585 C1582 1.403 . S
C1585 C1586 1.392 . S
C1585 C1589 1.495 . S
C1586 C1585 1.392 . S
C1586 C1587 1.385 . S
C1586 C1588 1.478 . S
C1587 H1581 0.930 . S
C1587 C1583 1.400 . S
C1587 C1586 1.385 . S
C1588 C1586 1.478 . S
C1588 C1590 1.381 1_554 S
C1588 C1594 1.383 . S
C1589 C1585 1.495 . S
C1589 H1595 0.959 . S
C1589 H1596 0.961 . S
C1589 H1597 0.960 1_554 S
C1590 C1588 1.381 1_556 S
C1590 C1591 1.394 . S
C1590 H1598 0.930 . S
C1591 C1590 1.394 . S
C1591 C1592 1.383 1_556 S
C1591 H1599 0.929 . S
C1592 C1591 1.383 1_554 S
C1592 C1593 1.377 . S
C1593 H1577 0.930 . S
C1593 C1592 1.377 . S
C1593 C1594 1.379 . S
C1594 H1578 0.931 . S
C1594 C1588 1.383 . S
C1594 C1593 1.379 . S
H1595 C1589 0.959 . S
H1596 C1589 0.961 . S
H1597 C1589 0.960 1_556 S
H1598 C1590 0.930 . S
H1599 C1591 0.929 . S
H1600 C1608 0.929 . S
H1601 C1610 0.930 . S
H1602 C1612 0.930 . S
H1603 C1615 0.929 . S
H1604 C1618 0.930 . S
H1605 C1620 0.960 . S
H1606 C1620 0.960 . S
H1607 C1620 0.960 . S
C1608 H1600 0.929 . S
C1608 C1609 1.377 . S
C1608 C1610 1.384 . S
C1609 C1608 1.377 . S
C1609 C1615 1.390 . S
C1610 H1601 0.930 . S
C1610 C1608 1.384 . S
C1610 C1611 1.372 . S
C1611 C1610 1.372 . S
C1611 C1612 1.400 . S
C1611 C1616 1.490 . S
C1612 H1602 0.930 . S
C1612 C1611 1.400 . S
C1612 C1615 1.386 . S
H1613 C1629 0.930 . S
H1614 C1630 0.931 . S
C1615 H1603 0.929 . S
C1615 C1609 1.390 . S
C1615 C1612 1.386 . S
C1616 C1611 1.490 . S
C1616 C1618 1.395 . S
C1616 C1619 1.403 . S
H1617 C1623 0.930 . S
C1618 H1604 0.930 . S
C1618 C1616 1.395 . S
C1618 C1621 1.403 . S
C1619 C1616 1.403 . S
C1619 C1620 1.524 . S
C1619 C1623 1.400 . S
C1620 H1605 0.960 . S
C1620 H1606 0.960 . S
C1620 H1607 0.960 . S
C1620 C1619 1.524 . S
C1621 C1618 1.403 . S
C1621 C1622 1.392 . S
C1621 C1625 1.495 . S
C1622 C1621 1.392 . S
C1622 C1623 1.385 . S
C1622 C1624 1.478 . S
C1623 H1617 0.930 . S
C1623 C1619 1.400 . S
C1623 C1622 1.385 . S
C1624 C1622 1.478 . S
C1624 C1626 1.381 . S
C1624 C1630 1.383 . S
C1625 C1621 1.495 . S
C1625 H1631 0.959 . S
C1625 H1632 0.961 . S
C1625 H1633 0.960 . S
C1626 C1624 1.381 . S
C1626 C1627 1.394 . S
C1626 H1634 0.930 . S
C1627 C1626 1.394 . S
C1627 C1628 1.383 . S
C1627 H1635 0.929 . S
C1628 C1627 1.383 . S
C1628 C1629 1.377 . S
C1629 H1613 0.930 . S
C1629 C1628 1.377 . S
C1629 C1630 1.379 . S
C1630 H1614 0.931 . S
C1630 C1624 1.383 . S
C1630 C1629 1.379 . S
H1631 C1625 0.959 . S
H1632 C1625 0.961 . S
H1633 C1625 0.960 . S
H1634 C1626 0.930 . S
H1635 C1627 0.929 . S
H1636 C1644 0.929 . S
H1637 C1646 0.930 . S
H1638 C1648 0.930 . S
H1639 C1651 0.929 . S
H1640 C1654 0.930 . S
H1641 C1656 0.960 . S
H1642 C1656 0.960 . S
H1643 C1656 0.960 . S
C1644 H1636 0.929 . S
C1644 C1645 1.377 . S
C1644 C1646 1.384 . S
C1645 C1644 1.377 . S
C1645 C1651 1.390 . S
C1646 H1637 0.930 . S
C1646 C1644 1.384 . S
C1646 C1647 1.372 . S
C1647 C1646 1.372 . S
C1647 C1648 1.400 . S
C1647 C1652 1.490 . S
C1648 H1638 0.930 . S
C1648 C1647 1.400 . S
C1648 C1651 1.386 . S
H1649 C1665 0.930 . S
H1650 C1666 0.931 . S
C1651 H1639 0.929 . S
C1651 C1645 1.390 . S
C1651 C1648 1.386 . S
C1652 C1647 1.490 . S
C1652 C1654 1.395 . S
C1652 C1655 1.403 . S
H1653 C1659 0.930 . S
C1654 H1640 0.930 . S
C1654 C1652 1.395 . S
C1654 C1657 1.403 . S
C1655 C1652 1.403 . S
C1655 C1656 1.524 . S
C1655 C1659 1.400 . S
C1656 H1641 0.960 . S
C1656 H1642 0.960 . S
C1656 H1643 0.960 . S
C1656 C1655 1.524 . S
C1657 C1654 1.403 . S
C1657 C1658 1.392 . S
C1657 C1661 1.495 . S
C1658 C1657 1.392 . S
C1658 C1659 1.385 . S
C1658 C1660 1.478 . S
C1659 H1653 0.930 . S
C1659 C1655 1.400 . S
C1659 C1658 1.385 . S
C1660 C1658 1.478 . S
C1660 C1662 1.381 . S
C1660 C1666 1.383 . S
C1661 C1657 1.495 . S
C1661 H1667 0.959 . S
C1661 H1668 0.961 . S
C1661 H1669 0.960 . S
C1662 C1660 1.381 . S
C1662 C1663 1.394 . S
C1662 H1670 0.930 . S
C1663 C1662 1.394 . S
C1663 C1664 1.383 . S
C1663 H1671 0.929 . S
C1664 C1663 1.383 . S
C1664 C1665 1.377 . S
C1665 H1649 0.930 . S
C1665 C1664 1.377 . S
C1665 C1666 1.379 . S
C1666 H1650 0.931 . S
C1666 C1660 1.383 . S
C1666 C1665 1.379 . S
H1667 C1661 0.959 . S
H1668 C1661 0.961 . S
H1669 C1661 0.960 . S
H1670 C1662 0.930 . S
H1671 C1663 0.929 . S
H1672 C1680 0.929 . S
H1673 C1682 0.930 . S
H1674 C1684 0.930 . S
H1675 C1687 0.929 . S
H1676 C1690 0.930 . S
H1677 C1692 0.960 . S
H1678 C1692 0.960 . S
H1679 C1692 0.960 . S
C1680 H1672 0.929 . S
C1680 C1681 1.377 . S
C1680 C1682 1.384 . S
C1681 C1680 1.377 . S
C1681 C1687 1.390 . S
C1682 H1673 0.930 . S
C1682 C1680 1.384 . S
C1682 C1683 1.372 . S
C1683 C1682 1.372 . S
C1683 C1684 1.400 . S
C1683 C1688 1.490 . S
C1684 H1674 0.930 . S
C1684 C1683 1.400 . S
C1684 C1687 1.386 . S
H1685 C1701 0.930 . S
H1686 C1702 0.931 . S
C1687 H1675 0.929 . S
C1687 C1681 1.390 . S
C1687 C1684 1.386 . S
C1688 C1683 1.490 . S
C1688 C1690 1.395 . S
C1688 C1691 1.403 . S
H1689 C1695 0.930 . S
C1690 H1676 0.930 . S
C1690 C1688 1.395 . S
C1690 C1693 1.403 . S
C1691 C1688 1.403 . S
C1691 C1692 1.524 . S
C1691 C1695 1.400 . S
C1692 H1677 0.960 . S
C1692 H1678 0.960 . S
C1692 H1679 0.960 . S
C1692 C1691 1.524 . S
C1693 C1690 1.403 . S
C1693 C1694 1.392 . S
C1693 C1697 1.495 . S
C1694 C1693 1.392 . S
C1694 C1695 1.385 . S
C1694 C1696 1.478 . S
C1695 H1689 0.930 . S
C1695 C1691 1.400 . S
C1695 C1694 1.385 . S
C1696 C1694 1.478 . S
C1696 C1698 1.381 . S
C1696 C1702 1.383 . S
C1697 C1693 1.495 . S
C1697 H1703 0.959 . S
C1697 H1704 0.961 . S
C1697 H1705 0.960 . S
C1698 C1696 1.381 . S
C1698 C1699 1.394 . S
C1698 H1706 0.930 . S
C1699 C1698 1.394 . S
C1699 C1700 1.383 . S
C1699 H1707 0.929 . S
C1700 C1699 1.383 . S
C1700 C1701 1.377 . S
C1701 H1685 0.930 . S
C1701 C1700 1.377 . S
C1701 C1702 1.379 . S
C1702 H1686 0.931 . S
C1702 C1696 1.383 . S
C1702 C1701 1.379 . S
H1703 C1697 0.959 . S
H1704 C1697 0.961 . S
H1705 C1697 0.960 . S
H1706 C1698 0.930 . S
H1707 C1699 0.929 . S
H1708 C1716 0.929 . S
H1709 C1718 0.930 . S
H1710 C1720 0.930 . S
H1711 C1723 0.929 . S
H1712 C1726 0.930 . S
H1713 C1728 0.960 . S
H1714 C1728 0.960 . S
H1715 C1728 0.960 . S
C1716 H1708 0.929 . S
C1716 C1717 1.377 . S
C1716 C1718 1.384 . S
C1717 C1716 1.377 . S
C1717 C1723 1.390 . S
C1718 H1709 0.930 . S
C1718 C1716 1.384 . S
C1718 C1719 1.372 . S
C1719 C1718 1.372 . S
C1719 C1720 1.400 . S
C1719 C1724 1.490 . S
C1720 H1710 0.930 . S
C1720 C1719 1.400 . S
C1720 C1723 1.386 . S
H1721 C1737 0.930 . S
H1722 C1738 0.931 . S
C1723 H1711 0.929 . S
C1723 C1717 1.390 . S
C1723 C1720 1.386 . S
C1724 C1719 1.490 . S
C1724 C1726 1.395 . S
C1724 C1727 1.403 . S
H1725 C1731 0.930 . S
C1726 H1712 0.930 . S
C1726 C1724 1.395 . S
C1726 C1729 1.403 . S
C1727 C1724 1.403 . S
C1727 C1728 1.524 . S
C1727 C1731 1.400 . S
C1728 H1713 0.960 . S
C1728 H1714 0.960 . S
C1728 H1715 0.960 . S
C1728 C1727 1.524 . S
C1729 C1726 1.403 . S
C1729 C1730 1.392 . S
C1729 C1733 1.495 . S
C1730 C1729 1.392 . S
C1730 C1731 1.385 . S
C1730 C1732 1.478 . S
C1731 H1725 0.930 . S
C1731 C1727 1.400 . S
C1731 C1730 1.385 . S
C1732 C1730 1.478 . S
C1732 C1734 1.381 . S
C1732 C1738 1.383 . S
C1733 C1729 1.495 . S
C1733 H1739 0.959 . S
C1733 H1740 0.961 . S
C1733 H1741 0.960 . S
C1734 C1732 1.381 . S
C1734 C1735 1.394 . S
C1734 H1742 0.930 . S
C1735 C1734 1.394 . S
C1735 C1736 1.383 . S
C1735 H1743 0.929 . S
C1736 C1735 1.383 . S
C1736 C1737 1.377 . S
C1737 H1721 0.930 . S
C1737 C1736 1.377 . S
C1737 C1738 1.379 . S
C1738 H1722 0.931 . S
C1738 C1732 1.383 . S
C1738 C1737 1.379 . S
H1739 C1733 0.959 . S
H1740 C1733 0.961 . S
H1741 C1733 0.960 . S
H1742 C1734 0.930 . S
H1743 C1735 0.929 . S
H1744 C1752 0.929 . S
H1745 C1754 0.930 . S
H1746 C1756 0.930 . S
H1747 C1759 0.929 . S
H1748 C1762 0.930 . S
H1749 C1764 0.960 . S
H1750 C1764 0.960 . S
H1751 C1764 0.960 . S
C1752 H1744 0.929 . S
C1752 C1753 1.377 . S
C1752 C1754 1.384 . S
C1753 C1752 1.377 . S
C1753 C1759 1.390 . S
C1754 H1745 0.930 . S
C1754 C1752 1.384 . S
C1754 C1755 1.372 . S
C1755 C1754 1.372 . S
C1755 C1756 1.400 . S
C1755 C1760 1.490 . S
C1756 H1746 0.930 . S
C1756 C1755 1.400 . S
C1756 C1759 1.386 . S
H1757 C1773 0.930 . S
H1758 C1774 0.931 . S
C1759 H1747 0.929 . S
C1759 C1753 1.390 . S
C1759 C1756 1.386 . S
C1760 C1755 1.490 . S
C1760 C1762 1.395 . S
C1760 C1763 1.403 . S
H1761 C1767 0.930 . S
C1762 H1748 0.930 . S
C1762 C1760 1.395 . S
C1762 C1765 1.403 . S
C1763 C1760 1.403 . S
C1763 C1764 1.524 . S
C1763 C1767 1.400 . S
C1764 H1749 0.960 . S
C1764 H1750 0.960 . S
C1764 H1751 0.960 . S
C1764 C1763 1.524 . S
C1765 C1762 1.403 . S
C1765 C1766 1.392 . S
C1765 C1769 1.495 . S
C1766 C1765 1.392 . S
C1766 C1767 1.385 . S
C1766 C1768 1.478 . S
C1767 H1761 0.930 . S
C1767 C1763 1.400 . S
C1767 C1766 1.385 . S
C1768 C1766 1.478 . S
C1768 C1770 1.381 . S
C1768 C1774 1.383 . S
C1769 C1765 1.495 . S
C1769 H1775 0.959 . S
C1769 H1776 0.961 . S
C1769 H1777 0.960 . S
C1770 C1768 1.381 . S
C1770 C1771 1.394 . S
C1770 H1778 0.930 . S
C1771 C1770 1.394 . S
C1771 C1772 1.383 . S
C1771 H1779 0.929 . S
C1772 C1771 1.383 . S
C1772 C1773 1.377 . S
C1773 H1757 0.930 . S
C1773 C1772 1.377 . S
C1773 C1774 1.379 . S
C1774 H1758 0.931 . S
C1774 C1768 1.383 . S
C1774 C1773 1.379 . S
H1775 C1769 0.959 . S
H1776 C1769 0.961 . S
H1777 C1769 0.960 . S
H1778 C1770 0.930 . S
H1779 C1771 0.929 . S
H1780 C1788 0.929 . S
H1781 C1790 0.930 . S
H1782 C1792 0.930 . S
H1783 C1795 0.929 . S
H1784 C1798 0.930 . S
H1785 C1800 0.960 . S
H1786 C1800 0.960 . S
H1787 C1800 0.960 . S
C1788 H1780 0.929 . S
C1788 C1789 1.377 . S
C1788 C1790 1.384 . S
C1789 C1788 1.377 . S
C1789 C1795 1.390 . S
C1790 H1781 0.930 . S
C1790 C1788 1.384 . S
C1790 C1791 1.372 . S
C1791 C1790 1.372 . S
C1791 C1792 1.400 . S
C1791 C1796 1.490 . S
C1792 H1782 0.930 . S
C1792 C1791 1.400 . S
C1792 C1795 1.386 . S
H1793 C1809 0.930 . S
H1794 C1810 0.931 . S
C1795 H1783 0.929 . S
C1795 C1789 1.390 . S
C1795 C1792 1.386 . S
C1796 C1791 1.490 . S
C1796 C1798 1.395 . S
C1796 C1799 1.403 . S
H1797 C1803 0.930 . S
C1798 H1784 0.930 . S
C1798 C1796 1.395 . S
C1798 C1801 1.403 . S
C1799 C1796 1.403 . S
C1799 C1800 1.524 . S
C1799 C1803 1.400 . S
C1800 H1785 0.960 . S
C1800 H1786 0.960 . S
C1800 H1787 0.960 . S
C1800 C1799 1.524 . S
C1801 C1798 1.403 . S
C1801 C1802 1.392 . S
C1801 C1805 1.495 . S
C1802 C1801 1.392 . S
C1802 C1803 1.385 . S
C1802 C1804 1.478 . S
C1803 H1797 0.930 . S
C1803 C1799 1.400 . S
C1803 C1802 1.385 . S
C1804 C1802 1.478 . S
C1804 C1806 1.381 . S
C1804 C1810 1.383 . S
C1805 C1801 1.495 . S
C1805 H1811 0.959 . S
C1805 H1812 0.961 . S
C1805 H1813 0.960 . S
C1806 C1804 1.381 . S
C1806 C1807 1.394 . S
C1806 H1814 0.930 . S
C1807 C1806 1.394 . S
C1807 C1808 1.383 . S
C1807 H1815 0.929 . S
C1808 C1807 1.383 . S
C1808 C1809 1.377 . S
C1809 H1793 0.930 . S
C1809 C1808 1.377 . S
C1809 C1810 1.379 . S
C1810 H1794 0.931 . S
C1810 C1804 1.383 . S
C1810 C1809 1.379 . S
H1811 C1805 0.959 . S
H1812 C1805 0.961 . S
H1813 C1805 0.960 . S
H1814 C1806 0.930 . S
H1815 C1807 0.929 . S
H1816 C1824 0.929 . S
H1817 C1826 0.930 . S
H1818 C1828 0.930 . S
H1819 C1831 0.929 . S
H1820 C1834 0.930 . S
H1821 C1836 0.960 . S
H1822 C1836 0.960 . S
H1823 C1836 0.960 . S
C1824 H1816 0.929 . S
C1824 C1825 1.377 . S
C1824 C1826 1.384 . S
C1825 C1824 1.377 . S
C1825 C1831 1.390 . S
C1826 H1817 0.930 . S
C1826 C1824 1.384 . S
C1826 C1827 1.372 . S
C1827 C1826 1.372 . S
C1827 C1828 1.400 . S
C1827 C1832 1.490 . S
C1828 H1818 0.930 . S
C1828 C1827 1.400 . S
C1828 C1831 1.386 . S
H1829 C1845 0.930 . S
H1830 C1846 0.931 . S
C1831 H1819 0.929 . S
C1831 C1825 1.390 . S
C1831 C1828 1.386 . S
C1832 C1827 1.490 . S
C1832 C1834 1.395 . S
C1832 C1835 1.403 . S
H1833 C1839 0.930 . S
C1834 H1820 0.930 . S
C1834 C1832 1.395 . S
C1834 C1837 1.403 . S
C1835 C1832 1.403 . S
C1835 C1836 1.524 . S
C1835 C1839 1.400 . S
C1836 H1821 0.960 . S
C1836 H1822 0.960 . S
C1836 H1823 0.960 . S
C1836 C1835 1.524 . S
C1837 C1834 1.403 . S
C1837 C1838 1.392 . S
C1837 C1841 1.495 . S
C1838 C1837 1.392 . S
C1838 C1839 1.385 . S
C1838 C1840 1.478 . S
C1839 H1833 0.930 . S
C1839 C1835 1.400 . S
C1839 C1838 1.385 . S
C1840 C1838 1.478 . S
C1840 C1842 1.381 . S
C1840 C1846 1.383 . S
C1841 C1837 1.495 . S
C1841 H1847 0.959 . S
C1841 H1848 0.961 . S
C1841 H1849 0.960 . S
C1842 C1840 1.381 . S
C1842 C1843 1.394 . S
C1842 H1850 0.930 . S
C1843 C1842 1.394 . S
C1843 C1844 1.383 . S
C1843 H1851 0.933 1_565 S
C1844 C1843 1.383 . S
C1844 C1845 1.377 . S
C1845 H1829 0.930 . S
C1845 C1844 1.377 . S
C1845 C1846 1.379 . S
C1846 H1830 0.931 . S
C1846 C1840 1.383 . S
C1846 C1845 1.379 . S
H1847 C1841 0.959 . S
H1848 C1841 0.961 . S
H1849 C1841 0.960 . S
H1850 C1842 0.930 . S
H1851 C1843 0.933 1_545 S
H1852 C1860 0.929 . S
H1853 C1862 0.930 . S
H1854 C1864 0.930 . S
H1855 C1867 0.929 . S
H1856 C1870 0.930 . S
H1857 C1872 0.960 . S
H1858 C1872 0.960 . S
H1859 C1872 0.960 . S
C1860 H1852 0.929 . S
C1860 C1861 1.377 . S
C1860 C1862 1.384 . S
C1861 C1860 1.377 . S
C1861 C1867 1.390 . S
C1862 H1853 0.930 . S
C1862 C1860 1.384 . S
C1862 C1863 1.372 . S
C1863 C1862 1.372 . S
C1863 C1864 1.400 . S
C1863 C1868 1.490 . S
C1864 H1854 0.930 . S
C1864 C1863 1.400 . S
C1864 C1867 1.386 . S
H1865 C1881 0.930 . S
H1866 C1882 0.931 . S
C1867 H1855 0.929 . S
C1867 C1861 1.390 . S
C1867 C1864 1.386 . S
C1868 C1863 1.490 . S
C1868 C1870 1.395 . S
C1868 C1871 1.403 . S
H1869 C1875 0.930 . S
C1870 H1856 0.930 . S
C1870 C1868 1.395 . S
C1870 C1873 1.403 . S
C1871 C1868 1.403 . S
C1871 C1872 1.524 . S
C1871 C1875 1.400 . S
C1872 H1857 0.960 . S
C1872 H1858 0.960 . S
C1872 H1859 0.960 . S
C1872 C1871 1.524 . S
C1873 C1870 1.403 . S
C1873 C1874 1.392 . S
C1873 C1877 1.495 . S
C1874 C1873 1.392 . S
C1874 C1875 1.385 . S
C1874 C1876 1.478 . S
C1875 H1869 0.930 . S
C1875 C1871 1.400 . S
C1875 C1874 1.385 . S
C1876 C1874 1.478 . S
C1876 C1878 1.381 . S
C1876 C1882 1.383 . S
C1877 C1873 1.495 . S
C1877 H1883 0.959 . S
C1877 H1884 0.961 . S
C1877 H1885 0.960 . S
C1878 C1876 1.381 . S
C1878 C1879 1.394 . S
C1878 H1886 0.930 . S
C1879 C1878 1.394 . S
C1879 C1880 1.383 . S
C1879 H1887 0.929 . S
C1880 C1879 1.383 . S
C1880 C1881 1.377 . S
C1881 H1865 0.930 . S
C1881 C1880 1.377 . S
C1881 C1882 1.379 . S
C1882 H1866 0.931 . S
C1882 C1876 1.383 . S
C1882 C1881 1.379 . S
H1883 C1877 0.959 . S
H1884 C1877 0.961 . S
H1885 C1877 0.960 . S
H1886 C1878 0.930 . S
H1887 C1879 0.929 . S
H1888 C1896 0.929 . S
H1889 C1898 0.930 . S
H1890 C1900 0.930 . S
H1891 C1903 0.929 . S
H1892 C1906 0.930 . S
H1893 C1908 0.960 . S
H1894 C1908 0.960 . S
H1895 C1908 0.960 . S
C1896 H1888 0.929 . S
C1896 C1897 1.377 . S
C1896 C1898 1.384 . S
C1897 C1896 1.377 . S
C1897 C1903 1.390 . S
C1898 H1889 0.930 . S
C1898 C1896 1.384 . S
C1898 C1899 1.372 . S
C1899 C1898 1.372 . S
C1899 C1900 1.400 . S
C1899 C1904 1.490 . S
C1900 H1890 0.930 . S
C1900 C1899 1.400 . S
C1900 C1903 1.386 . S
H1901 C1917 0.930 . S
H1902 C1918 0.931 . S
C1903 H1891 0.929 . S
C1903 C1897 1.390 . S
C1903 C1900 1.386 . S
C1904 C1899 1.490 . S
C1904 C1906 1.395 . S
C1904 C1907 1.403 . S
H1905 C1911 0.930 . S
C1906 H1892 0.930 . S
C1906 C1904 1.395 . S
C1906 C1909 1.403 . S
C1907 C1904 1.403 . S
C1907 C1908 1.524 . S
C1907 C1911 1.400 . S
C1908 H1893 0.960 . S
C1908 H1894 0.960 . S
C1908 H1895 0.960 . S
C1908 C1907 1.524 . S
C1909 C1906 1.403 . S
C1909 C1910 1.392 . S
C1909 C1913 1.495 . S
C1910 C1909 1.392 . S
C1910 C1911 1.385 . S
C1910 C1912 1.478 . S
C1911 H1905 0.930 . S
C1911 C1907 1.400 . S
C1911 C1910 1.385 . S
C1912 C1910 1.478 . S
C1912 C1914 1.381 . S
C1912 C1918 1.383 . S
C1913 C1909 1.495 . S
C1913 H1919 0.959 . S
C1913 H1920 0.961 . S
C1913 H1921 0.960 . S
C1914 C1912 1.381 . S
C1914 C1915 1.394 . S
C1914 H1922 0.930 . S
C1915 C1914 1.394 . S
C1915 C1916 1.383 . S
C1915 H1923 0.929 . S
C1916 C1915 1.383 . S
C1916 C1917 1.377 . S
C1917 H1901 0.930 . S
C1917 C1916 1.377 . S
C1917 C1918 1.379 . S
C1918 H1902 0.931 . S
C1918 C1912 1.383 . S
C1918 C1917 1.379 . S
H1919 C1913 0.959 . S
H1920 C1913 0.961 . S
H1921 C1913 0.960 . S
H1922 C1914 0.930 . S
H1923 C1915 0.929 . S
H1924 C1932 0.929 . S
H1925 C1934 0.930 . S
H1926 C1936 0.930 . S
H1927 C1939 0.929 . S
H1928 C1942 0.930 . S
H1929 C1944 0.960 . S
H1930 C1944 0.960 . S
H1931 C1944 0.960 . S
C1932 H1924 0.929 . S
C1932 C1933 1.377 . S
C1932 C1934 1.384 . S
C1933 C1932 1.377 . S
C1933 C1939 1.390 . S
C1934 H1925 0.930 . S
C1934 C1932 1.384 . S
C1934 C1935 1.372 . S
C1935 C1934 1.372 . S
C1935 C1936 1.400 . S
C1935 C1940 1.490 . S
C1936 H1926 0.930 . S
C1936 C1935 1.400 . S
C1936 C1939 1.386 . S
H1937 C1953 0.930 . S
H1938 C1954 0.931 . S
C1939 H1927 0.929 . S
C1939 C1933 1.390 . S
C1939 C1936 1.386 . S
C1940 C1935 1.490 . S
C1940 C1942 1.395 . S
C1940 C1943 1.403 . S
H1941 C1947 0.930 . S
C1942 H1928 0.930 . S
C1942 C1940 1.395 . S
C1942 C1945 1.403 . S
C1943 C1940 1.403 . S
C1943 C1944 1.524 . S
C1943 C1947 1.400 . S
C1944 H1929 0.960 . S
C1944 H1930 0.960 . S
C1944 H1931 0.960 . S
C1944 C1943 1.524 . S
C1945 C1942 1.403 . S
C1945 C1946 1.392 . S
C1945 C1949 1.495 . S
C1946 C1945 1.392 . S
C1946 C1947 1.385 . S
C1946 C1948 1.478 . S
C1947 H1941 0.930 . S
C1947 C1943 1.400 . S
C1947 C1946 1.385 . S
C1948 C1946 1.478 . S
C1948 C1950 1.381 . S
C1948 C1954 1.383 . S
C1949 C1945 1.495 . S
C1949 H1955 0.959 . S
C1949 H1956 0.961 . S
C1949 H1957 0.960 . S
C1950 C1948 1.381 . S
C1950 C1951 1.394 . S
C1950 H1958 0.930 . S
C1951 C1950 1.394 . S
C1951 C1952 1.383 . S
C1951 H1959 0.929 . S
C1952 C1951 1.383 . S
C1952 C1953 1.377 . S
C1953 H1937 0.930 . S
C1953 C1952 1.377 . S
C1953 C1954 1.379 . S
C1954 H1938 0.931 . S
C1954 C1948 1.383 . S
C1954 C1953 1.379 . S
H1955 C1949 0.959 . S
H1956 C1949 0.961 . S
H1957 C1949 0.960 . S
H1958 C1950 0.930 . S
H1959 C1951 0.929 . S
H1960 C1968 0.929 . S
H1961 C1970 0.930 . S
H1962 C1972 0.930 . S
H1963 C1975 0.929 . S
H1964 C1978 0.930 . S
H1965 C1980 0.960 . S
H1966 C1980 0.960 . S
H1967 C1980 0.960 . S
C1968 H1960 0.929 . S
C1968 C1969 1.377 . S
C1968 C1970 1.384 . S
C1969 C1968 1.377 . S
C1969 C1975 1.390 . S
C1970 H1961 0.930 . S
C1970 C1968 1.384 . S
C1970 C1971 1.372 . S
C1971 C1970 1.372 . S
C1971 C1972 1.400 . S
C1971 C1976 1.490 . S
C1972 H1962 0.930 . S
C1972 C1971 1.400 . S
C1972 C1975 1.386 . S
H1973 C1989 0.930 . S
H1974 C1990 0.931 . S
C1975 H1963 0.929 . S
C1975 C1969 1.390 . S
C1975 C1972 1.386 . S
C1976 C1971 1.490 . S
C1976 C1978 1.395 . S
C1976 C1979 1.403 . S
H1977 C1983 0.930 . S
C1978 H1964 0.930 . S
C1978 C1976 1.395 . S
C1978 C1981 1.403 . S
C1979 C1976 1.403 . S
C1979 C1980 1.524 . S
C1979 C1983 1.400 . S
C1980 H1965 0.960 . S
C1980 H1966 0.960 . S
C1980 H1967 0.960 . S
C1980 C1979 1.524 . S
C1981 C1978 1.403 . S
C1981 C1982 1.392 . S
C1981 C1985 1.495 1_455 S
C1982 C1981 1.392 . S
C1982 C1983 1.385 . S
C1982 C1984 1.478 . S
C1983 H1977 0.930 . S
C1983 C1979 1.400 . S
C1983 C1982 1.385 . S
C1984 C1982 1.478 . S
C1984 C1986 1.381 . S
C1984 C1990 1.383 . S
C1985 C1981 1.495 1_655 S
C1985 H1991 0.959 . S
C1985 H1992 0.961 . S
C1985 H1993 0.960 . S
C1986 C1984 1.381 . S
C1986 C1987 1.394 . S
C1986 H1994 0.930 . S
C1987 C1986 1.394 . S
C1987 C1988 1.383 . S
C1987 H1995 0.929 . S
C1988 C1987 1.383 . S
C1988 C1989 1.377 . S
C1989 H1973 0.930 . S
C1989 C1988 1.377 . S
C1989 C1990 1.379 . S
C1990 H1974 0.931 . S
C1990 C1984 1.383 . S
C1990 C1989 1.379 . S
H1991 C1985 0.959 . S
H1992 C1985 0.961 . S
H1993 C1985 0.960 . S
H1994 C1986 0.930 . S
H1995 C1987 0.929 . S
H1996 C2004 0.929 . S
H1997 C2006 0.930 . S
H1998 C2008 0.930 . S
H1999 C2011 0.929 . S
H2000 C2014 0.930 . S
H2001 C2016 0.960 . S
H2002 C2016 0.960 . S
H2003 C2016 0.960 . S
C2004 H1996 0.929 . S
C2004 C2005 1.377 . S
C2004 C2006 1.384 . S
C2005 C2004 1.377 . S
C2005 C2011 1.390 . S
C2006 H1997 0.930 . S
C2006 C2004 1.384 . S
C2006 C2007 1.372 . S
C2007 C2006 1.372 . S
C2007 C2008 1.400 . S
C2007 C2012 1.490 . S
C2008 H1998 0.930 . S
C2008 C2007 1.400 . S
C2008 C2011 1.386 . S
H2009 C2025 0.930 . S
H2010 C2026 0.931 . S
C2011 H1999 0.929 . S
C2011 C2005 1.390 . S
C2011 C2008 1.386 . S
C2012 C2007 1.490 . S
C2012 C2014 1.395 . S
C2012 C2015 1.403 . S
H2013 C2019 0.930 . S
C2014 H2000 0.930 . S
C2014 C2012 1.395 . S
C2014 C2017 1.403 . S
C2015 C2012 1.403 . S
C2015 C2016 1.524 . S
C2015 C2019 1.400 . S
C2016 H2001 0.960 . S
C2016 H2002 0.960 . S
C2016 H2003 0.960 . S
C2016 C2015 1.524 . S
C2017 C2014 1.403 . S
C2017 C2018 1.392 . S
C2017 C2021 1.495 . S
C2018 C2017 1.392 . S
C2018 C2019 1.385 . S
C2018 C2020 1.478 . S
C2019 H2013 0.930 . S
C2019 C2015 1.400 . S
C2019 C2018 1.385 . S
C2020 C2018 1.478 . S
C2020 C2022 1.381 . S
C2020 C2026 1.383 . S
C2021 C2017 1.495 . S
C2021 H2027 0.959 . S
C2021 H2028 0.961 . S
C2021 H2029 0.960 . S
C2022 C2020 1.381 . S
C2022 C2023 1.394 . S
C2022 H2030 0.930 . S
C2023 C2022 1.394 . S
C2023 C2024 1.383 . S
C2023 H2031 0.929 . S
C2024 C2023 1.383 . S
C2024 C2025 1.377 . S
C2025 H2009 0.930 . S
C2025 C2024 1.377 . S
C2025 C2026 1.379 . S
C2026 H2010 0.931 . S
C2026 C2020 1.383 . S
C2026 C2025 1.379 . S
H2027 C2021 0.959 . S
H2028 C2021 0.961 . S
H2029 C2021 0.960 . S
H2030 C2022 0.930 . S
H2031 C2023 0.929 . S
H2032 C2040 0.929 . S
H2033 C2042 0.930 . S
H2034 C2044 0.930 . S
H2035 C2047 0.929 . S
H2036 C2050 0.930 . S
H2037 C2052 0.960 . S
H2038 C2052 0.960 . S
H2039 C2052 0.960 . S
C2040 H2032 0.929 . S
C2040 C2041 1.377 . S
C2040 C2042 1.384 . S
C2041 C2040 1.377 . S
C2041 C2047 1.390 . S
C2042 H2033 0.930 . S
C2042 C2040 1.384 . S
C2042 C2043 1.372 . S
C2043 C2042 1.372 . S
C2043 C2044 1.400 . S
C2043 C2048 1.490 . S
C2044 H2034 0.930 . S
C2044 C2043 1.400 . S
C2044 C2047 1.386 . S
H2045 C2061 0.930 . S
H2046 C2062 0.931 . S
C2047 H2035 0.929 . S
C2047 C2041 1.390 . S
C2047 C2044 1.386 . S
C2048 C2043 1.490 . S
C2048 C2050 1.395 . S
C2048 C2051 1.403 . S
H2049 C2055 0.930 . S
C2050 H2036 0.930 . S
C2050 C2048 1.395 . S
C2050 C2053 1.403 . S
C2051 C2048 1.403 . S
C2051 C2052 1.524 . S
C2051 C2055 1.400 . S
C2052 H2037 0.960 . S
C2052 H2038 0.960 . S
C2052 H2039 0.960 . S
C2052 C2051 1.524 . S
C2053 C2050 1.403 . S
C2053 C2054 1.392 . S
C2053 C2057 1.495 . S
C2054 C2053 1.392 . S
C2054 C2055 1.385 . S
C2054 C2056 1.478 . S
C2055 H2049 0.930 . S
C2055 C2051 1.400 . S
C2055 C2054 1.385 . S
C2056 C2054 1.478 . S
C2056 C2058 1.381 . S
C2056 C2062 1.383 . S
C2057 C2053 1.495 . S
C2057 H2063 0.959 . S
C2057 H2064 0.961 . S
C2057 H2065 0.960 . S
C2058 C2056 1.381 . S
C2058 C2059 1.394 . S
C2058 H2066 0.930 . S
C2059 C2058 1.394 . S
C2059 C2060 1.383 . S
C2059 H2067 0.929 . S
C2060 C2059 1.383 . S
C2060 C2061 1.377 . S
C2061 H2045 0.930 . S
C2061 C2060 1.377 . S
C2061 C2062 1.379 . S
C2062 H2046 0.931 . S
C2062 C2056 1.383 . S
C2062 C2061 1.379 . S
H2063 C2057 0.959 . S
H2064 C2057 0.961 . S
H2065 C2057 0.960 . S
H2066 C2058 0.930 . S
H2067 C2059 0.929 . S
H2068 C2076 0.929 . S
H2069 C2078 0.930 . S
H2070 C2080 0.930 . S
H2071 C2083 0.929 . S
H2072 C2086 0.930 . S
H2073 C2088 0.960 . S
H2074 C2088 0.960 . S
H2075 C2088 0.960 . S
C2076 H2068 0.929 . S
C2076 C2077 1.377 . S
C2076 C2078 1.384 . S
C2077 C2076 1.377 . S
C2077 C2083 1.390 . S
C2078 H2069 0.930 . S
C2078 C2076 1.384 . S
C2078 C2079 1.372 . S
C2079 C2078 1.372 . S
C2079 C2080 1.400 . S
C2079 C2084 1.490 . S
C2080 H2070 0.930 . S
C2080 C2079 1.400 . S
C2080 C2083 1.386 . S
H2081 C2097 0.930 . S
H2082 C2098 0.931 . S
C2083 H2071 0.929 . S
C2083 C2077 1.390 . S
C2083 C2080 1.386 . S
C2084 C2079 1.490 . S
C2084 C2086 1.395 . S
C2084 C2087 1.403 . S
H2085 C2091 0.930 . S
C2086 H2072 0.930 . S
C2086 C2084 1.395 . S
C2086 C2089 1.403 . S
C2087 C2084 1.403 . S
C2087 C2088 1.524 . S
C2087 C2091 1.400 . S
C2088 H2073 0.960 . S
C2088 H2074 0.960 . S
C2088 H2075 0.960 . S
C2088 C2087 1.524 . S
C2089 C2086 1.403 . S
C2089 C2090 1.392 . S
C2089 C2093 1.495 . S
C2090 C2089 1.392 . S
C2090 C2091 1.385 . S
C2090 C2092 1.478 . S
C2091 H2085 0.930 . S
C2091 C2087 1.400 . S
C2091 C2090 1.385 . S
C2092 C2090 1.478 . S
C2092 C2094 1.381 . S
C2092 C2098 1.383 . S
C2093 C2089 1.495 . S
C2093 H2099 0.959 . S
C2093 H2100 0.961 . S
C2093 H2101 0.960 . S
C2094 C2092 1.381 . S
C2094 C2095 1.394 . S
C2094 H2102 0.930 . S
C2095 C2094 1.394 . S
C2095 C2096 1.383 . S
C2095 H2103 0.929 . S
C2096 C2095 1.383 . S
C2096 C2097 1.377 . S
C2097 H2081 0.930 . S
C2097 C2096 1.377 . S
C2097 C2098 1.379 . S
C2098 H2082 0.931 . S
C2098 C2092 1.383 . S
C2098 C2097 1.379 . S
H2099 C2093 0.959 . S
H2100 C2093 0.961 . S
H2101 C2093 0.960 . S
H2102 C2094 0.930 . S
H2103 C2095 0.929 . S
H2104 C2112 0.929 . S
H2105 C2114 0.930 . S
H2106 C2116 0.930 . S
H2107 C2119 0.929 . S
H2108 C2122 0.930 . S
H2109 C2124 0.960 . S
H2110 C2124 0.960 . S
H2111 C2124 0.960 . S
C2112 H2104 0.929 . S
C2112 C2113 1.377 . S
C2112 C2114 1.384 . S
C2113 C2112 1.377 . S
C2113 C2119 1.390 . S
C2114 H2105 0.930 . S
C2114 C2112 1.384 . S
C2114 C2115 1.372 . S
C2115 C2114 1.372 . S
C2115 C2116 1.400 . S
C2115 C2120 1.490 . S
C2116 H2106 0.930 . S
C2116 C2115 1.400 . S
C2116 C2119 1.386 . S
H2117 C2133 0.930 . S
H2118 C2134 0.931 . S
C2119 H2107 0.929 . S
C2119 C2113 1.390 . S
C2119 C2116 1.386 . S
C2120 C2115 1.490 . S
C2120 C2122 1.395 . S
C2120 C2123 1.403 . S
H2121 C2127 0.930 . S
C2122 H2108 0.930 . S
C2122 C2120 1.395 . S
C2122 C2125 1.403 . S
C2123 C2120 1.403 . S
C2123 C2124 1.524 . S
C2123 C2127 1.400 . S
C2124 H2109 0.960 . S
C2124 H2110 0.960 . S
C2124 H2111 0.960 . S
C2124 C2123 1.524 . S
C2125 C2122 1.403 . S
C2125 C2126 1.392 . S
C2125 C2129 1.495 . S
C2126 C2125 1.392 . S
C2126 C2127 1.385 . S
C2126 C2128 1.478 . S
C2127 H2121 0.930 . S
C2127 C2123 1.400 . S
C2127 C2126 1.385 . S
C2128 C2126 1.478 . S
C2128 C2130 1.381 . S
C2128 C2134 1.383 . S
C2129 C2125 1.495 . S
C2129 H2135 0.959 . S
C2129 H2136 0.961 . S
C2129 H2137 0.960 . S
C2130 C2128 1.381 . S
C2130 C2131 1.394 . S
C2130 H2138 0.930 . S
C2131 C2130 1.394 . S
C2131 C2132 1.383 . S
C2131 H2139 0.929 . S
C2132 C2131 1.383 . S
C2132 C2133 1.377 . S
C2133 H2117 0.930 . S
C2133 C2132 1.377 . S
C2133 C2134 1.379 . S
C2134 H2118 0.931 . S
C2134 C2128 1.383 . S
C2134 C2133 1.379 . S
H2135 C2129 0.959 . S
H2136 C2129 0.961 . S
H2137 C2129 0.960 . S
H2138 C2130 0.930 . S
H2139 C2131 0.929 . S
H2140 C2148 0.929 . S
H2141 C2150 0.930 . S
H2142 C2152 0.930 . S
H2143 C2155 0.929 . S
H2144 C2158 0.930 . S
H2145 C2160 0.960 . S
H2146 C2160 0.960 . S
H2147 C2160 0.960 . S
C2148 H2140 0.929 . S
C2148 C2149 1.377 . S
C2148 C2150 1.384 . S
C2149 C2148 1.377 . S
C2149 C2155 1.390 . S
C2150 H2141 0.930 . S
C2150 C2148 1.384 . S
C2150 C2151 1.372 . S
C2151 C2150 1.372 . S
C2151 C2152 1.400 . S
C2151 C2156 1.490 . S
C2152 H2142 0.930 . S
C2152 C2151 1.400 . S
C2152 C2155 1.386 . S
H2153 C2169 0.930 . S
H2154 C2170 0.931 . S
C2155 H2143 0.929 . S
C2155 C2149 1.390 . S
C2155 C2152 1.386 . S
C2156 C2151 1.490 . S
C2156 C2158 1.395 . S
C2156 C2159 1.403 . S
H2157 C2163 0.930 . S
C2158 H2144 0.930 . S
C2158 C2156 1.395 . S
C2158 C2161 1.403 . S
C2159 C2156 1.403 . S
C2159 C2160 1.524 . S
C2159 C2163 1.400 . S
C2160 H2145 0.960 . S
C2160 H2146 0.960 . S
C2160 H2147 0.960 . S
C2160 C2159 1.524 . S
C2161 C2158 1.403 . S
C2161 C2162 1.392 . S
C2161 C2165 1.495 . S
C2162 C2161 1.392 . S
C2162 C2163 1.385 . S
C2162 C2164 1.478 . S
C2163 H2157 0.930 . S
C2163 C2159 1.400 . S
C2163 C2162 1.385 . S
C2164 C2162 1.478 . S
C2164 C2166 1.381 . S
C2164 C2170 1.383 . S
C2165 C2161 1.495 . S
C2165 H2171 0.959 . S
C2165 H2172 0.961 . S
C2165 H2173 0.960 . S
C2166 C2164 1.381 . S
C2166 C2167 1.394 . S
C2166 H2174 0.930 . S
C2167 C2166 1.394 . S
C2167 C2168 1.383 . S
C2167 H2175 0.929 . S
C2168 C2167 1.383 . S
C2168 C2169 1.377 . S
C2169 H2153 0.930 . S
C2169 C2168 1.377 . S
C2169 C2170 1.379 . S
C2170 H2154 0.931 . S
C2170 C2164 1.383 . S
C2170 C2169 1.379 . S
H2171 C2165 0.959 . S
H2172 C2165 0.961 . S
H2173 C2165 0.960 . S
H2174 C2166 0.930 . S
H2175 C2167 0.929 . S
H2176 C2184 0.929 . S
H2177 C2186 0.930 . S
H2178 C2188 0.930 . S
H2179 C2191 0.929 . S
H2180 C2194 0.930 . S
H2181 C2196 0.960 . S
H2182 C2196 0.960 . S
H2183 C2196 0.960 . S
C2184 H2176 0.929 . S
C2184 C2185 1.377 . S
C2184 C2186 1.384 . S
C2185 C2184 1.377 . S
C2185 C2191 1.390 . S
C2186 H2177 0.930 . S
C2186 C2184 1.384 . S
C2186 C2187 1.372 . S
C2187 C2186 1.372 . S
C2187 C2188 1.400 . S
C2187 C2192 1.490 . S
C2188 H2178 0.930 . S
C2188 C2187 1.400 . S
C2188 C2191 1.386 . S
H2189 C2205 0.930 . S
H2190 C2206 0.931 . S
C2191 H2179 0.929 . S
C2191 C2185 1.390 . S
C2191 C2188 1.386 . S
C2192 C2187 1.490 . S
C2192 C2194 1.395 . S
C2192 C2195 1.403 . S
H2193 C2199 0.930 . S
C2194 H2180 0.930 . S
C2194 C2192 1.395 . S
C2194 C2197 1.403 . S
C2195 C2192 1.403 . S
C2195 C2196 1.524 . S
C2195 C2199 1.400 . S
C2196 H2181 0.960 . S
C2196 H2182 0.960 . S
C2196 H2183 0.960 . S
C2196 C2195 1.524 . S
C2197 C2194 1.403 . S
C2197 C2198 1.392 . S
C2197 C2201 1.495 . S
C2198 C2197 1.392 . S
C2198 C2199 1.385 . S
C2198 C2200 1.478 . S
C2199 H2193 0.930 . S
C2199 C2195 1.400 . S
C2199 C2198 1.385 . S
C2200 C2198 1.478 . S
C2200 C2202 1.381 . S
C2200 C2206 1.383 . S
C2201 C2197 1.495 . S
C2201 H2207 0.959 1_545 S
C2201 H2208 0.961 1_545 S
C2201 H2209 0.960 . S
C2202 C2200 1.381 . S
C2202 C2203 1.394 . S
C2202 H2210 0.930 . S
C2203 C2202 1.394 . S
C2203 C2204 1.383 . S
C2203 H2211 0.929 . S
C2204 C2203 1.383 . S
C2204 C2205 1.377 . S
C2205 H2189 0.930 . S
C2205 C2204 1.377 . S
C2205 C2206 1.379 . S
C2206 H2190 0.931 . S
C2206 C2200 1.383 . S
C2206 C2205 1.379 . S
H2207 C2201 0.959 1_565 S
H2208 C2201 0.961 1_565 S
H2209 C2201 0.960 . S
H2210 C2202 0.930 . S
H2211 C2203 0.929 . S
H2212 C2220 0.929 . S
H2213 C2222 0.930 . S
H2214 C2224 0.930 . S
H2215 C2227 0.929 . S
H2216 C2230 0.930 . S
H2217 C2232 0.960 . S
H2218 C2232 0.960 . S
H2219 C2232 0.960 . S
C2220 H2212 0.929 . S
C2220 C2221 1.377 . S
C2220 C2222 1.384 . S
C2221 C2220 1.377 . S
C2221 C2227 1.390 . S
C2222 H2213 0.930 . S
C2222 C2220 1.384 . S
C2222 C2223 1.372 . S
C2223 C2222 1.372 . S
C2223 C2224 1.400 . S
C2223 C2228 1.490 . S
C2224 H2214 0.930 . S
C2224 C2223 1.400 . S
C2224 C2227 1.386 . S
H2225 C2241 0.930 . S
H2226 C2242 0.931 . S
C2227 H2215 0.929 . S
C2227 C2221 1.390 . S
C2227 C2224 1.386 . S
C2228 C2223 1.490 . S
C2228 C2230 1.395 . S
C2228 C2231 1.403 . S
H2229 C2235 0.930 . S
C2230 H2216 0.930 . S
C2230 C2228 1.395 . S
C2230 C2233 1.403 . S
C2231 C2228 1.403 . S
C2231 C2232 1.524 . S
C2231 C2235 1.400 . S
C2232 H2217 0.960 . S
C2232 H2218 0.960 . S
C2232 H2219 0.960 . S
C2232 C2231 1.524 . S
C2233 C2230 1.403 . S
C2233 C2234 1.392 . S
C2233 C2237 1.495 . S
C2234 C2233 1.392 . S
C2234 C2235 1.385 . S
C2234 C2236 1.478 . S
C2235 H2229 0.930 . S
C2235 C2231 1.400 . S
C2235 C2234 1.385 . S
C2236 C2234 1.478 . S
C2236 C2238 1.381 . S
C2236 C2242 1.383 . S
C2237 C2233 1.495 . S
C2237 H2243 0.959 . S
C2237 H2244 0.961 . S
C2237 H2245 0.960 . S
C2238 C2236 1.381 . S
C2238 C2239 1.394 . S
C2238 H2246 0.930 . S
C2239 C2238 1.394 . S
C2239 C2240 1.383 . S
C2239 H2247 0.929 . S
C2240 C2239 1.383 . S
C2240 C2241 1.377 . S
C2241 H2225 0.930 . S
C2241 C2240 1.377 . S
C2241 C2242 1.379 . S
C2242 H2226 0.931 . S
C2242 C2236 1.383 . S
C2242 C2241 1.379 . S
H2243 C2237 0.959 . S
H2244 C2237 0.961 . S
H2245 C2237 0.960 . S
H2246 C2238 0.930 . S
H2247 C2239 0.929 . S
H2248 C2256 0.929 . S
H2249 C2258 0.930 . S
H2250 C2260 0.930 . S
H2251 C2263 0.929 . S
H2252 C2266 0.930 . S
H2253 C2268 0.960 . S
H2254 C2268 0.960 . S
H2255 C2268 0.960 . S
C2256 H2248 0.929 . S
C2256 C2257 1.377 . S
C2256 C2258 1.384 . S
C2257 C2256 1.377 . S
C2257 C2263 1.390 . S
C2258 H2249 0.930 . S
C2258 C2256 1.384 . S
C2258 C2259 1.372 . S
C2259 C2258 1.372 . S
C2259 C2260 1.400 . S
C2259 C2264 1.490 . S
C2260 H2250 0.930 . S
C2260 C2259 1.400 . S
C2260 C2263 1.386 . S
H2261 C2277 0.930 . S
H2262 C2278 0.931 . S
C2263 H2251 0.929 . S
C2263 C2257 1.390 . S
C2263 C2260 1.386 . S
C2264 C2259 1.490 . S
C2264 C2266 1.395 . S
C2264 C2267 1.403 . S
H2265 C2271 0.930 . S
C2266 H2252 0.930 . S
C2266 C2264 1.395 . S
C2266 C2269 1.403 . S
C2267 C2264 1.403 . S
C2267 C2268 1.524 . S
C2267 C2271 1.400 . S
C2268 H2253 0.960 . S
C2268 H2254 0.960 . S
C2268 H2255 0.960 . S
C2268 C2267 1.524 . S
C2269 C2266 1.403 . S
C2269 C2270 1.392 . S
C2269 C2273 1.495 1_545 S
C2270 C2269 1.392 . S
C2270 C2271 1.385 . S
C2270 C2272 1.478 . S
C2271 H2265 0.930 . S
C2271 C2267 1.400 . S
C2271 C2270 1.385 . S
C2272 C2270 1.478 . S
C2272 C2274 1.381 . S
C2272 C2278 1.383 . S
C2273 C2269 1.495 1_565 S
C2273 H2279 0.959 . S
C2273 H2280 0.961 . S
C2273 H2281 0.960 . S
C2274 C2272 1.381 . S
C2274 C2275 1.394 . S
C2274 H2282 0.926 1_545 S
C2275 C2274 1.394 . S
C2275 C2276 1.383 . S
C2275 H2283 0.929 1_545 S
C2276 C2275 1.383 . S
C2276 C2277 1.377 . S
C2277 H2261 0.930 . S
C2277 C2276 1.377 . S
C2277 C2278 1.379 . S
C2278 H2262 0.931 . S
C2278 C2272 1.383 . S
C2278 C2277 1.379 . S
H2279 C2273 0.959 . S
H2280 C2273 0.961 . S
H2281 C2273 0.960 . S
H2282 C2274 0.926 1_565 S
H2283 C2275 0.929 1_565 S
H2284 C2292 0.929 . S
H2285 C2294 0.930 . S
H2286 C2296 0.930 . S
H2287 C2299 0.929 . S
H2288 C2302 0.930 . S
H2289 C2304 0.960 . S
H2290 C2304 0.960 . S
H2291 C2304 0.960 . S
C2292 H2284 0.929 . S
C2292 C2293 1.377 . S
C2292 C2294 1.384 . S
C2293 C2292 1.377 . S
C2293 C2299 1.390 . S
C2294 H2285 0.930 . S
C2294 C2292 1.384 . S
C2294 C2295 1.372 . S
C2295 C2294 1.372 . S
C2295 C2296 1.400 . S
C2295 C2300 1.490 . S
C2296 H2286 0.930 . S
C2296 C2295 1.400 . S
C2296 C2299 1.386 . S
H2297 C2313 0.930 . S
H2298 C2314 0.931 . S
C2299 H2287 0.929 . S
C2299 C2293 1.390 . S
C2299 C2296 1.386 . S
C2300 C2295 1.490 . S
C2300 C2302 1.395 . S
C2300 C2303 1.403 . S
H2301 C2307 0.930 . S
C2302 H2288 0.930 . S
C2302 C2300 1.395 . S
C2302 C2305 1.403 . S
C2303 C2300 1.403 . S
C2303 C2304 1.524 . S
C2303 C2307 1.400 . S
C2304 H2289 0.960 . S
C2304 H2290 0.960 . S
C2304 H2291 0.960 . S
C2304 C2303 1.524 . S
C2305 C2302 1.403 . S
C2305 C2306 1.392 . S
C2305 C2309 1.495 . S
C2306 C2305 1.392 . S
C2306 C2307 1.385 . S
C2306 C2308 1.478 . S
C2307 H2301 0.930 . S
C2307 C2303 1.400 . S
C2307 C2306 1.385 . S
C2308 C2306 1.478 . S
C2308 C2310 1.381 . S
C2308 C2314 1.383 . S
C2309 C2305 1.495 . S
C2309 H2315 0.959 . S
C2309 H2316 0.961 . S
C2309 H2317 0.960 . S
C2310 C2308 1.381 . S
C2310 C2311 1.394 . S
C2310 H2318 0.930 . S
C2311 C2310 1.394 . S
C2311 C2312 1.383 . S
C2311 H2319 0.929 . S
C2312 C2311 1.383 . S
C2312 C2313 1.377 . S
C2313 H2297 0.930 . S
C2313 C2312 1.377 . S
C2313 C2314 1.379 . S
C2314 H2298 0.931 . S
C2314 C2308 1.383 . S
C2314 C2313 1.379 . S
H2315 C2309 0.959 . S
H2316 C2309 0.961 . S
H2317 C2309 0.960 . S
H2318 C2310 0.930 . S
H2319 C2311 0.929 . S
H2320 C2328 0.929 . S
H2321 C2330 0.930 . S
H2322 C2332 0.930 . S
H2323 C2335 0.929 . S
H2324 C2338 0.930 . S
H2325 C2340 0.960 . S
H2326 C2340 0.960 . S
H2327 C2340 0.960 . S
C2328 H2320 0.929 . S
C2328 C2329 1.377 . S
C2328 C2330 1.384 . S
C2329 C2328 1.377 . S
C2329 C2335 1.390 . S
C2330 H2321 0.930 . S
C2330 C2328 1.384 . S
C2330 C2331 1.372 . S
C2331 C2330 1.372 . S
C2331 C2332 1.400 . S
C2331 C2336 1.490 . S
C2332 H2322 0.930 . S
C2332 C2331 1.400 . S
C2332 C2335 1.386 . S
H2333 C2349 0.930 . S
H2334 C2350 0.931 1_565 S
C2335 H2323 0.929 . S
C2335 C2329 1.390 . S
C2335 C2332 1.386 . S
C2336 C2331 1.490 . S
C2336 C2338 1.395 . S
C2336 C2339 1.403 . S
H2337 C2343 0.930 . S
C2338 H2324 0.930 . S
C2338 C2336 1.395 . S
C2338 C2341 1.403 . S
C2339 C2336 1.403 . S
C2339 C2340 1.524 . S
C2339 C2343 1.400 . S
C2340 H2325 0.960 . S
C2340 H2326 0.960 . S
C2340 H2327 0.960 . S
C2340 C2339 1.524 . S
C2341 C2338 1.403 . S
C2341 C2342 1.392 . S
C2341 C2345 1.495 . S
C2342 C2341 1.392 . S
C2342 C2343 1.385 . S
C2342 C2344 1.478 . S
C2343 H2337 0.930 . S
C2343 C2339 1.400 . S
C2343 C2342 1.385 . S
C2344 C2342 1.478 . S
C2344 C2346 1.381 . S
C2344 C2350 1.383 . S
C2345 C2341 1.495 . S
C2345 H2351 0.959 . S
C2345 H2352 0.961 . S
C2345 H2353 0.960 . S
C2346 C2344 1.381 . S
C2346 C2347 1.394 . S
C2346 H2354 0.930 . S
C2347 C2346 1.394 . S
C2347 C2348 1.383 . S
C2347 H2355 0.929 . S
C2348 C2347 1.383 . S
C2348 C2349 1.377 1_545 S
C2349 H2333 0.930 . S
C2349 C2348 1.377 1_565 S
C2349 C2350 1.379 1_565 S
C2350 H2334 0.931 1_545 S
C2350 C2344 1.383 . S
C2350 C2349 1.379 1_545 S
H2351 C2345 0.959 . S
H2352 C2345 0.961 . S
H2353 C2345 0.960 . S
H2354 C2346 0.930 . S
H2355 C2347 0.929 . S
H2356 C2364 0.929 . S
H2357 C2366 0.930 . S
H2358 C2368 0.930 . S
H2359 C2371 0.929 . S
H2360 C2374 0.930 . S
H2361 C2376 0.960 . S
H2362 C2376 0.960 . S
H2363 C2376 0.960 . S
C2364 H2356 0.929 . S
C2364 C2365 1.377 . S
C2364 C2366 1.384 . S
C2365 C2364 1.377 . S
C2365 C2371 1.390 . S
C2366 H2357 0.930 . S
C2366 C2364 1.384 . S
C2366 C2367 1.372 . S
C2367 C2366 1.372 . S
C2367 C2368 1.400 . S
C2367 C2372 1.490 . S
C2368 H2358 0.930 . S
C2368 C2367 1.400 . S
C2368 C2371 1.386 . S
H2369 C2385 0.930 . S
H2370 C2386 0.931 . S
C2371 H2359 0.929 . S
C2371 C2365 1.390 . S
C2371 C2368 1.386 . S
C2372 C2367 1.490 . S
C2372 C2374 1.395 . S
C2372 C2375 1.403 . S
H2373 C2379 0.930 . S
C2374 H2360 0.930 . S
C2374 C2372 1.395 . S
C2374 C2377 1.403 . S
C2375 C2372 1.403 . S
C2375 C2376 1.524 . S
C2375 C2379 1.400 . S
C2376 H2361 0.960 . S
C2376 H2362 0.960 . S
C2376 H2363 0.960 . S
C2376 C2375 1.524 . S
C2377 C2374 1.403 . S
C2377 C2378 1.392 . S
C2377 C2381 1.495 . S
C2378 C2377 1.392 . S
C2378 C2379 1.385 . S
C2378 C2380 1.478 . S
C2379 H2373 0.930 . S
C2379 C2375 1.400 . S
C2379 C2378 1.385 . S
C2380 C2378 1.478 . S
C2380 C2382 1.381 . S
C2380 C2386 1.383 . S
C2381 C2377 1.495 . S
C2381 H2387 0.959 . S
C2381 H2388 0.961 . S
C2381 H2389 0.960 . S
C2382 C2380 1.381 . S
C2382 C2383 1.394 . S
C2382 H2390 0.930 . S
C2383 C2382 1.394 . S
C2383 C2384 1.383 . S
C2383 H2391 0.929 . S
C2384 C2383 1.383 . S
C2384 C2385 1.377 . S
C2385 H2369 0.930 . S
C2385 C2384 1.377 . S
C2385 C2386 1.379 . S
C2386 H2370 0.931 . S
C2386 C2380 1.383 . S
C2386 C2385 1.379 . S
H2387 C2381 0.959 . S
H2388 C2381 0.961 . S
H2389 C2381 0.960 . S
H2390 C2382 0.930 . S
H2391 C2383 0.929 . S
H2392 C2400 0.929 . S
H2393 C2402 0.930 . S
H2394 C2404 0.930 . S
H2395 C2407 0.929 . S
H2396 C2410 0.930 . S
H2397 C2412 0.960 . S
H2398 C2412 0.960 . S
H2399 C2412 0.960 . S
C2400 H2392 0.929 . S
C2400 C2401 1.377 1_556 S
C2400 C2402 1.384 . S
C2401 C2400 1.377 1_554 S
C2401 C2407 1.390 . S
C2402 H2393 0.930 . S
C2402 C2400 1.384 . S
C2402 C2403 1.372 1_556 S
C2403 C2402 1.372 1_554 S
C2403 C2404 1.400 . S
C2403 C2408 1.490 . S
C2404 H2394 0.930 . S
C2404 C2403 1.400 . S
C2404 C2407 1.386 . S
H2405 C2421 0.930 . S
H2406 C2422 0.931 . S
C2407 H2395 0.929 . S
C2407 C2401 1.390 . S
C2407 C2404 1.386 . S
C2408 C2403 1.490 . S
C2408 C2410 1.395 . S
C2408 C2411 1.403 1_554 S
H2409 C2415 0.930 . S
C2410 H2396 0.930 . S
C2410 C2408 1.395 . S
C2410 C2413 1.403 . S
C2411 C2408 1.403 1_556 S
C2411 C2412 1.524 . S
C2411 C2415 1.400 . S
C2412 H2397 0.960 . S
C2412 H2398 0.960 . S
C2412 H2399 0.960 . S
C2412 C2411 1.524 . S
C2413 C2410 1.403 . S
C2413 C2414 1.392 . S
C2413 C2417 1.495 . S
C2414 C2413 1.392 . S
C2414 C2415 1.385 1_554 S
C2414 C2416 1.478 . S
C2415 H2409 0.930 . S
C2415 C2411 1.400 . S
C2415 C2414 1.385 1_556 S
C2416 C2414 1.478 . S
C2416 C2418 1.381 1_554 S
C2416 C2422 1.383 . S
C2417 C2413 1.495 . S
C2417 H2423 0.959 . S
C2417 H2424 0.961 . S
C2417 H2425 0.960 . S
C2418 C2416 1.381 1_556 S
C2418 C2419 1.394 . S
C2418 H2426 0.930 . S
C2419 C2418 1.394 . S
C2419 C2420 1.369 1_556 S
C2419 H2427 0.929 . S
C2420 C2419 1.369 1_554 S
C2420 C2421 1.395 . S
C2421 H2405 0.930 . S
C2421 C2420 1.395 . S
C2421 C2422 1.379 . S
C2422 H2406 0.931 . S
C2422 C2416 1.383 . S
C2422 C2421 1.379 . S
H2423 C2417 0.959 . S
H2424 C2417 0.961 . S
H2425 C2417 0.960 . S
H2426 C2418 0.930 . S
H2427 C2419 0.929 . S
H2428 C2436 0.929 1_556 S
H2429 C2438 0.930 1_556 S
H2430 C2440 0.930 . S
H2431 C2443 0.929 . S
H2432 C2446 0.930 1_556 S
H2433 C2448 0.960 . S
H2434 C2448 0.960 . S
H2435 C2448 0.960 . S
C2436 H2428 0.929 1_554 S
C2436 C2437 1.377 . S
C2436 C2438 1.384 . S
C2437 C2436 1.377 . S
C2437 C2443 1.390 . S
C2438 H2429 0.930 1_554 S
C2438 C2436 1.384 . S
C2438 C2439 1.372 . S
C2439 C2438 1.372 . S
C2439 C2440 1.400 . S
C2439 C2444 1.490 . S
C2440 H2430 0.930 . S
C2440 C2439 1.400 . S
C2440 C2443 1.386 . S
H2441 C2457 0.930 . S
H2442 C2458 0.931 . S
C2443 H2431 0.929 . S
C2443 C2437 1.390 . S
C2443 C2440 1.386 . S
C2444 C2439 1.490 . S
C2444 C2446 1.395 . S
C2444 C2447 1.403 . S
H2445 C2451 0.930 . S
C2446 H2432 0.930 1_554 S
C2446 C2444 1.395 . S
C2446 C2449 1.403 . S
C2447 C2444 1.403 . S
C2447 C2448 1.524 . S
C2447 C2451 1.400 . S
C2448 H2433 0.960 . S
C2448 H2434 0.960 . S
C2448 H2435 0.960 . S
C2448 C2447 1.524 . S
C2449 C2446 1.403 . S
C2449 C2450 1.392 . S
C2449 C2453 1.495 1_554 S
C2450 C2449 1.392 . S
C2450 C2451 1.385 . S
C2450 C2452 1.478 . S
C2451 H2445 0.930 . S
C2451 C2447 1.400 . S
C2451 C2450 1.385 . S
C2452 C2450 1.478 . S
C2452 C2454 1.428 . S
C2452 C2458 1.383 . S
C2453 C2449 1.495 1_556 S
C2453 H2459 0.959 . S
C2453 H2460 0.961 . S
C2453 H2461 0.960 . S
C2454 C2452 1.428 . S
C2454 C2455 1.389 . S
C2454 H2462 0.891 1_554 S
C2455 C2454 1.389 . S
C2455 C2456 1.383 . S
C2455 H2463 0.929 1_554 S
C2456 C2455 1.383 . S
C2456 C2457 1.377 . S
C2457 H2441 0.930 . S
C2457 C2456 1.377 . S
C2457 C2458 1.379 . S
C2458 H2442 0.931 . S
C2458 C2452 1.383 . S
C2458 C2457 1.379 . S
H2459 C2453 0.959 . S
H2460 C2453 0.961 . S
H2461 C2453 0.960 . S
H2462 C2454 0.891 1_556 S
H2463 C2455 0.929 1_556 S
H2464 C2472 0.929 . S
H2465 C2474 0.930 . S
H2466 C2476 0.930 . S
H2467 C2479 0.929 . S
H2468 C2482 0.930 . S
H2469 C2484 0.960 . S
H2470 C2484 0.960 . S
H2471 C2484 0.960 . S
C2472 H2464 0.929 . S
C2472 C2473 1.377 . S
C2472 C2474 1.384 . S
C2473 C2472 1.377 . S
C2473 C2479 1.390 . S
C2474 H2465 0.930 . S
C2474 C2472 1.384 . S
C2474 C2475 1.372 . S
C2475 C2474 1.372 . S
C2475 C2476 1.400 . S
C2475 C2480 1.490 . S
C2476 H2466 0.930 . S
C2476 C2475 1.400 . S
C2476 C2479 1.386 . S
H2477 C2493 0.930 . S
H2478 C2494 0.931 . S
C2479 H2467 0.929 . S
C2479 C2473 1.390 . S
C2479 C2476 1.386 . S
C2480 C2475 1.490 . S
C2480 C2482 1.395 . S
C2480 C2483 1.403 . S
H2481 C2487 0.930 . S
C2482 H2468 0.930 . S
C2482 C2480 1.395 . S
C2482 C2485 1.403 . S
C2483 C2480 1.403 . S
C2483 C2484 1.524 . S
C2483 C2487 1.400 . S
C2484 H2469 0.960 . S
C2484 H2470 0.960 . S
C2484 H2471 0.960 . S
C2484 C2483 1.524 . S
C2485 C2482 1.403 . S
C2485 C2486 1.392 . S
C2485 C2489 1.495 . S
C2486 C2485 1.392 . S
C2486 C2487 1.385 . S
C2486 C2488 1.478 . S
C2487 H2481 0.930 . S
C2487 C2483 1.400 . S
C2487 C2486 1.385 . S
C2488 C2486 1.478 . S
C2488 C2490 1.381 . S
C2488 C2494 1.383 . S
C2489 C2485 1.495 . S
C2489 H2495 0.959 . S
C2489 H2496 0.961 . S
C2489 H2497 0.960 . S
C2490 C2488 1.381 . S
C2490 C2491 1.394 . S
C2490 H2498 0.930 . S
C2491 C2490 1.394 . S
C2491 C2492 1.383 . S
C2491 H2499 0.929 . S
C2492 C2491 1.383 . S
C2492 C2493 1.377 . S
C2493 H2477 0.930 . S
C2493 C2492 1.377 . S
C2493 C2494 1.379 . S
C2494 H2478 0.931 . S
C2494 C2488 1.383 . S
C2494 C2493 1.379 . S
H2495 C2489 0.959 . S
H2496 C2489 0.961 . S
H2497 C2489 0.960 . S
H2498 C2490 0.930 . S
H2499 C2491 0.929 . S
H2500 C2508 0.929 . S
H2501 C2510 0.930 . S
H2502 C2512 0.930 . S
H2503 C2515 0.929 . S
H2504 C2518 0.930 . S
H2505 C2520 0.960 . S
H2506 C2520 0.960 . S
H2507 C2520 0.960 . S
C2508 H2500 0.929 . S
C2508 C2509 1.377 . S
C2508 C2510 1.384 . S
C2509 C2508 1.377 . S
C2509 C2515 1.390 . S
C2510 H2501 0.930 . S
C2510 C2508 1.384 . S
C2510 C2511 1.372 . S
C2511 C2510 1.372 . S
C2511 C2512 1.400 . S
C2511 C2516 1.490 . S
C2512 H2502 0.930 . S
C2512 C2511 1.400 . S
C2512 C2515 1.386 . S
H2513 C2529 0.930 . S
H2514 C2530 0.931 . S
C2515 H2503 0.929 . S
C2515 C2509 1.390 . S
C2515 C2512 1.386 . S
C2516 C2511 1.490 . S
C2516 C2518 1.395 . S
C2516 C2519 1.403 . S
H2517 C2523 0.930 . S
C2518 H2504 0.930 . S
C2518 C2516 1.395 . S
C2518 C2521 1.403 . S
C2519 C2516 1.403 . S
C2519 C2520 1.524 . S
C2519 C2523 1.400 . S
C2520 H2505 0.960 . S
C2520 H2506 0.960 . S
C2520 H2507 0.960 . S
C2520 C2519 1.524 . S
C2521 C2518 1.403 . S
C2521 C2522 1.392 . S
C2521 C2525 1.495 . S
C2522 C2521 1.392 . S
C2522 C2523 1.385 . S
C2522 C2524 1.478 . S
C2523 H2517 0.930 . S
C2523 C2519 1.400 . S
C2523 C2522 1.385 . S
C2524 C2522 1.478 . S
C2524 C2526 1.381 . S
C2524 C2530 1.383 . S
C2525 C2521 1.495 . S
C2525 H2531 0.959 . S
C2525 H2532 0.961 . S
C2525 H2533 0.960 . S
C2526 C2524 1.381 . S
C2526 C2527 1.394 . S
C2526 H2534 0.930 . S
C2527 C2526 1.394 . S
C2527 C2528 1.383 . S
C2527 H2535 0.929 . S
C2528 C2527 1.383 . S
C2528 C2529 1.377 . S
C2529 H2513 0.930 . S
C2529 C2528 1.377 . S
C2529 C2530 1.379 . S
C2530 H2514 0.931 . S
C2530 C2524 1.383 . S
C2530 C2529 1.379 . S
H2531 C2525 0.959 . S
H2532 C2525 0.961 . S
H2533 C2525 0.960 . S
H2534 C2526 0.930 . S
H2535 C2527 0.929 . S
H2536 C2544 0.929 . S
H2537 C2546 0.930 . S
H2538 C2548 0.930 . S
H2539 C2551 0.929 . S
H2540 C2554 0.930 . S
H2541 C2556 0.960 . S
H2542 C2556 0.960 . S
H2543 C2556 0.960 . S
C2544 H2536 0.929 . S
C2544 C2545 1.377 . S
C2544 C2546 1.384 . S
C2545 C2544 1.377 . S
C2545 C2551 1.390 . S
C2546 H2537 0.930 . S
C2546 C2544 1.384 . S
C2546 C2547 1.372 . S
C2547 C2546 1.372 . S
C2547 C2548 1.400 . S
C2547 C2552 1.490 . S
C2548 H2538 0.930 . S
C2548 C2547 1.400 . S
C2548 C2551 1.386 . S
H2549 C2565 0.930 . S
H2550 C2566 0.931 . S
C2551 H2539 0.929 . S
C2551 C2545 1.390 . S
C2551 C2548 1.386 . S
C2552 C2547 1.490 . S
C2552 C2554 1.395 . S
C2552 C2555 1.403 . S
H2553 C2559 0.930 . S
C2554 H2540 0.930 . S
C2554 C2552 1.395 . S
C2554 C2557 1.403 . S
C2555 C2552 1.403 . S
C2555 C2556 1.524 . S
C2555 C2559 1.400 . S
C2556 H2541 0.960 . S
C2556 H2542 0.960 . S
C2556 H2543 0.960 . S
C2556 C2555 1.524 . S
C2557 C2554 1.403 . S
C2557 C2558 1.392 . S
C2557 C2561 1.495 . S
C2558 C2557 1.392 . S
C2558 C2559 1.385 . S
C2558 C2560 1.478 . S
C2559 H2553 0.930 . S
C2559 C2555 1.400 . S
C2559 C2558 1.385 . S
C2560 C2558 1.478 . S
C2560 C2562 1.381 . S
C2560 C2566 1.383 . S
C2561 C2557 1.495 . S
C2561 H2567 0.959 . S
C2561 H2568 0.961 . S
C2561 H2569 0.960 . S
C2562 C2560 1.381 . S
C2562 C2563 1.394 . S
C2562 H2570 0.930 . S
C2563 C2562 1.394 . S
C2563 C2564 1.383 . S
C2563 H2571 0.929 . S
C2564 C2563 1.383 . S
C2564 C2565 1.377 . S
C2565 H2549 0.930 . S
C2565 C2564 1.377 . S
C2565 C2566 1.379 . S
C2566 H2550 0.931 . S
C2566 C2560 1.383 . S
C2566 C2565 1.379 . S
H2567 C2561 0.959 . S
H2568 C2561 0.961 . S
H2569 C2561 0.960 . S
H2570 C2562 0.930 . S
H2571 C2563 0.929 . S
H2572 C2580 0.929 . S
H2573 C2582 0.930 . S
H2574 C2584 0.930 . S
H2575 C2587 0.929 . S
H2576 C2590 0.930 . S
H2577 C2592 0.960 . S
H2578 C2592 0.960 . S
H2579 C2592 0.960 . S
C2580 H2572 0.929 . S
C2580 C2581 1.377 . S
C2580 C2582 1.384 . S
C2581 C2580 1.377 . S
C2581 C2587 1.390 . S
C2582 H2573 0.930 . S
C2582 C2580 1.384 . S
C2582 C2583 1.372 . S
C2583 C2582 1.372 . S
C2583 C2584 1.400 . S
C2583 C2588 1.490 . S
C2584 H2574 0.930 . S
C2584 C2583 1.400 . S
C2584 C2587 1.386 . S
H2585 C2601 0.930 . S
H2586 C2602 0.931 . S
C2587 H2575 0.929 . S
C2587 C2581 1.390 . S
C2587 C2584 1.386 . S
C2588 C2583 1.490 . S
C2588 C2590 1.395 . S
C2588 C2591 1.403 . S
H2589 C2595 0.930 . S
C2590 H2576 0.930 . S
C2590 C2588 1.395 . S
C2590 C2593 1.403 . S
C2591 C2588 1.403 . S
C2591 C2592 1.524 . S
C2591 C2595 1.400 . S
C2592 H2577 0.960 . S
C2592 H2578 0.960 . S
C2592 H2579 0.960 . S
C2592 C2591 1.524 . S
C2593 C2590 1.403 . S
C2593 C2594 1.392 . S
C2593 C2597 1.495 . S
C2594 C2593 1.392 . S
C2594 C2595 1.385 . S
C2594 C2596 1.478 . S
C2595 H2589 0.930 . S
C2595 C2591 1.400 . S
C2595 C2594 1.385 . S
C2596 C2594 1.478 . S
C2596 C2598 1.381 . S
C2596 C2602 1.383 . S
C2597 C2593 1.495 . S
C2597 H2603 0.959 . S
C2597 H2604 0.961 . S
C2597 H2605 0.960 . S
C2598 C2596 1.381 . S
C2598 C2599 1.394 . S
C2598 H2606 0.930 . S
C2599 C2598 1.394 . S
C2599 C2600 1.383 . S
C2599 H2607 0.929 . S
C2600 C2599 1.383 . S
C2600 C2601 1.377 . S
C2601 H2585 0.930 . S
C2601 C2600 1.377 . S
C2601 C2602 1.379 . S
C2602 H2586 0.931 . S
C2602 C2596 1.383 . S
C2602 C2601 1.379 . S
H2603 C2597 0.959 . S
H2604 C2597 0.961 . S
H2605 C2597 0.960 . S
H2606 C2598 0.930 . S
H2607 C2599 0.929 . S
H2608 C2616 0.929 . S
H2609 C2618 0.930 . S
H2610 C2620 0.930 . S
H2611 C2623 0.929 . S
H2612 C2626 0.930 . S
H2613 C2628 0.960 . S
H2614 C2628 0.960 . S
H2615 C2628 0.960 . S
C2616 H2608 0.929 . S
C2616 C2617 1.377 . S
C2616 C2618 1.384 . S
C2617 C2616 1.377 . S
C2617 C2623 1.390 . S
C2618 H2609 0.930 . S
C2618 C2616 1.384 . S
C2618 C2619 1.372 . S
C2619 C2618 1.372 . S
C2619 C2620 1.400 . S
C2619 C2624 1.490 . S
C2620 H2610 0.930 . S
C2620 C2619 1.400 . S
C2620 C2623 1.386 . S
H2621 C2637 0.930 . S
H2622 C2638 0.931 . S
C2623 H2611 0.929 . S
C2623 C2617 1.390 . S
C2623 C2620 1.386 . S
C2624 C2619 1.490 . S
C2624 C2626 1.395 . S
C2624 C2627 1.403 . S
H2625 C2631 0.930 . S
C2626 H2612 0.930 . S
C2626 C2624 1.395 . S
C2626 C2629 1.403 . S
C2627 C2624 1.403 . S
C2627 C2628 1.524 . S
C2627 C2631 1.400 . S
C2628 H2613 0.960 . S
C2628 H2614 0.960 . S
C2628 H2615 0.960 . S
C2628 C2627 1.524 . S
C2629 C2626 1.403 . S
C2629 C2630 1.392 . S
C2629 C2633 1.495 . S
C2630 C2629 1.392 . S
C2630 C2631 1.385 . S
C2630 C2632 1.478 . S
C2631 H2625 0.930 . S
C2631 C2627 1.400 . S
C2631 C2630 1.385 . S
C2632 C2630 1.478 . S
C2632 C2634 1.381 . S
C2632 C2638 1.383 . S
C2633 C2629 1.495 . S
C2633 H2639 0.959 . S
C2633 H2640 0.961 . S
C2633 H2641 0.960 . S
C2634 C2632 1.381 . S
C2634 C2635 1.394 . S
C2634 H2642 0.930 . S
C2635 C2634 1.394 . S
C2635 C2636 1.383 . S
C2635 H2643 0.929 . S
C2636 C2635 1.383 . S
C2636 C2637 1.377 . S
C2637 H2621 0.930 . S
C2637 C2636 1.377 . S
C2637 C2638 1.379 . S
C2638 H2622 0.931 . S
C2638 C2632 1.383 . S
C2638 C2637 1.379 . S
H2639 C2633 0.959 . S
H2640 C2633 0.961 . S
H2641 C2633 0.960 . S
H2642 C2634 0.930 . S
H2643 C2635 0.929 . S
H2644 C2652 0.929 . S
H2645 C2654 0.930 . S
H2646 C2656 0.930 . S
H2647 C2659 0.929 . S
H2648 C2662 0.930 . S
H2649 C2664 0.960 . S
H2650 C2664 0.960 . S
H2651 C2664 0.960 . S
C2652 H2644 0.929 . S
C2652 C2653 1.377 . S
C2652 C2654 1.384 . S
C2653 C2652 1.377 . S
C2653 C2659 1.390 . S
C2654 H2645 0.930 . S
C2654 C2652 1.384 . S
C2654 C2655 1.372 . S
C2655 C2654 1.372 . S
C2655 C2656 1.400 . S
C2655 C2660 1.490 . S
C2656 H2646 0.930 . S
C2656 C2655 1.400 . S
C2656 C2659 1.386 . S
H2657 C2673 0.930 . S
H2658 C2674 0.931 . S
C2659 H2647 0.929 . S
C2659 C2653 1.390 . S
C2659 C2656 1.386 . S
C2660 C2655 1.490 . S
C2660 C2662 1.395 . S
C2660 C2663 1.403 . S
H2661 C2667 0.930 . S
C2662 H2648 0.930 . S
C2662 C2660 1.395 . S
C2662 C2665 1.403 . S
C2663 C2660 1.403 . S
C2663 C2664 1.524 . S
C2663 C2667 1.400 . S
C2664 H2649 0.960 . S
C2664 H2650 0.960 . S
C2664 H2651 0.960 . S
C2664 C2663 1.524 . S
C2665 C2662 1.403 . S
C2665 C2666 1.392 . S
C2665 C2669 1.495 . S
C2666 C2665 1.392 . S
C2666 C2667 1.385 . S
C2666 C2668 1.478 . S
C2667 H2661 0.930 . S
C2667 C2663 1.400 . S
C2667 C2666 1.385 . S
C2668 C2666 1.478 . S
C2668 C2670 1.381 . S
C2668 C2674 1.383 . S
C2669 C2665 1.495 . S
C2669 H2675 0.959 . S
C2669 H2676 0.961 . S
C2669 H2677 0.960 . S
C2670 C2668 1.381 . S
C2670 C2671 1.394 . S
C2670 H2678 0.930 . S
C2671 C2670 1.394 . S
C2671 C2672 1.383 . S
C2671 H2679 0.929 . S
C2672 C2671 1.383 . S
C2672 C2673 1.377 . S
C2673 H2657 0.930 . S
C2673 C2672 1.377 . S
C2673 C2674 1.379 . S
C2674 H2658 0.931 . S
C2674 C2668 1.383 . S
C2674 C2673 1.379 . S
H2675 C2669 0.959 . S
H2676 C2669 0.961 . S
H2677 C2669 0.960 . S
H2678 C2670 0.930 . S
H2679 C2671 0.929 . S
H2680 C2688 0.929 . S
H2681 C2690 0.930 . S
H2682 C2692 0.930 . S
H2683 C2695 0.929 . S
H2684 C2698 0.930 . S
H2685 C2700 0.960 . S
H2686 C2700 0.960 . S
H2687 C2700 0.960 . S
C2688 H2680 0.929 . S
C2688 C2689 1.377 . S
C2688 C2690 1.384 . S
C2689 C2688 1.377 . S
C2689 C2695 1.390 . S
C2690 H2681 0.930 . S
C2690 C2688 1.384 . S
C2690 C2691 1.372 . S
C2691 C2690 1.372 . S
C2691 C2692 1.400 . S
C2691 C2696 1.490 . S
C2692 H2682 0.930 . S
C2692 C2691 1.400 . S
C2692 C2695 1.386 . S
H2693 C2709 0.930 . S
H2694 C2710 0.931 . S
C2695 H2683 0.929 . S
C2695 C2689 1.390 . S
C2695 C2692 1.386 . S
C2696 C2691 1.490 . S
C2696 C2698 1.395 . S
C2696 C2699 1.403 . S
H2697 C2703 0.930 . S
C2698 H2684 0.930 . S
C2698 C2696 1.395 . S
C2698 C2701 1.403 . S
C2699 C2696 1.403 . S
C2699 C2700 1.524 . S
C2699 C2703 1.400 . S
C2700 H2685 0.960 . S
C2700 H2686 0.960 . S
C2700 H2687 0.960 . S
C2700 C2699 1.524 . S
C2701 C2698 1.403 . S
C2701 C2702 1.392 . S
C2701 C2705 1.495 . S
C2702 C2701 1.392 . S
C2702 C2703 1.385 . S
C2702 C2704 1.478 . S
C2703 H2697 0.930 . S
C2703 C2699 1.400 . S
C2703 C2702 1.385 . S
C2704 C2702 1.478 . S
C2704 C2706 1.381 . S
C2704 C2710 1.383 . S
C2705 C2701 1.495 . S
C2705 H2711 0.959 . S
C2705 H2712 0.961 . S
C2705 H2713 0.960 . S
C2706 C2704 1.381 . S
C2706 C2707 1.394 . S
C2706 H2714 0.930 . S
C2707 C2706 1.394 . S
C2707 C2708 1.383 . S
C2707 H2715 0.929 . S
C2708 C2707 1.383 . S
C2708 C2709 1.377 . S
C2709 H2693 0.930 . S
C2709 C2708 1.377 . S
C2709 C2710 1.379 . S
C2710 H2694 0.931 . S
C2710 C2704 1.383 . S
C2710 C2709 1.379 . S
H2711 C2705 0.959 . S
H2712 C2705 0.961 . S
H2713 C2705 0.960 . S
H2714 C2706 0.930 . S
H2715 C2707 0.929 . S
H2716 C2724 0.929 . S
H2717 C2726 0.930 . S
H2718 C2728 0.930 . S
H2719 C2731 0.929 . S
H2720 C2734 0.930 . S
H2721 C2736 0.960 . S
H2722 C2736 0.960 . S
H2723 C2736 0.960 . S
C2724 H2716 0.929 . S
C2724 C2725 1.377 . S
C2724 C2726 1.384 . S
C2725 C2724 1.377 . S
C2725 C2731 1.390 . S
C2726 H2717 0.930 . S
C2726 C2724 1.384 . S
C2726 C2727 1.372 . S
C2727 C2726 1.372 . S
C2727 C2728 1.400 . S
C2727 C2732 1.490 . S
C2728 H2718 0.930 . S
C2728 C2727 1.400 . S
C2728 C2731 1.386 . S
H2729 C2745 0.930 . S
H2730 C2746 0.931 . S
C2731 H2719 0.929 . S
C2731 C2725 1.390 . S
C2731 C2728 1.386 . S
C2732 C2727 1.490 . S
C2732 C2734 1.395 . S
C2732 C2735 1.403 . S
H2733 C2739 0.930 . S
C2734 H2720 0.930 . S
C2734 C2732 1.395 . S
C2734 C2737 1.403 . S
C2735 C2732 1.403 . S
C2735 C2736 1.524 . S
C2735 C2739 1.400 . S
C2736 H2721 0.960 . S
C2736 H2722 0.960 . S
C2736 H2723 0.960 . S
C2736 C2735 1.524 . S
C2737 C2734 1.403 . S
C2737 C2738 1.392 . S
C2737 C2741 1.495 . S
C2738 C2737 1.392 . S
C2738 C2739 1.385 . S
C2738 C2740 1.478 . S
C2739 H2733 0.930 . S
C2739 C2735 1.400 . S
C2739 C2738 1.385 . S
C2740 C2738 1.478 . S
C2740 C2742 1.381 . S
C2740 C2746 1.383 . S
C2741 C2737 1.495 . S
C2741 H2747 0.959 . S
C2741 H2748 0.961 . S
C2741 H2749 0.960 . S
C2742 C2740 1.381 . S
C2742 C2743 1.394 . S
C2742 H2750 0.930 . S
C2743 C2742 1.394 . S
C2743 C2744 1.383 . S
C2743 H2751 0.929 . S
C2744 C2743 1.383 . S
C2744 C2745 1.377 . S
C2745 H2729 0.930 . S
C2745 C2744 1.377 . S
C2745 C2746 1.379 . S
C2746 H2730 0.931 . S
C2746 C2740 1.383 . S
C2746 C2745 1.379 . S
H2747 C2741 0.959 . S
H2748 C2741 0.961 . S
H2749 C2741 0.960 . S
H2750 C2742 0.930 . S
H2751 C2743 0.929 . S
H2752 C2760 0.929 . S
H2753 C2762 0.930 . S
H2754 C2764 0.930 . S
H2755 C2767 0.929 . S
H2756 C2770 0.930 . S
H2757 C2772 0.960 . S
H2758 C2772 0.960 . S
H2759 C2772 0.960 . S
C2760 H2752 0.929 . S
C2760 C2761 1.403 . S
C2760 C2762 1.384 . S
C2761 C2760 1.403 . S
C2761 C2767 1.358 1_455 S
C2762 H2753 0.930 . S
C2762 C2760 1.384 . S
C2762 C2763 1.372 . S
C2763 C2762 1.372 . S
C2763 C2764 1.400 1_455 S
C2763 C2768 1.490 . S
C2764 H2754 0.930 . S
C2764 C2763 1.400 1_655 S
C2764 C2767 1.386 . S
H2765 C2781 0.913 1_655 S
H2766 C2782 0.931 1_655 S
C2767 H2755 0.929 . S
C2767 C2761 1.358 1_655 S
C2767 C2764 1.386 . S
C2768 C2763 1.490 . S
C2768 C2770 1.395 . S
C2768 C2771 1.403 1_455 S
H2769 C2775 0.930 . S
C2770 H2756 0.930 . S
C2770 C2768 1.395 . S
C2770 C2773 1.403 . S
C2771 C2768 1.403 1_655 S
C2771 C2772 1.524 . S
C2771 C2775 1.400 . S
C2772 H2757 0.960 . S
C2772 H2758 0.960 . S
C2772 H2759 0.960 . S
C2772 C2771 1.524 . S
C2773 C2770 1.403 . S
C2773 C2774 1.392 . S
C2773 C2777 1.495 . S
C2774 C2773 1.392 . S
C2774 C2775 1.385 1_455 S
C2774 C2776 1.478 . S
C2775 H2769 0.930 . S
C2775 C2771 1.400 . S
C2775 C2774 1.385 1_655 S
C2776 C2774 1.478 . S
C2776 C2778 1.381 . S
C2776 C2782 1.382 . S
C2777 C2773 1.495 . S
C2777 H2783 0.959 . S
C2777 H2784 0.961 . S
C2777 H2785 0.960 . S
C2778 C2776 1.381 . S
C2778 C2779 1.394 . S
C2778 H2786 0.930 . S
C2779 C2778 1.394 . S
C2779 C2780 1.383 . S
C2779 H2787 0.929 1_556 S
C2780 C2779 1.383 . S
C2780 C2781 1.389 . S
C2781 H2765 0.913 1_455 S
C2781 C2780 1.389 . S
C2781 C2782 1.384 . S
C2782 H2766 0.931 1_455 S
C2782 C2776 1.382 . S
C2782 C2781 1.384 . S
H2783 C2777 0.959 . S
H2784 C2777 0.961 . S
H2785 C2777 0.960 . S
H2786 C2778 0.930 . S
H2787 C2779 0.929 1_554 S
H2788 C2796 0.929 . S
H2789 C2798 0.930 . S
H2790 C2800 0.888 1_655 S
H2791 C2803 0.929 . S
H2792 C2806 0.930 . S
H2793 C2808 0.960 . S
H2794 C2808 0.960 . S
H2795 C2808 0.960 . S
C2796 H2788 0.929 . S
C2796 C2797 1.377 . S
C2796 C2798 1.384 . S
C2797 C2796 1.377 . S
C2797 C2803 1.390 . S
C2798 H2789 0.930 . S
C2798 C2796 1.384 . S
C2798 C2799 1.372 1_455 S
C2799 C2798 1.372 1_655 S
C2799 C2800 1.399 1_655 S
C2799 C2804 1.490 . S
C2800 H2790 0.888 1_455 S
C2800 C2799 1.399 1_455 S
C2800 C2803 1.429 . S
H2801 C2817 0.930 . S
H2802 C2818 0.931 . S
C2803 H2791 0.929 . S
C2803 C2797 1.390 . S
C2803 C2800 1.429 . S
C2804 C2799 1.490 . S
C2804 C2806 1.395 . S
C2804 C2807 1.403 . S
H2805 C2811 0.930 . S
C2806 H2792 0.930 . S
C2806 C2804 1.395 . S
C2806 C2809 1.403 . S
C2807 C2804 1.403 . S
C2807 C2808 1.524 . S
C2807 C2811 1.400 . S
C2808 H2793 0.960 . S
C2808 H2794 0.960 . S
C2808 H2795 0.960 . S
C2808 C2807 1.524 . S
C2809 C2806 1.403 . S
C2809 C2810 1.392 . S
C2809 C2813 1.495 . S
C2810 C2809 1.392 . S
C2810 C2811 1.385 . S
C2810 C2812 1.478 . S
C2811 H2805 0.930 . S
C2811 C2807 1.400 . S
C2811 C2810 1.385 . S
C2812 C2810 1.478 . S
C2812 C2814 1.381 . S
C2812 C2818 1.383 . S
C2813 C2809 1.495 . S
C2813 H2819 0.959 . S
C2813 H2820 0.961 . S
C2813 H2821 0.960 . S
C2814 C2812 1.381 . S
C2814 C2815 1.394 . S
C2814 H2822 0.930 . S
C2815 C2814 1.394 . S
C2815 C2816 1.383 . S
C2815 H2823 0.929 . S
C2816 C2815 1.383 . S
C2816 C2817 1.377 . S
C2817 H2801 0.930 . S
C2817 C2816 1.377 . S
C2817 C2818 1.379 . S
C2818 H2802 0.931 . S
C2818 C2812 1.383 . S
C2818 C2817 1.379 . S
H2819 C2813 0.959 . S
H2820 C2813 0.961 . S
H2821 C2813 0.960 . S
H2822 C2814 0.930 . S
H2823 C2815 0.929 . S
H2824 C2832 0.929 . S
H2825 C2834 0.930 . S
H2826 C2836 0.930 . S
H2827 C2839 0.929 . S
H2828 C2842 0.930 . S
H2829 C2844 0.960 . S
H2830 C2844 0.960 . S
H2831 C2844 0.960 . S
C2832 H2824 0.929 . S
C2832 C2833 1.377 . S
C2832 C2834 1.384 . S
C2833 C2832 1.377 . S
C2833 C2839 1.390 . S
C2834 H2825 0.930 . S
C2834 C2832 1.384 . S
C2834 C2835 1.372 . S
C2835 C2834 1.372 . S
C2835 C2836 1.400 . S
C2835 C2840 1.490 . S
C2836 H2826 0.930 . S
C2836 C2835 1.400 . S
C2836 C2839 1.386 . S
H2837 C2853 0.930 . S
H2838 C2854 0.931 . S
C2839 H2827 0.929 . S
C2839 C2833 1.390 . S
C2839 C2836 1.386 . S
C2840 C2835 1.490 . S
C2840 C2842 1.395 . S
C2840 C2843 1.403 . S
H2841 C2847 0.930 . S
C2842 H2828 0.930 . S
C2842 C2840 1.395 . S
C2842 C2845 1.403 . S
C2843 C2840 1.403 . S
C2843 C2844 1.524 . S
C2843 C2847 1.400 . S
C2844 H2829 0.960 . S
C2844 H2830 0.960 . S
C2844 H2831 0.960 . S
C2844 C2843 1.524 . S
C2845 C2842 1.403 . S
C2845 C2846 1.392 . S
C2845 C2849 1.495 . S
C2846 C2845 1.392 . S
C2846 C2847 1.385 . S
C2846 C2848 1.478 . S
C2847 H2841 0.930 . S
C2847 C2843 1.400 . S
C2847 C2846 1.385 . S
C2848 C2846 1.478 . S
C2848 C2850 1.381 . S
C2848 C2854 1.383 . S
C2849 C2845 1.495 . S
C2849 H2855 0.959 . S
C2849 H2856 0.961 . S
C2849 H2857 0.960 . S
C2850 C2848 1.381 . S
C2850 C2851 1.394 . S
C2850 H2858 0.930 . S
C2851 C2850 1.394 . S
C2851 C2852 1.383 . S
C2851 H2859 0.929 . S
C2852 C2851 1.383 . S
C2852 C2853 1.377 . S
C2853 H2837 0.930 . S
C2853 C2852 1.377 . S
C2853 C2854 1.379 . S
C2854 H2838 0.931 . S
C2854 C2848 1.383 . S
C2854 C2853 1.379 . S
H2855 C2849 0.959 . S
H2856 C2849 0.961 . S
H2857 C2849 0.960 . S
H2858 C2850 0.930 . S
H2859 C2851 0.929 . S
H2860 C2868 0.929 . S
H2861 C2870 0.930 . S
H2862 C2872 0.930 . S
H2863 C2875 0.929 . S
H2864 C2878 0.930 . S
H2865 C2880 0.960 . S
H2866 C2880 0.960 . S
H2867 C2880 0.960 . S
C2868 H2860 0.929 . S
C2868 C2869 1.377 . S
C2868 C2870 1.384 . S
C2869 C2868 1.377 . S
C2869 C2875 1.390 . S
C2870 H2861 0.930 . S
C2870 C2868 1.384 . S
C2870 C2871 1.372 . S
C2871 C2870 1.372 . S
C2871 C2872 1.400 . S
C2871 C2876 1.490 . S
C2872 H2862 0.930 . S
C2872 C2871 1.400 . S
C2872 C2875 1.386 . S
H2873 C2889 0.930 . S
H2874 C2890 0.931 . S
C2875 H2863 0.929 . S
C2875 C2869 1.390 . S
C2875 C2872 1.386 . S
C2876 C2871 1.490 . S
C2876 C2878 1.395 . S
C2876 C2879 1.403 . S
H2877 C2883 0.930 . S
C2878 H2864 0.930 . S
C2878 C2876 1.395 . S
C2878 C2881 1.403 . S
C2879 C2876 1.403 . S
C2879 C2880 1.524 . S
C2879 C2883 1.400 . S
C2880 H2865 0.960 . S
C2880 H2866 0.960 . S
C2880 H2867 0.960 . S
C2880 C2879 1.524 . S
C2881 C2878 1.403 . S
C2881 C2882 1.392 . S
C2881 C2885 1.495 . S
C2882 C2881 1.392 . S
C2882 C2883 1.385 . S
C2882 C2884 1.478 . S
C2883 H2877 0.930 . S
C2883 C2879 1.400 . S
C2883 C2882 1.385 . S
C2884 C2882 1.478 . S
C2884 C2886 1.381 . S
C2884 C2890 1.383 . S
C2885 C2881 1.495 . S
C2885 H2891 0.959 . S
C2885 H2892 0.961 . S
C2885 H2893 0.960 . S
C2886 C2884 1.381 . S
C2886 C2887 1.394 . S
C2886 H2894 0.930 . S
C2887 C2886 1.394 . S
C2887 C2888 1.383 . S
C2887 H2895 0.929 . S
C2888 C2887 1.383 . S
C2888 C2889 1.377 . S
C2889 H2873 0.930 . S
C2889 C2888 1.377 . S
C2889 C2890 1.379 . S
C2890 H2874 0.931 . S
C2890 C2884 1.383 . S
C2890 C2889 1.379 . S
H2891 C2885 0.959 . S
H2892 C2885 0.961 . S
H2893 C2885 0.960 . S
H2894 C2886 0.930 . S
H2895 C2887 0.929 . S
H2896 C2904 0.929 1_655 S
H2897 C2906 0.930 1_655 S
H2898 C2908 0.930 . S
H2899 C2911 0.929 . S
H2900 C2914 0.930 . S
H2901 C2916 0.960 . S
H2902 C2916 0.960 . S
H2903 C2916 0.960 . S
C2904 H2896 0.929 1_455 S
C2904 C2905 1.377 . S
C2904 C2906 1.384 . S
C2905 C2904 1.377 . S
C2905 C2911 1.390 . S
C2906 H2897 0.930 1_455 S
C2906 C2904 1.384 . S
C2906 C2907 1.372 . S
C2907 C2906 1.372 . S
C2907 C2908 1.400 . S
C2907 C2912 1.490 . S
C2908 H2898 0.930 . S
C2908 C2907 1.400 . S
C2908 C2911 1.386 . S
H2909 C2925 0.930 . S
H2910 C2926 0.931 . S
C2911 H2899 0.929 . S
C2911 C2905 1.390 . S
C2911 C2908 1.386 . S
C2912 C2907 1.490 . S
C2912 C2914 1.395 . S
C2912 C2915 1.403 . S
H2913 C2919 0.930 . S
C2914 H2900 0.930 . S
C2914 C2912 1.395 . S
C2914 C2917 1.403 . S
C2915 C2912 1.403 . S
C2915 C2916 1.524 . S
C2915 C2919 1.400 . S
C2916 H2901 0.960 . S
C2916 H2902 0.960 . S
C2916 H2903 0.960 . S
C2916 C2915 1.524 . S
C2917 C2914 1.403 . S
C2917 C2918 1.392 . S
C2917 C2921 1.495 . S
C2918 C2917 1.392 . S
C2918 C2919 1.385 . S
C2918 C2920 1.478 . S
C2919 H2913 0.930 . S
C2919 C2915 1.400 . S
C2919 C2918 1.385 . S
C2920 C2918 1.478 . S
C2920 C2922 1.381 . S
C2920 C2926 1.383 . S
C2921 C2917 1.495 . S
C2921 H2927 0.959 1_455 S
C2921 H2928 0.961 . S
C2921 H2929 0.960 1_455 S
C2922 C2920 1.381 . S
C2922 C2923 1.394 . S
C2922 H2930 0.930 1_455 S
C2923 C2922 1.394 . S
C2923 C2924 1.383 . S
C2923 H2931 0.929 1_455 S
C2924 C2923 1.383 . S
C2924 C2925 1.377 . S
C2925 H2909 0.930 . S
C2925 C2924 1.377 . S
C2925 C2926 1.379 . S
C2926 H2910 0.931 . S
C2926 C2920 1.383 . S
C2926 C2925 1.379 . S
H2927 C2921 0.959 1_655 S
H2928 C2921 0.961 . S
H2929 C2921 0.960 1_655 S
H2930 C2922 0.930 1_655 S
H2931 C2923 0.929 1_655 S
H2932 C2940 0.929 . S
H2933 C2942 0.930 . S
H2934 C2944 0.930 . S
H2935 C2947 0.929 . S
H2936 C2950 0.930 . S
H2937 C2952 0.960 . S
H2938 C2952 0.960 . S
H2939 C2952 0.960 . S
C2940 H2932 0.929 . S
C2940 C2941 1.377 . S
C2940 C2942 1.384 . S
C2941 C2940 1.377 . S
C2941 C2947 1.390 . S
C2942 H2933 0.930 . S
C2942 C2940 1.384 . S
C2942 C2943 1.372 . S
C2943 C2942 1.372 . S
C2943 C2944 1.400 . S
C2943 C2948 1.490 . S
C2944 H2934 0.930 . S
C2944 C2943 1.400 . S
C2944 C2947 1.386 . S
H2945 C2961 0.930 . S
H2946 C2962 0.931 . S
C2947 H2935 0.929 . S
C2947 C2941 1.390 . S
C2947 C2944 1.386 . S
C2948 C2943 1.490 . S
C2948 C2950 1.395 . S
C2948 C2951 1.403 . S
H2949 C2955 0.930 . S
C2950 H2936 0.930 . S
C2950 C2948 1.395 . S
C2950 C2953 1.403 . S
C2951 C2948 1.403 . S
C2951 C2952 1.524 . S
C2951 C2955 1.400 . S
C2952 H2937 0.960 . S
C2952 H2938 0.960 . S
C2952 H2939 0.960 . S
C2952 C2951 1.524 . S
C2953 C2950 1.403 . S
C2953 C2954 1.392 . S
C2953 C2957 1.495 . S
C2954 C2953 1.392 . S
C2954 C2955 1.385 . S
C2954 C2956 1.478 . S
C2955 H2949 0.930 . S
C2955 C2951 1.400 . S
C2955 C2954 1.385 . S
C2956 C2954 1.478 . S
C2956 C2958 1.381 . S
C2956 C2962 1.383 . S
C2957 C2953 1.495 . S
C2957 H2963 0.959 . S
C2957 H2964 0.961 . S
C2957 H2965 0.960 . S
C2958 C2956 1.381 . S
C2958 C2959 1.394 . S
C2958 H2966 0.930 . S
C2959 C2958 1.394 . S
C2959 C2960 1.383 . S
C2959 H2967 0.929 . S
C2960 C2959 1.383 . S
C2960 C2961 1.377 . S
C2961 H2945 0.930 . S
C2961 C2960 1.377 . S
C2961 C2962 1.379 . S
C2962 H2946 0.931 . S
C2962 C2956 1.383 . S
C2962 C2961 1.379 . S
H2963 C2957 0.959 . S
H2964 C2957 0.961 . S
H2965 C2957 0.960 . S
H2966 C2958 0.930 . S
H2967 C2959 0.929 . S
H2968 C2976 0.929 . S
H2969 C2978 0.930 . S
H2970 C2980 0.930 . S
H2971 C2983 0.929 . S
H2972 C2986 0.930 . S
H2973 C2988 0.960 . S
H2974 C2988 0.960 . S
H2975 C2988 0.960 . S
C2976 H2968 0.929 . S
C2976 C2977 1.377 . S
C2976 C2978 1.384 . S
C2977 C2976 1.377 . S
C2977 C2983 1.390 . S
C2978 H2969 0.930 . S
C2978 C2976 1.384 . S
C2978 C2979 1.372 . S
C2979 C2978 1.372 . S
C2979 C2980 1.400 . S
C2979 C2984 1.490 . S
C2980 H2970 0.930 . S
C2980 C2979 1.400 . S
C2980 C2983 1.386 . S
H2981 C2997 0.930 . S
H2982 C2998 0.931 . S
C2983 H2971 0.929 . S
C2983 C2977 1.390 . S
C2983 C2980 1.386 . S
C2984 C2979 1.490 . S
C2984 C2986 1.395 . S
C2984 C2987 1.403 . S
H2985 C2991 0.930 . S
C2986 H2972 0.930 . S
C2986 C2984 1.395 . S
C2986 C2989 1.403 . S
C2987 C2984 1.403 . S
C2987 C2988 1.524 . S
C2987 C2991 1.400 . S
C2988 H2973 0.960 . S
C2988 H2974 0.960 . S
C2988 H2975 0.960 . S
C2988 C2987 1.524 . S
C2989 C2986 1.403 . S
C2989 C2990 1.392 . S
C2989 C2993 1.495 . S
C2990 C2989 1.392 . S
C2990 C2991 1.385 . S
C2990 C2992 1.478 . S
C2991 H2985 0.930 . S
C2991 C2987 1.400 . S
C2991 C2990 1.385 . S
C2992 C2990 1.478 . S
C2992 C2994 1.381 . S
C2992 C2998 1.383 . S
C2993 C2989 1.495 . S
C2993 H2999 0.959 . S
C2993 H3000 0.961 . S
C2993 H3001 0.960 . S
C2994 C2992 1.381 . S
C2994 C2995 1.394 . S
C2994 H3002 0.930 . S
C2995 C2994 1.394 . S
C2995 C2996 1.383 . S
C2995 H3003 0.929 . S
C2996 C2995 1.383 . S
C2996 C2997 1.377 . S
C2997 H2981 0.930 . S
C2997 C2996 1.377 . S
C2997 C2998 1.379 . S
C2998 H2982 0.931 . S
C2998 C2992 1.383 . S
C2998 C2997 1.379 . S
H2999 C2993 0.959 . S
H3000 C2993 0.961 . S
H3001 C2993 0.960 . S
H3002 C2994 0.930 . S
H3003 C2995 0.929 . S
H3004 C3012 0.929 . S
H3005 C3014 0.930 . S
H3006 C3016 0.930 . S
H3007 C3019 0.929 . S
H3008 C3022 0.930 . S
H3009 C3024 0.960 . S
H3010 C3024 0.960 . S
H3011 C3024 0.960 . S
C3012 H3004 0.929 . S
C3012 C3013 1.377 . S
C3012 C3014 1.384 . S
C3013 C3012 1.377 . S
C3013 C3019 1.390 . S
C3014 H3005 0.930 . S
C3014 C3012 1.384 . S
C3014 C3015 1.372 . S
C3015 C3014 1.372 . S
C3015 C3016 1.400 . S
C3015 C3020 1.490 . S
C3016 H3006 0.930 . S
C3016 C3015 1.400 . S
C3016 C3019 1.386 . S
H3017 C3033 0.930 . S
H3018 C3034 0.931 . S
C3019 H3007 0.929 . S
C3019 C3013 1.390 . S
C3019 C3016 1.386 . S
C3020 C3015 1.490 . S
C3020 C3022 1.395 . S
C3020 C3023 1.403 . S
H3021 C3027 0.930 . S
C3022 H3008 0.930 . S
C3022 C3020 1.395 . S
C3022 C3025 1.403 . S
C3023 C3020 1.403 . S
C3023 C3024 1.524 . S
C3023 C3027 1.400 . S
C3024 H3009 0.960 . S
C3024 H3010 0.960 . S
C3024 H3011 0.960 . S
C3024 C3023 1.524 . S
C3025 C3022 1.403 . S
C3025 C3026 1.392 . S
C3025 C3029 1.495 . S
C3026 C3025 1.392 . S
C3026 C3027 1.385 . S
C3026 C3028 1.478 . S
C3027 H3021 0.930 . S
C3027 C3023 1.400 . S
C3027 C3026 1.385 . S
C3028 C3026 1.478 . S
C3028 C3030 1.381 . S
C3028 C3034 1.383 . S
C3029 C3025 1.495 . S
C3029 H3035 0.959 . S
C3029 H3036 0.961 . S
C3029 H3037 0.960 . S
C3030 C3028 1.381 . S
C3030 C3031 1.394 . S
C3030 H3038 0.930 . S
C3031 C3030 1.394 . S
C3031 C3032 1.383 . S
C3031 H3039 0.929 . S
C3032 C3031 1.383 . S
C3032 C3033 1.377 . S
C3033 H3017 0.930 . S
C3033 C3032 1.377 . S
C3033 C3034 1.379 . S
C3034 H3018 0.931 . S
C3034 C3028 1.383 . S
C3034 C3033 1.379 . S
H3035 C3029 0.959 . S
H3036 C3029 0.961 . S
H3037 C3029 0.960 . S
H3038 C3030 0.930 . S
H3039 C3031 0.929 . S
H3040 C3048 0.929 . S
H3041 C3050 0.930 . S
H3042 C3052 0.930 . S
H3043 C3055 0.929 . S
H3044 C3058 0.930 . S
H3045 C3060 0.960 . S
H3046 C3060 0.960 . S
H3047 C3060 0.960 . S
C3048 H3040 0.929 . S
C3048 C3049 1.377 . S
C3048 C3050 1.384 . S
C3049 C3048 1.377 . S
C3049 C3055 1.390 . S
C3050 H3041 0.930 . S
C3050 C3048 1.384 . S
C3050 C3051 1.372 . S
C3051 C3050 1.372 . S
C3051 C3052 1.400 . S
C3051 C3056 1.490 . S
C3052 H3042 0.930 . S
C3052 C3051 1.400 . S
C3052 C3055 1.386 . S
H3053 C3069 0.930 . S
H3054 C3070 0.931 . S
C3055 H3043 0.929 . S
C3055 C3049 1.390 . S
C3055 C3052 1.386 . S
C3056 C3051 1.490 . S
C3056 C3058 1.395 . S
C3056 C3059 1.403 . S
H3057 C3063 0.930 . S
C3058 H3044 0.930 . S
C3058 C3056 1.395 . S
C3058 C3061 1.403 . S
C3059 C3056 1.403 . S
C3059 C3060 1.524 . S
C3059 C3063 1.400 . S
C3060 H3045 0.960 . S
C3060 H3046 0.960 . S
C3060 H3047 0.960 . S
C3060 C3059 1.524 . S
C3061 C3058 1.403 . S
C3061 C3062 1.392 . S
C3061 C3065 1.495 . S
C3062 C3061 1.392 . S
C3062 C3063 1.385 . S
C3062 C3064 1.478 . S
C3063 H3057 0.930 . S
C3063 C3059 1.400 . S
C3063 C3062 1.385 . S
C3064 C3062 1.478 . S
C3064 C3066 1.381 . S
C3064 C3070 1.383 . S
C3065 C3061 1.495 . S
C3065 H3071 0.959 . S
C3065 H3072 0.961 . S
C3065 H3073 0.960 . S
C3066 C3064 1.381 . S
C3066 C3067 1.394 . S
C3066 H3074 0.930 . S
C3067 C3066 1.394 . S
C3067 C3068 1.383 . S
C3067 H3075 0.929 . S
C3068 C3067 1.383 . S
C3068 C3069 1.377 . S
C3069 H3053 0.930 . S
C3069 C3068 1.377 . S
C3069 C3070 1.379 . S
C3070 H3054 0.931 . S
C3070 C3064 1.383 . S
C3070 C3069 1.379 . S
H3071 C3065 0.959 . S
H3072 C3065 0.961 . S
H3073 C3065 0.960 . S
H3074 C3066 0.930 . S
H3075 C3067 0.929 . S
H3076 C3084 0.929 . S
H3077 C3086 0.930 . S
H3078 C3088 0.930 . S
H3079 C3091 0.929 . S
H3080 C3094 0.930 . S
H3081 C3096 0.960 . S
H3082 C3096 0.960 . S
H3083 C3096 0.960 . S
C3084 H3076 0.929 . S
C3084 C3085 1.377 . S
C3084 C3086 1.384 . S
C3085 C3084 1.377 . S
C3085 C3091 1.390 . S
C3086 H3077 0.930 . S
C3086 C3084 1.384 . S
C3086 C3087 1.372 . S
C3087 C3086 1.372 . S
C3087 C3088 1.400 . S
C3087 C3092 1.490 . S
C3088 H3078 0.930 . S
C3088 C3087 1.400 . S
C3088 C3091 1.386 . S
H3089 C3105 0.930 . S
H3090 C3106 0.931 . S
C3091 H3079 0.929 . S
C3091 C3085 1.390 . S
C3091 C3088 1.386 . S
C3092 C3087 1.490 . S
C3092 C3094 1.395 . S
C3092 C3095 1.403 . S
H3093 C3099 0.930 . S
C3094 H3080 0.930 . S
C3094 C3092 1.395 . S
C3094 C3097 1.403 . S
C3095 C3092 1.403 . S
C3095 C3096 1.524 . S
C3095 C3099 1.400 . S
C3096 H3081 0.960 . S
C3096 H3082 0.960 . S
C3096 H3083 0.960 . S
C3096 C3095 1.524 . S
C3097 C3094 1.403 . S
C3097 C3098 1.392 . S
C3097 C3101 1.495 . S
C3098 C3097 1.392 . S
C3098 C3099 1.385 . S
C3098 C3100 1.478 . S
C3099 H3093 0.930 . S
C3099 C3095 1.400 . S
C3099 C3098 1.385 . S
C3100 C3098 1.478 . S
C3100 C3102 1.381 . S
C3100 C3106 1.383 . S
C3101 C3097 1.495 . S
C3101 H3107 0.959 . S
C3101 H3108 0.961 . S
C3101 H3109 0.960 . S
C3102 C3100 1.381 . S
C3102 C3103 1.394 . S
C3102 H3110 0.930 . S
C3103 C3102 1.394 . S
C3103 C3104 1.383 . S
C3103 H3111 0.929 . S
C3104 C3103 1.383 . S
C3104 C3105 1.377 . S
C3105 H3089 0.930 . S
C3105 C3104 1.377 . S
C3105 C3106 1.379 . S
C3106 H3090 0.931 . S
C3106 C3100 1.383 . S
C3106 C3105 1.379 . S
H3107 C3101 0.959 . S
H3108 C3101 0.961 . S
H3109 C3101 0.960 . S
H3110 C3102 0.930 . S
H3111 C3103 0.929 . S
H3112 C3120 0.929 . S
H3113 C3122 0.930 . S
H3114 C3124 0.930 . S
H3115 C3127 0.929 . S
H3116 C3130 0.930 . S
H3117 C3132 0.960 . S
H3118 C3132 0.960 . S
H3119 C3132 0.960 . S
C3120 H3112 0.929 . S
C3120 C3121 1.377 . S
C3120 C3122 1.384 . S
C3121 C3120 1.377 . S
C3121 C3127 1.390 . S
C3122 H3113 0.930 . S
C3122 C3120 1.384 . S
C3122 C3123 1.372 . S
C3123 C3122 1.372 . S
C3123 C3124 1.400 . S
C3123 C3128 1.490 . S
C3124 H3114 0.930 . S
C3124 C3123 1.400 . S
C3124 C3127 1.386 . S
H3125 C3141 0.930 . S
H3126 C3142 0.931 . S
C3127 H3115 0.929 . S
C3127 C3121 1.390 . S
C3127 C3124 1.386 . S
C3128 C3123 1.490 . S
C3128 C3130 1.395 . S
C3128 C3131 1.403 . S
H3129 C3135 0.930 . S
C3130 H3116 0.930 . S
C3130 C3128 1.395 . S
C3130 C3133 1.403 . S
C3131 C3128 1.403 . S
C3131 C3132 1.524 . S
C3131 C3135 1.400 . S
C3132 H3117 0.960 . S
C3132 H3118 0.960 . S
C3132 H3119 0.960 . S
C3132 C3131 1.524 . S
C3133 C3130 1.403 . S
C3133 C3134 1.392 . S
C3133 C3137 1.495 . S
C3134 C3133 1.392 . S
C3134 C3135 1.385 . S
C3134 C3136 1.478 . S
C3135 H3129 0.930 . S
C3135 C3131 1.400 . S
C3135 C3134 1.385 . S
C3136 C3134 1.478 . S
C3136 C3138 1.381 . S
C3136 C3142 1.383 . S
C3137 C3133 1.495 . S
C3137 H3143 0.959 . S
C3137 H3144 0.961 . S
C3137 H3145 0.960 . S
C3138 C3136 1.381 . S
C3138 C3139 1.394 . S
C3138 H3146 0.930 . S
C3139 C3138 1.394 . S
C3139 C3140 1.383 . S
C3139 H3147 0.929 . S
C3140 C3139 1.383 . S
C3140 C3141 1.377 . S
C3141 H3125 0.930 . S
C3141 C3140 1.377 . S
C3141 C3142 1.379 . S
C3142 H3126 0.931 . S
C3142 C3136 1.383 . S
C3142 C3141 1.379 . S
H3143 C3137 0.959 . S
H3144 C3137 0.961 . S
H3145 C3137 0.960 . S
H3146 C3138 0.930 . S
H3147 C3139 0.929 . S
H3148 C3156 0.929 . S
H3149 C3158 0.930 . S
H3150 C3160 0.930 . S
H3151 C3163 0.929 . S
H3152 C3166 0.930 . S
H3153 C3168 0.960 . S
H3154 C3168 0.960 . S
H3155 C3168 0.960 . S
C3156 H3148 0.929 . S
C3156 C3157 1.377 . S
C3156 C3158 1.384 . S
C3157 C3156 1.377 . S
C3157 C3163 1.390 . S
C3158 H3149 0.930 . S
C3158 C3156 1.384 . S
C3158 C3159 1.372 . S
C3159 C3158 1.372 . S
C3159 C3160 1.400 . S
C3159 C3164 1.490 . S
C3160 H3150 0.930 . S
C3160 C3159 1.400 . S
C3160 C3163 1.386 . S
H3161 C3177 0.930 . S
H3162 C3178 0.931 . S
C3163 H3151 0.929 . S
C3163 C3157 1.390 . S
C3163 C3160 1.386 . S
C3164 C3159 1.490 . S
C3164 C3166 1.395 . S
C3164 C3167 1.403 . S
H3165 C3171 0.930 . S
C3166 H3152 0.930 . S
C3166 C3164 1.395 . S
C3166 C3169 1.403 . S
C3167 C3164 1.403 . S
C3167 C3168 1.524 . S
C3167 C3171 1.400 . S
C3168 H3153 0.960 . S
C3168 H3154 0.960 . S
C3168 H3155 0.960 . S
C3168 C3167 1.524 . S
C3169 C3166 1.403 . S
C3169 C3170 1.392 . S
C3169 C3173 1.495 . S
C3170 C3169 1.392 . S
C3170 C3171 1.385 . S
C3170 C3172 1.478 . S
C3171 H3165 0.930 . S
C3171 C3167 1.400 . S
C3171 C3170 1.385 . S
C3172 C3170 1.478 . S
C3172 C3174 1.381 . S
C3172 C3178 1.383 . S
C3173 C3169 1.495 . S
C3173 H3179 0.959 . S
C3173 H3180 0.961 . S
C3173 H3181 0.960 . S
C3174 C3172 1.381 . S
C3174 C3175 1.394 . S
C3174 H3182 0.930 . S
C3175 C3174 1.394 . S
C3175 C3176 1.383 . S
C3175 H3183 0.929 . S
C3176 C3175 1.383 . S
C3176 C3177 1.377 . S
C3177 H3161 0.930 . S
C3177 C3176 1.377 . S
C3177 C3178 1.379 . S
C3178 H3162 0.931 . S
C3178 C3172 1.383 . S
C3178 C3177 1.379 . S
H3179 C3173 0.959 . S
H3180 C3173 0.961 . S
H3181 C3173 0.960 . S
H3182 C3174 0.930 . S
H3183 C3175 0.929 . S
H3184 C3192 0.929 . S
H3185 C3194 0.930 . S
H3186 C3196 0.930 . S
H3187 C3199 0.929 . S
H3188 C3202 0.930 . S
H3189 C3204 0.960 . S
H3190 C3204 0.960 . S
H3191 C3204 0.960 . S
C3192 H3184 0.929 . S
C3192 C3193 1.377 . S
C3192 C3194 1.384 . S
C3193 C3192 1.377 . S
C3193 C3199 1.390 . S
C3194 H3185 0.930 . S
C3194 C3192 1.384 . S
C3194 C3195 1.372 . S
C3195 C3194 1.372 . S
C3195 C3196 1.400 . S
C3195 C3200 1.490 . S
C3196 H3186 0.930 . S
C3196 C3195 1.400 . S
C3196 C3199 1.386 . S
H3197 C3213 0.930 . S
H3198 C3214 0.931 . S
C3199 H3187 0.929 . S
C3199 C3193 1.390 . S
C3199 C3196 1.386 . S
C3200 C3195 1.490 . S
C3200 C3202 1.395 . S
C3200 C3203 1.403 . S
H3201 C3207 0.930 . S
C3202 H3188 0.930 . S
C3202 C3200 1.395 . S
C3202 C3205 1.403 . S
C3203 C3200 1.403 . S
C3203 C3204 1.524 . S
C3203 C3207 1.400 . S
C3204 H3189 0.960 . S
C3204 H3190 0.960 . S
C3204 H3191 0.960 . S
C3204 C3203 1.524 . S
C3205 C3202 1.403 . S
C3205 C3206 1.392 . S
C3205 C3209 1.495 . S
C3206 C3205 1.392 . S
C3206 C3207 1.385 . S
C3206 C3208 1.478 . S
C3207 H3201 0.930 . S
C3207 C3203 1.400 . S
C3207 C3206 1.385 . S
C3208 C3206 1.478 . S
C3208 C3210 1.381 . S
C3208 C3214 1.383 . S
C3209 C3205 1.495 . S
C3209 H3215 0.959 . S
C3209 H3216 0.961 . S
C3209 H3217 0.960 . S
C3210 C3208 1.381 . S
C3210 C3211 1.394 . S
C3210 H3218 0.930 . S
C3211 C3210 1.394 . S
C3211 C3212 1.383 . S
C3211 H3219 0.929 . S
C3212 C3211 1.383 . S
C3212 C3213 1.377 . S
C3213 H3197 0.930 . S
C3213 C3212 1.377 . S
C3213 C3214 1.379 . S
C3214 H3198 0.931 . S
C3214 C3208 1.383 . S
C3214 C3213 1.379 . S
H3215 C3209 0.959 . S
H3216 C3209 0.961 . S
H3217 C3209 0.960 . S
H3218 C3210 0.930 . S
H3219 C3211 0.929 . S
H3220 C3228 0.929 . S
H3221 C3230 0.930 . S
H3222 C3232 0.930 . S
H3223 C3235 0.929 . S
H3224 C3238 0.930 . S
H3225 C3240 0.960 . S
H3226 C3240 0.960 . S
H3227 C3240 0.960 . S
C3228 H3220 0.929 . S
C3228 C3229 1.377 . S
C3228 C3230 1.384 . S
C3229 C3228 1.377 . S
C3229 C3235 1.390 . S
C3230 H3221 0.930 . S
C3230 C3228 1.384 . S
C3230 C3231 1.372 . S
C3231 C3230 1.372 . S
C3231 C3232 1.400 . S
C3231 C3236 1.490 . S
C3232 H3222 0.930 . S
C3232 C3231 1.400 . S
C3232 C3235 1.386 . S
H3233 C3249 0.930 . S
H3234 C3250 0.931 . S
C3235 H3223 0.929 . S
C3235 C3229 1.390 . S
C3235 C3232 1.386 . S
C3236 C3231 1.490 . S
C3236 C3238 1.395 . S
C3236 C3239 1.403 . S
H3237 C3243 0.930 . S
C3238 H3224 0.930 . S
C3238 C3236 1.395 . S
C3238 C3241 1.403 . S
C3239 C3236 1.403 . S
C3239 C3240 1.524 . S
C3239 C3243 1.400 . S
C3240 H3225 0.960 . S
C3240 H3226 0.960 . S
C3240 H3227 0.960 . S
C3240 C3239 1.524 . S
C3241 C3238 1.403 . S
C3241 C3242 1.392 . S
C3241 C3245 1.495 . S
C3242 C3241 1.392 . S
C3242 C3243 1.385 . S
C3242 C3244 1.478 . S
C3243 H3237 0.930 . S
C3243 C3239 1.400 . S
C3243 C3242 1.385 . S
C3244 C3242 1.478 . S
C3244 C3246 1.381 . S
C3244 C3250 1.383 . S
C3245 C3241 1.495 . S
C3245 H3251 0.959 . S
C3245 H3252 0.961 . S
C3245 H3253 0.960 . S
C3246 C3244 1.381 . S
C3246 C3247 1.394 . S
C3246 H3254 0.930 . S
C3247 C3246 1.394 . S
C3247 C3248 1.383 . S
C3247 H3255 0.929 . S
C3248 C3247 1.383 . S
C3248 C3249 1.377 . S
C3249 H3233 0.930 . S
C3249 C3248 1.377 . S
C3249 C3250 1.379 . S
C3250 H3234 0.931 . S
C3250 C3244 1.383 . S
C3250 C3249 1.379 . S
H3251 C3245 0.959 . S
H3252 C3245 0.961 . S
H3253 C3245 0.960 . S
H3254 C3246 0.930 . S
H3255 C3247 0.929 . S
H3256 C3264 0.929 . S
H3257 C3266 0.930 . S
H3258 C3268 0.930 . S
H3259 C3271 0.929 . S
H3260 C3274 0.930 . S
H3261 C3276 0.960 . S
H3262 C3276 0.960 . S
H3263 C3276 0.960 . S
C3264 H3256 0.929 . S
C3264 C3265 1.377 . S
C3264 C3266 1.384 . S
C3265 C3264 1.377 . S
C3265 C3271 1.390 . S
C3266 H3257 0.930 . S
C3266 C3264 1.384 . S
C3266 C3267 1.372 . S
C3267 C3266 1.372 . S
C3267 C3268 1.400 . S
C3267 C3272 1.490 . S
C3268 H3258 0.930 . S
C3268 C3267 1.400 . S
C3268 C3271 1.386 . S
H3269 C3285 0.930 . S
H3270 C3286 0.931 . S
C3271 H3259 0.929 . S
C3271 C3265 1.390 . S
C3271 C3268 1.386 . S
C3272 C3267 1.490 . S
C3272 C3274 1.395 . S
C3272 C3275 1.403 . S
H3273 C3279 0.930 . S
C3274 H3260 0.930 . S
C3274 C3272 1.395 . S
C3274 C3277 1.403 . S
C3275 C3272 1.403 . S
C3275 C3276 1.524 . S
C3275 C3279 1.400 . S
C3276 H3261 0.960 . S
C3276 H3262 0.960 . S
C3276 H3263 0.960 . S
C3276 C3275 1.524 . S
C3277 C3274 1.403 . S
C3277 C3278 1.392 . S
C3277 C3281 1.495 . S
C3278 C3277 1.392 . S
C3278 C3279 1.385 . S
C3278 C3280 1.478 . S
C3279 H3273 0.930 . S
C3279 C3275 1.400 . S
C3279 C3278 1.385 . S
C3280 C3278 1.478 . S
C3280 C3282 1.381 . S
C3280 C3286 1.383 . S
C3281 C3277 1.495 . S
C3281 H3287 0.959 . S
C3281 H3288 0.961 . S
C3281 H3289 0.960 . S
C3282 C3280 1.381 . S
C3282 C3283 1.394 . S
C3282 H3290 0.930 . S
C3283 C3282 1.394 . S
C3283 C3284 1.383 . S
C3283 H3291 0.929 . S
C3284 C3283 1.383 . S
C3284 C3285 1.377 . S
C3285 H3269 0.930 . S
C3285 C3284 1.377 . S
C3285 C3286 1.379 . S
C3286 H3270 0.931 . S
C3286 C3280 1.383 . S
C3286 C3285 1.379 . S
H3287 C3281 0.959 . S
H3288 C3281 0.961 . S
H3289 C3281 0.960 . S
H3290 C3282 0.930 . S
H3291 C3283 0.929 . S
H3292 C3300 0.929 . S
H3293 C3302 0.930 . S
H3294 C3304 0.930 . S
H3295 C3307 0.929 . S
H3296 C3310 0.930 . S
H3297 C3312 0.960 . S
H3298 C3312 0.960 . S
H3299 C3312 0.960 . S
C3300 H3292 0.929 . S
C3300 C3301 1.377 . S
C3300 C3302 1.384 . S
C3301 C3300 1.377 . S
C3301 C3307 1.390 . S
C3302 H3293 0.930 . S
C3302 C3300 1.384 . S
C3302 C3303 1.372 . S
C3303 C3302 1.372 . S
C3303 C3304 1.400 . S
C3303 C3308 1.490 . S
C3304 H3294 0.930 . S
C3304 C3303 1.400 . S
C3304 C3307 1.386 . S
H3305 C3321 0.930 . S
H3306 C3322 0.931 . S
C3307 H3295 0.929 . S
C3307 C3301 1.390 . S
C3307 C3304 1.386 . S
C3308 C3303 1.490 . S
C3308 C3310 1.395 . S
C3308 C3311 1.403 . S
H3309 C3315 0.930 . S
C3310 H3296 0.930 . S
C3310 C3308 1.395 . S
C3310 C3313 1.403 . S
C3311 C3308 1.403 . S
C3311 C3312 1.524 . S
C3311 C3315 1.400 . S
C3312 H3297 0.960 . S
C3312 H3298 0.960 . S
C3312 H3299 0.960 . S
C3312 C3311 1.524 . S
C3313 C3310 1.403 . S
C3313 C3314 1.392 . S
C3313 C3317 1.495 . S
C3314 C3313 1.392 . S
C3314 C3315 1.385 . S
C3314 C3316 1.478 . S
C3315 H3309 0.930 . S
C3315 C3311 1.400 . S
C3315 C3314 1.385 . S
C3316 C3314 1.478 . S
C3316 C3318 1.381 . S
C3316 C3322 1.383 . S
C3317 C3313 1.495 . S
C3317 H3323 0.959 . S
C3317 H3324 0.961 . S
C3317 H3325 0.960 . S
C3318 C3316 1.381 . S
C3318 C3319 1.394 . S
C3318 H3326 0.930 . S
C3319 C3318 1.394 . S
C3319 C3320 1.383 . S
C3319 H3327 0.929 . S
C3320 C3319 1.383 . S
C3320 C3321 1.377 . S
C3321 H3305 0.930 . S
C3321 C3320 1.377 . S
C3321 C3322 1.379 . S
C3322 H3306 0.931 . S
C3322 C3316 1.383 . S
C3322 C3321 1.379 . S
H3323 C3317 0.959 . S
H3324 C3317 0.961 . S
H3325 C3317 0.960 . S
H3326 C3318 0.930 . S
H3327 C3319 0.929 . S
H3328 C3336 0.929 . S
H3329 C3338 0.930 . S
H3330 C3340 0.930 . S
H3331 C3343 0.929 . S
H3332 C3346 0.930 . S
H3333 C3348 0.960 . S
H3334 C3348 0.960 . S
H3335 C3348 0.960 . S
C3336 H3328 0.929 . S
C3336 C3337 1.377 . S
C3336 C3338 1.384 1_545 S
C3337 C3336 1.377 . S
C3337 C3343 1.390 1_545 S
C3338 H3329 0.930 . S
C3338 C3336 1.384 1_565 S
C3338 C3339 1.372 . S
C3339 C3338 1.372 . S
C3339 C3340 1.400 . S
C3339 C3344 1.490 . S
C3340 H3330 0.930 . S
C3340 C3339 1.400 . S
C3340 C3343 1.386 . S
H3341 C3357 0.930 . S
H3342 C3358 0.931 . S
C3343 H3331 0.929 . S
C3343 C3337 1.390 1_565 S
C3343 C3340 1.386 . S
C3344 C3339 1.490 . S
C3344 C3346 1.395 . S
C3344 C3347 1.403 . S
H3345 C3351 0.930 . S
C3346 H3332 0.930 . S
C3346 C3344 1.395 . S
C3346 C3349 1.403 . S
C3347 C3344 1.403 . S
C3347 C3348 1.524 . S
C3347 C3351 1.400 . S
C3348 H3333 0.960 . S
C3348 H3334 0.960 . S
C3348 H3335 0.960 . S
C3348 C3347 1.524 . S
C3349 C3346 1.403 . S
C3349 C3350 1.392 . S
C3349 C3353 1.495 . S
C3350 C3349 1.392 . S
C3350 C3351 1.385 . S
C3350 C3352 1.478 . S
C3351 H3345 0.930 . S
C3351 C3347 1.400 . S
C3351 C3350 1.385 . S
C3352 C3350 1.478 . S
C3352 C3354 1.381 . S
C3352 C3358 1.383 . S
C3353 C3349 1.495 . S
C3353 H3359 0.959 . S
C3353 H3360 0.961 . S
C3353 H3361 0.960 . S
C3354 C3352 1.381 . S
C3354 C3355 1.394 . S
C3354 H3362 0.930 . S
C3355 C3354 1.394 . S
C3355 C3356 1.383 . S
C3355 H3363 0.929 . S
C3356 C3355 1.383 . S
C3356 C3357 1.377 . S
C3357 H3341 0.930 . S
C3357 C3356 1.377 . S
C3357 C3358 1.379 . S
C3358 H3342 0.931 . S
C3358 C3352 1.383 . S
C3358 C3357 1.379 . S
H3359 C3353 0.959 . S
H3360 C3353 0.961 . S
H3361 C3353 0.960 . S
H3362 C3354 0.930 . S
H3363 C3355 0.929 . S
H3364 C3372 0.929 . S
H3365 C3374 0.930 . S
H3366 C3376 0.930 . S
H3367 C3379 0.929 . S
H3368 C3382 0.930 . S
H3369 C3384 0.960 . S
H3370 C3384 0.960 . S
H3371 C3384 0.960 . S
C3372 H3364 0.929 . S
C3372 C3373 1.377 . S
C3372 C3374 1.384 . S
C3373 C3372 1.377 . S
C3373 C3379 1.390 . S
C3374 H3365 0.930 . S
C3374 C3372 1.384 . S
C3374 C3375 1.372 . S
C3375 C3374 1.372 . S
C3375 C3376 1.400 . S
C3375 C3380 1.490 . S
C3376 H3366 0.930 . S
C3376 C3375 1.400 . S
C3376 C3379 1.386 . S
H3377 C3393 0.930 1_556 S
H3378 C3394 0.931 . S
C3379 H3367 0.929 . S
C3379 C3373 1.390 . S
C3379 C3376 1.386 . S
C3380 C3375 1.490 . S
C3380 C3382 1.395 . S
C3380 C3383 1.403 . S
H3381 C3387 0.930 . S
C3382 H3368 0.930 . S
C3382 C3380 1.395 . S
C3382 C3385 1.403 . S
C3383 C3380 1.403 . S
C3383 C3384 1.524 . S
C3383 C3387 1.400 . S
C3384 H3369 0.960 . S
C3384 H3370 0.960 . S
C3384 H3371 0.960 . S
C3384 C3383 1.524 . S
C3385 C3382 1.403 . S
C3385 C3386 1.392 . S
C3385 C3389 1.495 . S
C3386 C3385 1.392 . S
C3386 C3387 1.385 . S
C3386 C3388 1.478 . S
C3387 H3381 0.930 . S
C3387 C3383 1.400 . S
C3387 C3386 1.385 . S
C3388 C3386 1.478 . S
C3388 C3390 1.381 . S
C3388 C3394 1.383 . S
C3389 C3385 1.495 . S
C3389 H3395 0.959 . S
C3389 H3396 0.961 . S
C3389 H3397 0.960 . S
C3390 C3388 1.381 . S
C3390 C3391 1.394 1_565 S
C3390 H3398 0.930 . S
C3391 C3390 1.394 1_545 S
C3391 C3392 1.383 . S
C3391 H3399 0.929 . S
C3392 C3391 1.383 . S
C3392 C3393 1.377 1_545 S
C3393 H3377 0.930 1_554 S
C3393 C3392 1.377 1_565 S
C3393 C3394 1.379 . S
C3394 H3378 0.931 . S
C3394 C3388 1.383 . S
C3394 C3393 1.379 . S
H3395 C3389 0.959 . S
H3396 C3389 0.961 . S
H3397 C3389 0.960 . S
H3398 C3390 0.930 . S
H3399 C3391 0.929 . S
H3400 C3408 0.929 . S
H3401 C3410 0.930 . S
H3402 C3412 0.930 . S
H3403 C3415 0.929 . S
H3404 C3418 0.930 . S
H3405 C3420 0.960 . S
H3406 C3420 0.960 . S
H3407 C3420 0.960 . S
C3408 H3400 0.929 . S
C3408 C3409 1.377 . S
C3408 C3410 1.384 . S
C3409 C3408 1.377 . S
C3409 C3415 1.390 . S
C3410 H3401 0.930 . S
C3410 C3408 1.384 . S
C3410 C3411 1.372 . S
C3411 C3410 1.372 . S
C3411 C3412 1.400 . S
C3411 C3416 1.490 . S
C3412 H3402 0.930 . S
C3412 C3411 1.400 . S
C3412 C3415 1.386 . S
H3413 C3429 0.930 . S
H3414 C3430 0.931 . S
C3415 H3403 0.929 . S
C3415 C3409 1.390 . S
C3415 C3412 1.386 . S
C3416 C3411 1.490 . S
C3416 C3418 1.395 . S
C3416 C3419 1.403 . S
H3417 C3423 0.930 . S
C3418 H3404 0.930 . S
C3418 C3416 1.395 . S
C3418 C3421 1.403 . S
C3419 C3416 1.403 . S
C3419 C3420 1.524 . S
C3419 C3423 1.400 . S
C3420 H3405 0.960 . S
C3420 H3406 0.960 . S
C3420 H3407 0.960 . S
C3420 C3419 1.524 . S
C3421 C3418 1.403 . S
C3421 C3422 1.392 . S
C3421 C3425 1.495 . S
C3422 C3421 1.392 . S
C3422 C3423 1.385 . S
C3422 C3424 1.478 . S
C3423 H3417 0.930 . S
C3423 C3419 1.400 . S
C3423 C3422 1.385 . S
C3424 C3422 1.478 . S
C3424 C3426 1.381 . S
C3424 C3430 1.383 . S
C3425 C3421 1.495 . S
C3425 H3431 0.959 . S
C3425 H3432 0.961 . S
C3425 H3433 0.960 . S
C3426 C3424 1.381 . S
C3426 C3427 1.394 . S
C3426 H3434 0.930 . S
C3427 C3426 1.394 . S
C3427 C3428 1.383 . S
C3427 H3435 0.929 . S
C3428 C3427 1.383 . S
C3428 C3429 1.377 . S
C3429 H3413 0.930 . S
C3429 C3428 1.377 . S
C3429 C3430 1.379 . S
C3430 H3414 0.931 . S
C3430 C3424 1.383 . S
C3430 C3429 1.379 . S
H3431 C3425 0.959 . S
H3432 C3425 0.961 . S
H3433 C3425 0.960 . S
H3434 C3426 0.930 . S
H3435 C3427 0.929 . S
H3436 C3444 0.929 . S
H3437 C3446 0.930 . S
H3438 C3448 0.930 . S
H3439 C3451 0.929 . S
H3440 C3454 0.930 . S
H3441 C3456 0.960 . S
H3442 C3456 0.960 . S
H3443 C3456 0.960 . S
C3444 H3436 0.929 . S
C3444 C3445 1.377 . S
C3444 C3446 1.384 . S
C3445 C3444 1.377 . S
C3445 C3451 1.390 . S
C3446 H3437 0.930 . S
C3446 C3444 1.384 . S
C3446 C3447 1.372 . S
C3447 C3446 1.372 . S
C3447 C3448 1.400 . S
C3447 C3452 1.490 . S
C3448 H3438 0.930 . S
C3448 C3447 1.400 . S
C3448 C3451 1.386 . S
H3449 C3465 0.930 . S
H3450 C3466 0.931 . S
C3451 H3439 0.929 . S
C3451 C3445 1.390 . S
C3451 C3448 1.386 . S
C3452 C3447 1.490 . S
C3452 C3454 1.395 . S
C3452 C3455 1.403 . S
H3453 C3459 0.930 . S
C3454 H3440 0.930 . S
C3454 C3452 1.395 . S
C3454 C3457 1.403 . S
C3455 C3452 1.403 . S
C3455 C3456 1.524 . S
C3455 C3459 1.400 . S
C3456 H3441 0.960 . S
C3456 H3442 0.960 . S
C3456 H3443 0.960 . S
C3456 C3455 1.524 . S
C3457 C3454 1.403 . S
C3457 C3458 1.392 . S
C3457 C3461 1.495 . S
C3458 C3457 1.392 . S
C3458 C3459 1.385 . S
C3458 C3460 1.478 . S
C3459 H3453 0.930 . S
C3459 C3455 1.400 . S
C3459 C3458 1.385 . S
C3460 C3458 1.478 . S
C3460 C3462 1.381 . S
C3460 C3466 1.383 . S
C3461 C3457 1.495 . S
C3461 H3467 0.959 . S
C3461 H3468 0.973 . S
C3461 H3469 0.960 . S
C3462 C3460 1.381 . S
C3462 C3463 1.394 . S
C3462 H3470 0.930 . S
C3463 C3462 1.394 . S
C3463 C3464 1.383 . S
C3463 H3471 0.929 . S
C3464 C3463 1.383 . S
C3464 C3465 1.377 . S
C3465 H3449 0.930 . S
C3465 C3464 1.377 . S
C3465 C3466 1.379 . S
C3466 H3450 0.931 . S
C3466 C3460 1.383 . S
C3466 C3465 1.379 . S
H3467 C3461 0.959 . S
H3468 C3461 0.973 . S
H3469 C3461 0.960 . S
H3470 C3462 0.930 . S
H3471 C3463 0.929 . S
H3472 C3480 0.929 . S
H3473 C3482 0.930 . S
H3474 C3484 0.930 . S
H3475 C3487 0.929 . S
H3476 C3490 0.930 . S
H3477 C3492 0.960 . S
H3478 C3492 0.960 . S
H3479 C3492 0.960 . S
C3480 H3472 0.929 . S
C3480 C3481 1.377 . S
C3480 C3482 1.384 . S
C3481 C3480 1.377 . S
C3481 C3487 1.390 . S
C3482 H3473 0.930 . S
C3482 C3480 1.384 . S
C3482 C3483 1.372 . S
C3483 C3482 1.372 . S
C3483 C3484 1.400 . S
C3483 C3488 1.490 . S
C3484 H3474 0.930 . S
C3484 C3483 1.400 . S
C3484 C3487 1.386 . S
H3485 C3501 0.930 . S
H3486 C3502 0.931 . S
C3487 H3475 0.929 . S
C3487 C3481 1.390 . S
C3487 C3484 1.386 . S
C3488 C3483 1.490 . S
C3488 C3490 1.395 . S
C3488 C3491 1.403 . S
H3489 C3495 0.930 . S
C3490 H3476 0.930 . S
C3490 C3488 1.395 . S
C3490 C3493 1.403 . S
C3491 C3488 1.403 . S
C3491 C3492 1.524 . S
C3491 C3495 1.400 . S
C3492 H3477 0.960 . S
C3492 H3478 0.960 . S
C3492 H3479 0.960 . S
C3492 C3491 1.524 . S
C3493 C3490 1.403 . S
C3493 C3494 1.392 . S
C3493 C3497 1.495 . S
C3494 C3493 1.392 . S
C3494 C3495 1.385 . S
C3494 C3496 1.478 . S
C3495 H3489 0.930 . S
C3495 C3491 1.400 . S
C3495 C3494 1.385 . S
C3496 C3494 1.478 . S
C3496 C3498 1.381 . S
C3496 C3502 1.383 . S
C3497 C3493 1.495 . S
C3497 H3503 0.959 . S
C3497 H3504 0.961 . S
C3497 H3505 0.960 . S
C3498 C3496 1.381 . S
C3498 C3499 1.394 . S
C3498 H3506 0.930 . S
C3499 C3498 1.394 . S
C3499 C3500 1.383 . S
C3499 H3507 0.929 . S
C3500 C3499 1.383 . S
C3500 C3501 1.377 . S
C3501 H3485 0.930 . S
C3501 C3500 1.377 . S
C3501 C3502 1.379 . S
C3502 H3486 0.931 . S
C3502 C3496 1.383 . S
C3502 C3501 1.379 . S
H3503 C3497 0.959 . S
H3504 C3497 0.961 . S
H3505 C3497 0.960 . S
H3506 C3498 0.930 . S
H3507 C3499 0.929 . S
H3508 C3516 0.929 . S
H3509 C3518 0.930 . S
H3510 C3520 0.907 1_545 S
H3511 C3523 0.929 . S
H3512 C3526 0.930 . S
H3513 C3528 0.960 . S
H3514 C3528 0.960 . S
H3515 C3528 0.960 . S
C3516 H3508 0.929 . S
C3516 C3517 1.377 1_565 S
C3516 C3518 1.384 . S
C3517 C3516 1.377 1_545 S
C3517 C3523 1.390 . S
C3518 H3509 0.930 . S
C3518 C3516 1.384 . S
C3518 C3519 1.372 . S
C3519 C3518 1.372 . S
C3519 C3520 1.449 . S
C3519 C3524 1.490 . S
C3520 H3510 0.907 1_565 S
C3520 C3519 1.449 . S
C3520 C3523 1.352 1_565 S
H3521 C3537 0.930 . S
H3522 C3538 0.931 . S
C3523 H3511 0.929 . S
C3523 C3517 1.390 . S
C3523 C3520 1.352 1_545 S
C3524 C3519 1.490 . S
C3524 C3526 1.395 . S
C3524 C3527 1.403 . S
H3525 C3531 0.930 . S
C3526 H3512 0.930 . S
C3526 C3524 1.395 . S
C3526 C3529 1.403 . S
C3527 C3524 1.403 . S
C3527 C3528 1.524 . S
C3527 C3531 1.400 . S
C3528 H3513 0.960 . S
C3528 H3514 0.960 . S
C3528 H3515 0.960 . S
C3528 C3527 1.524 . S
C3529 C3526 1.403 . S
C3529 C3530 1.392 . S
C3529 C3533 1.495 . S
C3530 C3529 1.392 . S
C3530 C3531 1.385 . S
C3530 C3532 1.478 . S
C3531 H3525 0.930 . S
C3531 C3527 1.400 . S
C3531 C3530 1.385 . S
C3532 C3530 1.478 . S
C3532 C3534 1.381 . S
C3532 C3538 1.383 . S
C3533 C3529 1.495 . S
C3533 H3539 0.959 . S
C3533 H3540 0.961 . S
C3533 H3541 0.960 . S
C3534 C3532 1.381 . S
C3534 C3535 1.394 . S
C3534 H3542 0.930 . S
C3535 C3534 1.394 . S
C3535 C3536 1.383 . S
C3535 H3543 0.929 . S
C3536 C3535 1.383 . S
C3536 C3537 1.377 . S
C3537 H3521 0.930 . S
C3537 C3536 1.377 . S
C3537 C3538 1.379 . S
C3538 H3522 0.931 . S
C3538 C3532 1.383 . S
C3538 C3537 1.379 . S
H3539 C3533 0.959 . S
H3540 C3533 0.961 . S
H3541 C3533 0.960 . S
H3542 C3534 0.930 . S
H3543 C3535 0.929 . S
H3544 C3552 0.929 . S
H3545 C3554 0.930 . S
H3546 C3556 0.930 . S
H3547 C3559 0.929 . S
H3548 C3562 0.930 . S
H3549 C3564 0.960 . S
H3550 C3564 0.960 . S
H3551 C3564 0.960 . S
C3552 H3544 0.929 . S
C3552 C3553 1.377 . S
C3552 C3554 1.384 . S
C3553 C3552 1.377 . S
C3553 C3559 1.390 . S
C3554 H3545 0.930 . S
C3554 C3552 1.384 . S
C3554 C3555 1.372 . S
C3555 C3554 1.372 . S
C3555 C3556 1.400 . S
C3555 C3560 1.490 . S
C3556 H3546 0.930 . S
C3556 C3555 1.400 . S
C3556 C3559 1.386 . S
H3557 C3573 0.930 . S
H3558 C3574 0.931 . S
C3559 H3547 0.929 . S
C3559 C3553 1.390 . S
C3559 C3556 1.386 . S
C3560 C3555 1.490 . S
C3560 C3562 1.395 . S
C3560 C3563 1.403 . S
H3561 C3567 0.930 . S
C3562 H3548 0.930 . S
C3562 C3560 1.395 . S
C3562 C3565 1.403 . S
C3563 C3560 1.403 . S
C3563 C3564 1.524 . S
C3563 C3567 1.400 . S
C3564 H3549 0.960 . S
C3564 H3550 0.960 . S
C3564 H3551 0.960 . S
C3564 C3563 1.524 . S
C3565 C3562 1.403 . S
C3565 C3566 1.392 . S
C3565 C3569 1.495 . S
C3566 C3565 1.392 . S
C3566 C3567 1.385 . S
C3566 C3568 1.478 . S
C3567 H3561 0.930 . S
C3567 C3563 1.400 . S
C3567 C3566 1.385 . S
C3568 C3566 1.478 . S
C3568 C3570 1.381 . S
C3568 C3574 1.383 . S
C3569 C3565 1.495 . S
C3569 H3575 0.959 . S
C3569 H3576 0.961 . S
C3569 H3577 0.960 . S
C3570 C3568 1.381 . S
C3570 C3571 1.394 . S
C3570 H3578 0.930 . S
C3571 C3570 1.394 . S
C3571 C3572 1.383 . S
C3571 H3579 0.929 . S
C3572 C3571 1.383 . S
C3572 C3573 1.377 . S
C3573 H3557 0.930 . S
C3573 C3572 1.377 . S
C3573 C3574 1.379 . S
C3574 H3558 0.931 . S
C3574 C3568 1.383 . S
C3574 C3573 1.379 . S
H3575 C3569 0.959 . S
H3576 C3569 0.961 . S
H3577 C3569 0.960 . S
H3578 C3570 0.930 . S
H3579 C3571 0.929 . S
H3580 C3588 0.929 . S
H3581 C3590 0.930 . S
H3582 C3592 0.930 . S
H3583 C3595 0.929 . S
H3584 C3598 0.930 . S
H3585 C3600 0.960 . S
H3586 C3600 0.960 . S
H3587 C3600 0.960 . S
C3588 H3580 0.929 . S
C3588 C3589 1.377 . S
C3588 C3590 1.384 . S
C3589 C3588 1.377 . S
C3589 C3595 1.390 . S
C3590 H3581 0.930 . S
C3590 C3588 1.384 . S
C3590 C3591 1.372 . S
C3591 C3590 1.372 . S
C3591 C3592 1.400 . S
C3591 C3596 1.490 . S
C3592 H3582 0.930 . S
C3592 C3591 1.400 . S
C3592 C3595 1.386 . S
H3593 C3609 0.930 . S
H3594 C3610 0.931 . S
C3595 H3583 0.929 . S
C3595 C3589 1.390 . S
C3595 C3592 1.386 . S
C3596 C3591 1.490 . S
C3596 C3598 1.395 . S
C3596 C3599 1.403 . S
H3597 C3603 0.930 . S
C3598 H3584 0.930 . S
C3598 C3596 1.395 . S
C3598 C3601 1.403 . S
C3599 C3596 1.403 . S
C3599 C3600 1.524 . S
C3599 C3603 1.400 . S
C3600 H3585 0.960 . S
C3600 H3586 0.960 . S
C3600 H3587 0.960 . S
C3600 C3599 1.524 . S
C3601 C3598 1.403 . S
C3601 C3602 1.392 . S
C3601 C3605 1.495 . S
C3602 C3601 1.392 . S
C3602 C3603 1.385 . S
C3602 C3604 1.478 . S
C3603 H3597 0.930 . S
C3603 C3599 1.400 . S
C3603 C3602 1.385 . S
C3604 C3602 1.478 . S
C3604 C3606 1.381 . S
C3604 C3610 1.383 . S
C3605 C3601 1.495 . S
C3605 H3611 0.959 . S
C3605 H3612 0.961 . S
C3605 H3613 0.960 . S
C3606 C3604 1.381 . S
C3606 C3607 1.394 . S
C3606 H3614 0.930 . S
C3607 C3606 1.394 . S
C3607 C3608 1.383 . S
C3607 H3615 0.929 . S
C3608 C3607 1.383 . S
C3608 C3609 1.377 . S
C3609 H3593 0.930 . S
C3609 C3608 1.377 . S
C3609 C3610 1.379 . S
C3610 H3594 0.931 . S
C3610 C3604 1.383 . S
C3610 C3609 1.379 . S
H3611 C3605 0.959 . S
H3612 C3605 0.961 . S
H3613 C3605 0.960 . S
H3614 C3606 0.930 . S
H3615 C3607 0.929 . S
H3616 C3624 0.929 . S
H3617 C3626 0.930 . S
H3618 C3628 0.930 . S
H3619 C3631 0.929 . S
H3620 C3634 0.930 . S
H3621 C3636 0.960 . S
H3622 C3636 0.960 . S
H3623 C3636 0.960 . S
C3624 H3616 0.929 . S
C3624 C3625 1.377 . S
C3624 C3626 1.384 . S
C3625 C3624 1.377 . S
C3625 C3631 1.390 . S
C3626 H3617 0.930 . S
C3626 C3624 1.384 . S
C3626 C3627 1.372 . S
C3627 C3626 1.372 . S
C3627 C3628 1.400 . S
C3627 C3632 1.490 . S
C3628 H3618 0.930 . S
C3628 C3627 1.400 . S
C3628 C3631 1.386 . S
H3629 C3645 0.930 . S
H3630 C3646 0.931 . S
C3631 H3619 0.929 . S
C3631 C3625 1.390 . S
C3631 C3628 1.386 . S
C3632 C3627 1.490 . S
C3632 C3634 1.395 . S
C3632 C3635 1.403 . S
H3633 C3639 0.930 . S
C3634 H3620 0.930 . S
C3634 C3632 1.395 . S
C3634 C3637 1.403 . S
C3635 C3632 1.403 . S
C3635 C3636 1.524 . S
C3635 C3639 1.400 . S
C3636 H3621 0.960 . S
C3636 H3622 0.960 . S
C3636 H3623 0.960 . S
C3636 C3635 1.524 . S
C3637 C3634 1.403 . S
C3637 C3638 1.392 . S
C3637 C3641 1.495 . S
C3638 C3637 1.392 . S
C3638 C3639 1.385 . S
C3638 C3640 1.478 . S
C3639 H3633 0.930 . S
C3639 C3635 1.400 . S
C3639 C3638 1.385 . S
C3640 C3638 1.478 . S
C3640 C3642 1.381 . S
C3640 C3646 1.383 . S
C3641 C3637 1.495 . S
C3641 H3647 0.959 . S
C3641 H3648 0.961 . S
C3641 H3649 0.960 . S
C3642 C3640 1.381 . S
C3642 C3643 1.394 . S
C3642 H3650 0.930 . S
C3643 C3642 1.394 . S
C3643 C3644 1.383 . S
C3643 H3651 0.929 . S
C3644 C3643 1.383 . S
C3644 C3645 1.377 . S
C3645 H3629 0.930 . S
C3645 C3644 1.377 . S
C3645 C3646 1.379 . S
C3646 H3630 0.931 . S
C3646 C3640 1.383 . S
C3646 C3645 1.379 . S
H3647 C3641 0.959 . S
H3648 C3641 0.961 . S
H3649 C3641 0.960 . S
H3650 C3642 0.930 . S
H3651 C3643 0.929 . S
H3652 C3660 0.929 . S
H3653 C3662 0.930 . S
H3654 C3664 0.930 . S
H3655 C3667 0.929 . S
H3656 C3670 0.930 . S
H3657 C3672 0.960 . S
H3658 C3672 0.960 . S
H3659 C3672 0.960 . S
C3660 H3652 0.929 . S
C3660 C3661 1.377 . S
C3660 C3662 1.384 . S
C3661 C3660 1.377 . S
C3661 C3667 1.390 . S
C3662 H3653 0.930 . S
C3662 C3660 1.384 . S
C3662 C3663 1.372 . S
C3663 C3662 1.372 . S
C3663 C3664 1.400 . S
C3663 C3668 1.490 . S
C3664 H3654 0.930 . S
C3664 C3663 1.400 . S
C3664 C3667 1.386 . S
H3665 C3681 0.930 . S
H3666 C3682 0.931 . S
C3667 H3655 0.929 . S
C3667 C3661 1.390 . S
C3667 C3664 1.386 . S
C3668 C3663 1.490 . S
C3668 C3670 1.395 . S
C3668 C3671 1.403 . S
H3669 C3675 0.930 . S
C3670 H3656 0.930 . S
C3670 C3668 1.395 . S
C3670 C3673 1.403 . S
C3671 C3668 1.403 . S
C3671 C3672 1.524 . S
C3671 C3675 1.400 . S
C3672 H3657 0.960 . S
C3672 H3658 0.960 . S
C3672 H3659 0.960 . S
C3672 C3671 1.524 . S
C3673 C3670 1.403 . S
C3673 C3674 1.392 . S
C3673 C3677 1.495 . S
C3674 C3673 1.392 . S
C3674 C3675 1.385 . S
C3674 C3676 1.478 . S
C3675 H3669 0.930 . S
C3675 C3671 1.400 . S
C3675 C3674 1.385 . S
C3676 C3674 1.478 . S
C3676 C3678 1.381 . S
C3676 C3682 1.383 . S
C3677 C3673 1.495 . S
C3677 H3683 0.959 . S
C3677 H3684 0.961 . S
C3677 H3685 0.960 . S
C3678 C3676 1.381 . S
C3678 C3679 1.394 . S
C3678 H3686 0.930 . S
C3679 C3678 1.394 . S
C3679 C3680 1.383 . S
C3679 H3687 0.929 . S
C3680 C3679 1.383 . S
C3680 C3681 1.377 . S
C3681 H3665 0.930 . S
C3681 C3680 1.377 . S
C3681 C3682 1.379 . S
C3682 H3666 0.931 . S
C3682 C3676 1.383 . S
C3682 C3681 1.379 . S
H3683 C3677 0.959 . S
H3684 C3677 0.961 . S
H3685 C3677 0.960 . S
H3686 C3678 0.930 . S
H3687 C3679 0.929 . S
H3688 C3696 0.929 . S
H3689 C3698 0.930 . S
H3690 C3700 0.930 . S
H3691 C3703 0.929 . S
H3692 C3706 0.930 . S
H3693 C3708 0.960 . S
H3694 C3708 0.960 . S
H3695 C3708 0.960 . S
C3696 H3688 0.929 . S
C3696 C3697 1.377 . S
C3696 C3698 1.384 . S
C3697 C3696 1.377 . S
C3697 C3703 1.390 . S
C3698 H3689 0.930 . S
C3698 C3696 1.384 . S
C3698 C3699 1.372 . S
C3699 C3698 1.372 . S
C3699 C3700 1.400 . S
C3699 C3704 1.490 . S
C3700 H3690 0.930 . S
C3700 C3699 1.400 . S
C3700 C3703 1.386 . S
H3701 C3717 0.930 . S
H3702 C3718 0.931 . S
C3703 H3691 0.929 . S
C3703 C3697 1.390 . S
C3703 C3700 1.386 . S
C3704 C3699 1.490 . S
C3704 C3706 1.395 . S
C3704 C3707 1.403 . S
H3705 C3711 0.930 . S
C3706 H3692 0.930 . S
C3706 C3704 1.395 . S
C3706 C3709 1.403 . S
C3707 C3704 1.403 . S
C3707 C3708 1.524 . S
C3707 C3711 1.400 . S
C3708 H3693 0.960 . S
C3708 H3694 0.960 . S
C3708 H3695 0.960 . S
C3708 C3707 1.524 . S
C3709 C3706 1.403 . S
C3709 C3710 1.392 . S
C3709 C3713 1.495 . S
C3710 C3709 1.392 . S
C3710 C3711 1.385 . S
C3710 C3712 1.478 . S
C3711 H3705 0.930 . S
C3711 C3707 1.400 . S
C3711 C3710 1.385 . S
C3712 C3710 1.478 . S
C3712 C3714 1.381 . S
C3712 C3718 1.383 . S
C3713 C3709 1.495 . S
C3713 H3719 0.959 . S
C3713 H3720 0.961 . S
C3713 H3721 0.960 . S
C3714 C3712 1.381 . S
C3714 C3715 1.394 . S
C3714 H3722 0.930 . S
C3715 C3714 1.394 . S
C3715 C3716 1.383 . S
C3715 H3723 0.929 . S
C3716 C3715 1.383 . S
C3716 C3717 1.377 . S
C3717 H3701 0.930 . S
C3717 C3716 1.377 . S
C3717 C3718 1.379 . S
C3718 H3702 0.931 . S
C3718 C3712 1.383 . S
C3718 C3717 1.379 . S
H3719 C3713 0.959 . S
H3720 C3713 0.961 . S
H3721 C3713 0.960 . S
H3722 C3714 0.930 . S
H3723 C3715 0.929 . S
H3724 C3732 0.929 . S
H3725 C3734 0.930 . S
H3726 C3736 0.930 . S
H3727 C3739 0.929 . S
H3728 C3742 0.930 . S
H3729 C3744 0.960 . S
H3730 C3744 0.960 . S
H3731 C3744 0.960 . S
C3732 H3724 0.929 . S
C3732 C3733 1.377 . S
C3732 C3734 1.384 . S
C3733 C3732 1.377 . S
C3733 C3739 1.390 . S
C3734 H3725 0.930 . S
C3734 C3732 1.384 . S
C3734 C3735 1.372 . S
C3735 C3734 1.372 . S
C3735 C3736 1.400 . S
C3735 C3740 1.490 . S
C3736 H3726 0.930 . S
C3736 C3735 1.400 . S
C3736 C3739 1.386 . S
H3737 C3753 0.930 . S
H3738 C3754 0.931 . S
C3739 H3727 0.929 . S
C3739 C3733 1.390 . S
C3739 C3736 1.386 . S
C3740 C3735 1.490 . S
C3740 C3742 1.395 . S
C3740 C3743 1.403 . S
H3741 C3747 0.930 . S
C3742 H3728 0.930 . S
C3742 C3740 1.395 . S
C3742 C3745 1.403 . S
C3743 C3740 1.403 . S
C3743 C3744 1.524 . S
C3743 C3747 1.400 . S
C3744 H3729 0.960 . S
C3744 H3730 0.960 . S
C3744 H3731 0.960 . S
C3744 C3743 1.524 . S
C3745 C3742 1.403 . S
C3745 C3746 1.392 . S
C3745 C3749 1.495 . S
C3746 C3745 1.392 . S
C3746 C3747 1.385 . S
C3746 C3748 1.478 . S
C3747 H3741 0.930 . S
C3747 C3743 1.400 . S
C3747 C3746 1.385 . S
C3748 C3746 1.478 . S
C3748 C3750 1.381 . S
C3748 C3754 1.383 . S
C3749 C3745 1.495 . S
C3749 H3755 0.959 . S
C3749 H3756 0.961 . S
C3749 H3757 0.960 . S
C3750 C3748 1.381 . S
C3750 C3751 1.394 . S
C3750 H3758 0.930 . S
C3751 C3750 1.394 . S
C3751 C3752 1.383 . S
C3751 H3759 0.929 . S
C3752 C3751 1.383 . S
C3752 C3753 1.377 . S
C3753 H3737 0.930 . S
C3753 C3752 1.377 . S
C3753 C3754 1.379 . S
C3754 H3738 0.931 . S
C3754 C3748 1.383 . S
C3754 C3753 1.379 . S
H3755 C3749 0.959 . S
H3756 C3749 0.961 . S
H3757 C3749 0.960 . S
H3758 C3750 0.930 . S
H3759 C3751 0.929 . S
H3760 C3768 0.929 . S
H3761 C3770 0.930 . S
H3762 C3772 0.930 . S
H3763 C3775 0.929 . S
H3764 C3778 0.930 . S
H3765 C3780 0.960 . S
H3766 C3780 0.960 . S
H3767 C3780 0.960 . S
C3768 H3760 0.929 . S
C3768 C3769 1.377 . S
C3768 C3770 1.384 . S
C3769 C3768 1.377 . S
C3769 C3775 1.390 . S
C3770 H3761 0.930 . S
C3770 C3768 1.384 . S
C3770 C3771 1.372 . S
C3771 C3770 1.372 . S
C3771 C3772 1.400 . S
C3771 C3776 1.490 . S
C3772 H3762 0.930 . S
C3772 C3771 1.400 . S
C3772 C3775 1.386 . S
H3773 C3789 0.930 . S
H3774 C3790 0.931 . S
C3775 H3763 0.929 . S
C3775 C3769 1.390 . S
C3775 C3772 1.386 . S
C3776 C3771 1.490 . S
C3776 C3778 1.395 . S
C3776 C3779 1.403 . S
H3777 C3783 0.930 . S
C3778 H3764 0.930 . S
C3778 C3776 1.395 . S
C3778 C3781 1.403 . S
C3779 C3776 1.403 . S
C3779 C3780 1.524 . S
C3779 C3783 1.400 . S
C3780 H3765 0.960 . S
C3780 H3766 0.960 . S
C3780 H3767 0.960 . S
C3780 C3779 1.524 . S
C3781 C3778 1.403 . S
C3781 C3782 1.392 . S
C3781 C3785 1.495 . S
C3782 C3781 1.392 . S
C3782 C3783 1.385 . S
C3782 C3784 1.478 . S
C3783 H3777 0.930 . S
C3783 C3779 1.400 . S
C3783 C3782 1.385 . S
C3784 C3782 1.478 . S
C3784 C3786 1.381 . S
C3784 C3790 1.383 . S
C3785 C3781 1.495 . S
C3785 H3791 0.959 . S
C3785 H3792 0.961 . S
C3785 H3793 0.960 . S
C3786 C3784 1.381 . S
C3786 C3787 1.394 . S
C3786 H3794 0.930 . S
C3787 C3786 1.394 . S
C3787 C3788 1.383 . S
C3787 H3795 0.929 . S
C3788 C3787 1.383 . S
C3788 C3789 1.377 . S
C3789 H3773 0.930 . S
C3789 C3788 1.377 . S
C3789 C3790 1.379 . S
C3790 H3774 0.931 . S
C3790 C3784 1.383 . S
C3790 C3789 1.379 . S
H3791 C3785 0.959 . S
H3792 C3785 0.961 . S
H3793 C3785 0.960 . S
H3794 C3786 0.930 . S
H3795 C3787 0.929 . S
H3796 C3804 0.929 . S
H3797 C3806 0.930 . S
H3798 C3808 0.930 . S
H3799 C3811 0.929 . S
H3800 C3814 0.930 . S
H3801 C3816 0.960 . S
H3802 C3816 0.960 . S
H3803 C3816 0.960 . S
C3804 H3796 0.929 . S
C3804 C3805 1.377 . S
C3804 C3806 1.384 . S
C3805 C3804 1.377 . S
C3805 C3811 1.390 . S
C3806 H3797 0.930 . S
C3806 C3804 1.384 . S
C3806 C3807 1.372 . S
C3807 C3806 1.372 . S
C3807 C3808 1.400 . S
C3807 C3812 1.490 . S
C3808 H3798 0.930 . S
C3808 C3807 1.400 . S
C3808 C3811 1.386 . S
H3809 C3825 0.930 . S
H3810 C3826 0.931 . S
C3811 H3799 0.929 . S
C3811 C3805 1.390 . S
C3811 C3808 1.386 . S
C3812 C3807 1.490 . S
C3812 C3814 1.395 . S
C3812 C3815 1.403 . S
H3813 C3819 0.930 . S
C3814 H3800 0.930 . S
C3814 C3812 1.395 . S
C3814 C3817 1.403 . S
C3815 C3812 1.403 . S
C3815 C3816 1.524 . S
C3815 C3819 1.400 . S
C3816 H3801 0.960 . S
C3816 H3802 0.960 . S
C3816 H3803 0.960 . S
C3816 C3815 1.524 . S
C3817 C3814 1.403 . S
C3817 C3818 1.392 . S
C3817 C3821 1.495 . S
C3818 C3817 1.392 . S
C3818 C3819 1.385 . S
C3818 C3820 1.478 . S
C3819 H3813 0.930 . S
C3819 C3815 1.400 . S
C3819 C3818 1.385 . S
C3820 C3818 1.478 . S
C3820 C3822 1.381 . S
C3820 C3826 1.383 . S
C3821 C3817 1.495 . S
C3821 H3827 0.959 . S
C3821 H3828 0.961 . S
C3821 H3829 0.960 . S
C3822 C3820 1.381 . S
C3822 C3823 1.394 . S
C3822 H3830 0.930 . S
C3823 C3822 1.394 . S
C3823 C3824 1.383 . S
C3823 H3831 0.929 . S
C3824 C3823 1.383 . S
C3824 C3825 1.377 . S
C3825 H3809 0.930 . S
C3825 C3824 1.377 . S
C3825 C3826 1.379 . S
C3826 H3810 0.931 . S
C3826 C3820 1.383 . S
C3826 C3825 1.379 . S
H3827 C3821 0.959 . S
H3828 C3821 0.961 . S
H3829 C3821 0.960 . S
H3830 C3822 0.930 . S
H3831 C3823 0.929 . S
H3832 C3840 0.929 . S
H3833 C3842 0.930 . S
H3834 C3844 0.930 . S
H3835 C3847 0.929 . S
H3836 C3850 0.930 . S
H3837 C3852 0.960 . S
H3838 C3852 0.960 . S
H3839 C3852 0.960 . S
C3840 H3832 0.929 . S
C3840 C3841 1.377 . S
C3840 C3842 1.384 . S
C3841 C3840 1.377 . S
C3841 C3847 1.390 . S
C3842 H3833 0.930 . S
C3842 C3840 1.384 . S
C3842 C3843 1.372 . S
C3843 C3842 1.372 . S
C3843 C3844 1.400 . S
C3843 C3848 1.490 . S
C3844 H3834 0.930 . S
C3844 C3843 1.400 . S
C3844 C3847 1.386 . S
H3845 C3861 0.930 . S
H3846 C3862 0.931 . S
C3847 H3835 0.929 . S
C3847 C3841 1.390 . S
C3847 C3844 1.386 . S
C3848 C3843 1.490 . S
C3848 C3850 1.395 . S
C3848 C3851 1.403 . S
H3849 C3855 0.930 . S
C3850 H3836 0.930 . S
C3850 C3848 1.395 . S
C3850 C3853 1.403 . S
C3851 C3848 1.403 . S
C3851 C3852 1.524 . S
C3851 C3855 1.400 . S
C3852 H3837 0.960 . S
C3852 H3838 0.960 . S
C3852 H3839 0.960 . S
C3852 C3851 1.524 . S
C3853 C3850 1.403 . S
C3853 C3854 1.392 . S
C3853 C3857 1.495 . S
C3854 C3853 1.392 . S
C3854 C3855 1.385 . S
C3854 C3856 1.478 . S
C3855 H3849 0.930 . S
C3855 C3851 1.400 . S
C3855 C3854 1.385 . S
C3856 C3854 1.478 . S
C3856 C3858 1.381 . S
C3856 C3862 1.383 . S
C3857 C3853 1.495 . S
C3857 H3863 0.959 . S
C3857 H3864 0.961 . S
C3857 H3865 0.960 . S
C3858 C3856 1.381 . S
C3858 C3859 1.394 . S
C3858 H3866 0.930 . S
C3859 C3858 1.394 . S
C3859 C3860 1.383 . S
C3859 H3867 0.929 . S
C3860 C3859 1.383 . S
C3860 C3861 1.377 . S
C3861 H3845 0.930 . S
C3861 C3860 1.377 . S
C3861 C3862 1.379 . S
C3862 H3846 0.931 . S
C3862 C3856 1.383 . S
C3862 C3861 1.379 . S
H3863 C3857 0.959 . S
H3864 C3857 0.961 . S
H3865 C3857 0.960 . S
H3866 C3858 0.930 . S
H3867 C3859 0.929 . S
H3868 C3876 0.929 . S
H3869 C3878 0.930 . S
H3870 C3880 0.930 . S
H3871 C3883 0.929 . S
H3872 C3886 0.930 . S
H3873 C3888 0.960 . S
H3874 C3888 0.960 . S
H3875 C3888 0.960 . S
C3876 H3868 0.929 . S
C3876 C3877 1.377 . S
C3876 C3878 1.384 . S
C3877 C3876 1.377 . S
C3877 C3883 1.390 . S
C3878 H3869 0.930 . S
C3878 C3876 1.384 . S
C3878 C3879 1.372 . S
C3879 C3878 1.372 . S
C3879 C3880 1.400 . S
C3879 C3884 1.490 . S
C3880 H3870 0.930 . S
C3880 C3879 1.400 . S
C3880 C3883 1.386 . S
H3881 C3897 0.930 . S
H3882 C3898 0.931 . S
C3883 H3871 0.929 . S
C3883 C3877 1.390 . S
C3883 C3880 1.386 . S
C3884 C3879 1.490 . S
C3884 C3886 1.395 . S
C3884 C3887 1.403 . S
H3885 C3891 0.930 . S
C3886 H3872 0.930 . S
C3886 C3884 1.395 . S
C3886 C3889 1.403 . S
C3887 C3884 1.403 . S
C3887 C3888 1.524 . S
C3887 C3891 1.400 . S
C3888 H3873 0.960 . S
C3888 H3874 0.960 . S
C3888 H3875 0.960 . S
C3888 C3887 1.524 . S
C3889 C3886 1.403 . S
C3889 C3890 1.392 . S
C3889 C3893 1.495 . S
C3890 C3889 1.392 . S
C3890 C3891 1.385 . S
C3890 C3892 1.478 . S
C3891 H3885 0.930 . S
C3891 C3887 1.400 . S
C3891 C3890 1.385 . S
C3892 C3890 1.478 . S
C3892 C3894 1.381 . S
C3892 C3898 1.383 . S
C3893 C3889 1.495 . S
C3893 H3899 0.959 . S
C3893 H3900 0.961 . S
C3893 H3901 0.960 . S
C3894 C3892 1.381 . S
C3894 C3895 1.394 . S
C3894 H3902 0.930 . S
C3895 C3894 1.394 . S
C3895 C3896 1.383 . S
C3895 H3903 0.929 . S
C3896 C3895 1.383 . S
C3896 C3897 1.377 . S
C3897 H3881 0.930 . S
C3897 C3896 1.377 . S
C3897 C3898 1.379 . S
C3898 H3882 0.931 . S
C3898 C3892 1.383 . S
C3898 C3897 1.379 . S
H3899 C3893 0.959 . S
H3900 C3893 0.961 . S
H3901 C3893 0.960 . S
H3902 C3894 0.930 . S
H3903 C3895 0.929 . S
H3904 C3912 0.929 . S
H3905 C3914 0.930 . S
H3906 C3916 0.930 1_455 S
H3907 C3919 0.929 . S
H3908 C3922 0.930 . S
H3909 C3924 0.960 . S
H3910 C3924 0.960 . S
H3911 C3924 0.960 . S
C3912 H3904 0.929 . S
C3912 C3913 1.377 . S
C3912 C3914 1.384 . S
C3913 C3912 1.377 . S
C3913 C3919 1.390 . S
C3914 H3905 0.930 . S
C3914 C3912 1.384 . S
C3914 C3915 1.372 . S
C3915 C3914 1.372 . S
C3915 C3916 1.400 . S
C3915 C3920 1.490 . S
C3916 H3906 0.930 1_655 S
C3916 C3915 1.400 . S
C3916 C3919 1.386 . S
H3917 C3933 0.930 . S
H3918 C3934 0.931 . S
C3919 H3907 0.929 . S
C3919 C3913 1.390 . S
C3919 C3916 1.386 . S
C3920 C3915 1.490 . S
C3920 C3922 1.395 . S
C3920 C3923 1.403 1_655 S
H3921 C3927 0.930 . S
C3922 H3908 0.930 . S
C3922 C3920 1.395 . S
C3922 C3925 1.403 . S
C3923 C3920 1.403 1_455 S
C3923 C3924 1.524 . S
C3923 C3927 1.400 . S
C3924 H3909 0.960 . S
C3924 H3910 0.960 . S
C3924 H3911 0.960 . S
C3924 C3923 1.524 . S
C3925 C3922 1.403 . S
C3925 C3926 1.392 . S
C3925 C3929 1.495 . S
C3926 C3925 1.392 . S
C3926 C3927 1.385 1_655 S
C3926 C3928 1.478 1_655 S
C3927 H3921 0.930 . S
C3927 C3923 1.400 . S
C3927 C3926 1.385 1_455 S
C3928 C3926 1.478 1_455 S
C3928 C3930 1.381 1_455 S
C3928 C3934 1.383 . S
C3929 C3925 1.495 . S
C3929 H3935 0.959 . S
C3929 H3936 0.961 . S
C3929 H3937 0.960 . S
C3930 C3928 1.381 1_655 S
C3930 C3931 1.406 . S
C3930 H3938 0.930 . S
C3931 C3930 1.406 . S
C3931 C3932 1.345 1_655 S
C3931 H3939 0.958 . S
C3932 C3931 1.345 1_455 S
C3932 C3933 1.377 . S
C3933 H3917 0.930 . S
C3933 C3932 1.377 . S
C3933 C3934 1.379 . S
C3934 H3918 0.931 . S
C3934 C3928 1.383 . S
C3934 C3933 1.379 . S
H3935 C3929 0.959 . S
H3936 C3929 0.961 . S
H3937 C3929 0.960 . S
H3938 C3930 0.930 . S
H3939 C3931 0.958 . S
H3940 C3948 0.929 . S
H3941 C3950 0.930 . S
H3942 C3952 0.930 . S
H3943 C3955 0.929 . S
H3944 C3958 0.930 . S
H3945 C3960 0.960 . S
H3946 C3960 0.960 . S
H3947 C3960 0.960 . S
C3948 H3940 0.929 . S
C3948 C3949 1.377 . S
C3948 C3950 1.384 . S
C3949 C3948 1.377 . S
C3949 C3955 1.390 . S
C3950 H3941 0.930 . S
C3950 C3948 1.384 . S
C3950 C3951 1.372 . S
C3951 C3950 1.372 . S
C3951 C3952 1.400 . S
C3951 C3956 1.490 . S
C3952 H3942 0.930 . S
C3952 C3951 1.400 . S
C3952 C3955 1.386 . S
H3953 C3969 0.930 . S
H3954 C3970 0.931 . S
C3955 H3943 0.929 . S
C3955 C3949 1.390 . S
C3955 C3952 1.386 . S
C3956 C3951 1.490 . S
C3956 C3958 1.395 . S
C3956 C3959 1.403 . S
H3957 C3963 0.930 . S
C3958 H3944 0.930 . S
C3958 C3956 1.395 . S
C3958 C3961 1.403 . S
C3959 C3956 1.403 . S
C3959 C3960 1.524 . S
C3959 C3963 1.400 . S
C3960 H3945 0.960 . S
C3960 H3946 0.960 . S
C3960 H3947 0.960 . S
C3960 C3959 1.524 . S
C3961 C3958 1.403 . S
C3961 C3962 1.392 . S
C3961 C3965 1.495 . S
C3962 C3961 1.392 . S
C3962 C3963 1.385 . S
C3962 C3964 1.478 . S
C3963 H3957 0.930 . S
C3963 C3959 1.400 . S
C3963 C3962 1.385 . S
C3964 C3962 1.478 . S
C3964 C3966 1.381 . S
C3964 C3970 1.383 . S
C3965 C3961 1.495 . S
C3965 H3971 0.959 . S
C3965 H3972 0.961 . S
C3965 H3973 0.960 . S
C3966 C3964 1.381 . S
C3966 C3967 1.394 . S
C3966 H3974 0.930 . S
C3967 C3966 1.394 . S
C3967 C3968 1.383 . S
C3967 H3975 0.929 . S
C3968 C3967 1.383 . S
C3968 C3969 1.377 . S
C3969 H3953 0.930 . S
C3969 C3968 1.377 . S
C3969 C3970 1.379 . S
C3970 H3954 0.931 . S
C3970 C3964 1.383 . S
C3970 C3969 1.379 . S
H3971 C3965 0.959 . S
H3972 C3965 0.961 . S
H3973 C3965 0.960 . S
H3974 C3966 0.930 . S
H3975 C3967 0.929 . S
H3976 C3984 0.929 . S
H3977 C3986 0.930 . S
H3978 C3988 0.930 . S
H3979 C3991 0.929 . S
H3980 C3994 0.930 . S
H3981 C3996 0.960 . S
H3982 C3996 0.960 . S
H3983 C3996 0.960 . S
C3984 H3976 0.929 . S
C3984 C3985 1.377 . S
C3984 C3986 1.384 . S
C3985 C3984 1.377 . S
C3985 C3991 1.390 . S
C3986 H3977 0.930 . S
C3986 C3984 1.384 . S
C3986 C3987 1.372 . S
C3987 C3986 1.372 . S
C3987 C3988 1.400 . S
C3987 C3992 1.490 . S
C3988 H3978 0.930 . S
C3988 C3987 1.400 . S
C3988 C3991 1.386 . S
H3989 C4005 0.930 . S
H3990 C4006 0.931 . S
C3991 H3979 0.929 . S
C3991 C3985 1.390 . S
C3991 C3988 1.386 . S
C3992 C3987 1.490 . S
C3992 C3994 1.395 . S
C3992 C3995 1.403 . S
H3993 C3999 0.930 . S
C3994 H3980 0.930 . S
C3994 C3992 1.395 . S
C3994 C3997 1.403 . S
C3995 C3992 1.403 . S
C3995 C3996 1.524 . S
C3995 C3999 1.400 . S
C3996 H3981 0.960 . S
C3996 H3982 0.960 . S
C3996 H3983 0.960 . S
C3996 C3995 1.524 . S
C3997 C3994 1.403 . S
C3997 C3998 1.392 . S
C3997 C4001 1.495 . S
C3998 C3997 1.392 . S
C3998 C3999 1.385 . S
C3998 C4000 1.478 . S
C3999 H3993 0.930 . S
C3999 C3995 1.400 . S
C3999 C3998 1.385 . S
C4000 C3998 1.478 . S
C4000 C4002 1.381 . S
C4000 C4006 1.383 . S
C4001 C3997 1.495 . S
C4001 H4007 0.959 . S
C4001 H4008 0.961 . S
C4001 H4009 0.960 . S
C4002 C4000 1.381 . S
C4002 C4003 1.394 . S
C4002 H4010 0.930 . S
C4003 C4002 1.394 . S
C4003 C4004 1.383 . S
C4003 H4011 0.929 . S
C4004 C4003 1.383 . S
C4004 C4005 1.377 . S
C4005 H3989 0.930 . S
C4005 C4004 1.377 . S
C4005 C4006 1.379 . S
C4006 H3990 0.931 . S
C4006 C4000 1.383 . S
C4006 C4005 1.379 . S
H4007 C4001 0.959 . S
H4008 C4001 0.961 . S
H4009 C4001 0.960 . S
H4010 C4002 0.930 . S
H4011 C4003 0.929 . S
H4012 C4020 0.929 . S
H4013 C4022 0.930 . S
H4014 C4024 0.930 . S
H4015 C4027 0.929 . S
H4016 C4030 0.930 . S
H4017 C4032 0.960 . S
H4018 C4032 0.960 . S
H4019 C4032 0.960 . S
C4020 H4012 0.929 . S
C4020 C4021 1.377 . S
C4020 C4022 1.384 . S
C4021 C4020 1.377 . S
C4021 C4027 1.390 . S
C4022 H4013 0.930 . S
C4022 C4020 1.384 . S
C4022 C4023 1.372 . S
C4023 C4022 1.372 . S
C4023 C4024 1.400 . S
C4023 C4028 1.490 . S
C4024 H4014 0.930 . S
C4024 C4023 1.400 . S
C4024 C4027 1.386 . S
H4025 C4041 0.930 . S
H4026 C4042 0.931 . S
C4027 H4015 0.929 . S
C4027 C4021 1.390 . S
C4027 C4024 1.386 . S
C4028 C4023 1.490 . S
C4028 C4030 1.395 . S
C4028 C4031 1.403 . S
H4029 C4035 0.930 . S
C4030 H4016 0.930 . S
C4030 C4028 1.395 . S
C4030 C4033 1.403 . S
C4031 C4028 1.403 . S
C4031 C4032 1.524 . S
C4031 C4035 1.400 . S
C4032 H4017 0.960 . S
C4032 H4018 0.960 . S
C4032 H4019 0.960 . S
C4032 C4031 1.524 . S
C4033 C4030 1.403 . S
C4033 C4034 1.392 . S
C4033 C4037 1.495 . S
C4034 C4033 1.392 . S
C4034 C4035 1.385 . S
C4034 C4036 1.478 . S
C4035 H4029 0.930 . S
C4035 C4031 1.400 . S
C4035 C4034 1.385 . S
C4036 C4034 1.478 . S
C4036 C4038 1.381 . S
C4036 C4042 1.383 . S
C4037 C4033 1.495 . S
C4037 H4043 0.959 . S
C4037 H4044 0.961 . S
C4037 H4045 0.960 . S
C4038 C4036 1.381 . S
C4038 C4039 1.394 . S
C4038 H4046 0.930 . S
C4039 C4038 1.394 . S
C4039 C4040 1.383 . S
C4039 H4047 0.929 . S
C4040 C4039 1.383 . S
C4040 C4041 1.377 . S
C4041 H4025 0.930 . S
C4041 C4040 1.377 . S
C4041 C4042 1.379 . S
C4042 H4026 0.931 . S
C4042 C4036 1.383 . S
C4042 C4041 1.379 . S
H4043 C4037 0.959 . S
H4044 C4037 0.961 . S
H4045 C4037 0.960 . S
H4046 C4038 0.930 . S
H4047 C4039 0.929 . S
H4048 C4056 0.929 . S
H4049 C4058 0.930 . S
H4050 C4060 0.920 1_455 S
H4051 C4063 0.929 . S
H4052 C4066 0.930 . S
H4053 C4068 0.960 . S
H4054 C4068 0.960 . S
H4055 C4068 0.960 . S
C4056 H4048 0.929 . S
C4056 C4057 1.377 . S
C4056 C4058 1.384 . S
C4057 C4056 1.377 . S
C4057 C4063 1.390 . S
C4058 H4049 0.930 . S
C4058 C4056 1.384 . S
C4058 C4059 1.372 . S
C4059 C4058 1.372 . S
C4059 C4060 1.400 . S
C4059 C4064 1.490 . S
C4060 H4050 0.920 1_655 S
C4060 C4059 1.400 . S
C4060 C4063 1.386 . S
H4061 C4077 0.930 . S
H4062 C4078 0.944 . S
C4063 H4051 0.929 . S
C4063 C4057 1.390 . S
C4063 C4060 1.386 . S
C4064 C4059 1.490 . S
C4064 C4066 1.395 . S
C4064 C4067 1.403 . S
H4065 C4071 0.930 . S
C4066 H4052 0.930 . S
C4066 C4064 1.395 . S
C4066 C4069 1.403 . S
C4067 C4064 1.403 . S
C4067 C4068 1.524 . S
C4067 C4071 1.400 . S
C4068 H4053 0.960 . S
C4068 H4054 0.960 . S
C4068 H4055 0.960 . S
C4068 C4067 1.524 . S
C4069 C4066 1.403 . S
C4069 C4070 1.392 . S
C4069 C4073 1.495 . S
C4070 C4069 1.392 . S
C4070 C4071 1.385 . S
C4070 C4072 1.478 . S
C4071 H4065 0.930 . S
C4071 C4067 1.400 . S
C4071 C4070 1.385 . S
C4072 C4070 1.478 . S
C4072 C4074 1.381 . S
C4072 C4078 1.364 1_655 S
C4073 C4069 1.495 . S
C4073 H4079 0.959 . S
C4073 H4080 0.961 . S
C4073 H4081 0.960 . S
C4074 C4072 1.381 . S
C4074 C4075 1.394 . S
C4074 H4082 0.930 . S
C4075 C4074 1.394 . S
C4075 C4076 1.383 . S
C4075 H4083 0.929 . S
C4076 C4075 1.383 . S
C4076 C4077 1.377 1_655 S
C4077 H4061 0.930 . S
C4077 C4076 1.377 1_455 S
C4077 C4078 1.385 . S
C4078 H4062 0.944 . S
C4078 C4072 1.364 1_455 S
C4078 C4077 1.385 . S
H4079 C4073 0.959 . S
H4080 C4073 0.961 . S
H4081 C4073 0.960 . S
H4082 C4074 0.930 . S
H4083 C4075 0.929 . S
H4084 C4092 0.929 . S
H4085 C4094 0.930 . S
H4086 C4096 0.930 . S
H4087 C4099 0.929 . S
H4088 C4102 0.930 . S
H4089 C4104 0.960 . S
H4090 C4104 0.960 . S
H4091 C4104 0.960 . S
C4092 H4084 0.929 . S
C4092 C4093 1.377 . S
C4092 C4094 1.384 . S
C4093 C4092 1.377 . S
C4093 C4099 1.390 . S
C4094 H4085 0.930 . S
C4094 C4092 1.384 . S
C4094 C4095 1.372 . S
C4095 C4094 1.372 . S
C4095 C4096 1.400 . S
C4095 C4100 1.490 . S
C4096 H4086 0.930 . S
C4096 C4095 1.400 . S
C4096 C4099 1.386 . S
H4097 C4113 0.930 . S
H4098 C4114 0.931 . S
C4099 H4087 0.929 . S
C4099 C4093 1.390 . S
C4099 C4096 1.386 . S
C4100 C4095 1.490 . S
C4100 C4102 1.395 . S
C4100 C4103 1.403 . S
H4101 C4107 0.930 . S
C4102 H4088 0.930 . S
C4102 C4100 1.395 . S
C4102 C4105 1.403 . S
C4103 C4100 1.403 . S
C4103 C4104 1.524 . S
C4103 C4107 1.400 . S
C4104 H4089 0.960 . S
C4104 H4090 0.960 . S
C4104 H4091 0.960 . S
C4104 C4103 1.524 . S
C4105 C4102 1.403 . S
C4105 C4106 1.392 . S
C4105 C4109 1.495 . S
C4106 C4105 1.392 . S
C4106 C4107 1.385 . S
C4106 C4108 1.478 . S
C4107 H4101 0.930 . S
C4107 C4103 1.400 . S
C4107 C4106 1.385 . S
C4108 C4106 1.478 . S
C4108 C4110 1.381 . S
C4108 C4114 1.383 . S
C4109 C4105 1.495 . S
C4109 H4115 0.959 . S
C4109 H4116 0.961 . S
C4109 H4117 0.960 . S
C4110 C4108 1.381 . S
C4110 C4111 1.394 . S
C4110 H4118 0.930 . S
C4111 C4110 1.394 . S
C4111 C4112 1.383 . S
C4111 H4119 0.929 . S
C4112 C4111 1.383 . S
C4112 C4113 1.377 . S
C4113 H4097 0.930 . S
C4113 C4112 1.377 . S
C4113 C4114 1.379 . S
C4114 H4098 0.931 . S
C4114 C4108 1.383 . S
C4114 C4113 1.379 . S
H4115 C4109 0.959 . S
H4116 C4109 0.961 . S
H4117 C4109 0.960 . S
H4118 C4110 0.930 . S
H4119 C4111 0.929 . S
H4120 C4128 0.929 . S
H4121 C4130 0.930 . S
H4122 C4132 0.930 . S
H4123 C4135 0.929 . S
H4124 C4138 0.930 . S
H4125 C4140 0.960 . S
H4126 C4140 0.960 . S
H4127 C4140 0.960 . S
C4128 H4120 0.929 . S
C4128 C4129 1.377 . S
C4128 C4130 1.384 . S
C4129 C4128 1.377 . S
C4129 C4135 1.390 . S
C4130 H4121 0.930 . S
C4130 C4128 1.384 . S
C4130 C4131 1.372 . S
C4131 C4130 1.372 . S
C4131 C4132 1.400 . S
C4131 C4136 1.490 . S
C4132 H4122 0.930 . S
C4132 C4131 1.400 . S
C4132 C4135 1.386 . S
H4133 C4149 0.930 . S
H4134 C4150 0.931 . S
C4135 H4123 0.929 . S
C4135 C4129 1.390 . S
C4135 C4132 1.386 . S
C4136 C4131 1.490 . S
C4136 C4138 1.395 . S
C4136 C4139 1.403 . S
H4137 C4143 0.930 . S
C4138 H4124 0.930 . S
C4138 C4136 1.395 . S
C4138 C4141 1.403 . S
C4139 C4136 1.403 . S
C4139 C4140 1.524 . S
C4139 C4143 1.400 . S
C4140 H4125 0.960 . S
C4140 H4126 0.960 . S
C4140 H4127 0.960 . S
C4140 C4139 1.524 . S
C4141 C4138 1.403 . S
C4141 C4142 1.392 . S
C4141 C4145 1.495 . S
C4142 C4141 1.392 . S
C4142 C4143 1.385 . S
C4142 C4144 1.478 . S
C4143 H4137 0.930 . S
C4143 C4139 1.400 . S
C4143 C4142 1.385 . S
C4144 C4142 1.478 . S
C4144 C4146 1.381 . S
C4144 C4150 1.383 . S
C4145 C4141 1.495 . S
C4145 H4151 0.959 . S
C4145 H4152 0.961 . S
C4145 H4153 0.960 . S
C4146 C4144 1.381 . S
C4146 C4147 1.394 . S
C4146 H4154 0.930 . S
C4147 C4146 1.394 . S
C4147 C4148 1.383 . S
C4147 H4155 0.929 . S
C4148 C4147 1.383 . S
C4148 C4149 1.377 . S
C4149 H4133 0.930 . S
C4149 C4148 1.377 . S
C4149 C4150 1.379 . S
C4150 H4134 0.931 . S
C4150 C4144 1.383 . S
C4150 C4149 1.379 . S
H4151 C4145 0.959 . S
H4152 C4145 0.961 . S
H4153 C4145 0.960 . S
H4154 C4146 0.930 . S
H4155 C4147 0.929 . S
H4156 C4164 0.929 . S
H4157 C4166 0.930 . S
H4158 C4168 0.930 . S
H4159 C4171 0.929 . S
H4160 C4174 0.930 . S
H4161 C4176 0.960 . S
H4162 C4176 0.960 . S
H4163 C4176 0.960 . S
C4164 H4156 0.929 . S
C4164 C4165 1.377 . S
C4164 C4166 1.384 . S
C4165 C4164 1.377 . S
C4165 C4171 1.390 . S
C4166 H4157 0.930 . S
C4166 C4164 1.384 . S
C4166 C4167 1.372 . S
C4167 C4166 1.372 . S
C4167 C4168 1.400 . S
C4167 C4172 1.490 . S
C4168 H4158 0.930 . S
C4168 C4167 1.400 . S
C4168 C4171 1.386 . S
H4169 C4185 0.930 . S
H4170 C4186 0.931 . S
C4171 H4159 0.929 . S
C4171 C4165 1.390 . S
C4171 C4168 1.386 . S
C4172 C4167 1.490 . S
C4172 C4174 1.395 . S
C4172 C4175 1.403 . S
H4173 C4179 0.930 . S
C4174 H4160 0.930 . S
C4174 C4172 1.395 . S
C4174 C4177 1.403 . S
C4175 C4172 1.403 . S
C4175 C4176 1.524 . S
C4175 C4179 1.400 . S
C4176 H4161 0.960 . S
C4176 H4162 0.960 . S
C4176 H4163 0.960 . S
C4176 C4175 1.524 . S
C4177 C4174 1.403 . S
C4177 C4178 1.392 . S
C4177 C4181 1.495 . S
C4178 C4177 1.392 . S
C4178 C4179 1.385 . S
C4178 C4180 1.478 . S
C4179 H4173 0.930 . S
C4179 C4175 1.400 . S
C4179 C4178 1.385 . S
C4180 C4178 1.478 . S
C4180 C4182 1.381 . S
C4180 C4186 1.383 . S
C4181 C4177 1.495 . S
C4181 H4187 0.984 . S
C4181 H4188 0.962 1_565 S
C4181 H4189 0.944 1_565 S
C4182 C4180 1.381 . S
C4182 C4183 1.394 . S
C4182 H4190 0.930 . S
C4183 C4182 1.394 . S
C4183 C4184 1.383 . S
C4183 H4191 0.914 1_565 S
C4184 C4183 1.383 . S
C4184 C4185 1.377 . S
C4185 H4169 0.930 . S
C4185 C4184 1.377 . S
C4185 C4186 1.379 . S
C4186 H4170 0.931 . S
C4186 C4180 1.383 . S
C4186 C4185 1.379 . S
H4187 C4181 0.984 . S
H4188 C4181 0.962 1_545 S
H4189 C4181 0.944 1_545 S
H4190 C4182 0.930 . S
H4191 C4183 0.914 1_545 S
H4192 C4200 0.929 . S
H4193 C4202 0.930 . S
H4194 C4204 0.930 . S
H4195 C4207 0.929 . S
H4196 C4210 0.930 . S
H4197 C4212 0.960 . S
H4198 C4212 0.960 . S
H4199 C4212 0.960 . S
C4200 H4192 0.929 . S
C4200 C4201 1.377 . S
C4200 C4202 1.384 . S
C4201 C4200 1.377 . S
C4201 C4207 1.390 . S
C4202 H4193 0.930 . S
C4202 C4200 1.384 . S
C4202 C4203 1.372 . S
C4203 C4202 1.372 . S
C4203 C4204 1.400 . S
C4203 C4208 1.490 . S
C4204 H4194 0.930 . S
C4204 C4203 1.400 . S
C4204 C4207 1.386 . S
H4205 C4221 0.930 . S
H4206 C4222 0.931 . S
C4207 H4195 0.929 . S
C4207 C4201 1.390 . S
C4207 C4204 1.386 . S
C4208 C4203 1.490 . S
C4208 C4210 1.395 . S
C4208 C4211 1.403 . S
H4209 C4215 0.930 . S
C4210 H4196 0.930 . S
C4210 C4208 1.395 . S
C4210 C4213 1.403 . S
C4211 C4208 1.403 . S
C4211 C4212 1.524 . S
C4211 C4215 1.400 . S
C4212 H4197 0.960 . S
C4212 H4198 0.960 . S
C4212 H4199 0.960 . S
C4212 C4211 1.524 . S
C4213 C4210 1.403 . S
C4213 C4214 1.392 . S
C4213 C4217 1.495 . S
C4214 C4213 1.392 . S
C4214 C4215 1.385 . S
C4214 C4216 1.478 . S
C4215 H4209 0.930 . S
C4215 C4211 1.400 . S
C4215 C4214 1.385 . S
C4216 C4214 1.478 . S
C4216 C4218 1.381 . S
C4216 C4222 1.383 . S
C4217 C4213 1.495 . S
C4217 H4223 0.959 . S
C4217 H4224 0.961 . S
C4217 H4225 0.960 . S
C4218 C4216 1.381 . S
C4218 C4219 1.394 . S
C4218 H4226 0.930 . S
C4219 C4218 1.394 . S
C4219 C4220 1.383 . S
C4219 H4227 0.929 . S
C4220 C4219 1.383 . S
C4220 C4221 1.377 . S
C4221 H4205 0.930 . S
C4221 C4220 1.377 . S
C4221 C4222 1.379 . S
C4222 H4206 0.931 . S
C4222 C4216 1.383 . S
C4222 C4221 1.379 . S
H4223 C4217 0.959 . S
H4224 C4217 0.961 . S
H4225 C4217 0.960 . S
H4226 C4218 0.930 . S
H4227 C4219 0.929 . S
H4228 C4236 0.929 . S
H4229 C4238 0.930 . S
H4230 C4240 0.930 . S
H4231 C4243 0.929 . S
H4232 C4246 0.930 . S
H4233 C4248 0.960 . S
H4234 C4248 0.960 . S
H4235 C4248 0.998 . S
C4236 H4228 0.929 . S
C4236 C4237 1.377 . S
C4236 C4238 1.384 . S
C4237 C4236 1.377 . S
C4237 C4243 1.390 1_556 S
C4238 H4229 0.930 . S
C4238 C4236 1.384 . S
C4238 C4239 1.372 . S
C4239 C4238 1.372 . S
C4239 C4240 1.400 1_556 S
C4239 C4244 1.490 . S
C4240 H4230 0.930 . S
C4240 C4239 1.400 1_554 S
C4240 C4243 1.386 . S
H4241 C4257 0.930 . S
H4242 C4258 0.931 . S
C4243 H4231 0.929 . S
C4243 C4237 1.390 1_554 S
C4243 C4240 1.386 . S
C4244 C4239 1.490 . S
C4244 C4246 1.395 . S
C4244 C4247 1.403 . S
H4245 C4251 0.930 . S
C4246 H4232 0.930 . S
C4246 C4244 1.395 . S
C4246 C4249 1.403 . S
C4247 C4244 1.403 . S
C4247 C4248 1.524 . S
C4247 C4251 1.400 . S
C4248 H4233 0.960 . S
C4248 H4234 0.960 . S
C4248 H4235 0.998 . S
C4248 C4247 1.524 . S
C4249 C4246 1.403 . S
C4249 C4250 1.392 . S
C4249 C4253 1.495 1_556 S
C4250 C4249 1.392 . S
C4250 C4251 1.385 . S
C4250 C4252 1.487 . S
C4251 H4245 0.930 . S
C4251 C4247 1.400 . S
C4251 C4250 1.385 . S
C4252 C4250 1.487 . S
C4252 C4254 1.406 . S
C4252 C4258 1.350 1_556 S
C4253 C4249 1.495 1_554 S
C4253 H4259 0.959 . S
C4253 H4260 0.961 . S
C4253 H4261 0.960 1_554 S
C4254 C4252 1.406 . S
C4254 C4255 1.394 . S
C4254 H4262 0.930 . S
C4255 C4254 1.394 . S
C4255 C4256 1.383 1_556 S
C4255 H4263 0.929 . S
C4256 C4255 1.383 1_554 S
C4256 C4257 1.377 . S
C4257 H4241 0.930 . S
C4257 C4256 1.377 . S
C4257 C4258 1.379 . S
C4258 H4242 0.931 . S
C4258 C4252 1.350 1_554 S
C4258 C4257 1.379 . S
H4259 C4253 0.959 . S
H4260 C4253 0.961 . S
H4261 C4253 0.960 1_556 S
H4262 C4254 0.930 . S
H4263 C4255 0.929 . S
H4264 C4272 0.929 . S
H4265 C4274 0.930 . S
H4266 C4276 0.930 . S
H4267 C4279 0.929 . S
H4268 C4282 0.930 . S
H4269 C4284 0.960 . S
H4270 C4284 0.960 . S
H4271 C4284 0.960 . S
C4272 H4264 0.929 . S
C4272 C4273 1.377 . S
C4272 C4274 1.384 . S
C4273 C4272 1.377 . S
C4273 C4279 1.390 . S
C4274 H4265 0.930 . S
C4274 C4272 1.384 . S
C4274 C4275 1.372 . S
C4275 C4274 1.372 . S
C4275 C4276 1.400 . S
C4275 C4280 1.490 . S
C4276 H4266 0.930 . S
C4276 C4275 1.400 . S
C4276 C4279 1.386 . S
H4277 C4293 0.930 . S
H4278 C4294 0.931 . S
C4279 H4267 0.929 . S
C4279 C4273 1.390 . S
C4279 C4276 1.386 . S
C4280 C4275 1.490 . S
C4280 C4282 1.395 . S
C4280 C4283 1.403 . S
H4281 C4287 0.930 . S
C4282 H4268 0.930 . S
C4282 C4280 1.395 . S
C4282 C4285 1.403 . S
C4283 C4280 1.403 . S
C4283 C4284 1.524 . S
C4283 C4287 1.400 . S
C4284 H4269 0.960 . S
C4284 H4270 0.960 . S
C4284 H4271 0.960 . S
C4284 C4283 1.524 . S
C4285 C4282 1.403 . S
C4285 C4286 1.392 . S
C4285 C4289 1.495 . S
C4286 C4285 1.392 . S
C4286 C4287 1.385 . S
C4286 C4288 1.478 . S
C4287 H4281 0.930 . S
C4287 C4283 1.400 . S
C4287 C4286 1.385 . S
C4288 C4286 1.478 . S
C4288 C4290 1.381 . S
C4288 C4294 1.383 . S
C4289 C4285 1.495 . S
C4289 H4295 0.959 . S
C4289 H4296 0.961 . S
C4289 H4297 0.960 . S
C4290 C4288 1.381 . S
C4290 C4291 1.394 . S
C4290 H4298 0.930 . S
C4291 C4290 1.394 . S
C4291 C4292 1.383 . S
C4291 H4299 0.929 . S
C4292 C4291 1.383 . S
C4292 C4293 1.377 . S
C4293 H4277 0.930 . S
C4293 C4292 1.377 . S
C4293 C4294 1.379 . S
C4294 H4278 0.931 . S
C4294 C4288 1.383 . S
C4294 C4293 1.379 . S
H4295 C4289 0.959 . S
H4296 C4289 0.961 . S
H4297 C4289 0.960 . S
H4298 C4290 0.930 . S
H4299 C4291 0.929 . S
H4300 C4308 0.929 . S
H4301 C4310 0.930 . S
H4302 C4312 0.930 1_556 S
H4303 C4315 0.929 1_556 S
H4304 C4318 0.930 . S
H4305 C4320 0.958 . S
H4306 C4320 0.963 1_554 S
H4307 C4320 0.956 . S
C4308 H4300 0.929 . S
C4308 C4309 1.377 . S
C4308 C4310 1.384 . S
C4309 C4308 1.377 . S
C4309 C4315 1.390 . S
C4310 H4301 0.930 . S
C4310 C4308 1.384 . S
C4310 C4311 1.372 . S
C4311 C4310 1.372 . S
C4311 C4312 1.400 . S
C4311 C4316 1.490 . S
C4312 H4302 0.930 1_554 S
C4312 C4311 1.400 . S
C4312 C4315 1.386 . S
H4313 C4329 0.930 1_556 S
H4314 C4330 0.971 . S
C4315 H4303 0.929 1_554 S
C4315 C4309 1.390 . S
C4315 C4312 1.386 . S
C4316 C4311 1.490 . S
C4316 C4318 1.395 . S
C4316 C4319 1.403 . S
H4317 C4323 0.930 . S
C4318 H4304 0.930 . S
C4318 C4316 1.395 . S
C4318 C4321 1.403 . S
C4319 C4316 1.403 . S
C4319 C4320 1.527 1_554 S
C4319 C4323 1.400 . S
C4320 H4305 0.958 . S
C4320 H4306 0.963 1_556 S
C4320 H4307 0.956 . S
C4320 C4319 1.527 1_556 S
C4321 C4318 1.403 . S
C4321 C4322 1.392 . S
C4321 C4325 1.495 . S
C4322 C4321 1.392 . S
C4322 C4323 1.385 . S
C4322 C4324 1.478 . S
C4323 H4317 0.930 . S
C4323 C4319 1.400 . S
C4323 C4322 1.385 . S
C4324 C4322 1.478 . S
C4324 C4326 1.381 . S
C4324 C4330 1.383 . S
C4325 C4321 1.495 . S
C4325 H4331 0.959 . S
C4325 H4332 0.961 . S
C4325 H4333 0.960 . S
C4326 C4324 1.381 . S
C4326 C4327 1.394 . S
C4326 H4334 0.930 . S
C4327 C4326 1.394 . S
C4327 C4328 1.383 . S
C4327 H4335 0.929 . S
C4328 C4327 1.383 . S
C4328 C4329 1.377 . S
C4329 H4313 0.930 1_554 S
C4329 C4328 1.377 . S
C4329 C4330 1.379 . S
C4330 H4314 0.971 . S
C4330 C4324 1.383 . S
C4330 C4329 1.379 . S
H4331 C4325 0.959 . S
H4332 C4325 0.961 . S
H4333 C4325 0.960 . S
H4334 C4326 0.930 . S
H4335 C4327 0.929 . S
H4336 C4344 0.929 . S
H4337 C4346 0.930 . S
H4338 C4348 0.930 . S
H4339 C4351 0.929 . S
H4340 C4354 0.930 . S
H4341 C4356 0.960 . S
H4342 C4356 0.960 . S
H4343 C4356 0.960 . S
C4344 H4336 0.929 . S
C4344 C4345 1.377 . S
C4344 C4346 1.384 . S
C4345 C4344 1.377 . S
C4345 C4351 1.390 . S
C4346 H4337 0.930 . S
C4346 C4344 1.384 . S
C4346 C4347 1.372 . S
C4347 C4346 1.372 . S
C4347 C4348 1.400 . S
C4347 C4352 1.490 . S
C4348 H4338 0.930 . S
C4348 C4347 1.400 . S
C4348 C4351 1.386 . S
H4349 C4365 0.930 . S
H4350 C4366 0.931 . S
C4351 H4339 0.929 . S
C4351 C4345 1.390 . S
C4351 C4348 1.386 . S
C4352 C4347 1.490 . S
C4352 C4354 1.395 . S
C4352 C4355 1.403 . S
H4353 C4359 0.930 . S
C4354 H4340 0.930 . S
C4354 C4352 1.395 . S
C4354 C4357 1.403 . S
C4355 C4352 1.403 . S
C4355 C4356 1.524 . S
C4355 C4359 1.400 . S
C4356 H4341 0.960 . S
C4356 H4342 0.960 . S
C4356 H4343 0.960 . S
C4356 C4355 1.524 . S
C4357 C4354 1.403 . S
C4357 C4358 1.392 . S
C4357 C4361 1.495 . S
C4358 C4357 1.392 . S
C4358 C4359 1.385 . S
C4358 C4360 1.478 . S
C4359 H4353 0.930 . S
C4359 C4355 1.400 . S
C4359 C4358 1.385 . S
C4360 C4358 1.478 . S
C4360 C4362 1.381 . S
C4360 C4366 1.383 . S
C4361 C4357 1.495 . S
C4361 H4367 0.959 . S
C4361 H4368 0.961 . S
C4361 H4369 0.960 . S
C4362 C4360 1.381 . S
C4362 C4363 1.394 . S
C4362 H4370 0.930 . S
C4363 C4362 1.394 . S
C4363 C4364 1.383 . S
C4363 H4371 0.929 . S
C4364 C4363 1.383 . S
C4364 C4365 1.377 . S
C4365 H4349 0.930 . S
C4365 C4364 1.377 . S
C4365 C4366 1.379 . S
C4366 H4350 0.931 . S
C4366 C4360 1.383 . S
C4366 C4365 1.379 . S
H4367 C4361 0.959 . S
H4368 C4361 0.961 . S
H4369 C4361 0.960 . S
H4370 C4362 0.930 . S
H4371 C4363 0.929 . S
H4372 C4380 0.929 . S
H4373 C4382 0.930 . S
H4374 C4384 0.930 . S
H4375 C4387 0.929 . S
H4376 C4390 0.930 . S
H4377 C4392 0.960 . S
H4378 C4392 0.960 . S
H4379 C4392 0.960 . S
C4380 H4372 0.929 . S
C4380 C4381 1.377 . S
C4380 C4382 1.384 . S
C4381 C4380 1.377 . S
C4381 C4387 1.390 . S
C4382 H4373 0.930 . S
C4382 C4380 1.384 . S
C4382 C4383 1.372 . S
C4383 C4382 1.372 . S
C4383 C4384 1.400 . S
C4383 C4388 1.490 . S
C4384 H4374 0.930 . S
C4384 C4383 1.400 . S
C4384 C4387 1.386 . S
H4385 C4401 0.930 . S
H4386 C4402 0.931 . S
C4387 H4375 0.929 . S
C4387 C4381 1.390 . S
C4387 C4384 1.386 . S
C4388 C4383 1.490 . S
C4388 C4390 1.395 . S
C4388 C4391 1.403 . S
H4389 C4395 0.930 . S
C4390 H4376 0.930 . S
C4390 C4388 1.395 . S
C4390 C4393 1.403 . S
C4391 C4388 1.403 . S
C4391 C4392 1.524 . S
C4391 C4395 1.400 . S
C4392 H4377 0.960 . S
C4392 H4378 0.960 . S
C4392 H4379 0.960 . S
C4392 C4391 1.524 . S
C4393 C4390 1.403 . S
C4393 C4394 1.392 . S
C4393 C4397 1.495 . S
C4394 C4393 1.392 . S
C4394 C4395 1.385 . S
C4394 C4396 1.478 . S
C4395 H4389 0.930 . S
C4395 C4391 1.400 . S
C4395 C4394 1.385 . S
C4396 C4394 1.478 . S
C4396 C4398 1.381 . S
C4396 C4402 1.383 . S
C4397 C4393 1.495 . S
C4397 H4403 0.959 . S
C4397 H4404 0.961 . S
C4397 H4405 0.960 . S
C4398 C4396 1.381 . S
C4398 C4399 1.394 . S
C4398 H4406 0.930 . S
C4399 C4398 1.394 . S
C4399 C4400 1.383 . S
C4399 H4407 0.929 . S
C4400 C4399 1.383 . S
C4400 C4401 1.377 . S
C4401 H4385 0.930 . S
C4401 C4400 1.377 . S
C4401 C4402 1.379 . S
C4402 H4386 0.931 . S
C4402 C4396 1.383 . S
C4402 C4401 1.379 . S
H4403 C4397 0.959 . S
H4404 C4397 0.961 . S
H4405 C4397 0.960 . S
H4406 C4398 0.930 . S
H4407 C4399 0.929 . S
C961 C101 1.679 . S
C980 C334 1.665 . S
C997 C57 1.002 . S
C1016 C354 0.991 . S
C1033 C70 0.321 . S
C1052 C401 0.373 . S
C1088 C458 0.933 . S
C1069 C82 0.970 . S
C1105 C23 2.511 . S
C1124 C475 2.502 . S
C1160 C534 1.483 . S
C1141 C29 1.517 . S
C1196 C567 2.563 . S
C1177 C49 2.564 . S
C1213 C10 2.478 . S
C1232 C614 2.453 . S
C1268 C327 1.384 . S
C1249 C218 1.377 . S
C1285 C226 1.065 . S
C1304 C355 1.070 . S
C1340 C394 0.533 . S
C1321 C251 0.454 1_565 S
C1376 C454 1.889 . S
C1357 C159 1.891 . S
C1393 C211 0.168 . S
C1412 C481 0.133 . S
C1448 C527 2.219 . S
C1429 C225 2.227 . S
C1484 C578 0.606 . S
C1465 C252 0.374 . S
C1520 C607 2.187 . S
C1501 C166 2.188 . S
C1556 C338 1.664 1_565 S
C1537 C147 1.729 . S
C1573 C263 2.223 . S
C1592 C634 2.197 . S
C1628 C698 1.159 . S
C1609 C309 1.162 . S
C1664 C734 1.143 . S
C1645 C291 1.171 . S
C1681 C108 1.180 . S
C1700 C618 1.177 . S
C1717 C121 2.467 . S
C1736 C395 2.458 . S
C1753 C302 1.278 . S
C1772 C767 1.288 . S
C1808 C801 0.354 . S
C1789 C276 0.324 . S
C1844 C315 1.926 1_565 S
C1825 C55 1.924 . S
C1880 C807 1.346 . S
C1861 C96 1.361 . S
C1897 C88 0.798 . S
C1916 C418 0.819 . S
C1933 C75 1.117 . S
C1952 C761 1.122 . S
C1988 C494 2.957 . S
C1969 C4 2.973 . S
C2005 C44 1.855 . S
C2024 C675 1.850 . S
C2060 C554 2.996 1_566 S
C2041 C31 3.008 . S
C2096 C835 2.615 . S
C2077 C18 2.627 1_655 S
C2132 C314 1.551 1_556 S
C2113 C133 1.573 . S
C2168 C814 1.737 . S
C2149 C296 1.770 . S
C2185 C107 0.815 . S
C2204 C407 0.847 . S
C2221 C264 2.282 . S
C2240 C755 2.284 . S
C2257 C140 0.463 . S
C2276 C498 0.524 . S
C2312 C674 2.618 . S
C2293 C289 2.632 . S
C2329 C114 0.293 . S
C2348 C561 0.327 . S
C2365 C265 2.578 . S
C2384 C834 2.566 . S
C2401 C179 1.672 . S
C2420 C321 1.650 . S
C2437 C161 2.466 . S
C2456 C647 2.436 . S
C2473 C244 1.325 . S
C2492 C521 1.322 . S
C2509 C224 1.486 . S
C2528 C715 1.477 . S
C2564 C841 1.158 . S
C2545 C257 1.138 . S
C2581 C199 2.818 . S
C2600 C414 2.825 . S
C2636 C434 1.687 . S
C2617 C237 1.700 . S
C2672 C378 0.319 . S
C2653 C185 0.326 . S
C2689 C69 1.687 . S
C2708 C894 1.665 . S
C2744 C794 1.023 . S
C2725 C83 1.016 . S
C2761 C94 0.321 . S
C2780 C921 0.361 . S
C2797 C56 0.972 . S
C2816 C778 0.968 . S
C2833 C42 2.522 . S
C2852 C635 2.506 . S
C2888 C694 1.482 . S
C2869 C3 1.516 . S
C2924 C727 2.574 . S
C2905 C16 2.572 . S
C2960 C854 2.433 . S
C2941 C36 2.478 . S
C2996 C887 1.399 . S
C2977 C238 1.381 . S
C3013 C174 1.062 . S
C3032 C795 1.034 . S
C3068 C914 0.459 . S
C3049 C186 0.446 . S
C3104 C774 1.884 . S
C3085 C198 1.891 . S
C3140 C641 0.131 . S
C3121 C239 0.170 . S
C3157 C173 2.227 . S
C3176 C687 2.214 . S
C3212 C738 0.524 . S
C3193 C187 0.352 . S
C3229 C205 2.191 . S
C3248 C847 2.192 . S
C3284 C898 1.711 . S
C3265 C290 1.727 . S
C3301 C122 2.221 . S
C3320 C474 2.202 . S
C3356 C538 1.133 . S
C3337 C134 1.162 . S
C3392 C574 1.152 . S
C3373 C148 1.170 . S
C3428 C858 1.164 . S
C3409 C283 1.179 . S
C3445 C270 2.466 . S
C3464 C915 2.455 . S
C3500 C447 1.296 . S
C3481 C135 1.278 . S
C3536 C361 0.193 . S
C3517 C109 0.327 . S
C3553 C81 1.922 . S
C3572 C875 1.910 . S
C3608 C367 1.325 . S
C3589 C68 1.357 . S
C3625 C62 0.799 . S
C3644 C938 0.786 . S
C3661 C95 1.119 . S
C3680 C441 1.125 . S
C3697 C30 2.973 . S
C3716 C654 2.958 . S
C3752 C515 1.837 . S
C3733 C17 1.851 . S
C3769 C5 3.009 . S
C3788 C714 2.997 . S
C3805 C43 2.619 . S
C3824 C595 2.605 . S
C3860 C874 1.550 . S
C3841 C304 1.573 . S
C3877 C153 1.770 . S
C3896 C374 1.758 . S
C3932 C927 0.840 . S
C3913 C278 0.816 . S
C3949 C127 2.283 . S
C3968 C435 2.290 . S
C3985 C303 0.461 . S
C4004 C658 0.523 . S
C4040 C514 2.603 . S
C4021 C146 2.630 1_556 S
C4057 C277 0.263 . S
C4076 C721 0.332 . S
C4112 C594 2.556 . S
C4093 C120 2.577 . S
C4148 C881 1.658 . S
C4129 C231 1.671 . S
C4184 C487 2.424 1_665 S
C4165 C200 2.465 . S
C4201 C212 1.327 . S
C4220 C681 1.311 . S
C4256 C555 1.496 . S
C4237 C172 1.491 . S
C4273 C192 1.134 . S
C4292 C601 1.134 . S
C4309 C160 2.820 . S
C4328 C934 2.804 . S
C4364 C754 1.710 . S
C4345 C213 1.706 . S
C4400 C818 0.315 . S
C4381 C250 0.327 . S
