# Generated by pormake.
# Topology zzz, (3,6)-cn, num edge types: 1
# Building blocks:
#     Node 0, Type 0, BuildingBlock: WUSLED_clean_sbu_0, # of connection points: 3
#     Node 1, Type 0, BuildingBlock: WUSLED_clean_sbu_0, # of connection points: 3
#     Node 2, Type 0, BuildingBlock: WUSLED_clean_sbu_0, # of connection points: 3
#     Node 3, Type 0, BuildingBlock: WUSLED_clean_sbu_0, # of connection points: 3
#     Node 4, Type 0, BuildingBlock: WUSLED_clean_sbu_0, # of connection points: 3
#     Node 5, Type 0, BuildingBlock: WUSLED_clean_sbu_0, # of connection points: 3
#     Node 6, Type 0, BuildingBlock: WUSLED_clean_sbu_0, # of connection points: 3
#     Node 7, Type 0, BuildingBlock: WUSLED_clean_sbu_0, # of connection points: 3
#     Node 8, Type 1, BuildingBlock: BETFAJ_clean_sbu_0, # of connection points: 6
#     Node 9, Type 1, BuildingBlock: BETFAJ_clean_sbu_0, # of connection points: 6
#     Node 10, Type 1, BuildingBlock: BETFAJ_clean_sbu_0, # of connection points: 6
#     Node 11, Type 1, BuildingBlock: BETFAJ_clean_sbu_0, # of connection points: 6
#     Edge 12, Type (0, 1), BuildingBlock: ZUJKAS_clean_linker_0, # of connection points: 2
#     Edge 13, Type (0, 1), BuildingBlock: ZUJKAS_clean_linker_0, # of connection points: 2
#     Edge 14, Type (0, 1), BuildingBlock: ZUJKAS_clean_linker_0, # of connection points: 2
#     Edge 15, Type (0, 1), BuildingBlock: ZUJKAS_clean_linker_0, # of connection points: 2
#     Edge 16, Type (0, 1), BuildingBlock: ZUJKAS_clean_linker_0, # of connection points: 2
#     Edge 17, Type (0, 1), BuildingBlock: ZUJKAS_clean_linker_0, # of connection points: 2
#     Edge 18, Type (0, 1), BuildingBlock: ZUJKAS_clean_linker_0, # of connection points: 2
#     Edge 19, Type (0, 1), BuildingBlock: ZUJKAS_clean_linker_0, # of connection points: 2
#     Edge 20, Type (0, 1), BuildingBlock: ZUJKAS_clean_linker_0, # of connection points: 2
#     Edge 21, Type (0, 1), BuildingBlock: ZUJKAS_clean_linker_0, # of connection points: 2
#     Edge 22, Type (0, 1), BuildingBlock: ZUJKAS_clean_linker_0, # of connection points: 2
#     Edge 23, Type (0, 1), BuildingBlock: ZUJKAS_clean_linker_0, # of connection points: 2
#     Edge 24, Type (0, 1), BuildingBlock: ZUJKAS_clean_linker_0, # of connection points: 2
#     Edge 25, Type (0, 1), BuildingBlock: ZUJKAS_clean_linker_0, # of connection points: 2
#     Edge 26, Type (0, 1), BuildingBlock: ZUJKAS_clean_linker_0, # of connection points: 2
#     Edge 27, Type (0, 1), BuildingBlock: ZUJKAS_clean_linker_0, # of connection points: 2
#     Edge 28, Type (0, 1), BuildingBlock: ZUJKAS_clean_linker_0, # of connection points: 2
#     Edge 29, Type (0, 1), BuildingBlock: ZUJKAS_clean_linker_0, # of connection points: 2
#     Edge 30, Type (0, 1), BuildingBlock: ZUJKAS_clean_linker_0, # of connection points: 2
#     Edge 31, Type (0, 1), BuildingBlock: ZUJKAS_clean_linker_0, # of connection points: 2
#     Edge 32, Type (0, 1), BuildingBlock: ZUJKAS_clean_linker_0, # of connection points: 2
#     Edge 33, Type (0, 1), BuildingBlock: ZUJKAS_clean_linker_0, # of connection points: 2
#     Edge 34, Type (0, 1), BuildingBlock: ZUJKAS_clean_linker_0, # of connection points: 2
#     Edge 35, Type (0, 1), BuildingBlock: ZUJKAS_clean_linker_0, # of connection points: 2
# Relax obj value: 0.392
# Max RMSD: 0.267
# Mean RMSD: 0.246
data_MOF--net-zzz--node1-WUSLED_clean_sbu_0--node2-BETFAJ_clean_sbu_0--edge1-ZUJKAS_clean_linker_0
_symmetry_space_group_name_H-M    P1
_symmetry_Int_Tables_number       1
_symmetry_cell_setting            triclinic
loop_
_symmetry_equiv_pos_as_xyz
'x, y, z'
_cell_length_a     78.600228
_cell_length_b     78.658699
_cell_length_c     23.843373
_cell_angle_alpha  90.019459
_cell_angle_beta   89.943707
_cell_angle_gamma 90.332487
loop_
_atom_site_label
_atom_site_type_symbol
_atom_site_fract_x
_atom_site_fract_y
_atom_site_fract_z
_atom_type_partial_charge
C0 C 0.76544 0.51914 0.43761 0.0
C1 C 0.77846 0.50915 0.41466 0.0
C2 C 0.79864 0.51913 0.48631 0.0
C3 C 0.79476 0.50907 0.43882 0.0
C4 C 0.78542 0.52894 0.50957 0.0
C5 C 0.76908 0.52889 0.48562 0.0
U6 U 0.73103 0.51873 0.31831 0.0
O7 O 0.70654 0.50489 0.31503 0.0
O8 O 0.70678 0.53269 0.31643 0.0
C9 C 0.69758 0.51885 0.30959 0.0
C10 C 0.74782 0.51903 0.41439 0.0
C11 C 0.68506 0.51917 0.26274 0.0
C12 C 0.65545 0.52044 0.23207 0.0
C13 C 0.66762 0.52004 0.27512 0.0
C14 C 0.67789 0.51886 0.16285 0.0
C15 C 0.66041 0.51977 0.17548 0.0
C16 C 0.69013 0.51868 0.20606 0.0
C17 C 0.76187 0.52015 0.18645 0.0
C18 C 0.77287 0.52659 0.09411 0.0
C19 C 0.79183 0.51635 0.16683 0.0
C20 C 0.77816 0.51547 0.20447 0.0
C21 C 0.7892 0.52184 0.11125 0.0
C22 C 0.75935 0.52572 0.13143 0.0
C23 C 0.74683 0.51927 0.22205 0.0
O24 O 0.74276 0.5329 0.38869 0.0
O25 O 0.74261 0.50505 0.38925 0.0
O26 O 0.74349 0.50506 0.24909 0.0
O27 O 0.74246 0.53314 0.24894 0.0
H28 H 0.77604 0.50131 0.37813 0.0
H29 H 0.8043 0.50096 0.42021 0.0
H30 H 0.78772 0.53698 0.54565 0.0
H31 H 0.75923 0.53656 0.50466 0.0
H32 H 0.64209 0.52107 0.24303 0.0
H33 H 0.66338 0.52041 0.31834 0.0
H34 H 0.68207 0.51844 0.11957 0.0
H35 H 0.70351 0.51813 0.19528 0.0
H36 H 0.77053 0.53096 0.05175 0.0
H37 H 0.80432 0.5124 0.18067 0.0
H38 H 0.78023 0.51106 0.24693 0.0
H39 H 0.74679 0.52933 0.11709 0.0
C40 C 0.01627 0.76839 0.44468 0.0
C41 C 0.01692 0.78287 0.41033 0.0
C42 C 0.01439 0.80143 0.49239 0.0
C43 C 0.01591 0.79921 0.43394 0.0
C44 C 0.01405 0.7869 0.52673 0.0
C45 C 0.01487 0.77056 0.50305 0.0
U46 U 0.01714 0.7353 0.32276 0.0
O47 O 0.03086 0.71096 0.31661 0.0
O48 O 1.00302 0.71105 0.31737 0.0
C49 C 0.01684 0.70198 0.31025 0.0
C50 C 0.01668 0.75095 0.42091 0.0
C51 C 0.01652 0.68956 0.26309 0.0
C52 C 0.01383 0.66006 0.23236 0.0
C53 C 0.01438 0.67224 0.27532 0.0
C54 C 0.01785 0.68226 0.16337 0.0
C55 C 0.01561 0.66486 0.17585 0.0
C56 C 0.01817 0.69453 0.20656 0.0
C57 C 0.01671 0.7657 0.18798 0.0
C58 C 0.01426 0.77327 0.09008 0.0
C59 C 0.0159 0.7953 0.16136 0.0
C60 C 0.01709 0.78289 0.20312 0.0
C61 C 0.01436 0.79049 0.10466 0.0
C62 C 0.01539 0.76097 0.13158 0.0
C63 C 0.01703 0.75202 0.22884 0.0
O64 O 1.0029 0.74588 0.39437 0.0
O65 O 0.03075 0.7464 0.39519 0.0
O66 O 0.03121 0.74846 0.25546 0.0
O67 O 1.00295 0.74789 0.25539 0.0
H68 H 0.01808 0.78154 0.36527 0.0
H69 H 0.01639 0.81017 0.40647 0.0
H70 H 0.01278 0.78816 0.57178 0.0
H71 H 0.01427 0.75958 0.53041 0.0
H72 H 1.01222 0.6468 0.24342 0.0
H73 H 0.01311 0.66808 0.31844 0.0
H74 H 0.01911 0.68637 0.1202 0.0
H75 H 0.0197 0.70784 0.19586 0.0
H76 H 0.01309 0.76934 0.04669 0.0
H77 H 0.01632 0.8086 0.17316 0.0
H78 H 0.01819 0.78665 0.24668 0.0
H79 H 0.01506 0.74767 0.11964 0.0
C80 C 0.76097 1.01153 0.45083 0.0
C81 C 0.74697 0.01749 0.42002 0.0
C82 C 0.72777 1.01125 0.49835 0.0
C83 C 0.73059 0.01747 0.44371 0.0
C84 C 0.74176 1.00506 0.52874 0.0
C85 C 0.75818 1.00531 0.50534 0.0
U86 U 0.79213 1.01114 0.32602 0.0
O87 O 0.816 0.02539 0.31156 0.0
O88 O 0.81636 0.99754 0.31423 0.0
C89 C 0.82515 1.01156 0.30543 0.0
C90 C 0.77851 1.01177 0.42718 0.0
C91 C 0.83762 1.01139 0.25848 0.0
C92 C 0.86739 1.01152 0.22924 0.0
C93 C 0.85501 1.01161 0.27157 0.0
C94 C 0.84523 1.01103 0.15899 0.0
C95 C 0.86277 1.01118 0.17217 0.0
C96 C 0.83278 1.01109 0.20169 0.0
C97 C 0.76022 1.00927 0.19364 0.0
C98 C 0.75627 0.01253 0.09362 0.0
C99 C 0.73224 1.00567 0.15385 0.0
C100 C 0.74289 1.00577 0.2003 0.0
C101 C 0.73884 1.00909 0.10028 0.0
C102 C 0.76697 0.01257 0.14033 0.0
C103 C 0.77095 1.00979 0.2431 0.0
O104 O 0.7835 0.99773 0.40241 0.0
O105 O 0.78302 0.02552 0.39942 0.0
O106 O 0.77675 0.02431 0.26278 0.0
O107 O 0.77683 0.99591 0.26657 0.0
H108 H 0.7487 0.02221 0.37771 0.0
H109 H 0.72005 0.02214 0.41897 0.0
H110 H 0.74004 1.00027 0.57096 0.0
H111 H 0.76875 1.00066 0.52998 0.0
H112 H 0.88064 1.01198 0.24146 0.0
H113 H 0.85907 1.01193 0.31497 0.0
H114 H 0.84112 1.01061 0.11569 0.0
H115 H 0.81943 1.01089 0.19041 0.0
H116 H 0.76151 0.01528 0.05255 0.0
H117 H 0.71875 1.00341 0.15998 0.0
H118 H 0.73757 1.0034 0.24153 0.0
H119 H 0.7804 0.01529 0.13501 0.0
C120 C 0.50654 0.76409 0.44851 0.0
C121 C 0.50331 0.74993 0.41409 0.0
C122 C 0.50847 0.7305 0.49264 0.0
C123 C 0.50425 0.73336 0.43589 0.0
C124 C 0.51146 0.74477 0.52705 0.0
C125 C 0.51054 0.76133 0.50517 0.0
U126 U 0.50761 0.7961 0.32613 0.0
O127 O 0.49336 0.81989 0.31277 0.0
O128 O 0.52119 0.82057 0.31722 0.0
C129 C 0.50722 0.82921 0.30773 0.0
C130 C 0.50615 0.78174 0.42608 0.0
C131 C 0.50768 0.84169 0.26075 0.0
C132 C 0.50453 0.87111 0.22987 0.0
C133 C 0.50386 0.85874 0.27221 0.0
C134 C 0.51296 0.84962 0.16303 0.0
C135 C 0.50914 0.8668 0.17461 0.0
C136 C 0.51216 0.83718 0.20559 0.0
C137 C 0.5105 0.76459 0.19264 0.0
C138 C 0.50324 0.7582 0.09637 0.0
C139 C 0.51675 0.73685 0.15462 0.0
C140 C 0.51723 0.74828 0.19923 0.0
C141 C 0.50957 0.74174 0.10337 0.0
C142 C 0.50371 0.76962 0.14101 0.0
C143 C 0.50946 0.77591 0.24064 0.0
O144 O 0.52035 0.78725 0.40314 0.0
O145 O 0.4926 0.786 0.39709 0.0
O146 O 0.49479 0.78136 0.25978 0.0
O147 O 0.52316 0.78131 0.26691 0.0
H148 H 0.50017 0.75168 0.37025 0.0
H149 H 0.5016 0.72275 0.40822 0.0
H150 H 0.5149 0.74316 0.57068 0.0
H151 H 0.51314 0.77203 0.53254 0.0
H152 H 0.50172 0.88416 0.24077 0.0
H153 H 0.50044 0.86257 0.31439 0.0
H154 H 0.51637 0.84576 0.12092 0.0
H155 H 0.51512 0.82409 0.19548 0.0
H156 H 0.49759 0.76203 0.05694 0.0
H157 H 0.52136 0.72402 0.16069 0.0
H158 H 0.52226 0.7442 0.23931 0.0
H159 H 0.49849 0.78224 0.13568 0.0
C160 C 0.25965 0.50406 0.8829 0.0
C161 C 0.24514 0.49871 0.91267 0.0
C162 C 0.22719 0.50443 0.83118 0.0
C163 C 0.22907 0.49881 0.88686 0.0
C164 C 0.24169 0.50979 0.80151 0.0
C165 C 0.25777 0.5095 0.82706 0.0
U166 U 0.29321 0.502 1.00495 0.0
O167 O 0.3185 0.48985 1.00455 0.0
O168 O 0.31652 0.51754 0.01049 0.0
C169 C 0.32656 0.50428 0.01362 0.0
C170 C 0.27687 0.50407 0.90834 0.0
C171 C 0.33915 0.50446 0.06015 0.0
C172 C 0.36857 0.50132 0.09097 0.0
C173 C 0.35621 0.50058 0.04861 0.0
C174 C 0.34708 0.50998 0.15765 0.0
C175 C 0.36421 0.50617 0.14586 0.0
C176 C 0.33464 0.509 0.11532 0.0
C177 C 0.26305 0.49797 0.13877 0.0
C178 C 0.25284 0.50256 0.23333 0.0
C179 C 0.23286 0.49679 0.158 0.0
C180 C 0.24637 0.49534 0.12001 0.0
C181 C 0.23604 0.50089 0.2146 0.0
C182 C 0.26622 0.50114 0.19559 0.0
C183 C 0.27765 0.49889 0.10116 0.0
O184 O 0.28102 0.51737 0.93891 0.0
O185 O 0.28225 0.48968 0.92992 0.0
O186 O 0.28145 0.4857 0.06974 0.0
O187 O 0.28114 0.51369 0.07824 0.0
H188 H 0.24625 0.4945 0.95574 0.0
H189 H 0.21804 0.49471 0.91061 0.0
H190 H 0.24059 0.51409 0.75851 0.0
H191 H 0.26878 0.51358 0.80313 0.0
H192 H 0.38165 0.49842 0.08053 0.0
H193 H 0.36002 0.49714 1.00645 0.0
H194 H 0.34332 0.51361 0.19969 0.0
H195 H 0.32155 0.51196 0.12552 0.0
H196 H 0.25559 0.50591 0.27647 0.0
H197 H 0.21994 0.49529 0.14297 0.0
H198 H 0.24378 0.4928 0.07618 0.0
H199 H 0.2791 0.50323 0.21045 0.0
C200 C 0.01867 0.26351 0.87827 0.0
C201 C 0.02788 0.25051 0.90444 0.0
C202 C 0.01945 0.23019 0.83129 0.0
C203 C 0.02836 0.23414 0.88111 0.0
C204 C 1.0104 0.24338 0.80486 0.0
C205 C 1.01007 0.25981 0.82803 0.0
U206 U 0.01946 0.29714 0.99877 0.0
O207 O 0.0318 0.3224 1.00165 0.0
O208 O 1.00404 0.32037 1.00547 0.0
C209 C 0.01738 0.3304 0.01011 0.0
C210 C 0.01819 0.28105 0.9015 0.0
C211 C 0.01702 0.34282 0.05718 0.0
C212 C 0.01468 0.37231 0.08793 0.0
C213 C 0.0153 0.36016 0.04492 0.0
C214 C 0.0178 0.35003 0.157 0.0
C215 C 0.01597 0.36744 0.14446 0.0
C216 C 0.01818 0.3378 0.11377 0.0
C217 C 0.02204 0.26653 0.13218 0.0
C218 C 0.01455 0.25641 0.22472 0.0
C219 C 0.02608 0.23693 0.15564 0.0
C220 C 0.0275 0.25025 0.11694 0.0
C221 C 0.01921 0.23991 0.20935 0.0
C222 C 0.01595 0.26958 0.18636 0.0
C223 C 0.02158 0.28085 0.09356 0.0
O224 O 1.00459 0.28513 0.93058 0.0
O225 O 0.03234 0.28693 0.92392 0.0
O226 O 0.03511 0.28484 0.06374 0.0
O227 O 1.00698 0.28449 0.06977 0.0
H228 H 0.03476 0.25302 0.94294 0.0
H229 H 0.03584 0.22458 0.90227 0.0
H230 H 1.00324 0.24098 0.76689 0.0
H231 H 1.00296 0.26964 0.80675 0.0
H232 H 0.01338 0.3856 0.07694 0.0
H233 H 0.0144 0.36435 1.00175 0.0
H234 H 0.01868 0.3459 0.20023 0.0
H235 H 0.01938 0.32447 0.12446 0.0
H236 H 1.00905 0.25901 0.26551 0.0
H237 H 0.02995 0.22426 0.14332 0.0
H238 H 0.03238 0.24778 0.07523 0.0
H239 H 1.01174 0.28216 0.19854 0.0
C240 C 0.26577 0.02805 0.87602 0.0
C241 C 0.28026 0.02942 0.91003 0.0
C242 C 0.29883 0.02834 0.82737 0.0
C243 C 0.29658 0.02955 0.88602 0.0
C244 C 0.2842 0.02691 0.79355 0.0
C245 C 0.26789 0.02679 0.81764 0.0
U246 U 0.23255 0.02949 0.99784 0.0
O247 O 0.20718 0.04141 0.99981 0.0
O248 O 0.20945 0.01374 1.0058 0.0
C249 C 0.1993 0.0269 0.00938 0.0
C250 C 0.24839 0.02768 0.90018 0.0
C251 C 0.18681 0.02664 0.05626 0.0
C252 C 0.1572 0.02801 0.08649 0.0
C253 C 0.16954 0.02891 0.04409 0.0
C254 C 0.17921 0.02267 0.15491 0.0
C255 C 0.16177 0.02482 0.14262 0.0
C256 C 0.1916 0.02359 0.11223 0.0
C257 C 0.2627 0.03381 0.13243 0.0
C258 C 0.27161 0.02835 0.2278 0.0
C259 C 0.29251 0.03543 0.15634 0.0
C260 C 0.27956 0.03708 0.11658 0.0
C261 C 0.28858 0.03053 0.21165 0.0
C262 C 0.25876 0.02994 0.18828 0.0
C263 C 0.24879 0.03267 0.09239 0.0
O264 O 0.24442 0.01432 0.93072 0.0
O265 O 0.24278 0.04197 0.92191 0.0
O266 O 0.24472 0.04589 0.06156 0.0
O267 O 0.24545 0.01782 0.06954 0.0
H268 H 0.27895 0.03031 0.95517 0.0
H269 H 0.30747 0.03035 0.91367 0.0
H270 H 0.28532 0.02611 0.74835 0.0
H271 H 0.25688 0.02571 0.79053 0.0
H272 H 0.14398 0.02948 0.07488 0.0
H273 H 0.16552 0.03119 1.00132 0.0
H274 H 0.18332 0.02042 0.19759 0.0
H275 H 0.20487 0.02183 0.12286 0.0
H276 H 0.26837 0.02439 0.27004 0.0
H277 H 0.30563 0.03727 0.14356 0.0
H278 H 0.28273 0.04017 0.07354 0.0
H279 H 0.24574 0.02734 0.20079 0.0
C280 C 0.50958 0.26825 0.87722 0.0
C281 C 0.50587 0.28247 0.91042 0.0
C282 C 0.50811 0.30119 0.82851 0.0
C283 C 0.50512 0.29874 0.88634 0.0
C284 C 0.512 0.28688 0.79553 0.0
C285 C 0.51267 0.2706 0.81964 0.0
U286 U 0.50903 0.2351 0.99917 0.0
O287 O 0.49669 0.20985 1.0019 0.0
O288 O 0.52443 0.21187 1.00643 0.0
C289 C 0.51108 0.20183 0.01056 0.0
C290 C 0.51015 0.25087 0.9013 0.0
C291 C 0.51127 0.18932 0.05735 0.0
C292 C 0.51329 0.15975 0.08749 0.0
C293 C 0.51277 0.17197 0.04471 0.0
C294 C 0.51044 0.18195 0.15702 0.0
C295 C 0.51211 0.16455 0.1441 0.0
C296 C 0.51016 0.19426 0.11404 0.0
C297 C 0.50547 0.26579 0.13242 0.0
C298 C 0.50741 0.2748 0.22927 0.0
C299 C 0.50639 0.29578 0.15466 0.0
C300 C 0.50518 0.28278 0.11474 0.0
C301 C 0.50781 0.29174 0.21188 0.0
C302 C 0.50625 0.2619 0.18966 0.0
C303 C 0.50648 0.25153 0.09365 0.0
O304 O 0.52376 0.24702 0.93056 0.0
O305 O 0.49602 0.24516 0.92435 0.0
O306 O 0.49307 0.24712 0.064 0.0
O307 O 0.52118 0.2483 0.06978 0.0
H308 H 0.50353 0.281 0.95493 0.0
H309 H 0.50238 0.30946 0.91329 0.0
H310 H 0.51425 0.2882 0.75092 0.0
H311 H 0.51552 0.25979 0.79313 0.0
H312 H 0.51447 0.14646 0.07629 0.0
H313 H 0.5136 0.16785 1.00144 0.0
H314 H 0.5096 0.18601 0.20034 0.0
H315 H 0.50908 0.20758 0.125 0.0
H316 H 0.50876 0.27155 0.27321 0.0
H317 H 0.50679 0.30891 0.14099 0.0
H318 H 0.50462 0.28592 0.07055 0.0
H319 H 0.50663 0.24879 0.20362 0.0
Sm320 Sm 0.02704 0.01251 0.71131 0.0
Sm321 Sm 1.00017 0.01915 0.60911 0.0
C322 C 0.03967 0.99998 0.80343 0.0
C323 C 0.03851 0.98205 0.81973 0.0
C324 C 0.0229 0.97336 0.81502 0.0
C325 C 0.02197 0.95602 0.82514 0.0
C326 C 0.03663 0.94701 0.83959 0.0
C327 C 0.05241 0.95541 0.84161 0.0
C328 C 0.05333 0.97289 0.8318 0.0
C329 C 0.044 0.01613 0.60973 0.0
C330 C 1.01034 0.97987 0.6369 0.0
C331 C 0.98814 0.03183 0.51599 0.0
C332 C 0.98828 0.04988 0.4995 0.0
C333 C 1.00377 0.0587 0.49265 0.0
C334 C 1.00391 0.07615 0.4834 0.0
C335 C 0.9886 0.08505 0.48101 0.0
C336 C 0.97311 0.07648 0.48814 0.0
C337 C 0.97294 0.05896 0.49751 0.0
C338 C 0.98293 0.01562 0.71054 0.0
C339 C 0.01711 0.05174 0.68327 0.0
O340 O 0.02536 1.0085 0.80317 0.0
O341 O 0.04906 1.00275 0.75909 0.0
O342 O 0.02822 0.01703 0.61901 0.0
O343 O 0.05164 0.01381 0.65724 0.0
O344 O 0.01845 0.9856 0.68207 0.0
O345 O 1.00293 0.99012 0.60011 0.0
O346 O 1.00291 0.02418 0.51803 0.0
O347 O 0.97835 0.02822 0.55881 0.0
O348 O 0.99881 0.01474 0.70208 0.0
O349 O 0.97552 0.01791 0.66255 0.0
O350 O 1.00891 0.04607 0.63816 0.0
O351 O 0.02432 0.04147 0.72033 0.0
H352 H 1.0114 0.97987 0.80286 0.0
H353 H 1.00973 0.94965 0.82231 0.0
H354 H 0.06387 0.94858 0.85246 0.0
H355 H 0.06559 0.97925 0.83325 0.0
H356 H 0.01581 0.05223 0.49496 0.0
H357 H 0.01596 0.08268 0.47734 0.0
H358 H 0.96119 0.0833 0.48582 0.0
H359 H 0.96087 0.05253 0.50385 0.0
Sm360 Sm 0.51638 0.02998 0.70858 0.0
Sm361 Sm 0.50915 1.00192 0.60759 0.0
C362 C 0.53027 0.04121 0.80085 0.0
C363 C 0.54828 0.03915 0.81485 0.0
C364 C 0.55669 0.0242 0.79882 0.0
C365 C 0.57417 0.0228 0.80532 0.0
C366 C 0.58359 0.03618 0.82901 0.0
C367 C 0.57525 0.0513 0.84398 0.0
C368 C 0.55769 0.0528 0.83658 0.0
C369 C 0.51308 0.04552 0.60494 0.0
C370 C 0.54851 1.01194 0.63346 0.0
C371 C 0.49581 0.99045 0.51478 0.0
C372 C 0.4779 0.9919 0.49805 0.0
C373 C 0.46975 1.00778 0.49865 0.0
C374 C 0.45229 1.00883 0.48959 0.0
C375 C 0.44268 0.99403 0.48015 0.0
C376 C 0.45074 0.97816 0.48041 0.0
C377 C 0.46823 0.97711 0.48929 0.0
C378 C 0.51233 0.98633 0.71144 0.0
C379 C 0.47697 0.02023 0.68125 0.0
O380 O 0.52119 0.02715 0.79964 0.0
O381 O 0.52749 0.05119 0.75795 0.0
O382 O 0.51278 0.02988 0.61667 0.0
O383 O 0.51428 0.05405 0.65158 0.0
O384 O 0.54303 0.02165 0.67542 0.0
O385 O 0.5382 1.00332 0.59966 0.0
O386 O 0.50469 1.00464 0.51629 0.0
O387 O 0.4984 0.9806 0.55817 0.0
O388 O 0.51291 1.00198 0.69977 0.0
O389 O 0.51073 0.97787 0.66484 0.0
O390 O 0.48248 1.01124 0.63754 0.0
O391 O 0.48737 0.02796 0.71714 0.0
H392 H 0.5498 0.01361 0.78047 0.0
H393 H 0.5803 1.01115 0.79213 0.0
H394 H 0.5822 0.06181 0.86257 0.0
H395 H 0.55148 0.06461 0.84749 0.0
H396 H 0.47677 0.01941 0.50696 0.0
H397 H 0.44636 0.02123 0.48912 0.0
H398 H 0.44351 0.96656 0.4739 0.0
H399 H 0.47416 0.96471 0.49048 0.0
Sm400 Sm 0.49841 0.51929 0.71375 0.0
Sm401 Sm 0.5255 0.51247 0.60947 0.0
C402 C 0.48734 0.53186 0.80809 0.0
C403 C 0.48707 0.55009 0.82256 0.0
C404 C 0.50229 0.55872 0.83554 0.0
C405 C 0.50255 0.57634 0.8404 0.0
C406 C 0.4876 0.58572 0.83264 0.0
C407 C 0.47234 0.57715 0.82035 0.0
C408 C 0.47207 0.55949 0.81546 0.0
C409 C 0.48209 0.51586 0.61097 0.0
C410 C 0.51501 0.55181 0.63825 0.0
C411 C 0.53587 0.49937 0.51504 0.0
C412 C 0.53624 0.48104 0.50178 0.0
C413 C 0.52115 0.47236 0.48748 0.0
C414 C 0.52095 0.45472 0.48278 0.0
C415 C 0.53582 0.44535 0.49214 0.0
C416 C 0.55092 0.45396 0.50615 0.0
C417 C 0.55114 0.47164 0.51077 0.0
C418 C 0.54204 0.51553 0.71201 0.0
C419 C 0.5089 0.48002 0.68561 0.0
O420 O 0.50244 0.52493 0.80375 0.0
O421 O 0.47695 0.52724 0.76784 0.0
O422 O 0.49771 0.5149 0.62215 0.0
O423 O 0.47397 0.51872 0.65752 0.0
O424 O 0.50677 0.54612 0.68334 0.0
O425 O 0.52253 0.54157 0.60143 0.0
O426 O 0.52071 0.50609 0.52046 0.0
O427 O 0.54659 0.50451 0.55369 0.0
O428 O 0.52635 0.51668 0.70157 0.0
O429 O 0.54999 0.51281 0.66499 0.0
O430 O 0.51754 0.4856 0.64117 0.0
O431 O 0.50105 0.49028 0.72144 0.0
H432 H 0.51412 0.55195 0.84092 0.0
H433 H 0.51443 0.58261 0.85098 0.0
H434 H 0.46066 0.58413 0.81393 0.0
H435 H 0.46022 0.55322 0.80459 0.0
H436 H 0.50936 0.47915 0.4808 0.0
H437 H 0.50919 0.44845 0.47083 0.0
H438 H 0.56255 0.44702 0.51387 0.0
H439 H 0.5629 0.47791 0.52269 0.0
Sm440 Sm 1.00909 0.50208 0.70612 0.0
Sm441 Sm 0.01672 0.52793 0.613 0.0
C442 C 0.99466 0.48536 0.78865 0.0
C443 C 0.97726 0.48697 0.8101 0.0
C444 C 0.97041 0.50311 0.82108 0.0
C445 C 0.95339 0.50471 0.83595 0.0
C446 C 0.94294 0.49027 0.83905 0.0
C447 C 0.94956 0.47419 0.82701 0.0
C448 C 0.9667 0.47254 0.81282 0.0
C449 C 0.01607 0.48799 0.60315 0.0
C450 C 0.97699 0.52186 0.64037 0.0
C451 C 0.02926 0.53796 0.51642 0.0
C452 C 0.04725 0.5387 0.49895 0.0
C453 C 0.05671 0.52363 0.49418 0.0
C454 C 0.07408 0.52429 0.48368 0.0
C455 C 0.08239 0.53999 0.47751 0.0
C456 C 0.07302 0.55507 0.48104 0.0
C457 C 0.05555 0.55443 0.492 0.0
C458 C 0.01544 0.54589 0.71303 0.0
C459 C 0.04862 0.51142 0.68779 0.0
O460 O 1.0049 0.49832 0.79723 0.0
O461 O 0.99565 0.47922 0.73782 0.0
O462 O 1.00683 0.50083 0.61204 0.0
O463 O 0.02223 0.48224 0.64994 0.0
O464 O 0.98235 0.51298 0.68414 0.0
O465 O 0.98769 0.52852 0.60355 0.0
O466 O 0.02303 0.5227 0.52447 0.0
O467 O 0.0246 0.54879 0.55518 0.0
O468 O 0.01326 0.53006 0.70706 0.0
O469 O 0.01797 0.55292 0.66445 0.0
O470 O 0.04358 0.51917 0.64147 0.0
O471 O 0.0377 0.50468 0.72365 0.0
H472 H 0.97809 0.51452 0.81744 0.0
H473 H 0.94832 0.51722 0.84474 0.0
H474 H 0.94154 0.46297 0.82933 0.0
H475 H 0.97166 0.46006 0.80304 0.0
H476 H 0.05083 0.51125 0.49959 0.0
H477 H 0.08105 0.51248 0.48021 0.0
H478 H 0.07927 0.5673 0.47642 0.0
H479 H 0.04858 0.56621 0.49614 0.0
H480 H 0.16023 1.00325 0.23391 0.0
H481 H 0.13827 1.0016 0.30664 0.0
H482 H 0.11078 0.04209 0.22638 0.0
H483 H 0.13265 0.0439 0.1538 0.0
H484 H 0.12881 0.02625 0.38059 0.0
H485 H 0.07251 1.00836 0.25274 0.0
H486 H 0.09399 1.00661 0.22651 0.0
H487 H 0.0837 0.02695 0.22887 0.0
C488 C 0.14956 1.01187 0.23167 0.0
C489 C 0.14833 0.02371 0.18753 0.0
C490 C 0.1369 1.01081 0.2732 0.0
C491 C 0.1226 0.0215 0.27176 0.0
C492 C 0.12134 0.03334 0.22787 0.0
H493 H 0.0377 0.03455 0.51307 0.0
H494 H 0.05605 0.03645 0.42911 0.0
C495 C 0.13398 0.0344 0.18631 0.0
C496 C 0.10973 0.02101 0.31826 0.0
H497 H 0.06743 0.01501 0.34822 0.0
C498 C 0.1154 0.02371 0.37337 0.0
C499 C 0.09213 0.01801 0.30913 0.0
C500 C 0.08518 0.01468 0.25121 0.0
C501 C 0.10413 0.02354 0.41928 0.0
C502 C 0.0866 0.02 0.41057 0.0
C503 C 0.08082 0.01763 0.35528 0.0
C504 C 0.07439 0.01805 0.45869 0.0
C505 C 0.11121 0.02756 0.47663 0.0
C506 C 0.07805 1.00665 0.50232 0.0
C507 C 0.06776 1.00583 0.55012 0.0
C508 C 0.05314 0.01593 0.55506 0.0
C509 C 0.04876 0.02655 0.51007 0.0
C510 C 0.05933 0.02766 0.46229 0.0
H511 H 0.12291 0.03552 0.47373 0.0
H512 H 0.10178 0.03433 0.50302 0.0
H513 H 0.11472 0.01553 0.49788 0.0
H514 H 0.08915 0.99859 0.50005 0.0
H515 H 0.0714 0.99736 0.58382 0.0
H516 H 0.53833 0.14333 0.17037 0.0
H517 H 0.53907 0.12106 0.24278 0.0
H518 H 0.48763 0.13324 0.29023 0.0
H519 H 0.48702 0.15573 0.21859 0.0
H520 H 0.53396 0.12438 0.36145 0.0
H521 H 0.48638 0.08085 0.26613 0.0
H522 H 0.4971 0.09734 0.22671 0.0
H523 H 0.47955 0.10256 0.27175 0.0
C524 C 0.52721 0.14125 0.19642 0.0
C525 C 0.51265 0.15133 0.18906 0.0
C526 C 0.52763 0.12851 0.23774 0.0
C527 C 0.51335 0.12526 0.27177 0.0
C528 C 0.49876 0.1353 0.26423 0.0
H529 H 0.48809 0.06597 0.56595 0.0
H530 H 0.4889 0.08424 0.48243 0.0
C531 C 0.49845 0.14826 0.2236 0.0
C532 C 0.51385 0.11178 0.31625 0.0
H533 H 0.49434 0.07505 0.3604 0.0
C534 C 0.52541 0.11351 0.36089 0.0
C535 C 0.50279 0.09748 0.31562 0.0
C536 C 0.49085 0.09428 0.26728 0.0
C537 C 0.52575 0.10176 0.40564 0.0
C538 C 0.51436 0.08773 0.40575 0.0
C539 C 0.50304 0.0858 0.36057 0.0
C540 C 0.51343 0.07544 0.45374 0.0
C541 C 0.5379 0.10473 0.45361 0.0
C542 C 0.52669 0.06396 0.46477 0.0
C543 C 0.52599 0.05313 0.5118 0.0
C544 C 0.51208 0.0537 0.54892 0.0
C545 C 0.49874 0.06497 0.5373 0.0
C546 C 0.49928 0.07552 0.48983 0.0
H547 H 0.54429 0.11734 0.45091 0.0
H548 H 0.53103 0.10386 0.49425 0.0
H549 H 0.5478 0.09474 0.45326 0.0
H550 H 0.53775 0.06362 0.43765 0.0
H551 H 0.5367 0.04497 0.52073 0.0
H552 H 0.37247 0.53357 0.21156 0.0
H553 H 0.39477 0.53563 0.28328 0.0
H554 H 0.40784 0.48317 0.25403 0.0
H555 H 0.38618 0.48144 0.18036 0.0
H556 H 0.39792 0.52046 0.37868 0.0
H557 H 0.45449 0.50205 0.255 0.0
H558 H 0.4344 0.50691 0.22244 0.0
H559 H 0.43802 0.48624 0.25258 0.0
C560 C 0.3802 0.52253 0.2203 0.0
C561 C 0.37758 0.50735 0.19028 0.0
C562 C 0.393 0.5237 0.26126 0.0
C563 C 0.40339 0.50966 0.27384 0.0
C564 C 0.40056 0.49441 0.24422 0.0
H565 H 0.47872 0.48905 0.53791 0.0
H566 H 0.46004 0.48763 0.45504 0.0
C567 C 0.388 0.49335 0.20244 0.0
C568 C 0.41633 0.51074 0.32022 0.0
H569 H 0.45797 0.50296 0.3542 0.0
C570 C 0.41108 0.51676 0.37296 0.0
C571 C 0.43358 0.50581 0.31353 0.0
C572 C 0.44051 0.50006 0.25769 0.0
C573 C 0.42229 0.51769 0.41896 0.0
C574 C 0.43954 0.51279 0.41237 0.0
C575 C 0.44482 0.50672 0.35968 0.0
C576 C 0.45218 0.51395 0.45958 0.0
C577 C 0.41528 0.52348 0.4747 0.0
C578 C 0.45465 0.52932 0.48879 0.0
C579 C 0.46507 0.53003 0.53645 0.0
C580 C 0.47384 0.51558 0.55498 0.0
C581 C 0.47231 0.50045 0.524 0.0
C582 C 0.46155 0.49963 0.4768 0.0
H583 H 0.40126 0.52168 0.47703 0.0
H584 H 0.42119 0.51649 0.51003 0.0
H585 H 0.41795 0.53725 0.48008 0.0
H586 H 0.44814 0.54073 0.4756 0.0
H587 H 0.46598 0.54184 0.55971 0.0
H588 H 0.03987 0.37438 0.22513 0.0
H589 H 0.03913 0.39667 0.29753 0.0
H590 H 0.99003 0.41267 0.23769 0.0
H591 H 0.99086 0.39057 0.16492 0.0
H592 H 0.03581 0.43279 0.28702 0.0
H593 H 0.98193 0.4046 0.40657 0.0
H594 H 0.9935 0.39285 0.35399 0.0
H595 H 0.97786 0.40819 0.33338 0.0
C596 C 0.02887 0.38258 0.22779 0.0
C597 C 0.01534 0.38061 0.18971 0.0
C598 C 0.02849 0.39539 0.26895 0.0
C599 C 0.01442 0.40627 0.27379 0.0
C600 C 1.00093 0.40434 0.23553 0.0
H601 H 0.99303 0.48872 0.51623 0.0
H602 H 0.99206 0.46991 0.43364 0.0
C603 C 1.00143 0.39173 0.19382 0.0
C604 C 0.01384 0.41951 0.31901 0.0
H605 H 0.99224 0.43129 0.43767 0.0
C606 C 0.02627 0.43244 0.31989 0.0
C607 C 1.00133 0.41922 0.36193 0.0
C608 C 0.98796 0.40541 0.36448 0.0
C609 C 0.02657 0.44493 0.3624 0.0
C610 C 0.01429 0.44441 0.40582 0.0
C611 C 1.00165 0.43172 0.40439 0.0
C612 C 0.01502 0.4563 0.45474 0.0
C613 C 0.03998 0.45871 0.36062 0.0
C614 C 0.02818 0.45492 0.49425 0.0
C615 C 0.02864 0.46547 0.54165 0.0
C616 C 0.01606 0.47783 0.55043 0.0
C617 C 1.00302 0.47945 0.51036 0.0
C618 C 1.0024 0.46866 0.46329 0.0
H619 H 0.04626 0.45949 0.31893 0.0
H620 H 0.03432 0.47125 0.37072 0.0
H621 H 0.04985 0.456 0.39258 0.0
H622 H 0.03797 0.44541 0.48895 0.0
H623 H 0.03881 0.46386 0.5718 0.0
H624 H 0.863 0.02774 0.06994 0.0
H625 H 0.88539 0.02793 0.99836 0.0
H626 H 0.91607 0.99533 0.10187 0.0
H627 H 0.89356 0.99454 0.17246 0.0
H628 H 0.91823 0.03908 1.0023 0.0
H629 H 0.91818 0.96999 0.95563 0.0
H630 H 0.90164 0.97988 0.99652 0.0
H631 H 0.9218 0.97495 0.0281 0.0
C632 C 0.87437 0.02036 0.07718 0.0
C633 C 0.87629 1.01106 0.12728 0.0
C634 C 0.88729 0.0206 0.03627 0.0
C635 C 0.90244 1.01143 0.0439 0.0
C636 C 0.90444 1.00223 0.09399 0.0
H637 H 0.99205 1.00268 0.81543 0.0
H638 H 0.97418 1.00164 0.90074 0.0
C639 C 0.89156 1.00198 0.13487 0.0
C640 C 0.91619 1.01178 0.99996 0.0
H641 H 0.93956 0.98658 0.91155 0.0
C642 C 0.92286 0.02756 0.98263 0.0
C643 C 0.92251 0.9968 0.97425 0.0
C644 C 0.91558 0.97945 0.98912 0.0
C645 C 0.93539 0.02877 0.94038 0.0
C646 C 0.94139 0.01385 0.91377 0.0
C647 C 0.93509 0.99803 0.93202 0.0
C648 C 0.95278 0.0146 0.86328 0.0
C649 C 0.94213 0.0461 0.92437 0.0
C650 C 0.94677 0.02204 0.81374 0.0
C651 C 0.95683 0.02243 0.76531 0.0
C652 C 0.97332 0.01552 0.76472 0.0
C653 C 0.97952 1.00822 0.81448 0.0
C654 C 0.96926 1.00758 0.86318 0.0
H655 H 0.93999 0.05557 0.9582 0.0
H656 H 0.95596 0.0456 0.91486 0.0
H657 H 0.93543 0.05056 0.88623 0.0
H658 H 0.93409 0.02734 0.81217 0.0
H659 H 0.95157 0.02817 0.72789 0.0
H660 H 0.53337 0.87138 0.09215 0.0
H661 H 0.5347 0.89354 0.02005 0.0
H662 H 0.48778 0.91461 0.08204 0.0
H663 H 0.48667 0.89282 0.15498 0.0
H664 H 0.51491 0.90015 0.93568 0.0
H665 H 0.51388 0.9576 0.06954 0.0
H666 H 0.51702 0.93663 0.09814 0.0
H667 H 0.49593 0.94396 0.08177 0.0
C668 C 0.52334 0.88075 0.09052 0.0
C669 C 0.50993 0.88025 0.12976 0.0
C670 C 0.52414 0.89352 0.04928 0.0
C671 C 0.51154 0.90615 0.04573 0.0
C672 C 0.49804 0.90552 0.08452 0.0
H673 H 0.48962 0.98659 0.79877 0.0
H674 H 0.48941 0.96747 0.88063 0.0
C675 C 0.49734 0.89289 0.12618 0.0
C676 C 0.51205 0.91924 0.99957 0.0
H677 H 0.5097 0.96199 0.9717 0.0
C678 C 0.51392 0.91367 0.94386 0.0
C679 C 0.5106 0.937 0.00946 0.0
C680 C 0.50941 0.94418 0.068 0.0
C681 C 0.51412 0.9251 0.89827 0.0
C682 C 0.51276 0.94284 0.9081 0.0
C683 C 0.51077 0.94846 0.96374 0.0
C684 C 0.51354 0.95566 0.86122 0.0
C685 C 0.51531 0.91789 0.83975 0.0
C686 C 0.5274 0.956 0.8238 0.0
C687 C 0.52743 0.96681 0.77693 0.0
C688 C 0.51392 0.97802 0.76719 0.0
C689 C 0.50045 0.97842 0.80606 0.0
C690 C 0.50026 0.96736 0.85261 0.0
H691 H 0.51116 0.90436 0.83835 0.0
H692 H 0.50741 0.92524 0.80986 0.0
H693 H 0.52874 0.91844 0.82546 0.0
H694 H 0.53806 0.94756 0.82996 0.0
H695 H 0.53784 0.96605 0.74725 0.0
H696 H 0.65164 0.49408 0.10347 0.0
H697 H 0.62939 0.49413 0.03089 0.0
H698 H 0.61706 0.54588 0.07361 0.0
H699 H 0.63917 0.54573 0.14649 0.0
H700 H 0.59413 0.49959 0.03792 0.0
H701 H 0.62471 0.54874 0.9041 0.0
H702 H 0.63584 0.53827 0.96037 0.0
H703 H 0.62128 0.5552 0.97547 0.0
C704 C 0.64424 0.50549 0.09696 0.0
C705 C 0.64727 0.51996 0.13018 0.0
C706 C 0.63146 0.50549 0.05569 0.0
C707 C 0.62161 0.52009 0.04587 0.0
C708 C 0.62459 0.53453 0.07943 0.0
H709 H 0.53951 0.53894 0.79783 0.0
H710 H 0.55744 0.54063 0.88281 0.0
C711 C 0.6372 0.53444 0.12124 0.0
C712 C 0.60832 0.52017 1.00056 0.0
H713 H 0.59724 0.53941 0.87688 0.0
C714 C 0.59483 0.50834 1.00284 0.0
C715 C 0.60909 0.53156 0.95448 0.0
C716 C 0.62357 0.54407 0.94793 0.0
C717 C 0.58225 0.5076 0.96061 0.0
C718 C 0.58313 0.51888 0.91442 0.0
C719 C 0.59643 0.53087 0.91249 0.0
C720 C 0.57122 0.51746 0.86554 0.0
C721 C 0.56803 0.49475 0.96544 0.0
C722 C 0.57289 0.5039 0.82764 0.0
C723 C 0.56287 0.50309 0.77908 0.0
C724 C 0.55063 0.51559 0.76764 0.0
C725 C 0.54852 0.52891 0.80632 0.0
C726 C 0.55888 0.52995 0.85455 0.0
H727 H 0.56724 0.48916 0.00816 0.0
H728 H 0.55564 0.5007 0.9551 0.0
H729 H 0.57021 0.48432 0.93494 0.0
H730 H 0.58236 0.49419 0.83475 0.0
H731 H 0.5649 0.49277 0.74975 0.0
H732 H 0.03918 0.65865 0.09335 0.0
H733 H 0.03851 0.6363 0.02116 0.0
H734 H 0.99017 0.61866 0.08463 0.0
H735 H 0.99092 0.64084 0.15709 0.0
H736 H 0.03599 0.59992 0.03183 0.0
H737 H 0.98089 0.62656 0.91634 0.0
H738 H 0.9926 0.63866 0.96796 0.0
H739 H 0.97739 0.62286 0.98985 0.0
C740 C 0.02836 0.65008 0.09156 0.0
C741 C 0.01503 0.65164 0.13064 0.0
C742 C 0.02803 0.63723 0.05052 0.0
C743 C 0.01419 0.62584 0.04676 0.0
C744 C 1.0009 0.62736 0.08597 0.0
H745 H 0.99495 0.54164 0.80605 0.0
H746 H 0.99407 0.55975 0.89068 0.0
C747 C 1.00136 0.64002 0.12753 0.0
C748 C 0.0136 0.61258 1.00151 0.0
H749 H 0.99162 0.60031 0.88398 0.0
C750 C 0.02625 0.60001 0.99965 0.0
C751 C 1.00086 0.61253 0.95941 0.0
C752 C 0.98722 0.62593 0.95793 0.0
C753 C 0.02655 0.58758 0.95688 0.0
C754 C 0.01401 0.58777 0.91432 0.0
C755 C 1.00118 0.6001 0.91672 0.0
C756 C 0.01483 0.57615 0.86468 0.0
C757 C 0.04029 0.5743 0.95714 0.0
C758 C 0.0267 0.57932 0.82189 0.0
C759 C 0.02696 0.56926 0.77333 0.0
C760 C 0.0156 0.55552 0.76681 0.0
C761 C 1.00399 0.552 0.81026 0.0
C762 C 1.00344 0.56238 0.85845 0.0
H763 H 0.04723 0.57397 0.99768 0.0
H764 H 0.03474 0.56152 0.94884 0.0
H765 H 0.04954 0.57711 0.92316 0.0
H766 H 0.03558 0.58985 0.82553 0.0
H767 H 0.03606 0.57227 0.74062 0.0
H768 H 1.00344 0.21024 0.18341 0.0
H769 H 0.99598 0.18702 0.24721 0.0
H770 H 0.01788 0.21478 0.38567 0.0
H771 H 0.02553 0.23814 0.32194 0.0
H772 H 0.02799 0.17447 0.33215 0.0
H773 H 0.96371 0.19115 0.41422 0.0
H774 H 0.96984 0.19722 0.34397 0.0
H775 H 0.97988 0.20724 0.40282 0.0
C776 C 1.00678 0.21133 0.22734 0.0
C777 C 0.01533 0.22576 0.24771 0.0
C778 C 1.00227 0.19826 0.2637 0.0
C779 C 1.00626 0.19946 0.32074 0.0
C780 C 0.01456 0.2139 0.34166 0.0
H781 H 0.9918 0.11282 0.54836 0.0
H782 H 0.99627 0.14241 0.51707 0.0
C783 C 0.01901 0.22707 0.3053 0.0
C784 C 1.00368 0.18456 0.35633 0.0
H785 H 0.97382 0.16345 0.43347 0.0
C786 C 0.01632 0.17214 0.35534 0.0
C787 C 0.98838 0.18178 0.38588 0.0
C788 C 0.97459 0.19501 0.38719 0.0
C789 C 0.01374 0.15648 0.38148 0.0
C790 C 0.99812 0.15334 0.40896 0.0
C791 C 0.98578 0.16608 0.41235 0.0
C792 C 0.99387 0.13627 0.42894 0.0
C793 C 0.02741 0.14314 0.37755 0.0
C794 C 0.99072 0.12343 0.38952 0.0
C795 C 0.98832 0.10677 0.40718 0.0
C796 C 0.98892 0.10287 0.46434 0.0
C797 C 0.9914 0.11577 0.5041 0.0
C798 C 0.99385 0.13252 0.48638 0.0
H799 H 0.0399 0.14872 0.36536 0.0
H800 H 0.02883 0.1364 0.41817 0.0
H801 H 0.02375 0.13362 0.34531 0.0
H802 H 0.99066 0.12624 0.34503 0.0
H803 H 0.98654 0.09683 0.37621 0.0
H804 H 0.31226 1.0067 0.19288 0.0
H805 H 0.33533 0.99813 0.25531 0.0
H806 H 0.31796 0.03375 0.38021 0.0
H807 H 0.29455 0.04226 0.31777 0.0
H808 H 0.35823 0.02731 0.29496 0.0
H809 H 0.33084 0.98536 0.46113 0.0
H810 H 0.32171 0.9864 0.39165 0.0
H811 H 0.3193 1.00395 0.43879 0.0
C812 C 0.31339 0.01266 0.2337 0.0
C813 C 0.30209 0.02543 0.25029 0.0
C814 C 0.32633 1.0076 0.26944 0.0
C815 C 0.32813 0.01528 0.32206 0.0
C816 C 0.31649 0.02759 0.33984 0.0
H817 H 0.41837 0.01307 0.53227 0.0
H818 H 0.3891 0.01778 0.50006 0.0
C819 C 0.30336 0.03255 0.30415 0.0
C820 C 0.34375 1.0123 0.3537 0.0
H821 H 0.36051 0.99043 0.4637 0.0
C822 C 0.35876 0.01939 0.33218 0.0
C823 C 0.34415 1.00192 0.40187 0.0
C824 C 0.32819 0.99387 0.42501 0.0
C825 C 0.3744 0.01613 0.35725 0.0
C826 C 0.37492 1.00545 0.40474 0.0
C827 C 0.35988 0.99865 0.42725 0.0
C828 C 0.39124 1.00069 0.42934 0.0
C829 C 0.39033 0.02384 0.33225 0.0
C830 C 0.40169 0.98927 0.40066 0.0
C831 C 0.41824 0.98656 0.41887 0.0
C832 C 0.42453 0.9953 0.46587 0.0
C833 C 0.41375 1.00623 0.49592 0.0
C834 C 0.39711 1.00885 0.47783 0.0
H835 H 0.38741 0.03404 0.30157 0.0
H836 H 0.39859 0.02918 0.36571 0.0
H837 H 0.39761 0.01379 0.31024 0.0
H838 H 0.39726 0.98302 0.36283 0.0
H839 H 0.42638 0.97828 0.39456 0.0
H840 H 0.48646 0.30612 0.28794 0.0
H841 H 0.4934 0.32956 0.35278 0.0
H842 H 0.54533 0.32937 0.2938 0.0
H843 H 0.53833 0.30628 0.2285 0.0
H844 H 0.5224 0.33438 0.43873 0.0
H845 H 0.52335 0.37678 0.25155 0.0
H846 H 0.51292 0.35626 0.25131 0.0
H847 H 0.53569 0.35765 0.24687 0.0
C848 C 0.49933 0.31112 0.28938 0.0
C849 C 0.51183 0.30496 0.25283 0.0
C850 C 0.5033 0.32427 0.32652 0.0
C851 C 0.51981 0.33112 0.32735 0.0
C852 C 0.53251 0.32422 0.29316 0.0
H853 H 0.55968 0.42695 0.43681 0.0
H854 H 0.55745 0.39743 0.40674 0.0
C855 C 0.52851 0.31124 0.2558 0.0
C856 C 0.52332 0.34683 0.35838 0.0
H857 H 0.53089 0.38898 0.33798 0.0
C858 C 0.52431 0.34635 0.41702 0.0
C859 C 0.5257 0.3623 0.3294 0.0
C860 C 0.52426 0.36342 0.26633 0.0
C861 C 0.52792 0.36115 0.44768 0.0
C862 C 0.53027 0.37663 0.41864 0.0
C863 C 0.52923 0.37701 0.35998 0.0
C864 C 0.53325 0.39289 0.44755 0.0
C865 C 0.52923 0.36012 0.51059 0.0
C866 C 0.5206 0.39985 0.48197 0.0
C867 C 0.52192 0.4167 0.49972 0.0
C868 C 0.5358 0.42681 0.48263 0.0
C869 C 0.54892 0.41944 0.45107 0.0
C870 C 0.54764 0.40261 0.43367 0.0
H871 H 0.53192 0.34697 0.5249 0.0
H872 H 0.53929 0.36878 0.52682 0.0
H873 H 0.51691 0.36404 0.52887 0.0
H874 H 0.50927 0.3926 0.49236 0.0
H875 H 0.51175 0.42204 0.52474 0.0
H876 H 0.23071 0.4901 0.3225 0.0
H877 H 0.20738 0.49858 0.38537 0.0
H878 H 0.18745 0.53109 0.25581 0.0
H879 H 0.21046 0.52265 0.19303 0.0
H880 H 0.19375 0.53619 0.41383 0.0
H881 H 0.15108 0.49169 0.29813 0.0
H882 H 0.17386 0.4889 0.30161 0.0
H883 H 0.16499 0.50458 0.25564 0.0
C884 C 0.22132 0.49906 0.30772 0.0
C885 C 0.22203 0.50542 0.25261 0.0
C886 C 0.20819 0.50399 0.34367 0.0
C887 C 0.19585 0.5154 0.32478 0.0
C888 C 0.19693 0.52222 0.27068 0.0
H889 H 0.09893 0.55597 0.39205 0.0
H890 H 0.12861 0.55156 0.36364 0.0
C891 C 0.20987 0.51721 0.23472 0.0
C892 C 0.18065 0.51892 0.3583 0.0
H893 H 0.13785 0.51227 0.35604 0.0
C894 C 0.18153 0.53081 0.40207 0.0
C895 C 0.16488 0.51173 0.34263 0.0
C896 C 0.16355 0.4984 0.29723 0.0
C897 C 0.16664 0.53631 0.42896 0.0
C898 C 0.15083 0.52978 0.41089 0.0
C899 C 0.1501 0.51739 0.36884 0.0
C900 C 0.13465 0.53552 0.43451 0.0
C901 C 0.1677 0.54933 0.47522 0.0
C902 C 0.12854 0.52808 0.48384 0.0
C903 C 0.11165 0.53041 0.49953 0.0
C904 C 0.10078 0.54026 0.46632 0.0
C905 C 0.10721 0.54854 0.4187 0.0
C906 C 0.12407 0.54605 0.40257 0.0
H907 H 0.1809 0.55405 0.48176 0.0
H908 H 0.15935 0.56027 0.46535 0.0
H909 H 0.16301 0.5436 0.51493 0.0
H910 H 0.1365 0.51961 0.50801 0.0
H911 H 0.10672 0.52379 0.53582 0.0
H912 H 0.99305 0.81745 0.10052 0.0
H913 H 0.99493 0.84159 0.03601 0.0
H914 H 0.03537 0.81673 0.9458 0.0
H915 H 0.03347 0.79249 0.0099 0.0
H916 H 0.02956 0.85624 0.03967 0.0
H917 H 1.00623 0.84301 0.82312 0.0
H918 H 0.99743 0.83245 0.88403 0.0
H919 H 0.01809 0.82671 0.85875 0.0
C920 C 1.00203 0.81702 0.06607 0.0
C921 C 0.01338 0.80344 0.06058 0.0
C922 C 1.00294 0.83063 0.02901 0.0
C923 C 0.01524 0.83077 0.98642 0.0
C924 C 0.02562 0.8166 0.97798 0.0
H925 H 0.05449 0.91927 0.80346 0.0
H926 H 0.05121 0.88983 0.83748 0.0
C927 C 0.02464 0.80291 0.01483 0.0
C928 C 0.01993 0.84698 0.96069 0.0
H929 H 0.0198 0.86949 0.83885 0.0
C930 C 0.02747 0.85916 0.99573 0.0
C931 C 0.01743 0.85041 0.90332 0.0
C932 C 1.00929 0.83753 0.86484 0.0
C933 C 0.03226 0.87503 0.97507 0.0
C934 C 0.02918 0.87877 0.91812 0.0
C935 C 0.02216 0.8664 0.88247 0.0
C936 C 0.03135 0.89607 0.89684 0.0
C937 C 0.04032 0.88774 0.01456 0.0
C938 C 0.02109 0.90893 0.91879 0.0
C939 C 0.02293 0.92547 0.89977 0.0
C940 C 0.03497 0.92935 0.85823 0.0
C941 C 0.04521 0.91646 0.83581 0.0
C942 C 0.04331 0.89977 0.85489 0.0
H943 H 0.0463 0.88136 0.05109 0.0
H944 H 0.05011 0.89554 0.99277 0.0
H945 H 0.03035 0.89639 0.03083 0.0
H946 H 1.01167 0.90615 0.95076 0.0
H947 H 0.01503 0.93529 0.91794 0.0
H948 H 0.73525 0.03568 0.02897 0.0
H949 H 0.71094 0.04067 0.96689 0.0
H950 H 0.69161 0.99046 1.00398 0.0
H951 H 0.71568 0.98555 0.06684 0.0
H952 H 0.69445 0.02363 0.87428 0.0
H953 H 0.65644 0.02365 0.07091 0.0
H954 H 0.6794 0.02417 0.07088 0.0
H955 H 0.66819 1.00446 0.05968 0.0
C956 C 0.72608 0.02554 0.02228 0.0
C957 C 0.72707 1.01034 0.05284 0.0
C958 C 0.71225 0.02841 0.98708 0.0
C959 C 0.69945 0.01604 0.98215 0.0
C960 C 0.70132 1.00021 0.00826 0.0
H961 H 0.59799 1.00785 0.87231 0.0
H962 H 0.62724 1.00408 0.90209 0.0
C963 C 0.71501 0.99741 0.04386 0.0
C964 C 0.68318 0.0204 0.95595 0.0
H965 H 0.64108 0.0247 0.98561 0.0
C966 C 0.68275 0.02396 0.89837 0.0
C967 C 0.66811 0.02111 0.98824 0.0
C968 C 0.66803 0.01832 0.05095 0.0
C969 C 0.6673 0.02738 0.87144 0.0
C970 C 0.65219 0.02743 0.90346 0.0
C971 C 0.65277 0.0245 0.96136 0.0
C972 C 0.63535 0.02936 0.87787 0.0
C973 C 0.66715 0.03038 0.80898 0.0
C974 C 0.63042 0.04478 0.85355 0.0
C975 C 0.61366 0.04693 0.83563 0.0
C976 C 0.60172 0.03371 0.84242 0.0
C977 C 0.60694 0.01817 0.86552 0.0
C978 C 0.62361 0.01601 0.88292 0.0
H979 H 0.67932 0.02659 0.78893 0.0
H980 H 0.65656 0.02323 0.78891 0.0
H981 H 0.66514 0.04411 0.8008 0.0
H982 H 0.63934 0.05529 0.85019 0.0
H983 H 0.60998 0.05898 0.8175 0.0
H984 H 0.47987 0.72749 0.07257 0.0
H985 H 0.47595 0.70294 0.01064 0.0
H986 H 0.52976 0.70331 0.97352 0.0
H987 H 0.53376 0.72734 0.03803 0.0
H988 H 0.48148 0.69598 0.90286 0.0
H989 H 0.52328 0.65656 0.03735 0.0
H990 H 0.51649 0.67753 0.05754 0.0
H991 H 0.53394 0.67491 0.00939 0.0
C992 C 0.49075 0.7224 0.05039 0.0
C993 C 0.50709 0.72901 0.05961 0.0
C994 C 0.48854 0.70846 0.01519 0.0
C995 C 0.50264 0.70116 0.98857 0.0
C996 C 0.51882 0.70854 0.99494 0.0
H997 H 0.51133 0.60862 0.79549 0.0
H998 H 0.51416 0.63837 0.82446 0.0
C999 C 0.52109 0.72226 0.03115 0.0
C1000 C 0.50047 0.68519 0.95729 0.0
H1001 H 0.51318 0.64386 0.95389 0.0
C1002 C 0.48846 0.6846 0.91376 0.0
C1003 C 0.50938 0.67032 0.97262 0.0
C1004 C 0.52135 0.66977 0.02214 0.0
C1005 C 0.48519 0.66945 0.88485 0.0
C1006 C 0.49438 0.6548 0.89941 0.0
C1007 C 0.50645 0.65537 0.94248 0.0
C1008 C 0.49097 0.63831 0.8733 0.0
C1009 C 0.47188 0.66903 0.83939 0.0
C1010 C 0.47682 0.6288 0.89062 0.0
C1011 C 0.47522 0.61186 0.87457 0.0
C1012 C 0.48783 0.60426 0.84134 0.0
C1013 C 0.50152 0.61416 0.82153 0.0
C1014 C 0.50311 0.6311 0.83766 0.0
H1015 H 0.46712 0.68192 0.82906 0.0
H1016 H 0.47716 0.66311 0.80087 0.0
H1017 H 0.46096 0.66108 0.85339 0.0
H1018 H 0.46754 0.6342 0.91903 0.0
H1019 H 0.46468 0.60446 0.89105 0.0
H1020 H 0.82149 0.53404 0.12536 0.0
H1021 H 0.84534 0.5313 0.05963 0.0
H1022 H 0.81215 0.50728 0.93912 0.0
H1023 H 0.78832 0.50981 1.00438 0.0
H1024 H 0.84363 0.4888 0.99873 0.0
H1025 H 0.8561 0.54956 0.8849 0.0
H1026 H 0.84881 0.55015 0.95671 0.0
H1027 H 0.83474 0.54276 0.9028 0.0
C1028 C 0.81927 0.5284 0.08454 0.0
C1029 C 0.80318 0.52193 0.07011 0.0
C1030 C 0.83277 0.5271 0.0469 0.0
C1031 C 0.83028 0.51928 0.99473 0.0
C1032 C 0.8141 0.51361 0.97902 0.0
H1033 H 0.91409 0.48571 0.77795 0.0
H1034 H 0.88474 0.49153 0.80924 0.0
C1035 C 0.80058 0.51498 0.01642 0.0
C1036 C 0.84507 0.51383 0.96238 0.0
H1037 H 0.87664 0.52781 0.87587 0.0
C1038 C 0.85073 0.49719 0.97101 0.0
C1039 C 0.85413 0.52496 0.92685 0.0
C1040 C 0.84821 0.54289 0.91682 0.0
C1041 C 0.86579 0.49153 0.94656 0.0
C1042 C 0.87516 0.5028 0.9124 0.0
C1043 C 0.86917 0.51924 0.90183 0.0
C1044 C 0.89227 0.49846 0.89351 0.0
C1045 C 0.87205 0.47385 0.95925 0.0
C1046 C 0.90583 0.50038 0.93102 0.0
C1047 C 0.92235 0.49729 0.91324 0.0
C1048 C 0.92539 0.4921 0.85801 0.0
C1049 C 0.9118 0.48969 0.82077 0.0
C1050 C 0.89521 0.49301 0.83842 0.0
H1051 H 0.86216 0.46595 0.98026 0.0
H1052 H 0.87611 0.46743 0.92003 0.0
H1053 H 0.88329 0.4747 0.98729 0.0
H1054 H 0.90362 0.50457 0.97371 0.0
H1055 H 0.93279 0.49916 0.9423 0.0
H1056 H 0.01804 0.21918 0.72033 0.0
H1057 H 0.01658 0.18984 0.68555 0.0
H1058 H 0.01974 0.17129 0.85522 0.0
H1059 H 0.02007 0.20021 0.8904 0.0
H1060 H 0.0378 0.16279 0.69126 0.0
H1061 H 0.97851 0.14605 0.80219 0.0
H1062 H 0.98573 0.16773 0.79459 0.0
H1063 H 0.99377 0.15461 0.85049 0.0
C1064 C 0.01816 0.20888 0.75044 0.0
C1065 C 0.01913 0.2123 0.80856 0.0
C1066 C 0.01748 0.19205 0.7303 0.0
C1067 C 0.01768 0.17822 0.76773 0.0
C1068 C 0.0191 0.18163 0.82536 0.0
H1069 H 0.02662 0.06921 0.77855 0.0
H1070 H 0.02675 0.10007 0.7936 0.0
C1071 C 0.0196 0.19833 0.84547 0.0
C1072 C 0.01653 0.16018 0.7477 0.0
H1073 H 0.99614 0.12248 0.77491 0.0
C1074 C 0.02855 0.15403 0.709 0.0
C1075 C 1.00422 0.1487 0.76957 0.0
C1076 C 0.98971 0.15466 0.80594 0.0
C1077 C 0.0292 0.13663 0.69458 0.0
C1078 C 0.01773 0.12502 0.72005 0.0
C1079 C 1.00526 0.13128 0.75661 0.0
C1080 C 0.01843 0.1063 0.7097 0.0
C1081 C 0.04247 0.13062 0.65349 0.0
C1082 C 0.01366 0.09948 0.65765 0.0
C1083 C 0.01336 0.08184 0.64906 0.0
C1084 C 0.01801 0.07054 0.69225 0.0
C1085 C 0.02304 0.07745 0.7442 0.0
C1086 C 0.0231 0.09512 0.75293 0.0
H1087 H 0.05174 0.14081 0.64258 0.0
H1088 H 0.04945 0.1196 0.67099 0.0
H1089 H 0.03612 0.12634 0.61434 0.0
H1090 H 1.00991 0.10783 0.62391 0.0
H1091 H 1.00941 0.07707 0.6085 0.0
H1092 H 0.31101 1.00992 0.7369 0.0
H1093 H 0.34031 1.00884 0.70129 0.0
H1094 H 0.35574 0.04575 0.82488 0.0
H1095 H 0.32657 0.04728 0.85984 0.0
H1096 H 0.36599 0.03973 0.6689 0.0
H1097 H 0.38347 0.99835 0.84886 0.0
H1098 H 0.3622 0.99891 0.82024 0.0
H1099 H 0.36973 0.0161 0.86314 0.0
C1100 C 0.32054 0.01805 0.75597 0.0
C1101 C 0.31636 0.02849 0.80213 0.0
C1102 C 0.33732 0.01738 0.73551 0.0
C1103 C 0.35025 0.02711 0.76077 0.0
C1104 C 0.346 0.03803 0.80505 0.0
H1105 H 0.45975 0.037 0.76529 0.0
H1106 H 0.42895 0.03848 0.78018 0.0
C1107 C 0.32929 0.03875 0.82538 0.0
C1108 C 0.36845 0.02503 0.74449 0.0
H1109 H 0.406 1.00904 0.7934 0.0
C1110 C 0.37473 0.03287 0.69569 0.0
C1111 C 0.37983 0.01605 0.77937 0.0
C1112 C 0.37357 1.00674 0.83075 0.0
C1113 C 0.39221 0.03242 0.68205 0.0
C1114 C 0.40368 0.02388 0.71807 0.0
C1115 C 0.39727 0.01573 0.76609 0.0
C1116 C 0.4224 0.02343 0.70735 0.0
C1117 C 0.39845 0.04156 0.63034 0.0
C1118 C 0.42905 0.01432 0.66178 0.0
C1119 C 0.44669 0.01341 0.65312 0.0
C1120 C 0.45816 0.02153 0.69005 0.0
C1121 C 0.45141 0.03063 0.73579 0.0
C1122 C 0.43376 0.0315 0.74441 0.0
H1123 H 0.38837 0.04944 0.61085 0.0
H1124 H 0.40948 0.04985 0.64086 0.0
H1125 H 0.40278 0.03212 0.59897 0.0
H1126 H 0.4206 1.00763 0.63343 0.0
H1127 H 0.4513 1.00615 0.61771 0.0
H1128 H 0.48467 0.32597 0.84995 0.0
H1129 H 0.48447 0.3553 0.81645 0.0
H1130 H 0.52898 0.34552 0.71601 0.0
H1131 H 0.52927 0.31602 0.74954 0.0
H1132 H 0.51047 0.37815 0.8361 0.0
H1133 H 0.49895 0.37247 0.60737 0.0
H1134 H 0.495 0.35513 0.65535 0.0
H1135 H 0.51636 0.36004 0.63381 0.0
C1136 C 0.49442 0.33 0.82062 0.0
C1137 C 0.50715 0.31863 0.80331 0.0
C1138 C 0.49421 0.34678 0.80115 0.0
C1139 C 0.50667 0.35272 0.76358 0.0
C1140 C 0.51905 0.34125 0.74431 0.0
H1141 H 0.52792 0.45518 0.63468 0.0
H1142 H 0.52766 0.42463 0.65308 0.0
C1143 C 0.51924 0.32436 0.76373 0.0
C1144 C 0.50748 0.37124 0.7494 0.0
H1145 H 0.50544 0.39996 0.6418 0.0
C1146 C 0.50931 0.3829 0.79358 0.0
C1147 C 0.5062 0.3775 0.69391 0.0
C1148 C 0.50388 0.36568 0.64477 0.0
C1149 C 0.50994 0.40054 0.78413 0.0
C1150 C 0.50818 0.40692 0.72879 0.0
C1151 C 0.50664 0.39522 0.68431 0.0
C1152 C 0.50793 0.42562 0.71642 0.0
C1153 C 0.51295 0.41207 0.83379 0.0
C1154 C 0.49668 0.43654 0.74476 0.0
C1155 C 0.497 0.45413 0.735 0.0
C1156 C 0.50828 0.46126 0.69553 0.0
C1157 C 0.5191 0.45024 0.66564 0.0
C1158 C 0.51894 0.43268 0.67604 0.0
H1159 H 0.51955 0.40529 0.8683 0.0
H1160 H 0.52068 0.42338 0.82204 0.0
H1161 H 0.50051 0.41642 0.85035 0.0
H1162 H 0.4876 0.43146 0.77461 0.0
H1163 H 0.4883 0.46212 0.75822 0.0
H1164 H 0.20834 0.53234 0.80455 0.0
H1165 H 0.17865 0.533 0.77206 0.0
H1166 H 0.17813 0.47823 0.76305 0.0
H1167 H 0.20752 0.4776 0.79788 0.0
H1168 H 0.16082 0.52137 0.67997 0.0
H1169 H 0.13926 0.4862 0.8691 0.0
H1170 H 0.16056 0.4946 0.86253 0.0
H1171 H 0.15466 0.47519 0.82739 0.0
C1172 C 0.20185 0.52048 0.79534 0.0
C1173 C 0.21004 0.50491 0.80482 0.0
C1174 C 0.18491 0.52084 0.77667 0.0
C1175 C 0.17587 0.50564 0.76678 0.0
C1176 C 0.18454 0.49012 0.77236 0.0
H1177 H 0.06767 0.48318 0.71011 0.0
H1178 H 0.09857 0.4817 0.72462 0.0
C1179 C 0.20136 0.48975 0.79192 0.0
C1180 C 0.15723 0.506 0.75363 0.0
H1181 H 0.11837 0.49251 0.80163 0.0
C1182 C 0.15153 0.51512 0.7067 0.0
C1183 C 0.14502 0.49768 0.78797 0.0
C1184 C 0.15012 0.48798 0.83984 0.0
C1185 C 0.13411 0.51592 0.6928 0.0
C1186 C 0.12181 0.50791 0.72785 0.0
C1187 C 0.1276 0.49873 0.7746 0.0
C1188 C 0.10295 0.50883 0.71711 0.0
C1189 C 0.12916 0.52448 0.63885 0.0
C1190 C 0.09482 0.52453 0.70857 0.0
C1191 C 0.07723 0.52529 0.69857 0.0
C1192 C 0.06718 0.51047 0.69925 0.0
C1193 C 0.0751 0.49482 0.70964 0.0
C1194 C 0.0928 0.49399 0.71788 0.0
H1195 H 0.14017 0.52591 0.60994 0.0
H1196 H 0.1191 0.51695 0.61769 0.0
H1197 H 0.12422 0.53738 0.64764 0.0
H1198 H 0.10198 0.5363 0.71041 0.0
H1199 H 0.07141 0.53755 0.69144 0.0
H1200 H 0.0331 0.81588 0.57767 0.0
H1201 H 0.03157 0.84524 0.61306 0.0
H1202 H 0.99058 0.85553 0.49821 0.0
H1203 H 0.99218 0.82637 0.46261 0.0
H1204 H 0.03666 0.87482 0.54995 0.0
H1205 H 0.97248 0.87548 0.64543 0.0
H1206 H 0.98386 0.85607 0.63115 0.0
H1207 H 0.97264 0.86674 0.57582 0.0
C1208 C 0.02364 0.82438 0.5605 0.0
C1209 C 0.01285 0.81885 0.51697 0.0
C1210 C 0.02278 0.84116 0.5807 0.0
C1211 C 1.01084 0.85264 0.55877 0.0
C1212 C 0.99974 0.84693 0.5165 0.0
H1213 H 0.99137 0.96138 0.56034 0.0
H1214 H 0.99157 0.9305 0.54484 0.0
C1215 C 1.00077 0.83029 0.49573 0.0
C1216 C 1.01076 0.87092 0.57646 0.0
H1217 H 0.98498 0.90262 0.62554 0.0
C1218 C 0.02542 0.88084 0.5671 0.0
C1219 C 0.99614 0.87885 0.59912 0.0
C1220 C 0.98043 0.86873 0.61407 0.0
C1221 C 0.02562 0.89849 0.57747 0.0
C1222 C 1.01081 0.90653 0.59823 0.0
C1223 C 0.99627 0.89655 0.60892 0.0
C1224 C 1.01025 0.92527 0.60902 0.0
C1225 C 0.04155 0.90851 0.56443 0.0
C1226 C 0.02047 0.93265 0.65083 0.0
C1227 C 0.02032 0.95026 0.65999 0.0
C1228 C 1.00996 0.96104 0.6275 0.0
C1229 C 0.99957 0.95357 0.58603 0.0
C1230 C 0.99963 0.93588 0.5772 0.0
H1231 H 0.05063 0.90114 0.5384 0.0
H1232 H 0.03839 0.92047 0.5421 0.0
H1233 H 0.04801 0.91196 0.60424 0.0
H1234 H 0.02861 0.92477 0.67647 0.0
H1235 H 0.02853 0.95543 0.69231 0.0
H1236 H 0.70544 0.03768 0.505 0.0
H1237 H 0.67603 0.03722 0.53885 0.0
H1238 H 0.68078 0.98398 0.57888 0.0
H1239 H 0.71048 0.98466 0.54732 0.0
H1240 H 0.65084 0.02072 0.49499 0.0
H1241 H 0.65543 0.99851 0.71507 0.0
H1242 H 0.67372 1.00609 0.67639 0.0
H1243 H 0.6659 0.98475 0.66627 0.0
C1244 C 0.70027 0.02593 0.52172 0.0
C1245 C 0.71027 1.01118 0.52308 0.0
C1246 C 0.68343 0.02567 0.54122 0.0
C1247 C 0.67601 1.0106 0.562 0.0
C1248 C 0.68615 0.99592 0.56459 0.0
H1249 H 0.56764 0.98439 0.60192 0.0
H1250 H 0.59865 0.98338 0.58721 0.0
C1251 C 0.70314 0.99626 0.546 0.0
C1252 C 0.65732 1.01004 0.57533 0.0
H1253 H 0.62772 0.9989 0.67485 0.0
C1254 C 0.64589 0.01602 0.53456 0.0
C1255 C 0.65064 1.00387 0.62689 0.0
C1256 C 0.66205 0.9981 0.6739 0.0
C1257 C 0.6282 0.01594 0.54354 0.0
C1258 C 0.62155 1.00966 0.59459 0.0
C1259 C 0.63284 1.00358 0.63549 0.0
C1260 C 0.6029 1.00994 0.60636 0.0
C1261 C 0.61662 0.02258 0.49827 0.0
C1262 C 0.595 0.02515 0.6224 0.0
C1263 C 0.57738 0.02569 0.63161 0.0
C1264 C 0.5672 1.01111 0.62388 0.0
C1265 C 0.57512 0.99587 0.60763 0.0
C1266 C 0.59283 0.99525 0.59955 0.0
H1267 H 0.62356 0.02522 0.45857 0.0
H1268 H 0.60627 0.01326 0.48971 0.0
H1269 H 0.61061 0.03453 0.51282 0.0
H1270 H 0.60247 0.03666 0.6275 0.0
H1271 H 0.57166 0.03763 0.64378 0.0
H1272 H 0.4982 0.71779 0.59557 0.0
H1273 H 0.50072 0.68856 0.63072 0.0
H1274 H 0.52469 0.67367 0.47582 0.0
H1275 H 0.52261 0.70276 0.44111 0.0
H1276 H 0.48698 0.65905 0.58897 0.0
H1277 H 0.55694 0.65343 0.58965 0.0
H1278 H 0.54629 0.67365 0.58536 0.0
H1279 H 0.54923 0.66091 0.52338 0.0
C1280 C 0.50422 0.70835 0.56923 0.0
C1281 C 0.51014 0.71273 0.51521 0.0
C1282 C 0.50558 0.69159 0.58936 0.0
C1283 C 0.51313 0.67884 0.55637 0.0
C1284 C 0.51912 0.68324 0.50271 0.0
H1285 H 0.52756 0.56981 0.54743 0.0
H1286 H 0.52699 0.60064 0.53232 0.0
C1287 C 0.51769 0.69991 0.48251 0.0
C1288 C 0.51403 0.66077 0.57616 0.0
H1289 H 0.54125 0.62719 0.59001 0.0
C1290 C 0.49887 0.65214 0.58983 0.0
C1291 C 0.52954 0.65169 0.57812 0.0
C1292 C 0.54644 0.66044 0.56897 0.0
C1293 C 0.49868 0.63458 0.60209 0.0
C1294 C 0.51413 0.62531 0.60124 0.0
C1295 C 0.52935 0.63411 0.58968 0.0
C1296 C 0.51476 0.60649 0.61132 0.0
C1297 C 0.4818 0.62605 0.61372 0.0
C1298 C 0.50839 0.59936 0.66118 0.0
C1299 C 0.50863 0.58173 0.66985 0.0
C1300 C 0.51544 0.57066 0.62913 0.0
C1301 C 0.5222 0.57784 0.57975 0.0
C1302 C 0.52189 0.59552 0.57105 0.0
H1303 H 0.47097 0.63375 0.59822 0.0
H1304 H 0.48114 0.61329 0.59394 0.0
H1305 H 0.48021 0.62449 0.65969 0.0
H1306 H 0.50321 0.60745 0.69361 0.0
H1307 H 0.50341 0.57682 0.70867 0.0
H1308 H 0.80923 0.52359 0.59695 0.0
H1309 H 0.83843 0.52602 0.63246 0.0
H1310 H 0.85776 0.51773 0.46562 0.0
H1311 H 0.82897 0.51635 0.42932 0.0
H1312 H 0.86574 0.50441 0.63337 0.0
H1313 H 0.8825 0.56073 0.50657 0.0
H1314 H 0.86082 0.55363 0.51589 0.0
H1315 H 0.87419 0.54393 0.46362 0.0
C1316 C 0.81966 0.52253 0.56749 0.0
C1317 C 0.81647 0.51985 0.50978 0.0
C1318 C 0.83642 0.52378 0.58812 0.0
C1319 C 0.85043 0.52245 0.55163 0.0
C1320 C 0.84727 0.51927 0.49461 0.0
H1321 H 0.9599 0.52217 0.54057 0.0
H1322 H 0.92912 0.5226 0.52528 0.0
C1323 C 0.83063 0.51817 0.47395 0.0
C1324 C 0.86841 0.52431 0.57212 0.0
H1325 H 0.90588 0.54485 0.54297 0.0
C1326 C 0.8745 0.51336 0.61403 0.0
C1327 C 0.87987 0.5362 0.54789 0.0
C1328 C 0.87398 0.54941 0.50648 0.0
C1329 C 0.89187 0.51319 0.62952 0.0
C1330 C 0.90355 0.52445 0.60279 0.0
C1331 C 0.8972 0.53593 0.56284 0.0
C1332 C 0.92245 0.52419 0.61334 0.0
C1333 C 0.8975 0.5005 0.67298 0.0
C1334 C 0.92929 0.52517 0.66788 0.0
C1335 C 0.94696 0.52446 0.67669 0.0
C1336 C 0.9583 0.52346 0.63112 0.0
C1337 C 0.95154 0.52312 0.57657 0.0
C1338 C 0.93388 0.52333 0.56784 0.0
H1339 H 0.88819 0.48992 0.67787 0.0
H1340 H 0.91008 0.49502 0.66225 0.0
H1341 H 0.89854 0.50702 0.7141 0.0
H1342 H 0.92101 0.52653 0.70384 0.0
H1343 H 0.95177 0.5249 0.71922 0.0
loop_
_geom_bond_atom_site_label_1
_geom_bond_atom_site_label_2
_geom_bond_distance
_geom_bond_site_symmetry_2
_ccdc_geom_bond_type
C0 C1 1.264 . S
C0 C5 1.479 . S
C0 C10 1.465 . S
C1 C0 1.264 . S
C1 C3 1.339 . S
C1 H28 0.931 . S
C2 C3 1.395 . S
C2 C4 1.320 . S
C3 C1 1.339 . S
C3 C2 1.395 . S
C3 H29 0.929 . S
C4 C2 1.320 . S
C4 C5 1.405 . S
C4 H30 0.930 . S
C5 C0 1.479 . S
C5 C4 1.405 . S
C5 H31 0.931 . S
U6 O7 2.454 . S
U6 O8 2.458 . S
U6 C9 2.984 . S
U6 C10 2.847 . S
U6 C23 2.882 . S
U6 O24 2.441 . S
U6 O25 2.420 . S
U6 O26 2.455 . S
U6 O27 2.449 . S
O7 U6 2.454 . S
O7 C9 1.353 . S
O8 U6 2.458 . S
O8 C9 1.286 . S
C9 U6 2.984 . S
C9 O7 1.353 . S
C9 O8 1.286 . S
C9 C11 1.363 . S
C10 C0 1.465 . S
C10 U6 2.847 . S
C10 O24 1.249 . S
C10 O25 1.202 . S
C11 C9 1.363 . S
C11 C13 1.408 . S
C11 C16 1.342 . S
C12 C13 1.310 . S
C12 C15 1.461 . S
C12 H32 0.932 . S
C13 C11 1.408 . S
C13 C12 1.310 . S
C13 H33 0.930 . S
C14 C15 1.474 . S
C14 C16 1.285 . S
C14 H34 0.929 . S
C15 C12 1.461 . S
C15 C14 1.474 . S
C16 C11 1.342 . S
C16 C14 1.285 . S
C16 H35 0.930 . S
C17 C20 1.424 . S
C17 C22 1.245 . S
C17 C23 1.428 . S
C18 C21 1.260 . S
C18 C22 1.477 . S
C18 H36 0.932 . S
C19 C20 1.384 . S
C19 C21 1.479 . S
C19 H37 0.929 . S
C20 C17 1.424 . S
C20 C19 1.384 . S
C20 H38 0.928 . S
C21 C18 1.260 . S
C21 C19 1.479 . S
C22 C17 1.245 . S
C22 C18 1.477 . S
C22 H39 0.932 . S
C23 U6 2.882 . S
C23 C17 1.428 . S
C23 O26 1.301 . S
C23 O27 1.282 . S
O24 U6 2.441 . S
O24 C10 1.249 . S
O25 U6 2.420 . S
O25 C10 1.202 . S
O26 U6 2.455 . S
O26 C23 1.301 . S
O27 U6 2.449 . S
O27 C23 1.282 . S
H28 C1 0.931 . S
H29 C3 0.929 . S
H30 C4 0.930 . S
H31 C5 0.931 . S
H32 C12 0.932 . S
H33 C13 0.930 . S
H34 C14 0.929 . S
H35 C16 0.930 . S
H36 C18 0.932 . S
H37 C19 0.929 . S
H38 C20 0.928 . S
H39 C22 0.932 . S
C40 C41 1.264 . S
C40 C45 1.479 . S
C40 C50 1.465 . S
C41 C40 1.264 . S
C41 C43 1.339 . S
C41 H68 0.931 . S
C42 C43 1.395 . S
C42 C44 1.320 . S
C43 C41 1.339 . S
C43 C42 1.395 . S
C43 H69 0.929 . S
C44 C42 1.320 . S
C44 C45 1.405 . S
C44 H70 0.921 1_455 S
C45 C40 1.479 . S
C45 C44 1.405 . S
C45 H71 0.931 . S
U46 O47 2.454 . S
U46 O48 2.458 . S
U46 C49 2.984 . S
U46 C50 2.847 . S
U46 C63 2.882 . S
U46 O64 2.441 . S
U46 O65 2.420 . S
U46 O66 2.455 . S
U46 O67 2.449 . S
O47 U46 2.454 . S
O47 C49 1.353 . S
O48 U46 2.458 . S
O48 C49 1.286 . S
C49 U46 2.984 . S
C49 O47 1.353 . S
C49 O48 1.286 . S
C49 C51 1.363 . S
C50 C40 1.465 . S
C50 U46 2.847 . S
C50 O64 1.249 . S
C50 O65 1.202 . S
C51 C49 1.363 . S
C51 C53 1.408 . S
C51 C56 1.353 . S
C52 C53 1.310 . S
C52 C55 1.461 . S
C52 H72 0.936 . S
C53 C51 1.408 . S
C53 C52 1.310 . S
C53 H73 0.930 . S
C54 C55 1.474 1_655 S
C54 C56 1.282 1_655 S
C54 H74 0.930 . S
C55 C52 1.461 . S
C55 C54 1.474 1_455 S
C56 C51 1.353 . S
C56 C54 1.282 1_455 S
C56 H75 0.929 . S
C57 C60 1.424 . S
C57 C62 1.245 . S
C57 C63 1.428 . S
C58 C61 1.260 . S
C58 C62 1.477 . S
C58 H76 0.932 . S
C59 C60 1.384 . S
C59 C61 1.479 . S
C59 H77 0.929 . S
C60 C57 1.424 . S
C60 C59 1.384 . S
C60 H78 0.928 . S
C61 C58 1.260 . S
C61 C59 1.479 . S
C62 C57 1.245 . S
C62 C58 1.477 . S
C62 H79 0.932 . S
C63 U46 2.882 . S
C63 C57 1.428 . S
C63 O66 1.301 . S
C63 O67 1.282 . S
O64 U46 2.441 . S
O64 C50 1.249 . S
O65 U46 2.420 . S
O65 C50 1.202 . S
O66 U46 2.455 . S
O66 C63 1.301 . S
O67 U46 2.449 . S
O67 C63 1.282 . S
H68 C41 0.931 . S
H69 C43 0.929 . S
H70 C44 0.921 1_655 S
H71 C45 0.931 . S
H72 C52 0.936 . S
H73 C53 0.930 . S
H74 C54 0.930 . S
H75 C56 0.929 . S
H76 C58 0.932 . S
H77 C59 0.929 . S
H78 C60 0.928 . S
H79 C62 0.932 . S
C80 C81 1.264 . S
C80 C85 1.479 . S
C80 C90 1.465 . S
C81 C80 1.264 . S
C81 C83 1.339 . S
C81 H108 0.931 . S
C82 C83 1.395 1_565 S
C82 C84 1.320 . S
C83 C81 1.339 . S
C83 C82 1.395 1_545 S
C83 H109 0.929 . S
C84 C82 1.320 . S
C84 C85 1.405 1_565 S
C84 H110 0.930 . S
C85 C80 1.479 . S
C85 C84 1.405 1_545 S
C85 H111 0.931 . S
U86 O87 2.457 . S
U86 O88 2.466 . S
U86 C89 2.986 . S
U86 C90 2.847 . S
U86 C103 2.882 . S
U86 O104 2.441 . S
U86 O105 2.420 . S
U86 O106 2.455 . S
U86 O107 2.449 . S
O87 U86 2.457 . S
O87 C89 1.353 . S
O88 U86 2.466 . S
O88 C89 1.285 . S
C89 U86 2.986 . S
C89 O87 1.353 . S
C89 O88 1.285 . S
C89 C91 1.362 1_545 S
C90 C80 1.465 . S
C90 U86 2.847 . S
C90 O104 1.249 . S
C90 O105 1.202 . S
C91 C89 1.362 1_565 S
C91 C93 1.408 . S
C91 C96 1.342 . S
C92 C93 1.310 . S
C92 C95 1.461 . S
C92 H112 0.932 . S
C93 C91 1.408 . S
C93 C92 1.310 . S
C93 H113 0.930 . S
C94 C95 1.474 . S
C94 C96 1.285 . S
C94 H114 0.929 . S
C95 C92 1.461 . S
C95 C94 1.474 . S
C96 C91 1.342 . S
C96 C94 1.285 . S
C96 H115 0.930 . S
C97 C100 1.424 . S
C97 C102 1.245 . S
C97 C103 1.428 . S
C98 C101 1.254 1_545 S
C98 C102 1.481 . S
C98 H116 0.936 . S
C99 C100 1.384 1_565 S
C99 C101 1.478 . S
C99 H117 0.928 1_565 S
C100 C97 1.424 . S
C100 C99 1.384 1_545 S
C100 H118 0.929 . S
C101 C98 1.254 1_565 S
C101 C99 1.478 . S
C102 C97 1.245 . S
C102 C98 1.481 . S
C102 H119 0.932 . S
C103 U86 2.882 . S
C103 C97 1.428 . S
C103 O106 1.301 . S
C103 O107 1.282 . S
O104 U86 2.441 . S
O104 C90 1.249 . S
O105 U86 2.420 . S
O105 C90 1.202 . S
O106 U86 2.455 . S
O106 C103 1.301 . S
O107 U86 2.449 . S
O107 C103 1.282 . S
H108 C81 0.931 . S
H109 C83 0.929 . S
H110 C84 0.930 . S
H111 C85 0.931 . S
H112 C92 0.932 . S
H113 C93 0.930 . S
H114 C94 0.929 . S
H115 C96 0.930 . S
H116 C98 0.936 . S
H117 C99 0.928 1_545 S
H118 C100 0.929 . S
H119 C102 0.932 . S
C120 C121 1.264 . S
C120 C125 1.479 . S
C120 C130 1.465 . S
C121 C120 1.264 . S
C121 C123 1.339 . S
C121 H148 0.931 . S
C122 C123 1.395 . S
C122 C124 1.320 . S
C123 C121 1.339 . S
C123 C122 1.395 . S
C123 H149 0.929 . S
C124 C122 1.320 . S
C124 C125 1.405 . S
C124 H150 0.930 . S
C125 C120 1.479 . S
C125 C124 1.405 . S
C125 H151 0.931 . S
U126 O127 2.454 . S
U126 O128 2.458 . S
U126 C129 2.984 . S
U126 C130 2.847 . S
U126 C143 2.882 . S
U126 O144 2.441 . S
U126 O145 2.420 . S
U126 O146 2.455 . S
U126 O147 2.449 . S
O127 U126 2.454 . S
O127 C129 1.353 . S
O128 U126 2.458 . S
O128 C129 1.286 . S
C129 U126 2.984 . S
C129 O127 1.353 . S
C129 O128 1.286 . S
C129 C131 1.363 . S
C130 C120 1.465 . S
C130 U126 2.847 . S
C130 O144 1.249 . S
C130 O145 1.202 . S
C131 C129 1.363 . S
C131 C133 1.408 . S
C131 C136 1.342 . S
C132 C133 1.310 . S
C132 C135 1.461 . S
C132 H152 0.932 . S
C133 C131 1.408 . S
C133 C132 1.310 . S
C133 H153 0.930 . S
C134 C135 1.474 . S
C134 C136 1.285 . S
C134 H154 0.929 . S
C135 C132 1.461 . S
C135 C134 1.474 . S
C136 C131 1.342 . S
C136 C134 1.285 . S
C136 H155 0.930 . S
C137 C140 1.424 . S
C137 C142 1.245 . S
C137 C143 1.428 . S
C138 C141 1.260 . S
C138 C142 1.477 . S
C138 H156 0.932 . S
C139 C140 1.384 . S
C139 C141 1.479 . S
C139 H157 0.929 . S
C140 C137 1.424 . S
C140 C139 1.384 . S
C140 H158 0.928 . S
C141 C138 1.260 . S
C141 C139 1.479 . S
C142 C137 1.245 . S
C142 C138 1.477 . S
C142 H159 0.932 . S
C143 U126 2.882 . S
C143 C137 1.428 . S
C143 O146 1.301 . S
C143 O147 1.282 . S
O144 U126 2.441 . S
O144 C130 1.249 . S
O145 U126 2.420 . S
O145 C130 1.202 . S
O146 U126 2.455 . S
O146 C143 1.301 . S
O147 U126 2.449 . S
O147 C143 1.282 . S
H148 C121 0.931 . S
H149 C123 0.929 . S
H150 C124 0.930 . S
H151 C125 0.931 . S
H152 C132 0.932 . S
H153 C133 0.930 . S
H154 C134 0.929 . S
H155 C136 0.930 . S
H156 C138 0.932 . S
H157 C139 0.929 . S
H158 C140 0.928 . S
H159 C142 0.932 . S
C160 C161 1.264 . S
C160 C165 1.479 . S
C160 C170 1.465 . S
C161 C160 1.264 . S
C161 C163 1.339 . S
C161 H188 0.931 . S
C162 C163 1.395 . S
C162 C164 1.320 . S
C163 C161 1.339 . S
C163 C162 1.395 . S
C163 H189 0.929 . S
C164 C162 1.320 . S
C164 C165 1.405 . S
C164 H190 0.930 . S
C165 C160 1.479 . S
C165 C164 1.405 . S
C165 H191 0.931 . S
U166 O167 2.454 . S
U166 O168 2.458 . S
U166 C169 2.984 . S
U166 C170 2.847 1_554 S
U166 C183 2.882 . S
U166 O184 2.441 1_554 S
U166 O185 2.420 1_554 S
U166 O186 2.455 . S
U166 O187 2.449 . S
O167 U166 2.454 . S
O167 C169 1.353 . S
O168 U166 2.458 . S
O168 C169 1.286 . S
C169 U166 2.984 . S
C169 O167 1.353 . S
C169 O168 1.286 . S
C169 C171 1.363 . S
C170 C160 1.465 . S
C170 U166 2.847 1_556 S
C170 O184 1.249 . S
C170 O185 1.202 . S
C171 C169 1.363 . S
C171 C173 1.408 . S
C171 C176 1.342 . S
C172 C173 1.310 . S
C172 C175 1.461 . S
C172 H192 0.932 . S
C173 C171 1.408 . S
C173 C172 1.310 . S
C173 H193 0.930 1_554 S
C174 C175 1.474 . S
C174 C176 1.285 . S
C174 H194 0.929 . S
C175 C172 1.461 . S
C175 C174 1.474 . S
C176 C171 1.342 . S
C176 C174 1.285 . S
C176 H195 0.930 . S
C177 C180 1.424 . S
C177 C182 1.245 . S
C177 C183 1.428 . S
C178 C181 1.260 . S
C178 C182 1.477 . S
C178 H196 0.932 . S
C179 C180 1.384 . S
C179 C181 1.479 . S
C179 H197 0.929 . S
C180 C177 1.424 . S
C180 C179 1.384 . S
C180 H198 0.928 . S
C181 C178 1.260 . S
C181 C179 1.479 . S
C182 C177 1.245 . S
C182 C178 1.477 . S
C182 H199 0.932 . S
C183 U166 2.882 . S
C183 C177 1.428 . S
C183 O186 1.301 . S
C183 O187 1.282 . S
O184 U166 2.441 1_556 S
O184 C170 1.249 . S
O185 U166 2.420 1_556 S
O185 C170 1.202 . S
O186 U166 2.455 . S
O186 C183 1.301 . S
O187 U166 2.449 . S
O187 C183 1.282 . S
H188 C161 0.931 . S
H189 C163 0.929 . S
H190 C164 0.930 . S
H191 C165 0.931 . S
H192 C172 0.932 . S
H193 C173 0.930 1_556 S
H194 C174 0.929 . S
H195 C176 0.930 . S
H196 C178 0.932 . S
H197 C179 0.929 . S
H198 C180 0.928 . S
H199 C182 0.932 . S
C200 C201 1.264 . S
C200 C205 1.479 . S
C200 C210 1.465 . S
C201 C200 1.264 . S
C201 C203 1.339 . S
C201 H228 0.931 . S
C202 C203 1.395 . S
C202 C204 1.320 . S
C203 C201 1.339 . S
C203 C202 1.395 . S
C203 H229 0.929 . S
C204 C202 1.320 . S
C204 C205 1.405 . S
C204 H230 0.924 1_455 S
C205 C200 1.479 . S
C205 C204 1.405 . S
C205 H231 0.931 . S
U206 O207 2.454 . S
U206 O208 2.458 . S
U206 C209 2.984 . S
U206 C210 2.847 1_554 S
U206 C223 2.882 . S
U206 O224 2.441 1_554 S
U206 O225 2.420 1_554 S
U206 O226 2.455 . S
U206 O227 2.449 . S
O207 U206 2.454 . S
O207 C209 1.353 . S
O208 U206 2.458 . S
O208 C209 1.286 . S
C209 U206 2.984 . S
C209 O207 1.353 . S
C209 O208 1.286 . S
C209 C211 1.363 . S
C210 C200 1.465 . S
C210 U206 2.847 1_556 S
C210 O224 1.249 . S
C210 O225 1.202 . S
C211 C209 1.363 . S
C211 C213 1.408 . S
C211 C216 1.342 . S
C212 C213 1.310 . S
C212 C215 1.462 . S
C212 H232 0.932 . S
C213 C211 1.408 . S
C213 C212 1.310 . S
C213 H233 0.930 1_554 S
C214 C215 1.474 1_655 S
C214 C216 1.286 1_655 S
C214 H234 0.929 . S
C215 C212 1.462 . S
C215 C214 1.474 1_455 S
C216 C211 1.342 . S
C216 C214 1.286 1_455 S
C216 H235 0.933 . S
C217 C220 1.424 . S
C217 C222 1.245 . S
C217 C223 1.428 . S
C218 C221 1.260 . S
C218 C222 1.477 . S
C218 H236 0.932 . S
C219 C220 1.384 . S
C219 C221 1.479 . S
C219 H237 0.929 . S
C220 C217 1.424 . S
C220 C219 1.384 . S
C220 H238 0.928 . S
C221 C218 1.260 . S
C221 C219 1.479 . S
C222 C217 1.245 . S
C222 C218 1.477 . S
C222 H239 0.932 . S
C223 U206 2.882 . S
C223 C217 1.428 . S
C223 O226 1.301 . S
C223 O227 1.282 . S
O224 U206 2.441 1_556 S
O224 C210 1.249 . S
O225 U206 2.420 1_556 S
O225 C210 1.202 . S
O226 U206 2.455 . S
O226 C223 1.301 . S
O227 U206 2.449 . S
O227 C223 1.282 . S
H228 C201 0.931 . S
H229 C203 0.929 . S
H230 C204 0.924 1_655 S
H231 C205 0.931 . S
H232 C212 0.932 . S
H233 C213 0.930 1_556 S
H234 C214 0.929 . S
H235 C216 0.933 . S
H236 C218 0.932 . S
H237 C219 0.929 . S
H238 C220 0.928 . S
H239 C222 0.932 . S
C240 C241 1.264 . S
C240 C245 1.479 . S
C240 C250 1.465 . S
C241 C240 1.264 . S
C241 C243 1.339 . S
C241 H268 0.931 . S
C242 C243 1.395 . S
C242 C244 1.320 . S
C243 C241 1.339 . S
C243 C242 1.395 . S
C243 H269 0.929 . S
C244 C242 1.320 . S
C244 C245 1.405 . S
C244 H270 0.930 . S
C245 C240 1.479 . S
C245 C244 1.405 . S
C245 H271 0.931 . S
U246 O247 2.454 . S
U246 O248 2.458 . S
U246 C249 2.984 . S
U246 C250 2.847 1_554 S
U246 C263 2.882 . S
U246 O264 2.441 1_554 S
U246 O265 2.420 1_554 S
U246 O266 2.455 . S
U246 O267 2.449 . S
O247 U246 2.454 . S
O247 C249 1.353 . S
O248 U246 2.458 . S
O248 C249 1.286 . S
C249 U246 2.984 . S
C249 O247 1.353 . S
C249 O248 1.286 . S
C249 C251 1.363 . S
C250 C240 1.465 . S
C250 U246 2.847 1_556 S
C250 O264 1.249 . S
C250 O265 1.202 . S
C251 C249 1.363 . S
C251 C253 1.408 . S
C251 C256 1.342 . S
C252 C253 1.310 . S
C252 C255 1.461 . S
C252 H272 0.932 . S
C253 C251 1.408 . S
C253 C252 1.310 . S
C253 H273 0.930 1_554 S
C254 C255 1.474 . S
C254 C256 1.285 . S
C254 H274 0.929 . S
C255 C252 1.461 . S
C255 C254 1.474 . S
C256 C251 1.342 . S
C256 C254 1.285 . S
C256 H275 0.930 . S
C257 C260 1.424 . S
C257 C262 1.245 . S
C257 C263 1.428 . S
C258 C261 1.260 . S
C258 C262 1.477 . S
C258 H276 0.932 . S
C259 C260 1.384 . S
C259 C261 1.479 . S
C259 H277 0.929 . S
C260 C257 1.424 . S
C260 C259 1.384 . S
C260 H278 0.928 . S
C261 C258 1.260 . S
C261 C259 1.479 . S
C262 C257 1.245 . S
C262 C258 1.477 . S
C262 H279 0.932 . S
C263 U246 2.882 . S
C263 C257 1.428 . S
C263 O266 1.301 . S
C263 O267 1.282 . S
O264 U246 2.441 1_556 S
O264 C250 1.249 . S
O265 U246 2.420 1_556 S
O265 C250 1.202 . S
O266 U246 2.455 . S
O266 C263 1.301 . S
O267 U246 2.449 . S
O267 C263 1.282 . S
H268 C241 0.931 . S
H269 C243 0.929 . S
H270 C244 0.930 . S
H271 C245 0.931 . S
H272 C252 0.932 . S
H273 C253 0.930 1_556 S
H274 C254 0.929 . S
H275 C256 0.930 . S
H276 C258 0.932 . S
H277 C259 0.929 . S
H278 C260 0.928 . S
H279 C262 0.932 . S
C280 C281 1.264 . S
C280 C285 1.479 . S
C280 C290 1.465 . S
C281 C280 1.264 . S
C281 C283 1.339 . S
C281 H308 0.931 . S
C282 C283 1.395 . S
C282 C284 1.320 . S
C283 C281 1.339 . S
C283 C282 1.395 . S
C283 H309 0.929 . S
C284 C282 1.320 . S
C284 C285 1.405 . S
C284 H310 0.930 . S
C285 C280 1.479 . S
C285 C284 1.405 . S
C285 H311 0.931 . S
U286 O287 2.454 . S
U286 O288 2.458 . S
U286 C289 2.984 . S
U286 C290 2.847 1_554 S
U286 C303 2.882 . S
U286 O304 2.441 1_554 S
U286 O305 2.420 1_554 S
U286 O306 2.455 . S
U286 O307 2.449 . S
O287 U286 2.454 . S
O287 C289 1.353 . S
O288 U286 2.458 . S
O288 C289 1.286 . S
C289 U286 2.984 . S
C289 O287 1.353 . S
C289 O288 1.286 . S
C289 C291 1.363 . S
C290 C280 1.465 . S
C290 U286 2.847 1_556 S
C290 O304 1.249 . S
C290 O305 1.202 . S
C291 C289 1.363 . S
C291 C293 1.408 . S
C291 C296 1.342 . S
C292 C293 1.310 . S
C292 C295 1.461 . S
C292 H312 0.932 . S
C293 C291 1.408 . S
C293 C292 1.310 . S
C293 H313 0.930 1_554 S
C294 C295 1.474 . S
C294 C296 1.285 . S
C294 H314 0.929 . S
C295 C292 1.461 . S
C295 C294 1.474 . S
C296 C291 1.342 . S
C296 C294 1.285 . S
C296 H315 0.930 . S
C297 C300 1.424 . S
C297 C302 1.245 . S
C297 C303 1.428 . S
C298 C301 1.260 . S
C298 C302 1.477 . S
C298 H316 0.932 . S
C299 C300 1.384 . S
C299 C301 1.479 . S
C299 H317 0.929 . S
C300 C297 1.424 . S
C300 C299 1.384 . S
C300 H318 0.928 . S
C301 C298 1.260 . S
C301 C299 1.479 . S
C302 C297 1.245 . S
C302 C298 1.477 . S
C302 H319 0.932 . S
C303 U286 2.882 . S
C303 C297 1.428 . S
C303 O306 1.301 . S
C303 O307 1.282 . S
O304 U286 2.441 1_556 S
O304 C290 1.249 . S
O305 U286 2.420 1_556 S
O305 C290 1.202 . S
O306 U286 2.455 . S
O306 C303 1.301 . S
O307 U286 2.449 . S
O307 C303 1.282 . S
H308 C281 0.931 . S
H309 C283 0.929 . S
H310 C284 0.930 . S
H311 C285 0.931 . S
H312 C292 0.932 . S
H313 C293 0.930 1_556 S
H314 C294 0.929 . S
H315 C296 0.930 . S
H316 C298 0.932 . S
H317 C299 0.929 . S
H318 C300 0.928 . S
H319 C302 0.932 . S
Sm320 C322 2.846 . S
Sm320 O340 2.567 . S
Sm320 O341 2.450 . S
Sm320 O342 2.681 1_565 S
Sm320 O343 2.464 . S
Sm320 O344 2.396 . S
Sm320 O348 2.386 1_455 S
Sm320 O351 2.408 1_565 S
Sm321 C331 2.846 . S
Sm321 O342 2.386 1_655 S
Sm321 O345 2.408 1_545 S
Sm321 O346 2.561 . S
Sm321 O347 2.450 . S
Sm321 O348 2.681 1_545 S
Sm321 O349 2.464 . S
Sm321 O350 2.396 . S
C322 Sm320 2.846 . S
C322 C323 1.506 . S
C322 O340 1.320 . S
C322 O341 1.242 . S
C323 C322 1.506 . S
C323 C324 1.358 . S
C323 C328 1.382 . S
C324 C323 1.358 . S
C324 C325 1.385 . S
C324 H352 0.930 1_455 S
C325 C324 1.385 . S
C325 C326 1.395 . S
C325 H353 0.929 1_455 S
C326 C325 1.395 . S
C326 C327 1.335 . S
C327 C326 1.335 . S
C327 C328 1.398 . S
C327 H354 0.930 . S
C328 C323 1.382 . S
C328 C327 1.398 . S
C328 H355 0.929 . S
C329 O342 1.271 . S
C329 O343 1.251 1_545 S
C330 O344 1.252 1_655 S
C330 O345 1.272 . S
C331 Sm321 2.846 . S
C331 C332 1.506 . S
C331 O346 1.305 . S
C331 O347 1.242 . S
C332 C331 1.506 . S
C332 C333 1.358 . S
C332 C337 1.382 . S
C333 C332 1.358 . S
C333 C334 1.385 . S
C333 H356 0.930 1_655 S
C334 C333 1.385 . S
C334 C335 1.395 . S
C334 H357 0.929 1_655 S
C335 C334 1.395 . S
C335 C336 1.335 . S
C336 C335 1.335 . S
C336 C337 1.398 . S
C336 H358 0.930 . S
C337 C332 1.382 . S
C337 C336 1.398 . S
C337 H359 0.929 . S
C338 O348 1.271 1_545 S
C338 O349 1.251 . S
C339 O350 1.252 1_455 S
C339 O351 1.272 . S
O340 Sm320 2.567 . S
O340 C322 1.320 . S
O341 Sm320 2.450 . S
O341 C322 1.242 . S
O342 Sm320 2.681 1_545 S
O342 Sm321 2.386 1_455 S
O342 C329 1.271 . S
O343 Sm320 2.464 . S
O343 C329 1.251 1_565 S
O344 Sm320 2.396 . S
O344 C330 1.252 1_455 S
O345 Sm321 2.408 1_565 S
O345 C330 1.272 . S
O346 Sm321 2.561 . S
O346 C331 1.305 . S
O347 Sm321 2.450 . S
O347 C331 1.242 . S
O348 Sm320 2.386 1_655 S
O348 Sm321 2.681 1_565 S
O348 C338 1.271 1_565 S
O349 Sm321 2.464 . S
O349 C338 1.251 . S
O350 Sm321 2.396 . S
O350 C339 1.252 1_655 S
O351 Sm320 2.408 1_545 S
O351 C339 1.272 . S
H352 C324 0.930 1_655 S
H353 C325 0.929 1_655 S
H354 C327 0.930 . S
H355 C328 0.929 . S
H356 C333 0.930 1_455 S
H357 C334 0.929 1_455 S
H358 C336 0.930 . S
H359 C337 0.929 . S
Sm360 C362 2.846 . S
Sm360 O380 2.543 . S
Sm360 O381 2.450 . S
Sm360 O382 2.681 . S
Sm360 O383 2.464 . S
Sm360 O384 2.396 . S
Sm360 O388 2.386 1_545 S
Sm360 O391 2.408 . S
Sm361 C371 2.846 . S
Sm361 O382 2.386 1_565 S
Sm361 O385 2.408 . S
Sm361 O386 2.543 1_565 S
Sm361 O387 2.450 . S
Sm361 O388 2.681 . S
Sm361 O389 2.464 . S
Sm361 O390 2.396 . S
C362 Sm360 2.846 . S
C362 C363 1.506 . S
C362 O380 1.261 . S
C362 O381 1.242 . S
C363 C362 1.506 . S
C363 C364 1.358 . S
C363 C368 1.382 . S
C364 C363 1.358 . S
C364 C365 1.385 . S
C364 H392 0.930 1_545 S
C365 C364 1.385 . S
C365 C366 1.395 . S
C365 H393 0.929 1_545 S
C366 C365 1.395 . S
C366 C367 1.335 . S
C367 C366 1.335 . S
C367 C368 1.398 . S
C367 H394 0.930 . S
C368 C363 1.382 . S
C368 C367 1.398 . S
C368 H395 0.929 . S
C369 O382 1.271 . S
C369 O383 1.251 . S
C370 O384 1.252 1_565 S
C370 O385 1.272 . S
C371 Sm361 2.846 . S
C371 C372 1.506 . S
C371 O386 1.261 1_565 S
C371 O387 1.242 . S
C372 C371 1.506 . S
C372 C373 1.358 1_565 S
C372 C377 1.382 . S
C373 C372 1.358 1_545 S
C373 C374 1.385 . S
C373 H396 0.930 . S
C374 C373 1.385 . S
C374 C375 1.396 1_545 S
C374 H397 0.928 . S
C375 C374 1.396 1_565 S
C375 C376 1.335 . S
C376 C375 1.335 . S
C376 C377 1.398 . S
C376 H398 0.930 . S
C377 C372 1.382 . S
C377 C376 1.398 . S
C377 H399 0.929 . S
C378 O388 1.271 . S
C378 O389 1.251 . S
C379 O390 1.252 1_545 S
C379 O391 1.272 . S
O380 Sm360 2.543 . S
O380 C362 1.261 . S
O381 Sm360 2.450 . S
O381 C362 1.242 . S
O382 Sm360 2.681 . S
O382 Sm361 2.386 1_545 S
O382 C369 1.271 . S
O383 Sm360 2.464 . S
O383 C369 1.251 . S
O384 Sm360 2.396 . S
O384 C370 1.252 1_545 S
O385 Sm361 2.408 . S
O385 C370 1.272 . S
O386 Sm361 2.543 1_545 S
O386 C371 1.261 1_545 S
O387 Sm361 2.450 . S
O387 C371 1.242 . S
O388 Sm360 2.386 1_565 S
O388 Sm361 2.681 . S
O388 C378 1.271 . S
O389 Sm361 2.464 . S
O389 C378 1.251 . S
O390 Sm361 2.396 . S
O390 C379 1.252 1_565 S
O391 Sm360 2.408 . S
O391 C379 1.272 . S
H392 C364 0.930 1_565 S
H393 C365 0.929 1_565 S
H394 C367 0.930 . S
H395 C368 0.929 . S
H396 C373 0.930 . S
H397 C374 0.928 . S
H398 C376 0.930 . S
H399 C377 0.929 . S
Sm400 C402 2.846 . S
Sm400 O420 2.543 . S
Sm400 O421 2.450 . S
Sm400 O422 2.681 . S
Sm400 O423 2.464 . S
Sm400 O424 2.396 . S
Sm400 O428 2.386 . S
Sm400 O431 2.408 . S
Sm401 C411 2.846 . S
Sm401 O422 2.386 . S
Sm401 O425 2.408 . S
Sm401 O426 2.543 . S
Sm401 O427 2.450 . S
Sm401 O428 2.681 . S
Sm401 O429 2.464 . S
Sm401 O430 2.396 . S
C402 Sm400 2.846 . S
C402 C403 1.506 . S
C402 O420 1.261 . S
C402 O421 1.242 . S
C403 C402 1.506 . S
C403 C404 1.358 . S
C403 C408 1.382 . S
C404 C403 1.358 . S
C404 C405 1.385 . S
C404 H432 0.930 . S
C405 C404 1.385 . S
C405 C406 1.395 . S
C405 H433 0.929 . S
C406 C405 1.395 . S
C406 C407 1.335 . S
C407 C406 1.335 . S
C407 C408 1.398 . S
C407 H434 0.930 . S
C408 C403 1.382 . S
C408 C407 1.398 . S
C408 H435 0.929 . S
C409 O422 1.271 . S
C409 O423 1.251 . S
C410 O424 1.252 . S
C410 O425 1.272 . S
C411 Sm401 2.846 . S
C411 C412 1.506 . S
C411 O426 1.261 . S
C411 O427 1.242 . S
C412 C411 1.506 . S
C412 C413 1.358 . S
C412 C417 1.382 . S
C413 C412 1.358 . S
C413 C414 1.385 . S
C413 H436 0.930 . S
C414 C413 1.385 . S
C414 C415 1.395 . S
C414 H437 0.929 . S
C415 C414 1.395 . S
C415 C416 1.335 . S
C416 C415 1.335 . S
C416 C417 1.398 . S
C416 H438 0.930 . S
C417 C412 1.382 . S
C417 C416 1.398 . S
C417 H439 0.929 . S
C418 O428 1.271 . S
C418 O429 1.251 . S
C419 O430 1.252 . S
C419 O431 1.272 . S
O420 Sm400 2.543 . S
O420 C402 1.261 . S
O421 Sm400 2.450 . S
O421 C402 1.242 . S
O422 Sm400 2.681 . S
O422 Sm401 2.386 . S
O422 C409 1.271 . S
O423 Sm400 2.464 . S
O423 C409 1.251 . S
O424 Sm400 2.396 . S
O424 C410 1.252 . S
O425 Sm401 2.408 . S
O425 C410 1.272 . S
O426 Sm401 2.543 . S
O426 C411 1.261 . S
O427 Sm401 2.450 . S
O427 C411 1.242 . S
O428 Sm400 2.386 . S
O428 Sm401 2.681 . S
O428 C418 1.271 . S
O429 Sm401 2.464 . S
O429 C418 1.251 . S
O430 Sm401 2.396 . S
O430 C419 1.252 . S
O431 Sm400 2.408 . S
O431 C419 1.272 . S
H432 C404 0.930 . S
H433 C405 0.929 . S
H434 C407 0.930 . S
H435 C408 0.929 . S
H436 C413 0.930 . S
H437 C414 0.929 . S
H438 C416 0.930 . S
H439 C417 0.929 . S
Sm440 C442 2.846 . S
Sm440 O460 2.543 . S
Sm440 O461 2.450 . S
Sm440 O462 2.681 1_655 S
Sm440 O463 2.464 . S
Sm440 O464 2.396 . S
Sm440 O468 2.386 . S
Sm440 O471 2.408 1_655 S
Sm441 C451 2.846 . S
Sm441 O462 2.386 . S
Sm441 O465 2.408 1_455 S
Sm441 O466 2.543 . S
Sm441 O467 2.450 . S
Sm441 O468 2.681 1_455 S
Sm441 O469 2.464 . S
Sm441 O470 2.396 . S
C442 Sm440 2.846 . S
C442 C443 1.506 . S
C442 O460 1.261 . S
C442 O461 1.242 . S
C443 C442 1.506 . S
C443 C444 1.358 . S
C443 C448 1.382 . S
C444 C443 1.358 . S
C444 C445 1.385 . S
C444 H472 0.930 . S
C445 C444 1.385 . S
C445 C446 1.395 . S
C445 H473 0.929 . S
C446 C445 1.395 . S
C446 C447 1.335 . S
C447 C446 1.335 . S
C447 C448 1.398 . S
C447 H474 0.930 . S
C448 C443 1.382 . S
C448 C447 1.398 . S
C448 H475 0.929 . S
C449 O462 1.271 1_655 S
C449 O463 1.251 . S
C450 O464 1.252 . S
C450 O465 1.272 . S
C451 Sm441 2.846 . S
C451 C452 1.506 . S
C451 O466 1.261 . S
C451 O467 1.242 . S
C452 C451 1.506 . S
C452 C453 1.358 . S
C452 C457 1.382 . S
C453 C452 1.358 . S
C453 C454 1.385 . S
C453 H476 0.930 . S
C454 C453 1.385 . S
C454 C455 1.395 . S
C454 H477 0.929 . S
C455 C454 1.395 . S
C455 C456 1.335 . S
C456 C455 1.335 . S
C456 C457 1.398 . S
C456 H478 0.930 . S
C457 C452 1.382 . S
C457 C456 1.398 . S
C457 H479 0.929 . S
C458 O468 1.271 1_455 S
C458 O469 1.251 . S
C459 O470 1.252 . S
C459 O471 1.272 . S
O460 Sm440 2.543 . S
O460 C442 1.261 . S
O461 Sm440 2.450 . S
O461 C442 1.242 . S
O462 Sm440 2.681 1_455 S
O462 Sm441 2.386 . S
O462 C449 1.271 1_455 S
O463 Sm440 2.464 . S
O463 C449 1.251 . S
O464 Sm440 2.396 . S
O464 C450 1.252 . S
O465 Sm441 2.408 1_655 S
O465 C450 1.272 . S
O466 Sm441 2.543 . S
O466 C451 1.261 . S
O467 Sm441 2.450 . S
O467 C451 1.242 . S
O468 Sm440 2.386 . S
O468 Sm441 2.681 1_655 S
O468 C458 1.271 1_655 S
O469 Sm441 2.464 . S
O469 C458 1.251 . S
O470 Sm441 2.396 . S
O470 C459 1.252 . S
O471 Sm440 2.408 1_455 S
O471 C459 1.272 . S
H472 C444 0.930 . S
H473 C445 0.929 . S
H474 C447 0.930 . S
H475 C448 0.929 . S
H476 C453 0.930 . S
H477 C454 0.929 . S
H478 C456 0.930 . S
H479 C457 0.929 . S
H480 C488 0.970 . S
H481 C490 0.930 . S
H482 C492 0.930 . S
H483 C495 0.929 . S
H484 C498 0.930 . S
H485 C500 0.954 1_565 S
H486 C500 0.917 1_565 S
H487 C500 1.001 . S
C488 H480 0.970 . S
C488 C489 1.337 1_565 S
C488 C490 1.388 . S
C489 C488 1.337 1_545 S
C489 C495 1.390 . S
C490 H481 0.930 . S
C490 C488 1.388 . S
C490 C491 1.372 1_565 S
C491 C490 1.372 1_545 S
C491 C492 1.400 . S
C491 C496 1.490 . S
C492 H482 0.930 . S
C492 C491 1.400 . S
C492 C495 1.386 . S
H493 C509 0.930 . S
H494 C510 0.931 . S
C495 H483 0.929 . S
C495 C489 1.390 . S
C495 C492 1.386 . S
C496 C491 1.490 . S
C496 C498 1.395 . S
C496 C499 1.403 . S
H497 C503 0.930 . S
C498 H484 0.930 . S
C498 C496 1.395 . S
C498 C501 1.403 . S
C499 C496 1.403 . S
C499 C500 1.536 . S
C499 C503 1.400 . S
C500 H485 0.954 1_545 S
C500 H486 0.917 1_545 S
C500 H487 1.001 . S
C500 C499 1.536 . S
C501 C498 1.403 . S
C501 C502 1.392 . S
C501 C505 1.495 . S
C502 C501 1.392 . S
C502 C503 1.385 . S
C502 C504 1.478 . S
C503 H497 0.930 . S
C503 C499 1.400 . S
C503 C502 1.385 . S
C504 C502 1.478 . S
C504 C506 1.381 1_545 S
C504 C510 1.383 . S
C505 C501 1.495 . S
C505 H511 0.959 . S
C505 H512 0.961 . S
C505 H513 0.960 . S
C506 C504 1.381 1_565 S
C506 C507 1.394 . S
C506 H514 0.930 . S
C507 C506 1.394 . S
C507 C508 1.383 1_565 S
C507 H515 0.929 . S
C508 C507 1.383 1_545 S
C508 C509 1.377 . S
C509 H493 0.930 . S
C509 C508 1.377 . S
C509 C510 1.379 . S
C510 H494 0.931 . S
C510 C504 1.383 . S
C510 C509 1.379 . S
H511 C505 0.959 . S
H512 C505 0.961 . S
H513 C505 0.960 . S
H514 C506 0.930 . S
H515 C507 0.929 . S
H516 C524 0.929 . S
H517 C526 0.930 . S
H518 C528 0.930 . S
H519 C531 0.929 . S
H520 C534 0.930 . S
H521 C536 0.960 . S
H522 C536 0.960 . S
H523 C536 0.960 . S
C524 H516 0.929 . S
C524 C525 1.377 . S
C524 C526 1.384 . S
C525 C524 1.377 . S
C525 C531 1.390 . S
C526 H517 0.930 . S
C526 C524 1.384 . S
C526 C527 1.372 . S
C527 C526 1.372 . S
C527 C528 1.400 . S
C527 C532 1.490 . S
C528 H518 0.930 . S
C528 C527 1.400 . S
C528 C531 1.386 . S
H529 C545 0.930 . S
H530 C546 0.931 . S
C531 H519 0.929 . S
C531 C525 1.390 . S
C531 C528 1.386 . S
C532 C527 1.490 . S
C532 C534 1.395 . S
C532 C535 1.403 . S
H533 C539 0.930 . S
C534 H520 0.930 . S
C534 C532 1.395 . S
C534 C537 1.403 . S
C535 C532 1.403 . S
C535 C536 1.524 . S
C535 C539 1.400 . S
C536 H521 0.960 . S
C536 H522 0.960 . S
C536 H523 0.960 . S
C536 C535 1.524 . S
C537 C534 1.403 . S
C537 C538 1.392 . S
C537 C541 1.495 . S
C538 C537 1.392 . S
C538 C539 1.385 . S
C538 C540 1.478 . S
C539 H533 0.930 . S
C539 C535 1.400 . S
C539 C538 1.385 . S
C540 C538 1.478 . S
C540 C542 1.381 . S
C540 C546 1.383 . S
C541 C537 1.495 . S
C541 H547 0.959 . S
C541 H548 0.961 . S
C541 H549 0.960 . S
C542 C540 1.381 . S
C542 C543 1.394 . S
C542 H550 0.930 . S
C543 C542 1.394 . S
C543 C544 1.383 . S
C543 H551 0.929 . S
C544 C543 1.383 . S
C544 C545 1.377 . S
C545 H529 0.930 . S
C545 C544 1.377 . S
C545 C546 1.379 . S
C546 H530 0.931 . S
C546 C540 1.383 . S
C546 C545 1.379 . S
H547 C541 0.959 . S
H548 C541 0.961 . S
H549 C541 0.960 . S
H550 C542 0.930 . S
H551 C543 0.929 . S
H552 C560 0.929 . S
H553 C562 0.930 . S
H554 C564 0.930 . S
H555 C567 0.929 . S
H556 C570 0.930 . S
H557 C572 0.960 . S
H558 C572 0.960 . S
H559 C572 0.960 . S
C560 H552 0.929 . S
C560 C561 1.377 . S
C560 C562 1.384 . S
C561 C560 1.377 . S
C561 C567 1.390 . S
C562 H553 0.930 . S
C562 C560 1.384 . S
C562 C563 1.372 . S
C563 C562 1.372 . S
C563 C564 1.400 . S
C563 C568 1.490 . S
C564 H554 0.930 . S
C564 C563 1.400 . S
C564 C567 1.386 . S
H565 C581 0.930 . S
H566 C582 0.931 . S
C567 H555 0.929 . S
C567 C561 1.390 . S
C567 C564 1.386 . S
C568 C563 1.490 . S
C568 C570 1.395 . S
C568 C571 1.403 . S
H569 C575 0.930 . S
C570 H556 0.930 . S
C570 C568 1.395 . S
C570 C573 1.403 . S
C571 C568 1.403 . S
C571 C572 1.524 . S
C571 C575 1.400 . S
C572 H557 0.960 . S
C572 H558 0.960 . S
C572 H559 0.960 . S
C572 C571 1.524 . S
C573 C570 1.403 . S
C573 C574 1.392 . S
C573 C577 1.495 . S
C574 C573 1.392 . S
C574 C575 1.385 . S
C574 C576 1.478 . S
C575 H569 0.930 . S
C575 C571 1.400 . S
C575 C574 1.385 . S
C576 C574 1.478 . S
C576 C578 1.381 . S
C576 C582 1.383 . S
C577 C573 1.495 . S
C577 H583 0.959 . S
C577 H584 0.961 . S
C577 H585 0.960 . S
C578 C576 1.381 . S
C578 C579 1.394 . S
C578 H586 0.930 . S
C579 C578 1.394 . S
C579 C580 1.383 . S
C579 H587 0.929 . S
C580 C579 1.383 . S
C580 C581 1.377 . S
C581 H565 0.930 . S
C581 C580 1.377 . S
C581 C582 1.379 . S
C582 H566 0.931 . S
C582 C576 1.383 . S
C582 C581 1.379 . S
H583 C577 0.959 . S
H584 C577 0.961 . S
H585 C577 0.960 . S
H586 C578 0.930 . S
H587 C579 0.929 . S
H588 C596 0.929 . S
H589 C598 0.930 . S
H590 C600 0.930 . S
H591 C603 0.929 . S
H592 C606 0.930 . S
H593 C608 0.960 . S
H594 C608 0.960 . S
H595 C608 0.960 . S
C596 H588 0.929 . S
C596 C597 1.386 . S
C596 C598 1.384 . S
C597 C596 1.386 . S
C597 C603 1.381 1_455 S
C598 H589 0.930 . S
C598 C596 1.384 . S
C598 C599 1.372 . S
C599 C598 1.372 . S
C599 C600 1.400 1_455 S
C599 C604 1.490 . S
C600 H590 0.930 . S
C600 C599 1.400 1_655 S
C600 C603 1.386 . S
H601 C617 0.930 . S
H602 C618 0.931 . S
C603 H591 0.929 . S
C603 C597 1.381 1_655 S
C603 C600 1.386 . S
C604 C599 1.490 . S
C604 C606 1.395 . S
C604 C607 1.403 1_455 S
H605 C611 0.930 . S
C606 H592 0.930 . S
C606 C604 1.395 . S
C606 C609 1.403 . S
C607 C604 1.403 1_655 S
C607 C608 1.524 . S
C607 C611 1.400 . S
C608 H593 0.960 . S
C608 H594 0.960 . S
C608 H595 0.960 . S
C608 C607 1.524 . S
C609 C606 1.403 . S
C609 C610 1.392 . S
C609 C613 1.495 . S
C610 C609 1.392 . S
C610 C611 1.385 1_455 S
C610 C612 1.478 . S
C611 H605 0.930 . S
C611 C607 1.400 . S
C611 C610 1.385 1_655 S
C612 C610 1.478 . S
C612 C614 1.381 . S
C612 C618 1.383 1_455 S
C613 C609 1.495 . S
C613 H619 0.959 . S
C613 H620 0.961 . S
C613 H621 0.960 . S
C614 C612 1.381 . S
C614 C615 1.394 . S
C614 H622 0.930 . S
C615 C614 1.394 . S
C615 C616 1.383 . S
C615 H623 0.929 . S
C616 C615 1.383 . S
C616 C617 1.377 1_455 S
C617 H601 0.930 . S
C617 C616 1.377 1_655 S
C617 C618 1.379 . S
C618 H602 0.931 . S
C618 C612 1.383 1_655 S
C618 C617 1.379 . S
H619 C613 0.959 . S
H620 C613 0.961 . S
H621 C613 0.960 . S
H622 C614 0.930 . S
H623 C615 0.929 . S
H624 C632 0.929 . S
H625 C634 0.930 . S
H626 C636 0.930 . S
H627 C639 0.929 . S
H628 C642 0.930 1_554 S
H629 C644 0.960 . S
H630 C644 0.960 . S
H631 C644 0.960 1_554 S
C632 H624 0.929 . S
C632 C633 1.377 1_545 S
C632 C634 1.384 . S
C633 C632 1.377 1_565 S
C633 C639 1.390 . S
C634 H625 0.930 . S
C634 C632 1.384 . S
C634 C635 1.372 1_545 S
C635 C634 1.372 1_565 S
C635 C636 1.400 . S
C635 C640 1.490 . S
C636 H626 0.930 . S
C636 C635 1.400 . S
C636 C639 1.386 . S
H637 C653 0.930 . S
H638 C654 0.931 . S
C639 H627 0.929 . S
C639 C633 1.390 . S
C639 C636 1.386 . S
C640 C635 1.490 . S
C640 C642 1.395 1_564 S
C640 C643 1.403 1_554 S
H641 C647 0.930 . S
C642 H628 0.930 1_556 S
C642 C640 1.395 1_546 S
C642 C645 1.403 . S
C643 C640 1.403 1_556 S
C643 C644 1.524 . S
C643 C647 1.400 . S
C644 H629 0.960 . S
C644 H630 0.960 . S
C644 H631 0.960 1_556 S
C644 C643 1.524 . S
C645 C642 1.403 . S
C645 C646 1.392 . S
C645 C649 1.495 . S
C646 C645 1.392 . S
C646 C647 1.385 1_545 S
C646 C648 1.478 . S
C647 H641 0.930 . S
C647 C643 1.400 . S
C647 C646 1.385 1_565 S
C648 C646 1.478 . S
C648 C650 1.381 . S
C648 C654 1.383 1_545 S
C649 C645 1.495 . S
C649 H655 0.959 . S
C649 H656 0.961 . S
C649 H657 0.960 . S
C650 C648 1.381 . S
C650 C651 1.394 . S
C650 H658 0.930 . S
C651 C650 1.394 . S
C651 C652 1.383 . S
C651 H659 0.929 . S
C652 C651 1.383 . S
C652 C653 1.377 1_545 S
C653 H637 0.930 . S
C653 C652 1.377 1_565 S
C653 C654 1.379 . S
C654 H638 0.931 . S
C654 C648 1.383 1_565 S
C654 C653 1.379 . S
H655 C649 0.959 . S
H656 C649 0.961 . S
H657 C649 0.960 . S
H658 C650 0.930 . S
H659 C651 0.929 . S
H660 C668 0.929 . S
H661 C670 0.930 . S
H662 C672 0.930 . S
H663 C675 0.929 . S
H664 C678 0.930 . S
H665 C680 0.960 . S
H666 C680 0.960 . S
H667 C680 0.960 . S
C668 H660 0.929 . S
C668 C669 1.377 . S
C668 C670 1.384 . S
C669 C668 1.377 . S
C669 C675 1.390 . S
C670 H661 0.930 . S
C670 C668 1.384 . S
C670 C671 1.372 . S
C671 C670 1.372 . S
C671 C672 1.400 . S
C671 C676 1.490 . S
C672 H662 0.930 . S
C672 C671 1.400 . S
C672 C675 1.386 . S
H673 C689 0.930 . S
H674 C690 0.931 . S
C675 H663 0.929 . S
C675 C669 1.390 . S
C675 C672 1.386 . S
C676 C671 1.490 . S
C676 C678 1.395 1_554 S
C676 C679 1.403 . S
H677 C683 0.930 . S
C678 H664 0.930 . S
C678 C676 1.395 1_556 S
C678 C681 1.403 . S
C679 C676 1.403 . S
C679 C680 1.524 . S
C679 C683 1.400 1_554 S
C680 H665 0.960 . S
C680 H666 0.960 . S
C680 H667 0.960 . S
C680 C679 1.524 . S
C681 C678 1.403 . S
C681 C682 1.392 . S
C681 C685 1.495 . S
C682 C681 1.392 . S
C682 C683 1.385 . S
C682 C684 1.478 . S
C683 H677 0.930 . S
C683 C679 1.400 1_556 S
C683 C682 1.385 . S
C684 C682 1.478 . S
C684 C686 1.381 . S
C684 C690 1.383 . S
C685 C681 1.495 . S
C685 H691 0.959 . S
C685 H692 0.961 . S
C685 H693 0.960 . S
C686 C684 1.381 . S
C686 C687 1.394 . S
C686 H694 0.930 . S
C687 C686 1.394 . S
C687 C688 1.383 . S
C687 H695 0.929 . S
C688 C687 1.383 . S
C688 C689 1.377 . S
C689 H673 0.930 . S
C689 C688 1.377 . S
C689 C690 1.379 . S
C690 H674 0.931 . S
C690 C684 1.383 . S
C690 C689 1.379 . S
H691 C685 0.959 . S
H692 C685 0.961 . S
H693 C685 0.960 . S
H694 C686 0.930 . S
H695 C687 0.929 . S
H696 C704 0.929 . S
H697 C706 0.930 . S
H698 C708 0.930 . S
H699 C711 0.929 . S
H700 C714 0.930 . S
H701 C716 0.960 . S
H702 C716 0.960 . S
H703 C716 0.960 . S
C704 H696 0.929 . S
C704 C705 1.377 . S
C704 C706 1.384 . S
C705 C704 1.377 . S
C705 C711 1.390 . S
C706 H697 0.930 . S
C706 C704 1.384 . S
C706 C707 1.372 . S
C707 C706 1.372 . S
C707 C708 1.400 . S
C707 C712 1.490 . S
C708 H698 0.930 . S
C708 C707 1.400 . S
C708 C711 1.386 . S
H709 C725 0.930 . S
H710 C726 0.931 . S
C711 H699 0.929 . S
C711 C705 1.390 . S
C711 C708 1.386 . S
C712 C707 1.490 . S
C712 C714 1.395 . S
C712 C715 1.403 1_554 S
H713 C719 0.930 . S
C714 H700 0.930 . S
C714 C712 1.395 . S
C714 C717 1.403 1_554 S
C715 C712 1.403 1_556 S
C715 C716 1.524 . S
C715 C719 1.400 . S
C716 H701 0.960 . S
C716 H702 0.960 . S
C716 H703 0.960 . S
C716 C715 1.524 . S
C717 C714 1.403 1_556 S
C717 C718 1.392 . S
C717 C721 1.495 . S
C718 C717 1.392 . S
C718 C719 1.385 . S
C718 C720 1.478 . S
C719 H713 0.930 . S
C719 C715 1.400 . S
C719 C718 1.385 . S
C720 C718 1.478 . S
C720 C722 1.381 . S
C720 C726 1.383 . S
C721 C717 1.495 . S
C721 H727 0.959 . S
C721 H728 0.961 . S
C721 H729 0.960 . S
C722 C720 1.381 . S
C722 C723 1.394 . S
C722 H730 0.930 . S
C723 C722 1.394 . S
C723 C724 1.383 . S
C723 H731 0.929 . S
C724 C723 1.383 . S
C724 C725 1.377 . S
C725 H709 0.930 . S
C725 C724 1.377 . S
C725 C726 1.379 . S
C726 H710 0.931 . S
C726 C720 1.383 . S
C726 C725 1.379 . S
H727 C721 0.959 . S
H728 C721 0.961 . S
H729 C721 0.960 . S
H730 C722 0.930 . S
H731 C723 0.929 . S
H732 C740 0.929 . S
H733 C742 0.930 . S
H734 C744 0.930 . S
H735 C747 0.929 . S
H736 C750 0.916 1_554 S
H737 C752 0.960 . S
H738 C752 0.960 . S
H739 C752 0.960 . S
C740 H732 0.929 . S
C740 C741 1.379 1_455 S
C740 C742 1.384 . S
C741 C740 1.379 1_655 S
C741 C747 1.388 . S
C742 H733 0.930 . S
C742 C740 1.384 . S
C742 C743 1.399 . S
C743 C742 1.399 . S
C743 C744 1.372 1_455 S
C743 C748 1.490 . S
C744 H734 0.930 . S
C744 C743 1.372 1_655 S
C744 C747 1.386 . S
H745 C761 0.930 . S
H746 C762 0.931 . S
C747 H735 0.929 . S
C747 C741 1.388 . S
C747 C744 1.386 . S
C748 C743 1.490 . S
C748 C750 1.440 1_554 S
C748 C751 1.360 1_454 S
H749 C755 0.930 . S
C750 H736 0.916 1_556 S
C750 C748 1.440 1_556 S
C750 C753 1.419 . S
C751 C748 1.360 1_656 S
C751 C752 1.524 . S
C751 C755 1.400 . S
C752 H737 0.960 . S
C752 H738 0.960 . S
C752 H739 0.960 . S
C752 C751 1.524 . S
C753 C750 1.419 . S
C753 C754 1.392 . S
C753 C757 1.495 . S
C754 C753 1.392 . S
C754 C755 1.385 1_455 S
C754 C756 1.478 . S
C755 H749 0.930 . S
C755 C751 1.400 . S
C755 C754 1.385 1_655 S
C756 C754 1.478 . S
C756 C758 1.381 . S
C756 C762 1.383 1_455 S
C757 C753 1.495 . S
C757 H763 0.959 . S
C757 H764 0.961 . S
C757 H765 0.960 . S
C758 C756 1.381 . S
C758 C759 1.394 . S
C758 H766 0.930 . S
C759 C758 1.394 . S
C759 C760 1.394 . S
C759 H767 0.929 . S
C760 C759 1.394 . S
C760 C761 1.367 1_455 S
C761 H745 0.930 . S
C761 C760 1.367 1_655 S
C761 C762 1.379 . S
C762 H746 0.931 . S
C762 C756 1.383 1_655 S
C762 C761 1.379 . S
H763 C757 0.959 . S
H764 C757 0.961 . S
H765 C757 0.960 . S
H766 C758 0.930 . S
H767 C759 0.929 . S
H768 C776 0.933 . S
H769 C778 0.930 . S
H770 C780 0.930 . S
H771 C783 0.931 . S
H772 C786 0.930 . S
H773 C788 0.960 . S
H774 C788 0.960 . S
H775 C788 0.960 . S
C776 H768 0.933 . S
C776 C777 1.379 . S
C776 C778 1.379 1_455 S
C777 C776 1.379 . S
C777 C783 1.390 1_455 S
C778 H769 0.930 . S
C778 C776 1.379 1_655 S
C778 C779 1.372 . S
C779 C778 1.372 . S
C779 C780 1.400 . S
C779 C784 1.490 . S
C780 H770 0.930 . S
C780 C779 1.400 . S
C780 C783 1.386 . S
H781 C797 0.930 . S
H782 C798 0.931 . S
C783 H771 0.931 . S
C783 C777 1.390 1_655 S
C783 C780 1.386 . S
C784 C779 1.490 . S
C784 C786 1.395 1_655 S
C784 C787 1.403 . S
H785 C791 0.930 . S
C786 H772 0.930 . S
C786 C784 1.395 1_455 S
C786 C789 1.403 . S
C787 C784 1.403 . S
C787 C788 1.524 . S
C787 C791 1.400 . S
C788 H773 0.960 . S
C788 H774 0.960 . S
C788 H775 0.960 . S
C788 C787 1.524 . S
C789 C786 1.403 . S
C789 C790 1.392 1_455 S
C789 C793 1.495 . S
C790 C789 1.392 1_655 S
C790 C791 1.385 . S
C790 C792 1.478 . S
C791 H785 0.930 . S
C791 C787 1.400 . S
C791 C790 1.385 . S
C792 C790 1.478 . S
C792 C794 1.381 . S
C792 C798 1.383 . S
C793 C789 1.495 . S
C793 H799 0.959 . S
C793 H800 0.961 . S
C793 H801 0.960 . S
C794 C792 1.381 . S
C794 C795 1.394 . S
C794 H802 0.930 . S
C795 C794 1.394 . S
C795 C796 1.383 . S
C795 H803 0.929 . S
C796 C795 1.383 . S
C796 C797 1.377 . S
C797 H781 0.930 . S
C797 C796 1.377 . S
C797 C798 1.379 . S
C798 H782 0.931 . S
C798 C792 1.383 . S
C798 C797 1.379 . S
H799 C793 0.959 . S
H800 C793 0.961 . S
H801 C793 0.960 . S
H802 C794 0.930 . S
H803 C795 0.929 . S
H804 C812 0.929 . S
H805 C814 0.908 1_565 S
H806 C816 0.930 . S
H807 C819 0.929 . S
H808 C822 0.930 . S
H809 C824 0.960 . S
H810 C824 0.960 . S
H811 C824 0.960 . S
C812 H804 0.929 . S
C812 C813 1.377 . S
C812 C814 1.395 . S
C813 C812 1.377 . S
C813 C819 1.390 . S
C814 H805 0.908 1_545 S
C814 C812 1.395 . S
C814 C815 1.384 . S
C815 C814 1.384 . S
C815 C816 1.400 . S
C815 C820 1.490 . S
C816 H806 0.930 . S
C816 C815 1.400 . S
C816 C819 1.386 . S
H817 C833 0.930 . S
H818 C834 0.931 1_545 S
C819 H807 0.929 . S
C819 C813 1.390 . S
C819 C816 1.386 . S
C820 C815 1.490 . S
C820 C822 1.395 . S
C820 C823 1.403 1_545 S
H821 C827 0.930 . S
C822 H808 0.930 . S
C822 C820 1.395 . S
C822 C825 1.403 . S
C823 C820 1.403 1_565 S
C823 C824 1.524 . S
C823 C827 1.400 . S
C824 H809 0.960 . S
C824 H810 0.960 . S
C824 H811 0.960 . S
C824 C823 1.524 . S
C825 C822 1.403 . S
C825 C826 1.392 1_545 S
C825 C829 1.495 . S
C826 C825 1.392 1_565 S
C826 C827 1.385 . S
C826 C828 1.478 . S
C827 H821 0.930 . S
C827 C823 1.400 . S
C827 C826 1.385 . S
C828 C826 1.478 . S
C828 C830 1.381 . S
C828 C834 1.383 . S
C829 C825 1.495 . S
C829 H835 0.959 . S
C829 H836 0.961 . S
C829 H837 0.960 . S
C830 C828 1.381 . S
C830 C831 1.394 . S
C830 H838 0.930 . S
C831 C830 1.394 . S
C831 C832 1.383 . S
C831 H839 0.929 . S
C832 C831 1.383 . S
C832 C833 1.377 . S
C833 H817 0.930 . S
C833 C832 1.377 . S
C833 C834 1.379 . S
C834 H818 0.931 1_565 S
C834 C828 1.383 . S
C834 C833 1.379 . S
H835 C829 0.959 . S
H836 C829 0.961 . S
H837 C829 0.960 . S
H838 C830 0.930 . S
H839 C831 0.929 . S
H840 C848 0.929 . S
H841 C850 0.930 . S
H842 C852 0.930 . S
H843 C855 0.929 . S
H844 C858 0.930 . S
H845 C860 0.960 . S
H846 C860 0.960 . S
H847 C860 0.960 . S
C848 H840 0.929 . S
C848 C849 1.377 . S
C848 C850 1.384 . S
C849 C848 1.377 . S
C849 C855 1.390 . S
C850 H841 0.930 . S
C850 C848 1.384 . S
C850 C851 1.372 . S
C851 C850 1.372 . S
C851 C852 1.400 . S
C851 C856 1.490 . S
C852 H842 0.930 . S
C852 C851 1.400 . S
C852 C855 1.386 . S
H853 C869 0.930 . S
H854 C870 0.931 . S
C855 H843 0.929 . S
C855 C849 1.390 . S
C855 C852 1.386 . S
C856 C851 1.490 . S
C856 C858 1.395 . S
C856 C859 1.403 . S
H857 C863 0.930 . S
C858 H844 0.930 . S
C858 C856 1.395 . S
C858 C861 1.403 . S
C859 C856 1.403 . S
C859 C860 1.524 . S
C859 C863 1.400 . S
C860 H845 0.960 . S
C860 H846 0.960 . S
C860 H847 0.960 . S
C860 C859 1.524 . S
C861 C858 1.403 . S
C861 C862 1.392 . S
C861 C865 1.495 . S
C862 C861 1.392 . S
C862 C863 1.385 . S
C862 C864 1.478 . S
C863 H857 0.930 . S
C863 C859 1.400 . S
C863 C862 1.385 . S
C864 C862 1.478 . S
C864 C866 1.381 . S
C864 C870 1.383 . S
C865 C861 1.495 . S
C865 H871 0.959 . S
C865 H872 0.961 . S
C865 H873 0.960 . S
C866 C864 1.381 . S
C866 C867 1.394 . S
C866 H874 0.930 . S
C867 C866 1.394 . S
C867 C868 1.383 . S
C867 H875 0.929 . S
C868 C867 1.383 . S
C868 C869 1.377 . S
C869 H853 0.930 . S
C869 C868 1.377 . S
C869 C870 1.379 . S
C870 H854 0.931 . S
C870 C864 1.383 . S
C870 C869 1.379 . S
H871 C865 0.959 . S
H872 C865 0.961 . S
H873 C865 0.960 . S
H874 C866 0.930 . S
H875 C867 0.929 . S
H876 C884 0.929 . S
H877 C886 0.930 . S
H878 C888 0.930 . S
H879 C891 0.929 . S
H880 C894 0.930 . S
H881 C896 0.960 . S
H882 C896 0.960 . S
H883 C896 0.960 . S
C884 H876 0.929 . S
C884 C885 1.377 . S
C884 C886 1.384 . S
C885 C884 1.377 . S
C885 C891 1.390 . S
C886 H877 0.930 . S
C886 C884 1.384 . S
C886 C887 1.372 . S
C887 C886 1.372 . S
C887 C888 1.400 . S
C887 C892 1.490 . S
C888 H878 0.930 . S
C888 C887 1.400 . S
C888 C891 1.386 . S
H889 C905 0.930 . S
H890 C906 0.931 . S
C891 H879 0.929 . S
C891 C885 1.390 . S
C891 C888 1.386 . S
C892 C887 1.490 . S
C892 C894 1.395 . S
C892 C895 1.403 . S
H893 C899 0.930 . S
C894 H880 0.930 . S
C894 C892 1.395 . S
C894 C897 1.403 . S
C895 C892 1.403 . S
C895 C896 1.524 . S
C895 C899 1.400 . S
C896 H881 0.960 . S
C896 H882 0.960 . S
C896 H883 0.960 . S
C896 C895 1.524 . S
C897 C894 1.403 . S
C897 C898 1.392 . S
C897 C901 1.495 . S
C898 C897 1.392 . S
C898 C899 1.385 . S
C898 C900 1.478 . S
C899 H893 0.930 . S
C899 C895 1.400 . S
C899 C898 1.385 . S
C900 C898 1.478 . S
C900 C902 1.381 . S
C900 C906 1.383 . S
C901 C897 1.495 . S
C901 H907 0.959 . S
C901 H908 0.961 . S
C901 H909 0.960 . S
C902 C900 1.381 . S
C902 C903 1.394 . S
C902 H910 0.930 . S
C903 C902 1.394 . S
C903 C904 1.383 . S
C903 H911 0.929 . S
C904 C903 1.383 . S
C904 C905 1.377 . S
C905 H889 0.930 . S
C905 C904 1.377 . S
C905 C906 1.379 . S
C906 H890 0.931 . S
C906 C900 1.383 . S
C906 C905 1.379 . S
H907 C901 0.959 . S
H908 C901 0.961 . S
H909 C901 0.960 . S
H910 C902 0.930 . S
H911 C903 0.929 . S
H912 C920 0.929 . S
H913 C922 0.930 . S
H914 C924 0.930 . S
H915 C927 0.929 1_556 S
H916 C930 0.930 . S
H917 C932 0.960 . S
H918 C932 0.960 . S
H919 C932 0.960 1_455 S
C920 H912 0.929 . S
C920 C921 1.377 . S
C920 C922 1.384 . S
C921 C920 1.377 . S
C921 C927 1.390 1_655 S
C922 H913 0.930 . S
C922 C920 1.384 . S
C922 C923 1.372 1_654 S
C923 C922 1.372 1_456 S
C923 C924 1.400 . S
C923 C928 1.490 . S
C924 H914 0.930 . S
C924 C923 1.400 . S
C924 C927 1.386 1_556 S
H925 C941 0.930 . S
H926 C942 0.931 . S
C927 H915 0.929 1_554 S
C927 C921 1.390 1_455 S
C927 C924 1.386 1_554 S
C928 C923 1.490 . S
C928 C930 1.395 1_556 S
C928 C931 1.403 . S
H929 C935 0.930 . S
C930 H916 0.930 . S
C930 C928 1.395 1_554 S
C930 C933 1.403 1_554 S
C931 C928 1.403 . S
C931 C932 1.524 1_455 S
C931 C935 1.400 . S
C932 H917 0.960 . S
C932 H918 0.960 . S
C932 H919 0.960 1_655 S
C932 C931 1.524 1_655 S
C933 C930 1.403 1_556 S
C933 C934 1.392 . S
C933 C937 1.495 1_556 S
C934 C933 1.392 . S
C934 C935 1.385 . S
C934 C936 1.478 . S
C935 H929 0.930 . S
C935 C931 1.400 . S
C935 C934 1.385 . S
C936 C934 1.478 . S
C936 C938 1.381 . S
C936 C942 1.383 . S
C937 C933 1.495 1_554 S
C937 H943 0.959 . S
C937 H944 0.961 . S
C937 H945 0.960 . S
C938 C936 1.381 . S
C938 C939 1.394 . S
C938 H946 0.930 . S
C939 C938 1.394 . S
C939 C940 1.383 . S
C939 H947 0.929 . S
C940 C939 1.383 . S
C940 C941 1.377 . S
C941 H925 0.930 . S
C941 C940 1.377 . S
C941 C942 1.379 . S
C942 H926 0.931 . S
C942 C936 1.383 . S
C942 C941 1.379 . S
H943 C937 0.959 . S
H944 C937 0.961 . S
H945 C937 0.960 . S
H946 C938 0.930 . S
H947 C939 0.929 . S
H948 C956 0.929 . S
H949 C958 0.928 1_556 S
H950 C960 0.930 . S
H951 C963 0.929 . S
H952 C966 0.930 . S
H953 C968 0.960 . S
H954 C968 0.960 . S
H955 C968 0.960 1_565 S
C956 H948 0.929 . S
C956 C957 1.377 1_545 S
C956 C958 1.386 . S
C957 C956 1.377 1_565 S
C957 C963 1.390 . S
C958 H949 0.928 1_554 S
C958 C956 1.386 . S
C958 C959 1.372 1_554 S
C959 C958 1.372 1_556 S
C959 C960 1.400 1_546 S
C959 C964 1.490 . S
C960 H950 0.930 . S
C960 C959 1.400 1_564 S
C960 C963 1.386 . S
H961 C977 0.930 . S
H962 C978 0.931 1_565 S
C963 H951 0.929 . S
C963 C957 1.390 . S
C963 C960 1.386 . S
C964 C959 1.490 . S
C964 C966 1.395 . S
C964 C967 1.403 . S
H965 C971 0.930 . S
C966 H952 0.930 . S
C966 C964 1.395 . S
C966 C969 1.403 . S
C967 C964 1.403 . S
C967 C968 1.524 1_556 S
C967 C971 1.400 . S
C968 H953 0.960 . S
C968 H954 0.960 . S
C968 H955 0.960 1_545 S
C968 C967 1.524 1_554 S
C969 C966 1.403 . S
C969 C970 1.392 . S
C969 C973 1.495 . S
C970 C969 1.392 . S
C970 C971 1.385 . S
C970 C972 1.478 . S
C971 H965 0.930 . S
C971 C967 1.400 . S
C971 C970 1.385 . S
C972 C970 1.478 . S
C972 C974 1.381 . S
C972 C978 1.383 . S
C973 C969 1.495 . S
C973 H979 0.959 . S
C973 H980 0.961 . S
C973 H981 0.960 . S
C974 C972 1.381 . S
C974 C975 1.394 . S
C974 H982 0.930 . S
C975 C974 1.394 . S
C975 C976 1.383 . S
C975 H983 0.929 . S
C976 C975 1.383 . S
C976 C977 1.377 . S
C977 H961 0.930 . S
C977 C976 1.377 . S
C977 C978 1.379 . S
C978 H962 0.931 1_545 S
C978 C972 1.383 . S
C978 C977 1.379 . S
H979 C973 0.959 . S
H980 C973 0.961 . S
H981 C973 0.960 . S
H982 C974 0.930 . S
H983 C975 0.929 . S
H984 C992 0.929 . S
H985 C994 0.930 . S
H986 C996 0.930 . S
H987 C999 0.929 . S
H988 C1002 0.930 . S
H989 C1004 0.960 . S
H990 C1004 0.960 . S
H991 C1004 0.960 . S
C992 H984 0.929 . S
C992 C993 1.377 . S
C992 C994 1.384 . S
C993 C992 1.377 . S
C993 C999 1.390 . S
C994 H985 0.930 . S
C994 C992 1.384 . S
C994 C995 1.372 1_554 S
C995 C994 1.372 1_556 S
C995 C996 1.400 . S
C995 C1000 1.490 . S
C996 H986 0.930 . S
C996 C995 1.400 . S
C996 C999 1.386 1_556 S
H997 C1013 0.930 . S
H998 C1014 0.931 . S
C999 H987 0.929 . S
C999 C993 1.390 . S
C999 C996 1.386 1_554 S
C1000 C995 1.490 . S
C1000 C1002 1.395 . S
C1000 C1003 1.403 . S
H1001 C1007 0.930 . S
C1002 H988 0.930 . S
C1002 C1000 1.395 . S
C1002 C1005 1.403 . S
C1003 C1000 1.403 . S
C1003 C1004 1.524 1_556 S
C1003 C1007 1.400 . S
C1004 H989 0.960 . S
C1004 H990 0.960 . S
C1004 H991 0.960 . S
C1004 C1003 1.524 1_554 S
C1005 C1002 1.403 . S
C1005 C1006 1.392 . S
C1005 C1009 1.495 . S
C1006 C1005 1.392 . S
C1006 C1007 1.385 . S
C1006 C1008 1.478 . S
C1007 H1001 0.930 . S
C1007 C1003 1.400 . S
C1007 C1006 1.385 . S
C1008 C1006 1.478 . S
C1008 C1010 1.381 . S
C1008 C1014 1.383 . S
C1009 C1005 1.495 . S
C1009 H1015 0.959 . S
C1009 H1016 0.961 . S
C1009 H1017 0.960 . S
C1010 C1008 1.381 . S
C1010 C1011 1.394 . S
C1010 H1018 0.930 . S
C1011 C1010 1.394 . S
C1011 C1012 1.383 . S
C1011 H1019 0.929 . S
C1012 C1011 1.383 . S
C1012 C1013 1.377 . S
C1013 H997 0.930 . S
C1013 C1012 1.377 . S
C1013 C1014 1.379 . S
C1014 H998 0.931 . S
C1014 C1008 1.383 . S
C1014 C1013 1.379 . S
H1015 C1009 0.959 . S
H1016 C1009 0.961 . S
H1017 C1009 0.960 . S
H1018 C1010 0.930 . S
H1019 C1011 0.929 . S
H1020 C1028 0.929 . S
H1021 C1030 0.930 . S
H1022 C1032 0.930 . S
H1023 C1035 0.929 . S
H1024 C1038 0.930 1_554 S
H1025 C1040 0.960 . S
H1026 C1040 0.960 . S
H1027 C1040 0.960 . S
C1028 H1020 0.929 . S
C1028 C1029 1.377 . S
C1028 C1030 1.384 . S
C1029 C1028 1.377 . S
C1029 C1035 1.390 1_554 S
C1030 H1021 0.930 . S
C1030 C1028 1.384 . S
C1030 C1031 1.372 1_554 S
C1031 C1030 1.372 1_556 S
C1031 C1032 1.400 . S
C1031 C1036 1.490 . S
C1032 H1022 0.930 . S
C1032 C1031 1.400 . S
C1032 C1035 1.386 . S
H1033 C1049 0.930 . S
H1034 C1050 0.931 . S
C1035 H1023 0.929 . S
C1035 C1029 1.390 1_556 S
C1035 C1032 1.386 . S
C1036 C1031 1.490 . S
C1036 C1038 1.395 . S
C1036 C1039 1.403 . S
H1037 C1043 0.930 . S
C1038 H1024 0.930 1_556 S
C1038 C1036 1.395 . S
C1038 C1041 1.403 . S
C1039 C1036 1.403 . S
C1039 C1040 1.524 . S
C1039 C1043 1.400 . S
C1040 H1025 0.960 . S
C1040 H1026 0.960 . S
C1040 H1027 0.960 . S
C1040 C1039 1.524 . S
C1041 C1038 1.403 . S
C1041 C1042 1.392 . S
C1041 C1045 1.495 . S
C1042 C1041 1.392 . S
C1042 C1043 1.385 . S
C1042 C1044 1.478 . S
C1043 H1037 0.930 . S
C1043 C1039 1.400 . S
C1043 C1042 1.385 . S
C1044 C1042 1.478 . S
C1044 C1046 1.381 . S
C1044 C1050 1.383 . S
C1045 C1041 1.495 . S
C1045 H1051 0.959 . S
C1045 H1052 0.961 . S
C1045 H1053 0.960 . S
C1046 C1044 1.381 . S
C1046 C1047 1.394 . S
C1046 H1054 0.930 . S
C1047 C1046 1.394 . S
C1047 C1048 1.383 . S
C1047 H1055 0.929 . S
C1048 C1047 1.383 . S
C1048 C1049 1.377 . S
C1049 H1033 0.930 . S
C1049 C1048 1.377 . S
C1049 C1050 1.379 . S
C1050 H1034 0.931 . S
C1050 C1044 1.383 . S
C1050 C1049 1.379 . S
H1051 C1045 0.959 . S
H1052 C1045 0.961 . S
H1053 C1045 0.960 . S
H1054 C1046 0.930 . S
H1055 C1047 0.929 . S
H1056 C1064 0.929 . S
H1057 C1066 0.930 . S
H1058 C1068 0.930 . S
H1059 C1071 0.929 . S
H1060 C1074 0.930 . S
H1061 C1076 0.960 . S
H1062 C1076 0.960 . S
H1063 C1076 0.960 . S
C1064 H1056 0.929 . S
C1064 C1065 1.377 1_655 S
C1064 C1066 1.384 . S
C1065 C1064 1.377 1_455 S
C1065 C1071 1.390 . S
C1066 H1057 0.930 . S
C1066 C1064 1.384 . S
C1066 C1067 1.372 1_655 S
C1067 C1066 1.372 1_455 S
C1067 C1068 1.400 . S
C1067 C1072 1.490 . S
C1068 H1058 0.930 . S
C1068 C1067 1.400 . S
C1068 C1071 1.386 . S
H1069 C1085 0.930 . S
H1070 C1086 0.931 . S
C1071 H1059 0.929 . S
C1071 C1065 1.390 . S
C1071 C1068 1.386 . S
C1072 C1067 1.490 . S
C1072 C1074 1.395 . S
C1072 C1075 1.403 1_455 S
H1073 C1079 0.930 . S
C1074 H1060 0.930 . S
C1074 C1072 1.395 . S
C1074 C1077 1.403 . S
C1075 C1072 1.403 1_655 S
C1075 C1076 1.524 . S
C1075 C1079 1.400 . S
C1076 H1061 0.960 . S
C1076 H1062 0.960 . S
C1076 H1063 0.960 . S
C1076 C1075 1.524 . S
C1077 C1074 1.403 . S
C1077 C1078 1.392 . S
C1077 C1081 1.495 . S
C1078 C1077 1.392 . S
C1078 C1079 1.385 1_455 S
C1078 C1080 1.478 . S
C1079 H1073 0.930 . S
C1079 C1075 1.400 . S
C1079 C1078 1.385 1_655 S
C1080 C1078 1.478 . S
C1080 C1082 1.381 . S
C1080 C1086 1.383 . S
C1081 C1077 1.495 . S
C1081 H1087 0.959 . S
C1081 H1088 0.961 . S
C1081 H1089 0.960 . S
C1082 C1080 1.381 . S
C1082 C1083 1.394 . S
C1082 H1090 0.941 . S
C1083 C1082 1.394 . S
C1083 C1084 1.383 . S
C1083 H1091 0.930 . S
C1084 C1083 1.383 . S
C1084 C1085 1.377 . S
C1085 H1069 0.930 . S
C1085 C1084 1.377 . S
C1085 C1086 1.379 . S
C1086 H1070 0.931 . S
C1086 C1080 1.383 . S
C1086 C1085 1.379 . S
H1087 C1081 0.959 . S
H1088 C1081 0.961 . S
H1089 C1081 0.960 . S
H1090 C1082 0.941 . S
H1091 C1083 0.930 . S
H1092 C1100 0.906 1_565 S
H1093 C1102 0.917 1_565 S
H1094 C1104 0.930 . S
H1095 C1107 0.929 . S
H1096 C1110 0.930 . S
H1097 C1112 0.960 . S
H1098 C1112 0.960 . S
H1099 C1112 0.960 1_545 S
C1100 H1092 0.906 1_545 S
C1100 C1101 1.377 . S
C1100 C1102 1.384 . S
C1101 C1100 1.377 . S
C1101 C1107 1.390 . S
C1102 H1093 0.917 1_545 S
C1102 C1100 1.384 . S
C1102 C1103 1.372 . S
C1103 C1102 1.372 . S
C1103 C1104 1.400 . S
C1103 C1108 1.490 . S
C1104 H1094 0.930 . S
C1104 C1103 1.400 . S
C1104 C1107 1.386 . S
H1105 C1121 0.930 . S
H1106 C1122 0.931 . S
C1107 H1095 0.929 . S
C1107 C1101 1.390 . S
C1107 C1104 1.386 . S
C1108 C1103 1.490 . S
C1108 C1110 1.395 . S
C1108 C1111 1.403 . S
H1109 C1115 0.957 . S
C1110 H1096 0.930 . S
C1110 C1108 1.395 . S
C1110 C1113 1.403 . S
C1111 C1108 1.403 . S
C1111 C1112 1.524 1_545 S
C1111 C1115 1.400 . S
C1112 H1097 0.960 . S
C1112 H1098 0.960 . S
C1112 H1099 0.960 1_565 S
C1112 C1111 1.524 1_565 S
C1113 C1110 1.403 . S
C1113 C1114 1.392 . S
C1113 C1117 1.495 . S
C1114 C1113 1.392 . S
C1114 C1115 1.385 . S
C1114 C1116 1.478 . S
C1115 H1109 0.957 . S
C1115 C1111 1.400 . S
C1115 C1114 1.385 . S
C1116 C1114 1.478 . S
C1116 C1118 1.381 . S
C1116 C1122 1.383 . S
C1117 C1113 1.495 . S
C1117 H1123 0.959 . S
C1117 H1124 0.961 . S
C1117 H1125 0.960 . S
C1118 C1116 1.381 . S
C1118 C1119 1.394 . S
C1118 H1126 0.929 . S
C1119 C1118 1.394 . S
C1119 C1120 1.383 . S
C1119 H1127 0.897 1_545 S
C1120 C1119 1.383 . S
C1120 C1121 1.377 . S
C1121 H1105 0.930 . S
C1121 C1120 1.377 . S
C1121 C1122 1.379 . S
C1122 H1106 0.931 . S
C1122 C1116 1.383 . S
C1122 C1121 1.379 . S
H1123 C1117 0.959 . S
H1124 C1117 0.961 . S
H1125 C1117 0.960 . S
H1126 C1118 0.929 . S
H1127 C1119 0.897 1_565 S
H1128 C1136 0.929 . S
H1129 C1138 0.930 . S
H1130 C1140 0.930 . S
H1131 C1143 0.929 . S
H1132 C1146 0.930 . S
H1133 C1148 0.960 . S
H1134 C1148 0.960 . S
H1135 C1148 0.960 . S
C1136 H1128 0.929 . S
C1136 C1137 1.377 . S
C1136 C1138 1.384 . S
C1137 C1136 1.377 . S
C1137 C1143 1.390 . S
C1138 H1129 0.930 . S
C1138 C1136 1.384 . S
C1138 C1139 1.372 . S
C1139 C1138 1.372 . S
C1139 C1140 1.400 . S
C1139 C1144 1.490 . S
C1140 H1130 0.930 . S
C1140 C1139 1.400 . S
C1140 C1143 1.386 . S
H1141 C1157 0.930 . S
H1142 C1158 0.931 . S
C1143 H1131 0.929 . S
C1143 C1137 1.390 . S
C1143 C1140 1.386 . S
C1144 C1139 1.490 . S
C1144 C1146 1.395 . S
C1144 C1147 1.403 . S
H1145 C1151 0.930 . S
C1146 H1132 0.930 . S
C1146 C1144 1.395 . S
C1146 C1149 1.403 . S
C1147 C1144 1.403 . S
C1147 C1148 1.524 . S
C1147 C1151 1.400 . S
C1148 H1133 0.960 . S
C1148 H1134 0.960 . S
C1148 H1135 0.960 . S
C1148 C1147 1.524 . S
C1149 C1146 1.403 . S
C1149 C1150 1.392 . S
C1149 C1153 1.495 . S
C1150 C1149 1.392 . S
C1150 C1151 1.385 . S
C1150 C1152 1.478 . S
C1151 H1145 0.930 . S
C1151 C1147 1.400 . S
C1151 C1150 1.385 . S
C1152 C1150 1.478 . S
C1152 C1154 1.381 . S
C1152 C1158 1.383 . S
C1153 C1149 1.495 . S
C1153 H1159 0.959 . S
C1153 H1160 0.961 . S
C1153 H1161 0.960 . S
C1154 C1152 1.381 . S
C1154 C1155 1.394 . S
C1154 H1162 0.930 . S
C1155 C1154 1.394 . S
C1155 C1156 1.383 . S
C1155 H1163 0.929 . S
C1156 C1155 1.383 . S
C1156 C1157 1.377 . S
C1157 H1141 0.930 . S
C1157 C1156 1.377 . S
C1157 C1158 1.379 . S
C1158 H1142 0.931 . S
C1158 C1152 1.383 . S
C1158 C1157 1.379 . S
H1159 C1153 0.959 . S
H1160 C1153 0.961 . S
H1161 C1153 0.960 . S
H1162 C1154 0.930 . S
H1163 C1155 0.929 . S
H1164 C1172 0.929 . S
H1165 C1174 0.930 . S
H1166 C1176 0.930 . S
H1167 C1179 0.929 . S
H1168 C1182 0.930 . S
H1169 C1184 0.960 . S
H1170 C1184 0.960 . S
H1171 C1184 0.960 . S
C1172 H1164 0.929 . S
C1172 C1173 1.377 . S
C1172 C1174 1.384 . S
C1173 C1172 1.377 . S
C1173 C1179 1.390 . S
C1174 H1165 0.930 . S
C1174 C1172 1.384 . S
C1174 C1175 1.372 . S
C1175 C1174 1.372 . S
C1175 C1176 1.400 . S
C1175 C1180 1.490 . S
C1176 H1166 0.930 . S
C1176 C1175 1.400 . S
C1176 C1179 1.386 . S
H1177 C1193 0.930 . S
H1178 C1194 0.931 . S
C1179 H1167 0.929 . S
C1179 C1173 1.390 . S
C1179 C1176 1.386 . S
C1180 C1175 1.490 . S
C1180 C1182 1.395 . S
C1180 C1183 1.403 . S
H1181 C1187 0.930 . S
C1182 H1168 0.930 . S
C1182 C1180 1.395 . S
C1182 C1185 1.403 . S
C1183 C1180 1.403 . S
C1183 C1184 1.524 . S
C1183 C1187 1.400 . S
C1184 H1169 0.960 . S
C1184 H1170 0.960 . S
C1184 H1171 0.960 . S
C1184 C1183 1.524 . S
C1185 C1182 1.403 . S
C1185 C1186 1.392 . S
C1185 C1189 1.495 . S
C1186 C1185 1.392 . S
C1186 C1187 1.385 . S
C1186 C1188 1.478 . S
C1187 H1181 0.930 . S
C1187 C1183 1.400 . S
C1187 C1186 1.385 . S
C1188 C1186 1.478 . S
C1188 C1190 1.381 . S
C1188 C1194 1.383 . S
C1189 C1185 1.495 . S
C1189 H1195 0.959 . S
C1189 H1196 0.961 . S
C1189 H1197 0.960 . S
C1190 C1188 1.381 . S
C1190 C1191 1.394 . S
C1190 H1198 0.930 . S
C1191 C1190 1.394 . S
C1191 C1192 1.383 . S
C1191 H1199 0.929 . S
C1192 C1191 1.383 . S
C1192 C1193 1.377 . S
C1193 H1177 0.930 . S
C1193 C1192 1.377 . S
C1193 C1194 1.379 . S
C1194 H1178 0.931 . S
C1194 C1188 1.383 . S
C1194 C1193 1.379 . S
H1195 C1189 0.959 . S
H1196 C1189 0.961 . S
H1197 C1189 0.960 . S
H1198 C1190 0.930 . S
H1199 C1191 0.929 . S
H1200 C1208 0.929 . S
H1201 C1210 0.930 . S
H1202 C1212 0.930 . S
H1203 C1215 0.929 . S
H1204 C1218 0.930 . S
H1205 C1220 0.960 . S
H1206 C1220 0.960 . S
H1207 C1220 0.960 . S
C1208 H1200 0.929 . S
C1208 C1209 1.377 1_455 S
C1208 C1210 1.384 . S
C1209 C1208 1.377 1_655 S
C1209 C1215 1.390 . S
C1210 H1201 0.930 . S
C1210 C1208 1.384 . S
C1210 C1211 1.372 1_455 S
C1211 C1210 1.372 1_655 S
C1211 C1212 1.400 . S
C1211 C1216 1.490 . S
C1212 H1202 0.930 . S
C1212 C1211 1.400 . S
C1212 C1215 1.386 . S
H1213 C1229 0.930 . S
H1214 C1230 0.931 . S
C1215 H1203 0.929 . S
C1215 C1209 1.390 . S
C1215 C1212 1.386 . S
C1216 C1211 1.490 . S
C1216 C1218 1.395 1_655 S
C1216 C1219 1.403 . S
H1217 C1223 0.930 . S
C1218 H1204 0.930 . S
C1218 C1216 1.395 1_455 S
C1218 C1221 1.403 . S
C1219 C1216 1.403 . S
C1219 C1220 1.524 . S
C1219 C1223 1.400 . S
C1220 H1205 0.960 . S
C1220 H1206 0.960 . S
C1220 H1207 0.960 . S
C1220 C1219 1.524 . S
C1221 C1218 1.403 . S
C1221 C1222 1.392 1_455 S
C1221 C1225 1.495 . S
C1222 C1221 1.392 1_655 S
C1222 C1223 1.385 . S
C1222 C1224 1.478 . S
C1223 H1217 0.930 . S
C1223 C1219 1.400 . S
C1223 C1222 1.385 . S
C1224 C1222 1.478 . S
C1224 C1226 1.381 1_655 S
C1224 C1230 1.383 . S
C1225 C1221 1.495 . S
C1225 H1231 0.959 . S
C1225 H1232 0.961 . S
C1225 H1233 0.960 . S
C1226 C1224 1.381 1_455 S
C1226 C1227 1.394 . S
C1226 H1234 0.930 . S
C1227 C1226 1.394 . S
C1227 C1228 1.383 1_455 S
C1227 H1235 0.929 . S
C1228 C1227 1.383 1_655 S
C1228 C1229 1.377 . S
C1229 H1213 0.930 . S
C1229 C1228 1.377 . S
C1229 C1230 1.379 . S
C1230 H1214 0.931 . S
C1230 C1224 1.383 . S
C1230 C1229 1.379 . S
H1231 C1225 0.959 . S
H1232 C1225 0.961 . S
H1233 C1225 0.960 . S
H1234 C1226 0.930 . S
H1235 C1227 0.929 . S
H1236 C1244 0.929 . S
H1237 C1246 0.930 . S
H1238 C1248 0.930 . S
H1239 C1251 0.929 . S
H1240 C1254 0.930 . S
H1241 C1256 0.960 . S
H1242 C1256 0.960 . S
H1243 C1256 0.960 . S
C1244 H1236 0.929 . S
C1244 C1245 1.377 1_545 S
C1244 C1246 1.384 . S
C1245 C1244 1.377 1_565 S
C1245 C1251 1.390 . S
C1246 H1237 0.930 . S
C1246 C1244 1.384 . S
C1246 C1247 1.372 1_545 S
C1247 C1246 1.372 1_565 S
C1247 C1248 1.400 . S
C1247 C1252 1.490 . S
C1248 H1238 0.930 . S
C1248 C1247 1.400 . S
C1248 C1251 1.386 . S
H1249 C1265 0.930 . S
H1250 C1266 0.931 . S
C1251 H1239 0.929 . S
C1251 C1245 1.390 . S
C1251 C1248 1.386 . S
C1252 C1247 1.490 . S
C1252 C1254 1.395 1_565 S
C1252 C1255 1.403 . S
H1253 C1259 0.930 . S
C1254 H1240 0.930 . S
C1254 C1252 1.395 1_545 S
C1254 C1257 1.403 . S
C1255 C1252 1.403 . S
C1255 C1256 1.524 . S
C1255 C1259 1.400 . S
C1256 H1241 0.960 . S
C1256 H1242 0.960 . S
C1256 H1243 0.960 . S
C1256 C1255 1.524 . S
C1257 C1254 1.403 . S
C1257 C1258 1.392 1_545 S
C1257 C1261 1.495 . S
C1258 C1257 1.392 1_565 S
C1258 C1259 1.385 . S
C1258 C1260 1.478 . S
C1259 H1253 0.930 . S
C1259 C1255 1.400 . S
C1259 C1258 1.385 . S
C1260 C1258 1.478 . S
C1260 C1262 1.381 1_565 S
C1260 C1266 1.383 . S
C1261 C1257 1.495 . S
C1261 H1267 0.959 . S
C1261 H1268 0.927 1_545 S
C1261 H1269 0.960 . S
C1262 C1260 1.381 1_545 S
C1262 C1263 1.394 . S
C1262 H1270 0.930 . S
C1263 C1262 1.394 . S
C1263 C1264 1.383 1_545 S
C1263 H1271 0.929 . S
C1264 C1263 1.383 1_565 S
C1264 C1265 1.377 . S
C1265 H1249 0.930 . S
C1265 C1264 1.377 . S
C1265 C1266 1.379 . S
C1266 H1250 0.931 . S
C1266 C1260 1.383 . S
C1266 C1265 1.379 . S
H1267 C1261 0.959 . S
H1268 C1261 0.927 1_565 S
H1269 C1261 0.960 . S
H1270 C1262 0.930 . S
H1271 C1263 0.929 . S
H1272 C1280 0.929 . S
H1273 C1282 0.930 . S
H1274 C1284 0.930 . S
H1275 C1287 0.929 . S
H1276 C1290 0.930 . S
H1277 C1292 0.960 . S
H1278 C1292 0.960 . S
H1279 C1292 0.960 . S
C1280 H1272 0.929 . S
C1280 C1281 1.377 . S
C1280 C1282 1.384 . S
C1281 C1280 1.377 . S
C1281 C1287 1.390 . S
C1282 H1273 0.930 . S
C1282 C1280 1.384 . S
C1282 C1283 1.372 . S
C1283 C1282 1.372 . S
C1283 C1284 1.400 . S
C1283 C1288 1.490 . S
C1284 H1274 0.930 . S
C1284 C1283 1.400 . S
C1284 C1287 1.386 . S
H1285 C1301 0.930 . S
H1286 C1302 0.931 . S
C1287 H1275 0.929 . S
C1287 C1281 1.390 . S
C1287 C1284 1.386 . S
C1288 C1283 1.490 . S
C1288 C1290 1.395 . S
C1288 C1291 1.403 . S
H1289 C1295 0.930 . S
C1290 H1276 0.930 . S
C1290 C1288 1.395 . S
C1290 C1293 1.403 . S
C1291 C1288 1.403 . S
C1291 C1292 1.524 . S
C1291 C1295 1.400 . S
C1292 H1277 0.960 . S
C1292 H1278 0.960 . S
C1292 H1279 0.960 . S
C1292 C1291 1.524 . S
C1293 C1290 1.403 . S
C1293 C1294 1.392 . S
C1293 C1297 1.495 . S
C1294 C1293 1.392 . S
C1294 C1295 1.385 . S
C1294 C1296 1.478 . S
C1295 H1289 0.930 . S
C1295 C1291 1.400 . S
C1295 C1294 1.385 . S
C1296 C1294 1.478 . S
C1296 C1298 1.381 . S
C1296 C1302 1.383 . S
C1297 C1293 1.495 . S
C1297 H1303 0.959 . S
C1297 H1304 0.961 . S
C1297 H1305 0.960 . S
C1298 C1296 1.381 . S
C1298 C1299 1.394 . S
C1298 H1306 0.930 . S
C1299 C1298 1.394 . S
C1299 C1300 1.383 . S
C1299 H1307 0.929 . S
C1300 C1299 1.383 . S
C1300 C1301 1.377 . S
C1301 H1285 0.930 . S
C1301 C1300 1.377 . S
C1301 C1302 1.379 . S
C1302 H1286 0.931 . S
C1302 C1296 1.383 . S
C1302 C1301 1.379 . S
H1303 C1297 0.959 . S
H1304 C1297 0.961 . S
H1305 C1297 0.960 . S
H1306 C1298 0.930 . S
H1307 C1299 0.929 . S
H1308 C1316 0.929 . S
H1309 C1318 0.930 . S
H1310 C1320 0.930 . S
H1311 C1323 0.929 . S
H1312 C1326 0.930 . S
H1313 C1328 0.960 . S
H1314 C1328 0.960 . S
H1315 C1328 0.960 . S
C1316 H1308 0.929 . S
C1316 C1317 1.377 . S
C1316 C1318 1.384 . S
C1317 C1316 1.377 . S
C1317 C1323 1.390 . S
C1318 H1309 0.930 . S
C1318 C1316 1.384 . S
C1318 C1319 1.372 . S
C1319 C1318 1.372 . S
C1319 C1320 1.400 . S
C1319 C1324 1.490 . S
C1320 H1310 0.930 . S
C1320 C1319 1.400 . S
C1320 C1323 1.386 . S
H1321 C1337 0.930 . S
H1322 C1338 0.931 . S
C1323 H1311 0.929 . S
C1323 C1317 1.390 . S
C1323 C1320 1.386 . S
C1324 C1319 1.490 . S
C1324 C1326 1.395 . S
C1324 C1327 1.403 . S
H1325 C1331 0.930 . S
C1326 H1312 0.930 . S
C1326 C1324 1.395 . S
C1326 C1329 1.403 . S
C1327 C1324 1.403 . S
C1327 C1328 1.524 . S
C1327 C1331 1.400 . S
C1328 H1313 0.960 . S
C1328 H1314 0.960 . S
C1328 H1315 0.960 . S
C1328 C1327 1.524 . S
C1329 C1326 1.403 . S
C1329 C1330 1.392 . S
C1329 C1333 1.495 . S
C1330 C1329 1.392 . S
C1330 C1331 1.385 . S
C1330 C1332 1.478 . S
C1331 H1325 0.930 . S
C1331 C1327 1.400 . S
C1331 C1330 1.385 . S
C1332 C1330 1.478 . S
C1332 C1334 1.381 . S
C1332 C1338 1.383 . S
C1333 C1329 1.495 . S
C1333 H1339 0.959 . S
C1333 H1340 0.961 . S
C1333 H1341 0.960 . S
C1334 C1332 1.381 . S
C1334 C1335 1.394 . S
C1334 H1342 0.930 . S
C1335 C1334 1.394 . S
C1335 C1336 1.383 . S
C1335 H1343 0.929 . S
C1336 C1335 1.383 . S
C1336 C1337 1.377 . S
C1337 H1321 0.930 . S
C1337 C1336 1.377 . S
C1337 C1338 1.379 . S
C1338 H1322 0.931 . S
C1338 C1332 1.383 . S
C1338 C1337 1.379 . S
H1339 C1333 0.959 . S
H1340 C1333 0.961 . S
H1341 C1333 0.960 . S
H1342 C1334 0.930 . S
H1343 C1335 0.929 . S
C489 C255 1.957 . S
C508 C329 2.073 . S
C544 C369 2.068 . S
C525 C295 1.961 . S
C580 C409 2.073 . S
C561 C175 1.960 . S
C616 C449 2.074 1_455 S
C597 C215 1.947 . S
C652 C338 2.067 . S
C633 C95 1.955 . S
C669 C135 1.958 . S
C688 C378 2.073 . S
C705 C15 1.951 . S
C724 C418 2.071 . S
C741 C55 1.947 1_655 S
C760 C458 2.065 . S
C796 C335 0.165 . S
C777 C221 0.270 . S
C832 C375 0.217 . S
C813 C261 0.276 . S
C868 C415 0.262 . S
C849 C301 0.267 . S
C885 C181 0.282 . S
C904 C455 0.337 . S
C921 C61 0.426 1_655 S
C940 C326 0.294 . S
C976 C366 0.288 . S
C957 C101 0.406 . S
C1012 C406 0.320 . S
C993 C141 0.386 . S
C1029 C21 0.431 . S
C1048 C446 0.362 . S
C1065 C202 2.805 . S
C1084 C339 3.071 . S
C1101 C242 2.802 . S
C1120 C379 3.062 . S
C1156 C419 3.059 . S
C1137 C282 2.795 . S
C1192 C459 3.062 . S
C1173 C162 2.798 . S
C1209 C42 2.818 1_655 S
C1228 C330 3.057 . S
C1264 C370 3.057 . S
C1245 C82 2.804 . S
C1300 C410 3.050 . S
C1281 C122 2.814 . S
C1317 C2 2.814 . S
C1336 C450 3.068 . S
