# Generated by pormake.
# Topology llk, (3,12)-cn, num edge types: 1
# Building blocks:
#     Node 0, Type 0, BuildingBlock: WUSLED_clean_sbu_0, # of connection points: 3
#     Node 1, Type 0, BuildingBlock: WUSLED_clean_sbu_0, # of connection points: 3
#     Node 2, Type 0, BuildingBlock: WUSLED_clean_sbu_0, # of connection points: 3
#     Node 3, Type 0, BuildingBlock: WUSLED_clean_sbu_0, # of connection points: 3
#     Node 4, Type 0, BuildingBlock: WUSLED_clean_sbu_0, # of connection points: 3
#     Node 5, Type 0, BuildingBlock: WUSLED_clean_sbu_0, # of connection points: 3
#     Node 6, Type 0, BuildingBlock: WUSLED_clean_sbu_0, # of connection points: 3
#     Node 7, Type 0, BuildingBlock: WUSLED_clean_sbu_0, # of connection points: 3
#     Node 8, Type 0, BuildingBlock: WUSLED_clean_sbu_0, # of connection points: 3
#     Node 9, Type 0, BuildingBlock: WUSLED_clean_sbu_0, # of connection points: 3
#     Node 10, Type 0, BuildingBlock: WUSLED_clean_sbu_0, # of connection points: 3
#     Node 11, Type 0, BuildingBlock: WUSLED_clean_sbu_0, # of connection points: 3
#     Node 12, Type 0, BuildingBlock: WUSLED_clean_sbu_0, # of connection points: 3
#     Node 13, Type 0, BuildingBlock: WUSLED_clean_sbu_0, # of connection points: 3
#     Node 14, Type 0, BuildingBlock: WUSLED_clean_sbu_0, # of connection points: 3
#     Node 15, Type 0, BuildingBlock: WUSLED_clean_sbu_0, # of connection points: 3
#     Node 16, Type 0, BuildingBlock: WUSLED_clean_sbu_0, # of connection points: 3
#     Node 17, Type 0, BuildingBlock: WUSLED_clean_sbu_0, # of connection points: 3
#     Node 18, Type 0, BuildingBlock: WUSLED_clean_sbu_0, # of connection points: 3
#     Node 19, Type 0, BuildingBlock: WUSLED_clean_sbu_0, # of connection points: 3
#     Node 20, Type 0, BuildingBlock: WUSLED_clean_sbu_0, # of connection points: 3
#     Node 21, Type 0, BuildingBlock: WUSLED_clean_sbu_0, # of connection points: 3
#     Node 22, Type 0, BuildingBlock: WUSLED_clean_sbu_0, # of connection points: 3
#     Node 23, Type 0, BuildingBlock: WUSLED_clean_sbu_0, # of connection points: 3
#     Node 24, Type 1, BuildingBlock: EZIPEK_clean_sbu_0, # of connection points: 12
#     Node 25, Type 1, BuildingBlock: EZIPEK_clean_sbu_0, # of connection points: 12
#     Node 26, Type 1, BuildingBlock: EZIPEK_clean_sbu_0, # of connection points: 12
#     Node 27, Type 1, BuildingBlock: EZIPEK_clean_sbu_0, # of connection points: 12
#     Node 28, Type 1, BuildingBlock: EZIPEK_clean_sbu_0, # of connection points: 12
#     Node 29, Type 1, BuildingBlock: EZIPEK_clean_sbu_0, # of connection points: 12
#     Edge 30, Type (0, 1), BuildingBlock: OJICUG_clean_linker_0, # of connection points: 2
#     Edge 31, Type (0, 1), BuildingBlock: OJICUG_clean_linker_0, # of connection points: 2
#     Edge 32, Type (0, 1), BuildingBlock: OJICUG_clean_linker_0, # of connection points: 2
#     Edge 33, Type (0, 1), BuildingBlock: OJICUG_clean_linker_0, # of connection points: 2
#     Edge 34, Type (0, 1), BuildingBlock: OJICUG_clean_linker_0, # of connection points: 2
#     Edge 35, Type (0, 1), BuildingBlock: OJICUG_clean_linker_0, # of connection points: 2
#     Edge 36, Type (0, 1), BuildingBlock: OJICUG_clean_linker_0, # of connection points: 2
#     Edge 37, Type (0, 1), BuildingBlock: OJICUG_clean_linker_0, # of connection points: 2
#     Edge 38, Type (0, 1), BuildingBlock: OJICUG_clean_linker_0, # of connection points: 2
#     Edge 39, Type (0, 1), BuildingBlock: OJICUG_clean_linker_0, # of connection points: 2
#     Edge 40, Type (0, 1), BuildingBlock: OJICUG_clean_linker_0, # of connection points: 2
#     Edge 41, Type (0, 1), BuildingBlock: OJICUG_clean_linker_0, # of connection points: 2
#     Edge 42, Type (0, 1), BuildingBlock: OJICUG_clean_linker_0, # of connection points: 2
#     Edge 43, Type (0, 1), BuildingBlock: OJICUG_clean_linker_0, # of connection points: 2
#     Edge 44, Type (0, 1), BuildingBlock: OJICUG_clean_linker_0, # of connection points: 2
#     Edge 45, Type (0, 1), BuildingBlock: OJICUG_clean_linker_0, # of connection points: 2
#     Edge 46, Type (0, 1), BuildingBlock: OJICUG_clean_linker_0, # of connection points: 2
#     Edge 47, Type (0, 1), BuildingBlock: OJICUG_clean_linker_0, # of connection points: 2
#     Edge 48, Type (0, 1), BuildingBlock: OJICUG_clean_linker_0, # of connection points: 2
#     Edge 49, Type (0, 1), BuildingBlock: OJICUG_clean_linker_0, # of connection points: 2
#     Edge 50, Type (0, 1), BuildingBlock: OJICUG_clean_linker_0, # of connection points: 2
#     Edge 51, Type (0, 1), BuildingBlock: OJICUG_clean_linker_0, # of connection points: 2
#     Edge 52, Type (0, 1), BuildingBlock: OJICUG_clean_linker_0, # of connection points: 2
#     Edge 53, Type (0, 1), BuildingBlock: OJICUG_clean_linker_0, # of connection points: 2
#     Edge 54, Type (0, 1), BuildingBlock: OJICUG_clean_linker_0, # of connection points: 2
#     Edge 55, Type (0, 1), BuildingBlock: OJICUG_clean_linker_0, # of connection points: 2
#     Edge 56, Type (0, 1), BuildingBlock: OJICUG_clean_linker_0, # of connection points: 2
#     Edge 57, Type (0, 1), BuildingBlock: OJICUG_clean_linker_0, # of connection points: 2
#     Edge 58, Type (0, 1), BuildingBlock: OJICUG_clean_linker_0, # of connection points: 2
#     Edge 59, Type (0, 1), BuildingBlock: OJICUG_clean_linker_0, # of connection points: 2
#     Edge 60, Type (0, 1), BuildingBlock: OJICUG_clean_linker_0, # of connection points: 2
#     Edge 61, Type (0, 1), BuildingBlock: OJICUG_clean_linker_0, # of connection points: 2
#     Edge 62, Type (0, 1), BuildingBlock: OJICUG_clean_linker_0, # of connection points: 2
#     Edge 63, Type (0, 1), BuildingBlock: OJICUG_clean_linker_0, # of connection points: 2
#     Edge 64, Type (0, 1), BuildingBlock: OJICUG_clean_linker_0, # of connection points: 2
#     Edge 65, Type (0, 1), BuildingBlock: OJICUG_clean_linker_0, # of connection points: 2
#     Edge 66, Type (0, 1), BuildingBlock: OJICUG_clean_linker_0, # of connection points: 2
#     Edge 67, Type (0, 1), BuildingBlock: OJICUG_clean_linker_0, # of connection points: 2
#     Edge 68, Type (0, 1), BuildingBlock: OJICUG_clean_linker_0, # of connection points: 2
#     Edge 69, Type (0, 1), BuildingBlock: OJICUG_clean_linker_0, # of connection points: 2
#     Edge 70, Type (0, 1), BuildingBlock: OJICUG_clean_linker_0, # of connection points: 2
#     Edge 71, Type (0, 1), BuildingBlock: OJICUG_clean_linker_0, # of connection points: 2
#     Edge 72, Type (0, 1), BuildingBlock: OJICUG_clean_linker_0, # of connection points: 2
#     Edge 73, Type (0, 1), BuildingBlock: OJICUG_clean_linker_0, # of connection points: 2
#     Edge 74, Type (0, 1), BuildingBlock: OJICUG_clean_linker_0, # of connection points: 2
#     Edge 75, Type (0, 1), BuildingBlock: OJICUG_clean_linker_0, # of connection points: 2
#     Edge 76, Type (0, 1), BuildingBlock: OJICUG_clean_linker_0, # of connection points: 2
#     Edge 77, Type (0, 1), BuildingBlock: OJICUG_clean_linker_0, # of connection points: 2
#     Edge 78, Type (0, 1), BuildingBlock: OJICUG_clean_linker_0, # of connection points: 2
#     Edge 79, Type (0, 1), BuildingBlock: OJICUG_clean_linker_0, # of connection points: 2
#     Edge 80, Type (0, 1), BuildingBlock: OJICUG_clean_linker_0, # of connection points: 2
#     Edge 81, Type (0, 1), BuildingBlock: OJICUG_clean_linker_0, # of connection points: 2
#     Edge 82, Type (0, 1), BuildingBlock: OJICUG_clean_linker_0, # of connection points: 2
#     Edge 83, Type (0, 1), BuildingBlock: OJICUG_clean_linker_0, # of connection points: 2
#     Edge 84, Type (0, 1), BuildingBlock: OJICUG_clean_linker_0, # of connection points: 2
#     Edge 85, Type (0, 1), BuildingBlock: OJICUG_clean_linker_0, # of connection points: 2
#     Edge 86, Type (0, 1), BuildingBlock: OJICUG_clean_linker_0, # of connection points: 2
#     Edge 87, Type (0, 1), BuildingBlock: OJICUG_clean_linker_0, # of connection points: 2
#     Edge 88, Type (0, 1), BuildingBlock: OJICUG_clean_linker_0, # of connection points: 2
#     Edge 89, Type (0, 1), BuildingBlock: OJICUG_clean_linker_0, # of connection points: 2
#     Edge 90, Type (0, 1), BuildingBlock: OJICUG_clean_linker_0, # of connection points: 2
#     Edge 91, Type (0, 1), BuildingBlock: OJICUG_clean_linker_0, # of connection points: 2
#     Edge 92, Type (0, 1), BuildingBlock: OJICUG_clean_linker_0, # of connection points: 2
#     Edge 93, Type (0, 1), BuildingBlock: OJICUG_clean_linker_0, # of connection points: 2
#     Edge 94, Type (0, 1), BuildingBlock: OJICUG_clean_linker_0, # of connection points: 2
#     Edge 95, Type (0, 1), BuildingBlock: OJICUG_clean_linker_0, # of connection points: 2
#     Edge 96, Type (0, 1), BuildingBlock: OJICUG_clean_linker_0, # of connection points: 2
#     Edge 97, Type (0, 1), BuildingBlock: OJICUG_clean_linker_0, # of connection points: 2
#     Edge 98, Type (0, 1), BuildingBlock: OJICUG_clean_linker_0, # of connection points: 2
#     Edge 99, Type (0, 1), BuildingBlock: OJICUG_clean_linker_0, # of connection points: 2
#     Edge 100, Type (0, 1), BuildingBlock: OJICUG_clean_linker_0, # of connection points: 2
#     Edge 101, Type (0, 1), BuildingBlock: OJICUG_clean_linker_0, # of connection points: 2
# Relax obj value: 0.100
# Max RMSD: 0.151
# Mean RMSD: 0.127
data_MOF--net-llk--node1-WUSLED_clean_sbu_0--node2-EZIPEK_clean_sbu_0--edge1-OJICUG_clean_linker_0
_symmetry_space_group_name_H-M    P1
_symmetry_Int_Tables_number       1
_symmetry_cell_setting            triclinic
loop_
_symmetry_equiv_pos_as_xyz
'x, y, z'
_cell_length_a     48.037997
_cell_length_b     48.036965
_cell_length_c     47.953329
_cell_angle_alpha  90.027079
_cell_angle_beta   89.971891
_cell_angle_gamma 90.002425
loop_
_atom_site_label
_atom_site_type_symbol
_atom_site_fract_x
_atom_site_fract_y
_atom_site_fract_z
_atom_type_partial_charge
C0 C 0.01423 0.30127 0.19018 0.0
C1 C 0.02552 0.32664 0.19952 0.0
C2 C 0.01387 0.34904 0.15523 0.0
C3 C 0.02541 0.35023 0.18223 0.0
C4 C 1.0021 0.32366 0.14629 0.0
C5 C 1.00236 0.30011 0.16351 0.0
U6 U 1.00965 0.26679 0.26174 0.0
O7 O 0.03288 0.2318 0.28029 0.0
O8 O 0.98763 0.22861 0.27461 0.0
C9 C 1.01026 0.21698 0.28472 0.0
C10 C 0.01432 0.27596 0.2079 0.0
C11 C 1.00748 0.20224 0.31189 0.0
C12 C 0.98587 0.16451 0.33813 0.0
C13 C 0.98698 0.18157 0.31451 0.0
C14 C 0.02518 0.18901 0.35783 0.0
C15 C 1.00534 0.16749 0.35985 0.0
C16 C 0.02633 0.20614 0.33405 0.0
C17 C 0.99981 0.3208 0.32213 0.0
C18 C 0.02074 0.33525 0.36595 0.0
C19 C 0.9753 0.35269 0.35272 0.0
C20 C 0.97618 0.33673 0.32847 0.0
C21 C 0.99813 0.35311 0.37099 0.0
C22 C 0.02163 0.31923 0.34162 0.0
C23 C 1.00322 0.31079 0.29332 0.0
O24 O 0.03585 0.27281 0.22453 0.0
O25 O 0.99055 0.2699 0.22002 0.0
O26 O 0.98217 0.29733 0.2821 0.0
O27 O 0.02771 0.30085 0.28616 0.0
H28 H 0.0346 0.32819 0.22014 0.0
H29 H 0.03485 0.36923 0.18983 0.0
H30 H 0.99246 0.32196 0.12596 0.0
H31 H 0.99324 0.28091 0.15595 0.0
H32 H 0.96999 0.14853 0.33911 0.0
H33 H 0.97225 0.17796 0.29779 0.0
H34 H 0.04059 0.19184 0.37407 0.0
H35 H 0.04249 0.2218 0.33268 0.0
H36 H 0.03862 0.33523 0.3797 0.0
H37 H 0.95744 0.36598 0.35637 0.0
H38 H 0.95915 0.33835 0.31375 0.0
H39 H 0.04015 0.30712 0.33727 0.0
C40 C 0.83724 0.0144 0.29987 0.0
C41 C 0.82604 1.00583 0.32558 0.0
C42 C 0.87016 0.01544 0.34892 0.0
C43 C 0.84234 1.00628 0.34983 0.0
C44 C 0.88094 0.02477 0.32319 0.0
C45 C 0.86468 0.02417 0.29896 0.0
U46 U 0.76672 0.0157 0.26496 0.0
O47 O 0.74955 0.98943 0.23138 0.0
O48 O 0.75176 0.03481 0.226 0.0
C49 C 0.74341 1.0109 0.21553 0.0
C50 C 0.82052 0.0132 0.27399 0.0
C51 C 0.71611 1.01018 0.20104 0.0
C52 C 0.6876 0.98915 0.16471 0.0
C53 C 0.71132 0.98889 0.1816 0.0
C54 C 0.6721 0.03154 0.18711 0.0
C55 C 0.66799 1.01082 0.16672 0.0
C56 C 0.69601 0.03131 0.20405 0.0
C57 C 0.70779 0.0253 0.32101 0.0
C58 C 0.66507 1.00354 0.33709 0.0
C59 C 0.6788 0.0486 0.3552 0.0
C60 C 0.70214 0.04839 0.33798 0.0
C61 C 0.66074 0.02565 0.35578 0.0
C62 C 0.68854 1.0033 0.31984 0.0
C63 C 0.736 0.0226 0.30949 0.0
O64 O 0.80474 0.99102 0.27121 0.0
O65 O 0.80771 0.03636 0.26706 0.0
O66 O 0.74571 0.04354 0.29475 0.0
O67 O 0.74369 0.99801 0.30019 0.0
H68 H 0.80476 0.99845 0.32686 0.0
H69 H 0.83335 0.99877 0.36912 0.0
H70 H 0.90203 0.03258 0.32171 0.0
H71 H 0.87363 0.0312 0.27945 0.0
H72 H 0.68491 0.97259 0.14961 0.0
H73 H 0.72645 0.97238 0.17881 0.0
H74 H 0.65747 0.04858 0.18915 0.0
H75 H 0.69914 0.04805 0.21885 0.0
H76 H 0.65141 0.98559 0.33717 0.0
H77 H 0.67564 0.06609 0.36912 0.0
H78 H 0.71677 0.06552 0.33931 0.0
H79 H 0.69244 0.98517 0.30698 0.0
C80 C 0.01601 0.83699 0.30314 0.0
C81 C 0.02704 0.82838 0.32891 0.0
C82 C 0.01421 0.87281 0.35037 0.0
C83 C 0.0262 0.84609 0.35221 0.0
C84 C 1.00261 0.88099 0.32462 0.0
C85 C 1.00358 0.86334 0.30134 0.0
U86 U 0.01591 0.76516 0.26845 0.0
O87 O 0.04235 0.74875 0.23453 0.0
O88 O 0.99697 0.75049 0.22924 0.0
C89 C 0.02097 0.74268 0.21853 0.0
C90 C 0.01764 0.8191 0.27792 0.0
C91 C 0.022 0.71579 0.20315 0.0
C92 C 0.0425 0.68901 0.16511 0.0
C93 C 0.04261 0.71228 0.1827 0.0
C94 C 1.00166 0.67138 0.18871 0.0
C95 C 0.0217 0.6685 0.1674 0.0
C96 C 1.00172 0.69485 0.20634 0.0
C97 C 1.00663 0.7045 0.32254 0.0
C98 C 0.02874 0.66224 0.33952 0.0
C99 C 0.98139 0.67314 0.35311 0.0
C100 C 0.9822 0.69709 0.33675 0.0
C101 C 1.00506 0.65619 0.35562 0.0
C102 C 0.02958 0.68632 0.32316 0.0
C103 C 1.00921 0.73327 0.31223 0.0
O104 O 0.03999 0.80347 0.27563 0.0
O105 O 0.99469 0.8059 0.271 0.0
O106 O 0.98825 0.74338 0.29781 0.0
O107 O 0.03374 0.74151 0.30325 0.0
H108 H 0.03662 0.80807 0.33096 0.0
H109 H 0.03556 0.83905 0.37149 0.0
H110 H 0.99264 0.90108 0.32239 0.0
H111 H 0.99473 0.87038 0.2818 0.0
H112 H 0.05855 0.68734 0.14933 0.0
H113 H 0.05845 0.72807 0.17972 0.0
H114 H 0.98527 0.65607 0.19104 0.0
H115 H 0.98548 0.69698 0.22187 0.0
H116 H 0.04728 0.64951 0.34116 0.0
H117 H 0.96275 0.66869 0.36503 0.0
H118 H 0.9643 0.71082 0.33676 0.0
H119 H 0.04876 0.69154 0.31249 0.0
C120 C 0.18672 0.01981 0.30381 0.0
C121 C 0.19817 0.02715 0.3298 0.0
C122 C 0.15339 0.01938 0.35275 0.0
C123 C 0.18168 0.02696 0.35401 0.0
C124 C 0.14235 1.01123 0.32672 0.0
C125 C 0.1588 1.01153 0.30259 0.0
U126 U 0.25728 0.01875 0.26813 0.0
O127 O 0.27391 0.04493 0.23412 0.0
O128 O 0.27187 0.99953 0.229 0.0
C129 C 0.27958 0.02345 0.21808 0.0
C130 C 0.2035 0.02103 0.27789 0.0
C131 C 0.30603 0.02431 0.20197 0.0
C132 C 0.33135 0.04346 0.16226 0.0
C133 C 0.30842 0.04379 0.1803 0.0
C134 C 0.35079 1.00464 0.18774 0.0
C135 C 0.35265 0.02359 0.16534 0.0
C136 C 0.32764 1.00489 0.2058 0.0
C137 C 0.31576 1.00948 0.32537 0.0
C138 C 0.35791 0.03119 0.34294 0.0
C139 C 0.3432 0.98643 0.361 0.0
C140 C 0.32053 0.98661 0.3429 0.0
C141 C 0.36152 1.00916 0.36191 0.0
C142 C 0.3351 0.03142 0.32485 0.0
C143 C 0.2881 0.01214 0.31261 0.0
O144 O 0.2192 0.04325 0.27503 0.0
O145 O 0.21638 0.99792 0.27087 0.0
O146 O 0.27868 0.9911 0.29782 0.0
O147 O 0.28064 0.03668 0.30302 0.0
H148 H 0.21978 0.03342 0.33132 0.0
H149 H 0.19092 0.03349 0.37354 0.0
H150 H 0.12087 1.00464 0.32494 0.0
H151 H 0.14959 1.00548 0.28287 0.0
H152 H 0.33222 0.0587 0.14564 0.0
H153 H 0.29206 0.05892 0.1768 0.0
H154 H 0.36671 0.98897 0.19071 0.0
H155 H 0.32635 0.98952 0.22226 0.0
H156 H 0.37175 0.04899 0.34324 0.0
H157 H 0.3458 0.96896 0.37505 0.0
H158 H 0.30575 0.96959 0.34383 0.0
H159 H 0.33181 0.04942 0.31167 0.0
C160 C 0.01231 0.72759 0.83834 0.0
C161 C 0.02151 0.7017 0.8282 0.0
C162 C 1.01107 0.67964 0.87294 0.0
C163 C 0.02096 0.678 0.84532 0.0
C164 C 1.00117 0.70555 0.88265 0.0
C165 C 1.00187 0.7292 0.86558 0.0
U166 U 1.01189 0.76225 0.76695 0.0
O167 O 0.03815 0.7961 0.75031 0.0
O168 O 0.99273 0.80118 0.7521 0.0
C169 C 0.01666 0.81191 0.74417 0.0
C170 C 0.01371 0.75304 0.82094 0.0
C171 C 0.01757 0.82694 0.71711 0.0
C172 C 0.0376 0.86488 0.69001 0.0
C173 C 0.03791 0.84759 0.71346 0.0
C174 C 0.99717 0.84054 0.67245 0.0
C175 C 0.01687 0.86208 0.66947 0.0
C176 C 0.99743 0.8232 0.69612 0.0
C177 C 1.00307 0.70731 0.70687 0.0
C178 C 0.02546 0.68997 0.66485 0.0
C179 C 0.9785 0.67549 0.67626 0.0
C180 C 0.97898 0.69237 0.69988 0.0
C181 C 1.00217 0.67318 0.65925 0.0
C182 C 0.02597 0.70687 0.68859 0.0
C183 C 1.00551 0.71818 0.73547 0.0
O184 O 0.03605 0.7556 0.80532 0.0
O185 O 0.9907 0.75981 0.80776 0.0
O186 O 0.98443 0.73261 0.74533 0.0
O187 O 0.02997 0.72741 0.7436 0.0
H188 H 0.02948 0.69985 0.80714 0.0
H189 H 0.02894 0.65858 0.83711 0.0
H190 H 0.99283 0.7076 0.90352 0.0
H191 H 0.99439 0.74886 0.87376 0.0
H192 H 0.05339 0.88089 0.68823 0.0
H193 H 0.05364 0.85096 0.7293 0.0
H194 H 0.98086 0.83784 0.6571 0.0
H195 H 0.98143 0.80747 0.69835 0.0
H196 H 0.04399 0.68852 0.65205 0.0
H197 H 0.96014 0.66305 0.67213 0.0
H198 H 0.96113 0.69223 0.71371 0.0
H199 H 0.04488 0.71811 0.6935 0.0
C200 C 0.18853 0.01364 0.72621 0.0
C201 C 0.19791 1.00378 0.70021 0.0
C202 C 0.15316 0.01527 0.67864 0.0
C203 C 0.18042 1.00455 0.67672 0.0
C204 C 0.14425 0.02578 0.70464 0.0
C205 C 0.16168 0.02491 0.72807 0.0
U206 U 0.26006 0.01319 0.76142 0.0
O207 O 0.27605 0.98687 0.79563 0.0
O208 O 0.27472 0.0323 0.80057 0.0
C209 C 0.28207 1.00831 0.81159 0.0
C210 C 0.20616 1.01198 0.75161 0.0
C211 C 0.30859 1.00716 0.82761 0.0
C212 C 0.33366 0.9881 0.86751 0.0
C213 C 0.3107 0.98793 0.84954 0.0
C214 C 0.35377 0.02619 0.84144 0.0
C215 C 0.35532 1.00756 0.86413 0.0
C216 C 0.33058 0.0261 0.82344 0.0
C217 C 0.32041 0.02143 0.70642 0.0
C218 C 0.36225 0.99877 0.68912 0.0
C219 C 0.35084 0.04552 0.67403 0.0
C220 C 0.32733 0.04529 0.69105 0.0
C221 C 0.36784 0.02184 0.672 0.0
C222 C 0.3386 0.9985 0.70615 0.0
C223 C 0.29192 0.01922 0.71752 0.0
O224 O 0.22153 0.98948 0.75412 0.0
O225 O 0.21956 0.03482 0.75852 0.0
O226 O 0.28224 0.04041 0.73193 0.0
O227 O 0.28361 0.99484 0.72681 0.0
H228 H 0.21863 0.99513 0.69813 0.0
H229 H 0.18805 0.99609 0.65723 0.0
H230 H 0.12371 0.03478 0.70695 0.0
H231 H 0.15404 0.03287 0.74778 0.0
H232 H 0.33427 0.97311 0.88437 0.0
H233 H 0.29407 0.97315 0.8533 0.0
H234 H 0.36997 0.04153 0.83823 0.0
H235 H 0.32953 0.04126 0.80677 0.0
H236 H 0.37503 0.98023 0.6879 0.0
H237 H 0.35496 0.06373 0.66136 0.0
H238 H 0.31355 0.06315 0.69075 0.0
H239 H 0.33372 0.97974 0.71768 0.0
C240 C 0.01293 0.18885 0.72973 0.0
C241 C 1.00126 0.19901 0.70486 0.0
C242 C 1.01023 0.15461 0.68161 0.0
C243 C 0.99988 0.18205 0.68104 0.0
C244 C 0.02227 0.1448 0.70655 0.0
C245 C 0.02355 0.16171 0.7303 0.0
U246 U 1.01131 0.26039 0.76362 0.0
O247 O 0.03849 0.27827 0.79611 0.0
O248 O 0.99344 0.27489 0.80335 0.0
C249 C 0.01753 0.28381 0.81287 0.0
C250 C 0.01479 0.20649 0.75493 0.0
C251 C 0.01804 0.31107 0.82744 0.0
C252 C 0.03799 0.33918 0.86466 0.0
C253 C 0.03858 0.31549 0.84774 0.0
C254 C 0.99687 0.35544 0.84055 0.0
C255 C 0.01676 0.35916 0.86181 0.0
C256 C 0.99742 0.33153 0.82358 0.0
C257 C 0.99893 0.31999 0.70933 0.0
C258 C 0.02005 0.36329 0.69388 0.0
C259 C 0.97419 0.35028 0.6774 0.0
C260 C 0.9751 0.32631 0.69371 0.0
C261 C 0.99719 0.36829 0.67633 0.0
C262 C 0.02097 0.33923 0.71025 0.0
C263 C 1.00219 0.29135 0.71967 0.0
O264 O 0.03663 0.22289 0.75608 0.0
O265 O 0.99165 0.21897 0.7626 0.0
O266 O 0.98198 0.2811 0.73505 0.0
O267 O 0.02719 0.28365 0.72773 0.0
H268 H 0.99312 0.22002 0.70389 0.0
H269 H 0.99029 0.19029 0.66236 0.0
H270 H 0.03099 0.12404 0.7077 0.0
H271 H 0.03295 0.15358 0.74916 0.0
H272 H 0.05392 0.34157 0.88047 0.0
H273 H 0.0547 0.30008 0.85115 0.0
H274 H 0.98019 0.37037 0.83785 0.0
H275 H 0.98128 0.32867 0.80808 0.0
H276 H 0.03808 0.37683 0.69341 0.0
H277 H 0.95612 0.35392 0.66438 0.0
H278 H 0.9579 0.31175 0.69262 0.0
H279 H 0.03964 0.33488 0.72213 0.0
C280 C 0.72411 1.00654 0.84049 0.0
C281 C 0.69826 0.99766 0.82995 0.0
C282 C 0.67579 1.00752 0.87462 0.0
C283 C 0.67439 0.99809 0.84684 0.0
C284 C 0.70165 0.01711 0.88474 0.0
C285 C 0.72549 0.01654 0.86791 0.0
U286 U 0.75933 1.00813 0.76945 0.0
O287 O 0.79293 0.9818 0.75241 0.0
O288 O 0.79856 0.02711 0.75512 0.0
C289 C 0.80901 1.00321 0.7467 0.0
C290 C 0.74974 1.00527 0.82332 0.0
C291 C 0.82396 1.00267 0.71958 0.0
C292 C 0.86148 0.98267 0.69184 0.0
C293 C 0.84438 0.98219 0.71544 0.0
C294 C 0.83744 0.02363 0.67513 0.0
C295 C 0.85873 1.00373 0.67163 0.0
C296 C 0.82028 0.02318 0.69894 0.0
C297 C 0.70495 0.01861 0.70931 0.0
C298 C 0.68924 0.9972 0.66618 0.0
C299 C 0.6727 0.04308 0.67914 0.0
C300 C 0.68918 0.04235 0.70301 0.0
C301 C 0.67163 0.02002 0.66119 0.0
C302 C 0.70575 0.99644 0.69017 0.0
C303 C 0.71551 0.0156 0.73793 0.0
O304 O 0.75224 0.98323 0.80727 0.0
O305 O 0.75685 0.02849 0.81068 0.0
O306 O 0.73013 0.03634 0.74821 0.0
O307 O 0.72439 0.99089 0.74568 0.0
H308 H 0.6966 0.99005 0.80874 0.0
H309 H 0.65499 0.99038 0.83831 0.0
H310 H 0.70353 0.02513 0.90576 0.0
H311 H 0.74509 0.02377 0.8764 0.0
H312 H 0.87728 0.96672 0.68965 0.0
H313 H 0.84769 0.96616 0.73099 0.0
H314 H 0.83478 0.0402 0.66007 0.0
H315 H 0.80473 0.03929 0.70156 0.0
H316 H 0.68876 0.97915 0.65264 0.0
H317 H 0.65962 0.06109 0.67549 0.0
H318 H 0.68813 0.05963 0.71751 0.0
H319 H 0.71769 0.97783 0.69454 0.0
C320 C 0.18811 0.30088 1.00788 0.0
C321 C 0.19816 0.3267 0.9984 0.0
C322 C 0.15367 0.34892 1.00932 0.0
C323 C 0.18112 0.35044 0.99905 0.0
C324 C 0.14407 0.32309 0.01949 0.0
C325 C 0.16105 0.29939 0.01869 0.0
U326 U 0.25916 0.26555 1.00889 0.0
O327 O 0.27586 0.23197 0.98228 0.0
O328 O 0.27331 0.22616 0.02765 0.0
C329 C 0.28158 0.21579 1.00363 0.0
C330 C 0.20539 0.27534 1.00637 0.0
C331 C 0.30862 0.2008 1.00293 0.0
C332 C 0.33601 0.163 0.98304 0.0
C333 C 0.31245 0.18011 0.98264 0.0
C334 C 0.35327 0.18762 0.0235 0.0
C335 C 0.35645 0.16603 1.00383 0.0
C336 C 0.32951 0.20478 0.02314 0.0
C337 C 0.31992 0.31905 0.01942 0.0
C338 C 0.36251 0.33573 0.99773 0.0
C339 C 0.3511 0.34946 0.045 0.0
C340 C 0.3271 0.33322 0.04396 0.0
C341 C 0.36829 0.35189 0.02145 0.0
C342 C 0.3384 0.31947 0.99666 0.0
C343 C 0.29111 0.30903 0.01646 0.0
O344 O 0.22131 0.27298 0.9842 0.0
O345 O 0.21812 0.26812 0.02952 0.0
O346 O 0.28069 0.29447 0.03719 0.0
O347 O 0.2831 0.3004 0.9917 0.0
H348 H 0.21908 0.32847 0.99014 0.0
H349 H 0.18925 0.3698 0.99086 0.0
H350 H 0.12334 0.32113 0.02815 0.0
H351 H 0.15294 0.2798 0.02639 0.0
H352 H 0.33794 0.14696 0.96727 0.0
H353 H 0.29671 0.17658 0.96685 0.0
H354 H 0.36854 0.19049 0.03986 0.0
H355 H 0.32713 0.22057 0.03909 0.0
H356 H 0.37544 0.3373 0.97928 0.0
H357 H 0.35536 0.36143 0.06368 0.0
H358 H 0.31315 0.33334 0.06173 0.0
H359 H 0.33337 0.30878 0.97742 0.0
C360 C 0.29915 0.83744 0.0166 0.0
C361 C 0.32525 0.82768 1.00759 0.0
C362 C 0.34671 0.87238 0.01898 0.0
C363 C 0.34876 0.84498 1.0087 0.0
C364 C 0.32061 0.88169 0.02871 0.0
C365 C 0.29714 0.86445 0.02745 0.0
U366 U 0.26446 0.76607 0.01561 0.0
O367 O 0.23104 0.74997 0.98849 0.0
O368 O 0.22502 0.75147 0.03389 0.0
C369 C 0.21475 0.74381 1.00964 0.0
C370 C 0.27386 0.81995 0.01452 0.0
C371 C 0.19972 0.71686 1.0083 0.0
C372 C 0.16161 0.69023 0.98807 0.0
C373 C 0.17882 0.71371 0.98814 0.0
C374 C 0.1866 0.67173 0.02774 0.0
C375 C 0.16479 0.66922 1.00825 0.0
C376 C 0.20385 0.6954 0.02785 0.0
C377 C 0.31795 0.7051 0.0249 0.0
C378 C 0.33477 0.66297 1.00238 0.0
C379 C 0.34773 0.67305 0.05015 0.0
C380 C 0.33168 0.6972 0.04946 0.0
C381 C 0.35044 0.65642 0.02623 0.0
C382 C 0.3187 0.68723 1.00167 0.0
C383 C 0.30798 0.734 0.02257 0.0
O384 O 0.27183 0.80457 0.99193 0.0
O385 O 0.26668 0.80656 0.03731 0.0
O386 O 0.29331 0.74394 0.04349 0.0
O387 O 0.29946 0.74261 0.99798 0.0
H388 H 0.32739 0.8068 0.9993 0.0
H389 H 0.36837 0.8371 1.00083 0.0
H390 H 0.31825 0.90239 0.03734 0.0
H391 H 0.2773 0.87232 0.03479 0.0
H392 H 0.14539 0.6888 0.97245 0.0
H393 H 0.17519 0.72991 0.97285 0.0
H394 H 0.18958 0.65599 0.04362 0.0
H395 H 0.21983 0.69727 0.04367 0.0
H396 H 0.33657 0.6505 0.98364 0.0
H397 H 0.3593 0.66822 0.06892 0.0
H398 H 0.33156 0.71068 0.06759 0.0
H399 H 0.30838 0.69281 0.98239 0.0
C400 C 0.72439 0.1905 1.01167 0.0
C401 C 0.69901 0.19942 1.00007 0.0
C402 C 0.6766 0.15548 1.01294 0.0
C403 C 0.67543 0.18211 1.00064 0.0
C404 C 0.70195 0.14703 0.02513 0.0
C405 C 0.7255 0.16427 0.02442 0.0
U406 U 0.7598 0.26181 1.01299 0.0
O407 O 0.79383 0.2785 0.98691 0.0
O408 O 0.79891 0.27612 0.03234 0.0
C409 C 0.80969 0.2843 1.00848 0.0
C410 C 0.74989 0.208 1.0104 0.0
C411 C 0.82498 0.31127 1.00791 0.0
C412 C 0.86274 0.33859 0.9877 0.0
C413 C 0.84531 0.31524 0.98725 0.0
C414 C 0.83927 0.35542 0.029 0.0
C415 C 0.86044 0.35876 1.00889 0.0
C416 C 0.8218 0.33185 0.02861 0.0
C417 C 0.70576 0.32235 0.02283 0.0
C418 C 0.68926 0.36493 1.00101 0.0
C419 C 0.67419 0.35295 0.04772 0.0
C420 C 0.69074 0.32915 0.04697 0.0
C421 C 0.67232 0.37033 0.02428 0.0
C422 C 0.70582 0.341 1.00023 0.0
C423 C 0.71615 0.29367 0.01995 0.0
O424 O 0.75255 0.2239 0.98825 0.0
O425 O 0.75691 0.22077 0.03361 0.0
O426 O 0.73046 0.28333 0.04089 0.0
O427 O 0.72522 0.28576 0.99531 0.0
H428 H 0.69746 0.21967 0.99025 0.0
H429 H 0.65648 0.18937 0.99084 0.0
H430 H 0.70367 0.12702 0.03537 0.0
H431 H 0.74471 0.15699 0.03374 0.0
H432 H 0.8784 0.34062 0.97157 0.0
H433 H 0.8483 0.29975 0.97109 0.0
H434 H 0.83693 0.37043 0.04569 0.0
H435 H 0.80637 0.32938 0.04489 0.0
H436 H 0.68814 0.37802 0.98266 0.0
H437 H 0.66161 0.35691 0.06605 0.0
H438 H 0.69023 0.31504 0.06459 0.0
H439 H 0.71716 0.33625 0.98128 0.0
C440 C 0.83461 0.72572 0.01797 0.0
C441 C 0.82564 0.70012 1.00688 0.0
C442 C 0.87004 0.67828 0.01902 0.0
C443 C 0.84316 0.6767 1.00735 0.0
C444 C 0.87856 0.70384 0.03073 0.0
C445 C 0.8611 0.72723 0.03013 0.0
U446 U 0.76304 0.76061 0.01909 0.0
O447 O 0.74637 0.79467 0.99308 0.0
O448 O 0.74855 0.79959 0.03856 0.0
C449 C 0.74045 0.81044 0.01471 0.0
C450 C 0.81692 0.75105 0.01672 0.0
C451 C 0.71348 0.82568 0.01411 0.0
C452 C 0.68627 0.86357 0.99408 0.0
C453 C 0.7096 0.84612 0.99358 0.0
C454 C 0.66928 0.83984 0.03516 0.0
C455 C 0.66605 0.86115 0.01521 0.0
C456 C 0.69283 0.82236 0.03471 0.0
C457 C 0.70247 0.7066 0.0284 0.0
C458 C 0.65994 0.69022 1.00638 0.0
C459 C 0.67134 0.6756 0.05336 0.0
C460 C 0.69532 0.6919 0.05263 0.0
C461 C 0.65413 0.67362 0.02979 0.0
C462 C 0.68403 0.70654 1.00563 0.0
C463 C 0.73122 0.71686 0.0257 0.0
O464 O 0.8011 0.75362 0.99451 0.0
O465 O 0.80398 0.75786 0.0399 0.0
O466 O 0.74149 0.7311 0.04674 0.0
O467 O 0.73928 0.726 1.00114 0.0
H468 H 0.8052 0.69829 0.99752 0.0
H469 H 0.83586 0.65757 0.99793 0.0
H470 H 0.89879 0.70586 0.04047 0.0
H471 H 0.86842 0.74663 0.03904 0.0
H472 H 0.68431 0.87936 0.97809 0.0
H473 H 0.72515 0.84921 0.9775 0.0
H474 H 0.65421 0.83742 0.05178 0.0
H475 H 0.69524 0.80682 0.05089 0.0
H476 H 0.64701 0.689 0.98792 0.0
H477 H 0.66709 0.66329 0.0718 0.0
H478 H 0.70926 0.69148 0.07039 0.0
H479 H 0.68904 0.71762 0.98661 0.0
C480 C 0.51461 0.80115 0.6918 0.0
C481 C 0.52557 0.82671 0.70101 0.0
C482 C 0.51406 0.84863 0.65645 0.0
C483 C 0.52536 0.85015 0.68352 0.0
C484 C 0.50247 0.8231 0.64768 0.0
C485 C 0.50283 0.79969 0.6651 0.0
U486 U 0.51231 0.76642 0.76342 0.0
O487 O 0.53803 0.73239 0.78051 0.0
O488 O 0.49266 0.72746 0.77761 0.0
C489 C 0.51635 0.71662 0.78609 0.0
C490 C 0.51554 0.77583 0.7095 0.0
C491 C 0.51655 0.70144 0.81311 0.0
C492 C 0.53645 0.66387 0.84084 0.0
C493 C 0.53726 0.68132 0.8175 0.0
C494 C 0.49465 0.68697 0.85681 0.0
C495 C 0.5148 0.66597 0.86052 0.0
C496 C 0.49542 0.70446 0.83326 0.0
C497 C 0.50208 0.82061 0.82386 0.0
C498 C 0.52335 0.83682 0.8669 0.0
C499 C 0.47688 0.85197 0.85447 0.0
C500 C 0.47792 0.83561 0.8305 0.0
C501 C 0.50006 0.85369 0.87221 0.0
C502 C 0.52443 0.82044 0.8428 0.0
C503 C 0.50522 0.81024 0.79514 0.0
O504 O 0.53746 0.77327 0.72569 0.0
O505 O 0.49219 0.76909 0.7221 0.0
O506 O 0.48438 0.79599 0.78455 0.0
O507 O 0.52986 0.80106 0.78747 0.0
H508 H 0.53462 0.82849 0.72163 0.0
H509 H 0.53466 0.86927 0.69102 0.0
H510 H 0.49301 0.82115 0.62729 0.0
H511 H 0.49402 0.78031 0.65762 0.0
H512 H 0.5526 0.64832 0.8432 0.0
H513 H 0.55374 0.67847 0.80232 0.0
H514 H 0.47764 0.68913 0.87148 0.0
H515 H 0.4791 0.71975 0.83045 0.0
H516 H 0.54152 0.83784 0.88024 0.0
H517 H 0.45853 0.8645 0.85834 0.0
H518 H 0.46049 0.8362 0.81617 0.0
H519 H 0.54338 0.80913 0.83819 0.0
C520 C 0.33712 0.50939 0.80099 0.0
C521 C 0.32648 0.50009 0.82669 0.0
C522 C 0.37072 0.51023 0.84962 0.0
C523 C 0.34311 0.50043 0.85072 0.0
C524 C 0.38093 0.52025 0.82393 0.0
C525 C 0.36436 0.51974 0.79992 0.0
U526 U 0.26637 0.51181 0.76608 0.0
O527 O 0.24893 0.48572 0.7325 0.0
O528 O 0.25201 0.53103 0.72695 0.0
C529 C 0.24337 0.50722 0.71648 0.0
C530 C 0.32012 0.50836 0.77527 0.0
C531 C 0.21629 0.50693 0.7016 0.0
C532 C 0.18835 0.48699 0.66424 0.0
C533 C 0.21186 0.48629 0.68138 0.0
C534 C 0.17232 0.5285 0.68789 0.0
C535 C 0.16856 0.50844 0.66677 0.0
C536 C 0.19604 0.52784 0.70508 0.0
C537 C 0.20721 0.52281 0.82165 0.0
C538 C 0.16396 0.50196 0.83758 0.0
C539 C 0.1783 0.54698 0.85531 0.0
C540 C 0.20179 0.54618 0.83831 0.0
C541 C 0.15983 0.52436 0.85599 0.0
C542 C 0.18759 0.50112 0.82056 0.0
C543 C 0.23548 0.5195 0.81038 0.0
O544 O 0.30391 0.48648 0.77267 0.0
O545 O 0.30774 0.53173 0.76826 0.0
O546 O 0.24571 0.54018 0.79562 0.0
O547 O 0.24277 0.49473 0.80125 0.0
H548 H 0.30538 0.49224 0.82812 0.0
H549 H 0.33454 0.49239 0.86998 0.0
H550 H 0.40182 0.52857 0.82231 0.0
H551 H 0.37289 0.52733 0.78043 0.0
H552 H 0.18592 0.47092 0.64857 0.0
H553 H 0.22712 0.46997 0.67823 0.0
H554 H 0.15754 0.54534 0.69036 0.0
H555 H 0.19891 0.54408 0.72049 0.0
H556 H 0.15 0.48425 0.83774 0.0
H557 H 0.17531 0.56468 0.86901 0.0
H558 H 0.2167 0.56307 0.83959 0.0
H559 H 0.19129 0.48279 0.80794 0.0
C560 C 0.51915 0.33653 0.80199 0.0
C561 C 0.53004 0.32744 0.82765 0.0
C562 C 0.51747 0.37163 0.84972 0.0
C563 C 0.52927 0.3448 0.85121 0.0
C564 C 0.50598 0.38026 0.82408 0.0
C565 C 0.50689 0.36297 0.80054 0.0
U566 U 0.5182 0.2651 0.767 0.0
O567 O 0.54469 0.24827 0.73335 0.0
O568 O 0.49938 0.25065 0.72765 0.0
C569 C 0.52335 0.24245 0.71719 0.0
C570 C 0.52067 0.31895 0.77656 0.0
C571 C 0.52411 0.21545 0.70202 0.0
C572 C 0.54427 0.18823 0.66415 0.0
C573 C 0.54459 0.21166 0.6815 0.0
C574 C 0.50349 0.171 0.68817 0.0
C575 C 0.52338 0.16785 0.66676 0.0
C576 C 0.50376 0.19464 0.70556 0.0
C577 C 0.50773 0.20481 0.82126 0.0
C578 C 0.52926 0.16227 0.83823 0.0
C579 C 0.48238 0.17424 0.85251 0.0
C580 C 0.48339 0.19802 0.83592 0.0
C581 C 0.50576 0.15687 0.8548 0.0
C582 C 0.53031 0.18618 0.82162 0.0
C583 C 0.51072 0.23345 0.81079 0.0
O584 O 0.54281 0.30303 0.77425 0.0
O585 O 0.49757 0.30615 0.7694 0.0
O586 O 0.49 0.24374 0.79615 0.0
O587 O 0.53543 0.24133 0.80199 0.0
H588 H 0.53945 0.30703 0.82943 0.0
H589 H 0.53853 0.33741 0.87041 0.0
H590 H 0.49614 0.40045 0.82213 0.0
H591 H 0.49812 0.37035 0.78109 0.0
H592 H 0.56021 0.18633 0.64827 0.0
H593 H 0.56048 0.22734 0.67827 0.0
H594 H 0.48705 0.15579 0.69073 0.0
H595 H 0.48765 0.19699 0.72118 0.0
H596 H 0.54757 0.14919 0.83968 0.0
H597 H 0.46386 0.17028 0.8648 0.0
H598 H 0.46577 0.21211 0.8361 0.0
H599 H 0.5494 0.19091 0.81058 0.0
C600 C 0.68638 0.51926 0.80245 0.0
C601 C 0.69836 0.52593 0.82838 0.0
C602 C 0.6536 0.51939 0.85176 0.0
C603 C 0.68215 0.52602 0.85277 0.0
C604 C 0.642 0.51197 0.82577 0.0
C605 C 0.65817 0.51198 0.80145 0.0
U606 U 0.75679 0.51796 0.7668 0.0
O607 O 0.77343 0.54359 0.73238 0.0
O608 O 0.77169 0.49809 0.72811 0.0
C609 C 0.77935 0.52185 0.71679 0.0
C610 C 0.70299 0.5201 0.77641 0.0
C611 C 0.80595 0.52256 0.70091 0.0
C612 C 0.83167 0.54142 0.66131 0.0
C613 C 0.80859 0.54191 0.67915 0.0
C614 C 0.85078 0.5027 0.68718 0.0
C615 C 0.85289 0.52151 0.66468 0.0
C616 C 0.82748 0.50312 0.70504 0.0
C617 C 0.815 0.51012 0.82457 0.0
C618 C 0.8567 0.53245 0.8424 0.0
C619 C 0.84232 0.48766 0.86065 0.0
C620 C 0.81984 0.48744 0.84232 0.0
C621 C 0.86036 0.51062 0.86157 0.0
C622 C 0.83408 0.53228 0.82408 0.0
C623 C 0.78742 0.51238 0.81154 0.0
O624 O 0.71855 0.54236 0.77312 0.0
O625 O 0.71601 0.49696 0.7698 0.0
O626 O 0.77821 0.49101 0.79711 0.0
O627 O 0.7799 0.5367 0.80143 0.0
H628 H 0.72019 0.53144 0.82971 0.0
H629 H 0.69183 0.53197 0.87227 0.0
H630 H 0.62029 0.50611 0.82416 0.0
H631 H 0.64856 0.50647 0.78177 0.0
H632 H 0.83272 0.55656 0.64461 0.0
H633 H 0.7923 0.55707 0.67542 0.0
H634 H 0.86663 0.48699 0.69037 0.0
H635 H 0.82601 0.48784 0.72157 0.0
H636 H 0.87033 0.55041 0.84269 0.0
H637 H 0.84499 0.47033 0.87485 0.0
H638 H 0.80525 0.47025 0.84324 0.0
H639 H 0.83071 0.55014 0.81072 0.0
C640 C 0.51495 0.22674 0.33903 0.0
C641 C 0.52419 0.20086 0.32884 0.0
C642 C 0.51294 0.17855 0.37324 0.0
C643 C 0.52326 0.17705 0.34578 0.0
C644 C 0.50296 0.20441 0.38296 0.0
C645 C 0.50404 0.22819 0.36609 0.0
U646 U 0.51472 0.26213 0.26802 0.0
O647 O 0.54174 0.29538 0.25139 0.0
O648 O 0.4965 0.3017 0.25373 0.0
C649 C 0.52063 0.3118 0.24557 0.0
C650 C 0.51681 0.25233 0.32188 0.0
C651 C 0.52158 0.32674 0.21848 0.0
C652 C 0.54139 0.36474 0.19134 0.0
C653 C 0.5416 0.3477 0.21498 0.0
C654 C 0.50171 0.33948 0.17335 0.0
C655 C 0.52107 0.36134 0.17047 0.0
C656 C 0.50188 0.32239 0.19719 0.0
C657 C 0.50406 0.20846 0.20729 0.0
C658 C 0.52589 0.19155 0.16481 0.0
C659 C 0.47872 0.17773 0.17621 0.0
C660 C 0.47964 0.19414 0.20014 0.0
C661 C 0.50228 0.17527 0.15906 0.0
C662 C 0.52683 0.20799 0.18885 0.0
C663 C 0.50691 0.21864 0.23609 0.0
O664 O 0.53908 0.25453 0.30609 0.0
O665 O 0.49385 0.25982 0.30901 0.0
O666 O 0.4863 0.23349 0.2463 0.0
O667 O 0.53166 0.22703 0.24424 0.0
H668 H 0.5325 0.19913 0.3079 0.0
H669 H 0.5313 0.15765 0.33757 0.0
H670 H 0.49428 0.20636 0.40371 0.0
H671 H 0.49651 0.24782 0.37429 0.0
H672 H 0.55692 0.381 0.18965 0.0
H673 H 0.55701 0.3515 0.23103 0.0
H674 H 0.48572 0.33632 0.15775 0.0
H675 H 0.48616 0.30636 0.19932 0.0
H676 H 0.54434 0.18996 0.15191 0.0
H677 H 0.46013 0.16569 0.17197 0.0
H678 H 0.46187 0.19407 0.21408 0.0
H679 H 0.54598 0.21879 0.19386 0.0
C680 C 0.68873 0.51318 0.22716 0.0
C681 C 0.6985 0.50382 0.20112 0.0
C682 C 0.65392 0.51521 0.17923 0.0
C683 C 0.68129 0.50478 0.17744 0.0
C684 C 0.64461 0.52528 0.20526 0.0
C685 C 0.66176 0.52419 0.22888 0.0
U686 U 0.75995 0.51273 0.26258 0.0
O687 O 0.77619 0.4859 0.29626 0.0
O688 O 0.77453 0.53122 0.30204 0.0
C689 C 0.78211 0.5071 0.31258 0.0
C690 C 0.7061 0.51126 0.2527 0.0
C691 C 0.80874 0.50586 0.3284 0.0
C692 C 0.83429 0.48616 0.36767 0.0
C693 C 0.8112 0.48616 0.34986 0.0
C694 C 0.85382 0.52504 0.34233 0.0
C695 C 0.85571 0.50592 0.36458 0.0
C696 C 0.8305 0.52511 0.3245 0.0
C697 C 0.82002 0.52223 0.20747 0.0
C698 C 0.86192 0.49999 0.18984 0.0
C699 C 0.84995 0.54664 0.17487 0.0
C700 C 0.82659 0.54617 0.19208 0.0
C701 C 0.86714 0.52312 0.17269 0.0
C702 C 0.83843 0.49948 0.20706 0.0
C703 C 0.79163 0.51971 0.2187 0.0
O704 O 0.7216 0.48883 0.25499 0.0
O705 O 0.71929 0.53409 0.26003 0.0
O706 O 0.78192 0.5406 0.23354 0.0
O707 O 0.78348 0.49512 0.22759 0.0
H708 H 0.71933 0.49539 0.19915 0.0
H709 H 0.68921 0.49666 0.15793 0.0
H710 H 0.62396 0.53404 0.20746 0.0
H711 H 0.65384 0.5318 0.24862 0.0
H712 H 0.83518 0.4708 0.38418 0.0
H713 H 0.79476 0.47112 0.3534 0.0
H714 H 0.86982 0.54063 0.33935 0.0
H715 H 0.82918 0.54063 0.30818 0.0
H716 H 0.87486 0.48157 0.18851 0.0
H717 H 0.8538 0.5649 0.16218 0.0
H718 H 0.81262 0.56389 0.1919 0.0
H719 H 0.83382 0.48068 0.21863 0.0
C720 C 0.50866 0.68925 0.22768 0.0
C721 C 0.5183 0.69873 0.20166 0.0
C722 C 0.50613 0.6543 0.18003 0.0
C723 C 0.51712 0.68143 0.17811 0.0
C724 C 0.49579 0.64529 0.20603 0.0
C725 C 0.49713 0.66253 0.22955 0.0
U726 U 0.50921 0.76065 0.26228 0.0
O727 O 0.53639 0.77712 0.29549 0.0
O728 O 0.49112 0.77531 0.30186 0.0
C729 C 0.51534 0.78326 0.31191 0.0
C730 C 0.51073 0.70677 0.25301 0.0
C731 C 0.51659 0.81037 0.32672 0.0
C732 C 0.53758 0.83778 0.3639 0.0
C733 C 0.53747 0.81421 0.34678 0.0
C734 C 0.49647 0.85503 0.34046 0.0
C735 C 0.51671 0.85819 0.36148 0.0
C736 C 0.49632 0.83126 0.32329 0.0
C737 C 0.49908 0.82136 0.20868 0.0
C738 C 0.5211 0.86395 0.19245 0.0
C739 C 0.4738 0.85314 0.17865 0.0
C740 C 0.47466 0.82892 0.19459 0.0
C741 C 0.49744 0.87019 0.17642 0.0
C742 C 0.52197 0.83961 0.20842 0.0
C743 C 0.50168 0.79248 0.21863 0.0
O744 O 0.53315 0.72234 0.25493 0.0
O745 O 0.4879 0.71997 0.26035 0.0
O746 O 0.48099 0.78244 0.2335 0.0
O747 O 0.52636 0.78407 0.227 0.0
H748 H 0.5271 0.7194 0.19961 0.0
H749 H 0.52548 0.68908 0.1586 0.0
H750 H 0.48662 0.62482 0.20828 0.0
H751 H 0.4893 0.65488 0.24931 0.0
H752 H 0.55376 0.83973 0.37949 0.0
H753 H 0.55332 0.79845 0.34987 0.0
H754 H 0.48006 0.8703 0.33809 0.0
H755 H 0.47994 0.82887 0.30798 0.0
H756 H 0.53962 0.87673 0.19102 0.0
H757 H 0.45517 0.85773 0.16678 0.0
H758 H 0.45679 0.81514 0.19436 0.0
H759 H 0.54113 0.8343 0.21906 0.0
C760 C 0.22424 0.50465 0.33935 0.0
C761 C 0.19843 0.49512 0.3293 0.0
C762 C 0.17613 0.50611 0.37381 0.0
C763 C 0.17466 0.49578 0.34635 0.0
C764 C 0.20194 0.51634 0.38342 0.0
C765 C 0.22566 0.51553 0.36643 0.0
U766 U 0.25953 0.50585 0.2682 0.0
O767 O 0.29306 0.47931 0.2513 0.0
O768 O 0.29892 0.52459 0.25397 0.0
C769 C 0.30932 0.50061 0.24572 0.0
C770 C 0.2498 0.50316 0.32207 0.0
C771 C 0.32468 0.49994 0.21883 0.0
C772 C 0.36308 0.48033 0.19201 0.0
C773 C 0.34567 0.47991 0.2154 0.0
C774 C 0.33824 0.5203 0.17413 0.0
C775 C 0.36006 0.50086 0.17131 0.0
C776 C 0.32078 0.51993 0.19773 0.0
C777 C 0.20491 0.51669 0.20813 0.0
C778 C 0.18822 0.49539 0.1653 0.0
C779 C 0.1726 0.54157 0.17833 0.0
C780 C 0.18942 0.54065 0.20197 0.0
C781 C 0.17093 0.51848 0.16047 0.0
C782 C 0.20505 0.49444 0.18907 0.0
C783 C 0.21577 0.51357 0.23663 0.0
O784 O 0.25215 0.48107 0.30605 0.0
O785 O 0.25709 0.52629 0.3094 0.0
O786 O 0.23055 0.53422 0.24687 0.0
O787 O 0.22456 0.4888 0.24432 0.0
H788 H 0.1967 0.48682 0.30836 0.0
H789 H 0.15531 0.48756 0.33821 0.0
H790 H 0.20387 0.52505 0.40416 0.0
H791 H 0.24523 0.52328 0.37455 0.0
H792 H 0.37928 0.46473 0.19037 0.0
H793 H 0.34916 0.4643 0.23133 0.0
H794 H 0.33536 0.53647 0.15867 0.0
H795 H 0.30479 0.53569 0.19981 0.0
H796 H 0.18727 0.47731 0.15183 0.0
H797 H 0.15978 0.55978 0.1748 0.0
H798 H 0.18885 0.55799 0.21642 0.0
H799 H 0.21674 0.47564 0.19335 0.0
C800 C 0.80007 0.68758 0.50904 0.0
C801 C 0.82594 0.69954 0.51583 0.0
C802 C 0.84925 0.65488 0.50892 0.0
C803 C 0.85028 0.68336 0.51579 0.0
C804 C 0.82335 0.64332 0.50126 0.0
C805 C 0.79907 0.65947 0.5014 0.0
U806 U 0.76455 0.7579 0.50851 0.0
O807 O 0.73044 0.77437 0.53462 0.0
O808 O 0.72578 0.77286 0.48906 0.0
C809 C 0.71471 0.78042 0.51301 0.0
C810 C 0.77407 0.7041 0.51019 0.0
C811 C 0.699 0.80706 0.51401 0.0
C812 C 0.65994 0.83291 0.53366 0.0
C813 C 0.67772 0.80983 0.53388 0.0
C814 C 0.68495 0.85178 0.49418 0.0
C815 C 0.6629 0.85398 0.51349 0.0
C816 C 0.70275 0.82848 0.49434 0.0
C817 C 0.82193 0.81627 0.50059 0.0
C818 C 0.83867 0.85839 0.52298 0.0
C819 C 0.85801 0.84393 0.47859 0.0
C820 C 0.84004 0.82118 0.47819 0.0
C821 C 0.85819 0.86217 0.50145 0.0
C822 C 0.82071 0.83551 0.52263 0.0
C823 C 0.80917 0.78858 0.50273 0.0
O824 O 0.77092 0.7195 0.53263 0.0
O825 O 0.76733 0.71727 0.48714 0.0
O826 O 0.7946 0.7795 0.48138 0.0
O827 O 0.79931 0.78083 0.52712 0.0
H828 H 0.82724 0.72131 0.5216 0.0
H829 H 0.86973 0.69296 0.52193 0.0
H830 H 0.82177 0.62165 0.49524 0.0
H831 H 0.77944 0.64989 0.49578 0.0
H832 H 0.64359 0.83407 0.54917 0.0
H833 H 0.67429 0.79363 0.54923 0.0
H834 H 0.68782 0.86753 0.47829 0.0
H835 H 0.71892 0.8269 0.47868 0.0
H836 H 0.83841 0.87216 0.54088 0.0
H837 H 0.8725 0.84668 0.46149 0.0
H838 H 0.84149 0.80648 0.4611 0.0
H839 H 0.80705 0.83209 0.54027 0.0
C840 C 0.79761 0.33893 0.51694 0.0
C841 C 0.82364 0.32749 0.50992 0.0
C842 C 0.84646 0.372 0.51897 0.0
C843 C 0.84781 0.34386 0.51087 0.0
C844 C 0.82039 0.38302 0.52684 0.0
C845 C 0.79627 0.36669 0.52575 0.0
U846 U 0.76234 0.26846 0.51656 0.0
O847 O 0.72946 0.25178 0.48912 0.0
O848 O 0.72275 0.25373 0.53442 0.0
C849 C 0.71291 0.2457 0.5101 0.0
C850 C 0.77181 0.32224 0.51488 0.0
C851 C 0.69821 0.21857 0.50882 0.0
C852 C 0.66054 0.19138 0.48853 0.0
C853 C 0.67738 0.21511 0.48863 0.0
C854 C 0.68576 0.17324 0.52822 0.0
C855 C 0.66402 0.1704 0.5087 0.0
C856 C 0.70265 0.19718 0.52836 0.0
C857 C 0.81715 0.20874 0.52701 0.0
C858 C 0.83359 0.16629 0.50494 0.0
C859 C 0.8498 0.17876 0.55114 0.0
C860 C 0.83294 0.20233 0.55073 0.0
C861 C 0.85122 0.16123 0.52776 0.0
C862 C 0.8167 0.18998 0.50451 0.0
C863 C 0.80622 0.23719 0.52438 0.0
O864 O 0.76965 0.30668 0.49244 0.0
O865 O 0.76422 0.30922 0.53776 0.0
O866 O 0.79101 0.24683 0.54504 0.0
O867 O 0.79781 0.24532 0.4996 0.0
H868 H 0.82523 0.30599 0.50327 0.0
H869 H 0.86739 0.33468 0.5045 0.0
H870 H 0.81855 0.40439 0.5338 0.0
H871 H 0.77648 0.37584 0.53157 0.0
H872 H 0.64437 0.1897 0.47289 0.0
H873 H 0.67354 0.23126 0.47334 0.0
H874 H 0.68897 0.15753 0.54409 0.0
H875 H 0.71859 0.19928 0.54419 0.0
H876 H 0.83433 0.15308 0.48664 0.0
H877 H 0.86287 0.17503 0.56917 0.0
H878 H 0.83371 0.21657 0.56826 0.0
H879 H 0.80474 0.19445 0.48591 0.0
C880 C 0.22316 0.69097 0.51209 0.0
C881 C 0.1978 0.69965 0.50025 0.0
C882 C 0.17559 0.65559 0.51316 0.0
C883 C 0.17432 0.68216 0.50073 0.0
C884 C 0.20091 0.64739 0.5256 0.0
C885 C 0.22434 0.66481 0.52498 0.0
U886 U 0.25845 0.76248 0.51317 0.0
O887 O 0.2929 0.77895 0.48744 0.0
O888 O 0.29731 0.77693 0.53296 0.0
C889 C 0.30857 0.78469 0.50918 0.0
C890 C 0.2486 0.70861 0.51092 0.0
C891 C 0.32469 0.81121 0.50855 0.0
C892 C 0.36371 0.83709 0.48874 0.0
C893 C 0.34551 0.81431 0.48823 0.0
C894 C 0.34013 0.85506 0.52948 0.0
C895 C 0.36171 0.85757 0.50967 0.0
C896 C 0.32191 0.83205 0.52904 0.0
C897 C 0.20278 0.82223 0.52198 0.0
C898 C 0.1856 0.86444 0.49997 0.0
C899 C 0.169 0.85129 0.54583 0.0
C900 C 0.18643 0.82812 0.54549 0.0
C901 C 0.16758 0.86901 0.52261 0.0
C902 C 0.20302 0.8411 0.49958 0.0
C903 C 0.21442 0.79402 0.51933 0.0
O904 O 0.25143 0.72434 0.48868 0.0
O905 O 0.25535 0.72159 0.53409 0.0
O906 O 0.22866 0.78411 0.54053 0.0
O907 O 0.22407 0.78628 0.49485 0.0
H908 H 0.19619 0.71983 0.49031 0.0
H909 H 0.15539 0.68924 0.49076 0.0
H910 H 0.2027 0.62744 0.53594 0.0
H911 H 0.24353 0.65771 0.53449 0.0
H912 H 0.37966 0.83847 0.47283 0.0
H913 H 0.34825 0.79857 0.47227 0.0
H914 H 0.33798 0.87031 0.54598 0.0
H915 H 0.30617 0.83023 0.54511 0.0
H916 H 0.18487 0.87781 0.4818 0.0
H917 H 0.15562 0.85462 0.56372 0.0
H918 H 0.18572 0.81377 0.56292 0.0
H919 H 0.21531 0.837 0.48109 0.0
C920 C 0.33617 0.22438 0.51777 0.0
C921 C 0.32682 0.19879 0.50698 0.0
C922 C 0.37109 0.17656 0.51888 0.0
C923 C 0.34409 0.17518 0.50747 0.0
C924 C 0.37996 0.20212 0.53036 0.0
C925 C 0.36276 0.22569 0.52972 0.0
U926 U 0.26494 0.25972 0.51907 0.0
O927 O 0.24817 0.29362 0.4929 0.0
O928 O 0.25064 0.29887 0.53833 0.0
C929 C 0.24246 0.30959 0.51444 0.0
C930 C 0.31874 0.24989 0.51647 0.0
C931 C 0.21558 0.32499 0.51389 0.0
C932 C 0.18865 0.36325 0.49416 0.0
C933 C 0.21193 0.34574 0.49363 0.0
C934 C 0.17125 0.33901 0.53477 0.0
C935 C 0.16822 0.36059 0.51506 0.0
C936 C 0.19476 0.32146 0.53428 0.0
C937 C 0.20465 0.20541 0.52897 0.0
C938 C 0.16167 0.18985 0.50728 0.0
C939 C 0.1743 0.17314 0.55324 0.0
C940 C 0.19819 0.18957 0.55266 0.0
C941 C 0.15649 0.1722 0.53006 0.0
C942 C 0.18567 0.2063 0.50667 0.0
C943 C 0.23325 0.21596 0.52613 0.0
O944 O 0.30284 0.25247 0.49431 0.0
O945 O 0.30599 0.25696 0.53967 0.0
O946 O 0.24346 0.23042 0.54704 0.0
O947 O 0.24113 0.22499 0.50147 0.0
H948 H 0.30628 0.19711 0.49781 0.0
H949 H 0.33651 0.15604 0.49826 0.0
H950 H 0.40029 0.20399 0.5399 0.0
H951 H 0.37036 0.24507 0.53843 0.0
H952 H 0.18686 0.37923 0.47835 0.0
H953 H 0.22763 0.34898 0.47771 0.0
H954 H 0.15602 0.33638 0.55121 0.0
H955 H 0.19699 0.30569 0.55026 0.0
H956 H 0.14826 0.18946 0.48913 0.0
H957 H 0.17052 0.16003 0.57123 0.0
H958 H 0.21257 0.18844 0.57003 0.0
H959 H 0.19017 0.21828 0.48808 0.0
C960 C 1.01086 0.94503 0.58064 0.0
C961 C 0.01316 0.95033 0.44451 0.0
C962 C 1.00649 0.07969 0.58592 0.0
C963 C 1.00766 0.08514 0.44948 0.0
C964 C 0.9392 0.08009 0.51786 0.0
C965 C 0.94365 0.94613 0.51084 0.0
C966 C 0.07408 0.0854 0.51988 0.0
C967 C 0.07947 0.95042 0.51514 0.0
C968 C 0.07773 0.02038 0.44794 0.0
C969 C 0.9439 0.01445 0.44536 0.0
C970 C 0.07546 0.01475 0.58462 0.0
C971 C 0.94058 1.0104 0.58175 0.0
Eu972 Eu 1.01111 0.96209 0.51315 0.0
O973 O 0.98597 0.99058 0.48928 0.0
O974 O 0.03455 0.99041 0.53898 0.0
Eu975 Eu 0.95642 0.01363 0.51396 0.0
Eu976 Eu 0.06249 0.01718 0.51605 0.0
O977 O 0.98474 0.9885 0.53824 0.0
O978 O 0.03562 0.99206 0.4902 0.0
Eu979 Eu 1.00835 0.01304 0.56731 0.0
Eu980 Eu 1.01048 0.01718 0.46304 0.0
O981 O 0.9833 0.0383 0.54009 0.0
O982 O 0.98408 0.04042 0.49086 0.0
O983 O 0.0339 0.04207 0.49199 0.0
O984 O 0.0327 0.03985 0.54091 0.0
Eu985 Eu 1.00743 0.06838 0.51713 0.0
O986 O 1.01096 0.93706 0.55386 0.0
O987 O 0.01269 0.9404 0.47063 0.0
O988 O 1.00694 0.0898 0.55986 0.0
O989 O 1.00715 0.09321 0.47625 0.0
O990 O 0.93169 0.05348 0.51554 0.0
O991 O 0.93457 0.97231 0.51206 0.0
O992 O 0.08362 0.05927 0.5191 0.0
O993 O 0.08707 0.97713 0.51548 0.0
O994 O 0.05118 0.02005 0.43997 0.0
O995 O 0.97071 0.01547 0.43835 0.0
O996 O 0.04863 0.01341 0.59181 0.0
O997 O 0.9671 1.01055 0.5901 0.0
O998 O 0.0474 0.09304 0.51892 0.0
O999 O 0.96533 0.08961 0.51883 0.0
O1000 O 0.05333 0.94086 0.51431 0.0
O1001 O 0.97032 0.93809 0.51084 0.0
O1002 O 0.01273 0.9773 0.43774 0.0
O1003 O 1.00873 0.05873 0.44082 0.0
O1004 O 1.01001 0.9714 0.58941 0.0
O1005 O 1.00664 0.05272 0.59258 0.0
O1006 O 0.9322 1.01155 0.55512 0.0
O1007 O 0.93412 0.01415 0.47156 0.0
O1008 O 0.08493 0.01636 0.55835 0.0
O1009 O 0.08652 0.0192 0.47449 0.0
C1010 C 0.50685 0.95145 0.08836 0.0
C1011 C 0.51058 0.08613 0.07884 0.0
C1012 C 0.50858 0.94195 0.95343 0.0
C1013 C 0.5127 0.07658 0.94397 0.0
C1014 C 0.58062 1.00794 0.9503 0.0
C1015 C 0.57821 0.01531 0.08493 0.0
C1016 C 0.44436 1.01189 0.94738 0.0
C1017 C 0.44251 0.01922 0.08303 0.0
C1018 C 0.4456 0.08366 1.01097 0.0
C1019 C 0.58182 0.0789 1.01322 0.0
C1020 C 0.44098 0.94904 0.01842 0.0
C1021 C 0.57711 0.94423 0.01991 0.0
Eu1022 Eu 0.51058 0.01752 0.06919 0.0
O1023 O 0.53639 0.03979 0.03992 0.0
O1024 O 0.48563 0.99172 0.04215 0.0
Eu1025 Eu 0.56342 0.01219 0.01722 0.0
Eu1026 Eu 0.45899 0.01578 0.01538 0.0
O1027 O 0.53469 0.98979 0.04327 0.0
O1028 O 0.48732 0.04124 0.03894 0.0
Eu1029 Eu 0.50951 0.96099 0.01975 0.0
Eu1030 Eu 0.51315 0.06697 1.01268 0.0
O1031 O 0.5353 0.98668 0.9934 0.0
O1032 O 0.53708 0.03634 0.99012 0.0
O1033 O 0.48809 0.03786 0.98938 0.0
O1034 O 0.48646 0.98851 0.99273 0.0
Eu1035 Eu 0.51218 1.01045 0.96314 0.0
O1036 O 0.50861 0.97831 0.09524 0.0
O1037 O 0.50967 0.06028 0.0891 0.0
O1038 O 0.50987 0.96778 0.94317 0.0
O1039 O 0.51298 0.04966 0.93712 0.0
O1040 O 0.58783 1.00919 0.97712 0.0
O1041 O 0.58636 0.01295 0.05842 0.0
O1042 O 0.43605 0.01381 0.97394 0.0
O1043 O 0.43484 0.01847 0.05622 0.0
O1044 O 0.47232 0.0917 1.01101 0.0
O1045 O 0.55571 0.08875 1.01199 0.0
O1046 O 0.46705 0.93923 0.02 0.0
O1047 O 0.55039 0.93621 0.02104 0.0
O1048 O 0.47097 1.01057 0.93904 0.0
O1049 O 0.5544 1.00819 0.9407 0.0
O1050 O 0.46888 0.019 0.09207 0.0
O1051 O 0.55172 0.01774 0.09335 0.0
O1052 O 0.51251 0.09294 0.05195 0.0
O1053 O 0.51286 0.08686 0.96987 0.0
O1054 O 0.5069 0.94118 0.06247 0.0
O1055 O 0.50864 0.93507 0.98038 0.0
O1056 O 0.58572 0.97064 0.01859 0.0
O1057 O 0.5886 0.05201 0.01523 0.0
O1058 O 0.43409 0.97589 0.01671 0.0
O1059 O 0.43688 0.05729 1.01236 0.0
C1060 C 0.01392 0.44385 0.07893 0.0
C1061 C 1.01068 0.44847 0.94412 0.0
C1062 C 0.01667 0.57988 0.08386 0.0
C1063 C 0.01275 0.58466 0.94892 0.0
C1064 C 0.94744 0.58423 0.01697 0.0
C1065 C 0.94322 0.44808 0.01365 0.0
C1066 C 0.08236 0.58014 1.01312 0.0
C1067 C 0.07795 0.44403 1.00963 0.0
C1068 C 0.07789 0.51598 0.94359 0.0
C1069 C 0.94374 0.51683 0.94796 0.0
C1070 C 0.08316 0.51207 0.07856 0.0
C1071 C 0.94816 0.51523 0.08407 0.0
Eu1072 Eu 1.01122 0.46214 1.01211 0.0
O1073 O 0.98647 0.49134 0.98893 0.0
O1074 O 0.03793 0.48812 0.03701 0.0
Eu1075 Eu 0.95971 0.5157 0.01557 0.0
Eu1076 Eu 0.06599 0.51259 1.01182 0.0
O1077 O 0.98802 0.48962 0.03885 0.0
O1078 O 0.03624 0.48977 0.9872 0.0
Eu1079 Eu 0.01484 0.51238 0.06692 0.0
Eu1080 Eu 1.01127 0.51604 0.96078 0.0
O1081 O 0.98968 0.53841 0.04029 0.0
O1082 O 0.98798 0.54027 0.99067 0.0
O1083 O 0.03762 0.53884 0.98903 0.0
O1084 O 0.03936 0.53709 0.03856 0.0
Eu1085 Eu 0.01445 0.56639 0.0157 0.0
O1086 O 0.01228 0.43704 0.05199 0.0
O1087 O 1.01055 0.43987 0.97057 0.0
O1088 O 0.01642 0.5886 0.0574 0.0
O1089 O 0.01422 0.59145 0.97585 0.0
O1090 O 0.93768 0.55807 0.01652 0.0
O1091 O 0.93508 0.47472 0.01561 0.0
O1092 O 0.09053 0.55348 1.01217 0.0
O1093 O 0.08784 0.47013 1.01018 0.0
O1094 O 0.0512 0.51666 0.93603 0.0
O1095 O 0.96995 0.51711 0.93889 0.0
O1096 O 0.05702 0.51236 0.08813 0.0
O1097 O 0.97481 0.513 0.09157 0.0
O1098 O 0.05595 0.58871 0.01457 0.0
O1099 O 0.97435 0.59119 0.01701 0.0
O1100 O 0.05104 0.43717 1.01012 0.0
O1101 O 0.96968 0.43965 1.01201 0.0
O1102 O 1.01068 0.47517 0.936 0.0
O1103 O 1.01118 0.55859 0.93902 0.0
O1104 O 0.01498 0.46993 0.08882 0.0
O1105 O 0.01598 0.55315 0.09184 0.0
O1106 O 0.9386 0.51662 0.05791 0.0
O1107 O 0.93566 0.51623 0.97467 0.0
O1108 O 0.09074 0.51158 0.05181 0.0
O1109 O 0.0874 0.51432 0.96972 0.0
C1110 C 0.5146 0.44333 0.08085 0.0
C1111 C 0.50697 0.57776 0.08547 0.0
C1112 C 0.51639 0.44818 0.94454 0.0
C1113 C 0.50882 0.58277 0.94923 0.0
C1114 C 0.5791 0.51981 0.94776 0.0
C1115 C 0.57703 0.51431 0.08459 0.0
C1116 C 0.44537 0.51009 0.9454 0.0
C1117 C 0.4423 0.50716 0.08169 0.0
C1118 C 0.43881 0.5755 0.01746 0.0
C1119 C 0.5735 0.58517 0.01982 0.0
C1120 C 0.44866 0.4408 0.01389 0.0
C1121 C 0.58341 0.45055 0.01565 0.0
Eu1122 Eu 0.51007 0.5111 0.06714 0.0
O1123 O 0.53366 0.53849 0.04069 0.0
O1124 O 0.48752 0.48565 0.03807 0.0
Eu1125 Eu 0.56419 0.51665 0.01598 0.0
Eu1126 Eu 0.45806 0.50944 0.0139 0.0
O1127 O 0.53714 0.48913 0.03902 0.0
O1128 O 0.48412 0.53526 0.03982 0.0
Eu1129 Eu 0.5148 0.46 1.01323 0.0
Eu1130 Eu 0.50739 0.56598 0.01682 0.0
O1131 O 0.53815 0.49066 0.99008 0.0
O1132 O 0.53464 0.54038 0.99188 0.0
O1133 O 0.4848 0.53719 0.9907 0.0
O1134 O 0.48841 0.48733 0.98921 0.0
Eu1135 Eu 0.51197 0.51485 0.96295 0.0
O1136 O 0.51249 0.46967 0.08947 0.0
O1137 O 0.50826 0.55086 0.09227 0.0
O1138 O 0.51514 0.4751 0.93774 0.0
O1139 O 0.51051 0.55638 0.94062 0.0
O1140 O 0.588 0.51917 0.97429 0.0
O1141 O 0.58655 0.51641 0.05836 0.0
O1142 O 0.4357 0.50879 0.9716 0.0
O1143 O 0.4339 0.5076 0.05505 0.0
O1144 O 0.46465 0.58575 0.01839 0.0
O1145 O 0.54659 0.59198 0.01878 0.0
O1146 O 0.47557 0.434 1.01287 0.0
O1147 O 0.55759 0.44023 0.01462 0.0
O1148 O 0.4721 0.5125 0.93833 0.0
O1149 O 0.55256 0.51852 0.93981 0.0
O1150 O 0.46883 0.50806 0.09002 0.0
O1151 O 0.55025 0.5122 0.09167 0.0
O1152 O 0.50615 0.58767 0.05937 0.0
O1153 O 0.50706 0.59079 0.97595 0.0
O1154 O 0.51559 0.43526 0.05411 0.0
O1155 O 0.51645 0.43826 0.97067 0.0
O1156 O 0.59022 0.47748 0.0158 0.0
O1157 O 0.58388 0.55937 0.01902 0.0
O1158 O 0.43833 0.46663 0.01426 0.0
O1159 O 0.43199 0.54866 0.01516 0.0
C1160 C 1.00801 0.44915 0.58802 0.0
C1161 C 1.00936 0.44039 0.45295 0.0
C1162 C 1.01085 0.58399 0.57907 0.0
C1163 C 0.01237 0.57511 0.44413 0.0
C1164 C 0.94477 0.58014 0.513 0.0
C1165 C 0.94247 0.44621 0.51776 0.0
C1166 C 0.08151 0.57799 0.5132 0.0
C1167 C 0.07867 0.44307 0.51953 0.0
C1168 C 0.08133 0.50693 0.45007 0.0
C1169 C 0.9451 0.50981 0.44742 0.0
C1170 C 0.07899 0.51375 0.58477 0.0
C1171 C 0.94325 0.51633 0.58298 0.0
Eu1172 Eu 1.01089 0.45895 0.51942 0.0
O1173 O 0.9876 0.48628 0.49249 0.0
O1174 O 0.03571 0.48807 0.54306 0.0
Eu1175 Eu 0.95992 0.51292 0.5154 0.0
Eu1176 Eu 0.0641 0.51094 0.51703 0.0
O1177 O 0.98672 0.48919 0.5422 0.0
O1178 O 0.03632 0.48516 0.49315 0.0
Eu1179 Eu 1.01133 0.51535 0.56919 0.0
Eu1180 Eu 0.0129 0.50884 0.46303 0.0
O1181 O 0.9878 0.53878 0.53899 0.0
O1182 O 0.98835 0.5358 0.48936 0.0
O1183 O 0.03738 0.53498 0.49015 0.0
O1184 O 0.03661 0.53809 0.53982 0.0
Eu1185 Eu 0.01293 0.56519 0.51277 0.0
O1186 O 1.0084 0.43896 0.56209 0.0
O1187 O 1.00977 0.4333 0.47985 0.0
O1188 O 0.01238 0.59093 0.55218 0.0
O1189 O 0.01212 0.58528 0.47007 0.0
O1190 O 0.9369 0.55359 0.51414 0.0
O1191 O 0.93545 0.47299 0.51617 0.0
O1192 O 0.08864 0.55119 0.51518 0.0
O1193 O 0.08694 0.4696 0.51828 0.0
O1194 O 0.05509 0.50688 0.44052 0.0
O1195 O 0.97168 0.50879 0.43898 0.0
O1196 O 0.05249 0.5157 0.59326 0.0
O1197 O 0.9696 0.51672 0.59208 0.0
O1198 O 0.05527 0.58751 0.51199 0.0
O1199 O 0.97125 0.58901 0.51186 0.0
O1200 O 0.05205 0.43471 0.52058 0.0
O1201 O 0.9686 0.43656 0.51958 0.0
O1202 O 1.01058 0.46629 0.44287 0.0
O1203 O 0.01331 0.54823 0.43716 0.0
O1204 O 1.00943 0.47601 0.595 0.0
O1205 O 1.01026 0.55809 0.58924 0.0
O1206 O 0.93567 0.51499 0.55617 0.0
O1207 O 0.93687 0.5114 0.47402 0.0
O1208 O 0.08713 0.51181 0.55822 0.0
O1209 O 0.08853 0.50833 0.47689 0.0
C1210 C 0.51553 0.94275 0.57927 0.0
C1211 C 0.51284 0.94712 0.4443 0.0
C1212 C 0.51764 0.07883 0.5838 0.0
C1213 C 0.51388 0.08334 0.44892 0.0
C1214 C 0.44825 0.08234 0.51675 0.0
C1215 C 0.44561 0.94608 0.51383 0.0
C1216 C 0.583 0.08002 0.51327 0.0
C1217 C 0.58121 0.94416 0.51076 0.0
C1218 C 0.57942 0.01551 0.44372 0.0
C1219 C 0.44535 0.01477 0.44797 0.0
C1220 C 0.58454 1.01196 0.57878 0.0
C1221 C 0.44952 0.0136 0.58399 0.0
Eu1222 Eu 0.51369 0.96071 0.51233 0.0
O1223 O 0.48855 0.98971 0.48918 0.0
O1224 O 0.53984 0.98734 0.53718 0.0
Eu1225 Eu 0.46134 0.01389 0.51556 0.0
Eu1226 Eu 0.56754 0.01227 0.51197 0.0
O1227 O 0.48999 0.98812 0.53882 0.0
O1228 O 0.53824 0.98879 0.48736 0.0
Eu1229 Eu 0.51628 1.01128 0.56701 0.0
Eu1230 Eu 0.51287 0.01471 0.46091 0.0
O1231 O 0.49087 0.03703 0.54036 0.0
O1232 O 0.48925 0.03878 0.49064 0.0
O1233 O 0.53888 0.038 0.48906 0.0
O1234 O 0.54053 0.0363 0.53869 0.0
Eu1235 Eu 0.51536 0.06521 0.51571 0.0
O1236 O 0.51434 0.93578 0.55235 0.0
O1237 O 0.51331 0.93847 0.47075 0.0
O1238 O 0.51716 0.08747 0.55734 0.0
O1239 O 0.51507 0.09017 0.47585 0.0
O1240 O 0.43875 0.05608 0.51635 0.0
O1241 O 0.4373 0.97266 0.51575 0.0
O1242 O 0.59153 0.05349 0.51231 0.0
O1243 O 0.59032 0.97051 0.51042 0.0
O1244 O 0.55274 0.01561 0.43615 0.0
O1245 O 0.47156 0.01542 0.43893 0.0
O1246 O 0.55839 1.01166 0.58829 0.0
O1247 O 0.47616 1.01171 0.5916 0.0
O1248 O 0.55647 0.08819 0.51467 0.0
O1249 O 0.47509 0.08955 0.51688 0.0
O1250 O 0.55443 0.93655 0.51149 0.0
O1251 O 0.47216 0.9378 0.51214 0.0
O1252 O 0.51234 0.97382 0.43622 0.0
O1253 O 0.51259 0.05724 0.43904 0.0
O1254 O 0.5164 0.9689 0.58903 0.0
O1255 O 0.5172 0.05211 0.59186 0.0
O1256 O 0.44005 0.01472 0.55779 0.0
O1257 O 0.43729 0.01403 0.47468 0.0
O1258 O 0.59219 1.01174 0.55204 0.0
O1259 O 0.58895 0.01426 0.46987 0.0
C1260 C 0.10792 0.15667 0.51865 0.0
C1261 C 0.13478 0.15047 0.52832 0.0
H1262 H 0.06749 0.14093 0.50849 0.0
C1263 C 0.1415 0.12283 0.5351 0.0
H1264 H 0.10228 0.17783 0.51324 0.0
C1265 C 0.12182 0.10174 0.53219 0.0
C1266 C 0.0949 0.10784 0.52259 0.0
H1267 H 0.16222 0.11739 0.54214 0.0
H1268 H 0.12774 0.08066 0.53762 0.0
C1269 C 0.08806 0.13556 0.516 0.0
C1270 C 0.90078 0.14697 0.53307 0.0
C1271 C 0.87331 0.13992 0.52591 0.0
H1272 H 0.94309 0.13377 0.53596 0.0
C1273 C 0.8676 0.11311 0.51581 0.0
H1274 H 0.90584 0.16769 0.54043 0.0
C1275 C 0.88902 0.09361 0.51316 0.0
C1276 C 0.91655 0.10073 0.52023 0.0
H1277 H 0.8466 0.10721 0.51011 0.0
H1278 H 0.88399 0.07305 0.50536 0.0
C1279 C 0.92218 0.12763 0.53018 0.0
C1280 C 0.87326 0.91081 0.51236 0.0
C1281 C 0.88 0.88376 0.50373 0.0
H1282 H 0.88804 0.95169 0.52145 0.0
C1283 C 0.90792 0.87712 0.49795 0.0
H1284 H 0.8519 0.91647 0.5169 0.0
C1285 C 0.92873 0.89722 0.50061 0.0
C1286 C 0.92197 0.92441 0.50894 0.0
H1287 H 0.91374 0.85624 0.49169 0.0
H1288 H 0.95002 0.89149 0.49584 0.0
C1289 C 0.894 0.93096 0.51484 0.0
C1290 C 0.11781 0.88288 0.52757 0.0
C1291 C 0.14534 0.89022 0.52089 0.0
H1292 H 0.07544 0.89599 0.53076 0.0
C1293 C 0.15106 0.91737 0.51179 0.0
H1294 H 0.11275 0.86192 0.53419 0.0
C1295 C 0.12964 0.93697 0.50982 0.0
C1296 C 0.10207 0.92961 0.51653 0.0
H1297 H 0.17211 0.92349 0.50648 0.0
H1298 H 0.13469 0.95783 0.50289 0.0
C1299 C 0.09639 0.90232 0.5253 0.0
C1300 C 0.49518 0.12595 0.14491 0.0
C1301 C 0.50352 0.15305 0.13778 0.0
H1302 H 0.49105 0.08363 0.13206 0.0
C1303 C 0.51434 0.15812 0.11107 0.0
H1304 H 0.48723 0.12135 0.16555 0.0
C1305 C 0.51659 0.1364 0.09176 0.0
C1306 C 0.50846 0.10921 0.09905 0.0
H1307 H 0.52098 0.17883 0.10513 0.0
H1308 H 0.52499 0.14087 0.07128 0.0
C1309 C 0.49771 0.10426 0.12582 0.0
C1310 C 0.88134 0.5296 0.1231 0.0
C1311 C 0.88836 0.52161 0.1504 0.0
H1312 H 0.89454 0.53366 0.08078 0.0
C1313 C 0.91511 0.51118 0.15575 0.0
H1314 H 0.86068 0.53726 0.1183 0.0
C1315 C 0.93458 0.50905 0.13419 0.0
C1316 C 0.92751 0.51698 0.10683 0.0
H1317 H 0.921 0.50485 0.17661 0.0
H1318 H 0.9551 0.50101 0.13896 0.0
C1319 C 0.90065 0.52722 0.10154 0.0
C1320 C 0.49017 0.88532 0.12736 0.0
C1321 C 0.49867 0.89188 0.15459 0.0
H1322 H 0.48619 0.89885 0.08519 0.0
C1323 C 0.50974 0.91837 0.16011 0.0
H1324 H 0.48201 0.86488 0.1224 0.0
C1325 C 0.51216 0.93798 0.13867 0.0
C1326 C 0.50401 0.93119 0.11132 0.0
H1327 H 0.51649 0.92388 0.18094 0.0
H1328 H 0.52084 0.95825 0.14343 0.0
C1329 C 0.49289 0.90469 0.10596 0.0
C1330 C 0.12146 0.52451 0.14618 0.0
C1331 C 0.14887 0.51724 0.13902 0.0
H1332 H 0.07925 0.52836 0.13286 0.0
C1333 C 0.15457 0.50781 0.11192 0.0
H1334 H 0.1164 0.53138 0.1671 0.0
C1335 C 0.13321 0.50603 0.0922 0.0
C1336 C 0.10574 0.51327 0.09942 0.0
H1337 H 0.17554 0.50203 0.10594 0.0
H1338 H 0.13822 0.49882 0.07139 0.0
C1339 C 0.10011 0.52245 0.12664 0.0
C1340 C 0.49395 0.90308 0.88662 0.0
C1341 C 0.50129 0.87569 0.89374 0.0
H1342 H 0.49065 0.94539 0.89975 0.0
C1343 C 0.51108 0.87009 0.92074 0.0
H1344 H 0.4868 0.90808 0.86579 0.0
C1345 C 0.51329 0.89156 0.94033 0.0
C1346 C 0.50621 0.91904 0.93304 0.0
H1347 H 0.51694 0.84913 0.92667 0.0
H1348 H 0.52091 0.88671 0.96102 0.0
C1349 C 0.49648 0.92452 0.90599 0.0
C1350 C 0.11108 0.51439 0.87191 0.0
C1351 C 0.13838 0.52276 0.87803 0.0
H1352 H 0.0704 0.50575 0.88789 0.0
C1353 C 0.1457 0.52856 0.90579 0.0
H1354 H 0.10498 0.50976 0.85066 0.0
C1355 C 0.12612 0.52606 0.92708 0.0
C1356 C 0.09873 0.5179 0.92104 0.0
H1357 H 0.16676 0.53459 0.91115 0.0
H1358 H 0.13246 0.53078 0.94824 0.0
C1359 C 0.09135 0.51218 0.89321 0.0
C1360 C 0.51694 0.10871 0.87187 0.0
C1361 C 0.5069 0.13566 0.87708 0.0
H1362 H 0.52655 0.06867 0.88902 0.0
C1363 C 0.49908 0.14302 0.90433 0.0
H1364 H 0.52318 0.10261 0.85104 0.0
C1365 C 0.50127 0.12389 0.92601 0.0
C1366 C 0.51114 0.09685 0.92091 0.0
H1367 H 0.49172 0.16382 0.90901 0.0
H1368 H 0.49498 0.13028 0.94674 0.0
C1369 C 0.51882 0.08936 0.89359 0.0
C1370 C 0.90879 0.52135 0.87743 0.0
C1371 C 0.88168 0.51257 0.8837 0.0
H1372 H 0.9496 0.52975 0.89281 0.0
C1373 C 0.87477 0.5061 0.91146 0.0
H1374 H 0.91465 0.52644 0.85622 0.0
C1375 C 0.89472 0.50806 0.93252 0.0
C1376 C 0.92201 0.51635 0.92618 0.0
H1377 H 0.85384 0.49972 0.91694 0.0
H1378 H 0.88884 0.50262 0.95364 0.0
C1379 C 0.92878 0.52313 0.89843 0.0
C1380 C 0.606 0.65708 0.01772 0.0
C1381 C 0.63268 0.65161 0.02831 0.0
H1382 H 0.56612 0.64029 1.00687 0.0
C1383 C 0.63962 0.62432 0.03617 0.0
H1384 H 0.60021 0.67796 1.01146 0.0
C1385 C 0.62039 0.60282 0.0333 0.0
C1386 C 0.59369 0.60816 0.0227 0.0
H1387 H 0.66021 0.61942 0.04395 0.0
H1388 H 0.6265 0.58202 0.03951 0.0
C1389 C 0.58655 0.63555 0.01515 0.0
C1390 C 0.36717 0.60849 1.01341 0.0
C1391 C 0.37236 0.63485 0.02498 0.0
H1392 H 0.38416 0.56881 1.0021 0.0
C1393 C 0.39937 0.64139 0.03407 0.0
H1394 H 0.34652 0.60301 1.0062 0.0
C1395 C 0.42085 0.62211 0.03149 0.0
C1396 C 0.4158 0.59574 0.01993 0.0
H1397 H 0.40408 0.66173 0.04262 0.0
H1398 H 0.44142 0.62793 0.03869 0.0
C1399 C 0.38868 0.58898 1.01112 0.0
C1400 C 0.41636 0.36888 1.00971 0.0
C1401 C 0.38962 0.37403 0.02033 0.0
H1402 H 0.45624 0.38604 0.99944 0.0
C1403 C 0.38249 0.40116 0.02861 0.0
H1404 H 0.42229 0.34814 1.00311 0.0
C1405 C 0.40161 0.42278 0.02624 0.0
C1406 C 0.42843 0.41775 0.01573 0.0
H1407 H 0.36183 0.40581 0.03641 0.0
H1408 H 0.39538 0.44342 0.03288 0.0
C1409 C 0.43572 0.39054 1.00765 0.0
C1410 C 0.62276 0.38414 0.03004 0.0
C1411 C 0.6501 0.39153 0.02276 0.0
H1412 H 0.58033 0.39685 0.0333 0.0
C1413 C 0.65547 0.41849 1.01284 0.0
H1414 H 0.61796 0.36333 0.03728 0.0
C1415 C 0.63382 0.43782 1.01055 0.0
C1416 C 0.60641 0.4303 0.01768 0.0
H1417 H 0.67638 0.4246 1.007 0.0
H1418 H 0.6385 0.45852 1.00292 0.0
C1419 C 0.60114 0.40326 0.02743 0.0
C1420 C 0.0144 0.65597 0.61133 0.0
C1421 C 1.00376 0.65085 0.6381 0.0
H1422 H 0.02492 0.63879 0.57149 0.0
C1423 C 0.99576 0.62367 0.64534 0.0
H1424 H 0.02078 0.67675 0.60532 0.0
C1425 C 0.99835 0.60198 0.62624 0.0
C1426 C 1.00882 0.60701 0.59937 0.0
H1427 H 0.98795 0.61904 0.66602 0.0
H1428 H 0.99191 0.5813 0.63253 0.0
C1429 C 0.01671 0.63426 0.59203 0.0
C1430 C 0.4159 1.00963 0.65545 0.0
C1431 C 0.38923 0.02013 0.64988 0.0
H1432 H 0.45603 0.99937 0.63897 0.0
C1433 C 0.38244 0.02809 0.62252 0.0
H1434 H 0.4216 1.00331 0.67636 0.0
C1435 C 0.40191 0.02564 0.60112 0.0
C1436 C 0.42871 0.01536 0.60663 0.0
H1437 H 0.36184 0.03581 0.61754 0.0
H1438 H 0.39598 0.03208 0.5803 0.0
C1439 C 0.43556 1.00745 0.63404 0.0
C1440 C 1.00877 0.41665 0.66008 0.0
C1441 C 0.99884 0.38978 0.65432 0.0
H1442 H 0.01938 0.45671 0.6436 0.0
C1443 C 0.99193 0.38269 0.62676 0.0
H1444 H 0.01429 0.42258 0.68117 0.0
C1445 C 0.99505 0.40196 0.60532 0.0
C1446 C 1.00501 0.42886 0.61095 0.0
H1447 H 0.98471 0.36195 0.62162 0.0
H1448 H 0.98954 0.39571 0.58432 0.0
C1449 C 1.01164 0.43613 0.63859 0.0
C1450 C 0.65585 1.00917 0.61249 0.0
C1451 C 0.64979 0.01842 0.63957 0.0
H1452 H 0.63992 0.99992 0.57184 0.0
C1453 C 0.62219 0.02509 0.64658 0.0
H1454 H 0.67698 1.00383 0.60664 0.0
C1455 C 0.60102 0.02262 0.62692 0.0
C1456 C 0.607 0.01361 0.59972 0.0
H1457 H 0.61686 0.0318 0.66749 0.0
H1458 H 0.58 0.02807 0.63304 0.0
C1459 C 0.63466 1.00698 0.59264 0.0
C1460 C 1.00936 0.36868 0.41977 0.0
C1461 C 0.99999 0.37485 0.39274 0.0
H1462 H 0.01958 0.38462 0.46023 0.0
C1463 C 0.99382 0.40256 0.38577 0.0
H1464 H 0.01432 0.34747 0.4256 0.0
C1465 C 0.99706 0.42374 0.4053 0.0
C1466 C 1.0064 0.41771 0.43237 0.0
H1467 H 0.98704 0.40801 0.36492 0.0
H1468 H 0.99208 0.44485 0.39913 0.0
C1469 C 0.01233 0.38992 0.43952 0.0
C1470 C 0.61231 0.01473 0.37192 0.0
C1471 C 0.63951 0.02346 0.37796 0.0
H1472 H 0.57185 1.00539 0.38803 0.0
C1473 C 0.64691 0.02912 0.40573 0.0
H1474 H 0.60615 1.01019 0.35067 0.0
C1475 C 0.6275 0.02618 0.42711 0.0
C1476 C 0.60018 0.0177 0.42114 0.0
H1477 H 0.66792 0.03542 0.411 0.0
H1478 H 0.63388 0.03084 0.44826 0.0
C1479 C 0.59274 1.01205 0.39331 0.0
C1480 C 0.9977 0.64156 0.40485 0.0
C1481 C 1.00621 0.63471 0.37768 0.0
H1482 H 0.99314 0.62828 0.44704 0.0
C1483 C 0.01695 0.60805 0.37237 0.0
H1484 H 0.98978 0.66214 0.40963 0.0
C1485 C 0.01888 0.58849 0.39391 0.0
C1486 C 1.01057 0.59551 0.42117 0.0
H1487 H 0.02372 0.60232 0.3516 0.0
H1488 H 0.02719 0.56804 0.38928 0.0
C1489 C 0.99995 0.62225 0.42636 0.0
C1490 C 0.41017 0.01933 0.37752 0.0
C1491 C 0.38302 1.01074 0.3839 0.0
H1492 H 0.45111 0.02745 0.39272 0.0
C1493 C 0.37623 1.00421 0.41167 0.0
H1494 H 0.41595 0.02445 0.35629 0.0
C1495 C 0.39629 1.006 0.43265 0.0
C1496 C 0.4236 0.01418 0.42621 0.0
H1497 H 0.35528 0.99796 0.41724 0.0
H1498 H 0.39046 1.00059 0.45378 0.0
C1499 C 0.43029 0.02093 0.39842 0.0
C1500 C 1.01036 0.15513 0.4112 0.0
C1501 C 1.00589 0.14692 0.38333 0.0
H1502 H 0.01412 0.14235 0.45404 0.0
C1503 C 1.00209 0.11845 0.37773 0.0
H1504 H 0.01329 0.1769 0.41631 0.0
C1505 C 1.0026 0.09877 0.39917 0.0
C1506 C 1.00687 0.10681 0.42709 0.0
H1507 H 0.99911 0.11119 0.35655 0.0
H1508 H 0.99959 0.07711 0.39366 0.0
C1509 C 1.01068 0.13532 0.43286 0.0
C1510 C 0.87807 0.02093 0.40107 0.0
C1511 C 0.88832 0.0144 0.37426 0.0
H1512 H 0.88741 0.02609 0.44468 0.0
C1513 C 0.91641 1.00671 0.37165 0.0
H1514 H 0.85656 0.02704 0.4039 0.0
C1515 C 0.93395 1.00635 0.39481 0.0
C1516 C 0.92404 0.01351 0.42151 0.0
H1517 H 0.92495 1.00075 0.35161 0.0
H1518 H 0.95547 1.00039 0.39162 0.0
C1519 C 0.89574 0.02044 0.42447 0.0
C1520 C 1.01057 0.8827 0.40235 0.0
C1521 C 0.01428 0.89237 0.37483 0.0
H1522 H 1.00724 0.89308 0.4458 0.0
C1523 C 0.01816 0.92113 0.37077 0.0
H1524 H 1.00724 0.86078 0.40639 0.0
C1525 C 0.01794 0.93964 0.39331 0.0
C1526 C 0.014 0.93009 0.4208 0.0
H1527 H 0.0217 0.92945 0.35009 0.0
H1528 H 0.02099 0.96157 0.38904 0.0
C1529 C 1.01046 0.90129 0.42502 0.0
C1530 C 0.10747 0.03034 0.3753 0.0
C1531 C 0.13501 0.02088 0.37799 0.0
H1532 H 0.06841 0.03802 0.39487 0.0
C1533 C 0.14436 0.01285 0.40471 0.0
H1534 H 0.09964 0.03749 0.35538 0.0
C1535 C 0.12625 0.01338 0.42785 0.0
C1536 C 0.0984 0.02192 0.42472 0.0
H1537 H 0.16544 1.00541 0.40762 0.0
H1538 H 0.13382 1.00636 0.44792 0.0
C1539 C 0.08951 0.0308 0.39818 0.0
C1540 C 0.01877 0.91129 0.65196 0.0
C1541 C 0.01502 0.88283 0.64625 0.0
H1542 H 0.02045 0.95277 0.63626 0.0
C1543 C 1.00956 0.87479 0.61852 0.0
H1544 H 0.02255 0.91838 0.67307 0.0
C1545 C 1.00835 0.89476 0.59705 0.0
C1546 C 0.01218 0.92326 0.60289 0.0
H1547 H 1.00665 0.85303 0.61337 0.0
H1548 H 1.00428 0.88786 0.57594 0.0
C1549 C 0.01733 0.93113 0.63071 0.0
C1550 C 0.14313 0.01986 0.62668 0.0
C1551 C 0.13372 0.0148 0.6541 0.0
H1552 H 0.13243 0.02395 0.58332 0.0
C1553 C 0.10525 1.00915 0.65804 0.0
H1554 H 0.16483 0.02448 0.62275 0.0
C1555 C 0.08672 1.00902 0.63554 0.0
C1556 C 0.09594 0.01441 0.60816 0.0
H1557 H 0.09717 1.00448 0.67859 0.0
H1558 H 0.06504 1.00454 0.63979 0.0
C1559 C 0.12449 0.01966 0.60401 0.0
C1560 C 1.00217 0.10758 0.65998 0.0
C1561 C 1.00819 0.13601 0.65662 0.0
H1562 H 0.99668 0.06792 0.64079 0.0
C1563 C 0.01254 0.14617 0.62937 0.0
H1564 H 0.99803 0.09903 0.68047 0.0
C1565 C 1.01151 0.12817 0.60625 0.0
C1566 C 1.00617 0.09959 0.60984 0.0
H1567 H 0.01739 0.16791 0.62594 0.0
H1568 H 0.01547 0.13658 0.58568 0.0
C1569 C 1.00124 0.08968 0.63704 0.0
C1570 C 0.90768 1.00124 0.65335 0.0
C1571 C 0.87922 1.00564 0.64815 0.0
H1572 H 0.94891 0.99921 0.637 0.0
C1573 C 0.8709 1.01183 0.62067 0.0
H1574 H 0.91498 0.99691 0.67427 0.0
C1575 C 0.89059 0.01316 0.59894 0.0
C1576 C 0.9191 1.0087 0.60427 0.0
H1577 H 0.84914 0.01525 0.61589 0.0
H1578 H 0.88349 0.01787 0.57804 0.0
C1579 C 0.92725 1.00278 0.63184 0.0
C1580 C 0.40368 0.01763 0.15281 0.0
C1581 C 0.37594 0.02219 0.14451 0.0
H1582 H 0.44639 0.01341 0.14025 0.0
C1583 C 0.37044 0.02556 0.11588 0.0
H1584 H 0.40876 0.01509 0.17466 0.0
C1585 C 0.39194 0.02457 0.09615 0.0
C1586 C 0.41975 0.0203 0.10436 0.0
H1587 H 0.34934 0.02868 0.10858 0.0
H1588 H 0.38664 0.02727 0.07437 0.0
C1589 C 0.42531 0.01685 0.13302 0.0
C1590 C 0.01895 0.3701 0.10738 0.0
C1591 C 0.01453 0.37378 0.13614 0.0
H1592 H 0.02237 0.38881 0.0672 0.0
C1593 C 1.01068 0.40112 0.14619 0.0
H1594 H 0.0227 0.34958 0.09881 0.0
C1595 C 1.01078 0.424 0.12788 0.0
C1596 C 0.01464 0.4201 0.09903 0.0
H1597 H 1.00701 0.40484 0.16816 0.0
H1598 H 1.00738 0.44465 0.13628 0.0
C1599 C 0.01891 0.39281 0.08916 0.0
C1600 C 0.64967 1.007 0.11791 0.0
C1601 C 0.64458 0.01248 0.14624 0.0
H1602 H 0.63326 1.00359 0.07679 0.0
C1603 C 0.61728 0.01945 0.15443 0.0
H1604 H 0.67048 1.00206 0.11071 0.0
C1605 C 0.59557 0.02036 0.13473 0.0
C1606 C 0.60077 0.01467 0.10637 0.0
H1607 H 0.61263 0.02373 0.1761 0.0
H1608 H 0.57478 0.02555 0.14174 0.0
C1609 C 0.6282 1.0081 0.09833 0.0
C1610 C 0.0248 0.651 0.11806 0.0
C1611 C 0.02022 0.64534 0.14646 0.0
H1612 H 0.02733 0.63532 0.0765 0.0
C1613 C 0.01427 0.61769 0.15429 0.0
H1614 H 0.02897 0.67204 0.11109 0.0
C1615 C 0.01334 0.59628 0.13421 0.0
C1616 C 0.01796 0.60208 0.10576 0.0
H1617 H 1.01073 0.61253 0.17598 0.0
H1618 H 1.00881 0.57525 0.14097 0.0
C1619 C 0.02364 0.6298 0.09808 0.0
C1620 C 0.37264 1.00638 0.91373 0.0
C1621 C 0.37849 1.00902 0.8851 0.0
H1622 H 0.38829 1.00521 0.95541 0.0
C1623 C 0.40643 0.01291 0.877 0.0
H1624 H 0.35141 1.0038 0.92089 0.0
C1625 C 0.42789 0.01369 0.89702 0.0
C1626 C 0.42193 1.01097 0.92568 0.0
H1627 H 0.41178 0.0149 0.85516 0.0
H1628 H 0.44913 0.01655 0.88999 0.0
C1629 C 0.39393 1.0074 0.93365 0.0
C1630 C 1.00879 0.41003 0.87409 0.0
C1631 C 0.01459 0.3825 0.88236 0.0
H1632 H 1.00329 0.45264 0.88687 0.0
C1633 C 0.01849 0.37706 0.91088 0.0
H1634 H 1.00573 0.41494 0.85227 0.0
C1635 C 0.017 0.39842 0.93057 0.0
C1636 C 1.01163 0.42609 0.92248 0.0
H1637 H 0.02251 0.35609 0.91812 0.0
H1638 H 0.02034 0.39308 0.95225 0.0
C1639 C 1.00752 0.43165 0.89392 0.0
C1640 C 0.62386 0.01296 0.88348 0.0
C1641 C 0.65081 1.00668 0.89335 0.0
H1642 H 0.58051 0.01829 0.89349 0.0
C1643 C 0.65388 0.99959 0.92162 0.0
H1644 H 0.62063 0.01865 0.86188 0.0
C1645 C 0.63103 0.99955 0.93965 0.0
C1646 C 0.6042 1.00645 0.93006 0.0
H1647 H 0.67404 0.99388 0.92994 0.0
H1648 H 0.63457 0.9941 0.96128 0.0
C1649 C 0.60081 0.0128 0.90162 0.0
C1650 C 0.01853 0.65824 0.92026 0.0
C1651 C 1.01183 0.65486 0.89192 0.0
H1652 H 0.02425 0.63926 0.96001 0.0
C1653 C 1.00606 0.62776 0.88216 0.0
H1654 H 0.02378 0.67855 0.92853 0.0
C1655 C 1.0066 0.60481 0.90038 0.0
C1656 C 0.01286 0.60842 0.92883 0.0
H1657 H 1.00064 0.62429 0.86052 0.0
H1658 H 1.00173 0.58436 0.89224 0.0
C1659 C 0.01897 0.63548 0.93838 0.0
C1660 C 0.10636 0.37047 1.00263 0.0
C1661 C 0.13478 0.37377 1.00878 0.0
H1662 H 0.06657 0.38957 0.99781 0.0
C1663 C 0.1447 0.40086 0.01432 0.0
H1664 H 0.09795 0.35018 0.99754 0.0
C1665 C 0.12655 0.42384 0.0142 0.0
C1666 C 0.098 0.42029 1.00861 0.0
H1667 H 0.16641 0.40427 0.01934 0.0
H1668 H 0.1348 0.44427 0.01899 0.0
C1669 C 0.08829 0.39327 1.00261 0.0
C1670 C 0.11564 0.65164 1.00667 0.0
C1671 C 0.14417 0.64594 1.00981 0.0
H1672 H 0.07421 0.63584 1.0052 0.0
C1673 C 0.15241 0.61818 0.01439 0.0
H1674 H 0.10843 0.67278 1.00357 0.0
C1675 C 0.13255 0.59664 0.01535 0.0
C1676 C 0.10398 0.60247 1.01211 0.0
H1677 H 0.17422 0.61305 0.01682 0.0
H1678 H 0.13958 0.57549 0.01874 0.0
C1679 C 0.09591 0.63033 1.00783 0.0
C1680 C 0.40739 0.1537 1.01141 0.0
C1681 C 0.3798 0.14546 1.00579 0.0
H1682 H 0.44994 0.14091 0.01712 0.0
C1683 C 0.37433 0.11696 1.00204 0.0
H1684 H 0.41236 0.1755 0.01433 0.0
C1685 C 0.39566 0.09726 1.00368 0.0
C1686 C 0.42333 0.10533 1.00907 0.0
H1687 H 0.35333 0.10971 0.99814 0.0
H1688 H 0.39029 0.07558 1.00062 0.0
C1689 C 0.42895 0.13388 1.01285 0.0
C1690 C 0.90955 0.37668 1.00566 0.0
C1691 C 0.8812 0.38205 1.01062 0.0
H1692 H 0.95086 0.3927 1.00272 0.0
C1693 C 0.87326 0.40957 0.01706 0.0
H1694 H 0.91663 0.35575 1.00112 0.0
C1695 C 0.89315 0.43114 0.01799 0.0
C1696 C 0.92153 0.42565 1.01286 0.0
H1697 H 0.85161 0.41452 0.02092 0.0
H1698 H 0.88627 0.45207 0.02279 0.0
C1699 C 0.92933 0.39802 1.00679 0.0
C1700 C 0.61526 0.87409 0.0232 0.0
C1701 C 0.64286 0.88198 0.01709 0.0
H1702 H 0.57276 0.88724 0.02862 0.0
C1703 C 0.64843 0.91036 1.01256 0.0
H1704 H 0.61018 0.85241 0.02673 0.0
C1705 C 0.62718 0.93021 0.01374 0.0
C1706 C 0.59946 0.92247 0.01941 0.0
H1707 H 0.66944 0.91737 1.00829 0.0
H1708 H 0.63265 0.95175 1.00993 0.0
C1709 C 0.59377 0.89407 0.02416 0.0
C1710 C 0.87985 0.62628 0.02192 0.0
C1711 C 0.8895 0.6538 0.01835 0.0
H1712 H 0.89027 0.58282 0.02441 0.0
C1713 C 0.91816 0.65787 0.01393 0.0
H1714 H 0.85799 0.62223 0.0256 0.0
C1715 C 0.93663 0.63536 1.01348 0.0
C1716 C 0.92714 0.60787 0.01726 0.0
H1717 H 0.92645 0.67853 1.01043 0.0
H1718 H 0.95848 0.63967 1.00994 0.0
C1719 C 0.89842 0.60361 0.02135 0.0
C1720 C 0.36767 0.91989 1.01217 0.0
C1721 C 0.37127 0.8916 0.01872 0.0
H1722 H 0.38635 0.95978 1.00679 0.0
C1723 C 0.39838 0.88208 0.02474 0.0
H1724 H 0.34734 0.92797 1.00675 0.0
C1725 C 0.42115 0.90049 0.02452 0.0
C1726 C 0.41733 0.92887 0.01832 0.0
H1727 H 0.40199 0.86048 0.03008 0.0
H1728 H 0.44163 0.89252 0.02951 0.0
C1729 C 0.39026 0.9382 1.01204 0.0
C1730 C 0.65571 0.10743 1.00903 0.0
C1731 C 0.65191 0.13626 1.01252 0.0
H1732 H 0.63714 0.06717 1.00633 0.0
C1733 C 0.62445 0.14628 0.01554 0.0
H1734 H 0.67632 0.09883 1.00594 0.0
C1735 C 0.6016 0.12791 0.01546 0.0
C1736 C 0.6056 0.09903 1.01244 0.0
H1737 H 0.62059 0.16828 0.01851 0.0
H1738 H 0.58087 0.13635 0.01819 0.0
C1739 C 0.63302 0.08917 1.00907 0.0
C1740 C 0.51765 0.61679 0.8781 0.0
C1741 C 0.51263 0.64509 0.88364 0.0
H1742 H 0.52037 0.57541 0.89389 0.0
C1743 C 0.50572 0.65288 0.91112 0.0
H1744 H 0.52254 0.60987 0.85716 0.0
C1745 C 0.50444 0.63287 0.93256 0.0
C1746 C 0.50967 0.60454 0.92692 0.0
H1747 H 0.5018 0.67451 0.91616 0.0
H1748 H 0.49935 0.6396 0.9535 0.0
C1749 C 0.51616 0.5969 0.8993 0.0
C1750 C 0.4175 0.50258 0.87177 0.0
C1751 C 0.38918 0.50931 0.87476 0.0
H1752 H 0.45697 0.49727 0.89132 0.0
C1753 C 0.37901 0.51508 0.90176 0.0
H1754 H 0.42604 0.49724 0.85156 0.0
C1755 C 0.39691 0.51478 0.92498 0.0
C1756 C 0.42539 0.50883 0.92166 0.0
H1757 H 0.35735 0.52047 0.90491 0.0
H1758 H 0.38857 0.51985 0.94535 0.0
C1759 C 0.43528 0.50244 0.89476 0.0
C1760 C 0.52188 0.41959 0.87067 0.0
C1761 C 0.51771 0.39085 0.87442 0.0
H1762 H 0.52493 0.4598 0.88934 0.0
C1763 C 0.51385 0.3809 0.90183 0.0
H1764 H 0.5256 0.4281 0.8501 0.0
C1765 C 0.51378 0.39926 0.9247 0.0
C1766 C 0.51749 0.42807 0.92076 0.0
H1767 H 0.51033 0.35897 0.90562 0.0
H1768 H 0.51037 0.3909 0.94539 0.0
C1769 C 0.5217 0.43786 0.89339 0.0
C1770 C 0.64512 0.51222 0.90373 0.0
C1771 C 0.63562 0.52099 0.87729 0.0
H1772 H 0.63492 0.50499 0.94691 0.0
C1773 C 0.60829 0.53119 0.87516 0.0
H1774 H 0.66604 0.50421 0.90621 0.0
C1775 C 0.59062 0.53154 0.89828 0.0
C1776 C 0.59962 0.52183 0.92447 0.0
H1777 H 0.60038 0.53892 0.85549 0.0
H1778 H 0.56962 0.53926 0.89543 0.0
C1779 C 0.62732 0.51268 0.9271 0.0
C1780 C 0.52242 0.41038 0.1525 0.0
C1781 C 0.51925 0.38181 0.14701 0.0
H1782 H 0.52355 0.45173 0.13644 0.0
C1783 C 0.51435 0.3734 0.11929 0.0
H1784 H 0.52576 0.41773 0.17359 0.0
C1785 C 0.51306 0.39314 0.09761 0.0
C1786 C 0.51625 0.42176 0.10325 0.0
H1787 H 0.51189 0.35155 0.1143 0.0
H1788 H 0.50937 0.38599 0.07651 0.0
C1789 C 0.52092 0.42999 0.13106 0.0
C1790 C 0.64428 0.52025 0.12722 0.0
C1791 C 0.63472 0.51477 0.15451 0.0
H1792 H 0.63387 0.52457 0.08379 0.0
C1793 C 0.60633 0.50863 0.15815 0.0
H1794 H 0.66595 0.52524 0.12353 0.0
C1795 C 0.58801 0.50841 0.13551 0.0
C1796 C 0.59736 0.5142 0.10826 0.0
H1797 H 0.59815 0.50361 0.17859 0.0
H1798 H 0.56637 0.50352 0.13956 0.0
C1799 C 0.62584 0.51997 0.10439 0.0
C1800 C 0.50112 0.64476 0.12816 0.0
C1801 C 0.50629 0.63507 0.15543 0.0
H1802 H 0.49714 0.63451 0.08471 0.0
C1803 C 0.51195 0.6066 0.15914 0.0
H1804 H 0.49646 0.6665 0.12445 0.0
C1805 C 0.51211 0.58831 0.13649 0.0
C1806 C 0.50677 0.59784 0.10923 0.0
H1807 H 0.51669 0.59836 0.17961 0.0
H1808 H 0.51669 0.5666 0.14049 0.0
C1809 C 0.50139 0.62638 0.10533 0.0
C1810 C 0.37243 0.50804 0.12026 0.0
C1811 C 0.38069 0.50267 0.14793 0.0
H1812 H 0.38511 0.51335 0.07758 0.0
C1813 C 0.40922 0.49896 0.15337 0.0
H1814 H 0.35063 0.5109 0.11528 0.0
C1815 C 0.4289 0.5004 0.13193 0.0
C1816 C 0.42077 0.50551 0.10419 0.0
H1817 H 0.41648 0.49525 0.17443 0.0
H1818 H 0.45059 0.49739 0.13725 0.0
C1819 C 0.39221 0.50927 0.09862 0.0
C1820 C 0.90399 0.51523 0.65253 0.0
C1821 C 0.87632 0.51987 0.64403 0.0
H1822 H 0.94677 0.51075 0.64025 0.0
C1823 C 0.87102 0.52311 0.61534 0.0
H1824 H 0.90891 0.51279 0.67443 0.0
C1825 C 0.89264 0.5219 0.59576 0.0
C1826 C 0.92038 0.51753 0.60418 0.0
H1827 H 0.84999 0.5263 0.60788 0.0
H1828 H 0.8875 0.52455 0.57393 0.0
C1829 C 0.92575 0.51423 0.63289 0.0
C1830 C 0.51969 0.86919 0.60842 0.0
C1831 C 0.51491 0.87316 0.63709 0.0
H1832 H 0.52382 0.88754 0.56812 0.0
C1833 C 0.51104 0.90061 0.64683 0.0
H1834 H 0.52346 0.84858 0.6001 0.0
C1835 C 0.51155 0.92331 0.62831 0.0
C1836 C 0.51584 0.91915 0.59957 0.0
H1837 H 0.50709 0.90455 0.6687 0.0
H1838 H 0.50814 0.94405 0.63649 0.0
C1839 C 0.52007 0.89174 0.59 0.0
C1840 C 0.11783 0.51683 0.65446 0.0
C1841 C 0.14525 0.51052 0.6462 0.0
H1842 H 0.07527 0.52256 0.64179 0.0
C1843 C 0.15055 0.50596 0.61774 0.0
H1844 H 0.11301 0.5204 0.67623 0.0
C1845 C 0.12913 0.50727 0.5981 0.0
C1846 C 0.10156 0.51311 0.60622 0.0
H1847 H 0.17146 0.50155 0.6105 0.0
H1848 H 0.13434 0.50345 0.57646 0.0
C1849 C 0.09618 0.51794 0.63471 0.0
C1850 C 0.5158 0.11697 0.65406 0.0
C1851 C 0.52163 0.14458 0.64601 0.0
H1852 H 0.51028 0.07445 0.64102 0.0
C1853 C 0.52589 0.1501 0.61753 0.0
H1854 H 0.5125 0.11194 0.67582 0.0
C1855 C 0.52456 0.1288 0.5977 0.0
C1856 C 0.51901 0.10111 0.60559 0.0
H1857 H 0.52996 0.1711 0.61041 0.0
H1858 H 0.52803 0.13422 0.57605 0.0
C1859 C 0.51469 0.09545 0.63411 0.0
C1860 C 0.87332 0.50387 0.41403 0.0
C1861 C 0.87899 0.5072 0.38543 0.0
H1862 H 0.88921 0.50206 0.45559 0.0
C1863 C 0.90682 0.51163 0.37727 0.0
H1864 H 0.85217 0.50086 0.42125 0.0
C1865 C 0.92837 0.51231 0.39718 0.0
C1866 C 0.92259 0.50894 0.42581 0.0
H1867 H 0.91202 0.51415 0.35544 0.0
H1868 H 0.94953 0.51562 0.39012 0.0
C1869 C 0.89469 0.50478 0.43385 0.0
C1870 C 0.50966 0.90907 0.37415 0.0
C1871 C 0.51527 0.88143 0.38219 0.0
H1872 H 0.50476 0.95165 0.38722 0.0
C1873 C 0.5196 0.87581 0.41061 0.0
H1874 H 0.50628 0.91413 0.35241 0.0
C1875 C 0.51866 0.89708 0.43043 0.0
C1876 C 0.51342 0.92483 0.42256 0.0
H1877 H 0.52348 0.85475 0.41768 0.0
H1878 H 0.52224 0.8916 0.45204 0.0
C1879 C 0.50892 0.93058 0.3941 0.0
C1880 C 0.12417 0.51103 0.3829 0.0
C1881 C 0.15129 0.50553 0.39276 0.0
H1882 H 0.08078 0.51582 0.39301 0.0
C1883 C 0.15466 0.49941 0.42123 0.0
H1884 H 0.12071 0.51598 0.36115 0.0
C1885 C 0.13192 0.4995 0.4394 0.0
C1886 C 0.10489 0.50556 0.42978 0.0
H1887 H 0.17496 0.49432 0.42959 0.0
H1888 H 0.13569 0.49476 0.46116 0.0
C1889 C 0.10123 0.511 0.40118 0.0
C1890 C 0.50781 0.12661 0.3822 0.0
C1891 C 0.51345 0.15368 0.39212 0.0
H1892 H 0.50342 0.08316 0.3921 0.0
C1893 C 0.51985 0.15698 0.42053 0.0
H1894 H 0.50264 0.12322 0.36049 0.0
C1895 C 0.52011 0.13417 0.43857 0.0
C1896 C 0.51412 0.10713 0.42888 0.0
H1897 H 0.52501 0.17726 0.42892 0.0
H1898 H 0.52518 0.1379 0.46026 0.0
C1899 C 0.50817 0.1036 0.40035 0.0
C1900 C 0.61369 0.87194 0.5159 0.0
C1901 C 0.64224 0.87733 0.51213 0.0
H1902 H 0.57239 0.88828 0.51833 0.0
C1903 C 0.6506 0.90501 0.50732 0.0
H1904 H 0.60635 0.85088 0.51919 0.0
C1905 C 0.63095 0.92673 0.50681 0.0
C1906 C 0.60238 0.92128 0.5108 0.0
H1907 H 0.6724 0.90998 0.50446 0.0
H1908 H 0.6382 0.94779 0.50333 0.0
C1909 C 0.5941 0.89351 0.51519 0.0
C1910 C 0.65244 0.11915 0.51474 0.0
C1911 C 0.64377 0.14679 0.51019 0.0
H1912 H 0.64028 0.07626 0.51899 0.0
C1913 C 0.61517 0.15204 0.50698 0.0
H1914 H 0.67433 0.11437 0.51721 0.0
C1915 C 0.59578 0.13041 0.50807 0.0
C1916 C 0.60428 0.10268 0.51232 0.0
H1917 H 0.60763 0.17307 0.50391 0.0
H1918 H 0.574 0.13559 0.50539 0.0
C1919 C 0.63292 0.0973 0.51561 0.0
C1920 C 0.90113 0.646 0.5023 0.0
C1921 C 0.87457 0.63679 0.51091 0.0
H1922 H 0.94434 0.63549 0.49609 0.0
C1923 C 0.8721 0.6097 0.5216 0.0
H1924 H 0.90384 0.66676 0.49396 0.0
C1925 C 0.89505 0.59198 0.52275 0.0
C1926 C 0.92144 0.60065 0.51332 0.0
H1927 H 0.8523 0.60207 0.52924 0.0
H1928 H 0.89191 0.57124 0.53103 0.0
C1929 C 0.92436 0.6281 0.50351 0.0
C1930 C 0.37534 0.9082 0.51749 0.0
C1931 C 0.38291 0.88054 0.51127 0.0
H1932 H 0.3888 0.95055 0.52292 0.0
C1933 C 0.41123 0.8748 0.50636 0.0
H1934 H 0.35375 0.91348 0.52126 0.0
C1935 C 0.43131 0.89594 0.50738 0.0
C1936 C 0.42382 0.9237 0.51323 0.0
H1937 H 0.41804 0.85376 0.50197 0.0
H1938 H 0.45279 0.8904 0.50339 0.0
C1939 C 0.39548 0.92952 0.51829 0.0
C1940 C 0.11732 0.37322 0.52275 0.0
C1941 C 0.14492 0.38131 0.51689 0.0
H1942 H 0.07471 0.38605 0.52793 0.0
C1943 C 0.15033 0.40976 0.51254 0.0
H1944 H 0.11234 0.3515 0.52612 0.0
C1945 C 0.12893 0.42948 0.51366 0.0
C1946 C 0.10122 0.42152 0.51908 0.0
H1947 H 0.17132 0.41693 0.50845 0.0
H1948 H 0.13426 0.45108 0.51 0.0
C1949 C 0.09571 0.39305 0.52366 0.0
C1950 C 0.38069 0.12449 0.52195 0.0
C1951 C 0.39037 0.15196 0.51805 0.0
H1952 H 0.39107 0.08099 0.52473 0.0
C1953 C 0.41896 0.1559 0.51316 0.0
H1954 H 0.35886 0.12055 0.52596 0.0
C1955 C 0.43735 0.13335 0.51266 0.0
C1956 C 0.42787 0.10591 0.51688 0.0
H1957 H 0.42726 0.1765 0.50934 0.0
H1958 H 0.45915 0.13761 0.50877 0.0
C1959 C 0.3992 0.10175 0.52135 0.0
C1960 C 0.86927 0.41791 0.50894 0.0
C1961 C 0.87169 0.39026 0.51813 0.0
H1962 H 0.88927 0.45671 0.50131 0.0
C1963 C 0.8982 0.38056 0.52625 0.0
H1964 H 0.84949 0.426 0.50176 0.0
C1965 C 0.92149 0.39835 0.52577 0.0
C1966 C 0.91872 0.42622 0.51723 0.0
H1967 H 0.90087 0.35939 0.53353 0.0
H1968 H 0.94147 0.39043 0.53261 0.0
C1969 C 0.89231 0.43557 0.50855 0.0
C1970 C 0.12346 0.64588 0.51541 0.0
C1971 C 0.15105 0.63614 0.51263 0.0
H1972 H 0.07995 0.63551 0.51784 0.0
C1973 C 0.15514 0.60733 0.50928 0.0
H1974 H 0.11936 0.66787 0.51823 0.0
C1975 C 0.13263 0.58883 0.50926 0.0
C1976 C 0.10508 0.59841 0.51243 0.0
H1977 H 0.17585 0.59892 0.50637 0.0
H1978 H 0.137 0.56687 0.50666 0.0
C1979 C 0.10079 0.62728 0.51528 0.0
loop_
_geom_bond_atom_site_label_1
_geom_bond_atom_site_label_2
_geom_bond_distance
_geom_bond_site_symmetry_2
_ccdc_geom_bond_type
C0 C1 1.264 . S
C0 C5 1.479 . S
C0 C10 1.465 . S
C1 C0 1.264 . S
C1 C3 1.339 . S
C1 H28 0.931 . S
C2 C3 1.395 . S
C2 C4 1.320 . S
C3 C1 1.339 . S
C3 C2 1.395 . S
C3 H29 0.929 . S
C4 C2 1.320 . S
C4 C5 1.405 . S
C4 H30 0.930 1_655 S
C5 C0 1.479 . S
C5 C4 1.405 . S
C5 H31 0.931 . S
U6 O7 2.454 . S
U6 O8 2.458 . S
U6 C9 2.984 . S
U6 C10 2.847 . S
U6 C23 2.882 . S
U6 O24 2.441 . S
U6 O25 2.420 . S
U6 O26 2.455 . S
U6 O27 2.449 . S
O7 U6 2.454 . S
O7 C9 1.353 . S
O8 U6 2.458 . S
O8 C9 1.286 . S
C9 U6 2.984 . S
C9 O7 1.353 . S
C9 O8 1.286 . S
C9 C11 1.363 . S
C10 C0 1.465 . S
C10 U6 2.847 . S
C10 O24 1.249 . S
C10 O25 1.202 . S
C11 C9 1.363 . S
C11 C13 1.408 . S
C11 C16 1.345 . S
C12 C13 1.315 . S
C12 C15 1.458 1_655 S
C12 H32 0.931 . S
C13 C11 1.408 . S
C13 C12 1.315 . S
C13 H33 0.930 . S
C14 C15 1.475 . S
C14 C16 1.284 1_455 S
C14 H34 0.929 . S
C15 C12 1.458 1_455 S
C15 C14 1.475 . S
C16 C11 1.345 . S
C16 C14 1.284 1_655 S
C16 H35 0.929 1_655 S
C17 C20 1.424 . S
C17 C22 1.245 . S
C17 C23 1.428 . S
C18 C21 1.260 . S
C18 C22 1.477 . S
C18 H36 0.932 . S
C19 C20 1.384 . S
C19 C21 1.479 . S
C19 H37 0.929 . S
C20 C17 1.424 . S
C20 C19 1.384 . S
C20 H38 0.928 . S
C21 C18 1.260 . S
C21 C19 1.479 . S
C22 C17 1.245 . S
C22 C18 1.477 . S
C22 H39 0.932 . S
C23 U6 2.882 . S
C23 C17 1.428 . S
C23 O26 1.301 . S
C23 O27 1.282 . S
O24 U6 2.441 . S
O24 C10 1.249 . S
O25 U6 2.420 . S
O25 C10 1.202 . S
O26 U6 2.455 . S
O26 C23 1.301 . S
O27 U6 2.449 . S
O27 C23 1.282 . S
H28 C1 0.931 . S
H29 C3 0.929 . S
H30 C4 0.930 1_455 S
H31 C5 0.931 . S
H32 C12 0.931 . S
H33 C13 0.930 . S
H34 C14 0.929 . S
H35 C16 0.929 1_455 S
H36 C18 0.932 . S
H37 C19 0.929 . S
H38 C20 0.928 . S
H39 C22 0.932 . S
C40 C41 1.264 . S
C40 C45 1.479 . S
C40 C50 1.465 . S
C41 C40 1.264 . S
C41 C43 1.339 . S
C41 H68 0.931 . S
C42 C43 1.395 . S
C42 C44 1.320 . S
C43 C41 1.339 . S
C43 C42 1.395 . S
C43 H69 0.929 . S
C44 C42 1.320 . S
C44 C45 1.405 . S
C44 H70 0.927 1_545 S
C45 C40 1.479 . S
C45 C44 1.405 . S
C45 H71 0.931 . S
U46 O47 2.454 . S
U46 O48 2.458 . S
U46 C49 2.984 . S
U46 C50 2.847 . S
U46 C63 2.882 . S
U46 O64 2.441 . S
U46 O65 2.420 . S
U46 O66 2.455 . S
U46 O67 2.449 . S
O47 U46 2.454 . S
O47 C49 1.353 . S
O48 U46 2.458 . S
O48 C49 1.286 . S
C49 U46 2.984 . S
C49 O47 1.353 . S
C49 O48 1.286 . S
C49 C51 1.363 . S
C50 C40 1.465 . S
C50 U46 2.847 . S
C50 O64 1.249 . S
C50 O65 1.202 . S
C51 C49 1.363 . S
C51 C53 1.408 . S
C51 C56 1.342 . S
C52 C53 1.310 . S
C52 C55 1.461 . S
C52 H72 0.932 . S
C53 C51 1.408 . S
C53 C52 1.310 . S
C53 H73 0.930 . S
C54 C55 1.475 . S
C54 C56 1.287 . S
C54 H74 0.928 1_545 S
C55 C52 1.461 . S
C55 C54 1.475 . S
C56 C51 1.342 . S
C56 C54 1.287 . S
C56 H75 0.930 . S
C57 C60 1.424 . S
C57 C62 1.245 . S
C57 C63 1.428 . S
C58 C61 1.260 . S
C58 C62 1.477 . S
C58 H76 0.932 . S
C59 C60 1.384 . S
C59 C61 1.479 . S
C59 H77 0.929 . S
C60 C57 1.424 . S
C60 C59 1.384 . S
C60 H78 0.928 . S
C61 C58 1.260 . S
C61 C59 1.479 . S
C62 C57 1.245 . S
C62 C58 1.477 . S
C62 H79 0.932 . S
C63 U46 2.882 . S
C63 C57 1.428 . S
C63 O66 1.301 . S
C63 O67 1.282 . S
O64 U46 2.441 . S
O64 C50 1.249 . S
O65 U46 2.420 . S
O65 C50 1.202 . S
O66 U46 2.455 . S
O66 C63 1.301 . S
O67 U46 2.449 . S
O67 C63 1.282 . S
H68 C41 0.931 . S
H69 C43 0.929 . S
H70 C44 0.927 1_565 S
H71 C45 0.931 . S
H72 C52 0.932 . S
H73 C53 0.930 . S
H74 C54 0.928 1_565 S
H75 C56 0.930 . S
H76 C58 0.932 . S
H77 C59 0.929 . S
H78 C60 0.928 . S
H79 C62 0.932 . S
C80 C81 1.264 . S
C80 C85 1.479 . S
C80 C90 1.465 . S
C81 C80 1.264 . S
C81 C83 1.339 . S
C81 H108 0.931 . S
C82 C83 1.395 . S
C82 C84 1.320 . S
C83 C81 1.339 . S
C83 C82 1.395 . S
C83 H109 0.929 . S
C84 C82 1.320 . S
C84 C85 1.405 . S
C84 H110 0.930 1_655 S
C85 C80 1.479 . S
C85 C84 1.405 . S
C85 H111 0.931 . S
U86 O87 2.454 . S
U86 O88 2.458 . S
U86 C89 2.984 . S
U86 C90 2.847 . S
U86 C103 2.882 . S
U86 O104 2.441 . S
U86 O105 2.420 . S
U86 O106 2.455 . S
U86 O107 2.449 . S
O87 U86 2.454 . S
O87 C89 1.353 . S
O88 U86 2.458 . S
O88 C89 1.286 . S
C89 U86 2.984 . S
C89 O87 1.353 . S
C89 O88 1.286 . S
C89 C91 1.363 . S
C90 C80 1.465 . S
C90 U86 2.847 . S
C90 O104 1.249 . S
C90 O105 1.202 . S
C91 C89 1.363 . S
C91 C93 1.408 . S
C91 C96 1.348 . S
C92 C93 1.310 . S
C92 C95 1.460 1_655 S
C92 H112 0.933 . S
C93 C91 1.408 . S
C93 C92 1.310 . S
C93 H113 0.930 . S
C94 C95 1.475 . S
C94 C96 1.283 1_455 S
C94 H114 0.929 . S
C95 C92 1.460 1_455 S
C95 C94 1.475 . S
C96 C91 1.348 . S
C96 C94 1.283 1_655 S
C96 H115 0.929 . S
C97 C100 1.424 . S
C97 C102 1.245 . S
C97 C103 1.428 . S
C98 C101 1.260 . S
C98 C102 1.477 . S
C98 H116 0.932 . S
C99 C100 1.384 . S
C99 C101 1.479 . S
C99 H117 0.929 . S
C100 C97 1.424 . S
C100 C99 1.384 . S
C100 H118 0.928 . S
C101 C98 1.260 . S
C101 C99 1.479 . S
C102 C97 1.245 . S
C102 C98 1.477 . S
C102 H119 0.932 . S
C103 U86 2.882 . S
C103 C97 1.428 . S
C103 O106 1.301 . S
C103 O107 1.282 . S
O104 U86 2.441 . S
O104 C90 1.249 . S
O105 U86 2.420 . S
O105 C90 1.202 . S
O106 U86 2.455 . S
O106 C103 1.301 . S
O107 U86 2.449 . S
O107 C103 1.282 . S
H108 C81 0.931 . S
H109 C83 0.929 . S
H110 C84 0.930 1_455 S
H111 C85 0.931 . S
H112 C92 0.933 . S
H113 C93 0.930 . S
H114 C94 0.929 . S
H115 C96 0.929 . S
H116 C98 0.932 . S
H117 C99 0.929 . S
H118 C100 0.928 . S
H119 C102 0.932 . S
C120 C121 1.264 . S
C120 C125 1.479 . S
C120 C130 1.465 . S
C121 C120 1.264 . S
C121 C123 1.339 . S
C121 H148 0.931 . S
C122 C123 1.395 . S
C122 C124 1.320 . S
C123 C121 1.339 . S
C123 C122 1.395 . S
C123 H149 0.929 . S
C124 C122 1.320 . S
C124 C125 1.405 . S
C124 H150 0.930 1_565 S
C125 C120 1.479 . S
C125 C124 1.405 . S
C125 H151 0.931 . S
U126 O127 2.454 . S
U126 O128 2.458 . S
U126 C129 2.984 . S
U126 C130 2.847 . S
U126 C143 2.882 . S
U126 O144 2.441 . S
U126 O145 2.420 . S
U126 O146 2.455 . S
U126 O147 2.449 . S
O127 U126 2.454 . S
O127 C129 1.353 . S
O128 U126 2.458 . S
O128 C129 1.286 . S
C129 U126 2.984 . S
C129 O127 1.353 . S
C129 O128 1.286 . S
C129 C131 1.363 . S
C130 C120 1.465 . S
C130 U126 2.847 . S
C130 O144 1.249 . S
C130 O145 1.202 . S
C131 C129 1.363 . S
C131 C133 1.408 . S
C131 C136 1.342 . S
C132 C133 1.310 . S
C132 C135 1.460 1_565 S
C132 H152 0.932 . S
C133 C131 1.408 . S
C133 C132 1.310 . S
C133 H153 0.930 . S
C134 C135 1.474 . S
C134 C136 1.283 1_545 S
C134 H154 0.934 . S
C135 C132 1.460 1_545 S
C135 C134 1.474 . S
C136 C131 1.342 . S
C136 C134 1.283 1_565 S
C136 H155 0.931 . S
C137 C140 1.424 . S
C137 C142 1.245 . S
C137 C143 1.428 . S
C138 C141 1.260 . S
C138 C142 1.477 . S
C138 H156 0.932 . S
C139 C140 1.384 . S
C139 C141 1.479 . S
C139 H157 0.929 . S
C140 C137 1.424 . S
C140 C139 1.384 . S
C140 H158 0.928 . S
C141 C138 1.260 . S
C141 C139 1.479 . S
C142 C137 1.245 . S
C142 C138 1.477 . S
C142 H159 0.932 . S
C143 U126 2.882 . S
C143 C137 1.428 . S
C143 O146 1.301 . S
C143 O147 1.282 . S
O144 U126 2.441 . S
O144 C130 1.249 . S
O145 U126 2.420 . S
O145 C130 1.202 . S
O146 U126 2.455 . S
O146 C143 1.301 . S
O147 U126 2.449 . S
O147 C143 1.282 . S
H148 C121 0.931 . S
H149 C123 0.929 . S
H150 C124 0.930 1_545 S
H151 C125 0.931 . S
H152 C132 0.932 . S
H153 C133 0.930 . S
H154 C134 0.934 . S
H155 C136 0.931 . S
H156 C138 0.932 . S
H157 C139 0.929 . S
H158 C140 0.928 . S
H159 C142 0.932 . S
C160 C161 1.264 . S
C160 C165 1.479 . S
C160 C170 1.465 . S
C161 C160 1.264 . S
C161 C163 1.339 . S
C161 H188 0.931 . S
C162 C163 1.395 . S
C162 C164 1.320 . S
C163 C161 1.339 . S
C163 C162 1.395 . S
C163 H189 0.929 . S
C164 C162 1.320 . S
C164 C165 1.405 . S
C164 H190 0.930 1_655 S
C165 C160 1.479 . S
C165 C164 1.405 . S
C165 H191 0.931 . S
U166 O167 2.454 . S
U166 O168 2.458 . S
U166 C169 2.984 . S
U166 C170 2.847 . S
U166 C183 2.882 . S
U166 O184 2.441 . S
U166 O185 2.420 . S
U166 O186 2.455 . S
U166 O187 2.449 . S
O167 U166 2.454 . S
O167 C169 1.353 . S
O168 U166 2.458 . S
O168 C169 1.286 . S
C169 U166 2.984 . S
C169 O167 1.353 . S
C169 O168 1.286 . S
C169 C171 1.363 . S
C170 C160 1.465 . S
C170 U166 2.847 . S
C170 O184 1.249 . S
C170 O185 1.202 . S
C171 C169 1.363 . S
C171 C173 1.408 . S
C171 C176 1.345 . S
C172 C173 1.315 . S
C172 C175 1.458 1_655 S
C172 H192 0.931 . S
C173 C171 1.408 . S
C173 C172 1.315 . S
C173 H193 0.930 . S
C174 C175 1.475 . S
C174 C176 1.284 1_455 S
C174 H194 0.929 . S
C175 C172 1.458 1_455 S
C175 C174 1.475 . S
C176 C171 1.345 . S
C176 C174 1.284 1_655 S
C176 H195 0.929 1_655 S
C177 C180 1.424 . S
C177 C182 1.245 . S
C177 C183 1.428 . S
C178 C181 1.260 . S
C178 C182 1.477 . S
C178 H196 0.932 . S
C179 C180 1.384 . S
C179 C181 1.479 . S
C179 H197 0.929 . S
C180 C177 1.424 . S
C180 C179 1.384 . S
C180 H198 0.928 . S
C181 C178 1.260 . S
C181 C179 1.479 . S
C182 C177 1.245 . S
C182 C178 1.477 . S
C182 H199 0.932 . S
C183 U166 2.882 . S
C183 C177 1.428 . S
C183 O186 1.301 . S
C183 O187 1.282 . S
O184 U166 2.441 . S
O184 C170 1.249 . S
O185 U166 2.420 . S
O185 C170 1.202 . S
O186 U166 2.455 . S
O186 C183 1.301 . S
O187 U166 2.449 . S
O187 C183 1.282 . S
H188 C161 0.931 . S
H189 C163 0.929 . S
H190 C164 0.930 1_455 S
H191 C165 0.931 . S
H192 C172 0.931 . S
H193 C173 0.930 . S
H194 C174 0.929 . S
H195 C176 0.929 1_455 S
H196 C178 0.932 . S
H197 C179 0.929 . S
H198 C180 0.928 . S
H199 C182 0.932 . S
C200 C201 1.264 . S
C200 C205 1.479 . S
C200 C210 1.465 . S
C201 C200 1.264 . S
C201 C203 1.339 . S
C201 H228 0.931 . S
C202 C203 1.395 . S
C202 C204 1.320 . S
C203 C201 1.339 . S
C203 C202 1.395 . S
C203 H229 0.929 . S
C204 C202 1.320 . S
C204 C205 1.405 . S
C204 H230 0.929 1_545 S
C205 C200 1.479 . S
C205 C204 1.405 . S
C205 H231 0.931 . S
U206 O207 2.454 . S
U206 O208 2.458 . S
U206 C209 2.984 . S
U206 C210 2.847 . S
U206 C223 2.882 . S
U206 O224 2.441 . S
U206 O225 2.420 . S
U206 O226 2.455 . S
U206 O227 2.449 . S
O207 U206 2.454 . S
O207 C209 1.353 . S
O208 U206 2.458 . S
O208 C209 1.286 . S
C209 U206 2.984 . S
C209 O207 1.353 . S
C209 O208 1.286 . S
C209 C211 1.363 . S
C210 C200 1.465 . S
C210 U206 2.847 . S
C210 O224 1.249 . S
C210 O225 1.202 . S
C211 C209 1.363 . S
C211 C213 1.408 . S
C211 C216 1.342 . S
C212 C213 1.310 . S
C212 C215 1.461 . S
C212 H232 0.932 . S
C213 C211 1.408 . S
C213 C212 1.310 . S
C213 H233 0.930 . S
C214 C215 1.475 . S
C214 C216 1.288 . S
C214 H234 0.927 1_545 S
C215 C212 1.461 . S
C215 C214 1.475 . S
C216 C211 1.342 . S
C216 C214 1.288 . S
C216 H235 0.930 . S
C217 C220 1.424 . S
C217 C222 1.245 . S
C217 C223 1.428 . S
C218 C221 1.260 . S
C218 C222 1.477 . S
C218 H236 0.932 . S
C219 C220 1.384 . S
C219 C221 1.479 . S
C219 H237 0.929 . S
C220 C217 1.424 . S
C220 C219 1.384 . S
C220 H238 0.928 . S
C221 C218 1.260 . S
C221 C219 1.479 . S
C222 C217 1.245 . S
C222 C218 1.477 . S
C222 H239 0.932 . S
C223 U206 2.882 . S
C223 C217 1.428 . S
C223 O226 1.301 . S
C223 O227 1.282 . S
O224 U206 2.441 . S
O224 C210 1.249 . S
O225 U206 2.420 . S
O225 C210 1.202 . S
O226 U206 2.455 . S
O226 C223 1.301 . S
O227 U206 2.449 . S
O227 C223 1.282 . S
H228 C201 0.931 . S
H229 C203 0.929 . S
H230 C204 0.929 1_565 S
H231 C205 0.931 . S
H232 C212 0.932 . S
H233 C213 0.930 . S
H234 C214 0.927 1_565 S
H235 C216 0.930 . S
H236 C218 0.932 . S
H237 C219 0.929 . S
H238 C220 0.928 . S
H239 C222 0.932 . S
C240 C241 1.264 . S
C240 C245 1.479 . S
C240 C250 1.465 . S
C241 C240 1.264 . S
C241 C243 1.339 . S
C241 H268 0.931 . S
C242 C243 1.395 . S
C242 C244 1.320 . S
C243 C241 1.339 . S
C243 C242 1.395 . S
C243 H269 0.929 . S
C244 C242 1.320 . S
C244 C245 1.405 . S
C244 H270 0.930 1_655 S
C245 C240 1.479 . S
C245 C244 1.405 . S
C245 H271 0.931 . S
U246 O247 2.454 . S
U246 O248 2.458 . S
U246 C249 2.984 . S
U246 C250 2.847 . S
U246 C263 2.882 . S
U246 O264 2.441 . S
U246 O265 2.420 . S
U246 O266 2.455 . S
U246 O267 2.449 . S
O247 U246 2.454 . S
O247 C249 1.353 . S
O248 U246 2.458 . S
O248 C249 1.286 . S
C249 U246 2.984 . S
C249 O247 1.353 . S
C249 O248 1.286 . S
C249 C251 1.363 . S
C250 C240 1.465 . S
C250 U246 2.847 . S
C250 O264 1.249 . S
C250 O265 1.202 . S
C251 C249 1.363 . S
C251 C253 1.408 . S
C251 C256 1.346 . S
C252 C253 1.310 . S
C252 C255 1.459 1_655 S
C252 H272 0.933 . S
C253 C251 1.408 . S
C253 C252 1.310 . S
C253 H273 0.930 . S
C254 C255 1.475 . S
C254 C256 1.284 1_455 S
C254 H274 0.929 . S
C255 C252 1.459 1_455 S
C255 C254 1.475 . S
C256 C251 1.346 . S
C256 C254 1.284 1_655 S
C256 H275 0.929 1_655 S
C257 C260 1.424 . S
C257 C262 1.245 . S
C257 C263 1.428 . S
C258 C261 1.260 . S
C258 C262 1.477 . S
C258 H276 0.932 . S
C259 C260 1.384 . S
C259 C261 1.479 . S
C259 H277 0.929 . S
C260 C257 1.424 . S
C260 C259 1.384 . S
C260 H278 0.928 . S
C261 C258 1.260 . S
C261 C259 1.479 . S
C262 C257 1.245 . S
C262 C258 1.477 . S
C262 H279 0.932 . S
C263 U246 2.882 . S
C263 C257 1.428 . S
C263 O266 1.301 . S
C263 O267 1.282 . S
O264 U246 2.441 . S
O264 C250 1.249 . S
O265 U246 2.420 . S
O265 C250 1.202 . S
O266 U246 2.455 . S
O266 C263 1.301 . S
O267 U246 2.449 . S
O267 C263 1.282 . S
H268 C241 0.931 . S
H269 C243 0.929 . S
H270 C244 0.930 1_455 S
H271 C245 0.931 . S
H272 C252 0.933 . S
H273 C253 0.930 . S
H274 C254 0.929 . S
H275 C256 0.929 1_455 S
H276 C258 0.932 . S
H277 C259 0.929 . S
H278 C260 0.928 . S
H279 C262 0.932 . S
C280 C281 1.264 . S
C280 C285 1.479 . S
C280 C290 1.465 . S
C281 C280 1.264 . S
C281 C283 1.339 . S
C281 H308 0.931 . S
C282 C283 1.395 . S
C282 C284 1.320 . S
C283 C281 1.339 . S
C283 C282 1.395 . S
C283 H309 0.929 . S
C284 C282 1.320 . S
C284 C285 1.405 . S
C284 H310 0.929 . S
C285 C280 1.479 . S
C285 C284 1.405 . S
C285 H311 0.931 . S
U286 O287 2.454 . S
U286 O288 2.458 . S
U286 C289 2.984 . S
U286 C290 2.847 . S
U286 C303 2.882 . S
U286 O304 2.441 . S
U286 O305 2.420 . S
U286 O306 2.455 . S
U286 O307 2.449 . S
O287 U286 2.454 . S
O287 C289 1.353 . S
O288 U286 2.458 . S
O288 C289 1.286 . S
C289 U286 2.984 . S
C289 O287 1.353 . S
C289 O288 1.286 . S
C289 C291 1.363 . S
C290 C280 1.465 . S
C290 U286 2.847 . S
C290 O304 1.249 . S
C290 O305 1.202 . S
C291 C289 1.363 . S
C291 C293 1.408 . S
C291 C296 1.342 . S
C292 C293 1.310 . S
C292 C295 1.461 . S
C292 H312 0.932 . S
C293 C291 1.408 . S
C293 C292 1.310 . S
C293 H313 0.930 . S
C294 C295 1.475 . S
C294 C296 1.288 . S
C294 H314 0.927 1_545 S
C295 C292 1.461 . S
C295 C294 1.475 . S
C296 C291 1.342 . S
C296 C294 1.288 . S
C296 H315 0.930 . S
C297 C300 1.424 . S
C297 C302 1.245 . S
C297 C303 1.428 . S
C298 C301 1.260 . S
C298 C302 1.477 . S
C298 H316 0.932 . S
C299 C300 1.384 . S
C299 C301 1.479 . S
C299 H317 0.929 . S
C300 C297 1.424 . S
C300 C299 1.384 . S
C300 H318 0.928 . S
C301 C298 1.260 . S
C301 C299 1.479 . S
C302 C297 1.245 . S
C302 C298 1.477 . S
C302 H319 0.932 . S
C303 U286 2.882 . S
C303 C297 1.428 . S
C303 O306 1.301 . S
C303 O307 1.282 . S
O304 U286 2.441 . S
O304 C290 1.249 . S
O305 U286 2.420 . S
O305 C290 1.202 . S
O306 U286 2.455 . S
O306 C303 1.301 . S
O307 U286 2.449 . S
O307 C303 1.282 . S
H308 C281 0.931 . S
H309 C283 0.929 . S
H310 C284 0.929 . S
H311 C285 0.931 . S
H312 C292 0.932 . S
H313 C293 0.930 . S
H314 C294 0.927 1_565 S
H315 C296 0.930 . S
H316 C298 0.932 . S
H317 C299 0.929 . S
H318 C300 0.928 . S
H319 C302 0.932 . S
C320 C321 1.264 . S
C320 C325 1.479 . S
C320 C330 1.465 . S
C321 C320 1.264 . S
C321 C323 1.339 . S
C321 H348 0.931 . S
C322 C323 1.395 . S
C322 C324 1.320 . S
C323 C321 1.339 . S
C323 C322 1.395 . S
C323 H349 0.929 . S
C324 C322 1.320 . S
C324 C325 1.405 . S
C324 H350 0.930 1_554 S
C325 C320 1.479 . S
C325 C324 1.405 . S
C325 H351 0.931 . S
U326 O327 2.454 . S
U326 O328 2.458 . S
U326 C329 2.984 . S
U326 C330 2.847 . S
U326 C343 2.882 . S
U326 O344 2.441 . S
U326 O345 2.420 . S
U326 O346 2.455 . S
U326 O347 2.449 . S
O327 U326 2.454 . S
O327 C329 1.353 . S
O328 U326 2.458 . S
O328 C329 1.286 . S
C329 U326 2.984 . S
C329 O327 1.353 . S
C329 O328 1.286 . S
C329 C331 1.363 . S
C330 C320 1.465 . S
C330 U326 2.847 . S
C330 O344 1.249 . S
C330 O345 1.202 . S
C331 C329 1.363 . S
C331 C333 1.408 . S
C331 C336 1.342 . S
C332 C333 1.310 . S
C332 C335 1.464 . S
C332 H352 0.932 . S
C333 C331 1.408 . S
C333 C332 1.310 . S
C333 H353 0.930 . S
C334 C335 1.474 . S
C334 C336 1.287 . S
C334 H354 0.928 1_554 S
C335 C332 1.464 . S
C335 C334 1.474 . S
C336 C331 1.342 . S
C336 C334 1.287 . S
C336 H355 0.930 . S
C337 C340 1.424 . S
C337 C342 1.245 . S
C337 C343 1.428 . S
C338 C341 1.260 . S
C338 C342 1.477 . S
C338 H356 0.932 . S
C339 C340 1.384 . S
C339 C341 1.479 . S
C339 H357 0.929 . S
C340 C337 1.424 . S
C340 C339 1.384 . S
C340 H358 0.928 . S
C341 C338 1.260 . S
C341 C339 1.479 . S
C342 C337 1.245 . S
C342 C338 1.477 . S
C342 H359 0.932 . S
C343 U326 2.882 . S
C343 C337 1.428 . S
C343 O346 1.301 . S
C343 O347 1.282 . S
O344 U326 2.441 . S
O344 C330 1.249 . S
O345 U326 2.420 . S
O345 C330 1.202 . S
O346 U326 2.455 . S
O346 C343 1.301 . S
O347 U326 2.449 . S
O347 C343 1.282 . S
H348 C321 0.931 . S
H349 C323 0.929 . S
H350 C324 0.930 1_556 S
H351 C325 0.931 . S
H352 C332 0.932 . S
H353 C333 0.930 . S
H354 C334 0.928 1_556 S
H355 C336 0.930 . S
H356 C338 0.932 . S
H357 C339 0.929 . S
H358 C340 0.928 . S
H359 C342 0.932 . S
C360 C361 1.264 . S
C360 C365 1.479 . S
C360 C370 1.465 . S
C361 C360 1.264 . S
C361 C363 1.339 . S
C361 H388 0.931 . S
C362 C363 1.395 . S
C362 C364 1.320 . S
C363 C361 1.339 . S
C363 C362 1.395 . S
C363 H389 0.929 . S
C364 C362 1.320 . S
C364 C365 1.405 . S
C364 H390 0.925 1_554 S
C365 C360 1.479 . S
C365 C364 1.405 . S
C365 H391 0.931 . S
U366 O367 2.454 . S
U366 O368 2.458 . S
U366 C369 2.984 . S
U366 C370 2.847 . S
U366 C383 2.882 . S
U366 O384 2.441 . S
U366 O385 2.420 . S
U366 O386 2.455 . S
U366 O387 2.449 . S
O367 U366 2.454 . S
O367 C369 1.353 . S
O368 U366 2.458 . S
O368 C369 1.286 . S
C369 U366 2.984 . S
C369 O367 1.353 . S
C369 O368 1.286 . S
C369 C371 1.363 . S
C370 C360 1.465 . S
C370 U366 2.847 . S
C370 O384 1.249 . S
C370 O385 1.202 . S
C371 C369 1.363 . S
C371 C373 1.408 . S
C371 C376 1.342 . S
C372 C373 1.310 . S
C372 C375 1.464 . S
C372 H392 0.932 . S
C373 C371 1.408 . S
C373 C372 1.310 . S
C373 H393 0.930 . S
C374 C375 1.474 . S
C374 C376 1.286 . S
C374 H394 0.928 1_554 S
C375 C372 1.464 . S
C375 C374 1.474 . S
C376 C371 1.342 . S
C376 C374 1.286 . S
C376 H395 0.930 . S
C377 C380 1.424 . S
C377 C382 1.245 . S
C377 C383 1.428 . S
C378 C381 1.260 . S
C378 C382 1.477 . S
C378 H396 0.932 . S
C379 C380 1.384 . S
C379 C381 1.479 . S
C379 H397 0.929 . S
C380 C377 1.424 . S
C380 C379 1.384 . S
C380 H398 0.928 . S
C381 C378 1.260 . S
C381 C379 1.479 . S
C382 C377 1.245 . S
C382 C378 1.477 . S
C382 H399 0.932 . S
C383 U366 2.882 . S
C383 C377 1.428 . S
C383 O386 1.301 . S
C383 O387 1.282 . S
O384 U366 2.441 . S
O384 C370 1.249 . S
O385 U366 2.420 . S
O385 C370 1.202 . S
O386 U366 2.455 . S
O386 C383 1.301 . S
O387 U366 2.449 . S
O387 C383 1.282 . S
H388 C361 0.931 . S
H389 C363 0.929 . S
H390 C364 0.925 1_556 S
H391 C365 0.931 . S
H392 C372 0.932 . S
H393 C373 0.930 . S
H394 C374 0.928 1_556 S
H395 C376 0.930 . S
H396 C378 0.932 . S
H397 C379 0.929 . S
H398 C380 0.928 . S
H399 C382 0.932 . S
C400 C401 1.264 . S
C400 C405 1.479 . S
C400 C410 1.465 . S
C401 C400 1.264 . S
C401 C403 1.339 . S
C401 H428 0.931 . S
C402 C403 1.395 . S
C402 C404 1.320 . S
C403 C401 1.339 . S
C403 C402 1.395 . S
C403 H429 0.929 . S
C404 C402 1.320 . S
C404 C405 1.405 . S
C404 H430 0.927 1_554 S
C405 C400 1.479 . S
C405 C404 1.405 . S
C405 H431 0.931 . S
U406 O407 2.454 . S
U406 O408 2.458 . S
U406 C409 2.984 . S
U406 C410 2.847 . S
U406 C423 2.882 . S
U406 O424 2.441 . S
U406 O425 2.420 . S
U406 O426 2.455 . S
U406 O427 2.449 . S
O407 U406 2.454 . S
O407 C409 1.353 . S
O408 U406 2.458 . S
O408 C409 1.286 . S
C409 U406 2.984 . S
C409 O407 1.353 . S
C409 O408 1.286 . S
C409 C411 1.363 . S
C410 C400 1.465 . S
C410 U406 2.847 . S
C410 O424 1.249 . S
C410 O425 1.202 . S
C411 C409 1.363 . S
C411 C413 1.408 . S
C411 C416 1.342 . S
C412 C413 1.310 . S
C412 C415 1.461 . S
C412 H432 0.932 . S
C413 C411 1.408 . S
C413 C412 1.310 . S
C413 H433 0.930 . S
C414 C415 1.475 . S
C414 C416 1.287 . S
C414 H434 0.928 1_554 S
C415 C412 1.461 . S
C415 C414 1.475 . S
C416 C411 1.342 . S
C416 C414 1.287 . S
C416 H435 0.930 . S
C417 C420 1.424 . S
C417 C422 1.245 . S
C417 C423 1.428 . S
C418 C421 1.260 . S
C418 C422 1.477 . S
C418 H436 0.932 . S
C419 C420 1.384 . S
C419 C421 1.479 . S
C419 H437 0.929 . S
C420 C417 1.424 . S
C420 C419 1.384 . S
C420 H438 0.928 . S
C421 C418 1.260 . S
C421 C419 1.479 . S
C422 C417 1.245 . S
C422 C418 1.477 . S
C422 H439 0.932 . S
C423 U406 2.882 . S
C423 C417 1.428 . S
C423 O426 1.301 . S
C423 O427 1.282 . S
O424 U406 2.441 . S
O424 C410 1.249 . S
O425 U406 2.420 . S
O425 C410 1.202 . S
O426 U406 2.455 . S
O426 C423 1.301 . S
O427 U406 2.449 . S
O427 C423 1.282 . S
H428 C401 0.931 . S
H429 C403 0.929 . S
H430 C404 0.927 1_556 S
H431 C405 0.931 . S
H432 C412 0.932 . S
H433 C413 0.930 . S
H434 C414 0.928 1_556 S
H435 C416 0.930 . S
H436 C418 0.932 . S
H437 C419 0.929 . S
H438 C420 0.928 . S
H439 C422 0.932 . S
C440 C441 1.264 . S
C440 C445 1.479 . S
C440 C450 1.465 . S
C441 C440 1.264 . S
C441 C443 1.339 . S
C441 H468 0.931 . S
C442 C443 1.395 . S
C442 C444 1.320 . S
C443 C441 1.339 . S
C443 C442 1.395 . S
C443 H469 0.929 . S
C444 C442 1.320 . S
C444 C445 1.405 . S
C444 H470 0.925 1_554 S
C445 C440 1.479 . S
C445 C444 1.405 . S
C445 H471 0.931 . S
U446 O447 2.454 . S
U446 O448 2.458 . S
U446 C449 2.984 . S
U446 C450 2.847 . S
U446 C463 2.882 . S
U446 O464 2.441 . S
U446 O465 2.420 . S
U446 O466 2.455 . S
U446 O467 2.449 . S
O447 U446 2.454 . S
O447 C449 1.353 . S
O448 U446 2.458 . S
O448 C449 1.286 . S
C449 U446 2.984 . S
C449 O447 1.353 . S
C449 O448 1.286 . S
C449 C451 1.363 . S
C450 C440 1.465 . S
C450 U446 2.847 . S
C450 O464 1.249 . S
C450 O465 1.202 . S
C451 C449 1.363 . S
C451 C453 1.408 . S
C451 C456 1.342 . S
C452 C453 1.310 . S
C452 C455 1.462 . S
C452 H472 0.932 . S
C453 C451 1.408 . S
C453 C452 1.310 . S
C453 H473 0.930 . S
C454 C455 1.474 . S
C454 C456 1.285 . S
C454 H474 0.930 1_554 S
C455 C452 1.462 . S
C455 C454 1.474 . S
C456 C451 1.342 . S
C456 C454 1.285 . S
C456 H475 0.930 . S
C457 C460 1.424 . S
C457 C462 1.245 . S
C457 C463 1.428 . S
C458 C461 1.260 . S
C458 C462 1.477 . S
C458 H476 0.932 . S
C459 C460 1.384 . S
C459 C461 1.479 . S
C459 H477 0.929 . S
C460 C457 1.424 . S
C460 C459 1.384 . S
C460 H478 0.928 . S
C461 C458 1.260 . S
C461 C459 1.479 . S
C462 C457 1.245 . S
C462 C458 1.477 . S
C462 H479 0.932 . S
C463 U446 2.882 . S
C463 C457 1.428 . S
C463 O466 1.301 . S
C463 O467 1.282 . S
O464 U446 2.441 . S
O464 C450 1.249 . S
O465 U446 2.420 . S
O465 C450 1.202 . S
O466 U446 2.455 . S
O466 C463 1.301 . S
O467 U446 2.449 . S
O467 C463 1.282 . S
H468 C441 0.931 . S
H469 C443 0.929 . S
H470 C444 0.925 1_556 S
H471 C445 0.931 . S
H472 C452 0.932 . S
H473 C453 0.930 . S
H474 C454 0.930 1_556 S
H475 C456 0.930 . S
H476 C458 0.932 . S
H477 C459 0.929 . S
H478 C460 0.928 . S
H479 C462 0.932 . S
C480 C481 1.264 . S
C480 C485 1.479 . S
C480 C490 1.465 . S
C481 C480 1.264 . S
C481 C483 1.339 . S
C481 H508 0.931 . S
C482 C483 1.395 . S
C482 C484 1.320 . S
C483 C481 1.339 . S
C483 C482 1.395 . S
C483 H509 0.929 . S
C484 C482 1.320 . S
C484 C485 1.405 . S
C484 H510 0.930 . S
C485 C480 1.479 . S
C485 C484 1.405 . S
C485 H511 0.931 . S
U486 O487 2.454 . S
U486 O488 2.458 . S
U486 C489 2.984 . S
U486 C490 2.847 . S
U486 C503 2.882 . S
U486 O504 2.441 . S
U486 O505 2.420 . S
U486 O506 2.455 . S
U486 O507 2.449 . S
O487 U486 2.454 . S
O487 C489 1.353 . S
O488 U486 2.458 . S
O488 C489 1.286 . S
C489 U486 2.984 . S
C489 O487 1.353 . S
C489 O488 1.286 . S
C489 C491 1.363 . S
C490 C480 1.465 . S
C490 U486 2.847 . S
C490 O504 1.249 . S
C490 O505 1.202 . S
C491 C489 1.363 . S
C491 C493 1.408 . S
C491 C496 1.342 . S
C492 C493 1.310 . S
C492 C495 1.461 . S
C492 H512 0.932 . S
C493 C491 1.408 . S
C493 C492 1.310 . S
C493 H513 0.930 . S
C494 C495 1.474 . S
C494 C496 1.285 . S
C494 H514 0.929 . S
C495 C492 1.461 . S
C495 C494 1.474 . S
C496 C491 1.342 . S
C496 C494 1.285 . S
C496 H515 0.930 . S
C497 C500 1.424 . S
C497 C502 1.245 . S
C497 C503 1.428 . S
C498 C501 1.260 . S
C498 C502 1.477 . S
C498 H516 0.932 . S
C499 C500 1.384 . S
C499 C501 1.479 . S
C499 H517 0.929 . S
C500 C497 1.424 . S
C500 C499 1.384 . S
C500 H518 0.928 . S
C501 C498 1.260 . S
C501 C499 1.479 . S
C502 C497 1.245 . S
C502 C498 1.477 . S
C502 H519 0.932 . S
C503 U486 2.882 . S
C503 C497 1.428 . S
C503 O506 1.301 . S
C503 O507 1.282 . S
O504 U486 2.441 . S
O504 C490 1.249 . S
O505 U486 2.420 . S
O505 C490 1.202 . S
O506 U486 2.455 . S
O506 C503 1.301 . S
O507 U486 2.449 . S
O507 C503 1.282 . S
H508 C481 0.931 . S
H509 C483 0.929 . S
H510 C484 0.930 . S
H511 C485 0.931 . S
H512 C492 0.932 . S
H513 C493 0.930 . S
H514 C494 0.929 . S
H515 C496 0.930 . S
H516 C498 0.932 . S
H517 C499 0.929 . S
H518 C500 0.928 . S
H519 C502 0.932 . S
C520 C521 1.264 . S
C520 C525 1.479 . S
C520 C530 1.465 . S
C521 C520 1.264 . S
C521 C523 1.339 . S
C521 H548 0.931 . S
C522 C523 1.395 . S
C522 C524 1.320 . S
C523 C521 1.339 . S
C523 C522 1.395 . S
C523 H549 0.929 . S
C524 C522 1.320 . S
C524 C525 1.405 . S
C524 H550 0.930 . S
C525 C520 1.479 . S
C525 C524 1.405 . S
C525 H551 0.931 . S
U526 O527 2.454 . S
U526 O528 2.458 . S
U526 C529 2.984 . S
U526 C530 2.847 . S
U526 C543 2.882 . S
U526 O544 2.441 . S
U526 O545 2.420 . S
U526 O546 2.455 . S
U526 O547 2.449 . S
O527 U526 2.454 . S
O527 C529 1.353 . S
O528 U526 2.458 . S
O528 C529 1.286 . S
C529 U526 2.984 . S
C529 O527 1.353 . S
C529 O528 1.286 . S
C529 C531 1.363 . S
C530 C520 1.465 . S
C530 U526 2.847 . S
C530 O544 1.249 . S
C530 O545 1.202 . S
C531 C529 1.363 . S
C531 C533 1.408 . S
C531 C536 1.342 . S
C532 C533 1.310 . S
C532 C535 1.461 . S
C532 H552 0.932 . S
C533 C531 1.408 . S
C533 C532 1.310 . S
C533 H553 0.930 . S
C534 C535 1.474 . S
C534 C536 1.285 . S
C534 H554 0.929 . S
C535 C532 1.461 . S
C535 C534 1.474 . S
C536 C531 1.342 . S
C536 C534 1.285 . S
C536 H555 0.930 . S
C537 C540 1.424 . S
C537 C542 1.245 . S
C537 C543 1.428 . S
C538 C541 1.260 . S
C538 C542 1.477 . S
C538 H556 0.932 . S
C539 C540 1.384 . S
C539 C541 1.479 . S
C539 H557 0.929 . S
C540 C537 1.424 . S
C540 C539 1.384 . S
C540 H558 0.928 . S
C541 C538 1.260 . S
C541 C539 1.479 . S
C542 C537 1.245 . S
C542 C538 1.477 . S
C542 H559 0.932 . S
C543 U526 2.882 . S
C543 C537 1.428 . S
C543 O546 1.301 . S
C543 O547 1.282 . S
O544 U526 2.441 . S
O544 C530 1.249 . S
O545 U526 2.420 . S
O545 C530 1.202 . S
O546 U526 2.455 . S
O546 C543 1.301 . S
O547 U526 2.449 . S
O547 C543 1.282 . S
H548 C521 0.931 . S
H549 C523 0.929 . S
H550 C524 0.930 . S
H551 C525 0.931 . S
H552 C532 0.932 . S
H553 C533 0.930 . S
H554 C534 0.929 . S
H555 C536 0.930 . S
H556 C538 0.932 . S
H557 C539 0.929 . S
H558 C540 0.928 . S
H559 C542 0.932 . S
C560 C561 1.264 . S
C560 C565 1.479 . S
C560 C570 1.465 . S
C561 C560 1.264 . S
C561 C563 1.339 . S
C561 H588 0.931 . S
C562 C563 1.395 . S
C562 C564 1.320 . S
C563 C561 1.339 . S
C563 C562 1.395 . S
C563 H589 0.929 . S
C564 C562 1.320 . S
C564 C565 1.405 . S
C564 H590 0.930 . S
C565 C560 1.479 . S
C565 C564 1.405 . S
C565 H591 0.931 . S
U566 O567 2.454 . S
U566 O568 2.458 . S
U566 C569 2.984 . S
U566 C570 2.847 . S
U566 C583 2.882 . S
U566 O584 2.441 . S
U566 O585 2.420 . S
U566 O586 2.455 . S
U566 O587 2.449 . S
O567 U566 2.454 . S
O567 C569 1.353 . S
O568 U566 2.458 . S
O568 C569 1.286 . S
C569 U566 2.984 . S
C569 O567 1.353 . S
C569 O568 1.286 . S
C569 C571 1.363 . S
C570 C560 1.465 . S
C570 U566 2.847 . S
C570 O584 1.249 . S
C570 O585 1.202 . S
C571 C569 1.363 . S
C571 C573 1.408 . S
C571 C576 1.342 . S
C572 C573 1.310 . S
C572 C575 1.461 . S
C572 H592 0.932 . S
C573 C571 1.408 . S
C573 C572 1.310 . S
C573 H593 0.930 . S
C574 C575 1.474 . S
C574 C576 1.285 . S
C574 H594 0.929 . S
C575 C572 1.461 . S
C575 C574 1.474 . S
C576 C571 1.342 . S
C576 C574 1.285 . S
C576 H595 0.930 . S
C577 C580 1.424 . S
C577 C582 1.245 . S
C577 C583 1.428 . S
C578 C581 1.260 . S
C578 C582 1.477 . S
C578 H596 0.932 . S
C579 C580 1.384 . S
C579 C581 1.479 . S
C579 H597 0.929 . S
C580 C577 1.424 . S
C580 C579 1.384 . S
C580 H598 0.928 . S
C581 C578 1.260 . S
C581 C579 1.479 . S
C582 C577 1.245 . S
C582 C578 1.477 . S
C582 H599 0.932 . S
C583 U566 2.882 . S
C583 C577 1.428 . S
C583 O586 1.301 . S
C583 O587 1.282 . S
O584 U566 2.441 . S
O584 C570 1.249 . S
O585 U566 2.420 . S
O585 C570 1.202 . S
O586 U566 2.455 . S
O586 C583 1.301 . S
O587 U566 2.449 . S
O587 C583 1.282 . S
H588 C561 0.931 . S
H589 C563 0.929 . S
H590 C564 0.930 . S
H591 C565 0.931 . S
H592 C572 0.932 . S
H593 C573 0.930 . S
H594 C574 0.929 . S
H595 C576 0.930 . S
H596 C578 0.932 . S
H597 C579 0.929 . S
H598 C580 0.928 . S
H599 C582 0.932 . S
C600 C601 1.264 . S
C600 C605 1.479 . S
C600 C610 1.465 . S
C601 C600 1.264 . S
C601 C603 1.339 . S
C601 H628 0.931 . S
C602 C603 1.395 . S
C602 C604 1.320 . S
C603 C601 1.339 . S
C603 C602 1.395 . S
C603 H629 0.929 . S
C604 C602 1.320 . S
C604 C605 1.405 . S
C604 H630 0.930 . S
C605 C600 1.479 . S
C605 C604 1.405 . S
C605 H631 0.931 . S
U606 O607 2.454 . S
U606 O608 2.458 . S
U606 C609 2.984 . S
U606 C610 2.847 . S
U606 C623 2.882 . S
U606 O624 2.441 . S
U606 O625 2.420 . S
U606 O626 2.455 . S
U606 O627 2.449 . S
O607 U606 2.454 . S
O607 C609 1.353 . S
O608 U606 2.458 . S
O608 C609 1.286 . S
C609 U606 2.984 . S
C609 O607 1.353 . S
C609 O608 1.286 . S
C609 C611 1.363 . S
C610 C600 1.465 . S
C610 U606 2.847 . S
C610 O624 1.249 . S
C610 O625 1.202 . S
C611 C609 1.363 . S
C611 C613 1.408 . S
C611 C616 1.342 . S
C612 C613 1.310 . S
C612 C615 1.461 . S
C612 H632 0.932 . S
C613 C611 1.408 . S
C613 C612 1.310 . S
C613 H633 0.930 . S
C614 C615 1.474 . S
C614 C616 1.285 . S
C614 H634 0.929 . S
C615 C612 1.461 . S
C615 C614 1.474 . S
C616 C611 1.342 . S
C616 C614 1.285 . S
C616 H635 0.930 . S
C617 C620 1.424 . S
C617 C622 1.245 . S
C617 C623 1.428 . S
C618 C621 1.260 . S
C618 C622 1.477 . S
C618 H636 0.932 . S
C619 C620 1.384 . S
C619 C621 1.479 . S
C619 H637 0.929 . S
C620 C617 1.424 . S
C620 C619 1.384 . S
C620 H638 0.928 . S
C621 C618 1.260 . S
C621 C619 1.479 . S
C622 C617 1.245 . S
C622 C618 1.477 . S
C622 H639 0.932 . S
C623 U606 2.882 . S
C623 C617 1.428 . S
C623 O626 1.301 . S
C623 O627 1.282 . S
O624 U606 2.441 . S
O624 C610 1.249 . S
O625 U606 2.420 . S
O625 C610 1.202 . S
O626 U606 2.455 . S
O626 C623 1.301 . S
O627 U606 2.449 . S
O627 C623 1.282 . S
H628 C601 0.931 . S
H629 C603 0.929 . S
H630 C604 0.930 . S
H631 C605 0.931 . S
H632 C612 0.932 . S
H633 C613 0.930 . S
H634 C614 0.929 . S
H635 C616 0.930 . S
H636 C618 0.932 . S
H637 C619 0.929 . S
H638 C620 0.928 . S
H639 C622 0.932 . S
C640 C641 1.264 . S
C640 C645 1.479 . S
C640 C650 1.465 . S
C641 C640 1.264 . S
C641 C643 1.339 . S
C641 H668 0.931 . S
C642 C643 1.395 . S
C642 C644 1.320 . S
C643 C641 1.339 . S
C643 C642 1.395 . S
C643 H669 0.929 . S
C644 C642 1.320 . S
C644 C645 1.405 . S
C644 H670 0.930 . S
C645 C640 1.479 . S
C645 C644 1.405 . S
C645 H671 0.931 . S
U646 O647 2.454 . S
U646 O648 2.458 . S
U646 C649 2.984 . S
U646 C650 2.847 . S
U646 C663 2.882 . S
U646 O664 2.441 . S
U646 O665 2.420 . S
U646 O666 2.455 . S
U646 O667 2.449 . S
O647 U646 2.454 . S
O647 C649 1.353 . S
O648 U646 2.458 . S
O648 C649 1.286 . S
C649 U646 2.984 . S
C649 O647 1.353 . S
C649 O648 1.286 . S
C649 C651 1.363 . S
C650 C640 1.465 . S
C650 U646 2.847 . S
C650 O664 1.249 . S
C650 O665 1.202 . S
C651 C649 1.363 . S
C651 C653 1.408 . S
C651 C656 1.342 . S
C652 C653 1.310 . S
C652 C655 1.461 . S
C652 H672 0.932 . S
C653 C651 1.408 . S
C653 C652 1.310 . S
C653 H673 0.930 . S
C654 C655 1.474 . S
C654 C656 1.285 . S
C654 H674 0.929 . S
C655 C652 1.461 . S
C655 C654 1.474 . S
C656 C651 1.342 . S
C656 C654 1.285 . S
C656 H675 0.930 . S
C657 C660 1.424 . S
C657 C662 1.245 . S
C657 C663 1.428 . S
C658 C661 1.260 . S
C658 C662 1.477 . S
C658 H676 0.932 . S
C659 C660 1.384 . S
C659 C661 1.479 . S
C659 H677 0.929 . S
C660 C657 1.424 . S
C660 C659 1.384 . S
C660 H678 0.928 . S
C661 C658 1.260 . S
C661 C659 1.479 . S
C662 C657 1.245 . S
C662 C658 1.477 . S
C662 H679 0.932 . S
C663 U646 2.882 . S
C663 C657 1.428 . S
C663 O666 1.301 . S
C663 O667 1.282 . S
O664 U646 2.441 . S
O664 C650 1.249 . S
O665 U646 2.420 . S
O665 C650 1.202 . S
O666 U646 2.455 . S
O666 C663 1.301 . S
O667 U646 2.449 . S
O667 C663 1.282 . S
H668 C641 0.931 . S
H669 C643 0.929 . S
H670 C644 0.930 . S
H671 C645 0.931 . S
H672 C652 0.932 . S
H673 C653 0.930 . S
H674 C654 0.929 . S
H675 C656 0.930 . S
H676 C658 0.932 . S
H677 C659 0.929 . S
H678 C660 0.928 . S
H679 C662 0.932 . S
C680 C681 1.264 . S
C680 C685 1.479 . S
C680 C690 1.465 . S
C681 C680 1.264 . S
C681 C683 1.339 . S
C681 H708 0.931 . S
C682 C683 1.395 . S
C682 C684 1.320 . S
C683 C681 1.339 . S
C683 C682 1.395 . S
C683 H709 0.929 . S
C684 C682 1.320 . S
C684 C685 1.405 . S
C684 H710 0.930 . S
C685 C680 1.479 . S
C685 C684 1.405 . S
C685 H711 0.931 . S
U686 O687 2.454 . S
U686 O688 2.458 . S
U686 C689 2.984 . S
U686 C690 2.847 . S
U686 C703 2.882 . S
U686 O704 2.441 . S
U686 O705 2.420 . S
U686 O706 2.455 . S
U686 O707 2.449 . S
O687 U686 2.454 . S
O687 C689 1.353 . S
O688 U686 2.458 . S
O688 C689 1.286 . S
C689 U686 2.984 . S
C689 O687 1.353 . S
C689 O688 1.286 . S
C689 C691 1.363 . S
C690 C680 1.465 . S
C690 U686 2.847 . S
C690 O704 1.249 . S
C690 O705 1.202 . S
C691 C689 1.363 . S
C691 C693 1.408 . S
C691 C696 1.342 . S
C692 C693 1.310 . S
C692 C695 1.461 . S
C692 H712 0.932 . S
C693 C691 1.408 . S
C693 C692 1.310 . S
C693 H713 0.930 . S
C694 C695 1.474 . S
C694 C696 1.285 . S
C694 H714 0.929 . S
C695 C692 1.461 . S
C695 C694 1.474 . S
C696 C691 1.342 . S
C696 C694 1.285 . S
C696 H715 0.930 . S
C697 C700 1.424 . S
C697 C702 1.245 . S
C697 C703 1.428 . S
C698 C701 1.260 . S
C698 C702 1.477 . S
C698 H716 0.932 . S
C699 C700 1.384 . S
C699 C701 1.479 . S
C699 H717 0.929 . S
C700 C697 1.424 . S
C700 C699 1.384 . S
C700 H718 0.928 . S
C701 C698 1.260 . S
C701 C699 1.479 . S
C702 C697 1.245 . S
C702 C698 1.477 . S
C702 H719 0.932 . S
C703 U686 2.882 . S
C703 C697 1.428 . S
C703 O706 1.301 . S
C703 O707 1.282 . S
O704 U686 2.441 . S
O704 C690 1.249 . S
O705 U686 2.420 . S
O705 C690 1.202 . S
O706 U686 2.455 . S
O706 C703 1.301 . S
O707 U686 2.449 . S
O707 C703 1.282 . S
H708 C681 0.931 . S
H709 C683 0.929 . S
H710 C684 0.930 . S
H711 C685 0.931 . S
H712 C692 0.932 . S
H713 C693 0.930 . S
H714 C694 0.929 . S
H715 C696 0.930 . S
H716 C698 0.932 . S
H717 C699 0.929 . S
H718 C700 0.928 . S
H719 C702 0.932 . S
C720 C721 1.264 . S
C720 C725 1.479 . S
C720 C730 1.465 . S
C721 C720 1.264 . S
C721 C723 1.339 . S
C721 H748 0.931 . S
C722 C723 1.395 . S
C722 C724 1.320 . S
C723 C721 1.339 . S
C723 C722 1.395 . S
C723 H749 0.929 . S
C724 C722 1.320 . S
C724 C725 1.405 . S
C724 H750 0.930 . S
C725 C720 1.479 . S
C725 C724 1.405 . S
C725 H751 0.931 . S
U726 O727 2.454 . S
U726 O728 2.458 . S
U726 C729 2.984 . S
U726 C730 2.847 . S
U726 C743 2.882 . S
U726 O744 2.441 . S
U726 O745 2.420 . S
U726 O746 2.455 . S
U726 O747 2.449 . S
O727 U726 2.454 . S
O727 C729 1.353 . S
O728 U726 2.458 . S
O728 C729 1.286 . S
C729 U726 2.984 . S
C729 O727 1.353 . S
C729 O728 1.286 . S
C729 C731 1.363 . S
C730 C720 1.465 . S
C730 U726 2.847 . S
C730 O744 1.249 . S
C730 O745 1.202 . S
C731 C729 1.363 . S
C731 C733 1.408 . S
C731 C736 1.342 . S
C732 C733 1.310 . S
C732 C735 1.461 . S
C732 H752 0.932 . S
C733 C731 1.408 . S
C733 C732 1.310 . S
C733 H753 0.930 . S
C734 C735 1.474 . S
C734 C736 1.285 . S
C734 H754 0.929 . S
C735 C732 1.461 . S
C735 C734 1.474 . S
C736 C731 1.342 . S
C736 C734 1.285 . S
C736 H755 0.930 . S
C737 C740 1.424 . S
C737 C742 1.245 . S
C737 C743 1.428 . S
C738 C741 1.260 . S
C738 C742 1.477 . S
C738 H756 0.932 . S
C739 C740 1.384 . S
C739 C741 1.479 . S
C739 H757 0.929 . S
C740 C737 1.424 . S
C740 C739 1.384 . S
C740 H758 0.928 . S
C741 C738 1.260 . S
C741 C739 1.479 . S
C742 C737 1.245 . S
C742 C738 1.477 . S
C742 H759 0.932 . S
C743 U726 2.882 . S
C743 C737 1.428 . S
C743 O746 1.301 . S
C743 O747 1.282 . S
O744 U726 2.441 . S
O744 C730 1.249 . S
O745 U726 2.420 . S
O745 C730 1.202 . S
O746 U726 2.455 . S
O746 C743 1.301 . S
O747 U726 2.449 . S
O747 C743 1.282 . S
H748 C721 0.931 . S
H749 C723 0.929 . S
H750 C724 0.930 . S
H751 C725 0.931 . S
H752 C732 0.932 . S
H753 C733 0.930 . S
H754 C734 0.929 . S
H755 C736 0.930 . S
H756 C738 0.932 . S
H757 C739 0.929 . S
H758 C740 0.928 . S
H759 C742 0.932 . S
C760 C761 1.264 . S
C760 C765 1.479 . S
C760 C770 1.465 . S
C761 C760 1.264 . S
C761 C763 1.339 . S
C761 H788 0.931 . S
C762 C763 1.395 . S
C762 C764 1.320 . S
C763 C761 1.339 . S
C763 C762 1.395 . S
C763 H789 0.929 . S
C764 C762 1.320 . S
C764 C765 1.405 . S
C764 H790 0.930 . S
C765 C760 1.479 . S
C765 C764 1.405 . S
C765 H791 0.931 . S
U766 O767 2.454 . S
U766 O768 2.458 . S
U766 C769 2.984 . S
U766 C770 2.847 . S
U766 C783 2.882 . S
U766 O784 2.441 . S
U766 O785 2.420 . S
U766 O786 2.455 . S
U766 O787 2.449 . S
O767 U766 2.454 . S
O767 C769 1.353 . S
O768 U766 2.458 . S
O768 C769 1.286 . S
C769 U766 2.984 . S
C769 O767 1.353 . S
C769 O768 1.286 . S
C769 C771 1.363 . S
C770 C760 1.465 . S
C770 U766 2.847 . S
C770 O784 1.249 . S
C770 O785 1.202 . S
C771 C769 1.363 . S
C771 C773 1.408 . S
C771 C776 1.342 . S
C772 C773 1.310 . S
C772 C775 1.461 . S
C772 H792 0.932 . S
C773 C771 1.408 . S
C773 C772 1.310 . S
C773 H793 0.930 . S
C774 C775 1.474 . S
C774 C776 1.285 . S
C774 H794 0.929 . S
C775 C772 1.461 . S
C775 C774 1.474 . S
C776 C771 1.342 . S
C776 C774 1.285 . S
C776 H795 0.930 . S
C777 C780 1.424 . S
C777 C782 1.245 . S
C777 C783 1.428 . S
C778 C781 1.260 . S
C778 C782 1.477 . S
C778 H796 0.932 . S
C779 C780 1.384 . S
C779 C781 1.479 . S
C779 H797 0.929 . S
C780 C777 1.424 . S
C780 C779 1.384 . S
C780 H798 0.928 . S
C781 C778 1.260 . S
C781 C779 1.479 . S
C782 C777 1.245 . S
C782 C778 1.477 . S
C782 H799 0.932 . S
C783 U766 2.882 . S
C783 C777 1.428 . S
C783 O786 1.301 . S
C783 O787 1.282 . S
O784 U766 2.441 . S
O784 C770 1.249 . S
O785 U766 2.420 . S
O785 C770 1.202 . S
O786 U766 2.455 . S
O786 C783 1.301 . S
O787 U766 2.449 . S
O787 C783 1.282 . S
H788 C761 0.931 . S
H789 C763 0.929 . S
H790 C764 0.930 . S
H791 C765 0.931 . S
H792 C772 0.932 . S
H793 C773 0.930 . S
H794 C774 0.929 . S
H795 C776 0.930 . S
H796 C778 0.932 . S
H797 C779 0.929 . S
H798 C780 0.928 . S
H799 C782 0.932 . S
C800 C801 1.264 . S
C800 C805 1.479 . S
C800 C810 1.465 . S
C801 C800 1.264 . S
C801 C803 1.339 . S
C801 H828 0.931 . S
C802 C803 1.395 . S
C802 C804 1.320 . S
C803 C801 1.339 . S
C803 C802 1.395 . S
C803 H829 0.929 . S
C804 C802 1.320 . S
C804 C805 1.405 . S
C804 H830 0.930 . S
C805 C800 1.479 . S
C805 C804 1.405 . S
C805 H831 0.931 . S
U806 O807 2.454 . S
U806 O808 2.458 . S
U806 C809 2.984 . S
U806 C810 2.847 . S
U806 C823 2.882 . S
U806 O824 2.441 . S
U806 O825 2.420 . S
U806 O826 2.455 . S
U806 O827 2.449 . S
O807 U806 2.454 . S
O807 C809 1.353 . S
O808 U806 2.458 . S
O808 C809 1.286 . S
C809 U806 2.984 . S
C809 O807 1.353 . S
C809 O808 1.286 . S
C809 C811 1.363 . S
C810 C800 1.465 . S
C810 U806 2.847 . S
C810 O824 1.249 . S
C810 O825 1.202 . S
C811 C809 1.363 . S
C811 C813 1.408 . S
C811 C816 1.342 . S
C812 C813 1.310 . S
C812 C815 1.461 . S
C812 H832 0.932 . S
C813 C811 1.408 . S
C813 C812 1.310 . S
C813 H833 0.930 . S
C814 C815 1.474 . S
C814 C816 1.285 . S
C814 H834 0.929 . S
C815 C812 1.461 . S
C815 C814 1.474 . S
C816 C811 1.342 . S
C816 C814 1.285 . S
C816 H835 0.930 . S
C817 C820 1.424 . S
C817 C822 1.245 . S
C817 C823 1.428 . S
C818 C821 1.260 . S
C818 C822 1.477 . S
C818 H836 0.932 . S
C819 C820 1.384 . S
C819 C821 1.479 . S
C819 H837 0.929 . S
C820 C817 1.424 . S
C820 C819 1.384 . S
C820 H838 0.928 . S
C821 C818 1.260 . S
C821 C819 1.479 . S
C822 C817 1.245 . S
C822 C818 1.477 . S
C822 H839 0.932 . S
C823 U806 2.882 . S
C823 C817 1.428 . S
C823 O826 1.301 . S
C823 O827 1.282 . S
O824 U806 2.441 . S
O824 C810 1.249 . S
O825 U806 2.420 . S
O825 C810 1.202 . S
O826 U806 2.455 . S
O826 C823 1.301 . S
O827 U806 2.449 . S
O827 C823 1.282 . S
H828 C801 0.931 . S
H829 C803 0.929 . S
H830 C804 0.930 . S
H831 C805 0.931 . S
H832 C812 0.932 . S
H833 C813 0.930 . S
H834 C814 0.929 . S
H835 C816 0.930 . S
H836 C818 0.932 . S
H837 C819 0.929 . S
H838 C820 0.928 . S
H839 C822 0.932 . S
C840 C841 1.264 . S
C840 C845 1.479 . S
C840 C850 1.465 . S
C841 C840 1.264 . S
C841 C843 1.339 . S
C841 H868 0.931 . S
C842 C843 1.395 . S
C842 C844 1.320 . S
C843 C841 1.339 . S
C843 C842 1.395 . S
C843 H869 0.929 . S
C844 C842 1.320 . S
C844 C845 1.405 . S
C844 H870 0.930 . S
C845 C840 1.479 . S
C845 C844 1.405 . S
C845 H871 0.931 . S
U846 O847 2.454 . S
U846 O848 2.458 . S
U846 C849 2.984 . S
U846 C850 2.847 . S
U846 C863 2.882 . S
U846 O864 2.441 . S
U846 O865 2.420 . S
U846 O866 2.455 . S
U846 O867 2.449 . S
O847 U846 2.454 . S
O847 C849 1.353 . S
O848 U846 2.458 . S
O848 C849 1.286 . S
C849 U846 2.984 . S
C849 O847 1.353 . S
C849 O848 1.286 . S
C849 C851 1.363 . S
C850 C840 1.465 . S
C850 U846 2.847 . S
C850 O864 1.249 . S
C850 O865 1.202 . S
C851 C849 1.363 . S
C851 C853 1.408 . S
C851 C856 1.342 . S
C852 C853 1.310 . S
C852 C855 1.461 . S
C852 H872 0.932 . S
C853 C851 1.408 . S
C853 C852 1.310 . S
C853 H873 0.930 . S
C854 C855 1.474 . S
C854 C856 1.285 . S
C854 H874 0.929 . S
C855 C852 1.461 . S
C855 C854 1.474 . S
C856 C851 1.342 . S
C856 C854 1.285 . S
C856 H875 0.930 . S
C857 C860 1.424 . S
C857 C862 1.245 . S
C857 C863 1.428 . S
C858 C861 1.260 . S
C858 C862 1.477 . S
C858 H876 0.932 . S
C859 C860 1.384 . S
C859 C861 1.479 . S
C859 H877 0.929 . S
C860 C857 1.424 . S
C860 C859 1.384 . S
C860 H878 0.928 . S
C861 C858 1.260 . S
C861 C859 1.479 . S
C862 C857 1.245 . S
C862 C858 1.477 . S
C862 H879 0.932 . S
C863 U846 2.882 . S
C863 C857 1.428 . S
C863 O866 1.301 . S
C863 O867 1.282 . S
O864 U846 2.441 . S
O864 C850 1.249 . S
O865 U846 2.420 . S
O865 C850 1.202 . S
O866 U846 2.455 . S
O866 C863 1.301 . S
O867 U846 2.449 . S
O867 C863 1.282 . S
H868 C841 0.931 . S
H869 C843 0.929 . S
H870 C844 0.930 . S
H871 C845 0.931 . S
H872 C852 0.932 . S
H873 C853 0.930 . S
H874 C854 0.929 . S
H875 C856 0.930 . S
H876 C858 0.932 . S
H877 C859 0.929 . S
H878 C860 0.928 . S
H879 C862 0.932 . S
C880 C881 1.264 . S
C880 C885 1.479 . S
C880 C890 1.465 . S
C881 C880 1.264 . S
C881 C883 1.339 . S
C881 H908 0.931 . S
C882 C883 1.395 . S
C882 C884 1.320 . S
C883 C881 1.339 . S
C883 C882 1.395 . S
C883 H909 0.929 . S
C884 C882 1.320 . S
C884 C885 1.405 . S
C884 H910 0.930 . S
C885 C880 1.479 . S
C885 C884 1.405 . S
C885 H911 0.931 . S
U886 O887 2.454 . S
U886 O888 2.458 . S
U886 C889 2.984 . S
U886 C890 2.847 . S
U886 C903 2.882 . S
U886 O904 2.441 . S
U886 O905 2.420 . S
U886 O906 2.455 . S
U886 O907 2.449 . S
O887 U886 2.454 . S
O887 C889 1.353 . S
O888 U886 2.458 . S
O888 C889 1.286 . S
C889 U886 2.984 . S
C889 O887 1.353 . S
C889 O888 1.286 . S
C889 C891 1.363 . S
C890 C880 1.465 . S
C890 U886 2.847 . S
C890 O904 1.249 . S
C890 O905 1.202 . S
C891 C889 1.363 . S
C891 C893 1.408 . S
C891 C896 1.342 . S
C892 C893 1.310 . S
C892 C895 1.461 . S
C892 H912 0.932 . S
C893 C891 1.408 . S
C893 C892 1.310 . S
C893 H913 0.930 . S
C894 C895 1.474 . S
C894 C896 1.285 . S
C894 H914 0.929 . S
C895 C892 1.461 . S
C895 C894 1.474 . S
C896 C891 1.342 . S
C896 C894 1.285 . S
C896 H915 0.930 . S
C897 C900 1.424 . S
C897 C902 1.245 . S
C897 C903 1.428 . S
C898 C901 1.260 . S
C898 C902 1.477 . S
C898 H916 0.932 . S
C899 C900 1.384 . S
C899 C901 1.479 . S
C899 H917 0.929 . S
C900 C897 1.424 . S
C900 C899 1.384 . S
C900 H918 0.928 . S
C901 C898 1.260 . S
C901 C899 1.479 . S
C902 C897 1.245 . S
C902 C898 1.477 . S
C902 H919 0.932 . S
C903 U886 2.882 . S
C903 C897 1.428 . S
C903 O906 1.301 . S
C903 O907 1.282 . S
O904 U886 2.441 . S
O904 C890 1.249 . S
O905 U886 2.420 . S
O905 C890 1.202 . S
O906 U886 2.455 . S
O906 C903 1.301 . S
O907 U886 2.449 . S
O907 C903 1.282 . S
H908 C881 0.931 . S
H909 C883 0.929 . S
H910 C884 0.930 . S
H911 C885 0.931 . S
H912 C892 0.932 . S
H913 C893 0.930 . S
H914 C894 0.929 . S
H915 C896 0.930 . S
H916 C898 0.932 . S
H917 C899 0.929 . S
H918 C900 0.928 . S
H919 C902 0.932 . S
C920 C921 1.264 . S
C920 C925 1.479 . S
C920 C930 1.465 . S
C921 C920 1.264 . S
C921 C923 1.339 . S
C921 H948 0.931 . S
C922 C923 1.395 . S
C922 C924 1.320 . S
C923 C921 1.339 . S
C923 C922 1.395 . S
C923 H949 0.929 . S
C924 C922 1.320 . S
C924 C925 1.405 . S
C924 H950 0.930 . S
C925 C920 1.479 . S
C925 C924 1.405 . S
C925 H951 0.931 . S
U926 O927 2.454 . S
U926 O928 2.458 . S
U926 C929 2.984 . S
U926 C930 2.847 . S
U926 C943 2.882 . S
U926 O944 2.441 . S
U926 O945 2.420 . S
U926 O946 2.455 . S
U926 O947 2.449 . S
O927 U926 2.454 . S
O927 C929 1.353 . S
O928 U926 2.458 . S
O928 C929 1.286 . S
C929 U926 2.984 . S
C929 O927 1.353 . S
C929 O928 1.286 . S
C929 C931 1.363 . S
C930 C920 1.465 . S
C930 U926 2.847 . S
C930 O944 1.249 . S
C930 O945 1.202 . S
C931 C929 1.363 . S
C931 C933 1.408 . S
C931 C936 1.342 . S
C932 C933 1.310 . S
C932 C935 1.461 . S
C932 H952 0.932 . S
C933 C931 1.408 . S
C933 C932 1.310 . S
C933 H953 0.930 . S
C934 C935 1.474 . S
C934 C936 1.285 . S
C934 H954 0.929 . S
C935 C932 1.461 . S
C935 C934 1.474 . S
C936 C931 1.342 . S
C936 C934 1.285 . S
C936 H955 0.930 . S
C937 C940 1.424 . S
C937 C942 1.245 . S
C937 C943 1.428 . S
C938 C941 1.260 . S
C938 C942 1.477 . S
C938 H956 0.932 . S
C939 C940 1.384 . S
C939 C941 1.479 . S
C939 H957 0.929 . S
C940 C937 1.424 . S
C940 C939 1.384 . S
C940 H958 0.928 . S
C941 C938 1.260 . S
C941 C939 1.479 . S
C942 C937 1.245 . S
C942 C938 1.477 . S
C942 H959 0.932 . S
C943 U926 2.882 . S
C943 C937 1.428 . S
C943 O946 1.301 . S
C943 O947 1.282 . S
O944 U926 2.441 . S
O944 C930 1.249 . S
O945 U926 2.420 . S
O945 C930 1.202 . S
O946 U926 2.455 . S
O946 C943 1.301 . S
O947 U926 2.449 . S
O947 C943 1.282 . S
H948 C921 0.931 . S
H949 C923 0.929 . S
H950 C924 0.930 . S
H951 C925 0.931 . S
H952 C932 0.932 . S
H953 C933 0.930 . S
H954 C934 0.929 . S
H955 C936 0.930 . S
H956 C938 0.932 . S
H957 C939 0.929 . S
H958 C940 0.928 . S
H959 C942 0.932 . S
C960 O986 1.283 . S
C960 O1004 1.283 . S
C961 O987 1.283 . S
C961 O1002 1.283 . S
C962 O988 1.283 . S
C962 O1005 1.283 . S
C963 O989 1.283 . S
C963 O1003 1.283 . S
C964 O990 1.283 . S
C964 O999 1.283 . S
C965 O991 1.283 . S
C965 O1001 1.283 . S
C966 O992 1.283 . S
C966 O998 1.283 . S
C967 O993 1.283 . S
C967 O1000 1.283 . S
C968 O994 1.283 . S
C968 O1009 1.283 . S
C969 O995 1.283 . S
C969 O1007 1.283 . S
C970 O996 1.283 . S
C970 O1008 1.283 . S
C971 O997 1.283 . S
C971 O1006 1.283 . S
Eu972 O973 2.370 1_455 S
Eu972 O974 2.370 . S
Eu972 O977 2.370 1_455 S
Eu972 O978 2.370 . S
Eu972 O986 2.363 . S
Eu972 O987 2.363 . S
Eu972 O1000 2.363 . S
Eu972 O1001 2.363 1_455 S
O973 Eu972 2.370 1_655 S
O973 Eu975 2.356 1_565 S
O973 Eu980 2.358 1_665 S
O974 Eu972 2.370 . S
O974 Eu976 2.358 1_565 S
O974 Eu979 2.357 1_565 S
Eu975 O973 2.356 1_545 S
Eu975 O977 2.356 1_545 S
Eu975 O981 2.384 . S
Eu975 O982 2.384 . S
Eu975 O990 2.386 . S
Eu975 O991 2.340 1_545 S
Eu975 O1006 2.363 . S
Eu975 O1007 2.363 . S
Eu976 O974 2.358 1_545 S
Eu976 O978 2.358 1_545 S
Eu976 O983 2.382 . S
Eu976 O984 2.382 . S
Eu976 O992 2.383 . S
Eu976 O993 2.343 1_545 S
Eu976 O1008 2.363 . S
Eu976 O1009 2.363 . S
O977 Eu972 2.370 1_655 S
O977 Eu975 2.356 1_565 S
O977 Eu979 2.357 1_665 S
O978 Eu972 2.370 . S
O978 Eu976 2.358 1_565 S
O978 Eu980 2.358 1_565 S
Eu979 O974 2.357 1_545 S
Eu979 O977 2.357 1_445 S
Eu979 O981 2.383 1_455 S
Eu979 O984 2.383 . S
Eu979 O996 2.363 . S
Eu979 O997 2.363 1_455 S
Eu979 O1004 2.341 1_545 S
Eu979 O1005 2.385 . S
Eu980 O973 2.358 1_445 S
Eu980 O978 2.358 1_545 S
Eu980 O982 2.383 1_455 S
Eu980 O983 2.382 . S
Eu980 O994 2.363 . S
Eu980 O995 2.363 1_455 S
Eu980 O1002 2.342 1_545 S
Eu980 O1003 2.384 . S
O981 Eu975 2.384 . S
O981 Eu979 2.383 1_655 S
O981 Eu985 2.370 1_655 S
O982 Eu975 2.384 . S
O982 Eu980 2.383 1_655 S
O982 Eu985 2.370 1_655 S
O983 Eu976 2.382 . S
O983 Eu980 2.382 . S
O983 Eu985 2.370 . S
O984 Eu976 2.382 . S
O984 Eu979 2.383 . S
O984 Eu985 2.370 . S
Eu985 O981 2.370 1_455 S
Eu985 O982 2.370 1_455 S
Eu985 O983 2.370 . S
Eu985 O984 2.370 . S
Eu985 O988 2.363 . S
Eu985 O989 2.363 . S
Eu985 O998 2.363 . S
Eu985 O999 2.363 1_455 S
O986 C960 1.283 . S
O986 Eu972 2.363 . S
O987 C961 1.283 . S
O987 Eu972 2.363 . S
O988 C962 1.283 . S
O988 Eu985 2.363 . S
O989 C963 1.283 . S
O989 Eu985 2.363 . S
O990 C964 1.283 . S
O990 Eu975 2.386 . S
O991 C965 1.283 . S
O991 Eu975 2.340 1_565 S
O992 C966 1.283 . S
O992 Eu976 2.383 . S
O993 C967 1.283 . S
O993 Eu976 2.343 1_565 S
O994 C968 1.283 . S
O994 Eu980 2.363 . S
O995 C969 1.283 . S
O995 Eu980 2.363 1_655 S
O996 C970 1.283 . S
O996 Eu979 2.363 . S
O997 C971 1.283 . S
O997 Eu979 2.363 1_655 S
O998 C966 1.283 . S
O998 Eu985 2.363 . S
O999 C964 1.283 . S
O999 Eu985 2.363 1_655 S
O1000 C967 1.283 . S
O1000 Eu972 2.363 . S
O1001 C965 1.283 . S
O1001 Eu972 2.363 1_655 S
O1002 C961 1.283 . S
O1002 Eu980 2.342 1_565 S
O1003 C963 1.283 . S
O1003 Eu980 2.384 . S
O1004 C960 1.283 . S
O1004 Eu979 2.341 1_565 S
O1005 C962 1.283 . S
O1005 Eu979 2.385 . S
O1006 C971 1.283 . S
O1006 Eu975 2.363 . S
O1007 C969 1.283 . S
O1007 Eu975 2.363 . S
O1008 C970 1.283 . S
O1008 Eu976 2.363 . S
O1009 C968 1.283 . S
O1009 Eu976 2.363 . S
C1010 O1036 1.283 . S
C1010 O1054 1.283 . S
C1011 O1037 1.283 . S
C1011 O1052 1.283 . S
C1012 O1038 1.283 . S
C1012 O1055 1.283 . S
C1013 O1039 1.283 . S
C1013 O1053 1.283 . S
C1014 O1040 1.283 . S
C1014 O1049 1.283 . S
C1015 O1041 1.283 . S
C1015 O1051 1.283 . S
C1016 O1042 1.283 . S
C1016 O1048 1.283 . S
C1017 O1043 1.283 . S
C1017 O1050 1.283 . S
C1018 O1044 1.283 . S
C1018 O1059 1.283 . S
C1019 O1045 1.283 . S
C1019 O1057 1.283 . S
C1020 O1046 1.283 . S
C1020 O1058 1.283 . S
C1021 O1047 1.283 . S
C1021 O1056 1.283 . S
Eu1022 O1023 2.388 . S
Eu1022 O1024 2.352 1_545 S
Eu1022 O1027 2.352 1_545 S
Eu1022 O1028 2.388 . S
Eu1022 O1036 2.332 1_545 S
Eu1022 O1037 2.394 . S
Eu1022 O1050 2.363 . S
Eu1022 O1051 2.363 . S
O1023 Eu1022 2.388 . S
O1023 Eu1025 2.396 . S
O1023 Eu1030 2.377 . S
O1024 Eu1022 2.352 1_565 S
O1024 Eu1026 2.356 1_565 S
O1024 Eu1029 2.373 . S
Eu1025 O1023 2.396 . S
Eu1025 O1027 2.355 1_545 S
Eu1025 O1031 2.345 1_544 S
Eu1025 O1032 2.386 1_554 S
Eu1025 O1040 2.354 1_554 S
Eu1025 O1041 2.371 . S
Eu1025 O1056 2.328 1_545 S
Eu1025 O1057 2.398 . S
Eu1026 O1024 2.356 1_545 S
Eu1026 O1028 2.396 . S
Eu1026 O1033 2.385 1_554 S
Eu1026 O1034 2.345 1_544 S
Eu1026 O1042 2.353 1_554 S
Eu1026 O1043 2.372 . S
Eu1026 O1058 2.329 1_545 S
Eu1026 O1059 2.397 . S
O1027 Eu1022 2.352 1_565 S
O1027 Eu1025 2.355 1_565 S
O1027 Eu1029 2.373 . S
O1028 Eu1022 2.388 . S
O1028 Eu1026 2.396 . S
O1028 Eu1030 2.377 . S
Eu1029 O1024 2.373 . S
Eu1029 O1027 2.373 . S
Eu1029 O1031 2.367 1_554 S
Eu1029 O1034 2.367 1_554 S
Eu1029 O1046 2.363 . S
Eu1029 O1047 2.363 . S
Eu1029 O1054 2.368 . S
Eu1029 O1055 2.357 1_554 S
Eu1030 O1023 2.377 . S
Eu1030 O1028 2.377 . S
Eu1030 O1032 2.363 1_554 S
Eu1030 O1033 2.363 1_554 S
Eu1030 O1044 2.363 . S
Eu1030 O1045 2.363 . S
Eu1030 O1052 2.375 . S
Eu1030 O1053 2.350 1_554 S
O1031 Eu1025 2.345 1_566 S
O1031 Eu1029 2.367 1_556 S
O1031 Eu1035 2.348 1_565 S
O1032 Eu1025 2.386 1_556 S
O1032 Eu1030 2.363 1_556 S
O1032 Eu1035 2.393 . S
O1033 Eu1026 2.385 1_556 S
O1033 Eu1030 2.363 1_556 S
O1033 Eu1035 2.393 . S
O1034 Eu1026 2.345 1_566 S
O1034 Eu1029 2.367 1_556 S
O1034 Eu1035 2.348 1_565 S
Eu1035 O1031 2.348 1_545 S
Eu1035 O1032 2.393 . S
Eu1035 O1033 2.393 . S
Eu1035 O1034 2.348 1_545 S
Eu1035 O1038 2.325 1_545 S
Eu1035 O1039 2.401 . S
Eu1035 O1048 2.363 . S
Eu1035 O1049 2.363 . S
O1036 C1010 1.283 . S
O1036 Eu1022 2.332 1_565 S
O1037 C1011 1.283 . S
O1037 Eu1022 2.394 . S
O1038 C1012 1.283 . S
O1038 Eu1035 2.325 1_565 S
O1039 C1013 1.283 . S
O1039 Eu1035 2.401 . S
O1040 C1014 1.283 . S
O1040 Eu1025 2.354 1_556 S
O1041 C1015 1.283 . S
O1041 Eu1025 2.371 . S
O1042 C1016 1.283 . S
O1042 Eu1026 2.353 1_556 S
O1043 C1017 1.283 . S
O1043 Eu1026 2.372 . S
O1044 C1018 1.283 . S
O1044 Eu1030 2.363 . S
O1045 C1019 1.283 . S
O1045 Eu1030 2.363 . S
O1046 C1020 1.283 . S
O1046 Eu1029 2.363 . S
O1047 C1021 1.283 . S
O1047 Eu1029 2.363 . S
O1048 C1016 1.283 . S
O1048 Eu1035 2.363 . S
O1049 C1014 1.283 . S
O1049 Eu1035 2.363 . S
O1050 C1017 1.283 . S
O1050 Eu1022 2.363 . S
O1051 C1015 1.283 . S
O1051 Eu1022 2.363 . S
O1052 C1011 1.283 . S
O1052 Eu1030 2.375 . S
O1053 C1013 1.283 . S
O1053 Eu1030 2.350 1_556 S
O1054 C1010 1.283 . S
O1054 Eu1029 2.368 . S
O1055 C1012 1.283 . S
O1055 Eu1029 2.357 1_556 S
O1056 C1021 1.283 . S
O1056 Eu1025 2.328 1_565 S
O1057 C1019 1.283 . S
O1057 Eu1025 2.398 . S
O1058 C1020 1.283 . S
O1058 Eu1026 2.329 1_565 S
O1059 C1018 1.283 . S
O1059 Eu1026 2.397 . S
C1060 O1086 1.283 . S
C1060 O1104 1.283 . S
C1061 O1087 1.283 . S
C1061 O1102 1.283 . S
C1062 O1088 1.283 . S
C1062 O1105 1.283 . S
C1063 O1089 1.283 . S
C1063 O1103 1.283 . S
C1064 O1090 1.283 . S
C1064 O1099 1.283 . S
C1065 O1091 1.283 . S
C1065 O1101 1.283 . S
C1066 O1092 1.283 . S
C1066 O1098 1.283 . S
C1067 O1093 1.283 . S
C1067 O1100 1.283 . S
C1068 O1094 1.283 . S
C1068 O1109 1.283 . S
C1069 O1095 1.283 . S
C1069 O1107 1.283 . S
C1070 O1096 1.283 . S
C1070 O1108 1.283 . S
C1071 O1097 1.283 . S
C1071 O1106 1.283 . S
Eu1072 O1073 2.333 1_454 S
Eu1072 O1074 2.408 . S
Eu1072 O1077 2.372 1_455 S
Eu1072 O1078 2.369 1_554 S
Eu1072 O1086 2.396 . S
Eu1072 O1087 2.330 1_554 S
Eu1072 O1100 2.394 . S
Eu1072 O1101 2.332 1_455 S
O1073 Eu1072 2.333 1_656 S
O1073 Eu1075 2.353 1_556 S
O1073 Eu1080 2.351 1_655 S
O1074 Eu1072 2.408 . S
O1074 Eu1076 2.390 . S
O1074 Eu1079 2.387 . S
Eu1075 O1073 2.353 1_554 S
Eu1075 O1077 2.388 . S
Eu1075 O1081 2.388 . S
Eu1075 O1082 2.353 1_554 S
Eu1075 O1090 2.363 . S
Eu1075 O1091 2.363 . S
Eu1075 O1106 2.393 . S
Eu1075 O1107 2.333 1_554 S
Eu1076 O1074 2.390 . S
Eu1076 O1078 2.350 1_554 S
Eu1076 O1083 2.350 1_554 S
Eu1076 O1084 2.390 . S
Eu1076 O1092 2.363 . S
Eu1076 O1093 2.363 . S
Eu1076 O1108 2.396 . S
Eu1076 O1109 2.330 1_554 S
O1077 Eu1072 2.372 1_655 S
O1077 Eu1075 2.388 . S
O1077 Eu1079 2.354 1_655 S
O1078 Eu1072 2.369 1_556 S
O1078 Eu1076 2.350 1_556 S
O1078 Eu1080 2.389 . S
Eu1079 O1074 2.387 . S
Eu1079 O1077 2.354 1_455 S
Eu1079 O1081 2.354 1_455 S
Eu1079 O1084 2.387 . S
Eu1079 O1096 2.391 . S
Eu1079 O1097 2.335 1_455 S
Eu1079 O1104 2.363 . S
Eu1079 O1105 2.363 . S
Eu1080 O1073 2.351 1_455 S
Eu1080 O1078 2.389 . S
Eu1080 O1082 2.351 1_455 S
Eu1080 O1083 2.389 . S
Eu1080 O1094 2.395 . S
Eu1080 O1095 2.331 1_455 S
Eu1080 O1102 2.363 . S
Eu1080 O1103 2.363 . S
O1081 Eu1075 2.388 . S
O1081 Eu1079 2.354 1_655 S
O1081 Eu1085 2.371 1_655 S
O1082 Eu1075 2.353 1_556 S
O1082 Eu1080 2.351 1_655 S
O1082 Eu1085 2.335 1_656 S
O1083 Eu1076 2.350 1_556 S
O1083 Eu1080 2.389 . S
O1083 Eu1085 2.370 1_556 S
O1084 Eu1076 2.390 . S
O1084 Eu1079 2.387 . S
O1084 Eu1085 2.406 . S
Eu1085 O1081 2.371 1_455 S
Eu1085 O1082 2.335 1_454 S
Eu1085 O1083 2.370 1_554 S
Eu1085 O1084 2.406 . S
Eu1085 O1088 2.394 . S
Eu1085 O1089 2.332 1_554 S
Eu1085 O1098 2.392 . S
Eu1085 O1099 2.334 1_455 S
O1086 C1060 1.283 . S
O1086 Eu1072 2.396 . S
O1087 C1061 1.283 . S
O1087 Eu1072 2.330 1_556 S
O1088 C1062 1.283 . S
O1088 Eu1085 2.394 . S
O1089 C1063 1.283 . S
O1089 Eu1085 2.332 1_556 S
O1090 C1064 1.283 . S
O1090 Eu1075 2.363 . S
O1091 C1065 1.283 . S
O1091 Eu1075 2.363 . S
O1092 C1066 1.283 . S
O1092 Eu1076 2.363 . S
O1093 C1067 1.283 . S
O1093 Eu1076 2.363 . S
O1094 C1068 1.283 . S
O1094 Eu1080 2.395 . S
O1095 C1069 1.283 . S
O1095 Eu1080 2.331 1_655 S
O1096 C1070 1.283 . S
O1096 Eu1079 2.391 . S
O1097 C1071 1.283 . S
O1097 Eu1079 2.335 1_655 S
O1098 C1066 1.283 . S
O1098 Eu1085 2.392 . S
O1099 C1064 1.283 . S
O1099 Eu1085 2.334 1_655 S
O1100 C1067 1.283 . S
O1100 Eu1072 2.394 . S
O1101 C1065 1.283 . S
O1101 Eu1072 2.332 1_655 S
O1102 C1061 1.283 . S
O1102 Eu1080 2.363 . S
O1103 C1063 1.283 . S
O1103 Eu1080 2.363 . S
O1104 C1060 1.283 . S
O1104 Eu1079 2.363 . S
O1105 C1062 1.283 . S
O1105 Eu1079 2.363 . S
O1106 C1071 1.283 . S
O1106 Eu1075 2.393 . S
O1107 C1069 1.283 . S
O1107 Eu1075 2.333 1_556 S
O1108 C1070 1.283 . S
O1108 Eu1076 2.396 . S
O1109 C1068 1.283 . S
O1109 Eu1076 2.330 1_556 S
C1110 O1136 1.283 . S
C1110 O1154 1.283 . S
C1111 O1137 1.283 . S
C1111 O1152 1.283 . S
C1112 O1138 1.283 . S
C1112 O1155 1.283 . S
C1113 O1139 1.283 . S
C1113 O1153 1.283 . S
C1114 O1140 1.283 . S
C1114 O1149 1.283 . S
C1115 O1141 1.283 . S
C1115 O1151 1.283 . S
C1116 O1142 1.283 . S
C1116 O1148 1.283 . S
C1117 O1143 1.283 . S
C1117 O1150 1.283 . S
C1118 O1144 1.283 . S
C1118 O1159 1.283 . S
C1119 O1145 1.283 . S
C1119 O1157 1.283 . S
C1120 O1146 1.283 . S
C1120 O1158 1.283 . S
C1121 O1147 1.283 . S
C1121 O1156 1.283 . S
Eu1122 O1123 2.370 . S
Eu1122 O1124 2.370 . S
Eu1122 O1127 2.370 . S
Eu1122 O1128 2.370 . S
Eu1122 O1136 2.363 . S
Eu1122 O1137 2.363 . S
Eu1122 O1150 2.363 . S
Eu1122 O1151 2.363 . S
O1123 Eu1122 2.370 . S
O1123 Eu1125 2.381 . S
O1123 Eu1130 2.381 . S
O1124 Eu1122 2.370 . S
O1124 Eu1126 2.381 . S
O1124 Eu1129 2.382 . S
Eu1125 O1123 2.381 . S
Eu1125 O1127 2.381 . S
Eu1125 O1131 2.359 1_554 S
Eu1125 O1132 2.359 1_554 S
Eu1125 O1140 2.345 1_554 S
Eu1125 O1141 2.381 . S
Eu1125 O1156 2.363 . S
Eu1125 O1157 2.363 . S
Eu1126 O1124 2.381 . S
Eu1126 O1128 2.381 . S
Eu1126 O1133 2.359 1_554 S
Eu1126 O1134 2.359 1_554 S
Eu1126 O1142 2.344 1_554 S
Eu1126 O1143 2.382 . S
Eu1126 O1158 2.363 . S
Eu1126 O1159 2.363 . S
O1127 Eu1122 2.370 . S
O1127 Eu1125 2.381 . S
O1127 Eu1129 2.382 . S
O1128 Eu1122 2.370 . S
O1128 Eu1126 2.381 . S
O1128 Eu1130 2.381 . S
Eu1129 O1124 2.382 . S
Eu1129 O1127 2.382 . S
Eu1129 O1131 2.359 1_554 S
Eu1129 O1134 2.359 1_554 S
Eu1129 O1146 2.363 . S
Eu1129 O1147 2.363 . S
Eu1129 O1154 2.382 . S
Eu1129 O1155 2.344 1_554 S
Eu1130 O1123 2.381 . S
Eu1130 O1128 2.381 . S
Eu1130 O1132 2.360 1_554 S
Eu1130 O1133 2.360 1_554 S
Eu1130 O1144 2.363 . S
Eu1130 O1145 2.363 . S
Eu1130 O1152 2.380 . S
Eu1130 O1153 2.345 1_554 S
O1131 Eu1125 2.359 1_556 S
O1131 Eu1129 2.359 1_556 S
O1131 Eu1135 2.370 . S
O1132 Eu1125 2.359 1_556 S
O1132 Eu1130 2.360 1_556 S
O1132 Eu1135 2.370 . S
O1133 Eu1126 2.359 1_556 S
O1133 Eu1130 2.360 1_556 S
O1133 Eu1135 2.370 . S
O1134 Eu1126 2.359 1_556 S
O1134 Eu1129 2.359 1_556 S
O1134 Eu1135 2.370 . S
Eu1135 O1131 2.370 . S
Eu1135 O1132 2.370 . S
Eu1135 O1133 2.370 . S
Eu1135 O1134 2.370 . S
Eu1135 O1138 2.363 . S
Eu1135 O1139 2.363 . S
Eu1135 O1148 2.363 . S
Eu1135 O1149 2.363 . S
O1136 C1110 1.283 . S
O1136 Eu1122 2.363 . S
O1137 C1111 1.283 . S
O1137 Eu1122 2.363 . S
O1138 C1112 1.283 . S
O1138 Eu1135 2.363 . S
O1139 C1113 1.283 . S
O1139 Eu1135 2.363 . S
O1140 C1114 1.283 . S
O1140 Eu1125 2.345 1_556 S
O1141 C1115 1.283 . S
O1141 Eu1125 2.381 . S
O1142 C1116 1.283 . S
O1142 Eu1126 2.344 1_556 S
O1143 C1117 1.283 . S
O1143 Eu1126 2.382 . S
O1144 C1118 1.283 . S
O1144 Eu1130 2.363 . S
O1145 C1119 1.283 . S
O1145 Eu1130 2.363 . S
O1146 C1120 1.283 . S
O1146 Eu1129 2.363 . S
O1147 C1121 1.283 . S
O1147 Eu1129 2.363 . S
O1148 C1116 1.283 . S
O1148 Eu1135 2.363 . S
O1149 C1114 1.283 . S
O1149 Eu1135 2.363 . S
O1150 C1117 1.283 . S
O1150 Eu1122 2.363 . S
O1151 C1115 1.283 . S
O1151 Eu1122 2.363 . S
O1152 C1111 1.283 . S
O1152 Eu1130 2.380 . S
O1153 C1113 1.283 . S
O1153 Eu1130 2.345 1_556 S
O1154 C1110 1.283 . S
O1154 Eu1129 2.382 . S
O1155 C1112 1.283 . S
O1155 Eu1129 2.344 1_556 S
O1156 C1121 1.283 . S
O1156 Eu1125 2.363 . S
O1157 C1119 1.283 . S
O1157 Eu1125 2.363 . S
O1158 C1120 1.283 . S
O1158 Eu1126 2.363 . S
O1159 C1118 1.283 . S
O1159 Eu1126 2.363 . S
C1160 O1186 1.283 . S
C1160 O1204 1.283 . S
C1161 O1187 1.283 . S
C1161 O1202 1.283 . S
C1162 O1188 1.283 . S
C1162 O1205 1.283 . S
C1163 O1189 1.283 . S
C1163 O1203 1.283 . S
C1164 O1190 1.283 . S
C1164 O1199 1.283 . S
C1165 O1191 1.283 . S
C1165 O1201 1.283 . S
C1166 O1192 1.283 . S
C1166 O1198 1.283 . S
C1167 O1193 1.283 . S
C1167 O1200 1.283 . S
C1168 O1194 1.283 . S
C1168 O1209 1.283 . S
C1169 O1195 1.283 . S
C1169 O1207 1.283 . S
C1170 O1196 1.283 . S
C1170 O1208 1.283 . S
C1171 O1197 1.283 . S
C1171 O1206 1.283 . S
Eu1172 O1173 2.347 1_455 S
Eu1172 O1174 2.394 . S
Eu1172 O1177 2.347 1_455 S
Eu1172 O1178 2.394 . S
Eu1172 O1186 2.363 . S
Eu1172 O1187 2.363 . S
Eu1172 O1200 2.403 . S
Eu1172 O1201 2.323 1_455 S
O1173 Eu1172 2.347 1_655 S
O1173 Eu1175 2.370 . S
O1173 Eu1180 2.347 1_655 S
O1174 Eu1172 2.394 . S
O1174 Eu1176 2.370 . S
O1174 Eu1179 2.394 . S
Eu1175 O1173 2.370 . S
Eu1175 O1177 2.370 . S
Eu1175 O1181 2.370 . S
Eu1175 O1182 2.370 . S
Eu1175 O1190 2.363 . S
Eu1175 O1191 2.363 . S
Eu1175 O1206 2.363 . S
Eu1175 O1207 2.363 . S
Eu1176 O1174 2.370 . S
Eu1176 O1178 2.370 . S
Eu1176 O1183 2.370 . S
Eu1176 O1184 2.370 . S
Eu1176 O1192 2.363 . S
Eu1176 O1193 2.363 . S
Eu1176 O1208 2.363 . S
Eu1176 O1209 2.363 . S
O1177 Eu1172 2.347 1_655 S
O1177 Eu1175 2.370 . S
O1177 Eu1179 2.347 1_655 S
O1178 Eu1172 2.394 . S
O1178 Eu1176 2.370 . S
O1178 Eu1180 2.393 . S
Eu1179 O1174 2.394 . S
Eu1179 O1177 2.347 1_455 S
Eu1179 O1181 2.347 1_455 S
Eu1179 O1184 2.394 . S
Eu1179 O1196 2.403 . S
Eu1179 O1197 2.323 1_455 S
Eu1179 O1204 2.363 . S
Eu1179 O1205 2.363 . S
Eu1180 O1173 2.347 1_455 S
Eu1180 O1178 2.393 . S
Eu1180 O1182 2.347 1_455 S
Eu1180 O1183 2.393 . S
Eu1180 O1194 2.402 . S
Eu1180 O1195 2.324 1_455 S
Eu1180 O1202 2.363 . S
Eu1180 O1203 2.363 . S
O1181 Eu1175 2.370 . S
O1181 Eu1179 2.347 1_655 S
O1181 Eu1185 2.347 1_655 S
O1182 Eu1175 2.370 . S
O1182 Eu1180 2.347 1_655 S
O1182 Eu1185 2.347 1_655 S
O1183 Eu1176 2.370 . S
O1183 Eu1180 2.393 . S
O1183 Eu1185 2.393 . S
O1184 Eu1176 2.370 . S
O1184 Eu1179 2.394 . S
O1184 Eu1185 2.393 . S
Eu1185 O1181 2.347 1_455 S
Eu1185 O1182 2.347 1_455 S
Eu1185 O1183 2.393 . S
Eu1185 O1184 2.393 . S
Eu1185 O1188 2.363 . S
Eu1185 O1189 2.363 . S
Eu1185 O1198 2.402 . S
Eu1185 O1199 2.324 1_455 S
O1186 C1160 1.283 . S
O1186 Eu1172 2.363 . S
O1187 C1161 1.283 . S
O1187 Eu1172 2.363 . S
O1188 C1162 1.283 . S
O1188 Eu1185 2.363 . S
O1189 C1163 1.283 . S
O1189 Eu1185 2.363 . S
O1190 C1164 1.283 . S
O1190 Eu1175 2.363 . S
O1191 C1165 1.283 . S
O1191 Eu1175 2.363 . S
O1192 C1166 1.283 . S
O1192 Eu1176 2.363 . S
O1193 C1167 1.283 . S
O1193 Eu1176 2.363 . S
O1194 C1168 1.283 . S
O1194 Eu1180 2.402 . S
O1195 C1169 1.283 . S
O1195 Eu1180 2.324 1_655 S
O1196 C1170 1.283 . S
O1196 Eu1179 2.403 . S
O1197 C1171 1.283 . S
O1197 Eu1179 2.323 1_655 S
O1198 C1166 1.283 . S
O1198 Eu1185 2.402 . S
O1199 C1164 1.283 . S
O1199 Eu1185 2.324 1_655 S
O1200 C1167 1.283 . S
O1200 Eu1172 2.403 . S
O1201 C1165 1.283 . S
O1201 Eu1172 2.323 1_655 S
O1202 C1161 1.283 . S
O1202 Eu1180 2.363 . S
O1203 C1163 1.283 . S
O1203 Eu1180 2.363 . S
O1204 C1160 1.283 . S
O1204 Eu1179 2.363 . S
O1205 C1162 1.283 . S
O1205 Eu1179 2.363 . S
O1206 C1171 1.283 . S
O1206 Eu1175 2.363 . S
O1207 C1169 1.283 . S
O1207 Eu1175 2.363 . S
O1208 C1170 1.283 . S
O1208 Eu1176 2.363 . S
O1209 C1168 1.283 . S
O1209 Eu1176 2.363 . S
C1210 O1236 1.283 . S
C1210 O1254 1.283 . S
C1211 O1237 1.283 . S
C1211 O1252 1.283 . S
C1212 O1238 1.283 . S
C1212 O1255 1.283 . S
C1213 O1239 1.283 . S
C1213 O1253 1.283 . S
C1214 O1240 1.283 . S
C1214 O1249 1.283 . S
C1215 O1241 1.283 . S
C1215 O1251 1.283 . S
C1216 O1242 1.283 . S
C1216 O1248 1.283 . S
C1217 O1243 1.283 . S
C1217 O1250 1.283 . S
C1218 O1244 1.283 . S
C1218 O1259 1.283 . S
C1219 O1245 1.283 . S
C1219 O1257 1.283 . S
C1220 O1246 1.283 . S
C1220 O1258 1.283 . S
C1221 O1247 1.283 . S
C1221 O1256 1.283 . S
Eu1222 O1223 2.370 . S
Eu1222 O1224 2.370 . S
Eu1222 O1227 2.370 . S
Eu1222 O1228 2.370 . S
Eu1222 O1236 2.363 . S
Eu1222 O1237 2.363 . S
Eu1222 O1250 2.363 . S
Eu1222 O1251 2.363 . S
O1223 Eu1222 2.370 . S
O1223 Eu1225 2.348 1_565 S
O1223 Eu1230 2.348 1_565 S
O1224 Eu1222 2.370 . S
O1224 Eu1226 2.348 1_565 S
O1224 Eu1229 2.347 1_565 S
Eu1225 O1223 2.348 1_545 S
Eu1225 O1227 2.348 1_545 S
Eu1225 O1231 2.392 . S
Eu1225 O1232 2.392 . S
Eu1225 O1240 2.400 . S
Eu1225 O1241 2.326 1_545 S
Eu1225 O1256 2.363 . S
Eu1225 O1257 2.363 . S
Eu1226 O1224 2.348 1_545 S
Eu1226 O1228 2.347 1_545 S
Eu1226 O1233 2.393 . S
Eu1226 O1234 2.393 . S
Eu1226 O1242 2.402 . S
Eu1226 O1243 2.324 1_545 S
Eu1226 O1258 2.363 . S
Eu1226 O1259 2.363 . S
O1227 Eu1222 2.370 . S
O1227 Eu1225 2.348 1_565 S
O1227 Eu1229 2.347 1_565 S
O1228 Eu1222 2.370 . S
O1228 Eu1226 2.347 1_565 S
O1228 Eu1230 2.348 1_565 S
Eu1229 O1224 2.347 1_545 S
Eu1229 O1227 2.347 1_545 S
Eu1229 O1231 2.393 . S
Eu1229 O1234 2.393 . S
Eu1229 O1246 2.363 . S
Eu1229 O1247 2.363 . S
Eu1229 O1254 2.324 1_545 S
Eu1229 O1255 2.402 . S
Eu1230 O1223 2.348 1_545 S
Eu1230 O1228 2.348 1_545 S
Eu1230 O1232 2.392 . S
Eu1230 O1233 2.392 . S
Eu1230 O1244 2.363 . S
Eu1230 O1245 2.363 . S
Eu1230 O1252 2.326 1_545 S
Eu1230 O1253 2.400 . S
O1231 Eu1225 2.392 . S
O1231 Eu1229 2.393 . S
O1231 Eu1235 2.370 . S
O1232 Eu1225 2.392 . S
O1232 Eu1230 2.392 . S
O1232 Eu1235 2.370 . S
O1233 Eu1226 2.393 . S
O1233 Eu1230 2.392 . S
O1233 Eu1235 2.370 . S
O1234 Eu1226 2.393 . S
O1234 Eu1229 2.393 . S
O1234 Eu1235 2.370 . S
Eu1235 O1231 2.370 . S
Eu1235 O1232 2.370 . S
Eu1235 O1233 2.370 . S
Eu1235 O1234 2.370 . S
Eu1235 O1238 2.363 . S
Eu1235 O1239 2.363 . S
Eu1235 O1248 2.363 . S
Eu1235 O1249 2.363 . S
O1236 C1210 1.283 . S
O1236 Eu1222 2.363 . S
O1237 C1211 1.283 . S
O1237 Eu1222 2.363 . S
O1238 C1212 1.283 . S
O1238 Eu1235 2.363 . S
O1239 C1213 1.283 . S
O1239 Eu1235 2.363 . S
O1240 C1214 1.283 . S
O1240 Eu1225 2.400 . S
O1241 C1215 1.283 . S
O1241 Eu1225 2.326 1_565 S
O1242 C1216 1.283 . S
O1242 Eu1226 2.402 . S
O1243 C1217 1.283 . S
O1243 Eu1226 2.324 1_565 S
O1244 C1218 1.283 . S
O1244 Eu1230 2.363 . S
O1245 C1219 1.283 . S
O1245 Eu1230 2.363 . S
O1246 C1220 1.283 . S
O1246 Eu1229 2.363 . S
O1247 C1221 1.283 . S
O1247 Eu1229 2.363 . S
O1248 C1216 1.283 . S
O1248 Eu1235 2.363 . S
O1249 C1214 1.283 . S
O1249 Eu1235 2.363 . S
O1250 C1217 1.283 . S
O1250 Eu1222 2.363 . S
O1251 C1215 1.283 . S
O1251 Eu1222 2.363 . S
O1252 C1211 1.283 . S
O1252 Eu1230 2.326 1_565 S
O1253 C1213 1.283 . S
O1253 Eu1230 2.400 . S
O1254 C1210 1.283 . S
O1254 Eu1229 2.324 1_565 S
O1255 C1212 1.283 . S
O1255 Eu1229 2.402 . S
O1256 C1221 1.283 . S
O1256 Eu1225 2.363 . S
O1257 C1219 1.283 . S
O1257 Eu1225 2.363 . S
O1258 C1220 1.283 . S
O1258 Eu1226 2.363 . S
O1259 C1218 1.283 . S
O1259 Eu1226 2.363 . S
C1260 C1261 1.387 . S
C1260 H1264 0.950 . S
C1260 C1269 1.390 . S
C1261 C1260 1.387 . S
C1261 C1263 1.387 . S
H1262 C1269 0.950 . S
C1263 C1261 1.387 . S
C1263 C1265 1.390 . S
C1263 H1267 0.950 . S
H1264 C1260 0.950 . S
C1265 C1263 1.390 . S
C1265 C1266 1.387 . S
C1265 H1268 0.950 . S
C1266 C1265 1.387 . S
C1266 C1269 1.387 . S
H1267 C1263 0.950 . S
H1268 C1265 0.950 . S
C1269 C1260 1.390 . S
C1269 H1262 0.950 . S
C1269 C1266 1.387 . S
C1270 C1271 1.387 . S
C1270 H1274 0.950 . S
C1270 C1279 1.390 . S
C1271 C1270 1.387 . S
C1271 C1273 1.387 . S
H1272 C1279 0.950 . S
C1273 C1271 1.387 . S
C1273 C1275 1.390 . S
C1273 H1277 0.950 . S
H1274 C1270 0.950 . S
C1275 C1273 1.390 . S
C1275 C1276 1.387 . S
C1275 H1278 0.950 . S
C1276 C1275 1.387 . S
C1276 C1279 1.387 . S
H1277 C1273 0.950 . S
H1278 C1275 0.950 . S
C1279 C1270 1.390 . S
C1279 H1272 0.950 . S
C1279 C1276 1.387 . S
C1280 C1281 1.387 . S
C1280 H1284 0.950 . S
C1280 C1289 1.390 . S
C1281 C1280 1.387 . S
C1281 C1283 1.387 . S
H1282 C1289 0.950 . S
C1283 C1281 1.387 . S
C1283 C1285 1.390 . S
C1283 H1287 0.950 . S
H1284 C1280 0.950 . S
C1285 C1283 1.390 . S
C1285 C1286 1.387 . S
C1285 H1288 0.950 . S
C1286 C1285 1.387 . S
C1286 C1289 1.387 . S
H1287 C1283 0.950 . S
H1288 C1285 0.950 . S
C1289 C1280 1.390 . S
C1289 H1282 0.950 . S
C1289 C1286 1.387 . S
C1290 C1291 1.387 . S
C1290 H1294 0.950 . S
C1290 C1299 1.390 . S
C1291 C1290 1.387 . S
C1291 C1293 1.387 . S
H1292 C1299 0.950 . S
C1293 C1291 1.387 . S
C1293 C1295 1.390 . S
C1293 H1297 0.950 . S
H1294 C1290 0.950 . S
C1295 C1293 1.390 . S
C1295 C1296 1.387 . S
C1295 H1298 0.950 . S
C1296 C1295 1.387 . S
C1296 C1299 1.387 . S
H1297 C1293 0.950 . S
H1298 C1295 0.950 . S
C1299 C1290 1.390 . S
C1299 H1292 0.950 . S
C1299 C1296 1.387 . S
C1300 C1301 1.387 . S
C1300 H1304 0.950 . S
C1300 C1309 1.390 . S
C1301 C1300 1.387 . S
C1301 C1303 1.387 . S
H1302 C1309 0.950 . S
C1303 C1301 1.387 . S
C1303 C1305 1.390 . S
C1303 H1307 0.950 . S
H1304 C1300 0.950 . S
C1305 C1303 1.390 . S
C1305 C1306 1.387 . S
C1305 H1308 0.950 . S
C1306 C1305 1.387 . S
C1306 C1309 1.387 . S
H1307 C1303 0.950 . S
H1308 C1305 0.950 . S
C1309 C1300 1.390 . S
C1309 H1302 0.950 . S
C1309 C1306 1.387 . S
C1310 C1311 1.387 . S
C1310 H1314 0.950 . S
C1310 C1319 1.390 . S
C1311 C1310 1.387 . S
C1311 C1313 1.387 . S
H1312 C1319 0.950 . S
C1313 C1311 1.387 . S
C1313 C1315 1.390 . S
C1313 H1317 0.950 . S
H1314 C1310 0.950 . S
C1315 C1313 1.390 . S
C1315 C1316 1.387 . S
C1315 H1318 0.950 . S
C1316 C1315 1.387 . S
C1316 C1319 1.387 . S
H1317 C1313 0.950 . S
H1318 C1315 0.950 . S
C1319 C1310 1.390 . S
C1319 H1312 0.950 . S
C1319 C1316 1.387 . S
C1320 C1321 1.387 . S
C1320 H1324 0.950 . S
C1320 C1329 1.390 . S
C1321 C1320 1.387 . S
C1321 C1323 1.387 . S
H1322 C1329 0.950 . S
C1323 C1321 1.387 . S
C1323 C1325 1.390 . S
C1323 H1327 0.950 . S
H1324 C1320 0.950 . S
C1325 C1323 1.390 . S
C1325 C1326 1.387 . S
C1325 H1328 0.950 . S
C1326 C1325 1.387 . S
C1326 C1329 1.387 . S
H1327 C1323 0.950 . S
H1328 C1325 0.950 . S
C1329 C1320 1.390 . S
C1329 H1322 0.950 . S
C1329 C1326 1.387 . S
C1330 C1331 1.387 . S
C1330 H1334 0.950 . S
C1330 C1339 1.390 . S
C1331 C1330 1.387 . S
C1331 C1333 1.387 . S
H1332 C1339 0.950 . S
C1333 C1331 1.387 . S
C1333 C1335 1.390 . S
C1333 H1337 0.950 . S
H1334 C1330 0.950 . S
C1335 C1333 1.390 . S
C1335 C1336 1.387 . S
C1335 H1338 0.950 . S
C1336 C1335 1.387 . S
C1336 C1339 1.387 . S
H1337 C1333 0.950 . S
H1338 C1335 0.950 . S
C1339 C1330 1.390 . S
C1339 H1332 0.950 . S
C1339 C1336 1.387 . S
C1340 C1341 1.387 . S
C1340 H1344 0.950 . S
C1340 C1349 1.390 . S
C1341 C1340 1.387 . S
C1341 C1343 1.387 . S
H1342 C1349 0.950 . S
C1343 C1341 1.387 . S
C1343 C1345 1.390 . S
C1343 H1347 0.950 . S
H1344 C1340 0.950 . S
C1345 C1343 1.390 . S
C1345 C1346 1.387 . S
C1345 H1348 0.950 . S
C1346 C1345 1.387 . S
C1346 C1349 1.387 . S
H1347 C1343 0.950 . S
H1348 C1345 0.950 . S
C1349 C1340 1.390 . S
C1349 H1342 0.950 . S
C1349 C1346 1.387 . S
C1350 C1351 1.387 . S
C1350 H1354 0.950 . S
C1350 C1359 1.390 . S
C1351 C1350 1.387 . S
C1351 C1353 1.387 . S
H1352 C1359 0.950 . S
C1353 C1351 1.387 . S
C1353 C1355 1.390 . S
C1353 H1357 0.950 . S
H1354 C1350 0.950 . S
C1355 C1353 1.390 . S
C1355 C1356 1.387 . S
C1355 H1358 0.950 . S
C1356 C1355 1.387 . S
C1356 C1359 1.387 . S
H1357 C1353 0.950 . S
H1358 C1355 0.950 . S
C1359 C1350 1.390 . S
C1359 H1352 0.950 . S
C1359 C1356 1.387 . S
C1360 C1361 1.387 . S
C1360 H1364 0.950 . S
C1360 C1369 1.390 . S
C1361 C1360 1.387 . S
C1361 C1363 1.387 . S
H1362 C1369 0.950 . S
C1363 C1361 1.387 . S
C1363 C1365 1.390 . S
C1363 H1367 0.950 . S
H1364 C1360 0.950 . S
C1365 C1363 1.390 . S
C1365 C1366 1.387 . S
C1365 H1368 0.950 . S
C1366 C1365 1.387 . S
C1366 C1369 1.387 . S
H1367 C1363 0.950 . S
H1368 C1365 0.950 . S
C1369 C1360 1.390 . S
C1369 H1362 0.950 . S
C1369 C1366 1.387 . S
C1370 C1371 1.387 . S
C1370 H1374 0.950 . S
C1370 C1379 1.390 . S
C1371 C1370 1.387 . S
C1371 C1373 1.387 . S
H1372 C1379 0.950 . S
C1373 C1371 1.387 . S
C1373 C1375 1.390 . S
C1373 H1377 0.950 . S
H1374 C1370 0.950 . S
C1375 C1373 1.390 . S
C1375 C1376 1.387 . S
C1375 H1378 0.950 . S
C1376 C1375 1.387 . S
C1376 C1379 1.387 . S
H1377 C1373 0.950 . S
H1378 C1375 0.950 . S
C1379 C1370 1.390 . S
C1379 H1372 0.950 . S
C1379 C1376 1.387 . S
C1380 C1381 1.397 . S
C1380 H1384 0.950 . S
C1380 C1389 1.390 . S
C1381 C1380 1.397 . S
C1381 C1383 1.378 1_554 S
H1382 C1389 0.950 . S
C1383 C1381 1.378 1_556 S
C1383 C1385 1.390 . S
C1383 H1387 0.950 . S
H1384 C1380 0.950 . S
C1385 C1383 1.390 . S
C1385 C1386 1.373 1_556 S
C1385 H1388 0.950 . S
C1386 C1385 1.373 1_554 S
C1386 C1389 1.402 . S
H1387 C1383 0.950 . S
H1388 C1385 0.950 . S
C1389 C1380 1.390 . S
C1389 H1382 0.950 . S
C1389 C1386 1.402 . S
C1390 C1391 1.402 . S
C1390 H1394 0.950 . S
C1390 C1399 1.390 . S
C1391 C1390 1.402 . S
C1391 C1393 1.373 1_554 S
H1392 C1399 0.950 . S
C1393 C1391 1.373 1_556 S
C1393 C1395 1.390 . S
C1393 H1397 0.950 . S
H1394 C1390 0.950 . S
C1395 C1393 1.390 . S
C1395 C1396 1.371 1_556 S
C1395 H1398 0.950 . S
C1396 C1395 1.371 1_554 S
C1396 C1399 1.404 . S
H1397 C1393 0.950 . S
H1398 C1395 0.950 . S
C1399 C1390 1.390 . S
C1399 H1392 0.950 . S
C1399 C1396 1.404 . S
C1400 C1401 1.414 . S
C1400 H1404 0.950 . S
C1400 C1409 1.390 . S
C1401 C1400 1.414 . S
C1401 C1403 1.361 1_554 S
H1402 C1409 0.950 . S
C1403 C1401 1.361 1_556 S
C1403 C1405 1.390 . S
C1403 H1407 0.950 . S
H1404 C1400 0.950 . S
C1405 C1403 1.390 . S
C1405 C1406 1.367 1_556 S
C1405 H1408 0.950 . S
C1406 C1405 1.367 1_554 S
C1406 C1409 1.408 . S
H1407 C1403 0.950 . S
H1408 C1405 0.950 . S
C1409 C1400 1.390 . S
C1409 H1402 0.950 . S
C1409 C1406 1.408 . S
C1410 C1411 1.367 1_556 S
C1410 H1414 0.950 . S
C1410 C1419 1.390 . S
C1411 C1410 1.367 1_554 S
C1411 C1413 1.408 . S
H1412 C1419 0.950 . S
C1413 C1411 1.408 . S
C1413 C1415 1.390 . S
C1413 H1417 0.950 . S
H1414 C1410 0.950 . S
C1415 C1413 1.390 . S
C1415 C1416 1.406 . S
C1415 H1418 0.950 . S
C1416 C1415 1.406 . S
C1416 C1419 1.369 1_554 S
H1417 C1413 0.950 . S
H1418 C1415 0.950 . S
C1419 C1410 1.390 . S
C1419 H1412 0.950 . S
C1419 C1416 1.369 1_556 S
C1420 C1421 1.387 1_655 S
C1420 H1424 0.950 . S
C1420 C1429 1.390 . S
C1421 C1420 1.387 1_455 S
C1421 C1423 1.387 . S
H1422 C1429 0.950 . S
C1423 C1421 1.387 . S
C1423 C1425 1.390 . S
C1423 H1427 0.950 . S
H1424 C1420 0.950 . S
C1425 C1423 1.390 . S
C1425 C1426 1.425 . S
C1425 H1428 0.950 . S
C1426 C1425 1.425 . S
C1426 C1429 1.350 1_455 S
H1427 C1423 0.950 . S
H1428 C1425 0.950 . S
C1429 C1420 1.390 . S
C1429 H1422 0.950 . S
C1429 C1426 1.350 1_655 S
C1430 C1431 1.425 . S
C1430 H1434 0.950 . S
C1430 C1439 1.390 . S
C1431 C1430 1.425 . S
C1431 C1433 1.350 1_545 S
H1432 C1439 0.950 . S
C1433 C1431 1.350 1_565 S
C1433 C1435 1.390 . S
C1433 H1437 0.950 . S
H1434 C1430 0.950 . S
C1435 C1433 1.390 . S
C1435 C1436 1.351 1_565 S
C1435 H1438 0.950 . S
C1436 C1435 1.351 1_545 S
C1436 C1439 1.424 . S
H1437 C1433 0.950 . S
H1438 C1435 0.950 . S
C1439 C1430 1.390 . S
C1439 H1432 0.950 . S
C1439 C1436 1.424 . S
C1440 C1441 1.387 1_655 S
C1440 H1444 0.950 . S
C1440 C1449 1.390 . S
C1441 C1440 1.387 1_455 S
C1441 C1443 1.387 . S
H1442 C1449 0.950 . S
C1443 C1441 1.387 . S
C1443 C1445 1.390 . S
C1443 H1447 0.950 . S
H1444 C1440 0.950 . S
C1445 C1443 1.390 . S
C1445 C1446 1.387 . S
C1445 H1448 0.950 . S
C1446 C1445 1.387 . S
C1446 C1449 1.387 1_455 S
H1447 C1443 0.950 . S
H1448 C1445 0.950 . S
C1449 C1440 1.390 . S
C1449 H1442 0.950 . S
C1449 C1446 1.387 1_655 S
C1450 C1451 1.387 . S
C1450 H1454 0.950 . S
C1450 C1459 1.390 . S
C1451 C1450 1.387 . S
C1451 C1453 1.387 1_545 S
H1452 C1459 0.950 . S
C1453 C1451 1.387 1_565 S
C1453 C1455 1.390 . S
C1453 H1457 0.950 . S
H1454 C1450 0.950 . S
C1455 C1453 1.390 . S
C1455 C1456 1.387 1_565 S
C1455 H1458 0.950 . S
C1456 C1455 1.387 1_545 S
C1456 C1459 1.387 . S
H1457 C1453 0.950 . S
H1458 C1455 0.950 . S
C1459 C1450 1.390 . S
C1459 H1452 0.950 . S
C1459 C1456 1.387 . S
C1460 C1461 1.350 1_655 S
C1460 H1464 0.950 . S
C1460 C1469 1.390 . S
C1461 C1460 1.350 1_455 S
C1461 C1463 1.426 . S
H1462 C1469 0.950 . S
C1463 C1461 1.426 . S
C1463 C1465 1.390 . S
C1463 H1467 0.950 . S
H1464 C1460 0.950 . S
C1465 C1463 1.390 . S
C1465 C1466 1.425 . S
C1465 H1468 0.950 . S
C1466 C1465 1.425 . S
C1466 C1469 1.350 1_455 S
H1467 C1463 0.950 . S
H1468 C1465 0.950 . S
C1469 C1460 1.390 . S
C1469 H1462 0.950 . S
C1469 C1466 1.350 1_655 S
C1470 C1471 1.418 . S
C1470 H1474 0.950 . S
C1470 C1479 1.390 . S
C1471 C1470 1.418 . S
C1471 C1473 1.357 1_545 S
H1472 C1479 0.950 . S
C1473 C1471 1.357 1_565 S
C1473 C1475 1.390 . S
C1473 H1477 0.950 . S
H1474 C1470 0.950 . S
C1475 C1473 1.390 . S
C1475 C1476 1.352 1_565 S
C1475 H1478 0.950 . S
C1476 C1475 1.352 1_545 S
C1476 C1479 1.423 . S
H1477 C1473 0.950 . S
H1478 C1475 0.950 . S
C1479 C1470 1.390 . S
C1479 H1472 0.950 . S
C1479 C1476 1.423 . S
C1480 C1481 1.421 . S
C1480 H1484 0.950 . S
C1480 C1489 1.390 . S
C1481 C1480 1.421 . S
C1481 C1483 1.354 1_455 S
H1482 C1489 0.950 . S
C1483 C1481 1.354 1_655 S
C1483 C1485 1.390 . S
C1483 H1487 0.950 . S
H1484 C1480 0.950 . S
C1485 C1483 1.390 . S
C1485 C1486 1.352 1_655 S
C1485 H1488 0.950 . S
C1486 C1485 1.352 1_455 S
C1486 C1489 1.423 . S
H1487 C1483 0.950 . S
H1488 C1485 0.950 . S
C1489 C1480 1.390 . S
C1489 H1482 0.950 . S
C1489 C1486 1.423 . S
C1490 C1491 1.361 1_565 S
C1490 H1494 0.950 . S
C1490 C1499 1.390 . S
C1491 C1490 1.361 1_545 S
C1491 C1493 1.414 . S
H1492 C1499 0.950 . S
C1493 C1491 1.414 . S
C1493 C1495 1.390 . S
C1493 H1497 0.950 . S
H1494 C1490 0.950 . S
C1495 C1493 1.390 . S
C1495 C1496 1.421 . S
C1495 H1498 0.950 . S
C1496 C1495 1.421 . S
C1496 C1499 1.354 1_545 S
H1497 C1493 0.950 . S
H1498 C1495 0.950 . S
C1499 C1490 1.390 . S
C1499 H1492 0.950 . S
C1499 C1496 1.354 1_565 S
C1500 C1501 1.387 1_655 S
C1500 H1504 0.950 . S
C1500 C1509 1.390 . S
C1501 C1500 1.387 1_455 S
C1501 C1503 1.387 . S
H1502 C1509 0.950 . S
C1503 C1501 1.387 . S
C1503 C1505 1.390 . S
C1503 H1507 0.950 . S
H1504 C1500 0.950 . S
C1505 C1503 1.390 . S
C1505 C1506 1.387 . S
C1505 H1508 0.950 . S
C1506 C1505 1.387 . S
C1506 C1509 1.387 1_455 S
H1507 C1503 0.950 . S
H1508 C1505 0.950 . S
C1509 C1500 1.390 . S
C1509 H1502 0.950 . S
C1509 C1506 1.387 1_655 S
C1510 C1511 1.409 . S
C1510 H1514 0.950 . S
C1510 C1519 1.390 . S
C1511 C1510 1.409 . S
C1511 C1513 1.366 1_545 S
H1512 C1519 0.950 . S
C1513 C1511 1.366 1_565 S
C1513 C1515 1.390 . S
C1513 H1517 0.950 . S
H1514 C1510 0.950 . S
C1515 C1513 1.390 . S
C1515 C1516 1.366 1_565 S
C1515 H1518 0.950 . S
C1516 C1515 1.366 1_545 S
C1516 C1519 1.409 . S
H1517 C1513 0.950 . S
H1518 C1515 0.950 . S
C1519 C1510 1.390 . S
C1519 H1512 0.950 . S
C1519 C1516 1.409 . S
C1520 C1521 1.387 1_655 S
C1520 H1524 0.950 . S
C1520 C1529 1.390 . S
C1521 C1520 1.387 1_455 S
C1521 C1523 1.387 . S
H1522 C1529 0.950 . S
C1523 C1521 1.387 . S
C1523 C1525 1.390 . S
C1523 H1527 0.950 . S
H1524 C1520 0.950 . S
C1525 C1523 1.390 . S
C1525 C1526 1.387 . S
C1525 H1528 0.950 . S
C1526 C1525 1.387 . S
C1526 C1529 1.387 1_455 S
H1527 C1523 0.950 . S
H1528 C1525 0.950 . S
C1529 C1520 1.390 . S
C1529 H1522 0.950 . S
C1529 C1526 1.387 1_655 S
C1530 C1531 1.405 . S
C1530 H1534 0.950 . S
C1530 C1539 1.390 . S
C1531 C1530 1.405 . S
C1531 C1533 1.370 1_545 S
H1532 C1539 0.950 . S
C1533 C1531 1.370 1_565 S
C1533 C1535 1.390 . S
C1533 H1537 0.950 . S
H1534 C1530 0.950 . S
C1535 C1533 1.390 . S
C1535 C1536 1.370 1_565 S
C1535 H1538 0.950 . S
C1536 C1535 1.370 1_545 S
C1536 C1539 1.405 . S
H1537 C1533 0.950 . S
H1538 C1535 0.950 . S
C1539 C1530 1.390 . S
C1539 H1532 0.950 . S
C1539 C1536 1.405 . S
C1540 C1541 1.387 1_655 S
C1540 H1544 0.950 . S
C1540 C1549 1.390 . S
C1541 C1540 1.387 1_455 S
C1541 C1543 1.387 . S
H1542 C1549 0.950 . S
C1543 C1541 1.387 . S
C1543 C1545 1.390 . S
C1543 H1547 0.950 . S
H1544 C1540 0.950 . S
C1545 C1543 1.390 . S
C1545 C1546 1.387 . S
C1545 H1548 0.950 . S
C1546 C1545 1.387 . S
C1546 C1549 1.387 1_455 S
H1547 C1543 0.950 . S
H1548 C1545 0.950 . S
C1549 C1540 1.390 . S
C1549 H1542 0.950 . S
C1549 C1546 1.387 1_655 S
C1550 C1551 1.414 . S
C1550 H1554 0.950 . S
C1550 C1559 1.390 . S
C1551 C1550 1.414 . S
C1551 C1553 1.361 1_545 S
H1552 C1559 0.950 . S
C1553 C1551 1.361 1_565 S
C1553 C1555 1.390 . S
C1553 H1557 0.950 . S
H1554 C1550 0.950 . S
C1555 C1553 1.390 . S
C1555 C1556 1.366 1_565 S
C1555 H1558 0.950 . S
C1556 C1555 1.366 1_545 S
C1556 C1559 1.409 . S
H1557 C1553 0.950 . S
H1558 C1555 0.950 . S
C1559 C1550 1.390 . S
C1559 H1552 0.950 . S
C1559 C1556 1.409 . S
C1560 C1561 1.387 1_655 S
C1560 H1564 0.950 . S
C1560 C1569 1.390 . S
C1561 C1560 1.387 1_455 S
C1561 C1563 1.387 . S
H1562 C1569 0.950 . S
C1563 C1561 1.387 . S
C1563 C1565 1.390 . S
C1563 H1567 0.950 . S
H1564 C1560 0.950 . S
C1565 C1563 1.390 . S
C1565 C1566 1.387 . S
C1565 H1568 0.950 . S
C1566 C1565 1.387 . S
C1566 C1569 1.387 1_455 S
H1567 C1563 0.950 . S
H1568 C1565 0.950 . S
C1569 C1560 1.390 . S
C1569 H1562 0.950 . S
C1569 C1566 1.387 1_655 S
C1570 C1571 1.419 . S
C1570 H1574 0.950 . S
C1570 C1579 1.390 . S
C1571 C1570 1.419 . S
C1571 C1573 1.356 1_545 S
H1572 C1579 0.950 . S
C1573 C1571 1.356 1_565 S
C1573 C1575 1.390 . S
C1573 H1577 0.950 . S
H1574 C1570 0.950 . S
C1575 C1573 1.390 . S
C1575 C1576 1.361 1_565 S
C1575 H1578 0.950 . S
C1576 C1575 1.361 1_545 S
C1576 C1579 1.414 . S
H1577 C1573 0.950 . S
H1578 C1575 0.950 . S
C1579 C1570 1.390 . S
C1579 H1572 0.950 . S
C1579 C1576 1.414 . S
C1580 C1581 1.411 . S
C1580 H1584 0.950 . S
C1580 C1589 1.390 . S
C1581 C1580 1.411 . S
C1581 C1583 1.364 1_545 S
H1582 C1589 0.950 . S
C1583 C1581 1.364 1_565 S
C1583 C1585 1.390 . S
C1583 H1587 0.950 . S
H1584 C1580 0.950 . S
C1585 C1583 1.390 . S
C1585 C1586 1.362 1_565 S
C1585 H1588 0.950 . S
C1586 C1585 1.362 1_545 S
C1586 C1589 1.413 . S
H1587 C1583 0.950 . S
H1588 C1585 0.950 . S
C1589 C1580 1.390 . S
C1589 H1582 0.950 . S
C1589 C1586 1.413 . S
C1590 C1591 1.422 . S
C1590 H1594 0.950 . S
C1590 C1599 1.390 . S
C1591 C1590 1.422 . S
C1591 C1593 1.353 1_455 S
H1592 C1599 0.950 . S
C1593 C1591 1.353 1_655 S
C1593 C1595 1.390 . S
C1593 H1597 0.950 . S
H1594 C1590 0.950 . S
C1595 C1593 1.390 . S
C1595 C1596 1.359 1_655 S
C1595 H1598 0.950 . S
C1596 C1595 1.359 1_455 S
C1596 C1599 1.417 . S
H1597 C1593 0.950 . S
H1598 C1595 0.950 . S
C1599 C1590 1.390 . S
C1599 H1592 0.950 . S
C1599 C1596 1.417 . S
C1600 C1601 1.415 . S
C1600 H1604 0.950 . S
C1600 C1609 1.390 . S
C1601 C1600 1.415 . S
C1601 C1603 1.361 1_545 S
H1602 C1609 0.950 . S
C1603 C1601 1.361 1_565 S
C1603 C1605 1.390 . S
C1603 H1607 0.950 . S
H1604 C1600 0.950 . S
C1605 C1603 1.390 . S
C1605 C1606 1.360 1_565 S
C1605 H1608 0.950 . S
C1606 C1605 1.360 1_545 S
C1606 C1609 1.416 . S
H1607 C1603 0.950 . S
H1608 C1605 0.950 . S
C1609 C1600 1.390 . S
C1609 H1602 0.950 . S
C1609 C1606 1.416 . S
C1610 C1611 1.357 1_655 S
C1610 H1614 0.950 . S
C1610 C1619 1.390 . S
C1611 C1610 1.357 1_455 S
C1611 C1613 1.418 . S
H1612 C1619 0.950 . S
C1613 C1611 1.418 . S
C1613 C1615 1.390 . S
C1613 H1617 0.950 . S
H1614 C1610 0.950 . S
C1615 C1613 1.390 . S
C1615 C1616 1.414 . S
C1615 H1618 0.950 . S
C1616 C1615 1.414 . S
C1616 C1619 1.361 1_455 S
H1617 C1613 0.950 . S
H1618 C1615 0.950 . S
C1619 C1610 1.390 . S
C1619 H1612 0.950 . S
C1619 C1616 1.361 1_655 S
C1620 C1621 1.422 . S
C1620 H1624 0.950 . S
C1620 C1629 1.390 . S
C1621 C1620 1.422 . S
C1621 C1623 1.353 1_545 S
H1622 C1629 0.950 . S
C1623 C1621 1.353 1_565 S
C1623 C1625 1.390 . S
C1623 H1627 0.950 . S
H1624 C1620 0.950 . S
C1625 C1623 1.390 . S
C1625 C1626 1.352 1_565 S
C1625 H1628 0.950 . S
C1626 C1625 1.352 1_545 S
C1626 C1629 1.423 . S
H1627 C1623 0.950 . S
H1628 C1625 0.950 . S
C1629 C1620 1.390 . S
C1629 H1622 0.950 . S
C1629 C1626 1.423 . S
C1630 C1631 1.387 . S
C1630 H1634 0.950 . S
C1630 C1639 1.390 . S
C1631 C1630 1.387 . S
C1631 C1633 1.387 1_455 S
H1632 C1639 0.950 . S
C1633 C1631 1.387 1_655 S
C1633 C1635 1.390 . S
C1633 H1637 0.950 . S
H1634 C1630 0.950 . S
C1635 C1633 1.390 . S
C1635 C1636 1.353 1_655 S
C1635 H1638 0.950 . S
C1636 C1635 1.353 1_455 S
C1636 C1639 1.422 . S
H1637 C1633 0.950 . S
H1638 C1635 0.950 . S
C1639 C1630 1.390 . S
C1639 H1632 0.950 . S
C1639 C1636 1.422 . S
C1640 C1641 1.387 . S
C1640 H1644 0.950 . S
C1640 C1649 1.390 . S
C1641 C1640 1.387 . S
C1641 C1643 1.387 1_545 S
H1642 C1649 0.950 . S
C1643 C1641 1.387 1_565 S
C1643 C1645 1.390 . S
C1643 H1647 0.950 . S
H1644 C1640 0.950 . S
C1645 C1643 1.390 . S
C1645 C1646 1.387 1_565 S
C1645 H1648 0.950 . S
C1646 C1645 1.387 1_545 S
C1646 C1649 1.387 . S
H1647 C1643 0.950 . S
H1648 C1645 0.950 . S
C1649 C1640 1.390 . S
C1649 H1642 0.950 . S
C1649 C1646 1.387 . S
C1650 C1651 1.423 . S
C1650 H1654 0.950 . S
C1650 C1659 1.390 . S
C1651 C1650 1.423 . S
C1651 C1653 1.352 1_455 S
H1652 C1659 0.950 . S
C1653 C1651 1.352 1_655 S
C1653 C1655 1.390 . S
C1653 H1657 0.950 . S
H1654 C1650 0.950 . S
C1655 C1653 1.390 . S
C1655 C1656 1.356 1_655 S
C1655 H1658 0.950 . S
C1656 C1655 1.356 1_455 S
C1656 C1659 1.420 . S
H1657 C1653 0.950 . S
H1658 C1655 0.950 . S
C1659 C1650 1.390 . S
C1659 H1652 0.950 . S
C1659 C1656 1.420 . S
C1660 C1661 1.355 1_556 S
C1660 H1664 0.950 . S
C1660 C1669 1.390 . S
C1661 C1660 1.355 1_554 S
C1661 C1663 1.421 . S
H1662 C1669 0.950 . S
C1663 C1661 1.421 . S
C1663 C1665 1.390 . S
C1663 H1667 0.950 . S
H1664 C1660 0.950 . S
C1665 C1663 1.390 . S
C1665 C1666 1.421 . S
C1665 H1668 0.950 . S
C1666 C1665 1.421 . S
C1666 C1669 1.354 1_554 S
H1667 C1663 0.950 . S
H1668 C1665 0.950 . S
C1669 C1660 1.390 . S
C1669 H1662 0.950 . S
C1669 C1666 1.354 1_556 S
C1670 C1671 1.410 . S
C1670 H1674 0.950 . S
C1670 C1679 1.390 . S
C1671 C1670 1.410 . S
C1671 C1673 1.365 1_554 S
H1672 C1679 0.950 . S
C1673 C1671 1.365 1_556 S
C1673 C1675 1.390 . S
C1673 H1677 0.950 . S
H1674 C1670 0.950 . S
C1675 C1673 1.390 . S
C1675 C1676 1.359 1_556 S
C1675 H1678 0.950 . S
C1676 C1675 1.359 1_554 S
C1676 C1679 1.416 . S
H1677 C1673 0.950 . S
H1678 C1675 0.950 . S
C1679 C1670 1.390 . S
C1679 H1672 0.950 . S
C1679 C1676 1.416 . S
C1680 C1681 1.366 1_556 S
C1680 H1684 0.950 . S
C1680 C1689 1.390 . S
C1681 C1680 1.366 1_554 S
C1681 C1683 1.409 . S
H1682 C1689 0.950 . S
C1683 C1681 1.409 . S
C1683 C1685 1.390 . S
C1683 H1687 0.950 . S
H1684 C1680 0.950 . S
C1685 C1683 1.390 . S
C1685 C1686 1.404 . S
C1685 H1688 0.950 . S
C1686 C1685 1.404 . S
C1686 C1689 1.371 1_554 S
H1687 C1683 0.950 . S
H1688 C1685 0.950 . S
C1689 C1680 1.390 . S
C1689 H1682 0.950 . S
C1689 C1686 1.371 1_556 S
C1690 C1691 1.415 . S
C1690 H1694 0.950 . S
C1690 C1699 1.390 . S
C1691 C1690 1.415 . S
C1691 C1693 1.361 1_554 S
H1692 C1699 0.950 . S
C1693 C1691 1.361 1_556 S
C1693 C1695 1.390 . S
C1693 H1697 0.950 . S
H1694 C1690 0.950 . S
C1695 C1693 1.390 . S
C1695 C1696 1.359 1_556 S
C1695 H1698 0.950 . S
C1696 C1695 1.359 1_554 S
C1696 C1699 1.416 . S
H1697 C1693 0.950 . S
H1698 C1695 0.950 . S
C1699 C1690 1.390 . S
C1699 H1692 0.950 . S
C1699 C1696 1.416 . S
C1700 C1701 1.383 1_556 S
C1700 H1704 0.950 . S
C1700 C1709 1.390 . S
C1701 C1700 1.383 1_554 S
C1701 C1703 1.392 . S
H1702 C1709 0.950 . S
C1703 C1701 1.392 . S
C1703 C1705 1.390 . S
C1703 H1707 0.950 . S
H1704 C1700 0.950 . S
C1705 C1703 1.390 . S
C1705 C1706 1.391 . S
C1705 H1708 0.950 . S
C1706 C1705 1.391 . S
C1706 C1709 1.384 1_554 S
H1707 C1703 0.950 . S
H1708 C1705 0.950 . S
C1709 C1700 1.390 . S
C1709 H1702 0.950 . S
C1709 C1706 1.384 1_556 S
C1710 C1711 1.405 . S
C1710 H1714 0.950 . S
C1710 C1719 1.390 . S
C1711 C1710 1.405 . S
C1711 C1713 1.371 1_554 S
H1712 C1719 0.950 . S
C1713 C1711 1.371 1_556 S
C1713 C1715 1.390 . S
C1713 H1717 0.950 . S
H1714 C1710 0.950 . S
C1715 C1713 1.390 . S
C1715 C1716 1.364 1_556 S
C1715 H1718 0.950 . S
C1716 C1715 1.364 1_554 S
C1716 C1719 1.411 . S
H1717 C1713 0.950 . S
H1718 C1715 0.950 . S
C1719 C1710 1.390 . S
C1719 H1712 0.950 . S
C1719 C1716 1.411 . S
C1720 C1721 1.378 1_556 S
C1720 H1724 0.950 . S
C1720 C1729 1.390 . S
C1721 C1720 1.378 1_554 S
C1721 C1723 1.397 . S
H1722 C1729 0.950 . S
C1723 C1721 1.397 . S
C1723 C1725 1.390 . S
C1723 H1727 0.950 . S
H1724 C1720 0.950 . S
C1725 C1723 1.390 . S
C1725 C1726 1.394 . S
C1725 H1728 0.950 . S
C1726 C1725 1.394 . S
C1726 C1729 1.381 1_554 S
H1727 C1723 0.950 . S
H1728 C1725 0.950 . S
C1729 C1720 1.390 . S
C1729 H1722 0.950 . S
C1729 C1726 1.381 1_556 S
C1730 C1731 1.371 1_556 S
C1730 H1734 0.950 . S
C1730 C1739 1.390 . S
C1731 C1730 1.371 1_554 S
C1731 C1733 1.404 . S
H1732 C1739 0.950 . S
C1733 C1731 1.404 . S
C1733 C1735 1.390 . S
C1733 H1737 0.950 . S
H1734 C1730 0.950 . S
C1735 C1733 1.390 . S
C1735 C1736 1.401 . S
C1735 H1738 0.950 . S
C1736 C1735 1.401 . S
C1736 C1739 1.374 1_554 S
H1737 C1733 0.950 . S
H1738 C1735 0.950 . S
C1739 C1730 1.390 . S
C1739 H1732 0.950 . S
C1739 C1736 1.374 1_556 S
C1740 C1741 1.387 . S
C1740 H1744 0.950 . S
C1740 C1749 1.390 . S
C1741 C1740 1.387 . S
C1741 C1743 1.387 . S
H1742 C1749 0.950 . S
C1743 C1741 1.387 . S
C1743 C1745 1.390 . S
C1743 H1747 0.950 . S
H1744 C1740 0.950 . S
C1745 C1743 1.390 . S
C1745 C1746 1.387 . S
C1745 H1748 0.950 . S
C1746 C1745 1.387 . S
C1746 C1749 1.387 . S
H1747 C1743 0.950 . S
H1748 C1745 0.950 . S
C1749 C1740 1.390 . S
C1749 H1742 0.950 . S
C1749 C1746 1.387 . S
C1750 C1751 1.387 . S
C1750 H1754 0.950 . S
C1750 C1759 1.390 . S
C1751 C1750 1.387 . S
C1751 C1753 1.387 . S
H1752 C1759 0.950 . S
C1753 C1751 1.387 . S
C1753 C1755 1.390 . S
C1753 H1757 0.950 . S
H1754 C1750 0.950 . S
C1755 C1753 1.390 . S
C1755 C1756 1.387 . S
C1755 H1758 0.950 . S
C1756 C1755 1.387 . S
C1756 C1759 1.387 . S
H1757 C1753 0.950 . S
H1758 C1755 0.950 . S
C1759 C1750 1.390 . S
C1759 H1752 0.950 . S
C1759 C1756 1.387 . S
C1760 C1761 1.387 . S
C1760 H1764 0.950 . S
C1760 C1769 1.390 . S
C1761 C1760 1.387 . S
C1761 C1763 1.387 . S
H1762 C1769 0.950 . S
C1763 C1761 1.387 . S
C1763 C1765 1.390 . S
C1763 H1767 0.950 . S
H1764 C1760 0.950 . S
C1765 C1763 1.390 . S
C1765 C1766 1.387 . S
C1765 H1768 0.950 . S
C1766 C1765 1.387 . S
C1766 C1769 1.387 . S
H1767 C1763 0.950 . S
H1768 C1765 0.950 . S
C1769 C1760 1.390 . S
C1769 H1762 0.950 . S
C1769 C1766 1.387 . S
C1770 C1771 1.387 . S
C1770 H1774 0.950 . S
C1770 C1779 1.390 . S
C1771 C1770 1.387 . S
C1771 C1773 1.387 . S
H1772 C1779 0.950 . S
C1773 C1771 1.387 . S
C1773 C1775 1.390 . S
C1773 H1777 0.950 . S
H1774 C1770 0.950 . S
C1775 C1773 1.390 . S
C1775 C1776 1.387 . S
C1775 H1778 0.950 . S
C1776 C1775 1.387 . S
C1776 C1779 1.387 . S
H1777 C1773 0.950 . S
H1778 C1775 0.950 . S
C1779 C1770 1.390 . S
C1779 H1772 0.950 . S
C1779 C1776 1.387 . S
C1780 C1781 1.387 . S
C1780 H1784 0.950 . S
C1780 C1789 1.390 . S
C1781 C1780 1.387 . S
C1781 C1783 1.387 . S
H1782 C1789 0.950 . S
C1783 C1781 1.387 . S
C1783 C1785 1.390 . S
C1783 H1787 0.950 . S
H1784 C1780 0.950 . S
C1785 C1783 1.390 . S
C1785 C1786 1.387 . S
C1785 H1788 0.950 . S
C1786 C1785 1.387 . S
C1786 C1789 1.387 . S
H1787 C1783 0.950 . S
H1788 C1785 0.950 . S
C1789 C1780 1.390 . S
C1789 H1782 0.950 . S
C1789 C1786 1.387 . S
C1790 C1791 1.387 . S
C1790 H1794 0.950 . S
C1790 C1799 1.390 . S
C1791 C1790 1.387 . S
C1791 C1793 1.387 . S
H1792 C1799 0.950 . S
C1793 C1791 1.387 . S
C1793 C1795 1.390 . S
C1793 H1797 0.950 . S
H1794 C1790 0.950 . S
C1795 C1793 1.390 . S
C1795 C1796 1.387 . S
C1795 H1798 0.950 . S
C1796 C1795 1.387 . S
C1796 C1799 1.387 . S
H1797 C1793 0.950 . S
H1798 C1795 0.950 . S
C1799 C1790 1.390 . S
C1799 H1792 0.950 . S
C1799 C1796 1.387 . S
C1800 C1801 1.387 . S
C1800 H1804 0.950 . S
C1800 C1809 1.390 . S
C1801 C1800 1.387 . S
C1801 C1803 1.387 . S
H1802 C1809 0.950 . S
C1803 C1801 1.387 . S
C1803 C1805 1.390 . S
C1803 H1807 0.950 . S
H1804 C1800 0.950 . S
C1805 C1803 1.390 . S
C1805 C1806 1.387 . S
C1805 H1808 0.950 . S
C1806 C1805 1.387 . S
C1806 C1809 1.387 . S
H1807 C1803 0.950 . S
H1808 C1805 0.950 . S
C1809 C1800 1.390 . S
C1809 H1802 0.950 . S
C1809 C1806 1.387 . S
C1810 C1811 1.387 . S
C1810 H1814 0.950 . S
C1810 C1819 1.390 . S
C1811 C1810 1.387 . S
C1811 C1813 1.387 . S
H1812 C1819 0.950 . S
C1813 C1811 1.387 . S
C1813 C1815 1.390 . S
C1813 H1817 0.950 . S
H1814 C1810 0.950 . S
C1815 C1813 1.390 . S
C1815 C1816 1.387 . S
C1815 H1818 0.950 . S
C1816 C1815 1.387 . S
C1816 C1819 1.387 . S
H1817 C1813 0.950 . S
H1818 C1815 0.950 . S
C1819 C1810 1.390 . S
C1819 H1812 0.950 . S
C1819 C1816 1.387 . S
C1820 C1821 1.387 . S
C1820 H1824 0.950 . S
C1820 C1829 1.390 . S
C1821 C1820 1.387 . S
C1821 C1823 1.387 . S
H1822 C1829 0.950 . S
C1823 C1821 1.387 . S
C1823 C1825 1.390 . S
C1823 H1827 0.950 . S
H1824 C1820 0.950 . S
C1825 C1823 1.390 . S
C1825 C1826 1.387 . S
C1825 H1828 0.950 . S
C1826 C1825 1.387 . S
C1826 C1829 1.387 . S
H1827 C1823 0.950 . S
H1828 C1825 0.950 . S
C1829 C1820 1.390 . S
C1829 H1822 0.950 . S
C1829 C1826 1.387 . S
C1830 C1831 1.387 . S
C1830 H1834 0.950 . S
C1830 C1839 1.390 . S
C1831 C1830 1.387 . S
C1831 C1833 1.387 . S
H1832 C1839 0.950 . S
C1833 C1831 1.387 . S
C1833 C1835 1.390 . S
C1833 H1837 0.950 . S
H1834 C1830 0.950 . S
C1835 C1833 1.390 . S
C1835 C1836 1.387 . S
C1835 H1838 0.950 . S
C1836 C1835 1.387 . S
C1836 C1839 1.387 . S
H1837 C1833 0.950 . S
H1838 C1835 0.950 . S
C1839 C1830 1.390 . S
C1839 H1832 0.950 . S
C1839 C1836 1.387 . S
C1840 C1841 1.387 . S
C1840 H1844 0.950 . S
C1840 C1849 1.390 . S
C1841 C1840 1.387 . S
C1841 C1843 1.387 . S
H1842 C1849 0.950 . S
C1843 C1841 1.387 . S
C1843 C1845 1.390 . S
C1843 H1847 0.950 . S
H1844 C1840 0.950 . S
C1845 C1843 1.390 . S
C1845 C1846 1.387 . S
C1845 H1848 0.950 . S
C1846 C1845 1.387 . S
C1846 C1849 1.387 . S
H1847 C1843 0.950 . S
H1848 C1845 0.950 . S
C1849 C1840 1.390 . S
C1849 H1842 0.950 . S
C1849 C1846 1.387 . S
C1850 C1851 1.387 . S
C1850 H1854 0.950 . S
C1850 C1859 1.390 . S
C1851 C1850 1.387 . S
C1851 C1853 1.387 . S
H1852 C1859 0.950 . S
C1853 C1851 1.387 . S
C1853 C1855 1.390 . S
C1853 H1857 0.950 . S
H1854 C1850 0.950 . S
C1855 C1853 1.390 . S
C1855 C1856 1.387 . S
C1855 H1858 0.950 . S
C1856 C1855 1.387 . S
C1856 C1859 1.387 . S
H1857 C1853 0.950 . S
H1858 C1855 0.950 . S
C1859 C1850 1.390 . S
C1859 H1852 0.950 . S
C1859 C1856 1.387 . S
C1860 C1861 1.387 . S
C1860 H1864 0.950 . S
C1860 C1869 1.390 . S
C1861 C1860 1.387 . S
C1861 C1863 1.387 . S
H1862 C1869 0.950 . S
C1863 C1861 1.387 . S
C1863 C1865 1.390 . S
C1863 H1867 0.950 . S
H1864 C1860 0.950 . S
C1865 C1863 1.390 . S
C1865 C1866 1.387 . S
C1865 H1868 0.950 . S
C1866 C1865 1.387 . S
C1866 C1869 1.387 . S
H1867 C1863 0.950 . S
H1868 C1865 0.950 . S
C1869 C1860 1.390 . S
C1869 H1862 0.950 . S
C1869 C1866 1.387 . S
C1870 C1871 1.387 . S
C1870 H1874 0.950 . S
C1870 C1879 1.390 . S
C1871 C1870 1.387 . S
C1871 C1873 1.387 . S
H1872 C1879 0.950 . S
C1873 C1871 1.387 . S
C1873 C1875 1.390 . S
C1873 H1877 0.950 . S
H1874 C1870 0.950 . S
C1875 C1873 1.390 . S
C1875 C1876 1.387 . S
C1875 H1878 0.950 . S
C1876 C1875 1.387 . S
C1876 C1879 1.387 . S
H1877 C1873 0.950 . S
H1878 C1875 0.950 . S
C1879 C1870 1.390 . S
C1879 H1872 0.950 . S
C1879 C1876 1.387 . S
C1880 C1881 1.387 . S
C1880 H1884 0.950 . S
C1880 C1889 1.390 . S
C1881 C1880 1.387 . S
C1881 C1883 1.387 . S
H1882 C1889 0.950 . S
C1883 C1881 1.387 . S
C1883 C1885 1.390 . S
C1883 H1887 0.950 . S
H1884 C1880 0.950 . S
C1885 C1883 1.390 . S
C1885 C1886 1.387 . S
C1885 H1888 0.950 . S
C1886 C1885 1.387 . S
C1886 C1889 1.387 . S
H1887 C1883 0.950 . S
H1888 C1885 0.950 . S
C1889 C1880 1.390 . S
C1889 H1882 0.950 . S
C1889 C1886 1.387 . S
C1890 C1891 1.387 . S
C1890 H1894 0.950 . S
C1890 C1899 1.390 . S
C1891 C1890 1.387 . S
C1891 C1893 1.387 . S
H1892 C1899 0.950 . S
C1893 C1891 1.387 . S
C1893 C1895 1.390 . S
C1893 H1897 0.950 . S
H1894 C1890 0.950 . S
C1895 C1893 1.390 . S
C1895 C1896 1.387 . S
C1895 H1898 0.950 . S
C1896 C1895 1.387 . S
C1896 C1899 1.387 . S
H1897 C1893 0.950 . S
H1898 C1895 0.950 . S
C1899 C1890 1.390 . S
C1899 H1892 0.950 . S
C1899 C1896 1.387 . S
C1900 C1901 1.387 . S
C1900 H1904 0.950 . S
C1900 C1909 1.390 . S
C1901 C1900 1.387 . S
C1901 C1903 1.387 . S
H1902 C1909 0.950 . S
C1903 C1901 1.387 . S
C1903 C1905 1.390 . S
C1903 H1907 0.950 . S
H1904 C1900 0.950 . S
C1905 C1903 1.390 . S
C1905 C1906 1.387 . S
C1905 H1908 0.950 . S
C1906 C1905 1.387 . S
C1906 C1909 1.387 . S
H1907 C1903 0.950 . S
H1908 C1905 0.950 . S
C1909 C1900 1.390 . S
C1909 H1902 0.950 . S
C1909 C1906 1.387 . S
C1910 C1911 1.387 . S
C1910 H1914 0.950 . S
C1910 C1919 1.390 . S
C1911 C1910 1.387 . S
C1911 C1913 1.387 . S
H1912 C1919 0.950 . S
C1913 C1911 1.387 . S
C1913 C1915 1.390 . S
C1913 H1917 0.950 . S
H1914 C1910 0.950 . S
C1915 C1913 1.390 . S
C1915 C1916 1.387 . S
C1915 H1918 0.950 . S
C1916 C1915 1.387 . S
C1916 C1919 1.387 . S
H1917 C1913 0.950 . S
H1918 C1915 0.950 . S
C1919 C1910 1.390 . S
C1919 H1912 0.950 . S
C1919 C1916 1.387 . S
C1920 C1921 1.387 . S
C1920 H1924 0.950 . S
C1920 C1929 1.390 . S
C1921 C1920 1.387 . S
C1921 C1923 1.387 . S
H1922 C1929 0.950 . S
C1923 C1921 1.387 . S
C1923 C1925 1.390 . S
C1923 H1927 0.950 . S
H1924 C1920 0.950 . S
C1925 C1923 1.390 . S
C1925 C1926 1.387 . S
C1925 H1928 0.950 . S
C1926 C1925 1.387 . S
C1926 C1929 1.387 . S
H1927 C1923 0.950 . S
H1928 C1925 0.950 . S
C1929 C1920 1.390 . S
C1929 H1922 0.950 . S
C1929 C1926 1.387 . S
C1930 C1931 1.387 . S
C1930 H1934 0.950 . S
C1930 C1939 1.390 . S
C1931 C1930 1.387 . S
C1931 C1933 1.387 . S
H1932 C1939 0.950 . S
C1933 C1931 1.387 . S
C1933 C1935 1.390 . S
C1933 H1937 0.950 . S
H1934 C1930 0.950 . S
C1935 C1933 1.390 . S
C1935 C1936 1.387 . S
C1935 H1938 0.950 . S
C1936 C1935 1.387 . S
C1936 C1939 1.387 . S
H1937 C1933 0.950 . S
H1938 C1935 0.950 . S
C1939 C1930 1.390 . S
C1939 H1932 0.950 . S
C1939 C1936 1.387 . S
C1940 C1941 1.387 . S
C1940 H1944 0.950 . S
C1940 C1949 1.390 . S
C1941 C1940 1.387 . S
C1941 C1943 1.387 . S
H1942 C1949 0.950 . S
C1943 C1941 1.387 . S
C1943 C1945 1.390 . S
C1943 H1947 0.950 . S
H1944 C1940 0.950 . S
C1945 C1943 1.390 . S
C1945 C1946 1.387 . S
C1945 H1948 0.950 . S
C1946 C1945 1.387 . S
C1946 C1949 1.387 . S
H1947 C1943 0.950 . S
H1948 C1945 0.950 . S
C1949 C1940 1.390 . S
C1949 H1942 0.950 . S
C1949 C1946 1.387 . S
C1950 C1951 1.387 . S
C1950 H1954 0.950 . S
C1950 C1959 1.390 . S
C1951 C1950 1.387 . S
C1951 C1953 1.387 . S
H1952 C1959 0.950 . S
C1953 C1951 1.387 . S
C1953 C1955 1.390 . S
C1953 H1957 0.950 . S
H1954 C1950 0.950 . S
C1955 C1953 1.390 . S
C1955 C1956 1.387 . S
C1955 H1958 0.950 . S
C1956 C1955 1.387 . S
C1956 C1959 1.387 . S
H1957 C1953 0.950 . S
H1958 C1955 0.950 . S
C1959 C1950 1.390 . S
C1959 H1952 0.950 . S
C1959 C1956 1.387 . S
C1960 C1961 1.387 . S
C1960 H1964 0.950 . S
C1960 C1969 1.390 . S
C1961 C1960 1.387 . S
C1961 C1963 1.387 . S
H1962 C1969 0.950 . S
C1963 C1961 1.387 . S
C1963 C1965 1.390 . S
C1963 H1967 0.950 . S
H1964 C1960 0.950 . S
C1965 C1963 1.390 . S
C1965 C1966 1.387 . S
C1965 H1968 0.950 . S
C1966 C1965 1.387 . S
C1966 C1969 1.387 . S
H1967 C1963 0.950 . S
H1968 C1965 0.950 . S
C1969 C1960 1.390 . S
C1969 H1962 0.950 . S
C1969 C1966 1.387 . S
C1970 C1971 1.387 . S
C1970 H1974 0.950 . S
C1970 C1979 1.390 . S
C1971 C1970 1.387 . S
C1971 C1973 1.387 . S
H1972 C1979 0.950 . S
C1973 C1971 1.387 . S
C1973 C1975 1.390 . S
C1973 H1977 0.950 . S
H1974 C1970 0.950 . S
C1975 C1973 1.390 . S
C1975 C1976 1.387 . S
C1975 H1978 0.950 . S
C1976 C1975 1.387 . S
C1976 C1979 1.387 . S
H1977 C1973 0.950 . S
H1978 C1975 0.950 . S
C1979 C1970 1.390 . S
C1979 H1972 0.950 . S
C1979 C1976 1.387 . S
C1266 C966 1.156 . S
C1261 C941 1.148 . S
C1271 C861 1.162 . S
C1276 C964 1.170 . S
C1286 C965 1.162 . S
C1281 C821 1.154 . S
C1291 C901 1.141 . S
C1296 C967 1.149 . S
C1306 C1011 1.165 . S
C1301 C661 1.158 . S
C1316 C1071 1.155 . S
C1311 C701 1.147 . S
C1321 C741 1.156 . S
C1326 C1010 1.164 . S
C1336 C1070 1.160 . S
C1331 C781 1.153 . S
C1341 C501 1.150 . S
C1346 C1012 1.158 . S
C1356 C1068 1.167 . S
C1351 C541 1.159 . S
C1361 C581 1.152 . S
C1366 C1013 1.159 . S
C1371 C621 1.154 . S
C1376 C1069 1.162 . S
C1386 C1119 1.157 . S
C1381 C461 1.150 . S
C1391 C381 1.156 . S
C1396 C1118 1.162 . S
C1401 C341 1.160 . S
C1406 C1120 1.163 . S
C1416 C1121 1.158 . S
C1411 C421 1.154 . S
C1421 C181 1.153 1_455 S
C1426 C1162 1.161 . S
C1431 C221 1.151 . S
C1436 C1221 1.151 . S
C1441 C261 1.160 1_455 S
C1446 C1160 1.168 . S
C1451 C301 1.157 . S
C1456 C1220 1.166 . S
C1466 C1161 1.162 . S
C1461 C21 1.148 1_455 S
C1476 C1218 1.172 . S
C1471 C61 1.170 . S
C1481 C101 1.141 1_455 S
C1486 C1163 1.154 . S
C1496 C1219 1.158 . S
C1491 C141 1.145 1_545 S
C1506 C963 2.256 . S
C1501 C15 2.054 . S
C1511 C42 2.097 . S
C1516 C969 2.233 . S
C1521 C82 2.090 1_455 S
C1526 C961 2.230 . S
C1531 C122 2.089 1_545 S
C1536 C968 2.232 . S
C1541 C175 2.054 . S
C1546 C960 2.257 . S
C1556 C970 2.231 . S
C1551 C202 2.094 . S
C1561 C242 2.094 1_455 S
C1566 C962 2.233 . S
C1576 C971 2.256 . S
C1571 C295 2.054 . S
C1586 C1017 2.255 . S
C1581 C135 2.054 . S
C1591 C2 2.084 1_455 S
C1596 C1060 2.228 . S
C1606 C1015 2.256 . S
C1601 C55 2.054 . S
C1616 C1062 2.256 . S
C1611 C95 2.053 . S
C1621 C215 2.053 . S
C1626 C1016 2.256 . S
C1636 C1061 2.261 . S
C1631 C255 2.060 . S
C1646 C1014 2.233 . S
C1641 C282 2.094 . S
C1656 C1063 2.229 . S
C1651 C162 2.087 1_455 S
C1666 C1067 2.227 . S
C1661 C322 2.090 . S
C1671 C375 2.052 . S
C1676 C1066 2.255 . S
C1686 C1018 2.258 . S
C1681 C335 2.056 . S
C1696 C1065 2.253 . S
C1691 C415 2.049 . S
C1701 C455 2.053 . S
C1706 C1021 2.256 . S
C1711 C442 2.089 . S
C1716 C1064 2.227 . S
C1726 C1020 2.228 . S
C1721 C362 2.088 . S
C1736 C1019 2.225 . S
C1731 C402 2.086 . S
C1746 C1113 2.256 . S
C1741 C495 2.053 . S
C1756 C1116 2.231 . S
C1751 C522 2.090 . S
C1761 C562 2.088 . S
C1766 C1112 2.228 . S
C1776 C1114 2.235 . S
C1771 C602 2.095 . S
C1786 C1110 2.257 . S
C1781 C655 2.054 . S
C1791 C682 2.092 . S
C1796 C1115 2.232 . S
C1801 C722 2.093 . S
C1806 C1111 2.232 . S
C1816 C1117 2.258 . S
C1811 C775 2.056 . S
C1826 C1171 2.254 . S
C1821 C615 2.054 . S
C1831 C482 2.088 . S
C1836 C1210 2.229 . S
C1846 C1170 2.258 . S
C1841 C535 2.058 . S
C1856 C1212 2.259 . S
C1851 C575 2.057 . S
C1866 C1169 2.255 . S
C1861 C695 2.051 . S
C1871 C735 2.061 . S
C1876 C1211 2.261 . S
C1886 C1168 2.233 . S
C1881 C762 2.093 . S
C1896 C1213 2.232 . S
C1891 C642 2.093 . S
C1906 C1217 2.251 . S
C1901 C815 2.049 . S
C1911 C855 2.055 . S
C1916 C1216 2.256 . S
C1926 C1164 2.233 . S
C1921 C802 2.093 . S
C1931 C895 2.052 . S
C1936 C1215 2.255 . S
C1946 C1167 2.254 . S
C1941 C935 2.053 . S
C1956 C1214 2.228 . S
C1951 C922 2.088 . S
C1966 C1165 2.227 . S
C1961 C842 2.087 . S
C1971 C882 2.089 . S
C1976 C1166 2.229 . S
