# Generated by pormake.
# Topology tsx, (6,3)-cn, num edge types: 1
# Building blocks:
#     Node 0, Type 0, BuildingBlock: JUFBIX_clean_sbu_0, # of connection points: 6
#     Node 1, Type 0, BuildingBlock: JUFBIX_clean_sbu_0, # of connection points: 6
#     Node 2, Type 1, BuildingBlock: OLANEW_clean_sbu_2, # of connection points: 3
#     Node 3, Type 1, BuildingBlock: OLANEW_clean_sbu_2, # of connection points: 3
#     Node 4, Type 1, BuildingBlock: OLANEW_clean_sbu_2, # of connection points: 3
#     Node 5, Type 1, BuildingBlock: OLANEW_clean_sbu_2, # of connection points: 3
#     Edge 6, Type (0, 1), BuildingBlock: XIVTED_clean_linker_0, # of connection points: 2
#     Edge 7, Type (0, 1), BuildingBlock: XIVTED_clean_linker_0, # of connection points: 2
#     Edge 8, Type (0, 1), BuildingBlock: XIVTED_clean_linker_0, # of connection points: 2
#     Edge 9, Type (0, 1), BuildingBlock: XIVTED_clean_linker_0, # of connection points: 2
#     Edge 10, Type (0, 1), BuildingBlock: XIVTED_clean_linker_0, # of connection points: 2
#     Edge 11, Type (0, 1), BuildingBlock: XIVTED_clean_linker_0, # of connection points: 2
#     Edge 12, Type (0, 1), BuildingBlock: XIVTED_clean_linker_0, # of connection points: 2
#     Edge 13, Type (0, 1), BuildingBlock: XIVTED_clean_linker_0, # of connection points: 2
#     Edge 14, Type (0, 1), BuildingBlock: XIVTED_clean_linker_0, # of connection points: 2
#     Edge 15, Type (0, 1), BuildingBlock: XIVTED_clean_linker_0, # of connection points: 2
#     Edge 16, Type (0, 1), BuildingBlock: XIVTED_clean_linker_0, # of connection points: 2
#     Edge 17, Type (0, 1), BuildingBlock: XIVTED_clean_linker_0, # of connection points: 2
# Relax obj value: 0.062
# Max RMSD: 0.104
# Mean RMSD: 0.074
data_MOF--net-tsx--node1-JUFBIX_clean_sbu_0--node2-OLANEW_clean_sbu_2--edge1-XIVTED_clean_linker_0
_symmetry_space_group_name_H-M    P1
_symmetry_Int_Tables_number       1
_symmetry_cell_setting            triclinic
loop_
_symmetry_equiv_pos_as_xyz
'x, y, z'
_cell_length_a     22.302085
_cell_length_b     26.149093
_cell_length_c     33.659175
_cell_angle_alpha  98.144292
_cell_angle_beta   88.850045
_cell_angle_gamma 99.941956
loop_
_atom_site_label
_atom_site_type_symbol
_atom_site_fract_x
_atom_site_fract_y
_atom_site_fract_z
_atom_type_partial_charge
Co0 Co 0.03989 0.98116 0.01419 0.0
C1 C 0.99007 0.01318 0.94718 0.0
Co2 Co 0.97784 0.03873 0.0275 0.0
C3 C 0.0995 0.89022 0.01106 0.0
C4 C 0.13226 0.93975 0.96691 0.0
N5 N 0.09321 0.9355 -0.0021 0.0
N6 N 0.14015 0.8659 0.98891 0.0
C7 C 0.1608 0.89683 0.96113 0.0
H8 H 0.07336 0.87453 0.03538 0.0
H9 H 0.13859 0.97155 0.94905 0.0
C10 C 0.03027 0.00759 0.09426 0.0
N11 N 0.92392 0.08435 0.04403 0.0
C12 C 0.90629 0.12211 0.02567 0.0
C13 C 0.89243 0.08525 0.07877 0.0
N14 N 0.86594 0.14674 0.048 0.0
C15 C 0.85728 0.12373 0.08141 0.0
C16 C 0.92098 0.93363 0.02089 0.0
O17 O 0.05543 0.97778 0.06861 0.0
O18 O 0.99586 0.0363 0.08225 0.0
O19 O 0.91292 0.98104 0.02787 0.0
O20 O 0.97438 0.92401 0.01363 0.0
O21 O 0.96174 0.04107 0.97243 0.0
H22 H 0.89395 0.05897 0.10067 0.0
H23 H 0.92263 0.13142 0.9966 0.0
O24 O 0.02434 0.98487 0.95981 0.0
O25 O 0.10493 0.0389 0.01497 0.0
O26 O 0.04284 0.09588 0.02694 0.0
C27 C 0.09649 0.08626 0.02079 0.0
H28 H 0.19401 0.88875 0.93823 0.0
H29 H 0.82616 0.13298 0.1054 0.0
Co30 Co 0.54468 0.47932 0.51464 0.0
C31 C 0.48955 0.50496 0.44741 0.0
Co32 Co 0.47723 0.53205 0.52786 0.0
C33 C 0.60948 0.39193 0.51272 0.0
C34 C 0.64088 0.44191 0.46861 0.0
N35 N 0.60152 0.43665 0.49933 0.0
N36 N 0.65149 0.36886 0.491 0.0
C37 C 0.67131 0.40008 0.46324 0.0
H38 H 0.58312 0.37542 0.53664 0.0
H39 H 0.64568 0.47332 0.45042 0.0
C40 C 0.53471 0.50754 0.59489 0.0
N41 N 0.41987 0.57447 0.54335 0.0
C42 C 0.40211 0.612 0.52484 0.0
C43 C 0.38658 0.57388 0.57729 0.0
N44 N 0.35972 0.63507 0.54626 0.0
C45 C 0.34997 0.61129 0.57928 0.0
C46 C 0.42819 0.42574 0.52304 0.0
O47 O 0.56228 0.47946 0.56939 0.0
O48 O 0.49651 0.53277 0.58276 0.0
O49 O 0.41642 0.47203 0.52937 0.0
O50 O 0.48275 0.41921 0.51577 0.0
O51 O 0.45973 0.53145 0.47267 0.0
H52 H 0.38839 0.54761 0.59916 0.0
H53 H 0.42017 0.62252 0.49645 0.0
O54 O 0.52707 0.47947 0.45999 0.0
O55 O 0.60596 0.5402 0.51355 0.0
O56 O 0.5378 0.59163 0.52613 0.0
C57 C 0.59265 0.58611 0.51904 0.0
H58 H 0.70479 0.39266 0.44036 0.0
H59 H 0.31752 0.61954 0.60267 0.0
O60 O 0.03145 0.96275 0.40199 0.0
Cd61 Cd 0.01083 0.94597 0.47036 0.0
O62 O 0.02523 0.04653 0.41372 0.0
Cd63 Cd 0.98917 0.04524 0.47442 0.0
O64 O 0.91608 0.08139 0.50428 0.0
C65 C 0.86525 0.07068 0.48596 0.0
O66 O 0.859 0.03502 0.45393 0.0
C67 C 0.03585 0.007 0.38981 0.0
C68 C 0.09105 0.88218 0.48869 0.0
O69 O 0.04113 0.8627 0.46986 0.0
O70 O 0.10253 0.93185 0.49973 0.0
O71 O 0.98105 0.05099 0.63374 0.0
Cd72 Cd 0.98776 0.05072 0.56114 0.0
O73 O 0.04861 0.99861 0.63124 0.0
Cd74 Cd 0.03053 0.97008 0.56804 0.0
O75 O 0.96611 0.90406 0.53858 0.0
C76 C 0.91051 0.90863 0.53667 0.0
O77 O 0.89478 0.95431 0.5494 0.0
C78 C 0.01618 0.0282 0.65167 0.0
C79 C 0.08254 0.12919 0.54413 0.0
O80 O 0.02821 0.13834 0.55007 0.0
O81 O 0.09204 0.08252 0.54556 0.0
O82 O 0.53545 0.47084 0.90293 0.0
Cd83 Cd 0.51187 0.45339 0.97093 0.0
O84 O 0.53142 0.55509 0.91401 0.0
Cd85 Cd 0.49217 0.55429 0.97382 0.0
O86 O 0.41673 0.58869 0.00197 0.0
C87 C 0.36631 0.57664 0.9832 0.0
O88 O 0.36172 0.54114 0.95109 0.0
C89 C 0.54181 0.51509 0.89055 0.0
C90 C 0.59024 0.38813 0.98943 0.0
O91 O 0.54068 0.36947 0.96997 0.0
O92 O 0.60201 0.43763 0.00121 0.0
O93 O 0.47173 0.56233 0.13819 0.0
Cd94 Cd 0.47446 0.56684 0.06619 0.0
O95 O 0.53764 0.50822 0.13225 0.0
Cd96 Cd 0.51933 0.48671 0.06836 0.0
O97 O 0.44993 0.42391 0.04013 0.0
C98 C 0.45388 0.37832 0.0476 0.0
O99 O 0.50082 0.37227 0.06836 0.0
C100 C 0.50612 0.537 0.15433 0.0
C101 C 0.57083 0.64322 0.04807 0.0
O102 O 0.51798 0.6545 0.05671 0.0
O103 O 0.57805 0.59555 0.04755 0.0
H104 H 0.09503 0.19111 0.0217 0.0
H105 H 0.45399 0.27465 0.05091 0.0
H106 H 0.21745 0.07968 0.02004 0.0
H107 H 0.33882 0.38093 0.02163 0.0
H108 H 0.36737 0.20293 0.04091 0.0
H109 H 0.18305 0.26181 0.02345 0.0
C110 C 0.14037 0.1815 0.02164 0.0
C111 C 0.1489 0.12944 0.02089 0.0
C112 C 0.36113 0.24183 0.03629 0.0
C113 C 0.24964 0.21005 0.02299 0.0
C114 C 0.41058 0.28282 0.04203 0.0
C115 C 0.40353 0.33389 0.0373 0.0
C116 C 0.30397 0.25203 0.0262 0.0
C117 C 0.34627 0.34214 0.0256 0.0
C118 C 0.19056 0.22183 0.02247 0.0
C119 C 0.20869 0.11923 0.02065 0.0
N120 N 0.29848 0.30171 0.02085 0.0
N121 N 0.25672 0.1592 0.02198 0.0
H122 H 0.1458 0.78722 0.92921 0.0
H123 H 0.3601 0.65393 0.04689 0.0
H124 H 0.17429 0.83285 0.0563 0.0
H125 H 0.26389 0.57444 0.93945 0.0
H126 H 0.29102 0.71802 0.05334 0.0
H127 H 0.18756 0.7076 0.93333 0.0
C128 C 0.16031 0.77986 0.95807 0.0
C129 C 0.15715 0.81631 0.99241 0.0
C130 C 0.28438 0.68591 0.02884 0.0
C131 C 0.20593 0.72617 -0.00254 0.0
C132 C 0.32382 0.64937 0.02509 0.0
C133 C 0.31845 0.6093 0.99217 0.0
C134 C 0.24008 0.68272 -0.00088 0.0
C135 C 0.27029 0.60504 0.96503 0.0
C136 C 0.18385 0.73446 0.96053 0.0
C137 C 0.17609 0.8053 0.02926 0.0
N138 N 0.23374 0.64189 0.96867 0.0
N139 N 0.20091 0.76154 0.03076 0.0
H140 H 0.80093 0.94118 0.03229 0.0
H141 H 0.6892 0.63284 0.03041 0.0
H142 H 0.92163 0.82764 0.01176 0.0
H143 H 0.56988 0.74764 0.04793 0.0
H144 H 0.77439 0.7027 0.02096 0.0
H145 H 0.71542 0.87001 0.03577 0.0
C146 C 0.80949 0.90124 0.02842 0.0
C147 C 0.86867 0.89043 0.02186 0.0
C148 C 0.72952 0.71255 0.02671 0.0
C149 C 0.77063 0.80849 0.02591 0.0
C150 C 0.68083 0.67267 0.03209 0.0
C151 C 0.62233 0.68443 0.04019 0.0
C152 C 0.71967 0.76458 0.02952 0.0
C153 C 0.61419 0.73674 0.04193 0.0
C154 C 0.76054 0.86055 0.03039 0.0
C155 C 0.87682 0.83782 0.01694 0.0
N156 N 0.66231 0.77483 0.03681 0.0
N157 N 0.82838 0.79882 0.01922 0.0
H158 H 0.84064 0.23062 0.09742 0.0
H159 H 0.59624 0.2899 0.95114 0.0
H160 H 0.8177 0.15211 0.97588 0.0
H161 H 0.68232 0.408 0.04496 0.0
H162 H 0.66939 0.23388 0.96327 0.0
H163 H 0.77619 0.29239 0.08204 0.0
C164 C 0.82234 0.22685 0.06738 0.0
C165 C 0.83424 0.18646 0.03782 0.0
C166 C 0.67235 0.27216 0.98103 0.0
C167 C 0.75987 0.25592 0.02024 0.0
C168 C 0.63041 0.30395 0.97438 0.0
C169 C 0.63326 0.35361 -0.00286 0.0
C170 C 0.71664 0.28974 0.01118 0.0
C171 C 0.67866 0.37002 0.02669 0.0
C172 C 0.7858 0.26202 0.05861 0.0
C173 C 0.80983 0.18307 -0.0007 0.0
N174 N 0.71831 0.33794 0.03313 0.0
N175 N 0.77296 0.21697 0.99171 0.0
H176 H 0.71514 0.58984 0.50587 0.0
H177 H 0.78713 0.90361 0.53351 0.0
H178 H 0.57824 0.68877 0.52736 0.0
H179 H 0.92619 0.80642 0.51643 0.0
H180 H 0.70947 0.82479 0.52469 0.0
H181 H 0.79262 0.66814 0.5041 0.0
C182 C 0.70134 0.62798 0.51015 0.0
C183 C 0.64015 0.63275 0.51708 0.0
C184 C 0.75695 0.82066 0.52257 0.0
C185 C 0.72851 0.72245 0.51492 0.0
C186 C 0.80138 0.86572 0.52749 0.0
C187 C 0.86331 0.86164 0.52614 0.0
C188 C 0.77448 0.77105 0.51637 0.0
C189 C 0.87898 0.81143 0.518 0.0
C190 C 0.74559 0.67265 0.50906 0.0
C191 C 0.62488 0.68317 0.52219 0.0
N192 N 0.83485 0.76808 0.51377 0.0
N193 N 0.66875 0.72598 0.52114 0.0
H194 H 0.65957 0.29144 0.43064 0.0
H195 H 0.86269 0.14917 0.54936 0.0
H196 H 0.68325 0.3342 0.55835 0.0
H197 H 0.7639 0.07203 0.44225 0.0
H198 H 0.79775 0.21656 0.5553 0.0
H199 H 0.69879 0.21059 0.43477 0.0
C200 C 0.67271 0.28332 0.4596 0.0
C201 C 0.66877 0.31925 0.49416 0.0
C202 C 0.78964 0.18426 0.53099 0.0
C203 C 0.71439 0.22756 0.49923 0.0
C204 C 0.82668 0.14583 0.52754 0.0
C205 C 0.81941 0.10538 0.49485 0.0
C206 C 0.74593 0.18258 0.50118 0.0
C207 C 0.77173 0.1028 0.46766 0.0
C208 C 0.69469 0.23719 0.46205 0.0
C209 C 0.68575 0.30713 0.53113 0.0
N210 N 0.73762 0.14144 0.47099 0.0
N211 N 0.70902 0.26259 0.53267 0.0
H212 H 0.43592 0.32085 0.51516 0.0
H213 H 0.07631 0.23176 0.54009 0.0
H214 H 0.30676 0.42738 0.533 0.0
H215 H 0.20385 0.12401 0.53298 0.0
H216 H 0.16041 0.30284 0.53279 0.0
H217 H 0.35186 0.24726 0.51751 0.0
C218 C 0.38997 0.32878 0.51951 0.0
C219 C 0.37843 0.38041 0.524 0.0
C220 C 0.17013 0.26366 0.53272 0.0
C221 C 0.28218 0.29649 0.52657 0.0
C222 C 0.12202 0.22297 0.53682 0.0
C223 C 0.13303 0.17185 0.53736 0.0
C224 C 0.22993 0.25336 0.52913 0.0
C225 C 0.19328 0.16286 0.53285 0.0
C226 C 0.34203 0.28677 0.52084 0.0
C227 C 0.31796 0.38832 0.52952 0.0
N228 N 0.23952 0.20326 0.52906 0.0
N229 N 0.27227 0.3469 0.53065 0.0
H230 H 0.31816 0.64289 0.47281 0.0
H231 H 0.18119 0.90261 0.54554 0.0
H232 H 0.32927 0.71689 0.59586 0.0
H233 H 0.10028 0.78509 0.44965 0.0
H234 H 0.25276 0.84512 0.55814 0.0
H235 H 0.25557 0.70624 0.45708 0.0
C236 C 0.30811 0.67301 0.49628 0.0
C237 C 0.32836 0.67477 0.53567 0.0
C238 C 0.21935 0.83213 0.53431 0.0
C239 C 0.25762 0.74692 0.51807 0.0
C240 C 0.17867 0.86483 0.52708 0.0
C241 C 0.13459 0.84833 0.4967 0.0
C242 C 0.21665 0.78322 0.51042 0.0
C243 C 0.13324 0.79904 0.47362 0.0
C244 C 0.27217 0.70873 0.48743 0.0
C245 C 0.31383 0.71413 0.56524 0.0
N246 N 0.17392 0.76827 0.48081 0.0
N247 N 0.27938 0.74881 0.55584 0.0
H248 H 0.08231 0.93996 0.13248 0.0
H249 H 0.03286 0.09179 0.35113 0.0
H250 H 0.00159 0.07994 0.15482 0.0
H251 H 0.06604 0.93225 0.33076 0.0
H252 H 0.04058 0.09478 0.27907 0.0
H253 H 0.09426 0.94293 0.20511 0.0
C254 C 0.06747 0.97144 0.15262 0.0
C255 C 0.04044 0.0095 0.13766 0.0
C256 C 0.04662 0.05925 0.29042 0.0
C257 C 0.05442 0.01334 0.22038 0.0
C258 C 0.04248 0.05757 0.33159 0.0
C259 C 0.04808 0.01147 0.34699 0.0
C260 C 0.05667 0.01462 0.26442 0.0
C261 C 0.0608 0.96844 0.32017 0.0
C262 C 0.07423 0.97307 0.19399 0.0
C263 C 0.02213 0.04949 0.16505 0.0
N264 N 0.06427 0.97093 0.28011 0.0
N265 N 0.02939 0.05031 0.20505 0.0
H266 H 0.93155 0.07586 0.9071 0.0
H267 H 0.08735 0.98595 0.69855 0.0
H268 H 0.04617 0.95731 0.88806 0.0
H269 H 0.94356 0.07831 0.7057 0.0
H270 H 0.07935 0.98397 0.77039 0.0
H271 H 0.93905 0.08373 0.83508 0.0
C272 C 0.95774 0.05124 0.88782 0.0
C273 C 0.98833 0.01595 0.90367 0.0
C274 C 0.04952 0.00481 0.75637 0.0
C275 C 0.99785 0.02536 0.82191 0.0
C276 C 0.0543 0.00617 0.71527 0.0
C277 C 0.01574 0.03198 0.69594 0.0
C278 C 0.00586 0.02941 0.77859 0.0
C279 C 0.97406 0.05778 0.71938 0.0
C280 C 0.96221 0.05591 0.84685 0.0
C281 C 0.02189 0.98518 0.87736 0.0
N282 N 0.96997 0.05564 0.75954 0.0
N283 N 0.02593 0.99082 0.838 0.0
H284 H 0.59175 0.44383 0.63392 0.0
H285 H 0.54078 0.59934 0.85089 0.0
H286 H 0.50454 0.58032 0.65451 0.0
H287 H 0.57343 0.43962 0.83269 0.0
H288 H 0.54946 0.60095 0.77868 0.0
H289 H 0.60551 0.44942 0.70668 0.0
C290 C 0.57594 0.47514 0.6537 0.0
C291 C 0.54643 0.51136 0.63826 0.0
C292 C 0.55525 0.56571 0.79056 0.0
C293 C 0.56255 0.51824 0.72104 0.0
C294 C 0.55059 0.56482 0.83181 0.0
C295 C 0.55554 0.51901 0.84783 0.0
C296 C 0.56526 0.52061 0.76513 0.0
C297 C 0.56858 0.47557 0.82158 0.0
C298 C 0.58373 0.47825 0.69512 0.0
C299 C 0.52693 0.55122 0.66516 0.0
N300 N 0.57254 0.47729 0.78144 0.0
N301 N 0.53527 0.55354 0.70522 0.0
H302 H 0.54137 0.44681 0.38723 0.0
H303 H 0.44025 0.58978 0.21116 0.0
H304 H 0.43061 0.56804 0.40849 0.0
H305 H 0.56901 0.48272 0.19756 0.0
H306 H 0.43247 0.58129 0.28273 0.0
H307 H 0.54562 0.45637 0.31651 0.0
C308 C 0.51744 0.47524 0.37696 0.0
C309 C 0.48575 0.50685 0.4039 0.0
C310 C 0.4626 0.55992 0.26404 0.0
C311 C 0.49106 0.51842 0.32257 0.0
C312 C 0.46729 0.56489 0.22324 0.0
C313 C 0.50527 0.53682 0.19825 0.0
C314 C 0.4959 0.52647 0.27984 0.0
C315 C 0.53909 0.50507 0.21555 0.0
C316 C 0.52018 0.48086 0.33649 0.0
C317 C 0.45549 0.54284 0.38872 0.0
N318 N 0.53335 0.50061 0.25515 0.0
N319 N 0.45912 0.54785 0.34898 0.0
loop_
_geom_bond_atom_site_label_1
_geom_bond_atom_site_label_2
_geom_bond_distance
_geom_bond_site_symmetry_2
_ccdc_geom_bond_type
Co0 N5 2.057 . S
Co0 O17 2.021 . S
Co0 O20 2.062 1_455 S
Co0 O24 2.117 1_554 S
Co0 O25 2.020 1_565 S
C1 O21 1.259 . S
C1 O24 1.258 1_645 S
Co2 N11 2.057 . S
Co2 O18 2.117 . S
Co2 O19 2.020 1_545 S
Co2 O21 2.021 1_554 S
Co2 O26 2.062 1_655 S
C3 N5 1.316 . S
C3 N6 1.347 . S
C3 H8 0.931 . S
C4 N5 1.375 1_556 S
C4 C7 1.350 . S
C4 H9 0.930 . S
N5 Co0 2.057 . S
N5 C3 1.316 . S
N5 C4 1.375 1_554 S
N6 C3 1.347 . S
N6 C7 1.373 1_554 S
C7 C4 1.350 . S
C7 N6 1.373 1_556 S
C7 H28 0.931 . S
H8 C3 0.931 . S
H9 C4 0.930 . S
C10 O17 1.259 1_545 S
C10 O18 1.258 1_455 S
N11 Co2 2.057 . S
N11 C12 1.316 . S
N11 C13 1.375 . S
C12 N11 1.316 . S
C12 N14 1.347 . S
C12 H23 0.931 1_554 S
C13 N11 1.375 . S
C13 C15 1.350 . S
C13 H22 0.930 . S
N14 C12 1.347 . S
N14 C15 1.373 . S
C15 C13 1.350 . S
C15 N14 1.373 . S
C15 H29 0.931 . S
C16 O19 1.256 . S
C16 O20 1.255 . S
O17 Co0 2.021 . S
O17 C10 1.259 1_565 S
O18 Co2 2.117 . S
O18 C10 1.258 1_655 S
O19 Co2 2.020 1_565 S
O19 C16 1.256 . S
O20 Co0 2.062 1_655 S
O20 C16 1.255 . S
O21 C1 1.259 . S
O21 Co2 2.021 1_556 S
H22 C13 0.930 . S
H23 C12 0.931 1_556 S
O24 Co0 2.117 1_556 S
O24 C1 1.258 1_465 S
O25 Co0 2.020 1_545 S
O25 C27 1.256 . S
O26 Co2 2.062 1_455 S
O26 C27 1.255 . S
C27 O25 1.256 . S
C27 O26 1.255 . S
H28 C7 0.931 . S
H29 C15 0.931 . S
Co30 N35 2.057 . S
Co30 O47 2.021 . S
Co30 O50 2.062 . S
Co30 O54 2.117 . S
Co30 O55 2.020 . S
C31 O51 1.259 . S
C31 O54 1.258 . S
Co32 N41 2.057 . S
Co32 O48 2.117 . S
Co32 O49 2.020 . S
Co32 O51 2.021 . S
Co32 O56 2.062 . S
C33 N35 1.316 . S
C33 N36 1.347 . S
C33 H38 0.931 . S
C34 N35 1.375 . S
C34 C37 1.350 . S
C34 H39 0.930 . S
N35 Co30 2.057 . S
N35 C33 1.316 . S
N35 C34 1.375 . S
N36 C33 1.347 . S
N36 C37 1.373 . S
C37 C34 1.350 . S
C37 N36 1.373 . S
C37 H58 0.931 . S
H38 C33 0.931 . S
H39 C34 0.930 . S
C40 O47 1.259 . S
C40 O48 1.258 . S
N41 Co32 2.057 . S
N41 C42 1.316 . S
N41 C43 1.375 . S
C42 N41 1.316 . S
C42 N44 1.347 . S
C42 H53 0.931 . S
C43 N41 1.375 . S
C43 C45 1.350 . S
C43 H52 0.930 . S
N44 C42 1.347 . S
N44 C45 1.373 . S
C45 C43 1.350 . S
C45 N44 1.373 . S
C45 H59 0.931 . S
C46 O49 1.256 . S
C46 O50 1.255 . S
O47 Co30 2.021 . S
O47 C40 1.259 . S
O48 Co32 2.117 . S
O48 C40 1.258 . S
O49 Co32 2.020 . S
O49 C46 1.256 . S
O50 Co30 2.062 . S
O50 C46 1.255 . S
O51 C31 1.259 . S
O51 Co32 2.021 . S
H52 C43 0.930 . S
H53 C42 0.931 . S
O54 Co30 2.117 . S
O54 C31 1.258 . S
O55 Co30 2.020 . S
O55 C57 1.256 . S
O56 Co32 2.062 . S
O56 C57 1.255 . S
C57 O55 1.256 . S
C57 O56 1.255 . S
H58 C37 0.931 . S
H59 C45 0.931 . S
O60 Cd61 2.300 1_565 S
O60 C67 1.275 1_565 S
Cd61 O60 2.300 1_545 S
Cd61 O69 2.376 1_545 S
Cd61 O70 2.376 1_545 S
O62 Cd63 2.385 . S
O62 C67 1.255 . S
Cd63 O62 2.385 . S
Cd63 O64 2.317 1_455 S
O64 Cd63 2.317 1_655 S
O64 C65 1.232 . S
C65 O64 1.232 . S
C65 O66 1.218 . S
O66 C65 1.218 . S
C67 O60 1.275 1_545 S
C67 O62 1.255 . S
C68 O69 1.258 . S
C68 O70 1.256 . S
O69 Cd61 2.376 1_565 S
O69 C68 1.258 . S
O70 Cd61 2.376 1_565 S
O70 C68 1.256 . S
O71 Cd72 2.300 . S
O71 C78 1.259 1_545 S
Cd72 O71 2.300 . S
Cd72 O80 2.381 . S
Cd72 O81 2.378 . S
O73 Cd74 2.385 . S
O73 C78 1.269 . S
Cd74 O73 2.385 . S
Cd74 O75 2.317 1_455 S
O75 Cd74 2.317 1_655 S
O75 C76 1.232 . S
C76 O75 1.232 . S
C76 O77 1.218 . S
O77 C76 1.218 . S
C78 O71 1.259 1_565 S
C78 O73 1.269 . S
C79 O80 1.258 . S
C79 O81 1.256 . S
O80 Cd72 2.381 . S
O80 C79 1.258 . S
O81 Cd72 2.378 . S
O81 C79 1.256 . S
O82 Cd83 2.300 . S
O82 C89 1.275 . S
Cd83 O82 2.300 . S
Cd83 O91 2.381 . S
Cd83 O92 2.378 1_556 S
O84 Cd85 2.385 . S
O84 C89 1.255 . S
Cd85 O84 2.385 . S
Cd85 O86 2.317 . S
O86 Cd85 2.317 . S
O86 C87 1.232 . S
C87 O86 1.232 . S
C87 O88 1.218 . S
O88 C87 1.218 . S
C89 O82 1.275 . S
C89 O84 1.255 . S
C90 O91 1.258 . S
C90 O92 1.256 1_556 S
O91 Cd83 2.381 . S
O91 C90 1.258 . S
O92 Cd83 2.378 1_554 S
O92 C90 1.256 1_554 S
O93 Cd94 2.300 . S
O93 C100 1.275 . S
Cd94 O93 2.300 . S
Cd94 O102 2.381 . S
Cd94 O103 2.378 . S
O95 Cd96 2.385 . S
O95 C100 1.255 . S
Cd96 O95 2.385 . S
Cd96 O97 2.317 . S
O97 Cd96 2.317 . S
O97 C98 1.232 . S
C98 O97 1.232 . S
C98 O99 1.218 . S
O99 C98 1.218 . S
C100 O93 1.275 . S
C100 O95 1.255 . S
C101 O102 1.258 . S
C101 O103 1.256 . S
O102 Cd94 2.381 . S
O102 C101 1.258 . S
O103 Cd94 2.378 . S
O103 C101 1.256 . S
H104 C110 0.930 . S
H105 C114 0.930 . S
H106 C119 0.929 . S
H107 C117 0.929 1_556 S
H108 C112 0.929 . S
H109 C118 0.929 1_556 S
C110 H104 0.930 . S
C110 C111 1.367 1_556 S
C110 C118 1.378 1_556 S
C111 C110 1.367 1_554 S
C111 C119 1.433 . S
C112 H108 0.929 . S
C112 C114 1.378 . S
C112 C116 1.350 . S
C113 C116 1.463 . S
C113 C118 1.350 . S
C113 N121 1.427 . S
C114 H105 0.930 . S
C114 C112 1.378 . S
C114 C115 1.367 . S
C115 C114 1.367 . S
C115 C117 1.433 . S
C116 C112 1.350 . S
C116 C113 1.463 . S
C116 N120 1.427 . S
C117 H107 0.929 1_554 S
C117 C115 1.433 . S
C117 N120 1.384 . S
C118 H109 0.929 1_554 S
C118 C110 1.378 1_554 S
C118 C113 1.350 . S
C119 H106 0.929 . S
C119 C111 1.433 . S
C119 N121 1.384 . S
N120 C116 1.427 . S
N120 C117 1.384 . S
N121 C113 1.427 . S
N121 C119 1.384 . S
H122 C128 0.930 . S
H123 C132 0.930 . S
H124 C137 0.929 . S
H125 C135 0.929 . S
H126 C130 0.929 . S
H127 C136 0.929 . S
C128 H122 0.930 . S
C128 C129 1.367 1_556 S
C128 C136 1.378 . S
C129 C128 1.367 1_554 S
C129 C137 1.433 . S
C130 H126 0.929 . S
C130 C132 1.378 . S
C130 C134 1.350 . S
C131 C134 1.463 . S
C131 C136 1.350 1_554 S
C131 N139 1.427 . S
C132 H123 0.930 . S
C132 C130 1.378 . S
C132 C133 1.367 1_554 S
C133 C132 1.367 1_556 S
C133 C135 1.433 . S
C134 C130 1.350 . S
C134 C131 1.463 . S
C134 N138 1.427 1_554 S
C135 H125 0.929 . S
C135 C133 1.433 . S
C135 N138 1.384 . S
C136 H127 0.929 . S
C136 C128 1.378 . S
C136 C131 1.350 1_556 S
C137 H124 0.929 . S
C137 C129 1.433 . S
C137 N139 1.384 . S
N138 C134 1.427 1_556 S
N138 C135 1.384 . S
N139 C131 1.427 . S
N139 C137 1.384 . S
H140 C146 0.930 . S
H141 C150 0.920 1_556 S
H142 C155 0.929 . S
H143 C153 0.929 . S
H144 C148 0.929 . S
H145 C154 0.929 . S
C146 H140 0.930 . S
C146 C147 1.367 . S
C146 C154 1.378 . S
C147 C146 1.367 . S
C147 C155 1.433 1_554 S
C148 H144 0.929 . S
C148 C150 1.375 1_556 S
C148 C152 1.350 1_556 S
C149 C152 1.463 . S
C149 C154 1.350 . S
C149 N157 1.427 1_554 S
C150 H141 0.920 1_554 S
C150 C148 1.375 1_554 S
C150 C151 1.380 . S
C151 C150 1.380 . S
C151 C153 1.433 . S
C152 C148 1.350 1_554 S
C152 C149 1.463 . S
C152 N156 1.427 . S
C153 H143 0.929 . S
C153 C151 1.433 . S
C153 N156 1.384 . S
C154 H145 0.929 . S
C154 C146 1.378 . S
C154 C149 1.350 . S
C155 H142 0.929 . S
C155 C147 1.433 1_556 S
C155 N157 1.384 . S
N156 C152 1.427 . S
N156 C153 1.384 . S
N157 C149 1.427 1_556 S
N157 C155 1.384 . S
H158 C164 0.930 . S
H159 C168 0.930 . S
H160 C173 0.929 . S
H161 C171 0.929 . S
H162 C166 0.929 . S
H163 C172 0.929 . S
C164 H158 0.930 . S
C164 C165 1.367 . S
C164 C172 1.378 . S
C165 C164 1.367 . S
C165 C173 1.433 1_554 S
C166 H162 0.929 . S
C166 C168 1.378 . S
C166 C170 1.350 1_556 S
C167 C170 1.463 . S
C167 C172 1.350 . S
C167 N175 1.427 1_554 S
C168 H159 0.930 . S
C168 C166 1.378 . S
C168 C169 1.367 1_556 S
C169 C168 1.367 1_554 S
C169 C171 1.433 . S
C170 C166 1.350 1_554 S
C170 C167 1.463 . S
C170 N174 1.427 . S
C171 H161 0.929 . S
C171 C169 1.433 . S
C171 N174 1.384 . S
C172 H163 0.929 . S
C172 C164 1.378 . S
C172 C167 1.350 . S
C173 H160 0.929 . S
C173 C165 1.433 1_556 S
C173 N175 1.384 . S
N174 C170 1.427 . S
N174 C171 1.384 . S
N175 C167 1.427 1_556 S
N175 C173 1.384 . S
H176 C182 0.930 . S
H177 C186 0.930 . S
H178 C191 0.929 . S
H179 C189 0.929 . S
H180 C184 0.929 . S
H181 C190 0.929 . S
C182 H176 0.930 . S
C182 C183 1.367 . S
C182 C190 1.378 . S
C183 C182 1.367 . S
C183 C191 1.433 . S
C184 H180 0.929 . S
C184 C186 1.378 . S
C184 C188 1.350 . S
C185 C188 1.463 . S
C185 C190 1.350 . S
C185 N193 1.427 . S
C186 H177 0.930 . S
C186 C184 1.378 . S
C186 C187 1.367 . S
C187 C186 1.367 . S
C187 C189 1.433 . S
C188 C184 1.350 . S
C188 C185 1.463 . S
C188 N192 1.427 . S
C189 H179 0.929 . S
C189 C187 1.433 . S
C189 N192 1.384 . S
C190 H181 0.929 . S
C190 C182 1.378 . S
C190 C185 1.350 . S
C191 H178 0.929 . S
C191 C183 1.433 . S
C191 N193 1.384 . S
N192 C188 1.427 . S
N192 C189 1.384 . S
N193 C185 1.427 . S
N193 C191 1.384 . S
H194 C200 0.930 . S
H195 C204 0.930 . S
H196 C209 0.929 . S
H197 C207 0.929 . S
H198 C202 0.929 . S
H199 C208 0.929 . S
C200 H194 0.930 . S
C200 C201 1.367 . S
C200 C208 1.378 . S
C201 C200 1.367 . S
C201 C209 1.433 . S
C202 H198 0.929 . S
C202 C204 1.378 . S
C202 C206 1.350 . S
C203 C206 1.463 . S
C203 C208 1.350 . S
C203 N211 1.427 . S
C204 H195 0.930 . S
C204 C202 1.378 . S
C204 C205 1.367 . S
C205 C204 1.367 . S
C205 C207 1.433 . S
C206 C202 1.350 . S
C206 C203 1.463 . S
C206 N210 1.427 . S
C207 H197 0.929 . S
C207 C205 1.433 . S
C207 N210 1.384 . S
C208 H199 0.929 . S
C208 C200 1.378 . S
C208 C203 1.350 . S
C209 H196 0.929 . S
C209 C201 1.433 . S
C209 N211 1.384 . S
N210 C206 1.427 . S
N210 C207 1.384 . S
N211 C203 1.427 . S
N211 C209 1.384 . S
H212 C218 0.930 . S
H213 C222 0.930 . S
H214 C227 0.929 . S
H215 C225 0.929 . S
H216 C220 0.929 . S
H217 C226 0.929 . S
C218 H212 0.930 . S
C218 C219 1.367 . S
C218 C226 1.378 . S
C219 C218 1.367 . S
C219 C227 1.433 . S
C220 H216 0.929 . S
C220 C222 1.378 . S
C220 C224 1.350 . S
C221 C224 1.463 . S
C221 C226 1.350 . S
C221 N229 1.427 . S
C222 H213 0.930 . S
C222 C220 1.378 . S
C222 C223 1.367 . S
C223 C222 1.367 . S
C223 C225 1.433 . S
C224 C220 1.350 . S
C224 C221 1.463 . S
C224 N228 1.427 . S
C225 H215 0.929 . S
C225 C223 1.433 . S
C225 N228 1.384 . S
C226 H217 0.929 . S
C226 C218 1.378 . S
C226 C221 1.350 . S
C227 H214 0.929 . S
C227 C219 1.433 . S
C227 N229 1.384 . S
N228 C224 1.427 . S
N228 C225 1.384 . S
N229 C221 1.427 . S
N229 C227 1.384 . S
H230 C236 0.930 . S
H231 C240 0.930 . S
H232 C245 0.929 . S
H233 C243 0.929 . S
H234 C238 0.929 . S
H235 C244 0.929 . S
C236 H230 0.930 . S
C236 C237 1.367 . S
C236 C244 1.378 . S
C237 C236 1.367 . S
C237 C245 1.433 . S
C238 H234 0.929 . S
C238 C240 1.378 . S
C238 C242 1.350 . S
C239 C242 1.463 . S
C239 C244 1.350 . S
C239 N247 1.427 . S
C240 H231 0.930 . S
C240 C238 1.378 . S
C240 C241 1.367 . S
C241 C240 1.367 . S
C241 C243 1.433 . S
C242 C238 1.350 . S
C242 C239 1.463 . S
C242 N246 1.427 . S
C243 H233 0.929 . S
C243 C241 1.433 . S
C243 N246 1.384 . S
C244 H235 0.929 . S
C244 C236 1.378 . S
C244 C239 1.350 . S
C245 H232 0.929 . S
C245 C237 1.433 . S
C245 N247 1.384 . S
N246 C242 1.427 . S
N246 C243 1.384 . S
N247 C239 1.427 . S
N247 C245 1.384 . S
H248 C254 0.930 . S
H249 C258 0.930 . S
H250 C263 0.929 . S
H251 C261 0.929 . S
H252 C256 0.929 . S
H253 C262 0.929 . S
C254 H248 0.930 . S
C254 C255 1.367 1_565 S
C254 C262 1.378 . S
C255 C254 1.367 1_545 S
C255 C263 1.433 1_455 S
C256 H252 0.929 . S
C256 C258 1.378 . S
C256 C260 1.362 . S
C257 C260 1.462 1_455 S
C257 C262 1.350 1_545 S
C257 N265 1.427 1_455 S
C258 H249 0.930 . S
C258 C256 1.378 . S
C258 C259 1.377 . S
C259 C258 1.377 . S
C259 C261 1.423 1_645 S
C260 C256 1.362 . S
C260 C257 1.462 1_655 S
C260 N264 1.415 1_645 S
C261 H251 0.929 . S
C261 C259 1.423 1_465 S
C261 N264 1.384 . S
C262 H253 0.929 . S
C262 C254 1.378 . S
C262 C257 1.350 1_565 S
C263 H250 0.929 . S
C263 C255 1.433 1_655 S
C263 N265 1.384 . S
N264 C260 1.415 1_465 S
N264 C261 1.384 . S
N265 C257 1.427 1_655 S
N265 C263 1.384 . S
H266 C272 0.930 . S
H267 C276 0.930 . S
H268 C281 0.929 . S
H269 C279 0.929 . S
H270 C274 0.929 . S
H271 C280 0.929 . S
C272 H266 0.930 . S
C272 C273 1.368 1_565 S
C272 C280 1.378 . S
C273 C272 1.368 1_545 S
C273 C281 1.435 1_655 S
C274 H270 0.929 . S
C274 C276 1.378 . S
C274 C278 1.366 1_545 S
C275 C278 1.462 1_655 S
C275 C280 1.350 . S
C275 N283 1.427 1_665 S
C276 H267 0.930 . S
C276 C274 1.378 . S
C276 C277 1.363 1_445 S
C277 C276 1.363 1_665 S
C277 C279 1.437 . S
C278 C274 1.366 1_565 S
C278 C275 1.462 1_455 S
C278 N282 1.410 1_455 S
C279 H269 0.929 . S
C279 C277 1.437 . S
C279 N282 1.384 . S
C280 H271 0.929 . S
C280 C272 1.378 . S
C280 C275 1.350 . S
C281 H268 0.929 . S
C281 C273 1.435 1_455 S
C281 N283 1.384 . S
N282 C278 1.410 1_655 S
N282 C279 1.384 . S
N283 C275 1.427 1_445 S
N283 C281 1.384 . S
H284 C290 0.930 . S
H285 C294 0.930 . S
H286 C299 0.929 . S
H287 C297 0.929 . S
H288 C292 0.929 . S
H289 C298 0.929 . S
C290 H284 0.930 . S
C290 C291 1.367 . S
C290 C298 1.378 . S
C291 C290 1.367 . S
C291 C299 1.433 . S
C292 H288 0.929 . S
C292 C294 1.378 . S
C292 C296 1.350 . S
C293 C296 1.463 . S
C293 C298 1.350 . S
C293 N301 1.427 . S
C294 H285 0.930 . S
C294 C292 1.378 . S
C294 C295 1.367 . S
C295 C294 1.367 . S
C295 C297 1.433 . S
C296 C292 1.350 . S
C296 C293 1.463 . S
C296 N300 1.427 . S
C297 H287 0.929 . S
C297 C295 1.433 . S
C297 N300 1.384 . S
C298 H289 0.929 . S
C298 C290 1.378 . S
C298 C293 1.350 . S
C299 H286 0.929 . S
C299 C291 1.433 . S
C299 N301 1.384 . S
N300 C296 1.427 . S
N300 C297 1.384 . S
N301 C293 1.427 . S
N301 C299 1.384 . S
H302 C308 0.930 . S
H303 C312 0.930 . S
H304 C317 0.929 . S
H305 C315 0.929 . S
H306 C310 0.929 . S
H307 C316 0.929 . S
C308 H302 0.930 . S
C308 C309 1.367 . S
C308 C316 1.378 . S
C309 C308 1.367 . S
C309 C317 1.433 . S
C310 H306 0.929 . S
C310 C312 1.378 . S
C310 C314 1.350 . S
C311 C314 1.463 . S
C311 C316 1.350 . S
C311 N319 1.427 . S
C312 H303 0.930 . S
C312 C310 1.378 . S
C312 C313 1.367 . S
C313 C312 1.367 . S
C313 C315 1.433 . S
C314 C310 1.350 . S
C314 C311 1.463 . S
C314 N318 1.427 . S
C315 H305 0.929 . S
C315 C313 1.433 . S
C315 N318 1.384 . S
C316 H307 0.929 . S
C316 C308 1.378 . S
C316 C311 1.350 . S
C317 H304 0.929 . S
C317 C309 1.433 . S
C317 N319 1.384 . S
N318 C314 1.427 . S
N318 C315 1.384 . S
N319 C311 1.427 . S
N319 C317 1.384 . S
C115 C98 1.239 . S
C111 C27 1.479 . S
C129 N6 1.404 . S
C133 C87 1.239 . S
C147 C16 1.449 . S
C151 C101 1.421 . S
C165 N14 1.414 . S
C169 C90 1.401 1_554 S
C183 C57 1.478 . S
C187 C76 1.266 . S
C201 N36 1.404 . S
C205 C65 1.239 . S
C223 C79 1.425 . S
C219 C46 1.449 . S
C241 C68 1.406 . S
C237 N44 1.417 . S
C255 C10 1.452 . S
C259 C67 1.410 1_655 S
C273 C1 1.528 . S
C277 C78 1.477 1_655 S
C295 C89 1.413 . S
C291 C40 1.452 . S
C309 C31 1.530 . S
C313 C100 1.476 . S
