# Generated by pormake.
# Topology ssb, (4,4)-cn, num edge types: 1
# Building blocks:
#     Node 0, Type 0, BuildingBlock: ESEHIV_clean_sbu_0, # of connection points: 4
#     Node 1, Type 0, BuildingBlock: ESEHIV_clean_sbu_0, # of connection points: 4
#     Node 2, Type 0, BuildingBlock: ESEHIV_clean_sbu_0, # of connection points: 4
#     Node 3, Type 0, BuildingBlock: ESEHIV_clean_sbu_0, # of connection points: 4
#     Node 4, Type 0, BuildingBlock: ESEHIV_clean_sbu_0, # of connection points: 4
#     Node 5, Type 0, BuildingBlock: ESEHIV_clean_sbu_0, # of connection points: 4
#     Node 6, Type 0, BuildingBlock: ESEHIV_clean_sbu_0, # of connection points: 4
#     Node 7, Type 0, BuildingBlock: ESEHIV_clean_sbu_0, # of connection points: 4
#     Node 8, Type 1, BuildingBlock: KOZSID_clean_sbu_0, # of connection points: 4
#     Node 9, Type 1, BuildingBlock: KOZSID_clean_sbu_0, # of connection points: 4
#     Node 10, Type 1, BuildingBlock: KOZSID_clean_sbu_0, # of connection points: 4
#     Node 11, Type 1, BuildingBlock: KOZSID_clean_sbu_0, # of connection points: 4
#     Node 12, Type 1, BuildingBlock: KOZSID_clean_sbu_0, # of connection points: 4
#     Node 13, Type 1, BuildingBlock: KOZSID_clean_sbu_0, # of connection points: 4
#     Node 14, Type 1, BuildingBlock: KOZSID_clean_sbu_0, # of connection points: 4
#     Node 15, Type 1, BuildingBlock: KOZSID_clean_sbu_0, # of connection points: 4
#     Edge 16, Type (0, 1), BuildingBlock: ZUJKAS_clean_linker_0, # of connection points: 2
#     Edge 17, Type (0, 1), BuildingBlock: ZUJKAS_clean_linker_0, # of connection points: 2
#     Edge 18, Type (0, 1), BuildingBlock: ZUJKAS_clean_linker_0, # of connection points: 2
#     Edge 19, Type (0, 1), BuildingBlock: ZUJKAS_clean_linker_0, # of connection points: 2
#     Edge 20, Type (0, 1), BuildingBlock: ZUJKAS_clean_linker_0, # of connection points: 2
#     Edge 21, Type (0, 1), BuildingBlock: ZUJKAS_clean_linker_0, # of connection points: 2
#     Edge 22, Type (0, 1), BuildingBlock: ZUJKAS_clean_linker_0, # of connection points: 2
#     Edge 23, Type (0, 1), BuildingBlock: ZUJKAS_clean_linker_0, # of connection points: 2
#     Edge 24, Type (0, 1), BuildingBlock: ZUJKAS_clean_linker_0, # of connection points: 2
#     Edge 25, Type (0, 1), BuildingBlock: ZUJKAS_clean_linker_0, # of connection points: 2
#     Edge 26, Type (0, 1), BuildingBlock: ZUJKAS_clean_linker_0, # of connection points: 2
#     Edge 27, Type (0, 1), BuildingBlock: ZUJKAS_clean_linker_0, # of connection points: 2
#     Edge 28, Type (0, 1), BuildingBlock: ZUJKAS_clean_linker_0, # of connection points: 2
#     Edge 29, Type (0, 1), BuildingBlock: ZUJKAS_clean_linker_0, # of connection points: 2
#     Edge 30, Type (0, 1), BuildingBlock: ZUJKAS_clean_linker_0, # of connection points: 2
#     Edge 31, Type (0, 1), BuildingBlock: ZUJKAS_clean_linker_0, # of connection points: 2
#     Edge 32, Type (0, 1), BuildingBlock: ZUJKAS_clean_linker_0, # of connection points: 2
#     Edge 33, Type (0, 1), BuildingBlock: ZUJKAS_clean_linker_0, # of connection points: 2
#     Edge 34, Type (0, 1), BuildingBlock: ZUJKAS_clean_linker_0, # of connection points: 2
#     Edge 35, Type (0, 1), BuildingBlock: ZUJKAS_clean_linker_0, # of connection points: 2
#     Edge 36, Type (0, 1), BuildingBlock: ZUJKAS_clean_linker_0, # of connection points: 2
#     Edge 37, Type (0, 1), BuildingBlock: ZUJKAS_clean_linker_0, # of connection points: 2
#     Edge 38, Type (0, 1), BuildingBlock: ZUJKAS_clean_linker_0, # of connection points: 2
#     Edge 39, Type (0, 1), BuildingBlock: ZUJKAS_clean_linker_0, # of connection points: 2
#     Edge 40, Type (0, 1), BuildingBlock: ZUJKAS_clean_linker_0, # of connection points: 2
#     Edge 41, Type (0, 1), BuildingBlock: ZUJKAS_clean_linker_0, # of connection points: 2
#     Edge 42, Type (0, 1), BuildingBlock: ZUJKAS_clean_linker_0, # of connection points: 2
#     Edge 43, Type (0, 1), BuildingBlock: ZUJKAS_clean_linker_0, # of connection points: 2
#     Edge 44, Type (0, 1), BuildingBlock: ZUJKAS_clean_linker_0, # of connection points: 2
#     Edge 45, Type (0, 1), BuildingBlock: ZUJKAS_clean_linker_0, # of connection points: 2
#     Edge 46, Type (0, 1), BuildingBlock: ZUJKAS_clean_linker_0, # of connection points: 2
#     Edge 47, Type (0, 1), BuildingBlock: ZUJKAS_clean_linker_0, # of connection points: 2
# Relax obj value: 0.003
# Max RMSD: 0.109
# Mean RMSD: 0.052
data_MOF--net-ssb--node1-ESEHIV_clean_sbu_0--node2-KOZSID_clean_sbu_0--edge1-ZUJKAS_clean_linker_0
_symmetry_space_group_name_H-M    P1
_symmetry_Int_Tables_number       1
_symmetry_cell_setting            triclinic
loop_
_symmetry_equiv_pos_as_xyz
'x, y, z'
_cell_length_a     69.834011
_cell_length_b     69.624822
_cell_length_c     51.244403
_cell_angle_alpha  91.870954
_cell_angle_beta   93.766574
_cell_angle_gamma 89.975682
loop_
_atom_site_label
_atom_site_type_symbol
_atom_site_fract_x
_atom_site_fract_y
_atom_site_fract_z
_atom_type_partial_charge
Cu0 Cu 0.27457 0.26246 0.27436 0.0
N1 N 0.26923 0.23569 0.27611 0.0
N2 N 0.26794 0.2062 0.29317 0.0
C3 C 0.27192 0.22515 0.29787 0.0
C4 C 0.26243 0.2049 0.26738 0.0
C5 C 0.2632 0.22295 0.25701 0.0
O6 O 0.26304 0.27371 0.30537 0.0
C7 C 0.30888 0.25588 0.25319 0.0
O8 O 0.29684 0.24507 0.23842 0.0
H9 H 0.2772 0.23123 0.31667 0.0
H10 H 0.25999 0.22639 0.23679 0.0
N11 N 0.2645 0.27511 0.24396 0.0
N12 N 0.26038 0.2982 0.21399 0.0
C13 C 0.26975 0.29283 0.23669 0.0
C14 C 0.25138 0.269 0.22514 0.0
C15 C 0.24883 0.28306 0.20681 0.0
C16 C 0.24514 0.27764 0.30297 0.0
O17 O 0.23617 0.27599 0.27967 0.0
H18 H 0.28018 0.30163 0.2481 0.0
H19 H 0.24404 0.25532 0.22478 0.0
O20 O 0.30243 0.26527 0.27257 0.0
H21 H 0.25809 0.19181 0.25663 0.0
H22 H 0.23926 0.28198 0.18935 0.0
Cu23 Cu 0.79188 0.28192 0.2702 0.0
N24 N 0.77797 0.26783 0.24335 0.0
N25 N 0.75333 0.25959 0.21482 0.0
C26 C 0.76162 0.2737 0.23047 0.0
C27 C 0.76513 0.24432 0.21781 0.0
C28 C 0.78026 0.24942 0.2354 0.0
O29 O 0.78983 0.30892 0.26153 0.0
C30 C 0.76654 0.26661 0.30588 0.0
O31 O 0.75379 0.26572 0.28587 0.0
H32 H 0.75537 0.28772 0.23382 0.0
H33 H 0.7917 0.24015 0.24267 0.0
N34 N 0.81796 0.27519 0.27348 0.0
N35 N 0.84749 0.27122 0.29271 0.0
C36 C 0.82955 0.27808 0.29538 0.0
C37 C 0.82887 0.26618 0.25623 0.0
C38 C 0.84706 0.26375 0.26798 0.0
C39 C 0.79626 0.31281 0.23959 0.0
O40 O 0.80393 0.29884 0.22594 0.0
H41 H 0.8248 0.28513 0.31293 0.0
H42 H 0.8239 0.2615 0.23661 0.0
O43 O 0.78236 0.2753 0.30364 0.0
H44 H 0.76285 0.23029 0.20841 0.0
H45 H 0.85888 0.25662 0.25908 0.0
Cu46 Cu 0.7709 0.78295 0.26051 0.0
N47 N 0.77965 0.77025 0.23011 0.0
N48 N 0.78375 0.74645 0.19998 0.0
C49 C 0.77507 0.752 0.22193 0.0
C50 C 0.79412 0.76194 0.19412 0.0
C51 C 0.79149 0.77654 0.21253 0.0
O52 O 0.74344 0.7763 0.25812 0.0
C53 C 0.8048 0.77615 0.28904 0.0
O54 O 0.81068 0.78311 0.26743 0.0
H55 H 0.76579 0.74284 0.23221 0.0
H56 H 0.79789 0.79071 0.21315 0.0
N57 N 0.77342 0.81016 0.26179 0.0
N58 N 0.77327 0.84043 0.27893 0.0
C59 C 0.7758 0.82153 0.28381 0.0
C60 C 0.76951 0.82237 0.24232 0.0
C61 C 0.76934 0.84094 0.2528 0.0
C62 C 0.73002 0.78872 0.25898 0.0
O63 O 0.73412 0.80613 0.26827 0.0
H64 H 0.77805 0.81596 0.30325 0.0
H65 H 0.76592 0.81799 0.22215 0.0
O66 O 0.78676 0.77408 0.29092 0.0
H67 H 0.80286 0.76277 0.17752 0.0
H68 H 0.76601 0.85379 0.24209 0.0
Cu69 Cu 0.25541 0.76466 0.2445 0.0
N70 N 0.26623 0.77372 0.21451 0.0
N71 N 0.28912 0.77911 0.18675 0.0
C72 C 0.28442 0.77005 0.20842 0.0
C73 C 0.27311 0.78884 0.17891 0.0
C74 C 0.25909 0.78553 0.19603 0.0
O75 O 0.2592 0.737 0.24311 0.0
C76 C 0.26916 0.79576 0.27346 0.0
O77 O 0.2616 0.80381 0.25236 0.0
H78 H 0.29417 0.76134 0.22028 0.0
H79 H 0.24491 0.79177 0.19536 0.0
N80 N 0.22913 0.77009 0.24714 0.0
N81 N 0.20102 0.77359 0.26576 0.0
C82 C 0.21994 0.76952 0.2695 0.0
C83 C 0.21553 0.77463 0.22854 0.0
C84 C 0.19825 0.77685 0.23994 0.0
C85 C 0.24824 0.7275 0.22655 0.0
O86 O 0.23454 0.73664 0.21331 0.0
H87 H 0.2271 0.76621 0.28818 0.0
H88 H 0.21783 0.77577 0.20801 0.0
O89 O 0.26856 0.77754 0.27468 0.0
H90 H 0.27158 0.79783 0.16207 0.0
H91 H 0.18461 0.78008 0.22979 0.0
Cu92 Cu 0.27082 0.78582 0.76952 0.0
N93 N 0.28385 0.79725 0.79934 0.0
N94 N 0.30793 0.80239 0.83002 0.0
C95 C 0.2998 0.78997 0.81168 0.0
C96 C 0.29662 0.81811 0.82915 0.0
C97 C 0.28195 0.815 0.81005 0.0
O98 O 0.27488 0.75781 0.77461 0.0
C99 C 0.27385 0.80057 0.71674 0.0
O100 O 0.25997 0.78863 0.70886 0.0
H101 H 0.30568 0.77606 0.80661 0.0
H102 H 0.27139 0.82542 0.80343 0.0
N103 N 0.24416 0.79101 0.76764 0.0
N104 N 0.21351 0.7923 0.7513 0.0
C105 C 0.23094 0.78406 0.74925 0.0
C106 C 0.23457 0.80366 0.78229 0.0
C107 C 0.21577 0.80453 0.77226 0.0
C108 C 0.26456 0.75012 0.79131 0.0
O109 O 0.25118 0.76061 0.80159 0.0
H110 H 0.23422 0.77365 0.73408 0.0
H111 H 0.24079 0.81201 0.79882 0.0
O112 O 0.28145 0.79948 0.74007 0.0
H113 H 0.29937 0.83137 0.84039 0.0
H114 H 0.20471 0.81368 0.77972 0.0
Cu115 Cu 0.29432 0.28176 0.76562 0.0
N116 N 0.29863 0.3082 0.76487 0.0
N117 N 0.29936 0.33885 0.77922 0.0
C118 C 0.2962 0.32044 0.78521 0.0
C119 C 0.30399 0.33815 0.75404 0.0
C120 C 0.30356 0.3192 0.74524 0.0
O121 O 0.30853 0.27312 0.79758 0.0
C122 C 0.25819 0.28544 0.74196 0.0
O123 O 0.2688 0.29536 0.72698 0.0
H124 H 0.29162 0.31589 0.80381 0.0
H125 H 0.30617 0.31392 0.72573 0.0
N126 N 0.30384 0.26863 0.73688 0.0
N127 N 0.30654 0.245 0.70679 0.0
C128 C 0.29707 0.25154 0.7274 0.0
C129 C 0.31811 0.27315 0.72173 0.0
C130 C 0.31984 0.25856 0.70317 0.0
C131 C 0.32668 0.27554 0.79764 0.0
O132 O 0.33363 0.28299 0.77702 0.0
H133 H 0.28563 0.24392 0.73589 0.0
H134 H 0.32679 0.28602 0.72412 0.0
O135 O 0.26639 0.27761 0.76196 0.0
H136 H 0.30738 0.35041 0.74275 0.0
H137 H 0.33002 0.25804 0.68812 0.0
Cu138 Cu 0.77658 0.2735 0.77923 0.0
N139 N 0.80349 0.27156 0.78045 0.0
N140 N 0.83326 0.27038 0.76643 0.0
C141 C 0.81422 0.27001 0.7595 0.0
C142 C 0.83448 0.27215 0.79283 0.0
C143 C 0.81613 0.27285 0.80139 0.0
O144 O 0.76721 0.25849 0.74711 0.0
C145 C 0.78119 0.3148 0.78809 0.0
O146 O 0.79897 0.31197 0.78205 0.0
H147 H 0.80814 0.26933 0.73952 0.0
H148 H 0.81229 0.27467 0.82143 0.0
N149 N 0.76628 0.26202 0.8079 0.0
N150 N 0.74491 0.25589 0.83745 0.0
C151 C 0.74837 0.26516 0.81542 0.0
C152 C 0.77457 0.25038 0.82577 0.0
C153 C 0.76143 0.24653 0.84394 0.0
C154 C 0.77016 0.24032 0.74804 0.0
O155 O 0.7783 0.2336 0.7697 0.0
H156 H 0.73811 0.27414 0.80483 0.0
H157 H 0.78918 0.24524 0.82579 0.0
O158 O 0.76915 0.30092 0.78463 0.0
H159 H 0.84767 0.27297 0.80513 0.0
H160 H 0.76407 0.23787 0.86096 0.0
Cu161 Cu 0.75701 0.77412 0.75012 0.0
N162 N 0.75281 0.74759 0.74641 0.0
N163 N 0.75148 0.71708 0.75851 0.0
C164 C 0.7567 0.73525 0.7657 0.0
C165 C 0.74415 0.71802 0.73353 0.0
C166 C 0.74492 0.7369 0.72614 0.0
O167 O 0.7464 0.78207 0.78352 0.0
C168 C 0.78968 0.77138 0.72391 0.0
O169 O 0.77661 0.76291 0.70788 0.0
H170 H 0.76313 0.73966 0.78473 0.0
H171 H 0.73984 0.74246 0.70748 0.0
N172 N 0.74392 0.7877 0.72364 0.0
N173 N 0.73768 0.81138 0.6959 0.0
C174 C 0.75032 0.80408 0.71401 0.0
C175 C 0.72659 0.78444 0.71124 0.0
C176 C 0.72268 0.79907 0.69411 0.0
C177 C 0.72964 0.77534 0.78641 0.0
O178 O 0.72127 0.76476 0.76727 0.0
H179 H 0.76382 0.81076 0.72073 0.0
H180 H 0.71736 0.77242 0.71458 0.0
O181 O 0.78449 0.77824 0.7458 0.0
H182 H 0.73815 0.70606 0.72168 0.0
H183 H 0.70982 0.80048 0.68133 0.0
C184 C 0.07115 0.28999 0.58189 0.0
C185 C 0.0776 0.30759 0.59251 0.0
C186 C 0.06733 0.32137 0.57944 0.0
C187 C 0.05524 0.31145 0.56166 0.0
N188 N 0.05694 0.29213 0.56279 0.0
Co189 Co 0.04281 0.27241 0.53936 0.0
N190 N 0.02819 0.29272 0.51945 0.0
C191 C 0.02933 0.31194 0.52412 0.0
C192 C 0.01713 0.32231 0.50796 0.0
C193 C 0.00742 0.30893 0.49217 0.0
C194 C 0.01427 0.29108 0.49967 0.0
N195 N 0.02917 0.2527 0.51536 0.0
C196 C 0.01561 0.25483 0.49539 0.0
C197 C 0.00997 0.23722 0.4839 0.0
C198 C 0.02026 0.2235 0.49705 0.0
C199 C 0.03155 0.23343 0.51576 0.0
N200 N 0.05696 0.25207 0.55982 0.0
C201 C 0.05492 0.23284 0.5562 0.0
C202 C 0.06655 0.22242 0.57304 0.0
C203 C 0.07674 0.23579 0.58827 0.0
C204 C 0.07071 0.25367 0.5798 0.0
N205 N 0.02167 0.27148 0.5638 0.0
C206 C 0.99102 0.2704 0.59743 0.0
C207 C 0.99751 0.25367 0.58498 0.0
C208 C 0.01275 0.25451 0.56854 0.0
C209 C 1.00028 0.28765 0.59282 0.0
C210 C 0.01535 0.28788 0.57608 0.0
N211 N 0.06398 0.27337 0.51503 0.0
C212 C 0.08903 0.25751 0.49173 0.0
C213 C 0.09544 0.27502 0.48286 0.0
C214 C 0.08558 0.29165 0.4901 0.0
C215 C 0.07009 0.29052 0.50604 0.0
C216 C 0.07337 0.257 0.50748 0.0
H217 H 0.06342 0.30377 0.51105 0.0
H218 H 0.06919 0.24317 0.51343 0.0
H219 H 0.01702 0.24121 0.55987 0.0
H220 H 0.02155 0.30155 0.57326 0.0
C221 C 0.04216 0.31981 0.54363 0.0
C222 C 0.07915 0.27168 0.5905 0.0
C223 C 0.00704 0.27304 0.48736 0.0
C224 C 0.04331 0.22503 0.5353 0.0
H225 H 0.08868 0.3102 0.60799 0.0
H226 H 0.06864 0.33679 0.58238 0.0
H227 H 0.01546 0.33776 0.50774 0.0
H228 H 0.99649 0.31196 0.47691 0.0
H229 H 0.99922 0.23452 0.46802 0.0
H230 H 0.01922 0.20808 0.49384 0.0
H231 H 0.06792 0.20695 0.5736 0.0
H232 H 0.08771 0.23271 0.60346 0.0
H233 H 0.99102 0.23988 0.58813 0.0
H234 H 0.99571 0.30106 0.60172 0.0
H235 H 0.09592 0.24416 0.48633 0.0
H236 H 0.09 0.30561 0.48394 0.0
C237 C 0.74349 0.07206 0.54549 0.0
C238 C 0.72531 0.07849 0.5508 0.0
C239 C 0.71257 0.06791 0.5349 0.0
C240 C 0.72361 0.05564 0.52079 0.0
N241 N 0.74266 0.05755 0.52692 0.0
Co242 Co 0.76375 0.04295 0.51005 0.0
N243 N 0.7451 0.02883 0.48462 0.0
C244 C 0.72584 0.03129 0.48248 0.0
C245 C 0.71668 0.01995 0.46319 0.0
C246 C 0.73086 0.00941 0.45254 0.0
C247 C 0.74797 0.01473 0.46619 0.0
N248 N 0.78481 0.02816 0.49343 0.0
C249 C 0.78402 0.01351 0.47501 0.0
C250 C 0.80219 0.00617 0.47131 0.0
C251 C 0.81482 0.01655 0.48753 0.0
C252 C 0.80379 0.02948 0.50051 0.0
N253 N 0.78241 0.05731 0.53518 0.0
C254 C 0.8017 0.05525 0.53697 0.0
C255 C 0.81095 0.06757 0.55501 0.0
C256 C 0.79677 0.07842 0.56513 0.0
C257 C 0.7796 0.0721 0.55258 0.0
N258 N 0.76161 0.02201 0.53527 0.0
C259 C 0.75877 0.98956 0.56659 0.0
C260 C 0.77644 0.99852 0.564 0.0
C261 C 0.77751 0.01461 0.54847 0.0
C262 C 0.74248 0.99767 0.55406 0.0
C263 C 0.74419 0.01377 0.53883 0.0
N264 N 0.76582 0.06391 0.48493 0.0
C265 C 0.78485 0.08783 0.46508 0.0
C266 C 0.76831 0.09715 0.45515 0.0
C267 C 0.75057 0.08893 0.45935 0.0
C268 C 0.74968 0.07244 0.47396 0.0
C269 C 0.7833 0.07129 0.47964 0.0
H270 H 0.7357 0.06719 0.4767 0.0
H271 H 0.7964 0.06494 0.48688 0.0
H272 H 0.79141 0.02062 0.54716 0.0
H273 H 0.73122 0.01901 0.52968 0.0
C274 C 0.71669 0.04355 0.49992 0.0
C275 C 0.76109 0.08089 0.55761 0.0
C276 C 0.76645 1.00559 0.46125 0.0
C277 C 0.81073 0.04222 0.52054 0.0
H278 H 0.72166 0.09003 0.56424 0.0
H279 H 0.69712 0.0695 0.53311 0.0
H280 H 0.70144 0.01918 0.45783 0.0
H281 H 0.72875 0.9988 0.43671 0.0
H282 H 0.80601 0.99419 0.45876 0.0
H283 H 0.83019 0.0145 0.49019 0.0
H284 H 0.82624 0.06881 0.55981 0.0
H285 H 0.79885 0.0899 0.57979 0.0
H286 H 0.78946 0.99312 0.5738 0.0
H287 H 0.72843 0.9913 0.55524 0.0
H288 H 0.79897 0.09333 0.46181 0.0
H289 H 0.73728 0.09554 0.45221 0.0
C290 C 0.03931 0.79568 0.55781 0.0
C291 C 0.04621 0.81381 0.56561 0.0
C292 C 0.03524 0.82673 0.55187 0.0
C293 C 0.02236 0.81582 0.53646 0.0
N294 N 0.02432 0.79669 0.5396 0.0
Co295 Co 0.00892 0.77573 0.52018 0.0
N296 N 0.99266 0.7948 0.50015 0.0
C297 C 0.99422 0.81417 0.50201 0.0
C298 C 0.98068 0.82356 0.48661 0.0
C299 C 0.96963 0.80937 0.4744 0.0
C300 C 0.97707 0.79206 0.48313 0.0
N301 N 0.99371 0.75477 0.50049 0.0
C302 C 0.97826 0.75577 0.48301 0.0
C303 C 0.97184 0.73763 0.47447 0.0
C304 C 0.98352 0.72471 0.48708 0.0
C305 C 0.99635 0.73562 0.50257 0.0
N306 N 0.02492 0.75665 0.54059 0.0
C307 C 0.02323 0.73729 0.53887 0.0
C308 C 0.0361 0.7279 0.55526 0.0
C309 C 0.04673 0.74208 0.56822 0.0
C310 C 0.03975 0.75939 0.55886 0.0
N311 N 0.99003 0.77631 0.54778 0.0
C312 C 0.96111 0.77726 0.58412 0.0
C313 C 0.96815 0.75983 0.57433 0.0
C314 C 0.98251 0.75968 0.55648 0.0
C315 C 0.96928 0.7942 0.57593 0.0
C316 C 0.98356 0.79341 0.55795 0.0
N317 N 0.02786 0.77518 0.49247 0.0
C318 C 0.04998 0.75766 0.46586 0.0
C319 C 0.0559 0.77457 0.45472 0.0
C320 C 0.04727 0.79175 0.46261 0.0
C321 C 0.03347 0.79173 0.48129 0.0
C322 C 0.03605 0.75827 0.48438 0.0
H323 H 0.02769 0.80535 0.48652 0.0
H324 H 0.03223 0.74485 0.49193 0.0
H325 H 0.98716 0.74592 0.54974 0.0
H326 H 0.98893 0.80685 0.55224 0.0
C327 C 0.0082 0.82312 0.51897 0.0
C328 C 0.04783 0.77799 0.56785 0.0
C329 C 0.96867 0.77345 0.4748 0.0
C330 C 0.00998 0.72834 0.52081 0.0
H331 H 0.05806 0.81733 0.57963 0.0
H332 H 0.03657 0.84223 0.55289 0.0
H333 H 0.97889 0.83891 0.4848 0.0
H334 H 0.95735 0.81151 0.4608 0.0
H335 H 0.95968 0.73408 0.46099 0.0
H336 H 0.98241 0.70919 0.48575 0.0
H337 H 0.03773 0.71254 0.55729 0.0
H338 H 0.05842 0.73993 0.58277 0.0
H339 H 0.96261 0.74627 0.58039 0.0
H340 H 0.96431 0.80811 0.58272 0.0
H341 H 0.05592 0.7439 0.46017 0.0
H342 H 0.0514 0.80531 0.45483 0.0
C343 C 0.30194 0.9788 0.55081 0.0
C344 C 0.32002 0.97232 0.55933 0.0
C345 C 0.33303 0.98311 0.54748 0.0
C346 C 0.32228 0.99545 0.53225 0.0
N347 N 0.30313 0.99343 0.53392 0.0
Co348 Co 0.28246 0.00742 0.51286 0.0
N349 N 0.30168 0.02233 0.49393 0.0
C350 C 0.321 0.02129 0.49768 0.0
C351 C 0.33058 0.03384 0.48311 0.0
C352 C 0.31657 0.04374 0.46944 0.0
C353 C 0.29914 0.03658 0.47639 0.0
N354 N 0.26179 0.02107 0.49142 0.0
C355 C 0.26292 0.03524 0.47386 0.0
C356 C 0.24487 0.04069 0.46382 0.0
C357 C 0.23188 0.02991 0.47572 0.0
C358 C 0.24265 0.01843 0.49221 0.0
N359 N 0.26324 0.99283 0.53212 0.0
C360 C 0.24394 0.99471 0.52944 0.0
C361 C 0.23433 0.98282 0.54492 0.0
C362 C 0.24829 0.97252 0.55806 0.0
C363 C 0.26571 0.97861 0.54966 0.0
N364 N 0.28255 0.02853 0.53991 0.0
C365 C 0.28314 0.06161 0.57318 0.0
C366 C 0.2658 0.05365 0.56283 0.0
C367 C 0.26583 0.03717 0.54652 0.0
C368 C 0.3001 0.05214 0.56767 0.0
C369 C 0.29948 0.03573 0.55126 0.0
N370 N 0.28246 0.98628 0.4859 0.0
C371 C 0.26597 0.96001 0.46193 0.0
C372 C 0.28334 0.95263 0.45394 0.0
C373 C 0.30008 0.96304 0.46092 0.0
C374 C 0.2993 0.97974 0.47661 0.0
C375 C 0.26585 0.97679 0.47765 0.0
H376 H 0.3126 0.98685 0.48141 0.0
H377 H 0.25221 0.98151 0.48345 0.0
H378 H 0.25216 0.03194 0.5391 0.0
H379 H 0.31294 0.02944 0.54754 0.0
C380 C 0.32969 0.00857 0.51541 0.0
C381 C 0.28411 0.97 0.55843 0.0
C382 C 0.28062 0.04434 0.4665 0.0
C383 C 0.23524 0.0064 0.51042 0.0
H384 H 0.3235 0.9607 0.5723 0.0
H385 H 0.3485 0.98176 0.54921 0.0
H386 H 0.34594 0.03581 0.48281 0.0
H387 H 0.31892 0.05517 0.4562 0.0
H388 H 0.24144 0.05162 0.44971 0.0
H389 H 0.21639 0.03076 0.47325 0.0
H390 H 0.21896 0.98137 0.54591 0.0
H391 H 0.24587 0.96148 0.57187 0.0
H392 H 0.25222 0.06019 0.56707 0.0
H393 H 0.31393 0.05772 0.57518 0.0
H394 H 0.25257 0.95255 0.45688 0.0
H395 H 0.31382 0.95825 0.4545 0.0
C396 C 0.55633 0.80085 0.06893 0.0
C397 C 0.56266 0.81795 0.08129 0.0
C398 C 0.55321 0.83242 0.06858 0.0
C399 C 0.54171 0.82343 0.04922 0.0
N400 N 0.5431 0.80404 0.04887 0.0
Co401 Co 0.5292 0.7855 0.02334 0.0
N402 N 0.51598 0.80689 1.00402 0.0
C403 C 0.51884 0.82596 0.00846 0.0
C404 C 0.50729 0.83719 0.99258 0.0
C405 C 0.4961 0.82455 0.97743 0.0
C406 C 0.50142 0.80628 0.9851 0.0
N407 N 0.51491 0.76698 0.99818 0.0
C408 C 0.50015 0.77011 0.98018 0.0
C409 C 0.49312 0.75299 0.96861 0.0
C410 C 0.50364 0.73857 0.97982 0.0
C411 C 0.51635 0.7476 0.99766 0.0
N412 N 0.54264 0.7641 0.04245 0.0
C413 C 0.54088 0.74507 0.03662 0.0
C414 C 0.55228 0.73378 0.0526 0.0
C415 C 0.56213 0.74634 0.06949 0.0
C416 C 0.55619 0.76466 0.06276 0.0
N417 N 0.50742 0.78446 0.04653 0.0
C418 C 0.47324 0.78328 0.07337 0.0
C419 C 0.48236 0.76638 0.06536 0.0
C420 C 0.49932 0.76728 0.05225 0.0
C421 C 0.48216 0.80074 0.06876 0.0
C422 C 0.49908 0.801 0.05555 0.0
N423 N 0.55099 0.78658 0.99983 0.0
C424 C 0.57303 0.77065 0.97144 0.0
C425 C 0.58281 0.78784 0.96813 0.0
C426 C 0.57622 0.80441 0.98078 0.0
C427 C 0.56041 0.80349 0.9962 0.0
C428 C 0.5574 0.77034 0.98727 0.0
H429 H 0.55617 0.81671 1.00502 0.0
H430 H 0.55088 0.7567 0.98918 0.0
H431 H 0.50538 0.7539 0.04632 0.0
H432 H 0.50495 0.81479 0.05236 0.0
C433 C 0.53058 0.83281 0.02987 0.0
C434 C 0.56409 0.78208 0.07606 0.0
C435 C 0.49157 0.78886 0.97477 0.0
C436 C 0.52856 0.73825 0.01581 0.0
H437 H 0.57337 0.81983 0.0974 0.0
H438 H 0.55497 0.84772 0.07248 0.0
H439 H 0.50644 0.85272 0.99287 0.0
H440 H 0.48485 0.82835 0.96298 0.0
H441 H 0.48118 0.75099 0.95426 0.0
H442 H 0.50165 0.72326 0.97625 0.0
H443 H 0.55344 0.71827 0.05187 0.0
H444 H 0.57265 0.74247 0.08489 0.0
H445 H 0.47616 0.75244 0.06839 0.0
H446 H 0.47607 0.81426 0.07518 0.0
H447 H 0.57763 0.75735 0.96226 0.0
H448 H 0.58308 0.81816 0.97857 0.0
C449 C 0.25602 0.55469 0.05454 0.0
C450 C 0.23812 0.56013 0.06249 0.0
C451 C 0.22483 0.55131 0.04545 0.0
C452 C 0.23532 0.54097 0.02822 0.0
N453 N 0.25453 0.54257 0.03324 0.0
Co454 Co 0.27502 0.52968 0.01328 0.0
N455 N 0.25545 0.51723 0.98772 0.0
C456 C 0.23618 0.51939 0.98719 0.0
C457 C 0.22644 0.50888 0.9675 0.0
C458 C 0.2403 0.49933 0.95473 0.0
C459 C 0.25776 0.50463 0.96743 0.0
N460 N 0.29552 0.51653 0.99366 0.0
C461 C 0.29401 0.5038 0.97306 0.0
C462 C 0.3119 0.49788 0.96558 0.0
C463 C 0.32519 0.50697 0.9823 0.0
C464 C 0.31472 0.51789 0.9989 0.0
N465 N 0.29461 0.54238 0.03861 0.0
C466 C 0.31391 0.54099 0.03832 0.0
C467 C 0.32369 0.55173 0.05773 0.0
C468 C 0.30983 0.56063 0.07119 0.0
C469 C 0.29231 0.55472 0.05921 0.0
N470 N 0.27407 0.50686 0.03626 0.0
C471 C 0.27268 0.47338 0.06699 0.0
C472 C 0.29014 0.48227 0.06241 0.0
C473 C 0.2905 0.49878 0.04725 0.0
C474 C 0.25595 0.48193 0.05606 0.0
C475 C 0.25695 0.49839 0.04098 0.0
N476 N 0.27593 0.55243 0.99002 0.0
C477 C 0.29372 0.57454 0.9647 0.0
C478 C 0.27691 0.58396 0.95557 0.0
C479 C 0.25964 0.57725 0.96453 0.0
C480 C 0.25947 0.56168 0.98135 0.0
C481 C 0.29293 0.55916 0.98179 0.0
H482 H 0.24575 0.5574 0.98704 0.0
H483 H 0.30632 0.55286 0.98796 0.0
H484 H 0.3043 0.50468 0.04447 0.0
H485 H 0.24362 0.50396 0.03322 0.0
C486 C 0.2276 0.53031 0.00651 0.0
C487 C 0.27395 0.56168 0.06767 0.0
C488 C 0.27605 0.49669 0.96021 0.0
C489 C 0.32246 0.52946 0.01966 0.0
H490 H 0.235 0.56962 0.07882 0.0
H491 H 0.20938 0.55249 0.04541 0.0
H492 H 0.21107 0.5079 0.96335 0.0
H493 H 0.2378 0.48932 0.93827 0.0
H494 H 0.31501 0.48792 0.94976 0.0
H495 H 0.34065 0.50566 0.98247 0.0
H496 H 0.33908 0.55302 0.06152 0.0
H497 H 0.31235 0.57051 0.0878 0.0
H498 H 0.30363 0.47634 0.07001 0.0
H499 H 0.24196 0.4761 0.05924 0.0
H500 H 0.30757 0.57873 0.95844 0.0
H501 H 0.24614 0.58406 0.95889 0.0
C502 C 0.49268 0.28257 1.00257 0.0
C503 C 0.48634 0.30035 0.9941 0.0
C504 C 0.4977 0.31383 0.00738 0.0
C505 C 0.51032 0.30358 0.02309 0.0
N506 N 0.50785 0.28432 0.02051 0.0
Co507 Co 0.52289 0.26418 0.04018 0.0
N508 N 0.53901 0.28409 0.06057 0.0
C509 C 0.53716 0.30339 0.05945 0.0
C510 C 0.55067 0.3134 0.07503 0.0
C511 C 0.56207 0.29969 0.08646 0.0
C512 C 0.55487 0.28204 0.07703 0.0
N513 N 0.5381 0.24403 0.05966 0.0
C514 C 0.55416 0.24576 0.07604 0.0
C515 C 0.56095 0.22795 0.08379 0.0
C516 C 0.5489 0.2145 0.07173 0.0
C517 C 0.53555 0.22478 0.05724 0.0
N518 N 0.50669 0.24425 0.01985 0.0
C519 C 0.50791 0.22497 0.02202 0.0
C520 C 0.49456 0.21492 0.00623 0.0
C521 C 0.48401 0.22859 0.99333 0.0
C522 C 0.49159 0.24626 1.00202 0.0
N523 N 0.54203 0.26329 0.01294 0.0
C524 C 0.57291 0.26177 0.97972 0.0
C525 C 0.5637 0.24502 0.98667 0.0
C526 C 0.54841 0.24609 1.00303 0.0
C527 C 0.56568 0.27935 0.98874 0.0
C528 C 0.55032 0.27978 1.00503 0.0
N529 N 0.50381 0.26507 0.06768 0.0
C530 C 0.48273 0.24876 0.09562 0.0
C531 C 0.47525 0.26621 0.10466 0.0
C532 C 0.48269 0.2831 0.09522 0.0
C533 C 0.49679 0.28221 0.07697 0.0
C534 C 0.49685 0.24853 0.07741 0.0
H535 H 0.50159 0.29562 0.07045 0.0
H536 H 0.50179 0.23474 0.07139 0.0
H537 H 0.54222 0.23278 0.00781 0.0
H538 H 0.54572 0.29362 0.01152 0.0
C539 C 0.52389 0.31163 0.04154 0.0
C540 C 0.48351 0.26452 0.99337 0.0
C541 C 0.56411 0.2638 0.08343 0.0
C542 C 0.52146 0.21675 0.03956 0.0
H543 H 0.47452 0.30328 0.98006 0.0
H544 H 0.49661 0.32929 0.00616 0.0
H545 H 0.55249 0.32882 0.07703 0.0
H546 H 0.57459 0.30236 0.09966 0.0
H547 H 0.57364 0.22489 0.09621 0.0
H548 H 0.55019 0.19904 0.07259 0.0
H549 H 0.49255 0.19951 1.00459 0.0
H550 H 0.47191 0.22587 0.97941 0.0
H551 H 0.56831 0.23103 0.97966 0.0
H552 H 0.57222 0.2928 0.98402 0.0
H553 H 0.47779 0.23524 0.10261 0.0
H554 H 0.47733 0.29701 0.10134 0.0
C555 C 0.75574 0.55398 0.04457 0.0
C556 C 0.73839 0.56028 0.05347 0.0
C557 C 0.72456 0.54813 0.0425 0.0
C558 C 0.73416 0.53499 0.02778 0.0
N559 N 0.75334 0.53791 0.02875 0.0
Co560 Co 0.77251 0.52147 0.01072 0.0
N561 N 0.75189 0.50485 0.99226 0.0
C562 C 0.73275 0.50706 0.99387 0.0
C563 C 0.72193 0.49434 0.97819 0.0
C564 C 0.73489 0.48331 0.9657 0.0
C565 C 0.75302 0.48979 0.97471 0.0
N566 N 0.79172 0.50472 0.99326 0.0
C567 C 0.78928 0.48913 0.97656 0.0
C568 C 0.80679 0.48123 0.9706 0.0
C569 C 0.82071 0.49231 0.9835 0.0
C570 C 0.81103 0.5062 0.99683 0.0
N571 N 0.79309 0.53857 0.02835 0.0
C572 C 0.81218 0.53681 0.02594 0.0
C573 C 0.82286 0.55124 0.03849 0.0
C574 C 0.80984 0.56309 0.04946 0.0
C575 C 0.79184 0.55507 0.04324 0.0
N576 N 0.77397 0.50411 0.04103 0.0
C577 C 0.77616 0.4779 0.08217 0.0
C578 C 0.79254 0.48726 0.07476 0.0
C579 C 0.79115 0.50014 0.05431 0.0
C580 C 0.75861 0.48225 0.06907 0.0
C581 C 0.75783 0.49534 0.04891 0.0
N582 N 0.77104 0.5387 0.98056 0.0
C583 C 0.78647 0.55625 0.94775 0.0
C584 C 0.76893 0.56404 0.93863 0.0
C585 C 0.75246 0.55874 0.95072 0.0
C586 C 0.75383 0.54619 0.97145 0.0
C587 C 0.78719 0.54366 0.9685 0.0
H588 H 0.74077 0.54289 0.97996 0.0
H589 H 0.80098 0.53815 0.97452 0.0
H590 H 0.80424 0.50651 0.04946 0.0
H591 H 0.74397 0.49797 0.03994 0.0
C592 C 0.72544 0.52086 0.01099 0.0
C593 C 0.77401 0.5639 0.05158 0.0
C594 C 0.7708 0.48117 0.96592 0.0
C595 C 0.81962 0.52143 0.01165 0.0
H596 H 0.73592 0.57254 0.06632 0.0
H597 H 0.70925 0.54906 0.04453 0.0
H598 H 0.70645 0.49319 0.97611 0.0
H599 H 0.73134 0.47181 0.95152 0.0
H600 H 0.80931 0.46874 0.95818 0.0
H601 H 0.83609 0.49055 0.98304 0.0
H602 H 0.83829 0.55307 0.03927 0.0
H603 H 0.81329 0.57627 0.0605 0.0
H604 H 0.80651 0.4843 0.08422 0.0
H605 H 0.74545 0.47562 0.07438 0.0
H606 H 0.79961 0.55974 0.93881 0.0
H607 H 0.73855 0.56457 0.94462 0.0
H608 H 0.21208 0.29792 0.30392 0.0
H609 H 0.18916 0.29879 0.33785 0.0
H610 H 0.22769 0.26498 0.38695 0.0
H611 H 0.25104 0.26453 0.35306 0.0
H612 H 0.17142 0.26786 0.35385 0.0
H613 H 0.20987 0.30412 0.44 0.0
H614 H 0.21836 0.3049 0.40753 0.0
H615 H 0.22241 0.28393 0.42669 0.0
C616 C 0.21593 0.29109 0.32223 0.0
C617 C 0.23343 0.28123 0.32583 0.0
C618 C 0.20274 0.29153 0.34161 0.0
C619 C 0.2066 0.282 0.36511 0.0
C620 C 0.22445 0.27278 0.36928 0.0
H621 H 0.12949 0.25519 0.48782 0.0
H622 H 0.15672 0.2565 0.46 0.0
C623 C 0.23783 0.27253 0.34988 0.0
C624 C 0.19113 0.28037 0.38378 0.0
H625 H 0.17971 0.28997 0.44687 0.0
C626 C 0.17328 0.27278 0.37417 0.0
C627 C 0.19348 0.28661 0.41041 0.0
C628 C 0.212 0.29551 0.42178 0.0
C629 C 0.1578 0.27134 0.39022 0.0
C630 C 0.16006 0.27782 0.41669 0.0
C631 C 0.17798 0.28506 0.42656 0.0
C632 C 0.14379 0.27747 0.43412 0.0
C633 C 0.13915 0.26274 0.37876 0.0
C634 C 0.12752 0.28896 0.42902 0.0
C635 C 0.11193 0.28824 0.44485 0.0
C636 C 0.11221 0.27596 0.46617 0.0
C637 C 0.12865 0.26461 0.47138 0.0
C638 C 0.1443 0.26545 0.45562 0.0
H639 H 0.14105 0.25446 0.36021 0.0
H640 H 0.13288 0.2531 0.39282 0.0
H641 H 0.12874 0.27445 0.37453 0.0
H642 H 0.12685 0.29848 0.41268 0.0
H643 H 0.09951 0.29708 0.4401 0.0
H644 H 0.73768 0.24107 0.31252 0.0
H645 H 0.73814 0.21497 0.34305 0.0
H646 H 0.79185 0.23592 0.37954 0.0
H647 H 0.79178 0.26189 0.34853 0.0
H648 H 0.79405 0.19866 0.36548 0.0
H649 H 0.72842 0.20969 0.41874 0.0
H650 H 0.72326 0.20953 0.38401 0.0
H651 H 0.73822 0.2282 0.39964 0.0
C652 C 0.74937 0.24048 0.32745 0.0
C653 C 0.76474 0.25357 0.32794 0.0
C654 C 0.74955 0.22554 0.34503 0.0
C655 C 0.76495 0.22352 0.36378 0.0
C656 C 0.7798 0.23719 0.36528 0.0
H657 H 0.79283 0.1275 0.46667 0.0
H658 H 0.79312 0.15855 0.44558 0.0
C659 C 0.77968 0.2521 0.34759 0.0
C660 C 0.76654 0.20603 0.3797 0.0
H661 H 0.74183 0.17779 0.41927 0.0
C662 C 0.78277 0.19427 0.37759 0.0
C663 C 0.75181 0.20024 0.39546 0.0
C664 C 0.73455 0.21269 0.39982 0.0
C665 C 0.78431 0.17657 0.38994 0.0
C666 C 0.76928 0.17051 0.40492 0.0
C667 C 0.75327 0.18244 0.40759 0.0
C668 C 0.76962 0.15155 0.41727 0.0
C669 C 0.80165 0.16411 0.38613 0.0
C670 C 0.75633 0.13733 0.4083 0.0
C671 C 0.75625 0.11952 0.42011 0.0
C672 C 0.76934 0.1156 0.44135 0.0
C673 C 0.78277 0.12987 0.45011 0.0
C674 C 0.78289 0.14767 0.43818 0.0
H675 H 0.81041 0.16937 0.37048 0.0
H676 H 0.81083 0.16407 0.40465 0.0
H677 H 0.79722 0.14905 0.38112 0.0
H678 H 0.74603 0.14003 0.3921 0.0
H679 H 0.74589 0.10882 0.41258 0.0
H680 H 0.8423 0.7679 0.2845 0.0
H681 H 0.86783 0.76591 0.31899 0.0
H682 H 0.82657 0.77456 0.37729 0.0
H683 H 0.80064 0.77616 0.34244 0.0
H684 H 0.87852 0.79476 0.35315 0.0
H685 H 0.85868 0.73099 0.40803 0.0
H686 H 0.8479 0.73587 0.37594 0.0
H687 H 0.84034 0.74897 0.40424 0.0
C688 C 0.83853 0.76906 0.30466 0.0
C689 C 0.81939 0.77221 0.31069 0.0
C690 C 0.85321 0.76795 0.32442 0.0
C691 C 0.84925 0.77004 0.35085 0.0
C692 C 0.83003 0.77256 0.3571 0.0
H693 H 0.932 0.7801 0.48825 0.0
H694 H 0.90235 0.77947 0.45937 0.0
C695 C 0.81519 0.7735 0.33717 0.0
C696 C 0.86559 0.77094 0.37126 0.0
H697 H 0.88585 0.7488 0.42502 0.0
C698 C 0.88006 0.78469 0.36886 0.0
C699 C 0.86764 0.75792 0.39195 0.0
C700 C 0.85292 0.74249 0.39519 0.0
C701 C 0.89652 0.78564 0.38619 0.0
C702 C 0.89881 0.77234 0.40645 0.0
C703 C 0.88413 0.75893 0.40941 0.0
C704 C 0.91661 0.77196 0.42422 0.0
C705 C 0.91133 0.80097 0.38272 0.0
C706 C 0.93444 0.76768 0.41418 0.0
C707 C 0.9513 0.76801 0.43063 0.0
C708 C 0.95063 0.77256 0.45744 0.0
C709 C 0.93281 0.77657 0.46761 0.0
C710 C 0.91592 0.77616 0.45116 0.0
H711 H 0.90532 0.81288 0.37084 0.0
H712 H 0.91714 0.80701 0.40196 0.0
H713 H 0.92342 0.79454 0.37247 0.0
H714 H 0.93533 0.76416 0.39356 0.0
H715 H 0.96489 0.76484 0.42242 0.0
H716 H 0.27992 0.83302 0.27204 0.0
H717 H 0.28735 0.85529 0.30885 0.0
H718 H 0.28199 0.8094 0.36247 0.0
H719 H 0.27434 0.78681 0.32533 0.0
H720 H 0.25967 0.84132 0.37351 0.0
H721 H 0.33396 0.86414 0.35972 0.0
H722 H 0.31908 0.86542 0.32994 0.0
H723 H 0.3236 0.84247 0.34437 0.0
C724 C 0.28066 0.82753 0.29162 0.0
C725 C 0.27648 0.80818 0.29582 0.0
C726 C 0.28508 0.84027 0.31266 0.0
C727 C 0.28547 0.83396 0.33838 0.0
C728 C 0.28193 0.81449 0.34271 0.0
H729 H 0.30978 0.92388 0.46037 0.0
H730 H 0.31104 0.89324 0.43576 0.0
C731 C 0.27763 0.80162 0.32153 0.0
C732 C 0.28742 0.84833 0.36035 0.0
H733 H 0.31445 0.88691 0.38304 0.0
C734 C 0.27183 0.85104 0.37602 0.0
C735 C 0.30337 0.86087 0.36382 0.0
C736 C 0.32103 0.85796 0.34873 0.0
C737 C 0.27121 0.86675 0.39381 0.0
C738 C 0.28644 0.88022 0.39561 0.0
C739 C 0.30262 0.87676 0.3813 0.0
C740 C 0.28539 0.89851 0.41105 0.0
C741 C 0.25408 0.86898 0.41011 0.0
C742 C 0.27071 0.91174 0.40504 0.0
C743 C 0.27 0.9293 0.41894 0.0
C744 C 0.28408 0.93404 0.43898 0.0
C745 C 0.29886 0.92078 0.44483 0.0
C746 C 0.29953 0.90321 0.43092 0.0
H747 H 0.24701 0.85493 0.41264 0.0
H748 H 0.25825 0.8755 0.42972 0.0
H749 H 0.24341 0.87851 0.40007 0.0
H750 H 0.25994 0.90862 0.3893 0.0
H751 H 0.25862 0.9393 0.41368 0.0
H752 H 0.1852 0.81839 0.74144 0.0
H753 H 0.15709 0.81482 0.7107 0.0
H754 H 0.17533 0.75772 0.68888 0.0
H755 H 0.2034 0.76104 0.72004 0.0
H756 H 0.15638 0.80753 0.65596 0.0
H757 H 0.11868 0.75027 0.70568 0.0
H758 H 0.1378 0.76451 0.72197 0.0
H759 H 0.14327 0.74525 0.69952 0.0
C760 C 0.18315 0.80494 0.73046 0.0
C761 C 0.1966 0.78995 0.73347 0.0
C762 C 0.1671 0.80298 0.71269 0.0
C763 C 0.16394 0.78594 0.69763 0.0
C764 C 0.17729 0.77092 0.70053 0.0
H765 H 0.08517 0.77119 0.55802 0.0
H766 H 0.11353 0.77289 0.58918 0.0
C767 C 0.19344 0.7729 0.71822 0.0
C768 C 0.14693 0.78419 0.67847 0.0
H769 H 0.10516 0.75919 0.66424 0.0
C770 C 0.1452 0.79694 0.65775 0.0
C771 C 0.13221 0.77051 0.68094 0.0
C772 C 0.1329 0.75693 0.70332 0.0
C773 C 0.12931 0.79626 0.63935 0.0
C774 C 0.11475 0.78236 0.64155 0.0
C775 C 0.11637 0.76974 0.66242 0.0
C776 C 0.09758 0.78098 0.62265 0.0
C777 C 0.12802 0.81067 0.61795 0.0
C778 C 0.07914 0.7846 0.63113 0.0
C779 C 0.06299 0.78365 0.61335 0.0
C780 C 0.06499 0.77889 0.58683 0.0
C781 C 0.08335 0.77498 0.57838 0.0
C782 C 0.09951 0.77602 0.59613 0.0
H783 H 0.13799 0.82296 0.62233 0.0
H784 H 0.13186 0.80354 0.59933 0.0
H785 H 0.11318 0.8163 0.615 0.0
H786 H 0.07727 0.78838 0.65148 0.0
H787 H 0.04894 0.78665 0.62026 0.0
H788 H 0.33252 0.22418 0.68077 0.0
H789 H 0.32718 0.19317 0.65762 0.0
H790 H 0.26803 0.19395 0.67704 0.0
H791 H 0.27321 0.22497 0.70008 0.0
H792 H 0.28635 0.1593 0.68745 0.0
H793 H 0.29782 0.18209 0.58687 0.0
H794 H 0.31713 0.18834 0.6105 0.0
H795 H 0.29389 0.19902 0.61342 0.0
C796 C 0.31831 0.2179 0.67979 0.0
C797 C 0.3033 0.22707 0.6923 0.0
C798 C 0.31528 0.20017 0.66656 0.0
C799 C 0.29715 0.19137 0.66539 0.0
C800 C 0.28213 0.2005 0.67773 0.0
H801 H 0.26161 0.09375 0.56367 0.0
H802 H 0.26383 0.12487 0.58719 0.0
C803 C 0.28514 0.2182 0.69099 0.0
C804 C 0.29398 0.17234 0.65203 0.0
H805 H 0.29585 0.14846 0.59302 0.0
C806 C 0.28834 0.15692 0.66678 0.0
C807 C 0.29636 0.16937 0.625 0.0
C808 C 0.30146 0.1856 0.60792 0.0
C809 C 0.28537 0.13849 0.65531 0.0
C810 C 0.28841 0.13537 0.62849 0.0
C811 C 0.29368 0.15087 0.61364 0.0
C812 C 0.28629 0.11613 0.61542 0.0
C813 C 0.27878 0.12258 0.67192 0.0
C814 C 0.29813 0.10087 0.62356 0.0
C815 C 0.29679 0.08301 0.6103 0.0
C816 C 0.28365 0.08011 0.58852 0.0
C817 C 0.27166 0.09539 0.58062 0.0
C818 C 0.27302 0.11323 0.59389 0.0
H819 H 0.2722 0.12833 0.68972 0.0
H820 H 0.2682 0.1131 0.66068 0.0
H821 H 0.29132 0.11371 0.67832 0.0
H822 H 0.3087 0.10289 0.63986 0.0
H823 H 0.30614 0.07152 0.617 0.0
H824 H 0.86877 0.28608 0.7759 0.0
H825 H 0.89507 0.28568 0.74666 0.0
H826 H 0.85999 0.25301 0.68875 0.0
H827 H 0.83353 0.25358 0.71782 0.0
H828 H 0.91511 0.2566 0.72624 0.0
H829 H 0.87791 0.29554 0.64505 0.0
H830 H 0.86833 0.29418 0.67679 0.0
H831 H 0.86534 0.27438 0.65341 0.0
C832 C 0.86663 0.27875 0.75699 0.0
C833 C 0.84893 0.26994 0.74922 0.0
C834 C 0.8817 0.27859 0.74021 0.0
C835 C 0.87949 0.26963 0.71521 0.0
C836 C 0.86194 0.26052 0.70758 0.0
H837 H 0.95732 0.24997 0.59012 0.0
H838 H 0.9306 0.24934 0.61883 0.0
C839 C 0.84681 0.2608 0.72428 0.0
C840 C 0.89569 0.26951 0.69751 0.0
H841 H 0.90805 0.28161 0.63659 0.0
C842 C 0.91355 0.26216 0.70669 0.0
C843 C 0.89376 0.27676 0.67192 0.0
C844 C 0.87536 0.28583 0.66126 0.0
C845 C 0.92937 0.26164 0.69098 0.0
C846 C 0.92739 0.2688 0.66542 0.0
C847 C 0.90954 0.27606 0.65615 0.0
C848 C 0.94375 0.2691 0.64813 0.0
C849 C 0.94801 0.25313 0.70171 0.0
C850 C 0.95999 0.28054 0.6549 0.0
C851 C 0.97529 0.28096 0.63851 0.0
C852 C 0.97473 0.26989 0.61497 0.0
C853 C 0.95839 0.25847 0.60823 0.0
C854 C 0.94303 0.25818 0.62455 0.0
H855 H 0.946 0.24435 0.71904 0.0
H856 H 0.95462 0.24402 0.68656 0.0
H857 H 0.9582 0.26493 0.70777 0.0
H858 H 0.96079 0.28929 0.67281 0.0
H859 H 0.98766 0.28982 0.64444 0.0
H860 H 0.77078 0.82808 0.6834 0.0
H861 H 0.77424 0.85859 0.66169 0.0
H862 H 0.71278 0.86518 0.65532 0.0
H863 H 0.70914 0.83474 0.67729 0.0
H864 H 0.74759 0.86911 0.60627 0.0
H865 H 0.7454 0.91554 0.69675 0.0
H866 H 0.75552 0.89166 0.69775 0.0
H867 H 0.73013 0.89462 0.69215 0.0
C868 C 0.75799 0.83605 0.67753 0.0
C869 C 0.73967 0.82899 0.6822 0.0
C870 C 0.76 0.85341 0.66501 0.0
C871 C 0.74377 0.86409 0.65705 0.0
C872 C 0.72546 0.85708 0.66136 0.0
H873 H 0.73037 0.97902 0.59798 0.0
H874 H 0.72684 0.94847 0.61933 0.0
C875 C 0.72342 0.83965 0.67378 0.0
C876 C 0.746 0.88266 0.64436 0.0
H877 H 0.74907 0.93101 0.65722 0.0
C878 C 0.74793 0.88268 0.61732 0.0
C879 C 0.7463 0.90023 0.65892 0.0
C880 C 0.74426 0.90073 0.68804 0.0
C881 C 0.75007 0.89994 0.60433 0.0
C882 C 0.75074 0.91759 0.61896 0.0
C883 C 0.74867 0.9175 0.64604 0.0
C884 C 0.75328 0.93631 0.60646 0.0
C885 C 0.75113 0.89912 0.575 0.0
C886 C 0.76952 0.93985 0.59258 0.0
C887 C 0.77148 0.95723 0.58005 0.0
C888 C 0.75732 0.97157 0.58138 0.0
C889 C 0.74138 0.9682 0.59608 0.0
C890 C 0.7394 0.95078 0.60848 0.0
H891 H 0.74507 0.88548 0.56613 0.0
H892 H 0.74329 0.91133 0.56585 0.0
H893 H 0.76637 0.89996 0.57024 0.0
H894 H 0.78065 0.92909 0.59125 0.0
H895 H 0.78388 0.95921 0.56879 0.0
H896 H 0.80495 0.75046 0.68507 0.0
H897 H 0.83579 0.75433 0.66662 0.0
H898 H 0.85061 0.79977 0.72352 0.0
H899 H 0.81932 0.79584 0.74254 0.0
H900 H 0.84777 0.78825 0.64457 0.0
H901 H 0.89939 0.7654 0.72506 0.0
H902 H 0.87421 0.75927 0.72395 0.0
H903 H 0.88189 0.7833 0.73297 0.0
C904 C 0.81475 0.76121 0.69397 0.0
C905 C 0.80955 0.77293 0.71527 0.0
C906 C 0.83246 0.76338 0.68332 0.0
C907 C 0.84559 0.77731 0.6936 0.0
C908 C 0.8408 0.78875 0.71541 0.0
H909 H 0.95649 0.80126 0.62712 0.0
H910 H 0.9291 0.80294 0.65478 0.0
C911 C 0.82293 0.78652 0.72626 0.0
C912 C 0.86358 0.78024 0.68004 0.0
H913 H 0.91223 0.77365 0.6855 0.0
C914 C 0.86188 0.78523 0.65363 0.0
C915 C 0.88202 0.7764 0.69184 0.0
C916 C 0.88464 0.77067 0.71997 0.0
C917 C 0.87794 0.78594 0.63856 0.0
C918 C 0.89627 0.78126 0.64999 0.0
C919 C 0.89816 0.77709 0.6767 0.0
C920 C 0.91335 0.77978 0.63404 0.0
C921 C 0.87511 0.79155 0.61037 0.0
C922 C 0.91379 0.76599 0.61347 0.0
C923 C 0.92937 0.76501 0.59761 0.0
C924 C 0.94495 0.7778 0.60194 0.0
C925 C 0.94465 0.79136 0.62296 0.0
C926 C 0.92906 0.79226 0.63892 0.0
H927 H 0.86153 0.79963 0.60664 0.0
H928 H 0.88725 0.80048 0.60474 0.0
H929 H 0.87441 0.77836 0.59758 0.0
H930 H 0.90195 0.75605 0.6095 0.0
H931 H 0.92896 0.75451 0.58152 0.0
H932 H 0.26203 0.80553 0.66529 0.0
H933 H 0.26582 0.83374 0.63899 0.0
H934 H 0.29843 0.86191 0.70358 0.0
H935 H 0.29505 0.83346 0.72987 0.0
H936 H 0.25274 0.86912 0.64638 0.0
H937 H 0.33185 0.87392 0.64561 0.0
H938 H 0.31992 0.85299 0.65667 0.0
H939 H 0.32355 0.87391 0.678 0.0
C940 C 0.27034 0.81755 0.67385 0.0
C941 C 0.27835 0.817 0.6998 0.0
C942 C 0.27242 0.83382 0.65872 0.0
C943 C 0.2826 0.85011 0.66896 0.0
C944 C 0.2909 0.8495 0.69476 0.0
H945 H 0.29809 0.96617 0.60952 0.0
H946 H 0.29788 0.93741 0.6362 0.0
C947 C 0.28891 0.83314 0.7099 0.0
C948 C 0.28348 0.86794 0.65309 0.0
H949 H 0.31411 0.9006 0.62913 0.0
C950 C 0.26622 0.87588 0.64254 0.0
C951 C 0.30097 0.87704 0.64797 0.0
C952 C 0.32014 0.86895 0.65742 0.0
C953 C 0.26593 0.89253 0.62749 0.0
C954 C 0.2834 0.90158 0.62231 0.0
C955 C 0.30067 0.89378 0.63299 0.0
C956 C 0.284 0.91903 0.60576 0.0
C957 C 0.2468 0.90054 0.61772 0.0
C958 C 0.27656 0.91841 0.57952 0.0
C959 C 0.27678 0.93483 0.56423 0.0
C960 C 0.28451 0.9523 0.57471 0.0
C961 C 0.29214 0.9529 0.60084 0.0
C962 C 0.29201 0.93644 0.61611 0.0
H963 H 0.23491 0.89525 0.62898 0.0
H964 H 0.24688 0.9165 0.61895 0.0
H965 H 0.24378 0.89593 0.59692 0.0
H966 H 0.27062 0.90517 0.57077 0.0
H967 H 0.27086 0.93389 0.54416 0.0
H968 H 0.23375 0.25537 0.7509 0.0
H969 H 0.20094 0.25032 0.73091 0.0
H970 H 0.20354 0.30505 0.69431 0.0
H971 H 0.23591 0.31013 0.71399 0.0
H972 H 0.16774 0.2976 0.71591 0.0
H973 H 0.19129 0.2377 0.65085 0.0
H974 H 0.19656 0.23564 0.6855 0.0
H975 H 0.20816 0.25391 0.66831 0.0
C976 C 0.22713 0.26644 0.73901 0.0
C977 C 0.23746 0.2831 0.73393 0.0
C978 C 0.20847 0.26348 0.7274 0.0
C979 C 0.19986 0.27721 0.71078 0.0
C980 C 0.20985 0.29422 0.70693 0.0
H981 H 0.11632 0.27847 0.5807 0.0
H982 H 0.14471 0.27847 0.61173 0.0
C983 C 0.22841 0.29708 0.71821 0.0
C984 C 0.18093 0.27383 0.69611 0.0
H985 H 0.15948 0.2483 0.64397 0.0
C986 C 0.16581 0.28662 0.70046 0.0
C987 C 0.17852 0.2597 0.67565 0.0
C988 C 0.19447 0.24598 0.66953 0.0
C989 C 0.14855 0.28592 0.6846 0.0
C990 C 0.14626 0.27198 0.66389 0.0
C991 C 0.16122 0.25893 0.6599 0.0
C992 C 0.12896 0.2715 0.64518 0.0
C993 C 0.13322 0.30067 0.68939 0.0
C994 C 0.11067 0.26742 0.65355 0.0
C995 C 0.09448 0.2674 0.63581 0.0
C996 C 0.09633 0.27142 0.60942 0.0
C997 C 0.1146 0.27534 0.60098 0.0
C998 C 0.13077 0.2753 0.61867 0.0
H999 H 0.13864 0.31262 0.70277 0.0
H1000 H 0.12757 0.30677 0.67067 0.0
H1001 H 0.12112 0.29368 0.69839 0.0
H1002 H 0.10892 0.2642 0.67379 0.0
H1003 H 0.0805 0.26429 0.64267 0.0
H1004 H 0.7692 0.24576 0.69431 0.0
H1005 H 0.76656 0.22062 0.65923 0.0
H1006 H 0.75828 0.17793 0.71655 0.0
H1007 H 0.76142 0.20264 0.75125 0.0
H1008 H 0.7845 0.16587 0.6858 0.0
H1009 H 0.72286 0.19116 0.62229 0.0
H1010 H 0.742 0.20833 0.62752 0.0
H1011 H 0.72867 0.20146 0.65461 0.0
C1012 C 0.76639 0.23107 0.69929 0.0
C1013 C 0.7655 0.2263 0.72568 0.0
C1014 C 0.76486 0.21663 0.67918 0.0
C1015 C 0.76209 0.19715 0.68498 0.0
C1016 C 0.7605 0.19267 0.71128 0.0
H1017 H 0.7511 0.08318 0.60847 0.0
H1018 H 0.75131 0.11164 0.63827 0.0
C1019 C 0.76223 0.20693 0.73122 0.0
C1020 C 0.76202 0.1811 0.66442 0.0
H1021 H 0.73957 0.16385 0.60675 0.0
C1022 C 0.7746 0.16551 0.66858 0.0
C1023 C 0.74924 0.18041 0.64167 0.0
C1024 C 0.7348 0.19613 0.63628 0.0
C1025 C 0.77471 0.14945 0.65106 0.0
C1026 C 0.76176 0.14863 0.62858 0.0
C1027 C 0.74946 0.16435 0.62398 0.0
C1028 C 0.76073 0.13142 0.60998 0.0
C1029 C 0.78888 0.13351 0.65666 0.0
C1030 C 0.76553 0.13295 0.58388 0.0
C1031 C 0.76545 0.11664 0.56687 0.0
C1032 C 0.7603 0.09847 0.57544 0.0
C1033 C 0.7551 0.097 0.60134 0.0
C1034 C 0.75531 0.11326 0.61839 0.0
H1035 H 0.8008 0.13828 0.67082 0.0
H1036 H 0.7814 0.12139 0.66522 0.0
H1037 H 0.79504 0.12809 0.6384 0.0
H1038 H 0.76975 0.1467 0.5768 0.0
H1039 H 0.76957 0.11817 0.54702 0.0
H1040 H 0.88556 0.2676 0.28458 0.0
H1041 H 0.91243 0.2675 0.3176 0.0
H1042 H 0.87322 0.27618 0.37842 0.0
H1043 H 0.84622 0.27553 0.34572 0.0
H1044 H 0.92525 0.29523 0.35335 0.0
H1045 H 0.90385 0.23089 0.40537 0.0
H1046 H 0.89282 0.23703 0.37392 0.0
H1047 H 0.88557 0.24899 0.40332 0.0
C1048 C 0.88254 0.26922 0.30496 0.0
C1049 C 0.86353 0.27145 0.31227 0.0
C1050 C 0.89801 0.2693 0.32388 0.0
C1051 C 0.89491 0.27151 0.35062 0.0
C1052 C 0.87603 0.27402 0.358 0.0
H1053 H 0.96918 0.27941 0.49455 0.0
H1054 H 0.94218 0.27945 0.46118 0.0
C1055 C 0.86054 0.2739 0.33912 0.0
C1056 C 0.91146 0.2716 0.3707 0.0
H1057 H 0.92946 0.24958 0.42581 0.0
C1058 C 0.92621 0.28516 0.3691 0.0
C1059 C 0.91278 0.25849 0.39133 0.0
C1060 C 0.89802 0.2429 0.39352 0.0
C1061 C 0.94196 0.28623 0.38774 0.0
C1062 C 0.94321 0.27319 0.40842 0.0
C1063 C 0.92849 0.25961 0.41003 0.0
C1064 C 0.95967 0.27337 0.42857 0.0
C1065 C 0.95691 0.3016 0.38546 0.0
C1066 C 0.97848 0.26976 0.42145 0.0
C1067 C 0.99386 0.26972 0.44049 0.0
C1068 C 0.9907 0.27321 0.46701 0.0
C1069 C 0.97193 0.27674 0.47419 0.0
C1070 C 0.95654 0.27673 0.45516 0.0
H1071 H 0.9515 0.31333 0.37277 0.0
H1072 H 0.96164 0.30792 0.40501 0.0
H1073 H 0.96962 0.29515 0.37668 0.0
H1074 H 0.98125 0.26678 0.40117 0.0
H1075 H 0.00822 0.2669 0.43456 0.0
H1076 H 0.74808 0.87005 0.27829 0.0
H1077 H 0.74703 0.89726 0.30952 0.0
H1078 H 0.7968 0.8752 0.35305 0.0
H1079 H 0.79699 0.84722 0.32253 0.0
H1080 H 0.7755 0.88904 0.38633 0.0
H1081 H 0.7764 0.94486 0.31272 0.0
H1082 H 0.75575 0.92985 0.30614 0.0
H1083 H 0.77949 0.91982 0.30417 0.0
C1084 C 0.75886 0.87105 0.29446 0.0
C1085 C 0.77275 0.85652 0.2977 0.0
C1086 C 0.75838 0.8868 0.3123 0.0
C1087 C 0.77224 0.88896 0.33347 0.0
C1088 C 0.78597 0.87421 0.33694 0.0
H1089 H 0.7862 1.00159 0.41652 0.0
H1090 H 0.78862 0.97326 0.38732 0.0
C1091 C 0.78612 0.85815 0.31944 0.0
C1092 C 0.77212 0.90626 0.35218 0.0
H1093 H 0.7673 0.9553 0.35505 0.0
C1094 C 0.77389 0.90352 0.37936 0.0
C1095 C 0.77047 0.92545 0.3436 0.0
C1096 C 0.77066 0.93018 0.31508 0.0
C1097 C 0.77372 0.91907 0.39785 0.0
C1098 C 0.77072 0.93812 0.38924 0.0
C1099 C 0.76928 0.94087 0.36207 0.0
C1100 C 0.76949 0.95542 0.40781 0.0
C1101 C 0.7775 0.91475 0.42639 0.0
C1102 C 0.75781 0.95538 0.42926 0.0
C1103 C 0.75701 0.97144 0.44658 0.0
C1104 C 0.76731 0.98835 0.44255 0.0
C1105 C 0.77835 0.98872 0.42054 0.0
C1106 C 0.7796 0.97248 0.40365 0.0
H1107 H 0.78613 0.90145 0.42888 0.0
H1108 H 0.78526 0.92672 0.43734 0.0
H1109 H 0.76363 0.91238 0.4352 0.0
H1110 H 0.74913 0.94295 0.43262 0.0
H1111 H 0.7482 0.97068 0.46315 0.0
H1112 H 0.20181 0.75442 0.31134 0.0
H1113 H 0.17721 0.75447 0.34321 0.0
H1114 H 0.14303 0.79358 0.29621 0.0
H1115 H 0.16749 0.79354 0.26424 0.0
H1116 H 0.16261 0.7834 0.37305 0.0
H1117 H 0.1043 0.75189 0.30655 0.0
H1118 H 0.129 0.75206 0.29822 0.0
H1119 H 0.11444 0.77324 0.29439 0.0
C1120 C 0.18912 0.76312 0.30778 0.0
C1121 C 0.18666 0.77387 0.28499 0.0
C1122 C 0.17499 0.76307 0.32603 0.0
C1123 C 0.15802 0.77372 0.32195 0.0
C1124 C 0.1557 0.78479 0.29951 0.0
H1125 H 0.05712 0.79541 0.41015 0.0
H1126 H 0.08209 0.7953 0.37876 0.0
C1127 C 0.16977 0.78478 0.28121 0.0
C1128 C 0.14293 0.77352 0.34136 0.0
H1129 H 0.09534 0.76431 0.34778 0.0
C1130 C 0.14794 0.77911 0.36753 0.0
C1131 C 0.12372 0.76792 0.33427 0.0
C1132 C 0.11754 0.76076 0.3069 0.0
C1133 C 0.13426 0.77964 0.38657 0.0
C1134 C 0.11504 0.77419 0.37941 0.0
C1135 C 0.11003 0.76856 0.35328 0.0
C1136 C 0.09992 0.77423 0.39872 0.0
C1137 C 0.1404 0.78647 0.41408 0.0
C1138 C 0.10144 0.76225 0.4203 0.0
C1139 C 0.08717 0.7623 0.43834 0.0
C1140 C 0.071 0.77432 0.43525 0.0
C1141 C 0.06946 0.78617 0.41344 0.0
C1142 C 0.08369 0.78604 0.39534 0.0
H1143 H 0.15415 0.79456 0.41491 0.0
H1144 H 0.12927 0.79581 0.42238 0.0
H1145 H 0.14247 0.77385 0.42664 0.0
H1146 H 0.11364 0.75277 0.42314 0.0
H1147 H 0.08897 0.75309 0.45495 0.0
H1148 H 0.26573 0.20811 0.34625 0.0
H1149 H 0.2679 0.18148 0.37642 0.0
H1150 H 0.27642 0.14181 0.3119 0.0
H1151 H 0.27397 0.16825 0.28172 0.0
H1152 H 0.25194 0.12679 0.34248 0.0
H1153 H 0.31369 0.15371 0.40659 0.0
H1154 H 0.29399 0.17024 0.40506 0.0
H1155 H 0.30646 0.16465 0.3761 0.0
C1156 C 0.26827 0.19377 0.33848 0.0
C1157 C 0.26968 0.19051 0.31137 0.0
C1158 C 0.2696 0.17846 0.35586 0.0
C1159 C 0.2727 0.15945 0.34675 0.0
C1160 C 0.27406 0.15621 0.31968 0.0
H1161 H 0.2882 0.04552 0.41469 0.0
H1162 H 0.28615 0.07321 0.38599 0.0
C1163 C 0.27259 0.17145 0.30231 0.0
C1164 C 0.27397 0.14284 0.36505 0.0
H1165 H 0.29747 0.12633 0.42088 0.0
C1166 C 0.262 0.12674 0.35952 0.0
C1167 C 0.28704 0.1425 0.38749 0.0
C1168 C 0.30116 0.1586 0.39407 0.0
C1169 C 0.26254 0.11066 0.3757 0.0
C1170 C 0.27556 0.11035 0.39811 0.0
C1171 C 0.28744 0.12646 0.4038 0.0
C1172 C 0.2771 0.09343 0.41571 0.0
C1173 C 0.24884 0.09423 0.36891 0.0
C1174 C 0.27312 0.09544 0.44225 0.0
C1175 C 0.27428 0.07958 0.45864 0.0
C1176 C 0.2797 0.06136 0.44902 0.0
C1177 C 0.28396 0.05937 0.42262 0.0
C1178 C 0.28268 0.0752 0.40618 0.0
H1179 H 0.2367 0.09856 0.35527 0.0
H1180 H 0.25664 0.08237 0.35925 0.0
H1181 H 0.24297 0.08862 0.38679 0.0
H1182 H 0.26886 0.10927 0.45023 0.0
H1183 H 0.27092 0.08153 0.47889 0.0
H1184 H 0.7067 0.74988 0.80772 0.0
H1185 H 0.68522 0.75543 0.84286 0.0
H1186 H 0.7065 0.81339 0.85439 0.0
H1187 H 0.72849 0.80776 0.81904 0.0
H1188 H 0.69377 0.77095 0.89926 0.0
H1189 H 0.64511 0.81488 0.83452 0.0
H1190 H 0.66182 0.79795 0.82127 0.0
H1191 H 0.6705 0.81995 0.83687 0.0
C1192 C 0.70709 0.76374 0.818 0.0
C1193 C 0.71926 0.77841 0.81057 0.0
C1194 C 0.69479 0.76687 0.83812 0.0
C1195 C 0.69412 0.78485 0.85111 0.0
C1196 C 0.70677 0.7994 0.84453 0.0
H1197 H 0.61686 0.80728 0.97852 0.0
H1198 H 0.6446 0.8081 0.95155 0.0
C1199 C 0.7194 0.79616 0.82449 0.0
C1200 C 0.67921 0.78831 0.87023 0.0
H1201 H 0.63408 0.80669 0.87506 0.0
C1202 C 0.68087 0.77907 0.89423 0.0
C1203 C 0.66224 0.79862 0.86341 0.0
C1204 C 0.6596 0.80842 0.83761 0.0
C1205 C 0.6659 0.77964 0.91138 0.0
C1206 C 0.64877 0.78959 0.90429 0.0
C1207 C 0.64724 0.79911 0.8805 0.0
C1208 C 0.6319 0.78938 0.92066 0.0
C1209 C 0.66812 0.76896 0.93653 0.0
C1210 C 0.61546 0.77873 0.91216 0.0
C1211 C 0.5996 0.77817 0.92756 0.0
C1212 C 0.59973 0.78846 0.95169 0.0
C1213 C 0.61618 0.79931 0.95998 0.0
C1214 C 0.63211 0.79971 0.94467 0.0
H1215 H 0.68138 0.76012 0.93781 0.0
H1216 H 0.66871 0.77942 0.95337 0.0
H1217 H 0.65555 0.75945 0.93832 0.0
H1218 H 0.61495 0.7707 0.89366 0.0
H1219 H 0.58714 0.76985 0.9204 0.0
H1220 H 0.29902 0.73131 0.80236 0.0
H1221 H 0.30384 0.70189 0.82767 0.0
H1222 H 0.24264 0.6957 0.83022 0.0
H1223 H 0.2378 0.72502 0.8056 0.0
H1224 H 0.28417 0.69764 0.88225 0.0
H1225 H 0.26655 0.64048 0.80619 0.0
H1226 H 0.27641 0.66345 0.7984 0.0
H1227 H 0.25181 0.66173 0.80608 0.0
C1228 C 0.28661 0.72337 0.8077 0.0
C1229 C 0.268 0.73045 0.80166 0.0
C1230 C 0.28937 0.70664 0.82241 0.0
C1231 C 0.27359 0.69647 0.8309 0.0
C1232 C 0.25506 0.70313 0.82387 0.0
H1233 H 0.24921 0.5948 0.91753 0.0
H1234 H 0.24947 0.62191 0.88866 0.0
C1235 C 0.25231 0.71991 0.80966 0.0
C1236 C 0.27617 0.67965 0.84844 0.0
H1237 H 0.26967 0.63095 0.85007 0.0
C1238 C 0.28125 0.68301 0.87518 0.0
C1239 C 0.27199 0.66059 0.83942 0.0
C1240 C 0.26646 0.65616 0.81094 0.0
C1241 C 0.28178 0.668 0.89318 0.0
C1242 C 0.2777 0.64879 0.88418 0.0
C1243 C 0.27287 0.64549 0.85726 0.0
C1244 C 0.27775 0.63209 0.90234 0.0
C1245 C 0.2858 0.67315 0.92185 0.0
C1246 C 0.29361 0.62827 0.91982 0.0
C1247 C 0.29334 0.6129 0.93701 0.0
C1248 C 0.27733 0.60049 0.937 0.0
C1249 C 0.26168 0.60409 0.91892 0.0
C1250 C 0.26188 0.6196 0.90199 0.0
H1251 H 0.28261 0.6885 0.92627 0.0
H1252 H 0.27718 0.66418 0.93426 0.0
H1253 H 0.30123 0.67078 0.92731 0.0
H1254 H 0.30634 0.63716 0.9202 0.0
H1255 H 0.30569 0.61097 0.95053 0.0
H1256 H 0.36458 0.26812 0.79612 0.0
H1257 H 0.38847 0.26504 0.83244 0.0
H1258 H 0.3442 0.27072 0.88702 0.0
H1259 H 0.31987 0.27348 0.85022 0.0
H1260 H 0.39714 0.29267 0.86974 0.0
H1261 H 0.37538 0.22584 0.9165 0.0
H1262 H 0.36619 0.23207 0.88412 0.0
H1263 H 0.35706 0.24383 0.91243 0.0
C1264 C 0.35979 0.26844 0.81581 0.0
C1265 C 0.34027 0.2711 0.82023 0.0
C1266 C 0.37353 0.26669 0.83663 0.0
C1267 C 0.36825 0.26761 0.86258 0.0
C1268 C 0.34866 0.26966 0.86719 0.0
H1269 H 0.44641 0.27057 1.00534 0.0
H1270 H 0.41758 0.27161 0.97499 0.0
C1271 C 0.33475 0.27126 0.84616 0.0
C1272 C 0.38365 0.26772 0.88429 0.0
H1273 H 0.40207 0.24273 0.93666 0.0
C1274 C 0.39813 0.28175 0.8844 0.0
C1275 C 0.38498 0.25359 0.90361 0.0
C1276 C 0.37019 0.23786 0.90418 0.0
C1277 C 0.41398 0.28186 0.9028 0.0
C1278 C 0.41563 0.26741 0.92159 0.0
C1279 C 0.40086 0.25373 0.92214 0.0
C1280 C 0.4329 0.26605 0.94018 0.0
C1281 C 0.42887 0.29749 0.90198 0.0
C1282 C 0.45106 0.26232 0.93079 0.0
C1283 C 0.46744 0.26168 0.94807 0.0
C1284 C 0.46598 0.26475 0.97506 0.0
C1285 C 0.44783 0.26821 0.98456 0.0
C1286 C 0.43141 0.26875 0.96727 0.0
H1287 H 0.42321 0.31004 0.89109 0.0
H1288 H 0.43399 0.30245 0.92205 0.0
H1289 H 0.44137 0.29175 0.89195 0.0
H1290 H 0.45256 0.25994 0.91003 0.0
H1291 H 0.4813 0.25892 0.94038 0.0
H1292 H 0.80055 0.34906 0.79012 0.0
H1293 H 0.79611 0.37719 0.81904 0.0
H1294 H 0.74758 0.34986 0.85003 0.0
H1295 H 0.75176 0.32161 0.8208 0.0
H1296 H 0.75768 0.40098 0.82704 0.0
H1297 H 0.79095 0.36427 0.91364 0.0
H1298 H 0.79647 0.35731 0.88069 0.0
H1299 H 0.77355 0.35145 0.89209 0.0
C1300 C 0.78869 0.34909 0.80273 0.0
C1301 C 0.77648 0.33297 0.80293 0.0
C1302 C 0.78621 0.36524 0.81935 0.0
C1303 C 0.77161 0.36568 0.83694 0.0
C1304 C 0.759 0.34989 0.83672 0.0
H1305 H 0.75622 0.44494 0.97162 0.0
H1306 H 0.75515 0.41749 0.94018 0.0
C1307 C 0.76133 0.33377 0.81982 0.0
C1308 C 0.77018 0.38234 0.85609 0.0
H1309 H 0.78146 0.39635 0.91996 0.0
C1310 C 0.7628 0.39996 0.84739 0.0
C1311 C 0.77675 0.38108 0.88271 0.0
C1312 C 0.78497 0.36258 0.89306 0.0
C1313 C 0.76173 0.41623 0.86451 0.0
C1314 C 0.76887 0.41519 0.89107 0.0
C1315 C 0.77603 0.39741 0.89975 0.0
C1316 C 0.76914 0.43225 0.91009 0.0
C1317 C 0.75246 0.43421 0.85396 0.0
C1318 C 0.77752 0.44987 0.90416 0.0
C1319 C 0.77784 0.46568 0.92202 0.0
C1320 C 0.77014 0.46426 0.94659 0.0
C1321 C 0.7621 0.44658 0.95278 0.0
C1322 C 0.76157 0.43083 0.93479 0.0
H1323 H 0.74223 0.43084 0.83689 0.0
H1324 H 0.74463 0.4421 0.86913 0.0
H1325 H 0.76371 0.44378 0.84726 0.0
H1326 H 0.78407 0.4514 0.88578 0.0
H1327 H 0.78427 0.47904 0.91672 0.0
H1328 H 0.72942 0.22957 0.20089 0.0
H1329 H 0.69786 0.23084 0.17754 0.0
H1330 H 0.70323 0.29224 0.17227 0.0
H1331 H 0.73488 0.2911 0.19568 0.0
H1332 H 0.66818 0.28207 0.18795 0.0
H1333 H 0.68451 0.23791 0.10032 0.0
H1334 H 0.69006 0.22599 0.1304 0.0
H1335 H 0.70302 0.24736 0.12344 0.0
C1336 C 0.72409 0.24333 0.19444 0.0
C1337 C 0.73487 0.26023 0.20015 0.0
C1338 C 0.70597 0.24403 0.18103 0.0
C1339 C 0.6982 0.26159 0.17272 0.0
C1340 C 0.70889 0.27849 0.17839 0.0
H1341 H 0.59767 0.27368 0.06317 0.0
H1342 H 0.63013 0.27388 0.0849 0.0
C1343 C 0.727 0.27782 0.19188 0.0
C1344 C 0.67871 0.26242 0.15892 0.0
H1345 H 0.6515 0.24455 0.10566 0.0
C1346 C 0.66457 0.27392 0.16989 0.0
C1347 C 0.67399 0.25202 0.13514 0.0
C1348 C 0.68873 0.24027 0.12146 0.0
C1349 C 0.64583 0.275 0.15809 0.0
C1350 C 0.64091 0.264 0.13487 0.0
C1351 C 0.65515 0.25282 0.1236 0.0
C1352 C 0.62114 0.26403 0.12183 0.0
C1353 C 0.63158 0.2882 0.17041 0.0
C1354 C 0.60525 0.25827 0.1352 0.0
C1355 C 0.58673 0.25824 0.12282 0.0
C1356 C 0.58379 0.26371 0.09673 0.0
C1357 C 0.59964 0.26937 0.08329 0.0
C1358 C 0.61814 0.26945 0.09568 0.0
H1359 H 0.63886 0.29947 0.18331 0.0
H1360 H 0.6222 0.2953 0.15526 0.0
H1361 H 0.62236 0.27968 0.18256 0.0
H1362 H 0.60717 0.25365 0.15517 0.0
H1363 H 0.5747 0.25387 0.13355 0.0
H1364 H 0.75362 0.72137 0.19592 0.0
H1365 H 0.75132 0.69064 0.17122 0.0
H1366 H 0.80884 0.69834 0.14748 0.0
H1367 H 0.81092 0.7293 0.17146 0.0
H1368 H 0.78811 0.68519 0.1075 0.0
H1369 H 0.77181 0.63949 0.1894 0.0
H1370 H 0.75429 0.65806 0.18445 0.0
H1371 H 0.77879 0.66432 0.19446 0.0
C1372 C 0.76585 0.71645 0.18566 0.0
C1373 C 0.78248 0.72792 0.18587 0.0
C1374 C 0.76457 0.69872 0.17156 0.0
C1375 C 0.78005 0.69168 0.15771 0.0
C1376 C 0.79664 0.7032 0.1579 0.0
H1377 H 0.79126 0.57185 0.1006 0.0
H1378 H 0.79289 0.60263 0.12544 0.0
C1379 C 0.79782 0.72102 0.17166 0.0
C1380 C 0.77888 0.6727 0.14246 0.0
H1381 H 0.76806 0.62487 0.1467 0.0
C1382 C 0.78378 0.67202 0.11621 0.0
C1383 C 0.77356 0.65521 0.1536 0.0
C1384 C 0.76952 0.65422 0.18209 0.0
C1385 C 0.78336 0.65472 0.10095 0.0
C1386 C 0.77722 0.6374 0.11174 0.0
C1387 C 0.77252 0.63802 0.13807 0.0
C1388 C 0.77606 0.61848 0.09638 0.0
C1389 C 0.79014 0.65519 0.07362 0.0
C1390 C 0.76582 0.61668 0.07177 0.0
C1391 C 0.76519 0.59911 0.05734 0.0
C1392 C 0.77447 0.58269 0.06728 0.0
C1393 C 0.78417 0.58428 0.09222 0.0
C1394 C 0.78501 0.60191 0.10651 0.0
H1395 H 0.79993 0.66753 0.07144 0.0
H1396 H 0.79777 0.64175 0.06839 0.0
H1397 H 0.77758 0.65685 0.05947 0.0
H1398 H 0.75819 0.62888 0.06367 0.0
H1399 H 0.75743 0.59834 0.03833 0.0
H1400 H 0.30294 0.80566 0.15479 0.0
H1401 H 0.33399 0.80551 0.1355 0.0
H1402 H 0.34889 0.75284 0.17377 0.0
H1403 H 0.31759 0.75245 0.19236 0.0
H1404 H 0.37011 0.80696 0.15941 0.0
H1405 H 0.36136 0.73947 0.09932 0.0
H1406 H 0.34149 0.75122 0.11401 0.0
H1407 H 0.35778 0.73653 0.13332 0.0
C1408 C 0.31262 0.79384 0.15884 0.0
C1409 C 0.30753 0.77901 0.17514 0.0
C1410 C 0.3305 0.79387 0.1479 0.0
C1411 C 0.34375 0.77902 0.15281 0.0
C1412 C 0.33881 0.76426 0.16919 0.0
H1413 H 0.46081 0.75741 0.10828 0.0
H1414 H 0.42973 0.75648 0.12773 0.0
C1415 C 0.32092 0.7642 0.18012 0.0
C1416 C 0.36289 0.77932 0.14139 0.0
H1417 H 0.39244 0.75354 0.10269 0.0
C1418 C 0.37493 0.79531 0.14692 0.0
C1419 C 0.36929 0.76411 0.1251 0.0
C1420 C 0.35675 0.74694 0.11735 0.0
C1421 C 0.39321 0.79639 0.13696 0.0
C1422 C 0.39958 0.78119 0.12067 0.0
C1423 C 0.3876 0.76516 0.11522 0.0
C1424 C 0.41851 0.7818 0.10878 0.0
C1425 C 0.40569 0.81365 0.14438 0.0
C1426 C 0.42251 0.79618 0.09134 0.0
C1427 C 0.44023 0.79669 0.08002 0.0
C1428 C 0.45441 0.78278 0.0858 0.0
C1429 C 0.45026 0.76827 0.10314 0.0
C1430 C 0.4325 0.76776 0.1144 0.0
H1431 H 0.40096 0.82142 0.16211 0.0
H1432 H 0.42093 0.80937 0.14803 0.0
H1433 H 0.40483 0.82376 0.12806 0.0
H1434 H 0.41182 0.80692 0.08619 0.0
H1435 H 0.44264 0.80782 0.06633 0.0
H1436 H 0.23599 0.31233 0.17517 0.0
H1437 H 0.23929 0.34172 0.1514 0.0
H1438 H 0.29144 0.35543 0.19784 0.0
H1439 H 0.28872 0.32557 0.22111 0.0
H1440 H 0.23923 0.37867 0.16633 0.0
H1441 H 0.30957 0.36307 0.12632 0.0
H1442 H 0.2961 0.34507 0.14187 0.0
H1443 H 0.31025 0.36252 0.16134 0.0
C1444 C 0.24838 0.32132 0.18025 0.0
C1445 C 0.26218 0.31611 0.20017 0.0
C1446 C 0.25016 0.33837 0.16661 0.0
C1447 C 0.26581 0.35087 0.17226 0.0
C1448 C 0.27945 0.34595 0.19243 0.0
H1449 H 0.29645 0.4625 0.10953 0.0
H1450 H 0.2949 0.43341 0.13489 0.0
C1451 C 0.27773 0.32883 0.20607 0.0
C1452 C 0.26746 0.36913 0.15742 0.0
H1453 H 0.29708 0.3944 0.12003 0.0
C1454 C 0.25189 0.38201 0.15616 0.0
C1455 C 0.28394 0.37376 0.14402 0.0
C1456 C 0.30085 0.36031 0.14319 0.0
C1457 C 0.25239 0.39922 0.14233 0.0
C1458 C 0.26882 0.4038 0.12886 0.0
C1459 C 0.28447 0.39105 0.13029 0.0
C1460 C 0.2699 0.42157 0.11294 0.0
C1461 C 0.23539 0.41257 0.14273 0.0
C1462 C 0.25662 0.42469 0.09166 0.0
C1463 C 0.25756 0.44131 0.07687 0.0
C1464 C 0.27186 0.45541 0.0828 0.0
C1465 C 0.28532 0.45207 0.10396 0.0
C1466 C 0.2844 0.43539 0.11869 0.0
H1467 H 0.22648 0.40983 0.15941 0.0
H1468 H 0.24007 0.42784 0.14402 0.0
H1469 H 0.22622 0.41029 0.12438 0.0
H1470 H 0.24556 0.41414 0.08624 0.0
H1471 H 0.24717 0.4429 0.06046 0.0
H1472 H 0.33478 0.28569 0.26423 0.0
H1473 H 0.36521 0.29062 0.24334 0.0
H1474 H 0.35776 0.23594 0.20207 0.0
H1475 H 0.32778 0.23093 0.22259 0.0
H1476 H 0.40081 0.26332 0.23808 0.0
H1477 H 0.35924 0.27948 0.1453 0.0
H1478 H 0.34915 0.28173 0.17684 0.0
H1479 H 0.35162 0.25845 0.16128 0.0
C1480 C 0.3399 0.27456 0.25117 0.0
C1481 C 0.32877 0.25799 0.24492 0.0
C1482 C 0.35722 0.27743 0.23917 0.0
C1483 C 0.36358 0.26375 0.22086 0.0
C1484 C 0.35303 0.24678 0.21588 0.0
H1485 H 0.44421 0.24211 0.10515 0.0
H1486 H 0.41832 0.24308 0.13496 0.0
C1487 C 0.33586 0.24395 0.22769 0.0
C1488 C 0.38046 0.26733 0.20539 0.0
H1489 H 0.39242 0.27283 0.14245 0.0
C1490 C 0.39906 0.26574 0.21726 0.0
C1491 C 0.37811 0.27039 0.17821 0.0
C1492 C 0.35847 0.27278 0.16459 0.0
C1493 C 0.41534 0.26624 0.20238 0.0
C1494 C 0.41292 0.26863 0.17499 0.0
C1495 C 0.39432 0.27089 0.16338 0.0
C1496 C 0.42931 0.26788 0.15769 0.0
C1497 C 0.43493 0.2633 0.21587 0.0
C1498 C 0.44416 0.28155 0.16038 0.0
C1499 C 0.45912 0.28098 0.14337 0.0
C1500 C 0.45955 0.26673 0.12322 0.0
C1501 C 0.44461 0.25309 0.12064 0.0
C1502 C 0.42967 0.25371 0.13759 0.0
H1503 H 0.43403 0.25762 0.23576 0.0
H1504 H 0.44357 0.25323 0.20421 0.0
H1505 H 0.44261 0.27727 0.21783 0.0
H1506 H 0.44406 0.29284 0.17542 0.0
H1507 H 0.47041 0.29165 0.1461 0.0
H1508 H 0.80845 0.3239 0.19312 0.0
H1509 H 0.80495 0.35501 0.17328 0.0
H1510 H 0.77688 0.37718 0.2404 0.0
H1511 H 0.78003 0.3456 0.26047 0.0
H1512 H 0.75798 0.38699 0.19403 0.0
H1513 H 0.83499 0.40379 0.19074 0.0
H1514 H 0.82952 0.38055 0.17607 0.0
H1515 H 0.82644 0.38493 0.21039 0.0
C1516 C 0.80165 0.33537 0.2039 0.0
C1517 C 0.79461 0.33224 0.22852 0.0
C1518 C 0.79979 0.35325 0.19253 0.0
C1519 C 0.79104 0.36859 0.20554 0.0
C1520 C 0.78387 0.36559 0.23011 0.0
H1521 H 0.79692 0.47975 0.12958 0.0
H1522 H 0.79948 0.45522 0.16286 0.0
C1523 C 0.7857 0.34757 0.24157 0.0
C1524 C 0.78872 0.38734 0.19257 0.0
H1525 H 0.81356 0.42021 0.16002 0.0
C1526 C 0.77015 0.39446 0.18697 0.0
C1527 C 0.8046 0.39735 0.18377 0.0
C1528 C 0.82501 0.39137 0.19081 0.0
C1529 C 0.76696 0.41062 0.1715 0.0
C1530 C 0.78275 0.41962 0.16082 0.0
C1531 C 0.80139 0.41318 0.16777 0.0
C1532 C 0.78026 0.43506 0.14141 0.0
C1533 C 0.74669 0.41779 0.16669 0.0
C1534 C 0.76876 0.43189 0.11813 0.0
C1535 C 0.76721 0.44591 0.09918 0.0
C1536 C 0.77738 0.46332 0.10285 0.0
C1537 C 0.78899 0.46645 0.12609 0.0
C1538 C 0.7904 0.45247 0.14517 0.0
H1539 H 0.73772 0.41414 0.18296 0.0
H1540 H 0.74632 0.4336 0.16442 0.0
H1541 H 0.74014 0.41075 0.14852 0.0
H1542 H 0.76131 0.41836 0.11429 0.0
H1543 H 0.75844 0.44288 0.0813 0.0
H1544 H 0.7178 0.75629 0.23023 0.0
H1545 H 0.68888 0.75292 0.2005 0.0
H1546 H 0.6708 0.8097 0.22405 0.0
H1547 H 0.69946 0.8132 0.2538 0.0
H1548 H 0.6471 0.75785 0.20896 0.0
H1549 H 0.67589 0.81072 0.14264 0.0
H1550 H 0.69088 0.79873 0.16711 0.0
H1551 H 0.67594 0.81844 0.17648 0.0
C1552 C 0.70749 0.76792 0.2295 0.0
C1553 C 0.71109 0.78507 0.2444 0.0
C1554 C 0.69098 0.76599 0.21241 0.0
C1555 C 0.67782 0.78118 0.20973 0.0
C1556 C 0.68087 0.79788 0.22552 0.0
H1557 H 0.56416 0.78805 0.12909 0.0
H1558 H 0.59165 0.78668 0.16152 0.0
C1559 C 0.69727 0.7998 0.24266 0.0
C1560 C 0.66143 0.78011 0.18955 0.0
H1561 H 0.64376 0.8006 0.13319 0.0
C1562 C 0.64637 0.76714 0.19234 0.0
C1563 C 0.66061 0.79205 0.16766 0.0
C1564 C 0.67674 0.80568 0.16303 0.0
C1565 C 0.6303 0.76614 0.17418 0.0
C1566 C 0.62917 0.77857 0.15276 0.0
C1567 C 0.64449 0.79119 0.14968 0.0
C1568 C 0.61228 0.77878 0.1333 0.0
C1569 C 0.61478 0.75162 0.17791 0.0
C1570 C 0.61469 0.77517 0.10655 0.0
C1571 C 0.59902 0.77607 0.08806 0.0
C1572 C 0.58066 0.78076 0.09592 0.0
C1573 C 0.57819 0.78435 0.12262 0.0
C1574 C 0.59386 0.78343 0.14113 0.0
H1575 H 0.62007 0.73991 0.19072 0.0
H1576 H 0.60275 0.75888 0.18731 0.0
H1577 H 0.60912 0.74517 0.15884 0.0
H1578 H 0.62874 0.77166 0.09997 0.0
H1579 H 0.60125 0.77327 0.06756 0.0
H1580 H 0.22408 0.70252 0.19927 0.0
H1581 H 0.23172 0.67106 0.18066 0.0
H1582 H 0.28887 0.67495 0.21785 0.0
H1583 H 0.28133 0.70681 0.2365 0.0
H1584 H 0.28853 0.66682 0.16491 0.0
H1585 H 0.23879 0.6177 0.20935 0.0
H1586 H 0.22647 0.63826 0.1964 0.0
H1587 H 0.24442 0.64142 0.22309 0.0
C1588 C 0.23817 0.69655 0.20399 0.0
C1589 C 0.25213 0.70719 0.21931 0.0
C1590 C 0.24246 0.67846 0.19348 0.0
C1591 C 0.26078 0.67052 0.19811 0.0
C1592 C 0.27458 0.68075 0.21422 0.0
H1593 H 0.28096 0.55812 0.12028 0.0
H1594 H 0.28028 0.58369 0.15459 0.0
C1595 C 0.27024 0.6989 0.22493 0.0
C1596 C 0.2659 0.65267 0.18355 0.0
H1597 H 0.24977 0.60728 0.16727 0.0
C1598 C 0.28033 0.65366 0.16581 0.0
C1599 C 0.25536 0.63542 0.1849 0.0
C1600 C 0.24054 0.63305 0.20468 0.0
C1601 C 0.28364 0.63831 0.14825 0.0
C1602 C 0.27201 0.62167 0.14816 0.0
C1603 C 0.25846 0.62017 0.16705 0.0
C1604 C 0.27288 0.60623 0.12763 0.0
C1605 C 0.29931 0.64021 0.12958 0.0
C1606 C 0.26867 0.6104 0.10124 0.0
C1607 C 0.26905 0.59589 0.0818 0.0
C1608 C 0.27353 0.57698 0.08848 0.0
C1609 C 0.27755 0.5727 0.11484 0.0
C1610 C 0.27716 0.58723 0.13433 0.0
H1611 H 0.31046 0.65067 0.1373 0.0
H1612 H 0.30629 0.62615 0.12574 0.0
H1613 H 0.29301 0.6455 0.11071 0.0
H1614 H 0.2649 0.62487 0.09569 0.0
H1615 H 0.2658 0.59939 0.06154 0.0
H1616 H 0.339 0.78159 0.81673 0.0
H1617 H 0.36994 0.77909 0.84185 0.0
H1618 H 0.34912 0.81609 0.90277 0.0
H1619 H 0.31808 0.81862 0.87779 0.0
H1620 H 0.39459 0.81325 0.86151 0.0
H1621 H 0.37183 0.7661 0.93949 0.0
H1622 H 0.35893 0.76701 0.9078 0.0
H1623 H 0.35679 0.78635 0.9314 0.0
C1624 C 0.34088 0.789 0.83561 0.0
C1625 C 0.32598 0.80027 0.84526 0.0
C1626 C 0.35864 0.78766 0.84987 0.0
C1627 C 0.36181 0.79731 0.87425 0.0
C1628 C 0.34695 0.80841 0.88409 0.0
H1629 H 0.45774 0.80157 0.9925 0.0
H1630 H 0.42654 0.80433 0.96782 0.0
C1631 C 0.32925 0.80993 0.86971 0.0
C1632 C 0.38082 0.79617 0.88907 0.0
H1633 H 0.40362 0.77774 0.94376 0.0
C1634 C 0.39662 0.80545 0.87946 0.0
C1635 C 0.38338 0.78614 0.91259 0.0
C1636 C 0.36692 0.7757 0.9235 0.0
C1637 C 0.41486 0.80521 0.89293 0.0
C1638 C 0.41755 0.79487 0.91629 0.0
C1639 C 0.40166 0.78563 0.92588 0.0
C1640 C 0.43665 0.79348 0.9311 0.0
C1641 C 0.43089 0.81652 0.88233 0.0
C1642 C 0.45278 0.78636 0.91886 0.0
C1643 C 0.47062 0.78501 0.93289 0.0
C1644 C 0.47262 0.79033 0.9596 0.0
C1645 C 0.45652 0.79733 0.97193 0.0
C1646 C 0.43871 0.79885 0.95784 0.0
H1647 H 0.42525 0.82817 0.86966 0.0
H1648 H 0.44047 0.82302 0.89838 0.0
H1649 H 0.43955 0.80678 0.87024 0.0
H1650 H 0.45155 0.78166 0.89847 0.0
H1651 H 0.48286 0.77968 0.92294 0.0
H1652 H 0.30385 0.34073 0.83213 0.0
H1653 H 0.299 0.36873 0.86086 0.0
H1654 H 0.28617 0.40325 0.7936 0.0
H1655 H 0.29045 0.37511 0.76465 0.0
H1656 H 0.3183 0.40424 0.8629 0.0
H1657 H 0.24004 0.41277 0.83849 0.0
H1658 H 0.25287 0.39112 0.83027 0.0
H1659 H 0.25484 0.41207 0.81108 0.0
C1660 C 0.2998 0.35421 0.82341 0.0
C1661 C 0.29737 0.35562 0.79607 0.0
C1662 C 0.29716 0.37022 0.83986 0.0
C1663 C 0.29194 0.38796 0.82936 0.0
C1664 C 0.28986 0.38959 0.8021 0.0
H1665 H 0.27038 0.49869 0.90727 0.0
H1666 H 0.27406 0.47256 0.87444 0.0
C1667 C 0.29253 0.37355 0.78558 0.0
C1668 C 0.28898 0.40475 0.84711 0.0
H1669 H 0.255 0.43615 0.86746 0.0
C1670 C 0.30448 0.41124 0.86389 0.0
C1671 C 0.27092 0.41386 0.84826 0.0
C1672 C 0.25364 0.40706 0.83124 0.0
C1673 C 0.30242 0.42661 0.88185 0.0
C1674 C 0.28429 0.43548 0.88335 0.0
C1675 C 0.26886 0.42925 0.86626 0.0
C1676 C 0.28102 0.45098 0.903 0.0
C1677 C 0.31971 0.43333 0.89893 0.0
C1678 C 0.28325 0.44731 0.92981 0.0
C1679 C 0.28111 0.46212 0.9484 0.0
C1680 C 0.27658 0.48074 0.94043 0.0
C1681 C 0.2738 0.48434 0.91368 0.0
C1682 C 0.27592 0.4695 0.89504 0.0
H1683 H 0.33333 0.42855 0.89075 0.0
H1684 H 0.31992 0.44924 0.90135 0.0
H1685 H 0.31911 0.42721 0.91859 0.0
H1686 H 0.28686 0.43304 0.93632 0.0
H1687 H 0.28331 0.45916 0.96901 0.0
H1688 H 0.7167 0.28302 0.8353 0.0
H1689 H 0.68747 0.28372 0.85898 0.0
H1690 H 0.70402 0.23078 0.89538 0.0
H1691 H 0.7332 0.22978 0.87155 0.0
H1692 H 0.65745 0.25653 0.85847 0.0
H1693 H 0.69314 0.26653 0.958 0.0
H1694 H 0.70545 0.27029 0.92869 0.0
H1695 H 0.70168 0.24634 0.9394 0.0
C1696 C 0.71414 0.27141 0.84814 0.0
C1697 C 0.7275 0.25635 0.85145 0.0
C1698 C 0.6974 0.2719 0.86181 0.0
C1699 C 0.69364 0.25747 0.87928 0.0
C1700 C 0.70678 0.24232 0.88245 0.0
H1701 H 0.60236 0.23559 0.98228 0.0
H1702 H 0.63083 0.23434 0.95699 0.0
C1703 C 0.72352 0.24178 0.86877 0.0
C1704 C 0.67583 0.25812 0.89386 0.0
H1705 H 0.65966 0.26059 0.95544 0.0
C1706 C 0.65792 0.2575 0.87967 0.0
C1707 C 0.67643 0.25935 0.92154 0.0
C1708 C 0.69518 0.26084 0.93786 0.0
C1709 C 0.64064 0.25768 0.89237 0.0
C1710 C 0.64122 0.25894 0.92007 0.0
C1711 C 0.65916 0.2596 0.93424 0.0
C1712 C 0.62346 0.2595 0.93479 0.0
C1713 C 0.62192 0.25599 0.87599 0.0
C1714 C 0.60978 0.27412 0.93093 0.0
C1715 C 0.59332 0.27476 0.94521 0.0
C1716 C 0.59019 0.26087 0.96387 0.0
C1717 C 0.60401 0.24632 0.96777 0.0
C1718 C 0.62044 0.24568 0.95346 0.0
H1719 H 0.62401 0.24976 0.85614 0.0
H1720 H 0.61149 0.24692 0.88548 0.0
H1721 H 0.61561 0.27051 0.87365 0.0
H1722 H 0.61192 0.2852 0.91707 0.0
H1723 H 0.583 0.28612 0.9415 0.0
H1724 H 0.7544 0.67966 0.74247 0.0
H1725 H 0.75657 0.65161 0.77023 0.0
H1726 H 0.75423 0.6888 0.83888 0.0
H1727 H 0.75147 0.71671 0.81141 0.0
H1728 H 0.78443 0.64318 0.81033 0.0
H1729 H 0.71212 0.64927 0.84835 0.0
H1730 H 0.71883 0.66197 0.82016 0.0
H1731 H 0.72587 0.67105 0.85264 0.0
C1732 C 0.75412 0.68184 0.76345 0.0
C1733 C 0.75275 0.70047 0.77467 0.0
C1734 C 0.75548 0.66581 0.77928 0.0
C1735 C 0.75531 0.66811 0.80659 0.0
C1736 C 0.75407 0.68666 0.81783 0.0
H1737 H 0.79328 0.59387 0.93106 0.0
H1738 H 0.79029 0.61774 0.89707 0.0
C1739 C 0.75273 0.70265 0.80207 0.0
C1740 C 0.75681 0.65122 0.82351 0.0
H1741 H 0.73423 0.62842 0.87087 0.0
C1742 C 0.77339 0.63982 0.82341 0.0
C1743 C 0.74227 0.64671 0.84029 0.0
C1744 C 0.72368 0.65777 0.84025 0.0
C1745 C 0.77612 0.62442 0.84031 0.0
C1746 C 0.762 0.62053 0.85802 0.0
C1747 C 0.74513 0.63153 0.85747 0.0
C1748 C 0.76451 0.60536 0.87765 0.0
C1749 C 0.79404 0.61242 0.83896 0.0
C1750 C 0.75087 0.59061 0.87828 0.0
C1751 C 0.7525 0.57699 0.89775 0.0
C1752 C 0.76777 0.5779 0.91709 0.0
C1753 C 0.78153 0.59257 0.91622 0.0
C1754 C 0.77986 0.60622 0.89677 0.0
H1755 H 0.80042 0.61357 0.81977 0.0
H1756 H 0.80485 0.6176 0.85442 0.0
H1757 H 0.79101 0.59705 0.8422 0.0
H1758 H 0.73888 0.5897 0.86376 0.0
H1759 H 0.74178 0.56575 0.89768 0.0
loop_
_geom_bond_atom_site_label_1
_geom_bond_atom_site_label_2
_geom_bond_distance
_geom_bond_site_symmetry_2
_ccdc_geom_bond_type
Cu0 N1 1.999 . S
Cu0 O6 1.974 . S
Cu0 N11 1.985 . S
Cu0 O20 1.959 . S
N1 Cu0 1.999 . S
N1 C3 1.263 . S
N1 C5 1.389 . S
N2 C3 1.358 . S
N2 C4 1.400 . S
C3 N1 1.263 . S
C3 N2 1.358 . S
C3 H9 0.930 . S
C4 N2 1.400 . S
C4 C5 1.351 . S
C4 H21 0.930 . S
C5 N1 1.389 . S
C5 C4 1.351 . S
C5 H10 0.930 . S
O6 Cu0 1.974 . S
O6 C16 1.282 . S
C7 O8 1.261 . S
C7 O20 1.251 . S
O8 C7 1.261 . S
H9 C3 0.930 . S
H10 C5 0.930 . S
N11 Cu0 1.985 . S
N11 C13 1.335 . S
N11 C14 1.390 . S
N12 C13 1.345 . S
N12 C15 1.336 . S
C13 N11 1.335 . S
C13 N12 1.345 . S
C13 H18 0.930 . S
C14 N11 1.390 . S
C14 C15 1.346 . S
C14 H19 0.930 . S
C15 N12 1.336 . S
C15 C14 1.346 . S
C15 H22 0.929 . S
C16 O6 1.282 . S
C16 O17 1.216 . S
O17 C16 1.216 . S
H18 C13 0.930 . S
H19 C14 0.930 . S
O20 Cu0 1.959 . S
O20 C7 1.251 . S
H21 C4 0.930 . S
H22 C15 0.929 . S
Cu23 N24 1.999 . S
Cu23 O29 1.974 . S
Cu23 N34 1.985 . S
Cu23 O43 1.959 . S
N24 Cu23 1.999 . S
N24 C26 1.263 . S
N24 C28 1.389 . S
N25 C26 1.358 . S
N25 C27 1.400 . S
C26 N24 1.263 . S
C26 N25 1.358 . S
C26 H32 0.930 . S
C27 N25 1.400 . S
C27 C28 1.351 . S
C27 H44 0.930 . S
C28 N24 1.389 . S
C28 C27 1.351 . S
C28 H33 0.930 . S
O29 Cu23 1.974 . S
O29 C39 1.282 . S
C30 O31 1.261 . S
C30 O43 1.251 . S
O31 C30 1.261 . S
H32 C26 0.930 . S
H33 C28 0.930 . S
N34 Cu23 1.985 . S
N34 C36 1.335 . S
N34 C37 1.390 . S
N35 C36 1.345 . S
N35 C38 1.336 . S
C36 N34 1.335 . S
C36 N35 1.345 . S
C36 H41 0.930 . S
C37 N34 1.390 . S
C37 C38 1.346 . S
C37 H42 0.930 . S
C38 N35 1.336 . S
C38 C37 1.346 . S
C38 H45 0.929 . S
C39 O29 1.282 . S
C39 O40 1.216 . S
O40 C39 1.216 . S
H41 C36 0.930 . S
H42 C37 0.930 . S
O43 Cu23 1.959 . S
O43 C30 1.251 . S
H44 C27 0.930 . S
H45 C38 0.929 . S
Cu46 N47 1.999 . S
Cu46 O52 1.974 . S
Cu46 N57 1.985 . S
Cu46 O66 1.959 . S
N47 Cu46 1.999 . S
N47 C49 1.263 . S
N47 C51 1.389 . S
N48 C49 1.358 . S
N48 C50 1.400 . S
C49 N47 1.263 . S
C49 N48 1.358 . S
C49 H55 0.930 . S
C50 N48 1.400 . S
C50 C51 1.351 . S
C50 H67 0.930 . S
C51 N47 1.389 . S
C51 C50 1.351 . S
C51 H56 0.930 . S
O52 Cu46 1.974 . S
O52 C62 1.282 . S
C53 O54 1.261 . S
C53 O66 1.251 . S
O54 C53 1.261 . S
H55 C49 0.930 . S
H56 C51 0.930 . S
N57 Cu46 1.985 . S
N57 C59 1.335 . S
N57 C60 1.390 . S
N58 C59 1.345 . S
N58 C61 1.336 . S
C59 N57 1.335 . S
C59 N58 1.345 . S
C59 H64 0.930 . S
C60 N57 1.390 . S
C60 C61 1.346 . S
C60 H65 0.930 . S
C61 N58 1.336 . S
C61 C60 1.346 . S
C61 H68 0.929 . S
C62 O52 1.282 . S
C62 O63 1.216 . S
O63 C62 1.216 . S
H64 C59 0.930 . S
H65 C60 0.930 . S
O66 Cu46 1.959 . S
O66 C53 1.251 . S
H67 C50 0.930 . S
H68 C61 0.929 . S
Cu69 N70 1.999 . S
Cu69 O75 1.974 . S
Cu69 N80 1.985 . S
Cu69 O89 1.959 . S
N70 Cu69 1.999 . S
N70 C72 1.263 . S
N70 C74 1.389 . S
N71 C72 1.358 . S
N71 C73 1.400 . S
C72 N70 1.263 . S
C72 N71 1.358 . S
C72 H78 0.930 . S
C73 N71 1.400 . S
C73 C74 1.351 . S
C73 H90 0.930 . S
C74 N70 1.389 . S
C74 C73 1.351 . S
C74 H79 0.930 . S
O75 Cu69 1.974 . S
O75 C85 1.282 . S
C76 O77 1.261 . S
C76 O89 1.251 . S
O77 C76 1.261 . S
H78 C72 0.930 . S
H79 C74 0.930 . S
N80 Cu69 1.985 . S
N80 C82 1.335 . S
N80 C83 1.390 . S
N81 C82 1.345 . S
N81 C84 1.336 . S
C82 N80 1.335 . S
C82 N81 1.345 . S
C82 H87 0.930 . S
C83 N80 1.390 . S
C83 C84 1.346 . S
C83 H88 0.930 . S
C84 N81 1.336 . S
C84 C83 1.346 . S
C84 H91 0.929 . S
C85 O75 1.282 . S
C85 O86 1.216 . S
O86 C85 1.216 . S
H87 C82 0.930 . S
H88 C83 0.930 . S
O89 Cu69 1.959 . S
O89 C76 1.251 . S
H90 C73 0.930 . S
H91 C84 0.929 . S
Cu92 N93 1.999 . S
Cu92 O98 1.974 . S
Cu92 N103 1.985 . S
Cu92 O112 1.959 . S
N93 Cu92 1.999 . S
N93 C95 1.263 . S
N93 C97 1.389 . S
N94 C95 1.358 . S
N94 C96 1.400 . S
C95 N93 1.263 . S
C95 N94 1.358 . S
C95 H101 0.930 . S
C96 N94 1.400 . S
C96 C97 1.351 . S
C96 H113 0.930 . S
C97 N93 1.389 . S
C97 C96 1.351 . S
C97 H102 0.930 . S
O98 Cu92 1.974 . S
O98 C108 1.282 . S
C99 O100 1.261 . S
C99 O112 1.251 . S
O100 C99 1.261 . S
H101 C95 0.930 . S
H102 C97 0.930 . S
N103 Cu92 1.985 . S
N103 C105 1.335 . S
N103 C106 1.390 . S
N104 C105 1.345 . S
N104 C107 1.336 . S
C105 N103 1.335 . S
C105 N104 1.345 . S
C105 H110 0.930 . S
C106 N103 1.390 . S
C106 C107 1.346 . S
C106 H111 0.930 . S
C107 N104 1.336 . S
C107 C106 1.346 . S
C107 H114 0.929 . S
C108 O98 1.282 . S
C108 O109 1.216 . S
O109 C108 1.216 . S
H110 C105 0.930 . S
H111 C106 0.930 . S
O112 Cu92 1.959 . S
O112 C99 1.251 . S
H113 C96 0.930 . S
H114 C107 0.929 . S
Cu115 N116 1.999 . S
Cu115 O121 1.974 . S
Cu115 N126 1.985 . S
Cu115 O135 1.959 . S
N116 Cu115 1.999 . S
N116 C118 1.263 . S
N116 C120 1.389 . S
N117 C118 1.358 . S
N117 C119 1.400 . S
C118 N116 1.263 . S
C118 N117 1.358 . S
C118 H124 0.930 . S
C119 N117 1.400 . S
C119 C120 1.351 . S
C119 H136 0.930 . S
C120 N116 1.389 . S
C120 C119 1.351 . S
C120 H125 0.930 . S
O121 Cu115 1.974 . S
O121 C131 1.282 . S
C122 O123 1.261 . S
C122 O135 1.251 . S
O123 C122 1.261 . S
H124 C118 0.930 . S
H125 C120 0.930 . S
N126 Cu115 1.985 . S
N126 C128 1.335 . S
N126 C129 1.390 . S
N127 C128 1.345 . S
N127 C130 1.336 . S
C128 N126 1.335 . S
C128 N127 1.345 . S
C128 H133 0.930 . S
C129 N126 1.390 . S
C129 C130 1.346 . S
C129 H134 0.930 . S
C130 N127 1.336 . S
C130 C129 1.346 . S
C130 H137 0.929 . S
C131 O121 1.282 . S
C131 O132 1.216 . S
O132 C131 1.216 . S
H133 C128 0.930 . S
H134 C129 0.930 . S
O135 Cu115 1.959 . S
O135 C122 1.251 . S
H136 C119 0.930 . S
H137 C130 0.929 . S
Cu138 N139 1.999 . S
Cu138 O144 1.974 . S
Cu138 N149 1.985 . S
Cu138 O158 1.959 . S
N139 Cu138 1.999 . S
N139 C141 1.263 . S
N139 C143 1.389 . S
N140 C141 1.358 . S
N140 C142 1.400 . S
C141 N139 1.263 . S
C141 N140 1.358 . S
C141 H147 0.930 . S
C142 N140 1.400 . S
C142 C143 1.351 . S
C142 H159 0.930 . S
C143 N139 1.389 . S
C143 C142 1.351 . S
C143 H148 0.930 . S
O144 Cu138 1.974 . S
O144 C154 1.282 . S
C145 O146 1.261 . S
C145 O158 1.251 . S
O146 C145 1.261 . S
H147 C141 0.930 . S
H148 C143 0.930 . S
N149 Cu138 1.985 . S
N149 C151 1.335 . S
N149 C152 1.390 . S
N150 C151 1.345 . S
N150 C153 1.336 . S
C151 N149 1.335 . S
C151 N150 1.345 . S
C151 H156 0.930 . S
C152 N149 1.390 . S
C152 C153 1.346 . S
C152 H157 0.930 . S
C153 N150 1.336 . S
C153 C152 1.346 . S
C153 H160 0.929 . S
C154 O144 1.282 . S
C154 O155 1.216 . S
O155 C154 1.216 . S
H156 C151 0.930 . S
H157 C152 0.930 . S
O158 Cu138 1.959 . S
O158 C145 1.251 . S
H159 C142 0.930 . S
H160 C153 0.929 . S
Cu161 N162 1.999 . S
Cu161 O167 1.974 . S
Cu161 N172 1.985 . S
Cu161 O181 1.959 . S
N162 Cu161 1.999 . S
N162 C164 1.263 . S
N162 C166 1.389 . S
N163 C164 1.358 . S
N163 C165 1.400 . S
C164 N162 1.263 . S
C164 N163 1.358 . S
C164 H170 0.930 . S
C165 N163 1.400 . S
C165 C166 1.351 . S
C165 H182 0.930 . S
C166 N162 1.389 . S
C166 C165 1.351 . S
C166 H171 0.930 . S
O167 Cu161 1.974 . S
O167 C177 1.282 . S
C168 O169 1.261 . S
C168 O181 1.251 . S
O169 C168 1.261 . S
H170 C164 0.930 . S
H171 C166 0.930 . S
N172 Cu161 1.985 . S
N172 C174 1.335 . S
N172 C175 1.390 . S
N173 C174 1.345 . S
N173 C176 1.336 . S
C174 N172 1.335 . S
C174 N173 1.345 . S
C174 H179 0.930 . S
C175 N172 1.390 . S
C175 C176 1.346 . S
C175 H180 0.930 . S
C176 N173 1.336 . S
C176 C175 1.346 . S
C176 H183 0.929 . S
C177 O167 1.282 . S
C177 O178 1.216 . S
O178 C177 1.216 . S
H179 C174 0.930 . S
H180 C175 0.930 . S
O181 Cu161 1.959 . S
O181 C168 1.251 . S
H182 C165 0.930 . S
H183 C176 0.929 . S
C184 C185 1.443 . S
C184 N188 1.376 . S
C184 C222 1.389 . S
C185 C184 1.443 . S
C185 C186 1.340 . S
C185 H225 0.951 . S
C186 C185 1.340 . S
C186 C187 1.439 . S
C186 H226 0.950 . S
C187 C186 1.439 . S
C187 N188 1.374 . S
C187 C221 1.395 . S
N188 C184 1.376 . S
N188 C187 1.374 . S
N188 Co189 2.008 . S
Co189 N188 2.008 . S
Co189 N190 1.995 . S
Co189 N195 2.008 . S
Co189 N200 1.995 . S
Co189 N205 2.282 . S
Co189 N211 2.282 . S
N190 Co189 1.995 . S
N190 C191 1.376 . S
N190 C194 1.383 . S
C191 N190 1.376 . S
C191 C192 1.446 . S
C191 C221 1.391 . S
C192 C191 1.446 . S
C192 C193 1.339 1_455 S
C192 H227 0.949 . S
C193 C192 1.339 1_655 S
C193 C194 1.439 1_655 S
C193 H228 0.950 . S
C194 N190 1.383 . S
C194 C193 1.439 1_455 S
C194 C223 1.392 1_455 S
N195 Co189 2.008 . S
N195 C196 1.379 . S
N195 C199 1.374 . S
C196 N195 1.379 . S
C196 C197 1.442 1_455 S
C196 C223 1.388 1_455 S
C197 C196 1.442 1_655 S
C197 C198 1.325 1_655 S
C197 H229 0.951 . S
C198 C197 1.325 1_455 S
C198 C199 1.462 . S
C198 H230 0.944 1_455 S
C199 N195 1.374 . S
C199 C198 1.462 . S
C199 C224 1.395 . S
N200 Co189 1.995 . S
N200 C201 1.376 . S
N200 C204 1.383 . S
C201 N200 1.376 . S
C201 C202 1.446 . S
C201 C224 1.391 . S
C202 C201 1.446 . S
C202 C203 1.339 . S
C202 H231 0.949 . S
C203 C202 1.339 . S
C203 C204 1.439 . S
C203 H232 0.950 . S
C204 N200 1.383 . S
C204 C203 1.439 . S
C204 C222 1.392 . S
N205 Co189 2.282 . S
N205 C208 1.332 . S
N205 C210 1.332 1_455 S
C206 C207 1.386 . S
C206 C209 1.388 . S
C207 C206 1.386 . S
C207 C208 1.382 1_655 S
C207 H233 0.950 . S
C208 N205 1.332 . S
C208 C207 1.382 1_455 S
C208 H219 0.952 . S
C209 C206 1.388 . S
C209 C210 1.382 . S
C209 H234 0.950 . S
C210 N205 1.332 1_655 S
C210 C209 1.382 . S
C210 H220 0.948 1_655 S
N211 Co189 2.282 . S
N211 C215 1.332 . S
N211 C216 1.332 . S
C212 C213 1.388 . S
C212 C216 1.382 . S
C212 H235 0.950 . S
C213 C212 1.388 . S
C213 C214 1.386 . S
C214 C213 1.386 . S
C214 C215 1.382 . S
C214 H236 0.950 . S
C215 N211 1.332 . S
C215 C214 1.382 . S
C215 H217 0.952 . S
C216 N211 1.332 . S
C216 C212 1.382 . S
C216 H218 0.948 . S
H217 C215 0.952 . S
H218 C216 0.948 . S
H219 C208 0.952 . S
H220 C210 0.948 1_455 S
C221 C187 1.395 . S
C221 C191 1.391 . S
C222 C184 1.389 . S
C222 C204 1.392 . S
C223 C194 1.392 1_655 S
C223 C196 1.388 1_655 S
C224 C199 1.395 . S
C224 C201 1.391 . S
H225 C185 0.951 . S
H226 C186 0.950 . S
H227 C192 0.949 . S
H228 C193 0.950 . S
H229 C197 0.951 . S
H230 C198 0.944 1_655 S
H231 C202 0.949 . S
H232 C203 0.950 . S
H233 C207 0.950 . S
H234 C209 0.950 . S
H235 C212 0.950 . S
H236 C214 0.950 . S
C237 C238 1.443 . S
C237 N241 1.376 . S
C237 C275 1.389 . S
C238 C237 1.443 . S
C238 C239 1.340 . S
C238 H278 0.951 . S
C239 C238 1.340 . S
C239 C240 1.439 . S
C239 H279 0.950 . S
C240 C239 1.439 . S
C240 N241 1.374 . S
C240 C274 1.395 . S
N241 C237 1.376 . S
N241 C240 1.374 . S
N241 Co242 2.008 . S
Co242 N241 2.008 . S
Co242 N243 1.995 . S
Co242 N248 2.008 . S
Co242 N253 1.995 . S
Co242 N258 2.282 . S
Co242 N264 2.282 . S
N243 Co242 1.995 . S
N243 C244 1.376 . S
N243 C247 1.383 . S
C244 N243 1.376 . S
C244 C245 1.446 . S
C244 C274 1.391 . S
C245 C244 1.446 . S
C245 C246 1.339 1_545 S
C245 H280 0.949 . S
C246 C245 1.339 1_565 S
C246 C247 1.439 1_565 S
C246 H281 0.950 . S
C247 N243 1.383 . S
C247 C246 1.439 1_545 S
C247 C276 1.392 1_545 S
N248 Co242 2.008 . S
N248 C249 1.421 . S
N248 C252 1.374 . S
C249 N248 1.421 . S
C249 C250 1.418 1_545 S
C249 C276 1.372 1_545 S
C250 C249 1.418 1_565 S
C250 C251 1.340 1_565 S
C250 H282 0.951 . S
C251 C250 1.340 1_545 S
C251 C252 1.439 . S
C251 H283 0.950 1_545 S
C252 N248 1.374 . S
C252 C251 1.439 . S
C252 C277 1.395 . S
N253 Co242 1.995 . S
N253 C254 1.376 . S
N253 C257 1.383 . S
C254 N253 1.376 . S
C254 C255 1.446 . S
C254 C277 1.391 . S
C255 C254 1.446 . S
C255 C256 1.339 . S
C255 H284 0.949 . S
C256 C255 1.339 . S
C256 C257 1.439 . S
C256 H285 0.950 . S
C257 N253 1.383 . S
C257 C256 1.439 . S
C257 C275 1.392 . S
N258 Co242 2.282 . S
N258 C261 1.332 . S
N258 C263 1.332 1_545 S
C259 C260 1.386 . S
C259 C262 1.388 . S
C260 C259 1.386 . S
C260 C261 1.382 1_565 S
C260 H286 0.950 . S
C261 N258 1.332 . S
C261 C260 1.382 1_545 S
C261 H272 0.952 . S
C262 C259 1.388 . S
C262 C263 1.382 . S
C262 H287 0.950 . S
C263 N258 1.332 1_565 S
C263 C262 1.382 . S
C263 H273 0.948 1_565 S
N264 Co242 2.282 . S
N264 C268 1.332 . S
N264 C269 1.332 . S
C265 C266 1.388 . S
C265 C269 1.382 . S
C265 H288 0.950 . S
C266 C265 1.388 . S
C266 C267 1.386 . S
C267 C266 1.386 . S
C267 C268 1.382 . S
C267 H289 0.950 . S
C268 N264 1.332 . S
C268 C267 1.382 . S
C268 H270 0.952 . S
C269 N264 1.332 . S
C269 C265 1.382 . S
C269 H271 0.948 . S
H270 C268 0.952 . S
H271 C269 0.948 . S
H272 C261 0.952 . S
H273 C263 0.948 1_545 S
C274 C240 1.395 . S
C274 C244 1.391 . S
C275 C237 1.389 . S
C275 C257 1.392 . S
C276 C247 1.392 1_565 S
C276 C249 1.372 1_565 S
C277 C252 1.395 . S
C277 C254 1.391 . S
H278 C238 0.951 . S
H279 C239 0.950 . S
H280 C245 0.949 . S
H281 C246 0.950 . S
H282 C250 0.951 . S
H283 C251 0.950 1_565 S
H284 C255 0.949 . S
H285 C256 0.950 . S
H286 C260 0.950 . S
H287 C262 0.950 . S
H288 C265 0.950 . S
H289 C267 0.950 . S
C290 C291 1.443 . S
C290 N294 1.376 . S
C290 C328 1.389 . S
C291 C290 1.443 . S
C291 C292 1.340 . S
C291 H331 0.951 . S
C292 C291 1.340 . S
C292 C293 1.439 . S
C292 H332 0.950 . S
C293 C292 1.439 . S
C293 N294 1.374 . S
C293 C327 1.395 . S
N294 C290 1.376 . S
N294 C293 1.374 . S
N294 Co295 2.008 . S
Co295 N294 2.008 . S
Co295 N296 1.995 1_455 S
Co295 N301 2.008 1_455 S
Co295 N306 1.995 . S
Co295 N311 2.282 1_455 S
Co295 N317 2.282 . S
N296 Co295 1.995 1_655 S
N296 C297 1.376 . S
N296 C300 1.383 . S
C297 N296 1.376 . S
C297 C298 1.446 . S
C297 C327 1.391 1_655 S
C298 C297 1.446 . S
C298 C299 1.339 . S
C298 H333 0.949 . S
C299 C298 1.339 . S
C299 C300 1.439 . S
C299 H334 0.950 . S
C300 N296 1.383 . S
C300 C299 1.439 . S
C300 C329 1.392 . S
N301 Co295 2.008 1_655 S
N301 C302 1.376 . S
N301 C305 1.374 . S
C302 N301 1.376 . S
C302 C303 1.443 . S
C302 C329 1.389 . S
C303 C302 1.443 . S
C303 C304 1.340 . S
C303 H335 0.951 . S
C304 C303 1.340 . S
C304 C305 1.439 . S
C304 H336 0.950 . S
C305 N301 1.374 . S
C305 C304 1.439 . S
C305 C330 1.395 1_655 S
N306 Co295 1.995 . S
N306 C307 1.376 . S
N306 C310 1.383 . S
C307 N306 1.376 . S
C307 C308 1.446 . S
C307 C330 1.391 . S
C308 C307 1.446 . S
C308 C309 1.339 . S
C308 H337 0.949 . S
C309 C308 1.339 . S
C309 C310 1.439 . S
C309 H338 0.950 . S
C310 N306 1.383 . S
C310 C309 1.439 . S
C310 C328 1.392 . S
N311 Co295 2.282 1_655 S
N311 C314 1.332 . S
N311 C316 1.332 . S
C312 C313 1.386 . S
C312 C315 1.388 . S
C313 C312 1.386 . S
C313 C314 1.382 . S
C313 H339 0.950 . S
C314 N311 1.332 . S
C314 C313 1.382 . S
C314 H325 0.952 . S
C315 C312 1.388 . S
C315 C316 1.382 . S
C315 H340 0.950 . S
C316 N311 1.332 . S
C316 C315 1.382 . S
C316 H326 0.948 . S
N317 Co295 2.282 . S
N317 C321 1.332 . S
N317 C322 1.332 . S
C318 C319 1.388 . S
C318 C322 1.382 . S
C318 H341 0.950 . S
C319 C318 1.388 . S
C319 C320 1.386 . S
C320 C319 1.386 . S
C320 C321 1.382 . S
C320 H342 0.950 . S
C321 N317 1.332 . S
C321 C320 1.382 . S
C321 H323 0.952 . S
C322 N317 1.332 . S
C322 C318 1.382 . S
C322 H324 0.948 . S
H323 C321 0.952 . S
H324 C322 0.948 . S
H325 C314 0.952 . S
H326 C316 0.948 . S
C327 C293 1.395 . S
C327 C297 1.391 1_455 S
C328 C290 1.389 . S
C328 C310 1.392 . S
C329 C300 1.392 . S
C329 C302 1.389 . S
C330 C305 1.395 1_455 S
C330 C307 1.391 . S
H331 C291 0.951 . S
H332 C292 0.950 . S
H333 C298 0.949 . S
H334 C299 0.950 . S
H335 C303 0.951 . S
H336 C304 0.950 . S
H337 C308 0.949 . S
H338 C309 0.950 . S
H339 C313 0.950 . S
H340 C315 0.950 . S
H341 C318 0.950 . S
H342 C320 0.950 . S
C343 C344 1.443 . S
C343 N347 1.376 . S
C343 C381 1.389 . S
C344 C343 1.443 . S
C344 C345 1.340 . S
C344 H384 0.951 . S
C345 C344 1.340 . S
C345 C346 1.439 . S
C345 H385 0.950 . S
C346 C345 1.439 . S
C346 N347 1.374 . S
C346 C380 1.395 1_565 S
N347 C343 1.376 . S
N347 C346 1.374 . S
N347 Co348 2.008 1_565 S
Co348 N347 2.008 1_545 S
Co348 N349 1.995 . S
Co348 N354 2.008 . S
Co348 N359 1.995 1_545 S
Co348 N364 2.282 . S
Co348 N370 2.282 1_545 S
N349 Co348 1.995 . S
N349 C350 1.376 . S
N349 C353 1.383 . S
C350 N349 1.376 . S
C350 C351 1.446 . S
C350 C380 1.391 . S
C351 C350 1.446 . S
C351 C352 1.339 . S
C351 H386 0.949 . S
C352 C351 1.339 . S
C352 C353 1.439 . S
C352 H387 0.950 . S
C353 N349 1.383 . S
C353 C352 1.439 . S
C353 C382 1.392 . S
N354 Co348 2.008 . S
N354 C355 1.376 . S
N354 C358 1.374 . S
C355 N354 1.376 . S
C355 C356 1.443 . S
C355 C382 1.389 . S
C356 C355 1.443 . S
C356 C357 1.340 . S
C356 H388 0.951 . S
C357 C356 1.340 . S
C357 C358 1.439 . S
C357 H389 0.950 . S
C358 N354 1.374 . S
C358 C357 1.439 . S
C358 C383 1.395 . S
N359 Co348 1.995 1_565 S
N359 C360 1.376 . S
N359 C363 1.383 . S
C360 N359 1.376 . S
C360 C361 1.446 . S
C360 C383 1.391 1_565 S
C361 C360 1.446 . S
C361 C362 1.339 . S
C361 H390 0.949 . S
C362 C361 1.339 . S
C362 C363 1.439 . S
C362 H391 0.950 . S
C363 N359 1.383 . S
C363 C362 1.439 . S
C363 C381 1.392 . S
N364 Co348 2.282 . S
N364 C367 1.332 . S
N364 C369 1.332 . S
C365 C366 1.386 . S
C365 C368 1.388 . S
C366 C365 1.386 . S
C366 C367 1.382 . S
C366 H392 0.950 . S
C367 N364 1.332 . S
C367 C366 1.382 . S
C367 H378 0.952 . S
C368 C365 1.388 . S
C368 C369 1.382 . S
C368 H393 0.950 . S
C369 N364 1.332 . S
C369 C368 1.382 . S
C369 H379 0.948 . S
N370 Co348 2.282 1_565 S
N370 C374 1.332 . S
N370 C375 1.332 . S
C371 C372 1.388 . S
C371 C375 1.382 . S
C371 H394 0.950 . S
C372 C371 1.388 . S
C372 C373 1.386 . S
C373 C372 1.386 . S
C373 C374 1.382 . S
C373 H395 0.950 . S
C374 N370 1.332 . S
C374 C373 1.382 . S
C374 H376 0.952 . S
C375 N370 1.332 . S
C375 C371 1.382 . S
C375 H377 0.948 . S
H376 C374 0.952 . S
H377 C375 0.948 . S
H378 C367 0.952 . S
H379 C369 0.948 . S
C380 C346 1.395 1_545 S
C380 C350 1.391 . S
C381 C343 1.389 . S
C381 C363 1.392 . S
C382 C353 1.392 . S
C382 C355 1.389 . S
C383 C358 1.395 . S
C383 C360 1.391 1_545 S
H384 C344 0.951 . S
H385 C345 0.950 . S
H386 C351 0.949 . S
H387 C352 0.950 . S
H388 C356 0.951 . S
H389 C357 0.950 . S
H390 C361 0.949 . S
H391 C362 0.950 . S
H392 C366 0.950 . S
H393 C368 0.950 . S
H394 C371 0.950 . S
H395 C373 0.950 . S
C396 C397 1.443 . S
C396 N400 1.376 . S
C396 C434 1.389 . S
C397 C396 1.443 . S
C397 C398 1.340 . S
C397 H437 0.951 . S
C398 C397 1.340 . S
C398 C399 1.439 . S
C398 H438 0.950 . S
C399 C398 1.439 . S
C399 N400 1.374 . S
C399 C433 1.395 1_554 S
N400 C396 1.376 . S
N400 C399 1.374 . S
N400 Co401 2.008 . S
Co401 N400 2.008 . S
Co401 N402 1.995 1_554 S
Co401 N407 2.008 1_554 S
Co401 N412 1.995 . S
Co401 N417 2.282 . S
Co401 N423 2.282 1_554 S
N402 Co401 1.995 1_556 S
N402 C403 1.376 . S
N402 C406 1.383 . S
C403 N402 1.376 . S
C403 C404 1.446 . S
C403 C433 1.391 . S
C404 C403 1.446 . S
C404 C405 1.339 . S
C404 H439 0.949 . S
C405 C404 1.339 . S
C405 C406 1.439 . S
C405 H440 0.950 . S
C406 N402 1.383 . S
C406 C405 1.439 . S
C406 C435 1.392 . S
N407 Co401 2.008 1_556 S
N407 C408 1.376 . S
N407 C411 1.374 . S
C408 N407 1.376 . S
C408 C409 1.443 . S
C408 C435 1.389 . S
C409 C408 1.443 . S
C409 C410 1.340 . S
C409 H441 0.951 . S
C410 C409 1.340 . S
C410 C411 1.439 . S
C410 H442 0.950 . S
C411 N407 1.374 . S
C411 C410 1.439 . S
C411 C436 1.395 1_556 S
N412 Co401 1.995 . S
N412 C413 1.376 . S
N412 C416 1.383 . S
C413 N412 1.376 . S
C413 C414 1.446 . S
C413 C436 1.391 . S
C414 C413 1.446 . S
C414 C415 1.339 . S
C414 H443 0.949 . S
C415 C414 1.339 . S
C415 C416 1.439 . S
C415 H444 0.950 . S
C416 N412 1.383 . S
C416 C415 1.439 . S
C416 C434 1.392 . S
N417 Co401 2.282 . S
N417 C420 1.332 . S
N417 C422 1.332 . S
C418 C419 1.386 . S
C418 C421 1.388 . S
C419 C418 1.386 . S
C419 C420 1.382 . S
C419 H445 0.950 . S
C420 N417 1.332 . S
C420 C419 1.382 . S
C420 H431 0.952 . S
C421 C418 1.388 . S
C421 C422 1.382 . S
C421 H446 0.950 . S
C422 N417 1.332 . S
C422 C421 1.382 . S
C422 H432 0.948 . S
N423 Co401 2.282 1_556 S
N423 C427 1.332 . S
N423 C428 1.332 . S
C424 C425 1.388 . S
C424 C428 1.382 . S
C424 H447 0.950 . S
C425 C424 1.388 . S
C425 C426 1.386 . S
C426 C425 1.386 . S
C426 C427 1.382 . S
C426 H448 0.950 . S
C427 N423 1.332 . S
C427 C426 1.382 . S
C427 H429 0.952 . S
C428 N423 1.332 . S
C428 C424 1.382 . S
C428 H430 0.948 . S
H429 C427 0.952 . S
H430 C428 0.948 . S
H431 C420 0.952 . S
H432 C422 0.948 . S
C433 C399 1.395 1_556 S
C433 C403 1.391 . S
C434 C396 1.389 . S
C434 C416 1.392 . S
C435 C406 1.392 . S
C435 C408 1.389 . S
C436 C411 1.395 1_554 S
C436 C413 1.391 . S
H437 C397 0.951 . S
H438 C398 0.950 . S
H439 C404 0.949 . S
H440 C405 0.950 . S
H441 C409 0.951 . S
H442 C410 0.950 . S
H443 C414 0.949 . S
H444 C415 0.950 . S
H445 C419 0.950 . S
H446 C421 0.950 . S
H447 C424 0.950 . S
H448 C426 0.950 . S
C449 C450 1.443 . S
C449 N453 1.376 . S
C449 C487 1.389 . S
C450 C449 1.443 . S
C450 C451 1.340 . S
C450 H490 0.951 . S
C451 C450 1.340 . S
C451 C452 1.439 . S
C451 H491 0.950 . S
C452 C451 1.439 . S
C452 N453 1.374 . S
C452 C486 1.395 . S
N453 C449 1.376 . S
N453 C452 1.374 . S
N453 Co454 2.008 . S
Co454 N453 2.008 . S
Co454 N455 1.995 1_554 S
Co454 N460 2.008 1_554 S
Co454 N465 1.995 . S
Co454 N470 2.282 . S
Co454 N476 2.282 1_554 S
N455 Co454 1.995 1_556 S
N455 C456 1.376 . S
N455 C459 1.383 . S
C456 N455 1.376 . S
C456 C457 1.446 . S
C456 C486 1.391 1_556 S
C457 C456 1.446 . S
C457 C458 1.339 . S
C457 H492 0.949 . S
C458 C457 1.339 . S
C458 C459 1.439 . S
C458 H493 0.950 . S
C459 N455 1.383 . S
C459 C458 1.439 . S
C459 C488 1.392 . S
N460 Co454 2.008 1_556 S
N460 C461 1.376 . S
N460 C464 1.374 1_556 S
C461 N460 1.376 . S
C461 C462 1.443 . S
C461 C488 1.389 . S
C462 C461 1.443 . S
C462 C463 1.340 . S
C462 H494 0.951 . S
C463 C462 1.340 . S
C463 C464 1.439 1_556 S
C463 H495 0.950 . S
C464 N460 1.374 1_554 S
C464 C463 1.439 1_554 S
C464 C489 1.395 . S
N465 Co454 1.995 . S
N465 C466 1.376 . S
N465 C469 1.383 . S
C466 N465 1.376 . S
C466 C467 1.446 . S
C466 C489 1.391 . S
C467 C466 1.446 . S
C467 C468 1.339 . S
C467 H496 0.949 . S
C468 C467 1.339 . S
C468 C469 1.439 . S
C468 H497 0.950 . S
C469 N465 1.383 . S
C469 C468 1.439 . S
C469 C487 1.392 . S
N470 Co454 2.282 . S
N470 C473 1.332 . S
N470 C475 1.332 . S
C471 C472 1.386 . S
C471 C474 1.388 . S
C472 C471 1.386 . S
C472 C473 1.382 . S
C472 H498 0.950 . S
C473 N470 1.332 . S
C473 C472 1.382 . S
C473 H484 0.952 . S
C474 C471 1.388 . S
C474 C475 1.382 . S
C474 H499 0.950 . S
C475 N470 1.332 . S
C475 C474 1.382 . S
C475 H485 0.948 . S
N476 Co454 2.282 1_556 S
N476 C480 1.332 . S
N476 C481 1.332 . S
C477 C478 1.388 . S
C477 C481 1.382 . S
C477 H500 0.950 . S
C478 C477 1.388 . S
C478 C479 1.386 . S
C479 C478 1.386 . S
C479 C480 1.382 . S
C479 H501 0.950 . S
C480 N476 1.332 . S
C480 C479 1.382 . S
C480 H482 0.952 . S
C481 N476 1.332 . S
C481 C477 1.382 . S
C481 H483 0.948 . S
H482 C480 0.952 . S
H483 C481 0.948 . S
H484 C473 0.952 . S
H485 C475 0.948 . S
C486 C452 1.395 . S
C486 C456 1.391 1_554 S
C487 C449 1.389 . S
C487 C469 1.392 . S
C488 C459 1.392 . S
C488 C461 1.389 . S
C489 C464 1.395 . S
C489 C466 1.391 . S
H490 C450 0.951 . S
H491 C451 0.950 . S
H492 C457 0.949 . S
H493 C458 0.950 . S
H494 C462 0.951 . S
H495 C463 0.950 . S
H496 C467 0.949 . S
H497 C468 0.950 . S
H498 C472 0.950 . S
H499 C474 0.950 . S
H500 C477 0.950 . S
H501 C479 0.950 . S
C502 C503 1.443 . S
C502 N506 1.376 1_556 S
C502 C540 1.389 . S
C503 C502 1.443 . S
C503 C504 1.340 1_556 S
C503 H543 0.951 . S
C504 C503 1.340 1_554 S
C504 C505 1.439 . S
C504 H544 0.950 . S
C505 C504 1.439 . S
C505 N506 1.374 . S
C505 C539 1.395 . S
N506 C502 1.376 1_554 S
N506 C505 1.374 . S
N506 Co507 2.008 . S
Co507 N506 2.008 . S
Co507 N508 1.995 . S
Co507 N513 2.008 . S
Co507 N518 1.995 . S
Co507 N523 2.282 1_554 S
Co507 N529 2.282 . S
N508 Co507 1.995 . S
N508 C509 1.376 . S
N508 C512 1.383 . S
C509 N508 1.376 . S
C509 C510 1.446 . S
C509 C539 1.391 . S
C510 C509 1.446 . S
C510 C511 1.339 . S
C510 H545 0.949 . S
C511 C510 1.339 . S
C511 C512 1.439 . S
C511 H546 0.950 . S
C512 N508 1.383 . S
C512 C511 1.439 . S
C512 C541 1.392 . S
N513 Co507 2.008 . S
N513 C514 1.376 . S
N513 C517 1.374 . S
C514 N513 1.376 . S
C514 C515 1.443 . S
C514 C541 1.389 . S
C515 C514 1.443 . S
C515 C516 1.340 . S
C515 H547 0.951 . S
C516 C515 1.340 . S
C516 C517 1.439 . S
C516 H548 0.950 . S
C517 N513 1.374 . S
C517 C516 1.439 . S
C517 C542 1.395 . S
N518 Co507 1.995 . S
N518 C519 1.376 . S
N518 C522 1.383 1_554 S
C519 N518 1.376 . S
C519 C520 1.446 1_554 S
C519 C542 1.391 . S
C520 C519 1.446 1_556 S
C520 C521 1.339 . S
C520 H549 0.949 . S
C521 C520 1.339 . S
C521 C522 1.439 . S
C521 H550 0.950 . S
C522 N518 1.383 1_556 S
C522 C521 1.439 . S
C522 C540 1.392 . S
N523 Co507 2.282 1_556 S
N523 C526 1.332 . S
N523 C528 1.332 . S
C524 C525 1.386 . S
C524 C527 1.388 . S
C525 C524 1.386 . S
C525 C526 1.382 . S
C525 H551 0.950 . S
C526 N523 1.332 . S
C526 C525 1.382 . S
C526 H537 0.952 . S
C527 C524 1.388 . S
C527 C528 1.382 . S
C527 H552 0.950 . S
C528 N523 1.332 . S
C528 C527 1.382 . S
C528 H538 0.948 1_556 S
N529 Co507 2.282 . S
N529 C533 1.332 . S
N529 C534 1.332 . S
C530 C531 1.388 . S
C530 C534 1.382 . S
C530 H553 0.950 . S
C531 C530 1.388 . S
C531 C532 1.386 . S
C532 C531 1.386 . S
C532 C533 1.382 . S
C532 H554 0.950 . S
C533 N529 1.332 . S
C533 C532 1.382 . S
C533 H535 0.952 . S
C534 N529 1.332 . S
C534 C530 1.382 . S
C534 H536 0.948 . S
H535 C533 0.952 . S
H536 C534 0.948 . S
H537 C526 0.952 . S
H538 C528 0.948 1_554 S
C539 C505 1.395 . S
C539 C509 1.391 . S
C540 C502 1.389 . S
C540 C522 1.392 . S
C541 C512 1.392 . S
C541 C514 1.389 . S
C542 C517 1.395 . S
C542 C519 1.391 . S
H543 C503 0.951 . S
H544 C504 0.950 . S
H545 C510 0.949 . S
H546 C511 0.950 . S
H547 C515 0.951 . S
H548 C516 0.950 . S
H549 C520 0.949 . S
H550 C521 0.950 . S
H551 C525 0.950 . S
H552 C527 0.950 . S
H553 C530 0.950 . S
H554 C532 0.950 . S
C555 C556 1.443 . S
C555 N559 1.376 . S
C555 C593 1.389 . S
C556 C555 1.443 . S
C556 C557 1.340 . S
C556 H596 0.951 . S
C557 C556 1.340 . S
C557 C558 1.439 . S
C557 H597 0.950 . S
C558 C557 1.439 . S
C558 N559 1.374 . S
C558 C592 1.404 . S
N559 C555 1.376 . S
N559 C558 1.374 . S
N559 Co560 2.008 . S
Co560 N559 2.008 . S
Co560 N561 1.995 1_554 S
Co560 N566 2.008 1_554 S
Co560 N571 1.995 . S
Co560 N576 2.282 . S
Co560 N582 2.282 1_554 S
N561 Co560 1.995 1_556 S
N561 C562 1.376 . S
N561 C565 1.383 . S
C562 N561 1.376 . S
C562 C563 1.446 . S
C562 C592 1.384 1_556 S
C563 C562 1.446 . S
C563 C564 1.339 . S
C563 H598 0.949 . S
C564 C563 1.339 . S
C564 C565 1.439 . S
C564 H599 0.950 . S
C565 N561 1.383 . S
C565 C564 1.439 . S
C565 C594 1.392 . S
N566 Co560 2.008 1_556 S
N566 C567 1.376 . S
N566 C570 1.374 1_556 S
C567 N566 1.376 . S
C567 C568 1.443 . S
C567 C594 1.389 . S
C568 C567 1.443 . S
C568 C569 1.340 . S
C568 H600 0.951 . S
C569 C568 1.340 . S
C569 C570 1.439 1_556 S
C569 H601 0.950 . S
C570 N566 1.374 1_554 S
C570 C569 1.439 1_554 S
C570 C595 1.395 . S
N571 Co560 1.995 . S
N571 C572 1.376 . S
N571 C575 1.383 . S
C572 N571 1.376 . S
C572 C573 1.446 . S
C572 C595 1.391 . S
C573 C572 1.446 . S
C573 C574 1.339 . S
C573 H602 0.949 . S
C574 C573 1.339 . S
C574 C575 1.439 . S
C574 H603 0.950 . S
C575 N571 1.383 . S
C575 C574 1.439 . S
C575 C593 1.392 . S
N576 Co560 2.282 . S
N576 C579 1.332 . S
N576 C581 1.332 . S
C577 C578 1.386 . S
C577 C580 1.388 . S
C578 C577 1.386 . S
C578 C579 1.382 . S
C578 H604 0.950 . S
C579 N576 1.332 . S
C579 C578 1.382 . S
C579 H590 0.952 . S
C580 C577 1.388 . S
C580 C581 1.382 . S
C580 H605 0.950 . S
C581 N576 1.332 . S
C581 C580 1.382 . S
C581 H591 0.948 . S
N582 Co560 2.282 1_556 S
N582 C586 1.332 . S
N582 C587 1.332 . S
C583 C584 1.388 . S
C583 C587 1.382 . S
C583 H606 0.950 . S
C584 C583 1.388 . S
C584 C585 1.386 . S
C585 C584 1.386 . S
C585 C586 1.382 . S
C585 H607 0.950 . S
C586 N582 1.332 . S
C586 C585 1.382 . S
C586 H588 0.952 . S
C587 N582 1.332 . S
C587 C583 1.382 . S
C587 H589 0.948 . S
H588 C586 0.952 . S
H589 C587 0.948 . S
H590 C579 0.952 . S
H591 C581 0.948 . S
C592 C558 1.404 . S
C592 C562 1.384 1_554 S
C593 C555 1.389 . S
C593 C575 1.392 . S
C594 C565 1.392 . S
C594 C567 1.389 . S
C595 C570 1.395 . S
C595 C572 1.391 . S
H596 C556 0.951 . S
H597 C557 0.950 . S
H598 C563 0.949 . S
H599 C564 0.950 . S
H600 C568 0.951 . S
H601 C569 0.950 . S
H602 C573 0.949 . S
H603 C574 0.950 . S
H604 C578 0.950 . S
H605 C580 0.950 . S
H606 C583 0.950 . S
H607 C585 0.950 . S
H608 C616 0.929 . S
H609 C618 0.930 . S
H610 C620 0.930 . S
H611 C623 0.929 . S
H612 C626 0.930 . S
H613 C628 0.960 . S
H614 C628 0.960 . S
H615 C628 0.960 . S
C616 H608 0.929 . S
C616 C617 1.377 . S
C616 C618 1.384 . S
C617 C616 1.377 . S
C617 C623 1.390 . S
C618 H609 0.930 . S
C618 C616 1.384 . S
C618 C619 1.372 . S
C619 C618 1.372 . S
C619 C620 1.400 . S
C619 C624 1.490 . S
C620 H610 0.930 . S
C620 C619 1.400 . S
C620 C623 1.386 . S
H621 C637 0.930 . S
H622 C638 0.931 . S
C623 H611 0.929 . S
C623 C617 1.390 . S
C623 C620 1.386 . S
C624 C619 1.490 . S
C624 C626 1.395 . S
C624 C627 1.403 . S
H625 C631 0.930 . S
C626 H612 0.930 . S
C626 C624 1.395 . S
C626 C629 1.403 . S
C627 C624 1.403 . S
C627 C628 1.524 . S
C627 C631 1.400 . S
C628 H613 0.960 . S
C628 H614 0.960 . S
C628 H615 0.960 . S
C628 C627 1.524 . S
C629 C626 1.403 . S
C629 C630 1.392 . S
C629 C633 1.495 . S
C630 C629 1.392 . S
C630 C631 1.385 . S
C630 C632 1.478 . S
C631 H625 0.930 . S
C631 C627 1.400 . S
C631 C630 1.385 . S
C632 C630 1.478 . S
C632 C634 1.381 . S
C632 C638 1.383 . S
C633 C629 1.495 . S
C633 H639 0.959 . S
C633 H640 0.961 . S
C633 H641 0.960 . S
C634 C632 1.381 . S
C634 C635 1.394 . S
C634 H642 0.930 . S
C635 C634 1.394 . S
C635 C636 1.383 . S
C635 H643 0.929 . S
C636 C635 1.383 . S
C636 C637 1.377 . S
C637 H621 0.930 . S
C637 C636 1.377 . S
C637 C638 1.379 . S
C638 H622 0.931 . S
C638 C632 1.383 . S
C638 C637 1.379 . S
H639 C633 0.959 . S
H640 C633 0.961 . S
H641 C633 0.960 . S
H642 C634 0.930 . S
H643 C635 0.929 . S
H644 C652 0.929 . S
H645 C654 0.930 . S
H646 C656 0.930 . S
H647 C659 0.929 . S
H648 C662 0.930 . S
H649 C664 0.960 . S
H650 C664 0.960 . S
H651 C664 0.960 . S
C652 H644 0.929 . S
C652 C653 1.377 . S
C652 C654 1.384 . S
C653 C652 1.377 . S
C653 C659 1.390 . S
C654 H645 0.930 . S
C654 C652 1.384 . S
C654 C655 1.372 . S
C655 C654 1.372 . S
C655 C656 1.400 . S
C655 C660 1.490 . S
C656 H646 0.930 . S
C656 C655 1.400 . S
C656 C659 1.386 . S
H657 C673 0.930 . S
H658 C674 0.931 . S
C659 H647 0.929 . S
C659 C653 1.390 . S
C659 C656 1.386 . S
C660 C655 1.490 . S
C660 C662 1.395 . S
C660 C663 1.403 . S
H661 C667 0.930 . S
C662 H648 0.930 . S
C662 C660 1.395 . S
C662 C665 1.403 . S
C663 C660 1.403 . S
C663 C664 1.524 . S
C663 C667 1.400 . S
C664 H649 0.960 . S
C664 H650 0.960 . S
C664 H651 0.960 . S
C664 C663 1.524 . S
C665 C662 1.403 . S
C665 C666 1.392 . S
C665 C669 1.495 . S
C666 C665 1.392 . S
C666 C667 1.385 . S
C666 C668 1.478 . S
C667 H661 0.930 . S
C667 C663 1.400 . S
C667 C666 1.385 . S
C668 C666 1.478 . S
C668 C670 1.381 . S
C668 C674 1.383 . S
C669 C665 1.495 . S
C669 H675 0.959 . S
C669 H676 0.961 . S
C669 H677 0.960 . S
C670 C668 1.381 . S
C670 C671 1.394 . S
C670 H678 0.930 . S
C671 C670 1.394 . S
C671 C672 1.383 . S
C671 H679 0.929 . S
C672 C671 1.383 . S
C672 C673 1.377 . S
C673 H657 0.930 . S
C673 C672 1.377 . S
C673 C674 1.379 . S
C674 H658 0.931 . S
C674 C668 1.383 . S
C674 C673 1.379 . S
H675 C669 0.959 . S
H676 C669 0.961 . S
H677 C669 0.960 . S
H678 C670 0.930 . S
H679 C671 0.929 . S
H680 C688 0.929 . S
H681 C690 0.930 . S
H682 C692 0.930 . S
H683 C695 0.929 . S
H684 C698 0.930 . S
H685 C700 0.960 . S
H686 C700 0.960 . S
H687 C700 0.960 . S
C688 H680 0.929 . S
C688 C689 1.377 . S
C688 C690 1.384 . S
C689 C688 1.377 . S
C689 C695 1.390 . S
C690 H681 0.930 . S
C690 C688 1.384 . S
C690 C691 1.372 . S
C691 C690 1.372 . S
C691 C692 1.400 . S
C691 C696 1.490 . S
C692 H682 0.930 . S
C692 C691 1.400 . S
C692 C695 1.386 . S
H693 C709 0.930 . S
H694 C710 0.931 . S
C695 H683 0.929 . S
C695 C689 1.390 . S
C695 C692 1.386 . S
C696 C691 1.490 . S
C696 C698 1.395 . S
C696 C699 1.403 . S
H697 C703 0.930 . S
C698 H684 0.930 . S
C698 C696 1.395 . S
C698 C701 1.403 . S
C699 C696 1.403 . S
C699 C700 1.524 . S
C699 C703 1.400 . S
C700 H685 0.960 . S
C700 H686 0.960 . S
C700 H687 0.960 . S
C700 C699 1.524 . S
C701 C698 1.403 . S
C701 C702 1.392 . S
C701 C705 1.495 . S
C702 C701 1.392 . S
C702 C703 1.385 . S
C702 C704 1.478 . S
C703 H697 0.930 . S
C703 C699 1.400 . S
C703 C702 1.385 . S
C704 C702 1.478 . S
C704 C706 1.381 . S
C704 C710 1.383 . S
C705 C701 1.495 . S
C705 H711 0.959 . S
C705 H712 0.961 . S
C705 H713 0.960 . S
C706 C704 1.381 . S
C706 C707 1.394 . S
C706 H714 0.930 . S
C707 C706 1.394 . S
C707 C708 1.383 . S
C707 H715 0.929 . S
C708 C707 1.383 . S
C708 C709 1.377 . S
C709 H693 0.930 . S
C709 C708 1.377 . S
C709 C710 1.379 . S
C710 H694 0.931 . S
C710 C704 1.383 . S
C710 C709 1.379 . S
H711 C705 0.959 . S
H712 C705 0.961 . S
H713 C705 0.960 . S
H714 C706 0.930 . S
H715 C707 0.929 . S
H716 C724 0.929 . S
H717 C726 0.930 . S
H718 C728 0.930 . S
H719 C731 0.929 . S
H720 C734 0.930 . S
H721 C736 0.960 . S
H722 C736 0.960 . S
H723 C736 0.960 . S
C724 H716 0.929 . S
C724 C725 1.377 . S
C724 C726 1.384 . S
C725 C724 1.377 . S
C725 C731 1.390 . S
C726 H717 0.930 . S
C726 C724 1.384 . S
C726 C727 1.372 . S
C727 C726 1.372 . S
C727 C728 1.400 . S
C727 C732 1.490 . S
C728 H718 0.930 . S
C728 C727 1.400 . S
C728 C731 1.386 . S
H729 C745 0.930 . S
H730 C746 0.931 . S
C731 H719 0.929 . S
C731 C725 1.390 . S
C731 C728 1.386 . S
C732 C727 1.490 . S
C732 C734 1.395 . S
C732 C735 1.403 . S
H733 C739 0.930 . S
C734 H720 0.930 . S
C734 C732 1.395 . S
C734 C737 1.403 . S
C735 C732 1.403 . S
C735 C736 1.524 . S
C735 C739 1.400 . S
C736 H721 0.960 . S
C736 H722 0.960 . S
C736 H723 0.960 . S
C736 C735 1.524 . S
C737 C734 1.403 . S
C737 C738 1.392 . S
C737 C741 1.495 . S
C738 C737 1.392 . S
C738 C739 1.385 . S
C738 C740 1.478 . S
C739 H733 0.930 . S
C739 C735 1.400 . S
C739 C738 1.385 . S
C740 C738 1.478 . S
C740 C742 1.381 . S
C740 C746 1.383 . S
C741 C737 1.495 . S
C741 H747 0.959 . S
C741 H748 0.961 . S
C741 H749 0.960 . S
C742 C740 1.381 . S
C742 C743 1.394 . S
C742 H750 0.930 . S
C743 C742 1.394 . S
C743 C744 1.383 . S
C743 H751 0.929 . S
C744 C743 1.383 . S
C744 C745 1.377 . S
C745 H729 0.930 . S
C745 C744 1.377 . S
C745 C746 1.379 . S
C746 H730 0.931 . S
C746 C740 1.383 . S
C746 C745 1.379 . S
H747 C741 0.959 . S
H748 C741 0.961 . S
H749 C741 0.960 . S
H750 C742 0.930 . S
H751 C743 0.929 . S
H752 C760 0.929 . S
H753 C762 0.930 . S
H754 C764 0.930 . S
H755 C767 0.929 . S
H756 C770 0.930 . S
H757 C772 0.960 . S
H758 C772 0.960 . S
H759 C772 0.960 . S
C760 H752 0.929 . S
C760 C761 1.377 . S
C760 C762 1.384 . S
C761 C760 1.377 . S
C761 C767 1.390 . S
C762 H753 0.930 . S
C762 C760 1.384 . S
C762 C763 1.372 . S
C763 C762 1.372 . S
C763 C764 1.400 . S
C763 C768 1.490 . S
C764 H754 0.930 . S
C764 C763 1.400 . S
C764 C767 1.386 . S
H765 C781 0.930 . S
H766 C782 0.931 . S
C767 H755 0.929 . S
C767 C761 1.390 . S
C767 C764 1.386 . S
C768 C763 1.490 . S
C768 C770 1.395 . S
C768 C771 1.403 . S
H769 C775 0.930 . S
C770 H756 0.930 . S
C770 C768 1.395 . S
C770 C773 1.403 . S
C771 C768 1.403 . S
C771 C772 1.524 . S
C771 C775 1.400 . S
C772 H757 0.960 . S
C772 H758 0.960 . S
C772 H759 0.960 . S
C772 C771 1.524 . S
C773 C770 1.403 . S
C773 C774 1.392 . S
C773 C777 1.495 . S
C774 C773 1.392 . S
C774 C775 1.385 . S
C774 C776 1.478 . S
C775 H769 0.930 . S
C775 C771 1.400 . S
C775 C774 1.385 . S
C776 C774 1.478 . S
C776 C778 1.381 . S
C776 C782 1.383 . S
C777 C773 1.495 . S
C777 H783 0.959 . S
C777 H784 0.961 . S
C777 H785 0.960 . S
C778 C776 1.381 . S
C778 C779 1.394 . S
C778 H786 0.930 . S
C779 C778 1.394 . S
C779 C780 1.383 . S
C779 H787 0.929 . S
C780 C779 1.383 . S
C780 C781 1.377 . S
C781 H765 0.930 . S
C781 C780 1.377 . S
C781 C782 1.379 . S
C782 H766 0.931 . S
C782 C776 1.383 . S
C782 C781 1.379 . S
H783 C777 0.959 . S
H784 C777 0.961 . S
H785 C777 0.960 . S
H786 C778 0.930 . S
H787 C779 0.929 . S
H788 C796 0.929 . S
H789 C798 0.930 . S
H790 C800 0.930 . S
H791 C803 0.929 . S
H792 C806 0.930 . S
H793 C808 0.960 . S
H794 C808 0.960 . S
H795 C808 0.960 . S
C796 H788 0.929 . S
C796 C797 1.377 . S
C796 C798 1.384 . S
C797 C796 1.377 . S
C797 C803 1.390 . S
C798 H789 0.930 . S
C798 C796 1.384 . S
C798 C799 1.372 . S
C799 C798 1.372 . S
C799 C800 1.400 . S
C799 C804 1.490 . S
C800 H790 0.930 . S
C800 C799 1.400 . S
C800 C803 1.386 . S
H801 C817 0.930 . S
H802 C818 0.931 . S
C803 H791 0.929 . S
C803 C797 1.390 . S
C803 C800 1.386 . S
C804 C799 1.490 . S
C804 C806 1.395 . S
C804 C807 1.403 . S
H805 C811 0.930 . S
C806 H792 0.930 . S
C806 C804 1.395 . S
C806 C809 1.403 . S
C807 C804 1.403 . S
C807 C808 1.524 . S
C807 C811 1.400 . S
C808 H793 0.960 . S
C808 H794 0.960 . S
C808 H795 0.960 . S
C808 C807 1.524 . S
C809 C806 1.403 . S
C809 C810 1.392 . S
C809 C813 1.495 . S
C810 C809 1.392 . S
C810 C811 1.385 . S
C810 C812 1.478 . S
C811 H805 0.930 . S
C811 C807 1.400 . S
C811 C810 1.385 . S
C812 C810 1.478 . S
C812 C814 1.381 . S
C812 C818 1.383 . S
C813 C809 1.495 . S
C813 H819 0.959 . S
C813 H820 0.961 . S
C813 H821 0.960 . S
C814 C812 1.381 . S
C814 C815 1.394 . S
C814 H822 0.930 . S
C815 C814 1.394 . S
C815 C816 1.383 . S
C815 H823 0.929 . S
C816 C815 1.383 . S
C816 C817 1.377 . S
C817 H801 0.930 . S
C817 C816 1.377 . S
C817 C818 1.379 . S
C818 H802 0.931 . S
C818 C812 1.383 . S
C818 C817 1.379 . S
H819 C813 0.959 . S
H820 C813 0.961 . S
H821 C813 0.960 . S
H822 C814 0.930 . S
H823 C815 0.929 . S
H824 C832 0.929 . S
H825 C834 0.930 . S
H826 C836 0.930 . S
H827 C839 0.929 . S
H828 C842 0.930 . S
H829 C844 0.960 . S
H830 C844 0.960 . S
H831 C844 0.960 . S
C832 H824 0.929 . S
C832 C833 1.377 . S
C832 C834 1.384 . S
C833 C832 1.377 . S
C833 C839 1.390 . S
C834 H825 0.930 . S
C834 C832 1.384 . S
C834 C835 1.372 . S
C835 C834 1.372 . S
C835 C836 1.400 . S
C835 C840 1.490 . S
C836 H826 0.930 . S
C836 C835 1.400 . S
C836 C839 1.386 . S
H837 C853 0.930 . S
H838 C854 0.931 . S
C839 H827 0.929 . S
C839 C833 1.390 . S
C839 C836 1.386 . S
C840 C835 1.490 . S
C840 C842 1.395 . S
C840 C843 1.403 . S
H841 C847 0.930 . S
C842 H828 0.930 . S
C842 C840 1.395 . S
C842 C845 1.403 . S
C843 C840 1.403 . S
C843 C844 1.524 . S
C843 C847 1.400 . S
C844 H829 0.960 . S
C844 H830 0.960 . S
C844 H831 0.960 . S
C844 C843 1.524 . S
C845 C842 1.403 . S
C845 C846 1.392 . S
C845 C849 1.495 . S
C846 C845 1.392 . S
C846 C847 1.385 . S
C846 C848 1.478 . S
C847 H841 0.930 . S
C847 C843 1.400 . S
C847 C846 1.385 . S
C848 C846 1.478 . S
C848 C850 1.381 . S
C848 C854 1.383 . S
C849 C845 1.495 . S
C849 H855 0.959 . S
C849 H856 0.961 . S
C849 H857 0.960 . S
C850 C848 1.381 . S
C850 C851 1.394 . S
C850 H858 0.930 . S
C851 C850 1.394 . S
C851 C852 1.383 . S
C851 H859 0.929 . S
C852 C851 1.383 . S
C852 C853 1.377 . S
C853 H837 0.930 . S
C853 C852 1.377 . S
C853 C854 1.379 . S
C854 H838 0.931 . S
C854 C848 1.383 . S
C854 C853 1.379 . S
H855 C849 0.959 . S
H856 C849 0.961 . S
H857 C849 0.960 . S
H858 C850 0.930 . S
H859 C851 0.929 . S
H860 C868 0.929 . S
H861 C870 0.930 . S
H862 C872 0.930 . S
H863 C875 0.929 . S
H864 C878 0.930 . S
H865 C880 0.960 . S
H866 C880 0.960 . S
H867 C880 0.960 . S
C868 H860 0.929 . S
C868 C869 1.377 . S
C868 C870 1.384 . S
C869 C868 1.377 . S
C869 C875 1.390 . S
C870 H861 0.930 . S
C870 C868 1.384 . S
C870 C871 1.372 . S
C871 C870 1.372 . S
C871 C872 1.400 . S
C871 C876 1.490 . S
C872 H862 0.930 . S
C872 C871 1.400 . S
C872 C875 1.386 . S
H873 C889 0.930 . S
H874 C890 0.931 . S
C875 H863 0.929 . S
C875 C869 1.390 . S
C875 C872 1.386 . S
C876 C871 1.490 . S
C876 C878 1.395 . S
C876 C879 1.403 . S
H877 C883 0.930 . S
C878 H864 0.930 . S
C878 C876 1.395 . S
C878 C881 1.403 . S
C879 C876 1.403 . S
C879 C880 1.524 . S
C879 C883 1.400 . S
C880 H865 0.960 . S
C880 H866 0.960 . S
C880 H867 0.960 . S
C880 C879 1.524 . S
C881 C878 1.403 . S
C881 C882 1.392 . S
C881 C885 1.495 . S
C882 C881 1.392 . S
C882 C883 1.385 . S
C882 C884 1.478 . S
C883 H877 0.930 . S
C883 C879 1.400 . S
C883 C882 1.385 . S
C884 C882 1.478 . S
C884 C886 1.381 . S
C884 C890 1.383 . S
C885 C881 1.495 . S
C885 H891 0.959 . S
C885 H892 0.961 . S
C885 H893 0.960 . S
C886 C884 1.381 . S
C886 C887 1.394 . S
C886 H894 0.930 . S
C887 C886 1.394 . S
C887 C888 1.383 . S
C887 H895 0.929 . S
C888 C887 1.383 . S
C888 C889 1.377 . S
C889 H873 0.930 . S
C889 C888 1.377 . S
C889 C890 1.379 . S
C890 H874 0.931 . S
C890 C884 1.383 . S
C890 C889 1.379 . S
H891 C885 0.959 . S
H892 C885 0.961 . S
H893 C885 0.960 . S
H894 C886 0.930 . S
H895 C887 0.929 . S
H896 C904 0.929 . S
H897 C906 0.930 . S
H898 C908 0.930 . S
H899 C911 0.929 . S
H900 C914 0.930 . S
H901 C916 0.960 . S
H902 C916 0.960 . S
H903 C916 0.960 . S
C904 H896 0.929 . S
C904 C905 1.377 . S
C904 C906 1.384 . S
C905 C904 1.377 . S
C905 C911 1.390 . S
C906 H897 0.930 . S
C906 C904 1.384 . S
C906 C907 1.372 . S
C907 C906 1.372 . S
C907 C908 1.400 . S
C907 C912 1.490 . S
C908 H898 0.930 . S
C908 C907 1.400 . S
C908 C911 1.386 . S
H909 C925 0.930 . S
H910 C926 0.931 . S
C911 H899 0.929 . S
C911 C905 1.390 . S
C911 C908 1.386 . S
C912 C907 1.490 . S
C912 C914 1.395 . S
C912 C915 1.403 . S
H913 C919 0.930 . S
C914 H900 0.930 . S
C914 C912 1.395 . S
C914 C917 1.403 . S
C915 C912 1.403 . S
C915 C916 1.524 . S
C915 C919 1.400 . S
C916 H901 0.960 . S
C916 H902 0.960 . S
C916 H903 0.960 . S
C916 C915 1.524 . S
C917 C914 1.403 . S
C917 C918 1.392 . S
C917 C921 1.495 . S
C918 C917 1.392 . S
C918 C919 1.385 . S
C918 C920 1.478 . S
C919 H913 0.930 . S
C919 C915 1.400 . S
C919 C918 1.385 . S
C920 C918 1.478 . S
C920 C922 1.381 . S
C920 C926 1.383 . S
C921 C917 1.495 . S
C921 H927 0.959 . S
C921 H928 0.961 . S
C921 H929 0.960 . S
C922 C920 1.381 . S
C922 C923 1.394 . S
C922 H930 0.930 . S
C923 C922 1.394 . S
C923 C924 1.383 . S
C923 H931 0.929 . S
C924 C923 1.383 . S
C924 C925 1.377 . S
C925 H909 0.930 . S
C925 C924 1.377 . S
C925 C926 1.379 . S
C926 H910 0.931 . S
C926 C920 1.383 . S
C926 C925 1.379 . S
H927 C921 0.959 . S
H928 C921 0.961 . S
H929 C921 0.960 . S
H930 C922 0.930 . S
H931 C923 0.929 . S
H932 C940 0.929 . S
H933 C942 0.930 . S
H934 C944 0.930 . S
H935 C947 0.929 . S
H936 C950 0.930 . S
H937 C952 0.960 . S
H938 C952 0.960 . S
H939 C952 0.960 . S
C940 H932 0.929 . S
C940 C941 1.377 . S
C940 C942 1.384 . S
C941 C940 1.377 . S
C941 C947 1.390 . S
C942 H933 0.930 . S
C942 C940 1.384 . S
C942 C943 1.372 . S
C943 C942 1.372 . S
C943 C944 1.400 . S
C943 C948 1.490 . S
C944 H934 0.930 . S
C944 C943 1.400 . S
C944 C947 1.386 . S
H945 C961 0.930 . S
H946 C962 0.931 . S
C947 H935 0.929 . S
C947 C941 1.390 . S
C947 C944 1.386 . S
C948 C943 1.490 . S
C948 C950 1.395 . S
C948 C951 1.403 . S
H949 C955 0.930 . S
C950 H936 0.930 . S
C950 C948 1.395 . S
C950 C953 1.403 . S
C951 C948 1.403 . S
C951 C952 1.524 . S
C951 C955 1.400 . S
C952 H937 0.960 . S
C952 H938 0.960 . S
C952 H939 0.960 . S
C952 C951 1.524 . S
C953 C950 1.403 . S
C953 C954 1.392 . S
C953 C957 1.495 . S
C954 C953 1.392 . S
C954 C955 1.385 . S
C954 C956 1.478 . S
C955 H949 0.930 . S
C955 C951 1.400 . S
C955 C954 1.385 . S
C956 C954 1.478 . S
C956 C958 1.381 . S
C956 C962 1.383 . S
C957 C953 1.495 . S
C957 H963 0.959 . S
C957 H964 0.961 . S
C957 H965 0.960 . S
C958 C956 1.381 . S
C958 C959 1.394 . S
C958 H966 0.930 . S
C959 C958 1.394 . S
C959 C960 1.383 . S
C959 H967 0.929 . S
C960 C959 1.383 . S
C960 C961 1.377 . S
C961 H945 0.930 . S
C961 C960 1.377 . S
C961 C962 1.379 . S
C962 H946 0.931 . S
C962 C956 1.383 . S
C962 C961 1.379 . S
H963 C957 0.959 . S
H964 C957 0.961 . S
H965 C957 0.960 . S
H966 C958 0.930 . S
H967 C959 0.929 . S
H968 C976 0.929 . S
H969 C978 0.930 . S
H970 C980 0.930 . S
H971 C983 0.929 . S
H972 C986 0.930 . S
H973 C988 0.960 . S
H974 C988 0.960 . S
H975 C988 0.960 . S
C976 H968 0.929 . S
C976 C977 1.377 . S
C976 C978 1.384 . S
C977 C976 1.377 . S
C977 C983 1.390 . S
C978 H969 0.930 . S
C978 C976 1.384 . S
C978 C979 1.372 . S
C979 C978 1.372 . S
C979 C980 1.400 . S
C979 C984 1.490 . S
C980 H970 0.930 . S
C980 C979 1.400 . S
C980 C983 1.386 . S
H981 C997 0.930 . S
H982 C998 0.931 . S
C983 H971 0.929 . S
C983 C977 1.390 . S
C983 C980 1.386 . S
C984 C979 1.490 . S
C984 C986 1.395 . S
C984 C987 1.403 . S
H985 C991 0.930 . S
C986 H972 0.930 . S
C986 C984 1.395 . S
C986 C989 1.403 . S
C987 C984 1.403 . S
C987 C988 1.524 . S
C987 C991 1.400 . S
C988 H973 0.960 . S
C988 H974 0.960 . S
C988 H975 0.960 . S
C988 C987 1.524 . S
C989 C986 1.403 . S
C989 C990 1.392 . S
C989 C993 1.495 . S
C990 C989 1.392 . S
C990 C991 1.385 . S
C990 C992 1.478 . S
C991 H985 0.930 . S
C991 C987 1.400 . S
C991 C990 1.385 . S
C992 C990 1.478 . S
C992 C994 1.381 . S
C992 C998 1.383 . S
C993 C989 1.495 . S
C993 H999 0.959 . S
C993 H1000 0.961 . S
C993 H1001 0.960 . S
C994 C992 1.381 . S
C994 C995 1.394 . S
C994 H1002 0.930 . S
C995 C994 1.394 . S
C995 C996 1.383 . S
C995 H1003 0.929 . S
C996 C995 1.383 . S
C996 C997 1.377 . S
C997 H981 0.930 . S
C997 C996 1.377 . S
C997 C998 1.379 . S
C998 H982 0.931 . S
C998 C992 1.383 . S
C998 C997 1.379 . S
H999 C993 0.959 . S
H1000 C993 0.961 . S
H1001 C993 0.960 . S
H1002 C994 0.930 . S
H1003 C995 0.929 . S
H1004 C1012 0.929 . S
H1005 C1014 0.930 . S
H1006 C1016 0.930 . S
H1007 C1019 0.929 . S
H1008 C1022 0.930 . S
H1009 C1024 0.960 . S
H1010 C1024 0.960 . S
H1011 C1024 0.960 . S
C1012 H1004 0.929 . S
C1012 C1013 1.377 . S
C1012 C1014 1.384 . S
C1013 C1012 1.377 . S
C1013 C1019 1.390 . S
C1014 H1005 0.930 . S
C1014 C1012 1.384 . S
C1014 C1015 1.372 . S
C1015 C1014 1.372 . S
C1015 C1016 1.400 . S
C1015 C1020 1.490 . S
C1016 H1006 0.930 . S
C1016 C1015 1.400 . S
C1016 C1019 1.386 . S
H1017 C1033 0.930 . S
H1018 C1034 0.931 . S
C1019 H1007 0.929 . S
C1019 C1013 1.390 . S
C1019 C1016 1.386 . S
C1020 C1015 1.490 . S
C1020 C1022 1.395 . S
C1020 C1023 1.403 . S
H1021 C1027 0.930 . S
C1022 H1008 0.930 . S
C1022 C1020 1.395 . S
C1022 C1025 1.403 . S
C1023 C1020 1.403 . S
C1023 C1024 1.524 . S
C1023 C1027 1.400 . S
C1024 H1009 0.960 . S
C1024 H1010 0.960 . S
C1024 H1011 0.960 . S
C1024 C1023 1.524 . S
C1025 C1022 1.403 . S
C1025 C1026 1.392 . S
C1025 C1029 1.495 . S
C1026 C1025 1.392 . S
C1026 C1027 1.385 . S
C1026 C1028 1.478 . S
C1027 H1021 0.930 . S
C1027 C1023 1.400 . S
C1027 C1026 1.385 . S
C1028 C1026 1.478 . S
C1028 C1030 1.381 . S
C1028 C1034 1.383 . S
C1029 C1025 1.495 . S
C1029 H1035 0.959 . S
C1029 H1036 0.961 . S
C1029 H1037 0.960 . S
C1030 C1028 1.381 . S
C1030 C1031 1.394 . S
C1030 H1038 0.930 . S
C1031 C1030 1.394 . S
C1031 C1032 1.383 . S
C1031 H1039 0.929 . S
C1032 C1031 1.383 . S
C1032 C1033 1.377 . S
C1033 H1017 0.930 . S
C1033 C1032 1.377 . S
C1033 C1034 1.379 . S
C1034 H1018 0.931 . S
C1034 C1028 1.383 . S
C1034 C1033 1.379 . S
H1035 C1029 0.959 . S
H1036 C1029 0.961 . S
H1037 C1029 0.960 . S
H1038 C1030 0.930 . S
H1039 C1031 0.929 . S
H1040 C1048 0.929 . S
H1041 C1050 0.930 . S
H1042 C1052 0.930 . S
H1043 C1055 0.929 . S
H1044 C1058 0.930 . S
H1045 C1060 0.960 . S
H1046 C1060 0.960 . S
H1047 C1060 0.960 . S
C1048 H1040 0.929 . S
C1048 C1049 1.377 . S
C1048 C1050 1.384 . S
C1049 C1048 1.377 . S
C1049 C1055 1.390 . S
C1050 H1041 0.930 . S
C1050 C1048 1.384 . S
C1050 C1051 1.372 . S
C1051 C1050 1.372 . S
C1051 C1052 1.400 . S
C1051 C1056 1.490 . S
C1052 H1042 0.930 . S
C1052 C1051 1.400 . S
C1052 C1055 1.386 . S
H1053 C1069 0.930 . S
H1054 C1070 0.931 . S
C1055 H1043 0.929 . S
C1055 C1049 1.390 . S
C1055 C1052 1.386 . S
C1056 C1051 1.490 . S
C1056 C1058 1.395 . S
C1056 C1059 1.403 . S
H1057 C1063 0.930 . S
C1058 H1044 0.930 . S
C1058 C1056 1.395 . S
C1058 C1061 1.403 . S
C1059 C1056 1.403 . S
C1059 C1060 1.524 . S
C1059 C1063 1.400 . S
C1060 H1045 0.960 . S
C1060 H1046 0.960 . S
C1060 H1047 0.960 . S
C1060 C1059 1.524 . S
C1061 C1058 1.403 . S
C1061 C1062 1.392 . S
C1061 C1065 1.495 . S
C1062 C1061 1.392 . S
C1062 C1063 1.385 . S
C1062 C1064 1.478 . S
C1063 H1057 0.930 . S
C1063 C1059 1.400 . S
C1063 C1062 1.385 . S
C1064 C1062 1.478 . S
C1064 C1066 1.381 . S
C1064 C1070 1.383 . S
C1065 C1061 1.495 . S
C1065 H1071 0.959 . S
C1065 H1072 0.961 . S
C1065 H1073 0.960 . S
C1066 C1064 1.381 . S
C1066 C1067 1.394 . S
C1066 H1074 0.930 . S
C1067 C1066 1.394 . S
C1067 C1068 1.383 . S
C1067 H1075 0.929 . S
C1068 C1067 1.383 . S
C1068 C1069 1.377 . S
C1069 H1053 0.930 . S
C1069 C1068 1.377 . S
C1069 C1070 1.379 . S
C1070 H1054 0.931 . S
C1070 C1064 1.383 . S
C1070 C1069 1.379 . S
H1071 C1065 0.959 . S
H1072 C1065 0.961 . S
H1073 C1065 0.960 . S
H1074 C1066 0.930 . S
H1075 C1067 0.929 . S
H1076 C1084 0.929 . S
H1077 C1086 0.930 . S
H1078 C1088 0.930 . S
H1079 C1091 0.929 . S
H1080 C1094 0.930 . S
H1081 C1096 0.960 . S
H1082 C1096 0.960 . S
H1083 C1096 0.960 . S
C1084 H1076 0.929 . S
C1084 C1085 1.377 . S
C1084 C1086 1.384 . S
C1085 C1084 1.377 . S
C1085 C1091 1.390 . S
C1086 H1077 0.930 . S
C1086 C1084 1.384 . S
C1086 C1087 1.372 . S
C1087 C1086 1.372 . S
C1087 C1088 1.400 . S
C1087 C1092 1.490 . S
C1088 H1078 0.930 . S
C1088 C1087 1.400 . S
C1088 C1091 1.386 . S
H1089 C1105 0.930 . S
H1090 C1106 0.931 . S
C1091 H1079 0.929 . S
C1091 C1085 1.390 . S
C1091 C1088 1.386 . S
C1092 C1087 1.490 . S
C1092 C1094 1.395 . S
C1092 C1095 1.403 . S
H1093 C1099 0.930 . S
C1094 H1080 0.930 . S
C1094 C1092 1.395 . S
C1094 C1097 1.403 . S
C1095 C1092 1.403 . S
C1095 C1096 1.524 . S
C1095 C1099 1.400 . S
C1096 H1081 0.960 . S
C1096 H1082 0.960 . S
C1096 H1083 0.960 . S
C1096 C1095 1.524 . S
C1097 C1094 1.403 . S
C1097 C1098 1.392 . S
C1097 C1101 1.495 . S
C1098 C1097 1.392 . S
C1098 C1099 1.385 . S
C1098 C1100 1.478 . S
C1099 H1093 0.930 . S
C1099 C1095 1.400 . S
C1099 C1098 1.385 . S
C1100 C1098 1.478 . S
C1100 C1102 1.381 . S
C1100 C1106 1.383 . S
C1101 C1097 1.495 . S
C1101 H1107 0.959 . S
C1101 H1108 0.961 . S
C1101 H1109 0.960 . S
C1102 C1100 1.381 . S
C1102 C1103 1.394 . S
C1102 H1110 0.930 . S
C1103 C1102 1.394 . S
C1103 C1104 1.383 . S
C1103 H1111 0.929 . S
C1104 C1103 1.383 . S
C1104 C1105 1.377 . S
C1105 H1089 0.930 . S
C1105 C1104 1.377 . S
C1105 C1106 1.379 . S
C1106 H1090 0.931 . S
C1106 C1100 1.383 . S
C1106 C1105 1.379 . S
H1107 C1101 0.959 . S
H1108 C1101 0.961 . S
H1109 C1101 0.960 . S
H1110 C1102 0.930 . S
H1111 C1103 0.929 . S
H1112 C1120 0.929 . S
H1113 C1122 0.930 . S
H1114 C1124 0.930 . S
H1115 C1127 0.929 . S
H1116 C1130 0.930 . S
H1117 C1132 0.960 . S
H1118 C1132 0.960 . S
H1119 C1132 0.960 . S
C1120 H1112 0.929 . S
C1120 C1121 1.377 . S
C1120 C1122 1.384 . S
C1121 C1120 1.377 . S
C1121 C1127 1.390 . S
C1122 H1113 0.930 . S
C1122 C1120 1.384 . S
C1122 C1123 1.372 . S
C1123 C1122 1.372 . S
C1123 C1124 1.400 . S
C1123 C1128 1.490 . S
C1124 H1114 0.930 . S
C1124 C1123 1.400 . S
C1124 C1127 1.386 . S
H1125 C1141 0.930 . S
H1126 C1142 0.931 . S
C1127 H1115 0.929 . S
C1127 C1121 1.390 . S
C1127 C1124 1.386 . S
C1128 C1123 1.490 . S
C1128 C1130 1.395 . S
C1128 C1131 1.403 . S
H1129 C1135 0.930 . S
C1130 H1116 0.930 . S
C1130 C1128 1.395 . S
C1130 C1133 1.403 . S
C1131 C1128 1.403 . S
C1131 C1132 1.524 . S
C1131 C1135 1.400 . S
C1132 H1117 0.960 . S
C1132 H1118 0.960 . S
C1132 H1119 0.960 . S
C1132 C1131 1.524 . S
C1133 C1130 1.403 . S
C1133 C1134 1.392 . S
C1133 C1137 1.495 . S
C1134 C1133 1.392 . S
C1134 C1135 1.385 . S
C1134 C1136 1.478 . S
C1135 H1129 0.930 . S
C1135 C1131 1.400 . S
C1135 C1134 1.385 . S
C1136 C1134 1.478 . S
C1136 C1138 1.381 . S
C1136 C1142 1.383 . S
C1137 C1133 1.495 . S
C1137 H1143 0.959 . S
C1137 H1144 0.961 . S
C1137 H1145 0.960 . S
C1138 C1136 1.381 . S
C1138 C1139 1.394 . S
C1138 H1146 0.930 . S
C1139 C1138 1.394 . S
C1139 C1140 1.383 . S
C1139 H1147 0.929 . S
C1140 C1139 1.383 . S
C1140 C1141 1.377 . S
C1141 H1125 0.930 . S
C1141 C1140 1.377 . S
C1141 C1142 1.379 . S
C1142 H1126 0.931 . S
C1142 C1136 1.383 . S
C1142 C1141 1.379 . S
H1143 C1137 0.959 . S
H1144 C1137 0.961 . S
H1145 C1137 0.960 . S
H1146 C1138 0.930 . S
H1147 C1139 0.929 . S
H1148 C1156 0.929 . S
H1149 C1158 0.930 . S
H1150 C1160 0.930 . S
H1151 C1163 0.929 . S
H1152 C1166 0.930 . S
H1153 C1168 0.960 . S
H1154 C1168 0.960 . S
H1155 C1168 0.960 . S
C1156 H1148 0.929 . S
C1156 C1157 1.377 . S
C1156 C1158 1.384 . S
C1157 C1156 1.377 . S
C1157 C1163 1.390 . S
C1158 H1149 0.930 . S
C1158 C1156 1.384 . S
C1158 C1159 1.372 . S
C1159 C1158 1.372 . S
C1159 C1160 1.400 . S
C1159 C1164 1.490 . S
C1160 H1150 0.930 . S
C1160 C1159 1.400 . S
C1160 C1163 1.386 . S
H1161 C1177 0.930 . S
H1162 C1178 0.931 . S
C1163 H1151 0.929 . S
C1163 C1157 1.390 . S
C1163 C1160 1.386 . S
C1164 C1159 1.490 . S
C1164 C1166 1.395 . S
C1164 C1167 1.403 . S
H1165 C1171 0.930 . S
C1166 H1152 0.930 . S
C1166 C1164 1.395 . S
C1166 C1169 1.403 . S
C1167 C1164 1.403 . S
C1167 C1168 1.524 . S
C1167 C1171 1.400 . S
C1168 H1153 0.960 . S
C1168 H1154 0.960 . S
C1168 H1155 0.960 . S
C1168 C1167 1.524 . S
C1169 C1166 1.403 . S
C1169 C1170 1.392 . S
C1169 C1173 1.495 . S
C1170 C1169 1.392 . S
C1170 C1171 1.385 . S
C1170 C1172 1.478 . S
C1171 H1165 0.930 . S
C1171 C1167 1.400 . S
C1171 C1170 1.385 . S
C1172 C1170 1.478 . S
C1172 C1174 1.381 . S
C1172 C1178 1.383 . S
C1173 C1169 1.495 . S
C1173 H1179 0.959 . S
C1173 H1180 0.961 . S
C1173 H1181 0.960 . S
C1174 C1172 1.381 . S
C1174 C1175 1.394 . S
C1174 H1182 0.930 . S
C1175 C1174 1.394 . S
C1175 C1176 1.383 . S
C1175 H1183 0.929 . S
C1176 C1175 1.383 . S
C1176 C1177 1.377 . S
C1177 H1161 0.930 . S
C1177 C1176 1.377 . S
C1177 C1178 1.379 . S
C1178 H1162 0.931 . S
C1178 C1172 1.383 . S
C1178 C1177 1.379 . S
H1179 C1173 0.959 . S
H1180 C1173 0.961 . S
H1181 C1173 0.960 . S
H1182 C1174 0.930 . S
H1183 C1175 0.929 . S
H1184 C1192 0.929 . S
H1185 C1194 0.930 . S
H1186 C1196 0.930 . S
H1187 C1199 0.929 . S
H1188 C1202 0.930 . S
H1189 C1204 0.960 . S
H1190 C1204 0.960 . S
H1191 C1204 0.960 . S
C1192 H1184 0.929 . S
C1192 C1193 1.377 . S
C1192 C1194 1.384 . S
C1193 C1192 1.377 . S
C1193 C1199 1.390 . S
C1194 H1185 0.930 . S
C1194 C1192 1.384 . S
C1194 C1195 1.372 . S
C1195 C1194 1.372 . S
C1195 C1196 1.400 . S
C1195 C1200 1.490 . S
C1196 H1186 0.930 . S
C1196 C1195 1.400 . S
C1196 C1199 1.386 . S
H1197 C1213 0.930 . S
H1198 C1214 0.931 . S
C1199 H1187 0.929 . S
C1199 C1193 1.390 . S
C1199 C1196 1.386 . S
C1200 C1195 1.490 . S
C1200 C1202 1.395 . S
C1200 C1203 1.403 . S
H1201 C1207 0.930 . S
C1202 H1188 0.930 . S
C1202 C1200 1.395 . S
C1202 C1205 1.403 . S
C1203 C1200 1.403 . S
C1203 C1204 1.524 . S
C1203 C1207 1.400 . S
C1204 H1189 0.960 . S
C1204 H1190 0.960 . S
C1204 H1191 0.960 . S
C1204 C1203 1.524 . S
C1205 C1202 1.403 . S
C1205 C1206 1.392 . S
C1205 C1209 1.495 . S
C1206 C1205 1.392 . S
C1206 C1207 1.385 . S
C1206 C1208 1.478 . S
C1207 H1201 0.930 . S
C1207 C1203 1.400 . S
C1207 C1206 1.385 . S
C1208 C1206 1.478 . S
C1208 C1210 1.381 . S
C1208 C1214 1.383 . S
C1209 C1205 1.495 . S
C1209 H1215 0.959 . S
C1209 H1216 0.961 . S
C1209 H1217 0.960 . S
C1210 C1208 1.381 . S
C1210 C1211 1.394 . S
C1210 H1218 0.930 . S
C1211 C1210 1.394 . S
C1211 C1212 1.383 . S
C1211 H1219 0.929 . S
C1212 C1211 1.383 . S
C1212 C1213 1.377 . S
C1213 H1197 0.930 . S
C1213 C1212 1.377 . S
C1213 C1214 1.379 . S
C1214 H1198 0.931 . S
C1214 C1208 1.383 . S
C1214 C1213 1.379 . S
H1215 C1209 0.959 . S
H1216 C1209 0.961 . S
H1217 C1209 0.960 . S
H1218 C1210 0.930 . S
H1219 C1211 0.929 . S
H1220 C1228 0.929 . S
H1221 C1230 0.930 . S
H1222 C1232 0.930 . S
H1223 C1235 0.929 . S
H1224 C1238 0.930 . S
H1225 C1240 0.960 . S
H1226 C1240 0.960 . S
H1227 C1240 0.960 . S
C1228 H1220 0.929 . S
C1228 C1229 1.377 . S
C1228 C1230 1.384 . S
C1229 C1228 1.377 . S
C1229 C1235 1.390 . S
C1230 H1221 0.930 . S
C1230 C1228 1.384 . S
C1230 C1231 1.372 . S
C1231 C1230 1.372 . S
C1231 C1232 1.400 . S
C1231 C1236 1.490 . S
C1232 H1222 0.930 . S
C1232 C1231 1.400 . S
C1232 C1235 1.386 . S
H1233 C1249 0.930 . S
H1234 C1250 0.931 . S
C1235 H1223 0.929 . S
C1235 C1229 1.390 . S
C1235 C1232 1.386 . S
C1236 C1231 1.490 . S
C1236 C1238 1.395 . S
C1236 C1239 1.403 . S
H1237 C1243 0.930 . S
C1238 H1224 0.930 . S
C1238 C1236 1.395 . S
C1238 C1241 1.403 . S
C1239 C1236 1.403 . S
C1239 C1240 1.524 . S
C1239 C1243 1.400 . S
C1240 H1225 0.960 . S
C1240 H1226 0.960 . S
C1240 H1227 0.960 . S
C1240 C1239 1.524 . S
C1241 C1238 1.403 . S
C1241 C1242 1.392 . S
C1241 C1245 1.495 . S
C1242 C1241 1.392 . S
C1242 C1243 1.385 . S
C1242 C1244 1.478 . S
C1243 H1237 0.930 . S
C1243 C1239 1.400 . S
C1243 C1242 1.385 . S
C1244 C1242 1.478 . S
C1244 C1246 1.381 . S
C1244 C1250 1.383 . S
C1245 C1241 1.495 . S
C1245 H1251 0.959 . S
C1245 H1252 0.961 . S
C1245 H1253 0.960 . S
C1246 C1244 1.381 . S
C1246 C1247 1.394 . S
C1246 H1254 0.930 . S
C1247 C1246 1.394 . S
C1247 C1248 1.383 . S
C1247 H1255 0.929 . S
C1248 C1247 1.383 . S
C1248 C1249 1.377 . S
C1249 H1233 0.930 . S
C1249 C1248 1.377 . S
C1249 C1250 1.379 . S
C1250 H1234 0.931 . S
C1250 C1244 1.383 . S
C1250 C1249 1.379 . S
H1251 C1245 0.959 . S
H1252 C1245 0.961 . S
H1253 C1245 0.960 . S
H1254 C1246 0.930 . S
H1255 C1247 0.929 . S
H1256 C1264 0.929 . S
H1257 C1266 0.930 . S
H1258 C1268 0.930 . S
H1259 C1271 0.929 . S
H1260 C1274 0.930 . S
H1261 C1276 0.960 . S
H1262 C1276 0.960 . S
H1263 C1276 0.960 . S
C1264 H1256 0.929 . S
C1264 C1265 1.377 . S
C1264 C1266 1.384 . S
C1265 C1264 1.377 . S
C1265 C1271 1.390 . S
C1266 H1257 0.930 . S
C1266 C1264 1.384 . S
C1266 C1267 1.372 . S
C1267 C1266 1.372 . S
C1267 C1268 1.400 . S
C1267 C1272 1.490 . S
C1268 H1258 0.930 . S
C1268 C1267 1.400 . S
C1268 C1271 1.386 . S
H1269 C1285 0.930 . S
H1270 C1286 0.931 . S
C1271 H1259 0.929 . S
C1271 C1265 1.390 . S
C1271 C1268 1.386 . S
C1272 C1267 1.490 . S
C1272 C1274 1.395 . S
C1272 C1275 1.403 . S
H1273 C1279 0.930 . S
C1274 H1260 0.930 . S
C1274 C1272 1.395 . S
C1274 C1277 1.403 . S
C1275 C1272 1.403 . S
C1275 C1276 1.524 . S
C1275 C1279 1.400 . S
C1276 H1261 0.960 . S
C1276 H1262 0.960 . S
C1276 H1263 0.960 . S
C1276 C1275 1.524 . S
C1277 C1274 1.403 . S
C1277 C1278 1.392 . S
C1277 C1281 1.495 . S
C1278 C1277 1.392 . S
C1278 C1279 1.385 . S
C1278 C1280 1.478 . S
C1279 H1273 0.930 . S
C1279 C1275 1.400 . S
C1279 C1278 1.385 . S
C1280 C1278 1.478 . S
C1280 C1282 1.381 . S
C1280 C1286 1.383 . S
C1281 C1277 1.495 . S
C1281 H1287 0.959 . S
C1281 H1288 0.961 . S
C1281 H1289 0.960 . S
C1282 C1280 1.381 . S
C1282 C1283 1.394 . S
C1282 H1290 0.930 . S
C1283 C1282 1.394 . S
C1283 C1284 1.383 . S
C1283 H1291 0.929 . S
C1284 C1283 1.383 . S
C1284 C1285 1.377 . S
C1285 H1269 0.930 . S
C1285 C1284 1.377 . S
C1285 C1286 1.379 . S
C1286 H1270 0.931 . S
C1286 C1280 1.383 . S
C1286 C1285 1.379 . S
H1287 C1281 0.959 . S
H1288 C1281 0.961 . S
H1289 C1281 0.960 . S
H1290 C1282 0.930 . S
H1291 C1283 0.929 . S
H1292 C1300 0.929 . S
H1293 C1302 0.930 . S
H1294 C1304 0.930 . S
H1295 C1307 0.929 . S
H1296 C1310 0.930 . S
H1297 C1312 0.960 . S
H1298 C1312 0.960 . S
H1299 C1312 0.960 . S
C1300 H1292 0.929 . S
C1300 C1301 1.377 . S
C1300 C1302 1.384 . S
C1301 C1300 1.377 . S
C1301 C1307 1.390 . S
C1302 H1293 0.930 . S
C1302 C1300 1.384 . S
C1302 C1303 1.372 . S
C1303 C1302 1.372 . S
C1303 C1304 1.400 . S
C1303 C1308 1.490 . S
C1304 H1294 0.930 . S
C1304 C1303 1.400 . S
C1304 C1307 1.386 . S
H1305 C1321 0.930 . S
H1306 C1322 0.931 . S
C1307 H1295 0.929 . S
C1307 C1301 1.390 . S
C1307 C1304 1.386 . S
C1308 C1303 1.490 . S
C1308 C1310 1.395 . S
C1308 C1311 1.403 . S
H1309 C1315 0.930 . S
C1310 H1296 0.930 . S
C1310 C1308 1.395 . S
C1310 C1313 1.403 . S
C1311 C1308 1.403 . S
C1311 C1312 1.524 . S
C1311 C1315 1.400 . S
C1312 H1297 0.960 . S
C1312 H1298 0.960 . S
C1312 H1299 0.960 . S
C1312 C1311 1.524 . S
C1313 C1310 1.403 . S
C1313 C1314 1.392 . S
C1313 C1317 1.495 . S
C1314 C1313 1.392 . S
C1314 C1315 1.385 . S
C1314 C1316 1.478 . S
C1315 H1309 0.930 . S
C1315 C1311 1.400 . S
C1315 C1314 1.385 . S
C1316 C1314 1.478 . S
C1316 C1318 1.381 . S
C1316 C1322 1.383 . S
C1317 C1313 1.495 . S
C1317 H1323 0.959 . S
C1317 H1324 0.961 . S
C1317 H1325 0.960 . S
C1318 C1316 1.381 . S
C1318 C1319 1.394 . S
C1318 H1326 0.930 . S
C1319 C1318 1.394 . S
C1319 C1320 1.383 . S
C1319 H1327 0.929 . S
C1320 C1319 1.383 . S
C1320 C1321 1.377 . S
C1321 H1305 0.930 . S
C1321 C1320 1.377 . S
C1321 C1322 1.379 . S
C1322 H1306 0.931 . S
C1322 C1316 1.383 . S
C1322 C1321 1.379 . S
H1323 C1317 0.959 . S
H1324 C1317 0.961 . S
H1325 C1317 0.960 . S
H1326 C1318 0.930 . S
H1327 C1319 0.929 . S
H1328 C1336 0.929 . S
H1329 C1338 0.930 . S
H1330 C1340 0.930 . S
H1331 C1343 0.929 . S
H1332 C1346 0.930 . S
H1333 C1348 0.960 . S
H1334 C1348 0.960 . S
H1335 C1348 0.960 . S
C1336 H1328 0.929 . S
C1336 C1337 1.377 . S
C1336 C1338 1.384 . S
C1337 C1336 1.377 . S
C1337 C1343 1.390 . S
C1338 H1329 0.930 . S
C1338 C1336 1.384 . S
C1338 C1339 1.372 . S
C1339 C1338 1.372 . S
C1339 C1340 1.400 . S
C1339 C1344 1.490 . S
C1340 H1330 0.930 . S
C1340 C1339 1.400 . S
C1340 C1343 1.386 . S
H1341 C1357 0.930 . S
H1342 C1358 0.931 . S
C1343 H1331 0.929 . S
C1343 C1337 1.390 . S
C1343 C1340 1.386 . S
C1344 C1339 1.490 . S
C1344 C1346 1.395 . S
C1344 C1347 1.403 . S
H1345 C1351 0.930 . S
C1346 H1332 0.930 . S
C1346 C1344 1.395 . S
C1346 C1349 1.403 . S
C1347 C1344 1.403 . S
C1347 C1348 1.524 . S
C1347 C1351 1.400 . S
C1348 H1333 0.960 . S
C1348 H1334 0.960 . S
C1348 H1335 0.960 . S
C1348 C1347 1.524 . S
C1349 C1346 1.403 . S
C1349 C1350 1.392 . S
C1349 C1353 1.495 . S
C1350 C1349 1.392 . S
C1350 C1351 1.385 . S
C1350 C1352 1.478 . S
C1351 H1345 0.930 . S
C1351 C1347 1.400 . S
C1351 C1350 1.385 . S
C1352 C1350 1.478 . S
C1352 C1354 1.381 . S
C1352 C1358 1.383 . S
C1353 C1349 1.495 . S
C1353 H1359 0.959 . S
C1353 H1360 0.961 . S
C1353 H1361 0.960 . S
C1354 C1352 1.381 . S
C1354 C1355 1.394 . S
C1354 H1362 0.930 . S
C1355 C1354 1.394 . S
C1355 C1356 1.383 . S
C1355 H1363 0.929 . S
C1356 C1355 1.383 . S
C1356 C1357 1.377 . S
C1357 H1341 0.930 . S
C1357 C1356 1.377 . S
C1357 C1358 1.379 . S
C1358 H1342 0.931 . S
C1358 C1352 1.383 . S
C1358 C1357 1.379 . S
H1359 C1353 0.959 . S
H1360 C1353 0.961 . S
H1361 C1353 0.960 . S
H1362 C1354 0.930 . S
H1363 C1355 0.929 . S
H1364 C1372 0.929 . S
H1365 C1374 0.930 . S
H1366 C1376 0.930 . S
H1367 C1379 0.929 . S
H1368 C1382 0.930 . S
H1369 C1384 0.960 . S
H1370 C1384 0.960 . S
H1371 C1384 0.960 . S
C1372 H1364 0.929 . S
C1372 C1373 1.377 . S
C1372 C1374 1.384 . S
C1373 C1372 1.377 . S
C1373 C1379 1.390 . S
C1374 H1365 0.930 . S
C1374 C1372 1.384 . S
C1374 C1375 1.372 . S
C1375 C1374 1.372 . S
C1375 C1376 1.400 . S
C1375 C1380 1.490 . S
C1376 H1366 0.930 . S
C1376 C1375 1.400 . S
C1376 C1379 1.386 . S
H1377 C1393 0.930 . S
H1378 C1394 0.931 . S
C1379 H1367 0.929 . S
C1379 C1373 1.390 . S
C1379 C1376 1.386 . S
C1380 C1375 1.490 . S
C1380 C1382 1.395 . S
C1380 C1383 1.403 . S
H1381 C1387 0.930 . S
C1382 H1368 0.930 . S
C1382 C1380 1.395 . S
C1382 C1385 1.403 . S
C1383 C1380 1.403 . S
C1383 C1384 1.524 . S
C1383 C1387 1.400 . S
C1384 H1369 0.960 . S
C1384 H1370 0.960 . S
C1384 H1371 0.960 . S
C1384 C1383 1.524 . S
C1385 C1382 1.403 . S
C1385 C1386 1.392 . S
C1385 C1389 1.495 . S
C1386 C1385 1.392 . S
C1386 C1387 1.385 . S
C1386 C1388 1.478 . S
C1387 H1381 0.930 . S
C1387 C1383 1.400 . S
C1387 C1386 1.385 . S
C1388 C1386 1.478 . S
C1388 C1390 1.381 . S
C1388 C1394 1.383 . S
C1389 C1385 1.495 . S
C1389 H1395 0.959 . S
C1389 H1396 0.961 . S
C1389 H1397 0.960 . S
C1390 C1388 1.381 . S
C1390 C1391 1.394 . S
C1390 H1398 0.930 . S
C1391 C1390 1.394 . S
C1391 C1392 1.383 . S
C1391 H1399 0.929 . S
C1392 C1391 1.383 . S
C1392 C1393 1.377 . S
C1393 H1377 0.930 . S
C1393 C1392 1.377 . S
C1393 C1394 1.379 . S
C1394 H1378 0.931 . S
C1394 C1388 1.383 . S
C1394 C1393 1.379 . S
H1395 C1389 0.959 . S
H1396 C1389 0.961 . S
H1397 C1389 0.960 . S
H1398 C1390 0.930 . S
H1399 C1391 0.929 . S
H1400 C1408 0.929 . S
H1401 C1410 0.930 . S
H1402 C1412 0.930 . S
H1403 C1415 0.929 . S
H1404 C1418 0.930 . S
H1405 C1420 0.960 . S
H1406 C1420 0.960 . S
H1407 C1420 0.960 . S
C1408 H1400 0.929 . S
C1408 C1409 1.377 . S
C1408 C1410 1.384 . S
C1409 C1408 1.377 . S
C1409 C1415 1.390 . S
C1410 H1401 0.930 . S
C1410 C1408 1.384 . S
C1410 C1411 1.372 . S
C1411 C1410 1.372 . S
C1411 C1412 1.400 . S
C1411 C1416 1.490 . S
C1412 H1402 0.930 . S
C1412 C1411 1.400 . S
C1412 C1415 1.386 . S
H1413 C1429 0.930 . S
H1414 C1430 0.931 . S
C1415 H1403 0.929 . S
C1415 C1409 1.390 . S
C1415 C1412 1.386 . S
C1416 C1411 1.490 . S
C1416 C1418 1.395 . S
C1416 C1419 1.403 . S
H1417 C1423 0.930 . S
C1418 H1404 0.930 . S
C1418 C1416 1.395 . S
C1418 C1421 1.403 . S
C1419 C1416 1.403 . S
C1419 C1420 1.524 . S
C1419 C1423 1.400 . S
C1420 H1405 0.960 . S
C1420 H1406 0.960 . S
C1420 H1407 0.960 . S
C1420 C1419 1.524 . S
C1421 C1418 1.403 . S
C1421 C1422 1.392 . S
C1421 C1425 1.495 . S
C1422 C1421 1.392 . S
C1422 C1423 1.385 . S
C1422 C1424 1.478 . S
C1423 H1417 0.930 . S
C1423 C1419 1.400 . S
C1423 C1422 1.385 . S
C1424 C1422 1.478 . S
C1424 C1426 1.381 . S
C1424 C1430 1.383 . S
C1425 C1421 1.495 . S
C1425 H1431 0.959 . S
C1425 H1432 0.961 . S
C1425 H1433 0.960 . S
C1426 C1424 1.381 . S
C1426 C1427 1.394 . S
C1426 H1434 0.930 . S
C1427 C1426 1.394 . S
C1427 C1428 1.383 . S
C1427 H1435 0.929 . S
C1428 C1427 1.383 . S
C1428 C1429 1.377 . S
C1429 H1413 0.930 . S
C1429 C1428 1.377 . S
C1429 C1430 1.379 . S
C1430 H1414 0.931 . S
C1430 C1424 1.383 . S
C1430 C1429 1.379 . S
H1431 C1425 0.959 . S
H1432 C1425 0.961 . S
H1433 C1425 0.960 . S
H1434 C1426 0.930 . S
H1435 C1427 0.929 . S
H1436 C1444 0.929 . S
H1437 C1446 0.930 . S
H1438 C1448 0.930 . S
H1439 C1451 0.929 . S
H1440 C1454 0.930 . S
H1441 C1456 0.960 . S
H1442 C1456 0.960 . S
H1443 C1456 0.960 . S
C1444 H1436 0.929 . S
C1444 C1445 1.377 . S
C1444 C1446 1.384 . S
C1445 C1444 1.377 . S
C1445 C1451 1.390 . S
C1446 H1437 0.930 . S
C1446 C1444 1.384 . S
C1446 C1447 1.372 . S
C1447 C1446 1.372 . S
C1447 C1448 1.400 . S
C1447 C1452 1.490 . S
C1448 H1438 0.930 . S
C1448 C1447 1.400 . S
C1448 C1451 1.386 . S
H1449 C1465 0.930 . S
H1450 C1466 0.931 . S
C1451 H1439 0.929 . S
C1451 C1445 1.390 . S
C1451 C1448 1.386 . S
C1452 C1447 1.490 . S
C1452 C1454 1.395 . S
C1452 C1455 1.403 . S
H1453 C1459 0.930 . S
C1454 H1440 0.930 . S
C1454 C1452 1.395 . S
C1454 C1457 1.403 . S
C1455 C1452 1.403 . S
C1455 C1456 1.524 . S
C1455 C1459 1.400 . S
C1456 H1441 0.960 . S
C1456 H1442 0.960 . S
C1456 H1443 0.960 . S
C1456 C1455 1.524 . S
C1457 C1454 1.403 . S
C1457 C1458 1.392 . S
C1457 C1461 1.495 . S
C1458 C1457 1.392 . S
C1458 C1459 1.385 . S
C1458 C1460 1.478 . S
C1459 H1453 0.930 . S
C1459 C1455 1.400 . S
C1459 C1458 1.385 . S
C1460 C1458 1.478 . S
C1460 C1462 1.381 . S
C1460 C1466 1.383 . S
C1461 C1457 1.495 . S
C1461 H1467 0.959 . S
C1461 H1468 0.961 . S
C1461 H1469 0.960 . S
C1462 C1460 1.381 . S
C1462 C1463 1.394 . S
C1462 H1470 0.930 . S
C1463 C1462 1.394 . S
C1463 C1464 1.383 . S
C1463 H1471 0.929 . S
C1464 C1463 1.383 . S
C1464 C1465 1.377 . S
C1465 H1449 0.930 . S
C1465 C1464 1.377 . S
C1465 C1466 1.379 . S
C1466 H1450 0.931 . S
C1466 C1460 1.383 . S
C1466 C1465 1.379 . S
H1467 C1461 0.959 . S
H1468 C1461 0.961 . S
H1469 C1461 0.960 . S
H1470 C1462 0.930 . S
H1471 C1463 0.929 . S
H1472 C1480 0.929 . S
H1473 C1482 0.930 . S
H1474 C1484 0.930 . S
H1475 C1487 0.929 . S
H1476 C1490 0.930 . S
H1477 C1492 0.960 . S
H1478 C1492 0.960 . S
H1479 C1492 0.960 . S
C1480 H1472 0.929 . S
C1480 C1481 1.377 . S
C1480 C1482 1.384 . S
C1481 C1480 1.377 . S
C1481 C1487 1.390 . S
C1482 H1473 0.930 . S
C1482 C1480 1.384 . S
C1482 C1483 1.372 . S
C1483 C1482 1.372 . S
C1483 C1484 1.400 . S
C1483 C1488 1.490 . S
C1484 H1474 0.930 . S
C1484 C1483 1.400 . S
C1484 C1487 1.386 . S
H1485 C1501 0.930 . S
H1486 C1502 0.931 . S
C1487 H1475 0.929 . S
C1487 C1481 1.390 . S
C1487 C1484 1.386 . S
C1488 C1483 1.490 . S
C1488 C1490 1.395 . S
C1488 C1491 1.403 . S
H1489 C1495 0.930 . S
C1490 H1476 0.930 . S
C1490 C1488 1.395 . S
C1490 C1493 1.403 . S
C1491 C1488 1.403 . S
C1491 C1492 1.524 . S
C1491 C1495 1.400 . S
C1492 H1477 0.960 . S
C1492 H1478 0.960 . S
C1492 H1479 0.960 . S
C1492 C1491 1.524 . S
C1493 C1490 1.403 . S
C1493 C1494 1.392 . S
C1493 C1497 1.495 . S
C1494 C1493 1.392 . S
C1494 C1495 1.385 . S
C1494 C1496 1.478 . S
C1495 H1489 0.930 . S
C1495 C1491 1.400 . S
C1495 C1494 1.385 . S
C1496 C1494 1.478 . S
C1496 C1498 1.381 . S
C1496 C1502 1.383 . S
C1497 C1493 1.495 . S
C1497 H1503 0.959 . S
C1497 H1504 0.961 . S
C1497 H1505 0.960 . S
C1498 C1496 1.381 . S
C1498 C1499 1.394 . S
C1498 H1506 0.930 . S
C1499 C1498 1.394 . S
C1499 C1500 1.383 . S
C1499 H1507 0.929 . S
C1500 C1499 1.383 . S
C1500 C1501 1.377 . S
C1501 H1485 0.930 . S
C1501 C1500 1.377 . S
C1501 C1502 1.379 . S
C1502 H1486 0.931 . S
C1502 C1496 1.383 . S
C1502 C1501 1.379 . S
H1503 C1497 0.959 . S
H1504 C1497 0.961 . S
H1505 C1497 0.960 . S
H1506 C1498 0.930 . S
H1507 C1499 0.929 . S
H1508 C1516 0.929 . S
H1509 C1518 0.930 . S
H1510 C1520 0.930 . S
H1511 C1523 0.929 . S
H1512 C1526 0.930 . S
H1513 C1528 0.960 . S
H1514 C1528 0.960 . S
H1515 C1528 0.960 . S
C1516 H1508 0.929 . S
C1516 C1517 1.377 . S
C1516 C1518 1.384 . S
C1517 C1516 1.377 . S
C1517 C1523 1.390 . S
C1518 H1509 0.930 . S
C1518 C1516 1.384 . S
C1518 C1519 1.372 . S
C1519 C1518 1.372 . S
C1519 C1520 1.400 . S
C1519 C1524 1.490 . S
C1520 H1510 0.930 . S
C1520 C1519 1.400 . S
C1520 C1523 1.386 . S
H1521 C1537 0.930 . S
H1522 C1538 0.931 . S
C1523 H1511 0.929 . S
C1523 C1517 1.390 . S
C1523 C1520 1.386 . S
C1524 C1519 1.490 . S
C1524 C1526 1.395 . S
C1524 C1527 1.403 . S
H1525 C1531 0.930 . S
C1526 H1512 0.930 . S
C1526 C1524 1.395 . S
C1526 C1529 1.403 . S
C1527 C1524 1.403 . S
C1527 C1528 1.524 . S
C1527 C1531 1.400 . S
C1528 H1513 0.960 . S
C1528 H1514 0.960 . S
C1528 H1515 0.960 . S
C1528 C1527 1.524 . S
C1529 C1526 1.403 . S
C1529 C1530 1.392 . S
C1529 C1533 1.495 . S
C1530 C1529 1.392 . S
C1530 C1531 1.385 . S
C1530 C1532 1.478 . S
C1531 H1525 0.930 . S
C1531 C1527 1.400 . S
C1531 C1530 1.385 . S
C1532 C1530 1.478 . S
C1532 C1534 1.381 . S
C1532 C1538 1.383 . S
C1533 C1529 1.495 . S
C1533 H1539 0.959 . S
C1533 H1540 0.961 . S
C1533 H1541 0.960 . S
C1534 C1532 1.381 . S
C1534 C1535 1.394 . S
C1534 H1542 0.930 . S
C1535 C1534 1.394 . S
C1535 C1536 1.383 . S
C1535 H1543 0.929 . S
C1536 C1535 1.383 . S
C1536 C1537 1.377 . S
C1537 H1521 0.930 . S
C1537 C1536 1.377 . S
C1537 C1538 1.379 . S
C1538 H1522 0.931 . S
C1538 C1532 1.383 . S
C1538 C1537 1.379 . S
H1539 C1533 0.959 . S
H1540 C1533 0.961 . S
H1541 C1533 0.960 . S
H1542 C1534 0.930 . S
H1543 C1535 0.929 . S
H1544 C1552 0.929 . S
H1545 C1554 0.930 . S
H1546 C1556 0.930 . S
H1547 C1559 0.929 . S
H1548 C1562 0.930 . S
H1549 C1564 0.960 . S
H1550 C1564 0.960 . S
H1551 C1564 0.960 . S
C1552 H1544 0.929 . S
C1552 C1553 1.377 . S
C1552 C1554 1.384 . S
C1553 C1552 1.377 . S
C1553 C1559 1.390 . S
C1554 H1545 0.930 . S
C1554 C1552 1.384 . S
C1554 C1555 1.372 . S
C1555 C1554 1.372 . S
C1555 C1556 1.400 . S
C1555 C1560 1.490 . S
C1556 H1546 0.930 . S
C1556 C1555 1.400 . S
C1556 C1559 1.386 . S
H1557 C1573 0.930 . S
H1558 C1574 0.931 . S
C1559 H1547 0.929 . S
C1559 C1553 1.390 . S
C1559 C1556 1.386 . S
C1560 C1555 1.490 . S
C1560 C1562 1.395 . S
C1560 C1563 1.403 . S
H1561 C1567 0.930 . S
C1562 H1548 0.930 . S
C1562 C1560 1.395 . S
C1562 C1565 1.403 . S
C1563 C1560 1.403 . S
C1563 C1564 1.524 . S
C1563 C1567 1.400 . S
C1564 H1549 0.960 . S
C1564 H1550 0.960 . S
C1564 H1551 0.960 . S
C1564 C1563 1.524 . S
C1565 C1562 1.403 . S
C1565 C1566 1.392 . S
C1565 C1569 1.495 . S
C1566 C1565 1.392 . S
C1566 C1567 1.385 . S
C1566 C1568 1.478 . S
C1567 H1561 0.930 . S
C1567 C1563 1.400 . S
C1567 C1566 1.385 . S
C1568 C1566 1.478 . S
C1568 C1570 1.381 . S
C1568 C1574 1.383 . S
C1569 C1565 1.495 . S
C1569 H1575 0.959 . S
C1569 H1576 0.961 . S
C1569 H1577 0.960 . S
C1570 C1568 1.381 . S
C1570 C1571 1.394 . S
C1570 H1578 0.930 . S
C1571 C1570 1.394 . S
C1571 C1572 1.383 . S
C1571 H1579 0.929 . S
C1572 C1571 1.383 . S
C1572 C1573 1.377 . S
C1573 H1557 0.930 . S
C1573 C1572 1.377 . S
C1573 C1574 1.379 . S
C1574 H1558 0.931 . S
C1574 C1568 1.383 . S
C1574 C1573 1.379 . S
H1575 C1569 0.959 . S
H1576 C1569 0.961 . S
H1577 C1569 0.960 . S
H1578 C1570 0.930 . S
H1579 C1571 0.929 . S
H1580 C1588 0.929 . S
H1581 C1590 0.930 . S
H1582 C1592 0.930 . S
H1583 C1595 0.929 . S
H1584 C1598 0.930 . S
H1585 C1600 0.960 . S
H1586 C1600 0.960 . S
H1587 C1600 0.960 . S
C1588 H1580 0.929 . S
C1588 C1589 1.377 . S
C1588 C1590 1.384 . S
C1589 C1588 1.377 . S
C1589 C1595 1.390 . S
C1590 H1581 0.930 . S
C1590 C1588 1.384 . S
C1590 C1591 1.372 . S
C1591 C1590 1.372 . S
C1591 C1592 1.400 . S
C1591 C1596 1.490 . S
C1592 H1582 0.930 . S
C1592 C1591 1.400 . S
C1592 C1595 1.386 . S
H1593 C1609 0.930 . S
H1594 C1610 0.931 . S
C1595 H1583 0.929 . S
C1595 C1589 1.390 . S
C1595 C1592 1.386 . S
C1596 C1591 1.490 . S
C1596 C1598 1.395 . S
C1596 C1599 1.403 . S
H1597 C1603 0.930 . S
C1598 H1584 0.930 . S
C1598 C1596 1.395 . S
C1598 C1601 1.403 . S
C1599 C1596 1.403 . S
C1599 C1600 1.524 . S
C1599 C1603 1.400 . S
C1600 H1585 0.960 . S
C1600 H1586 0.960 . S
C1600 H1587 0.960 . S
C1600 C1599 1.524 . S
C1601 C1598 1.403 . S
C1601 C1602 1.392 . S
C1601 C1605 1.495 . S
C1602 C1601 1.392 . S
C1602 C1603 1.385 . S
C1602 C1604 1.478 . S
C1603 H1597 0.930 . S
C1603 C1599 1.400 . S
C1603 C1602 1.385 . S
C1604 C1602 1.478 . S
C1604 C1606 1.381 . S
C1604 C1610 1.383 . S
C1605 C1601 1.495 . S
C1605 H1611 0.959 . S
C1605 H1612 0.961 . S
C1605 H1613 0.960 . S
C1606 C1604 1.381 . S
C1606 C1607 1.394 . S
C1606 H1614 0.930 . S
C1607 C1606 1.394 . S
C1607 C1608 1.383 . S
C1607 H1615 0.929 . S
C1608 C1607 1.383 . S
C1608 C1609 1.377 . S
C1609 H1593 0.930 . S
C1609 C1608 1.377 . S
C1609 C1610 1.379 . S
C1610 H1594 0.931 . S
C1610 C1604 1.383 . S
C1610 C1609 1.379 . S
H1611 C1605 0.959 . S
H1612 C1605 0.961 . S
H1613 C1605 0.960 . S
H1614 C1606 0.930 . S
H1615 C1607 0.929 . S
H1616 C1624 0.929 . S
H1617 C1626 0.930 . S
H1618 C1628 0.930 . S
H1619 C1631 0.929 . S
H1620 C1634 0.930 . S
H1621 C1636 0.960 . S
H1622 C1636 0.960 . S
H1623 C1636 0.960 . S
C1624 H1616 0.929 . S
C1624 C1625 1.377 . S
C1624 C1626 1.384 . S
C1625 C1624 1.377 . S
C1625 C1631 1.390 . S
C1626 H1617 0.930 . S
C1626 C1624 1.384 . S
C1626 C1627 1.372 . S
C1627 C1626 1.372 . S
C1627 C1628 1.400 . S
C1627 C1632 1.490 . S
C1628 H1618 0.930 . S
C1628 C1627 1.400 . S
C1628 C1631 1.386 . S
H1629 C1645 0.930 . S
H1630 C1646 0.931 . S
C1631 H1619 0.929 . S
C1631 C1625 1.390 . S
C1631 C1628 1.386 . S
C1632 C1627 1.490 . S
C1632 C1634 1.395 . S
C1632 C1635 1.403 . S
H1633 C1639 0.930 . S
C1634 H1620 0.930 . S
C1634 C1632 1.395 . S
C1634 C1637 1.403 . S
C1635 C1632 1.403 . S
C1635 C1636 1.524 . S
C1635 C1639 1.400 . S
C1636 H1621 0.960 . S
C1636 H1622 0.960 . S
C1636 H1623 0.960 . S
C1636 C1635 1.524 . S
C1637 C1634 1.403 . S
C1637 C1638 1.392 . S
C1637 C1641 1.495 . S
C1638 C1637 1.392 . S
C1638 C1639 1.385 . S
C1638 C1640 1.478 . S
C1639 H1633 0.930 . S
C1639 C1635 1.400 . S
C1639 C1638 1.385 . S
C1640 C1638 1.478 . S
C1640 C1642 1.381 . S
C1640 C1646 1.383 . S
C1641 C1637 1.495 . S
C1641 H1647 0.959 . S
C1641 H1648 0.961 . S
C1641 H1649 0.960 . S
C1642 C1640 1.381 . S
C1642 C1643 1.394 . S
C1642 H1650 0.930 . S
C1643 C1642 1.394 . S
C1643 C1644 1.383 . S
C1643 H1651 0.929 . S
C1644 C1643 1.383 . S
C1644 C1645 1.377 . S
C1645 H1629 0.930 . S
C1645 C1644 1.377 . S
C1645 C1646 1.379 . S
C1646 H1630 0.931 . S
C1646 C1640 1.383 . S
C1646 C1645 1.379 . S
H1647 C1641 0.959 . S
H1648 C1641 0.961 . S
H1649 C1641 0.960 . S
H1650 C1642 0.930 . S
H1651 C1643 0.929 . S
H1652 C1660 0.929 . S
H1653 C1662 0.930 . S
H1654 C1664 0.930 . S
H1655 C1667 0.929 . S
H1656 C1670 0.930 . S
H1657 C1672 0.960 . S
H1658 C1672 0.960 . S
H1659 C1672 0.960 . S
C1660 H1652 0.929 . S
C1660 C1661 1.377 . S
C1660 C1662 1.384 . S
C1661 C1660 1.377 . S
C1661 C1667 1.390 . S
C1662 H1653 0.930 . S
C1662 C1660 1.384 . S
C1662 C1663 1.372 . S
C1663 C1662 1.372 . S
C1663 C1664 1.400 . S
C1663 C1668 1.490 . S
C1664 H1654 0.930 . S
C1664 C1663 1.400 . S
C1664 C1667 1.386 . S
H1665 C1681 0.930 . S
H1666 C1682 0.931 . S
C1667 H1655 0.929 . S
C1667 C1661 1.390 . S
C1667 C1664 1.386 . S
C1668 C1663 1.490 . S
C1668 C1670 1.395 . S
C1668 C1671 1.403 . S
H1669 C1675 0.930 . S
C1670 H1656 0.930 . S
C1670 C1668 1.395 . S
C1670 C1673 1.403 . S
C1671 C1668 1.403 . S
C1671 C1672 1.524 . S
C1671 C1675 1.400 . S
C1672 H1657 0.960 . S
C1672 H1658 0.960 . S
C1672 H1659 0.960 . S
C1672 C1671 1.524 . S
C1673 C1670 1.403 . S
C1673 C1674 1.392 . S
C1673 C1677 1.495 . S
C1674 C1673 1.392 . S
C1674 C1675 1.385 . S
C1674 C1676 1.478 . S
C1675 H1669 0.930 . S
C1675 C1671 1.400 . S
C1675 C1674 1.385 . S
C1676 C1674 1.478 . S
C1676 C1678 1.381 . S
C1676 C1682 1.383 . S
C1677 C1673 1.495 . S
C1677 H1683 0.959 . S
C1677 H1684 0.961 . S
C1677 H1685 0.960 . S
C1678 C1676 1.381 . S
C1678 C1679 1.394 . S
C1678 H1686 0.930 . S
C1679 C1678 1.394 . S
C1679 C1680 1.383 . S
C1679 H1687 0.929 . S
C1680 C1679 1.383 . S
C1680 C1681 1.377 . S
C1681 H1665 0.930 . S
C1681 C1680 1.377 . S
C1681 C1682 1.379 . S
C1682 H1666 0.931 . S
C1682 C1676 1.383 . S
C1682 C1681 1.379 . S
H1683 C1677 0.959 . S
H1684 C1677 0.961 . S
H1685 C1677 0.960 . S
H1686 C1678 0.930 . S
H1687 C1679 0.929 . S
H1688 C1696 0.929 . S
H1689 C1698 0.930 . S
H1690 C1700 0.930 . S
H1691 C1703 0.929 . S
H1692 C1706 0.930 . S
H1693 C1708 0.960 . S
H1694 C1708 0.960 . S
H1695 C1708 0.960 . S
C1696 H1688 0.929 . S
C1696 C1697 1.377 . S
C1696 C1698 1.384 . S
C1697 C1696 1.377 . S
C1697 C1703 1.390 . S
C1698 H1689 0.930 . S
C1698 C1696 1.384 . S
C1698 C1699 1.372 . S
C1699 C1698 1.372 . S
C1699 C1700 1.400 . S
C1699 C1704 1.490 . S
C1700 H1690 0.930 . S
C1700 C1699 1.400 . S
C1700 C1703 1.386 . S
H1701 C1717 0.930 . S
H1702 C1718 0.931 . S
C1703 H1691 0.929 . S
C1703 C1697 1.390 . S
C1703 C1700 1.386 . S
C1704 C1699 1.490 . S
C1704 C1706 1.395 . S
C1704 C1707 1.403 . S
H1705 C1711 0.930 . S
C1706 H1692 0.930 . S
C1706 C1704 1.395 . S
C1706 C1709 1.403 . S
C1707 C1704 1.403 . S
C1707 C1708 1.524 . S
C1707 C1711 1.400 . S
C1708 H1693 0.960 . S
C1708 H1694 0.960 . S
C1708 H1695 0.960 . S
C1708 C1707 1.524 . S
C1709 C1706 1.403 . S
C1709 C1710 1.392 . S
C1709 C1713 1.495 . S
C1710 C1709 1.392 . S
C1710 C1711 1.385 . S
C1710 C1712 1.478 . S
C1711 H1705 0.930 . S
C1711 C1707 1.400 . S
C1711 C1710 1.385 . S
C1712 C1710 1.478 . S
C1712 C1714 1.381 . S
C1712 C1718 1.383 . S
C1713 C1709 1.495 . S
C1713 H1719 0.959 . S
C1713 H1720 0.961 . S
C1713 H1721 0.960 . S
C1714 C1712 1.381 . S
C1714 C1715 1.394 . S
C1714 H1722 0.930 . S
C1715 C1714 1.394 . S
C1715 C1716 1.383 . S
C1715 H1723 0.929 . S
C1716 C1715 1.383 . S
C1716 C1717 1.377 . S
C1717 H1701 0.930 . S
C1717 C1716 1.377 . S
C1717 C1718 1.379 . S
C1718 H1702 0.931 . S
C1718 C1712 1.383 . S
C1718 C1717 1.379 . S
H1719 C1713 0.959 . S
H1720 C1713 0.961 . S
H1721 C1713 0.960 . S
H1722 C1714 0.930 . S
H1723 C1715 0.929 . S
H1724 C1732 0.929 . S
H1725 C1734 0.930 . S
H1726 C1736 0.930 . S
H1727 C1739 0.929 . S
H1728 C1742 0.930 . S
H1729 C1744 0.960 . S
H1730 C1744 0.960 . S
H1731 C1744 0.960 . S
C1732 H1724 0.929 . S
C1732 C1733 1.377 . S
C1732 C1734 1.384 . S
C1733 C1732 1.377 . S
C1733 C1739 1.390 . S
C1734 H1725 0.930 . S
C1734 C1732 1.384 . S
C1734 C1735 1.372 . S
C1735 C1734 1.372 . S
C1735 C1736 1.400 . S
C1735 C1740 1.490 . S
C1736 H1726 0.930 . S
C1736 C1735 1.400 . S
C1736 C1739 1.386 . S
H1737 C1753 0.930 . S
H1738 C1754 0.931 . S
C1739 H1727 0.929 . S
C1739 C1733 1.390 . S
C1739 C1736 1.386 . S
C1740 C1735 1.490 . S
C1740 C1742 1.395 . S
C1740 C1743 1.403 . S
H1741 C1747 0.930 . S
C1742 H1728 0.930 . S
C1742 C1740 1.395 . S
C1742 C1745 1.403 . S
C1743 C1740 1.403 . S
C1743 C1744 1.524 . S
C1743 C1747 1.400 . S
C1744 H1729 0.960 . S
C1744 H1730 0.960 . S
C1744 H1731 0.960 . S
C1744 C1743 1.524 . S
C1745 C1742 1.403 . S
C1745 C1746 1.392 . S
C1745 C1749 1.495 . S
C1746 C1745 1.392 . S
C1746 C1747 1.385 . S
C1746 C1748 1.478 . S
C1747 H1741 0.930 . S
C1747 C1743 1.400 . S
C1747 C1746 1.385 . S
C1748 C1746 1.478 . S
C1748 C1750 1.381 . S
C1748 C1754 1.383 . S
C1749 C1745 1.495 . S
C1749 H1755 0.959 . S
C1749 H1756 0.961 . S
C1749 H1757 0.960 . S
C1750 C1748 1.381 . S
C1750 C1751 1.394 . S
C1750 H1758 0.930 . S
C1751 C1750 1.394 . S
C1751 C1752 1.383 . S
C1751 H1759 0.929 . S
C1752 C1751 1.383 . S
C1752 C1753 1.377 . S
C1753 H1737 0.930 . S
C1753 C1752 1.377 . S
C1753 C1754 1.379 . S
C1754 H1738 0.931 . S
C1754 C1748 1.383 . S
C1754 C1753 1.379 . S
H1755 C1749 0.959 . S
H1756 C1749 0.961 . S
H1757 C1749 0.960 . S
H1758 C1750 0.930 . S
H1759 C1751 0.929 . S
C636 C213 1.498 . S
C617 C16 1.507 . S
C672 C266 1.315 . S
C653 C30 1.326 . S
C708 C329 1.582 . S
C689 C53 1.591 . S
C744 C372 1.315 . S
C725 C76 1.320 . S
C761 N104 1.461 . S
C780 C328 1.496 . S
C816 C365 1.309 . S
C797 N127 1.272 . S
C852 C206 1.420 . S
C833 N140 1.390 . S
C888 C259 1.175 . S
C869 N173 1.154 . S
C924 C312 1.509 . S
C905 C168 1.511 . S
C960 C381 1.853 . S
C941 C99 1.858 . S
C996 C222 1.588 . S
C977 C122 1.595 . S
C1032 C275 1.735 . S
C1013 C154 1.735 . S
C1068 C223 1.510 . S
C1049 N35 1.480 . S
C1104 C276 1.733 . S
C1085 N58 1.689 . S
C1140 C319 1.435 . S
C1121 N81 1.403 . S
C1176 C382 1.685 . S
C1157 N2 1.657 . S
C1212 C425 1.463 . S
C1193 C177 1.466 . S
C1229 C108 1.717 . S
C1248 C478 1.720 . S
C1265 C131 1.617 . S
C1284 C540 1.611 . S
C1301 C145 1.729 . S
C1320 C594 1.719 . S
C1337 N25 1.439 . S
C1356 C541 1.471 . S
C1373 N48 1.680 . S
C1392 C593 1.724 . S
C1409 N71 1.430 . S
C1428 C418 1.462 . S
C1464 C471 1.567 . S
C1445 N12 1.530 . S
C1500 C531 1.476 . S
C1481 C7 1.481 . S
C1517 C39 1.380 . S
C1536 C577 1.381 . S
C1553 C62 1.623 . S
C1572 C434 1.621 . S
C1589 C85 1.331 . S
C1608 C487 1.333 . S
C1644 C435 1.473 . S
C1625 N94 1.448 . S
C1680 C488 1.351 . S
C1661 N117 1.321 . S
C1697 N150 1.435 . S
C1716 C524 1.464 . S
C1752 C584 1.246 . S
C1733 N163 1.222 . S
