# Generated by pormake.
# Topology gar, (4,6)-cn, num edge types: 1
# Building blocks:
#     Node 0, Type 0, BuildingBlock: QUQFOY_clean_sbu_1, # of connection points: 4
#     Node 1, Type 0, BuildingBlock: QUQFOY_clean_sbu_1, # of connection points: 4
#     Node 2, Type 0, BuildingBlock: QUQFOY_clean_sbu_1, # of connection points: 4
#     Node 3, Type 0, BuildingBlock: QUQFOY_clean_sbu_1, # of connection points: 4
#     Node 4, Type 0, BuildingBlock: QUQFOY_clean_sbu_1, # of connection points: 4
#     Node 5, Type 0, BuildingBlock: QUQFOY_clean_sbu_1, # of connection points: 4
#     Node 6, Type 0, BuildingBlock: QUQFOY_clean_sbu_1, # of connection points: 4
#     Node 7, Type 0, BuildingBlock: QUQFOY_clean_sbu_1, # of connection points: 4
#     Node 8, Type 0, BuildingBlock: QUQFOY_clean_sbu_1, # of connection points: 4
#     Node 9, Type 0, BuildingBlock: QUQFOY_clean_sbu_1, # of connection points: 4
#     Node 10, Type 0, BuildingBlock: QUQFOY_clean_sbu_1, # of connection points: 4
#     Node 11, Type 0, BuildingBlock: QUQFOY_clean_sbu_1, # of connection points: 4
#     Node 12, Type 0, BuildingBlock: QUQFOY_clean_sbu_1, # of connection points: 4
#     Node 13, Type 0, BuildingBlock: QUQFOY_clean_sbu_1, # of connection points: 4
#     Node 14, Type 0, BuildingBlock: QUQFOY_clean_sbu_1, # of connection points: 4
#     Node 15, Type 0, BuildingBlock: QUQFOY_clean_sbu_1, # of connection points: 4
#     Node 16, Type 0, BuildingBlock: QUQFOY_clean_sbu_1, # of connection points: 4
#     Node 17, Type 0, BuildingBlock: QUQFOY_clean_sbu_1, # of connection points: 4
#     Node 18, Type 0, BuildingBlock: QUQFOY_clean_sbu_1, # of connection points: 4
#     Node 19, Type 0, BuildingBlock: QUQFOY_clean_sbu_1, # of connection points: 4
#     Node 20, Type 0, BuildingBlock: QUQFOY_clean_sbu_1, # of connection points: 4
#     Node 21, Type 0, BuildingBlock: QUQFOY_clean_sbu_1, # of connection points: 4
#     Node 22, Type 0, BuildingBlock: QUQFOY_clean_sbu_1, # of connection points: 4
#     Node 23, Type 0, BuildingBlock: QUQFOY_clean_sbu_1, # of connection points: 4
#     Node 24, Type 1, BuildingBlock: BETDEL_clean_sbu_0, # of connection points: 6
#     Node 25, Type 1, BuildingBlock: BETDEL_clean_sbu_0, # of connection points: 6
#     Node 26, Type 1, BuildingBlock: BETDEL_clean_sbu_0, # of connection points: 6
#     Node 27, Type 1, BuildingBlock: BETDEL_clean_sbu_0, # of connection points: 6
#     Node 28, Type 1, BuildingBlock: BETDEL_clean_sbu_0, # of connection points: 6
#     Node 29, Type 1, BuildingBlock: BETDEL_clean_sbu_0, # of connection points: 6
#     Node 30, Type 1, BuildingBlock: BETDEL_clean_sbu_0, # of connection points: 6
#     Node 31, Type 1, BuildingBlock: BETDEL_clean_sbu_0, # of connection points: 6
#     Node 32, Type 1, BuildingBlock: BETDEL_clean_sbu_0, # of connection points: 6
#     Node 33, Type 1, BuildingBlock: BETDEL_clean_sbu_0, # of connection points: 6
#     Node 34, Type 1, BuildingBlock: BETDEL_clean_sbu_0, # of connection points: 6
#     Node 35, Type 1, BuildingBlock: BETDEL_clean_sbu_0, # of connection points: 6
#     Node 36, Type 1, BuildingBlock: BETDEL_clean_sbu_0, # of connection points: 6
#     Node 37, Type 1, BuildingBlock: BETDEL_clean_sbu_0, # of connection points: 6
#     Node 38, Type 1, BuildingBlock: BETDEL_clean_sbu_0, # of connection points: 6
#     Node 39, Type 1, BuildingBlock: BETDEL_clean_sbu_0, # of connection points: 6
#     Edge 40, Type (0, 1), BuildingBlock: TEMPAE_clean_linker_10, # of connection points: 2
#     Edge 41, Type (0, 1), BuildingBlock: TEMPAE_clean_linker_10, # of connection points: 2
#     Edge 42, Type (0, 1), BuildingBlock: TEMPAE_clean_linker_10, # of connection points: 2
#     Edge 43, Type (0, 1), BuildingBlock: TEMPAE_clean_linker_10, # of connection points: 2
#     Edge 44, Type (0, 1), BuildingBlock: TEMPAE_clean_linker_10, # of connection points: 2
#     Edge 45, Type (0, 1), BuildingBlock: TEMPAE_clean_linker_10, # of connection points: 2
#     Edge 46, Type (0, 1), BuildingBlock: TEMPAE_clean_linker_10, # of connection points: 2
#     Edge 47, Type (0, 1), BuildingBlock: TEMPAE_clean_linker_10, # of connection points: 2
#     Edge 48, Type (0, 1), BuildingBlock: TEMPAE_clean_linker_10, # of connection points: 2
#     Edge 49, Type (0, 1), BuildingBlock: TEMPAE_clean_linker_10, # of connection points: 2
#     Edge 50, Type (0, 1), BuildingBlock: TEMPAE_clean_linker_10, # of connection points: 2
#     Edge 51, Type (0, 1), BuildingBlock: TEMPAE_clean_linker_10, # of connection points: 2
#     Edge 52, Type (0, 1), BuildingBlock: TEMPAE_clean_linker_10, # of connection points: 2
#     Edge 53, Type (0, 1), BuildingBlock: TEMPAE_clean_linker_10, # of connection points: 2
#     Edge 54, Type (0, 1), BuildingBlock: TEMPAE_clean_linker_10, # of connection points: 2
#     Edge 55, Type (0, 1), BuildingBlock: TEMPAE_clean_linker_10, # of connection points: 2
#     Edge 56, Type (0, 1), BuildingBlock: TEMPAE_clean_linker_10, # of connection points: 2
#     Edge 57, Type (0, 1), BuildingBlock: TEMPAE_clean_linker_10, # of connection points: 2
#     Edge 58, Type (0, 1), BuildingBlock: TEMPAE_clean_linker_10, # of connection points: 2
#     Edge 59, Type (0, 1), BuildingBlock: TEMPAE_clean_linker_10, # of connection points: 2
#     Edge 60, Type (0, 1), BuildingBlock: TEMPAE_clean_linker_10, # of connection points: 2
#     Edge 61, Type (0, 1), BuildingBlock: TEMPAE_clean_linker_10, # of connection points: 2
#     Edge 62, Type (0, 1), BuildingBlock: TEMPAE_clean_linker_10, # of connection points: 2
#     Edge 63, Type (0, 1), BuildingBlock: TEMPAE_clean_linker_10, # of connection points: 2
#     Edge 64, Type (0, 1), BuildingBlock: TEMPAE_clean_linker_10, # of connection points: 2
#     Edge 65, Type (0, 1), BuildingBlock: TEMPAE_clean_linker_10, # of connection points: 2
#     Edge 66, Type (0, 1), BuildingBlock: TEMPAE_clean_linker_10, # of connection points: 2
#     Edge 67, Type (0, 1), BuildingBlock: TEMPAE_clean_linker_10, # of connection points: 2
#     Edge 68, Type (0, 1), BuildingBlock: TEMPAE_clean_linker_10, # of connection points: 2
#     Edge 69, Type (0, 1), BuildingBlock: TEMPAE_clean_linker_10, # of connection points: 2
#     Edge 70, Type (0, 1), BuildingBlock: TEMPAE_clean_linker_10, # of connection points: 2
#     Edge 71, Type (0, 1), BuildingBlock: TEMPAE_clean_linker_10, # of connection points: 2
#     Edge 72, Type (0, 1), BuildingBlock: TEMPAE_clean_linker_10, # of connection points: 2
#     Edge 73, Type (0, 1), BuildingBlock: TEMPAE_clean_linker_10, # of connection points: 2
#     Edge 74, Type (0, 1), BuildingBlock: TEMPAE_clean_linker_10, # of connection points: 2
#     Edge 75, Type (0, 1), BuildingBlock: TEMPAE_clean_linker_10, # of connection points: 2
#     Edge 76, Type (0, 1), BuildingBlock: TEMPAE_clean_linker_10, # of connection points: 2
#     Edge 77, Type (0, 1), BuildingBlock: TEMPAE_clean_linker_10, # of connection points: 2
#     Edge 78, Type (0, 1), BuildingBlock: TEMPAE_clean_linker_10, # of connection points: 2
#     Edge 79, Type (0, 1), BuildingBlock: TEMPAE_clean_linker_10, # of connection points: 2
#     Edge 80, Type (0, 1), BuildingBlock: TEMPAE_clean_linker_10, # of connection points: 2
#     Edge 81, Type (0, 1), BuildingBlock: TEMPAE_clean_linker_10, # of connection points: 2
#     Edge 82, Type (0, 1), BuildingBlock: TEMPAE_clean_linker_10, # of connection points: 2
#     Edge 83, Type (0, 1), BuildingBlock: TEMPAE_clean_linker_10, # of connection points: 2
#     Edge 84, Type (0, 1), BuildingBlock: TEMPAE_clean_linker_10, # of connection points: 2
#     Edge 85, Type (0, 1), BuildingBlock: TEMPAE_clean_linker_10, # of connection points: 2
#     Edge 86, Type (0, 1), BuildingBlock: TEMPAE_clean_linker_10, # of connection points: 2
#     Edge 87, Type (0, 1), BuildingBlock: TEMPAE_clean_linker_10, # of connection points: 2
#     Edge 88, Type (0, 1), BuildingBlock: TEMPAE_clean_linker_10, # of connection points: 2
#     Edge 89, Type (0, 1), BuildingBlock: TEMPAE_clean_linker_10, # of connection points: 2
#     Edge 90, Type (0, 1), BuildingBlock: TEMPAE_clean_linker_10, # of connection points: 2
#     Edge 91, Type (0, 1), BuildingBlock: TEMPAE_clean_linker_10, # of connection points: 2
#     Edge 92, Type (0, 1), BuildingBlock: TEMPAE_clean_linker_10, # of connection points: 2
#     Edge 93, Type (0, 1), BuildingBlock: TEMPAE_clean_linker_10, # of connection points: 2
#     Edge 94, Type (0, 1), BuildingBlock: TEMPAE_clean_linker_10, # of connection points: 2
#     Edge 95, Type (0, 1), BuildingBlock: TEMPAE_clean_linker_10, # of connection points: 2
#     Edge 96, Type (0, 1), BuildingBlock: TEMPAE_clean_linker_10, # of connection points: 2
#     Edge 97, Type (0, 1), BuildingBlock: TEMPAE_clean_linker_10, # of connection points: 2
#     Edge 98, Type (0, 1), BuildingBlock: TEMPAE_clean_linker_10, # of connection points: 2
#     Edge 99, Type (0, 1), BuildingBlock: TEMPAE_clean_linker_10, # of connection points: 2
#     Edge 100, Type (0, 1), BuildingBlock: TEMPAE_clean_linker_10, # of connection points: 2
#     Edge 101, Type (0, 1), BuildingBlock: TEMPAE_clean_linker_10, # of connection points: 2
#     Edge 102, Type (0, 1), BuildingBlock: TEMPAE_clean_linker_10, # of connection points: 2
#     Edge 103, Type (0, 1), BuildingBlock: TEMPAE_clean_linker_10, # of connection points: 2
#     Edge 104, Type (0, 1), BuildingBlock: TEMPAE_clean_linker_10, # of connection points: 2
#     Edge 105, Type (0, 1), BuildingBlock: TEMPAE_clean_linker_10, # of connection points: 2
#     Edge 106, Type (0, 1), BuildingBlock: TEMPAE_clean_linker_10, # of connection points: 2
#     Edge 107, Type (0, 1), BuildingBlock: TEMPAE_clean_linker_10, # of connection points: 2
#     Edge 108, Type (0, 1), BuildingBlock: TEMPAE_clean_linker_10, # of connection points: 2
#     Edge 109, Type (0, 1), BuildingBlock: TEMPAE_clean_linker_10, # of connection points: 2
#     Edge 110, Type (0, 1), BuildingBlock: TEMPAE_clean_linker_10, # of connection points: 2
#     Edge 111, Type (0, 1), BuildingBlock: TEMPAE_clean_linker_10, # of connection points: 2
#     Edge 112, Type (0, 1), BuildingBlock: TEMPAE_clean_linker_10, # of connection points: 2
#     Edge 113, Type (0, 1), BuildingBlock: TEMPAE_clean_linker_10, # of connection points: 2
#     Edge 114, Type (0, 1), BuildingBlock: TEMPAE_clean_linker_10, # of connection points: 2
#     Edge 115, Type (0, 1), BuildingBlock: TEMPAE_clean_linker_10, # of connection points: 2
#     Edge 116, Type (0, 1), BuildingBlock: TEMPAE_clean_linker_10, # of connection points: 2
#     Edge 117, Type (0, 1), BuildingBlock: TEMPAE_clean_linker_10, # of connection points: 2
#     Edge 118, Type (0, 1), BuildingBlock: TEMPAE_clean_linker_10, # of connection points: 2
#     Edge 119, Type (0, 1), BuildingBlock: TEMPAE_clean_linker_10, # of connection points: 2
#     Edge 120, Type (0, 1), BuildingBlock: TEMPAE_clean_linker_10, # of connection points: 2
#     Edge 121, Type (0, 1), BuildingBlock: TEMPAE_clean_linker_10, # of connection points: 2
#     Edge 122, Type (0, 1), BuildingBlock: TEMPAE_clean_linker_10, # of connection points: 2
#     Edge 123, Type (0, 1), BuildingBlock: TEMPAE_clean_linker_10, # of connection points: 2
#     Edge 124, Type (0, 1), BuildingBlock: TEMPAE_clean_linker_10, # of connection points: 2
#     Edge 125, Type (0, 1), BuildingBlock: TEMPAE_clean_linker_10, # of connection points: 2
#     Edge 126, Type (0, 1), BuildingBlock: TEMPAE_clean_linker_10, # of connection points: 2
#     Edge 127, Type (0, 1), BuildingBlock: TEMPAE_clean_linker_10, # of connection points: 2
#     Edge 128, Type (0, 1), BuildingBlock: TEMPAE_clean_linker_10, # of connection points: 2
#     Edge 129, Type (0, 1), BuildingBlock: TEMPAE_clean_linker_10, # of connection points: 2
#     Edge 130, Type (0, 1), BuildingBlock: TEMPAE_clean_linker_10, # of connection points: 2
#     Edge 131, Type (0, 1), BuildingBlock: TEMPAE_clean_linker_10, # of connection points: 2
#     Edge 132, Type (0, 1), BuildingBlock: TEMPAE_clean_linker_10, # of connection points: 2
#     Edge 133, Type (0, 1), BuildingBlock: TEMPAE_clean_linker_10, # of connection points: 2
#     Edge 134, Type (0, 1), BuildingBlock: TEMPAE_clean_linker_10, # of connection points: 2
#     Edge 135, Type (0, 1), BuildingBlock: TEMPAE_clean_linker_10, # of connection points: 2
# Relax obj value: 0.156
# Max RMSD: 0.275
# Mean RMSD: 0.181
data_MOF--net-gar--node1-QUQFOY_clean_sbu_1--node2-BETDEL_clean_sbu_0--edge1-TEMPAE_clean_linker_10
_symmetry_space_group_name_H-M    P1
_symmetry_Int_Tables_number       1
_symmetry_cell_setting            triclinic
loop_
_symmetry_equiv_pos_as_xyz
'x, y, z'
_cell_length_a     57.626497
_cell_length_b     54.859026
_cell_length_c     56.324828
_cell_angle_alpha  95.942658
_cell_angle_beta   93.086816
_cell_angle_gamma 103.67467
loop_
_atom_site_label
_atom_site_type_symbol
_atom_site_fract_x
_atom_site_fract_y
_atom_site_fract_z
_atom_type_partial_charge
O0 O 0.03479 0.2309 0.41198 0.0
Cd1 Cd 0.03666 0.25977 0.39026 0.0
Cd2 Cd 0.02402 0.28307 0.43135 0.0
O3 O 0.03169 0.25301 0.44609 0.0
O4 O 0.05189 0.24884 0.36142 0.0
O5 O 0.0694 0.28199 0.38743 0.0
C6 C 0.07022 0.26736 0.36813 0.0
C7 C 0.03884 0.32344 0.45154 0.0
C8 C 0.03435 0.23281 0.43467 0.0
C9 C 0.98967 0.27517 0.38852 0.0
O10 O 0.99202 0.27849 0.41122 0.0
O11 O 0.00626 0.2696 0.37669 0.0
O12 O 0.0217 0.30726 0.45921 0.0
O13 O 0.04829 0.31636 0.43254 0.0
O14 O 0.97028 0.71532 0.61905 0.0
Cd15 Cd 0.98029 0.74775 0.64333 0.0
Cd16 Cd 0.99506 0.77027 0.60481 0.0
O17 O 0.97814 0.73537 0.58738 0.0
O18 O 0.96209 0.74222 0.67224 0.0
O19 O 0.95769 0.77038 0.64793 0.0
C20 C 0.95168 0.75951 0.66675 0.0
C21 C 0.98902 0.80554 0.58733 0.0
C22 C 0.97065 0.71497 0.59646 0.0
C23 C 0.03314 0.76674 0.64213 0.0
O24 O 0.02852 0.77218 0.62127 0.0
O25 O 0.01624 0.75855 0.65505 0.0
O26 O 0.00167 0.79123 0.57788 0.0
O27 O 0.97977 0.79998 0.60705 0.0
O28 O 0.57675 0.77224 0.89561 0.0
Cd29 Cd 0.55624 0.7731 0.92431 0.0
Cd30 Cd 0.52628 0.78856 0.88846 0.0
O31 O 0.55302 0.78124 0.86741 0.0
O32 O 0.56852 0.75262 0.94702 0.0
O33 O 0.53139 0.74221 0.93009 0.0
C34 C 0.54767 0.73709 0.94409 0.0
C35 C 0.48737 0.78289 0.87048 0.0
C36 C 0.57238 0.77558 0.87399 0.0
C37 C 0.54586 0.82326 0.93544 0.0
O38 O 0.5338 0.81857 0.91524 0.0
O39 O 0.5568 0.8076 0.94286 0.0
O40 O 0.50487 0.80074 0.86593 0.0
O41 O 0.49214 0.76712 0.8844 0.0
O42 O 0.47694 0.21595 0.11928 0.0
Cd43 Cd 0.4869 0.24647 0.14553 0.0
Cd44 Cd 0.51137 0.27076 0.11127 0.0
O45 O 0.49741 0.23576 0.09202 0.0
O46 O 0.46476 0.24078 0.17158 0.0
O47 O 0.46689 0.27204 0.14925 0.0
C48 C 0.45745 0.26023 0.16642 0.0
C49 C 0.50934 0.30581 0.09137 0.0
C50 C 0.48408 0.21589 0.0983 0.0
C51 C 0.54068 0.26357 0.15451 0.0
O52 O 0.54078 0.27355 0.13511 0.0
O53 O 0.52103 0.25213 0.16188 0.0
O54 O 0.52415 0.29219 0.08608 0.0
O55 O 0.49569 0.29972 0.10836 0.0
O56 O 0.02311 0.74931 0.1452 0.0
Cd57 Cd 0.02741 0.78125 0.16957 0.0
Cd58 Cd 0.0532 0.80393 0.13621 0.0
O59 O 0.04584 0.76767 0.11873 0.0
O60 O 0.00192 0.77214 0.19196 0.0
O61 O 0.00467 0.8041 0.17042 0.0
C62 C 0.99374 0.79074 0.18591 0.0
C63 C 0.04377 0.83529 0.11539 0.0
C64 C 0.03302 0.74789 0.12565 0.0
C65 C 0.07939 0.80585 0.18394 0.0
O66 O 0.08058 0.81326 0.16326 0.0
O67 O 0.05977 0.79269 0.18992 0.0
O68 O 0.06204 0.82636 0.11079 0.0
O69 O 0.0309 0.82661 0.13215 0.0
O70 O 0.54327 0.76213 0.37099 0.0
Cd71 Cd 0.51644 0.7639 0.39396 0.0
Cd72 Cd 0.49988 0.78435 0.35206 0.0
O73 O 0.53062 0.7775 0.33922 0.0
O74 O 0.52755 0.74999 0.42264 0.0
O75 O 0.49486 0.73049 0.39956 0.0
C76 C 0.50949 0.73082 0.41786 0.0
C77 C 0.46457 0.77322 0.32695 0.0
C78 C 0.54581 0.76821 0.34992 0.0
C79 C 0.50618 0.81645 0.39956 0.0
O80 O 0.50258 0.81504 0.37699 0.0
O81 O 0.51082 0.79805 0.40932 0.0
O82 O 0.48176 0.79224 0.32406 0.0
O83 O 0.46771 0.75984 0.34388 0.0
O84 O 0.52252 0.2547 0.64836 0.0
Cd85 Cd 0.52603 0.28662 0.67262 0.0
Cd86 Cd 0.55178 0.30953 0.63893 0.0
O87 O 0.54462 0.27324 0.62155 0.0
O88 O 0.50067 0.27642 0.69498 0.0
O89 O 0.50206 0.30819 0.67345 0.0
C90 C 0.49154 0.29436 0.68882 0.0
C91 C 0.54207 0.34048 0.61751 0.0
C92 C 0.53223 0.25336 0.62868 0.0
C93 C 0.57807 0.31191 0.68687 0.0
O94 O 0.57926 0.31891 0.66602 0.0
O95 O 0.5584 0.299 0.69304 0.0
O96 O 0.5605 0.33171 0.61324 0.0
O97 O 0.52929 0.33204 0.63443 0.0
O98 O 0.9919 0.20541 0.88147 0.0
Cd99 Cd 0.99177 0.22907 0.85511 0.0
Cd100 Cd 0.974 0.25609 0.89253 0.0
O101 O 0.98479 0.23048 0.912 0.0
O102 O 0.0099 0.21583 0.82963 0.0
O103 O 0.02303 0.25335 0.85078 0.0
C104 C 0.02645 0.23645 0.83448 0.0
C105 C 0.98247 0.29818 0.9097 0.0
C106 C 0.9902 0.21028 0.9038 0.0
C107 C 0.94195 0.23659 0.84736 0.0
O108 O 0.94339 0.24457 0.8695 0.0
O109 O 0.95989 0.23132 0.83772 0.0
O110 O 0.96607 0.28098 0.91709 0.0
O111 O 0.99452 0.2914 0.89258 0.0
O112 O 0.40579 0.06505 0.23679 0.0
Cd113 Cd 0.38397 0.05726 0.26436 0.0
Cd114 Cd 0.42569 0.05027 0.28699 0.0
O115 O 0.43926 0.06276 0.25634 0.0
O116 O 0.35318 0.06411 0.2534 0.0
O117 O 0.37575 0.0854 0.28547 0.0
C118 C 0.3563 0.08114 0.27157 0.0
C119 C 0.44982 0.06506 0.32249 0.0
C120 C 0.42824 0.06697 0.23767 0.0
C121 C 0.38343 0.00582 0.27902 0.0
O122 O 0.40561 0.01353 0.28553 0.0
O123 O 0.37194 0.02064 0.27095 0.0
O124 O 0.45501 0.04926 0.30635 0.0
O125 O 0.43085 0.0731 0.31827 0.0
O126 O 0.27256 0.16505 0.53934 0.0
Cd127 Cd 0.26858 0.13803 0.50981 0.0
Cd128 Cd 0.25104 0.17612 0.48962 0.0
O129 O 0.25993 0.19553 0.52393 0.0
O130 O 0.28677 0.11401 0.5215 0.0
O131 O 0.29593 0.13365 0.48976 0.0
C132 C 0.30042 0.11829 0.50427 0.0
C133 C 0.2609 0.19616 0.45506 0.0
C134 C 0.26789 0.18669 0.5419 0.0
C135 C 0.21655 0.12481 0.49199 0.0
O136 O 0.22007 0.14727 0.48656 0.0
O137 O 0.23385 0.11678 0.50055 0.0
O138 O 0.24329 0.19971 0.46701 0.0
O139 O 0.27354 0.1817 0.46298 0.0
O140 O 0.15148 0.0115 0.74757 0.0
Cd141 Cd 0.17155 0.01213 0.77928 0.0
Cd142 Cd 0.13302 0.02791 0.79779 0.0
O143 O 0.11863 0.01851 0.76247 0.0
O144 O 0.1972 0.99472 0.76998 0.0
O145 O 0.17074 0.9804 0.7952 0.0
C146 C 0.18895 0.97781 0.78365 0.0
C147 C 0.10921 0.01705 0.82966 0.0
C148 C 0.13025 0.01426 0.74454 0.0
C149 C 0.18101 0.06599 0.8013 0.0
O150 O 0.15869 0.06187 0.80399 0.0
O151 O 0.1901 0.04802 0.79351 0.0
O152 O 0.10576 0.03382 0.81636 0.0
O153 O 0.12595 0.00579 0.82456 0.0
O154 O 0.23859 0.89973 0.04548 0.0
Cd155 Cd 0.24464 0.92174 0.01778 0.0
Cd156 Cd 0.24903 0.87717 0.99425 0.0
O157 O 0.23262 0.86305 0.0231 0.0
O158 O 0.23676 0.95397 0.02948 0.0
O159 O 0.21648 0.92775 0.9987 0.0
C160 C 0.21956 0.9486 0.01278 0.0
C161 C 0.2377 0.85455 0.95658 0.0
C162 C 0.23231 0.87574 0.04319 0.0
C163 C 0.29289 0.91949 0.00296 0.0
O164 O 0.28478 0.89572 0.99882 0.0
O165 O 0.27905 0.93363 0.0086 0.0
O166 O 0.24894 0.84603 0.97294 0.0
O167 O 0.23209 0.87582 0.96179 0.0
O168 O 0.25433 0.39176 0.07893 0.0
Cd169 Cd 0.25501 0.41506 0.05175 0.0
Cd170 Cd 0.26767 0.37395 0.0276 0.0
O171 O 0.25428 0.35613 0.05661 0.0
O172 O 0.24015 0.443 0.06401 0.0
O173 O 0.22424 0.41527 0.03272 0.0
C174 C 0.22327 0.43491 0.04708 0.0
C175 C 0.25913 0.35564 0.9875 0.0
C176 C 0.25256 0.36802 0.07684 0.0
C177 C 0.30495 0.42292 0.03673 0.0
O178 O 0.30097 0.39899 0.03332 0.0
O179 O 0.28811 0.43346 0.04168 0.0
O180 O 0.27241 0.34741 0.00237 0.0
O181 O 0.24931 0.3733 0.99581 0.0
O182 O 0.80378 0.16798 0.07611 0.0
Cd183 Cd 0.7942 0.13923 0.04819 0.0
Cd184 Cd 0.78255 0.17447 0.02251 0.0
O185 O 0.79373 0.19599 0.05488 0.0
O186 O 0.80773 0.11075 0.05597 0.0
O187 O 0.81784 0.13216 0.02518 0.0
C188 C 0.81964 0.11387 0.03733 0.0
C189 C 0.79314 0.19519 0.9892 0.0
C190 C 0.80144 0.19023 0.07455 0.0
C191 C 0.74294 0.13007 0.02905 0.0
O192 O 0.74895 0.15037 0.0195 0.0
O193 O 0.75841 0.12252 0.04128 0.0
O194 O 0.778 0.20137 0.00316 0.0
O195 O 0.80243 0.17685 0.99395 0.0
O196 O 0.1105 0.47198 0.18448 0.0
Cd197 Cd 0.13825 0.48732 0.21034 0.0
Cd198 Cd 0.10466 0.5006 0.23729 0.0
O199 O 0.08389 0.48448 0.20627 0.0
O200 O 0.16649 0.47441 0.2024 0.0
O201 O 0.14765 0.46726 0.23534 0.0
C202 C 0.16521 0.46518 0.22257 0.0
C203 C 0.08763 0.49155 0.27285 0.0
C204 C 0.08915 0.47379 0.1869 0.0
C205 C 0.14514 0.54242 0.22703 0.0
O206 O 0.12646 0.53645 0.23821 0.0
O207 O 0.15222 0.52559 0.21429 0.0
O208 O 0.07981 0.50557 0.25898 0.0
O209 O 0.10531 0.48232 0.2665 0.0
O210 O 0.74878 0.89311 0.57992 0.0
Cd211 Cd 0.75465 0.92141 0.55741 0.0
Cd212 Cd 0.76826 0.88143 0.52837 0.0
O213 O 0.75669 0.86151 0.55674 0.0
O214 O 0.73686 0.94629 0.57113 0.0
O215 O 0.72817 0.92607 0.53451 0.0
C216 C 0.72367 0.9419 0.5512 0.0
C217 C 0.76157 0.86225 0.48843 0.0
C218 C 0.75031 0.87024 0.57653 0.0
C219 C 0.80567 0.93107 0.54395 0.0
O220 O 0.80024 0.90835 0.53406 0.0
O221 O 0.78995 0.94053 0.55395 0.0
O222 O 0.77583 0.85598 0.50377 0.0
O223 O 0.74985 0.87847 0.49609 0.0
O224 O 0.89765 0.05581 0.19827 0.0
Cd225 Cd 0.87004 0.04888 0.22101 0.0
Cd226 Cd 0.90454 0.0303 0.2456 0.0
O227 O 0.92629 0.04644 0.22055 0.0
O228 O 0.84713 0.06872 0.21031 0.0
O229 O 0.86548 0.07551 0.24673 0.0
C230 C 0.85077 0.08127 0.23138 0.0
C231 C 0.91705 0.03403 0.28635 0.0
C232 C 0.91928 0.05424 0.20157 0.0
C233 C 0.85874 0.99326 0.22593 0.0
O234 O 0.88042 0.99661 0.23396 0.0
O235 O 0.85044 0.01189 0.22116 0.0
O236 O 0.92651 0.02172 0.27042 0.0
O237 O 0.90133 0.04554 0.27911 0.0
O238 O 0.30942 0.67758 0.57668 0.0
Cd239 Cd 0.29961 0.64895 0.54845 0.0
Cd240 Cd 0.29136 0.68552 0.52291 0.0
O241 O 0.30372 0.70718 0.55501 0.0
O242 O 0.31227 0.6196 0.55538 0.0
O243 O 0.32341 0.64215 0.52554 0.0
C244 C 0.32451 0.62317 0.537 0.0
C245 C 0.30266 0.70378 0.48853 0.0
C246 C 0.30962 0.70057 0.57495 0.0
C247 C 0.24936 0.64266 0.52782 0.0
O248 O 0.25682 0.66352 0.51957 0.0
O249 O 0.2637 0.63347 0.5399 0.0
O250 O 0.28864 0.71213 0.50252 0.0
O251 O 0.31091 0.68508 0.49428 0.0
O252 O 0.39193 0.55259 0.69262 0.0
Cd253 Cd 0.36445 0.54714 0.71583 0.0
Cd254 Cd 0.40028 0.52647 0.74031 0.0
O255 O 0.4205 0.54177 0.71402 0.0
O256 O 0.33968 0.56417 0.70388 0.0
O257 O 0.36101 0.57687 0.73867 0.0
C258 C 0.34448 0.57948 0.72341 0.0
C259 C 0.41749 0.52538 0.77873 0.0
C260 C 0.41338 0.55017 0.69542 0.0
C261 C 0.35199 0.49185 0.72285 0.0
O262 O 0.37378 0.49443 0.72988 0.0
O263 O 0.3442 0.51081 0.71825 0.0
O264 O 0.42157 0.51144 0.76039 0.0
O265 O 0.40485 0.54142 0.77522 0.0
O266 O 0.61289 0.98113 0.69359 0.0
Cd267 Cd 0.63874 0.99525 0.72146 0.0
Cd268 Cd 0.60386 0.00634 0.74622 0.0
O269 O 0.5847 0.99229 0.71387 0.0
O270 O 0.66717 0.98214 0.71516 0.0
O271 O 0.64591 0.9741 0.74643 0.0
C272 C 0.66426 0.97208 0.73483 0.0
C273 C 0.5863 0.99277 0.78024 0.0
C274 C 0.59134 0.98272 0.69467 0.0
C275 C 0.64482 0.04947 0.74037 0.0
O276 O 0.62536 0.04263 0.75016 0.0
O277 O 0.65271 0.03341 0.72744 0.0
O278 O 0.57827 0.00801 0.76797 0.0
O279 O 0.60449 0.98493 0.77309 0.0
O280 O 0.78106 0.66719 0.04314 0.0
Cd281 Cd 0.7755 0.64015 0.01361 0.0
Cd282 Cd 0.75651 0.67727 0.99394 0.0
O283 O 0.76715 0.69692 0.02788 0.0
O284 O 0.7941 0.61601 0.02403 0.0
O285 O 0.80145 0.63542 0.99184 0.0
C286 C 0.80664 0.62002 0.00596 0.0
C287 C 0.76437 0.69749 0.95914 0.0
C288 C 0.77615 0.68869 0.04565 0.0
C289 C 0.72272 0.62645 0.99808 0.0
O290 O 0.72553 0.64863 0.99203 0.0
O291 O 0.74056 0.61906 0.00628 0.0
O292 O 0.7486 0.70227 0.97312 0.0
O293 O 0.77624 0.68152 0.96516 0.0
O294 O 0.91574 0.56815 0.73219 0.0
Cd295 Cd 0.89264 0.56157 0.75878 0.0
Cd296 Cd 0.93402 0.5522 0.78259 0.0
O297 O 0.94844 0.56414 0.75204 0.0
O298 O 0.86258 0.56717 0.74431 0.0
O299 O 0.8826 0.59053 0.77676 0.0
C300 C 0.86419 0.58515 0.76133 0.0
C301 C 0.95789 0.56631 0.81832 0.0
C302 C 0.93801 0.56906 0.73335 0.0
C303 C 0.8897 0.51008 0.77527 0.0
O304 O 0.912 0.51636 0.78148 0.0
O305 O 0.87938 0.52567 0.76685 0.0
O306 O 0.96259 0.54991 0.80246 0.0
O307 O 0.9396 0.57535 0.81368 0.0
O308 O 0.74569 0.40896 0.55638 0.0
Cd309 Cd 0.7517 0.43208 0.52954 0.0
Cd310 Cd 0.75711 0.38644 0.5032 0.0
O311 O 0.74359 0.37319 0.53352 0.0
O312 O 0.74175 0.46322 0.54104 0.0
O313 O 0.72338 0.43655 0.50966 0.0
C314 C 0.72502 0.45709 0.52383 0.0
C315 C 0.74818 0.35691 0.469 0.0
C316 C 0.74155 0.385 0.55358 0.0
C317 C 0.79948 0.43228 0.51139 0.0
O318 O 0.79145 0.40881 0.50478 0.0
O319 O 0.78607 0.44535 0.5206 0.0
O320 O 0.76239 0.35474 0.48659 0.0
O321 O 0.73839 0.37582 0.47094 0.0
O322 O 0.64804 0.5098 0.24388 0.0
Cd323 Cd 0.67329 0.513 0.27236 0.0
Cd324 Cd 0.63811 0.53163 0.29784 0.0
O325 O 0.62119 0.52467 0.26358 0.0
O326 O 0.69767 0.49589 0.25892 0.0
O327 O 0.67694 0.48286 0.28893 0.0
C328 C 0.693 0.48009 0.27442 0.0
C329 C 0.61445 0.52172 0.33004 0.0
C330 C 0.62826 0.5163 0.24404 0.0
C331 C 0.68665 0.56723 0.29632 0.0
O332 O 0.66588 0.56372 0.30395 0.0
O333 O 0.6929 0.54937 0.28407 0.0
O334 O 0.61273 0.53994 0.3179 0.0
O335 O 0.62963 0.50875 0.32388 0.0
Dy336 Dy 0.99069 0.01933 0.01312 0.0
C337 C 0.09321 0.04374 0.02336 0.0
C338 C 0.94308 0.01681 0.01553 0.0
Dy339 Dy 0.04538 0.04048 0.02452 0.0
O340 O 0.95317 0.01301 0.99582 0.0
O341 O 0.95888 0.02093 0.03367 0.0
O342 O 0.99709 0.99512 0.98036 0.0
O343 O 0.02117 0.02995 0.99235 0.0
C344 C 0.01763 0.01034 0.97752 0.0
C345 C 0.01849 0.05035 0.05972 0.0
O346 O 0.0381 0.07366 0.00857 0.0
O347 O 0.99666 0.06079 0.00908 0.0
O348 O 0.08209 0.045 0.04276 0.0
O349 O 0.07831 0.04171 0.00479 0.0
O350 O 0.03894 0.06552 0.05652 0.0
O351 O 0.01493 0.03029 0.04541 0.0
O352 O 0.99779 0.98592 0.02867 0.0
O353 O 0.03928 0.9989 0.0283 0.0
C354 C 0.01643 0.07781 0.00562 0.0
C355 C 0.01947 0.98188 0.03171 0.0
Dy356 Dy 0.26275 0.77575 0.228 0.0
C357 C 0.27919 0.76045 0.32929 0.0
C358 C 0.24543 0.78711 0.18598 0.0
Dy359 Dy 0.26712 0.77262 0.28561 0.0
O360 O 0.2586 0.77096 0.18779 0.0
O361 O 0.24192 0.79705 0.20703 0.0
O362 O 0.29945 0.76791 0.22157 0.0
O363 O 0.28715 0.7706 0.25515 0.0
C364 C 0.30459 0.76708 0.24427 0.0
C365 C 0.23035 0.78873 0.2676 0.0
O366 O 0.28978 0.81126 0.28378 0.0
O367 O 0.27922 0.81579 0.2439 0.0
O368 O 0.25731 0.75736 0.32017 0.0
O369 O 0.29435 0.77051 0.31473 0.0
O370 O 0.23937 0.79546 0.28973 0.0
O371 O 0.23992 0.7724 0.25768 0.0
O372 O 0.24195 0.73634 0.22971 0.0
O373 O 0.25401 0.73204 0.26923 0.0
C374 C 0.29027 0.8248 0.2655 0.0
C375 C 0.24299 0.72259 0.24766 0.0
Dy376 Dy 0.54118 0.03393 0.51862 0.0
C377 C 0.44349 0.0418 0.50041 0.0
C378 C 0.58403 0.02126 0.52599 0.0
Dy379 Dy 0.48524 0.02883 0.51262 0.0
O380 O 0.56956 0.01459 0.50676 0.0
O381 O 0.5755 0.03568 0.54128 0.0
O382 O 0.54647 0.06028 0.49003 0.0
O383 O 0.51449 0.03223 0.4896 0.0
C384 C 0.5247 0.0513 0.48024 0.0
C385 C 0.50151 0.01199 0.55144 0.0
O386 O 0.48791 0.99392 0.4898 0.0
O387 O 0.52354 0.99242 0.51026 0.0
O388 O 0.44476 0.02167 0.51034 0.0
O389 O 0.46485 0.05419 0.49668 0.0
O390 O 0.47959 0.00324 0.54198 0.0
O391 O 0.51181 0.03055 0.54151 0.0
O392 O 0.54078 0.07063 0.53982 0.0
O393 O 0.50064 0.06908 0.52913 0.0
C394 C 0.50446 0.98169 0.49521 0.0
C395 C 0.52222 0.08116 0.53934 0.0
Dy396 Dy 0.23408 0.27436 0.7585 0.0
C397 C 0.33583 0.30474 0.75617 0.0
C398 C 0.18653 0.25783 0.76511 0.0
Dy399 Dy 0.28899 0.28721 0.76516 0.0
O400 O 0.19553 0.27594 0.75269 0.0
O401 O 0.20346 0.24826 0.77334 0.0
O402 O 0.2363 0.30613 0.73584 0.0
O403 O 0.26236 0.30922 0.76429 0.0
C404 C 0.25637 0.31954 0.74679 0.0
C405 C 0.26709 0.24204 0.77713 0.0
O406 O 0.28233 0.30716 0.80002 0.0
O407 O 0.24218 0.28605 0.79834 0.0
O408 O 0.32868 0.29162 0.77352 0.0
O409 O 0.31746 0.30892 0.7444 0.0
O410 O 0.28777 0.25504 0.78712 0.0
O411 O 0.26079 0.25238 0.75976 0.0
O412 O 0.2402 0.2549 0.72326 0.0
O413 O 0.28082 0.27433 0.72546 0.0
C414 C 0.26199 0.30041 0.81042 0.0
C415 C 0.2608 0.2607 0.71318 0.0
Dy416 Dy 0.99659 0.01659 0.49432 0.0
C417 C 0.06092 0.03756 0.58227 0.0
C418 C 0.96424 0.01007 0.45538 0.0
Dy419 Dy 0.02824 0.03129 0.54371 0.0
O420 O 0.97906 0.99586 0.4586 0.0
O421 O 0.96631 0.02667 0.47401 0.0
O422 O 0.0289 0.02936 0.4738 0.0
O423 O 0.03329 0.01742 0.5073 0.0
C424 C 0.04427 0.02795 0.49092 0.0
C425 C 0.98051 0.02008 0.54684 0.0
O426 O 0.03614 0.06834 0.52827 0.0
O427 O 0.00217 0.0584 0.50136 0.0
O428 O 0.0458 0.05156 0.57958 0.0
O429 O 0.05892 0.0213 0.56338 0.0
O430 O 0.99576 0.01789 0.56376 0.0
O431 O 0.99167 0.03089 0.53072 0.0
O432 O 0.98842 0.97956 0.50979 0.0
O433 O 0.02213 0.98939 0.53695 0.0
C434 C 0.0211 0.07484 0.5128 0.0
C435 C 0.00319 0.97298 0.5255 0.0
Dy436 Dy 0.28031 0.77961 0.77374 0.0
C437 C 0.19484 0.75336 0.70749 0.0
C438 C 0.3229 0.78157 0.79859 0.0
Dy439 Dy 0.23106 0.76082 0.74247 0.0
O440 O 0.31662 0.77192 0.77657 0.0
O441 O 0.30588 0.79083 0.8074 0.0
O442 O 0.29489 0.80226 0.74419 0.0
O443 O 0.26859 0.76896 0.73598 0.0
C444 C 0.28083 0.78738 0.72715 0.0
C445 C 0.22701 0.76662 0.78975 0.0
O446 O 0.24506 0.72592 0.73718 0.0
O447 O 0.27351 0.73718 0.77006 0.0
O448 O 0.19606 0.73797 0.72346 0.0
O449 O 0.21399 0.77184 0.71001 0.0
O450 O 0.20979 0.76647 0.77394 0.0
O451 O 0.24385 0.76017 0.77939 0.0
O452 O 0.2643 0.81259 0.78239 0.0
O453 O 0.23883 0.80326 0.74754 0.0
C454 C 0.26133 0.72061 0.75216 0.0
C455 C 0.24903 0.81874 0.76695 0.0
Dy456 Dy 0.51847 0.0254 0.04415 0.0
C457 C 0.52917 0.00599 0.9426 0.0
C458 C 0.5083 0.04141 0.08884 0.0
Dy459 Dy 0.51912 0.01801 0.98829 0.0
O460 O 0.51411 0.05583 0.07218 0.0
O461 O 0.50849 0.01827 0.08125 0.0
O462 O 0.53877 0.99554 0.04833 0.0
O463 O 0.51675 0.99415 0.01681 0.0
C464 C 0.53245 0.98492 0.02642 0.0
C465 C 0.50579 0.05879 0.00708 0.0
O466 O 0.48165 0.9969 0.99097 0.0
O467 O 0.4795 0.01175 0.03093 0.0
O468 O 0.53351 0.02874 0.95371 0.0
O469 O 0.51876 0.98971 0.95626 0.0
O470 O 0.49755 0.04726 0.98587 0.0
O471 O 0.52172 0.0493 0.01565 0.0
O472 O 0.55623 0.04569 0.04106 0.0
O473 O 0.55803 0.02865 0.00173 0.0
C474 C 0.46942 0.99946 0.00993 0.0
C475 C 0.56839 0.0416 0.02234 0.0
Dy476 Dy 0.27084 0.30838 0.26819 0.0
C477 C 0.25476 0.20035 0.26365 0.0
C478 C 0.27332 0.35687 0.25956 0.0
Dy479 Dy 0.26075 0.25077 0.26071 0.0
O480 O 0.27509 0.34965 0.2807 0.0
O481 O 0.27152 0.33776 0.24335 0.0
O482 O 0.27361 0.30908 0.30812 0.0
O483 O 0.28335 0.27999 0.28669 0.0
C484 C 0.27954 0.28761 0.30778 0.0
C485 C 0.25229 0.27266 0.22167 0.0
O486 O 0.22847 0.2557 0.2793 0.0
O487 O 0.23192 0.29796 0.27482 0.0
O488 O 0.25573 0.2108 0.24399 0.0
O489 O 0.25611 0.21746 0.28171 0.0
O490 O 0.25976 0.25211 0.2209 0.0
O491 O 0.24782 0.27908 0.24277 0.0
O492 O 0.30418 0.30321 0.25109 0.0
O493 O 0.2999 0.26083 0.25593 0.0
C494 C 0.22018 0.27631 0.2816 0.0
C495 C 0.3121 0.28228 0.24914 0.0
Dy496 Dy 0.50417 0.50673 0.98521 0.0
C497 C 0.54424 0.52998 0.0855 0.0
C498 C 0.47656 0.49716 0.9429 0.0
Dy499 Dy 0.52342 0.5266 0.04015 0.0
O500 O 0.49517 0.48822 0.94728 0.0
O501 O 0.47241 0.51038 0.96204 0.0
O502 O 0.54063 0.5133 0.97009 0.0
O503 O 0.53755 0.5219 0.00605 0.0
C504 C 0.55246 0.52274 0.99057 0.0
C505 C 0.47589 0.51797 0.02928 0.0
O506 O 0.52945 0.56361 0.02537 0.0
O507 O 0.50558 0.54828 0.98944 0.0
O508 O 0.52353 0.51556 0.07731 0.0
O509 O 0.55356 0.54338 0.06901 0.0
O510 O 0.48772 0.53483 0.04638 0.0
O511 O 0.48978 0.50557 0.02031 0.0
O512 O 0.50196 0.46991 0.99999 0.0
O513 O 0.52842 0.48716 0.03366 0.0
C514 C 0.51866 0.56708 0.00496 0.0
C515 C 0.51549 0.46745 0.01909 0.0
Dy516 Dy 0.79633 0.29088 0.27764 0.0
C517 C 0.69864 0.25683 0.23704 0.0
C518 C 0.84113 0.2986 0.3002 0.0
Dy519 Dy 0.74399 0.26601 0.25877 0.0
O520 O 0.83433 0.28764 0.27865 0.0
O521 O 0.82358 0.30645 0.30945 0.0
O522 O 0.80406 0.30541 0.24249 0.0
O523 O 0.77853 0.27138 0.2436 0.0
C524 C 0.788 0.28717 0.23005 0.0
C525 C 0.75306 0.26977 0.30632 0.0
O526 O 0.75807 0.23126 0.25483 0.0
O527 O 0.79127 0.24949 0.2815 0.0
O528 O 0.70518 0.26616 0.25911 0.0
O529 O 0.71684 0.25155 0.22675 0.0
O530 O 0.73704 0.25129 0.29417 0.0
O531 O 0.76189 0.28559 0.29261 0.0
O532 O 0.78248 0.32582 0.28058 0.0
O533 O 0.74897 0.30726 0.25439 0.0
C534 C 0.7775 0.22966 0.26775 0.0
C535 C 0.76322 0.32738 0.26735 0.0
Dy536 Dy 0.02553 0.53888 0.53679 0.0
C537 C 0.03061 0.51676 0.43501 0.0
C538 C 0.01782 0.5529 0.58282 0.0
Dy539 Dy 0.02286 0.5306 0.48108 0.0
O540 O 0.01823 0.53016 0.57407 0.0
O541 O 0.02206 0.5681 0.56652 0.0
O542 O 0.04816 0.51066 0.53843 0.0
O543 O 0.02226 0.50701 0.50968 0.0
C544 C 0.03911 0.49841 0.51768 0.0
C545 C 0.00833 0.57031 0.50029 0.0
O546 O 0.98581 0.5093 0.48596 0.0
O547 O 0.98608 0.52488 0.52614 0.0
O548 O 0.03255 0.53986 0.44447 0.0
O549 O 0.02394 0.50116 0.45058 0.0
O550 O 0.99932 0.55797 0.47957 0.0
O551 O 0.02561 0.56223 0.5081 0.0
O552 O 0.06193 0.5611 0.53187 0.0
O553 O 0.06246 0.54418 0.4923 0.0
C554 C 0.9748 0.51223 0.50575 0.0
C555 C 0.07337 0.55769 0.51252 0.0
Dy556 Dy 0.74158 0.77577 0.26144 0.0
C557 C 0.84305 0.80881 0.25863 0.0
C558 C 0.69533 0.75707 0.27127 0.0
Dy559 Dy 0.7966 0.79023 0.26813 0.0
O560 O 0.70173 0.77095 0.25424 0.0
O561 O 0.7141 0.75276 0.28214 0.0
O562 O 0.74222 0.80796 0.23951 0.0
O563 O 0.76903 0.81112 0.26725 0.0
C564 C 0.76248 0.82145 0.25004 0.0
C565 C 0.77563 0.74437 0.27943 0.0
O566 O 0.78976 0.80996 0.30302 0.0
O567 O 0.7497 0.78852 0.30109 0.0
O568 O 0.83642 0.7953 0.27586 0.0
O569 O 0.82436 0.81284 0.24732 0.0
O570 O 0.79615 0.75763 0.28958 0.0
O571 O 0.76912 0.75495 0.26239 0.0
O572 O 0.74836 0.75611 0.22658 0.0
O573 O 0.78838 0.77769 0.2284 0.0
C574 C 0.76933 0.80311 0.31324 0.0
C575 C 0.76872 0.76306 0.21629 0.0
Dy576 Dy 0.76135 0.28135 0.73922 0.0
C577 C 0.77731 0.27214 0.83921 0.0
C578 C 0.74914 0.29186 0.69486 0.0
Dy579 Dy 0.76543 0.28273 0.79475 0.0
O580 O 0.76868 0.28522 0.70082 0.0
O581 O 0.73629 0.29241 0.713 0.0
O582 O 0.78781 0.2569 0.73676 0.0
O583 O 0.78969 0.284 0.76663 0.0
C584 C 0.7982 0.26625 0.75797 0.0
C585 C 0.72805 0.29715 0.77585 0.0
O586 O 0.78707 0.32168 0.79278 0.0
O587 O 0.77748 0.32248 0.75214 0.0
O588 O 0.75587 0.27265 0.8312 0.0
O589 O 0.79232 0.27803 0.82316 0.0
O590 O 0.73815 0.30638 0.79722 0.0
O591 O 0.7371 0.27977 0.76731 0.0
O592 O 0.73856 0.24326 0.74177 0.0
O593 O 0.75182 0.24122 0.78115 0.0
C594 C 0.78774 0.33366 0.77347 0.0
C595 C 0.7399 0.23053 0.76033 0.0
Dy596 Dy 0.76561 0.80294 0.76819 0.0
C597 C 0.75199 0.69609 0.75517 0.0
C598 C 0.76168 0.85027 0.76211 0.0
Dy599 Dy 0.75117 0.74552 0.75569 0.0
O600 O 0.77094 0.84432 0.78168 0.0
O601 O 0.75552 0.83066 0.74617 0.0
O602 O 0.78613 0.79996 0.80244 0.0
O603 O 0.75585 0.7712 0.78866 0.0
C604 C 0.77317 0.7774 0.8046 0.0
C605 C 0.74422 0.77208 0.71979 0.0
O606 O 0.71643 0.7491 0.76926 0.0
O607 O 0.72579 0.79301 0.77276 0.0
O608 O 0.7497 0.70728 0.73626 0.0
O609 O 0.75287 0.71174 0.77427 0.0
O610 O 0.73011 0.75023 0.72216 0.0
O611 O 0.76158 0.77724 0.73555 0.0
O612 O 0.80018 0.79869 0.75434 0.0
O613 O 0.79143 0.75518 0.75488 0.0
C614 C 0.71041 0.77089 0.77371 0.0
C615 C 0.80652 0.7769 0.75205 0.0
Dy616 Dy 0.49005 0.52196 0.50888 0.0
C617 C 0.59268 0.54537 0.5244 0.0
C618 C 0.44232 0.51998 0.50942 0.0
Dy619 Dy 0.54471 0.54238 0.52243 0.0
O620 O 0.45363 0.51868 0.49013 0.0
O621 O 0.45694 0.52118 0.52804 0.0
O622 O 0.49728 0.4979 0.47642 0.0
O623 O 0.52158 0.53229 0.48948 0.0
C624 C 0.51826 0.51281 0.47452 0.0
C625 C 0.51636 0.55213 0.55633 0.0
O626 O 0.53852 0.57551 0.5057 0.0
O627 O 0.49698 0.56392 0.5062 0.0
O628 O 0.58036 0.54692 0.54291 0.0
O629 O 0.57891 0.54315 0.50493 0.0
O630 O 0.53712 0.56723 0.55409 0.0
O631 O 0.51322 0.53231 0.54184 0.0
O632 O 0.49623 0.48816 0.52474 0.0
O633 O 0.53786 0.50073 0.5258 0.0
C634 C 0.51716 0.58041 0.5028 0.0
C635 C 0.51775 0.48391 0.5287 0.0
Dy636 Dy 0.04256 0.52909 0.01506 0.0
C637 C 0.94587 0.53869 0.99404 0.0
C638 C 0.08544 0.51805 0.02677 0.0
Dy639 Dy 0.98694 0.52462 0.00657 0.0
O640 O 0.08066 0.52852 0.00802 0.0
O641 O 0.06701 0.51429 0.03942 0.0
O642 O 0.04898 0.55706 0.98796 0.0
O643 O 0.01722 0.52825 0.98504 0.0
C644 C 0.02787 0.54785 0.9767 0.0
C645 C 0.00103 0.50613 0.04528 0.0
O646 O 0.98952 0.49045 0.98255 0.0
O647 O 0.02653 0.48838 0.99997 0.0
O648 O 0.94657 0.51837 0.00389 0.0
O649 O 0.96743 0.55064 0.99048 0.0
O650 O 0.97961 0.49768 0.03454 0.0
O651 O 0.01204 0.5253 0.03652 0.0
O652 O 0.04139 0.5649 0.03742 0.0
O653 O 0.0022 0.56453 0.02407 0.0
C654 C 0.00643 0.4781 0.98609 0.0
C655 C 0.02323 0.57594 0.03588 0.0
C656 C 0.99656 0.16813 0.91156 0.0
C657 C 0.99478 0.1924 0.92044 0.0
C658 C 0.0007 0.15095 0.92712 0.0
C659 C 0.00341 0.15832 0.95216 0.0
C660 C 0.00195 0.18289 0.96125 0.0
C661 C 0.99752 0.1996 0.94529 0.0
C662 C 0.00191 0.1248 0.91676 0.0
C663 C 0.00501 0.19148 0.98783 0.0
C664 C 0.99057 0.10434 0.99017 0.0
C665 C 0.0136 0.1008 0.99526 0.0
C666 C 0.98708 0.12362 0.97693 0.0
C667 C 0.00711 0.13995 0.96874 0.0
C668 C 0.0305 0.13748 0.97503 0.0
C669 C 0.03348 0.11787 0.98816 0.0
C670 C 0.96183 0.12563 0.97062 0.0
C671 C 0.05232 0.1548 0.96691 0.0
H672 H 0.99443 0.1624 0.8924 0.0
H673 H 0.99635 0.21839 0.95231 0.0
H674 H 0.0194 0.12123 0.92249 0.0
H675 H 0.98774 0.11041 0.92363 0.0
H676 H 0.99959 0.12209 0.89687 0.0
H677 H 0.00414 0.21148 0.99196 0.0
H678 H 0.99083 0.17941 0.99695 0.0
H679 H 0.02249 0.18941 0.99548 0.0
H680 H 0.97506 0.0914 0.99568 0.0
H681 H 0.05134 0.11539 0.99208 0.0
H682 H 0.95742 0.12079 0.95102 0.0
H683 H 0.96026 0.14528 0.97531 0.0
H684 H 0.94837 0.11279 0.97993 0.0
H685 H 0.0525 0.15108 0.94719 0.0
H686 H 0.06927 0.15212 0.97537 0.0
H687 H 0.05174 0.17483 0.97119 0.0
C688 C 0.10164 0.79615 0.21963 0.0
C689 C 0.10151 0.81002 0.20007 0.0
C690 C 0.12314 0.79632 0.23261 0.0
C691 C 0.14502 0.81099 0.2261 0.0
C692 C 0.14482 0.82661 0.20763 0.0
C693 C 0.12305 0.82585 0.19473 0.0
C694 C 0.12257 0.77928 0.2521 0.0
C695 C 0.16773 0.84322 0.20081 0.0
C696 C 0.2005 0.81533 0.26776 0.0
C697 C 0.20943 0.79579 0.25665 0.0
C698 C 0.1799 0.82118 0.25768 0.0
C699 C 0.16804 0.807 0.23616 0.0
C700 C 0.17739 0.78763 0.22467 0.0
C701 C 0.19787 0.7822 0.23513 0.0
C702 C 0.17054 0.84209 0.2703 0.0
C703 C 0.16541 0.77213 0.2016 0.0
H704 H 0.0851 0.78397 0.22401 0.0
H705 H 0.12305 0.83696 0.17989 0.0
H706 H 0.13041 0.76332 0.24596 0.0
H707 H 0.13352 0.78966 0.26845 0.0
H708 H 0.10405 0.77141 0.25688 0.0
H709 H 0.16465 0.85351 0.18542 0.0
H710 H 0.17623 0.85723 0.21632 0.0
H711 H 0.18065 0.83173 0.19617 0.0
H712 H 0.20947 0.82587 0.28441 0.0
H713 H 0.20461 0.76691 0.2266 0.0
H714 H 0.15283 0.83407 0.27679 0.0
H715 H 0.16789 0.85561 0.25767 0.0
H716 H 0.18284 0.85259 0.28582 0.0
H717 H 0.14726 0.76116 0.20473 0.0
H718 H 0.17576 0.75876 0.19428 0.0
H719 H 0.16321 0.78471 0.18787 0.0
C720 C 0.50004 0.83947 0.43866 0.0
C721 C 0.50479 0.83982 0.41452 0.0
C722 C 0.49827 0.86155 0.45277 0.0
C723 C 0.50189 0.88459 0.44262 0.0
C724 C 0.50677 0.88504 0.41828 0.0
C725 C 0.5079 0.86262 0.40447 0.0
C726 C 0.4926 0.86025 0.47853 0.0
C727 C 0.5113 0.90932 0.40692 0.0
C728 C 0.48157 0.94133 0.47088 0.0
C729 C 0.50294 0.956 0.48311 0.0
C730 C 0.48069 0.91753 0.45834 0.0
C731 C 0.5018 0.90854 0.45763 0.0
C732 C 0.5233 0.92315 0.47025 0.0
C733 C 0.52354 0.94653 0.483 0.0
C734 C 0.45731 0.90223 0.44548 0.0
C735 C 0.54632 0.91451 0.46961 0.0
H736 H 0.49739 0.82185 0.44646 0.0
H737 H 0.51169 0.86305 0.38585 0.0
H738 H 0.50785 0.87207 0.49061 0.0
H739 H 0.47676 0.86795 0.4819 0.0
H740 H 0.48892 0.84063 0.48332 0.0
H741 H 0.51469 0.90642 0.38773 0.0
H742 H 0.49569 0.91781 0.40835 0.0
H743 H 0.52703 0.92319 0.41659 0.0
H744 H 0.46556 0.94846 0.47101 0.0
H745 H 0.54021 0.95778 0.49228 0.0
H746 H 0.45312 0.8828 0.45071 0.0
H747 H 0.45887 0.90054 0.42587 0.0
H748 H 0.44214 0.91089 0.44939 0.0
H749 H 0.54381 0.89571 0.47606 0.0
H750 H 0.56142 0.92792 0.48075 0.0
H751 H 0.55135 0.91248 0.45089 0.0
C752 C 0.46572 0.3228 0.70338 0.0
C753 C 0.46941 0.29844 0.69891 0.0
C754 C 0.445 0.32669 0.71375 0.0
C755 C 0.42722 0.30563 0.71887 0.0
C756 C 0.43074 0.28096 0.71391 0.0
C757 C 0.45199 0.27774 0.70442 0.0
C758 C 0.44227 0.3533 0.71951 0.0
C759 C 0.41193 0.25791 0.71831 0.0
C760 C 0.37995 0.30901 0.76291 0.0
C761 C 0.36001 0.30881 0.7475 0.0
C762 C 0.40242 0.30968 0.75402 0.0
C763 C 0.40466 0.30907 0.72902 0.0
C764 C 0.38463 0.30951 0.7135 0.0
C765 C 0.36266 0.30985 0.72301 0.0
C766 C 0.42352 0.31009 0.77126 0.0
C767 C 0.38593 0.308 0.6867 0.0
H768 H 0.47931 0.33884 0.69932 0.0
H769 H 0.45476 0.25887 0.7008 0.0
H770 H 0.42616 0.35575 0.70929 0.0
H771 H 0.43963 0.35692 0.73882 0.0
H772 H 0.45811 0.36767 0.71527 0.0
H773 H 0.417 0.24002 0.7125 0.0
H774 H 0.40901 0.25857 0.73764 0.0
H775 H 0.3946 0.25764 0.70854 0.0
H776 H 0.3779 0.30825 0.78186 0.0
H777 H 0.34717 0.30941 0.71101 0.0
H778 H 0.43945 0.32464 0.76754 0.0
H779 H 0.4282 0.29155 0.7689 0.0
H780 H 0.4197 0.31403 0.7902 0.0
H781 H 0.40095 0.32308 0.68213 0.0
H782 H 0.36909 0.30974 0.67723 0.0
H783 H 0.38947 0.28962 0.67987 0.0
C784 C 0.99305 0.83106 0.55287 0.0
C785 C 0.986 0.82796 0.57605 0.0
C786 C 0.99257 0.85319 0.54262 0.0
C787 C 0.9851 0.87288 0.55595 0.0
C788 C 0.97678 0.86935 0.57887 0.0
C789 C 0.97723 0.84686 0.58863 0.0
C790 C 0.0014 0.85607 0.51805 0.0
C791 C 0.9688 0.88995 0.59372 0.0
C792 C 0.01611 0.93943 0.54554 0.0
C793 C 0.99847 0.9467 0.53169 0.0
C794 C 0.01184 0.91557 0.55351 0.0
C795 C 0.98935 0.89827 0.54742 0.0
C796 C 0.9715 0.90523 0.53315 0.0
C797 C 0.97626 0.92942 0.52543 0.0
C798 C 0.03142 0.90901 0.5687 0.0
C799 C 0.94734 0.88723 0.52627 0.0
H800 H 0.99955 0.8164 0.54288 0.0
H801 H 0.97164 0.84455 0.6065 0.0
H802 H 0.98882 0.86333 0.50672 0.0
H803 H 0.01899 0.87003 0.51971 0.0
H804 H 0.00357 0.83795 0.5088 0.0
H805 H 0.96004 0.88316 0.60971 0.0
H806 H 0.98457 0.90579 0.59985 0.0
H807 H 0.95614 0.89756 0.58285 0.0
H808 H 0.03338 0.95253 0.55046 0.0
H809 H 0.96246 0.93495 0.51493 0.0
H810 H 0.03641 0.89224 0.55969 0.0
H811 H 0.02489 0.90407 0.58618 0.0
H812 H 0.04778 0.92478 0.57213 0.0
H813 H 0.9496 0.86958 0.5162 0.0
H814 H 0.93539 0.89549 0.51511 0.0
H815 H 0.93843 0.88193 0.54262 0.0
C816 C 0.44312 0.7627 0.8661 0.0
C817 C 0.46255 0.78168 0.86095 0.0
C818 C 0.41954 0.7622 0.85772 0.0
C819 C 0.41532 0.78116 0.84396 0.0
C820 C 0.43485 0.80045 0.83891 0.0
C821 C 0.45817 0.80044 0.8474 0.0
C822 C 0.39917 0.74122 0.86332 0.0
C823 C 0.43117 0.82098 0.82424 0.0
C824 C 0.36093 0.76785 0.79935 0.0
C825 C 0.34591 0.78097 0.81115 0.0
C826 C 0.38318 0.76715 0.81016 0.0
C827 C 0.39076 0.78003 0.83337 0.0
C828 C 0.37548 0.79295 0.84563 0.0
C829 C 0.35312 0.79322 0.83436 0.0
C830 C 0.39882 0.75308 0.79645 0.0
C831 C 0.38299 0.80694 0.87038 0.0
H832 H 0.44633 0.74822 0.87667 0.0
H833 H 0.47303 0.81529 0.84344 0.0
H834 H 0.38545 0.74927 0.87219 0.0
H835 H 0.39031 0.72975 0.84645 0.0
H836 H 0.40529 0.72855 0.8751 0.0
H837 H 0.44812 0.83529 0.82285 0.0
H838 H 0.42356 0.81252 0.80589 0.0
H839 H 0.41814 0.83071 0.83229 0.0
H840 H 0.35536 0.75818 0.78145 0.0
H841 H 0.34147 0.80328 0.84354 0.0
H842 H 0.40421 0.73929 0.80733 0.0
H843 H 0.41546 0.76658 0.7927 0.0
H844 H 0.38968 0.74279 0.77917 0.0
H845 H 0.38815 0.79416 0.88261 0.0
H846 H 0.36855 0.81481 0.87803 0.0
H847 H 0.39897 0.8227 0.8697 0.0
C848 C 0.48887 0.19192 0.05947 0.0
C849 C 0.47966 0.19191 0.08203 0.0
C850 C 0.4894 0.16928 0.04573 0.0
C851 C 0.48027 0.14602 0.05465 0.0
C852 C 0.46909 0.14574 0.07644 0.0
C853 C 0.46895 0.16873 0.08993 0.0
C854 C 0.50156 0.17044 0.02263 0.0
C855 C 0.45868 0.12121 0.08619 0.0
C856 C 0.47704 0.08638 0.01221 0.0
C857 C 0.49865 0.08066 0.01921 0.0
C858 C 0.47031 0.1072 0.02404 0.0
C859 C 0.48574 0.12266 0.04303 0.0
C860 C 0.50748 0.11671 0.05021 0.0
C861 C 0.51368 0.09585 0.03815 0.0
C862 C 0.44691 0.11284 0.01607 0.0
C863 C 0.5245 0.13269 0.07036 0.0
H864 H 0.49695 0.20969 0.05304 0.0
H865 H 0.46156 0.16851 0.10722 0.0
H866 H 0.51894 0.16526 0.02517 0.0
H867 H 0.49051 0.15671 0.00814 0.0
H868 H 0.50506 0.1896 0.01674 0.0
H869 H 0.44944 0.1241 0.10268 0.0
H870 H 0.44574 0.10822 0.07251 0.0
H871 H 0.47312 0.11169 0.09036 0.0
H872 H 0.46538 0.07451 0.9976 0.0
H873 H 0.53055 0.0916 0.04337 0.0
H874 H 0.45044 0.13121 0.00865 0.0
H875 H 0.4361 0.11456 0.03159 0.0
H876 H 0.43618 0.09799 0.00219 0.0
H877 H 0.531 0.15215 0.06564 0.0
H878 H 0.54025 0.12492 0.07425 0.0
H879 H 0.51508 0.13405 0.08693 0.0
C880 C 0.09043 0.25818 0.33129 0.0
C881 C 0.09174 0.27096 0.35441 0.0
C882 C 0.11089 0.25997 0.31851 0.0
C883 C 0.1333 0.27461 0.32924 0.0
C884 C 0.13467 0.28797 0.3524 0.0
C885 C 0.11382 0.28614 0.36465 0.0
C886 C 0.10861 0.24575 0.29373 0.0
C887 C 0.1583 0.30356 0.36453 0.0
C888 C 0.18889 0.25652 0.30747 0.0
C889 C 0.19739 0.27535 0.29284 0.0
C890 C 0.16819 0.25622 0.31957 0.0
C891 C 0.15542 0.27497 0.31666 0.0
C892 C 0.16371 0.29383 0.30163 0.0
C893 C 0.18472 0.29392 0.29006 0.0
C894 C 0.16015 0.23599 0.33569 0.0
C895 C 0.1504 0.31392 0.29781 0.0
H896 H 0.07339 0.24655 0.32319 0.0
H897 H 0.11496 0.29599 0.38253 0.0
H898 H 0.11639 0.25876 0.28081 0.0
H899 H 0.11884 0.23097 0.29373 0.0
H900 H 0.08968 0.23654 0.28733 0.0
H901 H 0.15621 0.31353 0.38219 0.0
H902 H 0.17065 0.29116 0.36724 0.0
H903 H 0.16689 0.31776 0.35301 0.0
H904 H 0.19876 0.2423 0.30997 0.0
H905 H 0.19118 0.30852 0.27876 0.0
H906 H 0.14191 0.22454 0.32927 0.0
H907 H 0.15917 0.24484 0.35413 0.0
H908 H 0.17241 0.22316 0.33646 0.0
H909 H 0.13171 0.30494 0.29049 0.0
H910 H 0.15904 0.32706 0.28534 0.0
H911 H 0.14944 0.32505 0.31518 0.0
C912 C 0.92834 0.06743 0.16089 0.0
C913 C 0.93567 0.05887 0.18205 0.0
C914 C 0.9423 0.06856 0.14109 0.0
C915 C 0.96415 0.06099 0.14242 0.0
C916 C 0.97218 0.05348 0.16408 0.0
C917 C 0.95792 0.05257 0.18361 0.0
C918 C 0.93338 0.07733 0.11856 0.0
C919 C 0.99534 0.04525 0.16629 0.0
C920 C 0.98578 0.03347 0.08537 0.0
C921 C 0.00415 0.05361 0.08036 0.0
C922 C 0.97235 0.03587 0.10518 0.0
C923 C 0.97763 0.05888 0.12066 0.0
C924 C 0.99607 0.07937 0.11561 0.0
C925 C 0.0091 0.0765 0.09548 0.0
C926 C 0.95258 0.01368 0.10961 0.0
C927 C 0.0022 0.10421 0.1316 0.0
H928 H 0.91134 0.0726 0.15952 0.0
H929 H 0.96384 0.04598 0.19982 0.0
H930 H 0.94516 0.09585 0.11595 0.0
H931 H 0.93416 0.06388 0.10268 0.0
H932 H 0.91473 0.07947 0.11928 0.0
H933 H 1.00004 0.04188 0.18486 0.0
H934 H 0.99376 0.02752 0.15421 0.0
H935 H 0.01026 0.05975 0.16067 0.0
H936 H 0.98208 0.01561 0.07396 0.0
H937 H 0.0233 0.09212 0.09169 0.0
H938 H 0.93531 0.0193 0.10994 0.0
H939 H 0.95633 0.00769 0.12735 0.0
H940 H 0.95051 0.99725 0.09569 0.0
H941 H 0.98616 0.11202 0.13271 0.0
H942 H 0.01685 0.11839 0.12509 0.0
H943 H 0.00776 0.10123 0.15003 0.0
C944 C 0.3042 0.73851 0.46335 0.0
C945 C 0.30709 0.7142 0.46569 0.0
C946 C 0.30342 0.74711 0.44086 0.0
C947 C 0.30519 0.73081 0.42024 0.0
C948 C 0.30987 0.70694 0.42267 0.0
C949 C 0.31095 0.69895 0.44551 0.0
C950 C 0.29889 0.77291 0.43906 0.0
C951 C 0.3118 0.68904 0.40105 0.0
C952 C 0.2684 0.73905 0.36531 0.0
C953 C 0.28598 0.75266 0.35232 0.0
C954 C 0.27459 0.73123 0.38715 0.0
C955 C 0.29894 0.73746 0.39627 0.0
C956 C 0.31681 0.75103 0.38309 0.0
C957 C 0.3101 0.7584 0.36114 0.0
C958 C 0.25502 0.71659 0.40063 0.0
C959 C 0.34289 0.75818 0.39237 0.0
H960 H 0.3015 0.75045 0.47903 0.0
H961 H 0.31313 0.68012 0.44732 0.0
H962 H 0.31115 0.78329 0.42696 0.0
H963 H 0.28029 0.77075 0.43134 0.0
H964 H 0.30124 0.78449 0.45681 0.0
H965 H 0.31884 0.67293 0.40607 0.0
H966 H 0.2938 0.68139 0.39144 0.0
H967 H 0.32361 0.69906 0.38839 0.0
H968 H 0.24977 0.73445 0.35836 0.0
H969 H 0.32372 0.76887 0.35099 0.0
H970 H 0.25401 0.72766 0.41801 0.0
H971 H 0.25915 0.6986 0.40459 0.0
H972 H 0.23717 0.71218 0.39046 0.0
H973 H 0.34535 0.77144 0.40909 0.0
H974 H 0.35471 0.76732 0.3792 0.0
H975 H 0.34871 0.74122 0.39686 0.0
C976 C 0.55214 0.98245 0.67367 0.0
C977 C 0.57461 0.9768 0.67283 0.0
C978 C 0.53827 0.9829 0.65264 0.0
C979 C 0.54686 0.97703 0.63023 0.0
C980 C 0.56819 0.96851 0.62927 0.0
C981 C 0.58198 0.9687 0.65065 0.0
C982 C 0.51578 0.99238 0.6545 0.0
C983 C 0.57752 0.96131 0.60568 0.0
C984 C 0.50433 0.97755 0.57645 0.0
C985 C 0.51315 0.00216 0.57087 0.0
C986 C 0.51588 0.96841 0.59499 0.0
C987 C 0.53613 0.98462 0.60851 0.0
C988 C 0.54521 0.00937 0.60258 0.0
C989 C 0.53375 0.01769 0.58364 0.0
C990 C 0.50629 0.94165 0.60032 0.0
C991 C 0.56656 0.02745 0.61672 0.0
H992 H 0.54608 0.98835 0.69073 0.0
H993 H 0.59913 0.96387 0.64984 0.0
H994 H 0.51915 0.01175 0.64916 0.0
H995 H 0.50089 0.98027 0.6422 0.0
H996 H 0.50996 0.99303 0.67299 0.0
H997 H 0.59079 0.94979 0.60786 0.0
H998 H 0.56264 0.95056 0.59255 0.0
H999 H 0.58644 0.97867 0.59808 0.0
H1000 H 0.4886 0.96544 0.56622 0.0
H1001 H 0.54059 0.03671 0.57921 0.0
H1002 H 0.49815 0.94178 0.61771 0.0
H1003 H 0.52108 0.93197 0.6019 0.0
H1004 H 0.4925 0.93053 0.58625 0.0
H1005 H 0.56268 0.0307 0.63572 0.0
H1006 H 0.57133 0.046 0.60964 0.0
H1007 H 0.58237 0.01922 0.61638 0.0
C1008 C 0.26633 0.32592 0.95333 0.0
C1009 C 0.25702 0.34645 0.96148 0.0
C1010 C 0.26663 0.31841 0.92874 0.0
C1011 C 0.25759 0.33185 0.91173 0.0
C1012 C 0.24777 0.35231 0.91981 0.0
C1013 C 0.2475 0.35929 0.94456 0.0
C1014 C 0.27697 0.29629 0.92095 0.0
C1015 C 0.23801 0.36719 0.9023 0.0
C1016 C 0.27999 0.32703 0.84921 0.0
C1017 C 0.26087 0.3091 0.8362 0.0
C1018 C 0.27901 0.33492 0.87367 0.0
C1019 C 0.25852 0.32448 0.88553 0.0
C1020 C 0.23915 0.30647 0.87246 0.0
C1021 C 0.24052 0.29909 0.84803 0.0
C1022 C 0.29999 0.3543 0.88689 0.0
C1023 C 0.21706 0.29468 0.88437 0.0
H1024 H 0.27372 0.31586 0.96623 0.0
H1025 H 0.24043 0.37528 0.95064 0.0
H1026 H 0.26357 0.2818 0.90889 0.0
H1027 H 0.29275 0.30263 0.91068 0.0
H1028 H 0.28261 0.28733 0.93636 0.0
H1029 H 0.2306 0.38229 0.9114 0.0
H1030 H 0.25243 0.376 0.89136 0.0
H1031 H 0.22369 0.35441 0.8898 0.0
H1032 H 0.29575 0.33496 0.84028 0.0
H1033 H 0.22564 0.28515 0.83827 0.0
H1034 H 0.30784 0.34601 0.90158 0.0
H1035 H 0.29387 0.37068 0.89521 0.0
H1036 H 0.31424 0.36122 0.87497 0.0
H1037 H 0.22205 0.28435 0.899 0.0
H1038 H 0.20334 0.28131 0.87162 0.0
H1039 H 0.20893 0.30961 0.8926 0.0
C1040 C 0.90439 0.02894 0.32762 0.0
C1041 C 0.92274 0.03299 0.31207 0.0
C1042 C 0.90901 0.02446 0.35137 0.0
C1043 C 0.93271 0.02501 0.35999 0.0
C1044 C 0.95146 0.03013 0.34454 0.0
C1045 C 0.94614 0.03349 0.32063 0.0
C1046 C 0.88841 0.01823 0.36695 0.0
C1047 C 0.97712 0.0319 0.35321 0.0
C1048 C 0.94995 0.03625 0.42707 0.0
C1049 C 0.95282 0.01249 0.43187 0.0
C1050 C 0.9431 0.04051 0.40386 0.0
C1051 C 0.93807 0.02027 0.38511 0.0
C1052 C 0.93957 0.99585 0.39019 0.0
C1053 C 0.94744 0.99237 0.41343 0.0
C1054 C 0.94261 0.06701 0.39917 0.0
C1055 C 0.93352 0.97356 0.37092 0.0
H1056 H 0.8862 0.02809 0.32087 0.0
H1057 H 0.96032 0.03657 0.30857 0.0
H1058 H 0.88704 0.99921 0.37265 0.0
H1059 H 0.89161 0.0319 0.38343 0.0
H1060 H 0.87102 0.01848 0.35756 0.0
H1061 H 0.98977 0.03783 0.3395 0.0
H1062 H 0.9824 0.04563 0.36962 0.0
H1063 H 0.97897 0.0133 0.35798 0.0
H1064 H 0.95442 0.05197 0.44122 0.0
H1065 H 0.94969 0.97402 0.4171 0.0
H1066 H 0.92497 0.06724 0.39044 0.0
H1067 H 0.95633 0.07377 0.38669 0.0
H1068 H 0.94622 0.08049 0.41584 0.0
H1069 H 0.91598 0.97246 0.36116 0.0
H1070 H 0.93278 0.95542 0.37833 0.0
H1071 H 0.94722 0.97595 0.3577 0.0
C1072 C 0.31655 0.71186 0.61945 0.0
C1073 C 0.31338 0.71924 0.59664 0.0
C1074 C 0.3149 0.7278 0.64012 0.0
C1075 C 0.30985 0.75155 0.63786 0.0
C1076 C 0.30882 0.76001 0.61508 0.0
C1077 C 0.31069 0.74379 0.59472 0.0
C1078 C 0.31672 0.71841 0.66426 0.0
C1079 C 0.30367 0.78528 0.61195 0.0
C1080 C 0.27047 0.76791 0.68532 0.0
C1081 C 0.28722 0.78412 0.7023 0.0
C1082 C 0.27743 0.75853 0.66351 0.0
C1083 C 0.30184 0.76535 0.65871 0.0
C1084 C 0.31853 0.7833 0.67499 0.0
C1085 C 0.31096 0.79262 0.69667 0.0
C1086 C 0.25893 0.73974 0.64649 0.0
C1087 C 0.34466 0.79113 0.67046 0.0
H1088 H 0.31896 0.69309 0.62114 0.0
H1089 H 0.30856 0.74988 0.5772 0.0
H1090 H 0.32924 0.73296 0.67706 0.0
H1091 H 0.29891 0.71482 0.67163 0.0
H1092 H 0.32296 0.70069 0.6632 0.0
H1093 H 0.30764 0.79094 0.59394 0.0
H1094 H 0.28445 0.78417 0.61418 0.0
H1095 H 0.31429 0.80023 0.62574 0.0
H1096 H 0.25215 0.76126 0.68975 0.0
H1097 H 0.32401 0.805 0.7099 0.0
H1098 H 0.26254 0.72072 0.64625 0.0
H1099 H 0.25998 0.74496 0.628 0.0
H1100 H 0.24041 0.73852 0.65171 0.0
H1101 H 0.35344 0.77588 0.67437 0.0
H1102 H 0.35411 0.80872 0.68203 0.0
H1103 H 0.34686 0.79409 0.65145 0.0
C1104 C 0.58957 0.98016 0.8214 0.0
C1105 C 0.57575 0.98617 0.80267 0.0
C1106 C 0.58118 0.97884 0.8443 0.0
C1107 C 0.55838 0.98328 0.84825 0.0
C1108 C 0.54353 0.98698 0.82879 0.0
C1109 C 0.5525 0.9886 0.80626 0.0
C1110 C 0.59754 0.97489 0.86463 0.0
C1111 C 0.51893 0.99131 0.83216 0.0
C1112 C 0.531 0.97468 0.90766 0.0
C1113 C 0.53663 -0.0003 0.91865 0.0
C1114 C 0.53834 0.96878 0.88483 0.0
C1115 C 0.55168 0.9884 0.873 0.0
C1116 C 0.55776 0.01359 0.88434 0.0
C1117 C 0.55005 0.01893 0.90699 0.0
C1118 C 0.53143 0.94176 0.87321 0.0
C1119 C 0.57217 0.03504 0.87243 0.0
H1120 H 0.60754 0.9782 0.81862 0.0
H1121 H 0.54163 0.99284 0.79166 0.0
H1122 H 0.60498 0.99318 0.87595 0.0
H1123 H 0.58752 0.96157 0.87618 0.0
H1124 H 0.61271 0.96755 0.85805 0.0
H1125 H 0.50834 0.98997 0.81479 0.0
H1126 H 0.50882 0.97739 0.84313 0.0
H1127 H 0.52074 0.01042 0.84185 0.0
H1128 H 0.52075 0.95978 0.91682 0.0
H1129 H 0.55459 0.03825 0.91559 0.0
H1130 H 0.5474 0.93592 0.86684 0.0
H1131 H 0.51868 0.9401 0.8573 0.0
H1132 H 0.52289 0.92848 0.88562 0.0
H1133 H 0.58923 0.03079 0.86726 0.0
H1134 H 0.5764 0.05331 0.88422 0.0
H1135 H 0.56203 0.03725 0.85581 0.0
C1136 C 0.23696 0.32964 0.09757 0.0
C1137 C 0.25059 0.35461 0.09852 0.0
C1138 C 0.23591 0.31662 0.11795 0.0
C1139 C 0.24956 0.32847 0.13955 0.0
C1140 C 0.26341 0.35368 0.14048 0.0
C1141 C 0.26343 0.36653 0.12013 0.0
C1142 C 0.22031 0.29012 0.11635 0.0
C1143 C 0.27905 0.36682 0.16264 0.0
C1144 C 0.23541 0.30266 0.19917 0.0
C1145 C 0.25157 0.28736 0.2011 0.0
C1146 C 0.23425 0.31587 0.17912 0.0
C1147 C 0.2501 0.31426 0.16086 0.0
C1148 C 0.26681 0.29922 0.16313 0.0
C1149 C 0.26707 0.28568 0.18298 0.0
C1150 C 0.21542 0.33071 0.17724 0.0
C1151 C 0.28452 0.29748 0.1446 0.0
H1152 H 0.22695 0.32038 0.08092 0.0
H1153 H 0.2743 0.38569 0.12087 0.0
H1154 H 0.23157 0.27669 0.1193 0.0
H1155 H 0.20768 0.28893 0.13062 0.0
H1156 H 0.20986 0.28402 0.0987 0.0
H1157 H 0.28519 0.38752 0.16211 0.0
H1158 H 0.2694 0.36345 0.17889 0.0
H1159 H 0.29504 0.35894 0.16424 0.0
H1160 H 0.22325 0.30381 0.21305 0.0
H1161 H 0.27974 0.27401 0.18453 0.0
H1162 H 0.19936 0.31861 0.16647 0.0
H1163 H 0.22164 0.34778 0.16816 0.0
H1164 H 0.20994 0.3365 0.19516 0.0
H1165 H 0.27484 0.28934 0.12695 0.0
H1166 H 0.29686 0.28562 0.14937 0.0
H1167 H 0.29536 0.31665 0.14257 0.0
C1168 C 0.21186 0.9915 0.01813 0.0
C1169 C 0.20338 0.96555 0.01075 0.0
C1170 C 0.19625 0.00762 0.01862 0.0
C1171 C 0.17151 0.99733 0.01236 0.0
C1172 C 0.16299 0.97122 0.00421 0.0
C1173 C 0.17915 0.95568 0.00315 0.0
C1174 C 0.2061 0.03547 0.0266 0.0
C1175 C 0.13663 0.95945 0.99783 0.0
C1176 C 0.12605 0.02782 0.04148 0.0
C1177 C 0.11646 0.03722 0.02203 0.0
C1178 C 0.14465 0.01555 0.03877 0.0
C1179 C 0.15422 0.01328 0.01623 0.0
C1180 C 0.14586 0.02456 0.99706 0.0
C1181 C 0.12681 0.03616 1.00012 0.0
C1182 C 0.15277 0.00338 0.05953 0.0
C1183 C 0.15603 0.02312 0.97295 0.0
H1184 H 0.2307 0.99916 0.02377 0.0
H1185 H 0.17261 0.93558 0.99757 0.0
H1186 H 0.19937 0.04682 0.01384 0.0
H1187 H 0.19986 0.04047 0.04434 0.0
H1188 H 0.226 0.04091 0.02808 0.0
H1189 H 0.13305 0.93906 0.99105 0.0
H1190 H 0.12657 0.96151 0.01388 0.0
H1191 H 0.12952 0.96935 0.98399 0.0
H1192 H 0.11789 0.02843 0.05836 0.0
H1193 H 0.11932 0.04341 0.98505 0.0
H1194 H 0.17252 0.0095 0.06314 0.0
H1195 H 0.14801 0.98254 0.05494 0.0
H1196 H 0.14441 0.00803 0.07618 0.0
H1197 H 0.1759 0.02764 0.9751 0.0
H1198 H 0.15038 0.03623 0.96135 0.0
H1199 H 0.14975 0.00362 0.96366 0.0
C1200 C 0.69451 0.58555 0.0045 0.0
C1201 C 0.69819 0.60972 0.99702 0.0
C1202 C 0.6713 0.57015 0.00482 0.0
C1203 C 0.65126 0.57911 0.9975 0.0
C1204 C 0.65483 0.60343 0.98988 0.0
C1205 C 0.67821 0.6184 0.98969 0.0
C1206 C 0.6682 0.54429 0.01297 0.0
C1207 C 0.63391 0.61365 0.98188 0.0
C1208 C 0.59228 0.5333 0.97428 0.0
C1209 C 0.5783 0.53504 0.99369 0.0
C1210 C 0.61628 0.54691 0.97559 0.0
C1211 C 0.62654 0.56274 0.99684 0.0
C1212 C 0.61272 0.56391 0.01683 0.0
C1213 C 0.58869 0.54999 0.01501 0.0
C1214 C 0.63037 0.54502 0.95391 0.0
C1215 C 0.62302 0.58056 0.0398 0.0
H1216 H 0.70979 0.57868 0.0103 0.0
H1217 H 0.68079 0.63705 0.98398 0.0
H1218 H 0.6568 0.54265 0.02827 0.0
H1219 H 0.65889 0.52958 0.9983 0.0
H1220 H 0.68558 0.54028 0.01851 0.0
H1221 H 0.63969 0.63315 0.97697 0.0
H1222 H 0.62355 0.60124 0.96614 0.0
H1223 H 0.6216 0.61373 0.99635 0.0
H1224 H 0.58427 0.5217 0.95776 0.0
H1225 H 0.57785 0.55147 0.02995 0.0
H1226 H 0.64743 0.54009 0.95891 0.0
H1227 H 0.63503 0.56359 0.94691 0.0
H1228 H 0.62024 0.53065 0.93932 0.0
H1229 H 0.64025 0.57671 0.04605 0.0
H1230 H 0.61063 0.57778 0.05427 0.0
H1231 H 0.62684 0.60068 0.03656 0.0
C1232 C 0.72385 0.45791 0.25994 0.0
C1233 C 0.70551 0.45933 0.27508 0.0
C1234 C 0.73521 0.43787 0.25939 0.0
C1235 C 0.72803 0.4186 0.27426 0.0
C1236 C 0.70995 0.42023 0.29004 0.0
C1237 C 0.69894 0.44058 0.29029 0.0
C1238 C 0.75443 0.43693 0.24236 0.0
C1239 C 0.70171 0.40003 0.30612 0.0
C1240 C 0.73579 0.35309 0.25333 0.0
C1241 C 0.75586 0.35168 0.26797 0.0
C1242 C 0.72676 0.37476 0.25514 0.0
C1243 C 0.73807 0.39579 0.27192 0.0
C1244 C 0.7587 0.39484 0.28636 0.0
C1245 C 0.76734 0.37278 0.28424 0.0
C1246 C 0.70475 0.37491 0.23935 0.0
C1247 C 0.77134 0.41693 0.30436 0.0
H1248 H 0.72919 0.47236 0.2482 0.0
H1249 H 0.68485 0.44153 0.30209 0.0
H1250 H 0.77082 0.43445 0.25208 0.0
H1251 H 0.74816 0.42042 0.22846 0.0
H1252 H 0.75922 0.45428 0.2333 0.0
H1253 H 0.68861 0.40485 0.31844 0.0
H1254 H 0.69321 0.38185 0.29505 0.0
H1255 H 0.71726 0.39707 0.31693 0.0
H1256 H 0.72671 0.33699 0.24065 0.0
H1257 H 0.78275 0.37189 0.29572 0.0
H1258 H 0.70872 0.39093 0.22849 0.0
H1259 H 0.69012 0.37761 0.25059 0.0
H1260 H 0.6982 0.3571 0.22703 0.0
H1261 H 0.77651 0.43427 0.29539 0.0
H1262 H 0.78766 0.41363 0.31357 0.0
H1263 H 0.75902 0.42054 0.31805 0.0
C1264 C 0.83275 0.47067 0.51023 0.0
C1265 C 0.82484 0.4443 0.50874 0.0
C1266 C 0.85692 0.48227 0.50835 0.0
C1267 C 0.87355 0.46713 0.50533 0.0
C1268 C 0.86563 0.4405 0.50355 0.0
C1269 C 0.84132 0.42939 0.50509 0.0
C1270 C 0.86472 0.51072 0.50997 0.0
C1271 C 0.88295 0.42378 0.5007 0.0
C1272 C 0.93453 0.49415 0.48374 0.0
C1273 C 0.94887 0.50086 0.50542 0.0
C1274 C 0.90983 0.48351 0.48342 0.0
C1275 C 0.89944 0.47914 0.50527 0.0
C1276 C 0.91386 0.48582 0.52719 0.0
C1277 C 0.93838 0.49678 0.52701 0.0
C1278 C 0.89486 0.47698 0.45976 0.0
C1279 C 0.90346 0.4811 0.55083 0.0
H1280 H 0.82005 0.48227 0.51284 0.0
H1281 H 0.83533 0.409 0.50401 0.0
H1282 H 0.87711 0.51829 0.52622 0.0
H1283 H 0.87465 0.5164 0.49429 0.0
H1284 H 0.84932 0.51965 0.51075 0.0
H1285 H 0.87378 0.40337 0.49891 0.0
H1286 H 0.89297 0.42757 0.48467 0.0
H1287 H 0.89629 0.4281 0.51646 0.0
H1288 H 0.94254 0.49748 0.46702 0.0
H1289 H 0.9494 0.5018 0.54383 0.0
H1290 H 0.88009 0.4868 0.46006 0.0
H1291 H 0.88652 0.45639 0.45674 0.0
H1292 H 0.90557 0.48229 0.44445 0.0
H1293 H 0.8891 0.49123 0.55353 0.0
H1294 H 0.91718 0.48734 0.56627 0.0
H1295 H 0.8952 0.46065 0.55074 0.0
C1296 C 0.34469 0.12132 0.28328 0.0
C1297 C 0.33801 0.09537 0.27578 0.0
C1298 C 0.3275 0.13566 0.28362 0.0
C1299 C 0.30308 0.12345 0.27703 0.0
C1300 C 0.29609 0.09689 0.27149 0.0
C1301 C 0.31374 0.08319 0.27045 0.0
C1302 C 0.33569 0.16403 0.2893 0.0
C1303 C 0.27015 0.08313 0.26542 0.0
C1304 C 0.26183 0.16714 0.28807 0.0
C1305 C 0.2607 0.17602 0.26571 0.0
C1306 C 0.27406 0.14838 0.29173 0.0
C1307 C 0.28569 0.13886 0.27264 0.0
C1308 C 0.28276 0.14626 0.24954 0.0
C1309 C 0.26994 0.16452 0.24629 0.0
C1310 C 0.27599 0.14024 0.31639 0.0
C1311 C 0.29503 0.13674 0.22872 0.0
H1312 H 0.3635 0.13064 0.2874 0.0
H1313 H 0.30861 0.06297 0.26502 0.0
H1314 H 0.33251 0.17304 0.27306 0.0
H1315 H 0.32523 0.17088 0.30335 0.0
H1316 H 0.35504 0.17039 0.29547 0.0
H1317 H 0.26731 0.06243 0.26581 0.0
H1318 H 0.25859 0.09036 0.27813 0.0
H1319 H 0.26426 0.08644 0.24722 0.0
H1320 H 0.25439 0.17587 0.30302 0.0
H1321 H 0.269 0.17133 0.22895 0.0
H1322 H 0.29345 0.15063 0.32587 0.0
H1323 H 0.27516 0.11974 0.31534 0.0
H1324 H 0.26155 0.14441 0.32725 0.0
H1325 H 0.31475 0.14354 0.23246 0.0
H1326 H 0.2898 0.14328 0.21166 0.0
H1327 H 0.2907 0.1158 0.22629 0.0
C1328 C 0.33211 0.10008 0.52227 0.0
C1329 C 0.32086 0.10631 0.50185 0.0
C1330 C 0.35175 0.08911 0.52067 0.0
C1331 C 0.35992 0.08338 0.49796 0.0
C1332 C 0.34828 0.08913 0.47717 0.0
C1333 C 0.32915 0.10094 0.47941 0.0
C1334 C 0.36407 0.08412 0.54338 0.0
C1335 C 0.35595 0.08266 0.45259 0.0
C1336 C 0.42444 0.0777 0.49704 0.0
C1337 C 0.42185 0.05169 0.49751 0.0
C1338 C 0.40445 0.08819 0.49683 0.0
C1339 C 0.38114 0.07219 0.49625 0.0
C1340 C 0.37837 0.04572 0.49559 0.0
C1341 C 0.3988 0.03582 0.49667 0.0
C1342 C 0.40838 0.11654 0.49834 0.0
C1343 C 0.35385 0.02791 0.49421 0.0
H1344 H 0.32588 0.10437 0.53968 0.0
H1345 H 0.32037 0.10553 0.46355 0.0
H1346 H 0.36326 0.06368 0.54288 0.0
H1347 H 0.38329 0.09427 0.54488 0.0
H1348 H 0.35587 0.09022 0.55966 0.0
H1349 H 0.34423 0.08704 0.43814 0.0
H1350 H 0.37463 0.09334 0.45115 0.0
H1351 H 0.35563 0.06226 0.44964 0.0
H1352 H 0.44227 0.09007 0.49789 0.0
H1353 H 0.39676 0.01569 0.49694 0.0
H1354 H 0.40149 0.12372 0.51501 0.0
H1355 H 0.39827 0.12167 0.48309 0.0
H1356 H 0.4276 0.12631 0.49829 0.0
H1357 H 0.34535 0.03097 0.5111 0.0
H1358 H 0.35461 0.00779 0.49124 0.0
H1359 H 0.34215 0.03176 0.47947 0.0
C1360 C 0.72334 0.59824 0.28673 0.0
C1361 C 0.70258 0.59312 0.29914 0.0
C1362 C 0.73641 0.62315 0.28582 0.0
C1363 C 0.72869 0.64345 0.29779 0.0
C1364 C 0.70867 0.63837 0.3116 0.0
C1365 C 0.6958 0.61327 0.31205 0.0
C1366 C 0.75765 0.62777 0.27086 0.0
C1367 C 0.70007 0.65951 0.32487 0.0
C1368 C 0.77175 0.70855 0.3042 0.0
C1369 C 0.76325 0.71902 0.28484 0.0
C1370 C 0.76039 0.68413 0.30901 0.0
C1371 C 0.74022 0.6699 0.29398 0.0
C1372 C 0.7314 0.68062 0.27463 0.0
C1373 C 0.74297 0.70509 0.27036 0.0
C1374 C 0.77013 0.67345 0.32996 0.0
C1375 C 0.70997 0.66607 0.25813 0.0
H1376 H 0.72881 0.58286 0.27674 0.0
H1377 H 0.67988 0.60954 0.32182 0.0
H1378 H 0.75339 0.63699 0.2551 0.0
H1379 H 0.77343 0.64076 0.28131 0.0
H1380 H 0.76259 0.60999 0.26437 0.0
H1381 H 0.68609 0.6524 0.337 0.0
H1382 H 0.71525 0.67318 0.33558 0.0
H1383 H 0.69248 0.66995 0.31182 0.0
H1384 H 0.78735 0.71939 0.31551 0.0
H1385 H 0.73631 0.71318 0.25542 0.0
H1386 H 0.77651 0.65659 0.32344 0.0
H1387 H 0.75574 0.66719 0.3419 0.0
H1388 H 0.7852 0.68739 0.34061 0.0
H1389 H 0.7138 0.64863 0.24915 0.0
H1390 H 0.70512 0.6773 0.24417 0.0
H1391 H 0.69425 0.66018 0.26859 0.0
C1392 C 0.85026 0.48003 0.77734 0.0
C1393 C 0.87528 0.48448 0.77765 0.0
C1394 C 0.83596 0.45575 0.77837 0.0
C1395 C 0.84692 0.43536 0.7794 0.0
C1396 C 0.8722 0.43976 0.78027 0.0
C1397 C 0.88614 0.46437 0.77957 0.0
C1398 C 0.80907 0.45185 0.77774 0.0
C1399 C 0.88445 0.41835 0.78113 0.0
C1400 C 0.81035 0.37402 0.79757 0.0
C1401 C 0.80212 0.36002 0.77518 0.0
C1402 C 0.825 0.39862 0.79927 0.0
C1403 C 0.83176 0.40926 0.77809 0.0
C1404 C 0.82351 0.39523 0.75546 0.0
C1405 C 0.80866 0.37085 0.75428 0.0
C1406 C 0.83319 0.41325 0.82368 0.0
C1407 C 0.83048 0.40591 0.73247 0.0
H1408 H 0.84176 0.49556 0.77615 0.0
H1409 H 0.90546 0.46773 0.7798 0.0
H1410 H 0.80056 0.43993 0.76097 0.0
H1411 H 0.80205 0.44172 0.7929 0.0
H1412 H 0.80352 0.46997 0.77867 0.0
H1413 H 0.90429 0.4251 0.78294 0.0
H1414 H 0.87875 0.40767 0.79635 0.0
H1415 H 0.87908 0.40496 0.7645 0.0
H1416 H 0.80533 0.36579 0.81379 0.0
H1417 H 0.80257 0.3601 0.7369 0.0
H1418 H 0.82699 0.43098 0.82522 0.0
H1419 H 0.85304 0.41868 0.82608 0.0
H1420 H 0.82633 0.40225 0.83841 0.0
H1421 H 0.82399 0.42326 0.73117 0.0
H1422 H 0.82304 0.39226 0.71635 0.0
H1423 H 0.85029 0.41135 0.7324 0.0
C1424 C 0.02608 0.8724 0.11223 0.0
C1425 C 0.03795 0.85499 0.10179 0.0
C1426 C 0.02195 0.8922 0.09997 0.0
C1427 C 0.02925 0.89413 0.07646 0.0
C1428 C 0.04033 0.87592 0.06549 0.0
C1429 C 0.04488 0.85679 0.07843 0.0
C1430 C 0.01064 0.91162 0.11251 0.0
C1431 C 0.04779 0.87691 0.04024 0.0
C1432 C 0.00319 0.93702 0.03939 0.0
C1433 C 0.02219 0.95867 0.04161 0.0
C1434 C 0.00539 0.91557 0.05016 0.0
C1435 C 0.02683 0.91614 0.06399 0.0
C1436 C 0.04607 0.93794 0.06618 0.0
C1437 C 0.04362 0.95879 0.05473 0.0
C1438 C 0.98476 0.89238 0.04685 0.0
C1439 C 0.06907 0.93953 0.08114 0.0
H1440 H 0.02079 0.87107 0.13033 0.0
H1441 H 0.05382 0.84316 0.07022 0.0
H1442 H 0.02348 0.93044 0.11463 0.0
H1443 H 0.99457 0.91316 0.10158 0.0
H1444 H 0.00531 0.90698 0.13048 0.0
H1445 H 0.05407 0.86001 0.03352 0.0
H1446 H 0.03258 0.87836 0.02796 0.0
H1447 H 0.06248 0.89397 0.03956 0.0
H1448 H 0.98663 0.93682 0.02921 0.0
H1449 H 0.0583 0.97557 0.05677 0.0
H1450 H 0.97774 0.88854 0.06439 0.0
H1451 H 0.991 0.87564 0.03967 0.0
H1452 H 0.96985 0.89449 0.0345 0.0
H1453 H 0.06514 0.93673 0.09988 0.0
H1454 H 0.08221 0.95799 0.08123 0.0
H1455 H 0.07749 0.9243 0.07424 0.0
C1456 C 0.9209 0.24095 0.80876 0.0
C1457 C 0.91974 0.23543 0.83246 0.0
C1458 C 0.90049 0.2435 0.79544 0.0
C1459 C 0.87828 0.23966 0.80587 0.0
C1460 C 0.87672 0.23242 0.82926 0.0
C1461 C 0.89757 0.23081 0.84244 0.0
C1462 C 0.90306 0.25197 0.77084 0.0
C1463 C 0.8532 0.22737 0.84071 0.0
C1464 C 0.83429 0.27675 0.78659 0.0
C1465 C 0.81861 0.25908 0.76974 0.0
C1466 C 0.85385 0.27066 0.79827 0.0
C1467 C 0.85745 0.24603 0.79345 0.0
C1468 C 0.8414 0.22792 0.7767 0.0
C1469 C 0.82229 0.23481 0.76472 0.0
C1470 C 0.87074 0.29069 0.81567 0.0
C1471 C 0.84425 0.20127 0.77171 0.0
H1472 H 0.93806 0.24471 0.80107 0.0
H1473 H 0.89661 0.22629 0.86071 0.0
H1474 H 0.88936 0.23935 0.75762 0.0
H1475 H 0.90008 0.27126 0.77121 0.0
H1476 H 0.92108 0.2523 0.76459 0.0
H1477 H 0.85453 0.21946 0.85797 0.0
H1478 H 0.84735 0.24517 0.84408 0.0
H1479 H 0.83908 0.21398 0.82844 0.0
H1480 H 0.83144 0.29556 0.7904 0.0
H1481 H 0.80995 0.2211 0.75186 0.0
H1482 H 0.88939 0.2931 0.8105 0.0
H1483 H 0.87032 0.28477 0.83391 0.0
H1484 H 0.86608 0.30927 0.81641 0.0
H1485 H 0.8618 0.20144 0.76448 0.0
H1486 H 0.82984 0.18927 0.75872 0.0
H1487 H 0.84403 0.19252 0.78862 0.0
C1488 C 0.5406 0.22674 0.59271 0.0
C1489 C 0.53032 0.22839 0.61469 0.0
C1490 C 0.54006 0.20321 0.57992 0.0
C1491 C 0.52907 0.18075 0.58934 0.0
C1492 C 0.51854 0.18225 0.61142 0.0
C1493 C 0.51924 0.20602 0.62379 0.0
C1494 C 0.5513 0.20238 0.55633 0.0
C1495 C 0.50663 0.15871 0.62203 0.0
C1496 C 0.50681 0.11986 0.54741 0.0
C1497 C 0.52487 0.10713 0.55142 0.0
C1498 C 0.50816 0.14393 0.55934 0.0
C1499 C 0.52802 0.15564 0.57583 0.0
C1500 C 0.54653 0.14313 0.57973 0.0
C1501 C 0.54479 0.11903 0.56741 0.0
C1502 C 0.48813 0.15669 0.55451 0.0
C1503 C 0.56797 0.15502 0.59725 0.0
H1504 H 0.54922 0.24387 0.58552 0.0
H1505 H 0.51134 0.20705 0.64078 0.0
H1506 H 0.56559 0.19196 0.55718 0.0
H1507 H 0.53767 0.19202 0.54183 0.0
H1508 H 0.55918 0.22155 0.55148 0.0
H1509 H 0.49956 0.16311 0.63952 0.0
H1510 H 0.4916 0.14716 0.60952 0.0
H1511 H 0.5196 0.14697 0.62465 0.0
H1512 H 0.49142 0.11098 0.53493 0.0
H1513 H 0.55879 0.10934 0.57066 0.0
H1514 H 0.49543 0.17543 0.54853 0.0
H1515 H 0.4794 0.15994 0.57124 0.0
H1516 H 0.47425 0.14532 0.54064 0.0
H1517 H 0.57713 0.17378 0.59238 0.0
H1518 H 0.5811 0.14313 0.59782 0.0
H1519 H 0.562 0.15811 0.61548 0.0
C1520 C 0.57073 0.74022 0.33326 0.0
C1521 C 0.56677 0.76443 0.33765 0.0
C1522 C 0.59036 0.73632 0.32095 0.0
C1523 C 0.60684 0.75732 0.31385 0.0
C1524 C 0.60294 0.78187 0.31857 0.0
C1525 C 0.58262 0.78503 0.32999 0.0
C1526 C 0.59343 0.7098 0.31547 0.0
C1527 C 0.62051 0.80486 0.31208 0.0
C1528 C 0.67087 0.75347 0.30612 0.0
C1529 C 0.67185 0.75328 0.2813 0.0
C1530 C 0.64968 0.75432 0.31691 0.0
C1531 C 0.62873 0.75393 0.30241 0.0
C1532 C 0.62927 0.75208 0.27716 0.0
C1533 C 0.65104 0.75238 0.26691 0.0
C1534 C 0.65018 0.75725 0.34392 0.0
C1535 C 0.60706 0.75059 0.26104 0.0
H1536 H 0.55819 0.72431 0.33903 0.0
H1537 H 0.57943 0.80373 0.3335 0.0
H1538 H 0.59519 0.70564 0.29604 0.0
H1539 H 0.61012 0.70798 0.32511 0.0
H1540 H 0.57814 0.6954 0.3207 0.0
H1541 H 0.61519 0.82266 0.31763 0.0
H1542 H 0.63858 0.80615 0.32079 0.0
H1543 H 0.622 0.80321 0.29247 0.0
H1544 H 0.68708 0.75454 0.3173 0.0
H1545 H 0.65186 0.75222 0.24771 0.0
H1546 H 0.63576 0.7425 0.34993 0.0
H1547 H 0.64686 0.77585 0.35036 0.0
H1548 H 0.66761 0.75606 0.35254 0.0
H1549 H 0.59175 0.73617 0.26615 0.0
H1550 H 0.6097 0.74581 0.24188 0.0
H1551 H 0.60214 0.769 0.26312 0.0
C1552 C 0.03795 0.18818 0.43585 0.0
C1553 C 0.03647 0.21135 0.448 0.0
C1554 C 0.0384 0.16736 0.4483 0.0
C1555 C 0.0373 0.16974 0.47348 0.0
C1556 C 0.03694 0.19336 0.48595 0.0
C1557 C 0.03649 0.21385 0.47309 0.0
C1558 C 0.03903 0.14251 0.43439 0.0
C1559 C 0.03603 0.19672 0.51281 0.0
C1560 C 0.00627 0.10973 0.49772 0.0
C1561 C 0.02563 0.10092 0.50647 0.0
C1562 C 0.00992 0.13248 0.48769 0.0
C1563 C 0.03356 0.14686 0.48626 0.0
C1564 C 0.05321 0.13872 0.49612 0.0
C1565 C 0.049 0.11575 0.50615 0.0
C1566 C 0.98842 0.14056 0.47768 0.0
C1567 C 0.07871 0.15344 0.49495 0.0
H1568 H 0.03819 0.1861 0.41652 0.0
H1569 H 0.03565 0.23173 0.48273 0.0
H1570 H 0.05348 0.13495 0.44241 0.0
H1571 H 0.02182 0.12847 0.43534 0.0
H1572 H 0.04195 0.1443 0.41525 0.0
H1573 H 0.03813 0.2168 0.52008 0.0
H1574 H 0.01861 0.18553 0.51765 0.0
H1575 H 0.05034 0.18953 0.52161 0.0
H1576 H 0.98815 0.09838 0.49808 0.0
H1577 H 0.06403 0.10884 0.5126 0.0
H1578 H 0.98888 0.14054 0.45801 0.0
H1579 H 0.98887 0.16011 0.48546 0.0
H1580 H 0.97121 0.12791 0.48135 0.0
H1581 H 0.08449 0.14905 0.47686 0.0
H1582 H 0.09112 0.14838 0.50832 0.0
H1583 H 0.08035 0.1741 0.49803 0.0
C1584 C 0.58502 0.28048 0.16385 0.0
C1585 C 0.56368 0.26321 0.16747 0.0
C1586 C 0.60707 0.27924 0.17499 0.0
C1587 C 0.60787 0.25992 0.18966 0.0
C1588 C 0.58639 0.2424 0.1933 0.0
C1589 C 0.56455 0.24443 0.18239 0.0
C1590 C 0.6295 0.29866 0.17115 0.0
C1591 C 0.58651 0.22131 0.20851 0.0
C1592 C 0.66798 0.24393 0.20183 0.0
C1593 C 0.67505 0.25625 0.22503 0.0
C1594 C 0.64597 0.24465 0.19016 0.0
C1595 C 0.63105 0.25848 0.20182 0.0
C1596 C 0.63823 0.27098 0.22524 0.0
C1597 C 0.66 0.26948 0.23663 0.0
C1598 C 0.63869 0.23067 0.16536 0.0
C1599 C 0.62312 0.28632 0.23814 0.0
H1600 H 0.58447 0.29503 0.15235 0.0
H1601 H 0.54819 0.23081 0.18505 0.0
H1602 H 0.63813 0.30885 0.18864 0.0
H1603 H 0.64257 0.28919 0.16281 0.0
H1604 H 0.6258 0.3127 0.15953 0.0
H1605 H 0.56836 0.20874 0.20894 0.0
H1606 H 0.59861 0.20974 0.20152 0.0
H1607 H 0.59351 0.22928 0.22713 0.0
H1608 H 0.67964 0.23376 0.19283 0.0
H1609 H 0.66552 0.27925 0.25451 0.0
H1610 H 0.63676 0.24419 0.15248 0.0
H1611 H 0.62099 0.21712 0.16515 0.0
H1612 H 0.65191 0.22014 0.15908 0.0
H1613 H 0.62029 0.30139 0.22741 0.0
H1614 H 0.63148 0.29527 0.25615 0.0
H1615 H 0.60522 0.27412 0.24024 0.0
C1616 C 0.52602 0.85704 0.94938 0.0
C1617 C 0.54616 0.84693 0.95059 0.0
C1618 C 0.52571 0.87963 0.96326 0.0
C1619 C 0.54632 0.89282 0.97821 0.0
C1620 C 0.5668 0.88278 0.97944 0.0
C1621 C 0.56634 0.85965 0.96585 0.0
C1622 C 0.5033 0.88938 0.96186 0.0
C1623 C 0.58931 0.89674 0.99465 0.0
C1624 C 0.5477 0.96203 0.99291 0.0
C1625 C 0.53916 0.96236 0.01566 0.0
C1626 C 0.55159 0.93978 0.98105 0.0
C1627 C 0.54627 0.9173 0.99214 0.0
C1628 C 0.53853 0.91788 0.01561 0.0
C1629 C 0.53535 0.94061 0.02726 0.0
C1630 C 0.56035 0.94014 0.95626 0.0
C1631 C 0.5321 0.89419 0.02777 0.0
H1632 H 0.51031 0.84707 0.93774 0.0
H1633 H 0.58196 0.85189 0.96664 0.0
H1634 H 0.49732 0.8927 0.98006 0.0
H1635 H 0.50711 0.90774 0.95444 0.0
H1636 H 0.48836 0.87606 0.95044 0.0
H1637 H 0.60364 0.88632 0.99374 0.0
H1638 H 0.59613 0.91557 0.98862 0.0
H1639 H 0.58535 0.9 0.0136 0.0
H1640 H 0.55116 0.97914 0.98432 0.0
H1641 H 0.52865 0.94104 0.04488 0.0
H1642 H 0.57526 0.93058 0.95485 0.0
H1643 H 0.56657 0.95967 0.95155 0.0
H1644 H 0.54565 0.92965 0.94284 0.0
H1645 H 0.51599 0.88103 0.01799 0.0
H1646 H 0.52826 0.89822 0.0467 0.0
H1647 H 0.54681 0.88433 0.02732 0.0
C1648 C 0.93248 0.76179 0.70538 0.0
C1649 C 0.93274 0.76582 0.6812 0.0
C1650 C 0.91367 0.76584 0.71891 0.0
C1651 C 0.89427 0.77331 0.70778 0.0
C1652 C 0.89473 0.77796 0.68349 0.0
C1653 C 0.91416 0.77451 0.67059 0.0
C1654 C 0.91422 0.76141 0.74493 0.0
C1655 C 0.87415 0.78535 0.67078 0.0
C1656 C 0.83325 0.75301 0.73181 0.0
C1657 C 0.83003 0.77593 0.74299 0.0
C1658 C 0.85414 0.75192 0.72052 0.0
C1659 C 0.87261 0.77419 0.72086 0.0
C1660 C 0.86995 0.79721 0.733 0.0
C1661 C 0.84853 0.79788 0.74365 0.0
C1662 C 0.85602 0.72705 0.70747 0.0
C1663 C 0.88955 0.82117 0.73438 0.0
H1664 H 0.94696 0.75531 0.71371 0.0
H1665 H 0.91425 0.77752 0.65187 0.0
H1666 H 0.91044 0.77765 0.75616 0.0
H1667 H 0.90007 0.74441 0.74729 0.0
H1668 H 0.93178 0.75858 0.7516 0.0
H1669 H 0.87772 0.78934 0.6522 0.0
H1670 H 0.85769 0.76985 0.67007 0.0
H1671 H 0.87046 0.80234 0.68078 0.0
H1672 H 0.81901 0.73596 0.731 0.0
H1673 H 0.84621 0.81563 0.75233 0.0
H1674 H 0.87222 0.72177 0.71461 0.0
H1675 H 0.85789 0.72894 0.6882 0.0
H1676 H 0.84013 0.71143 0.70908 0.0
H1677 H 0.90683 0.81786 0.74122 0.0
H1678 H 0.88557 0.83695 0.74617 0.0
H1679 H 0.89193 0.82701 0.71622 0.0
C1680 C 0.07377 0.02014 0.8525 0.0
C1681 C 0.09497 0.01196 0.85063 0.0
C1682 C 0.06095 0.01749 0.87298 0.0
C1683 C 0.06968 0.00671 0.89234 0.0
C1684 C 0.09079 0.99785 0.89037 0.0
C1685 C 0.10308 0.0004 0.86945 0.0
C1686 C 0.03844 0.027 0.87418 0.0
C1687 C 0.1009 0.98663 0.91074 0.0
C1688 C 0.05063 0.02869 0.95284 0.0
C1689 C 0.03177 0.00834 0.95647 0.0
C1690 C 0.06376 0.02788 0.93262 0.0
C1691 C 0.05752 0.00643 0.91514 0.0
C1692 C 0.03864 0.98566 0.9188 0.0
C1693 C 0.02604 0.98681 0.9395 0.0
C1694 C 0.0839 0.05036 0.92966 0.0
C1695 C 0.03129 0.96254 0.90052 0.0
H1696 H 0.06729 0.02896 0.838 0.0
H1697 H 0.11952 0.99416 0.86821 0.0
H1698 H 0.02343 0.01201 0.87895 0.0
H1699 H 0.04129 0.04323 0.88841 0.0
H1700 H 0.03308 0.03317 0.85698 0.0
H1701 H 0.11638 0.9789 0.90577 0.0
H1702 H 0.10688 0.00134 0.92634 0.0
H1703 H 0.08689 0.9713 0.91656 0.0
H1704 H 0.05484 0.04562 0.96557 0.0
H1705 H 0.01143 0.97107 0.94217 0.0
H1706 H 0.07917 0.05951 0.91404 0.0
H1707 H 0.1005 0.04416 0.9261 0.0
H1708 H 0.08773 0.06465 0.94575 0.0
H1709 H 0.02435 0.96777 0.8835 0.0
H1710 H 0.01721 0.94742 0.90662 0.0
H1711 H 0.04702 0.95488 0.89659 0.0
C1712 C 0.72775 0.34412 0.5702 0.0
C1713 C 0.73639 0.37049 0.57414 0.0
C1714 C 0.72624 0.32951 0.58927 0.0
C1715 C 0.7338 0.34156 0.61275 0.0
C1716 C 0.74105 0.36826 0.61704 0.0
C1717 C 0.74215 0.38247 0.59763 0.0
C1718 C 0.71775 0.30111 0.58416 0.0
C1719 C 0.74903 0.38173 0.64194 0.0
C1720 C 0.72192 0.30715 0.66749 0.0
C1721 C 0.74401 0.3014 0.67226 0.0
C1722 C 0.71785 0.31931 0.64752 0.0
C1723 C 0.73655 0.32626 0.63242 0.0
C1724 C 0.75857 0.31958 0.6367 0.0
C1725 C 0.76196 0.30702 0.65653 0.0
C1726 C 0.69396 0.32563 0.64332 0.0
C1727 C 0.77892 0.32666 0.62094 0.0
H1728 H 0.72288 0.33477 0.55209 0.0
H1729 H 0.74873 0.40283 0.60078 0.0
H1730 H 0.73304 0.29245 0.58724 0.0
H1731 H 0.70412 0.29375 0.59652 0.0
H1732 H 0.70993 0.29492 0.56543 0.0
H1733 H 0.75246 0.40259 0.64247 0.0
H1734 H 0.73525 0.37532 0.65445 0.0
H1735 H 0.76574 0.37701 0.64854 0.0
H1736 H 0.70799 0.3027 0.67968 0.0
H1737 H 0.77906 0.30259 0.6603 0.0
H1738 H 0.68816 0.32326 0.62394 0.0
H1739 H 0.69561 0.34567 0.65035 0.0
H1740 H 0.6798 0.31364 0.65258 0.0
H1741 H 0.77283 0.31922 0.602 0.0
H1742 H 0.79456 0.31929 0.62627 0.0
H1743 H 0.78485 0.34754 0.62191 0.0
C1744 C 0.48398 0.06141 0.34956 0.0
C1745 C 0.46422 0.07172 0.34577 0.0
C1746 C 0.49538 0.0633 0.37245 0.0
C1747 C 0.48702 0.07616 0.39202 0.0
C1748 C 0.46853 0.08863 0.38801 0.0
C1749 C 0.45717 0.08611 0.36486 0.0
C1750 C 0.51496 0.04959 0.37594 0.0
C1751 C 0.45963 0.1031 0.40837 0.0
C1752 C 0.49213 0.04533 0.44816 0.0
C1753 C 0.51409 0.05981 0.45925 0.0
C1754 C 0.48245 0.05141 0.42693 0.0
C1755 C 0.49495 0.0727 0.41667 0.0
C1756 C 0.51639 0.08837 0.4286 0.0
C1757 C 0.52588 0.08158 0.44976 0.0
C1758 C 0.45959 0.03408 0.41475 0.0
C1759 C 0.52981 0.11159 0.41851 0.0
H1760 H 0.48979 0.05057 0.33483 0.0
H1761 H 0.44209 0.0944 0.36199 0.0
H1762 H 0.53068 0.06213 0.38682 0.0
H1763 H 0.50828 0.03315 0.3858 0.0
H1764 H 0.52094 0.04262 0.35866 0.0
H1765 H 0.44902 0.11589 0.40181 0.0
H1766 H 0.44801 0.08962 0.41871 0.0
H1767 H 0.47481 0.11444 0.42084 0.0
H1768 H 0.48287 0.0286 0.4556 0.0
H1769 H 0.54272 0.09297 0.45855 0.0
H1770 H 0.46343 0.02464 0.39752 0.0
H1771 H 0.44633 0.04507 0.41062 0.0
H1772 H 0.45135 0.01928 0.4259 0.0
H1773 H 0.53911 0.10585 0.40292 0.0
H1774 H 0.54343 0.12413 0.43194 0.0
H1775 H 0.51726 0.12248 0.4121 0.0
C1776 C 0.7867 0.69254 0.0899 0.0
C1777 C 0.77833 0.70264 0.07014 0.0
C1778 C 0.78584 0.70336 0.11346 0.0
C1779 C 0.77649 0.72495 0.11751 0.0
C1780 C 0.76891 0.73589 0.09768 0.0
C1781 C 0.76988 0.7246 0.07425 0.0
C1782 C 0.79422 0.69115 0.13406 0.0
C1783 C 0.75906 0.75905 0.10123 0.0
C1784 C 0.75114 0.73577 0.17781 0.0
C1785 C 0.77022 0.75375 0.19078 0.0
C1786 C 0.75282 0.72652 0.15386 0.0
C1787 C 0.77404 0.73554 0.14252 0.0
C1788 C 0.7932 0.75398 0.1554 0.0
C1789 C 0.79109 0.7628 0.17932 0.0
C1790 C 0.73201 0.70676 0.1408 0.0
C1791 C 0.8161 0.76419 0.14402 0.0
H1792 H 0.7933 0.67562 0.08703 0.0
H1793 H 0.76334 0.73258 0.05918 0.0
H1794 H 0.80795 0.70522 0.14614 0.0
H1795 H 0.77894 0.68412 0.14476 0.0
H1796 H 0.80192 0.67506 0.12791 0.0
H1797 H 0.75529 0.76617 0.08403 0.0
H1798 H 0.7422 0.75456 0.11029 0.0
H1799 H 0.7719 0.77437 0.11299 0.0
H1800 H 0.73496 0.72864 0.18644 0.0
H1801 H 0.80594 0.77682 0.18905 0.0
H1802 H 0.73775 0.68917 0.13551 0.0
H1803 H 0.72599 0.71341 0.12413 0.0
H1804 H 0.71654 0.70218 0.15189 0.0
H1805 H 0.82478 0.74863 0.1388 0.0
H1806 H 0.82905 0.77905 0.15622 0.0
H1807 H 0.81207 0.77223 0.12745 0.0
C1808 C 0.13599 0.02443 0.70273 0.0
C1809 C 0.12035 0.01593 0.72005 0.0
C1810 C 0.12729 0.02892 0.68023 0.0
C1811 C 0.10227 0.02408 0.67456 0.0
C1812 C 0.08634 0.01481 0.69172 0.0
C1813 C 0.09558 0.01123 0.7144 0.0
C1814 C 0.1449 0.03939 0.66273 0.0
C1815 C 0.05953 0.00868 0.68612 0.0
C1816 C 0.07733 0.05481 0.62444 0.0
C1817 C 0.07368 0.0356 0.60523 0.0
C1818 C 0.0872 0.0516 0.64699 0.0
C1819 C 0.0928 0.02833 0.65053 0.0
C1820 C 0.08925 0.00898 0.63107 0.0
C1821 C 0.08011 0.013 0.6086 0.0
C1822 C 0.0914 0.07298 0.6671 0.0
C1823 C 0.09439 0.98368 0.63414 0.0
H1824 H 0.15518 0.02852 0.70708 0.0
H1825 H 0.08342 0.00472 0.72772 0.0
H1826 H 0.14221 0.02615 0.64599 0.0
H1827 H 0.14176 0.0575 0.65784 0.0
H1828 H 0.1638 0.04274 0.67011 0.0
H1829 H 0.0496 0.00064 0.70101 0.0
H1830 H 0.05389 0.02601 0.6825 0.0
H1831 H 0.05431 0.99494 0.66971 0.0
H1832 H 0.07229 0.07225 0.62188 0.0
H1833 H 0.07703 0.99794 0.59386 0.0
H1834 H 0.11027 0.07746 0.6748 0.0
H1835 H 0.07983 0.06723 0.68166 0.0
H1836 H 0.08754 0.09037 0.66106 0.0
H1837 H 0.1135 0.9862 0.64031 0.0
H1838 H 0.09032 0.97048 0.61728 0.0
H1839 H 0.08354 0.97484 0.64809 0.0
C1840 C 0.73214 0.34329 0.42631 0.0
C1841 C 0.74488 0.3392 0.44679 0.0
C1842 C 0.73189 0.32862 0.40432 0.0
C1843 C 0.74472 0.3095 0.40289 0.0
C1844 C 0.75637 0.30429 0.42381 0.0
C1845 C 0.75628 0.31919 0.44553 0.0
C1846 C 0.71909 0.33455 0.38235 0.0
C1847 C 0.77021 0.28406 0.423 0.0
C1848 C 0.73459 0.2647 0.34518 0.0
C1849 C 0.75295 0.27708 0.33217 0.0
C1850 C 0.73201 0.27459 0.36863 0.0
C1851 C 0.74831 0.29715 0.37916 0.0
C1852 C 0.76768 0.30881 0.36653 0.0
C1853 C 0.7697 0.29865 0.34314 0.0
C1854 C 0.71121 0.26165 0.38164 0.0
C1855 C 0.78565 0.33271 0.37726 0.0
H1856 H 0.72318 0.35862 0.4272 0.0
H1857 H 0.766 0.31574 0.46136 0.0
H1858 H 0.73245 0.34301 0.37018 0.0
H1859 H 0.70755 0.317 0.37237 0.0
H1860 H 0.70783 0.34799 0.38689 0.0
H1861 H 0.77566 0.28023 0.44119 0.0
H1862 H 0.7594 0.2662 0.41289 0.0
H1863 H 0.7866 0.29016 0.41351 0.0
H1864 H 0.72158 0.24804 0.33666 0.0
H1865 H 0.78389 0.30821 0.33307 0.0
H1866 H 0.6983 0.27373 0.38356 0.0
H1867 H 0.71745 0.25896 0.39994 0.0
H1868 H 0.70164 0.24297 0.37199 0.0
H1869 H 0.77657 0.34838 0.38003 0.0
H1870 H 0.80053 0.33839 0.36567 0.0
H1871 H 0.79338 0.33014 0.39503 0.0
C1872 C 0.42907 0.06813 0.19345 0.0
C1873 C 0.44146 0.07144 0.21612 0.0
C1874 C 0.44126 0.0674 0.17259 0.0
C1875 C 0.46639 0.07024 0.17457 0.0
C1876 C 0.4792 0.07586 0.19738 0.0
C1877 C 0.46656 0.07631 0.21791 0.0
C1878 C 0.42702 0.06155 0.14853 0.0
C1879 C 0.50604 0.07947 0.20018 0.0
C1880 C 0.49041 0.03142 0.12679 0.0
C1881 C 0.4996 0.04943 0.1117 0.0
C1882 C 0.47983 0.03813 0.14747 0.0
C1883 C 0.47862 0.06354 0.15323 0.0
C1884 C 0.48857 0.08201 0.13842 0.0
C1885 C 0.49888 0.07468 0.11767 0.0
C1886 C 0.4694 0.01787 0.16282 0.0
C1887 C 0.48786 0.1093 0.1442 0.0
H1888 H 0.40969 0.06455 0.19192 0.0
H1889 H 0.47631 0.07932 0.23539 0.0
H1890 H 0.43557 0.07444 0.13585 0.0
H1891 H 0.42663 0.04198 0.14083 0.0
H1892 H 0.40826 0.06316 0.14987 0.0
H1893 H 0.51366 0.08766 0.21863 0.0
H1894 H 0.51047 0.06093 0.19621 0.0
H1895 H 0.51487 0.09198 0.18734 0.0
H1896 H 0.49093 0.01189 0.12211 0.0
H1897 H 0.50599 0.0886 0.10593 0.0
H1898 H 0.44989 0.01622 0.16353 0.0
H1899 H 0.47776 0.02305 0.18143 0.0
H1900 H 0.47211 0.99909 0.15596 0.0
H1901 H 0.46904 0.11093 0.14244 0.0
H1902 H 0.49838 0.12168 0.13214 0.0
H1903 H 0.49495 0.11634 0.16299 0.0
C1904 C 0.78194 0.70124 0.91923 0.0
C1905 C 0.768 0.70947 0.93661 0.0
C1906 C 0.78427 0.71163 0.89735 0.0
C1907 C 0.77256 0.73088 0.89278 0.0
C1908 C 0.75884 0.73955 0.91046 0.0
C1909 C 0.75666 0.72871 0.93204 0.0
C1910 C 0.79888 0.70168 0.87892 0.0
C1911 C 0.74615 0.7601 0.90646 0.0
C1912 C 0.79215 0.77441 0.84504 0.0
C1913 C 0.7742 0.76446 0.82641 0.0
C1914 C 0.79223 0.7633 0.8665 0.0
C1915 C 0.77402 0.7416 0.86935 0.0
C1916 C 0.75629 0.73106 0.85025 0.0
C1917 C 0.7565 0.7427 0.82913 0.0
C1918 C 0.81141 0.77523 0.8864 0.0
C1919 C 0.73664 0.70787 0.85237 0.0
H1920 H 0.79069 0.68633 0.92252 0.0
H1921 H 0.74589 0.73528 0.94532 0.0
H1922 H 0.78723 0.69312 0.86239 0.0
H1923 H 0.81303 0.71741 0.87394 0.0
H1924 H 0.80747 0.68724 0.88544 0.0
H1925 H 0.73687 0.76536 0.92228 0.0
H1926 H 0.75917 0.77723 0.90231 0.0
H1927 H 0.73271 0.75375 0.89084 0.0
H1928 H 0.80588 0.79122 0.84307 0.0
H1929 H 0.74243 0.73504 0.81494 0.0
H1930 H 0.82055 0.76094 0.89223 0.0
H1931 H 0.80309 0.78239 0.90212 0.0
H1932 H 0.82504 0.79117 0.88093 0.0
H1933 H 0.74444 0.69247 0.85788 0.0
H1934 H 0.72534 0.70089 0.83529 0.0
H1935 H 0.72499 0.71229 0.86642 0.0
C1936 C 0.85765 0.10588 0.02316 0.0
C1937 C 0.83464 0.09656 0.03018 0.0
C1938 C 0.87299 0.08974 0.01895 0.0
C1939 C 0.86465 0.06361 0.02093 0.0
C1940 C 0.84082 0.05394 0.02648 0.0
C1941 C 0.82625 0.07065 0.03155 0.0
C1942 C 0.8985 0.10088 0.0137 0.0
C1943 C 0.83114 0.02615 0.02822 0.0
C1944 C 0.90579 0.02428 0.99614 0.0
C1945 C 0.91975 0.02321 0.01697 0.0
C1946 C 0.88657 0.03595 0.99726 0.0
C1947 C 0.88164 0.04706 0.01967 0.0
C1948 C 0.89455 0.0442 0.04089 0.0
C1949 C 0.9134 0.03221 0.03926 0.0
C1950 C 0.87246 0.03761 0.97438 0.0
C1951 C 0.89004 0.05559 0.06528 0.0
H1952 H 0.86406 0.12597 0.02219 0.0
H1953 H 0.80828 0.06349 0.03675 0.0
H1954 H 0.91099 0.09826 0.02839 0.0
H1955 H 0.90276 0.09094 0.99694 0.0
H1956 H 0.9019 0.12137 0.01188 0.0
H1957 H 0.81144 0.02121 0.02943 0.0
H1958 H 0.83541 0.01461 0.01243 0.0
H1959 H 0.8398 0.02093 0.04437 0.0
H1960 H 0.91062 0.0172 0.97888 0.0
H1961 H 0.92414 0.03136 0.05544 0.0
H1962 H 0.87758 0.05718 0.96961 0.0
H1963 H 0.85298 0.03312 0.97677 0.0
H1964 H 0.87581 0.02458 0.95922 0.0
H1965 H 0.90071 0.07549 0.06857 0.0
H1966 H 0.89561 0.04521 0.07962 0.0
H1967 H 0.87095 0.05558 0.06673 0.0
C1968 C 0.33281 0.46226 0.02667 0.0
C1969 C 0.32937 0.43848 0.03485 0.0
C1970 C 0.35597 0.47678 0.02414 0.0
C1971 C 0.37613 0.46764 0.03073 0.0
C1972 C 0.37271 0.44379 0.03937 0.0
C1973 C 0.34936 0.42933 0.04094 0.0
C1974 C 0.35887 0.50172 0.01412 0.0
C1975 C 0.39371 0.43364 0.04722 0.0
C1976 C 0.43778 0.49054 0.00867 0.0
C1977 C 0.44966 0.50778 0.02811 0.0
C1978 C 0.41338 0.47851 0.0086 0.0
C1979 C 0.40089 0.48301 0.02896 0.0
C1980 C 0.41271 0.50083 0.04844 0.0
C1981 C 0.43685 0.51334 0.04758 0.0
C1982 C 0.40124 0.46033 0.98711 0.0
C1983 C 0.4003 0.50561 0.07078 0.0
H1984 H 0.31735 0.46925 0.0217 0.0
H1985 H 0.34675 0.41101 0.04741 0.0
H1986 H 0.36921 0.51731 0.02746 0.0
H1987 H 0.36918 0.50165 0.99804 0.0
H1988 H 0.34137 0.50576 0.00911 0.0
H1989 H 0.38798 0.41525 0.05444 0.0
H1990 H 0.40454 0.43108 0.03188 0.0
H1991 H 0.40554 0.44739 0.06123 0.0
H1992 H 0.44768 0.48603 0.9937 0.0
H1993 H 0.44604 0.52649 0.06277 0.0
H1994 H 0.38361 0.46386 0.98183 0.0
H1995 H 0.39793 0.44068 0.99169 0.0
H1996 H 0.41228 0.46182 0.9715 0.0
H1997 H 0.38329 0.51079 0.06618 0.0
H1998 H 0.41164 0.52089 0.08387 0.0
H1999 H 0.3957 0.48805 0.07952 0.0
C2000 C 0.30593 0.59254 0.72417 0.0
C2001 C 0.33095 0.599 0.72817 0.0
C2002 C 0.29263 0.61078 0.72839 0.0
C2003 C 0.30476 0.63631 0.73572 0.0
C2004 C 0.33014 0.64295 0.7394 0.0
C2005 C 0.3429 0.62408 0.7361 0.0
C2006 C 0.26562 0.6027 0.72514 0.0
C2007 C 0.34384 0.67007 0.74635 0.0
C2008 C 0.27319 0.68822 0.72422 0.0
C2009 C 0.26864 0.69661 0.74746 0.0
C2010 C 0.28457 0.66831 0.72004 0.0
C2011 C 0.29098 0.65611 0.7395 0.0
C2012 C 0.2851 0.66362 0.7628 0.0
C2013 C 0.27447 0.68412 0.76657 0.0
C2014 C 0.29108 0.66148 0.69503 0.0
C2015 C 0.29065 0.65047 0.78389 0.0
H2016 H 0.29671 0.57306 0.71817 0.0
H2017 H 0.36228 0.62907 0.73897 0.0
H2018 H 0.25793 0.60863 0.7418 0.0
H2019 H 0.2589 0.61212 0.71066 0.0
H2020 H 0.2589 0.58193 0.7206 0.0
H2021 H 0.36355 0.67226 0.74746 0.0
H2022 H 0.3391 0.68205 0.73305 0.0
H2023 H 0.33883 0.67732 0.76396 0.0
H2024 H 0.2692 0.69825 0.7095 0.0
H2025 H 0.27105 0.69069 0.78457 0.0
H2026 H 0.28625 0.64072 0.69006 0.0
H2027 H 0.31076 0.66809 0.69436 0.0
H2028 H 0.28208 0.67022 0.68146 0.0
H2029 H 0.28408 0.62968 0.77951 0.0
H2030 H 0.28244 0.65656 0.80017 0.0
H2031 H 0.31032 0.65463 0.78806 0.0
C2032 C 0.20732 0.64019 0.51218 0.0
C2033 C 0.22378 0.62916 0.52363 0.0
C2034 C 0.18287 0.62806 0.509 0.0
C2035 C 0.17476 0.60431 0.51738 0.0
C2036 C 0.19133 0.59276 0.52838 0.0
C2037 C 0.21566 0.60536 0.53142 0.0
C2038 C 0.16565 0.64095 0.49725 0.0
C2039 C 0.18329 0.56738 0.53744 0.0
C2040 C 0.11062 0.58618 0.53369 0.0
C2041 C 0.09933 0.56949 0.51358 0.0
C2042 C 0.13515 0.59766 0.53508 0.0
C2043 C 0.14876 0.59225 0.51594 0.0
C2044 C 0.13756 0.57541 0.4956 0.0
C2045 C 0.11291 0.56425 0.49463 0.0
C2046 C 0.1465 0.61562 0.55703 0.0
C2047 C 0.15161 0.56915 0.47493 0.0
H2048 H 0.21345 0.65854 0.50605 0.0
H2049 H 0.22828 0.59662 0.54014 0.0
H2050 H 0.15482 0.62816 0.48199 0.0
H2051 H 0.15301 0.64538 0.51027 0.0
H2052 H 0.17499 0.65877 0.49061 0.0
H2053 H 0.19861 0.5603 0.54426 0.0
H2054 H 0.17144 0.56885 0.55213 0.0
H2055 H 0.17273 0.55325 0.52294 0.0
H2056 H 0.10028 0.59043 0.5484 0.0
H2057 H 0.10435 0.55133 0.47906 0.0
H2058 H 0.15483 0.63447 0.55178 0.0
H2059 H 0.16096 0.60866 0.56584 0.0
H2060 H 0.13335 0.61789 0.57029 0.0
H2061 H 0.1601 0.58665 0.46732 0.0
H2062 H 0.14021 0.55564 0.46043 0.0
H2063 H 0.16624 0.56084 0.48132 0.0
C2064 C 0.67494 0.93944 0.75809 0.0
C2065 C 0.68176 0.95884 0.74372 0.0
C2066 C 0.69089 0.92493 0.76424 0.0
C2067 C 0.71427 0.93048 0.75626 0.0
C2068 C 0.72179 0.95141 0.74344 0.0
C2069 C 0.70532 0.96515 0.73703 0.0
C2070 C 0.68201 0.90231 0.77739 0.0
C2071 C 0.74676 0.95833 0.73519 0.0
C2072 C 0.75653 0.89264 0.77876 0.0
C2073 C 0.75333 0.87328 0.75974 0.0
C2074 C 0.74474 0.91224 0.77758 0.0
C2075 C 0.72899 0.91179 0.75725 0.0
C2076 C 0.72642 0.89267 0.73773 0.0
C2077 C 0.73907 0.87402 0.73901 0.0
C2078 C 0.74845 0.93284 0.79834 0.0
C2079 C 0.70969 0.89129 0.71573 0.0
H2080 H 0.65675 0.93468 0.76336 0.0
H2081 H 0.71077 0.98057 0.72634 0.0
H2082 H 0.6799 0.88475 0.7649 0.0
H2083 H 0.69518 0.9018 0.7923 0.0
H2084 H 0.66449 0.90229 0.78471 0.0
H2085 H 0.75121 0.97768 0.72972 0.0
H2086 H 0.76026 0.95715 0.74956 0.0
H2087 H 0.74816 0.94479 0.7196 0.0
H2088 H 0.76759 0.89204 0.79478 0.0
H2089 H 0.7367 0.85916 0.72417 0.0
H2090 H 0.73202 0.93049 0.80812 0.0
H2091 H 0.75176 0.95167 0.79181 0.0
H2092 H 0.7637 0.93248 0.81112 0.0
H2093 H 0.69209 0.89417 0.72073 0.0
H2094 H 0.70646 0.87282 0.70442 0.0
H2095 H 0.71756 0.90641 0.7048 0.0
C2096 C 0.69965 0.96413 0.52653 0.0
C2097 C 0.70371 0.95432 0.54794 0.0
C2098 C 0.68103 0.97645 0.52354 0.0
C2099 C 0.66542 0.97796 0.54198 0.0
C2100 C 0.66927 0.96766 0.5635 0.0
C2101 C 0.6887 0.95649 0.56641 0.0
C2102 C 0.67813 0.98793 0.50067 0.0
C2103 C 0.65248 0.96778 0.58317 0.0
C2104 C 0.62603 0.02522 0.54334 0.0
C2105 C 0.6049 0.01063 0.53068 0.0
C2106 C 0.64608 0.01502 0.54678 0.0
C2107 C 0.64448 0.98932 0.53835 0.0
C2108 C 0.62278 0.97437 0.52628 0.0
C2109 C 0.60349 0.98537 0.52212 0.0
C2110 C 0.66911 0.03186 0.55897 0.0
C2111 C 0.61981 0.94667 0.5179 0.0
H2112 H 0.7114 0.96266 0.51232 0.0
H2113 H 0.69174 0.94874 0.58292 0.0
H2114 H 0.66093 0.97785 0.49051 0.0
H2115 H 0.67752 0.00798 0.50488 0.0
H2116 H 0.69292 0.98706 0.489 0.0
H2117 H 0.65766 0.95853 0.59858 0.0
H2118 H 0.65216 0.98745 0.58975 0.0
H2119 H 0.63395 0.9578 0.57606 0.0
H2120 H 0.62711 0.04478 0.54986 0.0
H2121 H 0.58701 0.97398 0.51256 0.0
H2122 H 0.68386 0.03198 0.54706 0.0
H2123 H 0.67412 0.02443 0.57557 0.0
H2124 H 0.66771 0.05161 0.56366 0.0
H2125 H 0.63214 0.9444 0.50385 0.0
H2126 H 0.60121 0.93725 0.51051 0.0
H2127 H 0.62456 0.93678 0.533 0.0
C2128 C 0.34435 0.44501 0.71602 0.0
C2129 C 0.33561 0.46653 0.72154 0.0
C2130 C 0.3302 0.42077 0.7177 0.0
C2131 C 0.30698 0.41806 0.72573 0.0
C2132 C 0.29771 0.43965 0.73048 0.0
C2133 C 0.31207 0.46368 0.72802 0.0
C2134 C 0.34051 0.39818 0.71186 0.0
C2135 C 0.27321 0.43755 0.73953 0.0
C2136 C 0.26461 0.35261 0.71902 0.0
C2137 C 0.26902 0.3447 0.74132 0.0
C2138 C 0.27683 0.37648 0.7136 0.0
C2139 C 0.29336 0.39292 0.73115 0.0
C2140 C 0.29756 0.38507 0.75384 0.0
C2141 C 0.28555 0.36091 0.75853 0.0
C2142 C 0.27241 0.38393 0.68901 0.0
C2143 C 0.31477 0.40218 0.77317 0.0
H2144 H 0.3625 0.44719 0.71082 0.0
H2145 H 0.30537 0.48032 0.73247 0.0
H2146 H 0.34393 0.39 0.72853 0.0
H2147 H 0.32756 0.38326 0.69977 0.0
H2148 H 0.3576 0.40321 0.70322 0.0
H2149 H 0.2679 0.4558 0.7406 0.0
H2150 H 0.25952 0.42312 0.72775 0.0
H2151 H 0.27318 0.4313 0.75766 0.0
H2152 H 0.25192 0.33996 0.70566 0.0
H2153 H 0.28889 0.35481 0.77583 0.0
H2154 H 0.28939 0.38768 0.68009 0.0
H2155 H 0.26622 0.40165 0.69049 0.0
H2156 H 0.25885 0.36904 0.67746 0.0
H2157 H 0.33318 0.40617 0.76722 0.0
H2158 H 0.31495 0.39375 0.79027 0.0
H2159 H 0.30986 0.42054 0.77658 0.0
C2160 C 0.151 0.58829 0.24175 0.0
C2161 C 0.15936 0.56891 0.22946 0.0
C2162 C 0.16475 0.61334 0.24466 0.0
C2163 C 0.18741 0.61904 0.23519 0.0
C2164 C 0.19592 0.5996 0.22274 0.0
C2165 C 0.18175 0.57479 0.21995 0.0
C2166 C 0.15506 0.63369 0.25789 0.0
C2167 C 0.22007 0.605 0.21251 0.0
C2168 C 0.21375 0.68639 0.22359 0.0
C2169 C 0.22975 0.69572 0.24396 0.0
C2170 C 0.19987 0.66144 0.22051 0.0
C2171 C 0.20218 0.6454 0.23813 0.0
C2172 C 0.21857 0.65451 0.25852 0.0
C2173 C 0.23213 0.67962 0.26124 0.0
C2174 C 0.18247 0.65236 0.19858 0.0
C2175 C 0.22164 0.63779 0.27756 0.0
H2176 H 0.13371 0.5839 0.24913 0.0
H2177 H 0.18842 0.55992 0.21052 0.0
H2178 H 0.16745 0.64301 0.27372 0.0
H2179 H 0.15388 0.64846 0.24613 0.0
H2180 H 0.13703 0.62615 0.26401 0.0
H2181 H 0.22413 0.58769 0.20346 0.0
H2182 H 0.22069 0.61885 0.19939 0.0
H2183 H 0.23437 0.61358 0.22699 0.0
H2184 H 0.21166 0.6987 0.21019 0.0
H2185 H 0.24449 0.68664 0.277 0.0
H2186 H 0.16397 0.64625 0.20404 0.0
H2187 H 0.18663 0.63572 0.18838 0.0
H2188 H 0.18293 0.66721 0.18649 0.0
H2189 H 0.2044 0.63128 0.28555 0.0
H2190 H 0.23549 0.64764 0.2921 0.0
H2191 H 0.22678 0.62071 0.26945 0.0
C2192 C 0.49532 0.68485 0.42212 0.0
C2193 C 0.50671 0.70946 0.43231 0.0
C2194 C 0.49556 0.66407 0.43471 0.0
C2195 C 0.50697 0.66813 0.45821 0.0
C2196 C 0.51726 0.69309 0.46904 0.0
C2197 C 0.51728 0.71342 0.45584 0.0
C2198 C 0.48475 0.63772 0.42239 0.0
C2199 C 0.52905 0.69827 0.49426 0.0
C2200 C 0.49478 0.61331 0.49576 0.0
C2201 C 0.51531 0.60402 0.49315 0.0
C2202 C 0.49198 0.6345 0.48491 0.0
C2203 C 0.50989 0.64628 0.4707 0.0
C2204 C 0.53074 0.63709 0.4682 0.0
C2205 C 0.53331 0.61625 0.47967 0.0
C2206 C 0.46976 0.64408 0.48845 0.0
C2207 C 0.5501 0.64886 0.45289 0.0
H2208 H 0.48727 0.68172 0.40388 0.0
H2209 H 0.52593 0.73247 0.46385 0.0
H2210 H 0.49911 0.62756 0.41968 0.0
H2211 H 0.47193 0.62687 0.43373 0.0
H2212 H 0.47528 0.63782 0.4047 0.0
H2213 H 0.53383 0.71874 0.50097 0.0
H2214 H 0.517 0.68798 0.50659 0.0
H2215 H 0.54563 0.69133 0.49482 0.0
H2216 H 0.48082 0.60394 0.50621 0.0
H2217 H 0.54907 0.60898 0.47732 0.0
H2218 H 0.45917 0.64216 0.47103 0.0
H2219 H 0.47481 0.66446 0.4954 0.0
H2220 H 0.45816 0.63365 0.50108 0.0
H2221 H 0.54239 0.64801 0.43425 0.0
H2222 H 0.56504 0.63925 0.45256 0.0
H2223 H 0.55749 0.66908 0.45969 0.0
C2224 C 0.59956 0.30529 0.72459 0.0
C2225 C 0.60021 0.3163 0.70314 0.0
C2226 C 0.62073 0.30553 0.73825 0.0
C2227 C 0.64314 0.31724 0.7304 0.0
C2228 C 0.64389 0.32994 0.70971 0.0
C2229 C 0.62241 0.32929 0.69629 0.0
C2230 C 0.61913 0.29163 0.76012 0.0
C2231 C 0.66745 0.34307 0.70108 0.0
C2232 C 0.69887 0.32442 0.77283 0.0
C2233 C 0.7067 0.30304 0.76438 0.0
C2234 C 0.67842 0.32969 0.76172 0.0
C2235 C 0.66556 0.31308 0.74187 0.0
C2236 C 0.67359 0.29158 0.73327 0.0
C2237 C 0.69395 0.28679 0.74469 0.0
C2238 C 0.67046 0.35286 0.77128 0.0
C2239 C 0.66053 0.2734 0.7121 0.0
H2240 H 0.58254 0.29534 0.73018 0.0
H2241 H 0.62312 0.3381 0.6799 0.0
H2242 H 0.62564 0.27424 0.75634 0.0
H2243 H 0.63071 0.30343 0.77547 0.0
H2244 H 0.60049 0.28612 0.76543 0.0
H2245 H 0.66499 0.35246 0.68489 0.0
H2246 H 0.67786 0.35747 0.71545 0.0
H2247 H 0.67834 0.32925 0.69684 0.0
H2248 H 0.70875 0.33701 0.78805 0.0
H2249 H 0.69976 0.27006 0.73827 0.0
H2250 H 0.65231 0.34719 0.77768 0.0
H2251 H 0.66923 0.36483 0.75677 0.0
H2252 H 0.68288 0.36435 0.78627 0.0
H2253 H 0.64181 0.2652 0.716 0.0
H2254 H 0.66928 0.25771 0.70754 0.0
H2255 H 0.65976 0.28358 0.69616 0.0
C2256 C 0.00192 0.34431 0.91022 0.0
C2257 C 0.9868 0.32485 0.92039 0.0
C2258 C 0.00542 0.36968 0.91996 0.0
C2259 C 0.99369 0.37566 0.94045 0.0
C2260 C 0.97855 0.35608 0.95086 0.0
C2261 C 0.97523 0.33095 0.94067 0.0
C2262 C 0.0216 0.3901 0.90831 0.0
C2263 C 0.96591 0.36164 0.97286 0.0
C2264 C 0.019 0.43742 0.98042 0.0
C2265 C 0.00332 0.45212 0.97392 0.0
C2266 C 0.01627 0.41266 0.96943 0.0
C2267 C 0.99748 0.40234 0.95135 0.0
C2268 C 0.98177 0.41716 0.94444 0.0
C2269 C 0.98481 0.44184 0.95588 0.0
C2270 C 0.03326 0.39741 0.97747 0.0
C2271 C 0.96161 0.40683 0.92513 0.0
H2272 H 0.01083 0.33974 0.8945 0.0
H2273 H 0.96355 0.31604 0.94868 0.0
H2274 H 0.01152 0.40381 0.90289 0.0
H2275 H 0.03664 0.40072 0.92131 0.0
H2276 H 0.02913 0.38236 0.89228 0.0
H2277 H 0.95477 0.34424 0.97878 0.0
H2278 H 0.97925 0.37149 0.9878 0.0
H2279 H 0.95421 0.37445 0.96918 0.0
H2280 H 0.03332 0.44511 0.99439 0.0
H2281 H 0.97269 0.45309 0.95064 0.0
H2282 H 0.04206 0.39058 0.96196 0.0
H2283 H 0.02312 0.3805 0.98497 0.0
H2284 H 0.04735 0.40846 0.99129 0.0
H2285 H 0.96878 0.40015 0.90843 0.0
H2286 H 0.9516 0.42111 0.92111 0.0
H2287 H 0.94887 0.3903 0.93076 0.0
C2288 C 0.95428 0.77647 0.20243 0.0
C2289 C 0.97236 0.79629 0.19644 0.0
C2290 C 0.93385 0.78115 0.21262 0.0
C2291 C 0.93186 0.80637 0.21778 0.0
C2292 C 0.95027 0.82653 0.21206 0.0
C2293 C 0.97014 0.8212 0.20102 0.0
C2294 C 0.91429 0.75904 0.21767 0.0
C2295 C 0.94916 0.85368 0.21797 0.0
C2296 C 0.86869 0.81389 0.22459 0.0
C2297 C 0.86686 0.81277 0.24918 0.0
C2298 C 0.89004 0.81273 0.21418 0.0
C2299 C 0.91029 0.81133 0.2289 0.0
C2300 C 0.909 0.8121 0.25403 0.0
C2301 C 0.8871 0.81229 0.26383 0.0
C2302 C 0.89033 0.8111 0.18727 0.0
C2303 C 0.93041 0.81155 0.27042 0.0
H2304 H 0.95592 0.75718 0.19873 0.0
H2305 H 0.98426 0.83656 0.19658 0.0
H2306 H 0.91216 0.75997 0.23717 0.0
H2307 H 0.89693 0.75985 0.20865 0.0
H2308 H 0.91807 0.74057 0.21151 0.0
H2309 H 0.9652 0.86719 0.21289 0.0
H2310 H 0.93298 0.857 0.20857 0.0
H2311 H 0.94766 0.85775 0.23747 0.0
H2312 H 0.85294 0.81399 0.21318 0.0
H2313 H 0.88567 0.81147 0.28286 0.0
H2314 H 0.89213 0.79208 0.18008 0.0
H2315 H 0.90594 0.8251 0.18216 0.0
H2316 H 0.87372 0.81433 0.17857 0.0
H2317 H 0.93399 0.79249 0.26793 0.0
H2318 H 0.92755 0.81604 0.28957 0.0
H2319 H 0.94663 0.82524 0.26598 0.0
C2320 C 0.52222 0.33256 0.05882 0.0
C2321 C 0.50839 0.32777 0.07837 0.0
C2322 C 0.52248 0.35383 0.04687 0.0
C2323 C 0.50869 0.37085 0.0547 0.0
C2324 C 0.49414 0.36575 0.07398 0.0
C2325 C 0.49413 0.34423 0.08555 0.0
C2326 C 0.53816 0.35853 0.02636 0.0
C2327 C 0.47925 0.38351 0.08292 0.0
C2328 C 0.53082 0.43965 0.0452 0.0
C2329 C 0.51507 0.442 0.02612 0.0
C2330 C 0.52905 0.41657 0.05439 0.0
C2331 C 0.51118 0.39509 0.04421 0.0
C2332 C 0.4957 0.39702 0.02443 0.0
C2333 C 0.49782 0.42049 0.0156 0.0
C2334 C 0.54597 0.41537 0.07546 0.0
C2335 C 0.47652 0.37447 0.01302 0.0
H2336 H 0.53316 0.31985 0.053 0.0
H2337 H 0.48332 0.34062 0.10057 0.0
H2338 H 0.52766 0.36199 0.01051 0.0
H2339 H 0.55288 0.37571 0.03154 0.0
H2340 H 0.54619 0.34243 0.02114 0.0
H2341 H 0.4676 0.37595 0.09689 0.0
H2342 H 0.49121 0.40194 0.09058 0.0
H2343 H 0.46781 0.38716 0.06787 0.0
H2344 H 0.54432 0.45605 0.05344 0.0
H2345 H 0.48549 0.42211 0.00096 0.0
H2346 H 0.55588 0.40069 0.07094 0.0
H2347 H 0.53563 0.40996 0.09096 0.0
H2348 H 0.55917 0.43369 0.08101 0.0
H2349 H 0.48454 0.35841 0.00773 0.0
H2350 H 0.46682 0.3787 0.99697 0.0
H2351 H 0.46337 0.36825 0.02618 0.0
C2352 C 0.97023 0.29291 0.35603 0.0
C2353 C 0.96808 0.27929 0.37584 0.0
C2354 C 0.95004 0.29809 0.34445 0.0
C2355 C 0.92705 0.28852 0.35229 0.0
C2356 C 0.9248 0.27449 0.37216 0.0
C2357 C 0.94544 0.27051 0.38402 0.0
C2358 C 0.9533 0.31379 0.32384 0.0
C2359 C 0.90057 0.26313 0.38051 0.0
C2360 C 0.87372 0.31425 0.33349 0.0
C2361 C 0.86359 0.29725 0.31328 0.0
C2362 C 0.89479 0.31208 0.3461 0.0
C2363 C 0.90527 0.29186 0.33879 0.0
C2364 C 0.89481 0.2745 0.31852 0.0
C2365 C 0.87437 0.27768 0.30581 0.0
C2366 C 0.90589 0.33144 0.36713 0.0
C2367 C 0.90485 0.25218 0.31058 0.0
H2368 H 0.98783 0.30004 0.34996 0.0
H2369 H 0.94382 0.25997 0.39936 0.0
H2370 H 0.94455 0.30214 0.30703 0.0
H2371 H 0.94457 0.32971 0.32694 0.0
H2372 H 0.9725 0.32157 0.32125 0.0
H2373 H 0.90189 0.25262 0.39616 0.0
H2374 H 0.89119 0.27816 0.38546 0.0
H2375 H 0.8893 0.24998 0.36571 0.0
H2376 H 0.86536 0.32937 0.33925 0.0
H2377 H 0.86633 0.26426 0.29036 0.0
H2378 H 0.9249 0.33999 0.36448 0.0
H2379 H 0.90571 0.32221 0.38375 0.0
H2380 H 0.8963 0.34675 0.36972 0.0
H2381 H 0.92375 0.25875 0.30646 0.0
H2382 H 0.89453 0.24038 0.29449 0.0
H2383 H 0.90468 0.24017 0.32529 0.0
C2384 C 0.9618 0.66754 0.59044 0.0
C2385 C 0.96658 0.69065 0.5808 0.0
C2386 C 0.96383 0.64526 0.57684 0.0
C2387 C 0.97119 0.64633 0.55331 0.0
C2388 C 0.97393 0.66909 0.54284 0.0
C2389 C 0.97129 0.69087 0.55661 0.0
C2390 C 0.95973 0.62099 0.58816 0.0
C2391 C 0.982 0.67115 0.51788 0.0
C2392 C 0.01301 0.60646 0.53187 0.0
C2393 C 0.99834 0.58909 0.5141 0.0
C2394 C 0.00409 0.62465 0.54528 0.0
C2395 C 0.97977 0.62522 0.541 0.0
C2396 C 0.96462 0.60706 0.52364 0.0
C2397 C 0.97421 0.58937 0.5101 0.0
C2398 C 0.02093 0.64375 0.56352 0.0
C2399 C 0.93847 0.6066 0.51906 0.0
H2400 H 0.95781 0.66709 0.609 0.0
H2401 H 0.97471 0.70852 0.54883 0.0
H2402 H 0.94776 0.60536 0.57596 0.0
H2403 H 0.97699 0.61573 0.59117 0.0
H2404 H 0.95172 0.62264 0.60558 0.0
H2405 H 0.98087 0.68936 0.51149 0.0
H2406 H 0.00087 0.66967 0.51778 0.0
H2407 H 0.97103 0.65548 0.50502 0.0
H2408 H 0.03167 0.60615 0.53494 0.0
H2409 H 0.9628 0.5756 0.49657 0.0
H2410 H 0.01385 0.64315 0.58142 0.0
H2411 H 0.02234 0.66308 0.55856 0.0
H2412 H 0.0392 0.64037 0.56492 0.0
H2413 H 0.93009 0.60866 0.5362 0.0
H2414 H 0.92834 0.58885 0.50815 0.0
H2415 H 0.93673 0.62273 0.50933 0.0
C2416 C 0.61347 0.77185 0.86487 0.0
C2417 C 0.59056 0.7736 0.85663 0.0
C2418 C 0.63132 0.77091 0.84908 0.0
C2419 C 0.62615 0.77145 0.82431 0.0
C2420 C 0.60297 0.77276 0.81574 0.0
C2421 C 0.58547 0.77397 0.83203 0.0
C2422 C 0.65588 0.76975 0.85901 0.0
C2423 C 0.59673 0.77307 0.78942 0.0
C2424 C 0.68148 0.79389 0.79137 0.0
C2425 C 0.68681 0.77095 0.78306 0.0
C2426 C 0.66105 0.79433 0.80372 0.0
C2427 C 0.6454 0.77127 0.80772 0.0
C2428 C 0.6498 0.74808 0.798 0.0
C2429 C 0.67049 0.74819 0.78586 0.0
C2430 C 0.65708 0.81949 0.81382 0.0
C2431 C 0.63337 0.7231 0.80157 0.0
H2432 H 0.61768 0.77163 0.88382 0.0
H2433 H 0.56781 0.77522 0.82547 0.0
H2434 H 0.66065 0.75266 0.85041 0.0
H2435 H 0.66951 0.78642 0.8549 0.0
H2436 H 0.65694 0.76931 0.87871 0.0
H2437 H 0.57764 0.77311 0.7855 0.0
H2438 H 0.60815 0.79007 0.78316 0.0
H2439 H 0.6004 0.75633 0.7789 0.0
H2440 H 0.69383 0.81162 0.7892 0.0
H2441 H 0.67429 0.73036 0.77936 0.0
H2442 H 0.66016 0.82176 0.83363 0.0
H2443 H 0.63832 0.82034 0.80942 0.0
H2444 H 0.6693 0.83561 0.80694 0.0
H2445 H 0.63531 0.71988 0.82062 0.0
H2446 H 0.63743 0.70702 0.7903 0.0
H2447 H 0.61439 0.72328 0.79732 0.0
C2448 C 0.42294 0.56515 0.65545 0.0
C2449 C 0.42981 0.55529 0.67602 0.0
C2450 C 0.43735 0.56749 0.63601 0.0
C2451 C 0.45916 0.55983 0.63713 0.0
C2452 C 0.46668 0.55093 0.65824 0.0
C2453 C 0.45198 0.54883 0.67739 0.0
C2454 C 0.42904 0.57788 0.61417 0.0
C2455 C 0.48979 0.54257 0.66023 0.0
C2456 C 0.48238 0.5346 0.58016 0.0
C2457 C 0.50116 0.55492 0.57634 0.0
C2458 C 0.46812 0.53636 0.59936 0.0
C2459 C 0.47308 0.5588 0.6156 0.0
C2460 C 0.4919 0.57951 0.61174 0.0
C2461 C 0.5057 0.57735 0.59208 0.0
C2462 C 0.44787 0.51404 0.60243 0.0
C2463 C 0.49767 0.60377 0.62857 0.0
H2464 H 0.40603 0.57054 0.6543 0.0
H2465 H 0.4576 0.5413 0.69319 0.0
H2466 H 0.44003 0.59735 0.61373 0.0
H2467 H 0.43149 0.56641 0.59751 0.0
H2468 H 0.40994 0.57858 0.61423 0.0
H2469 H 0.49407 0.53808 0.6785 0.0
H2470 H 0.48844 0.52547 0.64733 0.0
H2471 H 0.5049 0.5575 0.65555 0.0
H2472 H 0.47905 0.51705 0.56833 0.0
H2473 H 0.52023 0.5931 0.5892 0.0
H2474 H 0.43074 0.51995 0.60283 0.0
H2475 H 0.45103 0.50693 0.61977 0.0
H2476 H 0.44588 0.49828 0.58781 0.0
H2477 H 0.48165 0.61162 0.62951 0.0
H2478 H 0.51266 0.61824 0.62293 0.0
H2479 H 0.50257 0.59997 0.64691 0.0
C2480 C 0.79789 0.23377 0.96887 0.0
C2481 C 0.79846 0.20831 0.96794 0.0
C2482 C 0.79862 0.2457 0.94804 0.0
C2483 C 0.79924 0.23156 0.92572 0.0
C2484 C 0.80141 0.20629 0.92486 0.0
C2485 C 0.80127 0.19499 0.94615 0.0
C2486 C 0.79697 0.27289 0.94979 0.0
C2487 C 0.80183 0.19054 0.90134 0.0
C2488 C 0.76471 0.24997 0.87427 0.0
C2489 C 0.78317 0.26287 0.86179 0.0
C2490 C 0.76982 0.23926 0.89483 0.0
C2491 C 0.794 0.24203 0.90334 0.0
C2492 C 0.81276 0.25539 0.89096 0.0
C2493 C 0.80709 0.26547 0.87011 0.0
C2494 C 0.7493 0.22484 0.90735 0.0
C2495 C 0.8387 0.25913 0.89981 0.0
H2496 H 0.79601 0.24413 0.98584 0.0
H2497 H 0.80164 0.17526 0.94548 0.0
H2498 H 0.80993 0.28375 0.93857 0.0
H2499 H 0.77875 0.27366 0.94299 0.0
H2500 H 0.80045 0.28226 0.96852 0.0
H2501 H 0.80686 0.17259 0.90392 0.0
H2502 H 0.78377 0.18589 0.89162 0.0
H2503 H 0.81456 0.2012 0.88981 0.0
H2504 H 0.74622 0.24774 0.86766 0.0
H2505 H 0.82135 0.27543 0.86034 0.0
H2506 H 0.74943 0.23434 0.92574 0.0
H2507 H 0.7514 0.20548 0.90898 0.0
H2508 H 0.7316 0.2234 0.89772 0.0
H2509 H 0.85112 0.27028 0.88827 0.0
H2510 H 0.84305 0.24056 0.90043 0.0
H2511 H 0.84192 0.26901 0.91833 0.0
C2512 C 0.07661 0.45723 0.14375 0.0
C2513 C 0.07105 0.46715 0.16611 0.0
C2514 C 0.06194 0.45693 0.12293 0.0
C2515 C 0.04173 0.4673 0.1246 0.0
C2516 C 0.03456 0.47447 0.14736 0.0
C2517 C 0.04921 0.47409 0.16788 0.0
C2518 C 0.06908 0.44752 0.09896 0.0
C2519 C 0.01292 0.48529 0.14995 0.0
C2520 C 0.03185 0.50995 0.0786 0.0
C2521 C 0.01115 0.49553 0.06517 0.0
C2522 C 0.04226 0.50052 0.09747 0.0
C2523 C 0.03158 0.47602 0.1032 0.0
C2524 C 0.01081 0.46114 0.08945 0.0
C2525 C 0.00068 0.47121 0.07062 0.0
C2526 C 0.06456 0.517 0.1115 0.0
C2527 C 0.99894 0.43492 0.09484 0.0
H2528 H 0.09312 0.45116 0.14229 0.0
H2529 H 0.04442 0.48122 0.18513 0.0
H2530 H 0.05355 0.43388 0.08873 0.0
H2531 H 0.07445 0.46354 0.08832 0.0
H2532 H 0.08415 0.43825 0.10077 0.0
H2533 H 0.00772 0.48635 0.16867 0.0
H2534 H 0.01701 0.50466 0.14457 0.0
H2535 H 0.99742 0.47375 0.13804 0.0
H2536 H 0.03985 0.52885 0.07448 0.0
H2537 H 0.98467 0.46003 0.06012 0.0
H2538 H 0.07936 0.50723 0.11075 0.0
H2539 H 0.06113 0.52055 0.1306 0.0
H2540 H 0.07064 0.5355 0.10456 0.0
H2541 H 0.01233 0.42478 0.10077 0.0
H2542 H 0.98778 0.42351 0.07899 0.0
H2543 H 0.98707 0.43633 0.10952 0.0
C2544 C 0.77077 0.83253 0.45549 0.0
C2545 C 0.76029 0.85247 0.46266 0.0
C2546 C 0.77178 0.82446 0.43114 0.0
C2547 C 0.76234 0.83679 0.41342 0.0
C2548 C 0.75139 0.85667 0.42051 0.0
C2549 C 0.75037 0.86418 0.44503 0.0
C2550 C 0.78326 0.80293 0.4244 0.0
C2551 C 0.74123 0.87039 0.40218 0.0
C2552 C 0.78615 0.83107 0.35164 0.0
C2553 C 0.76769 0.81222 0.33877 0.0
C2554 C 0.78447 0.83957 0.37582 0.0
C2555 C 0.76396 0.8288 0.38749 0.0
C2556 C 0.74528 0.80982 0.37456 0.0
C2557 C 0.74732 0.80187 0.35042 0.0
C2558 C 0.8047 0.86002 0.38891 0.0
C2559 C 0.72321 0.79763 0.38631 0.0
H2560 H 0.77845 0.82334 0.46896 0.0
H2561 H 0.74242 0.87972 0.45039 0.0
H2562 H 0.77047 0.78769 0.4125 0.0
H2563 H 0.79908 0.80959 0.41429 0.0
H2564 H 0.7891 0.79483 0.4403 0.0
H2565 H 0.73304 0.88523 0.41057 0.0
H2566 H 0.75562 0.87937 0.39129 0.0
H2567 H 0.72743 0.85681 0.38974 0.0
H2568 H 0.80189 0.83929 0.34282 0.0
H2569 H 0.73294 0.78722 0.34075 0.0
H2570 H 0.81275 0.85267 0.40414 0.0
H2571 H 0.79773 0.87612 0.39647 0.0
H2572 H 0.819 0.8671 0.37709 0.0
H2573 H 0.72841 0.78821 0.40156 0.0
H2574 H 0.71012 0.78339 0.37367 0.0
H2575 H 0.71424 0.81222 0.39366 0.0
C2576 C 0.43446 0.54132 0.82097 0.0
C2577 C 0.42524 0.52114 0.80306 0.0
C2578 C 0.44228 0.53695 0.84391 0.0
C2579 C 0.43979 0.51177 0.84925 0.0
C2580 C 0.42966 0.49137 0.83136 0.0
C2581 C 0.42299 0.49632 0.80837 0.0
C2582 C 0.45376 0.55922 0.86223 0.0
C2583 C 0.42583 0.46428 0.8365 0.0
C2584 C 0.48019 0.49813 0.89924 0.0
C2585 C 0.46598 0.49807 0.91866 0.0
C2586 C 0.47198 0.50289 0.87667 0.0
C2587 C 0.44862 0.5067 0.8732 0.0
C2588 C 0.43381 0.50556 0.89256 0.0
C2589 C 0.44288 0.5018 0.91523 0.0
C2590 C 0.48862 0.5047 0.85676 0.0
C2591 C 0.40848 0.5085 0.88938 0.0
H2592 H 0.43621 0.5605 0.81681 0.0
H2593 H 0.41549 0.48069 0.79458 0.0
H2594 H 0.44351 0.55871 0.87835 0.0
H2595 H 0.47218 0.55818 0.86803 0.0
H2596 H 0.45473 0.57757 0.85515 0.0
H2597 H 0.41601 0.45066 0.82121 0.0
H2598 H 0.44334 0.45989 0.84052 0.0
H2599 H 0.41558 0.4614 0.85253 0.0
H2600 H 0.49823 0.4957 0.90199 0.0
H2601 H 0.43195 0.50185 0.93031 0.0
H2602 H 0.49112 0.52348 0.85021 0.0
H2603 H 0.48068 0.49026 0.8414 0.0
H2604 H 0.50648 0.502 0.86258 0.0
H2605 H 0.40866 0.5278 0.88504 0.0
H2606 H 0.39873 0.50525 0.9057 0.0
H2607 H 0.39842 0.495 0.87415 0.0
C2608 C 0.79805 0.23174 0.0948 0.0
C2609 C 0.80465 0.20882 0.0962 0.0
C2610 C 0.79678 0.2477 0.1155 0.0
C2611 C 0.80258 0.24076 0.13812 0.0
C2612 C 0.81086 0.21858 0.13964 0.0
C2613 C 0.81169 0.20277 0.11862 0.0
C2614 C 0.78768 0.27108 0.11318 0.0
C2615 C 0.8176 0.21082 0.16353 0.0
C2616 C 0.81154 0.28765 0.19422 0.0
C2617 C 0.79007 0.27904 0.20473 0.0
C2618 C 0.81572 0.27581 0.17212 0.0
C2619 C 0.79779 0.2553 0.16022 0.0
C2620 C 0.77546 0.24776 0.17003 0.0
C2621 C 0.77197 0.2596 0.19232 0.0
C2622 C 0.83981 0.28419 0.16228 0.0
C2623 C 0.75566 0.22635 0.15758 0.0
H2624 H 0.79267 0.23668 0.07756 0.0
H2625 H 0.81697 0.18521 0.11985 0.0
H2626 H 0.76961 0.2684 0.11993 0.0
H2627 H 0.79953 0.28774 0.12423 0.0
H2628 H 0.78641 0.27525 0.09434 0.0
H2629 H 0.82619 0.19468 0.16154 0.0
H2630 H 0.83005 0.22694 0.17475 0.0
H2631 H 0.80132 0.20523 0.17328 0.0
H2632 H 0.82567 0.30257 0.20392 0.0
H2633 H 0.75541 0.25295 0.20052 0.0
H2634 H 0.83757 0.28713 0.14318 0.0
H2635 H 0.84968 0.26918 0.16316 0.0
H2636 H 0.85089 0.30193 0.17245 0.0
H2637 H 0.75211 0.22938 0.13869 0.0
H2638 H 0.73871 0.22437 0.16655 0.0
H2639 H 0.76124 0.20832 0.15738 0.0
C2640 C 0.05378 0.48978 0.29857 0.0
C2641 C 0.07732 0.48778 0.29594 0.0
C2642 C 0.04474 0.4905 0.32114 0.0
C2643 C 0.05983 0.48979 0.34158 0.0
C2644 C 0.08314 0.48619 0.33885 0.0
C2645 C 0.09156 0.48496 0.31592 0.0
C2646 C 0.0196 0.49374 0.32324 0.0
C2647 C 0.09983 0.48562 0.36026 0.0
C2648 C 0.04909 0.52839 0.39773 0.0
C2649 C 0.03736 0.50961 0.41095 0.0
C2650 C 0.05685 0.52206 0.37532 0.0
C2651 C 0.05239 0.49631 0.36575 0.0
C2652 C 0.04034 0.47724 0.37896 0.0
C2653 C 0.0331 0.48413 0.40158 0.0
C2654 C 0.06989 0.54295 0.3619 0.0
C2655 C 0.03495 0.44965 0.36914 0.0
H2656 H 0.04265 0.49164 0.28304 0.0
H2657 H 0.10979 0.48347 0.31387 0.0
H2658 H 0.00995 0.48071 0.33526 0.0
H2659 H 0.02037 0.51331 0.33121 0.0
H2660 H 0.00911 0.49024 0.30556 0.0
H2661 H 0.11604 0.47946 0.35498 0.0
H2662 H 0.10562 0.50482 0.37032 0.0
H2663 H 0.09055 0.47279 0.37262 0.0
H2664 H 0.05255 0.54809 0.40509 0.0
H2665 H 0.02407 0.46961 0.4119 0.0
H2666 H 0.0595 0.54291 0.34472 0.0
H2667 H 0.08757 0.53978 0.35752 0.0
H2668 H 0.07279 0.56191 0.3723 0.0
H2669 H 0.02338 0.44631 0.35214 0.0
H2670 H 0.0258 0.43714 0.38186 0.0
H2671 H 0.05177 0.44423 0.36495 0.0
C2672 C 0.73724 0.86289 0.61766 0.0
C2673 C 0.74621 0.85424 0.59652 0.0
C2674 C 0.73522 0.84907 0.63747 0.0
C2675 C 0.7425 0.82608 0.63633 0.0
C2676 C 0.75099 0.81692 0.61485 0.0
C2677 C 0.75263 0.83101 0.59521 0.0
C2678 C 0.72589 0.85944 0.65989 0.0
C2679 C 0.75915 0.79264 0.61289 0.0
C2680 C 0.76303 0.80541 0.69482 0.0
C2681 C 0.74327 0.78615 0.69874 0.0
C2682 C 0.76295 0.81852 0.67468 0.0
C2683 C 0.74254 0.81239 0.658 0.0
C2684 C 0.72239 0.79314 0.66201 0.0
C2685 C 0.72304 0.78016 0.68228 0.0
C2686 C 0.78486 0.8388 0.67114 0.0
C2687 C 0.70018 0.78623 0.64486 0.0
H2688 H 0.73212 0.88073 0.61891 0.0
H2689 H 0.75965 0.82414 0.57906 0.0
H2690 H 0.71103 0.8449 0.66557 0.0
H2691 H 0.74031 0.86439 0.67469 0.0
H2692 H 0.71933 0.87657 0.65739 0.0
H2693 H 0.7642 0.78743 0.59464 0.0
H2694 H 0.77488 0.79462 0.62586 0.0
H2695 H 0.74477 0.77693 0.61755 0.0
H2696 H 0.77878 0.81006 0.70741 0.0
H2697 H 0.70771 0.76533 0.68525 0.0
H2698 H 0.78002 0.85713 0.67047 0.0
H2699 H 0.79196 0.83405 0.65378 0.0
H2700 H 0.79933 0.84118 0.68567 0.0
H2701 H 0.6931 0.80315 0.64312 0.0
H2702 H 0.68585 0.77122 0.65075 0.0
H2703 H 0.70466 0.77956 0.62681 0.0
C2704 C 0.68419 0.46187 0.51196 0.0
C2705 C 0.70782 0.47286 0.52118 0.0
C2706 C 0.66701 0.47622 0.51187 0.0
C2707 C 0.67391 0.50231 0.52056 0.0
C2708 C 0.69806 0.51374 0.52869 0.0
C2709 C 0.71468 0.49877 0.52926 0.0
C2710 C 0.64129 0.46323 0.50353 0.0
C2711 C 0.70621 0.54162 0.53737 0.0
C2712 C 0.62838 0.53886 0.50408 0.0
C2713 C 0.61619 0.53925 0.52492 0.0
C2714 C 0.64819 0.52818 0.50282 0.0
C2715 C 0.65544 0.51708 0.52266 0.0
C2716 C 0.64382 0.5185 0.54411 0.0
C2717 C 0.6245 0.52991 0.54507 0.0
C2718 C 0.66055 0.52764 0.47988 0.0
C2719 C 0.65069 0.50645 0.5655 0.0
H2720 H 0.67888 0.4418 0.50584 0.0
H2721 H 0.73305 0.50732 0.53618 0.0
H2722 H 0.6298 0.4645 0.51858 0.0
H2723 H 0.63473 0.4728 0.48909 0.0
H2724 H 0.63902 0.44299 0.49676 0.0
H2725 H 0.72601 0.54805 0.54071 0.0
H2726 H 0.70011 0.55278 0.52402 0.0
H2727 H 0.69808 0.5458 0.55425 0.0
H2728 H 0.62187 0.54605 0.48846 0.0
H2729 H 0.6149 0.52998 0.56111 0.0
H2730 H 0.65611 0.50808 0.47059 0.0
H2731 H 0.68029 0.53357 0.48376 0.0
H2732 H 0.65501 0.54013 0.46752 0.0
H2733 H 0.64701 0.48568 0.5607 0.0
H2734 H 0.64065 0.51031 0.58118 0.0
H2735 H 0.67014 0.51341 0.5708 0.0
C2736 C 0.17218 0.11999 0.48924 0.0
C2737 C 0.19168 0.10878 0.49035 0.0
C2738 C 0.14858 0.10565 0.48969 0.0
C2739 C 0.14422 0.0793 0.49078 0.0
C2740 C 0.16375 0.06774 0.49137 0.0
C2741 C 0.18727 0.08265 0.49141 0.0
C2742 C 0.12831 0.11881 0.48941 0.0
C2743 C 0.15978 0.03962 0.49203 0.0
C2744 C 0.08448 0.04737 0.5128 0.0
C2745 C 0.07032 0.03887 0.49121 0.0
C2746 C 0.10875 0.06009 0.51298 0.0
C2747 C 0.11914 0.06397 0.491 0.0
C2748 C 0.10504 0.05457 0.46914 0.0
C2749 C 0.08074 0.04243 0.46953 0.0
C2750 C 0.12296 0.0703 0.5367 0.0
C2751 C 0.11545 0.05791 0.44531 0.0
H2752 H 0.17538 0.14019 0.48868 0.0
H2753 H 0.20221 0.07383 0.49226 0.0
H2754 H 0.11569 0.11108 0.47336 0.0
H2755 H 0.11806 0.11527 0.50534 0.0
H2756 H 0.13476 0.13955 0.48931 0.0
H2757 H 0.17678 0.03342 0.49182 0.0
H2758 H 0.15099 0.03419 0.5084 0.0
H2759 H 0.14758 0.02926 0.47642 0.0
H2760 H 0.07634 0.04512 0.52952 0.0
H2761 H 0.06979 0.03585 0.45278 0.0
H2762 H 0.1281 0.09126 0.53835 0.0
H2763 H 0.13976 0.0638 0.53767 0.0
H2764 H 0.11269 0.06442 0.55214 0.0
H2765 H 0.12026 0.07826 0.4429 0.0
H2766 H 0.10273 0.04756 0.43004 0.0
H2767 H 0.13214 0.05116 0.44478 0.0
C2768 C 0.22137 0.95553 0.77505 0.0
C2769 C 0.1997 0.95583 0.78519 0.0
C2770 C 0.23095 0.93421 0.77448 0.0
C2771 C 0.21848 0.91243 0.78407 0.0
C2772 C 0.19706 0.91293 0.79518 0.0
C2773 C 0.18798 0.93466 0.7957 0.0
C2774 C 0.25396 0.93464 0.76272 0.0
C2775 C 0.18313 0.89008 0.8055 0.0
C2776 C 0.22624 0.8496 0.75472 0.0
C2777 C 0.24213 0.84323 0.77144 0.0
C2778 C 0.2183 0.87183 0.75882 0.0
C2779 C 0.2265 0.88842 0.78014 0.0
C2780 C 0.24262 0.88225 0.79712 0.0
C2781 C 0.25017 0.85967 0.79263 0.0
C2782 C 0.20102 0.87751 0.74025 0.0
C2783 C 0.25181 0.89944 0.82006 0.0
H2784 H 0.23071 0.97187 0.76709 0.0
H2785 H 0.17126 0.93472 0.80362 0.0
H2786 H 0.26673 0.92823 0.77462 0.0
H2787 H 0.25019 0.92136 0.74594 0.0
H2788 H 0.26271 0.95376 0.75829 0.0
H2789 H 0.1757 0.87463 0.79081 0.0
H2790 H 0.19509 0.88304 0.81776 0.0
H2791 H 0.16809 0.89421 0.81543 0.0
H2792 H 0.21975 0.83709 0.73832 0.0
H2793 H 0.26221 0.85483 0.8058 0.0
H2794 H 0.20922 0.89549 0.73327 0.0
H2795 H 0.18454 0.87995 0.74851 0.0
H2796 H 0.19584 0.86232 0.72492 0.0
H2797 H 0.26027 0.91877 0.816 0.0
H2798 H 0.26509 0.89258 0.8309 0.0
H2799 H 0.23664 0.9009 0.83099 0.0
C2800 C 0.33517 0.91571 0.0015 0.0
C2801 C 0.31866 0.93084 0.00185 0.0
C2802 C 0.3598 0.92652 0.00182 0.0
C2803 C 0.36801 0.953 0.00222 0.0
C2804 C 0.3514 0.96829 0.00186 0.0
C2805 C 0.32691 0.95703 0.00182 0.0
C2806 C 0.37708 0.9097 0.00241 0.0
C2807 C 0.35953 0.99658 0.00198 0.0
C2808 C 0.43106 0.98465 0.0285 0.0
C2809 C 0.44345 0.98777 0.00784 0.0
C2810 C 0.40651 0.97317 0.02689 0.0
C2811 C 0.39403 0.96489 0.00407 0.0
C2812 C 0.40635 0.96814 0.98312 0.0
C2813 C 0.43099 0.97944 0.98526 0.0
C2814 C 0.39395 0.9698 0.04962 0.0
C2815 C 0.39348 0.9598 0.9585 0.0
H2816 H 0.32889 0.89547 0.00156 0.0
H2817 H 0.31422 0.96881 0.00189 0.0
H2818 H 0.38878 0.91246 0.98741 0.0
H2819 H 0.38889 0.9149 0.01929 0.0
H2820 H 0.36774 0.88937 0.00117 0.0
H2821 H 0.34424 0.00556 1.00029 0.0
H2822 H 0.37055 0.0051 0.01889 0.0
H2823 H 0.37098 0.00113 0.98704 0.0
H2824 H 0.4406 0.9909 0.04601 0.0
H2825 H 0.44044 0.98192 0.96922 0.0
H2826 H 0.3855 0.9495 0.0502 0.0
H2827 H 0.37943 0.97995 0.04998 0.0
H2828 H 0.40636 0.97693 0.06597 0.0
H2829 H 0.38511 0.93922 0.95649 0.0
H2830 H 0.40567 0.96384 0.944 0.0
H2831 H 0.37884 0.96956 0.95614 0.0
C2832 C 0.82144 0.58584 0.75547 0.0
C2833 C 0.84515 0.59876 0.76292 0.0
C2834 C 0.80309 0.59859 0.75531 0.0
C2835 C 0.80882 0.625 0.76199 0.0
C2836 C 0.83271 0.63807 0.77 0.0
C2837 C 0.85059 0.62464 0.77074 0.0
C2838 C 0.77772 0.58396 0.7474 0.0
C2839 C 0.83956 0.66636 0.77675 0.0
C2840 C 0.77181 0.66518 0.73515 0.0
C2841 C 0.76108 0.67328 0.75521 0.0
C2842 C 0.78671 0.64855 0.73686 0.0
C2843 C 0.7903 0.63934 0.759 0.0
C2844 C 0.77769 0.64565 0.77868 0.0
C2845 C 0.76339 0.66287 0.77663 0.0
C2846 C 0.80016 0.64259 0.71558 0.0
C2847 C 0.78052 0.63557 0.80233 0.0
H2848 H 0.81726 0.56569 0.74971 0.0
H2849 H 0.86898 0.63455 0.7764 0.0
H2850 H 0.76529 0.58853 0.76059 0.0
H2851 H 0.77199 0.58947 0.73004 0.0
H2852 H 0.7759 0.56322 0.74524 0.0
H2853 H 0.85879 0.67352 0.78316 0.0
H2854 H 0.8359 0.67589 0.761 0.0
H2855 H 0.82857 0.67181 0.791 0.0
H2856 H 0.77017 0.67341 0.71863 0.0
H2857 H 0.75506 0.6692 0.79215 0.0
H2858 H 0.79806 0.62192 0.71172 0.0
H2859 H 0.81957 0.65141 0.71972 0.0
H2860 H 0.79399 0.64971 0.69921 0.0
H2861 H 0.77931 0.61498 0.79952 0.0
H2862 H 0.76676 0.63906 0.81445 0.0
H2863 H 0.79847 0.64494 0.81138 0.0
C2864 C 0.83868 0.60097 0.02177 0.0
C2865 C 0.82659 0.60763 0.00211 0.0
C2866 C 0.85778 0.5894 0.01879 0.0
C2867 C 0.86453 0.58354 0.99547 0.0
C2868 C 0.85209 0.5898 0.97546 0.0
C2869 C 0.83352 0.60217 0.97906 0.0
C2870 C 0.871 0.58382 0.04069 0.0
C2871 C 0.85828 0.58324 0.95028 0.0
C2872 C 0.92802 0.57549 0.99124 0.0
C2873 C 0.9247 0.54938 0.99158 0.0
C2874 C 0.90856 0.58679 0.992 0.0
C2875 C 0.88505 0.5715 0.9923 0.0
C2876 C 0.8815 0.54492 0.99136 0.0
C2877 C 0.90143 0.5342 0.99145 0.0
C2878 C 0.91332 0.61523 0.99374 0.0
C2879 C 0.8567 0.52787 0.99094 0.0
H2880 H 0.8335 0.60532 0.03964 0.0
H2881 H 0.82408 0.6071 0.9638 0.0
H2882 H 0.86957 0.56323 0.03988 0.0
H2883 H 0.89032 0.59333 0.04121 0.0
H2884 H 0.86395 0.59021 0.0576 0.0
H2885 H 0.84621 0.58833 0.93661 0.0
H2886 H 0.877 0.59325 0.94804 0.0
H2887 H 0.85713 0.56268 0.94688 0.0
H2888 H 0.94603 0.58733 0.99156 0.0
H2889 H 0.89883 0.514 0.99164 0.0
H2890 H 0.90781 0.62267 0.01106 0.0
H2891 H 0.90255 0.62084 0.9793 0.0
H2892 H 0.93254 0.62434 0.9925 0.0
H2893 H 0.84922 0.53103 0.00841 0.0
H2894 H 0.85672 0.50757 0.98741 0.0
H2895 H 0.84455 0.53238 0.97699 0.0
C2896 C 0.1864 0.11253 0.81297 0.0
C2897 C 0.19572 0.09241 0.80364 0.0
C2898 C 0.19833 0.13773 0.81133 0.0
C2899 C 0.21989 0.1429 0.7998 0.0
C2900 C 0.22999 0.12278 0.79145 0.0
C2901 C 0.2179 0.09782 0.79366 0.0
C2902 C 0.18726 0.15872 0.82092 0.0
C2903 C 0.25286 0.12747 0.77888 0.0
C2904 C 0.23547 0.20178 0.76806 0.0
C2905 C 0.25427 0.21726 0.78348 0.0
C2906 C 0.22388 0.17768 0.77337 0.0
C2907 C 0.23103 0.16906 0.79482 0.0
C2908 C 0.2495 0.18501 0.81084 0.0
C2909 C 0.26105 0.20886 0.80486 0.0
C2910 C 0.20442 0.16117 0.7557 0.0
C2911 C 0.25726 0.17672 0.83409 0.0
H2912 H 0.16935 0.10857 0.82082 0.0
H2913 H 0.22526 0.08247 0.78633 0.0
H2914 H 0.20088 0.17387 0.83207 0.0
H2915 H 0.18055 0.16731 0.8058 0.0
H2916 H 0.17208 0.15186 0.83182 0.0
H2917 H 0.25915 0.10997 0.77477 0.0
H2918 H 0.24989 0.1352 0.76183 0.0
H2919 H 0.26727 0.14171 0.79003 0.0
H2920 H 0.23018 0.20829 0.75154 0.0
H2921 H 0.27545 0.22095 0.81692 0.0
H2922 H 0.1876 0.15544 0.76459 0.0
H2923 H 0.20973 0.14365 0.74914 0.0
H2924 H 0.20073 0.17084 0.74005 0.0
H2925 H 0.24154 0.17056 0.84448 0.0
H2926 H 0.27071 0.19201 0.84532 0.0
H2927 H 0.26515 0.16027 0.83034 0.0
C2928 C 0.3456 0.97277 0.27958 0.0
C2929 C 0.37069 0.97933 0.28024 0.0
C2930 C 0.33291 0.94757 0.27905 0.0
C2931 C 0.34561 0.92844 0.27885 0.0
C2932 C 0.37097 0.93495 0.2802 0.0
C2933 C 0.38326 0.96042 0.28107 0.0
C2934 C 0.30586 0.94138 0.27799 0.0
C2935 C 0.38506 0.91496 0.27978 0.0
C2936 C 0.31202 0.86371 0.29224 0.0
C2937 C 0.30453 0.85127 0.26909 0.0
C2938 C 0.32567 0.8888 0.29575 0.0
C2939 C 0.33218 0.90156 0.27562 0.0
C2940 C 0.32499 0.88898 0.25223 0.0
C2941 C 0.31112 0.86404 0.24925 0.0
C2942 C 0.33277 0.9018 0.32095 0.0
C2943 C 0.3318 0.90193 0.23032 0.0
H2944 H 0.3358 0.98736 0.27923 0.0
H2945 H 0.40266 0.96542 0.28155 0.0
H2946 H 0.29829 0.93035 0.26051 0.0
H2947 H 0.29932 0.92949 0.29218 0.0
H2948 H 0.29884 0.9586 0.28016 0.0
H2949 H 0.40469 0.92325 0.28248 0.0
H2950 H 0.37969 0.90254 0.29389 0.0
H2951 H 0.38103 0.90284 0.26231 0.0
H2952 H 0.30696 0.85397 0.30766 0.0
H2953 H 0.30565 0.85448 0.23129 0.0
H2954 H 0.3248 0.9183 0.32386 0.0
H2955 H 0.35251 0.90907 0.32366 0.0
H2956 H 0.32685 0.889 0.33467 0.0
H2957 H 0.3238 0.91842 0.22994 0.0
H2958 H 0.32568 0.88912 0.21341 0.0
H2959 H 0.35153 0.90917 0.23101 0.0
C2960 C 0.52375 0.37702 0.61306 0.0
C2961 C 0.53588 0.35954 0.60323 0.0
C2962 C 0.51928 0.39622 0.60007 0.0
C2963 C 0.52649 0.39745 0.57646 0.0
C2964 C 0.53775 0.37908 0.5661 0.0
C2965 C 0.54264 0.36061 0.57974 0.0
C2966 C 0.5078 0.41582 0.61199 0.0
C2967 C 0.54515 0.3793 0.54079 0.0
C2968 C 0.50089 0.43943 0.53765 0.0
C2969 C 0.52003 0.46093 0.53942 0.0
C2970 C 0.50284 0.41834 0.54919 0.0
C2971 C 0.52415 0.41912 0.56336 0.0
C2972 C 0.54349 0.4408 0.56517 0.0
C2973 C 0.5413 0.46124 0.55297 0.0
C2974 C 0.48211 0.39526 0.54629 0.0
C2975 C 0.56637 0.44268 0.58044 0.0
H2976 H 0.51856 0.37626 0.63123 0.0
H2977 H 0.55176 0.3469 0.57197 0.0
H2978 H 0.52064 0.43464 0.61392 0.0
H2979 H 0.49185 0.41713 0.60075 0.0
H2980 H 0.50227 0.41156 0.63001 0.0
H2981 H 0.52996 0.38053 0.52837 0.0
H2982 H 0.55992 0.39619 0.53975 0.0
H2983 H 0.55132 0.3622 0.53453 0.0
H2984 H 0.48443 0.43907 0.5272 0.0
H2985 H 0.5561 0.47789 0.55473 0.0
H2986 H 0.47506 0.39189 0.56391 0.0
H2987 H 0.48826 0.37833 0.53951 0.0
H2988 H 0.46725 0.39718 0.53377 0.0
H2989 H 0.5623 0.44025 0.59921 0.0
H2990 H 0.57953 0.46109 0.58033 0.0
H2991 H 0.57485 0.42735 0.57395 0.0
C2992 C 0.42226 0.74815 0.31568 0.0
C2993 C 0.4415 0.76818 0.31219 0.0
C2994 C 0.39967 0.74501 0.30338 0.0
C2995 C 0.39627 0.76244 0.28744 0.0
C2996 C 0.41588 0.78209 0.28319 0.0
C2997 C 0.43825 0.78464 0.29552 0.0
C2998 C 0.37921 0.72369 0.30818 0.0
C2999 C 0.41296 0.80125 0.26654 0.0
C3000 C 0.34152 0.75075 0.24308 0.0
C3001 C 0.32744 0.76456 0.25544 0.0
C3002 C 0.36365 0.74898 0.25364 0.0
C3003 C 0.3719 0.76174 0.27683 0.0
C3004 C 0.35757 0.77558 0.28934 0.0
C3005 C 0.33557 0.77686 0.27841 0.0
C3006 C 0.37836 0.73387 0.23988 0.0
C3007 C 0.3658 0.78977 0.31395 0.0
H3008 H 0.42466 0.7353 0.32846 0.0
H3009 H 0.45302 0.80014 0.29265 0.0
H3010 H 0.36603 0.7315 0.31824 0.0
H3011 H 0.36973 0.71336 0.29108 0.0
H3012 H 0.38537 0.71009 0.31878 0.0
H3013 H 0.4303 0.81438 0.264 0.0
H3014 H 0.40466 0.79158 0.24877 0.0
H3015 H 0.40079 0.81254 0.2739 0.0
H3016 H 0.33521 0.74133 0.22522 0.0
H3017 H 0.32515 0.78839 0.28749 0.0
H3018 H 0.38343 0.72008 0.25097 0.0
H3019 H 0.39521 0.74666 0.23561 0.0
H3020 H 0.36861 0.72351 0.22288 0.0
H3021 H 0.36993 0.77673 0.32644 0.0
H3022 H 0.35213 0.79895 0.32151 0.0
H3023 H 0.3825 0.80456 0.31306 0.0
C3024 C 0.04169 0.72114 0.08994 0.0
C3025 C 0.03094 0.7229 0.11164 0.0
C3026 C 0.04112 0.69757 0.07723 0.0
C3027 C 0.0296 0.67517 0.08644 0.0
C3028 C 0.01856 0.67678 0.10822 0.0
C3029 C 0.01931 0.7006 0.12052 0.0
C3030 C 0.05292 0.69663 0.05396 0.0
C3031 C 0.00605 0.65331 0.11859 0.0
C3032 C 0.00782 0.61464 0.04397 0.0
C3033 C 0.02564 0.60169 0.04837 0.0
C3034 C 0.00905 0.63862 0.05603 0.0
C3035 C 0.02856 0.65004 0.07303 0.0
C3036 C 0.04679 0.63728 0.07739 0.0
C3037 C 0.04516 0.61326 0.06495 0.0
C3038 C 0.98931 0.65163 0.05073 0.0
C3039 C 0.06785 0.64888 0.09544 0.0
H3040 H 0.05074 0.73823 0.08292 0.0
H3041 H 0.01104 0.70171 0.1373 0.0
H3042 H 0.06703 0.68602 0.05521 0.0
H3043 H 0.03954 0.68641 0.03919 0.0
H3044 H 0.06116 0.71577 0.04924 0.0
H3045 H 0.99856 0.65778 0.13582 0.0
H3046 H 0.99124 0.64191 0.10574 0.0
H3047 H 0.01878 0.64139 0.12162 0.0
H3048 H 0.99272 0.60602 0.03106 0.0
H3049 H 0.05898 0.60342 0.0685 0.0
H3050 H 0.99696 0.67032 0.04481 0.0
H3051 H 0.98029 0.65503 0.06724 0.0
H3052 H 0.97561 0.64038 0.03664 0.0
H3053 H 0.07746 0.66756 0.09073 0.0
H3054 H 0.08073 0.63674 0.09646 0.0
H3055 H 0.06142 0.6521 0.11344 0.0
C3056 C 0.05095 0.22278 0.80267 0.0
C3057 C 0.04899 0.23991 0.82234 0.0
C3058 C 0.07257 0.22482 0.79178 0.0
C3059 C 0.09282 0.24431 0.80092 0.0
C3060 C 0.0909 0.26187 0.82056 0.0
C3061 C 0.06896 0.25955 0.83095 0.0
C3062 C 0.07381 0.20591 0.7707 0.0
C3063 C 0.11215 0.28283 0.83092 0.0
C3064 C 0.15526 0.2362 0.78997 0.0
C3065 C 0.16172 0.25212 0.77226 0.0
C3066 C 0.1327 0.23311 0.79916 0.0
C3067 C 0.11618 0.24609 0.79024 0.0
C3068 C 0.12232 0.2614 0.77167 0.0
C3069 C 0.14509 0.26433 0.76298 0.0
C3070 C 0.12689 0.21666 0.81899 0.0
C3071 C 0.1051 0.27526 0.76146 0.0
H3072 H 0.03557 0.20759 0.79584 0.0
H3073 H 0.06763 0.27279 0.84619 0.0
H3074 H 0.08011 0.21588 0.75521 0.0
H3075 H 0.08698 0.19495 0.7753 0.0
H3076 H 0.05621 0.19248 0.76516 0.0
H3077 H 0.10763 0.29513 0.84601 0.0
H3078 H 0.12683 0.27465 0.83744 0.0
H3079 H 0.11911 0.29469 0.81685 0.0
H3080 H 0.16814 0.22681 0.79724 0.0
H3081 H 0.15007 0.27665 0.74928 0.0
H3082 H 0.10986 0.20215 0.81398 0.0
H3083 H 0.12433 0.22838 0.83546 0.0
H3084 H 0.14125 0.20699 0.82317 0.0
H3085 H 0.08761 0.26188 0.75549 0.0
H3086 H 0.11201 0.28511 0.74607 0.0
H3087 H 0.10176 0.28945 0.77553 0.0
C3088 C 0.56215 0.70362 0.96292 0.0
C3089 C 0.54301 0.71366 0.95579 0.0
C3090 C 0.55812 0.68055 0.97259 0.0
C3091 C 0.53439 0.66751 0.97578 0.0
C3092 C 0.51505 0.6781 0.96953 0.0
C3093 C 0.51957 0.70089 0.95928 0.0
C3094 C 0.57918 0.6696 0.9784 0.0
C3095 C 0.48955 0.66504 0.97316 0.0
C3096 C 0.52115 0.59622 0.97368 0.0
C3097 C 0.52218 0.59292 0.99805 0.0
C3098 C 0.52512 0.62037 0.96629 0.0
C3099 C 0.5297 0.64183 0.98368 0.0
C3100 C 0.53039 0.63866 0.00835 0.0
C3101 C 0.52695 0.6142 0.01527 0.0
C3102 C 0.52485 0.62289 0.93981 0.0
C3103 C 0.53471 0.66108 0.02738 0.0
H3104 H 0.58031 0.71336 0.96014 0.0
H3105 H 0.50474 0.70871 0.95399 0.0
H3106 H 0.57941 0.6652 0.99717 0.0
H3107 H 0.57744 0.65159 0.9667 0.0
H3108 H 0.59658 0.68262 0.97586 0.0
H3109 H 0.47688 0.67695 0.96972 0.0
H3110 H 0.48387 0.64716 0.96089 0.0
H3111 H 0.48825 0.66007 0.99172 0.0
H3112 H 0.51779 0.57987 0.96026 0.0
H3113 H 0.52767 0.61171 0.03411 0.0
H3114 H 0.54235 0.6346 0.93572 0.0
H3115 H 0.5109 0.63266 0.93459 0.0
H3116 H 0.5213 0.6043 0.92861 0.0
H3117 H 0.55268 0.67364 0.02629 0.0
H3118 H 0.53359 0.65535 0.04572 0.0
H3119 H 0.52136 0.67231 0.02436 0.0
C3120 C 0.07402 0.76209 0.63354 0.0
C3121 C 0.05805 0.767 0.6503 0.0
C3122 C 0.09677 0.75916 0.64093 0.0
C3123 C 0.10398 0.76193 0.66568 0.0
C3124 C 0.08823 0.76777 0.68268 0.0
C3125 C 0.0653 0.76983 0.67478 0.0
C3126 C 0.11278 0.75233 0.62229 0.0
C3127 C 0.09553 0.77163 0.70921 0.0
C3128 C 0.1529 0.73316 0.69027 0.0
C3129 C 0.17263 0.75407 0.69351 0.0
C3130 C 0.13065 0.73513 0.68016 0.0
C3131 C 0.12799 0.75876 0.6739 0.0
C3132 C 0.1481 0.77972 0.67656 0.0
C3133 C 0.17025 0.777 0.68599 0.0
C3134 C 0.10981 0.71215 0.67692 0.0
C3135 C 0.14594 0.80539 0.67068 0.0
H3136 H 0.06835 0.75949 0.61458 0.0
H3137 H 0.053 0.77362 0.68778 0.0
H3138 H 0.13013 0.76667 0.6241 0.0
H3139 H 0.11676 0.73396 0.62511 0.0
H3140 H 0.10451 0.75087 0.60376 0.0
H3141 H 0.08172 0.77742 0.71999 0.0
H3142 H 0.09865 0.75388 0.71503 0.0
H3143 H 0.11261 0.78631 0.71317 0.0
H3144 H 0.15472 0.71544 0.69612 0.0
H3145 H 0.18542 0.79331 0.68871 0.0
H3146 H 0.10111 0.7094 0.65845 0.0
H3147 H 0.09616 0.71495 0.68939 0.0
H3148 H 0.11539 0.6947 0.68035 0.0
H3149 H 0.16348 0.81954 0.67297 0.0
H3150 H 0.1335 0.81233 0.68252 0.0
H3151 H 0.13829 0.80407 0.65197 0.0
C3152 C 0.03538 0.35626 0.4842 0.0
C3153 C 0.04574 0.34981 0.46323 0.0
C3154 C 0.03831 0.38153 0.49358 0.0
C3155 C 0.05207 0.40088 0.48177 0.0
C3156 C 0.064 0.39448 0.46158 0.0
C3157 C 0.06065 0.36894 0.45248 0.0
C3158 C 0.02524 0.38753 0.51515 0.0
C3159 C 0.07906 0.41461 0.44872 0.0
C3160 C 0.02915 0.46008 0.48794 0.0
C3161 C 0.04431 0.47478 0.50707 0.0
C3162 C 0.03238 0.43656 0.47866 0.0
C3163 C 0.0512 0.42746 0.48887 0.0
C3164 C 0.06727 0.44274 0.50749 0.0
C3165 C 0.06356 0.46628 0.51648 0.0
C3166 C 0.01482 0.42091 0.45878 0.0
C3167 C 0.08773 0.43379 0.51855 0.0
H3168 H 0.02404 0.34158 0.49278 0.0
H3169 H 0.06881 0.36408 0.43633 0.0
H3170 H 0.0376 0.40116 0.52882 0.0
H3171 H 0.01075 0.39649 0.50967 0.0
H3172 H 0.01712 0.37037 0.52351 0.0
H3173 H 0.09027 0.40669 0.43604 0.0
H3174 H 0.06719 0.42371 0.43844 0.0
H3175 H 0.0909 0.42957 0.46171 0.0
H3176 H 0.01413 0.46651 0.48076 0.0
H3177 H 0.0754 0.47775 0.53118 0.0
H3178 H 0.00403 0.40387 0.46559 0.0
H3179 H 0.0245 0.41435 0.44386 0.0
H3180 H 0.0024 0.43157 0.45158 0.0
H3181 H 0.08055 0.4182 0.52923 0.0
H3182 H 0.10041 0.44914 0.53047 0.0
H3183 H 0.0977 0.42621 0.5044 0.0
C3184 C 0.42198 0.27921 0.16811 0.0
C3185 C 0.43835 0.26811 0.17955 0.0
C3186 C 0.40222 0.28409 0.17968 0.0
C3187 C 0.39923 0.27842 0.20349 0.0
C3188 C 0.41655 0.26859 0.21554 0.0
C3189 C 0.43567 0.26317 0.2033 0.0
C3190 C 0.38384 0.29392 0.16596 0.0
C3191 C 0.41442 0.26288 0.24111 0.0
C3192 C 0.35356 0.3036 0.23923 0.0
C3193 C 0.33461 0.28196 0.23775 0.0
C3194 C 0.37483 0.30282 0.22827 0.0
C3195 C 0.3768 0.28011 0.21492 0.0
C3196 C 0.35741 0.25845 0.21293 0.0
C3197 C 0.33676 0.25956 0.22462 0.0
C3198 C 0.39535 0.32609 0.23133 0.0
C3199 C 0.35842 0.23402 0.1984 0.0
H3200 H 0.42396 0.28294 0.1497 0.0
H3201 H 0.44846 0.25483 0.21229 0.0
H3202 H 0.36675 0.27915 0.16287 0.0
H3203 H 0.3801 0.31061 0.17646 0.0
H3204 H 0.3897 0.29926 0.14834 0.0
H3205 H 0.43085 0.2584 0.24885 0.0
H3206 H 0.41091 0.27919 0.25245 0.0
H3207 H 0.39906 0.24647 0.24184 0.0
H3208 H 0.35193 0.32094 0.24936 0.0
H3209 H 0.32199 0.24288 0.22305 0.0
H3210 H 0.40029 0.33177 0.21359 0.0
H3211 H 0.41135 0.32185 0.24026 0.0
H3212 H 0.39097 0.34228 0.24214 0.0
H3213 H 0.36273 0.23748 0.17989 0.0
H3214 H 0.34127 0.21939 0.19749 0.0
H3215 H 0.37286 0.22643 0.20638 0.0
C3216 C 0.60646 0.5033 0.36876 0.0
C3217 C 0.5997 0.51654 0.35061 0.0
C3218 C 0.59351 0.50029 0.38923 0.0
C3219 C 0.5731 0.51034 0.39135 0.0
C3220 C 0.56573 0.52286 0.37261 0.0
C3221 C 0.57921 0.52599 0.35263 0.0
C3222 C 0.60222 0.48724 0.409 0.0
C3223 C 0.54393 0.53361 0.37394 0.0
C3224 C 0.52719 0.49003 0.43633 0.0
C3225 C 0.53317 0.51087 0.45408 0.0
C3226 C 0.54044 0.48917 0.41608 0.0
C3227 C 0.5603 0.50947 0.41374 0.0
C3228 C 0.56684 0.53011 0.43207 0.0
C3229 C 0.553 0.53072 0.45176 0.0
C3230 C 0.53268 0.46699 0.3968 0.0
C3231 C 0.58804 0.55202 0.43055 0.0
H3232 H 0.62234 0.49605 0.36737 0.0
H3233 H 0.57376 0.53607 0.33859 0.0
H3234 H 0.60834 0.50102 0.42527 0.0
H3235 H 0.58739 0.47208 0.41381 0.0
H3236 H 0.61727 0.47886 0.40391 0.0
H3237 H 0.53953 0.54107 0.35711 0.0
H3238 H 0.52817 0.51891 0.37773 0.0
H3239 H 0.5471 0.54919 0.38886 0.0
H3240 H 0.5118 0.47469 0.43798 0.0
H3241 H 0.55741 0.54717 0.46507 0.0
H3242 H 0.54802 0.45871 0.39271 0.0
H3243 H 0.52655 0.47348 0.38009 0.0
H3244 H 0.5179 0.45198 0.40199 0.0
H3245 H 0.60418 0.54503 0.42675 0.0
H3246 H 0.59214 0.56533 0.44734 0.0
H3247 H 0.58431 0.56257 0.4156 0.0
C3248 C 0.21475 0.83686 0.06184 0.0
C3249 C 0.22746 0.86229 0.06444 0.0
C3250 C 0.2133 0.82275 0.08135 0.0
C3251 C 0.22544 0.83421 0.10367 0.0
C3252 C 0.2371 0.86025 0.10672 0.0
C3253 C 0.23774 0.87407 0.08709 0.0
C3254 C 0.19959 0.79539 0.07787 0.0
C3255 C 0.25013 0.87316 0.13034 0.0
C3256 C 0.21823 0.80614 0.16229 0.0
C3257 C 0.23805 0.79556 0.16354 0.0
C3258 C 0.21272 0.81719 0.14203 0.0
C3259 C 0.2281 0.81863 0.12319 0.0
C3260 C 0.24763 0.80705 0.12405 0.0
C3261 C 0.25211 0.79523 0.14411 0.0
C3262 C 0.19114 0.8283 0.14155 0.0
C3263 C 0.2647 0.80855 0.10452 0.0
H3264 H 0.20645 0.8278 0.04441 0.0
H3265 H 0.24755 0.89373 0.08918 0.0
H3266 H 0.21228 0.78306 0.07867 0.0
H3267 H 0.18755 0.79142 0.09247 0.0
H3268 H 0.1887 0.79023 0.06039 0.0
H3269 H 0.25777 0.89368 0.12991 0.0
H3270 H 0.23775 0.87077 0.14479 0.0
H3271 H 0.26492 0.86427 0.135 0.0
H3272 H 0.20727 0.80616 0.17734 0.0
H3273 H 0.2675 0.78711 0.14523 0.0
H3274 H 0.18374 0.82865 0.12302 0.0
H3275 H 0.19637 0.84798 0.15058 0.0
H3276 H 0.17675 0.81742 0.15137 0.0
H3277 H 0.25472 0.80116 0.08686 0.0
H3278 H 0.27844 0.79774 0.10749 0.0
H3279 H 0.27398 0.82859 0.10369 0.0
C3280 C 0.96466 0.58668 0.86091 0.0
C3281 C 0.97197 0.57257 0.84179 0.0
C3282 C 0.97549 0.58857 0.88422 0.0
C3283 C 0.99374 0.57581 0.88833 0.0
C3284 C 0.00246 0.56336 0.86875 0.0
C3285 C 0.99156 0.56203 0.84572 0.0
C3286 C 0.96616 0.60257 0.90461 0.0
C3287 C 0.02184 0.54941 0.87233 0.0
C3288 C 0.03053 0.57921 0.94705 0.0
C3289 C 0.01819 0.5571 0.95563 0.0
C3290 C 0.02194 0.5867 0.92583 0.0
C3291 C 0.00082 0.57144 0.91294 0.0
C3292 C 0.98776 0.54978 0.92227 0.0
C3293 C 0.99658 0.54296 0.94354 0.0
C3294 C 0.03597 0.61025 0.9167 0.0
C3295 C 0.96518 0.53289 0.9091 0.0
H3296 H 0.94972 0.59514 0.85795 0.0
H3297 H 0.99758 0.55143 0.83096 0.0
H3298 H 0.95414 0.58879 0.91435 0.0
H3299 H 0.98109 0.6135 0.91758 0.0
H3300 H 0.95586 0.61566 0.89813 0.0
H3301 H 0.02837 0.54308 0.85511 0.0
H3302 H 0.03728 0.56154 0.88393 0.0
H3303 H 0.0147 0.53253 0.88145 0.0
H3304 H 0.04712 0.59031 0.95659 0.0
H3305 H 0.98689 0.52596 0.95026 0.0
H3306 H 0.02377 0.62148 0.91019 0.0
H3307 H 0.04576 0.60489 0.90135 0.0
H3308 H 0.04923 0.62233 0.93073 0.0
H3309 H 0.95216 0.54413 0.90491 0.0
H3310 H 0.95641 0.51768 0.91958 0.0
H3311 H 0.96954 0.52398 0.89186 0.0
C3312 C 0.26179 0.22265 0.57073 0.0
C3313 C 0.26949 0.20023 0.56655 0.0
C3314 C 0.26076 0.23385 0.59421 0.0
C3315 C 0.2675 0.22237 0.61404 0.0
C3316 C 0.27593 0.20018 0.60993 0.0
C3317 C 0.27689 0.18947 0.58634 0.0
C3318 C 0.25191 0.25765 0.5978 0.0
C3319 C 0.28336 0.18731 0.6305 0.0
C3320 C 0.28316 0.25955 0.67618 0.0
C3321 C 0.26207 0.25136 0.68758 0.0
C3322 C 0.28499 0.25072 0.65218 0.0
C3323 C 0.26531 0.23312 0.63912 0.0
C3324 C 0.24388 0.22497 0.6504 0.0
C3325 C 0.24248 0.23423 0.67443 0.0
C3326 C 0.30815 0.26001 0.64089 0.0
C3327 C 0.22252 0.20611 0.6372 0.0
H3328 H 0.25599 0.23114 0.55565 0.0
H3329 H 0.2829 0.17219 0.58346 0.0
H3330 H 0.23504 0.25388 0.60689 0.0
H3331 H 0.2652 0.27256 0.60955 0.0
H3332 H 0.24851 0.26498 0.58061 0.0
H3333 H 0.29016 0.17059 0.62432 0.0
H3334 H 0.29754 0.20076 0.64264 0.0
H3335 H 0.26785 0.18108 0.64115 0.0
H3336 H 0.2984 0.2729 0.68602 0.0
H3337 H 0.22611 0.22776 0.68299 0.0
H3338 H 0.30463 0.26832 0.62433 0.0
H3339 H 0.31613 0.24391 0.63567 0.0
H3340 H 0.32147 0.27442 0.65316 0.0
H3341 H 0.21704 0.21318 0.62055 0.0
H3342 H 0.20693 0.20224 0.64822 0.0
H3343 H 0.22741 0.18805 0.63185 0.0
C3344 C 0.59703 0.53056 0.22018 0.0
C3345 C 0.61451 0.51658 0.22101 0.0
C3346 C 0.58555 0.53324 0.1983 0.0
C3347 C 0.59138 0.52135 0.17669 0.0
C3348 C 0.60854 0.50667 0.17742 0.0
C3349 C 0.62002 0.50461 0.19954 0.0
C3350 C 0.56749 0.54921 0.19829 0.0
C3351 C 0.61491 0.49329 0.15481 0.0
C3352 C 0.54596 0.50952 0.12274 0.0
C3353 C 0.55613 0.52874 0.10912 0.0
C3354 C 0.55732 0.50682 0.14463 0.0
C3355 C 0.57926 0.524 0.15335 0.0
C3356 C 0.58949 0.54369 0.13981 0.0
C3357 C 0.57787 0.54571 0.11772 0.0
C3358 C 0.54596 0.48536 0.15828 0.0
C3359 C 0.6127 0.56258 0.14866 0.0
H3360 H 0.59276 0.54008 0.23661 0.0
H3361 H 0.63347 0.49376 0.19998 0.0
H3362 H 0.57334 0.56492 0.18734 0.0
H3363 H 0.54989 0.53771 0.19001 0.0
H3364 H 0.56506 0.55734 0.21662 0.0
H3365 H 0.62815 0.48208 0.15847 0.0
H3366 H 0.59855 0.48044 0.14517 0.0
H3367 H 0.62245 0.50728 0.14266 0.0
H3368 H 0.52923 0.49621 0.11606 0.0
H3369 H 0.5858 0.56053 0.10718 0.0
H3370 H 0.54211 0.49294 0.17628 0.0
H3371 H 0.55856 0.47323 0.16097 0.0
H3372 H 0.52901 0.47342 0.14887 0.0
H3373 H 0.61097 0.57227 0.16653 0.0
H3374 H 0.61805 0.57705 0.13628 0.0
H3375 H 0.62726 0.55268 0.1508 0.0
C3376 C 0.23396 0.85411 0.91224 0.0
C3377 C 0.23291 0.84086 0.93227 0.0
C3378 C 0.23269 0.84144 0.88906 0.0
C3379 C 0.22958 0.81487 0.88598 0.0
C3380 C 0.22744 0.80132 0.90612 0.0
C3381 C 0.22952 0.81456 0.92908 0.0
C3382 C 0.23553 0.85654 0.86798 0.0
C3383 C 0.22332 0.7729 0.90345 0.0
C3384 C 0.20658 0.78128 0.82406 0.0
C3385 C 0.22758 0.77685 0.81502 0.0
C3386 C 0.20686 0.79308 0.84738 0.0
C3387 C 0.22882 0.80124 0.86169 0.0
C3388 C 0.25004 0.79649 0.85274 0.0
C3389 C 0.24904 0.78385 0.8296 0.0
C3390 C 0.18373 0.79707 0.85656 0.0
C3391 C 0.2739 0.80539 0.86731 0.0
H3392 H 0.23689 0.87451 0.91477 0.0
H3393 H 0.22864 0.80433 0.94462 0.0
H3394 H 0.25117 0.85356 0.85844 0.0
H3395 H 0.21952 0.84998 0.85501 0.0
H3396 H 0.23811 0.8771 0.87347 0.0
H3397 H 0.22051 0.76511 0.9208 0.0
H3398 H 0.20744 0.76408 0.89076 0.0
H3399 H 0.23896 0.76734 0.8959 0.0
H3400 H 0.18989 0.77568 0.81281 0.0
H3401 H 0.26512 0.78015 0.82264 0.0
H3402 H 0.18471 0.81758 0.85995 0.0
H3403 H 0.18087 0.7892 0.87384 0.0
H3404 H 0.16797 0.78808 0.84373 0.0
H3405 H 0.27813 0.82621 0.87189 0.0
H3406 H 0.28874 0.80038 0.85762 0.0
H3407 H 0.27308 0.79697 0.88441 0.0
C3408 C 0.97675 0.57872 0.71429 0.0
C3409 C 0.95167 0.57396 0.71217 0.0
C3410 C 0.98975 0.57974 0.69394 0.0
C3411 C 0.9773 0.57557 0.67099 0.0
C3412 C 0.95215 0.57252 0.6688 0.0
C3413 C 0.93963 0.57189 0.68947 0.0
C3414 C 0.01661 0.58357 0.69698 0.0
C3415 C 0.93825 0.56798 0.64459 0.0
C3416 C 0.00922 0.58441 0.61415 0.0
C3417 C 0.01006 0.55952 0.60653 0.0
C3418 C 0.99932 0.59024 0.63562 0.0
C3419 C 0.98988 0.57061 0.64943 0.0
C3420 C 0.99139 0.54559 0.64208 0.0
C3421 C 0.00162 0.54039 0.62076 0.0
C3422 C 0.99843 0.6172 0.64322 0.0
C3423 C 0.98136 0.52408 0.65624 0.0
H3424 H 0.98622 0.58076 0.73182 0.0
H3425 H 0.92026 0.56838 0.68771 0.0
H3426 H 0.02128 0.56531 0.69208 0.0
H3427 H 0.02554 0.59701 0.68493 0.0
H3428 H 0.02391 0.59076 0.71572 0.0
H3429 H 0.91933 0.56896 0.64597 0.0
H3430 H 0.94674 0.582 0.63285 0.0
H3431 H 0.93838 0.54897 0.63574 0.0
H3432 H 0.01582 0.59921 0.60309 0.0
H3433 H 0.00224 0.52113 0.61482 0.0
H3434 H 0.00722 0.62349 0.66157 0.0
H3435 H 0.97954 0.61846 0.64378 0.0
H3436 H 0.00736 0.63038 0.63092 0.0
H3437 H 0.98964 0.52827 0.67491 0.0
H3438 H 0.98446 0.50584 0.6483 0.0
H3439 H 0.96178 0.52186 0.65706 0.0
C3440 C 0.2467 0.20776 0.41609 0.0
C3441 C 0.26578 0.20781 0.43264 0.0
C3442 C 0.25063 0.21926 0.39499 0.0
C3443 C 0.27415 0.23218 0.39075 0.0
C3444 C 0.29353 0.2322 0.40743 0.0
C3445 C 0.28916 0.21955 0.42792 0.0
C3446 C 0.22953 0.2179 0.37736 0.0
C3447 C 0.31872 0.24653 0.40418 0.0
C3448 C 0.28558 0.25018 0.32775 0.0
C3449 C 0.28049 0.27403 0.32923 0.0
C3450 C 0.28391 0.23635 0.34764 0.0
C3451 C 0.27798 0.2471 0.36983 0.0
C3452 C 0.27434 0.27187 0.37172 0.0
C3453 C 0.27529 0.28481 0.35138 0.0
C3454 C 0.2875 0.20987 0.3446 0.0
C3455 C 0.26889 0.28455 0.39514 0.0
H3456 H 0.22862 0.19846 0.41959 0.0
H3457 H 0.30392 0.21974 0.44077 0.0
H3458 H 0.22624 0.23698 0.37695 0.0
H3459 H 0.23342 0.21131 0.35904 0.0
H3460 H 0.21288 0.20499 0.382 0.0
H3461 H 0.33196 0.24376 0.41808 0.0
H3462 H 0.32404 0.24055 0.38629 0.0
H3463 H 0.31948 0.26701 0.40507 0.0
H3464 H 0.29041 0.2421 0.31093 0.0
H3465 H 0.27167 0.3034 0.35282 0.0
H3466 H 0.30036 0.20736 0.35896 0.0
H3467 H 0.29414 0.20511 0.32698 0.0
H3468 H 0.27021 0.1962 0.34614 0.0
H3469 H 0.25088 0.27477 0.39984 0.0
H3470 H 0.26922 0.30477 0.39432 0.0
H3471 H 0.28205 0.28325 0.40979 0.0
C3472 C 0.32888 0.57939 0.5275 0.0
C3473 C 0.33887 0.60544 0.52913 0.0
C3474 C 0.34258 0.56204 0.52131 0.0
C3475 C 0.3671 0.57109 0.51779 0.0
C3476 C 0.37713 0.59748 0.519 0.0
C3477 C 0.36269 0.61437 0.52419 0.0
C3478 C 0.33106 0.5341 0.51939 0.0
C3479 C 0.40338 0.6079 0.516 0.0
C3480 C 0.41198 0.5338 0.53343 0.0
C3481 C 0.41938 0.52728 0.51086 0.0
C3482 C 0.39391 0.54682 0.53584 0.0
C3483 C 0.38288 0.55328 0.51512 0.0
C3484 C 0.38872 0.54465 0.49215 0.0
C3485 C 0.40713 0.53188 0.49028 0.0
C3486 C 0.38827 0.55549 0.56072 0.0
C3487 C 0.37657 0.55019 0.46963 0.0
H3488 H 0.3103 0.57259 0.53109 0.0
H3489 H 0.37032 0.63457 0.52555 0.0
H3490 H 0.33561 0.5242 0.50274 0.0
H3491 H 0.33806 0.52597 0.53469 0.0
H3492 H 0.31125 0.53019 0.51946 0.0
H3493 H 0.40823 0.62883 0.51689 0.0
H3494 H 0.41443 0.60234 0.53028 0.0
H3495 H 0.40813 0.59984 0.49858 0.0
H3496 H 0.4214 0.53023 0.54941 0.0
H3497 H 0.41276 0.52674 0.47279 0.0
H3498 H 0.3689 0.55432 0.56169 0.0
H3499 H 0.39802 0.57556 0.56569 0.0
H3500 H 0.39386 0.54409 0.57414 0.0
H3501 H 0.35693 0.5467 0.47092 0.0
H3502 H 0.38001 0.53854 0.45348 0.0
H3503 H 0.38335 0.5704 0.46727 0.0
C3504 C 0.84748 0.93555 0.5318 0.0
C3505 C 0.83071 0.94626 0.54358 0.0
C3506 C 0.8714 0.94902 0.53163 0.0
C3507 C 0.87889 0.97391 0.54353 0.0
C3508 C 0.86204 0.98509 0.55507 0.0
C3509 C 0.83813 0.97114 0.55497 0.0
C3510 C 0.88879 0.93635 0.51915 0.0
C3511 C 0.8694 0.01158 0.56799 0.0
C3512 C 0.94506 0.99524 0.56432 0.0
C3513 C 0.95435 0.00963 0.54631 0.0
C3514 C 0.92047 0.98413 0.56395 0.0
C3515 C 0.90471 0.98746 0.54506 0.0
C3516 C 0.91394 0.0024 0.52703 0.0
C3517 C 0.9387 0.01339 0.52792 0.0
C3518 C 0.91145 0.96827 0.58347 0.0
C3519 C 0.89776 0.00631 0.50654 0.0
H3520 H 0.84202 0.91641 0.52281 0.0
H3521 H 0.82535 0.97962 0.56405 0.0
H3522 H 0.89785 0.94822 0.50595 0.0
H3523 H 0.9029 0.93422 0.53241 0.0
H3524 H 0.87986 0.91738 0.5097 0.0
H3525 H 0.85392 0.0181 0.5749 0.0
H3526 H 0.88263 0.01236 0.58328 0.0
H3527 H 0.87825 0.02493 0.55582 0.0
H3528 H 0.95711 0.99229 0.57861 0.0
H3529 H 0.94581 0.02477 0.51417 0.0
H3530 H 0.90393 0.94836 0.57564 0.0
H3531 H 0.8968 0.975 0.59196 0.0
H3532 H 0.92582 0.96871 0.59759 0.0
H3533 H 0.88936 0.98789 0.49582 0.0
H3534 H 0.90757 0.01927 0.49452 0.0
H3535 H 0.88306 0.01414 0.51355 0.0
C3536 C 0.83296 0.10746 0.26103 0.0
C3537 C 0.83851 0.10172 0.2375 0.0
C3538 C 0.82109 0.1267 0.26685 0.0
C3539 C 0.81542 0.14113 0.24888 0.0
C3540 C 0.82111 0.13543 0.2251 0.0
C3541 C 0.83219 0.11553 0.21963 0.0
C3542 C 0.81476 0.13169 0.29226 0.0
C3543 C 0.8162 0.15089 0.20555 0.0
C3544 C 0.77097 0.18263 0.25671 0.0
C3545 C 0.78634 0.20629 0.26471 0.0
C3546 C 0.78004 0.161 0.25233 0.0
C3547 C 0.80512 0.1633 0.2552 0.0
C3548 C 0.82063 0.18718 0.26331 0.0
C3549 C 0.81105 0.20821 0.26829 0.0
C3550 C 0.76285 0.13575 0.24436 0.0
C3551 C 0.84751 0.19076 0.26595 0.0
H3552 H 0.83758 0.09665 0.27483 0.0
H3553 H 0.83656 0.11123 0.20143 0.0
H3554 H 0.82525 0.15062 0.30042 0.0
H3555 H 0.79552 0.13173 0.29242 0.0
H3556 H 0.81842 0.11739 0.30358 0.0
H3557 H 0.8215 0.14388 0.18794 0.0
H3558 H 0.79688 0.15059 0.20368 0.0
H3559 H 0.82618 0.17089 0.21037 0.0
H3560 H 0.75188 0.18103 0.2539 0.0
H3561 H 0.82316 0.22648 0.27412 0.0
H3562 H 0.7662 0.12152 0.25591 0.0
H3563 H 0.76575 0.12898 0.22577 0.0
H3564 H 0.74384 0.13671 0.24497 0.0
H3565 H 0.8524 0.17875 0.27911 0.0
H3566 H 0.85709 0.2107 0.27193 0.0
H3567 H 0.85393 0.18478 0.24858 0.0
C3568 C 0.69982 0.12501 0.01568 0.0
C3569 C 0.71765 0.11562 0.02688 0.0
C3570 C 0.67562 0.11219 0.0148 0.0
C3571 C 0.66918 0.08943 0.02528 0.0
C3572 C 0.68709 0.07956 0.03616 0.0
C3573 C 0.71113 0.0928 0.03685 0.0
C3574 C 0.65692 0.1232 0.00301 0.0
C3575 C 0.68082 0.05523 0.04738 0.0
C3576 C 0.60569 0.07027 0.04342 0.0
C3577 C 0.59448 0.05265 0.02394 0.0
C3578 C 0.63013 0.08216 0.04424 0.0
C3579 C 0.64361 0.07616 0.02518 0.0
C3580 C 0.63257 0.05792 0.00577 0.0
C3581 C 0.6081 0.0464 0.00536 0.0
C3582 C 0.6414 0.10155 0.06523 0.0
C3583 C 0.64648 0.05094 0.98522 0.0
H3584 H 0.70471 0.14262 0.00794 0.0
H3585 H 0.7248 0.08536 0.04547 0.0
H3586 H 0.64608 0.10925 0.98853 0.0
H3587 H 0.64448 0.1275 0.0163 0.0
H3588 H 0.66496 0.1408 0.99527 0.0
H3589 H 0.69696 0.04973 0.05447 0.0
H3590 H 0.66933 0.05728 0.06228 0.0
H3591 H 0.6704 0.03968 0.03402 0.0
H3592 H 0.59529 0.07523 0.05782 0.0
H3593 H 0.59963 0.03266 0.99031 0.0
H3594 H 0.64816 0.12022 0.05889 0.0
H3595 H 0.65699 0.09628 0.07384 0.0
H3596 H 0.62859 0.1035 0.07894 0.0
H3597 H 0.65334 0.06776 0.97594 0.0
H3598 H 0.6354 0.03568 0.97193 0.0
H3599 H 0.66223 0.04464 0.99205 0.0
C3600 C 0.17821 0.43105 0.24151 0.0
C3601 C 0.18404 0.45347 0.23101 0.0
C3602 C 0.19602 0.41871 0.24759 0.0
C3603 C 0.22023 0.42969 0.24391 0.0
C3604 C 0.22631 0.45322 0.23474 0.0
C3605 C 0.20803 0.46458 0.22791 0.0
C3606 C 0.18876 0.39329 0.25675 0.0
C3607 C 0.25196 0.4658 0.23117 0.0
C3608 C 0.26343 0.39757 0.27366 0.0
C3609 C 0.26556 0.37971 0.25477 0.0
C3610 C 0.25014 0.41548 0.27004 0.0
C3611 C 0.23858 0.41511 0.24713 0.0
C3612 C 0.24252 0.39856 0.22761 0.0
C3613 C 0.25597 0.38105 0.23171 0.0
C3614 C 0.24715 0.43359 0.29105 0.0
C3615 C 0.23069 0.39752 0.20281 0.0
H3616 H 0.1596 0.42258 0.24387 0.0
H3617 H 0.21248 0.48219 0.22008 0.0
H3618 H 0.19294 0.37858 0.24377 0.0
H3619 H 0.19909 0.39346 0.27398 0.0
H3620 H 0.16934 0.38784 0.25946 0.0
H3621 H 0.25402 0.48556 0.22714 0.0
H3622 H 0.26381 0.46584 0.24738 0.0
H3623 H 0.25819 0.45503 0.21607 0.0
H3624 H 0.2709 0.3966 0.29152 0.0
H3625 H 0.25732 0.36707 0.21716 0.0
H3626 H 0.22903 0.42719 0.29733 0.0
H3627 H 0.24872 0.4528 0.28573 0.0
H3628 H 0.26062 0.43471 0.30625 0.0
H3629 H 0.21202 0.38585 0.20192 0.0
H3630 H 0.24029 0.38897 0.18894 0.0
H3631 H 0.22992 0.41653 0.19835 0.0
C3632 C 0.20607 0.47248 0.05587 0.0
C3633 C 0.20357 0.44794 0.04434 0.0
C3634 C 0.18768 0.48518 0.05357 0.0
C3635 C 0.16603 0.47293 0.03975 0.0
C3636 C 0.16329 0.44805 0.02827 0.0
C3637 C 0.18217 0.43596 0.03048 0.0
C3638 C 0.19133 0.51165 0.06611 0.0
C3639 C 0.14027 0.43408 0.0139 0.0
C3640 C 0.10937 0.49545 0.05099 0.0
C3641 C 0.10715 0.5086 0.03127 0.0
C3642 C 0.12868 0.48422 0.05431 0.0
C3643 C 0.14619 0.48608 0.03739 0.0
C3644 C 0.14445 0.50012 0.01789 0.0
C3645 C 0.12492 0.51115 0.01503 0.0
C3646 C 0.1296 0.46952 0.07543 0.0
C3647 C 0.16299 0.50311 0.99978 0.0
H3648 H 0.22255 0.48192 0.06657 0.0
H3649 H 0.18002 0.41695 0.02167 0.0
H3650 H 0.1887 0.52468 0.05297 0.0
H3651 H 0.1778 0.51201 0.07936 0.0
H3652 H 0.20948 0.51886 0.07557 0.0
H3653 H 0.14088 0.4148 0.00618 0.0
H3654 H 0.12512 0.43251 0.02548 0.0
H3655 H 0.13649 0.44479 0.99909 0.0
H3656 H 0.0957 0.49348 0.06362 0.0
H3657 H 0.12331 0.52134 0.99977 0.0
H3658 H 0.14825 0.47099 0.08256 0.0
H3659 H 0.12109 0.44927 0.06963 0.0
H3660 H 0.11974 0.47617 0.09019 0.0
H3661 H 0.18115 0.51099 0.00899 0.0
H3662 H 0.15977 0.51569 0.98638 0.0
H3663 H 0.16288 0.48436 0.9902 0.0
C3664 C 0.85248 0.9464 0.22127 0.0
C3665 C 0.84281 0.9676 0.22413 0.0
C3666 C 0.83834 0.92209 0.22274 0.0
C3667 C 0.81409 0.91901 0.2278 0.0
C3668 C 0.80395 0.94021 0.22971 0.0
C3669 C 0.8184 0.96426 0.22756 0.0
C3670 C 0.84965 0.89987 0.21999 0.0
C3671 C 0.77829 0.93775 0.23553 0.0
C3672 C 0.77276 0.85298 0.22102 0.0
C3673 C 0.77506 0.84647 0.24426 0.0
C3674 C 0.78546 0.87652 0.21525 0.0
C3675 C 0.80013 0.8941 0.2334 0.0
C3676 C 0.80203 0.8877 0.25704 0.0
C3677 C 0.78978 0.86377 0.26208 0.0
C3678 C 0.78364 0.88236 0.18971 0.0
C3679 C 0.81703 0.90611 0.27703 0.0
H3680 H 0.87131 0.94889 0.21839 0.0
H3681 H 0.8109 0.98062 0.22993 0.0
H3682 H 0.85147 0.89278 0.23757 0.0
H3683 H 0.83811 0.88413 0.20756 0.0
H3684 H 0.8677 0.90495 0.21317 0.0
H3685 H 0.77256 0.95558 0.23439 0.0
H3686 H 0.76607 0.92246 0.2232 0.0
H3687 H 0.77628 0.93255 0.25397 0.0
H3688 H 0.76152 0.8394 0.20723 0.0
H3689 H 0.79145 0.85872 0.28009 0.0
H3690 H 0.80164 0.8859 0.18275 0.0
H3691 H 0.77721 0.8998 0.18891 0.0
H3692 H 0.77133 0.86671 0.17777 0.0
H3693 H 0.83616 0.91024 0.27321 0.0
H3694 H 0.81541 0.89875 0.29467 0.0
H3695 H 0.81155 0.92425 0.27826 0.0
C3696 C 0.6818 0.08262 0.73622 0.0
C3697 C 0.6588 0.07605 0.74434 0.0
C3698 C 0.69547 0.10763 0.73976 0.0
C3699 C 0.68584 0.12656 0.75157 0.0
C3700 C 0.66274 0.1201 0.76002 0.0
C3701 C 0.64949 0.09485 0.75636 0.0
C3702 C 0.7201 0.11384 0.7306 0.0
C3703 C 0.6519 0.13991 0.77257 0.0
C3704 C 0.72885 0.18878 0.77635 0.0
C3705 C 0.72649 0.20378 0.75808 0.0
C3706 C 0.7156 0.16359 0.77457 0.0
C3707 C 0.6996 0.15329 0.7541 0.0
C3708 C 0.69712 0.16833 0.73565 0.0
C3709 C 0.71065 0.19336 0.73782 0.0
C3710 C 0.71879 0.14796 0.7945 0.0
C3711 C 0.68016 0.15797 0.71357 0.0
H3712 H 0.68923 0.06819 0.72707 0.0
H3713 H 0.63175 0.08989 0.76272 0.0
H3714 H 0.72057 0.12692 0.71677 0.0
H3715 H 0.73365 0.12362 0.74539 0.0
H3716 H 0.72535 0.09673 0.72267 0.0
H3717 H 0.63405 0.13165 0.77871 0.0
H3718 H 0.66395 0.15023 0.78829 0.0
H3719 H 0.64993 0.15398 0.76028 0.0
H3720 H 0.74107 0.19669 0.79205 0.0
H3721 H 0.70857 0.20483 0.72367 0.0
H3722 H 0.72519 0.1313 0.78739 0.0
H3723 H 0.70134 0.14074 0.80185 0.0
H3724 H 0.73178 0.15889 0.80933 0.0
H3725 H 0.68538 0.14167 0.70389 0.0
H3726 H 0.67998 0.17234 0.70108 0.0
H3727 H 0.66169 0.15097 0.71879 0.0
loop_
_geom_bond_atom_site_label_1
_geom_bond_atom_site_label_2
_geom_bond_distance
_geom_bond_site_symmetry_2
_ccdc_geom_bond_type
O0 Cd1 2.223 . S
O0 C8 1.315 . S
Cd1 O0 2.223 . S
Cd1 O4 2.297 . S
Cd1 O5 2.439 . S
Cd1 O11 2.240 1_455 S
Cd2 O3 2.240 . S
Cd2 O10 2.223 1_455 S
Cd2 O12 2.320 . S
Cd2 O13 2.439 . S
O3 Cd2 2.240 . S
O3 C8 1.279 . S
O4 Cd1 2.297 . S
O4 C6 1.247 . S
O5 Cd1 2.439 . S
O5 C6 1.208 . S
C6 O4 1.247 . S
C6 O5 1.208 . S
C7 O12 1.284 . S
C7 O13 1.208 . S
C8 O0 1.315 . S
C8 O3 1.279 . S
C9 O10 1.315 . S
C9 O11 1.279 . S
O10 Cd2 2.223 1_655 S
O10 C9 1.315 . S
O11 Cd1 2.240 1_655 S
O11 C9 1.279 . S
O12 Cd2 2.320 . S
O12 C7 1.284 . S
O13 Cd2 2.439 . S
O13 C7 1.208 . S
O14 Cd15 2.223 1_455 S
O14 C22 1.317 . S
Cd15 O14 2.223 1_655 S
Cd15 O18 2.297 . S
Cd15 O19 2.439 . S
Cd15 O25 2.240 1_655 S
Cd16 O17 2.240 1_455 S
Cd16 O24 2.223 . S
Cd16 O26 2.297 . S
Cd16 O27 2.439 . S
O17 Cd16 2.240 1_655 S
O17 C22 1.271 1_655 S
O18 Cd15 2.297 . S
O18 C20 1.247 . S
O19 Cd15 2.439 . S
O19 C20 1.208 . S
C20 O18 1.247 . S
C20 O19 1.208 . S
C21 O26 1.247 . S
C21 O27 1.208 . S
C22 O14 1.317 . S
C22 O17 1.271 1_455 S
C23 O24 1.315 . S
C23 O25 1.279 . S
O24 Cd16 2.223 . S
O24 C23 1.315 . S
O25 Cd15 2.240 1_455 S
O25 C23 1.279 . S
O26 Cd16 2.297 . S
O26 C21 1.247 . S
O27 Cd16 2.439 . S
O27 C21 1.208 . S
O28 Cd29 2.223 . S
O28 C36 1.315 . S
Cd29 O28 2.223 . S
Cd29 O32 2.297 . S
Cd29 O33 2.439 . S
Cd29 O39 2.240 . S
Cd30 O31 2.240 . S
Cd30 O38 2.223 . S
Cd30 O40 2.297 . S
Cd30 O41 2.439 . S
O31 Cd30 2.240 . S
O31 C36 1.279 . S
O32 Cd29 2.297 . S
O32 C34 1.247 . S
O33 Cd29 2.439 . S
O33 C34 1.208 . S
C34 O32 1.247 . S
C34 O33 1.208 . S
C35 O40 1.247 . S
C35 O41 1.208 . S
C36 O28 1.315 . S
C36 O31 1.279 . S
C37 O38 1.315 . S
C37 O39 1.279 . S
O38 Cd30 2.223 . S
O38 C37 1.315 . S
O39 Cd29 2.240 . S
O39 C37 1.279 . S
O40 Cd30 2.297 . S
O40 C35 1.247 . S
O41 Cd30 2.439 . S
O41 C35 1.208 . S
O42 Cd43 2.223 . S
O42 C50 1.315 . S
Cd43 O42 2.223 . S
Cd43 O46 2.297 . S
Cd43 O47 2.439 . S
Cd43 O53 2.240 . S
Cd44 O45 2.240 . S
Cd44 O52 2.223 . S
Cd44 O54 2.297 . S
Cd44 O55 2.439 . S
O45 Cd44 2.240 . S
O45 C50 1.279 . S
O46 Cd43 2.297 . S
O46 C48 1.247 . S
O47 Cd43 2.439 . S
O47 C48 1.208 . S
C48 O46 1.247 . S
C48 O47 1.208 . S
C49 O54 1.247 . S
C49 O55 1.208 . S
C50 O42 1.315 . S
C50 O45 1.279 . S
C51 O52 1.315 . S
C51 O53 1.279 . S
O52 Cd44 2.223 . S
O52 C51 1.315 . S
O53 Cd43 2.240 . S
O53 C51 1.279 . S
O54 Cd44 2.297 . S
O54 C49 1.247 . S
O55 Cd44 2.439 . S
O55 C49 1.208 . S
O56 Cd57 2.223 . S
O56 C64 1.315 . S
Cd57 O56 2.223 . S
Cd57 O60 2.297 1_455 S
Cd57 O61 2.439 1_455 S
Cd57 O67 2.240 . S
Cd58 O59 2.240 . S
Cd58 O66 2.223 . S
Cd58 O68 2.297 . S
Cd58 O69 2.439 . S
O59 Cd58 2.240 . S
O59 C64 1.279 . S
O60 Cd57 2.297 1_655 S
O60 C62 1.247 . S
O61 Cd57 2.439 1_655 S
O61 C62 1.208 . S
C62 O60 1.247 . S
C62 O61 1.208 . S
C63 O68 1.247 . S
C63 O69 1.208 . S
C64 O56 1.315 . S
C64 O59 1.279 . S
C65 O66 1.315 . S
C65 O67 1.279 . S
O66 Cd58 2.223 . S
O66 C65 1.315 . S
O67 Cd57 2.240 . S
O67 C65 1.279 . S
O68 Cd58 2.297 . S
O68 C63 1.247 . S
O69 Cd58 2.439 . S
O69 C63 1.208 . S
O70 Cd71 2.223 . S
O70 C78 1.315 . S
Cd71 O70 2.223 . S
Cd71 O74 2.297 . S
Cd71 O75 2.439 . S
Cd71 O81 2.240 . S
Cd72 O73 2.240 . S
Cd72 O80 2.223 . S
Cd72 O82 2.297 . S
Cd72 O83 2.439 . S
O73 Cd72 2.240 . S
O73 C78 1.279 . S
O74 Cd71 2.297 . S
O74 C76 1.247 . S
O75 Cd71 2.439 . S
O75 C76 1.208 . S
C76 O74 1.247 . S
C76 O75 1.208 . S
C77 O82 1.247 . S
C77 O83 1.208 . S
C78 O70 1.315 . S
C78 O73 1.279 . S
C79 O80 1.315 . S
C79 O81 1.279 . S
O80 Cd72 2.223 . S
O80 C79 1.315 . S
O81 Cd71 2.240 . S
O81 C79 1.279 . S
O82 Cd72 2.297 . S
O82 C77 1.247 . S
O83 Cd72 2.439 . S
O83 C77 1.208 . S
O84 Cd85 2.223 . S
O84 C92 1.315 . S
Cd85 O84 2.223 . S
Cd85 O88 2.297 . S
Cd85 O89 2.439 . S
Cd85 O95 2.240 . S
Cd86 O87 2.240 . S
Cd86 O94 2.223 . S
Cd86 O96 2.297 . S
Cd86 O97 2.439 . S
O87 Cd86 2.240 . S
O87 C92 1.279 . S
O88 Cd85 2.297 . S
O88 C90 1.247 . S
O89 Cd85 2.439 . S
O89 C90 1.208 . S
C90 O88 1.247 . S
C90 O89 1.208 . S
C91 O96 1.247 . S
C91 O97 1.208 . S
C92 O84 1.315 . S
C92 O87 1.279 . S
C93 O94 1.315 . S
C93 O95 1.279 . S
O94 Cd86 2.223 . S
O94 C93 1.315 . S
O95 Cd85 2.240 . S
O95 C93 1.279 . S
O96 Cd86 2.297 . S
O96 C91 1.247 . S
O97 Cd86 2.439 . S
O97 C91 1.208 . S
O98 Cd99 2.223 1_655 S
O98 C106 1.315 . S
Cd99 O98 2.223 1_455 S
Cd99 O102 2.297 . S
Cd99 O103 2.439 . S
Cd99 O109 2.240 1_455 S
Cd100 O101 2.240 1_655 S
Cd100 O108 2.223 . S
Cd100 O110 2.297 . S
Cd100 O111 2.439 1_655 S
O101 Cd100 2.240 1_455 S
O101 C106 1.279 1_455 S
O102 Cd99 2.297 . S
O102 C104 1.247 . S
O103 Cd99 2.439 . S
O103 C104 1.208 . S
C104 O102 1.247 . S
C104 O103 1.208 . S
C105 O110 1.247 1_455 S
C105 O111 1.208 . S
C106 O98 1.315 . S
C106 O101 1.279 1_655 S
C107 O108 1.315 . S
C107 O109 1.279 . S
O108 Cd100 2.223 . S
O108 C107 1.315 . S
O109 Cd99 2.240 1_655 S
O109 C107 1.279 . S
O110 Cd100 2.297 . S
O110 C105 1.247 1_655 S
O111 Cd100 2.439 1_455 S
O111 C105 1.208 . S
O112 Cd113 2.223 . S
O112 C120 1.315 . S
Cd113 O112 2.223 . S
Cd113 O116 2.297 . S
Cd113 O117 2.439 . S
Cd113 O123 2.240 . S
Cd114 O115 2.240 . S
Cd114 O122 2.223 1_545 S
Cd114 O124 2.297 . S
Cd114 O125 2.439 . S
O115 Cd114 2.240 . S
O115 C120 1.279 . S
O116 Cd113 2.297 . S
O116 C118 1.247 . S
O117 Cd113 2.439 . S
O117 C118 1.208 . S
C118 O116 1.247 . S
C118 O117 1.208 . S
C119 O124 1.247 . S
C119 O125 1.208 . S
C120 O112 1.315 . S
C120 O115 1.279 . S
C121 O122 1.315 . S
C121 O123 1.279 1_565 S
O122 Cd114 2.223 1_565 S
O122 C121 1.315 . S
O123 Cd113 2.240 . S
O123 C121 1.279 1_545 S
O124 Cd114 2.297 . S
O124 C119 1.247 . S
O125 Cd114 2.439 . S
O125 C119 1.208 . S
O126 Cd127 2.223 . S
O126 C134 1.315 . S
Cd127 O126 2.223 . S
Cd127 O130 2.297 . S
Cd127 O131 2.439 . S
Cd127 O137 2.240 . S
Cd128 O129 2.240 . S
Cd128 O136 2.223 . S
Cd128 O138 2.297 . S
Cd128 O139 2.439 . S
O129 Cd128 2.240 . S
O129 C134 1.279 . S
O130 Cd127 2.297 . S
O130 C132 1.247 . S
O131 Cd127 2.439 . S
O131 C132 1.208 . S
C132 O130 1.247 . S
C132 O131 1.208 . S
C133 O138 1.247 . S
C133 O139 1.208 . S
C134 O126 1.315 . S
C134 O129 1.279 . S
C135 O136 1.315 . S
C135 O137 1.279 . S
O136 Cd128 2.223 . S
O136 C135 1.315 . S
O137 Cd127 2.240 . S
O137 C135 1.279 . S
O138 Cd128 2.297 . S
O138 C133 1.247 . S
O139 Cd128 2.439 . S
O139 C133 1.208 . S
O140 Cd141 2.223 1_545 S
O140 C148 1.315 1_545 S
Cd141 O140 2.223 1_565 S
Cd141 O144 2.297 . S
Cd141 O145 2.439 . S
Cd141 O151 2.240 1_565 S
Cd142 O143 2.240 1_545 S
Cd142 O150 2.223 . S
Cd142 O152 2.297 . S
Cd142 O153 2.439 1_545 S
O143 Cd142 2.240 1_565 S
O143 C148 1.279 . S
O144 Cd141 2.297 . S
O144 C146 1.247 . S
O145 Cd141 2.439 . S
O145 C146 1.208 . S
C146 O144 1.247 . S
C146 O145 1.208 . S
C147 O152 1.247 . S
C147 O153 1.208 1_545 S
C148 O140 1.315 1_565 S
C148 O143 1.279 . S
C149 O150 1.315 . S
C149 O151 1.279 . S
O150 Cd142 2.223 . S
O150 C149 1.315 . S
O151 Cd141 2.240 1_545 S
O151 C149 1.279 . S
O152 Cd142 2.297 . S
O152 C147 1.247 . S
O153 Cd142 2.439 1_565 S
O153 C147 1.208 1_565 S
O154 Cd155 2.223 . S
O154 C162 1.315 . S
Cd155 O154 2.223 . S
Cd155 O158 2.297 . S
Cd155 O159 2.439 . S
Cd155 O165 2.240 . S
Cd156 O157 2.240 . S
Cd156 O164 2.223 . S
Cd156 O166 2.297 1_554 S
Cd156 O167 2.439 1_554 S
O157 Cd156 2.240 . S
O157 C162 1.279 . S
O158 Cd155 2.297 . S
O158 C160 1.247 . S
O159 Cd155 2.439 . S
O159 C160 1.208 . S
C160 O158 1.247 . S
C160 O159 1.208 . S
C161 O166 1.247 . S
C161 O167 1.208 . S
C162 O154 1.315 . S
C162 O157 1.279 . S
C163 O164 1.315 . S
C163 O165 1.279 . S
O164 Cd156 2.223 . S
O164 C163 1.315 . S
O165 Cd155 2.240 . S
O165 C163 1.279 . S
O166 Cd156 2.297 1_556 S
O166 C161 1.247 . S
O167 Cd156 2.439 1_556 S
O167 C161 1.208 . S
O168 Cd169 2.223 . S
O168 C176 1.315 . S
Cd169 O168 2.223 . S
Cd169 O172 2.297 . S
Cd169 O173 2.439 . S
Cd169 O179 2.240 . S
Cd170 O171 2.240 . S
Cd170 O178 2.223 . S
Cd170 O180 2.297 1_554 S
Cd170 O181 2.439 1_554 S
O171 Cd170 2.240 . S
O171 C176 1.279 . S
O172 Cd169 2.297 . S
O172 C174 1.247 . S
O173 Cd169 2.439 . S
O173 C174 1.208 . S
C174 O172 1.247 . S
C174 O173 1.208 . S
C175 O180 1.247 . S
C175 O181 1.208 . S
C176 O168 1.315 . S
C176 O171 1.279 . S
C177 O178 1.315 . S
C177 O179 1.279 . S
O178 Cd170 2.223 . S
O178 C177 1.315 . S
O179 Cd169 2.240 . S
O179 C177 1.279 . S
O180 Cd170 2.297 1_556 S
O180 C175 1.247 . S
O181 Cd170 2.439 1_556 S
O181 C175 1.208 . S
O182 Cd183 2.223 . S
O182 C190 1.315 . S
Cd183 O182 2.223 . S
Cd183 O186 2.297 . S
Cd183 O187 2.439 1_554 S
Cd183 O193 2.240 1_554 S
Cd184 O185 2.240 1_556 S
Cd184 O192 2.223 1_556 S
Cd184 O194 2.297 . S
Cd184 O195 2.439 . S
O185 Cd184 2.240 1_554 S
O185 C190 1.279 . S
O186 Cd183 2.297 . S
O186 C188 1.247 . S
O187 Cd183 2.439 1_556 S
O187 C188 1.208 1_556 S
C188 O186 1.247 . S
C188 O187 1.208 1_554 S
C189 O194 1.247 . S
C189 O195 1.208 . S
C190 O182 1.315 . S
C190 O185 1.279 . S
C191 O192 1.315 . S
C191 O193 1.281 1_554 S
O192 Cd184 2.223 1_554 S
O192 C191 1.315 . S
O193 Cd183 2.240 1_556 S
O193 C191 1.281 1_556 S
O194 Cd184 2.297 . S
O194 C189 1.247 . S
O195 Cd184 2.439 . S
O195 C189 1.208 . S
O196 Cd197 2.223 . S
O196 C204 1.315 . S
Cd197 O196 2.223 . S
Cd197 O200 2.297 . S
Cd197 O201 2.439 . S
Cd197 O207 2.240 . S
Cd198 O199 2.240 . S
Cd198 O206 2.223 . S
Cd198 O208 2.297 . S
Cd198 O209 2.439 . S
O199 Cd198 2.240 . S
O199 C204 1.279 . S
O200 Cd197 2.297 . S
O200 C202 1.247 . S
O201 Cd197 2.439 . S
O201 C202 1.208 . S
C202 O200 1.247 . S
C202 O201 1.208 . S
C203 O208 1.247 . S
C203 O209 1.208 . S
C204 O196 1.315 . S
C204 O199 1.279 . S
C205 O206 1.315 . S
C205 O207 1.279 . S
O206 Cd198 2.223 . S
O206 C205 1.315 . S
O207 Cd197 2.240 . S
O207 C205 1.279 . S
O208 Cd198 2.297 . S
O208 C203 1.247 . S
O209 Cd198 2.439 . S
O209 C203 1.208 . S
O210 Cd211 2.223 . S
O210 C218 1.315 . S
Cd211 O210 2.223 . S
Cd211 O214 2.297 . S
Cd211 O215 2.439 . S
Cd211 O221 2.240 . S
Cd212 O213 2.240 . S
Cd212 O220 2.223 . S
Cd212 O222 2.297 . S
Cd212 O223 2.439 . S
O213 Cd212 2.240 . S
O213 C218 1.279 . S
O214 Cd211 2.297 . S
O214 C216 1.247 . S
O215 Cd211 2.439 . S
O215 C216 1.208 . S
C216 O214 1.247 . S
C216 O215 1.208 . S
C217 O222 1.247 . S
C217 O223 1.208 . S
C218 O210 1.315 . S
C218 O213 1.279 . S
C219 O220 1.315 . S
C219 O221 1.279 . S
O220 Cd212 2.223 . S
O220 C219 1.315 . S
O221 Cd211 2.240 . S
O221 C219 1.279 . S
O222 Cd212 2.297 . S
O222 C217 1.247 . S
O223 Cd212 2.439 . S
O223 C217 1.208 . S
O224 Cd225 2.223 . S
O224 C232 1.315 . S
Cd225 O224 2.223 . S
Cd225 O228 2.297 . S
Cd225 O229 2.439 . S
Cd225 O235 2.240 . S
Cd226 O227 2.240 . S
Cd226 O234 2.223 . S
Cd226 O236 2.297 . S
Cd226 O237 2.439 . S
O227 Cd226 2.240 . S
O227 C232 1.279 . S
O228 Cd225 2.297 . S
O228 C230 1.247 . S
O229 Cd225 2.439 . S
O229 C230 1.208 . S
C230 O228 1.247 . S
C230 O229 1.208 . S
C231 O236 1.247 . S
C231 O237 1.208 . S
C232 O224 1.315 . S
C232 O227 1.279 . S
C233 O234 1.315 . S
C233 O235 1.279 . S
O234 Cd226 2.223 . S
O234 C233 1.315 . S
O235 Cd225 2.240 . S
O235 C233 1.279 . S
O236 Cd226 2.297 . S
O236 C231 1.247 . S
O237 Cd226 2.439 . S
O237 C231 1.208 . S
O238 Cd239 2.223 . S
O238 C246 1.315 . S
Cd239 O238 2.223 . S
Cd239 O242 2.297 . S
Cd239 O243 2.439 . S
Cd239 O249 2.240 . S
Cd240 O241 2.240 . S
Cd240 O248 2.223 . S
Cd240 O250 2.297 . S
Cd240 O251 2.439 . S
O241 Cd240 2.240 . S
O241 C246 1.279 . S
O242 Cd239 2.297 . S
O242 C244 1.247 . S
O243 Cd239 2.439 . S
O243 C244 1.208 . S
C244 O242 1.247 . S
C244 O243 1.208 . S
C245 O250 1.247 . S
C245 O251 1.208 . S
C246 O238 1.315 . S
C246 O241 1.279 . S
C247 O248 1.315 . S
C247 O249 1.279 . S
O248 Cd240 2.223 . S
O248 C247 1.315 . S
O249 Cd239 2.240 . S
O249 C247 1.279 . S
O250 Cd240 2.297 . S
O250 C245 1.247 . S
O251 Cd240 2.439 . S
O251 C245 1.208 . S
O252 Cd253 2.223 . S
O252 C260 1.315 . S
Cd253 O252 2.223 . S
Cd253 O256 2.297 . S
Cd253 O257 2.439 . S
Cd253 O263 2.240 . S
Cd254 O255 2.240 . S
Cd254 O262 2.223 . S
Cd254 O264 2.297 . S
Cd254 O265 2.439 . S
O255 Cd254 2.240 . S
O255 C260 1.279 . S
O256 Cd253 2.297 . S
O256 C258 1.247 . S
O257 Cd253 2.439 . S
O257 C258 1.208 . S
C258 O256 1.247 . S
C258 O257 1.208 . S
C259 O264 1.247 . S
C259 O265 1.208 . S
C260 O252 1.315 . S
C260 O255 1.279 . S
C261 O262 1.315 . S
C261 O263 1.279 . S
O262 Cd254 2.223 . S
O262 C261 1.315 . S
O263 Cd253 2.240 . S
O263 C261 1.279 . S
O264 Cd254 2.297 . S
O264 C259 1.247 . S
O265 Cd254 2.439 . S
O265 C259 1.208 . S
O266 Cd267 2.223 . S
O266 C274 1.315 . S
Cd267 O266 2.223 . S
Cd267 O270 2.297 1_545 S
Cd267 O271 2.439 1_545 S
Cd267 O277 2.240 . S
Cd268 O269 2.240 . S
Cd268 O276 2.223 . S
Cd268 O278 2.297 . S
Cd268 O279 2.439 . S
O269 Cd268 2.240 . S
O269 C274 1.279 . S
O270 Cd267 2.297 1_565 S
O270 C272 1.247 . S
O271 Cd267 2.439 1_565 S
O271 C272 1.208 . S
C272 O270 1.247 . S
C272 O271 1.208 . S
C273 O278 1.247 . S
C273 O279 1.208 . S
C274 O266 1.315 . S
C274 O269 1.279 . S
C275 O276 1.315 . S
C275 O277 1.279 . S
O276 Cd268 2.223 . S
O276 C275 1.315 . S
O277 Cd267 2.240 . S
O277 C275 1.279 . S
O278 Cd268 2.297 . S
O278 C273 1.247 . S
O279 Cd268 2.439 . S
O279 C273 1.208 . S
O280 Cd281 2.223 . S
O280 C288 1.315 . S
Cd281 O280 2.223 . S
Cd281 O284 2.297 . S
Cd281 O285 2.439 . S
Cd281 O291 2.240 . S
Cd282 O283 2.240 . S
Cd282 O290 2.223 . S
Cd282 O292 2.297 1_554 S
Cd282 O293 2.439 1_554 S
O283 Cd282 2.240 . S
O283 C288 1.279 . S
O284 Cd281 2.297 . S
O284 C286 1.247 . S
O285 Cd281 2.439 . S
O285 C286 1.208 . S
C286 O284 1.247 . S
C286 O285 1.208 . S
C287 O292 1.247 . S
C287 O293 1.208 . S
C288 O280 1.315 . S
C288 O283 1.279 . S
C289 O290 1.315 . S
C289 O291 1.279 . S
O290 Cd282 2.223 . S
O290 C289 1.315 . S
O291 Cd281 2.240 . S
O291 C289 1.279 . S
O292 Cd282 2.297 1_556 S
O292 C287 1.247 . S
O293 Cd282 2.439 1_556 S
O293 C287 1.208 . S
O294 Cd295 2.223 . S
O294 C302 1.315 . S
Cd295 O294 2.223 . S
Cd295 O298 2.297 . S
Cd295 O299 2.439 . S
Cd295 O305 2.240 . S
Cd296 O297 2.240 . S
Cd296 O304 2.223 . S
Cd296 O306 2.297 . S
Cd296 O307 2.439 . S
O297 Cd296 2.240 . S
O297 C302 1.279 . S
O298 Cd295 2.297 . S
O298 C300 1.247 . S
O299 Cd295 2.439 . S
O299 C300 1.208 . S
C300 O298 1.247 . S
C300 O299 1.208 . S
C301 O306 1.247 . S
C301 O307 1.208 . S
C302 O294 1.315 . S
C302 O297 1.279 . S
C303 O304 1.315 . S
C303 O305 1.279 . S
O304 Cd296 2.223 . S
O304 C303 1.315 . S
O305 Cd295 2.240 . S
O305 C303 1.279 . S
O306 Cd296 2.297 . S
O306 C301 1.247 . S
O307 Cd296 2.439 . S
O307 C301 1.208 . S
O308 Cd309 2.223 . S
O308 C316 1.315 . S
Cd309 O308 2.223 . S
Cd309 O312 2.297 . S
Cd309 O313 2.439 . S
Cd309 O319 2.240 . S
Cd310 O311 2.240 . S
Cd310 O318 2.223 . S
Cd310 O320 2.297 . S
Cd310 O321 2.439 . S
O311 Cd310 2.240 . S
O311 C316 1.279 . S
O312 Cd309 2.297 . S
O312 C314 1.247 . S
O313 Cd309 2.439 . S
O313 C314 1.208 . S
C314 O312 1.247 . S
C314 O313 1.208 . S
C315 O320 1.247 . S
C315 O321 1.208 . S
C316 O308 1.315 . S
C316 O311 1.279 . S
C317 O318 1.315 . S
C317 O319 1.279 . S
O318 Cd310 2.223 . S
O318 C317 1.315 . S
O319 Cd309 2.240 . S
O319 C317 1.279 . S
O320 Cd310 2.297 . S
O320 C315 1.247 . S
O321 Cd310 2.439 . S
O321 C315 1.208 . S
O322 Cd323 2.223 . S
O322 C330 1.315 . S
Cd323 O322 2.223 . S
Cd323 O326 2.297 . S
Cd323 O327 2.439 . S
Cd323 O333 2.240 . S
Cd324 O325 2.240 . S
Cd324 O332 2.223 . S
Cd324 O334 2.297 . S
Cd324 O335 2.439 . S
O325 Cd324 2.240 . S
O325 C330 1.279 . S
O326 Cd323 2.297 . S
O326 C328 1.247 . S
O327 Cd323 2.439 . S
O327 C328 1.208 . S
C328 O326 1.247 . S
C328 O327 1.208 . S
C329 O334 1.247 . S
C329 O335 1.208 . S
C330 O322 1.315 . S
C330 O325 1.279 . S
C331 O332 1.315 . S
C331 O333 1.279 . S
O332 Cd324 2.223 . S
O332 C331 1.315 . S
O333 Cd323 2.240 . S
O333 C331 1.279 . S
O334 Cd324 2.297 . S
O334 C329 1.247 . S
O335 Cd324 2.439 . S
O335 C329 1.208 . S
Dy336 O340 2.398 1_554 S
Dy336 O341 2.491 . S
Dy336 O342 2.403 1_554 S
Dy336 O343 2.664 1_654 S
Dy336 O347 2.318 1_654 S
Dy336 O351 2.310 1_655 S
Dy336 O352 2.351 1_545 S
C337 O348 1.185 . S
C337 O349 1.355 . S
C338 O340 1.185 . S
C338 O341 1.355 1_556 S
Dy339 O343 2.310 1_554 S
Dy339 O346 2.351 . S
Dy339 O348 2.398 . S
Dy339 O349 2.491 . S
Dy339 O350 2.403 . S
Dy339 O351 2.664 . S
Dy339 O353 2.326 . S
O340 Dy336 2.398 1_556 S
O340 C338 1.185 . S
O341 Dy336 2.491 . S
O341 C338 1.355 1_554 S
O342 Dy336 2.403 1_556 S
O342 C344 1.254 1_655 S
O343 Dy336 2.664 1_456 S
O343 Dy339 2.310 1_556 S
O343 C344 1.268 . S
C344 O342 1.254 1_455 S
C344 O343 1.268 . S
C345 O350 1.254 . S
C345 O351 1.268 . S
O346 Dy339 2.351 . S
O346 C354 1.249 . S
O347 Dy336 2.318 1_456 S
O347 C354 1.285 1_556 S
O348 C337 1.185 . S
O348 Dy339 2.398 . S
O349 C337 1.355 . S
O349 Dy339 2.491 . S
O350 Dy339 2.403 . S
O350 C345 1.254 . S
O351 Dy336 2.310 1_455 S
O351 Dy339 2.664 . S
O351 C345 1.268 . S
O352 Dy336 2.351 1_565 S
O352 C355 1.249 1_655 S
O353 Dy339 2.326 . S
O353 C355 1.267 1_545 S
C354 O346 1.249 . S
C354 O347 1.285 1_554 S
C355 O352 1.249 1_455 S
C355 O353 1.267 1_565 S
Dy356 O360 2.398 . S
Dy356 O361 2.491 . S
Dy356 O362 2.403 . S
Dy356 O363 2.664 . S
Dy356 O367 2.326 . S
Dy356 O371 2.310 . S
Dy356 O372 2.351 . S
C357 O368 1.185 . S
C357 O369 1.355 . S
C358 O360 1.185 . S
C358 O361 1.355 . S
Dy359 O363 2.310 . S
Dy359 O366 2.351 . S
Dy359 O368 2.398 . S
Dy359 O369 2.491 . S
Dy359 O370 2.403 . S
Dy359 O371 2.664 . S
Dy359 O373 2.326 . S
O360 Dy356 2.398 . S
O360 C358 1.185 . S
O361 Dy356 2.491 . S
O361 C358 1.355 . S
O362 Dy356 2.403 . S
O362 C364 1.254 . S
O363 Dy356 2.664 . S
O363 Dy359 2.310 . S
O363 C364 1.268 . S
C364 O362 1.254 . S
C364 O363 1.268 . S
C365 O370 1.254 . S
C365 O371 1.268 . S
O366 Dy359 2.351 . S
O366 C374 1.249 . S
O367 Dy356 2.326 . S
O367 C374 1.267 . S
O368 C357 1.185 . S
O368 Dy359 2.398 . S
O369 C357 1.355 . S
O369 Dy359 2.491 . S
O370 Dy359 2.403 . S
O370 C365 1.254 . S
O371 Dy356 2.310 . S
O371 Dy359 2.664 . S
O371 C365 1.268 . S
O372 Dy356 2.351 . S
O372 C375 1.249 . S
O373 Dy359 2.326 . S
O373 C375 1.267 . S
C374 O366 1.249 . S
C374 O367 1.267 . S
C375 O372 1.249 . S
C375 O373 1.267 . S
Dy376 O380 2.398 . S
Dy376 O381 2.491 . S
Dy376 O382 2.403 . S
Dy376 O383 2.664 . S
Dy376 O387 2.326 1_545 S
Dy376 O391 2.310 . S
Dy376 O392 2.351 . S
C377 O388 1.185 . S
C377 O389 1.355 . S
C378 O380 1.185 . S
C378 O381 1.355 . S
Dy379 O383 2.310 . S
Dy379 O386 2.351 1_545 S
Dy379 O388 2.398 . S
Dy379 O389 2.491 . S
Dy379 O390 2.403 . S
Dy379 O391 2.664 . S
Dy379 O393 2.326 . S
O380 Dy376 2.398 . S
O380 C378 1.185 . S
O381 Dy376 2.491 . S
O381 C378 1.355 . S
O382 Dy376 2.403 . S
O382 C384 1.254 . S
O383 Dy376 2.664 . S
O383 Dy379 2.310 . S
O383 C384 1.268 . S
C384 O382 1.254 . S
C384 O383 1.268 . S
C385 O390 1.254 . S
C385 O391 1.268 . S
O386 Dy379 2.351 1_565 S
O386 C394 1.249 . S
O387 Dy376 2.326 1_565 S
O387 C394 1.267 . S
O388 C377 1.185 . S
O388 Dy379 2.398 . S
O389 C377 1.355 . S
O389 Dy379 2.491 . S
O390 Dy379 2.403 . S
O390 C385 1.254 . S
O391 Dy376 2.310 . S
O391 Dy379 2.664 . S
O391 C385 1.268 . S
O392 Dy376 2.351 . S
O392 C395 1.249 . S
O393 Dy379 2.326 . S
O393 C395 1.267 . S
C394 O386 1.249 . S
C394 O387 1.267 . S
C395 O392 1.249 . S
C395 O393 1.267 . S
Dy396 O400 2.398 . S
Dy396 O401 2.491 . S
Dy396 O402 2.403 . S
Dy396 O403 2.664 . S
Dy396 O407 2.326 . S
Dy396 O411 2.310 . S
Dy396 O412 2.351 . S
C397 O408 1.185 . S
C397 O409 1.355 . S
C398 O400 1.185 . S
C398 O401 1.355 . S
Dy399 O403 2.310 . S
Dy399 O406 2.351 . S
Dy399 O408 2.398 . S
Dy399 O409 2.491 . S
Dy399 O410 2.403 . S
Dy399 O411 2.664 . S
Dy399 O413 2.326 . S
O400 Dy396 2.398 . S
O400 C398 1.185 . S
O401 Dy396 2.491 . S
O401 C398 1.355 . S
O402 Dy396 2.403 . S
O402 C404 1.254 . S
O403 Dy396 2.664 . S
O403 Dy399 2.310 . S
O403 C404 1.268 . S
C404 O402 1.254 . S
C404 O403 1.268 . S
C405 O410 1.254 . S
C405 O411 1.268 . S
O406 Dy399 2.351 . S
O406 C414 1.249 . S
O407 Dy396 2.326 . S
O407 C414 1.267 . S
O408 C397 1.185 . S
O408 Dy399 2.398 . S
O409 C397 1.355 . S
O409 Dy399 2.491 . S
O410 Dy399 2.403 . S
O410 C405 1.254 . S
O411 Dy396 2.310 . S
O411 Dy399 2.664 . S
O411 C405 1.268 . S
O412 Dy396 2.351 . S
O412 C415 1.249 . S
O413 Dy399 2.326 . S
O413 C415 1.267 . S
C414 O406 1.249 . S
C414 O407 1.267 . S
C415 O412 1.249 . S
C415 O413 1.267 . S
Dy416 O420 2.398 . S
Dy416 O421 2.491 1_455 S
Dy416 O422 2.403 . S
Dy416 O423 2.664 . S
Dy416 O427 2.326 . S
Dy416 O431 2.310 1_455 S
Dy416 O432 2.351 1_545 S
C417 O428 1.185 . S
C417 O429 1.355 . S
C418 O420 1.185 . S
C418 O421 1.355 1_455 S
Dy419 O423 2.310 . S
Dy419 O426 2.351 . S
Dy419 O428 2.398 . S
Dy419 O429 2.491 . S
Dy419 O430 2.403 1_455 S
Dy419 O431 2.664 1_455 S
Dy419 O433 2.326 . S
O420 Dy416 2.398 . S
O420 C418 1.185 . S
O421 Dy416 2.491 1_655 S
O421 C418 1.355 1_655 S
O422 Dy416 2.403 . S
O422 C424 1.254 . S
O423 Dy416 2.664 . S
O423 Dy419 2.310 . S
O423 C424 1.268 . S
C424 O422 1.254 . S
C424 O423 1.268 . S
C425 O430 1.254 . S
C425 O431 1.268 . S
O426 Dy419 2.351 . S
O426 C434 1.249 . S
O427 Dy416 2.326 . S
O427 C434 1.267 . S
O428 C417 1.185 . S
O428 Dy419 2.398 . S
O429 C417 1.355 . S
O429 Dy419 2.491 . S
O430 Dy419 2.403 1_655 S
O430 C425 1.254 . S
O431 Dy416 2.310 1_655 S
O431 Dy419 2.664 1_655 S
O431 C425 1.268 . S
O432 Dy416 2.351 1_565 S
O432 C435 1.249 . S
O433 Dy419 2.326 . S
O433 C435 1.267 1_545 S
C434 O426 1.249 . S
C434 O427 1.267 . S
C435 O432 1.249 . S
C435 O433 1.267 1_565 S
Dy436 O440 2.398 . S
Dy436 O441 2.491 . S
Dy436 O442 2.403 . S
Dy436 O443 2.664 . S
Dy436 O447 2.326 . S
Dy436 O451 2.310 . S
Dy436 O452 2.351 . S
C437 O448 1.185 . S
C437 O449 1.355 . S
C438 O440 1.185 . S
C438 O441 1.355 . S
Dy439 O443 2.310 . S
Dy439 O446 2.351 . S
Dy439 O448 2.398 . S
Dy439 O449 2.491 . S
Dy439 O450 2.403 . S
Dy439 O451 2.664 . S
Dy439 O453 2.326 . S
O440 Dy436 2.398 . S
O440 C438 1.185 . S
O441 Dy436 2.491 . S
O441 C438 1.355 . S
O442 Dy436 2.403 . S
O442 C444 1.254 . S
O443 Dy436 2.664 . S
O443 Dy439 2.310 . S
O443 C444 1.268 . S
C444 O442 1.254 . S
C444 O443 1.268 . S
C445 O450 1.254 . S
C445 O451 1.268 . S
O446 Dy439 2.351 . S
O446 C454 1.249 . S
O447 Dy436 2.326 . S
O447 C454 1.267 . S
O448 C437 1.185 . S
O448 Dy439 2.398 . S
O449 C437 1.355 . S
O449 Dy439 2.491 . S
O450 Dy439 2.403 . S
O450 C445 1.254 . S
O451 Dy436 2.310 . S
O451 Dy439 2.664 . S
O451 C445 1.268 . S
O452 Dy436 2.351 . S
O452 C455 1.249 . S
O453 Dy439 2.326 . S
O453 C455 1.267 . S
C454 O446 1.249 . S
C454 O447 1.267 . S
C455 O452 1.249 . S
C455 O453 1.267 . S
Dy456 O460 2.398 1_545 S
Dy456 O461 2.491 . S
Dy456 O462 2.403 1_545 S
Dy456 O463 2.664 . S
Dy456 O467 2.326 . S
Dy456 O471 2.310 . S
Dy456 O472 2.351 . S
C457 O468 1.185 . S
C457 O469 1.355 . S
C458 O460 1.185 1_545 S
C458 O461 1.355 . S
Dy459 O463 2.310 1_556 S
Dy459 O466 2.351 1_556 S
Dy459 O468 2.398 . S
Dy459 O469 2.491 . S
Dy459 O470 2.403 1_556 S
Dy459 O471 2.664 1_556 S
Dy459 O473 2.326 1_556 S
O460 Dy456 2.398 1_565 S
O460 C458 1.185 1_565 S
O461 Dy456 2.491 . S
O461 C458 1.355 . S
O462 Dy456 2.403 1_565 S
O462 C464 1.254 . S
O463 Dy456 2.664 . S
O463 Dy459 2.310 1_554 S
O463 C464 1.268 1_545 S
C464 O462 1.254 . S
C464 O463 1.268 1_565 S
C465 O470 1.254 . S
C465 O471 1.268 . S
O466 Dy459 2.351 1_554 S
O466 C474 1.249 . S
O467 Dy456 2.326 . S
O467 C474 1.267 . S
O468 C457 1.185 . S
O468 Dy459 2.398 . S
O469 C457 1.355 . S
O469 Dy459 2.491 . S
O470 Dy459 2.403 1_554 S
O470 C465 1.254 . S
O471 Dy456 2.310 . S
O471 Dy459 2.664 1_554 S
O471 C465 1.268 . S
O472 Dy456 2.351 . S
O472 C475 1.249 . S
O473 Dy459 2.326 1_554 S
O473 C475 1.267 . S
C474 O466 1.249 . S
C474 O467 1.267 . S
C475 O472 1.249 . S
C475 O473 1.267 . S
Dy476 O480 2.398 . S
Dy476 O481 2.491 . S
Dy476 O482 2.403 . S
Dy476 O483 2.664 . S
Dy476 O487 2.326 . S
Dy476 O491 2.310 . S
Dy476 O492 2.351 . S
C477 O488 1.185 . S
C477 O489 1.355 . S
C478 O480 1.185 . S
C478 O481 1.355 . S
Dy479 O483 2.310 . S
Dy479 O486 2.351 . S
Dy479 O488 2.398 . S
Dy479 O489 2.491 . S
Dy479 O490 2.403 . S
Dy479 O491 2.664 . S
Dy479 O493 2.326 . S
O480 Dy476 2.398 . S
O480 C478 1.185 . S
O481 Dy476 2.491 . S
O481 C478 1.355 . S
O482 Dy476 2.403 . S
O482 C484 1.254 . S
O483 Dy476 2.664 . S
O483 Dy479 2.310 . S
O483 C484 1.268 . S
C484 O482 1.254 . S
C484 O483 1.268 . S
C485 O490 1.254 . S
C485 O491 1.268 . S
O486 Dy479 2.351 . S
O486 C494 1.249 . S
O487 Dy476 2.326 . S
O487 C494 1.267 . S
O488 C477 1.185 . S
O488 Dy479 2.398 . S
O489 C477 1.355 . S
O489 Dy479 2.491 . S
O490 Dy479 2.403 . S
O490 C485 1.254 . S
O491 Dy476 2.310 . S
O491 Dy479 2.664 . S
O491 C485 1.268 . S
O492 Dy476 2.351 . S
O492 C495 1.249 . S
O493 Dy479 2.326 . S
O493 C495 1.267 . S
C494 O486 1.249 . S
C494 O487 1.267 . S
C495 O492 1.249 . S
C495 O493 1.267 . S
Dy496 O500 2.398 . S
Dy496 O501 2.491 . S
Dy496 O502 2.403 . S
Dy496 O503 2.664 1_556 S
Dy496 O507 2.326 . S
Dy496 O511 2.310 1_556 S
Dy496 O512 2.351 1_556 S
C497 O508 1.185 . S
C497 O509 1.355 . S
C498 O500 1.185 . S
C498 O501 1.355 . S
Dy499 O503 2.310 . S
Dy499 O506 2.351 . S
Dy499 O508 2.398 . S
Dy499 O509 2.491 . S
Dy499 O510 2.403 . S
Dy499 O511 2.664 . S
Dy499 O513 2.326 . S
O500 Dy496 2.398 . S
O500 C498 1.185 . S
O501 Dy496 2.491 . S
O501 C498 1.355 . S
O502 Dy496 2.403 . S
O502 C504 1.254 1_556 S
O503 Dy496 2.664 1_554 S
O503 Dy499 2.310 . S
O503 C504 1.268 . S
C504 O502 1.254 1_554 S
C504 O503 1.268 . S
C505 O510 1.254 . S
C505 O511 1.268 . S
O506 Dy499 2.351 . S
O506 C514 1.249 . S
O507 Dy496 2.326 . S
O507 C514 1.267 1_556 S
O508 C497 1.185 . S
O508 Dy499 2.398 . S
O509 C497 1.355 . S
O509 Dy499 2.491 . S
O510 Dy499 2.403 . S
O510 C505 1.254 . S
O511 Dy496 2.310 1_554 S
O511 Dy499 2.664 . S
O511 C505 1.268 . S
O512 Dy496 2.351 1_554 S
O512 C515 1.249 . S
O513 Dy499 2.326 . S
O513 C515 1.267 . S
C514 O506 1.249 . S
C514 O507 1.267 1_554 S
C515 O512 1.249 . S
C515 O513 1.267 . S
Dy516 O520 2.398 . S
Dy516 O521 2.491 . S
Dy516 O522 2.403 . S
Dy516 O523 2.664 . S
Dy516 O527 2.326 . S
Dy516 O531 2.310 . S
Dy516 O532 2.351 . S
C517 O528 1.185 . S
C517 O529 1.355 . S
C518 O520 1.185 . S
C518 O521 1.355 . S
Dy519 O523 2.310 . S
Dy519 O526 2.351 . S
Dy519 O528 2.398 . S
Dy519 O529 2.491 . S
Dy519 O530 2.403 . S
Dy519 O531 2.664 . S
Dy519 O533 2.326 . S
O520 Dy516 2.398 . S
O520 C518 1.185 . S
O521 Dy516 2.491 . S
O521 C518 1.355 . S
O522 Dy516 2.403 . S
O522 C524 1.254 . S
O523 Dy516 2.664 . S
O523 Dy519 2.310 . S
O523 C524 1.268 . S
C524 O522 1.254 . S
C524 O523 1.268 . S
C525 O530 1.254 . S
C525 O531 1.268 . S
O526 Dy519 2.351 . S
O526 C534 1.249 . S
O527 Dy516 2.326 . S
O527 C534 1.267 . S
O528 C517 1.185 . S
O528 Dy519 2.398 . S
O529 C517 1.355 . S
O529 Dy519 2.491 . S
O530 Dy519 2.403 . S
O530 C525 1.254 . S
O531 Dy516 2.310 . S
O531 Dy519 2.664 . S
O531 C525 1.268 . S
O532 Dy516 2.351 . S
O532 C535 1.249 . S
O533 Dy519 2.326 . S
O533 C535 1.267 . S
C534 O526 1.249 . S
C534 O527 1.267 . S
C535 O532 1.249 . S
C535 O533 1.267 . S
Dy536 O540 2.398 1_455 S
Dy536 O541 2.491 1_455 S
Dy536 O542 2.403 . S
Dy536 O543 2.664 . S
Dy536 O547 2.326 1_455 S
Dy536 O551 2.310 . S
Dy536 O552 2.351 . S
C537 O548 1.185 . S
C537 O549 1.355 . S
C538 O540 1.185 . S
C538 O541 1.355 . S
Dy539 O543 2.310 . S
Dy539 O546 2.351 1_455 S
Dy539 O548 2.398 . S
Dy539 O549 2.491 . S
Dy539 O550 2.403 . S
Dy539 O551 2.664 . S
Dy539 O553 2.326 . S
O540 Dy536 2.398 1_655 S
O540 C538 1.185 . S
O541 Dy536 2.491 1_655 S
O541 C538 1.355 . S
O542 Dy536 2.403 . S
O542 C544 1.254 . S
O543 Dy536 2.664 . S
O543 Dy539 2.310 . S
O543 C544 1.268 . S
C544 O542 1.254 . S
C544 O543 1.268 . S
C545 O550 1.254 . S
C545 O551 1.268 . S
O546 Dy539 2.351 1_655 S
O546 C554 1.249 . S
O547 Dy536 2.326 1_655 S
O547 C554 1.267 . S
O548 C537 1.185 . S
O548 Dy539 2.398 . S
O549 C537 1.355 . S
O549 Dy539 2.491 . S
O550 Dy539 2.403 . S
O550 C545 1.254 . S
O551 Dy536 2.310 . S
O551 Dy539 2.664 . S
O551 C545 1.268 . S
O552 Dy536 2.351 . S
O552 C555 1.249 . S
O553 Dy539 2.326 . S
O553 C555 1.267 . S
C554 O546 1.249 . S
C554 O547 1.267 . S
C555 O552 1.249 . S
C555 O553 1.267 . S
Dy556 O560 2.398 . S
Dy556 O561 2.491 . S
Dy556 O562 2.403 . S
Dy556 O563 2.664 . S
Dy556 O567 2.326 . S
Dy556 O571 2.310 . S
Dy556 O572 2.351 . S
C557 O568 1.185 . S
C557 O569 1.355 . S
C558 O560 1.185 . S
C558 O561 1.355 . S
Dy559 O563 2.310 . S
Dy559 O566 2.351 . S
Dy559 O568 2.398 . S
Dy559 O569 2.491 . S
Dy559 O570 2.403 . S
Dy559 O571 2.664 . S
Dy559 O573 2.326 . S
O560 Dy556 2.398 . S
O560 C558 1.185 . S
O561 Dy556 2.491 . S
O561 C558 1.355 . S
O562 Dy556 2.403 . S
O562 C564 1.254 . S
O563 Dy556 2.664 . S
O563 Dy559 2.310 . S
O563 C564 1.268 . S
C564 O562 1.254 . S
C564 O563 1.268 . S
C565 O570 1.254 . S
C565 O571 1.268 . S
O566 Dy559 2.351 . S
O566 C574 1.249 . S
O567 Dy556 2.326 . S
O567 C574 1.267 . S
O568 C557 1.185 . S
O568 Dy559 2.398 . S
O569 C557 1.355 . S
O569 Dy559 2.491 . S
O570 Dy559 2.403 . S
O570 C565 1.254 . S
O571 Dy556 2.310 . S
O571 Dy559 2.664 . S
O571 C565 1.268 . S
O572 Dy556 2.351 . S
O572 C575 1.249 . S
O573 Dy559 2.326 . S
O573 C575 1.267 . S
C574 O566 1.249 . S
C574 O567 1.267 . S
C575 O572 1.249 . S
C575 O573 1.267 . S
Dy576 O580 2.398 . S
Dy576 O581 2.491 . S
Dy576 O582 2.403 . S
Dy576 O583 2.664 . S
Dy576 O587 2.326 . S
Dy576 O591 2.310 . S
Dy576 O592 2.351 . S
C577 O588 1.185 . S
C577 O589 1.355 . S
C578 O580 1.185 . S
C578 O581 1.355 . S
Dy579 O583 2.310 . S
Dy579 O586 2.351 . S
Dy579 O588 2.398 . S
Dy579 O589 2.491 . S
Dy579 O590 2.403 . S
Dy579 O591 2.664 . S
Dy579 O593 2.326 . S
O580 Dy576 2.398 . S
O580 C578 1.185 . S
O581 Dy576 2.491 . S
O581 C578 1.355 . S
O582 Dy576 2.403 . S
O582 C584 1.254 . S
O583 Dy576 2.664 . S
O583 Dy579 2.310 . S
O583 C584 1.268 . S
C584 O582 1.254 . S
C584 O583 1.268 . S
C585 O590 1.254 . S
C585 O591 1.268 . S
O586 Dy579 2.351 . S
O586 C594 1.249 . S
O587 Dy576 2.326 . S
O587 C594 1.267 . S
O588 C577 1.185 . S
O588 Dy579 2.398 . S
O589 C577 1.355 . S
O589 Dy579 2.491 . S
O590 Dy579 2.403 . S
O590 C585 1.254 . S
O591 Dy576 2.310 . S
O591 Dy579 2.664 . S
O591 C585 1.268 . S
O592 Dy576 2.351 . S
O592 C595 1.249 . S
O593 Dy579 2.326 . S
O593 C595 1.267 . S
C594 O586 1.249 . S
C594 O587 1.267 . S
C595 O592 1.249 . S
C595 O593 1.267 . S
Dy596 O600 2.398 . S
Dy596 O601 2.491 . S
Dy596 O602 2.403 . S
Dy596 O603 2.664 . S
Dy596 O607 2.326 . S
Dy596 O611 2.310 . S
Dy596 O612 2.351 . S
C597 O608 1.185 . S
C597 O609 1.355 . S
C598 O600 1.185 . S
C598 O601 1.355 . S
Dy599 O603 2.310 . S
Dy599 O606 2.351 . S
Dy599 O608 2.398 . S
Dy599 O609 2.491 . S
Dy599 O610 2.403 . S
Dy599 O611 2.664 . S
Dy599 O613 2.326 . S
O600 Dy596 2.398 . S
O600 C598 1.185 . S
O601 Dy596 2.491 . S
O601 C598 1.355 . S
O602 Dy596 2.403 . S
O602 C604 1.254 . S
O603 Dy596 2.664 . S
O603 Dy599 2.310 . S
O603 C604 1.268 . S
C604 O602 1.254 . S
C604 O603 1.268 . S
C605 O610 1.254 . S
C605 O611 1.268 . S
O606 Dy599 2.351 . S
O606 C614 1.249 . S
O607 Dy596 2.326 . S
O607 C614 1.267 . S
O608 C597 1.185 . S
O608 Dy599 2.398 . S
O609 C597 1.355 . S
O609 Dy599 2.491 . S
O610 Dy599 2.403 . S
O610 C605 1.254 . S
O611 Dy596 2.310 . S
O611 Dy599 2.664 . S
O611 C605 1.268 . S
O612 Dy596 2.351 . S
O612 C615 1.249 . S
O613 Dy599 2.326 . S
O613 C615 1.267 . S
C614 O606 1.249 . S
C614 O607 1.267 . S
C615 O612 1.249 . S
C615 O613 1.267 . S
Dy616 O620 2.398 . S
Dy616 O621 2.491 . S
Dy616 O622 2.403 . S
Dy616 O623 2.664 . S
Dy616 O627 2.326 . S
Dy616 O631 2.310 . S
Dy616 O632 2.351 . S
C617 O628 1.185 . S
C617 O629 1.355 . S
C618 O620 1.185 . S
C618 O621 1.355 . S
Dy619 O623 2.310 . S
Dy619 O626 2.351 . S
Dy619 O628 2.398 . S
Dy619 O629 2.491 . S
Dy619 O630 2.403 . S
Dy619 O631 2.664 . S
Dy619 O633 2.326 . S
O620 Dy616 2.398 . S
O620 C618 1.185 . S
O621 Dy616 2.491 . S
O621 C618 1.355 . S
O622 Dy616 2.403 . S
O622 C624 1.254 . S
O623 Dy616 2.664 . S
O623 Dy619 2.310 . S
O623 C624 1.268 . S
C624 O622 1.254 . S
C624 O623 1.268 . S
C625 O630 1.254 . S
C625 O631 1.268 . S
O626 Dy619 2.351 . S
O626 C634 1.249 . S
O627 Dy616 2.326 . S
O627 C634 1.267 . S
O628 C617 1.185 . S
O628 Dy619 2.398 . S
O629 C617 1.355 . S
O629 Dy619 2.491 . S
O630 Dy619 2.403 . S
O630 C625 1.254 . S
O631 Dy616 2.310 . S
O631 Dy619 2.664 . S
O631 C625 1.268 . S
O632 Dy616 2.351 . S
O632 C635 1.249 . S
O633 Dy619 2.326 . S
O633 C635 1.267 . S
C634 O626 1.249 . S
C634 O627 1.267 . S
C635 O632 1.249 . S
C635 O633 1.267 . S
Dy636 O640 2.398 . S
Dy636 O641 2.491 . S
Dy636 O642 2.403 1_554 S
Dy636 O643 2.664 . S
Dy636 O647 2.326 . S
Dy636 O651 2.310 . S
Dy636 O652 2.351 . S
C637 O648 1.185 . S
C637 O649 1.355 . S
C638 O640 1.185 . S
C638 O641 1.355 . S
Dy639 O643 2.310 1_655 S
Dy639 O646 2.351 . S
Dy639 O648 2.398 . S
Dy639 O649 2.491 . S
Dy639 O650 2.403 . S
Dy639 O651 2.664 1_655 S
Dy639 O653 2.326 1_655 S
O640 Dy636 2.398 . S
O640 C638 1.185 . S
O641 Dy636 2.491 . S
O641 C638 1.355 . S
O642 Dy636 2.403 1_556 S
O642 C644 1.254 . S
O643 Dy636 2.664 . S
O643 Dy639 2.310 1_455 S
O643 C644 1.268 1_554 S
C644 O642 1.254 . S
C644 O643 1.268 1_556 S
C645 O650 1.254 1_455 S
C645 O651 1.268 . S
O646 Dy639 2.351 . S
O646 C654 1.249 1_655 S
O647 Dy636 2.326 . S
O647 C654 1.267 . S
O648 C637 1.185 . S
O648 Dy639 2.398 . S
O649 C637 1.355 . S
O649 Dy639 2.491 . S
O650 Dy639 2.403 . S
O650 C645 1.254 1_655 S
O651 Dy636 2.310 . S
O651 Dy639 2.664 1_455 S
O651 C645 1.268 . S
O652 Dy636 2.351 . S
O652 C655 1.249 . S
O653 Dy639 2.326 1_455 S
O653 C655 1.267 . S
C654 O646 1.249 1_455 S
C654 O647 1.267 . S
C655 O652 1.249 . S
C655 O653 1.267 . S
C656 C657 1.391 . S
C656 C658 1.394 . S
C656 H672 0.931 . S
C657 C656 1.391 . S
C657 C661 1.376 1_655 S
C658 C656 1.394 . S
C658 C659 1.369 1_655 S
C658 C662 1.531 . S
C659 C658 1.369 1_455 S
C659 C660 1.410 . S
C659 C667 1.503 . S
C660 C659 1.410 . S
C660 C661 1.392 . S
C660 C663 1.511 . S
C661 C657 1.376 1_455 S
C661 C660 1.392 . S
C661 H673 0.929 . S
C662 C658 1.531 . S
C662 H674 0.960 . S
C662 H675 0.962 . S
C662 H676 0.960 . S
C663 C660 1.511 . S
C663 H677 0.961 . S
C663 H678 0.961 . S
C663 H679 0.961 . S
C664 C665 1.370 1_554 S
C664 C666 1.363 1_554 S
C664 H680 0.931 . S
C665 C664 1.370 1_556 S
C665 C669 1.408 . S
C666 C664 1.363 1_556 S
C666 C667 1.370 . S
C666 C670 1.524 1_455 S
C667 C659 1.503 . S
C667 C666 1.370 . S
C667 C668 1.403 . S
C668 C667 1.403 . S
C668 C669 1.404 . S
C668 C671 1.539 . S
C669 C665 1.408 . S
C669 C668 1.404 . S
C669 H681 0.930 . S
C670 C666 1.524 1_655 S
C670 H682 0.956 . S
C670 H683 0.961 1_655 S
C670 H684 0.961 1_556 S
C671 C668 1.539 . S
C671 H685 0.958 . S
C671 H686 0.961 . S
C671 H687 0.960 . S
H672 C656 0.931 . S
H673 C661 0.929 . S
H674 C662 0.960 . S
H675 C662 0.962 . S
H676 C662 0.960 . S
H677 C663 0.961 . S
H678 C663 0.961 . S
H679 C663 0.961 . S
H680 C664 0.931 . S
H681 C669 0.930 . S
H682 C670 0.956 . S
H683 C670 0.961 1_455 S
H684 C670 0.961 1_554 S
H685 C671 0.958 . S
H686 C671 0.961 . S
H687 C671 0.960 . S
C688 C689 1.391 . S
C688 C690 1.394 . S
C688 H704 0.931 . S
C689 C688 1.391 . S
C689 C693 1.376 . S
C690 C688 1.394 . S
C690 C691 1.369 . S
C690 C694 1.531 . S
C691 C690 1.369 . S
C691 C692 1.410 . S
C691 C699 1.503 . S
C692 C691 1.410 . S
C692 C693 1.392 . S
C692 C695 1.511 . S
C693 C689 1.376 . S
C693 C692 1.392 . S
C693 H705 0.929 . S
C694 C690 1.531 . S
C694 H706 0.960 . S
C694 H707 0.962 . S
C694 H708 0.960 . S
C695 C692 1.511 . S
C695 H709 0.961 . S
C695 H710 0.961 . S
C695 H711 0.961 . S
C696 C697 1.370 . S
C696 C698 1.363 . S
C696 H712 0.931 . S
C697 C696 1.370 . S
C697 C701 1.408 . S
C698 C696 1.363 . S
C698 C699 1.370 . S
C698 C702 1.524 . S
C699 C691 1.503 . S
C699 C698 1.370 . S
C699 C700 1.403 . S
C700 C699 1.403 . S
C700 C701 1.404 . S
C700 C703 1.539 . S
C701 C697 1.408 . S
C701 C700 1.404 . S
C701 H713 0.930 . S
C702 C698 1.524 . S
C702 H714 0.956 . S
C702 H715 0.961 . S
C702 H716 0.961 . S
C703 C700 1.539 . S
C703 H717 0.958 . S
C703 H718 0.961 . S
C703 H719 0.960 . S
H704 C688 0.931 . S
H705 C693 0.929 . S
H706 C694 0.960 . S
H707 C694 0.962 . S
H708 C694 0.960 . S
H709 C695 0.961 . S
H710 C695 0.961 . S
H711 C695 0.961 . S
H712 C696 0.931 . S
H713 C701 0.930 . S
H714 C702 0.956 . S
H715 C702 0.961 . S
H716 C702 0.961 . S
H717 C703 0.958 . S
H718 C703 0.961 . S
H719 C703 0.960 . S
C720 C721 1.391 . S
C720 C722 1.394 . S
C720 H736 0.931 . S
C721 C720 1.391 . S
C721 C725 1.376 . S
C722 C720 1.394 . S
C722 C723 1.369 . S
C722 C726 1.531 . S
C723 C722 1.369 . S
C723 C724 1.410 . S
C723 C731 1.503 . S
C724 C723 1.410 . S
C724 C725 1.392 . S
C724 C727 1.511 . S
C725 C721 1.376 . S
C725 C724 1.392 . S
C725 H737 0.929 . S
C726 C722 1.531 . S
C726 H738 0.960 . S
C726 H739 0.962 . S
C726 H740 0.960 . S
C727 C724 1.511 . S
C727 H741 0.961 . S
C727 H742 0.961 . S
C727 H743 0.961 . S
C728 C729 1.370 . S
C728 C730 1.363 . S
C728 H744 0.931 . S
C729 C728 1.370 . S
C729 C733 1.408 . S
C730 C728 1.363 . S
C730 C731 1.370 . S
C730 C734 1.524 . S
C731 C723 1.503 . S
C731 C730 1.370 . S
C731 C732 1.403 . S
C732 C731 1.403 . S
C732 C733 1.404 . S
C732 C735 1.539 . S
C733 C729 1.408 . S
C733 C732 1.404 . S
C733 H745 0.930 . S
C734 C730 1.524 . S
C734 H746 0.956 . S
C734 H747 0.961 . S
C734 H748 0.961 . S
C735 C732 1.539 . S
C735 H749 0.958 . S
C735 H750 0.961 . S
C735 H751 0.960 . S
H736 C720 0.931 . S
H737 C725 0.929 . S
H738 C726 0.960 . S
H739 C726 0.962 . S
H740 C726 0.960 . S
H741 C727 0.961 . S
H742 C727 0.961 . S
H743 C727 0.961 . S
H744 C728 0.931 . S
H745 C733 0.930 . S
H746 C734 0.956 . S
H747 C734 0.961 . S
H748 C734 0.961 . S
H749 C735 0.958 . S
H750 C735 0.961 . S
H751 C735 0.960 . S
C752 C753 1.391 . S
C752 C754 1.394 . S
C752 H768 0.931 . S
C753 C752 1.391 . S
C753 C757 1.376 . S
C754 C752 1.394 . S
C754 C755 1.369 . S
C754 C758 1.531 . S
C755 C754 1.369 . S
C755 C756 1.410 . S
C755 C763 1.503 . S
C756 C755 1.410 . S
C756 C757 1.392 . S
C756 C759 1.511 . S
C757 C753 1.376 . S
C757 C756 1.392 . S
C757 H769 0.929 . S
C758 C754 1.531 . S
C758 H770 0.960 . S
C758 H771 0.962 . S
C758 H772 0.960 . S
C759 C756 1.511 . S
C759 H773 0.961 . S
C759 H774 0.961 . S
C759 H775 0.961 . S
C760 C761 1.370 . S
C760 C762 1.363 . S
C760 H776 0.931 . S
C761 C760 1.370 . S
C761 C765 1.408 . S
C762 C760 1.363 . S
C762 C763 1.370 . S
C762 C766 1.524 . S
C763 C755 1.503 . S
C763 C762 1.370 . S
C763 C764 1.403 . S
C764 C763 1.403 . S
C764 C765 1.404 . S
C764 C767 1.539 . S
C765 C761 1.408 . S
C765 C764 1.404 . S
C765 H777 0.930 . S
C766 C762 1.524 . S
C766 H778 0.956 . S
C766 H779 0.961 . S
C766 H780 0.961 . S
C767 C764 1.539 . S
C767 H781 0.958 . S
C767 H782 0.961 . S
C767 H783 0.960 . S
H768 C752 0.931 . S
H769 C757 0.929 . S
H770 C758 0.960 . S
H771 C758 0.962 . S
H772 C758 0.960 . S
H773 C759 0.961 . S
H774 C759 0.961 . S
H775 C759 0.961 . S
H776 C760 0.931 . S
H777 C765 0.930 . S
H778 C766 0.956 . S
H779 C766 0.961 . S
H780 C766 0.961 . S
H781 C767 0.958 . S
H782 C767 0.961 . S
H783 C767 0.960 . S
C784 C785 1.391 . S
C784 C786 1.394 . S
C784 H800 0.931 . S
C785 C784 1.391 . S
C785 C789 1.376 . S
C786 C784 1.394 . S
C786 C787 1.369 . S
C786 C790 1.531 . S
C787 C786 1.369 . S
C787 C788 1.410 . S
C787 C795 1.503 . S
C788 C787 1.410 . S
C788 C789 1.392 . S
C788 C791 1.511 1_455 S
C789 C785 1.376 . S
C789 C788 1.392 . S
C789 H801 0.929 1_455 S
C790 C786 1.531 . S
C790 H802 0.960 . S
C790 H803 0.962 . S
C790 H804 0.960 . S
C791 C788 1.511 1_655 S
C791 H805 0.961 . S
C791 H806 0.961 . S
C791 H807 0.961 . S
C792 C793 1.370 . S
C792 C794 1.363 . S
C792 H808 0.931 . S
C793 C792 1.370 . S
C793 C797 1.408 . S
C794 C792 1.363 . S
C794 C795 1.370 . S
C794 C798 1.524 . S
C795 C787 1.503 . S
C795 C794 1.370 . S
C795 C796 1.403 . S
C796 C795 1.403 . S
C796 C797 1.404 . S
C796 C799 1.539 1_455 S
C797 C793 1.408 . S
C797 C796 1.404 . S
C797 H809 0.930 . S
C798 C794 1.524 . S
C798 H810 0.956 . S
C798 H811 0.961 . S
C798 H812 0.961 . S
C799 C796 1.539 1_655 S
C799 H813 0.978 . S
C799 H814 0.961 . S
C799 H815 0.960 . S
H800 C784 0.931 . S
H801 C789 0.929 1_655 S
H802 C790 0.960 . S
H803 C790 0.962 . S
H804 C790 0.960 . S
H805 C791 0.961 . S
H806 C791 0.961 . S
H807 C791 0.961 . S
H808 C792 0.931 . S
H809 C797 0.930 . S
H810 C798 0.956 . S
H811 C798 0.961 . S
H812 C798 0.961 . S
H813 C799 0.978 . S
H814 C799 0.961 . S
H815 C799 0.960 . S
C816 C817 1.391 . S
C816 C818 1.394 . S
C816 H832 0.931 . S
C817 C816 1.391 . S
C817 C821 1.376 . S
C818 C816 1.394 . S
C818 C819 1.369 . S
C818 C822 1.531 . S
C819 C818 1.369 . S
C819 C820 1.410 . S
C819 C827 1.503 . S
C820 C819 1.410 . S
C820 C821 1.392 . S
C820 C823 1.511 . S
C821 C817 1.376 . S
C821 C820 1.392 . S
C821 H833 0.929 . S
C822 C818 1.531 . S
C822 H834 0.960 . S
C822 H835 0.962 . S
C822 H836 0.960 . S
C823 C820 1.511 . S
C823 H837 0.961 . S
C823 H838 0.961 . S
C823 H839 0.961 . S
C824 C825 1.370 . S
C824 C826 1.363 . S
C824 H840 0.931 . S
C825 C824 1.370 . S
C825 C829 1.408 . S
C826 C824 1.363 . S
C826 C827 1.370 . S
C826 C830 1.524 . S
C827 C819 1.503 . S
C827 C826 1.370 . S
C827 C828 1.403 . S
C828 C827 1.403 . S
C828 C829 1.404 . S
C828 C831 1.539 . S
C829 C825 1.408 . S
C829 C828 1.404 . S
C829 H841 0.930 . S
C830 C826 1.524 . S
C830 H842 0.956 . S
C830 H843 0.961 . S
C830 H844 0.961 . S
C831 C828 1.539 . S
C831 H845 0.958 . S
C831 H846 0.961 . S
C831 H847 0.960 . S
H832 C816 0.931 . S
H833 C821 0.929 . S
H834 C822 0.960 . S
H835 C822 0.962 . S
H836 C822 0.960 . S
H837 C823 0.961 . S
H838 C823 0.961 . S
H839 C823 0.961 . S
H840 C824 0.931 . S
H841 C829 0.930 . S
H842 C830 0.956 . S
H843 C830 0.961 . S
H844 C830 0.961 . S
H845 C831 0.958 . S
H846 C831 0.961 . S
H847 C831 0.960 . S
C848 C849 1.391 . S
C848 C850 1.394 . S
C848 H864 0.931 . S
C849 C848 1.391 . S
C849 C853 1.376 . S
C850 C848 1.394 . S
C850 C851 1.369 . S
C850 C854 1.531 . S
C851 C850 1.369 . S
C851 C852 1.410 . S
C851 C859 1.503 . S
C852 C851 1.410 . S
C852 C853 1.392 . S
C852 C855 1.511 . S
C853 C849 1.376 . S
C853 C852 1.392 . S
C853 H865 0.929 . S
C854 C850 1.531 . S
C854 H866 0.960 . S
C854 H867 0.962 . S
C854 H868 0.960 . S
C855 C852 1.511 . S
C855 H869 0.961 . S
C855 H870 0.961 . S
C855 H871 0.961 . S
C856 C857 1.370 . S
C856 C858 1.363 . S
C856 H872 0.931 . S
C857 C856 1.370 . S
C857 C861 1.408 . S
C858 C856 1.363 . S
C858 C859 1.370 . S
C858 C862 1.524 . S
C859 C851 1.503 . S
C859 C858 1.370 . S
C859 C860 1.403 . S
C860 C859 1.403 . S
C860 C861 1.404 . S
C860 C863 1.539 . S
C861 C857 1.408 . S
C861 C860 1.404 . S
C861 H873 0.930 . S
C862 C858 1.524 . S
C862 H874 0.956 . S
C862 H875 0.961 . S
C862 H876 0.961 . S
C863 C860 1.539 . S
C863 H877 0.958 . S
C863 H878 0.961 . S
C863 H879 0.960 . S
H864 C848 0.931 . S
H865 C853 0.929 . S
H866 C854 0.960 . S
H867 C854 0.962 . S
H868 C854 0.960 . S
H869 C855 0.961 . S
H870 C855 0.961 . S
H871 C855 0.961 . S
H872 C856 0.931 . S
H873 C861 0.930 . S
H874 C862 0.956 . S
H875 C862 0.961 . S
H876 C862 0.961 . S
H877 C863 0.958 . S
H878 C863 0.961 . S
H879 C863 0.960 . S
C880 C881 1.391 . S
C880 C882 1.394 . S
C880 H896 0.931 . S
C881 C880 1.391 . S
C881 C885 1.376 . S
C882 C880 1.394 . S
C882 C883 1.369 . S
C882 C886 1.531 . S
C883 C882 1.369 . S
C883 C884 1.410 . S
C883 C891 1.503 . S
C884 C883 1.410 . S
C884 C885 1.392 . S
C884 C887 1.511 . S
C885 C881 1.376 . S
C885 C884 1.392 . S
C885 H897 0.929 . S
C886 C882 1.531 . S
C886 H898 0.960 . S
C886 H899 0.962 . S
C886 H900 0.960 . S
C887 C884 1.511 . S
C887 H901 0.961 . S
C887 H902 0.961 . S
C887 H903 0.961 . S
C888 C889 1.370 . S
C888 C890 1.363 . S
C888 H904 0.931 . S
C889 C888 1.370 . S
C889 C893 1.408 . S
C890 C888 1.363 . S
C890 C891 1.370 . S
C890 C894 1.524 . S
C891 C883 1.503 . S
C891 C890 1.370 . S
C891 C892 1.403 . S
C892 C891 1.403 . S
C892 C893 1.404 . S
C892 C895 1.539 . S
C893 C889 1.408 . S
C893 C892 1.404 . S
C893 H905 0.930 . S
C894 C890 1.524 . S
C894 H906 0.956 . S
C894 H907 0.961 . S
C894 H908 0.961 . S
C895 C892 1.539 . S
C895 H909 0.958 . S
C895 H910 0.961 . S
C895 H911 0.960 . S
H896 C880 0.931 . S
H897 C885 0.929 . S
H898 C886 0.960 . S
H899 C886 0.962 . S
H900 C886 0.960 . S
H901 C887 0.961 . S
H902 C887 0.961 . S
H903 C887 0.961 . S
H904 C888 0.931 . S
H905 C893 0.930 . S
H906 C894 0.956 . S
H907 C894 0.961 . S
H908 C894 0.961 . S
H909 C895 0.958 . S
H910 C895 0.961 . S
H911 C895 0.960 . S
C912 C913 1.391 . S
C912 C914 1.394 . S
C912 H928 0.931 . S
C913 C912 1.391 . S
C913 C917 1.376 . S
C914 C912 1.394 . S
C914 C915 1.369 . S
C914 C918 1.531 . S
C915 C914 1.369 . S
C915 C916 1.410 . S
C915 C923 1.503 . S
C916 C915 1.410 . S
C916 C917 1.392 . S
C916 C919 1.511 . S
C917 C913 1.376 . S
C917 C916 1.392 . S
C917 H929 0.929 . S
C918 C914 1.531 . S
C918 H930 0.960 . S
C918 H931 0.962 . S
C918 H932 0.960 . S
C919 C916 1.511 . S
C919 H933 0.961 . S
C919 H934 0.961 . S
C919 H935 0.961 . S
C920 C921 1.370 . S
C920 C922 1.363 . S
C920 H936 0.931 . S
C921 C920 1.370 . S
C921 C925 1.408 . S
C922 C920 1.363 . S
C922 C923 1.370 . S
C922 C926 1.524 . S
C923 C915 1.503 . S
C923 C922 1.370 . S
C923 C924 1.403 . S
C924 C923 1.403 . S
C924 C925 1.404 . S
C924 C927 1.539 . S
C925 C921 1.408 . S
C925 C924 1.404 . S
C925 H937 0.930 1_655 S
C926 C922 1.524 . S
C926 H938 0.956 . S
C926 H939 0.961 . S
C926 H940 0.961 1_545 S
C927 C924 1.539 . S
C927 H941 0.958 . S
C927 H942 0.973 . S
C927 H943 0.960 . S
H928 C912 0.931 . S
H929 C917 0.929 . S
H930 C918 0.960 . S
H931 C918 0.962 . S
H932 C918 0.960 . S
H933 C919 0.961 . S
H934 C919 0.961 . S
H935 C919 0.961 . S
H936 C920 0.931 . S
H937 C925 0.930 1_455 S
H938 C926 0.956 . S
H939 C926 0.961 . S
H940 C926 0.961 1_565 S
H941 C927 0.958 . S
H942 C927 0.973 . S
H943 C927 0.960 . S
C944 C945 1.391 . S
C944 C946 1.394 . S
C944 H960 0.931 . S
C945 C944 1.391 . S
C945 C949 1.376 . S
C946 C944 1.394 . S
C946 C947 1.369 . S
C946 C950 1.531 . S
C947 C946 1.369 . S
C947 C948 1.410 . S
C947 C955 1.503 . S
C948 C947 1.410 . S
C948 C949 1.392 . S
C948 C951 1.511 . S
C949 C945 1.376 . S
C949 C948 1.392 . S
C949 H961 0.929 . S
C950 C946 1.531 . S
C950 H962 0.960 . S
C950 H963 0.962 . S
C950 H964 0.960 . S
C951 C948 1.511 . S
C951 H965 0.961 . S
C951 H966 0.961 . S
C951 H967 0.961 . S
C952 C953 1.370 . S
C952 C954 1.363 . S
C952 H968 0.931 . S
C953 C952 1.370 . S
C953 C957 1.408 . S
C954 C952 1.363 . S
C954 C955 1.370 . S
C954 C958 1.524 . S
C955 C947 1.503 . S
C955 C954 1.370 . S
C955 C956 1.403 . S
C956 C955 1.403 . S
C956 C957 1.404 . S
C956 C959 1.539 . S
C957 C953 1.408 . S
C957 C956 1.404 . S
C957 H969 0.930 . S
C958 C954 1.524 . S
C958 H970 0.956 . S
C958 H971 0.961 . S
C958 H972 0.961 . S
C959 C956 1.539 . S
C959 H973 0.958 . S
C959 H974 0.961 . S
C959 H975 0.960 . S
H960 C944 0.931 . S
H961 C949 0.929 . S
H962 C950 0.960 . S
H963 C950 0.962 . S
H964 C950 0.960 . S
H965 C951 0.961 . S
H966 C951 0.961 . S
H967 C951 0.961 . S
H968 C952 0.931 . S
H969 C957 0.930 . S
H970 C958 0.956 . S
H971 C958 0.961 . S
H972 C958 0.961 . S
H973 C959 0.958 . S
H974 C959 0.961 . S
H975 C959 0.960 . S
C976 C977 1.391 . S
C976 C978 1.394 . S
C976 H992 0.931 . S
C977 C976 1.391 . S
C977 C981 1.376 . S
C978 C976 1.394 . S
C978 C979 1.369 . S
C978 C982 1.531 . S
C979 C978 1.369 . S
C979 C980 1.410 . S
C979 C987 1.503 . S
C980 C979 1.410 . S
C980 C981 1.392 . S
C980 C983 1.511 . S
C981 C977 1.376 . S
C981 C980 1.392 . S
C981 H993 0.929 . S
C982 C978 1.531 . S
C982 H994 0.960 . S
C982 H995 0.962 . S
C982 H996 0.960 . S
C983 C980 1.511 . S
C983 H997 0.961 . S
C983 H998 0.961 . S
C983 H999 0.961 . S
C984 C985 1.370 . S
C984 C986 1.363 . S
C984 H1000 0.931 1_545 S
C985 C984 1.370 . S
C985 C989 1.408 . S
C986 C984 1.363 . S
C986 C987 1.370 . S
C986 C990 1.524 1_545 S
C987 C979 1.503 . S
C987 C986 1.370 . S
C987 C988 1.403 . S
C988 C987 1.403 . S
C988 C989 1.404 . S
C988 C991 1.539 . S
C989 C985 1.408 . S
C989 C988 1.404 . S
C989 H1001 0.930 . S
C990 C986 1.524 1_565 S
C990 H1002 0.956 . S
C990 H1003 0.961 . S
C990 H1004 0.961 . S
C991 C988 1.539 . S
C991 H1005 0.958 . S
C991 H1006 0.961 . S
C991 H1007 0.960 . S
H992 C976 0.931 . S
H993 C981 0.929 . S
H994 C982 0.960 . S
H995 C982 0.962 . S
H996 C982 0.960 . S
H997 C983 0.961 . S
H998 C983 0.961 . S
H999 C983 0.961 . S
H1000 C984 0.931 1_565 S
H1001 C989 0.930 . S
H1002 C990 0.956 . S
H1003 C990 0.961 . S
H1004 C990 0.961 . S
H1005 C991 0.958 . S
H1006 C991 0.961 . S
H1007 C991 0.960 . S
C1008 C1009 1.391 . S
C1008 C1010 1.394 . S
C1008 H1024 0.931 . S
C1009 C1008 1.391 . S
C1009 C1013 1.376 . S
C1010 C1008 1.394 . S
C1010 C1011 1.369 . S
C1010 C1014 1.531 . S
C1011 C1010 1.369 . S
C1011 C1012 1.410 . S
C1011 C1019 1.503 . S
C1012 C1011 1.410 . S
C1012 C1013 1.392 . S
C1012 C1015 1.511 . S
C1013 C1009 1.376 . S
C1013 C1012 1.392 . S
C1013 H1025 0.929 . S
C1014 C1010 1.531 . S
C1014 H1026 0.960 . S
C1014 H1027 0.962 . S
C1014 H1028 0.960 . S
C1015 C1012 1.511 . S
C1015 H1029 0.961 . S
C1015 H1030 0.961 . S
C1015 H1031 0.961 . S
C1016 C1017 1.370 . S
C1016 C1018 1.363 . S
C1016 H1032 0.931 . S
C1017 C1016 1.370 . S
C1017 C1021 1.408 . S
C1018 C1016 1.363 . S
C1018 C1019 1.370 . S
C1018 C1022 1.524 . S
C1019 C1011 1.503 . S
C1019 C1018 1.370 . S
C1019 C1020 1.403 . S
C1020 C1019 1.403 . S
C1020 C1021 1.404 . S
C1020 C1023 1.539 . S
C1021 C1017 1.408 . S
C1021 C1020 1.404 . S
C1021 H1033 0.930 . S
C1022 C1018 1.524 . S
C1022 H1034 0.956 . S
C1022 H1035 0.961 . S
C1022 H1036 0.961 . S
C1023 C1020 1.539 . S
C1023 H1037 0.958 . S
C1023 H1038 0.961 . S
C1023 H1039 0.960 . S
H1024 C1008 0.931 . S
H1025 C1013 0.929 . S
H1026 C1014 0.960 . S
H1027 C1014 0.962 . S
H1028 C1014 0.960 . S
H1029 C1015 0.961 . S
H1030 C1015 0.961 . S
H1031 C1015 0.961 . S
H1032 C1016 0.931 . S
H1033 C1021 0.930 . S
H1034 C1022 0.956 . S
H1035 C1022 0.961 . S
H1036 C1022 0.961 . S
H1037 C1023 0.958 . S
H1038 C1023 0.961 . S
H1039 C1023 0.960 . S
C1040 C1041 1.391 . S
C1040 C1042 1.394 . S
C1040 H1056 0.931 . S
C1041 C1040 1.391 . S
C1041 C1045 1.376 . S
C1042 C1040 1.394 . S
C1042 C1043 1.369 . S
C1042 C1046 1.531 . S
C1043 C1042 1.369 . S
C1043 C1044 1.410 . S
C1043 C1051 1.503 . S
C1044 C1043 1.410 . S
C1044 C1045 1.392 . S
C1044 C1047 1.511 . S
C1045 C1041 1.376 . S
C1045 C1044 1.392 . S
C1045 H1057 0.929 . S
C1046 C1042 1.531 . S
C1046 H1058 0.960 . S
C1046 H1059 0.962 . S
C1046 H1060 0.960 . S
C1047 C1044 1.511 . S
C1047 H1061 0.961 . S
C1047 H1062 0.961 . S
C1047 H1063 0.961 . S
C1048 C1049 1.370 . S
C1048 C1050 1.363 . S
C1048 H1064 0.931 1_655 S
C1049 C1048 1.370 . S
C1049 C1053 1.408 . S
C1050 C1048 1.363 . S
C1050 C1051 1.370 . S
C1050 C1054 1.524 . S
C1051 C1043 1.503 . S
C1051 C1050 1.370 . S
C1051 C1052 1.403 . S
C1052 C1051 1.403 . S
C1052 C1053 1.404 . S
C1052 C1055 1.539 1_545 S
C1053 C1049 1.408 . S
C1053 C1052 1.404 . S
C1053 H1065 0.930 1_545 S
C1054 C1050 1.524 . S
C1054 H1066 0.956 . S
C1054 H1067 0.961 . S
C1054 H1068 0.961 . S
C1055 C1052 1.539 1_565 S
C1055 H1069 0.958 . S
C1055 H1070 0.961 . S
C1055 H1071 0.960 . S
H1056 C1040 0.931 . S
H1057 C1045 0.929 . S
H1058 C1046 0.960 . S
H1059 C1046 0.962 . S
H1060 C1046 0.960 . S
H1061 C1047 0.961 . S
H1062 C1047 0.961 . S
H1063 C1047 0.961 . S
H1064 C1048 0.931 1_455 S
H1065 C1053 0.930 1_565 S
H1066 C1054 0.956 . S
H1067 C1054 0.961 . S
H1068 C1054 0.961 . S
H1069 C1055 0.958 . S
H1070 C1055 0.961 . S
H1071 C1055 0.960 . S
C1072 C1073 1.391 . S
C1072 C1074 1.394 . S
C1072 H1088 0.931 . S
C1073 C1072 1.391 . S
C1073 C1077 1.376 . S
C1074 C1072 1.394 . S
C1074 C1075 1.369 . S
C1074 C1078 1.531 . S
C1075 C1074 1.369 . S
C1075 C1076 1.410 . S
C1075 C1083 1.503 . S
C1076 C1075 1.410 . S
C1076 C1077 1.392 . S
C1076 C1079 1.511 . S
C1077 C1073 1.376 . S
C1077 C1076 1.392 . S
C1077 H1089 0.929 . S
C1078 C1074 1.531 . S
C1078 H1090 0.960 . S
C1078 H1091 0.962 . S
C1078 H1092 0.960 . S
C1079 C1076 1.511 . S
C1079 H1093 0.961 . S
C1079 H1094 0.961 . S
C1079 H1095 0.961 . S
C1080 C1081 1.370 . S
C1080 C1082 1.363 . S
C1080 H1096 0.931 . S
C1081 C1080 1.370 . S
C1081 C1085 1.408 . S
C1082 C1080 1.363 . S
C1082 C1083 1.370 . S
C1082 C1086 1.524 . S
C1083 C1075 1.503 . S
C1083 C1082 1.370 . S
C1083 C1084 1.403 . S
C1084 C1083 1.403 . S
C1084 C1085 1.404 . S
C1084 C1087 1.539 . S
C1085 C1081 1.408 . S
C1085 C1084 1.404 . S
C1085 H1097 0.930 . S
C1086 C1082 1.524 . S
C1086 H1098 0.956 . S
C1086 H1099 0.961 . S
C1086 H1100 0.961 . S
C1087 C1084 1.539 . S
C1087 H1101 0.958 . S
C1087 H1102 0.961 . S
C1087 H1103 0.960 . S
H1088 C1072 0.931 . S
H1089 C1077 0.929 . S
H1090 C1078 0.960 . S
H1091 C1078 0.962 . S
H1092 C1078 0.960 . S
H1093 C1079 0.961 . S
H1094 C1079 0.961 . S
H1095 C1079 0.961 . S
H1096 C1080 0.931 . S
H1097 C1085 0.930 . S
H1098 C1086 0.956 . S
H1099 C1086 0.961 . S
H1100 C1086 0.961 . S
H1101 C1087 0.958 . S
H1102 C1087 0.961 . S
H1103 C1087 0.960 . S
C1104 C1105 1.391 . S
C1104 C1106 1.394 . S
C1104 H1120 0.931 . S
C1105 C1104 1.391 . S
C1105 C1109 1.376 . S
C1106 C1104 1.394 . S
C1106 C1107 1.369 . S
C1106 C1110 1.531 . S
C1107 C1106 1.369 . S
C1107 C1108 1.410 . S
C1107 C1115 1.503 . S
C1108 C1107 1.410 . S
C1108 C1109 1.392 . S
C1108 C1111 1.511 . S
C1109 C1105 1.376 . S
C1109 C1108 1.392 . S
C1109 H1121 0.929 . S
C1110 C1106 1.531 . S
C1110 H1122 0.960 . S
C1110 H1123 0.962 . S
C1110 H1124 0.960 . S
C1111 C1108 1.511 . S
C1111 H1125 0.961 . S
C1111 H1126 0.961 . S
C1111 H1127 0.961 . S
C1112 C1113 1.370 . S
C1112 C1114 1.363 . S
C1112 H1128 0.931 . S
C1113 C1112 1.370 . S
C1113 C1117 1.408 . S
C1114 C1112 1.363 . S
C1114 C1115 1.370 . S
C1114 C1118 1.524 . S
C1115 C1107 1.503 . S
C1115 C1114 1.370 . S
C1115 C1116 1.403 . S
C1116 C1115 1.403 . S
C1116 C1117 1.404 . S
C1116 C1119 1.539 . S
C1117 C1113 1.408 . S
C1117 C1116 1.404 . S
C1117 H1129 0.930 . S
C1118 C1114 1.524 . S
C1118 H1130 0.956 . S
C1118 H1131 0.961 . S
C1118 H1132 0.991 . S
C1119 C1116 1.539 . S
C1119 H1133 0.958 . S
C1119 H1134 0.961 . S
C1119 H1135 0.960 . S
H1120 C1104 0.931 . S
H1121 C1109 0.929 . S
H1122 C1110 0.960 . S
H1123 C1110 0.962 . S
H1124 C1110 0.960 . S
H1125 C1111 0.961 . S
H1126 C1111 0.961 . S
H1127 C1111 0.961 . S
H1128 C1112 0.931 . S
H1129 C1117 0.930 . S
H1130 C1118 0.956 . S
H1131 C1118 0.961 . S
H1132 C1118 0.991 . S
H1133 C1119 0.958 . S
H1134 C1119 0.961 . S
H1135 C1119 0.960 . S
C1136 C1137 1.391 . S
C1136 C1138 1.394 . S
C1136 H1152 0.931 . S
C1137 C1136 1.391 . S
C1137 C1141 1.376 . S
C1138 C1136 1.394 . S
C1138 C1139 1.369 . S
C1138 C1142 1.531 . S
C1139 C1138 1.369 . S
C1139 C1140 1.410 . S
C1139 C1147 1.503 . S
C1140 C1139 1.410 . S
C1140 C1141 1.392 . S
C1140 C1143 1.511 . S
C1141 C1137 1.376 . S
C1141 C1140 1.392 . S
C1141 H1153 0.929 . S
C1142 C1138 1.531 . S
C1142 H1154 0.960 . S
C1142 H1155 0.962 . S
C1142 H1156 0.960 . S
C1143 C1140 1.511 . S
C1143 H1157 0.961 . S
C1143 H1158 0.961 . S
C1143 H1159 0.961 . S
C1144 C1145 1.370 . S
C1144 C1146 1.363 . S
C1144 H1160 0.931 . S
C1145 C1144 1.370 . S
C1145 C1149 1.408 . S
C1146 C1144 1.363 . S
C1146 C1147 1.370 . S
C1146 C1150 1.524 . S
C1147 C1139 1.503 . S
C1147 C1146 1.370 . S
C1147 C1148 1.403 . S
C1148 C1147 1.403 . S
C1148 C1149 1.404 . S
C1148 C1151 1.539 . S
C1149 C1145 1.408 . S
C1149 C1148 1.404 . S
C1149 H1161 0.930 . S
C1150 C1146 1.524 . S
C1150 H1162 0.956 . S
C1150 H1163 0.961 . S
C1150 H1164 0.961 . S
C1151 C1148 1.539 . S
C1151 H1165 0.958 . S
C1151 H1166 0.961 . S
C1151 H1167 0.960 . S
H1152 C1136 0.931 . S
H1153 C1141 0.929 . S
H1154 C1142 0.960 . S
H1155 C1142 0.962 . S
H1156 C1142 0.960 . S
H1157 C1143 0.961 . S
H1158 C1143 0.961 . S
H1159 C1143 0.961 . S
H1160 C1144 0.931 . S
H1161 C1149 0.930 . S
H1162 C1150 0.956 . S
H1163 C1150 0.961 . S
H1164 C1150 0.961 . S
H1165 C1151 0.958 . S
H1166 C1151 0.961 . S
H1167 C1151 0.960 . S
C1168 C1169 1.391 . S
C1168 C1170 1.394 . S
C1168 H1184 0.931 . S
C1169 C1168 1.391 . S
C1169 C1173 1.376 . S
C1170 C1168 1.394 . S
C1170 C1171 1.369 . S
C1170 C1174 1.531 1_565 S
C1171 C1170 1.369 . S
C1171 C1172 1.410 . S
C1171 C1179 1.503 . S
C1172 C1171 1.410 . S
C1172 C1173 1.392 . S
C1172 C1175 1.511 . S
C1173 C1169 1.376 . S
C1173 C1172 1.392 . S
C1173 H1185 0.929 . S
C1174 C1170 1.531 1_545 S
C1174 H1186 0.960 . S
C1174 H1187 0.962 . S
C1174 H1188 0.960 . S
C1175 C1172 1.511 . S
C1175 H1189 0.961 . S
C1175 H1190 0.961 . S
C1175 H1191 0.961 1_554 S
C1176 C1177 1.370 1_565 S
C1176 C1178 1.363 . S
C1176 H1192 0.931 . S
C1177 C1176 1.370 1_545 S
C1177 C1181 1.408 . S
C1178 C1176 1.363 . S
C1178 C1179 1.370 . S
C1178 C1182 1.524 . S
C1179 C1171 1.503 . S
C1179 C1178 1.370 . S
C1179 C1180 1.403 . S
C1180 C1179 1.403 . S
C1180 C1181 1.404 1_565 S
C1180 C1183 1.539 1_554 S
C1181 C1177 1.408 . S
C1181 C1180 1.404 1_545 S
C1181 H1193 0.930 . S
C1182 C1178 1.524 . S
C1182 H1194 0.956 . S
C1182 H1195 0.961 . S
C1182 H1196 0.961 . S
C1183 C1180 1.539 1_556 S
C1183 H1197 0.958 1_565 S
C1183 H1198 0.961 . S
C1183 H1199 0.960 . S
H1184 C1168 0.931 . S
H1185 C1173 0.929 . S
H1186 C1174 0.960 . S
H1187 C1174 0.962 . S
H1188 C1174 0.960 . S
H1189 C1175 0.961 . S
H1190 C1175 0.961 . S
H1191 C1175 0.961 1_556 S
H1192 C1176 0.931 . S
H1193 C1181 0.930 . S
H1194 C1182 0.956 . S
H1195 C1182 0.961 . S
H1196 C1182 0.961 . S
H1197 C1183 0.958 1_545 S
H1198 C1183 0.961 . S
H1199 C1183 0.960 . S
C1200 C1201 1.391 . S
C1200 C1202 1.394 . S
C1200 H1216 0.931 . S
C1201 C1200 1.391 . S
C1201 C1205 1.376 . S
C1202 C1200 1.394 . S
C1202 C1203 1.369 . S
C1202 C1206 1.531 . S
C1203 C1202 1.369 . S
C1203 C1204 1.410 . S
C1203 C1211 1.503 . S
C1204 C1203 1.410 . S
C1204 C1205 1.392 . S
C1204 C1207 1.511 . S
C1205 C1201 1.376 . S
C1205 C1204 1.392 . S
C1205 H1217 0.929 . S
C1206 C1202 1.531 . S
C1206 H1218 0.960 . S
C1206 H1219 0.962 . S
C1206 H1220 0.960 . S
C1207 C1204 1.511 . S
C1207 H1221 0.961 1_554 S
C1207 H1222 0.961 1_554 S
C1207 H1223 0.961 . S
C1208 C1209 1.370 1_556 S
C1208 C1210 1.363 . S
C1208 H1224 0.931 . S
C1209 C1208 1.370 1_554 S
C1209 C1213 1.408 . S
C1210 C1208 1.363 . S
C1210 C1211 1.370 1_556 S
C1210 C1214 1.524 . S
C1211 C1203 1.503 . S
C1211 C1210 1.370 1_554 S
C1211 C1212 1.403 . S
C1212 C1211 1.403 . S
C1212 C1213 1.404 . S
C1212 C1215 1.539 . S
C1213 C1209 1.408 . S
C1213 C1212 1.404 . S
C1213 H1225 0.930 . S
C1214 C1210 1.524 . S
C1214 H1226 0.956 . S
C1214 H1227 0.961 . S
C1214 H1228 0.961 . S
C1215 C1212 1.539 . S
C1215 H1229 0.958 . S
C1215 H1230 0.961 . S
C1215 H1231 0.960 . S
H1216 C1200 0.931 . S
H1217 C1205 0.929 . S
H1218 C1206 0.960 . S
H1219 C1206 0.962 . S
H1220 C1206 0.960 . S
H1221 C1207 0.961 1_556 S
H1222 C1207 0.961 1_556 S
H1223 C1207 0.961 . S
H1224 C1208 0.931 . S
H1225 C1213 0.930 . S
H1226 C1214 0.956 . S
H1227 C1214 0.961 . S
H1228 C1214 0.961 . S
H1229 C1215 0.958 . S
H1230 C1215 0.961 . S
H1231 C1215 0.960 . S
C1232 C1233 1.391 . S
C1232 C1234 1.394 . S
C1232 H1248 0.931 . S
C1233 C1232 1.391 . S
C1233 C1237 1.376 . S
C1234 C1232 1.394 . S
C1234 C1235 1.369 . S
C1234 C1238 1.531 . S
C1235 C1234 1.369 . S
C1235 C1236 1.410 . S
C1235 C1243 1.503 . S
C1236 C1235 1.410 . S
C1236 C1237 1.392 . S
C1236 C1239 1.511 . S
C1237 C1233 1.376 . S
C1237 C1236 1.392 . S
C1237 H1249 0.929 . S
C1238 C1234 1.531 . S
C1238 H1250 0.960 . S
C1238 H1251 0.962 . S
C1238 H1252 0.960 . S
C1239 C1236 1.511 . S
C1239 H1253 0.961 . S
C1239 H1254 0.961 . S
C1239 H1255 0.961 . S
C1240 C1241 1.370 . S
C1240 C1242 1.363 . S
C1240 H1256 0.931 . S
C1241 C1240 1.370 . S
C1241 C1245 1.408 . S
C1242 C1240 1.363 . S
C1242 C1243 1.370 . S
C1242 C1246 1.524 . S
C1243 C1235 1.503 . S
C1243 C1242 1.370 . S
C1243 C1244 1.403 . S
C1244 C1243 1.403 . S
C1244 C1245 1.404 . S
C1244 C1247 1.539 . S
C1245 C1241 1.408 . S
C1245 C1244 1.404 . S
C1245 H1257 0.930 . S
C1246 C1242 1.524 . S
C1246 H1258 0.956 . S
C1246 H1259 0.961 . S
C1246 H1260 0.961 . S
C1247 C1244 1.539 . S
C1247 H1261 0.958 . S
C1247 H1262 0.961 . S
C1247 H1263 0.960 . S
H1248 C1232 0.931 . S
H1249 C1237 0.929 . S
H1250 C1238 0.960 . S
H1251 C1238 0.962 . S
H1252 C1238 0.960 . S
H1253 C1239 0.961 . S
H1254 C1239 0.961 . S
H1255 C1239 0.961 . S
H1256 C1240 0.931 . S
H1257 C1245 0.930 . S
H1258 C1246 0.956 . S
H1259 C1246 0.961 . S
H1260 C1246 0.961 . S
H1261 C1247 0.958 . S
H1262 C1247 0.961 . S
H1263 C1247 0.960 . S
C1264 C1265 1.391 . S
C1264 C1266 1.394 . S
C1264 H1280 0.931 . S
C1265 C1264 1.391 . S
C1265 C1269 1.376 . S
C1266 C1264 1.394 . S
C1266 C1267 1.369 . S
C1266 C1270 1.531 . S
C1267 C1266 1.369 . S
C1267 C1268 1.410 . S
C1267 C1275 1.503 . S
C1268 C1267 1.410 . S
C1268 C1269 1.392 . S
C1268 C1271 1.511 . S
C1269 C1265 1.376 . S
C1269 C1268 1.392 . S
C1269 H1281 0.929 . S
C1270 C1266 1.531 . S
C1270 H1282 0.960 . S
C1270 H1283 0.962 . S
C1270 H1284 0.960 . S
C1271 C1268 1.511 . S
C1271 H1285 0.961 . S
C1271 H1286 0.961 . S
C1271 H1287 0.961 . S
C1272 C1273 1.370 . S
C1272 C1274 1.363 . S
C1272 H1288 0.931 . S
C1273 C1272 1.370 . S
C1273 C1277 1.408 . S
C1274 C1272 1.363 . S
C1274 C1275 1.370 . S
C1274 C1278 1.524 . S
C1275 C1267 1.503 . S
C1275 C1274 1.370 . S
C1275 C1276 1.403 . S
C1276 C1275 1.403 . S
C1276 C1277 1.404 . S
C1276 C1279 1.539 . S
C1277 C1273 1.408 . S
C1277 C1276 1.404 . S
C1277 H1289 0.930 . S
C1278 C1274 1.524 . S
C1278 H1290 0.956 . S
C1278 H1291 0.961 . S
C1278 H1292 0.961 . S
C1279 C1276 1.539 . S
C1279 H1293 0.958 . S
C1279 H1294 0.961 . S
C1279 H1295 0.960 . S
H1280 C1264 0.931 . S
H1281 C1269 0.929 . S
H1282 C1270 0.960 . S
H1283 C1270 0.962 . S
H1284 C1270 0.960 . S
H1285 C1271 0.961 . S
H1286 C1271 0.961 . S
H1287 C1271 0.961 . S
H1288 C1272 0.931 . S
H1289 C1277 0.930 . S
H1290 C1278 0.956 . S
H1291 C1278 0.961 . S
H1292 C1278 0.961 . S
H1293 C1279 0.958 . S
H1294 C1279 0.961 . S
H1295 C1279 0.960 . S
C1296 C1297 1.391 . S
C1296 C1298 1.394 . S
C1296 H1312 0.931 . S
C1297 C1296 1.391 . S
C1297 C1301 1.376 . S
C1298 C1296 1.394 . S
C1298 C1299 1.369 . S
C1298 C1302 1.531 . S
C1299 C1298 1.369 . S
C1299 C1300 1.410 . S
C1299 C1307 1.503 . S
C1300 C1299 1.410 . S
C1300 C1301 1.392 . S
C1300 C1303 1.511 . S
C1301 C1297 1.376 . S
C1301 C1300 1.392 . S
C1301 H1313 0.929 . S
C1302 C1298 1.531 . S
C1302 H1314 0.960 . S
C1302 H1315 0.962 . S
C1302 H1316 0.960 . S
C1303 C1300 1.511 . S
C1303 H1317 0.961 . S
C1303 H1318 0.961 . S
C1303 H1319 0.961 . S
C1304 C1305 1.370 . S
C1304 C1306 1.363 . S
C1304 H1320 0.931 . S
C1305 C1304 1.370 . S
C1305 C1309 1.408 . S
C1306 C1304 1.363 . S
C1306 C1307 1.370 . S
C1306 C1310 1.524 . S
C1307 C1299 1.503 . S
C1307 C1306 1.370 . S
C1307 C1308 1.403 . S
C1308 C1307 1.403 . S
C1308 C1309 1.404 . S
C1308 C1311 1.539 . S
C1309 C1305 1.408 . S
C1309 C1308 1.404 . S
C1309 H1321 0.930 . S
C1310 C1306 1.524 . S
C1310 H1322 0.956 . S
C1310 H1323 0.961 . S
C1310 H1324 0.961 . S
C1311 C1308 1.539 . S
C1311 H1325 0.958 . S
C1311 H1326 0.961 . S
C1311 H1327 0.960 . S
H1312 C1296 0.931 . S
H1313 C1301 0.929 . S
H1314 C1302 0.960 . S
H1315 C1302 0.962 . S
H1316 C1302 0.960 . S
H1317 C1303 0.961 . S
H1318 C1303 0.961 . S
H1319 C1303 0.961 . S
H1320 C1304 0.931 . S
H1321 C1309 0.930 . S
H1322 C1310 0.956 . S
H1323 C1310 0.961 . S
H1324 C1310 0.961 . S
H1325 C1311 0.958 . S
H1326 C1311 0.961 . S
H1327 C1311 0.960 . S
C1328 C1329 1.391 . S
C1328 C1330 1.394 . S
C1328 H1344 0.931 . S
C1329 C1328 1.391 . S
C1329 C1333 1.376 . S
C1330 C1328 1.394 . S
C1330 C1331 1.369 . S
C1330 C1334 1.531 . S
C1331 C1330 1.369 . S
C1331 C1332 1.410 . S
C1331 C1339 1.503 . S
C1332 C1331 1.410 . S
C1332 C1333 1.392 . S
C1332 C1335 1.511 . S
C1333 C1329 1.376 . S
C1333 C1332 1.392 . S
C1333 H1345 0.929 . S
C1334 C1330 1.531 . S
C1334 H1346 0.960 . S
C1334 H1347 0.962 . S
C1334 H1348 0.960 . S
C1335 C1332 1.511 . S
C1335 H1349 0.961 . S
C1335 H1350 0.961 . S
C1335 H1351 0.961 . S
C1336 C1337 1.370 . S
C1336 C1338 1.363 . S
C1336 H1352 0.931 . S
C1337 C1336 1.370 . S
C1337 C1341 1.408 . S
C1338 C1336 1.363 . S
C1338 C1339 1.370 . S
C1338 C1342 1.524 . S
C1339 C1331 1.503 . S
C1339 C1338 1.370 . S
C1339 C1340 1.403 . S
C1340 C1339 1.403 . S
C1340 C1341 1.404 . S
C1340 C1343 1.539 . S
C1341 C1337 1.408 . S
C1341 C1340 1.404 . S
C1341 H1353 0.930 . S
C1342 C1338 1.524 . S
C1342 H1354 0.956 . S
C1342 H1355 0.961 . S
C1342 H1356 0.961 . S
C1343 C1340 1.539 . S
C1343 H1357 0.958 . S
C1343 H1358 0.961 . S
C1343 H1359 0.960 . S
H1344 C1328 0.931 . S
H1345 C1333 0.929 . S
H1346 C1334 0.960 . S
H1347 C1334 0.962 . S
H1348 C1334 0.960 . S
H1349 C1335 0.961 . S
H1350 C1335 0.961 . S
H1351 C1335 0.961 . S
H1352 C1336 0.931 . S
H1353 C1341 0.930 . S
H1354 C1342 0.956 . S
H1355 C1342 0.961 . S
H1356 C1342 0.961 . S
H1357 C1343 0.958 . S
H1358 C1343 0.961 . S
H1359 C1343 0.960 . S
C1360 C1361 1.391 . S
C1360 C1362 1.394 . S
C1360 H1376 0.931 . S
C1361 C1360 1.391 . S
C1361 C1365 1.376 . S
C1362 C1360 1.394 . S
C1362 C1363 1.369 . S
C1362 C1366 1.531 . S
C1363 C1362 1.369 . S
C1363 C1364 1.410 . S
C1363 C1371 1.503 . S
C1364 C1363 1.410 . S
C1364 C1365 1.392 . S
C1364 C1367 1.511 . S
C1365 C1361 1.376 . S
C1365 C1364 1.392 . S
C1365 H1377 0.929 . S
C1366 C1362 1.531 . S
C1366 H1378 0.960 . S
C1366 H1379 0.962 . S
C1366 H1380 0.960 . S
C1367 C1364 1.511 . S
C1367 H1381 0.961 . S
C1367 H1382 0.961 . S
C1367 H1383 0.961 . S
C1368 C1369 1.370 . S
C1368 C1370 1.363 . S
C1368 H1384 0.931 . S
C1369 C1368 1.370 . S
C1369 C1373 1.408 . S
C1370 C1368 1.363 . S
C1370 C1371 1.370 . S
C1370 C1374 1.524 . S
C1371 C1363 1.503 . S
C1371 C1370 1.370 . S
C1371 C1372 1.403 . S
C1372 C1371 1.403 . S
C1372 C1373 1.404 . S
C1372 C1375 1.539 . S
C1373 C1369 1.408 . S
C1373 C1372 1.404 . S
C1373 H1385 0.930 . S
C1374 C1370 1.524 . S
C1374 H1386 0.956 . S
C1374 H1387 0.961 . S
C1374 H1388 0.961 . S
C1375 C1372 1.539 . S
C1375 H1389 0.958 . S
C1375 H1390 0.961 . S
C1375 H1391 0.960 . S
H1376 C1360 0.931 . S
H1377 C1365 0.929 . S
H1378 C1366 0.960 . S
H1379 C1366 0.962 . S
H1380 C1366 0.960 . S
H1381 C1367 0.961 . S
H1382 C1367 0.961 . S
H1383 C1367 0.961 . S
H1384 C1368 0.931 . S
H1385 C1373 0.930 . S
H1386 C1374 0.956 . S
H1387 C1374 0.961 . S
H1388 C1374 0.961 . S
H1389 C1375 0.958 . S
H1390 C1375 0.961 . S
H1391 C1375 0.960 . S
C1392 C1393 1.391 . S
C1392 C1394 1.394 . S
C1392 H1408 0.931 . S
C1393 C1392 1.391 . S
C1393 C1397 1.376 . S
C1394 C1392 1.394 . S
C1394 C1395 1.369 . S
C1394 C1398 1.531 . S
C1395 C1394 1.369 . S
C1395 C1396 1.410 . S
C1395 C1403 1.503 . S
C1396 C1395 1.410 . S
C1396 C1397 1.392 . S
C1396 C1399 1.511 . S
C1397 C1393 1.376 . S
C1397 C1396 1.392 . S
C1397 H1409 0.929 . S
C1398 C1394 1.531 . S
C1398 H1410 0.960 . S
C1398 H1411 0.962 . S
C1398 H1412 0.960 . S
C1399 C1396 1.511 . S
C1399 H1413 0.961 . S
C1399 H1414 0.961 . S
C1399 H1415 0.961 . S
C1400 C1401 1.370 . S
C1400 C1402 1.363 . S
C1400 H1416 0.931 . S
C1401 C1400 1.370 . S
C1401 C1405 1.408 . S
C1402 C1400 1.363 . S
C1402 C1403 1.370 . S
C1402 C1406 1.524 . S
C1403 C1395 1.503 . S
C1403 C1402 1.370 . S
C1403 C1404 1.403 . S
C1404 C1403 1.403 . S
C1404 C1405 1.404 . S
C1404 C1407 1.539 . S
C1405 C1401 1.408 . S
C1405 C1404 1.404 . S
C1405 H1417 0.930 . S
C1406 C1402 1.524 . S
C1406 H1418 0.956 . S
C1406 H1419 0.961 . S
C1406 H1420 0.961 . S
C1407 C1404 1.539 . S
C1407 H1421 0.958 . S
C1407 H1422 0.961 . S
C1407 H1423 0.960 . S
H1408 C1392 0.931 . S
H1409 C1397 0.929 . S
H1410 C1398 0.960 . S
H1411 C1398 0.962 . S
H1412 C1398 0.960 . S
H1413 C1399 0.961 . S
H1414 C1399 0.961 . S
H1415 C1399 0.961 . S
H1416 C1400 0.931 . S
H1417 C1405 0.930 . S
H1418 C1406 0.956 . S
H1419 C1406 0.961 . S
H1420 C1406 0.961 . S
H1421 C1407 0.958 . S
H1422 C1407 0.961 . S
H1423 C1407 0.960 . S
C1424 C1425 1.391 . S
C1424 C1426 1.394 . S
C1424 H1440 0.931 . S
C1425 C1424 1.391 . S
C1425 C1429 1.376 . S
C1426 C1424 1.394 . S
C1426 C1427 1.369 . S
C1426 C1430 1.531 1_455 S
C1427 C1426 1.369 . S
C1427 C1428 1.410 . S
C1427 C1435 1.503 . S
C1428 C1427 1.410 . S
C1428 C1429 1.392 . S
C1428 C1431 1.511 . S
C1429 C1425 1.376 . S
C1429 C1428 1.392 . S
C1429 H1441 0.929 . S
C1430 C1426 1.531 1_655 S
C1430 H1442 0.960 . S
C1430 H1443 0.962 . S
C1430 H1444 0.960 . S
C1431 C1428 1.511 . S
C1431 H1445 0.961 . S
C1431 H1446 0.961 . S
C1431 H1447 0.961 . S
C1432 C1433 1.370 . S
C1432 C1434 1.363 . S
C1432 H1448 0.931 . S
C1433 C1432 1.370 . S
C1433 C1437 1.408 . S
C1434 C1432 1.363 . S
C1434 C1435 1.370 . S
C1434 C1438 1.524 . S
C1435 C1427 1.503 . S
C1435 C1434 1.370 . S
C1435 C1436 1.403 . S
C1436 C1435 1.403 . S
C1436 C1437 1.404 . S
C1436 C1439 1.539 . S
C1437 C1433 1.408 . S
C1437 C1436 1.404 . S
C1437 H1449 0.930 . S
C1438 C1434 1.524 . S
C1438 H1450 0.956 . S
C1438 H1451 0.961 . S
C1438 H1452 0.961 . S
C1439 C1436 1.539 . S
C1439 H1453 0.958 . S
C1439 H1454 0.961 . S
C1439 H1455 0.960 . S
H1440 C1424 0.931 . S
H1441 C1429 0.929 . S
H1442 C1430 0.960 . S
H1443 C1430 0.962 . S
H1444 C1430 0.960 . S
H1445 C1431 0.961 . S
H1446 C1431 0.961 . S
H1447 C1431 0.961 . S
H1448 C1432 0.931 . S
H1449 C1437 0.930 . S
H1450 C1438 0.956 . S
H1451 C1438 0.961 . S
H1452 C1438 0.961 . S
H1453 C1439 0.958 . S
H1454 C1439 0.961 . S
H1455 C1439 0.960 . S
C1456 C1457 1.391 . S
C1456 C1458 1.394 . S
C1456 H1472 0.931 . S
C1457 C1456 1.391 . S
C1457 C1461 1.376 . S
C1458 C1456 1.394 . S
C1458 C1459 1.369 . S
C1458 C1462 1.531 . S
C1459 C1458 1.369 . S
C1459 C1460 1.410 . S
C1459 C1467 1.503 . S
C1460 C1459 1.410 . S
C1460 C1461 1.392 . S
C1460 C1463 1.511 . S
C1461 C1457 1.376 . S
C1461 C1460 1.392 . S
C1461 H1473 0.929 . S
C1462 C1458 1.531 . S
C1462 H1474 0.960 . S
C1462 H1475 0.962 . S
C1462 H1476 0.960 . S
C1463 C1460 1.511 . S
C1463 H1477 0.961 . S
C1463 H1478 0.961 . S
C1463 H1479 0.961 . S
C1464 C1465 1.370 . S
C1464 C1466 1.363 . S
C1464 H1480 0.931 . S
C1465 C1464 1.370 . S
C1465 C1469 1.408 . S
C1466 C1464 1.363 . S
C1466 C1467 1.370 . S
C1466 C1470 1.524 . S
C1467 C1459 1.503 . S
C1467 C1466 1.370 . S
C1467 C1468 1.403 . S
C1468 C1467 1.403 . S
C1468 C1469 1.404 . S
C1468 C1471 1.539 . S
C1469 C1465 1.408 . S
C1469 C1468 1.404 . S
C1469 H1481 0.930 . S
C1470 C1466 1.524 . S
C1470 H1482 0.956 . S
C1470 H1483 0.961 . S
C1470 H1484 0.961 . S
C1471 C1468 1.539 . S
C1471 H1485 0.958 . S
C1471 H1486 0.961 . S
C1471 H1487 0.960 . S
H1472 C1456 0.931 . S
H1473 C1461 0.929 . S
H1474 C1462 0.960 . S
H1475 C1462 0.962 . S
H1476 C1462 0.960 . S
H1477 C1463 0.961 . S
H1478 C1463 0.961 . S
H1479 C1463 0.961 . S
H1480 C1464 0.931 . S
H1481 C1469 0.930 . S
H1482 C1470 0.956 . S
H1483 C1470 0.961 . S
H1484 C1470 0.961 . S
H1485 C1471 0.958 . S
H1486 C1471 0.961 . S
H1487 C1471 0.960 . S
C1488 C1489 1.391 . S
C1488 C1490 1.394 . S
C1488 H1504 0.931 . S
C1489 C1488 1.391 . S
C1489 C1493 1.376 . S
C1490 C1488 1.394 . S
C1490 C1491 1.369 . S
C1490 C1494 1.531 . S
C1491 C1490 1.369 . S
C1491 C1492 1.410 . S
C1491 C1499 1.503 . S
C1492 C1491 1.410 . S
C1492 C1493 1.392 . S
C1492 C1495 1.511 . S
C1493 C1489 1.376 . S
C1493 C1492 1.392 . S
C1493 H1505 0.929 . S
C1494 C1490 1.531 . S
C1494 H1506 0.960 . S
C1494 H1507 0.962 . S
C1494 H1508 0.960 . S
C1495 C1492 1.511 . S
C1495 H1509 0.961 . S
C1495 H1510 0.961 . S
C1495 H1511 0.961 . S
C1496 C1497 1.370 . S
C1496 C1498 1.363 . S
C1496 H1512 0.931 . S
C1497 C1496 1.370 . S
C1497 C1501 1.408 . S
C1498 C1496 1.363 . S
C1498 C1499 1.370 . S
C1498 C1502 1.524 . S
C1499 C1491 1.503 . S
C1499 C1498 1.370 . S
C1499 C1500 1.403 . S
C1500 C1499 1.403 . S
C1500 C1501 1.404 . S
C1500 C1503 1.539 . S
C1501 C1497 1.408 . S
C1501 C1500 1.404 . S
C1501 H1513 0.930 . S
C1502 C1498 1.524 . S
C1502 H1514 0.956 . S
C1502 H1515 0.961 . S
C1502 H1516 0.961 . S
C1503 C1500 1.539 . S
C1503 H1517 0.958 . S
C1503 H1518 0.961 . S
C1503 H1519 0.960 . S
H1504 C1488 0.931 . S
H1505 C1493 0.929 . S
H1506 C1494 0.960 . S
H1507 C1494 0.962 . S
H1508 C1494 0.960 . S
H1509 C1495 0.961 . S
H1510 C1495 0.961 . S
H1511 C1495 0.961 . S
H1512 C1496 0.931 . S
H1513 C1501 0.930 . S
H1514 C1502 0.956 . S
H1515 C1502 0.961 . S
H1516 C1502 0.961 . S
H1517 C1503 0.958 . S
H1518 C1503 0.961 . S
H1519 C1503 0.960 . S
C1520 C1521 1.391 . S
C1520 C1522 1.394 . S
C1520 H1536 0.931 . S
C1521 C1520 1.391 . S
C1521 C1525 1.376 . S
C1522 C1520 1.394 . S
C1522 C1523 1.369 . S
C1522 C1526 1.531 . S
C1523 C1522 1.369 . S
C1523 C1524 1.410 . S
C1523 C1531 1.503 . S
C1524 C1523 1.410 . S
C1524 C1525 1.392 . S
C1524 C1527 1.511 . S
C1525 C1521 1.376 . S
C1525 C1524 1.392 . S
C1525 H1537 0.929 . S
C1526 C1522 1.531 . S
C1526 H1538 0.960 . S
C1526 H1539 0.962 . S
C1526 H1540 0.960 . S
C1527 C1524 1.511 . S
C1527 H1541 0.961 . S
C1527 H1542 0.961 . S
C1527 H1543 0.961 . S
C1528 C1529 1.370 . S
C1528 C1530 1.363 . S
C1528 H1544 0.931 . S
C1529 C1528 1.370 . S
C1529 C1533 1.408 . S
C1530 C1528 1.363 . S
C1530 C1531 1.370 . S
C1530 C1534 1.524 . S
C1531 C1523 1.503 . S
C1531 C1530 1.370 . S
C1531 C1532 1.403 . S
C1532 C1531 1.403 . S
C1532 C1533 1.404 . S
C1532 C1535 1.539 . S
C1533 C1529 1.408 . S
C1533 C1532 1.404 . S
C1533 H1545 0.930 . S
C1534 C1530 1.524 . S
C1534 H1546 0.956 . S
C1534 H1547 0.961 . S
C1534 H1548 0.961 . S
C1535 C1532 1.539 . S
C1535 H1549 0.958 . S
C1535 H1550 0.961 . S
C1535 H1551 0.960 . S
H1536 C1520 0.931 . S
H1537 C1525 0.929 . S
H1538 C1526 0.960 . S
H1539 C1526 0.962 . S
H1540 C1526 0.960 . S
H1541 C1527 0.961 . S
H1542 C1527 0.961 . S
H1543 C1527 0.961 . S
H1544 C1528 0.931 . S
H1545 C1533 0.930 . S
H1546 C1534 0.956 . S
H1547 C1534 0.961 . S
H1548 C1534 0.961 . S
H1549 C1535 0.958 . S
H1550 C1535 0.961 . S
H1551 C1535 0.960 . S
C1552 C1553 1.391 . S
C1552 C1554 1.394 . S
C1552 H1568 0.931 . S
C1553 C1552 1.391 . S
C1553 C1557 1.376 . S
C1554 C1552 1.394 . S
C1554 C1555 1.369 . S
C1554 C1558 1.531 . S
C1555 C1554 1.369 . S
C1555 C1556 1.410 . S
C1555 C1563 1.503 . S
C1556 C1555 1.410 . S
C1556 C1557 1.392 . S
C1556 C1559 1.511 . S
C1557 C1553 1.376 . S
C1557 C1556 1.392 . S
C1557 H1569 0.929 . S
C1558 C1554 1.531 . S
C1558 H1570 0.960 . S
C1558 H1571 0.962 1_455 S
C1558 H1572 0.960 . S
C1559 C1556 1.511 . S
C1559 H1573 0.961 . S
C1559 H1574 0.961 . S
C1559 H1575 0.961 . S
C1560 C1561 1.370 1_655 S
C1560 C1562 1.363 . S
C1560 H1576 0.931 . S
C1561 C1560 1.370 1_455 S
C1561 C1565 1.408 . S
C1562 C1560 1.363 . S
C1562 C1563 1.370 1_655 S
C1562 C1566 1.524 . S
C1563 C1555 1.503 . S
C1563 C1562 1.370 1_455 S
C1563 C1564 1.403 . S
C1564 C1563 1.403 . S
C1564 C1565 1.404 . S
C1564 C1567 1.539 . S
C1565 C1561 1.408 . S
C1565 C1564 1.404 . S
C1565 H1577 0.930 . S
C1566 C1562 1.524 . S
C1566 H1578 0.956 . S
C1566 H1579 0.961 . S
C1566 H1580 0.961 . S
C1567 C1564 1.539 . S
C1567 H1581 0.958 . S
C1567 H1582 0.961 . S
C1567 H1583 0.960 . S
H1568 C1552 0.931 . S
H1569 C1557 0.929 . S
H1570 C1558 0.960 . S
H1571 C1558 0.962 1_655 S
H1572 C1558 0.960 . S
H1573 C1559 0.961 . S
H1574 C1559 0.961 . S
H1575 C1559 0.961 . S
H1576 C1560 0.931 . S
H1577 C1565 0.930 . S
H1578 C1566 0.956 . S
H1579 C1566 0.961 . S
H1580 C1566 0.961 . S
H1581 C1567 0.958 . S
H1582 C1567 0.961 . S
H1583 C1567 0.960 . S
C1584 C1585 1.391 . S
C1584 C1586 1.394 . S
C1584 H1600 0.931 . S
C1585 C1584 1.391 . S
C1585 C1589 1.376 . S
C1586 C1584 1.394 . S
C1586 C1587 1.369 . S
C1586 C1590 1.531 . S
C1587 C1586 1.369 . S
C1587 C1588 1.410 . S
C1587 C1595 1.503 . S
C1588 C1587 1.410 . S
C1588 C1589 1.392 . S
C1588 C1591 1.511 . S
C1589 C1585 1.376 . S
C1589 C1588 1.392 . S
C1589 H1601 0.929 . S
C1590 C1586 1.531 . S
C1590 H1602 0.960 . S
C1590 H1603 0.962 . S
C1590 H1604 0.960 . S
C1591 C1588 1.511 . S
C1591 H1605 0.961 . S
C1591 H1606 0.961 . S
C1591 H1607 0.961 . S
C1592 C1593 1.370 . S
C1592 C1594 1.363 . S
C1592 H1608 0.931 . S
C1593 C1592 1.370 . S
C1593 C1597 1.408 . S
C1594 C1592 1.363 . S
C1594 C1595 1.370 . S
C1594 C1598 1.524 . S
C1595 C1587 1.503 . S
C1595 C1594 1.370 . S
C1595 C1596 1.403 . S
C1596 C1595 1.403 . S
C1596 C1597 1.404 . S
C1596 C1599 1.539 . S
C1597 C1593 1.408 . S
C1597 C1596 1.404 . S
C1597 H1609 0.930 . S
C1598 C1594 1.524 . S
C1598 H1610 0.956 . S
C1598 H1611 0.961 . S
C1598 H1612 0.961 . S
C1599 C1596 1.539 . S
C1599 H1613 0.958 . S
C1599 H1614 0.961 . S
C1599 H1615 0.960 . S
H1600 C1584 0.931 . S
H1601 C1589 0.929 . S
H1602 C1590 0.960 . S
H1603 C1590 0.962 . S
H1604 C1590 0.960 . S
H1605 C1591 0.961 . S
H1606 C1591 0.961 . S
H1607 C1591 0.961 . S
H1608 C1592 0.931 . S
H1609 C1597 0.930 . S
H1610 C1598 0.956 . S
H1611 C1598 0.961 . S
H1612 C1598 0.961 . S
H1613 C1599 0.958 . S
H1614 C1599 0.961 . S
H1615 C1599 0.960 . S
C1616 C1617 1.391 . S
C1616 C1618 1.394 . S
C1616 H1632 0.931 . S
C1617 C1616 1.391 . S
C1617 C1621 1.376 . S
C1618 C1616 1.394 . S
C1618 C1619 1.369 . S
C1618 C1622 1.531 . S
C1619 C1618 1.369 . S
C1619 C1620 1.410 . S
C1619 C1627 1.503 . S
C1620 C1619 1.410 . S
C1620 C1621 1.392 . S
C1620 C1623 1.511 . S
C1621 C1617 1.376 . S
C1621 C1620 1.392 . S
C1621 H1633 0.929 . S
C1622 C1618 1.531 . S
C1622 H1634 0.960 . S
C1622 H1635 0.962 . S
C1622 H1636 0.960 . S
C1623 C1620 1.511 . S
C1623 H1637 0.961 . S
C1623 H1638 0.961 . S
C1623 H1639 0.961 . S
C1624 C1625 1.370 . S
C1624 C1626 1.363 . S
C1624 H1640 0.931 . S
C1625 C1624 1.370 . S
C1625 C1629 1.408 1_556 S
C1626 C1624 1.363 . S
C1626 C1627 1.370 . S
C1626 C1630 1.524 . S
C1627 C1619 1.503 . S
C1627 C1626 1.370 . S
C1627 C1628 1.403 . S
C1628 C1627 1.403 . S
C1628 C1629 1.404 1_556 S
C1628 C1631 1.539 1_556 S
C1629 C1625 1.408 1_554 S
C1629 C1628 1.404 1_554 S
C1629 H1641 0.930 . S
C1630 C1626 1.524 . S
C1630 H1642 0.956 . S
C1630 H1643 0.961 . S
C1630 H1644 0.961 . S
C1631 C1628 1.539 1_554 S
C1631 H1645 0.958 . S
C1631 H1646 0.961 . S
C1631 H1647 0.960 1_554 S
H1632 C1616 0.931 . S
H1633 C1621 0.929 . S
H1634 C1622 0.960 . S
H1635 C1622 0.962 . S
H1636 C1622 0.960 . S
H1637 C1623 0.961 . S
H1638 C1623 0.961 . S
H1639 C1623 0.961 . S
H1640 C1624 0.931 . S
H1641 C1629 0.930 . S
H1642 C1630 0.956 . S
H1643 C1630 0.961 . S
H1644 C1630 0.961 . S
H1645 C1631 0.958 . S
H1646 C1631 0.961 . S
H1647 C1631 0.960 1_556 S
C1648 C1649 1.391 . S
C1648 C1650 1.394 . S
C1648 H1664 0.931 . S
C1649 C1648 1.391 . S
C1649 C1653 1.376 . S
C1650 C1648 1.394 . S
C1650 C1651 1.369 . S
C1650 C1654 1.531 . S
C1651 C1650 1.369 . S
C1651 C1652 1.410 . S
C1651 C1659 1.503 . S
C1652 C1651 1.410 . S
C1652 C1653 1.392 . S
C1652 C1655 1.511 . S
C1653 C1649 1.376 . S
C1653 C1652 1.392 . S
C1653 H1665 0.929 . S
C1654 C1650 1.531 . S
C1654 H1666 0.960 . S
C1654 H1667 0.962 . S
C1654 H1668 0.960 . S
C1655 C1652 1.511 . S
C1655 H1669 0.961 . S
C1655 H1670 0.961 . S
C1655 H1671 0.961 . S
C1656 C1657 1.370 . S
C1656 C1658 1.363 . S
C1656 H1672 0.931 . S
C1657 C1656 1.370 . S
C1657 C1661 1.408 . S
C1658 C1656 1.363 . S
C1658 C1659 1.370 . S
C1658 C1662 1.524 . S
C1659 C1651 1.503 . S
C1659 C1658 1.370 . S
C1659 C1660 1.403 . S
C1660 C1659 1.403 . S
C1660 C1661 1.404 . S
C1660 C1663 1.539 . S
C1661 C1657 1.408 . S
C1661 C1660 1.404 . S
C1661 H1673 0.930 . S
C1662 C1658 1.524 . S
C1662 H1674 0.956 . S
C1662 H1675 0.961 . S
C1662 H1676 0.961 . S
C1663 C1660 1.539 . S
C1663 H1677 0.958 . S
C1663 H1678 0.961 . S
C1663 H1679 0.960 . S
H1664 C1648 0.931 . S
H1665 C1653 0.929 . S
H1666 C1654 0.960 . S
H1667 C1654 0.962 . S
H1668 C1654 0.960 . S
H1669 C1655 0.961 . S
H1670 C1655 0.961 . S
H1671 C1655 0.961 . S
H1672 C1656 0.931 . S
H1673 C1661 0.930 . S
H1674 C1662 0.956 . S
H1675 C1662 0.961 . S
H1676 C1662 0.961 . S
H1677 C1663 0.958 . S
H1678 C1663 0.961 . S
H1679 C1663 0.960 . S
C1680 C1681 1.391 . S
C1680 C1682 1.394 . S
C1680 H1696 0.931 . S
C1681 C1680 1.391 . S
C1681 C1685 1.376 1_545 S
C1682 C1680 1.394 . S
C1682 C1683 1.369 . S
C1682 C1686 1.531 . S
C1683 C1682 1.369 . S
C1683 C1684 1.410 1_545 S
C1683 C1691 1.503 . S
C1684 C1683 1.410 1_565 S
C1684 C1685 1.392 . S
C1684 C1687 1.511 . S
C1685 C1681 1.376 1_565 S
C1685 C1684 1.392 . S
C1685 H1697 0.929 . S
C1686 C1682 1.531 . S
C1686 H1698 0.960 . S
C1686 H1699 0.962 . S
C1686 H1700 0.960 . S
C1687 C1684 1.511 . S
C1687 H1701 0.961 . S
C1687 H1702 0.961 . S
C1687 H1703 0.961 . S
C1688 C1689 1.370 . S
C1688 C1690 1.363 . S
C1688 H1704 0.931 . S
C1689 C1688 1.370 . S
C1689 C1693 1.408 1_545 S
C1690 C1688 1.363 . S
C1690 C1691 1.370 . S
C1690 C1694 1.524 . S
C1691 C1683 1.503 . S
C1691 C1690 1.370 . S
C1691 C1692 1.403 1_545 S
C1692 C1691 1.403 1_565 S
C1692 C1693 1.404 . S
C1692 C1695 1.539 . S
C1693 C1689 1.408 1_565 S
C1693 C1692 1.404 . S
C1693 H1705 0.930 . S
C1694 C1690 1.524 . S
C1694 H1706 0.956 . S
C1694 H1707 0.961 . S
C1694 H1708 0.961 . S
C1695 C1692 1.539 . S
C1695 H1709 0.958 . S
C1695 H1710 0.961 . S
C1695 H1711 0.960 . S
H1696 C1680 0.931 . S
H1697 C1685 0.929 . S
H1698 C1686 0.960 . S
H1699 C1686 0.962 . S
H1700 C1686 0.960 . S
H1701 C1687 0.961 . S
H1702 C1687 0.961 . S
H1703 C1687 0.961 . S
H1704 C1688 0.931 . S
H1705 C1693 0.930 . S
H1706 C1694 0.956 . S
H1707 C1694 0.961 . S
H1708 C1694 0.961 . S
H1709 C1695 0.958 . S
H1710 C1695 0.961 . S
H1711 C1695 0.960 . S
C1712 C1713 1.391 . S
C1712 C1714 1.394 . S
C1712 H1728 0.931 . S
C1713 C1712 1.391 . S
C1713 C1717 1.376 . S
C1714 C1712 1.394 . S
C1714 C1715 1.369 . S
C1714 C1718 1.531 . S
C1715 C1714 1.369 . S
C1715 C1716 1.410 . S
C1715 C1723 1.503 . S
C1716 C1715 1.410 . S
C1716 C1717 1.392 . S
C1716 C1719 1.511 . S
C1717 C1713 1.376 . S
C1717 C1716 1.392 . S
C1717 H1729 0.929 . S
C1718 C1714 1.531 . S
C1718 H1730 0.960 . S
C1718 H1731 0.962 . S
C1718 H1732 0.960 . S
C1719 C1716 1.511 . S
C1719 H1733 0.961 . S
C1719 H1734 0.961 . S
C1719 H1735 0.961 . S
C1720 C1721 1.370 . S
C1720 C1722 1.363 . S
C1720 H1736 0.931 . S
C1721 C1720 1.370 . S
C1721 C1725 1.408 . S
C1722 C1720 1.363 . S
C1722 C1723 1.370 . S
C1722 C1726 1.524 . S
C1723 C1715 1.503 . S
C1723 C1722 1.370 . S
C1723 C1724 1.403 . S
C1724 C1723 1.403 . S
C1724 C1725 1.404 . S
C1724 C1727 1.539 . S
C1725 C1721 1.408 . S
C1725 C1724 1.404 . S
C1725 H1737 0.930 . S
C1726 C1722 1.524 . S
C1726 H1738 0.956 . S
C1726 H1739 0.961 . S
C1726 H1740 0.961 . S
C1727 C1724 1.539 . S
C1727 H1741 0.958 . S
C1727 H1742 0.961 . S
C1727 H1743 0.960 . S
H1728 C1712 0.931 . S
H1729 C1717 0.929 . S
H1730 C1718 0.960 . S
H1731 C1718 0.962 . S
H1732 C1718 0.960 . S
H1733 C1719 0.961 . S
H1734 C1719 0.961 . S
H1735 C1719 0.961 . S
H1736 C1720 0.931 . S
H1737 C1725 0.930 . S
H1738 C1726 0.956 . S
H1739 C1726 0.961 . S
H1740 C1726 0.961 . S
H1741 C1727 0.958 . S
H1742 C1727 0.961 . S
H1743 C1727 0.960 . S
C1744 C1745 1.391 . S
C1744 C1746 1.394 . S
C1744 H1760 0.931 . S
C1745 C1744 1.391 . S
C1745 C1749 1.376 . S
C1746 C1744 1.394 . S
C1746 C1747 1.369 . S
C1746 C1750 1.531 . S
C1747 C1746 1.369 . S
C1747 C1748 1.410 . S
C1747 C1755 1.503 . S
C1748 C1747 1.410 . S
C1748 C1749 1.392 . S
C1748 C1751 1.511 . S
C1749 C1745 1.376 . S
C1749 C1748 1.392 . S
C1749 H1761 0.929 . S
C1750 C1746 1.531 . S
C1750 H1762 0.960 . S
C1750 H1763 0.962 . S
C1750 H1764 0.960 . S
C1751 C1748 1.511 . S
C1751 H1765 0.961 . S
C1751 H1766 0.961 . S
C1751 H1767 0.961 . S
C1752 C1753 1.370 . S
C1752 C1754 1.363 . S
C1752 H1768 0.931 . S
C1753 C1752 1.370 . S
C1753 C1757 1.408 . S
C1754 C1752 1.363 . S
C1754 C1755 1.370 . S
C1754 C1758 1.524 1_545 S
C1755 C1747 1.503 . S
C1755 C1754 1.370 . S
C1755 C1756 1.403 . S
C1756 C1755 1.403 . S
C1756 C1757 1.404 . S
C1756 C1759 1.539 . S
C1757 C1753 1.408 . S
C1757 C1756 1.404 . S
C1757 H1769 0.930 . S
C1758 C1754 1.524 1_565 S
C1758 H1770 0.956 . S
C1758 H1771 0.983 . S
C1758 H1772 0.961 . S
C1759 C1756 1.539 . S
C1759 H1773 0.958 . S
C1759 H1774 0.961 . S
C1759 H1775 0.960 . S
H1760 C1744 0.931 . S
H1761 C1749 0.929 . S
H1762 C1750 0.960 . S
H1763 C1750 0.962 . S
H1764 C1750 0.960 . S
H1765 C1751 0.961 . S
H1766 C1751 0.961 . S
H1767 C1751 0.961 . S
H1768 C1752 0.931 . S
H1769 C1757 0.930 . S
H1770 C1758 0.956 . S
H1771 C1758 0.983 . S
H1772 C1758 0.961 . S
H1773 C1759 0.958 . S
H1774 C1759 0.961 . S
H1775 C1759 0.960 . S
C1776 C1777 1.391 . S
C1776 C1778 1.394 . S
C1776 H1792 0.931 . S
C1777 C1776 1.391 . S
C1777 C1781 1.376 . S
C1778 C1776 1.394 . S
C1778 C1779 1.369 . S
C1778 C1782 1.531 . S
C1779 C1778 1.369 . S
C1779 C1780 1.410 . S
C1779 C1787 1.503 . S
C1780 C1779 1.410 . S
C1780 C1781 1.392 . S
C1780 C1783 1.511 . S
C1781 C1777 1.376 . S
C1781 C1780 1.392 . S
C1781 H1793 0.929 . S
C1782 C1778 1.531 . S
C1782 H1794 0.960 . S
C1782 H1795 0.962 . S
C1782 H1796 0.960 . S
C1783 C1780 1.511 . S
C1783 H1797 0.961 . S
C1783 H1798 0.961 . S
C1783 H1799 0.961 . S
C1784 C1785 1.370 . S
C1784 C1786 1.363 . S
C1784 H1800 0.931 . S
C1785 C1784 1.370 . S
C1785 C1789 1.408 . S
C1786 C1784 1.363 . S
C1786 C1787 1.370 . S
C1786 C1790 1.524 . S
C1787 C1779 1.503 . S
C1787 C1786 1.370 . S
C1787 C1788 1.403 . S
C1788 C1787 1.403 . S
C1788 C1789 1.404 . S
C1788 C1791 1.539 . S
C1789 C1785 1.408 . S
C1789 C1788 1.404 . S
C1789 H1801 0.930 . S
C1790 C1786 1.524 . S
C1790 H1802 0.956 . S
C1790 H1803 0.961 . S
C1790 H1804 0.961 . S
C1791 C1788 1.539 . S
C1791 H1805 0.958 . S
C1791 H1806 0.961 . S
C1791 H1807 0.960 . S
H1792 C1776 0.931 . S
H1793 C1781 0.929 . S
H1794 C1782 0.960 . S
H1795 C1782 0.962 . S
H1796 C1782 0.960 . S
H1797 C1783 0.961 . S
H1798 C1783 0.961 . S
H1799 C1783 0.961 . S
H1800 C1784 0.931 . S
H1801 C1789 0.930 . S
H1802 C1790 0.956 . S
H1803 C1790 0.961 . S
H1804 C1790 0.961 . S
H1805 C1791 0.958 . S
H1806 C1791 0.961 . S
H1807 C1791 0.960 . S
C1808 C1809 1.391 . S
C1808 C1810 1.394 . S
C1808 H1824 0.931 . S
C1809 C1808 1.391 . S
C1809 C1813 1.376 1_565 S
C1810 C1808 1.394 . S
C1810 C1811 1.369 1_565 S
C1810 C1814 1.531 . S
C1811 C1810 1.369 1_545 S
C1811 C1812 1.410 . S
C1811 C1819 1.503 . S
C1812 C1811 1.410 . S
C1812 C1813 1.392 . S
C1812 C1815 1.511 . S
C1813 C1809 1.376 1_545 S
C1813 C1812 1.392 . S
C1813 H1825 0.929 . S
C1814 C1810 1.531 . S
C1814 H1826 0.960 . S
C1814 H1827 0.962 . S
C1814 H1828 0.960 . S
C1815 C1812 1.511 . S
C1815 H1829 0.961 . S
C1815 H1830 0.961 . S
C1815 H1831 0.961 . S
C1816 C1817 1.370 . S
C1816 C1818 1.363 . S
C1816 H1832 0.931 . S
C1817 C1816 1.370 . S
C1817 C1821 1.408 . S
C1818 C1816 1.363 . S
C1818 C1819 1.370 . S
C1818 C1822 1.524 . S
C1819 C1811 1.503 . S
C1819 C1818 1.370 . S
C1819 C1820 1.403 1_545 S
C1820 C1819 1.403 1_565 S
C1820 C1821 1.404 1_565 S
C1820 C1823 1.539 . S
C1821 C1817 1.408 . S
C1821 C1820 1.404 1_545 S
C1821 H1833 0.930 1_545 S
C1822 C1818 1.524 . S
C1822 H1834 0.956 . S
C1822 H1835 0.961 . S
C1822 H1836 0.961 . S
C1823 C1820 1.539 . S
C1823 H1837 0.958 . S
C1823 H1838 0.961 . S
C1823 H1839 0.960 . S
H1824 C1808 0.931 . S
H1825 C1813 0.929 . S
H1826 C1814 0.960 . S
H1827 C1814 0.962 . S
H1828 C1814 0.960 . S
H1829 C1815 0.961 . S
H1830 C1815 0.961 . S
H1831 C1815 0.961 . S
H1832 C1816 0.931 . S
H1833 C1821 0.930 1_565 S
H1834 C1822 0.956 . S
H1835 C1822 0.961 . S
H1836 C1822 0.961 . S
H1837 C1823 0.958 . S
H1838 C1823 0.961 . S
H1839 C1823 0.960 . S
C1840 C1841 1.391 . S
C1840 C1842 1.394 . S
C1840 H1856 0.931 . S
C1841 C1840 1.391 . S
C1841 C1845 1.376 . S
C1842 C1840 1.394 . S
C1842 C1843 1.369 . S
C1842 C1846 1.531 . S
C1843 C1842 1.369 . S
C1843 C1844 1.410 . S
C1843 C1851 1.503 . S
C1844 C1843 1.410 . S
C1844 C1845 1.392 . S
C1844 C1847 1.511 . S
C1845 C1841 1.376 . S
C1845 C1844 1.392 . S
C1845 H1857 0.929 . S
C1846 C1842 1.531 . S
C1846 H1858 0.960 . S
C1846 H1859 0.962 . S
C1846 H1860 0.960 . S
C1847 C1844 1.511 . S
C1847 H1861 0.961 . S
C1847 H1862 0.961 . S
C1847 H1863 0.961 . S
C1848 C1849 1.370 . S
C1848 C1850 1.363 . S
C1848 H1864 0.931 . S
C1849 C1848 1.370 . S
C1849 C1853 1.408 . S
C1850 C1848 1.363 . S
C1850 C1851 1.370 . S
C1850 C1854 1.524 . S
C1851 C1843 1.503 . S
C1851 C1850 1.370 . S
C1851 C1852 1.403 . S
C1852 C1851 1.403 . S
C1852 C1853 1.404 . S
C1852 C1855 1.539 . S
C1853 C1849 1.408 . S
C1853 C1852 1.404 . S
C1853 H1865 0.930 . S
C1854 C1850 1.524 . S
C1854 H1866 0.956 . S
C1854 H1867 0.961 . S
C1854 H1868 0.961 . S
C1855 C1852 1.539 . S
C1855 H1869 0.958 . S
C1855 H1870 0.961 . S
C1855 H1871 0.960 . S
H1856 C1840 0.931 . S
H1857 C1845 0.929 . S
H1858 C1846 0.960 . S
H1859 C1846 0.962 . S
H1860 C1846 0.960 . S
H1861 C1847 0.961 . S
H1862 C1847 0.961 . S
H1863 C1847 0.961 . S
H1864 C1848 0.931 . S
H1865 C1853 0.930 . S
H1866 C1854 0.956 . S
H1867 C1854 0.961 . S
H1868 C1854 0.961 . S
H1869 C1855 0.958 . S
H1870 C1855 0.961 . S
H1871 C1855 0.960 . S
C1872 C1873 1.391 . S
C1872 C1874 1.394 . S
C1872 H1888 0.931 . S
C1873 C1872 1.391 . S
C1873 C1877 1.376 . S
C1874 C1872 1.394 . S
C1874 C1875 1.369 . S
C1874 C1878 1.531 . S
C1875 C1874 1.369 . S
C1875 C1876 1.410 . S
C1875 C1883 1.503 . S
C1876 C1875 1.410 . S
C1876 C1877 1.392 . S
C1876 C1879 1.511 1_545 S
C1877 C1873 1.376 . S
C1877 C1876 1.392 . S
C1877 H1889 0.929 1_545 S
C1878 C1874 1.531 . S
C1878 H1890 0.960 . S
C1878 H1891 0.962 . S
C1878 H1892 0.960 . S
C1879 C1876 1.511 1_565 S
C1879 H1893 0.961 . S
C1879 H1894 0.961 . S
C1879 H1895 0.961 . S
C1880 C1881 1.370 . S
C1880 C1882 1.365 . S
C1880 H1896 0.929 1_545 S
C1881 C1880 1.370 . S
C1881 C1885 1.408 . S
C1882 C1880 1.365 . S
C1882 C1883 1.370 . S
C1882 C1886 1.524 1_545 S
C1883 C1875 1.503 . S
C1883 C1882 1.370 . S
C1883 C1884 1.403 . S
C1884 C1883 1.403 . S
C1884 C1885 1.404 . S
C1884 C1887 1.539 . S
C1885 C1881 1.408 . S
C1885 C1884 1.404 . S
C1885 H1897 0.930 . S
C1886 C1882 1.524 1_565 S
C1886 H1898 0.956 1_565 S
C1886 H1899 0.961 . S
C1886 H1900 0.961 . S
C1887 C1884 1.539 . S
C1887 H1901 0.958 . S
C1887 H1902 0.961 . S
C1887 H1903 0.960 . S
H1888 C1872 0.931 . S
H1889 C1877 0.929 1_565 S
H1890 C1878 0.960 . S
H1891 C1878 0.962 . S
H1892 C1878 0.960 . S
H1893 C1879 0.961 . S
H1894 C1879 0.961 . S
H1895 C1879 0.961 . S
H1896 C1880 0.929 1_565 S
H1897 C1885 0.930 . S
H1898 C1886 0.956 1_545 S
H1899 C1886 0.961 . S
H1900 C1886 0.961 . S
H1901 C1887 0.958 . S
H1902 C1887 0.961 . S
H1903 C1887 0.960 . S
C1904 C1905 1.391 . S
C1904 C1906 1.394 . S
C1904 H1920 0.931 . S
C1905 C1904 1.391 . S
C1905 C1909 1.376 . S
C1906 C1904 1.394 . S
C1906 C1907 1.369 . S
C1906 C1910 1.531 . S
C1907 C1906 1.369 . S
C1907 C1908 1.410 . S
C1907 C1915 1.503 . S
C1908 C1907 1.410 . S
C1908 C1909 1.392 . S
C1908 C1911 1.511 . S
C1909 C1905 1.376 . S
C1909 C1908 1.392 . S
C1909 H1921 0.929 . S
C1910 C1906 1.531 . S
C1910 H1922 0.960 . S
C1910 H1923 0.962 . S
C1910 H1924 0.960 . S
C1911 C1908 1.511 . S
C1911 H1925 0.961 . S
C1911 H1926 0.961 . S
C1911 H1927 0.961 . S
C1912 C1913 1.370 . S
C1912 C1914 1.363 . S
C1912 H1928 0.931 . S
C1913 C1912 1.370 . S
C1913 C1917 1.408 . S
C1914 C1912 1.363 . S
C1914 C1915 1.370 . S
C1914 C1918 1.524 . S
C1915 C1907 1.503 . S
C1915 C1914 1.370 . S
C1915 C1916 1.403 . S
C1916 C1915 1.403 . S
C1916 C1917 1.404 . S
C1916 C1919 1.539 . S
C1917 C1913 1.408 . S
C1917 C1916 1.404 . S
C1917 H1929 0.930 . S
C1918 C1914 1.524 . S
C1918 H1930 0.956 . S
C1918 H1931 0.961 . S
C1918 H1932 0.961 . S
C1919 C1916 1.539 . S
C1919 H1933 0.958 . S
C1919 H1934 0.961 . S
C1919 H1935 0.960 . S
H1920 C1904 0.931 . S
H1921 C1909 0.929 . S
H1922 C1910 0.960 . S
H1923 C1910 0.962 . S
H1924 C1910 0.960 . S
H1925 C1911 0.961 . S
H1926 C1911 0.961 . S
H1927 C1911 0.961 . S
H1928 C1912 0.931 . S
H1929 C1917 0.930 . S
H1930 C1918 0.956 . S
H1931 C1918 0.961 . S
H1932 C1918 0.961 . S
H1933 C1919 0.958 . S
H1934 C1919 0.961 . S
H1935 C1919 0.960 . S
C1936 C1937 1.391 . S
C1936 C1938 1.394 . S
C1936 H1952 0.931 . S
C1937 C1936 1.391 . S
C1937 C1941 1.376 1_554 S
C1938 C1936 1.394 . S
C1938 C1939 1.369 . S
C1938 C1942 1.531 . S
C1939 C1938 1.369 . S
C1939 C1940 1.410 1_554 S
C1939 C1947 1.503 . S
C1940 C1939 1.410 1_556 S
C1940 C1941 1.392 . S
C1940 C1943 1.511 . S
C1941 C1937 1.376 1_556 S
C1941 C1940 1.392 . S
C1941 H1953 0.929 . S
C1942 C1938 1.531 . S
C1942 H1954 0.960 . S
C1942 H1955 0.962 . S
C1942 H1956 0.960 . S
C1943 C1940 1.511 . S
C1943 H1957 0.961 . S
C1943 H1958 0.961 . S
C1943 H1959 0.961 . S
C1944 C1945 1.370 . S
C1944 C1946 1.363 . S
C1944 H1960 0.931 . S
C1945 C1944 1.370 . S
C1945 C1949 1.408 1_556 S
C1946 C1944 1.363 . S
C1946 C1947 1.370 1_556 S
C1946 C1950 1.524 . S
C1947 C1939 1.503 . S
C1947 C1946 1.370 1_554 S
C1947 C1948 1.403 . S
C1948 C1947 1.403 . S
C1948 C1949 1.404 . S
C1948 C1951 1.539 . S
C1949 C1945 1.408 1_554 S
C1949 C1948 1.404 . S
C1949 H1961 0.930 . S
C1950 C1946 1.524 . S
C1950 H1962 0.956 . S
C1950 H1963 0.961 . S
C1950 H1964 0.961 . S
C1951 C1948 1.539 . S
C1951 H1965 0.958 . S
C1951 H1966 0.961 . S
C1951 H1967 0.960 . S
H1952 C1936 0.931 . S
H1953 C1941 0.929 . S
H1954 C1942 0.960 . S
H1955 C1942 0.962 . S
H1956 C1942 0.960 . S
H1957 C1943 0.961 . S
H1958 C1943 0.961 . S
H1959 C1943 0.961 . S
H1960 C1944 0.931 . S
H1961 C1949 0.930 . S
H1962 C1950 0.956 . S
H1963 C1950 0.961 . S
H1964 C1950 0.961 . S
H1965 C1951 0.958 . S
H1966 C1951 0.961 . S
H1967 C1951 0.960 . S
C1968 C1969 1.391 . S
C1968 C1970 1.394 . S
C1968 H1984 0.931 . S
C1969 C1968 1.391 . S
C1969 C1973 1.376 . S
C1970 C1968 1.394 . S
C1970 C1971 1.369 . S
C1970 C1974 1.531 . S
C1971 C1970 1.369 . S
C1971 C1972 1.410 . S
C1971 C1979 1.503 . S
C1972 C1971 1.410 . S
C1972 C1973 1.392 . S
C1972 C1975 1.511 1_554 S
C1973 C1969 1.376 . S
C1973 C1972 1.392 . S
C1973 H1985 0.929 1_554 S
C1974 C1970 1.531 . S
C1974 H1986 0.960 . S
C1974 H1987 0.962 . S
C1974 H1988 0.960 . S
C1975 C1972 1.511 1_556 S
C1975 H1989 0.961 . S
C1975 H1990 0.961 . S
C1975 H1991 0.961 . S
C1976 C1977 1.370 . S
C1976 C1978 1.363 . S
C1976 H1992 0.931 . S
C1977 C1976 1.370 . S
C1977 C1981 1.408 . S
C1978 C1976 1.363 . S
C1978 C1979 1.370 . S
C1978 C1982 1.524 1_554 S
C1979 C1971 1.503 . S
C1979 C1978 1.370 . S
C1979 C1980 1.403 . S
C1980 C1979 1.403 . S
C1980 C1981 1.404 . S
C1980 C1983 1.539 . S
C1981 C1977 1.408 . S
C1981 C1980 1.404 . S
C1981 H1993 0.930 . S
C1982 C1978 1.524 1_556 S
C1982 H1994 0.956 1_556 S
C1982 H1995 0.960 . S
C1982 H1996 0.960 . S
C1983 C1980 1.539 . S
C1983 H1997 0.958 . S
C1983 H1998 0.961 . S
C1983 H1999 0.960 . S
H1984 C1968 0.931 . S
H1985 C1973 0.929 1_556 S
H1986 C1974 0.960 . S
H1987 C1974 0.962 . S
H1988 C1974 0.960 . S
H1989 C1975 0.961 . S
H1990 C1975 0.961 . S
H1991 C1975 0.961 . S
H1992 C1976 0.931 . S
H1993 C1981 0.930 . S
H1994 C1982 0.956 1_554 S
H1995 C1982 0.960 . S
H1996 C1982 0.960 . S
H1997 C1983 0.958 . S
H1998 C1983 0.961 . S
H1999 C1983 0.960 . S
C2000 C2001 1.391 . S
C2000 C2002 1.394 . S
C2000 H2016 0.931 . S
C2001 C2000 1.391 . S
C2001 C2005 1.376 . S
C2002 C2000 1.394 . S
C2002 C2003 1.369 . S
C2002 C2006 1.531 . S
C2003 C2002 1.369 . S
C2003 C2004 1.410 . S
C2003 C2011 1.503 . S
C2004 C2003 1.410 . S
C2004 C2005 1.392 . S
C2004 C2007 1.511 . S
C2005 C2001 1.376 . S
C2005 C2004 1.392 . S
C2005 H2017 0.929 . S
C2006 C2002 1.531 . S
C2006 H2018 0.960 . S
C2006 H2019 0.962 . S
C2006 H2020 0.960 . S
C2007 C2004 1.511 . S
C2007 H2021 0.961 . S
C2007 H2022 0.961 . S
C2007 H2023 0.961 . S
C2008 C2009 1.370 . S
C2008 C2010 1.363 . S
C2008 H2024 0.931 . S
C2009 C2008 1.370 . S
C2009 C2013 1.408 . S
C2010 C2008 1.363 . S
C2010 C2011 1.370 . S
C2010 C2014 1.524 . S
C2011 C2003 1.503 . S
C2011 C2010 1.370 . S
C2011 C2012 1.403 . S
C2012 C2011 1.403 . S
C2012 C2013 1.404 . S
C2012 C2015 1.539 . S
C2013 C2009 1.408 . S
C2013 C2012 1.404 . S
C2013 H2025 0.930 . S
C2014 C2010 1.524 . S
C2014 H2026 0.956 . S
C2014 H2027 0.961 . S
C2014 H2028 0.961 . S
C2015 C2012 1.539 . S
C2015 H2029 0.958 . S
C2015 H2030 0.961 . S
C2015 H2031 0.960 . S
H2016 C2000 0.931 . S
H2017 C2005 0.929 . S
H2018 C2006 0.960 . S
H2019 C2006 0.962 . S
H2020 C2006 0.960 . S
H2021 C2007 0.961 . S
H2022 C2007 0.961 . S
H2023 C2007 0.961 . S
H2024 C2008 0.931 . S
H2025 C2013 0.930 . S
H2026 C2014 0.956 . S
H2027 C2014 0.961 . S
H2028 C2014 0.961 . S
H2029 C2015 0.958 . S
H2030 C2015 0.961 . S
H2031 C2015 0.960 . S
C2032 C2033 1.391 . S
C2032 C2034 1.394 . S
C2032 H2048 0.931 . S
C2033 C2032 1.391 . S
C2033 C2037 1.376 . S
C2034 C2032 1.394 . S
C2034 C2035 1.369 . S
C2034 C2038 1.531 . S
C2035 C2034 1.369 . S
C2035 C2036 1.410 . S
C2035 C2043 1.503 . S
C2036 C2035 1.410 . S
C2036 C2037 1.392 . S
C2036 C2039 1.511 . S
C2037 C2033 1.376 . S
C2037 C2036 1.392 . S
C2037 H2049 0.929 . S
C2038 C2034 1.531 . S
C2038 H2050 0.960 . S
C2038 H2051 0.962 . S
C2038 H2052 0.960 . S
C2039 C2036 1.511 . S
C2039 H2053 0.961 . S
C2039 H2054 0.961 . S
C2039 H2055 0.961 . S
C2040 C2041 1.370 . S
C2040 C2042 1.363 . S
C2040 H2056 0.931 . S
C2041 C2040 1.370 . S
C2041 C2045 1.408 . S
C2042 C2040 1.363 . S
C2042 C2043 1.370 . S
C2042 C2046 1.524 . S
C2043 C2035 1.503 . S
C2043 C2042 1.370 . S
C2043 C2044 1.403 . S
C2044 C2043 1.403 . S
C2044 C2045 1.404 . S
C2044 C2047 1.539 . S
C2045 C2041 1.408 . S
C2045 C2044 1.404 . S
C2045 H2057 0.930 . S
C2046 C2042 1.524 . S
C2046 H2058 0.956 . S
C2046 H2059 0.961 . S
C2046 H2060 0.961 . S
C2047 C2044 1.539 . S
C2047 H2061 0.958 . S
C2047 H2062 0.961 . S
C2047 H2063 0.960 . S
H2048 C2032 0.931 . S
H2049 C2037 0.929 . S
H2050 C2038 0.960 . S
H2051 C2038 0.962 . S
H2052 C2038 0.960 . S
H2053 C2039 0.961 . S
H2054 C2039 0.961 . S
H2055 C2039 0.961 . S
H2056 C2040 0.931 . S
H2057 C2045 0.930 . S
H2058 C2046 0.956 . S
H2059 C2046 0.961 . S
H2060 C2046 0.961 . S
H2061 C2047 0.958 . S
H2062 C2047 0.961 . S
H2063 C2047 0.960 . S
C2064 C2065 1.391 . S
C2064 C2066 1.394 . S
C2064 H2080 0.931 . S
C2065 C2064 1.391 . S
C2065 C2069 1.376 . S
C2066 C2064 1.394 . S
C2066 C2067 1.369 . S
C2066 C2070 1.531 . S
C2067 C2066 1.369 . S
C2067 C2068 1.410 . S
C2067 C2075 1.503 . S
C2068 C2067 1.410 . S
C2068 C2069 1.392 . S
C2068 C2071 1.511 . S
C2069 C2065 1.376 . S
C2069 C2068 1.392 . S
C2069 H2081 0.929 . S
C2070 C2066 1.531 . S
C2070 H2082 0.960 . S
C2070 H2083 0.962 . S
C2070 H2084 0.960 . S
C2071 C2068 1.511 . S
C2071 H2085 0.961 . S
C2071 H2086 0.961 . S
C2071 H2087 0.961 . S
C2072 C2073 1.370 . S
C2072 C2074 1.363 . S
C2072 H2088 0.931 . S
C2073 C2072 1.370 . S
C2073 C2077 1.408 . S
C2074 C2072 1.363 . S
C2074 C2075 1.370 . S
C2074 C2078 1.524 . S
C2075 C2067 1.503 . S
C2075 C2074 1.370 . S
C2075 C2076 1.403 . S
C2076 C2075 1.403 . S
C2076 C2077 1.404 . S
C2076 C2079 1.539 . S
C2077 C2073 1.408 . S
C2077 C2076 1.404 . S
C2077 H2089 0.930 . S
C2078 C2074 1.524 . S
C2078 H2090 0.956 . S
C2078 H2091 0.961 . S
C2078 H2092 0.961 . S
C2079 C2076 1.539 . S
C2079 H2093 0.958 . S
C2079 H2094 0.961 . S
C2079 H2095 0.960 . S
H2080 C2064 0.931 . S
H2081 C2069 0.929 . S
H2082 C2070 0.960 . S
H2083 C2070 0.962 . S
H2084 C2070 0.960 . S
H2085 C2071 0.961 . S
H2086 C2071 0.961 . S
H2087 C2071 0.961 . S
H2088 C2072 0.931 . S
H2089 C2077 0.930 . S
H2090 C2078 0.956 . S
H2091 C2078 0.961 . S
H2092 C2078 0.961 . S
H2093 C2079 0.958 . S
H2094 C2079 0.961 . S
H2095 C2079 0.960 . S
C2096 C2097 1.391 . S
C2096 C2098 1.394 . S
C2096 H2112 0.931 . S
C2097 C2096 1.391 . S
C2097 C2101 1.376 . S
C2098 C2096 1.394 . S
C2098 C2099 1.369 . S
C2098 C2102 1.531 . S
C2099 C2098 1.369 . S
C2099 C2100 1.410 . S
C2099 C2107 1.503 . S
C2100 C2099 1.410 . S
C2100 C2101 1.392 . S
C2100 C2103 1.511 . S
C2101 C2097 1.376 . S
C2101 C2100 1.392 . S
C2101 H2113 0.929 . S
C2102 C2098 1.531 . S
C2102 H2114 0.960 . S
C2102 H2115 0.962 . S
C2102 H2116 0.960 . S
C2103 C2100 1.511 . S
C2103 H2117 0.961 . S
C2103 H2118 0.961 . S
C2103 H2119 0.961 . S
C2104 C2105 1.370 . S
C2104 C2106 1.363 . S
C2104 H2120 0.931 1_565 S
C2105 C2104 1.370 . S
C2105 C2109 1.408 . S
C2106 C2104 1.363 . S
C2106 C2107 1.370 . S
C2106 C2110 1.524 . S
C2107 C2099 1.503 . S
C2107 C2106 1.370 . S
C2107 C2108 1.403 . S
C2108 C2107 1.403 . S
C2108 C2109 1.404 . S
C2108 C2111 1.539 . S
C2109 C2105 1.408 . S
C2109 C2108 1.404 . S
C2109 H2121 0.930 . S
C2110 C2106 1.524 . S
C2110 H2122 0.956 . S
C2110 H2123 0.961 . S
C2110 H2124 0.961 1_565 S
C2111 C2108 1.539 . S
C2111 H2125 0.958 . S
C2111 H2126 0.961 . S
C2111 H2127 0.960 . S
H2112 C2096 0.931 . S
H2113 C2101 0.929 . S
H2114 C2102 0.960 . S
H2115 C2102 0.962 . S
H2116 C2102 0.960 . S
H2117 C2103 0.961 . S
H2118 C2103 0.961 . S
H2119 C2103 0.961 . S
H2120 C2104 0.931 1_545 S
H2121 C2109 0.930 . S
H2122 C2110 0.956 . S
H2123 C2110 0.961 . S
H2124 C2110 0.961 1_545 S
H2125 C2111 0.958 . S
H2126 C2111 0.961 . S
H2127 C2111 0.960 . S
C2128 C2129 1.391 . S
C2128 C2130 1.394 . S
C2128 H2144 0.931 . S
C2129 C2128 1.391 . S
C2129 C2133 1.376 . S
C2130 C2128 1.394 . S
C2130 C2131 1.369 . S
C2130 C2134 1.531 . S
C2131 C2130 1.369 . S
C2131 C2132 1.410 . S
C2131 C2139 1.503 . S
C2132 C2131 1.410 . S
C2132 C2133 1.392 . S
C2132 C2135 1.511 . S
C2133 C2129 1.376 . S
C2133 C2132 1.392 . S
C2133 H2145 0.929 . S
C2134 C2130 1.531 . S
C2134 H2146 0.960 . S
C2134 H2147 0.962 . S
C2134 H2148 0.960 . S
C2135 C2132 1.511 . S
C2135 H2149 0.961 . S
C2135 H2150 0.961 . S
C2135 H2151 0.961 . S
C2136 C2137 1.370 . S
C2136 C2138 1.363 . S
C2136 H2152 0.931 . S
C2137 C2136 1.370 . S
C2137 C2141 1.408 . S
C2138 C2136 1.363 . S
C2138 C2139 1.370 . S
C2138 C2142 1.524 . S
C2139 C2131 1.503 . S
C2139 C2138 1.370 . S
C2139 C2140 1.403 . S
C2140 C2139 1.403 . S
C2140 C2141 1.404 . S
C2140 C2143 1.539 . S
C2141 C2137 1.408 . S
C2141 C2140 1.404 . S
C2141 H2153 0.930 . S
C2142 C2138 1.524 . S
C2142 H2154 0.956 . S
C2142 H2155 0.961 . S
C2142 H2156 0.961 . S
C2143 C2140 1.539 . S
C2143 H2157 0.958 . S
C2143 H2158 0.961 . S
C2143 H2159 0.960 . S
H2144 C2128 0.931 . S
H2145 C2133 0.929 . S
H2146 C2134 0.960 . S
H2147 C2134 0.962 . S
H2148 C2134 0.960 . S
H2149 C2135 0.961 . S
H2150 C2135 0.961 . S
H2151 C2135 0.961 . S
H2152 C2136 0.931 . S
H2153 C2141 0.930 . S
H2154 C2142 0.956 . S
H2155 C2142 0.961 . S
H2156 C2142 0.961 . S
H2157 C2143 0.958 . S
H2158 C2143 0.961 . S
H2159 C2143 0.960 . S
C2160 C2161 1.391 . S
C2160 C2162 1.394 . S
C2160 H2176 0.931 . S
C2161 C2160 1.391 . S
C2161 C2165 1.376 . S
C2162 C2160 1.394 . S
C2162 C2163 1.369 . S
C2162 C2166 1.531 . S
C2163 C2162 1.369 . S
C2163 C2164 1.410 . S
C2163 C2171 1.503 . S
C2164 C2163 1.410 . S
C2164 C2165 1.392 . S
C2164 C2167 1.511 . S
C2165 C2161 1.376 . S
C2165 C2164 1.392 . S
C2165 H2177 0.929 . S
C2166 C2162 1.531 . S
C2166 H2178 0.960 . S
C2166 H2179 0.962 . S
C2166 H2180 0.960 . S
C2167 C2164 1.511 . S
C2167 H2181 0.961 . S
C2167 H2182 0.961 . S
C2167 H2183 0.961 . S
C2168 C2169 1.370 . S
C2168 C2170 1.363 . S
C2168 H2184 0.931 . S
C2169 C2168 1.370 . S
C2169 C2173 1.408 . S
C2170 C2168 1.363 . S
C2170 C2171 1.370 . S
C2170 C2174 1.524 . S
C2171 C2163 1.503 . S
C2171 C2170 1.370 . S
C2171 C2172 1.403 . S
C2172 C2171 1.403 . S
C2172 C2173 1.404 . S
C2172 C2175 1.539 . S
C2173 C2169 1.408 . S
C2173 C2172 1.404 . S
C2173 H2185 0.930 . S
C2174 C2170 1.524 . S
C2174 H2186 0.956 . S
C2174 H2187 0.961 . S
C2174 H2188 0.961 . S
C2175 C2172 1.539 . S
C2175 H2189 0.958 . S
C2175 H2190 0.961 . S
C2175 H2191 0.960 . S
H2176 C2160 0.931 . S
H2177 C2165 0.929 . S
H2178 C2166 0.960 . S
H2179 C2166 0.962 . S
H2180 C2166 0.960 . S
H2181 C2167 0.961 . S
H2182 C2167 0.961 . S
H2183 C2167 0.961 . S
H2184 C2168 0.931 . S
H2185 C2173 0.930 . S
H2186 C2174 0.956 . S
H2187 C2174 0.961 . S
H2188 C2174 0.961 . S
H2189 C2175 0.958 . S
H2190 C2175 0.961 . S
H2191 C2175 0.960 . S
C2192 C2193 1.391 . S
C2192 C2194 1.394 . S
C2192 H2208 0.931 . S
C2193 C2192 1.391 . S
C2193 C2197 1.376 . S
C2194 C2192 1.394 . S
C2194 C2195 1.369 . S
C2194 C2198 1.531 . S
C2195 C2194 1.369 . S
C2195 C2196 1.410 . S
C2195 C2203 1.503 . S
C2196 C2195 1.410 . S
C2196 C2197 1.392 . S
C2196 C2199 1.511 . S
C2197 C2193 1.376 . S
C2197 C2196 1.392 . S
C2197 H2209 0.929 . S
C2198 C2194 1.531 . S
C2198 H2210 0.960 . S
C2198 H2211 0.962 . S
C2198 H2212 0.960 . S
C2199 C2196 1.511 . S
C2199 H2213 0.961 . S
C2199 H2214 0.961 . S
C2199 H2215 0.961 . S
C2200 C2201 1.370 . S
C2200 C2202 1.363 . S
C2200 H2216 0.931 . S
C2201 C2200 1.370 . S
C2201 C2205 1.408 . S
C2202 C2200 1.363 . S
C2202 C2203 1.370 . S
C2202 C2206 1.524 . S
C2203 C2195 1.503 . S
C2203 C2202 1.370 . S
C2203 C2204 1.403 . S
C2204 C2203 1.403 . S
C2204 C2205 1.404 . S
C2204 C2207 1.539 . S
C2205 C2201 1.408 . S
C2205 C2204 1.404 . S
C2205 H2217 0.930 . S
C2206 C2202 1.524 . S
C2206 H2218 0.956 . S
C2206 H2219 0.961 . S
C2206 H2220 0.961 . S
C2207 C2204 1.539 . S
C2207 H2221 0.958 . S
C2207 H2222 0.961 . S
C2207 H2223 0.960 . S
H2208 C2192 0.931 . S
H2209 C2197 0.929 . S
H2210 C2198 0.960 . S
H2211 C2198 0.962 . S
H2212 C2198 0.960 . S
H2213 C2199 0.961 . S
H2214 C2199 0.961 . S
H2215 C2199 0.961 . S
H2216 C2200 0.931 . S
H2217 C2205 0.930 . S
H2218 C2206 0.956 . S
H2219 C2206 0.961 . S
H2220 C2206 0.961 . S
H2221 C2207 0.958 . S
H2222 C2207 0.961 . S
H2223 C2207 0.960 . S
C2224 C2225 1.391 . S
C2224 C2226 1.394 . S
C2224 H2240 0.931 . S
C2225 C2224 1.391 . S
C2225 C2229 1.376 . S
C2226 C2224 1.394 . S
C2226 C2227 1.369 . S
C2226 C2230 1.531 . S
C2227 C2226 1.369 . S
C2227 C2228 1.410 . S
C2227 C2235 1.503 . S
C2228 C2227 1.410 . S
C2228 C2229 1.392 . S
C2228 C2231 1.511 . S
C2229 C2225 1.376 . S
C2229 C2228 1.392 . S
C2229 H2241 0.929 . S
C2230 C2226 1.531 . S
C2230 H2242 0.960 . S
C2230 H2243 0.962 . S
C2230 H2244 0.960 . S
C2231 C2228 1.511 . S
C2231 H2245 0.961 . S
C2231 H2246 0.961 . S
C2231 H2247 0.961 . S
C2232 C2233 1.370 . S
C2232 C2234 1.363 . S
C2232 H2248 0.931 . S
C2233 C2232 1.370 . S
C2233 C2237 1.408 . S
C2234 C2232 1.363 . S
C2234 C2235 1.370 . S
C2234 C2238 1.524 . S
C2235 C2227 1.503 . S
C2235 C2234 1.370 . S
C2235 C2236 1.403 . S
C2236 C2235 1.403 . S
C2236 C2237 1.404 . S
C2236 C2239 1.539 . S
C2237 C2233 1.408 . S
C2237 C2236 1.404 . S
C2237 H2249 0.930 . S
C2238 C2234 1.524 . S
C2238 H2250 0.956 . S
C2238 H2251 0.961 . S
C2238 H2252 0.961 . S
C2239 C2236 1.539 . S
C2239 H2253 0.958 . S
C2239 H2254 0.961 . S
C2239 H2255 0.960 . S
H2240 C2224 0.931 . S
H2241 C2229 0.929 . S
H2242 C2230 0.960 . S
H2243 C2230 0.962 . S
H2244 C2230 0.960 . S
H2245 C2231 0.961 . S
H2246 C2231 0.961 . S
H2247 C2231 0.961 . S
H2248 C2232 0.931 . S
H2249 C2237 0.930 . S
H2250 C2238 0.956 . S
H2251 C2238 0.961 . S
H2252 C2238 0.961 . S
H2253 C2239 0.958 . S
H2254 C2239 0.961 . S
H2255 C2239 0.960 . S
C2256 C2257 1.391 1_655 S
C2256 C2258 1.394 . S
C2256 H2272 0.931 . S
C2257 C2256 1.391 1_455 S
C2257 C2261 1.376 . S
C2258 C2256 1.394 . S
C2258 C2259 1.369 1_655 S
C2258 C2262 1.531 . S
C2259 C2258 1.369 1_455 S
C2259 C2260 1.410 . S
C2259 C2267 1.503 . S
C2260 C2259 1.410 . S
C2260 C2261 1.392 . S
C2260 C2263 1.511 1_556 S
C2261 C2257 1.376 . S
C2261 C2260 1.392 . S
C2261 H2273 0.929 . S
C2262 C2258 1.531 . S
C2262 H2274 0.960 . S
C2262 H2275 0.969 . S
C2262 H2276 0.960 . S
C2263 C2260 1.511 1_554 S
C2263 H2277 0.961 . S
C2263 H2278 0.961 . S
C2263 H2279 0.961 . S
C2264 C2265 1.370 . S
C2264 C2266 1.363 1_554 S
C2264 H2280 0.931 . S
C2265 C2264 1.370 . S
C2265 C2269 1.408 1_455 S
C2266 C2264 1.363 1_556 S
C2266 C2267 1.370 . S
C2266 C2270 1.524 . S
C2267 C2259 1.503 . S
C2267 C2266 1.370 . S
C2267 C2268 1.403 1_455 S
C2268 C2267 1.403 1_655 S
C2268 C2269 1.404 1_556 S
C2268 C2271 1.539 . S
C2269 C2265 1.408 1_655 S
C2269 C2268 1.404 1_554 S
C2269 H2281 0.930 . S
C2270 C2266 1.524 . S
C2270 H2282 0.956 . S
C2270 H2283 0.961 . S
C2270 H2284 0.961 . S
C2271 C2268 1.539 . S
C2271 H2285 0.958 . S
C2271 H2286 0.961 1_556 S
C2271 H2287 0.960 . S
H2272 C2256 0.931 . S
H2273 C2261 0.929 . S
H2274 C2262 0.960 . S
H2275 C2262 0.969 . S
H2276 C2262 0.960 . S
H2277 C2263 0.961 . S
H2278 C2263 0.961 . S
H2279 C2263 0.961 . S
H2280 C2264 0.931 . S
H2281 C2269 0.930 . S
H2282 C2270 0.956 . S
H2283 C2270 0.961 . S
H2284 C2270 0.961 . S
H2285 C2271 0.958 . S
H2286 C2271 0.961 1_554 S
H2287 C2271 0.960 . S
C2288 C2289 1.391 . S
C2288 C2290 1.394 . S
C2288 H2304 0.931 . S
C2289 C2288 1.391 . S
C2289 C2293 1.376 . S
C2290 C2288 1.394 . S
C2290 C2291 1.369 . S
C2290 C2294 1.531 . S
C2291 C2290 1.369 . S
C2291 C2292 1.410 . S
C2291 C2299 1.503 . S
C2292 C2291 1.410 . S
C2292 C2293 1.392 . S
C2292 C2295 1.511 . S
C2293 C2289 1.376 . S
C2293 C2292 1.392 . S
C2293 H2305 0.929 . S
C2294 C2290 1.531 . S
C2294 H2306 0.960 . S
C2294 H2307 0.962 . S
C2294 H2308 0.960 . S
C2295 C2292 1.511 . S
C2295 H2309 0.961 . S
C2295 H2310 0.961 . S
C2295 H2311 0.961 . S
C2296 C2297 1.370 . S
C2296 C2298 1.363 . S
C2296 H2312 0.931 . S
C2297 C2296 1.370 . S
C2297 C2301 1.408 . S
C2298 C2296 1.363 . S
C2298 C2299 1.370 . S
C2298 C2302 1.524 . S
C2299 C2291 1.503 . S
C2299 C2298 1.370 . S
C2299 C2300 1.403 . S
C2300 C2299 1.403 . S
C2300 C2301 1.404 . S
C2300 C2303 1.539 . S
C2301 C2297 1.408 . S
C2301 C2300 1.404 . S
C2301 H2313 0.930 . S
C2302 C2298 1.524 . S
C2302 H2314 0.956 . S
C2302 H2315 0.961 . S
C2302 H2316 0.961 . S
C2303 C2300 1.539 . S
C2303 H2317 0.958 . S
C2303 H2318 0.961 . S
C2303 H2319 0.960 . S
H2304 C2288 0.931 . S
H2305 C2293 0.929 . S
H2306 C2294 0.960 . S
H2307 C2294 0.962 . S
H2308 C2294 0.960 . S
H2309 C2295 0.961 . S
H2310 C2295 0.961 . S
H2311 C2295 0.961 . S
H2312 C2296 0.931 . S
H2313 C2301 0.930 . S
H2314 C2302 0.956 . S
H2315 C2302 0.961 . S
H2316 C2302 0.961 . S
H2317 C2303 0.958 . S
H2318 C2303 0.961 . S
H2319 C2303 0.960 . S
C2320 C2321 1.391 . S
C2320 C2322 1.394 . S
C2320 H2336 0.931 . S
C2321 C2320 1.391 . S
C2321 C2325 1.376 . S
C2322 C2320 1.394 . S
C2322 C2323 1.369 . S
C2322 C2326 1.531 . S
C2323 C2322 1.369 . S
C2323 C2324 1.410 . S
C2323 C2331 1.503 . S
C2324 C2323 1.410 . S
C2324 C2325 1.392 . S
C2324 C2327 1.511 . S
C2325 C2321 1.376 . S
C2325 C2324 1.392 . S
C2325 H2337 0.929 . S
C2326 C2322 1.531 . S
C2326 H2338 0.960 . S
C2326 H2339 0.962 . S
C2326 H2340 0.960 . S
C2327 C2324 1.511 . S
C2327 H2341 0.961 . S
C2327 H2342 0.961 . S
C2327 H2343 0.961 . S
C2328 C2329 1.370 . S
C2328 C2330 1.363 . S
C2328 H2344 0.931 . S
C2329 C2328 1.370 . S
C2329 C2333 1.408 . S
C2330 C2328 1.363 . S
C2330 C2331 1.370 . S
C2330 C2334 1.524 . S
C2331 C2323 1.503 . S
C2331 C2330 1.370 . S
C2331 C2332 1.403 . S
C2332 C2331 1.403 . S
C2332 C2333 1.404 . S
C2332 C2335 1.539 . S
C2333 C2329 1.408 . S
C2333 C2332 1.404 . S
C2333 H2345 0.930 . S
C2334 C2330 1.524 . S
C2334 H2346 0.956 . S
C2334 H2347 0.961 . S
C2334 H2348 0.961 . S
C2335 C2332 1.539 . S
C2335 H2349 0.958 . S
C2335 H2350 0.961 . S
C2335 H2351 0.960 . S
H2336 C2320 0.931 . S
H2337 C2325 0.929 . S
H2338 C2326 0.960 . S
H2339 C2326 0.962 . S
H2340 C2326 0.960 . S
H2341 C2327 0.961 . S
H2342 C2327 0.961 . S
H2343 C2327 0.961 . S
H2344 C2328 0.931 . S
H2345 C2333 0.930 . S
H2346 C2334 0.956 . S
H2347 C2334 0.961 . S
H2348 C2334 0.961 . S
H2349 C2335 0.958 . S
H2350 C2335 0.961 . S
H2351 C2335 0.960 . S
C2352 C2353 1.391 . S
C2352 C2354 1.394 . S
C2352 H2368 0.931 . S
C2353 C2352 1.391 . S
C2353 C2357 1.376 . S
C2354 C2352 1.394 . S
C2354 C2355 1.369 . S
C2354 C2358 1.531 . S
C2355 C2354 1.369 . S
C2355 C2356 1.410 . S
C2355 C2363 1.503 . S
C2356 C2355 1.410 . S
C2356 C2357 1.392 . S
C2356 C2359 1.511 . S
C2357 C2353 1.376 . S
C2357 C2356 1.392 . S
C2357 H2369 0.929 . S
C2358 C2354 1.531 . S
C2358 H2370 0.960 . S
C2358 H2371 0.962 . S
C2358 H2372 0.960 . S
C2359 C2356 1.511 . S
C2359 H2373 0.961 . S
C2359 H2374 0.961 . S
C2359 H2375 0.961 . S
C2360 C2361 1.370 . S
C2360 C2362 1.363 . S
C2360 H2376 0.931 . S
C2361 C2360 1.370 . S
C2361 C2365 1.408 . S
C2362 C2360 1.363 . S
C2362 C2363 1.370 . S
C2362 C2366 1.524 . S
C2363 C2355 1.503 . S
C2363 C2362 1.370 . S
C2363 C2364 1.403 . S
C2364 C2363 1.403 . S
C2364 C2365 1.404 . S
C2364 C2367 1.539 . S
C2365 C2361 1.408 . S
C2365 C2364 1.404 . S
C2365 H2377 0.930 . S
C2366 C2362 1.524 . S
C2366 H2378 0.956 . S
C2366 H2379 0.961 . S
C2366 H2380 0.961 . S
C2367 C2364 1.539 . S
C2367 H2381 0.958 . S
C2367 H2382 0.961 . S
C2367 H2383 0.960 . S
H2368 C2352 0.931 . S
H2369 C2357 0.929 . S
H2370 C2358 0.960 . S
H2371 C2358 0.962 . S
H2372 C2358 0.960 . S
H2373 C2359 0.961 . S
H2374 C2359 0.961 . S
H2375 C2359 0.961 . S
H2376 C2360 0.931 . S
H2377 C2365 0.930 . S
H2378 C2366 0.956 . S
H2379 C2366 0.961 . S
H2380 C2366 0.961 . S
H2381 C2367 0.958 . S
H2382 C2367 0.961 . S
H2383 C2367 0.960 . S
C2384 C2385 1.379 1_455 S
C2384 C2386 1.394 . S
C2384 H2400 0.931 . S
C2385 C2384 1.379 1_655 S
C2385 C2389 1.383 . S
C2386 C2384 1.394 . S
C2386 C2387 1.369 1_455 S
C2386 C2390 1.531 . S
C2387 C2386 1.369 1_655 S
C2387 C2388 1.410 . S
C2387 C2395 1.513 . S
C2388 C2387 1.410 . S
C2388 C2389 1.392 . S
C2388 C2391 1.511 . S
C2389 C2385 1.383 . S
C2389 C2388 1.392 . S
C2389 H2401 0.929 . S
C2390 C2386 1.531 . S
C2390 H2402 0.960 . S
C2390 H2403 0.962 . S
C2390 H2404 0.960 . S
C2391 C2388 1.511 . S
C2391 H2405 0.961 . S
C2391 H2406 0.961 . S
C2391 H2407 0.961 . S
C2392 C2393 1.370 . S
C2392 C2394 1.363 . S
C2392 H2408 0.931 . S
C2393 C2392 1.370 . S
C2393 C2397 1.408 1_455 S
C2394 C2392 1.363 . S
C2394 C2395 1.345 1_455 S
C2394 C2398 1.524 . S
C2395 C2387 1.513 . S
C2395 C2394 1.345 1_655 S
C2395 C2396 1.419 . S
C2396 C2395 1.419 . S
C2396 C2397 1.404 . S
C2396 C2399 1.539 . S
C2397 C2393 1.408 1_655 S
C2397 C2396 1.404 . S
C2397 H2409 0.930 . S
C2398 C2394 1.524 . S
C2398 H2410 0.956 . S
C2398 H2411 0.961 . S
C2398 H2412 0.961 . S
C2399 C2396 1.539 . S
C2399 H2413 0.958 . S
C2399 H2414 0.961 . S
C2399 H2415 0.960 . S
H2400 C2384 0.931 . S
H2401 C2389 0.929 . S
H2402 C2390 0.960 . S
H2403 C2390 0.962 . S
H2404 C2390 0.960 . S
H2405 C2391 0.961 . S
H2406 C2391 0.961 . S
H2407 C2391 0.961 . S
H2408 C2392 0.931 . S
H2409 C2397 0.930 . S
H2410 C2398 0.956 . S
H2411 C2398 0.961 . S
H2412 C2398 0.961 . S
H2413 C2399 0.958 . S
H2414 C2399 0.961 . S
H2415 C2399 0.960 . S
C2416 C2417 1.391 . S
C2416 C2418 1.394 . S
C2416 H2432 0.931 . S
C2417 C2416 1.391 . S
C2417 C2421 1.376 . S
C2418 C2416 1.394 . S
C2418 C2419 1.369 . S
C2418 C2422 1.531 . S
C2419 C2418 1.369 . S
C2419 C2420 1.410 . S
C2419 C2427 1.503 . S
C2420 C2419 1.410 . S
C2420 C2421 1.392 . S
C2420 C2423 1.511 . S
C2421 C2417 1.376 . S
C2421 C2420 1.392 . S
C2421 H2433 0.929 . S
C2422 C2418 1.531 . S
C2422 H2434 0.960 . S
C2422 H2435 0.962 . S
C2422 H2436 0.960 . S
C2423 C2420 1.511 . S
C2423 H2437 0.961 . S
C2423 H2438 0.961 . S
C2423 H2439 0.961 . S
C2424 C2425 1.370 . S
C2424 C2426 1.363 . S
C2424 H2440 0.931 . S
C2425 C2424 1.370 . S
C2425 C2429 1.408 . S
C2426 C2424 1.363 . S
C2426 C2427 1.370 . S
C2426 C2430 1.524 . S
C2427 C2419 1.503 . S
C2427 C2426 1.370 . S
C2427 C2428 1.403 . S
C2428 C2427 1.403 . S
C2428 C2429 1.404 . S
C2428 C2431 1.539 . S
C2429 C2425 1.408 . S
C2429 C2428 1.404 . S
C2429 H2441 0.930 . S
C2430 C2426 1.524 . S
C2430 H2442 0.956 . S
C2430 H2443 0.961 . S
C2430 H2444 0.961 . S
C2431 C2428 1.539 . S
C2431 H2445 0.958 . S
C2431 H2446 0.961 . S
C2431 H2447 0.960 . S
H2432 C2416 0.931 . S
H2433 C2421 0.929 . S
H2434 C2422 0.960 . S
H2435 C2422 0.962 . S
H2436 C2422 0.960 . S
H2437 C2423 0.961 . S
H2438 C2423 0.961 . S
H2439 C2423 0.961 . S
H2440 C2424 0.931 . S
H2441 C2429 0.930 . S
H2442 C2430 0.956 . S
H2443 C2430 0.961 . S
H2444 C2430 0.961 . S
H2445 C2431 0.958 . S
H2446 C2431 0.961 . S
H2447 C2431 0.960 . S
C2448 C2449 1.391 . S
C2448 C2450 1.394 . S
C2448 H2464 0.931 . S
C2449 C2448 1.391 . S
C2449 C2453 1.376 . S
C2450 C2448 1.394 . S
C2450 C2451 1.369 . S
C2450 C2454 1.531 . S
C2451 C2450 1.369 . S
C2451 C2452 1.410 . S
C2451 C2459 1.503 . S
C2452 C2451 1.410 . S
C2452 C2453 1.392 . S
C2452 C2455 1.511 . S
C2453 C2449 1.376 . S
C2453 C2452 1.392 . S
C2453 H2465 0.929 . S
C2454 C2450 1.531 . S
C2454 H2466 0.960 . S
C2454 H2467 0.962 . S
C2454 H2468 0.960 . S
C2455 C2452 1.511 . S
C2455 H2469 0.961 . S
C2455 H2470 0.961 . S
C2455 H2471 0.961 . S
C2456 C2457 1.370 . S
C2456 C2458 1.363 . S
C2456 H2472 0.931 . S
C2457 C2456 1.370 . S
C2457 C2461 1.408 . S
C2458 C2456 1.363 . S
C2458 C2459 1.370 . S
C2458 C2462 1.524 . S
C2459 C2451 1.503 . S
C2459 C2458 1.370 . S
C2459 C2460 1.403 . S
C2460 C2459 1.403 . S
C2460 C2461 1.404 . S
C2460 C2463 1.539 . S
C2461 C2457 1.408 . S
C2461 C2460 1.404 . S
C2461 H2473 0.930 . S
C2462 C2458 1.524 . S
C2462 H2474 0.956 . S
C2462 H2475 0.961 . S
C2462 H2476 0.961 . S
C2463 C2460 1.539 . S
C2463 H2477 0.958 . S
C2463 H2478 0.961 . S
C2463 H2479 0.960 . S
H2464 C2448 0.931 . S
H2465 C2453 0.929 . S
H2466 C2454 0.960 . S
H2467 C2454 0.962 . S
H2468 C2454 0.960 . S
H2469 C2455 0.961 . S
H2470 C2455 0.961 . S
H2471 C2455 0.961 . S
H2472 C2456 0.931 . S
H2473 C2461 0.930 . S
H2474 C2462 0.956 . S
H2475 C2462 0.961 . S
H2476 C2462 0.961 . S
H2477 C2463 0.958 . S
H2478 C2463 0.961 . S
H2479 C2463 0.960 . S
C2480 C2481 1.391 . S
C2480 C2482 1.394 . S
C2480 H2496 0.931 . S
C2481 C2480 1.391 . S
C2481 C2485 1.376 . S
C2482 C2480 1.394 . S
C2482 C2483 1.369 . S
C2482 C2486 1.531 . S
C2483 C2482 1.369 . S
C2483 C2484 1.410 . S
C2483 C2491 1.503 . S
C2484 C2483 1.410 . S
C2484 C2485 1.392 . S
C2484 C2487 1.511 . S
C2485 C2481 1.376 . S
C2485 C2484 1.392 . S
C2485 H2497 0.929 . S
C2486 C2482 1.531 . S
C2486 H2498 0.960 . S
C2486 H2499 0.962 . S
C2486 H2500 0.960 . S
C2487 C2484 1.511 . S
C2487 H2501 0.961 . S
C2487 H2502 0.961 . S
C2487 H2503 0.961 . S
C2488 C2489 1.370 . S
C2488 C2490 1.363 . S
C2488 H2504 0.931 . S
C2489 C2488 1.370 . S
C2489 C2493 1.408 . S
C2490 C2488 1.363 . S
C2490 C2491 1.370 . S
C2490 C2494 1.524 . S
C2491 C2483 1.503 . S
C2491 C2490 1.370 . S
C2491 C2492 1.403 . S
C2492 C2491 1.403 . S
C2492 C2493 1.404 . S
C2492 C2495 1.539 . S
C2493 C2489 1.408 . S
C2493 C2492 1.404 . S
C2493 H2505 0.930 . S
C2494 C2490 1.524 . S
C2494 H2506 0.956 . S
C2494 H2507 0.961 . S
C2494 H2508 0.961 . S
C2495 C2492 1.539 . S
C2495 H2509 0.958 . S
C2495 H2510 0.961 . S
C2495 H2511 0.960 . S
H2496 C2480 0.931 . S
H2497 C2485 0.929 . S
H2498 C2486 0.960 . S
H2499 C2486 0.962 . S
H2500 C2486 0.960 . S
H2501 C2487 0.961 . S
H2502 C2487 0.961 . S
H2503 C2487 0.961 . S
H2504 C2488 0.931 . S
H2505 C2493 0.930 . S
H2506 C2494 0.956 . S
H2507 C2494 0.961 . S
H2508 C2494 0.961 . S
H2509 C2495 0.958 . S
H2510 C2495 0.961 . S
H2511 C2495 0.960 . S
C2512 C2513 1.391 . S
C2512 C2514 1.394 . S
C2512 H2528 0.931 . S
C2513 C2512 1.391 . S
C2513 C2517 1.376 . S
C2514 C2512 1.394 . S
C2514 C2515 1.369 . S
C2514 C2518 1.531 . S
C2515 C2514 1.369 . S
C2515 C2516 1.410 . S
C2515 C2523 1.503 . S
C2516 C2515 1.410 . S
C2516 C2517 1.392 . S
C2516 C2519 1.511 . S
C2517 C2513 1.376 . S
C2517 C2516 1.392 . S
C2517 H2529 0.929 . S
C2518 C2514 1.531 . S
C2518 H2530 0.960 . S
C2518 H2531 0.962 . S
C2518 H2532 0.960 . S
C2519 C2516 1.511 . S
C2519 H2533 0.961 . S
C2519 H2534 0.961 . S
C2519 H2535 0.961 . S
C2520 C2521 1.370 . S
C2520 C2522 1.363 . S
C2520 H2536 0.931 . S
C2521 C2520 1.370 . S
C2521 C2525 1.408 . S
C2522 C2520 1.363 . S
C2522 C2523 1.370 . S
C2522 C2526 1.524 . S
C2523 C2515 1.503 . S
C2523 C2522 1.370 . S
C2523 C2524 1.403 . S
C2524 C2523 1.403 . S
C2524 C2525 1.404 . S
C2524 C2527 1.539 . S
C2525 C2521 1.408 . S
C2525 C2524 1.404 . S
C2525 H2537 0.930 . S
C2526 C2522 1.524 . S
C2526 H2538 0.956 . S
C2526 H2539 0.961 . S
C2526 H2540 0.961 . S
C2527 C2524 1.539 . S
C2527 H2541 0.958 . S
C2527 H2542 0.961 . S
C2527 H2543 0.960 . S
H2528 C2512 0.931 . S
H2529 C2517 0.929 . S
H2530 C2518 0.960 . S
H2531 C2518 0.962 . S
H2532 C2518 0.960 . S
H2533 C2519 0.961 . S
H2534 C2519 0.961 . S
H2535 C2519 0.961 . S
H2536 C2520 0.931 . S
H2537 C2525 0.930 . S
H2538 C2526 0.956 . S
H2539 C2526 0.961 . S
H2540 C2526 0.961 . S
H2541 C2527 0.958 . S
H2542 C2527 0.961 . S
H2543 C2527 0.960 . S
C2544 C2545 1.391 . S
C2544 C2546 1.394 . S
C2544 H2560 0.931 . S
C2545 C2544 1.391 . S
C2545 C2549 1.376 . S
C2546 C2544 1.394 . S
C2546 C2547 1.369 . S
C2546 C2550 1.531 . S
C2547 C2546 1.369 . S
C2547 C2548 1.410 . S
C2547 C2555 1.503 . S
C2548 C2547 1.410 . S
C2548 C2549 1.392 . S
C2548 C2551 1.511 . S
C2549 C2545 1.376 . S
C2549 C2548 1.392 . S
C2549 H2561 0.929 . S
C2550 C2546 1.531 . S
C2550 H2562 0.960 . S
C2550 H2563 0.962 . S
C2550 H2564 0.960 . S
C2551 C2548 1.511 . S
C2551 H2565 0.961 . S
C2551 H2566 0.961 . S
C2551 H2567 0.961 . S
C2552 C2553 1.370 . S
C2552 C2554 1.363 . S
C2552 H2568 0.931 . S
C2553 C2552 1.370 . S
C2553 C2557 1.408 . S
C2554 C2552 1.363 . S
C2554 C2555 1.370 . S
C2554 C2558 1.524 . S
C2555 C2547 1.503 . S
C2555 C2554 1.370 . S
C2555 C2556 1.403 . S
C2556 C2555 1.403 . S
C2556 C2557 1.404 . S
C2556 C2559 1.539 . S
C2557 C2553 1.408 . S
C2557 C2556 1.404 . S
C2557 H2569 0.930 . S
C2558 C2554 1.524 . S
C2558 H2570 0.956 . S
C2558 H2571 0.961 . S
C2558 H2572 0.961 . S
C2559 C2556 1.539 . S
C2559 H2573 0.958 . S
C2559 H2574 0.961 . S
C2559 H2575 0.960 . S
H2560 C2544 0.931 . S
H2561 C2549 0.929 . S
H2562 C2550 0.960 . S
H2563 C2550 0.962 . S
H2564 C2550 0.960 . S
H2565 C2551 0.961 . S
H2566 C2551 0.961 . S
H2567 C2551 0.961 . S
H2568 C2552 0.931 . S
H2569 C2557 0.930 . S
H2570 C2558 0.956 . S
H2571 C2558 0.961 . S
H2572 C2558 0.961 . S
H2573 C2559 0.958 . S
H2574 C2559 0.961 . S
H2575 C2559 0.960 . S
C2576 C2577 1.391 . S
C2576 C2578 1.394 . S
C2576 H2592 0.931 . S
C2577 C2576 1.391 . S
C2577 C2581 1.376 . S
C2578 C2576 1.394 . S
C2578 C2579 1.369 . S
C2578 C2582 1.531 . S
C2579 C2578 1.369 . S
C2579 C2580 1.410 . S
C2579 C2587 1.503 . S
C2580 C2579 1.410 . S
C2580 C2581 1.392 . S
C2580 C2583 1.511 . S
C2581 C2577 1.376 . S
C2581 C2580 1.392 . S
C2581 H2593 0.929 . S
C2582 C2578 1.531 . S
C2582 H2594 0.960 . S
C2582 H2595 0.962 . S
C2582 H2596 0.960 . S
C2583 C2580 1.511 . S
C2583 H2597 0.961 . S
C2583 H2598 0.961 . S
C2583 H2599 0.961 . S
C2584 C2585 1.370 . S
C2584 C2586 1.363 . S
C2584 H2600 0.931 . S
C2585 C2584 1.370 . S
C2585 C2589 1.408 . S
C2586 C2584 1.363 . S
C2586 C2587 1.370 . S
C2586 C2590 1.524 . S
C2587 C2579 1.503 . S
C2587 C2586 1.370 . S
C2587 C2588 1.403 . S
C2588 C2587 1.403 . S
C2588 C2589 1.404 . S
C2588 C2591 1.539 . S
C2589 C2585 1.408 . S
C2589 C2588 1.404 . S
C2589 H2601 0.930 . S
C2590 C2586 1.524 . S
C2590 H2602 0.956 . S
C2590 H2603 0.961 . S
C2590 H2604 0.961 . S
C2591 C2588 1.539 . S
C2591 H2605 0.958 . S
C2591 H2606 0.961 . S
C2591 H2607 0.960 . S
H2592 C2576 0.931 . S
H2593 C2581 0.929 . S
H2594 C2582 0.960 . S
H2595 C2582 0.962 . S
H2596 C2582 0.960 . S
H2597 C2583 0.961 . S
H2598 C2583 0.961 . S
H2599 C2583 0.961 . S
H2600 C2584 0.931 . S
H2601 C2589 0.930 . S
H2602 C2590 0.956 . S
H2603 C2590 0.961 . S
H2604 C2590 0.961 . S
H2605 C2591 0.958 . S
H2606 C2591 0.961 . S
H2607 C2591 0.960 . S
C2608 C2609 1.391 . S
C2608 C2610 1.394 . S
C2608 H2624 0.931 . S
C2609 C2608 1.391 . S
C2609 C2613 1.376 . S
C2610 C2608 1.394 . S
C2610 C2611 1.369 . S
C2610 C2614 1.531 . S
C2611 C2610 1.369 . S
C2611 C2612 1.410 . S
C2611 C2619 1.503 . S
C2612 C2611 1.410 . S
C2612 C2613 1.392 . S
C2612 C2615 1.511 . S
C2613 C2609 1.376 . S
C2613 C2612 1.392 . S
C2613 H2625 0.929 . S
C2614 C2610 1.531 . S
C2614 H2626 0.960 . S
C2614 H2627 0.962 . S
C2614 H2628 0.960 . S
C2615 C2612 1.511 . S
C2615 H2629 0.961 . S
C2615 H2630 0.961 . S
C2615 H2631 0.961 . S
C2616 C2617 1.370 . S
C2616 C2618 1.363 . S
C2616 H2632 0.931 . S
C2617 C2616 1.370 . S
C2617 C2621 1.408 . S
C2618 C2616 1.363 . S
C2618 C2619 1.370 . S
C2618 C2622 1.524 . S
C2619 C2611 1.503 . S
C2619 C2618 1.370 . S
C2619 C2620 1.403 . S
C2620 C2619 1.403 . S
C2620 C2621 1.404 . S
C2620 C2623 1.539 . S
C2621 C2617 1.408 . S
C2621 C2620 1.404 . S
C2621 H2633 0.930 . S
C2622 C2618 1.524 . S
C2622 H2634 0.956 . S
C2622 H2635 0.961 . S
C2622 H2636 0.961 . S
C2623 C2620 1.539 . S
C2623 H2637 0.958 . S
C2623 H2638 0.961 . S
C2623 H2639 0.960 . S
H2624 C2608 0.931 . S
H2625 C2613 0.929 . S
H2626 C2614 0.960 . S
H2627 C2614 0.962 . S
H2628 C2614 0.960 . S
H2629 C2615 0.961 . S
H2630 C2615 0.961 . S
H2631 C2615 0.961 . S
H2632 C2616 0.931 . S
H2633 C2621 0.930 . S
H2634 C2622 0.956 . S
H2635 C2622 0.961 . S
H2636 C2622 0.961 . S
H2637 C2623 0.958 . S
H2638 C2623 0.961 . S
H2639 C2623 0.960 . S
C2640 C2641 1.391 . S
C2640 C2642 1.394 . S
C2640 H2656 0.931 . S
C2641 C2640 1.391 . S
C2641 C2645 1.376 . S
C2642 C2640 1.394 . S
C2642 C2643 1.369 . S
C2642 C2646 1.531 . S
C2643 C2642 1.369 . S
C2643 C2644 1.410 . S
C2643 C2651 1.503 . S
C2644 C2643 1.410 . S
C2644 C2645 1.392 . S
C2644 C2647 1.511 . S
C2645 C2641 1.376 . S
C2645 C2644 1.392 . S
C2645 H2657 0.929 . S
C2646 C2642 1.531 . S
C2646 H2658 0.960 . S
C2646 H2659 0.962 . S
C2646 H2660 0.960 . S
C2647 C2644 1.511 . S
C2647 H2661 0.961 . S
C2647 H2662 0.961 . S
C2647 H2663 0.961 . S
C2648 C2649 1.370 . S
C2648 C2650 1.363 . S
C2648 H2664 0.931 . S
C2649 C2648 1.370 . S
C2649 C2653 1.408 . S
C2650 C2648 1.363 . S
C2650 C2651 1.370 . S
C2650 C2654 1.524 . S
C2651 C2643 1.503 . S
C2651 C2650 1.370 . S
C2651 C2652 1.403 . S
C2652 C2651 1.403 . S
C2652 C2653 1.404 . S
C2652 C2655 1.539 . S
C2653 C2649 1.408 . S
C2653 C2652 1.404 . S
C2653 H2665 0.930 . S
C2654 C2650 1.524 . S
C2654 H2666 0.956 . S
C2654 H2667 0.961 . S
C2654 H2668 0.961 . S
C2655 C2652 1.539 . S
C2655 H2669 0.958 . S
C2655 H2670 0.961 . S
C2655 H2671 0.960 . S
H2656 C2640 0.931 . S
H2657 C2645 0.929 . S
H2658 C2646 0.960 . S
H2659 C2646 0.962 . S
H2660 C2646 0.960 . S
H2661 C2647 0.961 . S
H2662 C2647 0.961 . S
H2663 C2647 0.961 . S
H2664 C2648 0.931 . S
H2665 C2653 0.930 . S
H2666 C2654 0.956 . S
H2667 C2654 0.961 . S
H2668 C2654 0.961 . S
H2669 C2655 0.958 . S
H2670 C2655 0.961 . S
H2671 C2655 0.960 . S
C2672 C2673 1.391 . S
C2672 C2674 1.394 . S
C2672 H2688 0.931 . S
C2673 C2672 1.391 . S
C2673 C2677 1.376 . S
C2674 C2672 1.394 . S
C2674 C2675 1.369 . S
C2674 C2678 1.531 . S
C2675 C2674 1.369 . S
C2675 C2676 1.410 . S
C2675 C2683 1.503 . S
C2676 C2675 1.410 . S
C2676 C2677 1.392 . S
C2676 C2679 1.511 . S
C2677 C2673 1.376 . S
C2677 C2676 1.392 . S
C2677 H2689 0.929 . S
C2678 C2674 1.531 . S
C2678 H2690 0.960 . S
C2678 H2691 0.962 . S
C2678 H2692 0.960 . S
C2679 C2676 1.511 . S
C2679 H2693 0.961 . S
C2679 H2694 0.961 . S
C2679 H2695 0.961 . S
C2680 C2681 1.370 . S
C2680 C2682 1.363 . S
C2680 H2696 0.931 . S
C2681 C2680 1.370 . S
C2681 C2685 1.408 . S
C2682 C2680 1.363 . S
C2682 C2683 1.370 . S
C2682 C2686 1.524 . S
C2683 C2675 1.503 . S
C2683 C2682 1.370 . S
C2683 C2684 1.403 . S
C2684 C2683 1.403 . S
C2684 C2685 1.404 . S
C2684 C2687 1.539 . S
C2685 C2681 1.408 . S
C2685 C2684 1.404 . S
C2685 H2697 0.930 . S
C2686 C2682 1.524 . S
C2686 H2698 0.956 . S
C2686 H2699 0.961 . S
C2686 H2700 0.961 . S
C2687 C2684 1.539 . S
C2687 H2701 0.958 . S
C2687 H2702 0.961 . S
C2687 H2703 0.960 . S
H2688 C2672 0.931 . S
H2689 C2677 0.929 . S
H2690 C2678 0.960 . S
H2691 C2678 0.962 . S
H2692 C2678 0.960 . S
H2693 C2679 0.961 . S
H2694 C2679 0.961 . S
H2695 C2679 0.961 . S
H2696 C2680 0.931 . S
H2697 C2685 0.930 . S
H2698 C2686 0.956 . S
H2699 C2686 0.961 . S
H2700 C2686 0.961 . S
H2701 C2687 0.958 . S
H2702 C2687 0.961 . S
H2703 C2687 0.960 . S
C2704 C2705 1.391 . S
C2704 C2706 1.394 . S
C2704 H2720 0.931 . S
C2705 C2704 1.391 . S
C2705 C2709 1.376 . S
C2706 C2704 1.394 . S
C2706 C2707 1.369 . S
C2706 C2710 1.531 . S
C2707 C2706 1.369 . S
C2707 C2708 1.410 . S
C2707 C2715 1.503 . S
C2708 C2707 1.410 . S
C2708 C2709 1.392 . S
C2708 C2711 1.511 . S
C2709 C2705 1.376 . S
C2709 C2708 1.392 . S
C2709 H2721 0.929 . S
C2710 C2706 1.531 . S
C2710 H2722 0.960 . S
C2710 H2723 0.962 . S
C2710 H2724 0.960 . S
C2711 C2708 1.511 . S
C2711 H2725 0.961 . S
C2711 H2726 0.961 . S
C2711 H2727 0.961 . S
C2712 C2713 1.370 . S
C2712 C2714 1.363 . S
C2712 H2728 0.931 . S
C2713 C2712 1.370 . S
C2713 C2717 1.408 . S
C2714 C2712 1.363 . S
C2714 C2715 1.370 . S
C2714 C2718 1.524 . S
C2715 C2707 1.503 . S
C2715 C2714 1.370 . S
C2715 C2716 1.403 . S
C2716 C2715 1.403 . S
C2716 C2717 1.404 . S
C2716 C2719 1.539 . S
C2717 C2713 1.408 . S
C2717 C2716 1.404 . S
C2717 H2729 0.930 . S
C2718 C2714 1.524 . S
C2718 H2730 0.956 . S
C2718 H2731 0.961 . S
C2718 H2732 0.961 . S
C2719 C2716 1.539 . S
C2719 H2733 0.958 . S
C2719 H2734 0.961 . S
C2719 H2735 0.960 . S
H2720 C2704 0.931 . S
H2721 C2709 0.929 . S
H2722 C2710 0.960 . S
H2723 C2710 0.962 . S
H2724 C2710 0.960 . S
H2725 C2711 0.961 . S
H2726 C2711 0.961 . S
H2727 C2711 0.961 . S
H2728 C2712 0.931 . S
H2729 C2717 0.930 . S
H2730 C2718 0.956 . S
H2731 C2718 0.961 . S
H2732 C2718 0.961 . S
H2733 C2719 0.958 . S
H2734 C2719 0.961 . S
H2735 C2719 0.960 . S
C2736 C2737 1.391 . S
C2736 C2738 1.394 . S
C2736 H2752 0.931 . S
C2737 C2736 1.391 . S
C2737 C2741 1.376 . S
C2738 C2736 1.394 . S
C2738 C2739 1.369 . S
C2738 C2742 1.531 . S
C2739 C2738 1.369 . S
C2739 C2740 1.410 . S
C2739 C2747 1.503 . S
C2740 C2739 1.410 . S
C2740 C2741 1.392 . S
C2740 C2743 1.511 . S
C2741 C2737 1.376 . S
C2741 C2740 1.392 . S
C2741 H2753 0.929 . S
C2742 C2738 1.531 . S
C2742 H2754 0.960 . S
C2742 H2755 0.962 . S
C2742 H2756 0.960 . S
C2743 C2740 1.511 . S
C2743 H2757 0.961 . S
C2743 H2758 0.961 . S
C2743 H2759 0.961 . S
C2744 C2745 1.370 . S
C2744 C2746 1.363 . S
C2744 H2760 0.931 . S
C2745 C2744 1.370 . S
C2745 C2749 1.408 . S
C2746 C2744 1.363 . S
C2746 C2747 1.370 . S
C2746 C2750 1.524 . S
C2747 C2739 1.503 . S
C2747 C2746 1.370 . S
C2747 C2748 1.403 . S
C2748 C2747 1.403 . S
C2748 C2749 1.404 . S
C2748 C2751 1.539 . S
C2749 C2745 1.408 . S
C2749 C2748 1.404 . S
C2749 H2761 0.930 . S
C2750 C2746 1.524 . S
C2750 H2762 0.956 . S
C2750 H2763 0.961 . S
C2750 H2764 0.961 . S
C2751 C2748 1.539 . S
C2751 H2765 0.958 . S
C2751 H2766 0.961 . S
C2751 H2767 0.960 . S
H2752 C2736 0.931 . S
H2753 C2741 0.929 . S
H2754 C2742 0.960 . S
H2755 C2742 0.962 . S
H2756 C2742 0.960 . S
H2757 C2743 0.961 . S
H2758 C2743 0.961 . S
H2759 C2743 0.961 . S
H2760 C2744 0.931 . S
H2761 C2749 0.930 . S
H2762 C2750 0.956 . S
H2763 C2750 0.961 . S
H2764 C2750 0.961 . S
H2765 C2751 0.958 . S
H2766 C2751 0.961 . S
H2767 C2751 0.960 . S
C2768 C2769 1.391 . S
C2768 C2770 1.394 . S
C2768 H2784 0.931 . S
C2769 C2768 1.391 . S
C2769 C2773 1.376 . S
C2770 C2768 1.394 . S
C2770 C2771 1.369 . S
C2770 C2774 1.531 . S
C2771 C2770 1.369 . S
C2771 C2772 1.410 . S
C2771 C2779 1.503 . S
C2772 C2771 1.410 . S
C2772 C2773 1.392 . S
C2772 C2775 1.511 . S
C2773 C2769 1.376 . S
C2773 C2772 1.392 . S
C2773 H2785 0.929 . S
C2774 C2770 1.531 . S
C2774 H2786 0.960 . S
C2774 H2787 0.962 . S
C2774 H2788 0.960 . S
C2775 C2772 1.511 . S
C2775 H2789 0.961 . S
C2775 H2790 0.961 . S
C2775 H2791 0.961 . S
C2776 C2777 1.370 . S
C2776 C2778 1.363 . S
C2776 H2792 0.931 . S
C2777 C2776 1.370 . S
C2777 C2781 1.408 . S
C2778 C2776 1.363 . S
C2778 C2779 1.370 . S
C2778 C2782 1.524 . S
C2779 C2771 1.503 . S
C2779 C2778 1.370 . S
C2779 C2780 1.403 . S
C2780 C2779 1.403 . S
C2780 C2781 1.404 . S
C2780 C2783 1.539 . S
C2781 C2777 1.408 . S
C2781 C2780 1.404 . S
C2781 H2793 0.930 . S
C2782 C2778 1.524 . S
C2782 H2794 0.956 . S
C2782 H2795 0.961 . S
C2782 H2796 0.961 . S
C2783 C2780 1.539 . S
C2783 H2797 0.958 . S
C2783 H2798 0.961 . S
C2783 H2799 0.960 . S
H2784 C2768 0.931 . S
H2785 C2773 0.929 . S
H2786 C2774 0.960 . S
H2787 C2774 0.962 . S
H2788 C2774 0.960 . S
H2789 C2775 0.961 . S
H2790 C2775 0.961 . S
H2791 C2775 0.961 . S
H2792 C2776 0.931 . S
H2793 C2781 0.930 . S
H2794 C2782 0.956 . S
H2795 C2782 0.961 . S
H2796 C2782 0.961 . S
H2797 C2783 0.958 . S
H2798 C2783 0.961 . S
H2799 C2783 0.960 . S
C2800 C2801 1.391 . S
C2800 C2802 1.394 . S
C2800 H2816 0.931 . S
C2801 C2800 1.391 . S
C2801 C2805 1.376 . S
C2802 C2800 1.394 . S
C2802 C2803 1.369 . S
C2802 C2806 1.531 . S
C2803 C2802 1.369 . S
C2803 C2804 1.410 . S
C2803 C2811 1.503 . S
C2804 C2803 1.410 . S
C2804 C2805 1.392 . S
C2804 C2807 1.536 . S
C2805 C2801 1.376 . S
C2805 C2804 1.392 . S
C2805 H2817 0.929 . S
C2806 C2802 1.531 . S
C2806 H2818 0.960 . S
C2806 H2819 0.962 . S
C2806 H2820 0.965 . S
C2807 C2804 1.536 . S
C2807 H2821 0.951 1_565 S
C2807 H2822 0.957 1_565 S
C2807 H2823 0.950 1_565 S
C2808 C2809 1.370 1_565 S
C2808 C2810 1.363 . S
C2808 H2824 0.931 . S
C2809 C2808 1.370 1_545 S
C2809 C2813 1.379 1_544 S
C2810 C2808 1.363 . S
C2810 C2811 1.370 . S
C2810 C2814 1.524 . S
C2811 C2803 1.503 . S
C2811 C2810 1.370 . S
C2811 C2812 1.403 1_554 S
C2812 C2811 1.403 1_556 S
C2812 C2813 1.402 . S
C2812 C2815 1.539 . S
C2813 C2809 1.379 1_566 S
C2813 C2812 1.402 . S
C2813 H2825 0.960 1_565 S
C2814 C2810 1.524 . S
C2814 H2826 0.956 . S
C2814 H2827 0.961 . S
C2814 H2828 0.961 . S
C2815 C2812 1.539 . S
C2815 H2829 0.958 . S
C2815 H2830 0.961 . S
C2815 H2831 0.960 . S
H2816 C2800 0.931 . S
H2817 C2805 0.929 . S
H2818 C2806 0.960 . S
H2819 C2806 0.962 . S
H2820 C2806 0.965 . S
H2821 C2807 0.951 1_545 S
H2822 C2807 0.957 1_545 S
H2823 C2807 0.950 1_545 S
H2824 C2808 0.931 . S
H2825 C2813 0.960 1_545 S
H2826 C2814 0.956 . S
H2827 C2814 0.961 . S
H2828 C2814 0.961 . S
H2829 C2815 0.958 . S
H2830 C2815 0.961 . S
H2831 C2815 0.960 . S
C2832 C2833 1.391 . S
C2832 C2834 1.394 . S
C2832 H2848 0.931 . S
C2833 C2832 1.391 . S
C2833 C2837 1.376 . S
C2834 C2832 1.394 . S
C2834 C2835 1.369 . S
C2834 C2838 1.531 . S
C2835 C2834 1.369 . S
C2835 C2836 1.410 . S
C2835 C2843 1.503 . S
C2836 C2835 1.410 . S
C2836 C2837 1.392 . S
C2836 C2839 1.511 . S
C2837 C2833 1.376 . S
C2837 C2836 1.392 . S
C2837 H2849 0.929 . S
C2838 C2834 1.531 . S
C2838 H2850 0.960 . S
C2838 H2851 0.962 . S
C2838 H2852 0.960 . S
C2839 C2836 1.511 . S
C2839 H2853 0.961 . S
C2839 H2854 0.961 . S
C2839 H2855 0.961 . S
C2840 C2841 1.370 . S
C2840 C2842 1.363 . S
C2840 H2856 0.931 . S
C2841 C2840 1.370 . S
C2841 C2845 1.408 . S
C2842 C2840 1.363 . S
C2842 C2843 1.370 . S
C2842 C2846 1.524 . S
C2843 C2835 1.503 . S
C2843 C2842 1.370 . S
C2843 C2844 1.403 . S
C2844 C2843 1.403 . S
C2844 C2845 1.404 . S
C2844 C2847 1.539 . S
C2845 C2841 1.408 . S
C2845 C2844 1.404 . S
C2845 H2857 0.930 . S
C2846 C2842 1.524 . S
C2846 H2858 0.956 . S
C2846 H2859 0.961 . S
C2846 H2860 0.961 . S
C2847 C2844 1.539 . S
C2847 H2861 0.958 . S
C2847 H2862 0.961 . S
C2847 H2863 0.960 . S
H2848 C2832 0.931 . S
H2849 C2837 0.929 . S
H2850 C2838 0.960 . S
H2851 C2838 0.962 . S
H2852 C2838 0.960 . S
H2853 C2839 0.961 . S
H2854 C2839 0.961 . S
H2855 C2839 0.961 . S
H2856 C2840 0.931 . S
H2857 C2845 0.930 . S
H2858 C2846 0.956 . S
H2859 C2846 0.961 . S
H2860 C2846 0.961 . S
H2861 C2847 0.958 . S
H2862 C2847 0.961 . S
H2863 C2847 0.960 . S
C2864 C2865 1.391 . S
C2864 C2866 1.394 . S
C2864 H2880 0.931 . S
C2865 C2864 1.391 . S
C2865 C2869 1.376 . S
C2866 C2864 1.394 . S
C2866 C2867 1.369 . S
C2866 C2870 1.531 . S
C2867 C2866 1.369 . S
C2867 C2868 1.410 . S
C2867 C2875 1.503 . S
C2868 C2867 1.410 . S
C2868 C2869 1.392 . S
C2868 C2871 1.511 . S
C2869 C2865 1.376 . S
C2869 C2868 1.392 . S
C2869 H2881 0.929 . S
C2870 C2866 1.531 . S
C2870 H2882 0.960 . S
C2870 H2883 0.962 . S
C2870 H2884 0.960 . S
C2871 C2868 1.511 . S
C2871 H2885 0.961 1_554 S
C2871 H2886 0.961 . S
C2871 H2887 0.961 . S
C2872 C2873 1.370 . S
C2872 C2874 1.363 . S
C2872 H2888 0.931 . S
C2873 C2872 1.370 . S
C2873 C2877 1.408 . S
C2874 C2872 1.363 . S
C2874 C2875 1.370 . S
C2874 C2878 1.524 . S
C2875 C2867 1.503 . S
C2875 C2874 1.370 . S
C2875 C2876 1.403 . S
C2876 C2875 1.403 . S
C2876 C2877 1.404 . S
C2876 C2879 1.539 . S
C2877 C2873 1.408 . S
C2877 C2876 1.404 . S
C2877 H2889 0.930 . S
C2878 C2874 1.524 . S
C2878 H2890 0.956 . S
C2878 H2891 0.961 . S
C2878 H2892 0.961 . S
C2879 C2876 1.539 . S
C2879 H2893 0.958 . S
C2879 H2894 0.961 . S
C2879 H2895 0.960 . S
H2880 C2864 0.931 . S
H2881 C2869 0.929 . S
H2882 C2870 0.960 . S
H2883 C2870 0.962 . S
H2884 C2870 0.960 . S
H2885 C2871 0.961 1_556 S
H2886 C2871 0.961 . S
H2887 C2871 0.961 . S
H2888 C2872 0.931 . S
H2889 C2877 0.930 . S
H2890 C2878 0.956 . S
H2891 C2878 0.961 . S
H2892 C2878 0.961 . S
H2893 C2879 0.958 . S
H2894 C2879 0.961 . S
H2895 C2879 0.960 . S
C2896 C2897 1.391 . S
C2896 C2898 1.394 . S
C2896 H2912 0.931 . S
C2897 C2896 1.391 . S
C2897 C2901 1.376 . S
C2898 C2896 1.394 . S
C2898 C2899 1.369 . S
C2898 C2902 1.531 . S
C2899 C2898 1.369 . S
C2899 C2900 1.410 . S
C2899 C2907 1.503 . S
C2900 C2899 1.410 . S
C2900 C2901 1.392 . S
C2900 C2903 1.511 . S
C2901 C2897 1.376 . S
C2901 C2900 1.392 . S
C2901 H2913 0.929 . S
C2902 C2898 1.531 . S
C2902 H2914 0.960 . S
C2902 H2915 0.962 . S
C2902 H2916 0.960 . S
C2903 C2900 1.511 . S
C2903 H2917 0.961 . S
C2903 H2918 0.961 . S
C2903 H2919 0.961 . S
C2904 C2905 1.370 . S
C2904 C2906 1.363 . S
C2904 H2920 0.931 . S
C2905 C2904 1.370 . S
C2905 C2909 1.408 . S
C2906 C2904 1.363 . S
C2906 C2907 1.370 . S
C2906 C2910 1.524 . S
C2907 C2899 1.503 . S
C2907 C2906 1.370 . S
C2907 C2908 1.403 . S
C2908 C2907 1.403 . S
C2908 C2909 1.404 . S
C2908 C2911 1.539 . S
C2909 C2905 1.408 . S
C2909 C2908 1.404 . S
C2909 H2921 0.930 . S
C2910 C2906 1.524 . S
C2910 H2922 0.956 . S
C2910 H2923 0.961 . S
C2910 H2924 0.961 . S
C2911 C2908 1.539 . S
C2911 H2925 0.958 . S
C2911 H2926 0.961 . S
C2911 H2927 0.960 . S
H2912 C2896 0.931 . S
H2913 C2901 0.929 . S
H2914 C2902 0.960 . S
H2915 C2902 0.962 . S
H2916 C2902 0.960 . S
H2917 C2903 0.961 . S
H2918 C2903 0.961 . S
H2919 C2903 0.961 . S
H2920 C2904 0.931 . S
H2921 C2909 0.930 . S
H2922 C2910 0.956 . S
H2923 C2910 0.961 . S
H2924 C2910 0.961 . S
H2925 C2911 0.958 . S
H2926 C2911 0.961 . S
H2927 C2911 0.960 . S
C2928 C2929 1.391 . S
C2928 C2930 1.394 . S
C2928 H2944 0.931 . S
C2929 C2928 1.391 . S
C2929 C2933 1.376 . S
C2930 C2928 1.394 . S
C2930 C2931 1.369 . S
C2930 C2934 1.531 . S
C2931 C2930 1.369 . S
C2931 C2932 1.410 . S
C2931 C2939 1.503 . S
C2932 C2931 1.410 . S
C2932 C2933 1.392 . S
C2932 C2935 1.511 . S
C2933 C2929 1.376 . S
C2933 C2932 1.392 . S
C2933 H2945 0.929 . S
C2934 C2930 1.531 . S
C2934 H2946 0.960 . S
C2934 H2947 0.962 . S
C2934 H2948 0.960 . S
C2935 C2932 1.511 . S
C2935 H2949 0.961 . S
C2935 H2950 0.961 . S
C2935 H2951 0.961 . S
C2936 C2937 1.370 . S
C2936 C2938 1.363 . S
C2936 H2952 0.931 . S
C2937 C2936 1.370 . S
C2937 C2941 1.408 . S
C2938 C2936 1.363 . S
C2938 C2939 1.370 . S
C2938 C2942 1.524 . S
C2939 C2931 1.503 . S
C2939 C2938 1.370 . S
C2939 C2940 1.403 . S
C2940 C2939 1.403 . S
C2940 C2941 1.404 . S
C2940 C2943 1.539 . S
C2941 C2937 1.408 . S
C2941 C2940 1.404 . S
C2941 H2953 0.930 . S
C2942 C2938 1.524 . S
C2942 H2954 0.956 . S
C2942 H2955 0.961 . S
C2942 H2956 0.961 . S
C2943 C2940 1.539 . S
C2943 H2957 0.958 . S
C2943 H2958 0.961 . S
C2943 H2959 0.960 . S
H2944 C2928 0.931 . S
H2945 C2933 0.929 . S
H2946 C2934 0.960 . S
H2947 C2934 0.962 . S
H2948 C2934 0.960 . S
H2949 C2935 0.961 . S
H2950 C2935 0.961 . S
H2951 C2935 0.961 . S
H2952 C2936 0.931 . S
H2953 C2941 0.930 . S
H2954 C2942 0.956 . S
H2955 C2942 0.961 . S
H2956 C2942 0.961 . S
H2957 C2943 0.958 . S
H2958 C2943 0.961 . S
H2959 C2943 0.960 . S
C2960 C2961 1.391 . S
C2960 C2962 1.394 . S
C2960 H2976 0.931 . S
C2961 C2960 1.391 . S
C2961 C2965 1.376 . S
C2962 C2960 1.394 . S
C2962 C2963 1.369 . S
C2962 C2966 1.531 . S
C2963 C2962 1.369 . S
C2963 C2964 1.410 . S
C2963 C2971 1.503 . S
C2964 C2963 1.410 . S
C2964 C2965 1.392 . S
C2964 C2967 1.511 . S
C2965 C2961 1.376 . S
C2965 C2964 1.392 . S
C2965 H2977 0.929 . S
C2966 C2962 1.531 . S
C2966 H2978 0.960 . S
C2966 H2979 0.962 . S
C2966 H2980 0.960 . S
C2967 C2964 1.511 . S
C2967 H2981 0.961 . S
C2967 H2982 0.961 . S
C2967 H2983 0.961 . S
C2968 C2969 1.370 . S
C2968 C2970 1.363 . S
C2968 H2984 0.931 . S
C2969 C2968 1.370 . S
C2969 C2973 1.408 . S
C2970 C2968 1.363 . S
C2970 C2971 1.370 . S
C2970 C2974 1.524 . S
C2971 C2963 1.503 . S
C2971 C2970 1.370 . S
C2971 C2972 1.403 . S
C2972 C2971 1.403 . S
C2972 C2973 1.404 . S
C2972 C2975 1.539 . S
C2973 C2969 1.408 . S
C2973 C2972 1.404 . S
C2973 H2985 0.930 . S
C2974 C2970 1.524 . S
C2974 H2986 0.956 . S
C2974 H2987 0.961 . S
C2974 H2988 0.961 . S
C2975 C2972 1.539 . S
C2975 H2989 0.958 . S
C2975 H2990 0.961 . S
C2975 H2991 0.960 . S
H2976 C2960 0.931 . S
H2977 C2965 0.929 . S
H2978 C2966 0.960 . S
H2979 C2966 0.962 . S
H2980 C2966 0.960 . S
H2981 C2967 0.961 . S
H2982 C2967 0.961 . S
H2983 C2967 0.961 . S
H2984 C2968 0.931 . S
H2985 C2973 0.930 . S
H2986 C2974 0.956 . S
H2987 C2974 0.961 . S
H2988 C2974 0.961 . S
H2989 C2975 0.958 . S
H2990 C2975 0.961 . S
H2991 C2975 0.960 . S
C2992 C2993 1.391 . S
C2992 C2994 1.394 . S
C2992 H3008 0.931 . S
C2993 C2992 1.391 . S
C2993 C2997 1.376 . S
C2994 C2992 1.394 . S
C2994 C2995 1.369 . S
C2994 C2998 1.531 . S
C2995 C2994 1.369 . S
C2995 C2996 1.410 . S
C2995 C3003 1.503 . S
C2996 C2995 1.410 . S
C2996 C2997 1.392 . S
C2996 C2999 1.511 . S
C2997 C2993 1.376 . S
C2997 C2996 1.392 . S
C2997 H3009 0.929 . S
C2998 C2994 1.531 . S
C2998 H3010 0.960 . S
C2998 H3011 0.962 . S
C2998 H3012 0.960 . S
C2999 C2996 1.511 . S
C2999 H3013 0.961 . S
C2999 H3014 0.961 . S
C2999 H3015 0.961 . S
C3000 C3001 1.370 . S
C3000 C3002 1.363 . S
C3000 H3016 0.931 . S
C3001 C3000 1.370 . S
C3001 C3005 1.408 . S
C3002 C3000 1.363 . S
C3002 C3003 1.370 . S
C3002 C3006 1.524 . S
C3003 C2995 1.503 . S
C3003 C3002 1.370 . S
C3003 C3004 1.403 . S
C3004 C3003 1.403 . S
C3004 C3005 1.404 . S
C3004 C3007 1.539 . S
C3005 C3001 1.408 . S
C3005 C3004 1.404 . S
C3005 H3017 0.930 . S
C3006 C3002 1.524 . S
C3006 H3018 0.956 . S
C3006 H3019 0.961 . S
C3006 H3020 0.961 . S
C3007 C3004 1.539 . S
C3007 H3021 0.958 . S
C3007 H3022 0.961 . S
C3007 H3023 0.960 . S
H3008 C2992 0.931 . S
H3009 C2997 0.929 . S
H3010 C2998 0.960 . S
H3011 C2998 0.962 . S
H3012 C2998 0.960 . S
H3013 C2999 0.961 . S
H3014 C2999 0.961 . S
H3015 C2999 0.961 . S
H3016 C3000 0.931 . S
H3017 C3005 0.930 . S
H3018 C3006 0.956 . S
H3019 C3006 0.961 . S
H3020 C3006 0.961 . S
H3021 C3007 0.958 . S
H3022 C3007 0.961 . S
H3023 C3007 0.960 . S
C3024 C3025 1.391 . S
C3024 C3026 1.394 . S
C3024 H3040 0.931 . S
C3025 C3024 1.391 . S
C3025 C3029 1.376 . S
C3026 C3024 1.394 . S
C3026 C3027 1.369 . S
C3026 C3030 1.531 . S
C3027 C3026 1.369 . S
C3027 C3028 1.410 . S
C3027 C3035 1.503 . S
C3028 C3027 1.410 . S
C3028 C3029 1.392 . S
C3028 C3031 1.511 . S
C3029 C3025 1.376 . S
C3029 C3028 1.392 . S
C3029 H3041 0.929 . S
C3030 C3026 1.531 . S
C3030 H3042 0.960 . S
C3030 H3043 0.962 1_455 S
C3030 H3044 0.960 . S
C3031 C3028 1.511 . S
C3031 H3045 0.961 . S
C3031 H3046 0.961 . S
C3031 H3047 0.961 . S
C3032 C3033 1.370 . S
C3032 C3034 1.363 . S
C3032 H3048 0.931 1_455 S
C3033 C3032 1.370 . S
C3033 C3037 1.408 . S
C3034 C3032 1.363 . S
C3034 C3035 1.370 . S
C3034 C3038 1.524 1_455 S
C3035 C3027 1.503 . S
C3035 C3034 1.370 . S
C3035 C3036 1.403 . S
C3036 C3035 1.403 . S
C3036 C3037 1.404 . S
C3036 C3039 1.539 . S
C3037 C3033 1.408 . S
C3037 C3036 1.404 . S
C3037 H3049 0.930 . S
C3038 C3034 1.524 1_655 S
C3038 H3050 0.956 . S
C3038 H3051 0.961 . S
C3038 H3052 0.961 . S
C3039 C3036 1.539 . S
C3039 H3053 0.958 . S
C3039 H3054 0.961 . S
C3039 H3055 0.960 . S
H3040 C3024 0.931 . S
H3041 C3029 0.929 . S
H3042 C3030 0.960 . S
H3043 C3030 0.962 1_655 S
H3044 C3030 0.960 . S
H3045 C3031 0.961 . S
H3046 C3031 0.961 . S
H3047 C3031 0.961 . S
H3048 C3032 0.931 1_655 S
H3049 C3037 0.930 . S
H3050 C3038 0.956 . S
H3051 C3038 0.961 . S
H3052 C3038 0.961 . S
H3053 C3039 0.958 . S
H3054 C3039 0.961 . S
H3055 C3039 0.960 . S
C3056 C3057 1.391 . S
C3056 C3058 1.394 . S
C3056 H3072 0.931 . S
C3057 C3056 1.391 . S
C3057 C3061 1.376 . S
C3058 C3056 1.394 . S
C3058 C3059 1.369 . S
C3058 C3062 1.531 . S
C3059 C3058 1.369 . S
C3059 C3060 1.410 . S
C3059 C3067 1.503 . S
C3060 C3059 1.410 . S
C3060 C3061 1.392 . S
C3060 C3063 1.511 . S
C3061 C3057 1.376 . S
C3061 C3060 1.392 . S
C3061 H3073 0.929 . S
C3062 C3058 1.531 . S
C3062 H3074 0.960 . S
C3062 H3075 0.962 . S
C3062 H3076 0.960 . S
C3063 C3060 1.511 . S
C3063 H3077 0.961 . S
C3063 H3078 0.961 . S
C3063 H3079 0.961 . S
C3064 C3065 1.370 . S
C3064 C3066 1.363 . S
C3064 H3080 0.931 . S
C3065 C3064 1.370 . S
C3065 C3069 1.408 . S
C3066 C3064 1.363 . S
C3066 C3067 1.370 . S
C3066 C3070 1.524 . S
C3067 C3059 1.503 . S
C3067 C3066 1.370 . S
C3067 C3068 1.403 . S
C3068 C3067 1.403 . S
C3068 C3069 1.404 . S
C3068 C3071 1.539 . S
C3069 C3065 1.408 . S
C3069 C3068 1.404 . S
C3069 H3081 0.930 . S
C3070 C3066 1.524 . S
C3070 H3082 0.956 . S
C3070 H3083 0.961 . S
C3070 H3084 0.961 . S
C3071 C3068 1.539 . S
C3071 H3085 0.958 . S
C3071 H3086 0.961 . S
C3071 H3087 0.960 . S
H3072 C3056 0.931 . S
H3073 C3061 0.929 . S
H3074 C3062 0.960 . S
H3075 C3062 0.962 . S
H3076 C3062 0.960 . S
H3077 C3063 0.961 . S
H3078 C3063 0.961 . S
H3079 C3063 0.961 . S
H3080 C3064 0.931 . S
H3081 C3069 0.930 . S
H3082 C3070 0.956 . S
H3083 C3070 0.961 . S
H3084 C3070 0.961 . S
H3085 C3071 0.958 . S
H3086 C3071 0.961 . S
H3087 C3071 0.960 . S
C3088 C3089 1.391 . S
C3088 C3090 1.394 . S
C3088 H3104 0.931 . S
C3089 C3088 1.391 . S
C3089 C3093 1.376 . S
C3090 C3088 1.394 . S
C3090 C3091 1.369 . S
C3090 C3094 1.531 . S
C3091 C3090 1.369 . S
C3091 C3092 1.410 . S
C3091 C3099 1.503 . S
C3092 C3091 1.410 . S
C3092 C3093 1.392 . S
C3092 C3095 1.511 . S
C3093 C3089 1.376 . S
C3093 C3092 1.392 . S
C3093 H3105 0.929 . S
C3094 C3090 1.531 . S
C3094 H3106 0.960 . S
C3094 H3107 0.962 . S
C3094 H3108 0.960 . S
C3095 C3092 1.511 . S
C3095 H3109 0.961 . S
C3095 H3110 0.961 . S
C3095 H3111 0.961 . S
C3096 C3097 1.370 . S
C3096 C3098 1.363 . S
C3096 H3112 0.931 . S
C3097 C3096 1.370 . S
C3097 C3101 1.408 1_556 S
C3098 C3096 1.363 . S
C3098 C3099 1.370 . S
C3098 C3102 1.524 . S
C3099 C3091 1.503 . S
C3099 C3098 1.370 . S
C3099 C3100 1.403 . S
C3100 C3099 1.403 . S
C3100 C3101 1.404 1_556 S
C3100 C3103 1.539 1_556 S
C3101 C3097 1.408 1_554 S
C3101 C3100 1.404 1_554 S
C3101 H3113 0.930 . S
C3102 C3098 1.524 . S
C3102 H3114 0.956 . S
C3102 H3115 0.961 . S
C3102 H3116 0.961 . S
C3103 C3100 1.539 1_554 S
C3103 H3117 0.958 . S
C3103 H3118 0.961 . S
C3103 H3119 0.960 1_554 S
H3104 C3088 0.931 . S
H3105 C3093 0.929 . S
H3106 C3094 0.960 . S
H3107 C3094 0.962 . S
H3108 C3094 0.960 . S
H3109 C3095 0.961 . S
H3110 C3095 0.961 . S
H3111 C3095 0.961 . S
H3112 C3096 0.931 . S
H3113 C3101 0.930 . S
H3114 C3102 0.956 . S
H3115 C3102 0.961 . S
H3116 C3102 0.961 . S
H3117 C3103 0.958 . S
H3118 C3103 0.961 . S
H3119 C3103 0.960 1_556 S
C3120 C3121 1.391 . S
C3120 C3122 1.394 . S
C3120 H3136 0.931 . S
C3121 C3120 1.391 . S
C3121 C3125 1.376 . S
C3122 C3120 1.394 . S
C3122 C3123 1.369 . S
C3122 C3126 1.531 . S
C3123 C3122 1.369 . S
C3123 C3124 1.410 . S
C3123 C3131 1.503 . S
C3124 C3123 1.410 . S
C3124 C3125 1.392 . S
C3124 C3127 1.511 . S
C3125 C3121 1.376 . S
C3125 C3124 1.392 . S
C3125 H3137 0.929 . S
C3126 C3122 1.531 . S
C3126 H3138 0.960 . S
C3126 H3139 0.962 . S
C3126 H3140 0.960 . S
C3127 C3124 1.511 . S
C3127 H3141 0.961 . S
C3127 H3142 0.961 . S
C3127 H3143 0.961 . S
C3128 C3129 1.370 . S
C3128 C3130 1.363 . S
C3128 H3144 0.931 . S
C3129 C3128 1.370 . S
C3129 C3133 1.408 . S
C3130 C3128 1.363 . S
C3130 C3131 1.370 . S
C3130 C3134 1.524 . S
C3131 C3123 1.503 . S
C3131 C3130 1.370 . S
C3131 C3132 1.403 . S
C3132 C3131 1.403 . S
C3132 C3133 1.404 . S
C3132 C3135 1.539 . S
C3133 C3129 1.408 . S
C3133 C3132 1.404 . S
C3133 H3145 0.930 . S
C3134 C3130 1.524 . S
C3134 H3146 0.956 . S
C3134 H3147 0.961 . S
C3134 H3148 0.961 . S
C3135 C3132 1.539 . S
C3135 H3149 0.958 . S
C3135 H3150 0.961 . S
C3135 H3151 0.960 . S
H3136 C3120 0.931 . S
H3137 C3125 0.929 . S
H3138 C3126 0.960 . S
H3139 C3126 0.962 . S
H3140 C3126 0.960 . S
H3141 C3127 0.961 . S
H3142 C3127 0.961 . S
H3143 C3127 0.961 . S
H3144 C3128 0.931 . S
H3145 C3133 0.930 . S
H3146 C3134 0.956 . S
H3147 C3134 0.961 . S
H3148 C3134 0.961 . S
H3149 C3135 0.958 . S
H3150 C3135 0.961 . S
H3151 C3135 0.960 . S
C3152 C3153 1.391 . S
C3152 C3154 1.394 . S
C3152 H3168 0.931 1_455 S
C3153 C3152 1.391 . S
C3153 C3157 1.376 . S
C3154 C3152 1.394 . S
C3154 C3155 1.369 . S
C3154 C3158 1.531 1_455 S
C3155 C3154 1.369 . S
C3155 C3156 1.410 . S
C3155 C3163 1.503 . S
C3156 C3155 1.410 . S
C3156 C3157 1.392 . S
C3156 C3159 1.511 . S
C3157 C3153 1.376 . S
C3157 C3156 1.392 . S
C3157 H3169 0.929 . S
C3158 C3154 1.531 1_655 S
C3158 H3170 0.960 . S
C3158 H3171 0.962 . S
C3158 H3172 0.960 . S
C3159 C3156 1.511 . S
C3159 H3173 0.961 . S
C3159 H3174 0.961 . S
C3159 H3175 0.961 . S
C3160 C3161 1.370 . S
C3160 C3162 1.363 . S
C3160 H3176 0.931 . S
C3161 C3160 1.370 . S
C3161 C3165 1.408 . S
C3162 C3160 1.363 . S
C3162 C3163 1.370 . S
C3162 C3166 1.535 . S
C3163 C3155 1.503 . S
C3163 C3162 1.370 . S
C3163 C3164 1.403 . S
C3164 C3163 1.403 . S
C3164 C3165 1.404 . S
C3164 C3167 1.539 . S
C3165 C3161 1.408 . S
C3165 C3164 1.404 . S
C3165 H3177 0.930 . S
C3166 C3162 1.535 . S
C3166 H3178 0.931 1_455 S
C3166 H3179 0.996 . S
C3166 H3180 0.942 1_455 S
C3167 C3164 1.539 . S
C3167 H3181 0.958 . S
C3167 H3182 0.961 . S
C3167 H3183 0.960 . S
H3168 C3152 0.931 1_655 S
H3169 C3157 0.929 . S
H3170 C3158 0.960 . S
H3171 C3158 0.962 . S
H3172 C3158 0.960 . S
H3173 C3159 0.961 . S
H3174 C3159 0.961 . S
H3175 C3159 0.961 . S
H3176 C3160 0.931 . S
H3177 C3165 0.930 . S
H3178 C3166 0.931 1_655 S
H3179 C3166 0.996 . S
H3180 C3166 0.942 1_655 S
H3181 C3167 0.958 . S
H3182 C3167 0.961 . S
H3183 C3167 0.960 . S
C3184 C3185 1.391 . S
C3184 C3186 1.394 . S
C3184 H3200 0.931 . S
C3185 C3184 1.391 . S
C3185 C3189 1.376 . S
C3186 C3184 1.394 . S
C3186 C3187 1.369 . S
C3186 C3190 1.531 . S
C3187 C3186 1.369 . S
C3187 C3188 1.410 . S
C3187 C3195 1.503 . S
C3188 C3187 1.410 . S
C3188 C3189 1.392 . S
C3188 C3191 1.511 . S
C3189 C3185 1.376 . S
C3189 C3188 1.392 . S
C3189 H3201 0.929 . S
C3190 C3186 1.531 . S
C3190 H3202 0.960 . S
C3190 H3203 0.962 . S
C3190 H3204 0.960 . S
C3191 C3188 1.511 . S
C3191 H3205 0.961 . S
C3191 H3206 0.961 . S
C3191 H3207 0.961 . S
C3192 C3193 1.370 . S
C3192 C3194 1.363 . S
C3192 H3208 0.931 . S
C3193 C3192 1.370 . S
C3193 C3197 1.408 . S
C3194 C3192 1.363 . S
C3194 C3195 1.370 . S
C3194 C3198 1.524 . S
C3195 C3187 1.503 . S
C3195 C3194 1.370 . S
C3195 C3196 1.403 . S
C3196 C3195 1.403 . S
C3196 C3197 1.404 . S
C3196 C3199 1.539 . S
C3197 C3193 1.408 . S
C3197 C3196 1.404 . S
C3197 H3209 0.930 . S
C3198 C3194 1.524 . S
C3198 H3210 0.956 . S
C3198 H3211 0.961 . S
C3198 H3212 0.961 . S
C3199 C3196 1.539 . S
C3199 H3213 0.958 . S
C3199 H3214 0.961 . S
C3199 H3215 0.960 . S
H3200 C3184 0.931 . S
H3201 C3189 0.929 . S
H3202 C3190 0.960 . S
H3203 C3190 0.962 . S
H3204 C3190 0.960 . S
H3205 C3191 0.961 . S
H3206 C3191 0.961 . S
H3207 C3191 0.961 . S
H3208 C3192 0.931 . S
H3209 C3197 0.930 . S
H3210 C3198 0.956 . S
H3211 C3198 0.961 . S
H3212 C3198 0.961 . S
H3213 C3199 0.958 . S
H3214 C3199 0.961 . S
H3215 C3199 0.960 . S
C3216 C3217 1.391 . S
C3216 C3218 1.394 . S
C3216 H3232 0.931 . S
C3217 C3216 1.391 . S
C3217 C3221 1.376 . S
C3218 C3216 1.394 . S
C3218 C3219 1.369 . S
C3218 C3222 1.531 . S
C3219 C3218 1.369 . S
C3219 C3220 1.410 . S
C3219 C3227 1.503 . S
C3220 C3219 1.410 . S
C3220 C3221 1.392 . S
C3220 C3223 1.511 . S
C3221 C3217 1.376 . S
C3221 C3220 1.392 . S
C3221 H3233 0.929 . S
C3222 C3218 1.531 . S
C3222 H3234 0.960 . S
C3222 H3235 0.962 . S
C3222 H3236 0.960 . S
C3223 C3220 1.511 . S
C3223 H3237 0.961 . S
C3223 H3238 0.961 . S
C3223 H3239 0.961 . S
C3224 C3225 1.370 . S
C3224 C3226 1.363 . S
C3224 H3240 0.931 . S
C3225 C3224 1.370 . S
C3225 C3229 1.408 . S
C3226 C3224 1.363 . S
C3226 C3227 1.370 . S
C3226 C3230 1.524 . S
C3227 C3219 1.503 . S
C3227 C3226 1.370 . S
C3227 C3228 1.403 . S
C3228 C3227 1.403 . S
C3228 C3229 1.404 . S
C3228 C3231 1.539 . S
C3229 C3225 1.408 . S
C3229 C3228 1.404 . S
C3229 H3241 0.930 . S
C3230 C3226 1.524 . S
C3230 H3242 0.956 . S
C3230 H3243 0.961 . S
C3230 H3244 0.961 . S
C3231 C3228 1.539 . S
C3231 H3245 0.958 . S
C3231 H3246 0.961 . S
C3231 H3247 0.960 . S
H3232 C3216 0.931 . S
H3233 C3221 0.929 . S
H3234 C3222 0.960 . S
H3235 C3222 0.962 . S
H3236 C3222 0.960 . S
H3237 C3223 0.961 . S
H3238 C3223 0.961 . S
H3239 C3223 0.961 . S
H3240 C3224 0.931 . S
H3241 C3229 0.930 . S
H3242 C3230 0.956 . S
H3243 C3230 0.961 . S
H3244 C3230 0.961 . S
H3245 C3231 0.958 . S
H3246 C3231 0.961 . S
H3247 C3231 0.960 . S
C3248 C3249 1.391 . S
C3248 C3250 1.394 . S
C3248 H3264 0.931 . S
C3249 C3248 1.391 . S
C3249 C3253 1.376 . S
C3250 C3248 1.394 . S
C3250 C3251 1.369 . S
C3250 C3254 1.531 . S
C3251 C3250 1.369 . S
C3251 C3252 1.410 . S
C3251 C3259 1.503 . S
C3252 C3251 1.410 . S
C3252 C3253 1.392 . S
C3252 C3255 1.511 . S
C3253 C3249 1.376 . S
C3253 C3252 1.392 . S
C3253 H3265 0.929 . S
C3254 C3250 1.531 . S
C3254 H3266 0.960 . S
C3254 H3267 0.962 . S
C3254 H3268 0.960 . S
C3255 C3252 1.511 . S
C3255 H3269 0.961 . S
C3255 H3270 0.961 . S
C3255 H3271 0.961 . S
C3256 C3257 1.370 . S
C3256 C3258 1.363 . S
C3256 H3272 0.931 . S
C3257 C3256 1.370 . S
C3257 C3261 1.408 . S
C3258 C3256 1.363 . S
C3258 C3259 1.370 . S
C3258 C3262 1.524 . S
C3259 C3251 1.503 . S
C3259 C3258 1.370 . S
C3259 C3260 1.403 . S
C3260 C3259 1.403 . S
C3260 C3261 1.404 . S
C3260 C3263 1.539 . S
C3261 C3257 1.408 . S
C3261 C3260 1.404 . S
C3261 H3273 0.930 . S
C3262 C3258 1.524 . S
C3262 H3274 0.956 . S
C3262 H3275 0.961 . S
C3262 H3276 0.961 . S
C3263 C3260 1.539 . S
C3263 H3277 0.958 . S
C3263 H3278 0.961 . S
C3263 H3279 0.960 . S
H3264 C3248 0.931 . S
H3265 C3253 0.929 . S
H3266 C3254 0.960 . S
H3267 C3254 0.962 . S
H3268 C3254 0.960 . S
H3269 C3255 0.961 . S
H3270 C3255 0.961 . S
H3271 C3255 0.961 . S
H3272 C3256 0.931 . S
H3273 C3261 0.930 . S
H3274 C3262 0.956 . S
H3275 C3262 0.961 . S
H3276 C3262 0.961 . S
H3277 C3263 0.958 . S
H3278 C3263 0.961 . S
H3279 C3263 0.960 . S
C3280 C3281 1.391 . S
C3280 C3282 1.394 . S
C3280 H3296 0.931 . S
C3281 C3280 1.391 . S
C3281 C3285 1.376 . S
C3282 C3280 1.394 . S
C3282 C3283 1.369 . S
C3282 C3286 1.531 . S
C3283 C3282 1.369 . S
C3283 C3284 1.410 . S
C3283 C3291 1.503 . S
C3284 C3283 1.410 . S
C3284 C3285 1.392 . S
C3284 C3287 1.511 . S
C3285 C3281 1.376 . S
C3285 C3284 1.392 . S
C3285 H3297 0.929 . S
C3286 C3282 1.531 . S
C3286 H3298 0.960 . S
C3286 H3299 0.962 . S
C3286 H3300 0.960 . S
C3287 C3284 1.511 . S
C3287 H3301 0.961 . S
C3287 H3302 0.961 . S
C3287 H3303 0.961 . S
C3288 C3289 1.370 1_455 S
C3288 C3290 1.363 1_455 S
C3288 H3304 0.931 . S
C3289 C3288 1.370 1_655 S
C3289 C3293 1.408 . S
C3290 C3288 1.363 1_655 S
C3290 C3291 1.370 . S
C3290 C3294 1.524 . S
C3291 C3283 1.503 . S
C3291 C3290 1.370 . S
C3291 C3292 1.403 . S
C3292 C3291 1.403 . S
C3292 C3293 1.404 . S
C3292 C3295 1.539 . S
C3293 C3289 1.408 . S
C3293 C3292 1.404 . S
C3293 H3305 0.930 . S
C3294 C3290 1.524 . S
C3294 H3306 0.956 1_655 S
C3294 H3307 0.961 . S
C3294 H3308 0.961 1_655 S
C3295 C3292 1.539 . S
C3295 H3309 0.958 . S
C3295 H3310 0.961 . S
C3295 H3311 0.960 . S
H3296 C3280 0.931 . S
H3297 C3285 0.929 . S
H3298 C3286 0.960 . S
H3299 C3286 0.962 . S
H3300 C3286 0.960 . S
H3301 C3287 0.961 . S
H3302 C3287 0.961 . S
H3303 C3287 0.961 . S
H3304 C3288 0.931 . S
H3305 C3293 0.930 . S
H3306 C3294 0.956 1_455 S
H3307 C3294 0.961 . S
H3308 C3294 0.961 1_455 S
H3309 C3295 0.958 . S
H3310 C3295 0.961 . S
H3311 C3295 0.960 . S
C3312 C3313 1.391 . S
C3312 C3314 1.394 . S
C3312 H3328 0.931 . S
C3313 C3312 1.391 . S
C3313 C3317 1.376 . S
C3314 C3312 1.394 . S
C3314 C3315 1.369 . S
C3314 C3318 1.531 . S
C3315 C3314 1.369 . S
C3315 C3316 1.410 . S
C3315 C3323 1.503 . S
C3316 C3315 1.410 . S
C3316 C3317 1.392 . S
C3316 C3319 1.511 . S
C3317 C3313 1.376 . S
C3317 C3316 1.392 . S
C3317 H3329 0.929 . S
C3318 C3314 1.531 . S
C3318 H3330 0.960 . S
C3318 H3331 0.962 . S
C3318 H3332 0.960 . S
C3319 C3316 1.511 . S
C3319 H3333 0.961 . S
C3319 H3334 0.961 . S
C3319 H3335 0.961 . S
C3320 C3321 1.370 . S
C3320 C3322 1.363 . S
C3320 H3336 0.931 . S
C3321 C3320 1.370 . S
C3321 C3325 1.408 . S
C3322 C3320 1.363 . S
C3322 C3323 1.370 . S
C3322 C3326 1.524 . S
C3323 C3315 1.503 . S
C3323 C3322 1.370 . S
C3323 C3324 1.403 . S
C3324 C3323 1.403 . S
C3324 C3325 1.404 . S
C3324 C3327 1.539 . S
C3325 C3321 1.408 . S
C3325 C3324 1.404 . S
C3325 H3337 0.930 . S
C3326 C3322 1.524 . S
C3326 H3338 0.956 . S
C3326 H3339 0.961 . S
C3326 H3340 0.961 . S
C3327 C3324 1.539 . S
C3327 H3341 0.958 . S
C3327 H3342 0.961 . S
C3327 H3343 0.960 . S
H3328 C3312 0.931 . S
H3329 C3317 0.929 . S
H3330 C3318 0.960 . S
H3331 C3318 0.962 . S
H3332 C3318 0.960 . S
H3333 C3319 0.961 . S
H3334 C3319 0.961 . S
H3335 C3319 0.961 . S
H3336 C3320 0.931 . S
H3337 C3325 0.930 . S
H3338 C3326 0.956 . S
H3339 C3326 0.961 . S
H3340 C3326 0.961 . S
H3341 C3327 0.958 . S
H3342 C3327 0.961 . S
H3343 C3327 0.960 . S
C3344 C3345 1.391 . S
C3344 C3346 1.394 . S
C3344 H3360 0.931 . S
C3345 C3344 1.391 . S
C3345 C3349 1.376 . S
C3346 C3344 1.394 . S
C3346 C3347 1.369 . S
C3346 C3350 1.531 . S
C3347 C3346 1.369 . S
C3347 C3348 1.410 . S
C3347 C3355 1.503 . S
C3348 C3347 1.410 . S
C3348 C3349 1.392 . S
C3348 C3351 1.511 . S
C3349 C3345 1.376 . S
C3349 C3348 1.392 . S
C3349 H3361 0.929 . S
C3350 C3346 1.531 . S
C3350 H3362 0.960 . S
C3350 H3363 0.962 . S
C3350 H3364 0.960 . S
C3351 C3348 1.511 . S
C3351 H3365 0.961 . S
C3351 H3366 0.961 . S
C3351 H3367 0.961 . S
C3352 C3353 1.370 . S
C3352 C3354 1.363 . S
C3352 H3368 0.931 . S
C3353 C3352 1.370 . S
C3353 C3357 1.408 . S
C3354 C3352 1.363 . S
C3354 C3355 1.370 . S
C3354 C3358 1.524 . S
C3355 C3347 1.503 . S
C3355 C3354 1.370 . S
C3355 C3356 1.403 . S
C3356 C3355 1.403 . S
C3356 C3357 1.404 . S
C3356 C3359 1.539 . S
C3357 C3353 1.408 . S
C3357 C3356 1.404 . S
C3357 H3369 0.930 . S
C3358 C3354 1.524 . S
C3358 H3370 0.956 . S
C3358 H3371 0.961 . S
C3358 H3372 0.961 . S
C3359 C3356 1.539 . S
C3359 H3373 0.958 . S
C3359 H3374 0.961 . S
C3359 H3375 0.960 . S
H3360 C3344 0.931 . S
H3361 C3349 0.929 . S
H3362 C3350 0.960 . S
H3363 C3350 0.962 . S
H3364 C3350 0.960 . S
H3365 C3351 0.961 . S
H3366 C3351 0.961 . S
H3367 C3351 0.961 . S
H3368 C3352 0.931 . S
H3369 C3357 0.930 . S
H3370 C3358 0.956 . S
H3371 C3358 0.961 . S
H3372 C3358 0.961 . S
H3373 C3359 0.958 . S
H3374 C3359 0.961 . S
H3375 C3359 0.960 . S
C3376 C3377 1.391 . S
C3376 C3378 1.394 . S
C3376 H3392 0.931 . S
C3377 C3376 1.391 . S
C3377 C3381 1.376 . S
C3378 C3376 1.394 . S
C3378 C3379 1.369 . S
C3378 C3382 1.531 . S
C3379 C3378 1.369 . S
C3379 C3380 1.410 . S
C3379 C3387 1.503 . S
C3380 C3379 1.410 . S
C3380 C3381 1.392 . S
C3380 C3383 1.511 . S
C3381 C3377 1.376 . S
C3381 C3380 1.392 . S
C3381 H3393 0.929 . S
C3382 C3378 1.531 . S
C3382 H3394 0.960 . S
C3382 H3395 0.962 . S
C3382 H3396 0.960 . S
C3383 C3380 1.511 . S
C3383 H3397 0.961 . S
C3383 H3398 0.961 . S
C3383 H3399 0.961 . S
C3384 C3385 1.370 . S
C3384 C3386 1.363 . S
C3384 H3400 0.931 . S
C3385 C3384 1.370 . S
C3385 C3389 1.408 . S
C3386 C3384 1.363 . S
C3386 C3387 1.370 . S
C3386 C3390 1.524 . S
C3387 C3379 1.503 . S
C3387 C3386 1.370 . S
C3387 C3388 1.403 . S
C3388 C3387 1.403 . S
C3388 C3389 1.404 . S
C3388 C3391 1.539 . S
C3389 C3385 1.408 . S
C3389 C3388 1.404 . S
C3389 H3401 0.930 . S
C3390 C3386 1.524 . S
C3390 H3402 0.956 . S
C3390 H3403 0.961 . S
C3390 H3404 0.961 . S
C3391 C3388 1.539 . S
C3391 H3405 0.958 . S
C3391 H3406 0.961 . S
C3391 H3407 0.960 . S
H3392 C3376 0.931 . S
H3393 C3381 0.929 . S
H3394 C3382 0.960 . S
H3395 C3382 0.962 . S
H3396 C3382 0.960 . S
H3397 C3383 0.961 . S
H3398 C3383 0.961 . S
H3399 C3383 0.961 . S
H3400 C3384 0.931 . S
H3401 C3389 0.930 . S
H3402 C3390 0.956 . S
H3403 C3390 0.961 . S
H3404 C3390 0.961 . S
H3405 C3391 0.958 . S
H3406 C3391 0.961 . S
H3407 C3391 0.960 . S
C3408 C3409 1.391 . S
C3408 C3410 1.394 . S
C3408 H3424 0.931 . S
C3409 C3408 1.391 . S
C3409 C3413 1.376 . S
C3410 C3408 1.394 . S
C3410 C3411 1.369 . S
C3410 C3414 1.531 . S
C3411 C3410 1.369 . S
C3411 C3412 1.410 . S
C3411 C3419 1.503 . S
C3412 C3411 1.410 . S
C3412 C3413 1.392 . S
C3412 C3415 1.511 . S
C3413 C3409 1.376 . S
C3413 C3412 1.392 . S
C3413 H3425 0.929 . S
C3414 C3410 1.531 . S
C3414 H3426 0.960 . S
C3414 H3427 0.962 . S
C3414 H3428 0.960 . S
C3415 C3412 1.511 . S
C3415 H3429 0.961 . S
C3415 H3430 0.961 . S
C3415 H3431 0.961 . S
C3416 C3417 1.370 . S
C3416 C3418 1.363 . S
C3416 H3432 0.931 . S
C3417 C3416 1.370 . S
C3417 C3421 1.408 . S
C3418 C3416 1.363 . S
C3418 C3419 1.370 . S
C3418 C3422 1.524 . S
C3419 C3411 1.503 . S
C3419 C3418 1.370 . S
C3419 C3420 1.403 . S
C3420 C3419 1.403 . S
C3420 C3421 1.404 . S
C3420 C3423 1.539 . S
C3421 C3417 1.408 . S
C3421 C3420 1.404 . S
C3421 H3433 0.930 . S
C3422 C3418 1.524 . S
C3422 H3434 0.956 . S
C3422 H3435 0.961 . S
C3422 H3436 0.961 . S
C3423 C3420 1.539 . S
C3423 H3437 0.958 . S
C3423 H3438 0.961 . S
C3423 H3439 0.960 . S
H3424 C3408 0.931 . S
H3425 C3413 0.929 . S
H3426 C3414 0.960 . S
H3427 C3414 0.962 . S
H3428 C3414 0.960 . S
H3429 C3415 0.961 . S
H3430 C3415 0.961 . S
H3431 C3415 0.961 . S
H3432 C3416 0.931 . S
H3433 C3421 0.930 . S
H3434 C3422 0.956 . S
H3435 C3422 0.961 . S
H3436 C3422 0.961 . S
H3437 C3423 0.958 . S
H3438 C3423 0.961 . S
H3439 C3423 0.960 . S
C3440 C3441 1.391 . S
C3440 C3442 1.394 . S
C3440 H3456 0.931 . S
C3441 C3440 1.391 . S
C3441 C3445 1.376 . S
C3442 C3440 1.394 . S
C3442 C3443 1.369 . S
C3442 C3446 1.531 . S
C3443 C3442 1.369 . S
C3443 C3444 1.410 . S
C3443 C3451 1.503 . S
C3444 C3443 1.410 . S
C3444 C3445 1.392 . S
C3444 C3447 1.511 . S
C3445 C3441 1.376 . S
C3445 C3444 1.392 . S
C3445 H3457 0.929 . S
C3446 C3442 1.531 . S
C3446 H3458 0.960 . S
C3446 H3459 0.962 . S
C3446 H3460 0.960 . S
C3447 C3444 1.511 . S
C3447 H3461 0.961 . S
C3447 H3462 0.961 . S
C3447 H3463 0.961 . S
C3448 C3449 1.370 . S
C3448 C3450 1.363 . S
C3448 H3464 0.931 . S
C3449 C3448 1.370 . S
C3449 C3453 1.408 . S
C3450 C3448 1.363 . S
C3450 C3451 1.370 . S
C3450 C3454 1.524 . S
C3451 C3443 1.503 . S
C3451 C3450 1.370 . S
C3451 C3452 1.403 . S
C3452 C3451 1.403 . S
C3452 C3453 1.404 . S
C3452 C3455 1.539 . S
C3453 C3449 1.408 . S
C3453 C3452 1.404 . S
C3453 H3465 0.930 . S
C3454 C3450 1.524 . S
C3454 H3466 0.956 . S
C3454 H3467 0.961 . S
C3454 H3468 0.961 . S
C3455 C3452 1.539 . S
C3455 H3469 0.958 . S
C3455 H3470 0.961 . S
C3455 H3471 0.960 . S
H3456 C3440 0.931 . S
H3457 C3445 0.929 . S
H3458 C3446 0.960 . S
H3459 C3446 0.962 . S
H3460 C3446 0.960 . S
H3461 C3447 0.961 . S
H3462 C3447 0.961 . S
H3463 C3447 0.961 . S
H3464 C3448 0.931 . S
H3465 C3453 0.930 . S
H3466 C3454 0.956 . S
H3467 C3454 0.961 . S
H3468 C3454 0.961 . S
H3469 C3455 0.958 . S
H3470 C3455 0.961 . S
H3471 C3455 0.960 . S
C3472 C3473 1.391 . S
C3472 C3474 1.394 . S
C3472 H3488 0.931 . S
C3473 C3472 1.391 . S
C3473 C3477 1.376 . S
C3474 C3472 1.394 . S
C3474 C3475 1.369 . S
C3474 C3478 1.531 . S
C3475 C3474 1.369 . S
C3475 C3476 1.410 . S
C3475 C3483 1.503 . S
C3476 C3475 1.410 . S
C3476 C3477 1.392 . S
C3476 C3479 1.511 . S
C3477 C3473 1.376 . S
C3477 C3476 1.392 . S
C3477 H3489 0.929 . S
C3478 C3474 1.531 . S
C3478 H3490 0.960 . S
C3478 H3491 0.962 . S
C3478 H3492 0.960 . S
C3479 C3476 1.511 . S
C3479 H3493 0.961 . S
C3479 H3494 0.961 . S
C3479 H3495 0.961 . S
C3480 C3481 1.370 . S
C3480 C3482 1.363 . S
C3480 H3496 0.931 . S
C3481 C3480 1.370 . S
C3481 C3485 1.408 . S
C3482 C3480 1.363 . S
C3482 C3483 1.370 . S
C3482 C3486 1.524 . S
C3483 C3475 1.503 . S
C3483 C3482 1.370 . S
C3483 C3484 1.403 . S
C3484 C3483 1.403 . S
C3484 C3485 1.404 . S
C3484 C3487 1.539 . S
C3485 C3481 1.408 . S
C3485 C3484 1.404 . S
C3485 H3497 0.930 . S
C3486 C3482 1.524 . S
C3486 H3498 0.956 . S
C3486 H3499 0.961 . S
C3486 H3500 0.961 . S
C3487 C3484 1.539 . S
C3487 H3501 0.958 . S
C3487 H3502 0.961 . S
C3487 H3503 0.960 . S
H3488 C3472 0.931 . S
H3489 C3477 0.929 . S
H3490 C3478 0.960 . S
H3491 C3478 0.962 . S
H3492 C3478 0.960 . S
H3493 C3479 0.961 . S
H3494 C3479 0.961 . S
H3495 C3479 0.961 . S
H3496 C3480 0.931 . S
H3497 C3485 0.930 . S
H3498 C3486 0.956 . S
H3499 C3486 0.961 . S
H3500 C3486 0.961 . S
H3501 C3487 0.958 . S
H3502 C3487 0.961 . S
H3503 C3487 0.960 . S
C3504 C3505 1.391 . S
C3504 C3506 1.394 . S
C3504 H3520 0.931 . S
C3505 C3504 1.391 . S
C3505 C3509 1.376 . S
C3506 C3504 1.394 . S
C3506 C3507 1.369 . S
C3506 C3510 1.531 . S
C3507 C3506 1.369 . S
C3507 C3508 1.410 . S
C3507 C3515 1.503 . S
C3508 C3507 1.410 . S
C3508 C3509 1.392 . S
C3508 C3511 1.511 . S
C3509 C3505 1.376 . S
C3509 C3508 1.392 . S
C3509 H3521 0.929 . S
C3510 C3506 1.531 . S
C3510 H3522 0.960 . S
C3510 H3523 0.962 . S
C3510 H3524 0.960 . S
C3511 C3508 1.511 . S
C3511 H3525 0.961 . S
C3511 H3526 0.961 . S
C3511 H3527 0.961 . S
C3512 C3513 1.370 . S
C3512 C3514 1.363 . S
C3512 H3528 0.931 . S
C3513 C3512 1.370 . S
C3513 C3517 1.408 . S
C3514 C3512 1.363 . S
C3514 C3515 1.370 . S
C3514 C3518 1.524 . S
C3515 C3507 1.503 . S
C3515 C3514 1.370 . S
C3515 C3516 1.403 . S
C3516 C3515 1.403 . S
C3516 C3517 1.404 . S
C3516 C3519 1.539 . S
C3517 C3513 1.408 . S
C3517 C3516 1.404 . S
C3517 H3529 0.930 1_565 S
C3518 C3514 1.524 . S
C3518 H3530 0.956 . S
C3518 H3531 0.961 . S
C3518 H3532 0.961 . S
C3519 C3516 1.539 . S
C3519 H3533 0.958 . S
C3519 H3534 0.961 . S
C3519 H3535 0.960 . S
H3520 C3504 0.931 . S
H3521 C3509 0.929 . S
H3522 C3510 0.960 . S
H3523 C3510 0.962 . S
H3524 C3510 0.960 . S
H3525 C3511 0.961 . S
H3526 C3511 0.961 . S
H3527 C3511 0.961 . S
H3528 C3512 0.931 . S
H3529 C3517 0.930 1_545 S
H3530 C3518 0.956 . S
H3531 C3518 0.961 . S
H3532 C3518 0.961 . S
H3533 C3519 0.958 . S
H3534 C3519 0.961 . S
H3535 C3519 0.960 . S
C3536 C3537 1.391 . S
C3536 C3538 1.394 . S
C3536 H3552 0.931 . S
C3537 C3536 1.391 . S
C3537 C3541 1.376 . S
C3538 C3536 1.394 . S
C3538 C3539 1.369 . S
C3538 C3542 1.531 . S
C3539 C3538 1.369 . S
C3539 C3540 1.410 . S
C3539 C3547 1.503 . S
C3540 C3539 1.410 . S
C3540 C3541 1.392 . S
C3540 C3543 1.511 . S
C3541 C3537 1.376 . S
C3541 C3540 1.392 . S
C3541 H3553 0.929 . S
C3542 C3538 1.531 . S
C3542 H3554 0.960 . S
C3542 H3555 0.962 . S
C3542 H3556 0.960 . S
C3543 C3540 1.511 . S
C3543 H3557 0.961 . S
C3543 H3558 0.961 . S
C3543 H3559 0.961 . S
C3544 C3545 1.370 . S
C3544 C3546 1.363 . S
C3544 H3560 0.931 . S
C3545 C3544 1.370 . S
C3545 C3549 1.408 . S
C3546 C3544 1.363 . S
C3546 C3547 1.370 . S
C3546 C3550 1.524 . S
C3547 C3539 1.503 . S
C3547 C3546 1.370 . S
C3547 C3548 1.403 . S
C3548 C3547 1.403 . S
C3548 C3549 1.404 . S
C3548 C3551 1.539 . S
C3549 C3545 1.408 . S
C3549 C3548 1.404 . S
C3549 H3561 0.930 . S
C3550 C3546 1.524 . S
C3550 H3562 0.956 . S
C3550 H3563 0.961 . S
C3550 H3564 0.961 . S
C3551 C3548 1.539 . S
C3551 H3565 0.958 . S
C3551 H3566 0.961 . S
C3551 H3567 0.960 . S
H3552 C3536 0.931 . S
H3553 C3541 0.929 . S
H3554 C3542 0.960 . S
H3555 C3542 0.962 . S
H3556 C3542 0.960 . S
H3557 C3543 0.961 . S
H3558 C3543 0.961 . S
H3559 C3543 0.961 . S
H3560 C3544 0.931 . S
H3561 C3549 0.930 . S
H3562 C3550 0.956 . S
H3563 C3550 0.961 . S
H3564 C3550 0.961 . S
H3565 C3551 0.958 . S
H3566 C3551 0.961 . S
H3567 C3551 0.960 . S
C3568 C3569 1.385 1_556 S
C3568 C3570 1.394 . S
C3568 H3584 0.931 . S
C3569 C3568 1.385 1_554 S
C3569 C3573 1.386 . S
C3570 C3568 1.394 . S
C3570 C3571 1.369 1_556 S
C3570 C3574 1.531 . S
C3571 C3570 1.369 1_554 S
C3571 C3572 1.410 . S
C3571 C3579 1.503 . S
C3572 C3571 1.410 . S
C3572 C3573 1.392 . S
C3572 C3575 1.511 . S
C3573 C3569 1.386 . S
C3573 C3572 1.392 . S
C3573 H3585 0.929 . S
C3574 C3570 1.531 . S
C3574 H3586 0.960 . S
C3574 H3587 0.962 1_556 S
C3574 H3588 0.960 . S
C3575 C3572 1.511 . S
C3575 H3589 0.961 . S
C3575 H3590 0.961 . S
C3575 H3591 0.961 . S
C3576 C3577 1.370 . S
C3576 C3578 1.363 . S
C3576 H3592 0.931 . S
C3577 C3576 1.370 . S
C3577 C3581 1.408 1_554 S
C3578 C3576 1.363 . S
C3578 C3579 1.370 . S
C3578 C3582 1.524 . S
C3579 C3571 1.503 . S
C3579 C3578 1.370 . S
C3579 C3580 1.403 1_554 S
C3580 C3579 1.403 1_556 S
C3580 C3581 1.404 . S
C3580 C3583 1.539 . S
C3581 C3577 1.408 1_556 S
C3581 C3580 1.404 . S
C3581 H3593 0.930 . S
C3582 C3578 1.524 . S
C3582 H3594 0.956 . S
C3582 H3595 0.961 . S
C3582 H3596 0.961 . S
C3583 C3580 1.539 . S
C3583 H3597 0.958 . S
C3583 H3598 0.961 . S
C3583 H3599 0.960 . S
H3584 C3568 0.931 . S
H3585 C3573 0.929 . S
H3586 C3574 0.960 . S
H3587 C3574 0.962 1_554 S
H3588 C3574 0.960 . S
H3589 C3575 0.961 . S
H3590 C3575 0.961 . S
H3591 C3575 0.961 . S
H3592 C3576 0.931 . S
H3593 C3581 0.930 . S
H3594 C3582 0.956 . S
H3595 C3582 0.961 . S
H3596 C3582 0.961 . S
H3597 C3583 0.958 . S
H3598 C3583 0.961 . S
H3599 C3583 0.960 . S
C3600 C3601 1.391 . S
C3600 C3602 1.394 . S
C3600 H3616 0.931 . S
C3601 C3600 1.391 . S
C3601 C3605 1.376 . S
C3602 C3600 1.394 . S
C3602 C3603 1.369 . S
C3602 C3606 1.531 . S
C3603 C3602 1.369 . S
C3603 C3604 1.410 . S
C3603 C3611 1.503 . S
C3604 C3603 1.410 . S
C3604 C3605 1.392 . S
C3604 C3607 1.511 . S
C3605 C3601 1.376 . S
C3605 C3604 1.392 . S
C3605 H3617 0.929 . S
C3606 C3602 1.531 . S
C3606 H3618 0.960 . S
C3606 H3619 0.962 . S
C3606 H3620 0.960 . S
C3607 C3604 1.511 . S
C3607 H3621 0.961 . S
C3607 H3622 0.961 . S
C3607 H3623 0.961 . S
C3608 C3609 1.370 . S
C3608 C3610 1.363 . S
C3608 H3624 0.931 . S
C3609 C3608 1.370 . S
C3609 C3613 1.408 . S
C3610 C3608 1.363 . S
C3610 C3611 1.370 . S
C3610 C3614 1.524 . S
C3611 C3603 1.503 . S
C3611 C3610 1.370 . S
C3611 C3612 1.403 . S
C3612 C3611 1.403 . S
C3612 C3613 1.404 . S
C3612 C3615 1.539 . S
C3613 C3609 1.408 . S
C3613 C3612 1.404 . S
C3613 H3625 0.930 . S
C3614 C3610 1.524 . S
C3614 H3626 0.956 . S
C3614 H3627 0.961 . S
C3614 H3628 0.961 . S
C3615 C3612 1.539 . S
C3615 H3629 0.958 . S
C3615 H3630 0.961 . S
C3615 H3631 0.960 . S
H3616 C3600 0.931 . S
H3617 C3605 0.929 . S
H3618 C3606 0.960 . S
H3619 C3606 0.962 . S
H3620 C3606 0.960 . S
H3621 C3607 0.961 . S
H3622 C3607 0.961 . S
H3623 C3607 0.961 . S
H3624 C3608 0.931 . S
H3625 C3613 0.930 . S
H3626 C3614 0.956 . S
H3627 C3614 0.961 . S
H3628 C3614 0.961 . S
H3629 C3615 0.958 . S
H3630 C3615 0.961 . S
H3631 C3615 0.960 . S
C3632 C3633 1.391 . S
C3632 C3634 1.394 . S
C3632 H3648 0.931 . S
C3633 C3632 1.391 . S
C3633 C3637 1.376 . S
C3634 C3632 1.394 . S
C3634 C3635 1.369 . S
C3634 C3638 1.531 . S
C3635 C3634 1.369 . S
C3635 C3636 1.410 . S
C3635 C3643 1.503 . S
C3636 C3635 1.410 . S
C3636 C3637 1.392 . S
C3636 C3639 1.511 . S
C3637 C3633 1.376 . S
C3637 C3636 1.392 . S
C3637 H3649 0.929 . S
C3638 C3634 1.531 . S
C3638 H3650 0.948 1_554 S
C3638 H3651 0.962 . S
C3638 H3652 0.960 . S
C3639 C3636 1.511 . S
C3639 H3653 0.961 . S
C3639 H3654 0.961 . S
C3639 H3655 0.961 . S
C3640 C3641 1.370 . S
C3640 C3642 1.363 . S
C3640 H3656 0.931 . S
C3641 C3640 1.370 . S
C3641 C3645 1.408 1_554 S
C3642 C3640 1.363 . S
C3642 C3643 1.370 . S
C3642 C3646 1.524 . S
C3643 C3635 1.503 . S
C3643 C3642 1.370 . S
C3643 C3644 1.403 1_554 S
C3644 C3643 1.403 1_556 S
C3644 C3645 1.404 . S
C3644 C3647 1.539 . S
C3645 C3641 1.408 1_556 S
C3645 C3644 1.404 . S
C3645 H3657 0.930 . S
C3646 C3642 1.524 . S
C3646 H3658 0.956 . S
C3646 H3659 0.961 . S
C3646 H3660 0.961 . S
C3647 C3644 1.539 . S
C3647 H3661 0.958 . S
C3647 H3662 0.961 . S
C3647 H3663 0.960 . S
H3648 C3632 0.931 . S
H3649 C3637 0.929 . S
H3650 C3638 0.948 1_556 S
H3651 C3638 0.962 . S
H3652 C3638 0.960 . S
H3653 C3639 0.961 . S
H3654 C3639 0.961 . S
H3655 C3639 0.961 . S
H3656 C3640 0.931 . S
H3657 C3645 0.930 . S
H3658 C3646 0.956 . S
H3659 C3646 0.961 . S
H3660 C3646 0.961 . S
H3661 C3647 0.958 . S
H3662 C3647 0.961 . S
H3663 C3647 0.960 . S
C3664 C3665 1.391 . S
C3664 C3666 1.394 . S
C3664 H3680 0.931 . S
C3665 C3664 1.391 . S
C3665 C3669 1.376 . S
C3666 C3664 1.394 . S
C3666 C3667 1.369 . S
C3666 C3670 1.531 . S
C3667 C3666 1.369 . S
C3667 C3668 1.410 . S
C3667 C3675 1.503 . S
C3668 C3667 1.410 . S
C3668 C3669 1.392 . S
C3668 C3671 1.511 . S
C3669 C3665 1.376 . S
C3669 C3668 1.392 . S
C3669 H3681 0.929 . S
C3670 C3666 1.531 . S
C3670 H3682 0.960 . S
C3670 H3683 0.962 . S
C3670 H3684 0.960 . S
C3671 C3668 1.511 . S
C3671 H3685 0.961 . S
C3671 H3686 0.961 . S
C3671 H3687 0.961 . S
C3672 C3673 1.370 . S
C3672 C3674 1.363 . S
C3672 H3688 0.931 . S
C3673 C3672 1.370 . S
C3673 C3677 1.408 . S
C3674 C3672 1.363 . S
C3674 C3675 1.370 . S
C3674 C3678 1.524 . S
C3675 C3667 1.503 . S
C3675 C3674 1.370 . S
C3675 C3676 1.403 . S
C3676 C3675 1.403 . S
C3676 C3677 1.404 . S
C3676 C3679 1.539 . S
C3677 C3673 1.408 . S
C3677 C3676 1.404 . S
C3677 H3689 0.930 . S
C3678 C3674 1.524 . S
C3678 H3690 0.956 . S
C3678 H3691 0.961 . S
C3678 H3692 0.961 . S
C3679 C3676 1.539 . S
C3679 H3693 0.958 . S
C3679 H3694 0.961 . S
C3679 H3695 0.960 . S
H3680 C3664 0.931 . S
H3681 C3669 0.929 . S
H3682 C3670 0.960 . S
H3683 C3670 0.962 . S
H3684 C3670 0.960 . S
H3685 C3671 0.961 . S
H3686 C3671 0.961 . S
H3687 C3671 0.961 . S
H3688 C3672 0.931 . S
H3689 C3677 0.930 . S
H3690 C3678 0.956 . S
H3691 C3678 0.961 . S
H3692 C3678 0.961 . S
H3693 C3679 0.958 . S
H3694 C3679 0.961 . S
H3695 C3679 0.960 . S
C3696 C3697 1.391 . S
C3696 C3698 1.394 . S
C3696 H3712 0.931 . S
C3697 C3696 1.391 . S
C3697 C3701 1.376 . S
C3698 C3696 1.394 . S
C3698 C3699 1.369 . S
C3698 C3702 1.531 . S
C3699 C3698 1.369 . S
C3699 C3700 1.410 . S
C3699 C3707 1.503 . S
C3700 C3699 1.410 . S
C3700 C3701 1.392 . S
C3700 C3703 1.511 . S
C3701 C3697 1.376 . S
C3701 C3700 1.392 . S
C3701 H3713 0.929 . S
C3702 C3698 1.531 . S
C3702 H3714 0.960 . S
C3702 H3715 0.962 . S
C3702 H3716 0.960 . S
C3703 C3700 1.511 . S
C3703 H3717 0.961 . S
C3703 H3718 0.961 . S
C3703 H3719 0.961 . S
C3704 C3705 1.370 . S
C3704 C3706 1.363 . S
C3704 H3720 0.931 . S
C3705 C3704 1.370 . S
C3705 C3709 1.408 . S
C3706 C3704 1.363 . S
C3706 C3707 1.370 . S
C3706 C3710 1.524 . S
C3707 C3699 1.503 . S
C3707 C3706 1.370 . S
C3707 C3708 1.403 . S
C3708 C3707 1.403 . S
C3708 C3709 1.404 . S
C3708 C3711 1.539 . S
C3709 C3705 1.408 . S
C3709 C3708 1.404 . S
C3709 H3721 0.930 . S
C3710 C3706 1.524 . S
C3710 H3722 0.956 . S
C3710 H3723 0.961 . S
C3710 H3724 0.961 . S
C3711 C3708 1.539 . S
C3711 H3725 0.958 . S
C3711 H3726 0.961 . S
C3711 H3727 0.960 . S
H3712 C3696 0.931 . S
H3713 C3701 0.929 . S
H3714 C3702 0.960 . S
H3715 C3702 0.962 . S
H3716 C3702 0.960 . S
H3717 C3703 0.961 . S
H3718 C3703 0.961 . S
H3719 C3703 0.961 . S
H3720 C3704 0.931 . S
H3721 C3709 0.930 . S
H3722 C3710 0.956 . S
H3723 C3710 0.961 . S
H3724 C3710 0.961 . S
H3725 C3711 0.958 . S
H3726 C3711 0.961 . S
H3727 C3711 0.960 . S
C657 C106 1.890 . S
C665 C354 1.848 1_556 S
C689 C65 1.600 . S
C697 C365 1.604 . S
C721 C79 1.420 . S
C729 C394 1.362 . S
C761 C397 1.227 . S
C753 C90 1.228 . S
C785 C21 1.344 . S
C793 C435 1.358 . S
C825 C438 1.031 . S
C817 C35 1.055 . S
C857 C465 1.512 . S
C849 C50 1.505 . S
C881 C6 1.650 . S
C889 C494 1.613 . S
C921 C345 1.782 1_655 S
C913 C232 1.764 . S
C945 C245 0.834 . S
C953 C357 0.895 . S
C985 C385 1.623 . S
C977 C274 1.626 . S
C1017 C414 1.144 . S
C1009 C175 1.109 . S
C1041 C231 0.826 . S
C1049 C418 0.866 1_655 S
C1081 C444 1.570 . S
C1073 C246 1.584 . S
C1113 C457 0.656 . S
C1105 C273 0.611 . S
C1145 C485 1.748 . S
C1137 C176 1.755 . S
C1177 C337 1.542 . S
C1169 C160 1.518 . S
C1201 C289 1.750 . S
C1209 C504 1.725 . S
C1241 C535 1.596 . S
C1233 C328 1.550 . S
C1273 C554 1.058 . S
C1265 C317 1.095 . S
C1297 C118 1.294 . S
C1305 C477 1.398 . S
C1329 C132 1.418 . S
C1337 C377 1.509 . S
C1361 C331 1.653 . S
C1369 C565 1.660 . S
C1401 C594 1.106 . S
C1393 C303 1.159 . S
C1433 C355 1.462 . S
C1425 C63 1.505 . S
C1465 C584 1.985 . S
C1457 C107 1.965 . S
C1489 C92 1.142 . S
C1497 C395 1.124 . S
C1521 C78 1.732 . S
C1529 C558 1.742 . S
C1561 C434 1.887 . S
C1553 C8 1.913 . S
C1585 C51 1.141 . S
C1593 C517 1.137 . S
C1625 C464 1.826 1_556 S
C1617 C37 1.803 . S
C1657 C615 1.552 . S
C1649 C20 1.532 . S
C1689 C344 1.553 . S
C1681 C147 1.495 . S
C1721 C578 1.043 . S
C1713 C316 1.056 . S
C1745 C119 1.512 . S
C1753 C384 1.554 . S
C1777 C288 1.222 . S
C1785 C575 1.224 . S
C1809 C148 1.165 . S
C1817 C417 1.157 . S
C1849 C525 1.581 . S
C1841 C315 1.573 . S
C1873 C120 0.948 . S
C1881 C458 0.920 . S
C1905 C287 1.591 . S
C1913 C604 1.609 . S
C1937 C188 1.380 . S
C1945 C338 1.394 . S
C1969 C177 1.981 . S
C1977 C505 1.968 . S
C2001 C258 1.653 . S
C2009 C454 1.659 . S
C2033 C247 1.157 . S
C2041 C555 1.145 . S
C2073 C598 1.257 . S
C2065 C272 1.247 . S
C2097 C216 1.355 . S
C2105 C378 1.376 1_565 S
C2137 C404 1.865 . S
C2129 C261 1.833 . S
C2169 C375 1.110 . S
C2161 C205 1.125 . S
C2193 C76 1.520 . S
C2201 C634 1.503 . S
C2233 C585 1.675 . S
C2225 C93 1.672 . S
C2257 C105 0.993 . S
C2265 C654 1.031 . S
C2289 C62 1.199 . S
C2297 C557 1.255 . S
C2321 C49 1.300 . S
C2329 C515 1.331 . S
C2361 C518 1.403 . S
C2353 C9 1.380 . S
C2393 C545 1.443 . S
C2385 C22 1.450 1_655 S
C2425 C614 1.952 . S
C2417 C36 2.009 . S
C2457 C625 1.716 . S
C2449 C260 1.699 . S
C2481 C189 0.810 . S
C2489 C577 0.750 . S
C2521 C645 1.557 . S
C2513 C204 1.553 . S
C2553 C574 0.954 . S
C2545 C217 1.003 . S
C2585 C498 1.045 . S
C2577 C259 1.061 . S
C2609 C190 1.674 . S
C2617 C524 1.661 . S
C2649 C537 0.782 . S
C2641 C203 0.817 . S
C2673 C218 1.788 . S
C2681 C605 1.815 . S
C2713 C617 1.510 . S
C2705 C314 1.491 . S
C2737 C135 1.794 . S
C2745 C424 1.774 . S
C2777 C455 1.505 . S
C2769 C146 1.541 . S
C2809 C474 1.128 . S
C2801 C163 1.121 . S
C2841 C597 1.414 . S
C2833 C300 1.397 . S
C2865 C286 1.366 . S
C2873 C637 1.479 . S
C2905 C405 1.584 . S
C2897 C149 1.584 . S
C2937 C374 1.056 . S
C2929 C121 1.125 . S
C2961 C91 1.485 . S
C2969 C635 1.459 . S
C3001 C364 1.602 . S
C2993 C77 1.556 . S
C3025 C64 1.136 . S
C3033 C655 1.112 . S
C3057 C104 1.357 . S
C3065 C398 1.428 . S
C3089 C34 1.511 . S
C3097 C514 1.551 1_556 S
C3129 C437 1.096 . S
C3121 C23 1.096 . S
C3153 C7 1.372 . S
C3161 C544 1.449 . S
C3185 C48 1.526 . S
C3193 C495 1.528 . S
C3225 C624 1.525 . S
C3217 C329 1.461 . S
C3249 C162 1.048 . S
C3257 C358 1.027 . S
C3289 C644 1.546 1_655 S
C3281 C301 1.534 . S
C3313 C134 1.255 . S
C3321 C415 1.241 . S
C3345 C330 1.130 . S
C3353 C497 1.141 . S
C3385 C445 1.573 . S
C3377 C161 1.552 . S
C3409 C302 0.939 . S
C3417 C538 0.941 . S
C3449 C484 1.580 . S
C3441 C133 1.548 . S
C3481 C618 1.609 . S
C3473 C244 1.586 . S
C3513 C425 1.958 1_565 S
C3505 C219 1.950 . S
C3537 C230 1.451 . S
C3545 C534 1.407 . S
C3577 C475 1.105 . S
C3569 C191 1.116 . S
C3601 C202 1.404 . S
C3609 C478 1.450 . S
C3633 C174 1.523 . S
C3641 C638 1.576 . S
C3673 C564 1.833 . S
C3665 C233 1.819 1_565 S
C3705 C595 1.076 . S
C3697 C275 1.118 . S
