# Generated by pormake.
# Topology eea, (3,6)-cn, num edge types: 1
# Building blocks:
#     Node 0, Type 0, BuildingBlock: WUSLED_clean_sbu_0, # of connection points: 3
#     Node 1, Type 0, BuildingBlock: WUSLED_clean_sbu_0, # of connection points: 3
#     Node 2, Type 0, BuildingBlock: WUSLED_clean_sbu_0, # of connection points: 3
#     Node 3, Type 0, BuildingBlock: WUSLED_clean_sbu_0, # of connection points: 3
#     Node 4, Type 0, BuildingBlock: WUSLED_clean_sbu_0, # of connection points: 3
#     Node 5, Type 0, BuildingBlock: WUSLED_clean_sbu_0, # of connection points: 3
#     Node 6, Type 0, BuildingBlock: WUSLED_clean_sbu_0, # of connection points: 3
#     Node 7, Type 0, BuildingBlock: WUSLED_clean_sbu_0, # of connection points: 3
#     Node 8, Type 0, BuildingBlock: WUSLED_clean_sbu_0, # of connection points: 3
#     Node 9, Type 0, BuildingBlock: WUSLED_clean_sbu_0, # of connection points: 3
#     Node 10, Type 0, BuildingBlock: WUSLED_clean_sbu_0, # of connection points: 3
#     Node 11, Type 0, BuildingBlock: WUSLED_clean_sbu_0, # of connection points: 3
#     Node 12, Type 0, BuildingBlock: WUSLED_clean_sbu_0, # of connection points: 3
#     Node 13, Type 0, BuildingBlock: WUSLED_clean_sbu_0, # of connection points: 3
#     Node 14, Type 0, BuildingBlock: WUSLED_clean_sbu_0, # of connection points: 3
#     Node 15, Type 0, BuildingBlock: WUSLED_clean_sbu_0, # of connection points: 3
#     Node 16, Type 0, BuildingBlock: WUSLED_clean_sbu_0, # of connection points: 3
#     Node 17, Type 0, BuildingBlock: WUSLED_clean_sbu_0, # of connection points: 3
#     Node 18, Type 1, BuildingBlock: KUMJIN_clean_sbu_0, # of connection points: 6
#     Node 19, Type 1, BuildingBlock: KUMJIN_clean_sbu_0, # of connection points: 6
#     Node 20, Type 1, BuildingBlock: KUMJIN_clean_sbu_0, # of connection points: 6
#     Node 21, Type 1, BuildingBlock: KUMJIN_clean_sbu_0, # of connection points: 6
#     Node 22, Type 1, BuildingBlock: KUMJIN_clean_sbu_0, # of connection points: 6
#     Node 23, Type 1, BuildingBlock: KUMJIN_clean_sbu_0, # of connection points: 6
#     Node 24, Type 1, BuildingBlock: KUMJIN_clean_sbu_0, # of connection points: 6
#     Node 25, Type 1, BuildingBlock: KUMJIN_clean_sbu_0, # of connection points: 6
#     Node 26, Type 1, BuildingBlock: KUMJIN_clean_sbu_0, # of connection points: 6
#     Edge 27, Type (0, 1), BuildingBlock: OJICUG_clean_linker_0, # of connection points: 2
#     Edge 28, Type (0, 1), BuildingBlock: OJICUG_clean_linker_0, # of connection points: 2
#     Edge 29, Type (0, 1), BuildingBlock: OJICUG_clean_linker_0, # of connection points: 2
#     Edge 30, Type (0, 1), BuildingBlock: OJICUG_clean_linker_0, # of connection points: 2
#     Edge 31, Type (0, 1), BuildingBlock: OJICUG_clean_linker_0, # of connection points: 2
#     Edge 32, Type (0, 1), BuildingBlock: OJICUG_clean_linker_0, # of connection points: 2
#     Edge 33, Type (0, 1), BuildingBlock: OJICUG_clean_linker_0, # of connection points: 2
#     Edge 34, Type (0, 1), BuildingBlock: OJICUG_clean_linker_0, # of connection points: 2
#     Edge 35, Type (0, 1), BuildingBlock: OJICUG_clean_linker_0, # of connection points: 2
#     Edge 36, Type (0, 1), BuildingBlock: OJICUG_clean_linker_0, # of connection points: 2
#     Edge 37, Type (0, 1), BuildingBlock: OJICUG_clean_linker_0, # of connection points: 2
#     Edge 38, Type (0, 1), BuildingBlock: OJICUG_clean_linker_0, # of connection points: 2
#     Edge 39, Type (0, 1), BuildingBlock: OJICUG_clean_linker_0, # of connection points: 2
#     Edge 40, Type (0, 1), BuildingBlock: OJICUG_clean_linker_0, # of connection points: 2
#     Edge 41, Type (0, 1), BuildingBlock: OJICUG_clean_linker_0, # of connection points: 2
#     Edge 42, Type (0, 1), BuildingBlock: OJICUG_clean_linker_0, # of connection points: 2
#     Edge 43, Type (0, 1), BuildingBlock: OJICUG_clean_linker_0, # of connection points: 2
#     Edge 44, Type (0, 1), BuildingBlock: OJICUG_clean_linker_0, # of connection points: 2
#     Edge 45, Type (0, 1), BuildingBlock: OJICUG_clean_linker_0, # of connection points: 2
#     Edge 46, Type (0, 1), BuildingBlock: OJICUG_clean_linker_0, # of connection points: 2
#     Edge 47, Type (0, 1), BuildingBlock: OJICUG_clean_linker_0, # of connection points: 2
#     Edge 48, Type (0, 1), BuildingBlock: OJICUG_clean_linker_0, # of connection points: 2
#     Edge 49, Type (0, 1), BuildingBlock: OJICUG_clean_linker_0, # of connection points: 2
#     Edge 50, Type (0, 1), BuildingBlock: OJICUG_clean_linker_0, # of connection points: 2
#     Edge 51, Type (0, 1), BuildingBlock: OJICUG_clean_linker_0, # of connection points: 2
#     Edge 52, Type (0, 1), BuildingBlock: OJICUG_clean_linker_0, # of connection points: 2
#     Edge 53, Type (0, 1), BuildingBlock: OJICUG_clean_linker_0, # of connection points: 2
#     Edge 54, Type (0, 1), BuildingBlock: OJICUG_clean_linker_0, # of connection points: 2
#     Edge 55, Type (0, 1), BuildingBlock: OJICUG_clean_linker_0, # of connection points: 2
#     Edge 56, Type (0, 1), BuildingBlock: OJICUG_clean_linker_0, # of connection points: 2
#     Edge 57, Type (0, 1), BuildingBlock: OJICUG_clean_linker_0, # of connection points: 2
#     Edge 58, Type (0, 1), BuildingBlock: OJICUG_clean_linker_0, # of connection points: 2
#     Edge 59, Type (0, 1), BuildingBlock: OJICUG_clean_linker_0, # of connection points: 2
#     Edge 60, Type (0, 1), BuildingBlock: OJICUG_clean_linker_0, # of connection points: 2
#     Edge 61, Type (0, 1), BuildingBlock: OJICUG_clean_linker_0, # of connection points: 2
#     Edge 62, Type (0, 1), BuildingBlock: OJICUG_clean_linker_0, # of connection points: 2
#     Edge 63, Type (0, 1), BuildingBlock: OJICUG_clean_linker_0, # of connection points: 2
#     Edge 64, Type (0, 1), BuildingBlock: OJICUG_clean_linker_0, # of connection points: 2
#     Edge 65, Type (0, 1), BuildingBlock: OJICUG_clean_linker_0, # of connection points: 2
#     Edge 66, Type (0, 1), BuildingBlock: OJICUG_clean_linker_0, # of connection points: 2
#     Edge 67, Type (0, 1), BuildingBlock: OJICUG_clean_linker_0, # of connection points: 2
#     Edge 68, Type (0, 1), BuildingBlock: OJICUG_clean_linker_0, # of connection points: 2
#     Edge 69, Type (0, 1), BuildingBlock: OJICUG_clean_linker_0, # of connection points: 2
#     Edge 70, Type (0, 1), BuildingBlock: OJICUG_clean_linker_0, # of connection points: 2
#     Edge 71, Type (0, 1), BuildingBlock: OJICUG_clean_linker_0, # of connection points: 2
#     Edge 72, Type (0, 1), BuildingBlock: OJICUG_clean_linker_0, # of connection points: 2
#     Edge 73, Type (0, 1), BuildingBlock: OJICUG_clean_linker_0, # of connection points: 2
#     Edge 74, Type (0, 1), BuildingBlock: OJICUG_clean_linker_0, # of connection points: 2
#     Edge 75, Type (0, 1), BuildingBlock: OJICUG_clean_linker_0, # of connection points: 2
#     Edge 76, Type (0, 1), BuildingBlock: OJICUG_clean_linker_0, # of connection points: 2
#     Edge 77, Type (0, 1), BuildingBlock: OJICUG_clean_linker_0, # of connection points: 2
#     Edge 78, Type (0, 1), BuildingBlock: OJICUG_clean_linker_0, # of connection points: 2
#     Edge 79, Type (0, 1), BuildingBlock: OJICUG_clean_linker_0, # of connection points: 2
#     Edge 80, Type (0, 1), BuildingBlock: OJICUG_clean_linker_0, # of connection points: 2
# Relax obj value: 0.008
# Max RMSD: 0.089
# Mean RMSD: 0.069
data_MOF--net-eea--node1-WUSLED_clean_sbu_0--node2-KUMJIN_clean_sbu_0--edge1-OJICUG_clean_linker_0
_symmetry_space_group_name_H-M    P1
_symmetry_Int_Tables_number       1
_symmetry_cell_setting            triclinic
loop_
_symmetry_equiv_pos_as_xyz
'x, y, z'
_cell_length_a     52.874763
_cell_length_b     54.154615
_cell_length_c     74.950341
_cell_angle_alpha  89.749439
_cell_angle_beta   90.041153
_cell_angle_gamma 120.02562
loop_
_atom_site_label
_atom_site_type_symbol
_atom_site_fract_x
_atom_site_fract_y
_atom_site_fract_z
_atom_type_partial_charge
C0 C 0.21915 0.16404 0.40333 0.0
C1 C 0.22064 0.18451 0.41537 0.0
C2 C 0.21077 0.20914 0.39122 0.0
C3 C 0.21649 0.20686 0.40937 0.0
C4 C 0.2096 0.18861 0.37927 0.0
C5 C 0.21373 0.16636 0.38527 0.0
U6 U 0.24207 0.12364 0.43668 0.0
O7 O 0.22083 0.07743 0.44189 0.0
O8 O 0.26522 0.10018 0.43084 0.0
C9 C 0.24264 0.07533 0.43513 0.0
C10 C 0.22302 0.13999 0.40909 0.0
C11 C 0.23542 0.05127 0.42275 0.0
C12 C 0.20013 0.00775 0.40743 0.0
C13 C 0.20654 0.03203 0.41748 0.0
C14 C 0.25134 0.02183 0.4073 0.0
C15 C 0.22239 1.00203 0.40248 0.0
C16 C 0.25771 0.04601 0.41733 0.0
C17 C 0.27477 0.15755 0.48282 0.0
C18 C 0.28414 0.13552 0.50853 0.0
C19 C 0.30468 0.18671 0.50746 0.0
C20 C 0.29155 0.18427 0.49085 0.0
C21 C 0.30135 0.16244 0.51652 0.0
C22 C 0.27104 0.13311 0.4918 0.0
C23 C 0.26153 0.15621 0.46518 0.0
O24 O 0.25011 0.14552 0.41068 0.0
O25 O 0.20597 0.12378 0.42205 0.0
O26 O 0.23404 0.13644 0.463 0.0
O27 O 0.27788 0.15934 0.4512 0.0
H28 H 0.22483 0.18312 0.42938 0.0
H29 H 0.21728 0.22206 0.41901 0.0
H30 H 0.20578 0.18985 0.36519 0.0
H31 H 0.21265 0.15088 0.37573 0.0
H32 H 0.17757 0.99291 0.40412 0.0
H33 H 0.18876 0.03529 0.4215 0.0
H34 H 0.26915 0.01849 0.4035 0.0
H35 H 0.28013 0.06032 0.42124 0.0
H36 H 0.28131 0.1164 0.51503 0.0
H37 H 0.31734 0.20771 0.51326 0.0
H38 H 0.29458 0.20339 0.48422 0.0
H39 H 0.2582 0.11224 0.48584 0.0
C40 C 0.97226 0.17291 0.40248 0.0
C41 C 0.98365 0.19915 0.41132 0.0
C42 C 0.02456 0.22138 0.39015 0.0
C43 C 1.00949 0.22309 0.40523 0.0
C44 C 1.01308 0.1949 0.38149 0.0
C45 C 0.98729 0.17104 0.38758 0.0
U46 U 0.90726 0.12762 0.43505 0.0
O47 O 0.86064 0.10066 0.42835 0.0
O48 O 0.88461 0.08112 0.43995 0.0
C49 C 0.85963 0.07697 0.43356 0.0
C50 C 0.9444 0.14745 0.40804 0.0
C51 C 0.84202 0.05098 0.42275 0.0
C52 C 0.82529 0.0256 0.39446 0.0
C53 C 0.84412 0.05049 0.40406 0.0
C54 C 0.80246 1.00157 0.42211 0.0
C55 C 0.80385 1.00094 0.40338 0.0
C56 C 0.82128 0.0262 0.43161 0.0
C57 C 0.90282 0.15614 0.48206 0.0
C58 C 0.86615 0.15899 0.50041 0.0
C59 C 0.90562 0.15618 0.51467 0.0
C60 C 0.91676 0.15519 0.49783 0.0
C61 C 0.88025 0.15836 0.51625 0.0
C62 C 0.87724 0.1579 0.48359 0.0
C63 C 0.91664 0.15791 0.46434 0.0
O64 O 0.94586 0.13167 0.42093 0.0
O65 O 0.92151 0.15079 0.40945 0.0
O66 O 0.90364 0.16058 0.4501 0.0
O67 O 0.92726 0.14083 0.46176 0.0
H68 H 0.97251 0.20115 0.42287 0.0
H69 H 0.01779 0.2429 0.41247 0.0
H70 H 0.02372 0.19269 0.36975 0.0
H71 H 0.97885 0.15107 0.38047 0.0
H72 H 0.82695 0.02591 0.38006 0.0
H73 H 0.85993 0.06938 0.3969 0.0
H74 H 0.78669 0.98293 0.42948 0.0
H75 H 0.81925 0.02602 0.44601 0.0
H76 H 0.84689 0.16116 0.50092 0.0
H77 H 0.91699 0.15528 0.52645 0.0
H78 H 0.93667 0.15414 0.49716 0.0
H79 H 0.86602 0.15907 0.4718 0.0
C80 C 0.85295 0.80654 0.40129 0.0
C81 C 0.82596 0.79052 0.41 0.0
C82 C 0.8035 0.81037 0.39022 0.0
C83 C 0.80153 0.7924 0.40452 0.0
C84 C 0.83075 0.82663 0.38174 0.0
C85 C 0.8551 0.82469 0.3872 0.0
U86 U 0.90118 0.78897 0.43264 0.0
O87 O 0.92649 0.76812 0.42562 0.0
O88 O 0.94935 0.81234 0.43493 0.0
C89 C 0.95189 0.79117 0.42843 0.0
C90 C 0.87887 0.804 0.406 0.0
C91 C 0.97588 0.79829 0.41524 0.0
C92 C 0.99685 0.78396 0.39107 0.0
C93 C 0.9727 0.77948 0.40138 0.0
C94 C 0.02781 0.82681 0.40766 0.0
C95 C 0.02496 0.80729 0.39435 0.0
C96 C 1.00368 0.82229 0.41799 0.0
C97 C 0.87295 0.76117 0.48141 0.0
C98 C 0.88461 0.73369 0.50242 0.0
C99 C 0.85425 0.75287 0.51195 0.0
C100 C 0.85687 0.76491 0.49497 0.0
C101 C 0.8677 0.73667 0.51594 0.0
C102 C 0.88715 0.74573 0.48535 0.0
C103 C 0.87237 0.77177 0.46316 0.0
O104 O 0.89699 0.82211 0.41779 0.0
O105 O 0.87454 0.77807 0.40821 0.0
O106 O 0.86847 0.75464 0.44975 0.0
O107 O 0.89122 0.79862 0.45953 0.0
H108 H 0.82372 0.77641 0.42093 0.0
H109 H 0.78111 0.77988 0.4116 0.0
H110 H 0.83316 0.84042 0.37058 0.0
H111 H 0.87564 0.83716 0.3802 0.0
H112 H 0.99361 0.76864 0.38081 0.0
H113 H 0.95176 0.76065 0.39887 0.0
H114 H 0.04904 0.84482 0.4108 0.0
H115 H 1.00708 0.837 0.42871 0.0
H116 H 0.89572 0.72181 0.50494 0.0
H117 H 0.84067 0.75539 0.52173 0.0
H118 H 0.84552 0.77653 0.49225 0.0
H119 H 0.89972 0.74253 0.47516 0.0
C120 C 0.05721 0.21399 0.64531 0.0
C121 C 0.02998 0.19064 0.64044 0.0
C122 C 1.00394 0.20877 0.65825 0.0
C123 C 1.00375 0.18811 0.64679 0.0
C124 C 0.03121 0.23206 0.66311 0.0
C125 C 0.05737 0.23455 0.6568 0.0
U126 U 0.12307 0.22992 0.61364 0.0
O127 O 0.16972 0.25005 0.62057 0.0
O128 O 0.14652 0.20582 0.61125 0.0
C129 C 0.17103 0.22678 0.61768 0.0
C130 C 0.08538 0.21559 0.64023 0.0
C131 C 0.18769 0.21939 0.63072 0.0
C132 C 0.22407 0.2336 0.65448 0.0
C133 C 0.20442 0.23828 0.64441 0.0
C134 C 0.20994 0.19036 0.63803 0.0
C135 C 0.22772 0.20997 0.65113 0.0
C136 C 0.19035 0.19509 0.62793 0.0
C137 C 0.12471 0.25905 0.56522 0.0
C138 C 0.16267 0.27411 0.54244 0.0
C139 C 0.11978 0.27793 0.5366 0.0
C140 C 0.10887 0.26658 0.55356 0.0
C141 C 0.14695 0.28208 0.53074 0.0
C142 C 0.15168 0.26275 0.5595 0.0
C143 C 0.11259 0.24817 0.58328 0.0
O144 O 0.08452 0.19732 0.62839 0.0
O145 O 0.10838 0.24115 0.63829 0.0
O146 O 0.12632 0.26492 0.59681 0.0
O147 O 0.10354 0.22118 0.5867 0.0
H148 H 0.02886 0.17407 0.63187 0.0
H149 H 0.98327 0.17004 0.64255 0.0
H150 H 0.03242 0.2482 0.67211 0.0
H151 H 0.07786 0.25244 0.66121 0.0
H152 H 0.23703 0.24899 0.6646 0.0
H153 H 0.20322 0.25734 0.64694 0.0
H154 H 0.21228 0.17212 0.63486 0.0
H155 H 0.17819 0.18032 0.61733 0.0
H156 H 0.18349 0.2766 0.53844 0.0
H157 H 0.10716 0.28418 0.52829 0.0
H158 H 0.08806 0.26405 0.55769 0.0
H159 H 0.16431 0.25706 0.56824 0.0
C160 C 0.81095 0.85477 0.64116 0.0
C161 C 0.78715 0.82674 0.64197 0.0
C162 C 0.8184 0.80938 0.65414 0.0
C163 C 0.79083 0.80435 0.64839 0.0
C164 C 0.84223 0.83742 0.65301 0.0
C165 C 0.83851 0.85978 0.64666 0.0
U166 U 0.78699 0.89548 0.60879 0.0
O167 O 0.76579 0.92056 0.61497 0.0
O168 O 0.80914 0.94147 0.60242 0.0
C169 C 0.78809 0.94465 0.60931 0.0
C170 C 0.80742 0.87933 0.63574 0.0
C171 C 0.79698 0.97015 0.6205 0.0
C172 C 0.80614 0.99405 0.64929 0.0
C173 C 0.79969 0.96977 0.63915 0.0
C174 C 0.80776 0.01934 0.62222 0.0
C175 C 0.80974 0.01901 0.64094 0.0
C176 C 0.80147 0.99525 0.61217 0.0
C177 C 0.75098 0.85989 0.56357 0.0
C178 C 0.74149 0.8815 0.53768 0.0
C179 C 0.7202 0.83025 0.53934 0.0
C180 C 0.73361 0.83299 0.55589 0.0
C181 C 0.7238 0.85442 0.53 0.0
C182 C 0.7549 0.88421 0.55434 0.0
C183 C 0.76491 0.8616 0.58101 0.0
O184 O 0.82386 0.89516 0.62246 0.0
O185 O 0.78064 0.87501 0.63511 0.0
O186 O 0.74959 0.85973 0.59527 0.0
O187 O 0.79274 0.8808 0.58253 0.0
H188 H 0.76555 0.82211 0.63791 0.0
H189 H 0.77185 0.7832 0.64922 0.0
H190 H 0.8639 0.84216 0.65696 0.0
H191 H 0.85723 0.88116 0.64624 0.0
H192 H 0.80744 0.99302 0.66367 0.0
H193 H 0.79632 0.95061 0.64588 0.0
H194 H 0.81096 0.03828 0.61528 0.0
H195 H 0.7996 0.99608 0.5978 0.0
H196 H 0.74455 0.90056 0.53097 0.0
H197 H 0.70717 0.80912 0.53379 0.0
H198 H 0.73045 0.81395 0.5627 0.0
H199 H 0.76822 0.90522 0.56002 0.0
C200 C 0.05451 0.84333 0.64401 0.0
C201 C 0.0427 0.81711 0.63513 0.0
C202 C 1.00204 0.79526 0.65647 0.0
C203 C 0.01678 0.79336 0.64128 0.0
C204 C 0.01388 0.82175 0.66515 0.0
C205 C 0.03978 0.84543 0.659 0.0
U206 U 0.11942 0.88771 0.6113 0.0
O207 O 0.1438 0.93431 0.60711 0.0
O208 O 0.16639 0.91277 0.61773 0.0
C209 C 0.1682 0.93729 0.61376 0.0
C210 C 0.08263 0.86845 0.6385 0.0
C211 C 0.18537 0.96159 0.62614 0.0
C212 C 0.19512 1.00623 0.64019 0.0
C213 C 0.17655 0.98143 0.63053 0.0
C214 C 0.23139 0.9916 0.64168 0.0
C215 C 0.22309 0.01197 0.6456 0.0
C216 C 0.21287 0.96688 0.63207 0.0
C217 C 0.11937 0.85569 0.56432 0.0
C218 C 0.15163 0.87782 0.53869 0.0
C219 C 0.11818 0.82692 0.53906 0.0
C220 C 0.10787 0.82922 0.55581 0.0
C221 C 0.1404 0.85109 0.53026 0.0
C222 C 0.14128 0.88009 0.55559 0.0
C223 C 0.10763 0.85665 0.58214 0.0
O224 O 0.10499 0.86435 0.63681 0.0
O225 O 0.08157 0.88472 0.6258 0.0
O226 O 0.0994 0.87563 0.58458 0.0
O227 O 0.12108 0.85377 0.59606 0.0
H228 H 0.05362 0.81494 0.62352 0.0
H229 H 1.00817 0.77352 0.63402 0.0
H230 H 1.00348 0.82409 0.67696 0.0
H231 H 0.04855 0.8654 0.66614 0.0
H232 H 0.18798 0.02145 0.64279 0.0
H233 H 0.15567 0.9783 0.62604 0.0
H234 H 0.25248 0.99491 0.64584 0.0
H235 H 0.22049 0.95223 0.6288 0.0
H236 H 0.16889 0.89688 0.53242 0.0
H237 H 0.10857 0.80607 0.53295 0.0
H238 H 0.0908 0.81012 0.56219 0.0
H239 H 0.15049 0.90079 0.56187 0.0
C240 C 0.88333 0.49458 0.73685 0.0
C241 C 0.88505 0.51534 0.74873 0.0
C242 C 0.87574 0.53999 0.72436 0.0
C243 C 0.88129 0.53783 0.74255 0.0
C244 C 0.87434 0.51919 0.71255 0.0
C245 C 0.87808 0.49679 0.71874 0.0
U246 U 0.90574 0.4549 0.77088 0.0
O247 O 0.88342 0.40898 0.77744 0.0
O248 O 0.92739 0.4299 0.76576 0.0
C249 C 0.90482 0.40581 0.77117 0.0
C250 C 0.8866 0.4703 0.7429 0.0
C251 C 0.89648 0.38041 0.76001 0.0
C252 C 0.88659 0.3563 0.73127 0.0
C253 C 0.89281 0.38049 0.74143 0.0
C254 C 0.88715 0.33171 0.75818 0.0
C255 C 0.88414 0.33173 0.73952 0.0
C256 C 0.89325 0.35573 0.76826 0.0
C257 C 0.93968 0.49071 0.8163 0.0
C258 C 0.95008 0.46914 0.84183 0.0
C259 C 0.96863 0.52005 0.84115 0.0
C260 C 0.95547 0.51739 0.82453 0.0
C261 C 0.96632 0.49603 0.85002 0.0
C262 C 0.93696 0.46652 0.82508 0.0
C263 C 0.92649 0.48908 0.79861 0.0
O264 O 0.91351 0.47524 0.74436 0.0
O265 O 0.86968 0.45493 0.75616 0.0
O266 O 0.89874 0.46985 0.79672 0.0
O267 O 0.94242 0.49087 0.78469 0.0
H268 H 0.88909 0.51405 0.76278 0.0
H269 H 0.88223 0.55322 0.75209 0.0
H270 H 0.87063 0.52033 0.69843 0.0
H271 H 0.87681 0.48107 0.70932 0.0
H272 H 0.88449 0.3571 0.71694 0.0
H273 H 0.8952 0.39934 0.73478 0.0
H274 H 0.88483 0.31306 0.76506 0.0
H275 H 0.89585 0.35514 0.78257 0.0
H276 H 0.94806 0.45023 0.84818 0.0
H277 H 0.98053 0.541 0.84712 0.0
H278 H 0.95772 0.53631 0.81804 0.0
H279 H 0.92489 0.4457 0.81895 0.0
C280 C 0.63779 0.50735 0.73651 0.0
C281 C 0.63701 0.52884 0.72629 0.0
C282 C 0.69022 0.5546 0.72289 0.0
C283 C 0.6628 0.55213 0.71966 0.0
C284 C 0.691 0.53303 0.73306 0.0
C285 C 0.66518 0.50973 0.73972 0.0
U286 U 0.57267 0.46007 0.76886 0.0
O287 O 0.52614 0.43273 0.76214 0.0
O288 O 0.55063 0.41351 0.77343 0.0
C289 C 0.52551 0.40913 0.76713 0.0
C290 C 0.61005 0.48123 0.74202 0.0
C291 C 0.50815 0.38331 0.75615 0.0
C292 C 0.49167 0.35847 0.72768 0.0
C293 C 0.51039 0.38318 0.73745 0.0
C294 C 0.46871 0.33388 0.75516 0.0
C295 C 0.47021 0.33363 0.73643 0.0
C296 C 0.48742 0.35834 0.76485 0.0
C297 C 0.56761 0.48792 0.816 0.0
C298 C 0.53108 0.49091 0.83441 0.0
C299 C 0.5703 0.48758 0.84861 0.0
C300 C 0.58143 0.48665 0.83176 0.0
C301 C 0.54508 0.49001 0.85023 0.0
C302 C 0.54216 0.4899 0.81758 0.0
C303 C 0.58151 0.48994 0.79828 0.0
O304 O 0.61157 0.46508 0.75466 0.0
O305 O 0.58647 0.48349 0.74331 0.0
O306 O 0.56839 0.49251 0.78407 0.0
O307 O 0.59246 0.47316 0.79563 0.0
H308 H 0.61636 0.52747 0.72313 0.0
H309 H 0.66113 0.56797 0.71168 0.0
H310 H 0.71163 0.53425 0.73605 0.0
H311 H 0.66671 0.4934 0.74722 0.0
H312 H 0.49341 0.35906 0.71327 0.0
H313 H 0.52619 0.40224 0.73043 0.0
H314 H 0.4529 0.31509 0.76241 0.0
H315 H 0.48529 0.35788 0.77924 0.0
H316 H 0.51195 0.49329 0.83496 0.0
H317 H 0.58158 0.48646 0.86038 0.0
H318 H 0.60124 0.48544 0.83105 0.0
H319 H 0.53106 0.49133 0.80581 0.0
C320 C 0.51955 0.14076 0.73462 0.0
C321 C 0.49251 0.12456 0.74324 0.0
C322 C 0.47003 0.14437 0.72345 0.0
C323 C 0.46804 0.12635 0.73772 0.0
C324 C 0.49733 0.16081 0.71506 0.0
C325 C 0.52172 0.15898 0.72057 0.0
U326 U 0.56758 0.1219 0.76535 0.0
O327 O 0.59269 0.10119 0.75755 0.0
O328 O 0.61573 0.14498 0.76763 0.0
C329 C 0.61815 0.124 0.76066 0.0
C330 C 0.54545 0.13816 0.73925 0.0
C331 C 0.64222 0.13151 0.74749 0.0
C332 C 0.66349 0.11762 0.72326 0.0
C333 C 0.63922 0.11295 0.7335 0.0
C334 C 0.69423 0.16019 0.74016 0.0
C335 C 0.69155 0.14089 0.72675 0.0
C336 C 0.66996 0.15549 0.75042 0.0
C337 C 0.54026 0.09092 0.81369 0.0
C338 C 0.52699 0.04963 0.83299 0.0
C339 C 0.54547 0.09613 0.84617 0.0
C340 C 0.54823 0.10806 0.82907 0.0
C341 C 0.53445 0.06663 0.84845 0.0
C342 C 0.5298 0.06155 0.81593 0.0
C343 C 0.53907 0.10289 0.79585 0.0
O344 O 0.56327 0.15568 0.75139 0.0
O345 O 0.54119 0.11218 0.74089 0.0
O346 O 0.53446 0.08675 0.78178 0.0
O347 O 0.55772 0.12998 0.79268 0.0
H348 H 0.49025 0.11036 0.75412 0.0
H349 H 0.44757 0.11368 0.74472 0.0
H350 H 0.49976 0.17464 0.70392 0.0
H351 H 0.54229 0.17156 0.71363 0.0
H352 H 0.6604 0.10247 0.71291 0.0
H353 H 0.61833 0.09414 0.73085 0.0
H354 H 0.71541 0.17815 0.74345 0.0
H355 H 0.67324 0.16999 0.76124 0.0
H356 H 0.51788 0.02679 0.83403 0.0
H357 H 0.55178 0.11008 0.85762 0.0
H358 H 0.55591 0.13067 0.82794 0.0
H359 H 0.52282 0.04745 0.80452 0.0
C360 C 0.72309 0.54681 0.97862 0.0
C361 C 0.69584 0.52339 0.97388 0.0
C362 C 0.66989 0.5416 0.99171 0.0
C363 C 0.66964 0.52086 0.98029 0.0
C364 C 0.69718 0.56496 0.99645 0.0
C365 C 0.72332 0.56746 0.99007 0.0
U366 U 0.78892 0.56255 0.94692 0.0
O367 O 0.83557 0.58267 0.95387 0.0
O368 O 0.81233 0.5384 0.94464 0.0
C369 C 0.83684 0.55936 0.95105 0.0
C370 C 0.75124 0.54839 0.97351 0.0
C371 C 0.85349 0.55201 0.96412 0.0
C372 C 0.88978 0.56625 0.98794 0.0
C373 C 0.87014 0.57091 0.97783 0.0
C374 C 0.8758 0.52306 0.97149 0.0
C375 C 0.89349 0.54266 0.98462 0.0
C376 C 0.85622 0.52775 0.96135 0.0
C377 C 0.79066 0.59145 0.89841 0.0
C378 C 0.82844 0.60594 0.87556 0.0
C379 C 0.78593 0.61044 0.86978 0.0
C380 C 0.77501 0.59925 0.88677 0.0
C381 C 0.81291 0.61416 0.86387 0.0
C382 C 0.81744 0.59473 0.89264 0.0
C383 C 0.77851 0.58068 0.91649 0.0
O384 O 0.75035 0.53006 0.96171 0.0
O385 O 0.77425 0.57394 0.97152 0.0
O386 O 0.79224 0.59749 0.92999 0.0
O387 O 0.76942 0.5537 0.91998 0.0
H388 H 0.69468 0.50676 0.96536 0.0
H389 H 0.64914 0.50273 0.97615 0.0
H390 H 0.69845 0.58117 1.00542 0.0
H391 H 0.74383 0.5854 0.9944 0.0
H392 H 0.90267 0.58164 0.99808 0.0
H393 H 0.86888 0.58994 0.98035 0.0
H394 H 0.87819 0.50484 0.96834 0.0
H395 H 0.84413 0.51298 0.95074 0.0
H396 H 0.8491 0.60809 0.87152 0.0
H397 H 0.77347 0.6169 0.86148 0.0
H398 H 0.75435 0.59704 0.89093 0.0
H399 H 0.82991 0.58882 0.90136 0.0
C400 C 0.47361 0.1883 0.97637 0.0
C401 C 0.47255 0.16787 0.96445 0.0
C402 C 0.48151 0.14311 0.98892 0.0
C403 C 0.47644 0.14548 0.97067 0.0
C404 C 0.48217 0.16354 1.00076 0.0
C405 C 0.47828 0.18583 0.99454 0.0
U406 U 0.45259 0.22919 0.94225 0.0
O407 O 0.43142 0.25462 0.9474 0.0
O408 O 0.47572 0.2753 0.93623 0.0
C409 C 0.45436 0.27868 0.94234 0.0
C410 C 0.47053 0.21269 0.97029 0.0
C411 C 0.46273 0.30385 0.95373 0.0
C412 C 0.47261 0.32744 0.98265 0.0
C413 C 0.4663 0.3034 0.9723 0.0
C414 C 0.47232 0.35259 0.95595 0.0
C415 C 0.47522 0.3522 0.9746 0.0
C416 C 0.46615 0.32874 0.94568 0.0
C417 C 0.42044 0.19598 0.89615 0.0
C418 C 0.40337 0.21677 0.87358 0.0
C419 C 0.40047 0.17144 0.86805 0.0
C420 C 0.41284 0.17279 0.8848 0.0
C421 C 0.39538 0.19332 0.86218 0.0
C422 C 0.41577 0.21809 0.89039 0.0
C423 C 0.43257 0.19615 0.91396 0.0
O424 O 0.48794 0.22834 0.95729 0.0
O425 O 0.44371 0.20788 0.96851 0.0
O426 O 0.4162 0.19416 0.9277 0.0
O427 O 0.46034 0.21484 0.91638 0.0
H428 H 0.46899 0.16938 0.95035 0.0
H429 H 0.47606 0.13035 0.96111 0.0
H430 H 0.48548 0.16222 1.01491 0.0
H431 H 0.47906 0.2013 1.00398 0.0
H432 H 0.47463 0.32637 0.99697 0.0
H433 H 0.46378 0.28438 0.97879 0.0
H434 H 0.47476 0.37141 0.94922 0.0
H435 H 0.46364 0.32962 0.93138 0.0
H436 H 0.40014 0.2342 0.8695 0.0
H437 H 0.39423 0.15282 0.85988 0.0
H438 H 0.41616 0.15545 0.88901 0.0
H439 H 0.42155 0.23624 0.89893 0.0
C440 C 0.72047 0.17927 0.97726 0.0
C441 C 0.70873 0.15292 0.96854 0.0
C442 C 0.66831 0.13116 0.99005 0.0
C443 C 0.68297 0.12915 0.97486 0.0
C444 C 0.6801 0.15777 0.99859 0.0
C445 C 0.70584 0.18147 0.99228 0.0
U446 U 0.78449 0.22283 0.94393 0.0
O447 O 0.80759 0.26914 0.93832 0.0
O448 O 0.83139 0.24946 0.94994 0.0
C449 C 0.83257 0.27319 0.94467 0.0
C450 C 0.74827 0.20451 0.97142 0.0
C451 C 0.85005 0.29904 0.95563 0.0
C452 C 0.8662 0.32392 0.98412 0.0
C453 C 0.84754 0.29923 0.97431 0.0
C454 C 0.88966 0.3484 0.95671 0.0
C455 C 0.88788 0.34871 0.97544 0.0
C456 C 0.87102 0.32395 0.94699 0.0
C457 C 0.78428 0.18915 0.89763 0.0
C458 C 0.81736 0.21091 0.8723 0.0
C459 C 0.78209 0.16044 0.87208 0.0
C460 C 0.77185 0.16285 0.88883 0.0
C461 C 0.80518 0.18433 0.86357 0.0
C462 C 0.80707 0.21329 0.8892 0.0
C463 C 0.7727 0.19028 0.91547 0.0
O464 O 0.77099 0.20092 0.96996 0.0
O465 O 0.74662 0.21991 0.95835 0.0
O466 O 0.76357 0.20864 0.91759 0.0
O467 O 0.78696 0.18873 0.9294 0.0
H468 H 0.71956 0.15068 0.95691 0.0
H469 H 0.6744 0.10923 0.96771 0.0
H470 H 0.66976 0.1602 1.0104 0.0
H471 H 0.71454 0.20155 0.99928 0.0
H472 H 0.86423 0.32334 0.99852 0.0
H473 H 0.83154 0.28024 0.9813 0.0
H474 H 0.90562 0.36715 0.94951 0.0
H475 H 0.87335 0.32437 0.93261 0.0
H476 H 0.83529 0.22974 0.86626 0.0
H477 H 0.77177 0.13973 0.86574 0.0
H478 H 0.75411 0.14397 0.89499 0.0
H479 H 0.81701 0.23385 0.89571 0.0
C480 C 0.55296 0.8318 0.07014 0.0
C481 C 0.55392 0.85199 0.08221 0.0
C482 C 0.54441 0.87677 0.058 0.0
C483 C 0.5497 0.87428 0.0762 0.0
C484 C 0.54379 0.85654 0.04601 0.0
C485 C 0.54801 0.83436 0.05202 0.0
U486 U 0.57444 0.79057 0.10378 0.0
O487 O 0.5527 0.74426 0.10864 0.0
O488 O 0.59752 0.76695 0.09826 0.0
C489 C 0.57466 0.7421 0.10222 0.0
C490 C 0.55671 0.80769 0.07593 0.0
C491 C 0.56773 0.71821 0.08976 0.0
C492 C 0.53274 0.67468 0.07434 0.0
C493 C 0.53894 0.6989 0.08439 0.0
C494 C 0.58401 0.689 0.07439 0.0
C495 C 0.55514 0.6691 0.06949 0.0
C496 C 0.59017 0.71311 0.08443 0.0
C497 C 0.60451 0.82191 0.15055 0.0
C498 C 0.62104 0.80046 0.17299 0.0
C499 C 0.62475 0.84611 0.1787 0.0
C500 C 0.61246 0.84509 0.16197 0.0
C501 C 0.62939 0.82391 0.18446 0.0
C502 C 0.60873 0.79948 0.1562 0.0
C503 C 0.59258 0.82214 0.13275 0.0
O504 O 0.58373 0.81325 0.07799 0.0
O505 O 0.53906 0.79112 0.08856 0.0
O506 O 0.56513 0.8028 0.12993 0.0
O507 O 0.6096 0.82553 0.11909 0.0
H508 H 0.55771 0.8504 0.09627 0.0
H509 H 0.55006 0.88926 0.08586 0.0
H510 H 0.54031 0.85796 0.03189 0.0
H511 H 0.54733 0.81907 0.04247 0.0
H512 H 0.51022 0.65977 0.07097 0.0
H513 H 0.52104 0.70201 0.08835 0.0
H514 H 0.60192 0.68575 0.07066 0.0
H515 H 0.61254 0.72747 0.08842 0.0
H516 H 0.62393 0.7828 0.177 0.0
H517 H 0.63129 0.86473 0.18692 0.0
H518 H 0.6095 0.86268 0.15783 0.0
H519 H 0.60269 0.78136 0.14759 0.0
C520 C 0.30502 0.84065 0.06909 0.0
C521 C 0.31642 0.8669 0.0779 0.0
C522 C 0.35756 0.88891 0.05689 0.0
C523 C 0.34239 0.89075 0.07187 0.0
C524 C 0.34613 0.86238 0.04829 0.0
C525 C 0.3202 0.83862 0.05432 0.0
U526 U 0.23921 0.79468 0.10111 0.0
O527 O 0.19249 0.76951 0.09405 0.0
O528 O 0.21517 0.74792 0.10446 0.0
C529 C 0.1908 0.74497 0.09777 0.0
C530 C 0.27682 0.81541 0.07437 0.0
C531 C 0.17374 0.72083 0.08528 0.0
C532 C 0.16367 0.67589 0.07157 0.0
C533 C 0.18237 0.70077 0.0811 0.0
C534 C 0.12769 0.69087 0.06978 0.0
C535 C 0.13577 0.67027 0.06611 0.0
C536 C 0.14635 0.71569 0.07926 0.0
C537 C 0.23466 0.82117 0.14881 0.0
C538 C 0.19807 0.82421 0.16713 0.0
C539 C 0.23711 0.82068 0.18142 0.0
C540 C 0.24832 0.81976 0.16459 0.0
C541 C 0.21195 0.82321 0.18298 0.0
C542 C 0.20923 0.8232 0.15032 0.0
C543 C 0.24873 0.82328 0.13115 0.0
O544 O 0.27769 0.79868 0.08683 0.0
O545 O 0.25438 0.8194 0.0761 0.0
O546 O 0.23657 0.82742 0.117 0.0
O547 O 0.25838 0.80551 0.12816 0.0
H548 H 0.30515 0.86903 0.08933 0.0
H549 H 0.35068 0.91061 0.07906 0.0
H550 H 0.35685 0.86008 0.03664 0.0
H551 H 0.31174 0.81863 0.04723 0.0
H552 H 0.17062 0.66048 0.06914 0.0
H553 H 0.20314 0.70378 0.08569 0.0
H554 H 0.10665 0.68762 0.06557 0.0
H555 H 0.13886 0.73049 0.0824 0.0
H556 H 0.17898 0.82665 0.16762 0.0
H557 H 0.24829 0.81947 0.19321 0.0
H558 H 0.2681 0.81848 0.16393 0.0
H559 H 0.19822 0.82469 0.13853 0.0
C560 C 0.18317 0.46959 0.06796 0.0
C561 C 0.17997 0.49296 0.0729 0.0
C562 C 0.13461 0.47435 0.05578 0.0
C563 C 0.15603 0.49527 0.06692 0.0
C564 C 0.13787 0.45101 0.05086 0.0
C565 C 0.16181 0.44874 0.0568 0.0
U566 U 0.23367 0.45474 0.09932 0.0
O567 O 0.25974 0.43461 0.09254 0.0
O568 O 0.28186 0.4791 0.10138 0.0
C569 C 0.28489 0.45806 0.09513 0.0
C570 C 0.20991 0.46815 0.0727 0.0
C571 C 0.30886 0.46526 0.08195 0.0
C572 C 0.32994 0.45104 0.05778 0.0
C573 C 0.30574 0.44651 0.06805 0.0
C574 C 0.36082 0.49382 0.07446 0.0
C575 C 0.35803 0.47435 0.06113 0.0
C576 C 0.33664 0.48925 0.08475 0.0
C577 C 0.20608 0.4274 0.14826 0.0
C578 C 0.21754 0.39989 0.16935 0.0
C579 C 0.18783 0.41979 0.17888 0.0
C580 C 0.1904 0.43164 0.16185 0.0
C581 C 0.20096 0.40331 0.18289 0.0
C582 C 0.22001 0.41173 0.15223 0.0
C583 C 0.20518 0.43758 0.12993 0.0
O584 O 0.22824 0.48685 0.08419 0.0
O585 O 0.20677 0.44266 0.07491 0.0
O586 O 0.2016 0.42035 0.11665 0.0
O587 O 0.22354 0.46449 0.12614 0.0
H588 H 0.19615 0.50971 0.08124 0.0
H589 H 0.15419 0.51339 0.07119 0.0
H590 H 0.12219 0.43468 0.04209 0.0
H591 H 0.16386 0.43081 0.05236 0.0
H592 H 0.32676 0.43576 0.0475 0.0
H593 H 0.28481 0.42769 0.06549 0.0
H594 H 0.38203 0.51181 0.07765 0.0
H595 H 0.33998 0.5039 0.09549 0.0
H596 H 0.2284 0.38778 0.17188 0.0
H597 H 0.17451 0.42266 0.18869 0.0
H598 H 0.17925 0.44344 0.15911 0.0
H599 H 0.23227 0.40813 0.14201 0.0
C600 C 0.38848 0.87632 0.31166 0.0
C601 C 0.37805 0.89299 0.30365 0.0
C602 C 0.33534 0.87226 0.32352 0.0
C603 C 0.3518 0.89097 0.3095 0.0
C604 C 0.34576 0.85532 0.33127 0.0
C605 C 0.37196 0.85737 0.32541 0.0
U606 U 0.45589 0.89545 0.28069 0.0
O607 O 0.50223 0.91614 0.28854 0.0
O608 O 0.48035 0.87233 0.27849 0.0
C609 C 0.50431 0.89333 0.28541 0.0
C610 C 0.41711 0.87922 0.30679 0.0
C611 C 0.52089 0.88589 0.29848 0.0
C612 C 0.55743 0.9002 0.32215 0.0
C613 C 0.53773 0.90486 0.31211 0.0
C614 C 0.54314 0.85687 0.30579 0.0
C615 C 0.56103 0.87654 0.31883 0.0
C616 C 0.52349 0.86155 0.29572 0.0
C617 C 0.46102 0.92565 0.23224 0.0
C618 C 0.49804 0.96388 0.21364 0.0
C619 C 0.4573 0.92344 0.19964 0.0
C620 C 0.4464 0.91152 0.21655 0.0
C621 C 0.48317 0.95 0.19788 0.0
C622 C 0.48716 0.95192 0.23054 0.0
C623 C 0.44708 0.91417 0.25 0.0
O624 O 0.417 0.86168 0.29468 0.0
O625 O 0.43935 0.90527 0.30505 0.0
O626 O 0.45895 0.93046 0.26402 0.0
O627 O 0.4377 0.88708 0.25334 0.0
H628 H 0.39033 0.90776 0.293 0.0
H629 H 0.34435 0.90403 0.30295 0.0
H630 H 0.33405 0.84093 0.34219 0.0
H631 H 0.37963 0.84442 0.3319 0.0
H632 H 0.57047 0.91565 0.33223 0.0
H633 H 0.5366 0.92397 0.31459 0.0
H634 H 0.54544 0.83859 0.30263 0.0
H635 H 0.51128 0.84672 0.28517 0.0
H636 H 0.51773 0.98454 0.21301 0.0
H637 H 0.44533 0.9118 0.18794 0.0
H638 H 0.42606 0.8914 0.21737 0.0
H639 H 0.49892 0.96368 0.24226 0.0
C640 C 0.14155 0.52162 0.30927 0.0
C641 C 0.14034 0.50102 0.29744 0.0
C642 C 0.14943 0.47648 0.322 0.0
C643 C 0.14423 0.47867 0.30374 0.0
C644 C 0.15031 0.49711 0.33375 0.0
C645 C 0.14642 0.51937 0.32745 0.0
U646 U 0.11909 0.56159 0.2753 0.0
O647 O 0.09776 0.5868 0.2807 0.0
O648 O 0.14164 0.60758 0.26891 0.0
C649 C 0.12039 0.61087 0.27534 0.0
C650 C 0.13826 0.54587 0.30313 0.0
C651 C 0.12897 0.63623 0.28661 0.0
C652 C 0.13876 0.66006 0.31545 0.0
C653 C 0.13237 0.6359 0.3052 0.0
C654 C 0.1389 0.68512 0.28861 0.0
C655 C 0.14162 0.68485 0.30728 0.0
C656 C 0.13265 0.66114 0.27844 0.0
C657 C 0.08469 0.52589 0.2298 0.0
C658 C 0.07443 0.5473 0.20409 0.0
C659 C 0.05551 0.49635 0.20506 0.0
C660 C 0.06868 0.49913 0.2217 0.0
C661 C 0.05799 0.52032 0.19603 0.0
C662 C 0.08759 0.55005 0.22086 0.0
C663 C 0.098 0.52762 0.24747 0.0
O664 O 0.15511 0.56118 0.28983 0.0
O665 O 0.11138 0.54102 0.30175 0.0
O666 O 0.08219 0.52586 0.26145 0.0
O667 O 0.12578 0.54677 0.24931 0.0
H668 H 0.1366 0.50235 0.28335 0.0
H669 H 0.14369 0.4634 0.29425 0.0
H670 H 0.15373 0.49595 0.3479 0.0
H671 H 0.14732 0.53496 0.33682 0.0
H672 H 0.14064 0.65906 0.32979 0.0
H673 H 0.12964 0.61687 0.3118 0.0
H674 H 0.14152 0.70394 0.28179 0.0
H675 H 0.13026 0.66193 0.26412 0.0
H676 H 0.07661 0.56619 0.19763 0.0
H677 H 0.04347 0.47532 0.1992 0.0
H678 H 0.06631 0.48023 0.22829 0.0
H679 H 0.09983 0.57095 0.22687 0.0
C680 C 0.3879 0.5125 0.31125 0.0
C681 C 0.37623 0.48628 0.30236 0.0
C682 C 0.33557 0.46419 0.3237 0.0
C683 C 0.3504 0.46242 0.30852 0.0
C684 C 0.34731 0.49066 0.33242 0.0
C685 C 0.37313 0.51445 0.32627 0.0
U686 U 0.45198 0.55645 0.27807 0.0
O687 O 0.47513 0.60281 0.27261 0.0
O688 O 0.49891 0.583 0.28405 0.0
C689 C 0.50013 0.60678 0.27884 0.0
C690 C 0.41575 0.53784 0.30555 0.0
C691 C 0.51787 0.63264 0.28975 0.0
C692 C 0.53374 0.65789 0.31814 0.0
C693 C 0.51497 0.63318 0.30838 0.0
C694 C 0.55814 0.68171 0.29078 0.0
C695 C 0.55593 0.68238 0.30946 0.0
C696 C 0.5394 0.65723 0.2811 0.0
C697 C 0.45137 0.52298 0.23159 0.0
C698 C 0.48535 0.54431 0.20662 0.0
C699 C 0.44786 0.49457 0.20557 0.0
C700 C 0.43774 0.49704 0.22235 0.0
C701 C 0.47199 0.51804 0.19747 0.0
C702 C 0.47519 0.54673 0.22355 0.0
C703 C 0.43999 0.5241 0.24949 0.0
O704 O 0.43847 0.53427 0.30401 0.0
O705 O 0.41417 0.55346 0.2926 0.0
O706 O 0.43094 0.54249 0.25173 0.0
O707 O 0.45436 0.52247 0.26333 0.0
H708 H 0.38716 0.48423 0.29072 0.0
H709 H 0.34189 0.44262 0.30124 0.0
H710 H 0.33685 0.49291 0.34422 0.0
H711 H 0.38176 0.53442 0.3334 0.0
H712 H 0.53142 0.65757 0.3325 0.0
H713 H 0.49854 0.61444 0.31537 0.0
H714 H 0.57448 0.70022 0.28355 0.0
H715 H 0.54203 0.6574 0.26675 0.0
H716 H 0.50409 0.56279 0.2009 0.0
H717 H 0.43665 0.47415 0.19889 0.0
H718 H 0.4192 0.47847 0.2282 0.0
H719 H 0.48607 0.56701 0.23041 0.0
Eu720 Eu 0.50192 0.99402 1.00122 0.0
C721 C 0.56286 0.09242 0.05638 0.0
C722 C 0.61379 0.10566 0.05424 0.0
C723 C 0.60071 0.14136 0.06206 0.0
C724 C 0.58389 0.08507 0.05288 0.0
C725 C 0.57099 0.12048 0.06141 0.0
C726 C 0.62208 0.13397 0.05845 0.0
C727 C 0.51986 0.10464 0.0661 0.0
N728 N 0.53439 0.07174 0.05571 0.0
C729 C 0.51291 0.07711 0.06106 0.0
C730 C 0.54901 0.12652 0.06606 0.0
Eu731 Eu 0.52409 0.02607 0.04612 0.0
N732 N 0.5751 0.05749 0.04899 0.0
C733 C 0.59509 0.04863 0.0476 0.0
C734 C 0.63443 0.09701 0.05176 0.0
C735 C 0.625 0.06828 0.0487 0.0
H736 H 0.49034 0.06027 0.06094 0.0
H737 H 0.64077 0.06126 0.0471 0.0
H738 H 0.64495 0.15014 0.05937 0.0
H739 H 0.50274 0.10897 0.06995 0.0
H740 H 0.58822 0.02657 0.04512 0.0
H741 H 0.38486 0.95682 1.0002 0.0
H742 H 0.65761 0.11218 0.05262 0.0
H743 H 0.53685 0.96089 0.98635 0.0
H744 H 0.43728 0.99226 1.00216 0.0
H745 H 0.52536 0.91245 0.9774 0.0
H746 H 0.60741 0.16312 0.06572 0.0
H747 H 0.36896 0.90607 0.99479 0.0
H748 H 0.38259 0.86875 0.98813 0.0
H749 H 0.55435 0.14782 0.06999 0.0
H750 H 0.4208 0.85668 0.98182 0.0
N751 N 0.45112 0.96188 0.99839 0.0
C752 C 0.43075 0.97025 0.99973 0.0
C753 C 0.39205 0.92156 0.99564 0.0
C754 C 0.4131 0.91341 0.99322 0.0
C755 C 0.40094 0.95019 0.99864 0.0
C756 C 0.44286 0.9344 0.99456 0.0
H757 H 0.47407 0.87292 0.97748 0.0
N758 N 0.49262 0.94861 0.99177 0.0
C759 C 0.50798 0.91637 0.98131 0.0
C760 C 0.46429 0.92754 0.99112 0.0
C761 C 0.51442 0.94375 0.98633 0.0
C762 C 0.47901 0.8941 0.98142 0.0
C763 C 0.45668 0.89961 0.9861 0.0
O764 O 0.52624 1.00651 0.976 0.0
O765 O 0.53676 0.02924 1.01738 0.0
O766 O 0.51918 0.05772 0.02854 0.0
O767 O 0.4886 0.02776 1.00617 0.0
O768 O 0.55051 0.00987 0.9993 0.0
O769 O 0.48671 0.00849 0.97834 0.0
O770 O 0.50119 0.01608 0.07186 0.0
O771 O 0.48919 0.99116 0.02992 0.0
O772 O 0.50658 0.96223 1.01875 0.0
O773 O 0.53716 0.99216 0.04113 0.0
O774 O 0.47549 0.01029 0.04813 0.0
O775 O 0.53715 0.00846 0.06832 0.0
C776 C 0.55924 0.03026 1.01072 0.0
C777 C 0.49936 1.0 0.94947 0.0
C778 C 0.50358 1.00623 0.91683 0.0
C779 C 0.51052 0.0179 0.93423 0.0
C780 C 0.48504 0.9766 0.91506 0.0
C781 C 0.48083 0.97062 0.94714 0.0
C782 C 0.47373 0.95906 0.93007 0.0
C783 C 0.50135 0.05244 1.01482 0.0
C784 C 0.50771 0.01171 0.96772 0.0
C785 C 0.42709 0.87834 0.98547 0.0
C786 C 0.40534 0.88522 0.98905 0.0
C787 C 0.4667 0.99005 0.03662 0.0
C788 C 0.52841 0.01873 0.09769 0.0
C789 C 0.51651 1.00085 0.11287 0.0
C790 C 0.52731 0.01122 0.13019 0.0
C791 C 0.54972 0.0398 0.13193 0.0
C792 C 0.55074 0.04702 0.09997 0.0
C793 C 0.56122 0.05746 0.11698 0.0
C794 C 0.52435 0.96747 0.0325 0.0
C795 C 0.5179 0.00784 0.07949 0.0
H796 H 0.52494 0.04062 0.93592 0.0
H797 H 0.47893 0.96695 0.90198 0.0
H798 H 0.47192 0.95658 0.95855 0.0
H799 H 0.45941 0.93633 0.92844 0.0
H800 H 0.49935 0.9789 0.11116 0.0
H801 H 0.55821 0.04871 0.14495 0.0
H802 H 0.56014 0.06104 0.08858 0.0
H803 H 0.5784 0.07939 0.11859 0.0
Eu804 Eu 0.03178 0.51576 1.00149 0.0
C805 C 0.92287 0.46658 0.05169 0.0
C806 C 0.90722 0.50157 0.04997 0.0
C807 C 0.87155 0.45176 0.05557 0.0
C808 C 0.92943 0.49441 0.04902 0.0
C809 C 0.89397 0.44501 0.05539 0.0
C810 C 0.87816 0.48 0.05285 0.0
C811 C 0.91194 0.41225 0.05988 0.0
N812 N 0.94506 0.46085 0.05157 0.0
C813 C 0.94025 0.43439 0.05619 0.0
C814 C 0.88863 0.41749 0.05926 0.0
Eu815 Eu 0.99214 0.49895 0.04438 0.0
N816 N 0.95776 0.51475 0.0465 0.0
C817 C 0.96566 0.54293 0.04621 0.0
C818 C 0.91501 0.53029 0.04855 0.0
C819 C 0.94442 0.55109 0.04694 0.0
H820 H 0.9582 0.43023 0.05655 0.0
H821 H 0.95075 0.57342 0.0462 0.0
H822 H 0.86077 0.48504 0.05346 0.0
H823 H 0.90812 0.39117 0.06315 0.0
H824 H 0.98827 0.55926 0.04489 0.0
H825 H 0.07219 0.44049 0.99908 0.0
H826 H 0.8986 0.53667 0.04916 0.0
H827 H 0.06635 0.5847 0.98978 0.0
H828 H 0.03504 0.45506 1.00068 0.0
H829 H 0.1166 0.62355 0.98336 0.0
H830 H 0.84916 0.43545 0.05823 0.0
H831 H 0.12443 0.47693 0.99604 0.0
H832 H 0.16259 0.52847 0.99192 0.0
H833 H 0.86673 0.40032 0.06218 0.0
H834 H 0.17469 0.57829 0.98754 0.0
N835 N 0.06581 0.49952 0.99909 0.0
C836 C 0.05767 0.47127 0.9993 0.0
C837 C 0.10817 0.48349 0.99674 0.0
C838 C 0.11621 0.51229 0.99544 0.0
C839 C 0.07871 0.46287 0.99841 0.0
C840 C 0.0942 0.51969 0.99654 0.0
H841 H 0.15764 0.61387 0.98404 0.0
N842 N 0.07904 0.55366 0.9944 0.0
C843 C 0.11255 0.60233 0.98643 0.0
C844 C 0.10103 0.54766 0.9941 0.0
C845 C 0.08414 0.5803 0.99002 0.0
C846 C 0.13566 0.59679 0.98688 0.0
C847 C 0.13002 0.5691 0.99049 0.0
O848 O 0.02369 0.53004 0.97582 0.0
O849 O 0.99278 0.51159 1.0159 0.0
O850 O 0.963 0.46393 0.0249 0.0
O851 O 0.99798 0.46815 1.00429 0.0
O852 O 0.0147 0.54668 0.9995 0.0
O853 O 0.01796 0.48781 0.97822 0.0
O854 O 1.0004 0.48514 0.07018 0.0
O855 O 0.03096 0.50314 0.02992 0.0
O856 O 0.06093 0.55043 0.02106 0.0
O857 O 0.026 0.54664 0.04157 0.0
O858 O 1.00986 0.46847 0.04668 0.0
O859 O 1.0056 0.52714 0.06754 0.0
C860 C 0.99225 0.5331 1.00973 0.0
C861 C 0.03122 0.50996 0.94981 0.0
C862 C 0.02795 0.50969 0.91714 0.0
C863 C 0.01487 0.506 0.93411 0.0
C864 C 0.0575 0.517 0.91624 0.0
C865 C 0.0606 0.5173 0.94849 0.0
C866 C 0.0736 0.52071 0.93179 0.0
C867 C 0.97133 0.45402 1.01132 0.0
C868 C 0.01759 0.50664 0.96748 0.0
C869 C 0.15224 0.56207 0.99014 0.0
C870 C 0.14535 0.53371 0.99263 0.0
C871 C 0.03202 0.48201 0.03623 0.0
C872 C 0.99275 0.50537 0.0961 0.0
C873 C 1.00922 0.50953 0.11179 0.0
C874 C 0.99623 0.50597 0.1288 0.0
C875 C 0.96666 0.4986 0.12971 0.0
C876 C 0.96336 0.49795 0.09747 0.0
C877 C 0.95046 0.49467 0.11419 0.0
C878 C 0.05262 0.56063 0.03448 0.0
C879 C 1.00628 0.50858 0.07839 0.0
H880 H 0.99222 0.50059 0.93513 0.0
H881 H 0.06816 0.5196 0.90348 0.0
H882 H 0.07347 0.52035 0.96035 0.0
H883 H 0.09628 0.52629 0.93087 0.0
H884 H 0.03189 0.515 0.11074 0.0
H885 H 0.95605 0.49611 0.14249 0.0
H886 H 0.9504 0.49472 0.08562 0.0
H887 H 0.92776 0.48904 0.11513 0.0
Eu888 Eu 0.52279 0.49924 0.04579 0.0
C889 C 0.46771 0.55063 0.9944 0.0
C890 C 0.41603 0.51598 0.99513 0.0
C891 C 0.43216 0.56604 0.98991 0.0
C892 C 0.44543 0.52282 0.99661 0.0
C893 C 0.46138 0.57251 0.99066 0.0
C894 C 0.40951 0.53782 0.99216 0.0
C895 C 0.51322 0.60506 0.98734 0.0
N896 N 0.49565 0.55608 0.99507 0.0
C897 C 0.51836 0.58261 0.99104 0.0
C898 C 0.48461 0.60006 0.98735 0.0
Eu899 Eu 0.5029 0.51752 1.0024 0.0
N900 N 0.45253 0.50223 0.99926 0.0
C901 C 0.43133 0.47412 0.9992 0.0
C902 C 0.39412 0.48732 0.99616 0.0
C903 C 0.40185 0.46628 0.99793 0.0
H904 H 0.54052 0.58659 0.99116 0.0
H905 H 0.38511 0.444 0.99838 0.0
H906 H 0.38706 0.53302 0.99114 0.0
H907 H 0.53131 0.62618 0.98452 0.0
H908 H 0.43687 0.45759 1.00064 0.0
H909 H 0.64057 0.57269 0.05005 0.0
H910 H 0.37127 0.48118 0.99514 0.0
H911 H 0.48501 0.43008 0.05686 0.0
H912 H 0.58884 0.55914 0.0476 0.0
H913 H 0.49415 0.39046 0.06352 0.0
H914 H 0.42683 0.58259 0.9872 0.0
H915 H 0.65433 0.53548 0.05349 0.0
H916 H 0.63847 0.48363 0.05752 0.0
H917 H 0.48067 0.61746 0.98443 0.0
H918 H 0.59864 0.43405 0.06131 0.0
N919 N 0.57312 0.51449 0.04909 0.0
C920 C 0.59435 0.54259 0.04914 0.0
C921 C 0.63149 0.52936 0.0524 0.0
C922 C 0.60955 0.5007 0.05342 0.0
C923 C 0.62381 0.55042 0.05051 0.0
C924 C 0.58017 0.49389 0.05183 0.0
H925 H 0.54478 0.39917 0.06384 0.0
N926 N 0.52993 0.46061 0.05311 0.0
C927 C 0.51227 0.41159 0.06078 0.0
C928 C 0.55786 0.46606 0.05393 0.0
C929 C 0.50717 0.43406 0.05706 0.0
C930 C 0.54087 0.41659 0.0609 0.0
C931 C 0.56414 0.44416 0.0577 0.0
O932 O 0.49842 0.48504 0.07096 0.0
O933 O 0.48912 0.5043 0.03067 0.0
O934 O 0.50898 0.55191 0.02208 0.0
O935 O 0.53875 0.54701 0.04309 0.0
O936 O 0.47387 0.46873 0.04677 0.0
O937 O 0.53705 0.52656 0.06942 0.0
O938 O 0.52615 0.53198 0.97687 0.0
O939 O 0.53654 0.51264 1.01756 0.0
O940 O 0.51691 0.4649 0.02604 0.0
O941 O 0.48693 0.46982 1.00521 0.0
O942 O 0.55193 0.54778 1.00112 0.0
O943 O 0.48917 0.48945 0.97917 0.0
C944 C 0.4661 0.4828 0.03641 0.0
C945 C 0.52475 0.50384 0.09779 0.0
C946 C 0.51961 0.50351 0.13043 0.0
C947 C 0.51211 0.50843 0.11316 0.0
C948 C 0.5403 0.49448 0.13193 0.0
C949 C 0.54523 0.49481 0.09979 0.0
C950 C 0.55298 0.49027 0.11677 0.0
C951 C 0.52711 0.56146 0.03584 0.0
C952 C 0.51624 0.50801 0.0797 0.0
C953 C 0.59336 0.45061 0.05858 0.0
C954 C 0.61603 0.47884 0.05642 0.0
C955 C 0.55964 0.53388 1.01168 0.0
C956 C 0.49917 0.51091 0.9505 0.0
C957 C 0.51078 0.50503 0.93514 0.0
C958 C 0.50061 0.50651 0.91791 0.0
C959 C 0.47903 0.51439 0.91643 0.0
C960 C 0.47773 0.5187 0.94853 0.0
C961 C 0.4678 0.52047 0.93159 0.0
C962 C 0.49878 0.45543 1.01226 0.0
C963 C 0.50899 0.50832 0.96852 0.0
H964 H 0.49608 0.51518 0.11166 0.0
H965 H 0.54687 0.49084 0.14492 0.0
H966 H 0.55519 0.49123 0.08823 0.0
H967 H 0.56886 0.48334 0.11819 0.0
H968 H 0.52723 0.49882 0.93664 0.0
H969 H 0.47102 0.51622 0.90347 0.0
H970 H 0.46857 0.52329 0.9601 0.0
H971 H 0.45127 0.52656 0.93019 0.0
Eu972 Eu 0.16885 0.32689 0.33452 0.0
C973 C 0.22956 0.42519 0.38974 0.0
C974 C 0.28059 0.43877 0.38755 0.0
C975 C 0.26718 0.4742 0.39548 0.0
C976 C 0.25073 0.41804 0.3862 0.0
C977 C 0.2375 0.45318 0.39482 0.0
C978 C 0.28869 0.46701 0.39181 0.0
C979 C 0.18631 0.43699 0.39957 0.0
N980 N 0.20114 0.40437 0.38907 0.0
C981 C 0.17955 0.40954 0.39448 0.0
C982 C 0.2154 0.45901 0.39953 0.0
Eu983 Eu 0.1912 0.35884 0.37941 0.0
N984 N 0.24214 0.39052 0.38225 0.0
C985 C 0.26226 0.38185 0.3808 0.0
C986 C 0.30137 0.43032 0.38502 0.0
C987 C 0.29214 0.40165 0.38189 0.0
H988 H 0.15702 0.39259 0.39438 0.0
H989 H 0.30802 0.39478 0.38025 0.0
H990 H 0.31152 0.48329 0.39274 0.0
H991 H 0.1691 0.44116 0.40347 0.0
H992 H 0.25551 0.35983 0.37827 0.0
H993 H 0.05208 0.29114 0.33362 0.0
H994 H 0.32453 0.4456 0.38587 0.0
H995 H 0.20293 0.29296 0.31969 0.0
H996 H 0.1046 0.32604 0.33557 0.0
H997 H 0.19076 0.24431 0.31074 0.0
H998 H 0.27373 0.4959 0.39918 0.0
H999 H 0.03549 0.24026 0.32815 0.0
H1000 H 0.04841 0.20247 0.32144 0.0
H1001 H 0.22059 0.48025 0.40351 0.0
H1002 H 0.08613 0.18973 0.3151 0.0
N1003 N 0.1179 0.29527 0.33171 0.0
C1004 C 0.09781 0.30399 0.33311 0.0
C1005 C 0.05865 0.25552 0.32899 0.0
C1006 C 0.0794 0.24701 0.32652 0.0
C1007 C 0.06793 0.28422 0.33203 0.0
C1008 C 0.10926 0.26771 0.32785 0.0
H1009 H 0.13924 0.20527 0.31078 0.0
N1010 N 0.15884 0.28127 0.32502 0.0
C1011 C 0.17358 0.24854 0.31462 0.0
C1012 C 0.1304 0.26049 0.32437 0.0
C1013 C 0.1804 0.27604 0.31963 0.0
C1014 C 0.14448 0.22655 0.3147 0.0
C1015 C 0.12241 0.23245 0.31936 0.0
O1016 O 0.19228 0.33773 0.30897 0.0
O1017 O 0.20383 0.36201 0.35066 0.0
O1018 O 0.18638 0.39065 0.36193 0.0
O1019 O 0.1558 0.36081 0.33952 0.0
O1020 O 0.21746 0.34272 0.33247 0.0
O1021 O 0.15481 0.34312 0.31203 0.0
O1022 O 0.16804 0.34805 0.40506 0.0
O1023 O 0.15624 0.32386 0.36325 0.0
O1024 O 0.17346 0.29507 0.35206 0.0
O1025 O 0.20435 0.32501 0.37431 0.0
O1026 O 0.14256 0.34295 0.38151 0.0
O1027 O 0.2051 0.34209 0.40169 0.0
C1028 C 0.22627 0.36306 0.34393 0.0
C1029 C 0.16493 0.33318 0.28289 0.0
C1030 C 0.16776 0.33952 0.25022 0.0
C1031 C 0.17694 0.35075 0.26761 0.0
C1032 C 0.14618 0.31056 0.24862 0.0
C1033 C 0.14363 0.30448 0.28072 0.0
C1034 C 0.13434 0.2933 0.2637 0.0
C1035 C 0.16859 0.38546 0.34819 0.0
C1036 C 0.17473 0.34465 0.30107 0.0
C1037 C 0.09272 0.21147 0.31874 0.0
C1038 C 0.07125 0.21872 0.32234 0.0
C1039 C 0.13376 0.32271 0.36999 0.0
C1040 C 0.19539 0.35169 0.43101 0.0
C1041 C 0.18383 0.33365 0.44614 0.0
C1042 C 0.19364 0.34428 0.46357 0.0
C1043 C 0.21484 0.37333 0.4654 0.0
C1044 C 0.21659 0.38038 0.43339 0.0
C1045 C 0.22616 0.39108 0.45047 0.0
C1046 C 0.19136 0.30028 0.36573 0.0
C1047 C 0.18538 0.34066 0.41277 0.0
H1048 H 0.19358 0.37291 0.26926 0.0
H1049 H 0.13798 0.30121 0.23566 0.0
H1050 H 0.13408 0.2907 0.29219 0.0
H1051 H 0.11773 0.27113 0.26219 0.0
H1052 H 0.16758 0.3114 0.4443 0.0
H1053 H 0.22245 0.38258 0.47845 0.0
H1054 H 0.22574 0.39453 0.42204 0.0
H1055 H 0.24241 0.41334 0.45217 0.0
Eu1056 Eu 0.69959 0.84972 0.33548 0.0
C1057 C 0.59038 0.80042 0.3853 0.0
C1058 C 0.57478 0.83546 0.38361 0.0
C1059 C 0.53903 0.78561 0.389 0.0
C1060 C 0.59698 0.82829 0.3827 0.0
C1061 C 0.56144 0.77884 0.38887 0.0
C1062 C 0.54569 0.81387 0.38635 0.0
C1063 C 0.57933 0.74602 0.39337 0.0
N1064 N 0.61255 0.79467 0.38525 0.0
C1065 C 0.60768 0.76818 0.38982 0.0
C1066 C 0.55604 0.75128 0.39269 0.0
Eu1067 Eu 0.65971 0.83282 0.37827 0.0
N1068 N 0.62535 0.84864 0.3803 0.0
C1069 C 0.63328 0.87683 0.38011 0.0
C1070 C 0.5826 0.8642 0.38227 0.0
C1071 C 0.61204 0.885 0.38079 0.0
H1072 H 0.62563 0.76401 0.39022 0.0
H1073 H 0.61839 0.90734 0.38013 0.0
H1074 H 0.5283 0.81893 0.38691 0.0
H1075 H 0.57546 0.7249 0.3966 0.0
H1076 H 0.6559 0.89316 0.37889 0.0
H1077 H 0.74081 0.77506 0.33375 0.0
H1078 H 0.5662 0.87058 0.38284 0.0
H1079 H 0.73364 0.91843 0.32327 0.0
H1080 H 0.70338 0.78929 0.33513 0.0
H1081 H 0.78371 0.95738 0.31655 0.0
H1082 H 0.51661 0.76928 0.39155 0.0
H1083 H 0.79294 0.81171 0.33053 0.0
H1084 H 0.8308 0.86328 0.32606 0.0
H1085 H 0.5341 0.7341 0.3955 0.0
H1086 H 0.84249 0.91289 0.32125 0.0
N1087 N 0.73388 0.83378 0.33321 0.0
C1088 C 0.72596 0.80559 0.33365 0.0
C1089 C 0.77656 0.81813 0.33111 0.0
C1090 C 0.78437 0.84684 0.32957 0.0
C1091 C 0.74716 0.79738 0.33289 0.0
C1092 C 0.7622 0.85405 0.33054 0.0
H1093 H 0.82501 0.9481 0.31737 0.0
N1094 N 0.74668 0.8877 0.32814 0.0
C1095 C 0.77985 0.93628 0.3198 0.0
C1096 C 0.76881 0.8819 0.3279 0.0
C1097 C 0.75154 0.91418 0.32356 0.0
C1098 C 0.80311 0.93097 0.32032 0.0
C1099 C 0.79772 0.90342 0.32416 0.0
O1100 O 0.691 0.86349 0.30978 0.0
O1101 O 0.66052 0.8455 0.34981 0.0
O1102 O 0.63075 0.79791 0.3587 0.0
O1103 O 0.666 0.80203 0.33836 0.0
O1104 O 0.68242 0.88056 0.33339 0.0
O1105 O 0.68583 0.82149 0.31234 0.0
O1106 O 0.66721 0.81877 0.40421 0.0
O1107 O 0.69871 0.8372 0.36395 0.0
O1108 O 0.72862 0.88477 0.35492 0.0
O1109 O 0.69364 0.8805 0.37558 0.0
O1110 O 0.67769 0.80256 0.38074 0.0
O1111 O 0.67323 0.86108 0.40138 0.0
C1112 C 0.65996 0.86698 0.34362 0.0
C1113 C 0.698 0.84307 0.28374 0.0
C1114 C 0.69275 0.83964 0.25115 0.0
C1115 C 0.68056 0.83693 0.26833 0.0
C1116 C 0.72276 0.84879 0.24981 0.0
C1117 C 0.72774 0.85202 0.28198 0.0
C1118 C 0.74 0.85487 0.26509 0.0
C1119 C 0.63924 0.78794 0.34523 0.0
C1120 C 0.68494 0.84001 0.30157 0.0
C1121 C 0.82009 0.89661 0.32392 0.0
C1122 C 0.81344 0.86836 0.32666 0.0
C1123 C 0.69993 0.8162 0.37035 0.0
C1124 C 0.65956 0.83946 0.42992 0.0
C1125 C 0.6757 0.84346 0.44572 0.0
C1126 C 0.66258 0.84046 0.46262 0.0
C1127 C 0.6332 0.83378 0.46331 0.0
C1128 C 0.63033 0.8327 0.43105 0.0
C1129 C 0.6173 0.82995 0.44767 0.0
C1130 C 0.72025 0.8947 0.36848 0.0
C1131 C 0.67333 0.84235 0.41234 0.0
H1132 H 0.6575 0.82973 0.26977 0.0
H1133 H 0.73311 0.85173 0.23691 0.0
H1134 H 0.74145 0.85681 0.29365 0.0
H1135 H 0.76303 0.86194 0.26383 0.0
H1136 H 0.69822 0.84841 0.44483 0.0
H1137 H 0.62251 0.83176 0.476 0.0
H1138 H 0.61763 0.82962 0.4191 0.0
H1139 H 0.59475 0.82485 0.44843 0.0
Eu1140 Eu 0.18964 0.83215 0.37837 0.0
C1141 C 0.13439 0.88372 0.32728 0.0
C1142 C 0.08269 0.84916 0.32812 0.0
C1143 C 0.0989 0.89925 0.32293 0.0
C1144 C 0.11208 0.85592 0.32952 0.0
C1145 C 0.12811 0.90564 0.3236 0.0
C1146 C 0.07622 0.87105 0.3252 0.0
C1147 C 0.17995 0.93811 0.32018 0.0
N1148 N 0.16231 0.8891 0.32788 0.0
C1149 C 0.18504 0.91562 0.32382 0.0
C1150 C 0.15137 0.93318 0.32027 0.0
Eu1151 Eu 0.16948 0.85047 0.33511 0.0
N1152 N 0.11912 0.83529 0.33212 0.0
C1153 C 0.09787 0.8072 0.3321 0.0
C1154 C 0.06073 0.82052 0.32919 0.0
C1155 C 0.06839 0.79942 0.33092 0.0
H1156 H 0.20719 0.91955 0.32388 0.0
H1157 H 0.05162 0.77716 0.33139 0.0
H1158 H 0.05378 0.8663 0.32425 0.0
H1159 H 0.19805 0.95922 0.31735 0.0
H1160 H 0.10336 0.79063 0.3335 0.0
H1161 H 0.30748 0.90576 0.38203 0.0
H1162 H 0.03789 0.81443 0.32823 0.0
H1163 H 0.15213 0.76306 0.38958 0.0
H1164 H 0.25571 0.89215 0.3799 0.0
H1165 H 0.16143 0.72351 0.39614 0.0
H1166 H 0.09361 0.91583 0.32027 0.0
H1167 H 0.32136 0.86862 0.3853 0.0
H1168 H 0.30563 0.8168 0.38935 0.0
H1169 H 0.14746 0.95062 0.31739 0.0
H1170 H 0.26591 0.76721 0.39333 0.0
N1171 N 0.24005 0.84751 0.38145 0.0
C1172 C 0.26125 0.87562 0.38139 0.0
C1173 C 0.2985 0.86246 0.38438 0.0
C1174 C 0.2766 0.83381 0.38551 0.0
C1175 C 0.29075 0.88349 0.38258 0.0
C1176 C 0.24718 0.82695 0.38412 0.0
H1177 H 0.21209 0.7323 0.39617 0.0
N1178 N 0.19698 0.79364 0.38566 0.0
C1179 C 0.17949 0.74465 0.39333 0.0
C1180 C 0.22493 0.79913 0.38632 0.0
C1181 C 0.1743 0.76708 0.38968 0.0
C1182 C 0.20811 0.74968 0.39329 0.0
C1183 C 0.23131 0.77726 0.39 0.0
O1184 O 0.16596 0.81776 0.40378 0.0
O1185 O 0.15584 0.8372 0.3634 0.0
O1186 O 0.17572 0.88488 0.35483 0.0
O1187 O 0.20565 0.87993 0.37569 0.0
O1188 O 0.14072 0.80167 0.37951 0.0
O1189 O 0.20366 0.85986 0.40181 0.0
O1190 O 0.1927 0.8649 0.30957 0.0
O1191 O 0.20314 0.84543 0.35011 0.0
O1192 O 0.18344 0.79771 0.35861 0.0
O1193 O 0.15347 0.80272 0.33782 0.0
O1194 O 0.21854 0.88062 0.33373 0.0
O1195 O 0.15545 0.82252 0.31181 0.0
C1196 C 0.13286 0.81572 0.36919 0.0
C1197 C 0.19283 0.83771 0.43032 0.0
C1198 C 0.18865 0.83799 0.46301 0.0
C1199 C 0.18 0.84176 0.44579 0.0
C1200 C 0.21066 0.83065 0.46433 0.0
C1201 C 0.21456 0.83028 0.43215 0.0
C1202 C 0.22344 0.82688 0.44906 0.0
C1203 C 0.19395 0.8944 0.36855 0.0
C1204 C 0.18346 0.84109 0.41231 0.0
C1205 C 0.26055 0.78375 0.39068 0.0
C1206 C 0.28317 0.81198 0.38841 0.0
C1207 C 0.22625 0.8666 0.34418 0.0
C1208 C 0.16572 0.84411 0.28316 0.0
C1209 C 0.17733 0.8382 0.26782 0.0
C1210 C 0.16734 0.83988 0.25057 0.0
C1211 C 0.14593 0.84798 0.24906 0.0
C1212 C 0.14445 0.85212 0.28117 0.0
C1213 C 0.13471 0.85409 0.26421 0.0
C1214 C 0.16529 0.78828 0.34484 0.0
C1215 C 0.17539 0.84133 0.3012 0.0
H1216 H 0.16301 0.84727 0.44441 0.0
H1217 H 0.21821 0.82801 0.47725 0.0
H1218 H 0.22469 0.82714 0.4205 0.0
H1219 H 0.24033 0.82125 0.45035 0.0
H1220 H 0.19365 0.83182 0.26934 0.0
H1221 H 0.13806 0.84995 0.23609 0.0
H1222 H 0.13531 0.85674 0.29274 0.0
H1223 H 0.11831 0.86035 0.26279 0.0
Eu1224 Eu 0.83535 0.65872 0.66739 0.0
C1225 C 0.89652 0.75668 0.72283 0.0
C1226 C 0.94743 0.7699 0.72056 0.0
C1227 C 0.93442 0.80554 0.72867 0.0
C1228 C 0.91752 0.74935 0.7192 0.0
C1229 C 0.90469 0.78469 0.72803 0.0
C1230 C 0.95576 0.79817 0.7249 0.0
C1231 C 0.8536 0.76878 0.73294 0.0
N1232 N 0.86804 0.73601 0.72217 0.0
C1233 C 0.84661 0.74132 0.72772 0.0
C1234 C 0.88275 0.79067 0.73288 0.0
Eu1235 Eu 0.85769 0.69043 0.71238 0.0
N1236 N 0.9087 0.72179 0.71521 0.0
C1237 C 0.92865 0.71291 0.71372 0.0
C1238 C 0.96804 0.76124 0.71797 0.0
C1239 C 0.95858 0.73253 0.71481 0.0
H1240 H 0.82403 0.72448 0.72764 0.0
H1241 H 0.97432 0.72549 0.71313 0.0
H1242 H 0.97864 0.81431 0.72583 0.0
H1243 H 0.83651 0.77307 0.73696 0.0
H1244 H 0.92172 0.69085 0.71117 0.0
H1245 H 0.71882 0.62394 0.66611 0.0
H1246 H 0.99123 0.77638 0.71882 0.0
H1247 H 0.86907 0.62441 0.65262 0.0
H1248 H 0.77142 0.65848 0.66829 0.0
H1249 H 0.85655 0.57571 0.64354 0.0
H1250 H 0.94115 0.82726 0.73245 0.0
H1251 H 0.70185 0.57303 0.66048 0.0
H1252 H 0.71439 0.53498 0.65371 0.0
H1253 H 0.88812 0.81192 0.73695 0.0
H1254 H 0.75185 0.52186 0.64746 0.0
N1255 N 0.78437 0.62745 0.66443 0.0
C1256 C 0.76446 0.6364 0.66577 0.0
C1257 C 0.72504 0.58812 0.66143 0.0
C1258 C 0.74562 0.57938 0.65902 0.0
C1259 C 0.73453 0.61685 0.66456 0.0
C1260 C 0.77553 0.59987 0.6605 0.0
H1261 H 0.80489 0.53699 0.64336 0.0
N1262 N 0.82503 0.61304 0.65782 0.0
C1263 C 0.83946 0.5801 0.64738 0.0
C1264 C 0.79653 0.59243 0.65706 0.0
C1265 C 0.84647 0.60762 0.65247 0.0
C1266 C 0.81028 0.55828 0.64734 0.0
C1267 C 0.78834 0.56439 0.65196 0.0
O1268 O 0.85896 0.66963 0.6419 0.0
O1269 O 0.87038 0.69359 0.68363 0.0
O1270 O 0.8531 0.72249 0.695 0.0
O1271 O 0.82271 0.69291 0.67243 0.0
O1272 O 0.88386 0.67415 0.66546 0.0
O1273 O 0.82163 0.67525 0.6449 0.0
O1274 O 0.83442 0.6796 0.738 0.0
O1275 O 0.82264 0.65571 0.69611 0.0
O1276 O 0.83954 0.62661 0.68491 0.0
O1277 O 0.87046 0.65634 0.70723 0.0
O1278 O 0.80915 0.67495 0.71438 0.0
O1279 O 0.87133 0.67341 0.73464 0.0
C1280 C 0.89275 0.69447 0.67693 0.0
C1281 C 0.83194 0.66554 0.61574 0.0
C1282 C 0.83483 0.67229 0.58309 0.0
C1283 C 0.84386 0.68335 0.60053 0.0
C1284 C 0.81347 0.64328 0.58136 0.0
C1285 C 0.81085 0.6368 0.61342 0.0
C1286 C 0.8017 0.62581 0.59636 0.0
C1287 C 0.83553 0.7175 0.68117 0.0
C1288 C 0.8416 0.67678 0.63398 0.0
C1289 C 0.75859 0.5436 0.65119 0.0
C1290 C 0.73727 0.55108 0.65474 0.0
C1291 C 0.80025 0.65479 0.7028 0.0
C1292 C 0.86168 0.68309 0.76396 0.0
C1293 C 0.84996 0.66512 0.77912 0.0
C1294 C 0.85986 0.67576 0.79654 0.0
C1295 C 0.88129 0.70473 0.79833 0.0
C1296 C 0.88312 0.7117 0.76632 0.0
C1297 C 0.89277 0.72241 0.78339 0.0
C1298 C 0.85736 0.63165 0.6986 0.0
C1299 C 0.85164 0.67207 0.74571 0.0
H1300 H 0.86032 0.70554 0.60228 0.0
H1301 H 0.8054 0.63406 0.56835 0.0
H1302 H 0.80136 0.62285 0.62482 0.0
H1303 H 0.78527 0.6036 0.59473 0.0
H1304 H 0.83352 0.64293 0.7773 0.0
H1305 H 0.88899 0.71399 0.81138 0.0
H1306 H 0.89241 0.72579 0.75495 0.0
H1307 H 0.9092 0.74461 0.78506 0.0
Eu1308 Eu 0.36608 0.1829 0.66808 0.0
C1309 C 0.25688 0.13373 0.71804 0.0
C1310 C 0.24107 0.16861 0.71629 0.0
C1311 C 0.20549 0.11874 0.72179 0.0
C1312 C 0.26335 0.16155 0.7154 0.0
C1313 C 0.22798 0.11208 0.72165 0.0
C1314 C 0.21202 0.14696 0.7191 0.0
C1315 C 0.24605 0.0794 0.7261 0.0
N1316 N 0.27912 0.12808 0.71796 0.0
C1317 C 0.27436 0.10163 0.72252 0.0
C1318 C 0.22269 0.08456 0.72546 0.0
Eu1319 Eu 0.32618 0.16632 0.71087 0.0
N1320 N 0.29167 0.18196 0.71291 0.0
C1321 C 0.29947 0.21012 0.71257 0.0
C1322 C 0.24876 0.1973 0.71484 0.0
C1323 C 0.27815 0.21817 0.71325 0.0
H1324 H 0.29235 0.09752 0.7229 0.0
H1325 H 0.2844 0.24048 0.71248 0.0
H1326 H 0.19457 0.15193 0.71966 0.0
H1327 H 0.24227 0.05831 0.72932 0.0
H1328 H 0.32206 0.2265 0.71127 0.0
H1329 H 0.40683 0.10784 0.66686 0.0
H1330 H 0.23229 0.2036 0.71539 0.0
H1331 H 0.40051 0.25154 0.65577 0.0
H1332 H 0.36956 0.12227 0.66796 0.0
H1333 H 0.45072 0.29035 0.64919 0.0
H1334 H 0.1831 0.10236 0.72438 0.0
H1335 H 0.45906 0.14432 0.66384 0.0
H1336 H 0.49713 0.19583 0.65942 0.0
H1337 H 0.20079 0.06733 0.72829 0.0
H1338 H 0.50909 0.24549 0.65448 0.0
N1339 N 0.40022 0.16673 0.66607 0.0
C1340 C 0.39217 0.13851 0.66656 0.0
C1341 C 0.44274 0.15083 0.6643 0.0
C1342 C 0.4507 0.17957 0.6627 0.0
C1343 C 0.41329 0.13018 0.66596 0.0
C1344 C 0.42861 0.18691 0.6635 0.0
H1345 H 0.49188 0.28085 0.65033 0.0
N1346 N 0.41332 0.22071 0.66084 0.0
C1347 C 0.44673 0.26922 0.65251 0.0
C1348 C 0.43537 0.21479 0.66079 0.0
C1349 C 0.41835 0.24722 0.65618 0.0
C1350 C 0.46991 0.26379 0.65321 0.0
C1351 C 0.46435 0.23621 0.65714 0.0
O1352 O 0.3582 0.19681 0.64221 0.0
O1353 O 0.32703 0.17883 0.68235 0.0
O1354 O 0.29721 0.13138 0.69138 0.0
O1355 O 0.33235 0.13524 0.67102 0.0
O1356 O 0.34888 0.21371 0.66578 0.0
O1357 O 0.35206 0.15448 0.64504 0.0
O1358 O 0.33454 0.15272 0.7367 0.0
O1359 O 0.36517 0.17061 0.6966 0.0
O1360 O 0.39503 0.21803 0.68752 0.0
O1361 O 0.35992 0.21398 0.70799 0.0
O1362 O 0.34407 0.13602 0.71341 0.0
O1363 O 0.33922 0.19453 0.73402 0.0
C1364 C 0.32647 0.20025 0.67606 0.0
C1365 C 0.36553 0.17602 0.61647 0.0
C1366 C 0.36241 0.17531 0.58379 0.0
C1367 C 0.34936 0.17224 0.60072 0.0
C1368 C 0.39172 0.18181 0.58301 0.0
C1369 C 0.39469 0.18258 0.61526 0.0
C1370 C 0.40764 0.18538 0.59861 0.0
C1371 C 0.30567 0.1212 0.67802 0.0
C1372 C 0.35191 0.17319 0.63409 0.0
C1373 C 0.48664 0.22928 0.65708 0.0
C1374 C 0.47983 0.20101 0.65989 0.0
C1375 C 0.36636 0.14963 0.70305 0.0
C1376 C 0.32706 0.17298 0.76266 0.0
C1377 C 0.34445 0.17935 0.77812 0.0
C1378 C 0.33211 0.1765 0.79528 0.0
C1379 C 0.30202 0.16697 0.79654 0.0
C1380 C 0.29723 0.16366 0.76435 0.0
C1381 C 0.28483 0.16067 0.78121 0.0
C1382 C 0.38661 0.22806 0.70099 0.0
C1383 C 0.34026 0.17615 0.74486 0.0
H1384 H 0.32689 0.16744 0.60166 0.0
H1385 H 0.40234 0.1839 0.57029 0.0
H1386 H 0.40742 0.18549 0.62718 0.0
H1387 H 0.43015 0.19035 0.59778 0.0
H1388 H 0.36758 0.18682 0.77675 0.0
H1389 H 0.29155 0.16391 0.80941 0.0
H1390 H 0.28355 0.15868 0.75265 0.0
H1391 H 0.26173 0.15331 0.78242 0.0
Eu1392 Eu 0.85644 0.16602 0.71187 0.0
C1393 C 0.80142 0.21755 0.66061 0.0
C1394 C 0.74982 0.18261 0.66105 0.0
C1395 C 0.76563 0.23267 0.65615 0.0
C1396 C 0.77927 0.18963 0.66263 0.0
C1397 C 0.79492 0.23934 0.65698 0.0
C1398 C 0.74311 0.20435 0.6582 0.0
C1399 C 0.84673 0.27224 0.65393 0.0
N1400 N 0.82943 0.2232 0.66136 0.0
C1401 C 0.85205 0.24987 0.65751 0.0
C1402 C 0.81804 0.26702 0.65387 0.0
Eu1403 Eu 0.83696 0.18476 0.66849 0.0
N1404 N 0.78655 0.16915 0.66518 0.0
C1405 C 0.7655 0.14099 0.66493 0.0
C1406 C 0.72806 0.15387 0.66189 0.0
C1407 C 0.73598 0.13295 0.66357 0.0
H1408 H 0.87426 0.25401 0.65769 0.0
H1409 H 0.71936 0.11063 0.66387 0.0
H1410 H 0.72062 0.19939 0.65711 0.0
H1411 H 0.86473 0.29347 0.65126 0.0
H1412 H 0.77119 0.12455 0.66629 0.0
H1413 H 0.9742 0.2394 0.71656 0.0
H1414 H 0.70518 0.14758 0.6608 0.0
H1415 H 0.81856 0.09681 0.72279 0.0
H1416 H 0.9225 0.22589 0.71395 0.0
H1417 H 0.82761 0.05715 0.72949 0.0
H1418 H 0.76017 0.24914 0.65353 0.0
H1419 H 0.98791 0.20216 0.72 0.0
H1420 H 0.97199 0.15028 0.72395 0.0
H1421 H 0.81396 0.28436 0.65104 0.0
H1422 H 0.93211 0.10069 0.7276 0.0
N1423 N 0.90675 0.18123 0.71534 0.0
C1424 C 0.92798 0.20933 0.71548 0.0
C1425 C 0.96508 0.19605 0.71884 0.0
C1426 C 0.94313 0.1674 0.71976 0.0
C1427 C 0.95743 0.21713 0.71695 0.0
C1428 C 0.91377 0.16061 0.71808 0.0
H1429 H 0.87822 0.06583 0.72997 0.0
N1430 N 0.86351 0.12735 0.7192 0.0
C1431 C 0.84576 0.07829 0.7268 0.0
C1432 C 0.89143 0.13278 0.7201 0.0
C1433 C 0.84071 0.10079 0.72306 0.0
C1434 C 0.87435 0.08327 0.72702 0.0
C1435 C 0.89766 0.11085 0.72389 0.0
O1436 O 0.83208 0.15159 0.73705 0.0
O1437 O 0.82289 0.17114 0.69667 0.0
O1438 O 0.84274 0.21888 0.68836 0.0
O1439 O 0.8725 0.21379 0.70926 0.0
O1440 O 0.80752 0.13546 0.71265 0.0
O1441 O 0.87027 0.19341 0.73546 0.0
O1442 O 0.86036 0.19981 0.64303 0.0
O1443 O 0.87046 0.17974 0.6837 0.0
O1444 O 0.8508 0.13187 0.69206 0.0
O1445 O 0.82127 0.13704 0.671 0.0
O1446 O 0.88599 0.21509 0.66743 0.0
O1447 O 0.82377 0.15702 0.6451 0.0
C1448 C 0.79983 0.14957 0.70227 0.0
C1449 C 0.85839 0.17082 0.76385 0.0
C1450 C 0.85346 0.17066 0.7965 0.0
C1451 C 0.84551 0.17506 0.77923 0.0
C1452 C 0.87483 0.1625 0.79799 0.0
C1453 C 0.8795 0.16259 0.76584 0.0
C1454 C 0.88769 0.15857 0.78281 0.0
C1455 C 0.86074 0.22825 0.7022 0.0
C1456 C 0.84964 0.17469 0.74576 0.0
C1457 C 0.92686 0.11728 0.72486 0.0
C1458 C 0.94957 0.14551 0.72278 0.0
C1459 C 0.8936 0.20104 0.67794 0.0
C1460 C 0.83378 0.17879 0.61652 0.0
C1461 C 0.84554 0.17306 0.60117 0.0
C1462 C 0.83538 0.17449 0.58392 0.0
C1463 C 0.81365 0.18218 0.58242 0.0
C1464 C 0.8122 0.18639 0.61453 0.0
C1465 C 0.80229 0.18812 0.59757 0.0
C1466 C 0.83297 0.12256 0.67814 0.0
C1467 C 0.84354 0.17618 0.63457 0.0
H1468 H 0.829 0.18119 0.77774 0.0
H1469 H 0.8818 0.15932 0.81096 0.0
H1470 H 0.88966 0.1593 0.75427 0.0
H1471 H 0.90409 0.1523 0.78422 0.0
H1472 H 0.86209 0.16699 0.60269 0.0
H1473 H 0.80564 0.18396 0.56945 0.0
H1474 H 0.80292 0.19085 0.62609 0.0
H1475 H 0.78564 0.19405 0.59616 0.0
C1476 C 0.38796 0.94181 0.05058 0.0
C1477 C 0.38504 0.91451 0.05025 0.0
H1478 H 0.41578 0.98674 0.04619 0.0
C1479 C 0.4088 0.9121 0.04385 0.0
H1480 H 0.37008 0.9446 0.05505 0.0
C1481 C 0.43501 0.93638 0.03859 0.0
C1482 C 0.438 0.96365 0.03939 0.0
H1483 H 0.40759 0.89155 0.0435 0.0
H1484 H 0.45322 0.93387 0.03451 0.0
C1485 C 0.41407 0.96599 0.04531 0.0
C1486 C 0.1114 0.50294 0.04482 0.0
C1487 C 0.10873 0.47649 0.04958 0.0
H1488 H 0.08949 0.52557 0.03672 0.0
C1489 C 0.08082 0.45199 0.04877 0.0
H1490 H 0.13251 0.52225 0.04506 0.0
C1491 C 0.05631 0.45392 0.04379 0.0
C1492 C 0.05893 0.4803 0.03926 0.0
H1493 H 0.07767 0.43131 0.05253 0.0
H1494 H 0.03507 0.43471 0.04377 0.0
C1495 C 0.08679 0.50483 0.03979 0.0
C1496 C 0.52695 0.63016 0.04682 0.0
C1497 C 0.5484 0.64201 0.06025 0.0
H1498 H 0.50343 0.59565 0.02856 0.0
C1499 C 0.56305 0.62735 0.06519 0.0
H1500 H 0.51535 0.6409 0.04257 0.0
C1501 C 0.5564 0.60158 0.05708 0.0
C1502 C 0.53486 0.58959 0.04376 0.0
H1503 H 0.5793 0.63544 0.07566 0.0
H1504 H 0.56805 0.59093 0.06146 0.0
C1505 C 0.5203 0.60429 0.03866 0.0
C1506 C 0.93885 0.38957 0.98057 0.0
C1507 C 0.90923 0.37467 0.98562 0.0
H1508 H 0.98135 0.42555 0.98467 0.0
C1509 C 0.90038 0.38539 0.99994 0.0
H1510 H 0.94666 0.38177 0.96985 0.0
C1511 C 0.92047 0.41083 1.00853 0.0
C1512 C 0.95 0.42602 1.00316 0.0
H1513 H 0.87774 0.3746 1.00414 0.0
H1514 H 0.91269 0.41888 1.01911 0.0
C1515 C 0.95887 0.41475 0.98919 0.0
C1516 C 0.61749 0.51287 1.00298 0.0
C1517 C 0.64194 0.53938 0.99829 0.0
H1518 H 0.57237 0.49018 1.01112 0.0
C1519 C 0.63924 0.5639 0.99948 0.0
H1520 H 0.61873 0.49353 1.00248 0.0
C1521 C 0.61284 0.56195 1.00463 0.0
C1522 C 0.58833 0.5355 1.00895 0.0
H1523 H 0.65727 0.58463 0.99579 0.0
H1524 H 0.61136 0.58119 1.00483 0.0
C1525 C 0.59098 0.51095 1.0082 0.0
C1526 C 0.50723 0.12505 1.00899 0.0
C1527 C 0.48637 0.11971 0.99563 0.0
H1528 H 0.52851 0.10841 0.02534 0.0
C1529 C 0.47025 0.09187 0.98881 0.0
H1530 H 0.52045 0.14628 1.01438 0.0
C1531 C 0.47486 0.07004 0.99516 0.0
C1532 C 0.49574 0.07541 1.00851 0.0
H1533 H 0.45377 0.08682 0.97869 0.0
H1534 H 0.46199 0.04891 0.98956 0.0
C1535 C 0.51188 0.10325 1.01531 0.0
C1536 C 0.6379 0.0783 0.99651 0.0
C1537 C 0.64095 0.10565 0.99691 0.0
H1538 H 0.60999 0.0334 1.00091 0.0
C1539 C 0.61735 0.10818 1.00352 0.0
H1540 H 0.65565 0.07543 0.99189 0.0
C1541 C 0.59114 0.08395 1.00886 0.0
C1542 C 0.588 0.05662 1.00793 0.0
H1543 H 0.61867 0.12877 1.00394 0.0
H1544 H 0.57304 0.08654 1.01308 0.0
C1545 C 0.6118 0.05419 1.00187 0.0
C1546 C 0.94528 0.56434 0.99577 0.0
C1547 C 0.91757 0.54002 0.99347 0.0
H1548 H 0.99023 0.58101 1.00281 0.0
C1549 C 0.91401 0.51327 0.99841 0.0
H1550 H 0.94915 0.58525 0.99192 0.0
C1551 C 0.93779 0.51089 1.00476 0.0
C1552 C 0.96567 0.53521 1.00628 0.0
H1553 H 0.89298 0.49407 0.99701 0.0
H1554 H 0.9346 0.48994 1.00775 0.0
C1555 C 0.96896 0.56193 1.00195 0.0
C1556 C 0.5004 0.38796 0.99948 0.0
C1557 C 0.4801 0.37741 0.98539 0.0
H1558 H 0.52251 0.42094 1.01898 0.0
C1559 C 0.46489 0.39177 0.98112 0.0
H1560 H 0.51258 0.3775 1.00309 0.0
C1561 C 0.47047 0.41648 0.99019 0.0
C1562 C 0.49147 0.42771 1.00386 0.0
H1563 H 0.44865 0.38398 0.97063 0.0
H1564 H 0.45848 0.42698 0.98623 0.0
C1565 C 0.5061 0.4129 1.00858 0.0
C1566 C 0.12374 0.62937 0.0449 0.0
C1567 C 0.11455 0.6425 0.0575 0.0
H1568 H 0.11168 0.59352 0.02776 0.0
C1569 C 0.08474 0.62852 0.06217 0.0
H1570 H 0.14643 0.6395 0.04086 0.0
C1571 C 0.06479 0.60225 0.05459 0.0
C1572 C 0.07394 0.58908 0.04204 0.0
H1573 H 0.07681 0.63759 0.07203 0.0
H1574 H 0.04214 0.59221 0.05872 0.0
C1575 C 0.10371 0.60306 0.03725 0.0
C1576 C 0.40875 0.50345 0.0474 0.0
C1577 C 0.3846 0.47676 0.05213 0.0
H1578 H 0.45341 0.52646 0.03835 0.0
C1579 C 0.38693 0.45224 0.04957 0.0
H1580 H 0.40774 0.5228 0.049 0.0
C1581 C 0.41298 0.45439 0.04343 0.0
C1582 C 0.43741 0.48104 0.03943 0.0
H1583 H 0.36914 0.43136 0.05323 0.0
H1584 H 0.41437 0.43515 0.04244 0.0
C1585 C 0.43486 0.50556 0.0411 0.0
C1586 C 0.51838 0.89482 0.03821 0.0
C1587 C 0.53937 0.90014 0.05148 0.0
H1588 H 0.49699 0.91149 0.022 0.0
C1589 C 0.55552 0.92795 0.05833 0.0
H1590 H 0.50513 0.87361 0.03281 0.0
C1591 C 0.55087 0.94981 0.05207 0.0
C1592 C 0.52992 0.94446 0.03878 0.0
H1593 H 0.5721 0.93298 0.06839 0.0
H1594 H 0.5638 0.97093 0.05767 0.0
C1595 C 0.51369 0.91663 0.03198 0.0
C1596 C 0.05501 0.27437 0.38401 0.0
C1597 C 0.05203 0.24705 0.38352 0.0
H1598 H 0.08287 0.31933 0.37978 0.0
C1599 C 0.07576 0.24468 0.377 0.0
H1600 H 0.03717 0.27714 0.38858 0.0
C1601 C 0.10199 0.269 0.37179 0.0
C1602 C 0.10503 0.29628 0.37274 0.0
H1603 H 0.07452 0.22412 0.37653 0.0
H1604 H 0.12016 0.26649 0.36761 0.0
C1605 C 0.08113 0.29859 0.37878 0.0
C1606 C 0.74942 0.7873 0.38376 0.0
C1607 C 0.77725 0.81195 0.38411 0.0
H1608 H 0.70356 0.76944 0.37884 0.0
C1609 C 0.77961 0.83805 0.37877 0.0
H1610 H 0.74667 0.76674 0.38745 0.0
C1611 C 0.75477 0.83951 0.37371 0.0
C1612 C 0.72701 0.81485 0.37359 0.0
H1613 H 0.80054 0.85757 0.37901 0.0
H1614 H 0.75724 0.86005 0.37033 0.0
C1615 C 0.72469 0.78877 0.37865 0.0
C1616 C 0.19394 0.96311 0.37982 0.0
C1617 C 0.21547 0.9749 0.3932 0.0
H1618 H 0.17028 0.9287 0.36151 0.0
C1619 C 0.2301 0.96016 0.39802 0.0
H1620 H 0.18234 0.97391 0.37565 0.0
C1621 C 0.22336 0.93442 0.38984 0.0
C1622 C 0.20176 0.92251 0.37655 0.0
H1623 H 0.24642 0.96819 0.40846 0.0
H1624 H 0.23502 0.92373 0.39413 0.0
C1625 C 0.1872 0.93727 0.37158 0.0
C1626 C 0.60699 0.72311 0.31477 0.0
C1627 C 0.57726 0.70842 0.31961 0.0
H1628 H 0.64953 0.759 0.319 0.0
C1629 C 0.56827 0.71944 0.33369 0.0
H1630 H 0.61491 0.71509 0.30423 0.0
C1631 C 0.58832 0.74493 0.34225 0.0
C1632 C 0.61795 0.75991 0.33708 0.0
H1633 H 0.54556 0.70885 0.33772 0.0
H1634 H 0.58042 0.75319 0.35264 0.0
C1635 C 0.62697 0.74836 0.32335 0.0
C1636 C 0.28323 0.84451 0.33531 0.0
C1637 C 0.3077 0.87069 0.33013 0.0
H1638 H 0.23832 0.82249 0.34381 0.0
C1639 C 0.30539 0.89545 0.33108 0.0
H1640 H 0.28395 0.82491 0.33467 0.0
C1641 C 0.27928 0.894 0.33643 0.0
C1642 C 0.25471 0.86784 0.34116 0.0
H1643 H 0.32377 0.91607 0.32759 0.0
H1644 H 0.27814 0.91342 0.33657 0.0
C1645 C 0.25701 0.84308 0.34065 0.0
C1646 C 0.1749 0.45827 0.34222 0.0
C1647 C 0.15412 0.453 0.32881 0.0
H1648 H 0.19593 0.44149 0.35869 0.0
C1649 C 0.13789 0.42514 0.32204 0.0
H1650 H 0.1882 0.4795 0.34758 0.0
C1651 C 0.14232 0.40323 0.32846 0.0
C1652 C 0.16313 0.40853 0.34184 0.0
H1653 H 0.12145 0.42011 0.31189 0.0
H1654 H 0.12938 0.38209 0.32288 0.0
C1655 C 0.17936 0.43638 0.34862 0.0
C1656 C 0.30501 0.41122 0.32982 0.0
C1657 C 0.30811 0.43858 0.33038 0.0
H1658 H 0.27702 0.36627 0.334 0.0
C1659 C 0.28447 0.44105 0.33699 0.0
H1660 H 0.32277 0.40838 0.32518 0.0
C1661 C 0.25821 0.41676 0.34219 0.0
C1662 C 0.25504 0.38943 0.34116 0.0
H1663 H 0.28582 0.46165 0.33752 0.0
H1664 H 0.24011 0.41934 0.34644 0.0
C1665 C 0.27885 0.38705 0.33506 0.0
C1666 C 0.61293 0.89822 0.32979 0.0
C1667 C 0.58518 0.8739 0.32757 0.0
H1668 H 0.65792 0.91489 0.33671 0.0
C1669 C 0.58166 0.84715 0.33246 0.0
H1670 H 0.61678 0.91913 0.32597 0.0
C1671 C 0.60549 0.84477 0.3387 0.0
C1672 C 0.63337 0.86909 0.34019 0.0
H1673 H 0.56062 0.82795 0.33111 0.0
H1674 H 0.60232 0.82382 0.34167 0.0
C1675 C 0.63665 0.89581 0.33588 0.0
C1676 C 0.13165 0.72476 0.31354 0.0
C1677 C 0.14659 0.71019 0.31797 0.0
H1678 H 0.12543 0.76014 0.3185 0.0
C1679 C 0.16668 0.72063 0.33218 0.0
H1680 H 0.11558 0.71708 0.30294 0.0
C1681 C 0.1724 0.74561 0.34125 0.0
C1682 C 0.15799 0.76058 0.3364 0.0
H1683 H 0.17867 0.71003 0.33592 0.0
H1684 H 0.18864 0.75352 0.35174 0.0
C1685 C 0.13723 0.7495 0.32259 0.0
C1686 C 0.75286 0.95979 0.3987 0.0
C1687 C 0.78239 0.97472 0.39346 0.0
H1688 H 0.71038 0.92353 0.39498 0.0
C1689 C 0.79112 0.96375 0.37923 0.0
H1690 H 0.74516 0.96777 0.40938 0.0
C1691 C 0.771 0.93805 0.3709 0.0
C1692 C 0.74157 0.92285 0.37645 0.0
H1693 H 0.81369 0.97454 0.3749 0.0
H1694 H 0.77872 0.92984 0.36038 0.0
C1695 C 0.73279 0.93435 0.39034 0.0
C1696 C 0.0538 0.78518 0.38265 0.0
C1697 C 0.05148 0.8097 0.38527 0.0
H1698 H 0.08117 0.76808 0.37536 0.0
C1699 C 0.0756 0.83638 0.38048 0.0
H1700 H 0.03603 0.7643 0.38634 0.0
C1701 C 0.10165 0.83849 0.37407 0.0
C1702 C 0.10419 0.81397 0.37233 0.0
H1703 H 0.07461 0.85574 0.38212 0.0
H1704 H 0.12018 0.85939 0.37127 0.0
C1705 C 0.07978 0.78733 0.3764 0.0
C1706 C 0.2224 0.2605 0.39143 0.0
C1707 C 0.20589 0.23263 0.38471 0.0
H1708 H 0.23108 0.30362 0.39066 0.0
C1709 C 0.18473 0.22737 0.37157 0.0
H1710 H 0.23911 0.2655 0.40138 0.0
C1711 C 0.18022 0.24929 0.36533 0.0
C1712 C 0.19678 0.27717 0.372 0.0
H1713 H 0.17121 0.20613 0.36627 0.0
H1714 H 0.16339 0.24419 0.35545 0.0
C1715 C 0.21791 0.28246 0.38517 0.0
C1716 C 0.72117 0.60734 0.71633 0.0
C1717 C 0.71785 0.57987 0.71609 0.0
H1718 H 0.7496 0.6522 0.71209 0.0
C1719 C 0.74149 0.57708 0.70988 0.0
H1720 H 0.70376 0.61056 0.72118 0.0
C1721 C 0.76792 0.60115 0.70465 0.0
C1722 C 0.77131 0.62859 0.70539 0.0
H1723 H 0.73972 0.5563 0.70925 0.0
H1724 H 0.78596 0.59834 0.7006 0.0
C1725 C 0.74753 0.6313 0.71114 0.0
C1726 C 0.44601 0.17184 0.71186 0.0
C1727 C 0.44374 0.14579 0.71724 0.0
H1728 H 0.42355 0.19366 0.70324 0.0
C1729 C 0.41598 0.12106 0.71681 0.0
H1730 H 0.46688 0.19142 0.71216 0.0
C1731 C 0.39123 0.12239 0.71157 0.0
C1732 C 0.39346 0.14841 0.70645 0.0
H1733 H 0.4133 0.10054 0.72052 0.0
H1734 H 0.37015 0.103 0.7117 0.0
C1735 C 0.42115 0.17316 0.70666 0.0
C1736 C 0.89433 0.29193 0.73335 0.0
C1737 C 0.87923 0.30634 0.72892 0.0
H1738 H 0.9007 0.25662 0.72844 0.0
C1739 C 0.85902 0.29571 0.71478 0.0
H1740 H 0.91049 0.29976 0.74389 0.0
C1741 C 0.85336 0.27072 0.70577 0.0
C1742 C 0.86795 0.25592 0.71062 0.0
H1743 H 0.84689 0.30617 0.71104 0.0
H1744 H 0.83705 0.26267 0.69533 0.0
C1745 C 0.88879 0.26715 0.72437 0.0
C1746 C 0.23476 0.05242 0.66716 0.0
C1747 C 0.24414 0.03961 0.65444 0.0
H1748 H 0.24655 0.0879 0.68461 0.0
C1749 C 0.27399 0.05379 0.64987 0.0
H1750 H 0.21203 0.04213 0.67114 0.0
C1751 C 0.29379 0.07992 0.65765 0.0
C1752 C 0.28447 0.09279 0.67033 0.0
H1753 H 0.28208 0.04499 0.63992 0.0
H1754 H 0.31647 0.09011 0.65358 0.0
C1755 C 0.25466 0.07861 0.67503 0.0
C1756 C 0.97329 0.23108 0.66596 0.0
C1757 C 0.97596 0.20654 0.66476 0.0
H1758 H 0.9454 0.24838 0.67127 0.0
C1759 C 0.95146 0.18002 0.66935 0.0
H1760 H 0.99137 0.25183 0.66235 0.0
C1761 C 0.92492 0.1781 0.67449 0.0
C1762 C 0.9223 0.20267 0.67526 0.0
H1763 H 0.95268 0.16067 0.66883 0.0
H1764 H 0.90628 0.15732 0.67734 0.0
C1765 C 0.94686 0.22913 0.67104 0.0
C1766 C 0.84172 0.79034 0.67554 0.0
C1767 C 0.8223 0.78562 0.66137 0.0
H1768 H 0.86131 0.77298 0.69276 0.0
C1769 C 0.8068 0.75802 0.65411 0.0
H1770 H 0.85377 0.81112 0.68171 0.0
C1771 C 0.81075 0.73592 0.66071 0.0
C1772 C 0.83037 0.74073 0.67476 0.0
H1773 H 0.79197 0.75353 0.64304 0.0
H1774 H 0.79858 0.71509 0.65461 0.0
C1775 C 0.84578 0.76827 0.68209 0.0
C1776 C 0.95104 0.77233 0.66984 0.0
C1777 C 0.97458 0.76975 0.6632 0.0
H1778 H 0.90674 0.75078 0.67939 0.0
C1779 C 0.97142 0.74236 0.6627 0.0
H1780 H 0.95245 0.79296 0.67034 0.0
C1781 C 0.94527 0.71826 0.66801 0.0
C1782 C 0.92154 0.72076 0.67413 0.0
H1783 H 0.98913 0.73944 0.65805 0.0
H1784 H 0.94338 0.69745 0.66698 0.0
C1785 C 0.92479 0.74813 0.67513 0.0
C1786 C 0.27956 0.23159 0.66217 0.0
C1787 C 0.2518 0.20729 0.65994 0.0
H1788 H 0.32453 0.2482 0.66912 0.0
C1789 C 0.24822 0.18054 0.66488 0.0
H1790 H 0.28345 0.2525 0.65831 0.0
C1791 C 0.272 0.17813 0.67118 0.0
C1792 C 0.29991 0.20242 0.67265 0.0
H1793 H 0.22716 0.16136 0.66352 0.0
H1794 H 0.26879 0.15717 0.67418 0.0
C1795 C 0.30324 0.22914 0.6683 0.0
C1796 C 0.83427 0.05473 0.66591 0.0
C1797 C 0.81463 0.04444 0.65148 0.0
H1798 H 0.8558 0.08753 0.68557 0.0
C1799 C 0.80006 0.05922 0.64669 0.0
H1800 H 0.84597 0.04395 0.66992 0.0
C1801 C 0.80553 0.084 0.65565 0.0
C1802 C 0.82583 0.0949 0.66972 0.0
H1803 H 0.78435 0.05166 0.6359 0.0
H1804 H 0.79401 0.09478 0.65131 0.0
C1805 C 0.83991 0.07975 0.67488 0.0
C1806 C 0.45757 0.29677 0.71209 0.0
C1807 C 0.44878 0.30765 0.72633 0.0
H1808 H 0.44519 0.26304 0.6931 0.0
C1809 C 0.41918 0.29284 0.73144 0.0
H1810 H 0.4802 0.3075 0.70786 0.0
C1811 C 0.39911 0.26756 0.72293 0.0
C1812 C 0.40794 0.25612 0.70904 0.0
H1813 H 0.41146 0.30077 0.74214 0.0
H1814 H 0.37665 0.25681 0.72749 0.0
C1815 C 0.43744 0.27123 0.70362 0.0
C1816 C 0.74239 0.17012 0.71321 0.0
C1817 C 0.71819 0.14339 0.7178 0.0
H1818 H 0.78713 0.19322 0.70433 0.0
C1819 C 0.72053 0.11889 0.71516 0.0
H1820 H 0.74137 0.18946 0.71487 0.0
C1821 C 0.74663 0.1211 0.70908 0.0
C1822 C 0.77111 0.14779 0.70522 0.0
H1823 H 0.7027 0.09797 0.71871 0.0
H1824 H 0.74803 0.10187 0.70803 0.0
C1825 C 0.76855 0.1723 0.70697 0.0
C1826 C 0.88788 0.5915 0.72437 0.0
C1827 C 0.87123 0.56363 0.71767 0.0
H1828 H 0.89688 0.63471 0.72357 0.0
C1829 C 0.85021 0.55851 0.70446 0.0
H1830 H 0.90452 0.5964 0.73437 0.0
C1831 C 0.84593 0.58055 0.69817 0.0
C1832 C 0.86258 0.60841 0.70487 0.0
H1833 H 0.8366 0.53728 0.69917 0.0
H1834 H 0.82917 0.57557 0.68826 0.0
C1835 C 0.88361 0.61357 0.71806 0.0
C1836 C 0.52445 0.98009 0.17644 0.0
C1837 C 0.49426 0.96361 0.17985 0.0
H1838 H 0.55835 0.00727 0.15824 0.0
C1839 C 0.47493 0.96115 0.16604 0.0
H1840 H 0.54015 0.98202 0.18642 0.0
C1841 C 0.4855 0.97554 0.14966 0.0
C1842 C 0.51568 0.99296 0.14664 0.0
H1843 H 0.45154 0.94892 0.16809 0.0
H1844 H 0.46999 0.97396 0.13964 0.0
C1845 C 0.53495 0.99453 0.16016 0.0
C1846 C 0.01429 0.49365 0.17604 0.0
C1847 C 0.04269 0.51678 0.17859 0.0
H1848 H 0.97779 0.47194 0.15848 0.0
C1849 C 0.0561 0.53613 0.16436 0.0
H1850 H 1.00308 0.47845 0.18669 0.0
C1851 C 0.04144 0.53239 0.14805 0.0
C1852 C 1.01287 0.50941 0.14566 0.0
H1853 H 0.07804 0.55405 0.16577 0.0
H1854 H 0.05223 0.54782 0.13745 0.0
C1855 C 0.99963 0.49004 0.15986 0.0
C1856 C 0.48527 0.48978 0.17671 0.0
C1857 C 0.48356 0.51449 0.17995 0.0
H1858 H 0.49741 0.46688 0.1587 0.0
C1859 C 0.49291 0.53533 0.16635 0.0
H1860 H 0.47861 0.47335 0.18684 0.0
C1861 C 0.50371 0.53152 0.15003 0.0
C1862 C 0.50588 0.50699 0.14702 0.0
H1863 H 0.4917 0.55452 0.16828 0.0
H1864 H 0.51108 0.5481 0.13994 0.0
C1865 C 0.49628 0.48613 0.16056 0.0
C1866 C 1.00999 0.52254 0.87003 0.0
C1867 C 0.9816 0.49942 0.86743 0.0
H1868 H 0.04647 0.54406 0.88762 0.0
C1869 C 0.96818 0.47989 0.88157 0.0
H1870 H 0.02117 0.53786 0.85943 0.0
C1871 C 0.98283 0.48346 0.89785 0.0
C1872 C 1.01138 0.50642 0.9003 0.0
H1873 H 0.94625 0.46198 0.88011 0.0
H1874 H 0.97204 0.46791 0.90839 0.0
C1875 C 0.02464 0.52597 0.88618 0.0
C1876 C 0.50356 0.48022 0.87124 0.0
C1877 C 0.53377 0.49236 0.8682 0.0
H1878 H 0.46957 0.47467 0.88919 0.0
C1879 C 0.55295 0.50757 0.88229 0.0
H1880 H 0.48796 0.46774 0.861 0.0
C1881 C 0.54227 0.5113 0.89865 0.0
C1882 C 0.51213 0.5001 0.90134 0.0
H1883 H 0.57635 0.51751 0.88051 0.0
H1884 H 0.5577 0.52391 0.90894 0.0
C1885 C 0.49295 0.48409 0.8875 0.0
C1886 C 0.51993 0.06308 0.88118 0.0
C1887 C 0.52961 0.05327 0.86673 0.0
H1888 H 0.50438 0.05622 0.90832 0.0
C1889 C 0.53323 0.02951 0.86969 0.0
H1890 H 0.51659 0.08111 0.87952 0.0
C1891 C 0.52597 0.01517 0.88615 0.0
C1892 C 0.51509 0.02419 0.9003 0.0
H1893 H 0.54135 0.02165 0.85919 0.0
H1894 H 0.5284 0.99657 0.8877 0.0
C1895 C 0.51288 0.0488 0.89776 0.0
C1896 C 0.14081 0.29098 0.49805 0.0
C1897 C 0.15918 0.2958 0.51289 0.0
H1898 H 0.13698 0.30217 0.47103 0.0
C1899 C 0.18925 0.31506 0.51073 0.0
H1900 H 0.11761 0.27596 0.49897 0.0
C1901 C 0.20039 0.32977 0.49458 0.0
C1902 C 0.18188 0.3259 0.48001 0.0
H1903 H 0.20421 0.31963 0.52173 0.0
H1904 H 0.22363 0.34463 0.49364 0.0
C1905 C 0.15199 0.30578 0.48186 0.0
C1906 C 0.67968 0.82863 0.51021 0.0
C1907 C 0.70853 0.85104 0.51257 0.0
H1908 H 0.64298 0.8075 0.49275 0.0
C1909 C 0.72248 0.86978 0.49815 0.0
H1910 H 0.66807 0.81393 0.52102 0.0
C1911 C 0.70792 0.86614 0.48182 0.0
C1912 C 0.67895 0.84385 0.47959 0.0
H1913 H 0.74477 0.88712 0.49941 0.0
H1914 H 0.71916 0.8811 0.47107 0.0
C1915 C 0.66515 0.8251 0.494 0.0
C1916 C 0.15917 0.86768 0.49867 0.0
C1917 C 0.15222 0.8479 0.51273 0.0
H1918 H 0.17564 0.87995 0.47189 0.0
C1919 C 0.15652 0.82457 0.50992 0.0
H1920 H 0.15593 0.88577 0.50025 0.0
C1921 C 0.16763 0.82121 0.49374 0.0
C1922 C 0.17485 0.84103 0.47973 0.0
H1923 H 0.15178 0.80902 0.52041 0.0
H1924 H 0.17067 0.80298 0.49222 0.0
C1925 C 0.17016 0.86418 0.48232 0.0
C1926 C 0.63833 0.83812 0.21701 0.0
C1927 C 0.64388 0.82589 0.20202 0.0
H1928 H 0.64925 0.85215 0.24407 0.0
C1929 C 0.6644 0.81672 0.20376 0.0
H1930 H 0.62236 0.84504 0.21632 0.0
C1931 C 0.67955 0.82046 0.21979 0.0
C1932 C 0.67472 0.83355 0.23458 0.0
H1933 H 0.6695 0.80741 0.19256 0.0
H1934 H 0.69532 0.81329 0.22051 0.0
C1935 C 0.65352 0.84188 0.23305 0.0
C1936 C 0.21971 0.84068 0.21507 0.0
C1937 C 0.20058 0.82561 0.20092 0.0
H1938 H 0.2244 0.85695 0.24173 0.0
C1939 C 0.17037 0.81365 0.2039 0.0
H1940 H 0.24311 0.85049 0.21335 0.0
C1941 C 0.15973 0.81757 0.22013 0.0
C1942 C 0.17887 0.83344 0.23402 0.0
H1943 H 0.15479 0.80127 0.19362 0.0
H1944 H 0.13636 0.80829 0.22176 0.0
C1945 C 0.209 0.84445 0.2314 0.0
C1946 C 0.1925 0.40071 0.21648 0.0
C1947 C 0.19572 0.38842 0.20068 0.0
H1948 H 0.18133 0.39527 0.24436 0.0
C1949 C 0.19209 0.36087 0.20187 0.0
H1950 H 0.19562 0.42205 0.21631 0.0
C1951 C 0.18433 0.34572 0.21804 0.0
C1952 C 0.17974 0.35743 0.23363 0.0
H1953 H 0.19409 0.35041 0.19012 0.0
H1954 H 0.18135 0.32442 0.21821 0.0
C1955 C 0.18465 0.38546 0.23271 0.0
C1956 C 0.85529 0.64661 0.84374 0.0
C1957 C 0.82516 0.62769 0.84597 0.0
H1958 H 0.88978 0.67578 0.82656 0.0
C1959 C 0.80677 0.62303 0.83116 0.0
H1960 H 0.87027 0.65105 0.85471 0.0
C1961 C 0.81801 0.63767 0.81494 0.0
C1962 C 0.84799 0.65747 0.81301 0.0
H1963 H 0.78352 0.60827 0.83214 0.0
H1964 H 0.80301 0.63421 0.80413 0.0
C1965 C 0.86649 0.66116 0.82755 0.0
C1966 C 0.36002 0.19976 0.84273 0.0
C1967 C 0.38086 0.191 0.84457 0.0
H1968 H 0.3289 0.20263 0.82586 0.0
C1969 C 0.38673 0.17891 0.82964 0.0
H1970 H 0.35466 0.20895 0.85388 0.0
C1971 C 0.37158 0.1749 0.81355 0.0
C1972 C 0.35008 0.18284 0.8119 0.0
H1973 H 0.40293 0.1723 0.83041 0.0
H1974 H 0.37613 0.16477 0.80257 0.0
C1975 C 0.34491 0.19577 0.82665 0.0
C1976 C 0.82003 0.15697 0.84306 0.0
C1977 C 0.81692 0.18096 0.84605 0.0
H1978 H 0.83332 0.13478 0.82526 0.0
C1979 C 0.82503 0.20127 0.8322 0.0
H1980 H 0.81436 0.14098 0.85338 0.0
C1981 C 0.83601 0.19765 0.81589 0.0
C1982 C 0.83956 0.17385 0.81312 0.0
H1983 H 0.82272 0.21989 0.83393 0.0
H1984 H 0.84242 0.21384 0.80562 0.0
C1985 C 0.83116 0.1535 0.82692 0.0
C1986 C 0.30259 0.1465 0.54822 0.0
C1987 C 0.31652 0.16556 0.53394 0.0
H1988 H 0.30591 0.13469 0.57519 0.0
C1989 C 0.34531 0.18803 0.53642 0.0
H1990 H 0.28036 0.1291 0.54685 0.0
C1991 C 0.35982 0.19129 0.55261 0.0
C1992 C 0.34604 0.17222 0.56687 0.0
H1993 H 0.35689 0.20298 0.52572 0.0
H1994 H 0.38195 0.20891 0.55395 0.0
C1995 C 0.31712 0.14988 0.56453 0.0
C1996 C 0.83863 0.14834 0.53725 0.0
C1997 C 0.86885 0.16068 0.53421 0.0
H1998 H 0.80452 0.14253 0.55519 0.0
C1999 C 0.88797 0.176 0.54831 0.0
H2000 H 0.82306 0.13577 0.52702 0.0
C2001 C 0.8772 0.17962 0.56467 0.0
C2002 C 0.84703 0.16822 0.56736 0.0
H2003 H 0.91139 0.1861 0.54654 0.0
H2004 H 0.89258 0.19231 0.57496 0.0
C2005 C 0.82792 0.15211 0.55351 0.0
C2006 C 0.85932 0.69428 0.53481 0.0
C2007 C 0.86252 0.72166 0.53369 0.0
H2008 H 0.84901 0.65783 0.55105 0.0
C2009 C 0.85896 0.73366 0.54953 0.0
H2010 H 0.86161 0.68403 0.52304 0.0
C2011 C 0.85122 0.71829 0.56571 0.0
C2012 C 0.84674 0.69041 0.56656 0.0
H2013 H 0.86173 0.75487 0.54941 0.0
H2014 H 0.84764 0.72786 0.57739 0.0
C2015 C 0.85167 0.67899 0.55094 0.0
loop_
_geom_bond_atom_site_label_1
_geom_bond_atom_site_label_2
_geom_bond_distance
_geom_bond_site_symmetry_2
_ccdc_geom_bond_type
C0 C1 1.264 . S
C0 C5 1.479 . S
C0 C10 1.465 . S
C1 C0 1.264 . S
C1 C3 1.339 . S
C1 H28 0.931 . S
C2 C3 1.395 . S
C2 C4 1.320 . S
C3 C1 1.339 . S
C3 C2 1.395 . S
C3 H29 0.929 . S
C4 C2 1.320 . S
C4 C5 1.405 . S
C4 H30 0.930 . S
C5 C0 1.479 . S
C5 C4 1.405 . S
C5 H31 0.931 . S
U6 O7 2.454 . S
U6 O8 2.458 . S
U6 C9 2.984 . S
U6 C10 2.847 . S
U6 C23 2.882 . S
U6 O24 2.441 . S
U6 O25 2.420 . S
U6 O26 2.455 . S
U6 O27 2.449 . S
O7 U6 2.454 . S
O7 C9 1.353 . S
O8 U6 2.458 . S
O8 C9 1.286 . S
C9 U6 2.984 . S
C9 O7 1.353 . S
C9 O8 1.286 . S
C9 C11 1.363 . S
C10 C0 1.465 . S
C10 U6 2.847 . S
C10 O24 1.249 . S
C10 O25 1.202 . S
C11 C9 1.363 . S
C11 C13 1.408 . S
C11 C16 1.342 . S
C12 C13 1.310 . S
C12 C15 1.461 . S
C12 H32 0.932 . S
C13 C11 1.408 . S
C13 C12 1.310 . S
C13 H33 0.930 . S
C14 C15 1.474 . S
C14 C16 1.285 . S
C14 H34 0.929 1_545 S
C15 C12 1.461 . S
C15 C14 1.474 . S
C16 C11 1.342 . S
C16 C14 1.285 . S
C16 H35 0.930 . S
C17 C20 1.424 . S
C17 C22 1.245 . S
C17 C23 1.428 . S
C18 C21 1.260 . S
C18 C22 1.477 . S
C18 H36 0.932 . S
C19 C20 1.384 . S
C19 C21 1.479 . S
C19 H37 0.929 . S
C20 C17 1.424 . S
C20 C19 1.384 . S
C20 H38 0.928 . S
C21 C18 1.260 . S
C21 C19 1.479 . S
C22 C17 1.245 . S
C22 C18 1.477 . S
C22 H39 0.932 . S
C23 U6 2.882 . S
C23 C17 1.428 . S
C23 O26 1.301 . S
C23 O27 1.282 . S
O24 U6 2.441 . S
O24 C10 1.249 . S
O25 U6 2.420 . S
O25 C10 1.202 . S
O26 U6 2.455 . S
O26 C23 1.301 . S
O27 U6 2.449 . S
O27 C23 1.282 . S
H28 C1 0.931 . S
H29 C3 0.929 . S
H30 C4 0.930 . S
H31 C5 0.931 . S
H32 C12 0.932 . S
H33 C13 0.930 . S
H34 C14 0.929 1_565 S
H35 C16 0.930 . S
H36 C18 0.932 . S
H37 C19 0.929 . S
H38 C20 0.928 . S
H39 C22 0.932 . S
C40 C41 1.264 . S
C40 C45 1.479 . S
C40 C50 1.465 . S
C41 C40 1.264 . S
C41 C43 1.339 . S
C41 H68 0.931 . S
C42 C43 1.395 1_455 S
C42 C44 1.320 1_455 S
C43 C41 1.339 . S
C43 C42 1.395 1_655 S
C43 H69 0.929 1_655 S
C44 C42 1.320 1_655 S
C44 C45 1.405 . S
C44 H70 0.930 . S
C45 C40 1.479 . S
C45 C44 1.405 . S
C45 H71 0.931 . S
U46 O47 2.454 . S
U46 O48 2.458 . S
U46 C49 2.984 . S
U46 C50 2.847 . S
U46 C63 2.882 . S
U46 O64 2.441 . S
U46 O65 2.420 . S
U46 O66 2.455 . S
U46 O67 2.449 . S
O47 U46 2.454 . S
O47 C49 1.353 . S
O48 U46 2.458 . S
O48 C49 1.286 . S
C49 U46 2.984 . S
C49 O47 1.353 . S
C49 O48 1.286 . S
C49 C51 1.363 . S
C50 C40 1.465 . S
C50 U46 2.847 . S
C50 O64 1.249 . S
C50 O65 1.202 . S
C51 C49 1.363 . S
C51 C53 1.408 . S
C51 C56 1.342 . S
C52 C53 1.310 . S
C52 C55 1.461 1_545 S
C52 H72 0.932 . S
C53 C51 1.408 . S
C53 C52 1.310 . S
C53 H73 0.930 . S
C54 C55 1.474 1_545 S
C54 C56 1.285 . S
C54 H74 0.929 1_545 S
C55 C52 1.461 1_565 S
C55 C54 1.474 1_565 S
C56 C51 1.342 . S
C56 C54 1.285 . S
C56 H75 0.930 . S
C57 C60 1.424 . S
C57 C62 1.245 . S
C57 C63 1.428 . S
C58 C61 1.260 . S
C58 C62 1.477 . S
C58 H76 0.932 . S
C59 C60 1.384 . S
C59 C61 1.479 . S
C59 H77 0.929 . S
C60 C57 1.424 . S
C60 C59 1.384 . S
C60 H78 0.928 . S
C61 C58 1.260 . S
C61 C59 1.479 . S
C62 C57 1.245 . S
C62 C58 1.477 . S
C62 H79 0.932 . S
C63 U46 2.882 . S
C63 C57 1.428 . S
C63 O66 1.301 . S
C63 O67 1.282 . S
O64 U46 2.441 . S
O64 C50 1.249 . S
O65 U46 2.420 . S
O65 C50 1.202 . S
O66 U46 2.455 . S
O66 C63 1.301 . S
O67 U46 2.449 . S
O67 C63 1.282 . S
H68 C41 0.931 . S
H69 C43 0.929 1_455 S
H70 C44 0.930 . S
H71 C45 0.931 . S
H72 C52 0.932 . S
H73 C53 0.930 . S
H74 C54 0.929 1_565 S
H75 C56 0.930 . S
H76 C58 0.932 . S
H77 C59 0.929 . S
H78 C60 0.928 . S
H79 C62 0.932 . S
C80 C81 1.264 . S
C80 C85 1.479 . S
C80 C90 1.465 . S
C81 C80 1.264 . S
C81 C83 1.339 . S
C81 H108 0.931 . S
C82 C83 1.395 . S
C82 C84 1.320 . S
C83 C81 1.339 . S
C83 C82 1.395 . S
C83 H109 0.929 . S
C84 C82 1.320 . S
C84 C85 1.405 . S
C84 H110 0.930 . S
C85 C80 1.479 . S
C85 C84 1.405 . S
C85 H111 0.931 . S
U86 O87 2.454 . S
U86 O88 2.458 . S
U86 C89 2.984 . S
U86 C90 2.847 . S
U86 C103 2.882 . S
U86 O104 2.441 . S
U86 O105 2.420 . S
U86 O106 2.455 . S
U86 O107 2.449 . S
O87 U86 2.454 . S
O87 C89 1.353 . S
O88 U86 2.458 . S
O88 C89 1.286 . S
C89 U86 2.984 . S
C89 O87 1.353 . S
C89 O88 1.286 . S
C89 C91 1.363 . S
C90 C80 1.465 . S
C90 U86 2.847 . S
C90 O104 1.249 . S
C90 O105 1.202 . S
C91 C89 1.363 . S
C91 C93 1.408 . S
C91 C96 1.342 . S
C92 C93 1.310 . S
C92 C95 1.461 1_655 S
C92 H112 0.932 . S
C93 C91 1.408 . S
C93 C92 1.310 . S
C93 H113 0.930 . S
C94 C95 1.474 . S
C94 C96 1.285 1_455 S
C94 H114 0.929 . S
C95 C92 1.461 1_455 S
C95 C94 1.474 . S
C96 C91 1.342 . S
C96 C94 1.285 1_655 S
C96 H115 0.930 . S
C97 C100 1.424 . S
C97 C102 1.245 . S
C97 C103 1.428 . S
C98 C101 1.260 . S
C98 C102 1.477 . S
C98 H116 0.932 . S
C99 C100 1.384 . S
C99 C101 1.479 . S
C99 H117 0.929 . S
C100 C97 1.424 . S
C100 C99 1.384 . S
C100 H118 0.928 . S
C101 C98 1.260 . S
C101 C99 1.479 . S
C102 C97 1.245 . S
C102 C98 1.477 . S
C102 H119 0.932 . S
C103 U86 2.882 . S
C103 C97 1.428 . S
C103 O106 1.301 . S
C103 O107 1.282 . S
O104 U86 2.441 . S
O104 C90 1.249 . S
O105 U86 2.420 . S
O105 C90 1.202 . S
O106 U86 2.455 . S
O106 C103 1.301 . S
O107 U86 2.449 . S
O107 C103 1.282 . S
H108 C81 0.931 . S
H109 C83 0.929 . S
H110 C84 0.930 . S
H111 C85 0.931 . S
H112 C92 0.932 . S
H113 C93 0.930 . S
H114 C94 0.929 . S
H115 C96 0.930 . S
H116 C98 0.932 . S
H117 C99 0.929 . S
H118 C100 0.928 . S
H119 C102 0.932 . S
C120 C121 1.264 . S
C120 C125 1.479 . S
C120 C130 1.465 . S
C121 C120 1.264 . S
C121 C123 1.341 1_455 S
C121 H148 0.931 . S
C122 C123 1.395 . S
C122 C124 1.320 1_655 S
C123 C121 1.341 1_655 S
C123 C122 1.395 . S
C123 H149 0.927 . S
C124 C122 1.320 1_455 S
C124 C125 1.405 . S
C124 H150 0.930 . S
C125 C120 1.479 . S
C125 C124 1.405 . S
C125 H151 0.931 . S
U126 O127 2.454 . S
U126 O128 2.458 . S
U126 C129 2.984 . S
U126 C130 2.847 . S
U126 C143 2.882 . S
U126 O144 2.441 . S
U126 O145 2.420 . S
U126 O146 2.455 . S
U126 O147 2.449 . S
O127 U126 2.454 . S
O127 C129 1.353 . S
O128 U126 2.458 . S
O128 C129 1.286 . S
C129 U126 2.984 . S
C129 O127 1.353 . S
C129 O128 1.286 . S
C129 C131 1.363 . S
C130 C120 1.465 . S
C130 U126 2.847 . S
C130 O144 1.249 . S
C130 O145 1.202 . S
C131 C129 1.363 . S
C131 C133 1.408 . S
C131 C136 1.342 . S
C132 C133 1.310 . S
C132 C135 1.461 . S
C132 H152 0.932 . S
C133 C131 1.408 . S
C133 C132 1.310 . S
C133 H153 0.930 . S
C134 C135 1.474 . S
C134 C136 1.285 . S
C134 H154 0.929 . S
C135 C132 1.461 . S
C135 C134 1.474 . S
C136 C131 1.342 . S
C136 C134 1.285 . S
C136 H155 0.930 . S
C137 C140 1.424 . S
C137 C142 1.245 . S
C137 C143 1.428 . S
C138 C141 1.260 . S
C138 C142 1.477 . S
C138 H156 0.932 . S
C139 C140 1.384 . S
C139 C141 1.479 . S
C139 H157 0.929 . S
C140 C137 1.424 . S
C140 C139 1.384 . S
C140 H158 0.928 . S
C141 C138 1.260 . S
C141 C139 1.479 . S
C142 C137 1.245 . S
C142 C138 1.477 . S
C142 H159 0.932 . S
C143 U126 2.882 . S
C143 C137 1.428 . S
C143 O146 1.301 . S
C143 O147 1.282 . S
O144 U126 2.441 . S
O144 C130 1.249 . S
O145 U126 2.420 . S
O145 C130 1.202 . S
O146 U126 2.455 . S
O146 C143 1.301 . S
O147 U126 2.449 . S
O147 C143 1.282 . S
H148 C121 0.931 . S
H149 C123 0.927 . S
H150 C124 0.930 . S
H151 C125 0.931 . S
H152 C132 0.932 . S
H153 C133 0.930 . S
H154 C134 0.929 . S
H155 C136 0.930 . S
H156 C138 0.932 . S
H157 C139 0.929 . S
H158 C140 0.928 . S
H159 C142 0.932 . S
C160 C161 1.264 . S
C160 C165 1.479 . S
C160 C170 1.465 . S
C161 C160 1.264 . S
C161 C163 1.339 . S
C161 H188 0.931 . S
C162 C163 1.395 . S
C162 C164 1.320 . S
C163 C161 1.339 . S
C163 C162 1.395 . S
C163 H189 0.929 . S
C164 C162 1.320 . S
C164 C165 1.405 . S
C164 H190 0.930 . S
C165 C160 1.479 . S
C165 C164 1.405 . S
C165 H191 0.931 . S
U166 O167 2.454 . S
U166 O168 2.458 . S
U166 C169 2.984 . S
U166 C170 2.847 . S
U166 C183 2.882 . S
U166 O184 2.441 . S
U166 O185 2.420 . S
U166 O186 2.455 . S
U166 O187 2.449 . S
O167 U166 2.454 . S
O167 C169 1.353 . S
O168 U166 2.458 . S
O168 C169 1.286 . S
C169 U166 2.984 . S
C169 O167 1.353 . S
C169 O168 1.286 . S
C169 C171 1.363 . S
C170 C160 1.465 . S
C170 U166 2.847 . S
C170 O184 1.249 . S
C170 O185 1.202 . S
C171 C169 1.363 . S
C171 C173 1.408 . S
C171 C176 1.342 . S
C172 C173 1.310 . S
C172 C175 1.461 1_565 S
C172 H192 0.932 . S
C173 C171 1.408 . S
C173 C172 1.310 . S
C173 H193 0.930 . S
C174 C175 1.474 1_565 S
C174 C176 1.285 . S
C174 H194 0.929 1_565 S
C175 C172 1.461 1_545 S
C175 C174 1.474 1_545 S
C176 C171 1.342 . S
C176 C174 1.285 . S
C176 H195 0.930 . S
C177 C180 1.424 . S
C177 C182 1.245 . S
C177 C183 1.428 . S
C178 C181 1.260 . S
C178 C182 1.477 . S
C178 H196 0.932 . S
C179 C180 1.384 . S
C179 C181 1.479 . S
C179 H197 0.929 . S
C180 C177 1.424 . S
C180 C179 1.384 . S
C180 H198 0.928 . S
C181 C178 1.260 . S
C181 C179 1.479 . S
C182 C177 1.245 . S
C182 C178 1.477 . S
C182 H199 0.932 . S
C183 U166 2.882 . S
C183 C177 1.428 . S
C183 O186 1.301 . S
C183 O187 1.282 . S
O184 U166 2.441 . S
O184 C170 1.249 . S
O185 U166 2.420 . S
O185 C170 1.202 . S
O186 U166 2.455 . S
O186 C183 1.301 . S
O187 U166 2.449 . S
O187 C183 1.282 . S
H188 C161 0.931 . S
H189 C163 0.929 . S
H190 C164 0.930 . S
H191 C165 0.931 . S
H192 C172 0.932 . S
H193 C173 0.930 . S
H194 C174 0.929 1_545 S
H195 C176 0.930 . S
H196 C178 0.932 . S
H197 C179 0.929 . S
H198 C180 0.928 . S
H199 C182 0.932 . S
C200 C201 1.264 . S
C200 C205 1.479 . S
C200 C210 1.465 . S
C201 C200 1.264 . S
C201 C203 1.339 1_455 S
C201 H228 0.931 . S
C202 C203 1.395 . S
C202 C204 1.320 1_655 S
C203 C201 1.339 1_655 S
C203 C202 1.395 . S
C203 H229 0.929 . S
C204 C202 1.320 1_455 S
C204 C205 1.405 . S
C204 H230 0.930 . S
C205 C200 1.479 . S
C205 C204 1.405 . S
C205 H231 0.931 . S
U206 O207 2.454 . S
U206 O208 2.458 . S
U206 C209 2.984 . S
U206 C210 2.847 . S
U206 C223 2.882 . S
U206 O224 2.441 . S
U206 O225 2.420 . S
U206 O226 2.455 . S
U206 O227 2.449 . S
O207 U206 2.454 . S
O207 C209 1.353 . S
O208 U206 2.458 . S
O208 C209 1.286 . S
C209 U206 2.984 . S
C209 O207 1.353 . S
C209 O208 1.286 . S
C209 C211 1.363 . S
C210 C200 1.465 . S
C210 U206 2.847 . S
C210 O224 1.249 . S
C210 O225 1.202 . S
C211 C209 1.363 . S
C211 C213 1.408 . S
C211 C216 1.342 . S
C212 C213 1.310 . S
C212 C215 1.461 1_565 S
C212 H232 0.932 . S
C213 C211 1.408 . S
C213 C212 1.310 . S
C213 H233 0.930 . S
C214 C215 1.474 1_565 S
C214 C216 1.285 . S
C214 H234 0.929 1_565 S
C215 C212 1.461 1_545 S
C215 C214 1.474 1_545 S
C216 C211 1.342 . S
C216 C214 1.285 . S
C216 H235 0.930 . S
C217 C220 1.424 . S
C217 C222 1.245 . S
C217 C223 1.428 . S
C218 C221 1.260 . S
C218 C222 1.477 . S
C218 H236 0.932 . S
C219 C220 1.384 . S
C219 C221 1.479 . S
C219 H237 0.929 . S
C220 C217 1.424 . S
C220 C219 1.384 . S
C220 H238 0.928 . S
C221 C218 1.260 . S
C221 C219 1.479 . S
C222 C217 1.245 . S
C222 C218 1.477 . S
C222 H239 0.932 . S
C223 U206 2.882 . S
C223 C217 1.428 . S
C223 O226 1.301 . S
C223 O227 1.282 . S
O224 U206 2.441 . S
O224 C210 1.249 . S
O225 U206 2.420 . S
O225 C210 1.202 . S
O226 U206 2.455 . S
O226 C223 1.301 . S
O227 U206 2.449 . S
O227 C223 1.282 . S
H228 C201 0.931 . S
H229 C203 0.929 . S
H230 C204 0.930 . S
H231 C205 0.931 . S
H232 C212 0.932 . S
H233 C213 0.930 . S
H234 C214 0.929 1_545 S
H235 C216 0.930 . S
H236 C218 0.932 . S
H237 C219 0.929 . S
H238 C220 0.928 . S
H239 C222 0.932 . S
C240 C241 1.264 . S
C240 C245 1.479 . S
C240 C250 1.465 . S
C241 C240 1.264 . S
C241 C243 1.339 . S
C241 H268 0.931 . S
C242 C243 1.395 . S
C242 C244 1.320 . S
C243 C241 1.339 . S
C243 C242 1.395 . S
C243 H269 0.929 . S
C244 C242 1.320 . S
C244 C245 1.405 . S
C244 H270 0.930 . S
C245 C240 1.479 . S
C245 C244 1.405 . S
C245 H271 0.931 . S
U246 O247 2.454 . S
U246 O248 2.458 . S
U246 C249 2.984 . S
U246 C250 2.847 . S
U246 C263 2.882 . S
U246 O264 2.441 . S
U246 O265 2.420 . S
U246 O266 2.455 . S
U246 O267 2.449 . S
O247 U246 2.454 . S
O247 C249 1.353 . S
O248 U246 2.458 . S
O248 C249 1.286 . S
C249 U246 2.984 . S
C249 O247 1.353 . S
C249 O248 1.286 . S
C249 C251 1.363 . S
C250 C240 1.465 . S
C250 U246 2.847 . S
C250 O264 1.249 . S
C250 O265 1.202 . S
C251 C249 1.363 . S
C251 C253 1.408 . S
C251 C256 1.342 . S
C252 C253 1.310 . S
C252 C255 1.461 . S
C252 H272 0.932 . S
C253 C251 1.408 . S
C253 C252 1.310 . S
C253 H273 0.930 . S
C254 C255 1.474 . S
C254 C256 1.285 . S
C254 H274 0.929 . S
C255 C252 1.461 . S
C255 C254 1.474 . S
C256 C251 1.342 . S
C256 C254 1.285 . S
C256 H275 0.930 . S
C257 C260 1.424 . S
C257 C262 1.245 . S
C257 C263 1.428 . S
C258 C261 1.260 . S
C258 C262 1.477 . S
C258 H276 0.932 . S
C259 C260 1.384 . S
C259 C261 1.479 . S
C259 H277 0.929 . S
C260 C257 1.424 . S
C260 C259 1.384 . S
C260 H278 0.928 . S
C261 C258 1.260 . S
C261 C259 1.479 . S
C262 C257 1.245 . S
C262 C258 1.477 . S
C262 H279 0.932 . S
C263 U246 2.882 . S
C263 C257 1.428 . S
C263 O266 1.301 . S
C263 O267 1.282 . S
O264 U246 2.441 . S
O264 C250 1.249 . S
O265 U246 2.420 . S
O265 C250 1.202 . S
O266 U246 2.455 . S
O266 C263 1.301 . S
O267 U246 2.449 . S
O267 C263 1.282 . S
H268 C241 0.931 . S
H269 C243 0.929 . S
H270 C244 0.930 . S
H271 C245 0.931 . S
H272 C252 0.932 . S
H273 C253 0.930 . S
H274 C254 0.929 . S
H275 C256 0.930 . S
H276 C258 0.932 . S
H277 C259 0.929 . S
H278 C260 0.928 . S
H279 C262 0.932 . S
C280 C281 1.264 . S
C280 C285 1.479 . S
C280 C290 1.465 . S
C281 C280 1.264 . S
C281 C283 1.339 . S
C281 H308 0.931 . S
C282 C283 1.395 . S
C282 C284 1.320 . S
C283 C281 1.339 . S
C283 C282 1.395 . S
C283 H309 0.929 . S
C284 C282 1.320 . S
C284 C285 1.405 . S
C284 H310 0.930 . S
C285 C280 1.479 . S
C285 C284 1.405 . S
C285 H311 0.931 . S
U286 O287 2.454 . S
U286 O288 2.458 . S
U286 C289 2.984 . S
U286 C290 2.847 . S
U286 C303 2.882 . S
U286 O304 2.441 . S
U286 O305 2.420 . S
U286 O306 2.455 . S
U286 O307 2.449 . S
O287 U286 2.454 . S
O287 C289 1.353 . S
O288 U286 2.458 . S
O288 C289 1.286 . S
C289 U286 2.984 . S
C289 O287 1.353 . S
C289 O288 1.286 . S
C289 C291 1.363 . S
C290 C280 1.465 . S
C290 U286 2.847 . S
C290 O304 1.249 . S
C290 O305 1.202 . S
C291 C289 1.363 . S
C291 C293 1.408 . S
C291 C296 1.342 . S
C292 C293 1.310 . S
C292 C295 1.461 . S
C292 H312 0.932 . S
C293 C291 1.408 . S
C293 C292 1.310 . S
C293 H313 0.930 . S
C294 C295 1.474 . S
C294 C296 1.285 . S
C294 H314 0.929 . S
C295 C292 1.461 . S
C295 C294 1.474 . S
C296 C291 1.342 . S
C296 C294 1.285 . S
C296 H315 0.930 . S
C297 C300 1.424 . S
C297 C302 1.245 . S
C297 C303 1.428 . S
C298 C301 1.260 . S
C298 C302 1.477 . S
C298 H316 0.932 . S
C299 C300 1.384 . S
C299 C301 1.479 . S
C299 H317 0.929 . S
C300 C297 1.424 . S
C300 C299 1.384 . S
C300 H318 0.928 . S
C301 C298 1.260 . S
C301 C299 1.479 . S
C302 C297 1.245 . S
C302 C298 1.477 . S
C302 H319 0.932 . S
C303 U286 2.882 . S
C303 C297 1.428 . S
C303 O306 1.301 . S
C303 O307 1.282 . S
O304 U286 2.441 . S
O304 C290 1.249 . S
O305 U286 2.420 . S
O305 C290 1.202 . S
O306 U286 2.455 . S
O306 C303 1.301 . S
O307 U286 2.449 . S
O307 C303 1.282 . S
H308 C281 0.931 . S
H309 C283 0.929 . S
H310 C284 0.930 . S
H311 C285 0.931 . S
H312 C292 0.932 . S
H313 C293 0.930 . S
H314 C294 0.929 . S
H315 C296 0.930 . S
H316 C298 0.932 . S
H317 C299 0.929 . S
H318 C300 0.928 . S
H319 C302 0.932 . S
C320 C321 1.264 . S
C320 C325 1.479 . S
C320 C330 1.465 . S
C321 C320 1.264 . S
C321 C323 1.339 . S
C321 H348 0.931 . S
C322 C323 1.395 . S
C322 C324 1.320 . S
C323 C321 1.339 . S
C323 C322 1.395 . S
C323 H349 0.929 . S
C324 C322 1.320 . S
C324 C325 1.405 . S
C324 H350 0.930 . S
C325 C320 1.479 . S
C325 C324 1.405 . S
C325 H351 0.931 . S
U326 O327 2.454 . S
U326 O328 2.458 . S
U326 C329 2.984 . S
U326 C330 2.847 . S
U326 C343 2.882 . S
U326 O344 2.441 . S
U326 O345 2.420 . S
U326 O346 2.455 . S
U326 O347 2.449 . S
O327 U326 2.454 . S
O327 C329 1.353 . S
O328 U326 2.458 . S
O328 C329 1.286 . S
C329 U326 2.984 . S
C329 O327 1.353 . S
C329 O328 1.286 . S
C329 C331 1.363 . S
C330 C320 1.465 . S
C330 U326 2.847 . S
C330 O344 1.249 . S
C330 O345 1.202 . S
C331 C329 1.363 . S
C331 C333 1.408 . S
C331 C336 1.342 . S
C332 C333 1.310 . S
C332 C335 1.461 . S
C332 H352 0.932 . S
C333 C331 1.408 . S
C333 C332 1.310 . S
C333 H353 0.930 . S
C334 C335 1.474 . S
C334 C336 1.285 . S
C334 H354 0.929 . S
C335 C332 1.461 . S
C335 C334 1.474 . S
C336 C331 1.342 . S
C336 C334 1.285 . S
C336 H355 0.930 . S
C337 C340 1.424 . S
C337 C342 1.245 . S
C337 C343 1.428 . S
C338 C341 1.260 . S
C338 C342 1.477 . S
C338 H356 0.932 . S
C339 C340 1.384 . S
C339 C341 1.479 . S
C339 H357 0.929 . S
C340 C337 1.424 . S
C340 C339 1.384 . S
C340 H358 0.928 . S
C341 C338 1.260 . S
C341 C339 1.479 . S
C342 C337 1.245 . S
C342 C338 1.477 . S
C342 H359 0.932 . S
C343 U326 2.882 . S
C343 C337 1.428 . S
C343 O346 1.301 . S
C343 O347 1.282 . S
O344 U326 2.441 . S
O344 C330 1.249 . S
O345 U326 2.420 . S
O345 C330 1.202 . S
O346 U326 2.455 . S
O346 C343 1.301 . S
O347 U326 2.449 . S
O347 C343 1.282 . S
H348 C321 0.931 . S
H349 C323 0.929 . S
H350 C324 0.930 . S
H351 C325 0.931 . S
H352 C332 0.932 . S
H353 C333 0.930 . S
H354 C334 0.929 . S
H355 C336 0.930 . S
H356 C338 0.932 . S
H357 C339 0.929 . S
H358 C340 0.928 . S
H359 C342 0.932 . S
C360 C361 1.264 . S
C360 C365 1.479 . S
C360 C370 1.465 . S
C361 C360 1.264 . S
C361 C363 1.339 . S
C361 H388 0.931 . S
C362 C363 1.395 . S
C362 C364 1.320 . S
C363 C361 1.339 . S
C363 C362 1.395 . S
C363 H389 0.929 . S
C364 C362 1.320 . S
C364 C365 1.405 . S
C364 H390 0.930 . S
C365 C360 1.479 . S
C365 C364 1.405 . S
C365 H391 0.931 . S
U366 O367 2.454 . S
U366 O368 2.458 . S
U366 C369 2.984 . S
U366 C370 2.847 . S
U366 C383 2.882 . S
U366 O384 2.441 . S
U366 O385 2.420 . S
U366 O386 2.455 . S
U366 O387 2.449 . S
O367 U366 2.454 . S
O367 C369 1.353 . S
O368 U366 2.458 . S
O368 C369 1.286 . S
C369 U366 2.984 . S
C369 O367 1.353 . S
C369 O368 1.286 . S
C369 C371 1.363 . S
C370 C360 1.465 . S
C370 U366 2.847 . S
C370 O384 1.249 . S
C370 O385 1.202 . S
C371 C369 1.363 . S
C371 C373 1.408 . S
C371 C376 1.342 . S
C372 C373 1.310 . S
C372 C375 1.461 . S
C372 H392 0.932 . S
C373 C371 1.408 . S
C373 C372 1.310 . S
C373 H393 0.930 . S
C374 C375 1.474 . S
C374 C376 1.285 . S
C374 H394 0.929 . S
C375 C372 1.461 . S
C375 C374 1.474 . S
C376 C371 1.342 . S
C376 C374 1.285 . S
C376 H395 0.930 . S
C377 C380 1.424 . S
C377 C382 1.245 . S
C377 C383 1.428 . S
C378 C381 1.260 . S
C378 C382 1.477 . S
C378 H396 0.932 . S
C379 C380 1.384 . S
C379 C381 1.479 . S
C379 H397 0.929 . S
C380 C377 1.424 . S
C380 C379 1.384 . S
C380 H398 0.928 . S
C381 C378 1.260 . S
C381 C379 1.479 . S
C382 C377 1.245 . S
C382 C378 1.477 . S
C382 H399 0.932 . S
C383 U366 2.882 . S
C383 C377 1.428 . S
C383 O386 1.301 . S
C383 O387 1.282 . S
O384 U366 2.441 . S
O384 C370 1.249 . S
O385 U366 2.420 . S
O385 C370 1.202 . S
O386 U366 2.455 . S
O386 C383 1.301 . S
O387 U366 2.449 . S
O387 C383 1.282 . S
H388 C361 0.931 . S
H389 C363 0.929 . S
H390 C364 0.930 . S
H391 C365 0.931 . S
H392 C372 0.932 . S
H393 C373 0.930 . S
H394 C374 0.929 . S
H395 C376 0.930 . S
H396 C378 0.932 . S
H397 C379 0.929 . S
H398 C380 0.928 . S
H399 C382 0.932 . S
C400 C401 1.264 . S
C400 C405 1.479 . S
C400 C410 1.465 . S
C401 C400 1.264 . S
C401 C403 1.339 . S
C401 H428 0.931 . S
C402 C403 1.395 . S
C402 C404 1.320 . S
C403 C401 1.339 . S
C403 C402 1.395 . S
C403 H429 0.929 . S
C404 C402 1.320 . S
C404 C405 1.405 . S
C404 H430 0.930 . S
C405 C400 1.479 . S
C405 C404 1.405 . S
C405 H431 0.931 . S
U406 O407 2.454 . S
U406 O408 2.458 . S
U406 C409 2.984 . S
U406 C410 2.847 . S
U406 C423 2.882 . S
U406 O424 2.441 . S
U406 O425 2.420 . S
U406 O426 2.455 . S
U406 O427 2.449 . S
O407 U406 2.454 . S
O407 C409 1.353 . S
O408 U406 2.458 . S
O408 C409 1.286 . S
C409 U406 2.984 . S
C409 O407 1.353 . S
C409 O408 1.286 . S
C409 C411 1.363 . S
C410 C400 1.465 . S
C410 U406 2.847 . S
C410 O424 1.249 . S
C410 O425 1.202 . S
C411 C409 1.363 . S
C411 C413 1.408 . S
C411 C416 1.342 . S
C412 C413 1.310 . S
C412 C415 1.461 . S
C412 H432 0.932 . S
C413 C411 1.408 . S
C413 C412 1.310 . S
C413 H433 0.930 . S
C414 C415 1.474 . S
C414 C416 1.285 . S
C414 H434 0.929 . S
C415 C412 1.461 . S
C415 C414 1.474 . S
C416 C411 1.342 . S
C416 C414 1.285 . S
C416 H435 0.930 . S
C417 C420 1.424 . S
C417 C422 1.245 . S
C417 C423 1.428 . S
C418 C421 1.260 . S
C418 C422 1.477 . S
C418 H436 0.932 . S
C419 C420 1.384 . S
C419 C421 1.479 . S
C419 H437 0.929 . S
C420 C417 1.424 . S
C420 C419 1.384 . S
C420 H438 0.928 . S
C421 C418 1.260 . S
C421 C419 1.479 . S
C422 C417 1.245 . S
C422 C418 1.477 . S
C422 H439 0.932 . S
C423 U406 2.882 . S
C423 C417 1.428 . S
C423 O426 1.301 . S
C423 O427 1.282 . S
O424 U406 2.441 . S
O424 C410 1.249 . S
O425 U406 2.420 . S
O425 C410 1.202 . S
O426 U406 2.455 . S
O426 C423 1.301 . S
O427 U406 2.449 . S
O427 C423 1.282 . S
H428 C401 0.931 . S
H429 C403 0.929 . S
H430 C404 0.930 . S
H431 C405 0.931 . S
H432 C412 0.932 . S
H433 C413 0.930 . S
H434 C414 0.929 . S
H435 C416 0.930 . S
H436 C418 0.932 . S
H437 C419 0.929 . S
H438 C420 0.928 . S
H439 C422 0.932 . S
C440 C441 1.264 . S
C440 C445 1.479 . S
C440 C450 1.465 . S
C441 C440 1.264 . S
C441 C443 1.339 . S
C441 H468 0.931 . S
C442 C443 1.395 . S
C442 C444 1.320 . S
C443 C441 1.339 . S
C443 C442 1.395 . S
C443 H469 0.929 . S
C444 C442 1.320 . S
C444 C445 1.405 . S
C444 H470 0.930 . S
C445 C440 1.479 . S
C445 C444 1.405 . S
C445 H471 0.931 . S
U446 O447 2.454 . S
U446 O448 2.458 . S
U446 C449 2.984 . S
U446 C450 2.847 . S
U446 C463 2.882 . S
U446 O464 2.441 . S
U446 O465 2.420 . S
U446 O466 2.455 . S
U446 O467 2.449 . S
O447 U446 2.454 . S
O447 C449 1.353 . S
O448 U446 2.458 . S
O448 C449 1.286 . S
C449 U446 2.984 . S
C449 O447 1.353 . S
C449 O448 1.286 . S
C449 C451 1.363 . S
C450 C440 1.465 . S
C450 U446 2.847 . S
C450 O464 1.249 . S
C450 O465 1.202 . S
C451 C449 1.363 . S
C451 C453 1.408 . S
C451 C456 1.342 . S
C452 C453 1.310 . S
C452 C455 1.461 . S
C452 H472 0.932 . S
C453 C451 1.408 . S
C453 C452 1.310 . S
C453 H473 0.930 . S
C454 C455 1.474 . S
C454 C456 1.285 . S
C454 H474 0.929 . S
C455 C452 1.461 . S
C455 C454 1.474 . S
C456 C451 1.342 . S
C456 C454 1.285 . S
C456 H475 0.930 . S
C457 C460 1.424 . S
C457 C462 1.245 . S
C457 C463 1.428 . S
C458 C461 1.260 . S
C458 C462 1.477 . S
C458 H476 0.932 . S
C459 C460 1.384 . S
C459 C461 1.479 . S
C459 H477 0.929 . S
C460 C457 1.424 . S
C460 C459 1.384 . S
C460 H478 0.928 . S
C461 C458 1.260 . S
C461 C459 1.479 . S
C462 C457 1.245 . S
C462 C458 1.477 . S
C462 H479 0.932 . S
C463 U446 2.882 . S
C463 C457 1.428 . S
C463 O466 1.301 . S
C463 O467 1.282 . S
O464 U446 2.441 . S
O464 C450 1.249 . S
O465 U446 2.420 . S
O465 C450 1.202 . S
O466 U446 2.455 . S
O466 C463 1.301 . S
O467 U446 2.449 . S
O467 C463 1.282 . S
H468 C441 0.931 . S
H469 C443 0.929 . S
H470 C444 0.930 . S
H471 C445 0.931 . S
H472 C452 0.932 . S
H473 C453 0.930 . S
H474 C454 0.929 . S
H475 C456 0.930 . S
H476 C458 0.932 . S
H477 C459 0.929 . S
H478 C460 0.928 . S
H479 C462 0.932 . S
C480 C481 1.264 . S
C480 C485 1.479 . S
C480 C490 1.465 . S
C481 C480 1.264 . S
C481 C483 1.339 . S
C481 H508 0.931 . S
C482 C483 1.395 . S
C482 C484 1.320 . S
C483 C481 1.339 . S
C483 C482 1.395 . S
C483 H509 0.929 . S
C484 C482 1.320 . S
C484 C485 1.405 . S
C484 H510 0.930 . S
C485 C480 1.479 . S
C485 C484 1.405 . S
C485 H511 0.931 . S
U486 O487 2.454 . S
U486 O488 2.458 . S
U486 C489 2.984 . S
U486 C490 2.847 . S
U486 C503 2.882 . S
U486 O504 2.441 . S
U486 O505 2.420 . S
U486 O506 2.455 . S
U486 O507 2.449 . S
O487 U486 2.454 . S
O487 C489 1.353 . S
O488 U486 2.458 . S
O488 C489 1.286 . S
C489 U486 2.984 . S
C489 O487 1.353 . S
C489 O488 1.286 . S
C489 C491 1.363 . S
C490 C480 1.465 . S
C490 U486 2.847 . S
C490 O504 1.249 . S
C490 O505 1.202 . S
C491 C489 1.363 . S
C491 C493 1.408 . S
C491 C496 1.342 . S
C492 C493 1.310 . S
C492 C495 1.461 . S
C492 H512 0.932 . S
C493 C491 1.408 . S
C493 C492 1.310 . S
C493 H513 0.930 . S
C494 C495 1.474 . S
C494 C496 1.285 . S
C494 H514 0.929 . S
C495 C492 1.461 . S
C495 C494 1.474 . S
C496 C491 1.342 . S
C496 C494 1.285 . S
C496 H515 0.930 . S
C497 C500 1.424 . S
C497 C502 1.245 . S
C497 C503 1.428 . S
C498 C501 1.260 . S
C498 C502 1.477 . S
C498 H516 0.932 . S
C499 C500 1.384 . S
C499 C501 1.479 . S
C499 H517 0.929 . S
C500 C497 1.424 . S
C500 C499 1.384 . S
C500 H518 0.928 . S
C501 C498 1.260 . S
C501 C499 1.479 . S
C502 C497 1.245 . S
C502 C498 1.477 . S
C502 H519 0.932 . S
C503 U486 2.882 . S
C503 C497 1.428 . S
C503 O506 1.301 . S
C503 O507 1.282 . S
O504 U486 2.441 . S
O504 C490 1.249 . S
O505 U486 2.420 . S
O505 C490 1.202 . S
O506 U486 2.455 . S
O506 C503 1.301 . S
O507 U486 2.449 . S
O507 C503 1.282 . S
H508 C481 0.931 . S
H509 C483 0.929 . S
H510 C484 0.930 . S
H511 C485 0.931 . S
H512 C492 0.932 . S
H513 C493 0.930 . S
H514 C494 0.929 . S
H515 C496 0.930 . S
H516 C498 0.932 . S
H517 C499 0.929 . S
H518 C500 0.928 . S
H519 C502 0.932 . S
C520 C521 1.264 . S
C520 C525 1.479 . S
C520 C530 1.465 . S
C521 C520 1.264 . S
C521 C523 1.339 . S
C521 H548 0.931 . S
C522 C523 1.395 . S
C522 C524 1.320 . S
C523 C521 1.339 . S
C523 C522 1.395 . S
C523 H549 0.929 . S
C524 C522 1.320 . S
C524 C525 1.405 . S
C524 H550 0.930 . S
C525 C520 1.479 . S
C525 C524 1.405 . S
C525 H551 0.931 . S
U526 O527 2.454 . S
U526 O528 2.458 . S
U526 C529 2.984 . S
U526 C530 2.847 . S
U526 C543 2.882 . S
U526 O544 2.441 . S
U526 O545 2.420 . S
U526 O546 2.455 . S
U526 O547 2.449 . S
O527 U526 2.454 . S
O527 C529 1.353 . S
O528 U526 2.458 . S
O528 C529 1.286 . S
C529 U526 2.984 . S
C529 O527 1.353 . S
C529 O528 1.286 . S
C529 C531 1.363 . S
C530 C520 1.465 . S
C530 U526 2.847 . S
C530 O544 1.249 . S
C530 O545 1.202 . S
C531 C529 1.363 . S
C531 C533 1.408 . S
C531 C536 1.342 . S
C532 C533 1.310 . S
C532 C535 1.461 . S
C532 H552 0.932 . S
C533 C531 1.408 . S
C533 C532 1.310 . S
C533 H553 0.930 . S
C534 C535 1.474 . S
C534 C536 1.285 . S
C534 H554 0.929 . S
C535 C532 1.461 . S
C535 C534 1.474 . S
C536 C531 1.342 . S
C536 C534 1.285 . S
C536 H555 0.930 . S
C537 C540 1.424 . S
C537 C542 1.245 . S
C537 C543 1.428 . S
C538 C541 1.260 . S
C538 C542 1.477 . S
C538 H556 0.932 . S
C539 C540 1.384 . S
C539 C541 1.479 . S
C539 H557 0.929 . S
C540 C537 1.424 . S
C540 C539 1.384 . S
C540 H558 0.928 . S
C541 C538 1.260 . S
C541 C539 1.479 . S
C542 C537 1.245 . S
C542 C538 1.477 . S
C542 H559 0.932 . S
C543 U526 2.882 . S
C543 C537 1.428 . S
C543 O546 1.301 . S
C543 O547 1.282 . S
O544 U526 2.441 . S
O544 C530 1.249 . S
O545 U526 2.420 . S
O545 C530 1.202 . S
O546 U526 2.455 . S
O546 C543 1.301 . S
O547 U526 2.449 . S
O547 C543 1.282 . S
H548 C521 0.931 . S
H549 C523 0.929 . S
H550 C524 0.930 . S
H551 C525 0.931 . S
H552 C532 0.932 . S
H553 C533 0.930 . S
H554 C534 0.929 . S
H555 C536 0.930 . S
H556 C538 0.932 . S
H557 C539 0.929 . S
H558 C540 0.928 . S
H559 C542 0.932 . S
C560 C561 1.264 . S
C560 C565 1.479 . S
C560 C570 1.465 . S
C561 C560 1.264 . S
C561 C563 1.339 . S
C561 H588 0.931 . S
C562 C563 1.395 . S
C562 C564 1.320 . S
C563 C561 1.339 . S
C563 C562 1.395 . S
C563 H589 0.929 . S
C564 C562 1.320 . S
C564 C565 1.405 . S
C564 H590 0.930 . S
C565 C560 1.479 . S
C565 C564 1.405 . S
C565 H591 0.931 . S
U566 O567 2.454 . S
U566 O568 2.458 . S
U566 C569 2.984 . S
U566 C570 2.847 . S
U566 C583 2.882 . S
U566 O584 2.441 . S
U566 O585 2.420 . S
U566 O586 2.455 . S
U566 O587 2.449 . S
O567 U566 2.454 . S
O567 C569 1.353 . S
O568 U566 2.458 . S
O568 C569 1.286 . S
C569 U566 2.984 . S
C569 O567 1.353 . S
C569 O568 1.286 . S
C569 C571 1.363 . S
C570 C560 1.465 . S
C570 U566 2.847 . S
C570 O584 1.249 . S
C570 O585 1.202 . S
C571 C569 1.363 . S
C571 C573 1.408 . S
C571 C576 1.342 . S
C572 C573 1.310 . S
C572 C575 1.461 . S
C572 H592 0.932 . S
C573 C571 1.408 . S
C573 C572 1.310 . S
C573 H593 0.930 . S
C574 C575 1.474 . S
C574 C576 1.285 . S
C574 H594 0.929 . S
C575 C572 1.461 . S
C575 C574 1.474 . S
C576 C571 1.342 . S
C576 C574 1.285 . S
C576 H595 0.930 . S
C577 C580 1.424 . S
C577 C582 1.245 . S
C577 C583 1.428 . S
C578 C581 1.260 . S
C578 C582 1.477 . S
C578 H596 0.932 . S
C579 C580 1.384 . S
C579 C581 1.479 . S
C579 H597 0.929 . S
C580 C577 1.424 . S
C580 C579 1.384 . S
C580 H598 0.928 . S
C581 C578 1.260 . S
C581 C579 1.479 . S
C582 C577 1.245 . S
C582 C578 1.477 . S
C582 H599 0.932 . S
C583 U566 2.882 . S
C583 C577 1.428 . S
C583 O586 1.301 . S
C583 O587 1.282 . S
O584 U566 2.441 . S
O584 C570 1.249 . S
O585 U566 2.420 . S
O585 C570 1.202 . S
O586 U566 2.455 . S
O586 C583 1.301 . S
O587 U566 2.449 . S
O587 C583 1.282 . S
H588 C561 0.931 . S
H589 C563 0.929 . S
H590 C564 0.930 . S
H591 C565 0.931 . S
H592 C572 0.932 . S
H593 C573 0.930 . S
H594 C574 0.929 . S
H595 C576 0.930 . S
H596 C578 0.932 . S
H597 C579 0.929 . S
H598 C580 0.928 . S
H599 C582 0.932 . S
C600 C601 1.264 . S
C600 C605 1.479 . S
C600 C610 1.465 . S
C601 C600 1.264 . S
C601 C603 1.339 . S
C601 H628 0.931 . S
C602 C603 1.395 . S
C602 C604 1.320 . S
C603 C601 1.339 . S
C603 C602 1.395 . S
C603 H629 0.929 . S
C604 C602 1.320 . S
C604 C605 1.405 . S
C604 H630 0.930 . S
C605 C600 1.479 . S
C605 C604 1.405 . S
C605 H631 0.931 . S
U606 O607 2.454 . S
U606 O608 2.458 . S
U606 C609 2.984 . S
U606 C610 2.847 . S
U606 C623 2.882 . S
U606 O624 2.441 . S
U606 O625 2.420 . S
U606 O626 2.455 . S
U606 O627 2.449 . S
O607 U606 2.454 . S
O607 C609 1.353 . S
O608 U606 2.458 . S
O608 C609 1.286 . S
C609 U606 2.984 . S
C609 O607 1.353 . S
C609 O608 1.286 . S
C609 C611 1.363 . S
C610 C600 1.465 . S
C610 U606 2.847 . S
C610 O624 1.249 . S
C610 O625 1.202 . S
C611 C609 1.363 . S
C611 C613 1.408 . S
C611 C616 1.342 . S
C612 C613 1.310 . S
C612 C615 1.461 . S
C612 H632 0.932 . S
C613 C611 1.408 . S
C613 C612 1.310 . S
C613 H633 0.930 . S
C614 C615 1.474 . S
C614 C616 1.285 . S
C614 H634 0.929 . S
C615 C612 1.461 . S
C615 C614 1.474 . S
C616 C611 1.342 . S
C616 C614 1.285 . S
C616 H635 0.930 . S
C617 C620 1.424 . S
C617 C622 1.245 . S
C617 C623 1.428 . S
C618 C621 1.260 . S
C618 C622 1.477 . S
C618 H636 0.932 . S
C619 C620 1.384 . S
C619 C621 1.479 . S
C619 H637 0.929 . S
C620 C617 1.424 . S
C620 C619 1.384 . S
C620 H638 0.928 . S
C621 C618 1.260 . S
C621 C619 1.479 . S
C622 C617 1.245 . S
C622 C618 1.477 . S
C622 H639 0.932 . S
C623 U606 2.882 . S
C623 C617 1.428 . S
C623 O626 1.301 . S
C623 O627 1.282 . S
O624 U606 2.441 . S
O624 C610 1.249 . S
O625 U606 2.420 . S
O625 C610 1.202 . S
O626 U606 2.455 . S
O626 C623 1.301 . S
O627 U606 2.449 . S
O627 C623 1.282 . S
H628 C601 0.931 . S
H629 C603 0.929 . S
H630 C604 0.930 . S
H631 C605 0.931 . S
H632 C612 0.932 . S
H633 C613 0.930 . S
H634 C614 0.929 . S
H635 C616 0.930 . S
H636 C618 0.932 . S
H637 C619 0.929 . S
H638 C620 0.928 . S
H639 C622 0.932 . S
C640 C641 1.264 . S
C640 C645 1.479 . S
C640 C650 1.465 . S
C641 C640 1.264 . S
C641 C643 1.339 . S
C641 H668 0.931 . S
C642 C643 1.395 . S
C642 C644 1.320 . S
C643 C641 1.339 . S
C643 C642 1.395 . S
C643 H669 0.929 . S
C644 C642 1.320 . S
C644 C645 1.405 . S
C644 H670 0.930 . S
C645 C640 1.479 . S
C645 C644 1.405 . S
C645 H671 0.931 . S
U646 O647 2.454 . S
U646 O648 2.458 . S
U646 C649 2.984 . S
U646 C650 2.847 . S
U646 C663 2.882 . S
U646 O664 2.441 . S
U646 O665 2.420 . S
U646 O666 2.455 . S
U646 O667 2.449 . S
O647 U646 2.454 . S
O647 C649 1.353 . S
O648 U646 2.458 . S
O648 C649 1.286 . S
C649 U646 2.984 . S
C649 O647 1.353 . S
C649 O648 1.286 . S
C649 C651 1.363 . S
C650 C640 1.465 . S
C650 U646 2.847 . S
C650 O664 1.249 . S
C650 O665 1.202 . S
C651 C649 1.363 . S
C651 C653 1.408 . S
C651 C656 1.342 . S
C652 C653 1.310 . S
C652 C655 1.461 . S
C652 H672 0.932 . S
C653 C651 1.408 . S
C653 C652 1.310 . S
C653 H673 0.930 . S
C654 C655 1.474 . S
C654 C656 1.285 . S
C654 H674 0.929 . S
C655 C652 1.461 . S
C655 C654 1.474 . S
C656 C651 1.342 . S
C656 C654 1.285 . S
C656 H675 0.930 . S
C657 C660 1.424 . S
C657 C662 1.245 . S
C657 C663 1.428 . S
C658 C661 1.260 . S
C658 C662 1.477 . S
C658 H676 0.932 . S
C659 C660 1.384 . S
C659 C661 1.479 . S
C659 H677 0.929 . S
C660 C657 1.424 . S
C660 C659 1.384 . S
C660 H678 0.928 . S
C661 C658 1.260 . S
C661 C659 1.479 . S
C662 C657 1.245 . S
C662 C658 1.477 . S
C662 H679 0.932 . S
C663 U646 2.882 . S
C663 C657 1.428 . S
C663 O666 1.301 . S
C663 O667 1.282 . S
O664 U646 2.441 . S
O664 C650 1.249 . S
O665 U646 2.420 . S
O665 C650 1.202 . S
O666 U646 2.455 . S
O666 C663 1.301 . S
O667 U646 2.449 . S
O667 C663 1.282 . S
H668 C641 0.931 . S
H669 C643 0.929 . S
H670 C644 0.930 . S
H671 C645 0.931 . S
H672 C652 0.932 . S
H673 C653 0.930 . S
H674 C654 0.929 . S
H675 C656 0.930 . S
H676 C658 0.932 . S
H677 C659 0.929 . S
H678 C660 0.928 . S
H679 C662 0.932 . S
C680 C681 1.264 . S
C680 C685 1.479 . S
C680 C690 1.465 . S
C681 C680 1.264 . S
C681 C683 1.339 . S
C681 H708 0.931 . S
C682 C683 1.395 . S
C682 C684 1.320 . S
C683 C681 1.339 . S
C683 C682 1.395 . S
C683 H709 0.929 . S
C684 C682 1.320 . S
C684 C685 1.405 . S
C684 H710 0.930 . S
C685 C680 1.479 . S
C685 C684 1.405 . S
C685 H711 0.931 . S
U686 O687 2.454 . S
U686 O688 2.458 . S
U686 C689 2.984 . S
U686 C690 2.847 . S
U686 C703 2.882 . S
U686 O704 2.441 . S
U686 O705 2.420 . S
U686 O706 2.455 . S
U686 O707 2.449 . S
O687 U686 2.454 . S
O687 C689 1.353 . S
O688 U686 2.458 . S
O688 C689 1.286 . S
C689 U686 2.984 . S
C689 O687 1.353 . S
C689 O688 1.286 . S
C689 C691 1.363 . S
C690 C680 1.465 . S
C690 U686 2.847 . S
C690 O704 1.249 . S
C690 O705 1.202 . S
C691 C689 1.363 . S
C691 C693 1.408 . S
C691 C696 1.342 . S
C692 C693 1.310 . S
C692 C695 1.461 . S
C692 H712 0.932 . S
C693 C691 1.408 . S
C693 C692 1.310 . S
C693 H713 0.930 . S
C694 C695 1.474 . S
C694 C696 1.285 . S
C694 H714 0.929 . S
C695 C692 1.461 . S
C695 C694 1.474 . S
C696 C691 1.342 . S
C696 C694 1.285 . S
C696 H715 0.930 . S
C697 C700 1.424 . S
C697 C702 1.245 . S
C697 C703 1.428 . S
C698 C701 1.260 . S
C698 C702 1.477 . S
C698 H716 0.932 . S
C699 C700 1.384 . S
C699 C701 1.479 . S
C699 H717 0.929 . S
C700 C697 1.424 . S
C700 C699 1.384 . S
C700 H718 0.928 . S
C701 C698 1.260 . S
C701 C699 1.479 . S
C702 C697 1.245 . S
C702 C698 1.477 . S
C702 H719 0.932 . S
C703 U686 2.882 . S
C703 C697 1.428 . S
C703 O706 1.301 . S
C703 O707 1.282 . S
O704 U686 2.441 . S
O704 C690 1.249 . S
O705 U686 2.420 . S
O705 C690 1.202 . S
O706 U686 2.455 . S
O706 C703 1.301 . S
O707 U686 2.449 . S
O707 C703 1.282 . S
H708 C681 0.931 . S
H709 C683 0.929 . S
H710 C684 0.930 . S
H711 C685 0.931 . S
H712 C692 0.932 . S
H713 C693 0.930 . S
H714 C694 0.929 . S
H715 C696 0.930 . S
H716 C698 0.932 . S
H717 C699 0.929 . S
H718 C700 0.928 . S
H719 C702 0.932 . S
Eu720 N751 2.657 . S
Eu720 N758 2.609 . S
Eu720 O764 2.558 . S
Eu720 O765 2.640 1_565 S
Eu720 O767 2.339 1_565 S
Eu720 O768 2.563 1_565 S
Eu720 O769 2.419 . S
Eu720 O771 2.380 1_556 S
Eu720 O772 2.432 . S
Eu720 C784 2.848 . S
C721 C724 1.429 . S
C721 C725 1.411 . S
C721 N728 1.377 . S
C722 C724 1.420 . S
C722 C726 1.423 . S
C722 C734 1.392 . S
C723 C725 1.420 . S
C723 C726 1.351 . S
C723 H746 0.931 . S
C724 C721 1.429 . S
C724 C722 1.420 . S
C724 N732 1.362 . S
C725 C721 1.411 . S
C725 C723 1.420 . S
C725 C730 1.395 . S
C726 C722 1.423 . S
C726 C723 1.351 . S
C726 H738 0.930 . S
C727 C729 1.400 . S
C727 C730 1.386 . S
C727 H739 0.930 . S
N728 C721 1.377 . S
N728 C729 1.321 . S
N728 Eu731 2.609 . S
C729 C727 1.400 . S
C729 N728 1.321 . S
C729 H736 0.930 . S
C730 C725 1.395 . S
C730 C727 1.386 . S
C730 H749 0.930 . S
Eu731 N728 2.609 . S
Eu731 N732 2.657 . S
Eu731 O765 2.335 1_554 S
Eu731 O766 2.432 . S
Eu731 O770 2.558 . S
Eu731 O771 2.612 1_545 S
Eu731 O773 2.339 1_545 S
Eu731 O774 2.563 1_545 S
Eu731 O775 2.419 . S
Eu731 C795 2.848 . S
N732 C724 1.362 . S
N732 Eu731 2.657 . S
N732 C733 1.334 . S
C733 N732 1.334 . S
C733 C735 1.413 . S
C733 H740 0.929 . S
C734 C722 1.392 . S
C734 C735 1.367 . S
C734 H742 0.930 . S
C735 C733 1.413 . S
C735 C734 1.367 . S
C735 H737 0.930 . S
H736 C729 0.930 . S
H737 C735 0.930 . S
H738 C726 0.930 . S
H739 C727 0.930 . S
H740 C733 0.929 . S
H741 C755 0.930 . S
H742 C734 0.930 . S
H743 C761 0.930 . S
H744 C752 0.929 . S
H745 C759 0.930 . S
H746 C723 0.931 . S
H747 C753 0.930 . S
H748 C786 0.930 . S
H749 C730 0.930 . S
H750 C785 0.931 . S
N751 Eu720 2.657 . S
N751 C752 1.334 . S
N751 C756 1.362 . S
C752 H744 0.929 . S
C752 N751 1.334 . S
C752 C755 1.413 . S
C753 H747 0.930 . S
C753 C754 1.392 . S
C753 C755 1.367 . S
C754 C753 1.392 . S
C754 C756 1.420 . S
C754 C786 1.423 . S
C755 H741 0.930 . S
C755 C752 1.413 . S
C755 C753 1.367 . S
C756 N751 1.362 . S
C756 C754 1.420 . S
C756 C760 1.429 . S
H757 C762 0.930 . S
N758 Eu720 2.609 . S
N758 C760 1.377 . S
N758 C761 1.321 . S
C759 H745 0.930 . S
C759 C761 1.400 . S
C759 C762 1.386 . S
C760 C756 1.429 . S
C760 N758 1.377 . S
C760 C763 1.411 . S
C761 H743 0.930 . S
C761 N758 1.321 . S
C761 C759 1.400 . S
C762 H757 0.930 . S
C762 C759 1.386 . S
C762 C763 1.395 . S
C763 C760 1.411 . S
C763 C762 1.395 . S
C763 C785 1.420 . S
O764 Eu720 2.558 . S
O764 C784 1.257 . S
O765 Eu720 2.640 1_545 S
O765 Eu731 2.335 1_556 S
O765 C776 1.313 . S
O766 Eu731 2.432 . S
O766 C783 1.264 1_554 S
O767 Eu720 2.339 1_545 S
O767 C783 1.254 . S
O768 Eu720 2.563 1_545 S
O768 C776 1.235 . S
O769 Eu720 2.419 . S
O769 C784 1.249 . S
O770 Eu731 2.558 . S
O770 C795 1.257 . S
O771 Eu720 2.380 1_554 S
O771 Eu731 2.612 1_565 S
O771 C787 1.276 . S
O772 Eu720 2.432 . S
O772 C794 1.264 1_556 S
O773 Eu731 2.339 1_565 S
O773 C794 1.254 . S
O774 Eu731 2.563 1_565 S
O774 C787 1.235 . S
O775 Eu731 2.419 . S
O775 C795 1.249 . S
C776 O765 1.313 . S
C776 O768 1.235 . S
C777 C779 1.393 1_565 S
C777 C781 1.395 . S
C777 C784 1.492 . S
C778 C779 1.392 . S
C778 C780 1.386 1_545 S
C779 C777 1.393 1_545 S
C779 C778 1.392 . S
C779 H796 0.930 . S
C780 C778 1.386 1_565 S
C780 C782 1.395 . S
C780 H797 0.930 . S
C781 C777 1.395 . S
C781 C782 1.379 . S
C781 H798 0.930 . S
C782 C780 1.395 . S
C782 C781 1.379 . S
C782 H799 0.930 . S
C783 O766 1.264 1_556 S
C783 O767 1.254 . S
C784 Eu720 2.848 . S
C784 O764 1.257 . S
C784 O769 1.249 . S
C784 C777 1.492 . S
C785 H750 0.931 . S
C785 C763 1.420 . S
C785 C786 1.351 . S
C786 H748 0.930 . S
C786 C754 1.423 . S
C786 C785 1.351 . S
C787 O771 1.276 . S
C787 O774 1.235 . S
C788 C789 1.393 1_545 S
C788 C792 1.395 . S
C788 C795 1.492 . S
C789 C788 1.393 1_565 S
C789 C790 1.392 . S
C789 H800 0.930 . S
C790 C789 1.392 . S
C790 C791 1.386 1_565 S
C791 C790 1.386 1_545 S
C791 C793 1.395 . S
C791 H801 0.930 . S
C792 C788 1.395 . S
C792 C793 1.379 . S
C792 H802 0.930 . S
C793 C791 1.395 . S
C793 C792 1.379 . S
C793 H803 0.930 . S
C794 O772 1.264 1_554 S
C794 O773 1.254 . S
C795 Eu731 2.848 . S
C795 O770 1.257 . S
C795 O775 1.249 . S
C795 C788 1.492 . S
H796 C779 0.930 . S
H797 C780 0.930 . S
H798 C781 0.930 . S
H799 C782 0.930 . S
H800 C789 0.930 . S
H801 C791 0.930 . S
H802 C792 0.930 . S
H803 C793 0.930 . S
Eu804 N835 2.657 . S
Eu804 N842 2.609 . S
Eu804 O848 2.558 . S
Eu804 O849 2.649 1_455 S
Eu804 O851 2.339 1_455 S
Eu804 O852 2.563 1_455 S
Eu804 O853 2.419 . S
Eu804 O855 2.380 1_556 S
Eu804 O856 2.432 . S
Eu804 C868 2.848 . S
C805 C808 1.429 . S
C805 C809 1.411 . S
C805 N812 1.377 . S
C806 C808 1.420 . S
C806 C810 1.423 . S
C806 C818 1.392 . S
C807 C809 1.420 . S
C807 C810 1.351 . S
C807 H830 0.931 . S
C808 C805 1.429 . S
C808 C806 1.420 . S
C808 N816 1.362 . S
C809 C805 1.411 . S
C809 C807 1.420 . S
C809 C814 1.395 . S
C810 C806 1.423 . S
C810 C807 1.351 . S
C810 H822 0.930 . S
C811 C813 1.400 . S
C811 C814 1.386 . S
C811 H823 0.930 . S
N812 C805 1.377 . S
N812 C813 1.321 . S
N812 Eu815 2.609 . S
C813 C811 1.400 . S
C813 N812 1.321 . S
C813 H820 0.930 . S
C814 C809 1.395 . S
C814 C811 1.386 . S
C814 H833 0.930 . S
Eu815 N812 2.609 . S
Eu815 N816 2.657 . S
Eu815 O849 2.319 1_554 S
Eu815 O850 2.432 . S
Eu815 O854 2.558 . S
Eu815 O855 2.612 1_655 S
Eu815 O857 2.339 1_655 S
Eu815 O858 2.563 1_655 S
Eu815 O859 2.419 . S
Eu815 C879 2.848 . S
N816 C808 1.362 . S
N816 Eu815 2.657 . S
N816 C817 1.334 . S
C817 N816 1.334 . S
C817 C819 1.413 . S
C817 H824 0.929 . S
C818 C806 1.392 . S
C818 C819 1.367 . S
C818 H826 0.930 . S
C819 C817 1.413 . S
C819 C818 1.367 . S
C819 H821 0.930 . S
H820 C813 0.930 . S
H821 C819 0.930 . S
H822 C810 0.930 . S
H823 C811 0.930 . S
H824 C817 0.929 . S
H825 C839 0.930 . S
H826 C818 0.930 . S
H827 C845 0.930 . S
H828 C836 0.929 . S
H829 C843 0.930 . S
H830 C807 0.931 . S
H831 C837 0.930 . S
H832 C870 0.930 . S
H833 C814 0.930 . S
H834 C869 0.931 . S
N835 Eu804 2.657 . S
N835 C836 1.334 . S
N835 C840 1.362 . S
C836 H828 0.929 . S
C836 N835 1.334 . S
C836 C839 1.413 . S
C837 H831 0.930 . S
C837 C838 1.392 . S
C837 C839 1.367 . S
C838 C837 1.392 . S
C838 C840 1.420 . S
C838 C870 1.423 . S
C839 H825 0.930 . S
C839 C836 1.413 . S
C839 C837 1.367 . S
C840 N835 1.362 . S
C840 C838 1.420 . S
C840 C844 1.429 . S
H841 C846 0.930 . S
N842 Eu804 2.609 . S
N842 C844 1.377 . S
N842 C845 1.321 . S
C843 H829 0.930 . S
C843 C845 1.400 . S
C843 C846 1.386 . S
C844 C840 1.429 . S
C844 N842 1.377 . S
C844 C847 1.411 . S
C845 H827 0.930 . S
C845 N842 1.321 . S
C845 C843 1.400 . S
C846 H841 0.930 . S
C846 C843 1.386 . S
C846 C847 1.395 . S
C847 C844 1.411 . S
C847 C846 1.395 . S
C847 C869 1.420 . S
O848 Eu804 2.558 . S
O848 C868 1.257 . S
O849 Eu804 2.649 1_655 S
O849 Eu815 2.319 1_556 S
O849 C860 1.327 . S
O850 Eu815 2.432 . S
O850 C867 1.264 1_554 S
O851 Eu804 2.339 1_655 S
O851 C867 1.254 . S
O852 Eu804 2.563 1_655 S
O852 C860 1.235 . S
O853 Eu804 2.419 . S
O853 C868 1.249 . S
O854 Eu815 2.558 . S
O854 C879 1.257 . S
O855 Eu804 2.380 1_554 S
O855 Eu815 2.612 1_455 S
O855 C871 1.276 . S
O856 Eu804 2.432 . S
O856 C878 1.264 1_556 S
O857 Eu815 2.339 1_455 S
O857 C878 1.254 . S
O858 Eu815 2.563 1_455 S
O858 C871 1.235 . S
O859 Eu815 2.419 . S
O859 C879 1.249 . S
C860 O849 1.327 . S
C860 O852 1.235 . S
C861 C863 1.393 1_455 S
C861 C865 1.395 . S
C861 C868 1.492 . S
C862 C863 1.392 . S
C862 C864 1.386 1_655 S
C863 C861 1.393 1_655 S
C863 C862 1.392 . S
C863 H880 0.930 . S
C864 C862 1.386 1_455 S
C864 C866 1.395 . S
C864 H881 0.930 . S
C865 C861 1.395 . S
C865 C866 1.379 . S
C865 H882 0.930 . S
C866 C864 1.395 . S
C866 C865 1.379 . S
C866 H883 0.930 . S
C867 O850 1.264 1_556 S
C867 O851 1.254 . S
C868 Eu804 2.848 . S
C868 O848 1.257 . S
C868 O853 1.249 . S
C868 C861 1.492 . S
C869 H834 0.931 . S
C869 C847 1.420 . S
C869 C870 1.351 . S
C870 H832 0.930 . S
C870 C838 1.423 . S
C870 C869 1.351 . S
C871 O855 1.276 . S
C871 O858 1.235 . S
C872 C873 1.393 1_655 S
C872 C876 1.395 . S
C872 C879 1.492 . S
C873 C872 1.393 1_455 S
C873 C874 1.392 . S
C873 H884 0.930 . S
C874 C873 1.392 . S
C874 C875 1.386 1_455 S
C875 C874 1.386 1_655 S
C875 C877 1.395 . S
C875 H885 0.930 . S
C876 C872 1.395 . S
C876 C877 1.379 . S
C876 H886 0.930 . S
C877 C875 1.395 . S
C877 C876 1.379 . S
C877 H887 0.930 . S
C878 O856 1.264 1_554 S
C878 O857 1.254 . S
C879 Eu815 2.848 . S
C879 O854 1.257 . S
C879 O859 1.249 . S
C879 C872 1.492 . S
H880 C863 0.930 . S
H881 C864 0.930 . S
H882 C865 0.930 . S
H883 C866 0.930 . S
H884 C873 0.930 . S
H885 C875 0.930 . S
H886 C876 0.930 . S
H887 C877 0.930 . S
Eu888 N919 2.657 . S
Eu888 N926 2.609 . S
Eu888 O932 2.558 . S
Eu888 O933 2.612 . S
Eu888 O935 2.339 . S
Eu888 O936 2.563 . S
Eu888 O937 2.419 . S
Eu888 O939 2.380 1_554 S
Eu888 O940 2.432 . S
Eu888 C952 2.848 . S
C889 C892 1.429 . S
C889 C893 1.411 . S
C889 N896 1.377 . S
C890 C892 1.420 . S
C890 C894 1.423 . S
C890 C902 1.392 . S
C891 C893 1.420 . S
C891 C894 1.351 . S
C891 H914 0.931 . S
C892 C889 1.429 . S
C892 C890 1.420 . S
C892 N900 1.362 . S
C893 C889 1.411 . S
C893 C891 1.420 . S
C893 C898 1.395 . S
C894 C890 1.423 . S
C894 C891 1.351 . S
C894 H906 0.930 . S
C895 C897 1.400 . S
C895 C898 1.386 . S
C895 H907 0.930 . S
N896 C889 1.377 . S
N896 C897 1.321 . S
N896 Eu899 2.609 . S
C897 C895 1.400 . S
C897 N896 1.321 . S
C897 H904 0.930 . S
C898 C893 1.395 . S
C898 C895 1.386 . S
C898 H917 0.930 . S
Eu899 N896 2.609 . S
Eu899 N900 2.657 . S
Eu899 O933 2.380 1_556 S
Eu899 O934 2.432 . S
Eu899 O938 2.558 . S
Eu899 O939 2.612 . S
Eu899 O941 2.339 . S
Eu899 O942 2.563 . S
Eu899 O943 2.419 . S
Eu899 C963 2.848 . S
N900 C892 1.362 . S
N900 Eu899 2.657 . S
N900 C901 1.334 . S
C901 N900 1.334 . S
C901 C903 1.413 . S
C901 H908 0.929 . S
C902 C890 1.392 . S
C902 C903 1.367 . S
C902 H910 0.930 . S
C903 C901 1.413 . S
C903 C902 1.367 . S
C903 H905 0.930 . S
H904 C897 0.930 . S
H905 C903 0.930 . S
H906 C894 0.930 . S
H907 C895 0.930 . S
H908 C901 0.929 . S
H909 C923 0.930 . S
H910 C902 0.930 . S
H911 C929 0.930 . S
H912 C920 0.929 . S
H913 C927 0.930 . S
H914 C891 0.931 . S
H915 C921 0.930 . S
H916 C954 0.930 . S
H917 C898 0.930 . S
H918 C953 0.931 . S
N919 Eu888 2.657 . S
N919 C920 1.334 . S
N919 C924 1.362 . S
C920 H912 0.929 . S
C920 N919 1.334 . S
C920 C923 1.413 . S
C921 H915 0.930 . S
C921 C922 1.392 . S
C921 C923 1.367 . S
C922 C921 1.392 . S
C922 C924 1.420 . S
C922 C954 1.423 . S
C923 H909 0.930 . S
C923 C920 1.413 . S
C923 C921 1.367 . S
C924 N919 1.362 . S
C924 C922 1.420 . S
C924 C928 1.429 . S
H925 C930 0.930 . S
N926 Eu888 2.609 . S
N926 C928 1.377 . S
N926 C929 1.321 . S
C927 H913 0.930 . S
C927 C929 1.400 . S
C927 C930 1.386 . S
C928 C924 1.429 . S
C928 N926 1.377 . S
C928 C931 1.411 . S
C929 H911 0.930 . S
C929 N926 1.321 . S
C929 C927 1.400 . S
C930 H925 0.930 . S
C930 C927 1.386 . S
C930 C931 1.395 . S
C931 C928 1.411 . S
C931 C930 1.395 . S
C931 C953 1.420 . S
O932 Eu888 2.558 . S
O932 C952 1.257 . S
O933 Eu888 2.612 . S
O933 Eu899 2.380 1_554 S
O933 C944 1.276 . S
O934 Eu899 2.432 . S
O934 C951 1.264 1_556 S
O935 Eu888 2.339 . S
O935 C951 1.254 . S
O936 Eu888 2.563 . S
O936 C944 1.235 . S
O937 Eu888 2.419 . S
O937 C952 1.249 . S
O938 Eu899 2.558 . S
O938 C963 1.257 . S
O939 Eu888 2.380 1_556 S
O939 Eu899 2.612 . S
O939 C955 1.276 . S
O940 Eu888 2.432 . S
O940 C962 1.264 1_554 S
O941 Eu899 2.339 . S
O941 C962 1.254 . S
O942 Eu899 2.563 . S
O942 C955 1.235 . S
O943 Eu899 2.419 . S
O943 C963 1.249 . S
C944 O933 1.276 . S
C944 O936 1.235 . S
C945 C947 1.393 . S
C945 C949 1.395 . S
C945 C952 1.492 . S
C946 C947 1.392 . S
C946 C948 1.386 . S
C947 C945 1.393 . S
C947 C946 1.392 . S
C947 H964 0.930 . S
C948 C946 1.386 . S
C948 C950 1.395 . S
C948 H965 0.930 . S
C949 C945 1.395 . S
C949 C950 1.379 . S
C949 H966 0.930 . S
C950 C948 1.395 . S
C950 C949 1.379 . S
C950 H967 0.930 . S
C951 O934 1.264 1_554 S
C951 O935 1.254 . S
C952 Eu888 2.848 . S
C952 O932 1.257 . S
C952 O937 1.249 . S
C952 C945 1.492 . S
C953 H918 0.931 . S
C953 C931 1.420 . S
C953 C954 1.351 . S
C954 H916 0.930 . S
C954 C922 1.423 . S
C954 C953 1.351 . S
C955 O939 1.276 . S
C955 O942 1.235 . S
C956 C957 1.393 . S
C956 C960 1.395 . S
C956 C963 1.492 . S
C957 C956 1.393 . S
C957 C958 1.392 . S
C957 H968 0.930 . S
C958 C957 1.392 . S
C958 C959 1.386 . S
C959 C958 1.386 . S
C959 C961 1.395 . S
C959 H969 0.930 . S
C960 C956 1.395 . S
C960 C961 1.379 . S
C960 H970 0.930 . S
C961 C959 1.395 . S
C961 C960 1.379 . S
C961 H971 0.930 . S
C962 O940 1.264 1_556 S
C962 O941 1.254 . S
C963 Eu899 2.848 . S
C963 O938 1.257 . S
C963 O943 1.249 . S
C963 C956 1.492 . S
H964 C947 0.930 . S
H965 C948 0.930 . S
H966 C949 0.930 . S
H967 C950 0.930 . S
H968 C957 0.930 . S
H969 C959 0.930 . S
H970 C960 0.930 . S
H971 C961 0.930 . S
Eu972 N1003 2.657 . S
Eu972 N1010 2.609 . S
Eu972 O1016 2.558 . S
Eu972 O1017 2.612 . S
Eu972 O1019 2.339 . S
Eu972 O1020 2.563 . S
Eu972 O1021 2.419 . S
Eu972 O1023 2.380 . S
Eu972 O1024 2.432 . S
Eu972 C1036 2.848 . S
C973 C976 1.429 . S
C973 C977 1.411 . S
C973 N980 1.377 . S
C974 C976 1.420 . S
C974 C978 1.423 . S
C974 C986 1.392 . S
C975 C977 1.420 . S
C975 C978 1.351 . S
C975 H998 0.931 . S
C976 C973 1.429 . S
C976 C974 1.420 . S
C976 N984 1.362 . S
C977 C973 1.411 . S
C977 C975 1.420 . S
C977 C982 1.395 . S
C978 C974 1.423 . S
C978 C975 1.351 . S
C978 H990 0.930 . S
C979 C981 1.400 . S
C979 C982 1.386 . S
C979 H991 0.930 . S
N980 C973 1.377 . S
N980 C981 1.321 . S
N980 Eu983 2.609 . S
C981 C979 1.400 . S
C981 N980 1.321 . S
C981 H988 0.930 . S
C982 C977 1.395 . S
C982 C979 1.386 . S
C982 H1001 0.930 . S
Eu983 N980 2.609 . S
Eu983 N984 2.657 . S
Eu983 O1017 2.380 . S
Eu983 O1018 2.432 . S
Eu983 O1022 2.558 . S
Eu983 O1023 2.612 . S
Eu983 O1025 2.339 . S
Eu983 O1026 2.563 . S
Eu983 O1027 2.419 . S
Eu983 C1047 2.848 . S
N984 C976 1.362 . S
N984 Eu983 2.657 . S
N984 C985 1.334 . S
C985 N984 1.334 . S
C985 C987 1.413 . S
C985 H992 0.929 . S
C986 C974 1.392 . S
C986 C987 1.367 . S
C986 H994 0.930 . S
C987 C985 1.413 . S
C987 C986 1.367 . S
C987 H989 0.930 . S
H988 C981 0.930 . S
H989 C987 0.930 . S
H990 C978 0.930 . S
H991 C979 0.930 . S
H992 C985 0.929 . S
H993 C1007 0.930 . S
H994 C986 0.930 . S
H995 C1013 0.930 . S
H996 C1004 0.929 . S
H997 C1011 0.930 . S
H998 C975 0.931 . S
H999 C1005 0.930 . S
H1000 C1038 0.930 . S
H1001 C982 0.930 . S
H1002 C1037 0.931 . S
N1003 Eu972 2.657 . S
N1003 C1004 1.334 . S
N1003 C1008 1.362 . S
C1004 H996 0.929 . S
C1004 N1003 1.334 . S
C1004 C1007 1.413 . S
C1005 H999 0.930 . S
C1005 C1006 1.392 . S
C1005 C1007 1.367 . S
C1006 C1005 1.392 . S
C1006 C1008 1.420 . S
C1006 C1038 1.423 . S
C1007 H993 0.930 . S
C1007 C1004 1.413 . S
C1007 C1005 1.367 . S
C1008 N1003 1.362 . S
C1008 C1006 1.420 . S
C1008 C1012 1.429 . S
H1009 C1014 0.930 . S
N1010 Eu972 2.609 . S
N1010 C1012 1.377 . S
N1010 C1013 1.321 . S
C1011 H997 0.930 . S
C1011 C1013 1.400 . S
C1011 C1014 1.386 . S
C1012 C1008 1.429 . S
C1012 N1010 1.377 . S
C1012 C1015 1.411 . S
C1013 H995 0.930 . S
C1013 N1010 1.321 . S
C1013 C1011 1.400 . S
C1014 H1009 0.930 . S
C1014 C1011 1.386 . S
C1014 C1015 1.395 . S
C1015 C1012 1.411 . S
C1015 C1014 1.395 . S
C1015 C1037 1.420 . S
O1016 Eu972 2.558 . S
O1016 C1036 1.257 . S
O1017 Eu972 2.612 . S
O1017 Eu983 2.380 . S
O1017 C1028 1.276 . S
O1018 Eu983 2.432 . S
O1018 C1035 1.264 . S
O1019 Eu972 2.339 . S
O1019 C1035 1.254 . S
O1020 Eu972 2.563 . S
O1020 C1028 1.235 . S
O1021 Eu972 2.419 . S
O1021 C1036 1.249 . S
O1022 Eu983 2.558 . S
O1022 C1047 1.257 . S
O1023 Eu972 2.380 . S
O1023 Eu983 2.612 . S
O1023 C1039 1.276 . S
O1024 Eu972 2.432 . S
O1024 C1046 1.264 . S
O1025 Eu983 2.339 . S
O1025 C1046 1.254 . S
O1026 Eu983 2.563 . S
O1026 C1039 1.235 . S
O1027 Eu983 2.419 . S
O1027 C1047 1.249 . S
C1028 O1017 1.276 . S
C1028 O1020 1.235 . S
C1029 C1031 1.393 . S
C1029 C1033 1.395 . S
C1029 C1036 1.492 . S
C1030 C1031 1.392 . S
C1030 C1032 1.386 . S
C1031 C1029 1.393 . S
C1031 C1030 1.392 . S
C1031 H1048 0.930 . S
C1032 C1030 1.386 . S
C1032 C1034 1.395 . S
C1032 H1049 0.930 . S
C1033 C1029 1.395 . S
C1033 C1034 1.379 . S
C1033 H1050 0.930 . S
C1034 C1032 1.395 . S
C1034 C1033 1.379 . S
C1034 H1051 0.930 . S
C1035 O1018 1.264 . S
C1035 O1019 1.254 . S
C1036 Eu972 2.848 . S
C1036 O1016 1.257 . S
C1036 O1021 1.249 . S
C1036 C1029 1.492 . S
C1037 H1002 0.931 . S
C1037 C1015 1.420 . S
C1037 C1038 1.351 . S
C1038 H1000 0.930 . S
C1038 C1006 1.423 . S
C1038 C1037 1.351 . S
C1039 O1023 1.276 . S
C1039 O1026 1.235 . S
C1040 C1041 1.393 . S
C1040 C1044 1.395 . S
C1040 C1047 1.492 . S
C1041 C1040 1.393 . S
C1041 C1042 1.392 . S
C1041 H1052 0.930 . S
C1042 C1041 1.392 . S
C1042 C1043 1.386 . S
C1043 C1042 1.386 . S
C1043 C1045 1.395 . S
C1043 H1053 0.930 . S
C1044 C1040 1.395 . S
C1044 C1045 1.379 . S
C1044 H1054 0.930 . S
C1045 C1043 1.395 . S
C1045 C1044 1.379 . S
C1045 H1055 0.930 . S
C1046 O1024 1.264 . S
C1046 O1025 1.254 . S
C1047 Eu983 2.848 . S
C1047 O1022 1.257 . S
C1047 O1027 1.249 . S
C1047 C1040 1.492 . S
H1048 C1031 0.930 . S
H1049 C1032 0.930 . S
H1050 C1033 0.930 . S
H1051 C1034 0.930 . S
H1052 C1041 0.930 . S
H1053 C1043 0.930 . S
H1054 C1044 0.930 . S
H1055 C1045 0.930 . S
Eu1056 N1087 2.657 . S
Eu1056 N1094 2.609 . S
Eu1056 O1100 2.558 . S
Eu1056 O1101 2.612 . S
Eu1056 O1103 2.339 . S
Eu1056 O1104 2.563 . S
Eu1056 O1105 2.419 . S
Eu1056 O1107 2.380 . S
Eu1056 O1108 2.432 . S
Eu1056 C1120 2.848 . S
C1057 C1060 1.429 . S
C1057 C1061 1.411 . S
C1057 N1064 1.377 . S
C1058 C1060 1.420 . S
C1058 C1062 1.423 . S
C1058 C1070 1.392 . S
C1059 C1061 1.420 . S
C1059 C1062 1.351 . S
C1059 H1082 0.931 . S
C1060 C1057 1.429 . S
C1060 C1058 1.420 . S
C1060 N1068 1.362 . S
C1061 C1057 1.411 . S
C1061 C1059 1.420 . S
C1061 C1066 1.395 . S
C1062 C1058 1.423 . S
C1062 C1059 1.351 . S
C1062 H1074 0.930 . S
C1063 C1065 1.400 . S
C1063 C1066 1.386 . S
C1063 H1075 0.930 . S
N1064 C1057 1.377 . S
N1064 C1065 1.321 . S
N1064 Eu1067 2.609 . S
C1065 C1063 1.400 . S
C1065 N1064 1.321 . S
C1065 H1072 0.930 . S
C1066 C1061 1.395 . S
C1066 C1063 1.386 . S
C1066 H1085 0.930 . S
Eu1067 N1064 2.609 . S
Eu1067 N1068 2.657 . S
Eu1067 O1101 2.380 . S
Eu1067 O1102 2.432 . S
Eu1067 O1106 2.558 . S
Eu1067 O1107 2.612 . S
Eu1067 O1109 2.339 . S
Eu1067 O1110 2.563 . S
Eu1067 O1111 2.419 . S
Eu1067 C1131 2.848 . S
N1068 C1060 1.362 . S
N1068 Eu1067 2.657 . S
N1068 C1069 1.334 . S
C1069 N1068 1.334 . S
C1069 C1071 1.413 . S
C1069 H1076 0.929 . S
C1070 C1058 1.392 . S
C1070 C1071 1.367 . S
C1070 H1078 0.930 . S
C1071 C1069 1.413 . S
C1071 C1070 1.367 . S
C1071 H1073 0.930 . S
H1072 C1065 0.930 . S
H1073 C1071 0.930 . S
H1074 C1062 0.930 . S
H1075 C1063 0.930 . S
H1076 C1069 0.929 . S
H1077 C1091 0.930 . S
H1078 C1070 0.930 . S
H1079 C1097 0.930 . S
H1080 C1088 0.929 . S
H1081 C1095 0.930 . S
H1082 C1059 0.931 . S
H1083 C1089 0.930 . S
H1084 C1122 0.930 . S
H1085 C1066 0.930 . S
H1086 C1121 0.931 . S
N1087 Eu1056 2.657 . S
N1087 C1088 1.334 . S
N1087 C1092 1.362 . S
C1088 H1080 0.929 . S
C1088 N1087 1.334 . S
C1088 C1091 1.413 . S
C1089 H1083 0.930 . S
C1089 C1090 1.392 . S
C1089 C1091 1.367 . S
C1090 C1089 1.392 . S
C1090 C1092 1.420 . S
C1090 C1122 1.423 . S
C1091 H1077 0.930 . S
C1091 C1088 1.413 . S
C1091 C1089 1.367 . S
C1092 N1087 1.362 . S
C1092 C1090 1.420 . S
C1092 C1096 1.429 . S
H1093 C1098 0.930 . S
N1094 Eu1056 2.609 . S
N1094 C1096 1.377 . S
N1094 C1097 1.321 . S
C1095 H1081 0.930 . S
C1095 C1097 1.400 . S
C1095 C1098 1.386 . S
C1096 C1092 1.429 . S
C1096 N1094 1.377 . S
C1096 C1099 1.411 . S
C1097 H1079 0.930 . S
C1097 N1094 1.321 . S
C1097 C1095 1.400 . S
C1098 H1093 0.930 . S
C1098 C1095 1.386 . S
C1098 C1099 1.395 . S
C1099 C1096 1.411 . S
C1099 C1098 1.395 . S
C1099 C1121 1.420 . S
O1100 Eu1056 2.558 . S
O1100 C1120 1.257 . S
O1101 Eu1056 2.612 . S
O1101 Eu1067 2.380 . S
O1101 C1112 1.276 . S
O1102 Eu1067 2.432 . S
O1102 C1119 1.264 . S
O1103 Eu1056 2.339 . S
O1103 C1119 1.254 . S
O1104 Eu1056 2.563 . S
O1104 C1112 1.235 . S
O1105 Eu1056 2.419 . S
O1105 C1120 1.249 . S
O1106 Eu1067 2.558 . S
O1106 C1131 1.257 . S
O1107 Eu1056 2.380 . S
O1107 Eu1067 2.612 . S
O1107 C1123 1.276 . S
O1108 Eu1056 2.432 . S
O1108 C1130 1.264 . S
O1109 Eu1067 2.339 . S
O1109 C1130 1.254 . S
O1110 Eu1067 2.563 . S
O1110 C1123 1.235 . S
O1111 Eu1067 2.419 . S
O1111 C1131 1.249 . S
C1112 O1101 1.276 . S
C1112 O1104 1.235 . S
C1113 C1115 1.393 . S
C1113 C1117 1.395 . S
C1113 C1120 1.492 . S
C1114 C1115 1.392 . S
C1114 C1116 1.386 . S
C1115 C1113 1.393 . S
C1115 C1114 1.392 . S
C1115 H1132 0.930 . S
C1116 C1114 1.386 . S
C1116 C1118 1.395 . S
C1116 H1133 0.930 . S
C1117 C1113 1.395 . S
C1117 C1118 1.379 . S
C1117 H1134 0.930 . S
C1118 C1116 1.395 . S
C1118 C1117 1.379 . S
C1118 H1135 0.930 . S
C1119 O1102 1.264 . S
C1119 O1103 1.254 . S
C1120 Eu1056 2.848 . S
C1120 O1100 1.257 . S
C1120 O1105 1.249 . S
C1120 C1113 1.492 . S
C1121 H1086 0.931 . S
C1121 C1099 1.420 . S
C1121 C1122 1.351 . S
C1122 H1084 0.930 . S
C1122 C1090 1.423 . S
C1122 C1121 1.351 . S
C1123 O1107 1.276 . S
C1123 O1110 1.235 . S
C1124 C1125 1.393 . S
C1124 C1128 1.395 . S
C1124 C1131 1.492 . S
C1125 C1124 1.393 . S
C1125 C1126 1.392 . S
C1125 H1136 0.930 . S
C1126 C1125 1.392 . S
C1126 C1127 1.386 . S
C1127 C1126 1.386 . S
C1127 C1129 1.395 . S
C1127 H1137 0.930 . S
C1128 C1124 1.395 . S
C1128 C1129 1.379 . S
C1128 H1138 0.930 . S
C1129 C1127 1.395 . S
C1129 C1128 1.379 . S
C1129 H1139 0.930 . S
C1130 O1108 1.264 . S
C1130 O1109 1.254 . S
C1131 Eu1067 2.848 . S
C1131 O1106 1.257 . S
C1131 O1111 1.249 . S
C1131 C1124 1.492 . S
H1132 C1115 0.930 . S
H1133 C1116 0.930 . S
H1134 C1117 0.930 . S
H1135 C1118 0.930 . S
H1136 C1125 0.930 . S
H1137 C1127 0.930 . S
H1138 C1128 0.930 . S
H1139 C1129 0.930 . S
Eu1140 N1171 2.657 . S
Eu1140 N1178 2.609 . S
Eu1140 O1184 2.558 . S
Eu1140 O1185 2.612 . S
Eu1140 O1187 2.339 . S
Eu1140 O1188 2.563 . S
Eu1140 O1189 2.419 . S
Eu1140 O1191 2.380 . S
Eu1140 O1192 2.432 . S
Eu1140 C1204 2.848 . S
C1141 C1144 1.429 . S
C1141 C1145 1.411 . S
C1141 N1148 1.377 . S
C1142 C1144 1.420 . S
C1142 C1146 1.423 . S
C1142 C1154 1.392 . S
C1143 C1145 1.420 . S
C1143 C1146 1.351 . S
C1143 H1166 0.931 . S
C1144 C1141 1.429 . S
C1144 C1142 1.420 . S
C1144 N1152 1.362 . S
C1145 C1141 1.411 . S
C1145 C1143 1.420 . S
C1145 C1150 1.395 . S
C1146 C1142 1.423 . S
C1146 C1143 1.351 . S
C1146 H1158 0.930 . S
C1147 C1149 1.400 . S
C1147 C1150 1.386 . S
C1147 H1159 0.930 . S
N1148 C1141 1.377 . S
N1148 C1149 1.321 . S
N1148 Eu1151 2.609 . S
C1149 C1147 1.400 . S
C1149 N1148 1.321 . S
C1149 H1156 0.930 . S
C1150 C1145 1.395 . S
C1150 C1147 1.386 . S
C1150 H1169 0.930 . S
Eu1151 N1148 2.609 . S
Eu1151 N1152 2.657 . S
Eu1151 O1185 2.380 . S
Eu1151 O1186 2.432 . S
Eu1151 O1190 2.558 . S
Eu1151 O1191 2.612 . S
Eu1151 O1193 2.339 . S
Eu1151 O1194 2.563 . S
Eu1151 O1195 2.419 . S
Eu1151 C1215 2.848 . S
N1152 C1144 1.362 . S
N1152 Eu1151 2.657 . S
N1152 C1153 1.334 . S
C1153 N1152 1.334 . S
C1153 C1155 1.413 . S
C1153 H1160 0.929 . S
C1154 C1142 1.392 . S
C1154 C1155 1.367 . S
C1154 H1162 0.930 . S
C1155 C1153 1.413 . S
C1155 C1154 1.367 . S
C1155 H1157 0.930 . S
H1156 C1149 0.930 . S
H1157 C1155 0.930 . S
H1158 C1146 0.930 . S
H1159 C1147 0.930 . S
H1160 C1153 0.929 . S
H1161 C1175 0.930 . S
H1162 C1154 0.930 . S
H1163 C1181 0.930 . S
H1164 C1172 0.929 . S
H1165 C1179 0.930 . S
H1166 C1143 0.931 . S
H1167 C1173 0.930 . S
H1168 C1206 0.930 . S
H1169 C1150 0.930 . S
H1170 C1205 0.931 . S
N1171 Eu1140 2.657 . S
N1171 C1172 1.334 . S
N1171 C1176 1.362 . S
C1172 H1164 0.929 . S
C1172 N1171 1.334 . S
C1172 C1175 1.413 . S
C1173 H1167 0.930 . S
C1173 C1174 1.392 . S
C1173 C1175 1.367 . S
C1174 C1173 1.392 . S
C1174 C1176 1.420 . S
C1174 C1206 1.423 . S
C1175 H1161 0.930 . S
C1175 C1172 1.413 . S
C1175 C1173 1.367 . S
C1176 N1171 1.362 . S
C1176 C1174 1.420 . S
C1176 C1180 1.429 . S
H1177 C1182 0.930 . S
N1178 Eu1140 2.609 . S
N1178 C1180 1.377 . S
N1178 C1181 1.321 . S
C1179 H1165 0.930 . S
C1179 C1181 1.400 . S
C1179 C1182 1.386 . S
C1180 C1176 1.429 . S
C1180 N1178 1.377 . S
C1180 C1183 1.411 . S
C1181 H1163 0.930 . S
C1181 N1178 1.321 . S
C1181 C1179 1.400 . S
C1182 H1177 0.930 . S
C1182 C1179 1.386 . S
C1182 C1183 1.395 . S
C1183 C1180 1.411 . S
C1183 C1182 1.395 . S
C1183 C1205 1.420 . S
O1184 Eu1140 2.558 . S
O1184 C1204 1.257 . S
O1185 Eu1140 2.612 . S
O1185 Eu1151 2.380 . S
O1185 C1196 1.276 . S
O1186 Eu1151 2.432 . S
O1186 C1203 1.264 . S
O1187 Eu1140 2.339 . S
O1187 C1203 1.254 . S
O1188 Eu1140 2.563 . S
O1188 C1196 1.235 . S
O1189 Eu1140 2.419 . S
O1189 C1204 1.249 . S
O1190 Eu1151 2.558 . S
O1190 C1215 1.257 . S
O1191 Eu1140 2.380 . S
O1191 Eu1151 2.612 . S
O1191 C1207 1.276 . S
O1192 Eu1140 2.432 . S
O1192 C1214 1.264 . S
O1193 Eu1151 2.339 . S
O1193 C1214 1.254 . S
O1194 Eu1151 2.563 . S
O1194 C1207 1.235 . S
O1195 Eu1151 2.419 . S
O1195 C1215 1.249 . S
C1196 O1185 1.276 . S
C1196 O1188 1.235 . S
C1197 C1199 1.393 . S
C1197 C1201 1.395 . S
C1197 C1204 1.492 . S
C1198 C1199 1.392 . S
C1198 C1200 1.386 . S
C1199 C1197 1.393 . S
C1199 C1198 1.392 . S
C1199 H1216 0.930 . S
C1200 C1198 1.386 . S
C1200 C1202 1.395 . S
C1200 H1217 0.930 . S
C1201 C1197 1.395 . S
C1201 C1202 1.379 . S
C1201 H1218 0.930 . S
C1202 C1200 1.395 . S
C1202 C1201 1.379 . S
C1202 H1219 0.930 . S
C1203 O1186 1.264 . S
C1203 O1187 1.254 . S
C1204 Eu1140 2.848 . S
C1204 O1184 1.257 . S
C1204 O1189 1.249 . S
C1204 C1197 1.492 . S
C1205 H1170 0.931 . S
C1205 C1183 1.420 . S
C1205 C1206 1.351 . S
C1206 H1168 0.930 . S
C1206 C1174 1.423 . S
C1206 C1205 1.351 . S
C1207 O1191 1.276 . S
C1207 O1194 1.235 . S
C1208 C1209 1.393 . S
C1208 C1212 1.395 . S
C1208 C1215 1.492 . S
C1209 C1208 1.393 . S
C1209 C1210 1.392 . S
C1209 H1220 0.930 . S
C1210 C1209 1.392 . S
C1210 C1211 1.386 . S
C1211 C1210 1.386 . S
C1211 C1213 1.395 . S
C1211 H1221 0.930 . S
C1212 C1208 1.395 . S
C1212 C1213 1.379 . S
C1212 H1222 0.930 . S
C1213 C1211 1.395 . S
C1213 C1212 1.379 . S
C1213 H1223 0.930 . S
C1214 O1192 1.264 . S
C1214 O1193 1.254 . S
C1215 Eu1151 2.848 . S
C1215 O1190 1.257 . S
C1215 O1195 1.249 . S
C1215 C1208 1.492 . S
H1216 C1199 0.930 . S
H1217 C1200 0.930 . S
H1218 C1201 0.930 . S
H1219 C1202 0.930 . S
H1220 C1209 0.930 . S
H1221 C1211 0.930 . S
H1222 C1212 0.930 . S
H1223 C1213 0.930 . S
Eu1224 N1255 2.657 . S
Eu1224 N1262 2.609 . S
Eu1224 O1268 2.558 . S
Eu1224 O1269 2.612 . S
Eu1224 O1271 2.339 . S
Eu1224 O1272 2.563 . S
Eu1224 O1273 2.419 . S
Eu1224 O1275 2.380 . S
Eu1224 O1276 2.432 . S
Eu1224 C1288 2.848 . S
C1225 C1228 1.429 . S
C1225 C1229 1.411 . S
C1225 N1232 1.377 . S
C1226 C1228 1.420 . S
C1226 C1230 1.423 . S
C1226 C1238 1.392 . S
C1227 C1229 1.420 . S
C1227 C1230 1.351 . S
C1227 H1250 0.931 . S
C1228 C1225 1.429 . S
C1228 C1226 1.420 . S
C1228 N1236 1.362 . S
C1229 C1225 1.411 . S
C1229 C1227 1.420 . S
C1229 C1234 1.395 . S
C1230 C1226 1.423 . S
C1230 C1227 1.351 . S
C1230 H1242 0.930 . S
C1231 C1233 1.400 . S
C1231 C1234 1.386 . S
C1231 H1243 0.930 . S
N1232 C1225 1.377 . S
N1232 C1233 1.321 . S
N1232 Eu1235 2.609 . S
C1233 C1231 1.400 . S
C1233 N1232 1.321 . S
C1233 H1240 0.930 . S
C1234 C1229 1.395 . S
C1234 C1231 1.386 . S
C1234 H1253 0.930 . S
Eu1235 N1232 2.609 . S
Eu1235 N1236 2.657 . S
Eu1235 O1269 2.380 . S
Eu1235 O1270 2.432 . S
Eu1235 O1274 2.558 . S
Eu1235 O1275 2.612 . S
Eu1235 O1277 2.339 . S
Eu1235 O1278 2.563 . S
Eu1235 O1279 2.419 . S
Eu1235 C1299 2.848 . S
N1236 C1228 1.362 . S
N1236 Eu1235 2.657 . S
N1236 C1237 1.334 . S
C1237 N1236 1.334 . S
C1237 C1239 1.413 . S
C1237 H1244 0.929 . S
C1238 C1226 1.392 . S
C1238 C1239 1.367 . S
C1238 H1246 0.930 . S
C1239 C1237 1.413 . S
C1239 C1238 1.367 . S
C1239 H1241 0.930 . S
H1240 C1233 0.930 . S
H1241 C1239 0.930 . S
H1242 C1230 0.930 . S
H1243 C1231 0.930 . S
H1244 C1237 0.929 . S
H1245 C1259 0.930 . S
H1246 C1238 0.930 . S
H1247 C1265 0.930 . S
H1248 C1256 0.929 . S
H1249 C1263 0.930 . S
H1250 C1227 0.931 . S
H1251 C1257 0.930 . S
H1252 C1290 0.930 . S
H1253 C1234 0.930 . S
H1254 C1289 0.931 . S
N1255 Eu1224 2.657 . S
N1255 C1256 1.334 . S
N1255 C1260 1.362 . S
C1256 H1248 0.929 . S
C1256 N1255 1.334 . S
C1256 C1259 1.413 . S
C1257 H1251 0.930 . S
C1257 C1258 1.392 . S
C1257 C1259 1.367 . S
C1258 C1257 1.392 . S
C1258 C1260 1.420 . S
C1258 C1290 1.423 . S
C1259 H1245 0.930 . S
C1259 C1256 1.413 . S
C1259 C1257 1.367 . S
C1260 N1255 1.362 . S
C1260 C1258 1.420 . S
C1260 C1264 1.429 . S
H1261 C1266 0.930 . S
N1262 Eu1224 2.609 . S
N1262 C1264 1.377 . S
N1262 C1265 1.321 . S
C1263 H1249 0.930 . S
C1263 C1265 1.400 . S
C1263 C1266 1.386 . S
C1264 C1260 1.429 . S
C1264 N1262 1.377 . S
C1264 C1267 1.411 . S
C1265 H1247 0.930 . S
C1265 N1262 1.321 . S
C1265 C1263 1.400 . S
C1266 H1261 0.930 . S
C1266 C1263 1.386 . S
C1266 C1267 1.395 . S
C1267 C1264 1.411 . S
C1267 C1266 1.395 . S
C1267 C1289 1.420 . S
O1268 Eu1224 2.558 . S
O1268 C1288 1.257 . S
O1269 Eu1224 2.612 . S
O1269 Eu1235 2.380 . S
O1269 C1280 1.276 . S
O1270 Eu1235 2.432 . S
O1270 C1287 1.264 . S
O1271 Eu1224 2.339 . S
O1271 C1287 1.254 . S
O1272 Eu1224 2.563 . S
O1272 C1280 1.235 . S
O1273 Eu1224 2.419 . S
O1273 C1288 1.249 . S
O1274 Eu1235 2.558 . S
O1274 C1299 1.257 . S
O1275 Eu1224 2.380 . S
O1275 Eu1235 2.612 . S
O1275 C1291 1.276 . S
O1276 Eu1224 2.432 . S
O1276 C1298 1.264 . S
O1277 Eu1235 2.339 . S
O1277 C1298 1.254 . S
O1278 Eu1235 2.563 . S
O1278 C1291 1.235 . S
O1279 Eu1235 2.419 . S
O1279 C1299 1.249 . S
C1280 O1269 1.276 . S
C1280 O1272 1.235 . S
C1281 C1283 1.393 . S
C1281 C1285 1.395 . S
C1281 C1288 1.492 . S
C1282 C1283 1.392 . S
C1282 C1284 1.386 . S
C1283 C1281 1.393 . S
C1283 C1282 1.392 . S
C1283 H1300 0.930 . S
C1284 C1282 1.386 . S
C1284 C1286 1.395 . S
C1284 H1301 0.930 . S
C1285 C1281 1.395 . S
C1285 C1286 1.379 . S
C1285 H1302 0.930 . S
C1286 C1284 1.395 . S
C1286 C1285 1.379 . S
C1286 H1303 0.930 . S
C1287 O1270 1.264 . S
C1287 O1271 1.254 . S
C1288 Eu1224 2.848 . S
C1288 O1268 1.257 . S
C1288 O1273 1.249 . S
C1288 C1281 1.492 . S
C1289 H1254 0.931 . S
C1289 C1267 1.420 . S
C1289 C1290 1.351 . S
C1290 H1252 0.930 . S
C1290 C1258 1.423 . S
C1290 C1289 1.351 . S
C1291 O1275 1.276 . S
C1291 O1278 1.235 . S
C1292 C1293 1.393 . S
C1292 C1296 1.395 . S
C1292 C1299 1.492 . S
C1293 C1292 1.393 . S
C1293 C1294 1.392 . S
C1293 H1304 0.930 . S
C1294 C1293 1.392 . S
C1294 C1295 1.386 . S
C1295 C1294 1.386 . S
C1295 C1297 1.395 . S
C1295 H1305 0.930 . S
C1296 C1292 1.395 . S
C1296 C1297 1.379 . S
C1296 H1306 0.930 . S
C1297 C1295 1.395 . S
C1297 C1296 1.379 . S
C1297 H1307 0.930 . S
C1298 O1276 1.264 . S
C1298 O1277 1.254 . S
C1299 Eu1235 2.848 . S
C1299 O1274 1.257 . S
C1299 O1279 1.249 . S
C1299 C1292 1.492 . S
H1300 C1283 0.930 . S
H1301 C1284 0.930 . S
H1302 C1285 0.930 . S
H1303 C1286 0.930 . S
H1304 C1293 0.930 . S
H1305 C1295 0.930 . S
H1306 C1296 0.930 . S
H1307 C1297 0.930 . S
Eu1308 N1339 2.657 . S
Eu1308 N1346 2.609 . S
Eu1308 O1352 2.558 . S
Eu1308 O1353 2.612 . S
Eu1308 O1355 2.339 . S
Eu1308 O1356 2.563 . S
Eu1308 O1357 2.419 . S
Eu1308 O1359 2.380 . S
Eu1308 O1360 2.432 . S
Eu1308 C1372 2.848 . S
C1309 C1312 1.429 . S
C1309 C1313 1.411 . S
C1309 N1316 1.377 . S
C1310 C1312 1.420 . S
C1310 C1314 1.423 . S
C1310 C1322 1.392 . S
C1311 C1313 1.420 . S
C1311 C1314 1.351 . S
C1311 H1334 0.931 . S
C1312 C1309 1.429 . S
C1312 C1310 1.420 . S
C1312 N1320 1.362 . S
C1313 C1309 1.411 . S
C1313 C1311 1.420 . S
C1313 C1318 1.395 . S
C1314 C1310 1.423 . S
C1314 C1311 1.351 . S
C1314 H1326 0.930 . S
C1315 C1317 1.400 . S
C1315 C1318 1.386 . S
C1315 H1327 0.930 . S
N1316 C1309 1.377 . S
N1316 C1317 1.321 . S
N1316 Eu1319 2.609 . S
C1317 C1315 1.400 . S
C1317 N1316 1.321 . S
C1317 H1324 0.930 . S
C1318 C1313 1.395 . S
C1318 C1315 1.386 . S
C1318 H1337 0.930 . S
Eu1319 N1316 2.609 . S
Eu1319 N1320 2.657 . S
Eu1319 O1353 2.380 . S
Eu1319 O1354 2.432 . S
Eu1319 O1358 2.558 . S
Eu1319 O1359 2.612 . S
Eu1319 O1361 2.339 . S
Eu1319 O1362 2.563 . S
Eu1319 O1363 2.419 . S
Eu1319 C1383 2.848 . S
N1320 C1312 1.362 . S
N1320 Eu1319 2.657 . S
N1320 C1321 1.334 . S
C1321 N1320 1.334 . S
C1321 C1323 1.413 . S
C1321 H1328 0.929 . S
C1322 C1310 1.392 . S
C1322 C1323 1.367 . S
C1322 H1330 0.930 . S
C1323 C1321 1.413 . S
C1323 C1322 1.367 . S
C1323 H1325 0.930 . S
H1324 C1317 0.930 . S
H1325 C1323 0.930 . S
H1326 C1314 0.930 . S
H1327 C1315 0.930 . S
H1328 C1321 0.929 . S
H1329 C1343 0.930 . S
H1330 C1322 0.930 . S
H1331 C1349 0.930 . S
H1332 C1340 0.929 . S
H1333 C1347 0.930 . S
H1334 C1311 0.931 . S
H1335 C1341 0.930 . S
H1336 C1374 0.930 . S
H1337 C1318 0.930 . S
H1338 C1373 0.931 . S
N1339 Eu1308 2.657 . S
N1339 C1340 1.334 . S
N1339 C1344 1.362 . S
C1340 H1332 0.929 . S
C1340 N1339 1.334 . S
C1340 C1343 1.413 . S
C1341 H1335 0.930 . S
C1341 C1342 1.392 . S
C1341 C1343 1.367 . S
C1342 C1341 1.392 . S
C1342 C1344 1.420 . S
C1342 C1374 1.423 . S
C1343 H1329 0.930 . S
C1343 C1340 1.413 . S
C1343 C1341 1.367 . S
C1344 N1339 1.362 . S
C1344 C1342 1.420 . S
C1344 C1348 1.429 . S
H1345 C1350 0.930 . S
N1346 Eu1308 2.609 . S
N1346 C1348 1.377 . S
N1346 C1349 1.321 . S
C1347 H1333 0.930 . S
C1347 C1349 1.400 . S
C1347 C1350 1.386 . S
C1348 C1344 1.429 . S
C1348 N1346 1.377 . S
C1348 C1351 1.411 . S
C1349 H1331 0.930 . S
C1349 N1346 1.321 . S
C1349 C1347 1.400 . S
C1350 H1345 0.930 . S
C1350 C1347 1.386 . S
C1350 C1351 1.395 . S
C1351 C1348 1.411 . S
C1351 C1350 1.395 . S
C1351 C1373 1.420 . S
O1352 Eu1308 2.558 . S
O1352 C1372 1.257 . S
O1353 Eu1308 2.612 . S
O1353 Eu1319 2.380 . S
O1353 C1364 1.276 . S
O1354 Eu1319 2.432 . S
O1354 C1371 1.264 . S
O1355 Eu1308 2.339 . S
O1355 C1371 1.254 . S
O1356 Eu1308 2.563 . S
O1356 C1364 1.235 . S
O1357 Eu1308 2.419 . S
O1357 C1372 1.249 . S
O1358 Eu1319 2.558 . S
O1358 C1383 1.257 . S
O1359 Eu1308 2.380 . S
O1359 Eu1319 2.612 . S
O1359 C1375 1.276 . S
O1360 Eu1308 2.432 . S
O1360 C1382 1.264 . S
O1361 Eu1319 2.339 . S
O1361 C1382 1.254 . S
O1362 Eu1319 2.563 . S
O1362 C1375 1.235 . S
O1363 Eu1319 2.419 . S
O1363 C1383 1.249 . S
C1364 O1353 1.276 . S
C1364 O1356 1.235 . S
C1365 C1367 1.393 . S
C1365 C1369 1.395 . S
C1365 C1372 1.492 . S
C1366 C1367 1.392 . S
C1366 C1368 1.386 . S
C1367 C1365 1.393 . S
C1367 C1366 1.392 . S
C1367 H1384 0.930 . S
C1368 C1366 1.386 . S
C1368 C1370 1.395 . S
C1368 H1385 0.930 . S
C1369 C1365 1.395 . S
C1369 C1370 1.379 . S
C1369 H1386 0.930 . S
C1370 C1368 1.395 . S
C1370 C1369 1.379 . S
C1370 H1387 0.930 . S
C1371 O1354 1.264 . S
C1371 O1355 1.254 . S
C1372 Eu1308 2.848 . S
C1372 O1352 1.257 . S
C1372 O1357 1.249 . S
C1372 C1365 1.492 . S
C1373 H1338 0.931 . S
C1373 C1351 1.420 . S
C1373 C1374 1.351 . S
C1374 H1336 0.930 . S
C1374 C1342 1.423 . S
C1374 C1373 1.351 . S
C1375 O1359 1.276 . S
C1375 O1362 1.235 . S
C1376 C1377 1.393 . S
C1376 C1380 1.395 . S
C1376 C1383 1.492 . S
C1377 C1376 1.393 . S
C1377 C1378 1.392 . S
C1377 H1388 0.930 . S
C1378 C1377 1.392 . S
C1378 C1379 1.386 . S
C1379 C1378 1.386 . S
C1379 C1381 1.395 . S
C1379 H1389 0.930 . S
C1380 C1376 1.395 . S
C1380 C1381 1.379 . S
C1380 H1390 0.930 . S
C1381 C1379 1.395 . S
C1381 C1380 1.379 . S
C1381 H1391 0.930 . S
C1382 O1360 1.264 . S
C1382 O1361 1.254 . S
C1383 Eu1319 2.848 . S
C1383 O1358 1.257 . S
C1383 O1363 1.249 . S
C1383 C1376 1.492 . S
H1384 C1367 0.930 . S
H1385 C1368 0.930 . S
H1386 C1369 0.930 . S
H1387 C1370 0.930 . S
H1388 C1377 0.930 . S
H1389 C1379 0.930 . S
H1390 C1380 0.930 . S
H1391 C1381 0.930 . S
Eu1392 N1423 2.657 . S
Eu1392 N1430 2.609 . S
Eu1392 O1436 2.558 . S
Eu1392 O1437 2.612 . S
Eu1392 O1439 2.339 . S
Eu1392 O1440 2.563 . S
Eu1392 O1441 2.419 . S
Eu1392 O1443 2.380 . S
Eu1392 O1444 2.432 . S
Eu1392 C1456 2.848 . S
C1393 C1396 1.429 . S
C1393 C1397 1.411 . S
C1393 N1400 1.377 . S
C1394 C1396 1.420 . S
C1394 C1398 1.423 . S
C1394 C1406 1.392 . S
C1395 C1397 1.420 . S
C1395 C1398 1.351 . S
C1395 H1418 0.931 . S
C1396 C1393 1.429 . S
C1396 C1394 1.420 . S
C1396 N1404 1.362 . S
C1397 C1393 1.411 . S
C1397 C1395 1.420 . S
C1397 C1402 1.395 . S
C1398 C1394 1.423 . S
C1398 C1395 1.351 . S
C1398 H1410 0.930 . S
C1399 C1401 1.400 . S
C1399 C1402 1.386 . S
C1399 H1411 0.930 . S
N1400 C1393 1.377 . S
N1400 C1401 1.321 . S
N1400 Eu1403 2.609 . S
C1401 C1399 1.400 . S
C1401 N1400 1.321 . S
C1401 H1408 0.930 . S
C1402 C1397 1.395 . S
C1402 C1399 1.386 . S
C1402 H1421 0.930 . S
Eu1403 N1400 2.609 . S
Eu1403 N1404 2.657 . S
Eu1403 O1437 2.380 . S
Eu1403 O1438 2.432 . S
Eu1403 O1442 2.558 . S
Eu1403 O1443 2.612 . S
Eu1403 O1445 2.339 . S
Eu1403 O1446 2.563 . S
Eu1403 O1447 2.419 . S
Eu1403 C1467 2.848 . S
N1404 C1396 1.362 . S
N1404 Eu1403 2.657 . S
N1404 C1405 1.334 . S
C1405 N1404 1.334 . S
C1405 C1407 1.413 . S
C1405 H1412 0.929 . S
C1406 C1394 1.392 . S
C1406 C1407 1.367 . S
C1406 H1414 0.930 . S
C1407 C1405 1.413 . S
C1407 C1406 1.367 . S
C1407 H1409 0.930 . S
H1408 C1401 0.930 . S
H1409 C1407 0.930 . S
H1410 C1398 0.930 . S
H1411 C1399 0.930 . S
H1412 C1405 0.929 . S
H1413 C1427 0.930 . S
H1414 C1406 0.930 . S
H1415 C1433 0.930 . S
H1416 C1424 0.929 . S
H1417 C1431 0.930 . S
H1418 C1395 0.931 . S
H1419 C1425 0.930 . S
H1420 C1458 0.930 . S
H1421 C1402 0.930 . S
H1422 C1457 0.931 . S
N1423 Eu1392 2.657 . S
N1423 C1424 1.334 . S
N1423 C1428 1.362 . S
C1424 H1416 0.929 . S
C1424 N1423 1.334 . S
C1424 C1427 1.413 . S
C1425 H1419 0.930 . S
C1425 C1426 1.392 . S
C1425 C1427 1.367 . S
C1426 C1425 1.392 . S
C1426 C1428 1.420 . S
C1426 C1458 1.423 . S
C1427 H1413 0.930 . S
C1427 C1424 1.413 . S
C1427 C1425 1.367 . S
C1428 N1423 1.362 . S
C1428 C1426 1.420 . S
C1428 C1432 1.429 . S
H1429 C1434 0.930 . S
N1430 Eu1392 2.609 . S
N1430 C1432 1.377 . S
N1430 C1433 1.321 . S
C1431 H1417 0.930 . S
C1431 C1433 1.400 . S
C1431 C1434 1.386 . S
C1432 C1428 1.429 . S
C1432 N1430 1.377 . S
C1432 C1435 1.411 . S
C1433 H1415 0.930 . S
C1433 N1430 1.321 . S
C1433 C1431 1.400 . S
C1434 H1429 0.930 . S
C1434 C1431 1.386 . S
C1434 C1435 1.395 . S
C1435 C1432 1.411 . S
C1435 C1434 1.395 . S
C1435 C1457 1.420 . S
O1436 Eu1392 2.558 . S
O1436 C1456 1.257 . S
O1437 Eu1392 2.612 . S
O1437 Eu1403 2.380 . S
O1437 C1448 1.276 . S
O1438 Eu1403 2.432 . S
O1438 C1455 1.264 . S
O1439 Eu1392 2.339 . S
O1439 C1455 1.254 . S
O1440 Eu1392 2.563 . S
O1440 C1448 1.235 . S
O1441 Eu1392 2.419 . S
O1441 C1456 1.249 . S
O1442 Eu1403 2.558 . S
O1442 C1467 1.257 . S
O1443 Eu1392 2.380 . S
O1443 Eu1403 2.612 . S
O1443 C1459 1.276 . S
O1444 Eu1392 2.432 . S
O1444 C1466 1.264 . S
O1445 Eu1403 2.339 . S
O1445 C1466 1.254 . S
O1446 Eu1403 2.563 . S
O1446 C1459 1.235 . S
O1447 Eu1403 2.419 . S
O1447 C1467 1.249 . S
C1448 O1437 1.276 . S
C1448 O1440 1.235 . S
C1449 C1451 1.393 . S
C1449 C1453 1.395 . S
C1449 C1456 1.492 . S
C1450 C1451 1.392 . S
C1450 C1452 1.386 . S
C1451 C1449 1.393 . S
C1451 C1450 1.392 . S
C1451 H1468 0.930 . S
C1452 C1450 1.386 . S
C1452 C1454 1.395 . S
C1452 H1469 0.930 . S
C1453 C1449 1.395 . S
C1453 C1454 1.379 . S
C1453 H1470 0.930 . S
C1454 C1452 1.395 . S
C1454 C1453 1.379 . S
C1454 H1471 0.930 . S
C1455 O1438 1.264 . S
C1455 O1439 1.254 . S
C1456 Eu1392 2.848 . S
C1456 O1436 1.257 . S
C1456 O1441 1.249 . S
C1456 C1449 1.492 . S
C1457 H1422 0.931 . S
C1457 C1435 1.420 . S
C1457 C1458 1.351 . S
C1458 H1420 0.930 . S
C1458 C1426 1.423 . S
C1458 C1457 1.351 . S
C1459 O1443 1.276 . S
C1459 O1446 1.235 . S
C1460 C1461 1.393 . S
C1460 C1464 1.395 . S
C1460 C1467 1.492 . S
C1461 C1460 1.393 . S
C1461 C1462 1.392 . S
C1461 H1472 0.930 . S
C1462 C1461 1.392 . S
C1462 C1463 1.386 . S
C1463 C1462 1.386 . S
C1463 C1465 1.395 . S
C1463 H1473 0.930 . S
C1464 C1460 1.395 . S
C1464 C1465 1.379 . S
C1464 H1474 0.930 . S
C1465 C1463 1.395 . S
C1465 C1464 1.379 . S
C1465 H1475 0.930 . S
C1466 O1444 1.264 . S
C1466 O1445 1.254 . S
C1467 Eu1403 2.848 . S
C1467 O1442 1.257 . S
C1467 O1447 1.249 . S
C1467 C1460 1.492 . S
H1468 C1451 0.930 . S
H1469 C1452 0.930 . S
H1470 C1453 0.930 . S
H1471 C1454 0.930 . S
H1472 C1461 0.930 . S
H1473 C1463 0.930 . S
H1474 C1464 0.930 . S
H1475 C1465 0.930 . S
C1476 C1477 1.387 . S
C1476 H1480 0.950 . S
C1476 C1485 1.390 . S
C1477 C1476 1.387 . S
C1477 C1479 1.387 . S
H1478 C1485 0.950 . S
C1479 C1477 1.387 . S
C1479 C1481 1.390 . S
C1479 H1483 0.950 . S
H1480 C1476 0.950 . S
C1481 C1479 1.390 . S
C1481 C1482 1.387 . S
C1481 H1484 0.950 . S
C1482 C1481 1.387 . S
C1482 C1485 1.387 . S
H1483 C1479 0.950 . S
H1484 C1481 0.950 . S
C1485 C1476 1.390 . S
C1485 H1478 0.950 . S
C1485 C1482 1.387 . S
C1486 C1487 1.387 . S
C1486 H1490 0.950 . S
C1486 C1495 1.390 . S
C1487 C1486 1.387 . S
C1487 C1489 1.387 . S
H1488 C1495 0.950 . S
C1489 C1487 1.387 . S
C1489 C1491 1.390 . S
C1489 H1493 0.950 . S
H1490 C1486 0.950 . S
C1491 C1489 1.390 . S
C1491 C1492 1.387 . S
C1491 H1494 0.950 . S
C1492 C1491 1.387 . S
C1492 C1495 1.387 . S
H1493 C1489 0.950 . S
H1494 C1491 0.950 . S
C1495 C1486 1.390 . S
C1495 H1488 0.950 . S
C1495 C1492 1.387 . S
C1496 C1497 1.387 . S
C1496 H1500 0.950 . S
C1496 C1505 1.390 . S
C1497 C1496 1.387 . S
C1497 C1499 1.387 . S
H1498 C1505 0.950 . S
C1499 C1497 1.387 . S
C1499 C1501 1.390 . S
C1499 H1503 0.950 . S
H1500 C1496 0.950 . S
C1501 C1499 1.390 . S
C1501 C1502 1.387 . S
C1501 H1504 0.950 . S
C1502 C1501 1.387 . S
C1502 C1505 1.387 . S
H1503 C1499 0.950 . S
H1504 C1501 0.950 . S
C1505 C1496 1.390 . S
C1505 H1498 0.950 . S
C1505 C1502 1.387 . S
C1506 C1507 1.387 . S
C1506 H1510 0.950 . S
C1506 C1515 1.390 . S
C1507 C1506 1.387 . S
C1507 C1509 1.387 . S
H1508 C1515 0.950 . S
C1509 C1507 1.387 . S
C1509 C1511 1.390 . S
C1509 H1513 0.950 . S
H1510 C1506 0.950 . S
C1511 C1509 1.390 . S
C1511 C1512 1.387 . S
C1511 H1514 0.950 1_556 S
C1512 C1511 1.387 . S
C1512 C1515 1.387 . S
H1513 C1509 0.950 . S
H1514 C1511 0.950 1_554 S
C1515 C1506 1.390 . S
C1515 H1508 0.950 . S
C1515 C1512 1.387 . S
C1516 C1517 1.387 . S
C1516 H1520 0.950 . S
C1516 C1525 1.390 . S
C1517 C1516 1.387 . S
C1517 C1519 1.387 . S
H1518 C1525 0.950 . S
C1519 C1517 1.387 . S
C1519 C1521 1.390 . S
C1519 H1523 0.950 . S
H1520 C1516 0.950 . S
C1521 C1519 1.390 . S
C1521 C1522 1.387 . S
C1521 H1524 0.950 1_556 S
C1522 C1521 1.387 . S
C1522 C1525 1.387 . S
H1523 C1519 0.950 . S
H1524 C1521 0.950 1_554 S
C1525 C1516 1.390 . S
C1525 H1518 0.950 . S
C1525 C1522 1.387 . S
C1526 C1527 1.387 . S
C1526 H1530 0.950 . S
C1526 C1535 1.390 . S
C1527 C1526 1.387 . S
C1527 C1529 1.387 . S
H1528 C1535 0.950 1_554 S
C1529 C1527 1.387 . S
C1529 C1531 1.390 . S
C1529 H1533 0.950 . S
H1530 C1526 0.950 . S
C1531 C1529 1.390 . S
C1531 C1532 1.387 . S
C1531 H1534 0.950 . S
C1532 C1531 1.387 . S
C1532 C1535 1.387 . S
H1533 C1529 0.950 . S
H1534 C1531 0.950 . S
C1535 C1526 1.390 . S
C1535 H1528 0.950 1_556 S
C1535 C1532 1.387 . S
C1536 C1537 1.387 . S
C1536 H1540 0.950 . S
C1536 C1545 1.390 . S
C1537 C1536 1.387 . S
C1537 C1539 1.387 . S
H1538 C1545 0.950 . S
C1539 C1537 1.387 . S
C1539 C1541 1.390 . S
C1539 H1543 0.950 . S
H1540 C1536 0.950 . S
C1541 C1539 1.390 . S
C1541 C1542 1.387 . S
C1541 H1544 0.950 1_556 S
C1542 C1541 1.387 . S
C1542 C1545 1.387 . S
H1543 C1539 0.950 . S
H1544 C1541 0.950 1_554 S
C1545 C1536 1.390 . S
C1545 H1538 0.950 . S
C1545 C1542 1.387 . S
C1546 C1547 1.387 . S
C1546 H1550 0.950 . S
C1546 C1555 1.390 . S
C1547 C1546 1.387 . S
C1547 C1549 1.387 . S
H1548 C1555 0.950 1_554 S
C1549 C1547 1.387 . S
C1549 C1551 1.390 . S
C1549 H1553 0.950 . S
H1550 C1546 0.950 . S
C1551 C1549 1.390 . S
C1551 C1552 1.387 . S
C1551 H1554 0.950 . S
C1552 C1551 1.387 . S
C1552 C1555 1.387 . S
H1553 C1549 0.950 . S
H1554 C1551 0.950 . S
C1555 C1546 1.390 . S
C1555 H1548 0.950 1_556 S
C1555 C1552 1.387 . S
C1556 C1557 1.387 . S
C1556 H1560 0.950 . S
C1556 C1565 1.390 . S
C1557 C1556 1.387 . S
C1557 C1559 1.387 . S
H1558 C1565 0.950 . S
C1559 C1557 1.387 . S
C1559 C1561 1.390 . S
C1559 H1563 0.950 . S
H1560 C1556 0.950 . S
C1561 C1559 1.390 . S
C1561 C1562 1.387 . S
C1561 H1564 0.950 . S
C1562 C1561 1.387 . S
C1562 C1565 1.387 . S
H1563 C1559 0.950 . S
H1564 C1561 0.950 . S
C1565 C1556 1.390 . S
C1565 H1558 0.950 . S
C1565 C1562 1.387 . S
C1566 C1567 1.387 . S
C1566 H1570 0.950 . S
C1566 C1575 1.390 . S
C1567 C1566 1.387 . S
C1567 C1569 1.387 . S
H1568 C1575 0.950 . S
C1569 C1567 1.387 . S
C1569 C1571 1.390 . S
C1569 H1573 0.950 . S
H1570 C1566 0.950 . S
C1571 C1569 1.390 . S
C1571 C1572 1.387 . S
C1571 H1574 0.950 . S
C1572 C1571 1.387 . S
C1572 C1575 1.387 . S
H1573 C1569 0.950 . S
H1574 C1571 0.950 . S
C1575 C1566 1.390 . S
C1575 H1568 0.950 . S
C1575 C1572 1.387 . S
C1576 C1577 1.387 . S
C1576 H1580 0.950 . S
C1576 C1585 1.390 . S
C1577 C1576 1.387 . S
C1577 C1579 1.387 . S
H1578 C1585 0.950 . S
C1579 C1577 1.387 . S
C1579 C1581 1.390 . S
C1579 H1583 0.950 . S
H1580 C1576 0.950 . S
C1581 C1579 1.390 . S
C1581 C1582 1.387 . S
C1581 H1584 0.896 1_554 S
C1582 C1581 1.387 . S
C1582 C1585 1.387 . S
H1583 C1579 0.950 . S
H1584 C1581 0.896 1_556 S
C1585 C1576 1.390 . S
C1585 H1578 0.950 . S
C1585 C1582 1.387 . S
C1586 C1587 1.387 . S
C1586 H1590 0.950 . S
C1586 C1595 1.390 . S
C1587 C1586 1.387 . S
C1587 C1589 1.387 . S
H1588 C1595 0.950 . S
C1589 C1587 1.387 . S
C1589 C1591 1.390 . S
C1589 H1593 0.950 . S
H1590 C1586 0.950 . S
C1591 C1589 1.390 . S
C1591 C1592 1.387 . S
C1591 H1594 0.950 . S
C1592 C1591 1.387 . S
C1592 C1595 1.387 . S
H1593 C1589 0.950 . S
H1594 C1591 0.950 . S
C1595 C1586 1.390 . S
C1595 H1588 0.950 . S
C1595 C1592 1.387 . S
C1596 C1597 1.387 . S
C1596 H1600 0.950 . S
C1596 C1605 1.390 . S
C1597 C1596 1.387 . S
C1597 C1599 1.387 . S
H1598 C1605 0.950 . S
C1599 C1597 1.387 . S
C1599 C1601 1.390 . S
C1599 H1603 0.950 . S
H1600 C1596 0.950 . S
C1601 C1599 1.390 . S
C1601 C1602 1.387 . S
C1601 H1604 0.950 . S
C1602 C1601 1.387 . S
C1602 C1605 1.387 . S
H1603 C1599 0.950 . S
H1604 C1601 0.950 . S
C1605 C1596 1.390 . S
C1605 H1598 0.950 . S
C1605 C1602 1.387 . S
C1606 C1607 1.387 . S
C1606 H1610 0.950 . S
C1606 C1615 1.390 . S
C1607 C1606 1.387 . S
C1607 C1609 1.387 . S
H1608 C1615 0.950 . S
C1609 C1607 1.387 . S
C1609 C1611 1.390 . S
C1609 H1613 0.950 . S
H1610 C1606 0.950 . S
C1611 C1609 1.390 . S
C1611 C1612 1.387 . S
C1611 H1614 0.950 . S
C1612 C1611 1.387 . S
C1612 C1615 1.387 . S
H1613 C1609 0.950 . S
H1614 C1611 0.950 . S
C1615 C1606 1.390 . S
C1615 H1608 0.950 . S
C1615 C1612 1.387 . S
C1616 C1617 1.387 . S
C1616 H1620 0.950 . S
C1616 C1625 1.390 . S
C1617 C1616 1.387 . S
C1617 C1619 1.387 . S
H1618 C1625 0.950 . S
C1619 C1617 1.387 . S
C1619 C1621 1.390 . S
C1619 H1623 0.950 . S
H1620 C1616 0.950 . S
C1621 C1619 1.390 . S
C1621 C1622 1.387 . S
C1621 H1624 0.950 . S
C1622 C1621 1.387 . S
C1622 C1625 1.387 . S
H1623 C1619 0.950 . S
H1624 C1621 0.950 . S
C1625 C1616 1.390 . S
C1625 H1618 0.950 . S
C1625 C1622 1.387 . S
C1626 C1627 1.387 . S
C1626 H1630 0.950 . S
C1626 C1635 1.390 . S
C1627 C1626 1.387 . S
C1627 C1629 1.387 . S
H1628 C1635 0.950 . S
C1629 C1627 1.387 . S
C1629 C1631 1.390 . S
C1629 H1633 0.950 . S
H1630 C1626 0.950 . S
C1631 C1629 1.390 . S
C1631 C1632 1.387 . S
C1631 H1634 0.950 . S
C1632 C1631 1.387 . S
C1632 C1635 1.387 . S
H1633 C1629 0.950 . S
H1634 C1631 0.950 . S
C1635 C1626 1.390 . S
C1635 H1628 0.950 . S
C1635 C1632 1.387 . S
C1636 C1637 1.387 . S
C1636 H1640 0.950 . S
C1636 C1645 1.390 . S
C1637 C1636 1.387 . S
C1637 C1639 1.387 . S
H1638 C1645 0.950 . S
C1639 C1637 1.387 . S
C1639 C1641 1.390 . S
C1639 H1643 0.950 . S
H1640 C1636 0.950 . S
C1641 C1639 1.390 . S
C1641 C1642 1.387 . S
C1641 H1644 0.950 . S
C1642 C1641 1.387 . S
C1642 C1645 1.387 . S
H1643 C1639 0.950 . S
H1644 C1641 0.950 . S
C1645 C1636 1.390 . S
C1645 H1638 0.950 . S
C1645 C1642 1.387 . S
C1646 C1647 1.387 . S
C1646 H1650 0.950 . S
C1646 C1655 1.390 . S
C1647 C1646 1.387 . S
C1647 C1649 1.387 . S
H1648 C1655 0.950 . S
C1649 C1647 1.387 . S
C1649 C1651 1.390 . S
C1649 H1653 0.950 . S
H1650 C1646 0.950 . S
C1651 C1649 1.390 . S
C1651 C1652 1.387 . S
C1651 H1654 0.950 . S
C1652 C1651 1.387 . S
C1652 C1655 1.387 . S
H1653 C1649 0.950 . S
H1654 C1651 0.950 . S
C1655 C1646 1.390 . S
C1655 H1648 0.950 . S
C1655 C1652 1.387 . S
C1656 C1657 1.387 . S
C1656 H1660 0.950 . S
C1656 C1665 1.390 . S
C1657 C1656 1.387 . S
C1657 C1659 1.387 . S
H1658 C1665 0.950 . S
C1659 C1657 1.387 . S
C1659 C1661 1.390 . S
C1659 H1663 0.950 . S
H1660 C1656 0.950 . S
C1661 C1659 1.390 . S
C1661 C1662 1.387 . S
C1661 H1664 0.950 . S
C1662 C1661 1.387 . S
C1662 C1665 1.387 . S
H1663 C1659 0.950 . S
H1664 C1661 0.950 . S
C1665 C1656 1.390 . S
C1665 H1658 0.950 . S
C1665 C1662 1.387 . S
C1666 C1667 1.387 . S
C1666 H1670 0.950 . S
C1666 C1675 1.390 . S
C1667 C1666 1.387 . S
C1667 C1669 1.387 . S
H1668 C1675 0.950 . S
C1669 C1667 1.387 . S
C1669 C1671 1.390 . S
C1669 H1673 0.950 . S
H1670 C1666 0.950 . S
C1671 C1669 1.390 . S
C1671 C1672 1.387 . S
C1671 H1674 0.950 . S
C1672 C1671 1.387 . S
C1672 C1675 1.387 . S
H1673 C1669 0.950 . S
H1674 C1671 0.950 . S
C1675 C1666 1.390 . S
C1675 H1668 0.950 . S
C1675 C1672 1.387 . S
C1676 C1677 1.387 . S
C1676 H1680 0.950 . S
C1676 C1685 1.390 . S
C1677 C1676 1.387 . S
C1677 C1679 1.387 . S
H1678 C1685 0.950 . S
C1679 C1677 1.387 . S
C1679 C1681 1.390 . S
C1679 H1683 0.950 . S
H1680 C1676 0.950 . S
C1681 C1679 1.390 . S
C1681 C1682 1.387 . S
C1681 H1684 0.950 . S
C1682 C1681 1.387 . S
C1682 C1685 1.387 . S
H1683 C1679 0.950 . S
H1684 C1681 0.950 . S
C1685 C1676 1.390 . S
C1685 H1678 0.950 . S
C1685 C1682 1.387 . S
C1686 C1687 1.387 . S
C1686 H1690 0.950 . S
C1686 C1695 1.390 . S
C1687 C1686 1.387 . S
C1687 C1689 1.387 . S
H1688 C1695 0.950 . S
C1689 C1687 1.387 . S
C1689 C1691 1.390 . S
C1689 H1693 0.950 . S
H1690 C1686 0.950 . S
C1691 C1689 1.390 . S
C1691 C1692 1.387 . S
C1691 H1694 0.950 . S
C1692 C1691 1.387 . S
C1692 C1695 1.387 . S
H1693 C1689 0.950 . S
H1694 C1691 0.950 . S
C1695 C1686 1.390 . S
C1695 H1688 0.950 . S
C1695 C1692 1.387 . S
C1696 C1697 1.387 . S
C1696 H1700 0.950 . S
C1696 C1705 1.390 . S
C1697 C1696 1.387 . S
C1697 C1699 1.387 . S
H1698 C1705 0.950 . S
C1699 C1697 1.387 . S
C1699 C1701 1.390 . S
C1699 H1703 0.950 . S
H1700 C1696 0.950 . S
C1701 C1699 1.390 . S
C1701 C1702 1.387 . S
C1701 H1704 0.950 . S
C1702 C1701 1.387 . S
C1702 C1705 1.387 . S
H1703 C1699 0.950 . S
H1704 C1701 0.950 . S
C1705 C1696 1.390 . S
C1705 H1698 0.950 . S
C1705 C1702 1.387 . S
C1706 C1707 1.387 . S
C1706 H1710 0.950 . S
C1706 C1715 1.390 . S
C1707 C1706 1.387 . S
C1707 C1709 1.387 . S
H1708 C1715 0.950 . S
C1709 C1707 1.387 . S
C1709 C1711 1.390 . S
C1709 H1713 0.950 . S
H1710 C1706 0.950 . S
C1711 C1709 1.390 . S
C1711 C1712 1.387 . S
C1711 H1714 0.950 . S
C1712 C1711 1.387 . S
C1712 C1715 1.387 . S
H1713 C1709 0.950 . S
H1714 C1711 0.950 . S
C1715 C1706 1.390 . S
C1715 H1708 0.950 . S
C1715 C1712 1.387 . S
C1716 C1717 1.387 . S
C1716 H1720 0.950 . S
C1716 C1725 1.390 . S
C1717 C1716 1.387 . S
C1717 C1719 1.387 . S
H1718 C1725 0.950 . S
C1719 C1717 1.387 . S
C1719 C1721 1.390 . S
C1719 H1723 0.950 . S
H1720 C1716 0.950 . S
C1721 C1719 1.390 . S
C1721 C1722 1.387 . S
C1721 H1724 0.950 . S
C1722 C1721 1.387 . S
C1722 C1725 1.387 . S
H1723 C1719 0.950 . S
H1724 C1721 0.950 . S
C1725 C1716 1.390 . S
C1725 H1718 0.950 . S
C1725 C1722 1.387 . S
C1726 C1727 1.387 . S
C1726 H1730 0.950 . S
C1726 C1735 1.390 . S
C1727 C1726 1.387 . S
C1727 C1729 1.387 . S
H1728 C1735 0.950 . S
C1729 C1727 1.387 . S
C1729 C1731 1.390 . S
C1729 H1733 0.950 . S
H1730 C1726 0.950 . S
C1731 C1729 1.390 . S
C1731 C1732 1.387 . S
C1731 H1734 0.950 . S
C1732 C1731 1.387 . S
C1732 C1735 1.387 . S
H1733 C1729 0.950 . S
H1734 C1731 0.950 . S
C1735 C1726 1.390 . S
C1735 H1728 0.950 . S
C1735 C1732 1.387 . S
C1736 C1737 1.387 . S
C1736 H1740 0.950 . S
C1736 C1745 1.390 . S
C1737 C1736 1.387 . S
C1737 C1739 1.387 . S
H1738 C1745 0.950 . S
C1739 C1737 1.387 . S
C1739 C1741 1.390 . S
C1739 H1743 0.950 . S
H1740 C1736 0.950 . S
C1741 C1739 1.390 . S
C1741 C1742 1.387 . S
C1741 H1744 0.950 . S
C1742 C1741 1.387 . S
C1742 C1745 1.387 . S
H1743 C1739 0.950 . S
H1744 C1741 0.950 . S
C1745 C1736 1.390 . S
C1745 H1738 0.950 . S
C1745 C1742 1.387 . S
C1746 C1747 1.387 . S
C1746 H1750 0.950 . S
C1746 C1755 1.390 . S
C1747 C1746 1.387 . S
C1747 C1749 1.387 . S
H1748 C1755 0.950 . S
C1749 C1747 1.387 . S
C1749 C1751 1.390 . S
C1749 H1753 0.950 . S
H1750 C1746 0.950 . S
C1751 C1749 1.390 . S
C1751 C1752 1.387 . S
C1751 H1754 0.950 . S
C1752 C1751 1.387 . S
C1752 C1755 1.387 . S
H1753 C1749 0.950 . S
H1754 C1751 0.950 . S
C1755 C1746 1.390 . S
C1755 H1748 0.950 . S
C1755 C1752 1.387 . S
C1756 C1757 1.387 . S
C1756 H1760 0.950 . S
C1756 C1765 1.390 . S
C1757 C1756 1.387 . S
C1757 C1759 1.387 . S
H1758 C1765 0.950 . S
C1759 C1757 1.387 . S
C1759 C1761 1.390 . S
C1759 H1763 0.950 . S
H1760 C1756 0.950 . S
C1761 C1759 1.390 . S
C1761 C1762 1.387 . S
C1761 H1764 0.950 . S
C1762 C1761 1.387 . S
C1762 C1765 1.387 . S
H1763 C1759 0.950 . S
H1764 C1761 0.950 . S
C1765 C1756 1.390 . S
C1765 H1758 0.950 . S
C1765 C1762 1.387 . S
C1766 C1767 1.387 . S
C1766 H1770 0.950 . S
C1766 C1775 1.390 . S
C1767 C1766 1.387 . S
C1767 C1769 1.387 . S
H1768 C1775 0.950 . S
C1769 C1767 1.387 . S
C1769 C1771 1.390 . S
C1769 H1773 0.950 . S
H1770 C1766 0.950 . S
C1771 C1769 1.390 . S
C1771 C1772 1.387 . S
C1771 H1774 0.950 . S
C1772 C1771 1.387 . S
C1772 C1775 1.387 . S
H1773 C1769 0.950 . S
H1774 C1771 0.950 . S
C1775 C1766 1.390 . S
C1775 H1768 0.950 . S
C1775 C1772 1.387 . S
C1776 C1777 1.387 . S
C1776 H1780 0.950 . S
C1776 C1785 1.390 . S
C1777 C1776 1.387 . S
C1777 C1779 1.387 . S
H1778 C1785 0.950 . S
C1779 C1777 1.387 . S
C1779 C1781 1.390 . S
C1779 H1783 0.950 . S
H1780 C1776 0.950 . S
C1781 C1779 1.390 . S
C1781 C1782 1.387 . S
C1781 H1784 0.950 . S
C1782 C1781 1.387 . S
C1782 C1785 1.387 . S
H1783 C1779 0.950 . S
H1784 C1781 0.950 . S
C1785 C1776 1.390 . S
C1785 H1778 0.950 . S
C1785 C1782 1.387 . S
C1786 C1787 1.387 . S
C1786 H1790 0.950 . S
C1786 C1795 1.390 . S
C1787 C1786 1.387 . S
C1787 C1789 1.387 . S
H1788 C1795 0.950 . S
C1789 C1787 1.387 . S
C1789 C1791 1.390 . S
C1789 H1793 0.950 . S
H1790 C1786 0.950 . S
C1791 C1789 1.390 . S
C1791 C1792 1.387 . S
C1791 H1794 0.950 . S
C1792 C1791 1.387 . S
C1792 C1795 1.387 . S
H1793 C1789 0.950 . S
H1794 C1791 0.950 . S
C1795 C1786 1.390 . S
C1795 H1788 0.950 . S
C1795 C1792 1.387 . S
C1796 C1797 1.387 . S
C1796 H1800 0.950 . S
C1796 C1805 1.390 . S
C1797 C1796 1.387 . S
C1797 C1799 1.387 . S
H1798 C1805 0.950 . S
C1799 C1797 1.387 . S
C1799 C1801 1.390 . S
C1799 H1803 0.950 . S
H1800 C1796 0.950 . S
C1801 C1799 1.390 . S
C1801 C1802 1.387 . S
C1801 H1804 0.950 . S
C1802 C1801 1.387 . S
C1802 C1805 1.387 . S
H1803 C1799 0.950 . S
H1804 C1801 0.950 . S
C1805 C1796 1.390 . S
C1805 H1798 0.950 . S
C1805 C1802 1.387 . S
C1806 C1807 1.387 . S
C1806 H1810 0.950 . S
C1806 C1815 1.390 . S
C1807 C1806 1.387 . S
C1807 C1809 1.387 . S
H1808 C1815 0.950 . S
C1809 C1807 1.387 . S
C1809 C1811 1.390 . S
C1809 H1813 0.950 . S
H1810 C1806 0.950 . S
C1811 C1809 1.390 . S
C1811 C1812 1.387 . S
C1811 H1814 0.950 . S
C1812 C1811 1.387 . S
C1812 C1815 1.387 . S
H1813 C1809 0.950 . S
H1814 C1811 0.950 . S
C1815 C1806 1.390 . S
C1815 H1808 0.950 . S
C1815 C1812 1.387 . S
C1816 C1817 1.387 . S
C1816 H1820 0.950 . S
C1816 C1825 1.390 . S
C1817 C1816 1.387 . S
C1817 C1819 1.387 . S
H1818 C1825 0.950 . S
C1819 C1817 1.387 . S
C1819 C1821 1.390 . S
C1819 H1823 0.950 . S
H1820 C1816 0.950 . S
C1821 C1819 1.390 . S
C1821 C1822 1.387 . S
C1821 H1824 0.950 . S
C1822 C1821 1.387 . S
C1822 C1825 1.387 . S
H1823 C1819 0.950 . S
H1824 C1821 0.950 . S
C1825 C1816 1.390 . S
C1825 H1818 0.950 . S
C1825 C1822 1.387 . S
C1826 C1827 1.387 . S
C1826 H1830 0.950 . S
C1826 C1835 1.390 . S
C1827 C1826 1.387 . S
C1827 C1829 1.387 . S
H1828 C1835 0.950 . S
C1829 C1827 1.387 . S
C1829 C1831 1.390 . S
C1829 H1833 0.950 . S
H1830 C1826 0.950 . S
C1831 C1829 1.390 . S
C1831 C1832 1.387 . S
C1831 H1834 0.950 . S
C1832 C1831 1.387 . S
C1832 C1835 1.387 . S
H1833 C1829 0.950 . S
H1834 C1831 0.950 . S
C1835 C1826 1.390 . S
C1835 H1828 0.950 . S
C1835 C1832 1.387 . S
C1836 C1837 1.387 . S
C1836 H1840 0.950 . S
C1836 C1845 1.390 . S
C1837 C1836 1.387 . S
C1837 C1839 1.387 . S
H1838 C1845 0.950 . S
C1839 C1837 1.387 . S
C1839 C1841 1.390 . S
C1839 H1843 0.950 . S
H1840 C1836 0.950 . S
C1841 C1839 1.390 . S
C1841 C1842 1.387 . S
C1841 H1844 0.950 . S
C1842 C1841 1.387 . S
C1842 C1845 1.387 . S
H1843 C1839 0.950 . S
H1844 C1841 0.950 . S
C1845 C1836 1.390 . S
C1845 H1838 0.950 . S
C1845 C1842 1.387 . S
C1846 C1847 1.387 . S
C1846 H1850 0.950 . S
C1846 C1855 1.390 . S
C1847 C1846 1.387 . S
C1847 C1849 1.387 . S
H1848 C1855 0.948 1_655 S
C1849 C1847 1.387 . S
C1849 C1851 1.390 . S
C1849 H1853 0.950 . S
H1850 C1846 0.950 . S
C1851 C1849 1.390 . S
C1851 C1852 1.387 . S
C1851 H1854 0.950 . S
C1852 C1851 1.387 . S
C1852 C1855 1.387 . S
H1853 C1849 0.950 . S
H1854 C1851 0.950 . S
C1855 C1846 1.390 . S
C1855 H1848 0.948 1_455 S
C1855 C1852 1.387 . S
C1856 C1857 1.387 . S
C1856 H1860 0.950 . S
C1856 C1865 1.390 . S
C1857 C1856 1.387 . S
C1857 C1859 1.387 . S
H1858 C1865 0.950 . S
C1859 C1857 1.387 . S
C1859 C1861 1.390 . S
C1859 H1863 0.950 . S
H1860 C1856 0.950 . S
C1861 C1859 1.390 . S
C1861 C1862 1.387 . S
C1861 H1864 0.950 . S
C1862 C1861 1.387 . S
C1862 C1865 1.387 . S
H1863 C1859 0.950 . S
H1864 C1861 0.950 . S
C1865 C1856 1.390 . S
C1865 H1858 0.950 . S
C1865 C1862 1.387 . S
C1866 C1867 1.387 . S
C1866 H1870 0.950 . S
C1866 C1875 1.390 . S
C1867 C1866 1.387 . S
C1867 C1869 1.387 . S
H1868 C1875 0.950 . S
C1869 C1867 1.387 . S
C1869 C1871 1.390 . S
C1869 H1873 0.950 . S
H1870 C1866 0.950 . S
C1871 C1869 1.390 . S
C1871 C1872 1.387 . S
C1871 H1874 0.950 . S
C1872 C1871 1.387 . S
C1872 C1875 1.387 . S
H1873 C1869 0.950 . S
H1874 C1871 0.950 . S
C1875 C1866 1.390 . S
C1875 H1868 0.950 . S
C1875 C1872 1.387 . S
C1876 C1877 1.387 . S
C1876 H1880 0.950 . S
C1876 C1885 1.390 . S
C1877 C1876 1.387 . S
C1877 C1879 1.387 . S
H1878 C1885 0.950 . S
C1879 C1877 1.387 . S
C1879 C1881 1.390 . S
C1879 H1883 0.950 . S
H1880 C1876 0.950 . S
C1881 C1879 1.390 . S
C1881 C1882 1.387 . S
C1881 H1884 0.950 . S
C1882 C1881 1.387 . S
C1882 C1885 1.387 . S
H1883 C1879 0.950 . S
H1884 C1881 0.950 . S
C1885 C1876 1.390 . S
C1885 H1878 0.950 . S
C1885 C1882 1.387 . S
C1886 C1887 1.387 . S
C1886 H1890 0.950 . S
C1886 C1895 1.390 . S
C1887 C1886 1.387 . S
C1887 C1889 1.387 . S
H1888 C1895 0.950 . S
C1889 C1887 1.387 . S
C1889 C1891 1.390 . S
C1889 H1893 0.950 . S
H1890 C1886 0.950 . S
C1891 C1889 1.390 . S
C1891 C1892 1.387 . S
C1891 H1894 0.950 . S
C1892 C1891 1.387 . S
C1892 C1895 1.387 . S
H1893 C1889 0.950 . S
H1894 C1891 0.950 . S
C1895 C1886 1.390 . S
C1895 H1888 0.950 . S
C1895 C1892 1.387 . S
C1896 C1897 1.387 . S
C1896 H1900 0.950 . S
C1896 C1905 1.390 . S
C1897 C1896 1.387 . S
C1897 C1899 1.387 . S
H1898 C1905 0.950 . S
C1899 C1897 1.387 . S
C1899 C1901 1.390 . S
C1899 H1903 0.950 . S
H1900 C1896 0.950 . S
C1901 C1899 1.390 . S
C1901 C1902 1.387 . S
C1901 H1904 0.950 . S
C1902 C1901 1.387 . S
C1902 C1905 1.387 . S
H1903 C1899 0.950 . S
H1904 C1901 0.950 . S
C1905 C1896 1.390 . S
C1905 H1898 0.950 . S
C1905 C1902 1.387 . S
C1906 C1907 1.387 . S
C1906 H1910 0.950 . S
C1906 C1915 1.390 . S
C1907 C1906 1.387 . S
C1907 C1909 1.387 . S
H1908 C1915 0.950 . S
C1909 C1907 1.387 . S
C1909 C1911 1.390 . S
C1909 H1913 0.950 . S
H1910 C1906 0.950 . S
C1911 C1909 1.390 . S
C1911 C1912 1.387 . S
C1911 H1914 0.950 . S
C1912 C1911 1.387 . S
C1912 C1915 1.387 . S
H1913 C1909 0.950 . S
H1914 C1911 0.950 . S
C1915 C1906 1.390 . S
C1915 H1908 0.950 . S
C1915 C1912 1.387 . S
C1916 C1917 1.387 . S
C1916 H1920 0.950 . S
C1916 C1925 1.390 . S
C1917 C1916 1.387 . S
C1917 C1919 1.387 . S
H1918 C1925 0.950 . S
C1919 C1917 1.387 . S
C1919 C1921 1.390 . S
C1919 H1923 0.950 . S
H1920 C1916 0.950 . S
C1921 C1919 1.390 . S
C1921 C1922 1.387 . S
C1921 H1924 0.950 . S
C1922 C1921 1.387 . S
C1922 C1925 1.387 . S
H1923 C1919 0.950 . S
H1924 C1921 0.950 . S
C1925 C1916 1.390 . S
C1925 H1918 0.950 . S
C1925 C1922 1.387 . S
C1926 C1927 1.387 . S
C1926 H1930 0.950 . S
C1926 C1935 1.390 . S
C1927 C1926 1.387 . S
C1927 C1929 1.387 . S
H1928 C1935 0.950 . S
C1929 C1927 1.387 . S
C1929 C1931 1.390 . S
C1929 H1933 0.950 . S
H1930 C1926 0.950 . S
C1931 C1929 1.390 . S
C1931 C1932 1.387 . S
C1931 H1934 0.950 . S
C1932 C1931 1.387 . S
C1932 C1935 1.387 . S
H1933 C1929 0.950 . S
H1934 C1931 0.950 . S
C1935 C1926 1.390 . S
C1935 H1928 0.950 . S
C1935 C1932 1.387 . S
C1936 C1937 1.387 . S
C1936 H1940 0.950 . S
C1936 C1945 1.390 . S
C1937 C1936 1.387 . S
C1937 C1939 1.387 . S
H1938 C1945 0.950 . S
C1939 C1937 1.387 . S
C1939 C1941 1.390 . S
C1939 H1943 0.950 . S
H1940 C1936 0.950 . S
C1941 C1939 1.390 . S
C1941 C1942 1.387 . S
C1941 H1944 0.950 . S
C1942 C1941 1.387 . S
C1942 C1945 1.387 . S
H1943 C1939 0.950 . S
H1944 C1941 0.950 . S
C1945 C1936 1.390 . S
C1945 H1938 0.950 . S
C1945 C1942 1.387 . S
C1946 C1947 1.387 . S
C1946 H1950 0.950 . S
C1946 C1955 1.390 . S
C1947 C1946 1.387 . S
C1947 C1949 1.387 . S
H1948 C1955 0.950 . S
C1949 C1947 1.387 . S
C1949 C1951 1.390 . S
C1949 H1953 0.950 . S
H1950 C1946 0.950 . S
C1951 C1949 1.390 . S
C1951 C1952 1.387 . S
C1951 H1954 0.950 . S
C1952 C1951 1.387 . S
C1952 C1955 1.387 . S
H1953 C1949 0.950 . S
H1954 C1951 0.950 . S
C1955 C1946 1.390 . S
C1955 H1948 0.950 . S
C1955 C1952 1.387 . S
C1956 C1957 1.387 . S
C1956 H1960 0.950 . S
C1956 C1965 1.390 . S
C1957 C1956 1.387 . S
C1957 C1959 1.387 . S
H1958 C1965 0.950 . S
C1959 C1957 1.387 . S
C1959 C1961 1.390 . S
C1959 H1963 0.950 . S
H1960 C1956 0.950 . S
C1961 C1959 1.390 . S
C1961 C1962 1.387 . S
C1961 H1964 0.950 . S
C1962 C1961 1.387 . S
C1962 C1965 1.387 . S
H1963 C1959 0.950 . S
H1964 C1961 0.950 . S
C1965 C1956 1.390 . S
C1965 H1958 0.950 . S
C1965 C1962 1.387 . S
C1966 C1967 1.387 . S
C1966 H1970 0.950 . S
C1966 C1975 1.390 . S
C1967 C1966 1.387 . S
C1967 C1969 1.387 . S
H1968 C1975 0.950 . S
C1969 C1967 1.387 . S
C1969 C1971 1.390 . S
C1969 H1973 0.950 . S
H1970 C1966 0.950 . S
C1971 C1969 1.390 . S
C1971 C1972 1.387 . S
C1971 H1974 0.950 . S
C1972 C1971 1.387 . S
C1972 C1975 1.387 . S
H1973 C1969 0.950 . S
H1974 C1971 0.950 . S
C1975 C1966 1.390 . S
C1975 H1968 0.950 . S
C1975 C1972 1.387 . S
C1976 C1977 1.387 . S
C1976 H1980 0.950 . S
C1976 C1985 1.390 . S
C1977 C1976 1.387 . S
C1977 C1979 1.387 . S
H1978 C1985 0.950 . S
C1979 C1977 1.387 . S
C1979 C1981 1.390 . S
C1979 H1983 0.950 . S
H1980 C1976 0.950 . S
C1981 C1979 1.390 . S
C1981 C1982 1.387 . S
C1981 H1984 0.950 . S
C1982 C1981 1.387 . S
C1982 C1985 1.387 . S
H1983 C1979 0.950 . S
H1984 C1981 0.950 . S
C1985 C1976 1.390 . S
C1985 H1978 0.950 . S
C1985 C1982 1.387 . S
C1986 C1987 1.387 . S
C1986 H1990 0.950 . S
C1986 C1995 1.390 . S
C1987 C1986 1.387 . S
C1987 C1989 1.387 . S
H1988 C1995 0.950 . S
C1989 C1987 1.387 . S
C1989 C1991 1.390 . S
C1989 H1993 0.950 . S
H1990 C1986 0.950 . S
C1991 C1989 1.390 . S
C1991 C1992 1.387 . S
C1991 H1994 0.950 . S
C1992 C1991 1.387 . S
C1992 C1995 1.387 . S
H1993 C1989 0.950 . S
H1994 C1991 0.950 . S
C1995 C1986 1.390 . S
C1995 H1988 0.950 . S
C1995 C1992 1.387 . S
C1996 C1997 1.387 . S
C1996 H2000 0.950 . S
C1996 C2005 1.390 . S
C1997 C1996 1.387 . S
C1997 C1999 1.387 . S
H1998 C2005 0.950 . S
C1999 C1997 1.387 . S
C1999 C2001 1.390 . S
C1999 H2003 0.950 . S
H2000 C1996 0.950 . S
C2001 C1999 1.390 . S
C2001 C2002 1.387 . S
C2001 H2004 0.950 . S
C2002 C2001 1.387 . S
C2002 C2005 1.387 . S
H2003 C1999 0.950 . S
H2004 C2001 0.950 . S
C2005 C1996 1.390 . S
C2005 H1998 0.950 . S
C2005 C2002 1.387 . S
C2006 C2007 1.387 . S
C2006 H2010 0.950 . S
C2006 C2015 1.390 . S
C2007 C2006 1.387 . S
C2007 C2009 1.387 . S
H2008 C2015 0.950 . S
C2009 C2007 1.387 . S
C2009 C2011 1.390 . S
C2009 H2013 0.950 . S
H2010 C2006 0.950 . S
C2011 C2009 1.390 . S
C2011 C2012 1.387 . S
C2011 H2014 0.950 . S
C2012 C2011 1.387 . S
C2012 C2015 1.387 . S
H2013 C2009 0.950 . S
H2014 C2011 0.950 . S
C2015 C2006 1.390 . S
C2015 H2008 0.950 . S
C2015 C2012 1.387 . S
C1477 C522 1.504 . S
C1482 C787 1.418 . S
C1487 C562 1.489 . S
C1492 C871 1.418 . S
C1497 C495 1.526 . S
C1502 C951 1.471 . S
C1507 C455 1.474 . S
C1512 C867 1.425 . S
C1522 C955 1.356 . S
C1517 C362 1.432 . S
C1527 C402 1.498 . S
C1532 C783 1.413 . S
C1542 C776 1.440 . S
C1537 C442 1.475 . S
C1552 C860 1.402 . S
C1547 C375 1.463 . S
C1557 C415 1.533 . S
C1562 C962 1.471 . S
C1567 C535 1.478 . S
C1572 C878 1.423 . S
C1577 C575 1.406 . S
C1582 C944 1.336 . S
C1592 C794 1.442 . S
C1587 C482 1.461 . S
C1602 C1039 1.416 . S
C1597 C42 1.504 . S
C1607 C82 1.489 . S
C1612 C1123 1.418 . S
C1617 C15 1.525 1_565 S
C1622 C1203 1.469 . S
C1627 C695 1.474 . S
C1632 C1119 1.424 . S
C1637 C602 1.432 . S
C1642 C1207 1.356 . S
C1647 C642 1.498 . S
C1652 C1035 1.413 . S
C1657 C682 1.475 . S
C1662 C1028 1.439 . S
C1667 C615 1.463 . S
C1672 C1112 1.402 . S
C1682 C1214 1.468 . S
C1677 C655 1.531 . S
C1687 C55 1.478 . S
C1692 C1130 1.422 . S
C1702 C1196 1.339 . S
C1697 C95 1.407 . S
C1707 C2 1.459 . S
C1712 C1046 1.439 . S
C1722 C1291 1.419 . S
C1717 C282 1.504 . S
C1727 C322 1.489 . S
C1732 C1375 1.418 . S
C1742 C1455 1.471 . S
C1737 C255 1.526 . S
C1752 C1371 1.423 . S
C1747 C215 1.474 . S
C1762 C1459 1.352 . S
C1757 C122 1.431 . S
C1767 C162 1.498 . S
C1772 C1287 1.414 . S
C1777 C202 1.478 . S
C1782 C1280 1.442 . S
C1787 C135 1.463 . S
C1792 C1364 1.402 . S
C1802 C1466 1.472 . S
C1797 C175 1.533 . S
C1807 C295 1.479 . S
C1812 C1382 1.423 . S
C1817 C335 1.406 . S
C1822 C1448 1.335 . S
C1827 C242 1.457 . S
C1832 C1298 1.438 . S
C1837 C621 1.440 . S
C1842 C790 1.354 . S
C1852 C874 1.360 . S
C1847 C661 1.516 . S
C1857 C701 1.492 . S
C1862 C946 1.366 . S
C1867 C261 1.512 . S
C1872 C862 1.375 . S
C1877 C301 1.478 . S
C1882 C958 1.354 . S
C1892 C778 1.353 . S
C1887 C341 1.442 . S
C1897 C141 1.441 . S
C1902 C1042 1.351 . S
C1907 C181 1.516 . S
C1912 C1126 1.360 . S
C1917 C221 1.490 . S
C1922 C1198 1.365 . S
C1927 C501 1.512 . S
C1932 C1114 1.376 . S
C1942 C1210 1.350 . S
C1937 C541 1.479 . S
C1947 C581 1.442 . S
C1952 C1030 1.354 . S
C1957 C381 1.440 . S
C1962 C1294 1.355 . S
C1967 C421 1.515 . S
C1972 C1378 1.363 . S
C1982 C1450 1.366 . S
C1977 C461 1.492 . S
C1987 C21 1.511 . S
C1992 C1366 1.373 . S
C1997 C61 1.478 . S
C2002 C1462 1.353 . S
C2007 C101 1.440 . S
C2012 C1282 1.357 . S
