# Generated by pormake.
# Topology anh, (6,3)-cn, num edge types: 1
# Building blocks:
#     Node 0, Type 0, BuildingBlock: PAMTOO_clean_sbu_0, # of connection points: 6
#     Node 1, Type 0, BuildingBlock: PAMTOO_clean_sbu_0, # of connection points: 6
#     Node 2, Type 0, BuildingBlock: PAMTOO_clean_sbu_0, # of connection points: 6
#     Node 3, Type 1, BuildingBlock: WUSLED_clean_sbu_0, # of connection points: 3
#     Node 4, Type 1, BuildingBlock: WUSLED_clean_sbu_0, # of connection points: 3
#     Node 5, Type 1, BuildingBlock: WUSLED_clean_sbu_0, # of connection points: 3
#     Node 6, Type 1, BuildingBlock: WUSLED_clean_sbu_0, # of connection points: 3
#     Node 7, Type 1, BuildingBlock: WUSLED_clean_sbu_0, # of connection points: 3
#     Node 8, Type 1, BuildingBlock: WUSLED_clean_sbu_0, # of connection points: 3
#     Edge 9, Type (0, 1), BuildingBlock: XIVTED_clean_linker_0, # of connection points: 2
#     Edge 10, Type (0, 1), BuildingBlock: XIVTED_clean_linker_0, # of connection points: 2
#     Edge 11, Type (0, 1), BuildingBlock: XIVTED_clean_linker_0, # of connection points: 2
#     Edge 12, Type (0, 1), BuildingBlock: XIVTED_clean_linker_0, # of connection points: 2
#     Edge 13, Type (0, 1), BuildingBlock: XIVTED_clean_linker_0, # of connection points: 2
#     Edge 14, Type (0, 1), BuildingBlock: XIVTED_clean_linker_0, # of connection points: 2
#     Edge 15, Type (0, 1), BuildingBlock: XIVTED_clean_linker_0, # of connection points: 2
#     Edge 16, Type (0, 1), BuildingBlock: XIVTED_clean_linker_0, # of connection points: 2
#     Edge 17, Type (0, 1), BuildingBlock: XIVTED_clean_linker_0, # of connection points: 2
#     Edge 18, Type (0, 1), BuildingBlock: XIVTED_clean_linker_0, # of connection points: 2
#     Edge 19, Type (0, 1), BuildingBlock: XIVTED_clean_linker_0, # of connection points: 2
#     Edge 20, Type (0, 1), BuildingBlock: XIVTED_clean_linker_0, # of connection points: 2
#     Edge 21, Type (0, 1), BuildingBlock: XIVTED_clean_linker_0, # of connection points: 2
#     Edge 22, Type (0, 1), BuildingBlock: XIVTED_clean_linker_0, # of connection points: 2
#     Edge 23, Type (0, 1), BuildingBlock: XIVTED_clean_linker_0, # of connection points: 2
#     Edge 24, Type (0, 1), BuildingBlock: XIVTED_clean_linker_0, # of connection points: 2
#     Edge 25, Type (0, 1), BuildingBlock: XIVTED_clean_linker_0, # of connection points: 2
#     Edge 26, Type (0, 1), BuildingBlock: XIVTED_clean_linker_0, # of connection points: 2
# Relax obj value: 0.166
# Max RMSD: 0.188
# Mean RMSD: 0.148
data_MOF--net-anh--node1-PAMTOO_clean_sbu_0--node2-WUSLED_clean_sbu_0--edge1-XIVTED_clean_linker_0
_symmetry_space_group_name_H-M    P1
_symmetry_Int_Tables_number       1
_symmetry_cell_setting            triclinic
loop_
_symmetry_equiv_pos_as_xyz
'x, y, z'
_cell_length_a     39.028534
_cell_length_b     38.381838
_cell_length_c     69.980908
_cell_angle_alpha  89.549229
_cell_angle_beta   95.780634
_cell_angle_gamma 107.56222
loop_
_atom_site_label
_atom_site_type_symbol
_atom_site_fract_x
_atom_site_fract_y
_atom_site_fract_z
_atom_type_partial_charge
Dy0 Dy 1.05648 0.58036 0.15638 0.0
Dy1 Dy 1.02746 0.48986 0.15171 0.0
C2 C 1.03708 0.54043 0.11555 0.0
O3 O 0.99636 0.56616 0.15817 0.0
O4 O 0.97764 0.50726 0.14567 0.0
O5 O 0.083 0.63286 0.14486 0.0
O6 O 0.06381 0.62983 0.173 0.0
O7 O 1.02079 0.50557 0.18141 0.0
O8 O 0.06886 0.55714 0.18463 0.0
O9 O 0.0881 0.50314 0.15552 0.0
O10 O 0.10518 0.56493 0.14979 0.0
O11 O 1.02642 0.43725 0.16324 0.0
O12 O 0.99476 0.44033 0.13636 0.0
C13 C 0.97057 0.53694 0.15107 0.0
O14 O 1.03194 0.566 0.12622 0.0
O15 O 1.04409 0.5117 0.12326 0.0
C16 C 0.11706 0.67726 0.16803 0.0
C17 C 0.18398 0.72866 0.18134 0.0
C18 C 0.15629 0.74 0.17121 0.0
C19 C 0.1232 0.71455 0.16465 0.0
C20 C 0.14448 0.66562 0.17806 0.0
C21 C 0.1776 0.69107 0.18468 0.0
C22 C 0.08242 0.65082 0.1605 0.0
C23 C 1.04567 0.52998 0.1923 0.0
C24 C 0.11287 0.53392 0.15209 0.0
C25 C 0.96974 0.39205 0.15678 0.0
C26 C 0.90849 0.33962 0.1692 0.0
C27 C 0.9234 0.37374 0.17884 0.0
C28 C 0.95362 0.39975 0.17264 0.0
C29 C 0.955 0.35814 0.14713 0.0
C30 C 0.92465 0.3322 0.15324 0.0
C31 C 1.0015 0.41923 0.15 0.0
H32 H 0.16032 0.76854 0.16805 0.0
H33 H 0.10247 0.724 0.15677 0.0
H34 H 0.14027 0.63685 0.18072 0.0
H35 H 0.19804 0.68131 0.1926 0.0
H36 H 0.91137 0.38056 0.19102 0.0
H37 H 0.96435 0.42593 0.1802 0.0
H38 H 0.967 0.3517 0.13484 0.0
H39 H 0.91412 0.3061 0.14561 0.0
Dy40 Dy 0.54873 0.04026 0.53413 0.0
Dy41 Dy 0.63896 0.07061 0.53808 0.0
C42 C 0.59587 0.05126 0.57483 0.0
O43 O 0.56185 0.10102 0.53328 0.0
O44 O 0.62191 0.11889 0.54543 0.0
O45 O 0.49925 0.0103 0.54572 0.0
O46 O 0.49724 0.03591 0.51809 0.0
O47 O 0.61788 0.08314 0.50888 0.0
O48 O 0.56703 0.03419 0.5054 0.0
O49 O 0.6255 0.01026 0.53279 0.0
O50 O 0.56579 0.99043 0.53897 0.0
O51 O 0.68862 0.07416 0.52601 0.0
O52 O 0.69022 0.10127 0.55329 0.0
C53 C 0.59134 0.12603 0.5406 0.0
O54 O 0.56777 0.05706 0.56487 0.0
O55 O 0.62322 0.04752 0.56641 0.0
C56 C 0.45135 0.98058 0.5226 0.0
C57 C 0.39797 0.91568 0.50861 0.0
C58 C 0.39127 0.93754 0.52299 0.0
C59 C 0.41767 0.96964 0.52987 0.0
C60 C 0.45847 0.95883 0.5084 0.0
C61 C 0.43199 0.92672 0.50142 0.0
C62 C 0.47888 0.01417 0.53041 0.0
C63 C 0.59243 0.0595 0.49786 0.0
C64 C 0.59599 0.98405 0.53587 0.0
C65 C 0.7353 0.12979 0.53317 0.0
C66 C 0.78773 0.19254 0.52133 0.0
C67 C 0.75378 0.17877 0.51056 0.0
C68 C 0.72779 0.14778 0.51645 0.0
C69 C 0.76889 0.14354 0.54404 0.0
C70 C 0.7948 0.1746 0.53823 0.0
C71 C 0.70865 0.09669 0.53948 0.0
H72 H 0.36574 0.92963 0.52914 0.0
H73 H 0.41183 0.98587 0.54099 0.0
H74 H 0.48446 0.96668 0.50269 0.0
H75 H 0.43802 0.91083 0.49023 0.0
H76 H 0.74744 0.19153 0.49738 0.0
H77 H 0.70194 0.13774 0.50787 0.0
H78 H 0.77511 0.1302 0.55706 0.0
H79 H 0.82029 0.18472 0.5471 0.0
Dy80 Dy 0.61154 0.49256 0.84617 0.0
Dy81 Dy 0.5241 0.46824 0.83556 0.0
C82 C 0.57649 0.4827 0.80233 0.0
O83 O 0.596 0.54271 0.85202 0.0
O84 O 0.54431 0.52833 0.83128 0.0
O85 O 0.66485 0.53051 0.84541 0.0
O86 O 0.65766 0.47947 0.8604 0.0
O87 O 0.53485 0.48859 0.8662 0.0
O88 O 0.58728 0.47459 0.87352 0.0
O89 O 0.53745 0.41604 0.84091 0.0
O90 O 0.59569 0.43634 0.83323 0.0
O91 O 0.4701 0.44248 0.84329 0.0
O92 O 0.47805 0.46805 0.8157 0.0
C93 C 0.57054 0.55241 0.84166 0.0
O94 O 0.60301 0.50174 0.81469 0.0
O95 O 0.54599 0.46187 0.80794 0.0
C96 C 0.70919 0.50062 0.84397 0.0
C97 C 0.76498 0.48695 0.82572 0.0
C98 C 0.73472 0.49199 0.81475 0.0
C99 C 0.70685 0.49849 0.82382 0.0
C100 C 0.73892 0.49484 0.85492 0.0
C101 C 0.76657 0.48799 0.84589 0.0
C102 C 0.68057 0.50802 0.85378 0.0
C103 C 0.55923 0.48238 0.87896 0.0
C104 C 0.56645 0.40954 0.83576 0.0
C105 C 0.43327 0.47905 0.83226 0.0
C106 C 0.40078 0.53428 0.8373 0.0
C107 C 0.42265 0.52507 0.85249 0.0
C108 C 0.43893 0.49796 0.84996 0.0
C109 C 0.4104 0.48716 0.81728 0.0
C110 C 0.39431 0.51457 0.81975 0.0
C111 C 0.4554 0.45543 0.82839 0.0
H112 H 0.7328 0.49122 0.7992 0.0
H113 H 0.68373 0.50227 0.81511 0.0
H114 H 0.74097 0.4961 0.87048 0.0
H115 H 0.78984 0.48484 0.85472 0.0
H116 H 0.42755 0.53908 0.86633 0.0
H117 H 0.45686 0.49268 0.86171 0.0
H118 H 0.4062 0.47334 0.80341 0.0
H119 H 0.37783 0.52112 0.80771 0.0
C120 C 0.62849 0.09542 0.2228 0.0
C121 C 0.64704 0.12571 0.23484 0.0
C122 C 0.68967 0.14918 0.21109 0.0
C123 C 0.67725 0.15237 0.22903 0.0
C124 C 0.67107 0.11848 0.1992 0.0
C125 C 0.64081 0.09195 0.20499 0.0
U126 U 0.57107 0.04543 0.2615 0.0
O127 O 0.51223 0.02663 0.26247 0.0
O128 O 0.5426 0.98676 0.26435 0.0
C129 C 0.51064 0.99193 0.26313 0.0
C130 C 0.5965 0.06715 0.22861 0.0
C131 C 0.48108 0.96575 0.2508 0.0
C132 C 0.42761 0.95232 0.22757 0.0
C133 C 0.45831 0.97753 0.23709 0.0
C134 C 0.44259 0.90302 0.24474 0.0
C135 C 0.419 0.9148 0.23153 0.0
C136 C 0.47316 0.92822 0.25428 0.0
C137 C 0.60276 0.07495 0.31424 0.0
C138 C 0.58142 0.03944 0.34199 0.0
C139 C 0.61585 0.10345 0.3461 0.0
C140 C 0.61845 0.10573 0.32633 0.0
C141 C 0.5976 0.0702 0.35425 0.0
C142 C 0.58391 0.04182 0.32216 0.0
C143 C 0.60684 0.07802 0.29354 0.0
O144 O 0.60319 0.03992 0.23817 0.0
O145 O 0.57233 0.07925 0.2359 0.0
O146 O 0.58297 0.09001 0.28314 0.0
O147 O 0.61367 0.05049 0.28531 0.0
H148 H 0.63806 0.12884 0.2487 0.0
H149 H 0.6905 0.17576 0.2385 0.0
H150 H 0.68012 0.11463 0.18546 0.0
H151 H 0.62703 0.06863 0.19555 0.0
H152 H 0.41032 0.96229 0.2173 0.0
H153 H 0.4636 0.00628 0.23406 0.0
H154 H 0.43665 0.87446 0.24832 0.0
H155 H 0.49 0.91844 0.26494 0.0
H156 H 0.56745 0.01332 0.34773 0.0
H157 H 0.62801 0.12789 0.35499 0.0
H158 H 0.63288 0.1316 0.32046 0.0
H159 H 0.57146 0.01772 0.31304 0.0
C160 C 0.59196 0.64787 0.54395 0.0
C161 C 0.61466 0.67272 0.55786 0.0
C162 C 0.5959 0.72243 0.54282 0.0
C163 C 0.61675 0.7098 0.55723 0.0
C164 C 0.57325 0.69735 0.52897 0.0
C165 C 0.57137 0.66048 0.52953 0.0
U166 U 0.58931 0.55699 0.56866 0.0
O167 O 0.55322 0.50228 0.55952 0.0
O168 O 0.61209 0.51494 0.55934 0.0
C169 C 0.58026 0.49014 0.5563 0.0
C170 C 0.58917 0.60877 0.54393 0.0
C171 C 0.57756 0.45222 0.56162 0.0
C172 C 0.54863 0.38771 0.554 0.0
C173 C 0.54886 0.42404 0.55254 0.0
C174 C 0.60499 0.40681 0.57463 0.0
C175 C 0.5772 0.37867 0.56462 0.0
C176 C 0.60523 0.4433 0.57312 0.0
C177 C 0.59899 0.55587 0.62454 0.0
C178 C 0.57746 0.50645 0.64651 0.0
C179 C 0.61956 0.56411 0.65859 0.0
C180 C 0.62008 0.57755 0.64 0.0
C181 C 0.59787 0.52859 0.66216 0.0
C182 C 0.57805 0.51997 0.62783 0.0
C183 C 0.5975 0.57268 0.60561 0.0
O184 O 0.61844 0.60024 0.55022 0.0
O185 O 0.5596 0.58689 0.54998 0.0
O186 O 0.56598 0.56332 0.59521 0.0
O187 O 0.62483 0.57544 0.59553 0.0
H188 H 0.63067 0.66351 0.5692 0.0
H189 H 0.63418 0.72844 0.5682 0.0
H190 H 0.5572 0.7063 0.51755 0.0
H191 H 0.5538 0.64173 0.51864 0.0
H192 H 0.52703 0.36698 0.54588 0.0
H193 H 0.52746 0.4303 0.54341 0.0
H194 H 0.6271 0.40075 0.5832 0.0
H195 H 0.62774 0.46453 0.58029 0.0
H196 H 0.56079 0.47883 0.64872 0.0
H197 H 0.63517 0.58216 0.67027 0.0
H198 H 0.63622 0.6054 0.63777 0.0
H199 H 0.56162 0.50272 0.61606 0.0
C200 C 0.07624 0.60536 0.84332 0.0
C201 C 0.07263 0.56892 0.83826 0.0
C202 C 1.0149 0.56325 0.81981 0.0
C203 C 1.0422 0.54804 0.82668 0.0
C204 C 1.02002 0.60052 0.8236 0.0
C205 C 1.0504 0.62137 0.83516 0.0
U206 U 0.11278 0.63524 0.89515 0.0
O207 O 0.16428 0.63639 0.91131 0.0
O208 O 0.1503 0.68738 0.90711 0.0
C209 C 0.17582 0.67227 0.91229 0.0
C210 C 0.10579 0.62594 0.85768 0.0
C211 C 0.21025 0.68765 0.90409 0.0
C212 C 0.24012 0.70115 0.87493 0.0
C213 C 0.2103 0.69868 0.8849 0.0
C214 C 0.27148 0.68517 0.90372 0.0
C215 C 0.27001 0.69195 0.8839 0.0
C216 C 0.24174 0.68301 0.91373 0.0
C217 C 1.05509 0.5995 0.93559 0.0
C218 C 0.0824 0.59799 0.96819 0.0
C219 C 1.01722 0.58119 0.96162 0.0
C220 C 1.02075 0.58793 0.94212 0.0
C221 C 1.04802 0.58558 0.97477 0.0
C222 C 0.08591 0.60508 0.94878 0.0
C223 C 1.05869 0.60348 0.91494 0.0
O224 O 0.10084 0.65424 0.86621 0.0
O225 O 0.1196 0.60597 0.86965 0.0
O226 O 0.07988 0.58639 0.90849 0.0
O227 O 0.06419 0.63672 0.90836 0.0
H228 H 0.09258 0.55604 0.84388 0.0
H229 H 1.03932 0.51957 0.82375 0.0
H230 H 0.99944 0.61311 0.8187 0.0
H231 H 1.05274 0.64959 0.83841 0.0
H232 H 0.23848 0.70712 0.85977 0.0
H233 H 0.18619 0.70222 0.87711 0.0
H234 H 0.29396 0.67776 0.91107 0.0
H235 H 0.24207 0.67421 0.92848 0.0
H236 H 0.10659 0.60212 0.97806 0.0
H237 H 0.99041 0.57151 0.96631 0.0
H238 H 0.9967 0.58339 0.9321 0.0
H239 H 0.11267 0.61416 0.94398 0.0
C240 C 1.02847 0.47765 0.46732 0.0
C241 C 0.99854 0.45938 0.45444 0.0
C242 C 0.9753 0.41534 0.47888 0.0
C243 C 0.97213 0.42863 0.46019 0.0
C244 C 1.00555 0.43357 0.49166 0.0
C245 C 1.03183 0.46449 0.48594 0.0
U246 U 0.07585 0.53529 0.4279 0.0
O247 O 0.09338 0.59483 0.42403 0.0
O248 O 0.13318 0.56457 0.42567 0.0
C249 C 0.12771 0.59677 0.42476 0.0
C250 C 1.05637 0.5101 0.4614 0.0
C251 C 0.15348 0.62718 0.43657 0.0
C252 C 0.17786 0.69277 0.44294 0.0
C253 C 0.15194 0.66288 0.4335 0.0
C254 C 0.2074 0.65188 0.45899 0.0
C255 C 0.20618 0.68774 0.45565 0.0
C256 C 0.18133 0.62189 0.44955 0.0
C257 C 1.04337 0.50234 0.37582 0.0
C258 C 0.07605 0.52619 0.34838 0.0
C259 C 1.01376 0.48796 0.3434 0.0
C260 C 1.01279 0.48491 0.36326 0.0
C261 C 1.04547 0.50843 0.33567 0.0
C262 C 0.07498 0.52325 0.36828 0.0
C263 C 1.04169 0.4983 0.39665 0.0
O264 O 0.08294 0.50336 0.4535 0.0
O265 O 1.04419 0.5347 0.45223 0.0
O266 O 1.03025 0.52244 0.40518 0.0
O267 O 0.06965 0.49183 0.40638 0.0
H268 H 0.99563 0.46888 0.43992 0.0
H269 H 0.94948 0.41496 0.4499 0.0
H270 H 1.00865 0.42425 0.5062 0.0
H271 H 1.05477 0.47817 0.49606 0.0
H272 H 0.17632 0.71994 0.43976 0.0
H273 H 0.1311 0.6678 0.42336 0.0
H274 H 0.22861 0.64698 0.46884 0.0
H275 H 0.1834 0.59473 0.45218 0.0
H276 H 0.10102 0.54187 0.34297 0.0
H277 H 0.98949 0.47451 0.33411 0.0
H278 H 0.98808 0.46889 0.36884 0.0
H279 H 0.09886 0.53706 0.37778 0.0
C280 C 0.57438 0.88895 0.83407 0.0
C281 C 0.5681 0.86771 0.81712 0.0
C282 C 0.57723 0.81637 0.83547 0.0
C283 C 0.5694 0.83165 0.81782 0.0
C284 C 0.58403 0.83808 0.85235 0.0
C285 C 0.58256 0.874 0.85163 0.0
U286 U 0.57521 0.9787 0.80897 0.0
O287 O 0.54141 0.01402 0.81346 0.0
O288 O 0.60021 0.03445 0.82091 0.0
C289 C 0.56929 0.04184 0.81983 0.0
C290 C 0.57214 0.92651 0.83387 0.0
C291 C 0.56931 0.07904 0.81396 0.0
C292 C 0.53538 0.12201 0.80598 0.0
C293 C 0.53688 0.08607 0.80729 0.0
C294 C 0.59905 0.14466 0.8171 0.0
C295 C 0.56621 0.15171 0.81144 0.0
C296 C 0.60055 0.10879 0.81839 0.0
C297 C 0.58935 0.98456 0.7545 0.0
C298 C 0.57223 0.02158 0.72909 0.0
C299 C 0.61391 0.98781 0.72377 0.0
C300 C 0.61161 0.97477 0.74241 0.0
C301 C 0.59395 0.01105 0.71675 0.0
C302 C 0.56997 0.00847 0.74784 0.0
C303 C 0.58526 0.96714 0.77332 0.0
O304 O 0.60215 0.95224 0.83122 0.0
O305 O 0.54344 0.9313 0.82405 0.0
O306 O 0.55314 0.95904 0.77954 0.0
O307 O 0.61197 0.9799 0.78688 0.0
H308 H 0.56199 0.87892 0.80339 0.0
H309 H 0.56447 0.81581 0.80454 0.0
H310 H 0.5897 0.82705 0.86619 0.0
H311 H 0.58747 0.89004 0.86486 0.0
H312 H 0.50977 0.12647 0.80129 0.0
H313 H 0.51218 0.06384 0.80397 0.0
H314 H 0.62325 0.16675 0.82164 0.0
H315 H 0.62582 0.1044 0.82393 0.0
H316 H 0.55681 0.03975 0.72422 0.0
H317 H 0.63041 0.97858 0.71464 0.0
H318 H 0.62657 0.95614 0.74724 0.0
H319 H 0.55265 0.01645 0.75696 0.0
C320 C 0.63484 0.53477 0.12799 0.0
C321 C 0.64516 0.50305 0.13169 0.0
C322 C 0.70903 0.53689 0.13022 0.0
C323 C 0.68157 0.50404 0.13272 0.0
C324 C 0.69857 0.56842 0.12592 0.0
C325 C 0.66209 0.56741 0.12489 0.0
U326 U 0.53209 0.53252 0.11519 0.0
O327 O 0.4871 0.50437 0.13192 0.0
O328 O 0.5046 0.56413 0.13099 0.0
C329 C 0.48081 0.53478 0.1367 0.0
C330 C 0.59735 0.53483 0.13085 0.0
C331 C 0.44238 0.53493 0.13546 0.0
C332 C 0.37743 0.5049 0.12826 0.0
C333 C 0.41348 0.50547 0.12736 0.0
C334 C 0.3983 0.56336 0.14511 0.0
C335 C 0.36922 0.53371 0.13731 0.0
C336 C 0.43422 0.56389 0.14423 0.0
C337 C 0.5306 0.52675 0.05876 0.0
C338 C 0.53683 0.55113 0.0266 0.0
C339 C 0.54449 0.49183 0.03322 0.0
C340 C 0.53827 0.49547 0.05241 0.0
C341 C 0.54285 0.5192 0.01996 0.0
C342 C 0.5307 0.55479 0.04573 0.0
C343 C 0.51683 0.52848 0.07763 0.0
O344 O 0.58776 0.56411 0.12625 0.0
O345 O 0.5707 0.50429 0.12741 0.0
O346 O 0.51174 0.49963 0.08852 0.0
O347 O 0.52897 0.55961 0.08744 0.0
H348 H 0.62519 0.47761 0.13464 0.0
H349 H 0.68826 0.47923 0.13634 0.0
H350 H 0.71864 0.59415 0.1236 0.0
H351 H 0.65545 0.59259 0.12232 0.0
H352 H 0.35597 0.48178 0.12185 0.0
H353 H 0.41863 0.48255 0.12057 0.0
H354 H 0.39339 0.58583 0.15247 0.0
H355 H 0.45578 0.58671 0.15087 0.0
H356 H 0.536 0.57304 0.01689 0.0
H357 H 0.54886 0.46679 0.02859 0.0
H358 H 0.53802 0.47314 0.062 0.0
H359 H 0.52451 0.57903 0.05013 0.0
H360 H 0.17193 0.59224 0.14606 0.0
H361 H 0.31048 0.47437 0.14354 0.0
H362 H 0.1409 0.47558 0.15376 0.0
H363 H 0.33957 0.59075 0.13513 0.0
H364 H 0.24853 0.47387 0.1471 0.0
H365 H 0.23331 0.59184 0.14226 0.0
C366 C 0.17791 0.56645 0.14699 0.0
C367 C 0.15081 0.53386 0.15024 0.0
C368 C 0.26846 0.49952 0.14446 0.0
C369 C 0.22183 0.53328 0.14581 0.0
C370 C 0.30393 0.49982 0.14228 0.0
C371 C 0.33074 0.53268 0.13902 0.0
C372 C 0.25934 0.5323 0.14338 0.0
C373 C 0.3203 0.56478 0.13789 0.0
C374 C 0.21315 0.56628 0.14479 0.0
C375 C 0.16067 0.50143 0.1513 0.0
N376 N 0.28566 0.56375 0.14006 0.0
N377 N 0.19521 0.50197 0.14908 0.0
H378 H 0.86134 0.20547 0.52368 0.0
H379 H 0.90156 0.39829 0.47175 0.0
H380 H 0.77826 0.2545 0.50435 0.0
H381 H 0.98493 0.35768 0.4999 0.0
H382 H 0.85588 0.34413 0.4818 0.0
H383 H 0.90677 0.2595 0.51359 0.0
C384 C 0.85257 0.22764 0.51745 0.0
C385 C 0.81573 0.22528 0.51498 0.0
C386 C 0.88416 0.34708 0.4858 0.0
C387 C 0.86788 0.28726 0.50303 0.0
C388 C 0.91028 0.3779 0.47997 0.0
C389 C 0.94719 0.38259 0.48498 0.0
C390 C 0.89493 0.32049 0.49662 0.0
C391 C 0.95682 0.35545 0.49588 0.0
C392 C 0.8786 0.25847 0.51157 0.0
C393 C 0.80618 0.25473 0.50636 0.0
N394 N 0.9309 0.32556 0.50127 0.0
N395 N 0.83204 0.28441 0.50071 0.0
H396 H 0.52115 0.58134 0.82262 0.0
H397 H 0.62501 0.7881 0.857 0.0
H398 H 0.6215 0.61224 0.85963 0.0
H399 H 0.52981 0.75642 0.81621 0.0
H400 H 0.62352 0.72397 0.85905 0.0
H401 H 0.52314 0.64527 0.82114 0.0
C402 C 0.54367 0.60154 0.83046 0.0
C403 C 0.57132 0.59128 0.84121 0.0
C404 C 0.60301 0.73107 0.84962 0.0
C405 C 0.5737 0.66496 0.83955 0.0
C406 C 0.60374 0.76766 0.8485 0.0
C407 C 0.57748 0.7777 0.83641 0.0
C408 C 0.57571 0.70423 0.83864 0.0
C409 C 0.55086 0.75006 0.82554 0.0
C410 C 0.54478 0.63816 0.82958 0.0
C411 C 0.59963 0.61884 0.85113 0.0
N412 N 0.55061 0.71465 0.82697 0.0
N413 N 0.60011 0.65442 0.85004 0.0
H414 H 0.91067 0.48185 0.13658 0.0
H415 H 0.76807 0.59259 0.14619 0.0
H416 H 0.94194 0.59256 0.15914 0.0
H417 H 0.74027 0.48453 0.12046 0.0
H418 H 0.83133 0.59346 0.15124 0.0
H419 H 0.84821 0.48251 0.13129 0.0
C420 C 0.90453 0.50639 0.14049 0.0
C421 C 0.93204 0.53724 0.14836 0.0
C422 C 0.81139 0.56958 0.14446 0.0
C423 C 0.85961 0.53811 0.14221 0.0
C424 C 0.77513 0.56913 0.14141 0.0
C425 C 0.74829 0.5384 0.13284 0.0
C426 C 0.82127 0.53909 0.13896 0.0
C427 C 0.75953 0.50867 0.12737 0.0
C428 C 0.86863 0.50672 0.13741 0.0
C429 C 0.92188 0.56809 0.15307 0.0
N430 N 0.79491 0.50978 0.13053 0.0
N431 N 0.88662 0.56773 0.14993 0.0
H432 H 0.32476 0.90409 0.50179 0.0
H433 H 0.27947 0.69853 0.46167 0.0
H434 H 0.40592 0.84953 0.49833 0.0
H435 H 0.19845 0.75082 0.47034 0.0
H436 H 0.32622 0.75316 0.47509 0.0
H437 H 0.27837 0.84813 0.49011 0.0
C438 C 0.33289 0.8803 0.49871 0.0
C439 C 0.36947 0.88168 0.50116 0.0
C440 C 0.2982 0.75262 0.47412 0.0
C441 C 0.31618 0.8173 0.48743 0.0
C442 C 0.27142 0.7213 0.46658 0.0
C443 C 0.23485 0.71999 0.46479 0.0
C444 C 0.28845 0.78298 0.47993 0.0
C445 C 0.22625 0.7507 0.47113 0.0
C446 C 0.30631 0.84833 0.49192 0.0
C447 C 0.37821 0.85003 0.49648 0.0
N448 N 0.25279 0.78087 0.47835 0.0
N449 N 0.3518 0.81919 0.48985 0.0
H450 H 0.61971 0.3867 0.82232 0.0
H451 H 0.51158 0.17366 0.82426 0.0
H452 H 0.51183 0.34562 0.83953 0.0
H453 H 0.61535 0.21626 0.80236 0.0
H454 H 0.51035 0.23612 0.82928 0.0
H455 H 0.61826 0.32434 0.81494 0.0
C456 C 0.59568 0.36458 0.8246 0.0
C457 C 0.56584 0.37152 0.83162 0.0
C458 C 0.53328 0.23181 0.82326 0.0
C459 C 0.56403 0.29972 0.82309 0.0
C460 C 0.53389 0.19609 0.82021 0.0
C461 C 0.56367 0.18955 0.81288 0.0
C462 C 0.56273 0.26136 0.81903 0.0
C463 C 0.59207 0.21988 0.8083 0.0
C464 C 0.59486 0.3289 0.8203 0.0
C465 C 0.53548 0.34162 0.83419 0.0
N466 N 0.59096 0.25439 0.81153 0.0
N467 N 0.53538 0.30703 0.82996 0.0
H468 H 0.5382 0.92246 0.53548 0.0
H469 H 0.65543 0.7834 0.54768 0.0
H470 H 0.65458 0.95778 0.53732 0.0
H471 H 0.53922 0.75033 0.5366 0.0
H472 H 0.65638 0.84755 0.54576 0.0
H473 H 0.53878 0.85938 0.53738 0.0
C474 C 0.56396 0.917 0.53627 0.0
C475 C 0.59643 0.94559 0.53628 0.0
C476 C 0.63071 0.82621 0.54373 0.0
C477 C 0.59724 0.87297 0.53852 0.0
C478 C 0.63013 0.78964 0.54495 0.0
C479 C 0.59719 0.76148 0.54223 0.0
C480 C 0.59809 0.83462 0.53992 0.0
C481 C 0.56525 0.77111 0.53854 0.0
C482 C 0.56424 0.88085 0.53732 0.0
C483 C 0.62889 0.93663 0.53722 0.0
N484 N 0.56651 0.80679 0.53753 0.0
N485 N 0.6285 0.90107 0.53839 0.0
H486 H 0.80486 0.43998 0.83385 0.0
H487 H 0.96981 0.57762 0.78999 0.0
H488 H 0.79734 0.52828 0.7968 0.0
H489 H 0.97757 0.4952 0.83109 0.0
H490 H 0.90497 0.54682 0.78369 0.0
H491 H 0.86498 0.44663 0.82431 0.0
C492 C 0.81563 0.46028 0.8234 0.0
C493 C 0.79661 0.48428 0.81649 0.0
C494 C 0.92104 0.53497 0.79373 0.0
C495 C 0.8654 0.49237 0.80568 0.0
C496 C 0.95805 0.55259 0.79736 0.0
C497 C 0.97896 0.53963 0.81153 0.0
C498 C 0.9049 0.50442 0.80447 0.0
C499 C 0.96254 0.50649 0.82021 0.0
C500 C 0.84989 0.46403 0.81791 0.0
C501 C 0.8113 0.50948 0.80263 0.0
N502 N 0.92633 0.49051 0.81687 0.0
N503 N 0.84522 0.51346 0.79802 0.0
H504 H 0.25248 0.72186 0.18237 0.0
H505 H 0.35178 0.92418 0.22563 0.0
H506 H 0.19629 0.79802 0.19624 0.0
H507 H 0.40756 0.8447 0.21778 0.0
H508 H 0.29514 0.8795 0.21288 0.0
H509 H 0.30978 0.76713 0.19384 0.0
C510 C 0.25207 0.74796 0.18792 0.0
C511 C 0.21927 0.75596 0.18831 0.0
C512 C 0.31976 0.87182 0.21389 0.0
C513 C 0.28512 0.80831 0.20124 0.0
C514 C 0.35224 0.89747 0.22103 0.0
C515 C 0.38463 0.8883 0.2228 0.0
C516 C 0.31948 0.83659 0.20838 0.0
C517 C 0.38326 0.85293 0.21689 0.0
C518 C 0.2849 0.77393 0.19436 0.0
C519 C 0.22076 0.79066 0.19536 0.0
N520 N 0.35128 0.82842 0.20996 0.0
N521 N 0.25302 0.81544 0.20152 0.0
H522 H 0.64786 0.18773 0.55033 0.0
H523 H 0.52195 0.31397 0.56447 0.0
H524 H 0.53147 0.14966 0.5398 0.0
H525 H 0.63727 0.35645 0.56224 0.0
H526 H 0.52534 0.25236 0.55896 0.0
H527 H 0.64476 0.24865 0.55784 0.0
C528 C 0.62163 0.19214 0.54955 0.0
C529 C 0.58986 0.16346 0.54436 0.0
C530 C 0.54991 0.27518 0.55977 0.0
C531 C 0.58616 0.23322 0.55315 0.0
C532 C 0.54801 0.3104 0.5629 0.0
C533 C 0.57933 0.34063 0.5637 0.0
C534 C 0.58339 0.26999 0.55752 0.0
C535 C 0.61244 0.33408 0.56196 0.0
C536 C 0.6199 0.22698 0.55386 0.0
C537 C 0.55668 0.17093 0.54361 0.0
N538 N 0.61356 0.29954 0.55887 0.0
N539 N 0.55569 0.20504 0.54801 0.0
H540 H 0.33352 0.53765 0.82348 0.0
H541 H 0.34343 0.70407 0.89168 0.0
H542 H 0.43199 0.5998 0.85683 0.0
H543 H 0.25317 0.65408 0.8497 0.0
H544 H 0.37939 0.67203 0.87639 0.0
H545 H 0.30635 0.58503 0.83014 0.0
C546 C 0.34964 0.56147 0.83199 0.0
C547 C 0.38491 0.56435 0.83988 0.0
C548 C 0.35196 0.66877 0.87028 0.0
C549 C 0.35367 0.61858 0.84786 0.0
C550 C 0.33145 0.68706 0.87901 0.0
C551 C 0.29508 0.6814 0.87216 0.0
C552 C 0.33578 0.64435 0.85477 0.0
C553 C 0.28108 0.65944 0.85551 0.0
C554 C 0.33406 0.58855 0.83584 0.0
C555 C 0.40434 0.59585 0.85092 0.0
N556 N 0.30123 0.64122 0.84763 0.0
N557 N 0.3883 0.62149 0.85481 0.0
H558 H 0.89397 0.3205 0.20615 0.0
H559 H 0.70057 0.17552 0.17476 0.0
H560 H 0.84926 0.29555 0.14714 0.0
H561 H 0.75219 0.18827 0.23291 0.0
H562 H 0.75349 0.22147 0.16463 0.0
H563 H 0.84078 0.27481 0.21647 0.0
C564 C 0.8729 0.30557 0.19536 0.0
C565 C 0.87619 0.31193 0.17573 0.0
C566 C 0.75326 0.2142 0.17961 0.0
C567 C 0.81516 0.25932 0.18747 0.0
C568 C 0.72307 0.18774 0.18542 0.0
C569 C 0.72174 0.17769 0.20476 0.0
C570 C 0.78251 0.23109 0.19321 0.0
C571 C 0.7516 0.19531 0.21791 0.0
C572 C 0.84261 0.2793 0.20126 0.0
C573 C 0.84816 0.29132 0.16241 0.0
N574 N 0.78067 0.22107 0.21189 0.0
N575 N 0.81886 0.26608 0.16852 0.0
H576 H 1.00956 0.58736 0.09403 0.0
H577 H 0.08273 0.54553 0.99725 0.0
H578 H 0.06149 0.50362 0.08917 0.0
H579 H 1.0052 0.60499 0.99878 0.0
H580 H 0.07795 0.53229 0.0313 0.0
H581 H 1.01005 0.59645 0.05948 0.0
C582 C 1.02099 0.5708 0.08569 0.0
C583 C 1.03563 0.54476 0.09451 0.0
C584 C 0.06185 0.54808 0.02417 0.0
C585 C 1.03647 0.55524 0.05496 0.0
C586 C 0.06475 0.55585 1.00479 0.0
C587 C 1.04447 0.57657 0.99525 0.0
C588 C 1.03882 0.56148 0.03415 0.0
C589 C 1.02119 0.5888 0.0056 0.0
C590 C 1.02114 0.57593 0.06595 0.0
C591 C 1.04987 0.52395 0.08296 0.0
N592 N 1.0192 0.58132 0.02455 0.0
N593 N 1.0502 0.52985 0.06379 0.0
H594 H 0.64448 0.10373 0.47755 0.0
H595 H 0.54104 0.03134 0.37402 0.0
H596 H 0.54163 0.01931 0.46985 0.0
H597 H 0.65056 0.10319 0.38299 0.0
H598 H 0.53935 0.02811 0.40887 0.0
H599 H 0.64546 0.10597 0.44278 0.0
C600 C 0.62201 0.08568 0.46856 0.0
C601 C 0.5929 0.06128 0.4767 0.0
C602 C 0.56373 0.04457 0.40318 0.0
C603 C 0.5939 0.06373 0.43669 0.0
C604 C 0.56481 0.04628 0.38327 0.0
C605 C 0.59596 0.06768 0.37545 0.0
C606 C 0.59398 0.06447 0.41543 0.0
C607 C 0.6257 0.08686 0.38825 0.0
C608 C 0.62266 0.08692 0.44866 0.0
C609 C 0.56465 0.03852 0.46424 0.0
N610 N 0.62393 0.08484 0.40753 0.0
N611 N 0.56583 0.04034 0.44487 0.0
H612 H 0.6378 0.51654 0.78527 0.0
H613 H 0.53754 0.48852 0.67856 0.0
H614 H 0.52542 0.45504 0.77188 0.0
H615 H 0.65217 0.53994 0.69179 0.0
H616 H 0.53297 0.47327 0.71238 0.0
H617 H 0.64389 0.52337 0.75097 0.0
C618 C 0.6144 0.50434 0.77513 0.0
C619 C 0.58097 0.48536 0.78152 0.0
C620 C 0.55917 0.48765 0.70786 0.0
C621 C 0.58778 0.4932 0.7421 0.0
C622 C 0.56186 0.49615 0.6885 0.0
C623 C 0.59527 0.51582 0.68228 0.0
C624 C 0.59007 0.49899 0.72117 0.0
C625 C 0.62573 0.52537 0.69594 0.0
C626 C 0.61793 0.5082 0.75551 0.0
C627 C 0.5517 0.46996 0.76765 0.0
N628 N 0.62235 0.51711 0.71472 0.0
N629 N 0.55573 0.47444 0.74861 0.0
H630 H 0.65199 0.04715 0.60075 0.0
H631 H 0.53755 0.01708 0.69134 0.0
H632 H 0.54163 0.04952 0.59732 0.0
H633 H 0.65201 0.03082 0.69547 0.0
H634 H 0.53852 0.03025 0.65711 0.0
H635 H 0.65234 0.04146 0.63552 0.0
C636 C 0.62781 0.04653 0.60728 0.0
C637 C 0.59668 0.04869 0.59603 0.0
C638 C 0.56346 0.03062 0.66555 0.0
C639 C 0.59691 0.0421 0.63597 0.0
C640 C 0.563 0.02336 0.68515 0.0
C641 C 0.5947 0.02252 0.69635 0.0
C642 C 0.59582 0.03696 0.65701 0.0
C643 C 0.62674 0.03041 0.68738 0.0
C644 C 0.62808 0.04338 0.62719 0.0
C645 C 0.56625 0.04791 0.60539 0.0
N646 N 0.62642 0.03702 0.66827 0.0
N647 N 0.56707 0.04449 0.62478 0.0
H648 H 0.60269 0.46823 0.90945 0.0
H649 H 0.50216 0.53643 0.98918 0.0
H650 H 0.50913 0.50521 0.89615 0.0
H651 H 0.58847 0.48897 1.00302 0.0
H652 H 0.50565 0.52687 0.95509 0.0
H653 H 0.59877 0.47667 0.94365 0.0
C654 C 0.58122 0.47802 0.91369 0.0
C655 C 0.5562 0.48602 0.89982 0.0
C656 C 0.52386 0.51854 0.96555 0.0
C657 C 0.55171 0.49596 0.93912 0.0
C658 C 0.5221 0.52427 0.98507 0.0
C659 C 0.54524 0.51373 0.99908 0.0
C660 C 0.54903 0.50221 0.95985 0.0
C661 C 0.56994 0.49734 0.99279 0.0
C662 C 0.57902 0.48283 0.93326 0.0
C663 C 0.529 0.49862 0.90627 0.0
N664 N 0.57126 0.4922 0.97366 0.0
N665 N 0.52758 0.5033 0.92541 0.0
H666 H 0.08762 0.57957 0.21975 0.0
H667 H 1.01423 0.4548 0.30801 0.0
H668 H 1.00695 0.47374 0.21315 0.0
H669 H 0.07925 0.56789 0.31484 0.0
H670 H 1.01482 0.45991 0.27329 0.0
H671 H 0.08868 0.5743 0.25467 0.0
C672 C 0.07019 0.55519 0.22562 0.0
C673 C 1.04709 0.52708 0.21347 0.0
C674 C 1.02896 0.48363 0.28237 0.0
C675 C 1.04826 0.52087 0.25344 0.0
C676 C 1.02847 0.48081 0.30224 0.0
C677 C 1.04651 0.51103 0.31446 0.0
C678 C 1.04778 0.51687 0.27455 0.0
C679 C 0.06525 0.54373 0.30606 0.0
C680 C 0.07076 0.55225 0.24556 0.0
C681 C 1.02509 0.49616 0.22193 0.0
N682 N 0.06536 0.54578 0.28665 0.0
N683 N 1.02626 0.49388 0.24136 0.0
loop_
_geom_bond_atom_site_label_1
_geom_bond_atom_site_label_2
_geom_bond_distance
_geom_bond_site_symmetry_2
_ccdc_geom_bond_type
Dy0 O3 2.307 1_455 S
Dy0 O5 2.395 . S
Dy0 O6 2.379 . S
Dy0 O8 2.339 . S
Dy0 O10 2.298 . S
Dy0 O14 2.275 . S
Dy0 C22 2.738 . S
Dy1 O4 2.298 . S
Dy1 O7 2.275 1_655 S
Dy1 O9 2.307 1_655 S
Dy1 O11 2.395 . S
Dy1 O12 2.379 . S
Dy1 O15 2.339 . S
Dy1 C31 2.738 . S
C2 O14 1.254 . S
C2 O15 1.257 1_455 S
O3 Dy0 2.307 1_655 S
O3 C13 1.266 . S
O4 Dy1 2.298 . S
O4 C13 1.236 . S
O5 Dy0 2.395 . S
O5 C22 1.255 . S
O6 Dy0 2.379 . S
O6 C22 1.249 . S
O7 Dy1 2.275 1_455 S
O7 C23 1.254 . S
O8 Dy0 2.339 . S
O8 C23 1.257 . S
O9 Dy1 2.307 1_455 S
O9 C24 1.266 . S
O10 Dy0 2.298 . S
O10 C24 1.236 . S
O11 Dy1 2.395 . S
O11 C31 1.255 . S
O12 Dy1 2.379 . S
O12 C31 1.249 . S
C13 O3 1.266 . S
C13 O4 1.236 . S
O14 Dy0 2.275 . S
O14 C2 1.254 . S
O15 Dy1 2.339 . S
O15 C2 1.257 1_655 S
C16 C19 1.344 . S
C16 C20 1.328 . S
C16 C22 1.516 . S
C17 C18 1.304 . S
C17 C21 1.323 . S
C18 C17 1.304 . S
C18 C19 1.371 . S
C18 H32 0.930 . S
C19 C16 1.344 . S
C19 C18 1.371 . S
C19 H33 0.931 . S
C20 C16 1.328 . S
C20 C21 1.433 . S
C20 H34 0.931 . S
C21 C17 1.323 . S
C21 C20 1.433 . S
C21 H35 0.933 . S
C22 Dy0 2.738 . S
C22 O5 1.255 . S
C22 O6 1.249 . S
C22 C16 1.516 . S
C23 O7 1.254 . S
C23 O8 1.257 . S
C24 O9 1.266 . S
C24 O10 1.236 . S
C25 C28 1.344 . S
C25 C29 1.328 . S
C25 C31 1.516 . S
C26 C27 1.304 . S
C26 C30 1.323 . S
C27 C26 1.304 . S
C27 C28 1.371 . S
C27 H36 0.930 . S
C28 C25 1.344 . S
C28 C27 1.371 . S
C28 H37 0.931 . S
C29 C25 1.328 . S
C29 C30 1.433 . S
C29 H38 0.931 . S
C30 C26 1.323 . S
C30 C29 1.433 . S
C30 H39 0.933 . S
C31 Dy1 2.738 . S
C31 O11 1.255 . S
C31 O12 1.249 . S
C31 C25 1.516 . S
H32 C18 0.930 . S
H33 C19 0.931 . S
H34 C20 0.931 . S
H35 C21 0.933 . S
H36 C27 0.930 . S
H37 C28 0.931 . S
H38 C29 0.931 . S
H39 C30 0.933 . S
Dy40 O43 2.307 . S
Dy40 O45 2.395 1_545 S
Dy40 O46 2.379 1_545 S
Dy40 O48 2.339 . S
Dy40 O50 2.298 1_545 S
Dy40 O54 2.275 . S
Dy40 C62 2.738 1_545 S
Dy41 O44 2.298 . S
Dy41 O47 2.275 . S
Dy41 O49 2.307 1_545 S
Dy41 O51 2.395 . S
Dy41 O52 2.379 . S
Dy41 O55 2.339 . S
Dy41 C71 2.738 . S
C42 O54 1.254 . S
C42 O55 1.257 . S
O43 Dy40 2.307 . S
O43 C53 1.266 . S
O44 Dy41 2.298 . S
O44 C53 1.236 . S
O45 Dy40 2.395 1_565 S
O45 C62 1.255 . S
O46 Dy40 2.379 1_565 S
O46 C62 1.249 . S
O47 Dy41 2.275 . S
O47 C63 1.254 . S
O48 Dy40 2.339 . S
O48 C63 1.257 . S
O49 Dy41 2.307 1_565 S
O49 C64 1.266 . S
O50 Dy40 2.298 1_565 S
O50 C64 1.236 . S
O51 Dy41 2.395 . S
O51 C71 1.255 . S
O52 Dy41 2.379 . S
O52 C71 1.249 . S
C53 O43 1.266 . S
C53 O44 1.236 . S
O54 Dy40 2.275 . S
O54 C42 1.254 . S
O55 Dy41 2.339 . S
O55 C42 1.257 . S
C56 C59 1.344 . S
C56 C60 1.328 . S
C56 C62 1.516 . S
C57 C58 1.304 . S
C57 C61 1.323 . S
C58 C57 1.304 . S
C58 C59 1.371 . S
C58 H72 0.930 . S
C59 C56 1.344 . S
C59 C58 1.371 . S
C59 H73 0.931 . S
C60 C56 1.328 . S
C60 C61 1.433 . S
C60 H74 0.931 . S
C61 C57 1.323 . S
C61 C60 1.433 . S
C61 H75 0.933 . S
C62 Dy40 2.738 1_565 S
C62 O45 1.255 . S
C62 O46 1.249 . S
C62 C56 1.516 . S
C63 O47 1.254 . S
C63 O48 1.257 . S
C64 O49 1.266 . S
C64 O50 1.236 . S
C65 C68 1.344 . S
C65 C69 1.328 . S
C65 C71 1.516 . S
C66 C67 1.304 . S
C66 C70 1.323 . S
C67 C66 1.304 . S
C67 C68 1.371 . S
C67 H76 0.930 . S
C68 C65 1.344 . S
C68 C67 1.371 . S
C68 H77 0.931 . S
C69 C65 1.328 . S
C69 C70 1.433 . S
C69 H78 0.931 . S
C70 C66 1.323 . S
C70 C69 1.433 . S
C70 H79 0.933 . S
C71 Dy41 2.738 . S
C71 O51 1.255 . S
C71 O52 1.249 . S
C71 C65 1.516 . S
H72 C58 0.930 . S
H73 C59 0.931 . S
H74 C60 0.931 . S
H75 C61 0.933 . S
H76 C67 0.930 . S
H77 C68 0.931 . S
H78 C69 0.931 . S
H79 C70 0.933 . S
Dy80 O83 2.307 . S
Dy80 O85 2.395 . S
Dy80 O86 2.379 . S
Dy80 O88 2.339 . S
Dy80 O90 2.298 . S
Dy80 O94 2.275 . S
Dy80 C102 2.738 . S
Dy81 O84 2.298 . S
Dy81 O87 2.275 . S
Dy81 O89 2.307 . S
Dy81 O91 2.395 . S
Dy81 O92 2.379 . S
Dy81 O95 2.339 . S
Dy81 C111 2.738 . S
C82 O94 1.254 . S
C82 O95 1.257 . S
O83 Dy80 2.307 . S
O83 C93 1.266 . S
O84 Dy81 2.298 . S
O84 C93 1.236 . S
O85 Dy80 2.395 . S
O85 C102 1.255 . S
O86 Dy80 2.379 . S
O86 C102 1.249 . S
O87 Dy81 2.275 . S
O87 C103 1.254 . S
O88 Dy80 2.339 . S
O88 C103 1.257 . S
O89 Dy81 2.307 . S
O89 C104 1.266 . S
O90 Dy80 2.298 . S
O90 C104 1.236 . S
O91 Dy81 2.395 . S
O91 C111 1.255 . S
O92 Dy81 2.379 . S
O92 C111 1.249 . S
C93 O83 1.266 . S
C93 O84 1.236 . S
O94 Dy80 2.275 . S
O94 C82 1.254 . S
O95 Dy81 2.339 . S
O95 C82 1.257 . S
C96 C99 1.344 . S
C96 C100 1.328 . S
C96 C102 1.516 . S
C97 C98 1.304 . S
C97 C101 1.323 . S
C98 C97 1.304 . S
C98 C99 1.371 . S
C98 H112 0.930 . S
C99 C96 1.344 . S
C99 C98 1.371 . S
C99 H113 0.931 . S
C100 C96 1.328 . S
C100 C101 1.433 . S
C100 H114 0.931 . S
C101 C97 1.323 . S
C101 C100 1.433 . S
C101 H115 0.933 . S
C102 Dy80 2.738 . S
C102 O85 1.255 . S
C102 O86 1.249 . S
C102 C96 1.516 . S
C103 O87 1.254 . S
C103 O88 1.257 . S
C104 O89 1.266 . S
C104 O90 1.236 . S
C105 C108 1.344 . S
C105 C109 1.328 . S
C105 C111 1.516 . S
C106 C107 1.304 . S
C106 C110 1.323 . S
C107 C106 1.304 . S
C107 C108 1.371 . S
C107 H116 0.930 . S
C108 C105 1.344 . S
C108 C107 1.371 . S
C108 H117 0.931 . S
C109 C105 1.328 . S
C109 C110 1.433 . S
C109 H118 0.931 . S
C110 C106 1.323 . S
C110 C109 1.433 . S
C110 H119 0.933 . S
C111 Dy81 2.738 . S
C111 O91 1.255 . S
C111 O92 1.249 . S
C111 C105 1.516 . S
H112 C98 0.930 . S
H113 C99 0.931 . S
H114 C100 0.931 . S
H115 C101 0.933 . S
H116 C107 0.930 . S
H117 C108 0.931 . S
H118 C109 0.931 . S
H119 C110 0.933 . S
C120 C121 1.264 . S
C120 C125 1.479 . S
C120 C130 1.465 . S
C121 C120 1.264 . S
C121 C123 1.339 . S
C121 H148 0.931 . S
C122 C123 1.395 . S
C122 C124 1.320 . S
C123 C121 1.339 . S
C123 C122 1.395 . S
C123 H149 0.929 . S
C124 C122 1.320 . S
C124 C125 1.405 . S
C124 H150 0.930 . S
C125 C120 1.479 . S
C125 C124 1.405 . S
C125 H151 0.931 . S
U126 O127 2.454 . S
U126 O128 2.458 . S
U126 C129 2.984 . S
U126 C130 2.847 . S
U126 C143 2.882 . S
U126 O144 2.441 . S
U126 O145 2.420 . S
U126 O146 2.455 . S
U126 O147 2.449 . S
O127 U126 2.454 . S
O127 C129 1.353 . S
O128 U126 2.458 . S
O128 C129 1.286 . S
C129 U126 2.984 . S
C129 O127 1.353 . S
C129 O128 1.286 . S
C129 C131 1.363 1_545 S
C130 C120 1.465 . S
C130 U126 2.847 . S
C130 O144 1.249 . S
C130 O145 1.202 . S
C131 C129 1.363 1_565 S
C131 C133 1.408 . S
C131 C136 1.342 . S
C132 C133 1.310 . S
C132 C135 1.461 . S
C132 H152 0.932 . S
C133 C131 1.408 . S
C133 C132 1.310 . S
C133 H153 0.930 . S
C134 C135 1.474 . S
C134 C136 1.285 . S
C134 H154 0.929 . S
C135 C132 1.461 . S
C135 C134 1.474 . S
C136 C131 1.342 . S
C136 C134 1.285 . S
C136 H155 0.930 . S
C137 C140 1.424 . S
C137 C142 1.245 . S
C137 C143 1.428 . S
C138 C141 1.260 . S
C138 C142 1.477 . S
C138 H156 0.932 . S
C139 C140 1.384 . S
C139 C141 1.479 . S
C139 H157 0.929 . S
C140 C137 1.424 . S
C140 C139 1.384 . S
C140 H158 0.928 . S
C141 C138 1.260 . S
C141 C139 1.479 . S
C142 C137 1.245 . S
C142 C138 1.477 . S
C142 H159 0.932 . S
C143 U126 2.882 . S
C143 C137 1.428 . S
C143 O146 1.301 . S
C143 O147 1.282 . S
O144 U126 2.441 . S
O144 C130 1.249 . S
O145 U126 2.420 . S
O145 C130 1.202 . S
O146 U126 2.455 . S
O146 C143 1.301 . S
O147 U126 2.449 . S
O147 C143 1.282 . S
H148 C121 0.931 . S
H149 C123 0.929 . S
H150 C124 0.930 . S
H151 C125 0.931 . S
H152 C132 0.932 . S
H153 C133 0.930 . S
H154 C134 0.929 . S
H155 C136 0.930 . S
H156 C138 0.932 . S
H157 C139 0.929 . S
H158 C140 0.928 . S
H159 C142 0.932 . S
C160 C161 1.264 . S
C160 C165 1.479 . S
C160 C170 1.465 . S
C161 C160 1.264 . S
C161 C163 1.339 . S
C161 H188 0.931 . S
C162 C163 1.395 . S
C162 C164 1.320 . S
C163 C161 1.339 . S
C163 C162 1.395 . S
C163 H189 0.929 . S
C164 C162 1.320 . S
C164 C165 1.405 . S
C164 H190 0.930 . S
C165 C160 1.479 . S
C165 C164 1.405 . S
C165 H191 0.931 . S
U166 O167 2.454 . S
U166 O168 2.458 . S
U166 C169 2.984 . S
U166 C170 2.847 . S
U166 C183 2.882 . S
U166 O184 2.441 . S
U166 O185 2.420 . S
U166 O186 2.455 . S
U166 O187 2.449 . S
O167 U166 2.454 . S
O167 C169 1.353 . S
O168 U166 2.458 . S
O168 C169 1.286 . S
C169 U166 2.984 . S
C169 O167 1.353 . S
C169 O168 1.286 . S
C169 C171 1.363 . S
C170 C160 1.465 . S
C170 U166 2.847 . S
C170 O184 1.249 . S
C170 O185 1.202 . S
C171 C169 1.363 . S
C171 C173 1.408 . S
C171 C176 1.342 . S
C172 C173 1.310 . S
C172 C175 1.461 . S
C172 H192 0.932 . S
C173 C171 1.408 . S
C173 C172 1.310 . S
C173 H193 0.930 . S
C174 C175 1.474 . S
C174 C176 1.285 . S
C174 H194 0.929 . S
C175 C172 1.461 . S
C175 C174 1.474 . S
C176 C171 1.342 . S
C176 C174 1.285 . S
C176 H195 0.930 . S
C177 C180 1.424 . S
C177 C182 1.245 . S
C177 C183 1.428 . S
C178 C181 1.260 . S
C178 C182 1.477 . S
C178 H196 0.932 . S
C179 C180 1.384 . S
C179 C181 1.479 . S
C179 H197 0.929 . S
C180 C177 1.424 . S
C180 C179 1.384 . S
C180 H198 0.928 . S
C181 C178 1.260 . S
C181 C179 1.479 . S
C182 C177 1.245 . S
C182 C178 1.477 . S
C182 H199 0.932 . S
C183 U166 2.882 . S
C183 C177 1.428 . S
C183 O186 1.301 . S
C183 O187 1.282 . S
O184 U166 2.441 . S
O184 C170 1.249 . S
O185 U166 2.420 . S
O185 C170 1.202 . S
O186 U166 2.455 . S
O186 C183 1.301 . S
O187 U166 2.449 . S
O187 C183 1.282 . S
H188 C161 0.931 . S
H189 C163 0.929 . S
H190 C164 0.930 . S
H191 C165 0.931 . S
H192 C172 0.932 . S
H193 C173 0.930 . S
H194 C174 0.929 . S
H195 C176 0.930 . S
H196 C178 0.932 . S
H197 C179 0.929 . S
H198 C180 0.928 . S
H199 C182 0.932 . S
C200 C201 1.264 . S
C200 C205 1.479 . S
C200 C210 1.465 . S
C201 C200 1.264 . S
C201 C203 1.339 . S
C201 H228 0.931 . S
C202 C203 1.395 . S
C202 C204 1.320 . S
C203 C201 1.339 . S
C203 C202 1.395 . S
C203 H229 0.929 . S
C204 C202 1.320 . S
C204 C205 1.405 . S
C204 H230 0.930 . S
C205 C200 1.479 . S
C205 C204 1.405 . S
C205 H231 0.931 . S
U206 O207 2.454 . S
U206 O208 2.458 . S
U206 C209 2.984 . S
U206 C210 2.847 1_455 S
U206 C223 2.882 . S
U206 O224 2.441 1_455 S
U206 O225 2.420 1_455 S
U206 O226 2.455 . S
U206 O227 2.449 1_455 S
O207 U206 2.454 . S
O207 C209 1.353 . S
O208 U206 2.458 . S
O208 C209 1.286 . S
C209 U206 2.984 . S
C209 O207 1.353 . S
C209 O208 1.286 . S
C209 C211 1.363 . S
C210 C200 1.465 . S
C210 U206 2.847 1_655 S
C210 O224 1.249 . S
C210 O225 1.202 . S
C211 C209 1.363 . S
C211 C213 1.408 . S
C211 C216 1.342 . S
C212 C213 1.310 . S
C212 C215 1.461 . S
C212 H232 0.932 . S
C213 C211 1.408 . S
C213 C212 1.310 . S
C213 H233 0.930 . S
C214 C215 1.474 . S
C214 C216 1.285 . S
C214 H234 0.929 . S
C215 C212 1.461 . S
C215 C214 1.474 . S
C216 C211 1.342 . S
C216 C214 1.285 . S
C216 H235 0.930 . S
C217 C220 1.424 1_455 S
C217 C222 1.245 . S
C217 C223 1.428 . S
C218 C221 1.260 1_556 S
C218 C222 1.477 . S
C218 H236 0.939 . S
C219 C220 1.384 . S
C219 C221 1.479 1_656 S
C219 H237 0.929 . S
C220 C217 1.424 1_655 S
C220 C219 1.384 . S
C220 H238 0.928 . S
C221 C218 1.260 1_554 S
C221 C219 1.479 1_454 S
C222 C217 1.245 . S
C222 C218 1.477 . S
C222 H239 0.932 . S
C223 U206 2.882 . S
C223 C217 1.428 . S
C223 O226 1.301 . S
C223 O227 1.282 1_455 S
O224 U206 2.441 1_655 S
O224 C210 1.249 . S
O225 U206 2.420 1_655 S
O225 C210 1.202 . S
O226 U206 2.455 . S
O226 C223 1.301 . S
O227 U206 2.449 1_655 S
O227 C223 1.282 1_655 S
H228 C201 0.931 . S
H229 C203 0.929 . S
H230 C204 0.930 . S
H231 C205 0.931 . S
H232 C212 0.932 . S
H233 C213 0.930 . S
H234 C214 0.929 . S
H235 C216 0.930 . S
H236 C218 0.939 . S
H237 C219 0.929 . S
H238 C220 0.928 . S
H239 C222 0.932 . S
C240 C241 1.264 . S
C240 C245 1.479 . S
C240 C250 1.465 . S
C241 C240 1.264 . S
C241 C243 1.339 . S
C241 H268 0.931 . S
C242 C243 1.395 . S
C242 C244 1.320 . S
C243 C241 1.339 . S
C243 C242 1.395 . S
C243 H269 0.929 . S
C244 C242 1.320 . S
C244 C245 1.405 . S
C244 H270 0.930 . S
C245 C240 1.479 . S
C245 C244 1.405 . S
C245 H271 0.931 . S
U246 O247 2.454 . S
U246 O248 2.458 . S
U246 C249 2.984 . S
U246 C250 2.847 1_455 S
U246 C263 2.882 1_455 S
U246 O264 2.441 1_455 S
U246 O265 2.420 1_455 S
U246 O266 2.455 . S
U246 O267 2.449 1_455 S
O247 U246 2.454 . S
O247 C249 1.353 . S
O248 U246 2.458 . S
O248 C249 1.286 . S
C249 U246 2.984 . S
C249 O247 1.353 . S
C249 O248 1.286 . S
C249 C251 1.363 . S
C250 C240 1.465 . S
C250 U246 2.847 1_655 S
C250 O264 1.249 . S
C250 O265 1.202 . S
C251 C249 1.363 . S
C251 C253 1.408 . S
C251 C256 1.342 . S
C252 C253 1.310 . S
C252 C255 1.461 . S
C252 H272 0.932 . S
C253 C251 1.408 . S
C253 C252 1.310 . S
C253 H273 0.930 . S
C254 C255 1.474 . S
C254 C256 1.285 . S
C254 H274 0.929 . S
C255 C252 1.461 . S
C255 C254 1.474 . S
C256 C251 1.342 . S
C256 C254 1.285 . S
C256 H275 0.930 . S
C257 C260 1.424 . S
C257 C262 1.245 1_655 S
C257 C263 1.428 . S
C258 C261 1.260 1_455 S
C258 C262 1.477 . S
C258 H276 0.932 . S
C259 C260 1.384 . S
C259 C261 1.479 . S
C259 H277 0.929 . S
C260 C257 1.424 . S
C260 C259 1.384 . S
C260 H278 0.928 . S
C261 C258 1.260 1_655 S
C261 C259 1.479 . S
C262 C257 1.245 1_455 S
C262 C258 1.477 . S
C262 H279 0.932 . S
C263 U246 2.882 1_655 S
C263 C257 1.428 . S
C263 O266 1.301 1_655 S
C263 O267 1.282 . S
O264 U246 2.441 1_655 S
O264 C250 1.249 . S
O265 U246 2.420 1_655 S
O265 C250 1.202 . S
O266 U246 2.455 . S
O266 C263 1.301 1_455 S
O267 U246 2.449 1_655 S
O267 C263 1.282 . S
H268 C241 0.931 . S
H269 C243 0.929 . S
H270 C244 0.930 . S
H271 C245 0.931 . S
H272 C252 0.932 . S
H273 C253 0.930 . S
H274 C254 0.929 . S
H275 C256 0.930 . S
H276 C258 0.932 . S
H277 C259 0.929 . S
H278 C260 0.928 . S
H279 C262 0.932 . S
C280 C281 1.264 . S
C280 C285 1.479 . S
C280 C290 1.465 . S
C281 C280 1.264 . S
C281 C283 1.339 . S
C281 H308 0.931 . S
C282 C283 1.395 . S
C282 C284 1.320 . S
C283 C281 1.339 . S
C283 C282 1.395 . S
C283 H309 0.929 . S
C284 C282 1.320 . S
C284 C285 1.405 . S
C284 H310 0.930 . S
C285 C280 1.479 . S
C285 C284 1.405 . S
C285 H311 0.931 . S
U286 O287 2.470 . S
U286 O288 2.485 . S
U286 C289 3.009 . S
U286 C290 2.823 1_545 S
U286 C303 2.882 . S
U286 O304 2.426 1_545 S
U286 O305 2.393 1_545 S
U286 O306 2.467 . S
U286 O307 2.437 1_545 S
O287 U286 2.470 . S
O287 C289 1.353 . S
O288 U286 2.485 . S
O288 C289 1.286 . S
C289 U286 3.009 . S
C289 O287 1.353 . S
C289 O288 1.286 . S
C289 C291 1.363 . S
C290 C280 1.465 . S
C290 U286 2.823 1_565 S
C290 O304 1.249 . S
C290 O305 1.202 . S
C291 C289 1.363 . S
C291 C293 1.408 . S
C291 C296 1.342 . S
C292 C293 1.310 . S
C292 C295 1.461 . S
C292 H312 0.932 . S
C293 C291 1.408 . S
C293 C292 1.310 . S
C293 H313 0.930 . S
C294 C295 1.474 . S
C294 C296 1.285 . S
C294 H314 0.929 . S
C295 C292 1.461 . S
C295 C294 1.474 . S
C296 C291 1.342 . S
C296 C294 1.285 . S
C296 H315 0.930 . S
C297 C300 1.424 1_545 S
C297 C302 1.245 . S
C297 C303 1.428 . S
C298 C301 1.260 . S
C298 C302 1.477 . S
C298 H316 0.932 . S
C299 C300 1.384 . S
C299 C301 1.479 1_565 S
C299 H317 0.929 . S
C300 C297 1.424 1_565 S
C300 C299 1.384 . S
C300 H318 0.928 . S
C301 C298 1.260 . S
C301 C299 1.479 1_545 S
C302 C297 1.245 . S
C302 C298 1.477 . S
C302 H319 0.932 . S
C303 U286 2.882 . S
C303 C297 1.428 . S
C303 O306 1.301 . S
C303 O307 1.282 1_545 S
O304 U286 2.426 1_565 S
O304 C290 1.249 . S
O305 U286 2.393 1_565 S
O305 C290 1.202 . S
O306 U286 2.467 . S
O306 C303 1.301 . S
O307 U286 2.437 1_565 S
O307 C303 1.282 1_565 S
H308 C281 0.931 . S
H309 C283 0.929 . S
H310 C284 0.930 . S
H311 C285 0.931 . S
H312 C292 0.932 . S
H313 C293 0.930 . S
H314 C294 0.929 . S
H315 C296 0.930 . S
H316 C298 0.932 . S
H317 C299 0.929 . S
H318 C300 0.928 . S
H319 C302 0.932 . S
C320 C321 1.264 . S
C320 C325 1.479 . S
C320 C330 1.465 . S
C321 C320 1.264 . S
C321 C323 1.339 . S
C321 H348 0.931 . S
C322 C323 1.395 . S
C322 C324 1.320 . S
C323 C321 1.339 . S
C323 C322 1.395 . S
C323 H349 0.929 . S
C324 C322 1.320 . S
C324 C325 1.405 . S
C324 H350 0.930 . S
C325 C320 1.479 . S
C325 C324 1.405 . S
C325 H351 0.931 . S
U326 O327 2.454 . S
U326 O328 2.458 . S
U326 C329 2.984 . S
U326 C330 2.847 . S
U326 C343 2.882 . S
U326 O344 2.441 . S
U326 O345 2.420 . S
U326 O346 2.455 . S
U326 O347 2.449 . S
O327 U326 2.454 . S
O327 C329 1.353 . S
O328 U326 2.458 . S
O328 C329 1.286 . S
C329 U326 2.984 . S
C329 O327 1.353 . S
C329 O328 1.286 . S
C329 C331 1.363 . S
C330 C320 1.465 . S
C330 U326 2.847 . S
C330 O344 1.249 . S
C330 O345 1.202 . S
C331 C329 1.363 . S
C331 C333 1.408 . S
C331 C336 1.342 . S
C332 C333 1.310 . S
C332 C335 1.461 . S
C332 H352 0.932 . S
C333 C331 1.408 . S
C333 C332 1.310 . S
C333 H353 0.930 . S
C334 C335 1.474 . S
C334 C336 1.285 . S
C334 H354 0.929 . S
C335 C332 1.461 . S
C335 C334 1.474 . S
C336 C331 1.342 . S
C336 C334 1.285 . S
C336 H355 0.930 . S
C337 C340 1.424 . S
C337 C342 1.245 . S
C337 C343 1.428 . S
C338 C341 1.260 . S
C338 C342 1.477 . S
C338 H356 0.932 . S
C339 C340 1.384 . S
C339 C341 1.479 . S
C339 H357 0.929 . S
C340 C337 1.424 . S
C340 C339 1.384 . S
C340 H358 0.928 . S
C341 C338 1.260 . S
C341 C339 1.479 . S
C342 C337 1.245 . S
C342 C338 1.477 . S
C342 H359 0.932 . S
C343 U326 2.882 . S
C343 C337 1.428 . S
C343 O346 1.301 . S
C343 O347 1.282 . S
O344 U326 2.441 . S
O344 C330 1.249 . S
O345 U326 2.420 . S
O345 C330 1.202 . S
O346 U326 2.455 . S
O346 C343 1.301 . S
O347 U326 2.449 . S
O347 C343 1.282 . S
H348 C321 0.931 . S
H349 C323 0.929 . S
H350 C324 0.930 . S
H351 C325 0.931 . S
H352 C332 0.932 . S
H353 C333 0.930 . S
H354 C334 0.929 . S
H355 C336 0.930 . S
H356 C338 0.932 . S
H357 C339 0.929 . S
H358 C340 0.928 . S
H359 C342 0.932 . S
H360 C366 0.930 . S
H361 C370 0.930 . S
H362 C375 0.929 . S
H363 C373 0.929 . S
H364 C368 0.929 . S
H365 C374 0.929 . S
C366 H360 0.930 . S
C366 C367 1.367 . S
C366 C374 1.378 . S
C367 C366 1.367 . S
C367 C375 1.433 . S
C368 H364 0.929 . S
C368 C370 1.378 . S
C368 C372 1.350 . S
C369 C372 1.463 . S
C369 C374 1.350 . S
C369 N377 1.427 . S
C370 H361 0.930 . S
C370 C368 1.378 . S
C370 C371 1.367 . S
C371 C370 1.367 . S
C371 C373 1.433 . S
C372 C368 1.350 . S
C372 C369 1.463 . S
C372 N376 1.427 . S
C373 H363 0.929 . S
C373 C371 1.433 . S
C373 N376 1.384 . S
C374 H365 0.929 . S
C374 C366 1.378 . S
C374 C369 1.350 . S
C375 H362 0.929 . S
C375 C367 1.433 . S
C375 N377 1.384 . S
N376 C372 1.427 . S
N376 C373 1.384 . S
N377 C369 1.427 . S
N377 C375 1.384 . S
H378 C384 0.930 . S
H379 C388 0.930 . S
H380 C393 0.929 . S
H381 C391 0.929 . S
H382 C386 0.929 . S
H383 C392 0.929 . S
C384 H378 0.930 . S
C384 C385 1.367 . S
C384 C392 1.378 . S
C385 C384 1.367 . S
C385 C393 1.433 . S
C386 H382 0.929 . S
C386 C388 1.378 . S
C386 C390 1.350 . S
C387 C390 1.463 . S
C387 C392 1.350 . S
C387 N395 1.427 . S
C388 H379 0.930 . S
C388 C386 1.378 . S
C388 C389 1.367 . S
C389 C388 1.367 . S
C389 C391 1.433 . S
C390 C386 1.350 . S
C390 C387 1.463 . S
C390 N394 1.427 . S
C391 H381 0.929 . S
C391 C389 1.433 . S
C391 N394 1.384 . S
C392 H383 0.929 . S
C392 C384 1.378 . S
C392 C387 1.350 . S
C393 H380 0.929 . S
C393 C385 1.433 . S
C393 N395 1.384 . S
N394 C390 1.427 . S
N394 C391 1.384 . S
N395 C387 1.427 . S
N395 C393 1.384 . S
H396 C402 0.930 . S
H397 C406 0.930 . S
H398 C411 0.929 . S
H399 C409 0.929 . S
H400 C404 0.929 . S
H401 C410 0.929 . S
C402 H396 0.930 . S
C402 C403 1.367 . S
C402 C410 1.378 . S
C403 C402 1.367 . S
C403 C411 1.433 . S
C404 H400 0.929 . S
C404 C406 1.378 . S
C404 C408 1.350 . S
C405 C408 1.463 . S
C405 C410 1.350 . S
C405 N413 1.427 . S
C406 H397 0.930 . S
C406 C404 1.378 . S
C406 C407 1.367 . S
C407 C406 1.367 . S
C407 C409 1.433 . S
C408 C404 1.350 . S
C408 C405 1.463 . S
C408 N412 1.427 . S
C409 H399 0.929 . S
C409 C407 1.433 . S
C409 N412 1.384 . S
C410 H401 0.929 . S
C410 C402 1.378 . S
C410 C405 1.350 . S
C411 H398 0.929 . S
C411 C403 1.433 . S
C411 N413 1.384 . S
N412 C408 1.427 . S
N412 C409 1.384 . S
N413 C405 1.427 . S
N413 C411 1.384 . S
H414 C420 0.930 . S
H415 C424 0.930 . S
H416 C429 0.929 . S
H417 C427 0.929 . S
H418 C422 0.929 . S
H419 C428 0.929 . S
C420 H414 0.930 . S
C420 C421 1.367 . S
C420 C428 1.378 . S
C421 C420 1.367 . S
C421 C429 1.433 . S
C422 H418 0.929 . S
C422 C424 1.378 . S
C422 C426 1.350 . S
C423 C426 1.463 . S
C423 C428 1.350 . S
C423 N431 1.427 . S
C424 H415 0.930 . S
C424 C422 1.378 . S
C424 C425 1.367 . S
C425 C424 1.367 . S
C425 C427 1.433 . S
C426 C422 1.350 . S
C426 C423 1.463 . S
C426 N430 1.427 . S
C427 H417 0.929 . S
C427 C425 1.433 . S
C427 N430 1.384 . S
C428 H419 0.929 . S
C428 C420 1.378 . S
C428 C423 1.350 . S
C429 H416 0.929 . S
C429 C421 1.433 . S
C429 N431 1.384 . S
N430 C426 1.427 . S
N430 C427 1.384 . S
N431 C423 1.427 . S
N431 C429 1.384 . S
H432 C438 0.930 . S
H433 C442 0.930 . S
H434 C447 0.929 . S
H435 C445 0.929 . S
H436 C440 0.929 . S
H437 C446 0.929 . S
C438 H432 0.930 . S
C438 C439 1.367 . S
C438 C446 1.378 . S
C439 C438 1.367 . S
C439 C447 1.433 . S
C440 H436 0.929 . S
C440 C442 1.378 . S
C440 C444 1.350 . S
C441 C444 1.463 . S
C441 C446 1.350 . S
C441 N449 1.427 . S
C442 H433 0.930 . S
C442 C440 1.378 . S
C442 C443 1.367 . S
C443 C442 1.367 . S
C443 C445 1.433 . S
C444 C440 1.350 . S
C444 C441 1.463 . S
C444 N448 1.427 . S
C445 H435 0.929 . S
C445 C443 1.433 . S
C445 N448 1.384 . S
C446 H437 0.929 . S
C446 C438 1.378 . S
C446 C441 1.350 . S
C447 H434 0.929 . S
C447 C439 1.433 . S
C447 N449 1.384 . S
N448 C444 1.427 . S
N448 C445 1.384 . S
N449 C441 1.427 . S
N449 C447 1.384 . S
H450 C456 0.930 . S
H451 C460 0.930 . S
H452 C465 0.929 . S
H453 C463 0.929 . S
H454 C458 0.929 . S
H455 C464 0.929 . S
C456 H450 0.930 . S
C456 C457 1.367 . S
C456 C464 1.378 . S
C457 C456 1.367 . S
C457 C465 1.433 . S
C458 H454 0.929 . S
C458 C460 1.378 . S
C458 C462 1.350 . S
C459 C462 1.463 . S
C459 C464 1.350 . S
C459 N467 1.427 . S
C460 H451 0.930 . S
C460 C458 1.378 . S
C460 C461 1.367 . S
C461 C460 1.367 . S
C461 C463 1.433 . S
C462 C458 1.350 . S
C462 C459 1.463 . S
C462 N466 1.427 . S
C463 H453 0.929 . S
C463 C461 1.433 . S
C463 N466 1.384 . S
C464 H455 0.929 . S
C464 C456 1.378 . S
C464 C459 1.350 . S
C465 H452 0.929 . S
C465 C457 1.433 . S
C465 N467 1.384 . S
N466 C462 1.427 . S
N466 C463 1.384 . S
N467 C459 1.427 . S
N467 C465 1.384 . S
H468 C474 0.930 . S
H469 C478 0.930 . S
H470 C483 0.929 . S
H471 C481 0.929 . S
H472 C476 0.929 . S
H473 C482 0.929 . S
C474 H468 0.930 . S
C474 C475 1.367 . S
C474 C482 1.378 . S
C475 C474 1.367 . S
C475 C483 1.433 . S
C476 H472 0.929 . S
C476 C478 1.378 . S
C476 C480 1.350 . S
C477 C480 1.463 . S
C477 C482 1.350 . S
C477 N485 1.427 . S
C478 H469 0.930 . S
C478 C476 1.378 . S
C478 C479 1.367 . S
C479 C478 1.367 . S
C479 C481 1.433 . S
C480 C476 1.350 . S
C480 C477 1.463 . S
C480 N484 1.427 . S
C481 H471 0.929 . S
C481 C479 1.433 . S
C481 N484 1.384 . S
C482 H473 0.929 . S
C482 C474 1.378 . S
C482 C477 1.350 . S
C483 H470 0.929 . S
C483 C475 1.433 . S
C483 N485 1.384 . S
N484 C480 1.427 . S
N484 C481 1.384 . S
N485 C477 1.427 . S
N485 C483 1.384 . S
H486 C492 0.930 . S
H487 C496 0.930 . S
H488 C501 0.929 . S
H489 C499 0.929 . S
H490 C494 0.929 . S
H491 C500 0.929 . S
C492 H486 0.930 . S
C492 C493 1.367 . S
C492 C500 1.378 . S
C493 C492 1.367 . S
C493 C501 1.433 . S
C494 H490 0.929 . S
C494 C496 1.378 . S
C494 C498 1.350 . S
C495 C498 1.463 . S
C495 C500 1.350 . S
C495 N503 1.427 . S
C496 H487 0.930 . S
C496 C494 1.378 . S
C496 C497 1.367 . S
C497 C496 1.367 . S
C497 C499 1.433 . S
C498 C494 1.350 . S
C498 C495 1.463 . S
C498 N502 1.427 . S
C499 H489 0.929 . S
C499 C497 1.433 . S
C499 N502 1.384 . S
C500 H491 0.929 . S
C500 C492 1.378 . S
C500 C495 1.350 . S
C501 H488 0.929 . S
C501 C493 1.433 . S
C501 N503 1.384 . S
N502 C498 1.427 . S
N502 C499 1.384 . S
N503 C495 1.427 . S
N503 C501 1.384 . S
H504 C510 0.930 . S
H505 C514 0.930 . S
H506 C519 0.929 . S
H507 C517 0.929 . S
H508 C512 0.929 . S
H509 C518 0.929 . S
C510 H504 0.930 . S
C510 C511 1.367 . S
C510 C518 1.378 . S
C511 C510 1.367 . S
C511 C519 1.433 . S
C512 H508 0.929 . S
C512 C514 1.378 . S
C512 C516 1.350 . S
C513 C516 1.463 . S
C513 C518 1.350 . S
C513 N521 1.427 . S
C514 H505 0.930 . S
C514 C512 1.378 . S
C514 C515 1.367 . S
C515 C514 1.367 . S
C515 C517 1.433 . S
C516 C512 1.350 . S
C516 C513 1.463 . S
C516 N520 1.427 . S
C517 H507 0.929 . S
C517 C515 1.433 . S
C517 N520 1.384 . S
C518 H509 0.929 . S
C518 C510 1.378 . S
C518 C513 1.350 . S
C519 H506 0.929 . S
C519 C511 1.433 . S
C519 N521 1.384 . S
N520 C516 1.427 . S
N520 C517 1.384 . S
N521 C513 1.427 . S
N521 C519 1.384 . S
H522 C528 0.930 . S
H523 C532 0.930 . S
H524 C537 0.929 . S
H525 C535 0.929 . S
H526 C530 0.929 . S
H527 C536 0.929 . S
C528 H522 0.930 . S
C528 C529 1.367 . S
C528 C536 1.378 . S
C529 C528 1.367 . S
C529 C537 1.433 . S
C530 H526 0.929 . S
C530 C532 1.378 . S
C530 C534 1.350 . S
C531 C534 1.463 . S
C531 C536 1.350 . S
C531 N539 1.427 . S
C532 H523 0.930 . S
C532 C530 1.378 . S
C532 C533 1.367 . S
C533 C532 1.367 . S
C533 C535 1.433 . S
C534 C530 1.350 . S
C534 C531 1.463 . S
C534 N538 1.427 . S
C535 H525 0.929 . S
C535 C533 1.433 . S
C535 N538 1.384 . S
C536 H527 0.929 . S
C536 C528 1.378 . S
C536 C531 1.350 . S
C537 H524 0.929 . S
C537 C529 1.433 . S
C537 N539 1.384 . S
N538 C534 1.427 . S
N538 C535 1.384 . S
N539 C531 1.427 . S
N539 C537 1.384 . S
H540 C546 0.930 . S
H541 C550 0.930 . S
H542 C555 0.929 . S
H543 C553 0.929 . S
H544 C548 0.929 . S
H545 C554 0.929 . S
C546 H540 0.930 . S
C546 C547 1.367 . S
C546 C554 1.378 . S
C547 C546 1.367 . S
C547 C555 1.433 . S
C548 H544 0.929 . S
C548 C550 1.378 . S
C548 C552 1.350 . S
C549 C552 1.463 . S
C549 C554 1.350 . S
C549 N557 1.427 . S
C550 H541 0.930 . S
C550 C548 1.378 . S
C550 C551 1.367 . S
C551 C550 1.367 . S
C551 C553 1.433 . S
C552 C548 1.350 . S
C552 C549 1.463 . S
C552 N556 1.427 . S
C553 H543 0.929 . S
C553 C551 1.433 . S
C553 N556 1.384 . S
C554 H545 0.929 . S
C554 C546 1.378 . S
C554 C549 1.350 . S
C555 H542 0.929 . S
C555 C547 1.433 . S
C555 N557 1.384 . S
N556 C552 1.427 . S
N556 C553 1.384 . S
N557 C549 1.427 . S
N557 C555 1.384 . S
H558 C564 0.930 . S
H559 C568 0.930 . S
H560 C573 0.929 . S
H561 C571 0.929 . S
H562 C566 0.929 . S
H563 C572 0.929 . S
C564 H558 0.930 . S
C564 C565 1.367 . S
C564 C572 1.378 . S
C565 C564 1.367 . S
C565 C573 1.433 . S
C566 H562 0.929 . S
C566 C568 1.378 . S
C566 C570 1.350 . S
C567 C570 1.463 . S
C567 C572 1.350 . S
C567 N575 1.427 . S
C568 H559 0.930 . S
C568 C566 1.378 . S
C568 C569 1.367 . S
C569 C568 1.367 . S
C569 C571 1.433 . S
C570 C566 1.350 . S
C570 C567 1.463 . S
C570 N574 1.427 . S
C571 H561 0.929 . S
C571 C569 1.433 . S
C571 N574 1.384 . S
C572 H563 0.929 . S
C572 C564 1.378 . S
C572 C567 1.350 . S
C573 H560 0.929 . S
C573 C565 1.433 . S
C573 N575 1.384 . S
N574 C570 1.427 . S
N574 C571 1.384 . S
N575 C567 1.427 . S
N575 C573 1.384 . S
H576 C582 0.930 . S
H577 C586 0.930 1_655 S
H578 C591 0.929 . S
H579 C589 0.929 . S
H580 C584 0.929 1_655 S
H581 C590 0.929 . S
C582 H576 0.930 . S
C582 C583 1.367 . S
C582 C590 1.378 . S
C583 C582 1.367 . S
C583 C591 1.433 1_455 S
C584 H580 0.929 1_455 S
C584 C586 1.378 . S
C584 C588 1.350 . S
C585 C588 1.463 . S
C585 C590 1.350 . S
C585 N593 1.427 1_455 S
C586 H577 0.930 1_455 S
C586 C584 1.378 . S
C586 C587 1.367 . S
C587 C586 1.367 . S
C587 C589 1.433 . S
C588 C584 1.350 . S
C588 C585 1.463 . S
C588 N592 1.427 . S
C589 H579 0.929 . S
C589 C587 1.433 . S
C589 N592 1.384 . S
C590 H581 0.929 . S
C590 C582 1.378 . S
C590 C585 1.350 . S
C591 H578 0.929 . S
C591 C583 1.433 1_655 S
C591 N593 1.384 . S
N592 C588 1.427 . S
N592 C589 1.384 . S
N593 C585 1.427 1_655 S
N593 C591 1.384 . S
H594 C600 0.930 . S
H595 C604 0.930 . S
H596 C609 0.929 1_565 S
H597 C607 0.929 . S
H598 C602 0.929 . S
H599 C608 0.929 . S
C600 H594 0.930 . S
C600 C601 1.367 . S
C600 C608 1.378 . S
C601 C600 1.367 . S
C601 C609 1.433 . S
C602 H598 0.929 . S
C602 C604 1.378 . S
C602 C606 1.350 . S
C603 C606 1.463 . S
C603 C608 1.350 . S
C603 N611 1.427 . S
C604 H595 0.930 . S
C604 C602 1.378 . S
C604 C605 1.367 . S
C605 C604 1.367 . S
C605 C607 1.433 . S
C606 C602 1.350 . S
C606 C603 1.463 . S
C606 N610 1.427 . S
C607 H597 0.929 . S
C607 C605 1.433 . S
C607 N610 1.384 . S
C608 H599 0.929 . S
C608 C600 1.378 . S
C608 C603 1.350 . S
C609 H596 0.929 1_545 S
C609 C601 1.433 . S
C609 N611 1.384 . S
N610 C606 1.427 . S
N610 C607 1.384 . S
N611 C603 1.427 . S
N611 C609 1.384 . S
H612 C618 0.930 . S
H613 C622 0.930 . S
H614 C627 0.929 . S
H615 C625 0.929 . S
H616 C620 0.929 . S
H617 C626 0.929 . S
C618 H612 0.930 . S
C618 C619 1.367 . S
C618 C626 1.378 . S
C619 C618 1.367 . S
C619 C627 1.433 . S
C620 H616 0.929 . S
C620 C622 1.378 . S
C620 C624 1.350 . S
C621 C624 1.463 . S
C621 C626 1.350 . S
C621 N629 1.427 . S
C622 H613 0.930 . S
C622 C620 1.378 . S
C622 C623 1.367 . S
C623 C622 1.367 . S
C623 C625 1.433 . S
C624 C620 1.350 . S
C624 C621 1.463 . S
C624 N628 1.427 . S
C625 H615 0.929 . S
C625 C623 1.433 . S
C625 N628 1.384 . S
C626 H617 0.929 . S
C626 C618 1.378 . S
C626 C621 1.350 . S
C627 H614 0.929 . S
C627 C619 1.433 . S
C627 N629 1.384 . S
N628 C624 1.427 . S
N628 C625 1.384 . S
N629 C621 1.427 . S
N629 C627 1.384 . S
H630 C636 0.930 . S
H631 C640 0.930 . S
H632 C645 0.929 . S
H633 C643 0.929 . S
H634 C638 0.929 . S
H635 C644 0.929 . S
C636 H630 0.930 . S
C636 C637 1.367 1_565 S
C636 C644 1.378 . S
C637 C636 1.367 1_545 S
C637 C645 1.433 . S
C638 H634 0.929 . S
C638 C640 1.378 . S
C638 C642 1.350 . S
C639 C642 1.463 . S
C639 C644 1.350 1_545 S
C639 N647 1.427 . S
C640 H631 0.930 . S
C640 C638 1.378 . S
C640 C641 1.367 . S
C641 C640 1.367 . S
C641 C643 1.433 1_545 S
C642 C638 1.350 . S
C642 C639 1.463 . S
C642 N646 1.427 1_545 S
C643 H633 0.929 . S
C643 C641 1.433 1_565 S
C643 N646 1.384 . S
C644 H635 0.929 . S
C644 C636 1.378 . S
C644 C639 1.350 1_565 S
C645 H632 0.929 . S
C645 C637 1.433 . S
C645 N647 1.384 . S
N646 C642 1.427 1_565 S
N646 C643 1.384 . S
N647 C639 1.427 . S
N647 C645 1.384 . S
H648 C654 0.930 . S
H649 C658 0.930 . S
H650 C663 0.929 . S
H651 C661 0.929 . S
H652 C656 0.929 . S
H653 C662 0.929 . S
C654 H648 0.930 . S
C654 C655 1.367 . S
C654 C662 1.378 . S
C655 C654 1.367 . S
C655 C663 1.433 . S
C656 H652 0.929 . S
C656 C658 1.378 . S
C656 C660 1.350 . S
C657 C660 1.463 . S
C657 C662 1.350 . S
C657 N665 1.427 . S
C658 H649 0.930 . S
C658 C656 1.378 . S
C658 C659 1.367 . S
C659 C658 1.367 . S
C659 C661 1.433 . S
C660 C656 1.350 . S
C660 C657 1.463 . S
C660 N664 1.427 . S
C661 H651 0.929 . S
C661 C659 1.433 . S
C661 N664 1.384 . S
C662 H653 0.929 . S
C662 C654 1.378 . S
C662 C657 1.350 . S
C663 H650 0.929 . S
C663 C655 1.433 . S
C663 N665 1.384 . S
N664 C660 1.427 . S
N664 C661 1.384 . S
N665 C657 1.427 . S
N665 C663 1.384 . S
H666 C672 0.930 . S
H667 C676 0.930 . S
H668 C681 0.929 . S
H669 C679 0.929 . S
H670 C674 0.929 . S
H671 C680 0.929 . S
C672 H666 0.930 . S
C672 C673 1.367 1_655 S
C672 C680 1.378 . S
C673 C672 1.367 1_455 S
C673 C681 1.433 . S
C674 H670 0.929 . S
C674 C676 1.378 . S
C674 C678 1.335 1_455 S
C675 C678 1.458 1_455 S
C675 C680 1.344 1_455 S
C675 N683 1.436 . S
C676 H667 0.930 . S
C676 C674 1.378 . S
C676 C677 1.367 1_455 S
C677 C676 1.367 1_655 S
C677 C679 1.433 . S
C678 C674 1.335 1_655 S
C678 C675 1.458 1_655 S
C678 N682 1.447 . S
C679 H669 0.929 . S
C679 C677 1.433 . S
C679 N682 1.384 . S
C680 H671 0.929 . S
C680 C672 1.378 . S
C680 C675 1.344 1_655 S
C681 H668 0.929 . S
C681 C673 1.433 . S
C681 N683 1.384 . S
N682 C678 1.447 . S
N682 C679 1.384 . S
N683 C675 1.436 . S
N683 C681 1.384 . S
C367 C24 2.983 . S
C371 C335 2.933 . S
C385 C66 1.111 . S
C389 C242 1.126 . S
C403 C93 1.882 . S
C407 C282 1.849 . S
C421 C13 3.153 . S
C425 C322 3.102 . S
C443 C255 1.298 . S
C439 C57 1.320 . S
C461 C295 2.014 . S
C457 C104 2.070 . S
C475 C64 2.019 . S
C479 C162 1.969 . S
C493 C97 0.484 . S
C497 C202 0.535 . S
C511 C17 1.291 . S
C515 C135 1.295 . S
C533 C175 1.857 . S
C529 C53 1.918 . S
C551 C215 0.198 . S
C547 C106 0.336 . S
C565 C26 1.125 . S
C569 C122 1.143 . S
C587 C221 1.076 . S
C583 C2 1.098 . S
C601 C63 1.479 . S
C605 C141 1.505 . S
C619 C82 1.375 . S
C623 C181 1.371 . S
C641 C301 1.412 . S
C637 C42 1.399 . S
C659 C341 1.765 1_556 S
C655 C103 1.736 . S
C673 C23 1.485 . S
C677 C261 1.518 . S
