# Generated by pormake.
# Topology iac, (4,6)-cn, num edge types: 1
# Building blocks:
#     Node 0, Type 0, BuildingBlock: QUQFOY_clean_sbu_1, # of connection points: 4
#     Node 1, Type 0, BuildingBlock: QUQFOY_clean_sbu_1, # of connection points: 4
#     Node 2, Type 0, BuildingBlock: QUQFOY_clean_sbu_1, # of connection points: 4
#     Node 3, Type 0, BuildingBlock: QUQFOY_clean_sbu_1, # of connection points: 4
#     Node 4, Type 0, BuildingBlock: QUQFOY_clean_sbu_1, # of connection points: 4
#     Node 5, Type 0, BuildingBlock: QUQFOY_clean_sbu_1, # of connection points: 4
#     Node 6, Type 0, BuildingBlock: QUQFOY_clean_sbu_1, # of connection points: 4
#     Node 7, Type 0, BuildingBlock: QUQFOY_clean_sbu_1, # of connection points: 4
#     Node 8, Type 0, BuildingBlock: QUQFOY_clean_sbu_1, # of connection points: 4
#     Node 9, Type 0, BuildingBlock: QUQFOY_clean_sbu_1, # of connection points: 4
#     Node 10, Type 0, BuildingBlock: QUQFOY_clean_sbu_1, # of connection points: 4
#     Node 11, Type 0, BuildingBlock: QUQFOY_clean_sbu_1, # of connection points: 4
#     Node 12, Type 0, BuildingBlock: QUQFOY_clean_sbu_1, # of connection points: 4
#     Node 13, Type 0, BuildingBlock: QUQFOY_clean_sbu_1, # of connection points: 4
#     Node 14, Type 0, BuildingBlock: QUQFOY_clean_sbu_1, # of connection points: 4
#     Node 15, Type 0, BuildingBlock: QUQFOY_clean_sbu_1, # of connection points: 4
#     Node 16, Type 0, BuildingBlock: QUQFOY_clean_sbu_1, # of connection points: 4
#     Node 17, Type 0, BuildingBlock: QUQFOY_clean_sbu_1, # of connection points: 4
#     Node 18, Type 0, BuildingBlock: QUQFOY_clean_sbu_1, # of connection points: 4
#     Node 19, Type 0, BuildingBlock: QUQFOY_clean_sbu_1, # of connection points: 4
#     Node 20, Type 0, BuildingBlock: QUQFOY_clean_sbu_1, # of connection points: 4
#     Node 21, Type 0, BuildingBlock: QUQFOY_clean_sbu_1, # of connection points: 4
#     Node 22, Type 0, BuildingBlock: QUQFOY_clean_sbu_1, # of connection points: 4
#     Node 23, Type 0, BuildingBlock: QUQFOY_clean_sbu_1, # of connection points: 4
#     Node 24, Type 1, BuildingBlock: JUFBIX_clean_sbu_0, # of connection points: 6
#     Node 25, Type 1, BuildingBlock: JUFBIX_clean_sbu_0, # of connection points: 6
#     Node 26, Type 1, BuildingBlock: JUFBIX_clean_sbu_0, # of connection points: 6
#     Node 27, Type 1, BuildingBlock: JUFBIX_clean_sbu_0, # of connection points: 6
#     Node 28, Type 1, BuildingBlock: JUFBIX_clean_sbu_0, # of connection points: 6
#     Node 29, Type 1, BuildingBlock: JUFBIX_clean_sbu_0, # of connection points: 6
#     Node 30, Type 1, BuildingBlock: JUFBIX_clean_sbu_0, # of connection points: 6
#     Node 31, Type 1, BuildingBlock: JUFBIX_clean_sbu_0, # of connection points: 6
#     Node 32, Type 1, BuildingBlock: JUFBIX_clean_sbu_0, # of connection points: 6
#     Node 33, Type 1, BuildingBlock: JUFBIX_clean_sbu_0, # of connection points: 6
#     Node 34, Type 1, BuildingBlock: JUFBIX_clean_sbu_0, # of connection points: 6
#     Node 35, Type 1, BuildingBlock: JUFBIX_clean_sbu_0, # of connection points: 6
#     Node 36, Type 1, BuildingBlock: JUFBIX_clean_sbu_0, # of connection points: 6
#     Node 37, Type 1, BuildingBlock: JUFBIX_clean_sbu_0, # of connection points: 6
#     Node 38, Type 1, BuildingBlock: JUFBIX_clean_sbu_0, # of connection points: 6
#     Node 39, Type 1, BuildingBlock: JUFBIX_clean_sbu_0, # of connection points: 6
#     Edge 40, Type (0, 1), BuildingBlock: EZIPEK_clean_linker_0, # of connection points: 2
#     Edge 41, Type (0, 1), BuildingBlock: EZIPEK_clean_linker_0, # of connection points: 2
#     Edge 42, Type (0, 1), BuildingBlock: EZIPEK_clean_linker_0, # of connection points: 2
#     Edge 43, Type (0, 1), BuildingBlock: EZIPEK_clean_linker_0, # of connection points: 2
#     Edge 44, Type (0, 1), BuildingBlock: EZIPEK_clean_linker_0, # of connection points: 2
#     Edge 45, Type (0, 1), BuildingBlock: EZIPEK_clean_linker_0, # of connection points: 2
#     Edge 46, Type (0, 1), BuildingBlock: EZIPEK_clean_linker_0, # of connection points: 2
#     Edge 47, Type (0, 1), BuildingBlock: EZIPEK_clean_linker_0, # of connection points: 2
#     Edge 48, Type (0, 1), BuildingBlock: EZIPEK_clean_linker_0, # of connection points: 2
#     Edge 49, Type (0, 1), BuildingBlock: EZIPEK_clean_linker_0, # of connection points: 2
#     Edge 50, Type (0, 1), BuildingBlock: EZIPEK_clean_linker_0, # of connection points: 2
#     Edge 51, Type (0, 1), BuildingBlock: EZIPEK_clean_linker_0, # of connection points: 2
#     Edge 52, Type (0, 1), BuildingBlock: EZIPEK_clean_linker_0, # of connection points: 2
#     Edge 53, Type (0, 1), BuildingBlock: EZIPEK_clean_linker_0, # of connection points: 2
#     Edge 54, Type (0, 1), BuildingBlock: EZIPEK_clean_linker_0, # of connection points: 2
#     Edge 55, Type (0, 1), BuildingBlock: EZIPEK_clean_linker_0, # of connection points: 2
#     Edge 56, Type (0, 1), BuildingBlock: EZIPEK_clean_linker_0, # of connection points: 2
#     Edge 57, Type (0, 1), BuildingBlock: EZIPEK_clean_linker_0, # of connection points: 2
#     Edge 58, Type (0, 1), BuildingBlock: EZIPEK_clean_linker_0, # of connection points: 2
#     Edge 59, Type (0, 1), BuildingBlock: EZIPEK_clean_linker_0, # of connection points: 2
#     Edge 60, Type (0, 1), BuildingBlock: EZIPEK_clean_linker_0, # of connection points: 2
#     Edge 61, Type (0, 1), BuildingBlock: EZIPEK_clean_linker_0, # of connection points: 2
#     Edge 62, Type (0, 1), BuildingBlock: EZIPEK_clean_linker_0, # of connection points: 2
#     Edge 63, Type (0, 1), BuildingBlock: EZIPEK_clean_linker_0, # of connection points: 2
#     Edge 64, Type (0, 1), BuildingBlock: EZIPEK_clean_linker_0, # of connection points: 2
#     Edge 65, Type (0, 1), BuildingBlock: EZIPEK_clean_linker_0, # of connection points: 2
#     Edge 66, Type (0, 1), BuildingBlock: EZIPEK_clean_linker_0, # of connection points: 2
#     Edge 67, Type (0, 1), BuildingBlock: EZIPEK_clean_linker_0, # of connection points: 2
#     Edge 68, Type (0, 1), BuildingBlock: EZIPEK_clean_linker_0, # of connection points: 2
#     Edge 69, Type (0, 1), BuildingBlock: EZIPEK_clean_linker_0, # of connection points: 2
#     Edge 70, Type (0, 1), BuildingBlock: EZIPEK_clean_linker_0, # of connection points: 2
#     Edge 71, Type (0, 1), BuildingBlock: EZIPEK_clean_linker_0, # of connection points: 2
#     Edge 72, Type (0, 1), BuildingBlock: EZIPEK_clean_linker_0, # of connection points: 2
#     Edge 73, Type (0, 1), BuildingBlock: EZIPEK_clean_linker_0, # of connection points: 2
#     Edge 74, Type (0, 1), BuildingBlock: EZIPEK_clean_linker_0, # of connection points: 2
#     Edge 75, Type (0, 1), BuildingBlock: EZIPEK_clean_linker_0, # of connection points: 2
#     Edge 76, Type (0, 1), BuildingBlock: EZIPEK_clean_linker_0, # of connection points: 2
#     Edge 77, Type (0, 1), BuildingBlock: EZIPEK_clean_linker_0, # of connection points: 2
#     Edge 78, Type (0, 1), BuildingBlock: EZIPEK_clean_linker_0, # of connection points: 2
#     Edge 79, Type (0, 1), BuildingBlock: EZIPEK_clean_linker_0, # of connection points: 2
#     Edge 80, Type (0, 1), BuildingBlock: EZIPEK_clean_linker_0, # of connection points: 2
#     Edge 81, Type (0, 1), BuildingBlock: EZIPEK_clean_linker_0, # of connection points: 2
#     Edge 82, Type (0, 1), BuildingBlock: EZIPEK_clean_linker_0, # of connection points: 2
#     Edge 83, Type (0, 1), BuildingBlock: EZIPEK_clean_linker_0, # of connection points: 2
#     Edge 84, Type (0, 1), BuildingBlock: EZIPEK_clean_linker_0, # of connection points: 2
#     Edge 85, Type (0, 1), BuildingBlock: EZIPEK_clean_linker_0, # of connection points: 2
#     Edge 86, Type (0, 1), BuildingBlock: EZIPEK_clean_linker_0, # of connection points: 2
#     Edge 87, Type (0, 1), BuildingBlock: EZIPEK_clean_linker_0, # of connection points: 2
#     Edge 88, Type (0, 1), BuildingBlock: EZIPEK_clean_linker_0, # of connection points: 2
#     Edge 89, Type (0, 1), BuildingBlock: EZIPEK_clean_linker_0, # of connection points: 2
#     Edge 90, Type (0, 1), BuildingBlock: EZIPEK_clean_linker_0, # of connection points: 2
#     Edge 91, Type (0, 1), BuildingBlock: EZIPEK_clean_linker_0, # of connection points: 2
#     Edge 92, Type (0, 1), BuildingBlock: EZIPEK_clean_linker_0, # of connection points: 2
#     Edge 93, Type (0, 1), BuildingBlock: EZIPEK_clean_linker_0, # of connection points: 2
#     Edge 94, Type (0, 1), BuildingBlock: EZIPEK_clean_linker_0, # of connection points: 2
#     Edge 95, Type (0, 1), BuildingBlock: EZIPEK_clean_linker_0, # of connection points: 2
#     Edge 96, Type (0, 1), BuildingBlock: EZIPEK_clean_linker_0, # of connection points: 2
#     Edge 97, Type (0, 1), BuildingBlock: EZIPEK_clean_linker_0, # of connection points: 2
#     Edge 98, Type (0, 1), BuildingBlock: EZIPEK_clean_linker_0, # of connection points: 2
#     Edge 99, Type (0, 1), BuildingBlock: EZIPEK_clean_linker_0, # of connection points: 2
#     Edge 100, Type (0, 1), BuildingBlock: EZIPEK_clean_linker_0, # of connection points: 2
#     Edge 101, Type (0, 1), BuildingBlock: EZIPEK_clean_linker_0, # of connection points: 2
#     Edge 102, Type (0, 1), BuildingBlock: EZIPEK_clean_linker_0, # of connection points: 2
#     Edge 103, Type (0, 1), BuildingBlock: EZIPEK_clean_linker_0, # of connection points: 2
#     Edge 104, Type (0, 1), BuildingBlock: EZIPEK_clean_linker_0, # of connection points: 2
#     Edge 105, Type (0, 1), BuildingBlock: EZIPEK_clean_linker_0, # of connection points: 2
#     Edge 106, Type (0, 1), BuildingBlock: EZIPEK_clean_linker_0, # of connection points: 2
#     Edge 107, Type (0, 1), BuildingBlock: EZIPEK_clean_linker_0, # of connection points: 2
#     Edge 108, Type (0, 1), BuildingBlock: EZIPEK_clean_linker_0, # of connection points: 2
#     Edge 109, Type (0, 1), BuildingBlock: EZIPEK_clean_linker_0, # of connection points: 2
#     Edge 110, Type (0, 1), BuildingBlock: EZIPEK_clean_linker_0, # of connection points: 2
#     Edge 111, Type (0, 1), BuildingBlock: EZIPEK_clean_linker_0, # of connection points: 2
#     Edge 112, Type (0, 1), BuildingBlock: EZIPEK_clean_linker_0, # of connection points: 2
#     Edge 113, Type (0, 1), BuildingBlock: EZIPEK_clean_linker_0, # of connection points: 2
#     Edge 114, Type (0, 1), BuildingBlock: EZIPEK_clean_linker_0, # of connection points: 2
#     Edge 115, Type (0, 1), BuildingBlock: EZIPEK_clean_linker_0, # of connection points: 2
#     Edge 116, Type (0, 1), BuildingBlock: EZIPEK_clean_linker_0, # of connection points: 2
#     Edge 117, Type (0, 1), BuildingBlock: EZIPEK_clean_linker_0, # of connection points: 2
#     Edge 118, Type (0, 1), BuildingBlock: EZIPEK_clean_linker_0, # of connection points: 2
#     Edge 119, Type (0, 1), BuildingBlock: EZIPEK_clean_linker_0, # of connection points: 2
#     Edge 120, Type (0, 1), BuildingBlock: EZIPEK_clean_linker_0, # of connection points: 2
#     Edge 121, Type (0, 1), BuildingBlock: EZIPEK_clean_linker_0, # of connection points: 2
#     Edge 122, Type (0, 1), BuildingBlock: EZIPEK_clean_linker_0, # of connection points: 2
#     Edge 123, Type (0, 1), BuildingBlock: EZIPEK_clean_linker_0, # of connection points: 2
#     Edge 124, Type (0, 1), BuildingBlock: EZIPEK_clean_linker_0, # of connection points: 2
#     Edge 125, Type (0, 1), BuildingBlock: EZIPEK_clean_linker_0, # of connection points: 2
#     Edge 126, Type (0, 1), BuildingBlock: EZIPEK_clean_linker_0, # of connection points: 2
#     Edge 127, Type (0, 1), BuildingBlock: EZIPEK_clean_linker_0, # of connection points: 2
#     Edge 128, Type (0, 1), BuildingBlock: EZIPEK_clean_linker_0, # of connection points: 2
#     Edge 129, Type (0, 1), BuildingBlock: EZIPEK_clean_linker_0, # of connection points: 2
#     Edge 130, Type (0, 1), BuildingBlock: EZIPEK_clean_linker_0, # of connection points: 2
#     Edge 131, Type (0, 1), BuildingBlock: EZIPEK_clean_linker_0, # of connection points: 2
#     Edge 132, Type (0, 1), BuildingBlock: EZIPEK_clean_linker_0, # of connection points: 2
#     Edge 133, Type (0, 1), BuildingBlock: EZIPEK_clean_linker_0, # of connection points: 2
#     Edge 134, Type (0, 1), BuildingBlock: EZIPEK_clean_linker_0, # of connection points: 2
#     Edge 135, Type (0, 1), BuildingBlock: EZIPEK_clean_linker_0, # of connection points: 2
# Relax obj value: 0.269
# Max RMSD: 0.257
# Mean RMSD: 0.173
data_MOF--net-iac--node1-QUQFOY_clean_sbu_1--node2-JUFBIX_clean_sbu_0--edge1-EZIPEK_clean_linker_0
_symmetry_space_group_name_H-M    P1
_symmetry_Int_Tables_number       1
_symmetry_cell_setting            triclinic
loop_
_symmetry_equiv_pos_as_xyz
'x, y, z'
_cell_length_a     41.097792
_cell_length_b     42.353356
_cell_length_c     41.981657
_cell_angle_alpha  90.319579
_cell_angle_beta   88.223639
_cell_angle_gamma 91.580621
loop_
_atom_site_label
_atom_site_type_symbol
_atom_site_fract_x
_atom_site_fract_y
_atom_site_fract_z
_atom_type_partial_charge
O0 O 0.02899 0.22593 0.1598 0.0
Cd1 Cd 0.02926 0.26382 0.1938 0.0
Cd2 Cd 0.06744 0.29374 0.13837 0.0
O3 O 0.05376 0.24824 0.11739 0.0
O4 O 0.99455 0.25357 0.22867 0.0
O5 O 0.9907 0.29379 0.1963 0.0
C6 C 0.9782 0.27733 0.21969 0.0
C7 C 0.06075 0.34568 0.11277 0.0
C8 C 0.03926 0.22409 0.13069 0.0
C9 C 0.10124 0.28496 0.20429 0.0
O10 O 0.10302 0.29207 0.1746 0.0
O11 O 0.07385 0.27531 0.2166 0.0
O12 O 0.08515 0.3279 0.10632 0.0
O13 O 0.03935 0.33359 0.13274 0.0
O14 O 0.1329 0.77548 0.44514 0.0
Cd15 Cd 0.10058 0.76981 0.48259 0.0
Cd16 Cd 0.05334 0.78385 0.43011 0.0
O17 O 0.09586 0.76885 0.40828 0.0
O18 O 0.11312 0.73365 0.50846 0.0
O19 O 0.06876 0.73468 0.4794 0.0
C20 C 0.08692 0.71972 0.49855 0.0
C21 C 0.01132 0.79153 0.39559 0.0
C22 C 0.1253 0.76989 0.41658 0.0
C23 C 0.05777 0.81987 0.49685 0.0
O24 O 0.04752 0.81276 0.46942 0.0
O25 O 0.08148 0.80574 0.50824 0.0
O26 O 0.03563 0.81123 0.39681 0.0
O27 O 0.01117 0.76664 0.41323 0.0
O28 O 0.52382 0.73185 0.65567 0.0
Cd29 Cd 0.52369 0.76803 0.69033 0.0
Cd30 Cd 0.56036 0.80319 0.63671 0.0
O31 O 0.54716 0.75745 0.61448 0.0
O32 O 0.48933 0.75539 0.72457 0.0
O33 O 0.48408 0.79658 0.69366 0.0
C34 C 0.47195 0.77861 0.71606 0.0
C35 C 0.55081 0.85565 0.61306 0.0
C36 C 0.53376 0.73205 0.62653 0.0
C37 C 0.59548 0.79052 0.70134 0.0
O38 O 0.59685 0.80141 0.67276 0.0
O39 O 0.56887 0.77781 0.71253 0.0
O40 O 0.57407 0.83784 0.60308 0.0
O41 O 0.53218 0.84374 0.63557 0.0
O42 O 0.64175 0.27723 0.94392 0.0
Cd43 Cd 0.60311 0.26983 0.97439 0.0
Cd44 Cd 0.56668 0.27971 0.92224 0.0
O45 O 0.61115 0.26904 0.90207 0.0
O46 O 0.60997 0.23288 1.00131 0.0
O47 O 0.57524 0.23351 0.96201 0.0
C48 C 0.59013 0.21763 0.98298 0.0
C49 C 0.5227 0.2753 0.88911 0.0
C50 C 0.63888 0.27247 0.9143 0.0
C51 C 0.56797 0.32661 0.97859 0.0
O52 O 0.56158 0.31908 0.95014 0.0
O53 O 0.58356 0.30834 0.99597 0.0
O54 O 0.54581 0.29584 0.88407 0.0
O55 O 0.52514 0.2557 0.91228 0.0
O56 O 0.19713 0.9877 0.22491 0.0
Cd57 Cd 0.23136 0.99001 0.25908 0.0
Cd58 Cd 0.17704 0.99905 0.29651 0.0
O59 O 0.16025 0.97114 0.26023 0.0
O60 O 0.26313 0.9563 0.25462 0.0
O61 O 0.22707 0.9606 0.2952 0.0
C62 C 0.24983 0.94507 0.2807 0.0
C63 C 0.13995 1.00089 0.33961 0.0
C64 C 0.16903 0.97622 0.23154 0.0
C65 C 0.22619 0.05359 0.27816 0.0
O66 O 0.19837 0.0433 0.28814 0.0
O67 O 0.24752 0.03412 0.26926 0.0
O68 O 0.13344 0.01208 0.31227 0.0
O69 O 0.16757 0.98762 0.34256 0.0
O70 O 0.25376 0.92286 0.63145 0.0
Cd71 Cd 0.25197 0.94404 0.58794 0.0
Cd72 Cd 0.28747 0.89098 0.56787 0.0
O73 O 0.27683 0.87898 0.61438 0.0
O74 O 0.21654 0.97412 0.59137 0.0
O75 O 0.21661 0.93249 0.55852 0.0
C76 C 0.20281 0.95756 0.56945 0.0
C77 C 0.29202 0.85207 0.5293 0.0
C78 C 0.26399 0.89544 0.6365 0.0
C79 C 0.31596 0.95714 0.55697 0.0
O80 O 0.3192 0.92748 0.55633 0.0
O81 O 0.29053 0.96933 0.56878 0.0
O82 O 0.31297 0.85501 0.55134 0.0
O83 O 0.26685 0.86967 0.53044 0.0
O84 O 0.39359 0.06429 0.71005 0.0
Cd85 Cd 0.36241 0.06969 0.74897 0.0
Cd86 Cd 0.42151 0.0481 0.77945 0.0
O87 O 0.43998 0.05554 0.73387 0.0
O88 O 0.32552 0.09399 0.73344 0.0
O89 O 0.35971 0.11171 0.77002 0.0
C90 C 0.33465 0.11594 0.75285 0.0
C91 C 0.45375 0.05216 0.82397 0.0
C92 C 0.42414 0.06042 0.70892 0.0
C93 C 0.35713 0.01066 0.78635 0.0
O94 O 0.3878 0.0126 0.78841 0.0
O95 O 0.34159 0.03188 0.77271 0.0
O96 O 0.45746 0.02983 0.80338 0.0
O97 O 0.43432 0.07451 0.81741 0.0
O98 O 0.29084 0.17724 0.10679 0.0
Cd99 Cd 0.29258 0.14363 0.06931 0.0
Cd100 Cd 0.26072 0.19801 0.03696 0.0
O101 O 0.27295 0.2196 0.08247 0.0
O102 O 0.32232 0.10939 0.08438 0.0
O103 O 0.33586 0.14034 0.04401 0.0
C104 C 0.34376 0.11795 0.06284 0.0
C105 C 0.27301 0.22238 0.98447 0.0
C106 C 0.2836 0.20642 0.10758 0.0
C107 C 0.22225 0.13283 0.0455 0.0
O108 O 0.22248 0.16239 0.03883 0.0
O109 O 0.24834 0.12072 0.05528 0.0
O110 O 0.2485 0.23036 1.00248 0.0
O111 O 0.29141 0.20149 0.99647 0.0
O112 O 0.76387 0.43764 0.14229 0.0
Cd113 Cd 0.76396 0.4681 0.10452 0.0
Cd114 Cd 0.7877 0.41121 0.06944 0.0
O115 O 0.77456 0.39445 0.11398 0.0
O116 O 0.73292 0.50262 0.1101 0.0
O117 O 0.7277 0.46343 0.07495 0.0
C118 C 0.71752 0.48981 0.08675 0.0
C119 C 0.79653 0.37426 0.02926 0.0
C120 C 0.76704 0.40794 0.14017 0.0
C121 C 0.82615 0.47531 0.06903 0.0
O122 O 0.822 0.44648 0.06171 0.0
O123 O 0.80581 0.48933 0.08692 0.0
O124 O 0.81501 0.37623 0.05332 0.0
O125 O 0.77121 0.3916 0.02895 0.0
O126 O 0.90458 0.55929 0.19007 0.0
Cd127 Cd 0.87081 0.56885 0.22499 0.0
Cd128 Cd 0.91913 0.55401 0.26686 0.0
O129 O 0.94439 0.5593 0.22436 0.0
O130 O 0.84561 0.60616 0.21549 0.0
O131 O 0.8825 0.60423 0.25346 0.0
C132 C 0.86092 0.61958 0.23858 0.0
C133 C 0.94962 0.55814 0.31212 0.0
C134 C 0.93463 0.55894 0.196 0.0
C135 C 0.85372 0.51649 0.26611 0.0
O136 O 0.88279 0.52055 0.27488 0.0
O137 O 0.84202 0.53425 0.24547 0.0
O138 O 0.95273 0.53489 0.2926 0.0
O139 O 0.93027 0.58043 0.30526 0.0
O140 O 0.7881 0.67561 0.60211 0.0
Cd141 Cd 0.78921 0.64172 0.56425 0.0
Cd142 Cd 0.75723 0.697 0.53288 0.0
O143 O 0.7691 0.71794 0.57843 0.0
O144 O 0.82017 0.60701 0.57685 0.0
O145 O 0.83143 0.63901 0.53674 0.0
C146 C 0.84027 0.61598 0.55428 0.0
C147 C 0.76923 0.72196 0.4808 0.0
C148 C 0.78025 0.70469 0.60324 0.0
C149 C 0.71819 0.63235 0.54092 0.0
O150 O 0.71897 0.66188 0.53432 0.0
O151 O 0.74405 0.61968 0.55069 0.0
O152 O 0.74435 0.72916 0.49867 0.0
O153 O 0.78816 0.70158 0.49288 0.0
O154 O 0.69823 0.49908 0.71218 0.0
Cd155 Cd 0.73771 0.49934 0.74081 0.0
Cd156 Cd 0.68973 0.51174 0.78945 0.0
O157 O 0.66204 0.49828 0.75228 0.0
O158 O 0.76605 0.46294 0.73443 0.0
O159 O 0.73633 0.47201 0.77865 0.0
C160 C 0.75697 0.45485 0.76311 0.0
C161 C 0.65971 0.51467 0.8369 0.0
C162 C 0.669 0.49703 0.72274 0.0
C163 C 0.7483 0.55796 0.77183 0.0
O164 O 0.72227 0.54918 0.78668 0.0
O165 O 0.7611 0.54083 0.75032 0.0
O166 O 0.65521 0.53369 0.81391 0.0
O167 O 0.68096 0.49302 0.83306 0.0
O168 O 0.09017 0.7826 0.91316 0.0
Cd169 Cd 0.05583 0.78105 0.95103 0.0
Cd170 Cd 0.02007 0.81595 0.89287 0.0
O171 O 0.06642 0.80483 0.87212 0.0
O172 O 0.07536 0.75063 0.98419 0.0
O173 O 0.03177 0.73733 0.95832 0.0
C174 C 0.0537 0.72901 0.97783 0.0
C175 C 0.96973 0.80935 0.86323 0.0
C176 C 0.09136 0.79268 0.88448 0.0
C177 C 0.03601 0.85383 0.95605 0.0
O178 O 0.02422 0.85211 0.92808 0.0
O179 O 0.04696 0.82886 0.96936 0.0
O180 O 0.99046 0.83226 0.85773 0.0
O181 O 0.97722 0.78986 0.88525 0.0
O182 O 0.02608 0.23281 0.62295 0.0
Cd183 Cd 0.02065 0.26212 0.66156 0.0
Cd184 Cd 0.03748 0.30862 0.62508 0.0
O185 O 0.04551 0.27235 0.59368 0.0
O186 O 0.99055 0.2434 0.69385 0.0
O187 O 0.98306 0.2897 0.67037 0.0
C188 C 0.97424 0.26888 0.6916 0.0
C189 C 0.02112 0.35538 0.60225 0.0
C190 C 0.0391 0.24319 0.59715 0.0
C191 C 0.07873 0.29859 0.68022 0.0
O192 O 0.07298 0.31718 0.65767 0.0
O193 O 0.06167 0.27365 0.68493 0.0
O194 O 0.04676 0.34103 0.59283 0.0
O195 O 1.00305 0.34203 0.62418 0.0
O196 O 0.53774 0.23305 0.43011 0.0
Cd197 Cd 0.5401 0.26913 0.39529 0.0
Cd198 Cd 0.50472 0.30294 0.44654 0.0
O199 O 0.51378 0.25792 0.47069 0.0
O200 O 0.57538 0.257 0.36245 0.0
O201 O 0.58068 0.29875 0.39335 0.0
C202 C 0.59319 0.28075 0.37151 0.0
C203 C 0.51681 0.3572 0.46663 0.0
C204 C 0.52645 0.23261 0.45888 0.0
C205 C 0.46969 0.28904 0.38218 0.0
O206 O 0.4685 0.29973 0.41084 0.0
O207 O 0.49621 0.27746 0.37101 0.0
O208 O 0.49166 0.34046 0.47626 0.0
O209 O 0.53622 0.34286 0.44686 0.0
O210 O 0.51315 0.75162 0.11537 0.0
Cd211 Cd 0.50396 0.76646 0.16117 0.0
Cd212 Cd 0.52985 0.81984 0.14403 0.0
O213 O 0.54085 0.79542 0.10314 0.0
O214 O 0.46942 0.74104 0.18304 0.0
O215 O 0.46801 0.79327 0.17709 0.0
C216 C 0.45576 0.76753 0.1895 0.0
C217 C 0.51277 0.87045 0.13477 0.0
C218 C 0.53192 0.76739 0.09639 0.0
C219 C 0.56237 0.78556 0.19489 0.0
O220 O 0.56032 0.81199 0.18111 0.0
O221 O 0.54253 0.76303 0.18933 0.0
O222 O 0.54274 0.86298 0.13086 0.0
O223 O 0.49202 0.84936 0.14541 0.0
O224 O 0.92881 0.08518 0.68099 0.0
Cd225 Cd 0.89431 0.08146 0.71691 0.0
Cd226 Cd 0.94357 0.05548 0.75007 0.0
O227 O 0.96954 0.06842 0.70894 0.0
O228 O 0.86361 0.11663 0.72152 0.0
O229 O 0.89789 0.10235 0.7585 0.0
C230 C 0.8744 0.11971 0.75005 0.0
C231 C 0.96696 0.06198 0.79967 0.0
C232 C 0.95848 0.07792 0.68279 0.0
C233 C 0.88202 0.01653 0.73488 0.0
O234 O 0.90952 0.01855 0.74794 0.0
O235 O 0.87066 0.03946 0.72003 0.0
O236 O 0.9759 0.03966 0.78064 0.0
O237 O 0.9458 0.08139 0.79014 0.0
O238 O 0.84077 0.17906 0.57484 0.0
Cd239 Cd 0.83472 0.14074 0.54554 0.0
Cd240 Cd 0.7934 0.1734 0.51645 0.0
O241 O 0.79571 0.19936 0.55772 0.0
O242 O 0.87435 0.11535 0.5439 0.0
O243 O 0.85415 0.13917 0.50191 0.0
C244 C 0.87604 0.12201 0.51389 0.0
C245 C 0.79755 0.1994 0.46792 0.0
C246 C 0.81772 0.19824 0.57819 0.0
C247 C 0.76792 0.11388 0.54337 0.0
O248 O 0.76387 0.13403 0.5217 0.0
O249 O 0.79471 0.11288 0.55746 0.0
O250 O 0.77102 0.19958 0.48511 0.0
O251 O 0.8219 0.18448 0.47831 0.0
O252 O 0.66681 0.02946 0.2592 0.0
Cd253 Cd 0.7049 0.0189 0.28697 0.0
Cd254 Cd 0.67794 0.05317 0.33041 0.0
O255 O 0.64652 0.06276 0.29462 0.0
O256 O 0.72232 0.97872 0.27236 0.0
O257 O 0.70074 0.98659 0.32105 0.0
C258 C 0.71493 0.96832 0.30058 0.0
C259 C 0.65262 0.04309 0.37936 0.0
C260 C 0.64597 0.04969 0.26739 0.0
C261 C 0.74638 0.07097 0.30898 0.0
O262 O 0.72331 0.07496 0.32938 0.0
O263 O 0.7432 0.05009 0.28755 0.0
O264 O 0.65507 0.07129 0.36805 0.0
O265 O 0.6656 0.02043 0.36326 0.0
O266 O 0.77694 0.90607 0.10537 0.0
Cd267 Cd 0.77372 0.94192 0.07073 0.0
Cd268 Cd 0.80488 0.89179 0.03073 0.0
O269 O 0.79848 0.86724 0.07656 0.0
O270 O 0.74029 0.97387 0.08688 0.0
O271 O 0.7328 0.94485 0.04399 0.0
C272 C 0.72193 0.966 0.06359 0.0
C273 C 0.79149 0.87023 0.97735 0.0
C274 C 0.78789 0.87805 0.1037 0.0
C275 C 0.84359 0.95554 0.04419 0.0
O276 O 0.84214 0.92798 0.0314 0.0
O277 O 0.81874 0.96609 0.05959 0.0
O278 O 0.81723 0.86278 0.99223 0.0
O279 O 0.77233 0.88882 0.9931 0.0
O280 O 0.34336 0.67959 0.07945 0.0
Cd281 Cd 0.35254 0.64369 0.04757 0.0
Cd282 Cd 0.30798 0.67 0.0131 0.0
O283 O 0.30927 0.70345 0.04846 0.0
O284 O 0.39743 0.62778 0.04499 0.0
O285 O 0.37235 0.64938 1.00455 0.0
C286 C 0.39711 0.63522 0.01515 0.0
C287 C 0.30476 0.68869 0.96134 0.0
C288 C 0.32305 0.70109 0.07494 0.0
C289 C 0.29184 0.60713 0.04369 0.0
O290 O 0.28259 0.62949 0.02638 0.0
O291 O 0.32054 0.60673 0.05379 0.0
O292 O 0.28049 0.69069 0.9813 0.0
O293 O 0.33045 0.67506 0.97033 0.0
O294 O 0.16581 0.50588 0.74797 0.0
Cd295 Cd 0.20084 0.50696 0.78249 0.0
Cd296 Cd 0.15069 0.51688 0.81277 0.0
O297 O 0.12918 0.48636 0.78159 0.0
O298 O 0.20797 0.46919 0.80874 0.0
O299 O 0.24169 0.48637 0.7698 0.0
C300 C 0.23486 0.46633 0.79228 0.0
C301 C 0.14243 0.51137 0.86639 0.0
C302 C 0.13706 0.49501 0.75358 0.0
C303 C 0.19174 0.5708 0.79259 0.0
O304 O 0.16226 0.56125 0.79463 0.0
O305 O 0.21404 0.5513 0.79641 0.0
O306 O 0.12023 0.52268 0.84901 0.0
O307 O 0.16955 0.50262 0.85319 0.0
O308 O 0.27388 0.40609 0.60779 0.0
Cd309 Cd 0.2699 0.44132 0.57204 0.0
Cd310 Cd 0.30537 0.39241 0.53426 0.0
O311 O 0.29885 0.36861 0.57982 0.0
O312 O 0.23441 0.4719 0.58666 0.0
O313 O 0.22999 0.4429 0.54339 0.0
C314 C 0.21752 0.46375 0.5624 0.0
C315 C 0.29304 0.36846 0.48215 0.0
C316 C 0.28657 0.37879 0.60646 0.0
C317 C 0.33988 0.45817 0.54642 0.0
O318 O 0.34076 0.43026 0.53448 0.0
O319 O 0.31383 0.46742 0.5608 0.0
O320 O 0.31904 0.3624 0.49726 0.0
O321 O 0.27324 0.38721 0.49687 0.0
O322 O 0.43429 0.58638 0.17386 0.0
Cd323 Cd 0.39918 0.57423 0.20773 0.0
Cd324 Cd 0.45193 0.55682 0.24203 0.0
O325 O 0.4767 0.57368 0.20195 0.0
O326 O 0.3618 0.60324 0.20998 0.0
O327 O 0.39516 0.5952 0.24954 0.0
C328 C 0.36963 0.60839 0.23921 0.0
C329 C 0.47074 0.56761 0.29278 0.0
C330 C 0.46479 0.58354 0.17633 0.0
C331 C 0.3992 0.50776 0.22552 0.0
O332 O 0.4257 0.51472 0.23906 0.0
O333 O 0.38428 0.52817 0.21 0.0
O334 O 0.48495 0.54739 0.27443 0.0
O335 O 0.44695 0.58297 0.28176 0.0
Co336 Co 0.03059 0.05053 0.01666 0.0
C337 C 0.02646 0.09641 0.06854 0.0
Co338 Co 0.03803 0.03127 0.06373 0.0
C339 C 0.01325 0.05531 0.95064 0.0
C340 C 0.0315 0.09928 0.96923 0.0
N341 N 0.02487 0.06887 0.97732 0.0
N342 N 0.0126 0.07608 0.92649 0.0
C343 C 0.02399 0.10375 0.93795 0.0
H344 H 1.00513 0.03085 0.94894 0.0
H345 H 0.04082 0.1173 0.98504 0.0
C346 C 0.0442 0.9846 0.01347 0.0
N347 N 0.04358 0.01169 0.10226 0.0
C348 C 0.06939 0.01429 0.12114 0.0
C349 C 0.02534 0.98729 0.11454 0.0
N350 N 0.06806 0.99229 0.14407 0.0
C351 C 0.0404 0.97533 0.14041 0.0
C352 C 0.97247 0.02348 0.0435 0.0
O353 O 0.03743 0.00825 0.99619 0.0
O354 O 0.04721 0.99065 0.04295 0.0
O355 O 0.99176 0.0188 0.06607 0.0
O356 O 0.98374 0.03928 0.01963 0.0
O357 O 0.02972 0.07161 0.08521 0.0
H358 H 1.00346 0.97741 0.1044 0.0
H359 H 0.08958 0.03097 0.11754 0.0
O360 O 0.02416 0.09248 0.03835 0.0
O361 O 0.07737 0.06186 0.01306 0.0
O362 O 0.08414 0.04461 0.061 0.0
C363 C 0.09597 0.05933 0.03667 0.0
H364 H 0.02638 0.12557 0.92467 0.0
H365 H 0.0325 0.95512 0.15461 0.0
Co366 Co 0.30266 0.76113 0.32765 0.0
C367 C 0.29764 0.7002 0.30428 0.0
Co368 Co 0.27774 0.75759 0.2823 0.0
C369 C 0.30576 0.78022 0.39211 0.0
C370 C 0.34592 0.75091 0.37982 0.0
N371 N 0.31919 0.7637 0.36783 0.0
N372 N 0.32281 0.77821 0.4187 0.0
C373 C 0.34827 0.75995 0.41135 0.0
H374 H 0.28423 0.79419 0.39019 0.0
H375 H 0.36285 0.73652 0.3664 0.0
C376 C 0.28383 0.81845 0.30552 0.0
N377 N 0.26151 0.75608 0.24194 0.0
C378 C 0.27594 0.74088 0.21731 0.0
C379 C 0.23938 0.77454 0.22861 0.0
N380 N 0.26453 0.74975 0.18927 0.0
C381 C 0.24127 0.7707 0.19594 0.0
C382 C 0.23398 0.7531 0.3306 0.0
O383 O 0.29974 0.80577 0.32717 0.0
O384 O 0.27141 0.80149 0.28386 0.0
O385 O 0.23609 0.75034 0.30057 0.0
O386 O 0.25973 0.75779 0.34616 0.0
O387 O 0.28439 0.71367 0.28122 0.0
H388 H 0.2246 0.79136 0.2415 0.0
H389 H 0.29605 0.72523 0.2196 0.0
O390 O 0.30601 0.71678 0.32806 0.0
O391 O 0.34536 0.76421 0.30845 0.0
O392 O 0.31958 0.7647 0.26362 0.0
C393 C 0.34609 0.76562 0.27821 0.0
H394 H 0.36743 0.75435 0.42732 0.0
H395 H 0.22789 0.78328 0.17844 0.0
Co396 Co 0.51477 0.03976 0.52762 0.0
C397 C 0.53259 0.10586 0.52293 0.0
Co398 Co 0.55612 0.05258 0.55679 0.0
C399 C 0.45363 0.01212 0.5157 0.0
C400 C 0.46779 0.04431 0.47838 0.0
N401 N 0.47881 0.03002 0.50447 0.0
N402 N 0.42692 0.01562 0.49865 0.0
C403 C 0.43547 0.03572 0.47496 0.0
H404 H 0.45367 0.99953 0.53807 0.0
H405 H 0.48133 0.06199 0.46455 0.0
C406 C 0.53869 0.98648 0.56101 0.0
N407 N 0.59197 0.06164 0.58039 0.0
C408 C 0.62035 0.07429 0.5692 0.0
C409 C 0.59822 0.05103 0.60983 0.0
N410 N 0.64415 0.07124 0.59 0.0
C411 C 0.63063 0.05683 0.61579 0.0
C412 C 0.49837 0.0562 0.59039 0.0
O413 O 0.51766 0.99458 0.54092 0.0
O414 O 0.55806 0.00824 0.57078 0.0
O415 O 0.52874 0.06132 0.59261 0.0
O416 O 0.48711 0.04751 0.56389 0.0
O417 O 0.55441 0.09767 0.54224 0.0
H418 H 0.58094 0.03798 0.62501 0.0
H419 H 0.6242 0.08363 0.54543 0.0
O420 O 0.51212 0.08432 0.51469 0.0
O421 O 0.54188 0.03245 0.49135 0.0
O422 O 0.58359 0.04346 0.52097 0.0
C423 C 0.57239 0.03616 0.49403 0.0
H424 H 0.41896 0.04529 0.45813 0.0
H425 H 0.64359 0.04973 0.63652 0.0
Co426 Co 0.31915 0.29548 0.79328 0.0
C427 C 0.29458 0.31593 0.73378 0.0
Co428 Co 0.26595 0.29558 0.79427 0.0
C429 C 0.38368 0.2941 0.81733 0.0
C430 C 0.38355 0.28691 0.76682 0.0
N431 N 0.36395 0.29361 0.79229 0.0
N432 N 0.41453 0.2877 0.8085 0.0
C433 C 0.41483 0.28338 0.77677 0.0
H434 H 0.3756 0.298 0.84177 0.0
H435 H 0.37544 0.2833 0.74279 0.0
C436 C 0.28992 0.27542 0.85321 0.0
N437 N 0.22128 0.29631 0.79492 0.0
C438 C 0.2029 0.31218 0.7748 0.0
C439 C 0.20036 0.27611 0.81039 0.0
N440 N 0.1718 0.30164 0.77598 0.0
C441 C 0.1698 0.27927 0.7986 0.0
C442 C 0.29064 0.23892 0.77516 0.0
O443 O 0.31712 0.28125 0.83852 0.0
O444 O 0.26411 0.28026 0.83821 0.0
O445 O 0.26403 0.2531 0.77912 0.0
O446 O 0.31732 0.25338 0.78013 0.0
O447 O 0.26798 0.31151 0.74982 0.0
H448 H 0.20737 0.25797 0.82664 0.0
H449 H 0.21254 0.32849 0.75692 0.0
O450 O 0.32041 0.30923 0.74811 0.0
O451 O 0.32126 0.33845 0.8063 0.0
O452 O 0.2678 0.33748 0.80893 0.0
C453 C 0.29472 0.35255 0.8115 0.0
H454 H 0.43585 0.27699 0.7622 0.0
H455 H 0.14877 0.2639 0.80349 0.0
Co456 Co 0.02365 0.01871 0.5071 0.0
C457 C 0.01955 0.05867 0.56004 0.0
Co458 Co 0.05281 0.06272 0.50241 0.0
C459 C 0.01214 0.9527 0.50816 0.0
C460 C 0.97283 0.97645 0.53154 0.0
N461 N 1.00024 0.9815 0.51346 0.0
N462 N 0.99414 0.92997 0.52308 0.0
C463 C 0.96927 0.9446 0.53792 0.0
H464 H 0.0355 0.94871 0.49644 0.0
H465 H 0.95816 0.99492 0.5419 0.0
C466 C 0.05822 0.02333 0.45019 0.0
N467 N 0.07504 0.1006 0.4973 0.0
C468 C 0.06201 0.1277 0.50749 0.0
C469 C 0.10655 0.10802 0.4901 0.0
N470 N 0.0841 0.15139 0.50872 0.0
C471 C 0.11229 0.13959 0.49728 0.0
C472 C 0.08724 0.01505 0.52731 0.0
O473 O 0.03739 0.00576 0.46521 0.0
O474 O 0.06741 0.04951 0.46219 0.0
O475 O 0.08946 0.04424 0.52038 0.0
O476 O 0.06067 0.99992 0.52336 0.0
O477 O 0.03853 0.07624 0.54342 0.0
H478 H 0.12468 0.09107 0.48307 0.0
H479 H 0.03744 0.1293 0.51737 0.0
O480 O 0.01053 0.03198 0.54909 0.0
O481 O 0.98704 0.03716 0.49051 0.0
O482 O 0.01602 0.08066 0.48425 0.0
C483 C 0.98935 0.06545 0.4808 0.0
H484 H 0.95142 0.93343 0.55401 0.0
H485 H 0.13576 0.15181 0.49748 0.0
Co486 Co 0.28742 0.8115 0.8133 0.0
C487 C 0.22143 0.79218 0.82053 0.0
Co488 Co 0.27492 0.77073 0.78329 0.0
C489 C 0.31472 0.87142 0.82631 0.0
C490 C 0.28257 0.85661 0.86473 0.0
N491 N 0.29761 0.84627 0.83773 0.0
N492 N 0.30956 0.89747 0.8439 0.0
C493 C 0.28958 0.88842 0.86835 0.0
H494 H 0.32721 0.87176 0.80323 0.0
H495 H 0.26491 0.84294 0.87888 0.0
C496 C 0.34089 0.78948 0.77581 0.0
N497 N 0.26324 0.73644 0.75874 0.0
C498 C 0.25079 0.70921 0.77077 0.0
C499 C 0.25959 0.7339 0.72693 0.0
N500 N 0.23923 0.68999 0.74809 0.0
C501 C 0.2444 0.70526 0.72031 0.0
C502 C 0.26844 0.82771 0.7533 0.0
O503 O 0.33233 0.80997 0.79665 0.0
O504 O 0.31931 0.7695 0.76657 0.0
O505 O 0.2645 0.79814 0.74977 0.0
O506 O 0.27748 0.83864 0.77975 0.0
O507 O 0.23034 0.77147 0.80026 0.0
H508 H 0.26614 0.75215 0.7098 0.0
H509 H 0.24842 0.70402 0.79594 0.0
O510 O 0.24264 0.81274 0.82908 0.0
O511 O 0.29726 0.78472 0.84719 0.0
O512 O 0.28568 0.74376 0.81703 0.0
C513 C 0.29406 0.75506 0.84363 0.0
H514 H 0.27858 0.90418 0.88571 0.0
H515 H 0.23714 0.69657 0.69721 0.0
Co516 Co 0.53086 0.03237 0.03214 0.0
C517 C 0.59299 0.02232 0.05429 0.0
Co518 Co 0.53752 0.05556 0.07854 0.0
C519 C 0.51414 0.03406 0.96711 0.0
C520 C 0.52763 0.98733 0.9794 0.0
N521 N 0.5244 0.01671 0.99152 0.0
N522 N 0.51056 0.01683 0.94047 0.0
C523 C 0.51891 0.98731 0.94784 0.0
H524 H 0.50874 0.05885 0.96881 0.0
H525 H 0.53525 0.9672 0.99275 0.0
C526 C 0.47499 0.06433 0.05582 0.0
N527 N 0.54314 0.07242 0.11872 0.0
C528 C 0.56339 0.06214 0.14078 0.0
C529 C 0.52776 0.09688 0.13284 0.0
N530 N 0.56114 0.07896 0.1679 0.0
C531 C 0.53873 0.10085 0.16334 0.0
C532 C 0.5551 0.09513 0.03084 0.0
O533 O 0.48595 0.0464 0.03377 0.0
O534 O 0.49414 0.072 0.07801 0.0
O535 O 0.55394 0.09309 0.06084 0.0
O536 O 0.54567 0.07178 0.01405 0.0
O537 O 0.58174 0.03837 0.07785 0.0
H538 H 0.50974 0.11096 0.12178 0.0
H539 H 0.57959 0.04266 0.1373 0.0
O540 O 0.57498 0.01762 0.03051 0.0
O541 O 0.51699 0.99347 0.05123 0.0
O542 O 0.52069 0.01805 0.09719 0.0
C543 C 0.51466 0.99299 0.08155 0.0
H544 H 0.51798 0.9672 0.93183 0.0
H545 H 0.53115 0.11841 0.18066 0.0
Co546 Co 0.28077 0.26752 0.30359 0.0
C547 C 0.3466 0.28888 0.31027 0.0
Co548 Co 0.29022 0.31427 0.28412 0.0
C549 C 0.26017 0.20335 0.30396 0.0
C550 C 0.28287 0.21567 0.34768 0.0
N551 N 0.27365 0.2278 0.31975 0.0
N552 N 0.26102 0.17651 0.32059 0.0
C553 C 0.27509 0.1838 0.34823 0.0
H554 H 0.251 0.20479 0.28016 0.0
H555 H 0.29552 0.2288 0.36587 0.0
C556 C 0.22444 0.29284 0.27719 0.0
N557 N 0.29658 0.35432 0.26835 0.0
C558 C 0.32376 0.36786 0.2551 0.0
C559 C 0.27497 0.37771 0.27088 0.0
N560 N 0.31983 0.39875 0.24956 0.0
C561 C 0.28927 0.40511 0.25937 0.0
C562 C 0.29445 0.2665 0.23625 0.0
O563 O 0.23489 0.26876 0.29145 0.0
O564 O 0.24398 0.31657 0.27466 0.0
O565 O 0.29711 0.29634 0.24075 0.0
O566 O 0.2903 0.24928 0.26099 0.0
O567 O 0.33676 0.31194 0.29396 0.0
H568 H 0.25098 0.37548 0.2821 0.0
H569 H 0.34658 0.35598 0.25155 0.0
O570 O 0.32645 0.26592 0.31554 0.0
O571 O 0.27126 0.28563 0.34602 0.0
O572 O 0.28343 0.33236 0.32705 0.0
C573 C 0.27656 0.31503 0.35123 0.0
H574 H 0.28047 0.16713 0.36666 0.0
H575 H 0.27895 0.42836 0.26017 0.0
Co576 Co 0.54831 0.54342 1.00313 0.0
C577 C 0.53288 0.58027 0.05499 0.0
Co578 Co 0.57105 0.59089 1.00004 0.0
C579 C 0.54694 0.4767 1.00559 0.0
C580 C 0.49868 0.49432 0.00965 0.0
N581 N 0.53035 0.50355 0.00679 0.0
N582 N 0.52699 0.45108 0.00686 0.0
C583 C 0.49652 0.4618 0.00933 0.0
H584 H 0.5731 0.4758 1.00192 0.0
H585 H 0.47847 0.51016 0.01088 0.0
C586 C 0.58728 0.55216 0.94925 0.0
N587 N 0.58767 0.63193 0.99588 0.0
C588 C 0.58678 0.65439 0.01871 0.0
C589 C 0.59087 0.64813 0.96822 0.0
N590 N 0.58719 0.68363 0.00641 0.0
C591 C 0.5903 0.68002 0.97467 0.0
C592 C 0.60931 0.54926 0.02966 0.0
O593 O 0.5696 0.53207 0.96455 0.0
O594 O 0.59004 0.58021 0.95978 0.0
O595 O 0.60919 0.57766 0.01997 0.0
O596 O 0.58489 0.53097 0.02542 0.0
O597 O 0.55175 0.60046 0.04119 0.0
H598 H 0.589 0.63771 0.94476 0.0
H599 H 0.58115 0.64972 0.0436 0.0
O600 O 0.52733 0.55395 0.0416 0.0
O601 O 0.51206 0.55621 0.98096 0.0
O602 O 0.53282 0.60405 0.98032 0.0
C603 C 0.50971 0.58498 0.97349 0.0
H604 H 0.47447 0.4472 0.00961 0.0
H605 H 0.58802 0.69867 0.95743 0.0
Co606 Co 0.79286 0.31856 0.31242 0.0
C607 C 0.72691 0.2963 0.31796 0.0
Co608 Co 0.78252 0.2754 0.28526 0.0
C609 C 0.81451 0.38179 0.31874 0.0
C610 C 0.78099 0.3691 0.35681 0.0
N611 N 0.79906 0.35683 0.33258 0.0
N612 N 0.80536 0.40923 0.332 0.0
C613 C 0.78444 0.40153 0.35616 0.0
H614 H 0.82878 0.38027 0.29673 0.0
H615 H 0.76362 0.3558 0.37165 0.0
C616 C 0.84827 0.29567 0.27912 0.0
N617 N 0.77587 0.23748 0.26522 0.0
C618 C 0.79305 0.21179 0.27146 0.0
C619 C 0.74892 0.22654 0.25083 0.0
N620 N 0.77676 0.18508 0.26396 0.0
C621 C 0.74927 0.19405 0.25035 0.0
C622 C 0.77531 0.32739 0.24927 0.0
O623 O 0.83888 0.31841 0.29708 0.0
O624 O 0.82751 0.27421 0.27215 0.0
O625 O 0.77404 0.29744 0.24718 0.0
O626 O 0.78164 0.34038 0.27562 0.0
O627 O 0.73711 0.27573 0.29823 0.0
H628 H 0.72856 0.24085 0.24498 0.0
H629 H 0.81434 0.21235 0.286 0.0
O630 O 0.74701 0.31764 0.32719 0.0
O631 O 0.80393 0.29761 0.3492 0.0
O632 O 0.79091 0.25383 0.32416 0.0
C633 C 0.79962 0.26794 0.34943 0.0
H634 H 0.77061 0.41816 0.37038 0.0
H635 H 0.72915 0.17832 0.24431 0.0
Co636 Co 0.02779 0.53188 0.51987 0.0
C637 C 0.08715 0.51677 0.54686 0.0
Co638 Co 0.02759 0.54206 0.57107 0.0
C639 C 0.01128 0.54292 0.45544 0.0
C640 C 0.0414 0.50271 0.45894 0.0
N641 N 0.02721 0.52566 0.47649 0.0
N642 N 0.01476 0.53153 0.42567 0.0
C643 C 0.03354 0.50618 0.42753 0.0
H644 H 0.99617 0.56261 0.46182 0.0
H645 H 0.05575 0.48416 0.4684 0.0
C646 C 0.96865 0.55756 0.54561 0.0
N647 N 0.02947 0.54829 0.61435 0.0
C648 C 0.041 0.52687 0.63438 0.0
C649 C 0.02894 0.57557 0.63112 0.0
N650 N 0.04945 0.53992 0.66219 0.0
C651 C 0.04154 0.57049 0.66064 0.0
C652 C 0.04857 0.59256 0.53513 0.0
O653 O 0.98319 0.54827 0.52001 0.0
O654 O 0.98347 0.5558 0.57166 0.0
O655 O 0.04194 0.58426 0.56361 0.0
O656 O 0.04508 0.57263 0.51282 0.0
O657 O 0.07254 0.52862 0.57106 0.0
H658 H 0.02278 0.59822 0.62154 0.0
H659 H 0.04657 0.50295 0.6276 0.0
O660 O 0.07209 0.51583 0.52074 0.0
O661 O 0.01086 0.49066 0.52634 0.0
O662 O 0.01314 0.49943 0.5777 0.0
C663 C 0.00776 0.48066 0.55465 0.0
H664 H 0.03996 0.49071 0.40784 0.0
H665 H 0.04699 0.58826 0.67848 0.0
Co666 Co 0.81326 0.80371 0.29369 0.0
C667 C 0.79206 0.81327 0.23025 0.0
Co668 Co 0.76522 0.78206 0.28603 0.0
C669 C 0.8768 0.80651 0.31791 0.0
C670 C 0.86836 0.84813 0.29098 0.0
N671 N 0.85429 0.82045 0.30052 0.0
N672 N 0.9042 0.82431 0.31975 0.0
C673 C 0.89928 0.85061 0.30293 0.0
H674 H 0.87304 0.78389 0.32955 0.0
H675 H 0.85672 0.86552 0.27675 0.0
C676 C 0.78578 0.77361 0.34936 0.0
N677 N 0.72481 0.76441 0.28045 0.0
C678 C 0.70028 0.77741 0.26527 0.0
C679 C 0.71287 0.73613 0.29088 0.0
N680 N 0.67362 0.75847 0.26584 0.0
C681 C 0.68114 0.73233 0.28171 0.0
C682 C 0.81415 0.74148 0.27349 0.0
O683 O 0.80999 0.79035 0.33881 0.0
O684 O 0.76327 0.76678 0.33013 0.0
O685 O 0.7837 0.74446 0.2723 0.0
O686 O 0.83197 0.76455 0.2825 0.0
O687 O 0.76716 0.79776 0.2415 0.0
H688 H 0.72647 0.71929 0.30398 0.0
H689 H 0.702 0.80001 0.25339 0.0
O690 O 0.8161 0.81742 0.24865 0.0
O691 O 0.79435 0.84271 0.30455 0.0
O692 O 0.74625 0.81976 0.2995 0.0
C693 C 0.76351 0.84427 0.30512 0.0
H694 H 0.91649 0.87028 0.30011 0.0
H695 H 0.66514 0.71189 0.28558 0.0
Co696 Co 0.82305 0.28222 0.82999 0.0
C697 C 0.8172 0.21943 0.81337 0.0
Co698 Co 0.79685 0.27414 0.78573 0.0
C699 C 0.82613 0.30697 0.89223 0.0
C700 C 0.86665 0.2772 0.88301 0.0
N701 N 0.84039 0.28921 0.86936 0.0
N702 N 0.842 0.30623 0.9196 0.0
C703 C 0.86771 0.28774 0.9142 0.0
H704 H 0.80409 0.31991 0.88914 0.0
H705 H 0.88349 0.26142 0.87127 0.0
C706 C 0.80253 0.33661 0.80231 0.0
N707 N 0.77903 0.2681 0.74663 0.0
C708 C 0.79323 0.25225 0.72238 0.0
C709 C 0.75252 0.28099 0.73424 0.0
N710 N 0.77712 0.25511 0.69535 0.0
C711 C 0.75122 0.27286 0.70241 0.0
C712 C 0.75485 0.27313 0.8353 0.0
O713 O 0.81875 0.32649 0.82513 0.0
O714 O 0.79048 0.31748 0.78234 0.0
O715 O 0.75599 0.26879 0.8055 0.0
O716 O 0.78084 0.27938 0.84989 0.0
O717 O 0.80319 0.23062 0.78952 0.0
H718 H 0.73595 0.29615 0.74719 0.0
H719 H 0.81549 0.23944 0.72418 0.0
O720 O 0.82741 0.23819 0.83473 0.0
O721 O 0.86517 0.28442 0.80943 0.0
O722 O 0.83817 0.27913 0.76542 0.0
C723 C 0.86505 0.2821 0.77922 0.0
H724 H 0.88554 0.28208 0.93158 0.0
H725 H 0.73328 0.27986 0.68568 0.0
Co726 Co 0.77751 0.77197 0.79808 0.0
C727 C 0.84249 0.79814 0.79943 0.0
Co728 Co 0.78293 0.81799 0.77615 0.0
C729 C 0.76432 0.70592 0.80381 0.0
C730 C 0.79378 0.724 0.84125 0.0
N731 N 0.77554 0.73298 0.81684 0.0
N732 N 0.77631 0.68052 0.81806 0.0
C733 C 0.79476 0.69171 0.84169 0.0
H734 H 0.75058 0.7048 0.78222 0.0
H735 H 0.8082 0.73975 0.85575 0.0
C736 C 0.71744 0.79283 0.7751 0.0
N737 N 0.78549 0.85662 0.75705 0.0
C738 C 0.80488 0.8815 0.76432 0.0
C739 C 0.77023 0.86507 0.73047 0.0
N740 N 0.80253 0.90485 0.74311 0.0
C741 C 0.78085 0.8949 0.72172 0.0
C742 C 0.78815 0.76795 0.73054 0.0
O743 O 0.73026 0.77007 0.7897 0.0
O744 O 0.73619 0.81657 0.76884 0.0
O745 O 0.78931 0.79795 0.73366 0.0
O746 O 0.78525 0.7518 0.75607 0.0
O747 O 0.83005 0.81988 0.78325 0.0
H748 H 0.75345 0.85002 0.71758 0.0
H749 H 0.8215 0.88203 0.78382 0.0
O750 O 0.82434 0.77416 0.80631 0.0
O751 O 0.77006 0.79137 0.83998 0.0
O752 O 0.77682 0.83815 0.81913 0.0
C753 C 0.77315 0.82112 0.84422 0.0
H754 H 0.80949 0.67757 0.85675 0.0
H755 H 0.77427 0.90781 0.7008 0.0
Co756 Co 0.52313 0.55843 0.51327 0.0
C757 C 0.5208 0.60475 0.56452 0.0
Co758 Co 0.52998 0.53894 0.56047 0.0
C759 C 0.50709 0.56338 0.4466 0.0
C760 C 0.52382 0.60744 0.46621 0.0
N761 N 0.51746 0.57685 0.47384 0.0
N762 N 0.50687 0.58439 0.4226 0.0
C763 C 0.51727 0.61212 0.43475 0.0
H764 H 0.49989 0.53872 0.44424 0.0
H765 H 0.53279 0.62539 0.48231 0.0
C766 C 0.53252 0.49199 0.51089 0.0
N767 N 0.53583 0.5203 0.59923 0.0
C768 C 0.56138 0.52493 0.61808 0.0
C769 C 0.51876 0.49556 0.61227 0.0
N770 N 0.56128 0.50375 0.64168 0.0
C771 C 0.53448 0.48529 0.6386 0.0
C772 C 0.46463 0.53278 0.54109 0.0
O773 O 0.52785 0.51588 0.49319 0.0
O774 O 0.5368 0.49759 0.54036 0.0
O775 O 0.48369 0.52775 0.56376 0.0
O776 O 0.4761 0.54873 0.51735 0.0
O777 O 0.5235 0.58004 0.58144 0.0
H778 H 0.49726 0.48454 0.60243 0.0
H779 H 0.58066 0.54248 0.61394 0.0
O780 O 0.51842 0.60061 0.53445 0.0
O781 O 0.57015 0.56796 0.50874 0.0
O782 O 0.57648 0.55064 0.55667 0.0
C783 C 0.5888 0.56467 0.53217 0.0
H784 H 0.52011 0.63403 0.42166 0.0
H785 H 0.52776 0.46512 0.65335 0.0
Co786 Co 0.0362 0.5318 0.02947 0.0
C787 C 0.06027 0.59618 0.02502 0.0
Co788 Co 0.08104 0.54051 0.05524 0.0
C789 C 0.97086 0.51211 0.02303 0.0
C790 C 0.98599 0.54333 0.98514 0.0
N791 N 0.99727 0.52668 0.00962 0.0
N792 N 0.94338 0.52008 0.00895 0.0
C793 C 0.95257 0.5396 0.98495 0.0
H794 H 0.97126 0.49884 0.04499 0.0
H795 H 1.0006 0.5595 0.97044 0.0
C796 C 0.0566 0.47639 0.05995 0.0
N797 N 0.11936 0.54503 0.07603 0.0
C798 C 0.14751 0.5579 0.06449 0.0
C799 C 0.1269 0.53127 0.10372 0.0
N800 N 0.17232 0.55222 0.08357 0.0
C801 C 0.15971 0.53543 0.10829 0.0
C802 C 0.02738 0.54995 0.09259 0.0
O803 O 0.03504 0.48656 0.04159 0.0
O804 O 0.07867 0.49598 0.06872 0.0
O805 O 0.05813 0.55226 0.09274 0.0
O806 O 0.01333 0.5415 0.06745 0.0
O807 O 0.08321 0.58552 0.04155 0.0
H808 H 0.10999 0.51768 0.11877 0.0
H809 H 0.15017 0.56977 0.04174 0.0
O810 O 0.03736 0.57679 0.01771 0.0
O811 O 0.05893 0.52223 0.99158 0.0
O812 O 0.10426 0.52866 0.01747 0.0
C813 C 0.08976 0.52225 0.99188 0.0
H814 H 0.93617 0.55198 0.97001 0.0
H815 H 0.17342 0.52629 0.12765 0.0
C816 C 0.05765 0.16724 0.12087 0.0
C817 C 0.03655 0.19207 0.11327 0.0
C818 C 0.00707 0.15393 0.07783 0.0
C819 C 0.02962 0.12968 0.0838 0.0
N820 N 0.08153 0.11744 0.1056 0.0
N821 N 0.9936 0.20981 0.08081 0.0
C822 C 0.05618 0.13752 0.10399 0.0
C823 C 0.0121 0.18558 0.0905 0.0
N824 N 0.07933 0.17185 0.14461 0.0
N825 N 0.97978 0.1464 0.06133 0.0
H826 H 0.99588 0.23259 0.09021 0.0
H827 H 0.97782 0.208 0.06192 0.0
H828 H 0.97491 0.12378 0.05244 0.0
H829 H 0.9606 0.16164 0.05882 0.0
H830 H 0.09225 0.15363 0.15438 0.0
H831 H 0.08277 0.19348 0.1562 0.0
H832 H 0.10329 0.1233 0.11656 0.0
H833 H 0.08254 0.09627 0.09308 0.0
C834 C 0.17102 0.73679 0.39655 0.0
C835 C 0.15102 0.76314 0.39252 0.0
C836 C 0.17825 0.77459 0.34111 0.0
C837 C 0.20214 0.75218 0.34807 0.0
N838 N 0.2206 0.71025 0.3811 0.0
N839 N 0.13725 0.80926 0.3628 0.0
C840 C 0.1982 0.73266 0.37539 0.0
C841 C 0.15473 0.78236 0.36508 0.0
N842 N 0.16325 0.7151 0.4198 0.0
N843 N 0.17793 0.78874 0.31194 0.0
H844 H 0.12024 0.81631 0.38017 0.0
H845 H 0.14174 0.82618 0.34519 0.0
H846 H 0.19504 0.78492 0.29372 0.0
H847 H 0.15882 0.8024 0.30473 0.0
H848 H 0.17496 0.69379 0.42201 0.0
H849 H 0.14308 0.71702 0.43533 0.0
H850 H 0.22187 0.6984 0.40267 0.0
H851 H 0.2387 0.70413 0.36438 0.0
C852 C 0.54804 0.91619 0.61994 0.0
C853 C 0.54636 0.88902 0.59974 0.0
C854 C 0.54073 0.92541 0.55373 0.0
C855 C 0.54011 0.95252 0.57422 0.0
N856 N 0.53593 0.97154 0.62847 0.0
N857 N 0.53496 0.86821 0.54774 0.0
C858 C 0.54181 0.9472 0.60777 0.0
C859 C 0.54101 0.89387 0.56673 0.0
N860 N 0.55707 0.91272 0.65075 0.0
N861 N 0.54259 0.92962 0.52152 0.0
H862 H 0.53482 0.8451 0.55619 0.0
H863 H 0.52712 0.86988 0.52447 0.0
H864 H 0.54242 0.95179 0.51108 0.0
H865 H 0.54714 0.91149 0.50528 0.0
H866 H 0.56263 0.93172 0.66566 0.0
H867 H 0.562 0.89088 0.66058 0.0
H868 H 0.53301 0.96856 0.65301 0.0
H869 H 0.53048 0.99417 0.62108 0.0
C870 C 0.48166 0.25051 0.85266 0.0
C871 C 0.49296 0.2769 0.87053 0.0
C872 C 0.45358 0.31052 0.84576 0.0
C873 C 0.44102 0.28391 0.82941 0.0
N874 N 0.43763 0.22755 0.82224 0.0
N875 N 0.48403 0.3297 0.89056 0.0
C876 C 0.45345 0.25352 0.83432 0.0
C877 C 0.47724 0.30628 0.869 0.0
N878 N 0.49854 0.22316 0.85208 0.0
N879 N 0.44357 0.33998 0.83825 0.0
H880 H 0.50022 0.32701 0.90894 0.0
H881 H 0.47108 0.35047 0.89234 0.0
H882 H 0.4265 0.34377 0.82089 0.0
H883 H 0.45431 0.36067 0.84706 0.0
H884 H 0.49332 0.20437 0.83679 0.0
H885 H 0.51942 0.22012 0.86508 0.0
H886 H 0.44362 0.20448 0.82758 0.0
H887 H 0.41653 0.2291 0.80922 0.0
C888 C 1.0051 0.84358 0.5121 0.0
C889 C 0.03945 0.8437 0.5154 0.0
C890 C 0.03626 0.89526 0.54092 0.0
C891 C 1.00519 0.89866 0.52814 0.0
N892 N 0.9587 0.87572 0.50241 0.0
N893 N 0.08818 0.87057 0.53445 0.0
C894 C 0.98876 0.87247 0.51468 0.0
C895 C 0.05521 0.86935 0.53113 0.0
N896 N 0.98844 0.81594 0.50617 0.0
N897 N 0.04768 0.91744 0.56166 0.0
H898 H 0.10348 0.85245 0.52763 0.0
H899 H 0.10072 0.89074 0.5423 0.0
H900 H 0.03354 0.9364 0.56906 0.0
H901 H 0.06906 0.91487 0.57399 0.0
H902 H 0.96312 0.81426 0.50558 0.0
H903 H 0.99991 0.79424 0.50536 0.0
H904 H 0.94722 0.85814 0.489 0.0
H905 H 0.94616 0.89675 0.50411 0.0
C906 C 0.43525 0.79151 0.76403 0.0
C907 C 0.43866 0.7838 0.73113 0.0
C908 C 0.37897 0.78666 0.72687 0.0
C909 C 0.37499 0.78984 0.76062 0.0
N910 N 0.40058 0.79399 0.81171 0.0
N911 N 0.41303 0.76998 0.68194 0.0
C912 C 0.40351 0.79219 0.77926 0.0
C913 C 0.4103 0.78041 0.71275 0.0
N914 N 0.46245 0.79939 0.7806 0.0
N915 N 0.35308 0.79131 0.70791 0.0
H916 H 0.43532 0.76523 0.67062 0.0
H917 H 0.39303 0.76338 0.66852 0.0
H918 H 0.33021 0.79759 0.71686 0.0
H919 H 0.35518 0.79262 0.68317 0.0
H920 H 0.46172 0.80886 0.80354 0.0
H921 H 0.4859 0.79917 0.77034 0.0
H922 H 0.41995 0.79101 0.82672 0.0
H923 H 0.37854 0.79666 0.82403 0.0
C924 C 0.55442 0.16796 0.97896 0.0
C925 C 0.58425 0.18301 0.98725 0.0
C926 C 0.59739 0.13781 0.02006 0.0
C927 C 0.56554 0.12509 0.01556 0.0
N928 N 0.51164 0.13094 0.99547 0.0
N929 N 0.63969 0.17455 1.00108 0.0
C930 C 0.54359 0.1407 0.99596 0.0
C931 C 0.60748 0.16567 1.0036 0.0
N932 N 0.53763 0.17795 0.95348 0.0
N933 N 0.61757 0.12417 0.04096 0.0
H934 H 0.64808 0.19289 0.98622 0.0
H935 H 0.65835 0.16135 0.00998 0.0
H936 H 0.61148 0.10354 0.0534 0.0
H937 H 0.63942 0.13467 0.04799 0.0
H938 H 0.51689 0.16616 0.94533 0.0
H939 H 0.54719 0.19432 0.9371 0.0
H940 H 0.49378 0.1435 0.98434 0.0
H941 H 0.50225 0.11238 0.00939 0.0
C942 C 0.15638 0.3115 0.21785 0.0
C943 C 0.13182 0.28783 0.22457 0.0
C944 C 0.16494 0.27215 0.27036 0.0
C945 C 0.19189 0.29188 0.25988 0.0
N946 N 0.21426 0.32215 0.21481 0.0
N947 N 0.11892 0.23969 0.25391 0.0
C948 C 0.18791 0.30934 0.23118 0.0
C949 C 0.13777 0.2665 0.24998 0.0
N950 N 0.14972 0.33688 0.19948 0.0
N951 N 0.16443 0.25934 0.30013 0.0
H952 H 0.1008 0.23282 0.23833 0.0
H953 H 0.12418 0.22225 0.27027 0.0
H954 H 0.18227 0.2645 0.31662 0.0
H955 H 0.14422 0.2469 0.30971 0.0
H956 H 0.16627 0.35576 0.19601 0.0
H957 H 0.1265 0.34113 0.19145 0.0
H958 H 0.21229 0.33298 0.19272 0.0
H959 H 0.23822 0.31793 0.2204 0.0
C960 C 0.13951 0.95766 0.1834 0.0
C961 C 0.14335 0.97972 0.20851 0.0
C962 C 0.09515 0.0075 0.19281 0.0
C963 C 0.09268 0.98698 0.16647 0.0
N964 N 0.11391 0.94548 0.13327 0.0
N965 N 0.12931 0.02934 0.23362 0.0
C966 C 0.11523 0.96274 0.16079 0.0
C967 C 0.12238 0.0057 0.21233 0.0
N968 N 0.15859 0.93175 0.18161 0.0
N969 N 0.07102 0.02835 0.1993 0.0
H970 H 0.14955 0.02941 0.24794 0.0
H971 H 0.11676 0.05035 0.23506 0.0
H972 H 0.05085 0.03021 0.18501 0.0
H973 H 0.06955 0.0418 0.22012 0.0
H974 H 0.15488 0.91316 0.16568 0.0
H975 H 0.17699 0.92787 0.19759 0.0
H976 H 0.13151 0.92949 0.12608 0.0
H977 H 0.09624 0.94881 0.1164 0.0
C978 C 0.32467 0.84363 0.47917 0.0
C979 C 0.29971 0.83267 0.50094 0.0
C980 C 0.29285 0.78394 0.46989 0.0
C981 C 0.31659 0.79563 0.44751 0.0
N982 N 0.35201 0.83742 0.42753 0.0
N983 N 0.25798 0.79427 0.51647 0.0
C984 C 0.33181 0.82566 0.45135 0.0
C985 C 0.28311 0.80331 0.49613 0.0
N986 N 0.34159 0.87121 0.48518 0.0
N987 N 0.28013 0.75408 0.46596 0.0
H988 H 0.251 0.80761 0.53638 0.0
H989 H 0.24289 0.77452 0.51296 0.0
H990 H 0.28689 0.73978 0.44667 0.0
H991 H 0.26451 0.74268 0.48241 0.0
H992 H 0.36251 0.87861 0.47242 0.0
H993 H 0.33579 0.88626 0.50412 0.0
H994 H 0.36108 0.8606 0.42678 0.0
H995 H 0.35813 0.82446 0.40712 0.0
C996 C 0.44582 0.03042 0.66207 0.0
C997 C 0.44134 0.05981 0.67762 0.0
C998 C 0.47262 0.0873 0.635 0.0
C999 C 0.47671 0.05792 0.61912 0.0
N1000 N 0.46268 1.00224 0.61437 0.0
N1001 N 0.44536 0.11663 0.67752 0.0
C1002 C 0.46176 0.02972 0.6316 0.0
C1003 C 0.45322 0.08843 0.66364 0.0
N1004 N 0.43579 1.00303 0.67701 0.0
N1005 N 0.48747 0.11403 0.62271 0.0
H1006 H 0.43178 0.11819 0.69886 0.0
H1007 H 0.45032 0.13851 0.66705 0.0
H1008 H 0.4996 0.11448 0.60054 0.0
H1009 H 0.48893 0.1355 0.63481 0.0
H1010 H 0.44201 0.98063 0.669 0.0
H1011 H 0.4229 1.0026 0.69881 0.0
H1012 H 0.44867 0.98211 0.62013 0.0
H1013 H 0.47595 0.99978 0.59305 0.0
C1014 C 0.28907 0.21709 0.92446 0.0
C1015 C 0.27925 0.23637 0.95097 0.0
C1016 C 0.27489 0.28092 0.91293 0.0
C1017 C 0.28785 0.26252 0.88723 0.0
N1018 N 0.31309 0.21414 0.87082 0.0
N1019 N 0.27108 0.28949 0.97018 0.0
C1020 C 0.29701 0.23107 0.89386 0.0
C1021 C 0.27438 0.26908 0.94505 0.0
N1022 N 0.28861 0.18499 0.92757 0.0
N1023 N 0.26283 0.30991 0.90682 0.0
H1024 H 0.27268 0.28248 0.99382 0.0
H1025 H 0.27067 0.31392 0.96753 0.0
H1026 H 0.26366 0.31985 0.88416 0.0
H1027 H 0.24972 0.32292 0.92372 0.0
H1028 H 0.29213 0.16962 0.90839 0.0
H1029 H 0.28096 0.17342 0.94842 0.0
H1030 H 0.32357 0.19253 0.87518 0.0
H1031 H 0.31829 0.22282 0.84798 0.0
C1032 C 0.10138 0.03421 0.37157 0.0
C1033 C 0.11672 1.0048 0.3669 0.0
C1034 C 0.09111 0.98536 0.41668 0.0
C1035 C 0.07356 0.01374 0.41953 0.0
N1036 N 0.05486 0.06071 0.39454 0.0
N1037 N 0.11865 0.9495 0.38057 0.0
C1038 C 0.07621 0.03657 0.39508 0.0
C1039 C 0.10926 0.9794 0.38805 0.0
N1040 N 0.11228 0.06058 0.35541 0.0
N1041 N 0.09238 0.96506 0.44175 0.0
H1042 H 0.13079 0.94387 0.3592 0.0
H1043 H 0.11119 0.92982 0.394 0.0
H1044 H 0.08051 0.96884 0.46363 0.0
H1045 H 0.10784 0.94596 0.44176 0.0
H1046 H 0.10349 0.083 0.3603 0.0
H1047 H 0.13273 0.061 0.3401 0.0
H1048 H 0.05419 0.07655 0.37567 0.0
H1049 H 0.0356 0.06265 0.4112 0.0
C1050 C 0.28984 0.88714 0.68814 0.0
C1051 C 0.26247 0.88273 0.6689 0.0
C1052 C 0.23589 0.84888 0.70938 0.0
C1053 C 0.26542 0.84895 0.72595 0.0
N1054 N 0.3222 0.86544 0.7292 0.0
N1055 N 0.20951 0.8592 0.65978 0.0
C1056 C 0.29277 0.86775 0.71518 0.0
C1057 C 0.23534 0.8637 0.6792 0.0
N1058 N 0.31311 0.90974 0.68039 0.0
N1059 N 0.20827 0.83549 0.72302 0.0
H1060 H 0.20777 0.87085 0.63808 0.0
H1061 H 0.19073 0.84267 0.6643 0.0
H1062 H 0.20784 0.82557 0.7457 0.0
H1063 H 0.1853 0.837 0.71343 0.0
H1064 H 0.33189 0.91634 0.69536 0.0
H1065 H 0.3119 0.92404 0.66032 0.0
H1066 H 0.34369 0.87583 0.71993 0.0
H1067 H 0.32609 0.85074 0.74838 0.0
C1068 C 0.50342 0.04533 0.85623 0.0
C1069 C 0.46927 0.04968 0.85534 0.0
C1070 C 0.4628 0.03181 0.91076 0.0
C1071 C 0.49676 0.0276 0.91157 0.0
N1072 N 0.55034 0.03514 0.88829 0.0
N1073 N 0.41746 0.0539 0.88404 0.0
C1074 C 0.51738 0.03583 0.88518 0.0
C1075 C 0.44929 0.0453 0.88339 0.0
N1076 N 0.52234 0.05006 0.82923 0.0
N1077 N 0.44336 0.02148 0.9358 0.0
H1078 H 0.40601 0.06323 0.86464 0.0
H1079 H 0.40289 0.05444 0.90475 0.0
H1080 H 0.45264 0.01145 0.95614 0.0
H1081 H 0.41804 0.02035 0.93551 0.0
H1082 H 0.5466 0.04378 0.82693 0.0
H1083 H 0.51334 0.05965 0.80853 0.0
H1084 H 0.5672 0.04358 0.87118 0.0
H1085 H 0.56089 0.02784 0.90921 0.0
C1086 C 0.26286 0.21599 0.16485 0.0
C1087 C 0.28536 0.22403 0.13952 0.0
C1088 C 0.31532 0.25876 0.17771 0.0
C1089 C 0.29163 0.25211 0.20258 0.0
N1090 N 0.23809 0.23006 0.21586 0.0
N1091 N 0.3308 0.25663 0.12102 0.0
C1092 C 0.26423 0.23214 0.19502 0.0
C1093 C 0.3108 0.24665 0.14575 0.0
N1094 N 0.23988 0.19259 0.16027 0.0
N1095 N 0.3431 0.27539 0.18493 0.0
H1096 H 0.32888 0.24759 0.09797 0.0
H1097 H 0.34758 0.27537 0.12272 0.0
H1098 H 0.3475 0.28399 0.20776 0.0
H1099 H 0.36297 0.27842 0.16917 0.0
H1100 H 0.22588 0.18239 0.17881 0.0
H1101 H 0.23615 0.18184 0.13822 0.0
H1102 H 0.21589 0.21925 0.21034 0.0
H1103 H 0.23714 0.24207 0.23743 0.0
C1104 C 0.16748 0.11987 0.01911 0.0
C1105 C 0.19084 0.11246 0.04217 0.0
C1106 C 0.15507 0.06578 0.05632 0.0
C1107 C 0.12935 0.07677 0.03753 0.0
N1108 N 0.11 0.12268 0.01035 0.0
N1109 N 0.20018 0.08131 0.08925 0.0
C1110 C 0.13526 0.10612 0.02139 0.0
C1111 C 0.18285 0.08614 0.06258 0.0
N1112 N 0.17586 0.13937 0.99424 0.0
N1113 N 0.15375 0.03566 0.06774 0.0
H1114 H 0.21835 0.09688 0.09695 0.0
H1115 H 0.19344 0.06409 0.10603 0.0
H1116 H 0.13535 0.01935 0.06209 0.0
H1117 H 0.17306 0.02584 0.07942 0.0
H1118 H 0.16002 0.14358 0.97588 0.0
H1119 H 0.19963 0.14769 0.98964 0.0
H1120 H 0.11321 0.14507 1.00033 0.0
H1121 H 0.08582 0.1166 0.01588 0.0
C1122 C 0.68767 0.50606 0.03863 0.0
C1123 C 0.69024 0.50615 0.07228 0.0
C1124 C 0.64394 0.54127 0.07664 0.0
C1125 C 0.63829 0.53634 0.0439 0.0
N1126 N 0.65069 0.50743 0.99535 0.0
N1127 N 0.66568 0.51865 0.1239 0.0
C1128 C 0.65881 0.51663 0.02537 0.0
C1129 C 0.66708 0.5225 0.09159 0.0
N1130 N 0.71329 0.49777 0.01909 0.0
N1131 N 0.62715 0.56355 0.09349 0.0
H1132 H 0.68034 0.50311 0.1357 0.0
H1133 H 0.64733 0.52798 0.13851 0.0
H1134 H 0.61003 0.57772 0.08314 0.0
H1135 H 0.63246 0.56988 0.11682 0.0
H1136 H 0.71298 0.49994 0.99437 0.0
H1137 H 0.73622 0.49286 0.02744 0.0
H1138 H 0.66366 0.49067 0.98228 0.0
H1139 H 0.62944 0.51422 0.98475 0.0
C1140 C 0.81672 0.46803 0.26692 0.0
C1141 C 0.83318 0.49273 0.28328 0.0
C1142 C 0.82601 0.46441 0.33361 0.0
C1143 C 0.81011 0.43954 0.31726 0.0
N1144 N 0.77944 0.42291 0.27191 0.0
N1145 N 0.84172 0.51983 0.33319 0.0
C1146 C 0.80177 0.44317 0.28498 0.0
C1147 C 0.83384 0.49271 0.31707 0.0
N1148 N 0.81699 0.46712 0.23438 0.0
N1149 N 0.83542 0.46035 0.36417 0.0
H1150 H 0.84656 0.54127 0.32159 0.0
H1151 H 0.84013 0.52168 0.35795 0.0
H1152 H 0.83062 0.43954 0.3768 0.0
H1153 H 0.85018 0.47669 0.37601 0.0
H1154 H 0.80825 0.44775 0.22152 0.0
H1155 H 0.82803 0.48466 0.22014 0.0
H1156 H 0.7706 0.42574 0.24913 0.0
H1157 H 0.76711 0.4054 0.28531 0.0
C1158 C 0.87602 0.56954 0.53918 0.0
C1159 C 0.87328 0.60135 0.54993 0.0
C1160 C 0.93328 0.60543 0.55293 0.0
C1161 C 0.93581 0.57278 0.5452 0.0
N1162 N 0.90924 0.52291 0.53353 0.0
N1163 N 0.89917 0.64841 0.57094 0.0
C1164 C 0.90705 0.55466 0.5388 0.0
C1165 C 0.90193 0.61901 0.55765 0.0
N1166 N 0.84899 0.55381 0.52844 0.0
N1167 N 0.961 0.62386 0.55479 0.0
H1168 H 0.8769 0.65931 0.57457 0.0
H1169 H 0.91855 0.66102 0.58074 0.0
H1170 H 0.98425 0.61493 0.55167 0.0
H1171 H 0.96104 0.64839 0.55657 0.0
H1172 H 0.84959 0.53189 0.51715 0.0
H1173 H 0.82609 0.56386 0.52854 0.0
H1174 H 0.88914 0.5075 0.53237 0.0
H1175 H 0.93141 0.51148 0.53239 0.0
C1176 C 0.26681 0.09973 0.27663 0.0
C1177 C 0.23424 0.08809 0.28078 0.0
C1178 C 0.21907 0.13689 0.30801 0.0
C1179 C 0.2523 0.14603 0.30841 0.0
N1180 N 0.30826 0.13777 0.2931 0.0
N1181 N 0.17817 0.10372 0.28336 0.0
C1182 C 0.27635 0.12793 0.2926 0.0
C1183 C 0.20978 0.10902 0.29154 0.0
N1184 N 0.28741 0.08584 0.25493 0.0
N1185 N 0.1966 0.15465 0.32401 0.0
H1186 H 0.17152 0.08615 0.26711 0.0
H1187 H 0.15956 0.11926 0.28871 0.0
H1188 H 0.20296 0.17544 0.33605 0.0
H1189 H 0.1723 0.14751 0.3275 0.0
H1190 H 0.31088 0.09435 0.24939 0.0
H1191 H 0.27937 0.06876 0.2388 0.0
H1192 H 0.32748 0.12394 0.28522 0.0
H1193 H 0.31572 0.15912 0.30339 0.0
C1194 C 0.34808 0.97009 0.50749 0.0
C1195 C 0.34062 0.977 0.54002 0.0
C1196 C 0.38328 0.01804 0.53952 0.0
C1197 C 0.39476 0.00649 0.50964 0.0
N1198 N 0.38961 0.97083 0.4653 0.0
N1199 N 0.35199 0.0065 0.58801 0.0
C1200 C 0.37729 0.98264 0.49335 0.0
C1201 C 0.35806 1.00111 0.55628 0.0
N1202 N 0.32694 0.95204 0.49009 0.0
N1203 N 0.39685 0.04513 0.55171 0.0
H1204 H 0.33385 0.99431 0.60124 0.0
H1205 H 0.36655 0.02134 0.6018 0.0
H1206 H 0.41495 0.05821 0.53928 0.0
H1207 H 0.38801 0.05619 0.57231 0.0
H1208 H 0.3299 0.94844 0.46562 0.0
H1209 H 0.30474 0.94322 0.49953 0.0
H1210 H 0.37989 0.95083 0.45414 0.0
H1211 H 0.41095 0.97988 0.45431 0.0
C1212 C 0.83239 0.65445 0.27714 0.0
C1213 C 0.85209 0.6513 0.24912 0.0
C1214 C 0.8505 0.70813 0.23931 0.0
C1215 C 0.82831 0.71078 0.26575 0.0
N1216 N 0.79513 0.68639 0.308 0.0
N1217 N 0.87935 0.6735 0.20248 0.0
C1218 C 0.8185 0.68395 0.28424 0.0
C1219 C 0.86119 0.67774 0.22997 0.0
N1220 N 0.82708 0.62923 0.29708 0.0
N1221 N 0.86092 0.73456 0.22292 0.0
H1222 H 0.88897 0.6518 0.19589 0.0
H1223 H 0.8838 0.69091 0.1854 0.0
H1224 H 0.85167 0.75689 0.22727 0.0
H1225 H 0.87982 0.73485 0.20586 0.0
H1226 H 0.81654 0.63105 0.31987 0.0
H1227 H 0.83531 0.60664 0.292 0.0
H1228 H 0.78371 0.66702 0.3192 0.0
H1229 H 0.78554 0.70771 0.31561 0.0
C1230 C 0.75024 0.40578 0.79655 0.0
C1231 C 0.77055 0.4268 0.77799 0.0
C1232 C 0.81535 0.39024 0.78054 0.0
C1233 C 0.79523 0.37007 0.79976 0.0
N1234 N 0.74881 0.36399 0.83564 0.0
N1235 N 0.82557 0.4438 0.76267 0.0
C1236 C 0.76449 0.37982 0.81118 0.0
C1237 C 0.80418 0.42057 0.77316 0.0
N1238 N 0.71719 0.40874 0.79816 0.0
N1239 N 0.84454 0.38013 0.76859 0.0
H1240 H 0.81871 0.46702 0.75919 0.0
H1241 H 0.85067 0.44091 0.76117 0.0
H1242 H 0.85364 0.35821 0.77434 0.0
H1243 H 0.85854 0.39265 0.75155 0.0
H1244 H 0.70158 0.39204 0.8092 0.0
H1245 H 0.70492 0.42551 0.78546 0.0
H1246 H 0.72739 0.37181 0.84664 0.0
H1247 H 0.75914 0.34494 0.84689 0.0
C1248 C 0.05579 0.91236 0.95463 0.0
C1249 C 0.03994 0.88679 0.97163 0.0
C1250 C 0.03609 0.92276 0.0186 0.0
C1251 C 0.04615 0.95015 1.00001 0.0
N1252 N 0.06779 0.96861 0.949 0.0
N1253 N 0.00972 0.87059 0.0189 0.0
C1254 C 0.05626 0.94415 0.96756 0.0
C1255 C 0.02865 0.89293 1.0033 0.0
N1256 N 0.07266 0.90599 0.92684 0.0
N1257 N 0.03524 0.92388 0.05115 0.0
H1258 H 1.00355 0.8488 0.00873 0.0
H1259 H 0.99743 0.87504 0.04049 0.0
H1260 H 0.04348 0.94288 0.06455 0.0
H1261 H 0.03081 0.90392 0.0652 0.0
H1262 H 0.08772 0.92249 0.91488 0.0
H1263 H 0.07457 0.88329 0.91738 0.0
H1264 H 0.06991 0.96719 0.92424 0.0
H1265 H 0.07517 0.99043 0.95822 0.0
C1266 C 0.9473 0.29833 0.7368 0.0
C1267 C 0.94622 0.27386 0.71349 0.0
C1268 C 0.89678 0.25168 0.73872 0.0
C1269 C 0.89523 0.27822 0.75956 0.0
N1270 N 0.91763 0.32843 0.77695 0.0
N1271 N 0.9169 0.23091 0.68842 0.0
C1272 C 0.9202 0.30201 0.75835 0.0
C1273 C 0.92006 0.25162 0.71333 0.0
N1274 N 0.97468 0.31717 0.73919 0.0
N1275 N 0.87691 0.22578 0.74405 0.0
H1276 H 0.93335 0.23047 0.66899 0.0
H1277 H 0.89628 0.21644 0.68547 0.0
H1278 H 0.8606 0.22429 0.76338 0.0
H1279 H 0.87919 0.20459 0.73155 0.0
H1280 H 0.97832 0.33303 0.75787 0.0
H1281 H 0.99497 0.31528 0.72383 0.0
H1282 H 0.93296 0.34829 0.77424 0.0
H1283 H 0.89893 0.33133 0.79395 0.0
C1284 C 0.51817 0.17211 0.46119 0.0
C1285 C 0.52664 0.2009 0.47721 0.0
C1286 C 0.53667 0.1679 0.52517 0.0
C1287 C 0.53204 0.13909 0.50758 0.0
N1288 N 0.52841 0.11636 0.45487 0.0
N1289 N 0.54976 0.22448 0.52406 0.0
C1290 C 0.52559 0.14203 0.4745 0.0
C1291 C 0.53739 0.19827 0.50918 0.0
N1292 N 0.50159 0.17311 0.43353 0.0
N1293 N 0.53932 0.16663 0.55745 0.0
H1294 H 0.55127 0.24662 0.51332 0.0
H1295 H 0.56127 0.22368 0.54579 0.0
H1296 H 0.53888 0.14549 0.56999 0.0
H1297 H 0.53904 0.1866 0.57203 0.0
H1298 H 0.49221 0.15288 0.42245 0.0
H1299 H 0.49361 0.19408 0.42391 0.0
H1300 H 0.52691 0.1178 0.43018 0.0
H1301 H 0.53653 0.09467 0.46258 0.0
C1302 C 0.59368 0.7914 0.24466 0.0
C1303 C 0.59098 0.77897 0.21342 0.0
C1304 C 0.64299 0.75285 0.21716 0.0
C1305 C 0.64481 0.76382 0.24886 0.0
N1306 N 0.62251 0.79092 0.29442 0.0
N1307 N 0.61074 0.74566 0.17035 0.0
C1308 C 0.62026 0.78242 0.26311 0.0
C1309 C 0.61495 0.75897 0.19979 0.0
N1310 N 0.57096 0.81178 0.25641 0.0
N1311 N 0.66885 0.73769 0.20343 0.0
H1312 H 0.59159 0.75103 0.15579 0.0
H1313 H 0.62521 0.72795 0.16083 0.0
H1314 H 0.68947 0.73221 0.21595 0.0
H1315 H 0.67101 0.73229 0.17926 0.0
H1316 H 0.57282 0.82387 0.27794 0.0
H1317 H 0.55063 0.81791 0.24377 0.0
H1318 H 0.60444 0.80246 0.30745 0.0
H1319 H 0.64211 0.78469 0.30808 0.0
C1320 C 0.04262 0.22169 0.5414 0.0
C1321 C 0.05269 0.22111 0.5734 0.0
C1322 C 0.08815 0.17711 0.56117 0.0
C1323 C 0.07911 0.17831 0.52889 0.0
N1324 N 0.05241 0.20403 0.48678 0.0
N1325 N 0.09217 0.20501 0.61123 0.0
C1326 C 0.058 0.20169 0.51855 0.0
C1327 C 0.07768 0.20091 0.58254 0.0
N1328 N 0.01747 0.24021 0.53329 0.0
N1329 N 0.10482 0.15208 0.57204 0.0
H1330 H 0.08579 0.22265 0.62751 0.0
H1331 H 0.1128 0.19298 0.61746 0.0
H1332 H 0.11291 0.1338 0.55743 0.0
H1333 H 0.10828 0.14811 0.59616 0.0
H1334 H 1.00691 0.23948 0.51108 0.0
H1335 H 1.00547 0.25483 0.54963 0.0
H1336 H 0.03921 0.22197 0.4769 0.0
H1337 H 0.06345 0.18919 0.46995 0.0
C1338 C 0.63744 0.31373 0.34178 0.0
C1339 C 0.62777 0.28571 0.35865 0.0
C1340 C 0.68392 0.26647 0.35145 0.0
C1341 C 0.69287 0.29326 0.33244 0.0
N1342 N 0.67742 0.34091 0.30671 0.0
N1343 N 0.64158 0.23448 0.37828 0.0
C1344 C 0.66947 0.31665 0.32712 0.0
C1345 C 0.65097 0.26181 0.36296 0.0
N1346 N 0.61591 0.33759 0.33959 0.0
N1347 N 0.70741 0.24615 0.35998 0.0
H1348 H 0.61911 0.23127 0.39019 0.0
H1349 H 0.65544 0.21427 0.37808 0.0
H1350 H 0.73162 0.24852 0.35216 0.0
H1351 H 0.70379 0.22842 0.37688 0.0
H1352 H 0.62227 0.36004 0.33113 0.0
H1353 H 0.59179 0.33559 0.34791 0.0
H1354 H 0.66079 0.35695 0.29876 0.0
H1355 H 0.70042 0.34377 0.29573 0.0
C1356 C 0.4847 0.90934 0.10075 0.0
C1357 C 0.50371 0.90293 0.12745 0.0
C1358 C 0.52808 0.95572 0.1255 0.0
C1359 C 0.50876 0.96289 0.09896 0.0
N1360 N 0.46164 0.94959 0.06808 0.0
N1361 N 0.53334 0.92295 0.17195 0.0
C1362 C 0.48471 0.94067 0.08872 0.0
C1363 C 0.52154 0.9274 0.1423 0.0
N1364 N 0.46814 0.88538 0.08587 0.0
N1365 N 0.55479 0.97395 0.13289 0.0
H1366 H 0.5288 0.90203 0.18459 0.0
H1367 H 0.5443 0.94107 0.18509 0.0
H1368 H 0.56373 0.99257 0.1189 0.0
H1369 H 0.57088 0.96788 0.1504 0.0
H1370 H 0.45718 0.88807 0.06404 0.0
H1371 H 0.4669 0.86235 0.09452 0.0
H1372 H 0.44198 0.935 0.06192 0.0
H1373 H 0.46022 0.97268 0.05983 0.0
C1374 C 0.9136 0.83002 0.8511 0.0
C1375 C 0.93757 0.80671 0.84597 0.0
C1376 C 0.90017 0.77871 0.80883 0.0
C1377 C 0.87613 0.80204 0.81398 0.0
N1378 N 0.86136 0.85161 0.83849 0.0
N1379 N 0.95278 0.75737 0.82199 0.0
C1380 C 0.88342 0.82822 0.83454 0.0
C1381 C 0.93049 0.78063 0.82539 0.0
N1382 N 0.91872 0.85279 0.87381 0.0
N1383 N 0.89465 0.75556 0.78665 0.0
H1384 H 0.97564 0.75886 0.83209 0.0
H1385 H 0.94845 0.73594 0.8105 0.0
H1386 H 0.87345 0.75399 0.77364 0.0
H1387 H 0.91166 0.73915 0.77921 0.0
H1388 H 0.90114 0.86826 0.88212 0.0
H1389 H 0.94006 0.85488 0.88654 0.0
H1390 H 0.86661 0.87349 0.84876 0.0
H1391 H 0.83782 0.84998 0.83026 0.0
C1392 C 0.01293 0.06812 0.83747 0.0
C1393 C 0.97906 0.06418 0.83241 0.0
C1394 C 0.96745 0.06852 0.88984 0.0
C1395 C 1.00126 0.07046 0.89494 0.0
N1396 N 0.05644 0.06677 0.87525 0.0
N1397 N 0.9246 0.05377 0.85394 0.0
C1398 C 0.0241 0.0686 0.86917 0.0
C1399 C 0.9564 0.06246 0.85865 0.0
N1400 N 0.03418 0.07291 0.81215 0.0
N1401 N 0.94599 0.07354 0.91473 0.0
H1402 H 0.91565 0.04824 0.83155 0.0
H1403 H 0.90777 0.04908 0.87248 0.0
H1404 H 0.95349 0.07787 0.93789 0.0
H1405 H 0.92108 0.07591 0.91201 0.0
H1406 H 0.05867 0.07914 0.81455 0.0
H1407 H 0.02685 0.07327 0.7886 0.0
H1408 H 0.07427 0.06225 0.85778 0.0
H1409 H 0.06507 0.06712 0.89837 0.0
C1410 C 0.80012 0.19403 0.63526 0.0
C1411 C 0.8114 0.21334 0.60931 0.0
C1412 C 0.80121 0.2608 0.64115 0.0
C1413 C 0.78674 0.24151 0.66539 0.0
N1414 N 0.76752 0.19085 0.68427 0.0
N1415 N 0.82054 0.26486 0.58609 0.0
C1416 C 0.78496 0.2084 0.6621 0.0
C1417 C 0.81128 0.24673 0.6118 0.0
N1418 N 0.80372 0.16201 0.6344 0.0
N1419 N 0.80641 0.29229 0.6468 0.0
H1420 H 0.82988 0.25526 0.56487 0.0
H1421 H 0.81751 0.28917 0.58523 0.0
H1422 H 0.79933 0.30309 0.6682 0.0
H1423 H 0.81981 0.30719 0.63138 0.0
H1424 H 0.79955 0.14757 0.65418 0.0
H1425 H 0.81301 0.14975 0.61476 0.0
H1426 H 0.76211 0.16683 0.68164 0.0
H1427 H 0.75572 0.201 0.70401 0.0
C1428 C 0.60905 0.01469 0.41264 0.0
C1429 C 0.63497 0.03749 0.41001 0.0
C1430 C 0.61816 0.06052 0.4609 0.0
C1431 C 0.59446 0.03576 0.46546 0.0
N1432 N 0.5725 0.98516 0.44829 0.0
N1433 N 0.66997 0.07557 0.43615 0.0
C1434 C 0.5915 0.01149 0.44216 0.0
C1435 C 0.64149 0.05817 0.43571 0.0
N1436 N 0.59971 0.99745 0.3867 0.0
N1437 N 0.61695 0.08758 0.47872 0.0
H1438 H 0.68821 0.07366 0.41844 0.0
H1439 H 0.67685 0.08899 0.45586 0.0
H1440 H 0.59809 0.09219 0.49503 0.0
H1441 H 0.63227 0.10718 0.47419 0.0
H1442 H 0.57869 0.98311 0.38677 0.0
H1443 H 0.61098 0.99962 0.36423 0.0
H1444 H 0.57219 0.96541 0.43337 0.0
H1445 H 0.55956 0.98182 0.46972 0.0
C1446 C 0.77822 0.82812 0.1394 0.0
C1447 C 0.79083 0.85964 0.13508 0.0
C1448 C 0.80138 0.86133 0.19324 0.0
C1449 C 0.79192 0.82886 0.19712 0.0
N1450 N 0.77681 0.77997 0.17114 0.0
N1451 N 0.82293 0.90226 0.15767 0.0
C1452 C 0.78183 0.81192 0.16936 0.0
C1453 C 0.80487 0.87497 0.16198 0.0
N1454 N 0.76153 0.8139 0.1154 0.0
N1455 N 0.80533 0.88007 0.21951 0.0
H1456 H 0.82768 0.91227 0.1353 0.0
H1457 H 0.8364 0.9128 0.17569 0.0
H1458 H 0.80128 0.872 0.24273 0.0
H1459 H 0.80883 0.9045 0.21816 0.0
H1460 H 0.74862 0.79253 0.1181 0.0
H1461 H 0.7582 0.82482 0.09359 0.0
H1462 H 0.77269 0.76571 0.1513 0.0
H1463 H 0.77996 0.76727 0.19198 0.0
C1464 C 0.97512 0.09972 0.62881 0.0
C1465 C 0.97896 0.07678 0.65301 0.0
C1466 C 0.01909 0.05102 0.61845 0.0
C1467 C 0.00896 0.06854 0.59237 0.0
N1468 N 0.97616 0.10976 0.57193 0.0
N1469 N 1.00031 0.02546 0.66654 0.0
C1470 C 0.98682 0.09324 0.59726 0.0
C1471 C 1.0001 0.05114 0.64697 0.0
N1472 N 0.96114 0.12784 0.63606 0.0
N1473 N 0.0472 0.03476 0.61614 0.0
H1474 H 0.98406 0.02172 0.68571 0.0
H1475 H 0.01391 0.00562 0.66097 0.0
H1476 H 0.06288 0.03697 0.5962 0.0
H1477 H 0.05673 0.0231 0.63544 0.0
H1478 H 0.96005 0.14624 0.61978 0.0
H1479 H 0.95411 0.13409 0.6593 0.0
H1480 H 0.95736 0.12573 0.57392 0.0
H1481 H 0.98457 0.10584 0.54858 0.0
C1482 C 0.78919 0.24845 0.4372 0.0
C1483 C 0.80019 0.21711 0.43772 0.0
C1484 C 0.81646 0.2213 0.38127 0.0
C1485 C 0.80066 0.25059 0.37984 0.0
N1486 N 0.76374 0.28728 0.40561 0.0
N1487 N 0.81888 0.17128 0.40849 0.0
C1488 C 0.78475 0.26296 0.40755 0.0
C1489 C 0.81245 0.20276 0.40929 0.0
N1490 N 0.78385 0.26485 0.46492 0.0
N1491 N 0.83614 0.21165 0.35648 0.0
H1492 H 0.81501 0.15649 0.42808 0.0
H1493 H 0.82486 0.15924 0.38749 0.0
H1494 H 0.84105 0.22543 0.3363 0.0
H1495 H 0.85036 0.19171 0.35751 0.0
H1496 H 0.77859 0.2888 0.46534 0.0
H1497 H 0.78846 0.25571 0.48731 0.0
H1498 H 0.74949 0.29487 0.42501 0.0
H1499 H 0.75728 0.29715 0.38417 0.0
C1500 C 0.62577 0.08845 0.22865 0.0
C1501 C 0.6217 0.05898 0.24444 0.0
C1502 C 0.57337 0.04629 0.21379 0.0
C1503 C 0.57963 0.07398 0.1957 0.0
N1504 N 0.61307 0.11979 0.18272 0.0
N1505 N 0.59299 0.00901 0.25195 0.0
C1506 C 0.60592 0.0949 0.20254 0.0
C1507 C 0.59577 0.03765 0.23707 0.0
N1508 N 0.64881 0.11004 0.23837 0.0
N1509 N 0.54562 0.02869 0.20876 0.0
H1510 H 0.60795 1.00262 0.27034 0.0
H1511 H 0.57695 0.99092 0.24519 0.0
H1512 H 0.52879 0.03494 0.19194 0.0
H1513 H 0.5379 0.00949 0.22266 0.0
H1514 H 0.65051 0.1332 0.23018 0.0
H1515 H 0.66504 0.10559 0.25631 0.0
H1516 H 0.63406 0.13399 0.18408 0.0
H1517 H 0.5991 0.12492 0.1632 0.0
C1518 C 0.77016 0.87669 0.9196 0.0
C1519 C 0.78478 0.85787 0.94336 0.0
C1520 C 0.79606 0.8186 0.90063 0.0
C1521 C 0.77707 0.83468 0.87818 0.0
N1522 N 0.74111 0.87764 0.86983 0.0
N1523 N 0.80263 0.80562 0.95602 0.0
C1524 C 0.76268 0.86334 0.88874 0.0
C1525 C 0.79496 0.82728 0.93369 0.0
N1526 N 0.765 0.90791 0.92542 0.0
N1527 N 0.8173 0.79631 0.89031 0.0
H1528 H 0.79974 0.80967 0.98044 0.0
H1529 H 0.80769 0.78226 0.95016 0.0
H1530 H 0.822 0.79189 0.86625 0.0
H1531 H 0.83358 0.78581 0.9053 0.0
H1532 H 0.75748 0.92331 0.908 0.0
H1533 H 0.77177 0.91934 0.9463 0.0
H1534 H 0.72739 0.89673 0.87748 0.0
H1535 H 0.73452 0.86847 0.84778 0.0
C1536 C 0.90432 0.95903 0.05501 0.0
C1537 C 0.87611 0.97391 0.04417 0.0
C1538 C 0.91009 0.02304 0.03607 0.0
C1539 C 0.9389 0.00684 0.04341 0.0
N1540 N 0.96288 0.95612 0.05136 0.0
N1541 N 0.85361 0.0195 0.01988 0.0
C1542 C 0.93577 0.97395 0.05057 0.0
C1543 C 0.87942 0.00584 0.03353 0.0
N1544 N 0.90119 0.93101 0.07096 0.0
N1545 N 0.91164 0.05509 0.03267 0.0
H1546 H 0.8312 0.00774 0.01736 0.0
H1547 H 0.85525 0.04134 0.00858 0.0
H1548 H 0.93321 0.06838 0.03487 0.0
H1549 H 0.89116 0.06877 0.03058 0.0
H1550 H 0.92049 0.92083 0.0823 0.0
H1551 H 0.87876 0.91977 0.07609 0.0
H1552 H 0.96188 0.93156 0.05306 0.0
H1553 H 0.98616 0.96531 0.0464 0.0
C1554 C 0.4223 0.59014 0.98647 0.0
C1555 C 0.422 0.62312 0.99273 0.0
C1556 C 0.47378 0.63032 0.96333 0.0
C1557 C 0.47755 0.59734 0.96523 0.0
N1558 N 0.44977 0.54735 0.95885 0.0
N1559 N 0.44252 0.6757 0.9806 0.0
C1560 C 0.44972 0.5776 0.97018 0.0
C1561 C 0.44588 0.64375 0.97838 0.0
N1562 N 0.39704 0.57091 0.99709 0.0
N1563 N 0.49686 0.64809 0.94703 0.0
H1564 H 0.42213 0.68586 0.99143 0.0
H1565 H 0.45988 0.69219 0.9722 0.0
H1566 H 0.51632 0.63754 0.93486 0.0
H1567 H 0.4956 0.6723 0.94349 0.0
H1568 H 0.39764 0.54636 0.99648 0.0
H1569 H 0.37571 0.57963 0.00753 0.0
H1570 H 0.42957 0.53199 0.96002 0.0
H1571 H 0.46937 0.53905 0.94506 0.0
C1572 C 0.22194 0.60284 0.75122 0.0
C1573 C 0.20029 0.60171 0.77828 0.0
C1574 C 0.19622 0.65896 0.77625 0.0
C1575 C 0.22298 0.66018 0.75414 0.0
N1576 N 0.26445 0.63316 0.7236 0.0
N1577 N 0.16805 0.62912 0.8182 0.0
C1578 C 0.23654 0.6321 0.74211 0.0
C1579 C 0.18733 0.62987 0.7911 0.0
N1580 N 0.22776 0.57624 0.73359 0.0
N1581 N 0.17947 0.68573 0.78285 0.0
H1582 H 0.16159 0.60827 0.83018 0.0
H1583 H 0.16074 0.64941 0.83027 0.0
H1584 H 0.18516 0.70709 0.77141 0.0
H1585 H 0.15817 0.68595 0.79695 0.0
H1586 H 0.24127 0.57664 0.71215 0.0
H1587 H 0.21594 0.55457 0.73822 0.0
H1588 H 0.27713 0.61301 0.71714 0.0
H1589 H 0.27657 0.65418 0.71712 0.0
C1590 C 0.15759 0.46758 0.57858 0.0
C1591 C 0.18403 0.47681 0.55768 0.0
C1592 C 0.1472 0.51188 0.52928 0.0
C1593 C 0.12052 0.50244 0.54993 0.0
N1594 N 0.10061 0.47167 0.59497 0.0
N1595 N 0.20311 0.50412 0.51031 0.0
C1596 C 0.12594 0.48042 0.57479 0.0
C1597 C 0.17846 0.49782 0.53215 0.0
N1598 N 0.16235 0.44476 0.60082 0.0
N1599 N 0.14336 0.53603 0.50834 0.0
H1600 H 0.22656 0.49574 0.51249 0.0
H1601 H 0.19997 0.51584 0.48895 0.0
H1602 H 0.12147 0.54755 0.50611 0.0
H1603 H 0.16239 0.54668 0.49508 0.0
H1604 H 0.14397 0.43411 0.61489 0.0
H1605 H 0.18487 0.43472 0.60415 0.0
H1606 H 0.10311 0.46022 0.61655 0.0
H1607 H 0.07647 0.47596 0.59018 0.0
C1608 C 0.87196 0.96007 0.72077 0.0
C1609 C 0.86231 0.98736 0.73788 0.0
C1610 C 0.81223 0.96037 0.75696 0.0
C1611 C 0.82267 0.93276 0.74123 0.0
N1612 N 0.86317 0.90391 0.71167 0.0
N1613 N 0.82635 0.01301 0.77587 0.0
C1614 C 0.85283 0.9319 0.72416 0.0
C1615 C 0.83322 0.98745 0.75699 0.0
N1616 N 0.89857 0.96154 0.70035 0.0
N1617 N 0.78197 0.96054 0.77137 0.0
H1618 H 0.84137 0.03324 0.77663 0.0
H1619 H 0.80712 0.01342 0.79258 0.0
H1620 H 0.76659 0.94053 0.77229 0.0
H1621 H 0.77124 0.98075 0.7806 0.0
H1622 H 0.90488 0.94344 0.68466 0.0
H1623 H 0.91331 0.98182 0.69742 0.0
H1624 H 0.88645 0.90073 0.70189 0.0
H1625 H 0.84903 0.88312 0.71293 0.0
C1626 C 0.72269 0.1172 0.58357 0.0
C1627 C 0.73866 0.09965 0.55897 0.0
C1628 C 0.69537 0.05909 0.56168 0.0
C1629 C 0.67781 0.0785 0.58332 0.0
N1630 N 0.67268 0.12594 0.61419 0.0
N1631 N 0.74112 0.0546 0.52393 0.0
C1632 C 0.69119 0.10727 0.59457 0.0
C1633 C 0.72544 0.07054 0.54801 0.0
N1634 N 0.73753 0.1436 0.59603 0.0
N1635 N 0.68292 0.02978 0.55444 0.0
H1636 H 0.76373 0.06212 0.51431 0.0
H1637 H 0.73134 0.03481 0.51253 0.0
H1638 H 0.66091 0.02112 0.56445 0.0
H1639 H 0.6952 0.01323 0.54056 0.0
H1640 H 0.729 0.15529 0.61637 0.0
H1641 H 0.75967 0.15292 0.5872 0.0
H1642 H 0.67913 0.14904 0.62041 0.0
H1643 H 0.64964 0.11882 0.62299 0.0
C1644 C 0.26217 0.43165 0.83138 0.0
C1645 C 0.25742 0.44075 0.79925 0.0
C1646 C 0.29692 0.40196 0.78183 0.0
C1647 C 0.29373 0.38724 0.81178 0.0
N1648 N 0.27588 0.38899 0.86657 0.0
N1649 N 0.2673 0.42965 0.74287 0.0
C1650 C 0.27735 0.4026 0.83719 0.0
C1651 C 0.27443 0.42503 0.77406 0.0
N1652 N 0.25327 0.45101 0.85609 0.0
N1653 N 0.32056 0.39304 0.76047 0.0
H1654 H 0.24835 0.44349 0.73566 0.0
H1655 H 0.27754 0.41636 0.72432 0.0
H1656 H 0.33821 0.37714 0.76658 0.0
H1657 H 0.32503 0.40462 0.73886 0.0
H1658 H 0.25826 0.44626 0.87974 0.0
H1659 H 0.24436 0.47352 0.85267 0.0
H1660 H 0.26103 0.39696 0.88534 0.0
H1661 H 0.28919 0.36903 0.87143 0.0
C1662 C 0.31453 0.6247 0.26057 0.0
C1663 C 0.34913 0.62783 0.26091 0.0
C1664 C 0.34371 0.6637 0.30623 0.0
C1665 C 0.31083 0.66821 0.29899 0.0
N1666 N 0.26298 0.64953 0.2725 0.0
N1667 N 0.39657 0.65497 0.28231 0.0
C1668 C 0.29552 0.64734 0.27729 0.0
C1669 C 0.36385 0.64829 0.28355 0.0
N1670 N 0.2999 0.59958 0.24563 0.0
N1671 N 0.35571 0.674 0.33446 0.0
H1672 H 0.41218 0.64683 0.26423 0.0
H1673 H 0.40739 0.67187 0.29706 0.0
H1674 H 0.34053 0.6821 0.35293 0.0
H1675 H 0.37947 0.66982 0.34107 0.0
H1676 H 0.27486 0.59505 0.24679 0.0
H1677 H 0.31295 0.58126 0.2352 0.0
H1678 H 0.25108 0.63784 0.25411 0.0
H1679 H 0.24824 0.66398 0.28671 0.0
C1680 C 0.55392 0.67626 0.61454 0.0
C1681 C 0.53201 0.70072 0.60788 0.0
C1682 C 0.50143 0.66213 0.57392 0.0
C1683 C 0.52442 0.63812 0.57927 0.0
N1684 N 0.57723 0.62618 0.59907 0.0
N1685 N 0.48735 0.71785 0.57737 0.0
C1686 C 0.55185 0.6463 0.59815 0.0
C1687 C 0.50662 0.69387 0.58625 0.0
N1688 N 0.57683 0.68142 0.63705 0.0
N1689 N 0.47363 0.65425 0.55837 0.0
H1690 H 0.48997 0.74073 0.58644 0.0
H1691 H 0.4706 0.7158 0.55932 0.0
H1692 H 0.46873 0.63156 0.54967 0.0
H1693 H 0.45419 0.66926 0.55639 0.0
H1694 H 0.59053 0.66352 0.64636 0.0
H1695 H 0.58074 0.7033 0.64803 0.0
H1696 H 0.59949 0.63216 0.60899 0.0
H1697 H 0.57751 0.60467 0.58705 0.0
C1698 C 0.69053 0.24735 0.89691 0.0
C1699 C 0.668 0.2717 0.89342 0.0
C1700 C 0.69907 0.29259 0.84738 0.0
C1701 C 0.72373 0.27077 0.85332 0.0
N1702 N 0.74398 0.22753 0.88364 0.0
N1703 N 0.65278 0.32043 0.86909 0.0
C1704 C 0.71981 0.24821 0.87815 0.0
C1705 C 0.6726 0.29499 0.86951 0.0
N1706 N 0.68322 0.22274 0.91713 0.0
N1707 N 0.70079 0.31111 0.82076 0.0
H1708 H 0.63337 0.32346 0.88532 0.0
H1709 H 0.65736 0.34005 0.85462 0.0
H1710 H 0.72057 0.3118 0.80468 0.0
H1711 H 0.68149 0.32443 0.8134 0.0
H1712 H 0.69702 0.20256 0.91833 0.0
H1713 H 0.66176 0.22119 0.93103 0.0
H1714 H 0.74458 0.21358 0.90393 0.0
H1715 H 0.76431 0.2251 0.86843 0.0
C1716 C 0.07278 0.38667 0.06783 0.0
C1717 C 0.05803 0.37898 0.0983 0.0
C1718 C 0.0366 0.43353 0.09943 0.0
C1719 C 0.05586 0.44238 0.07204 0.0
N1720 N 0.09779 0.42758 0.03399 0.0
N1721 N 0.03268 0.40061 0.14637 0.0
C1722 C 0.0757 0.41902 0.05752 0.0
C1723 C 0.04158 0.40389 0.11493 0.0
N1724 N 0.08237 0.36313 0.04758 0.0
N1725 N 0.01338 0.45341 0.11089 0.0
H1726 H 0.03868 0.3813 0.16 0.0
H1727 H 0.02325 0.41904 0.16004 0.0
H1728 H 0.00894 0.47495 0.10013 0.0
H1729 H 0.99658 0.44704 0.129 0.0
H1730 H 0.09079 0.3674 0.02428 0.0
H1731 H 0.07777 0.33929 0.05229 0.0
H1732 H 0.11502 0.41219 0.0246 0.0
H1733 H 0.10093 0.45082 0.02618 0.0
C1734 C 0.98583 0.79507 0.34238 0.0
C1735 C 0.98335 0.79882 0.37598 0.0
C1736 C 0.93006 0.82275 0.37166 0.0
C1737 C 0.93171 0.81722 0.33841 0.0
N1738 N 0.95822 0.79536 0.29199 0.0
N1739 N 0.95272 0.81367 0.42345 0.0
C1740 C 0.95889 0.8027 0.32369 0.0
C1741 C 0.95526 0.81186 0.39091 0.0
N1742 N 0.01407 0.78459 0.32843 0.0
N1743 N 0.90462 0.83917 0.38448 0.0
H1744 H 0.97123 0.80707 0.43828 0.0
H1745 H 0.93166 0.81996 0.43604 0.0
H1746 H 0.88583 0.8472 0.37075 0.0
H1747 H 0.90304 0.8468 0.40806 0.0
H1748 H 0.01884 0.78452 0.30394 0.0
H1749 H 0.0337 0.77741 0.34153 0.0
H1750 H 0.97558 0.78184 0.28012 0.0
H1751 H 0.93891 0.80129 0.27781 0.0
C1752 C 0.56941 0.38388 0.96825 0.0
C1753 C 0.56022 0.35876 0.9891 0.0
C1754 C 0.53145 0.39575 0.02402 0.0
C1755 C 0.53665 0.4194 1.00058 0.0
N1756 N 0.55377 0.43381 0.94708 0.0
N1757 N 0.52896 0.33965 0.03512 0.0
C1758 C 0.5537 0.41284 0.9717 0.0
C1759 C 0.54039 0.3643 0.01674 0.0
N1760 N 0.59371 0.38028 0.94563 0.0
N1761 N 0.51886 0.40358 0.05338 0.0
H1762 H 0.53483 0.31626 0.03043 0.0
H1763 H 0.51169 0.34218 0.05358 0.0
H1764 H 0.51244 0.42657 0.05935 0.0
H1765 H 0.51741 0.38794 0.07247 0.0
H1766 H 0.60305 0.3989 0.93167 0.0
H1767 H 0.60702 0.35971 0.94338 0.0
H1768 H 0.56365 0.42885 0.9245 0.0
H1769 H 0.54068 0.45456 0.94814 0.0
C1770 C 0.94206 0.29126 0.26809 0.0
C1771 C 0.94532 0.28445 0.23488 0.0
C1772 C 0.88608 0.29113 0.23037 0.0
C1773 C 0.88222 0.29442 0.26412 0.0
N1774 N 0.9066 0.29332 0.31554 0.0
N1775 N 0.91915 0.27293 0.18539 0.0
C1776 C 0.9103 0.29357 0.28308 0.0
C1777 C 0.91699 0.28327 0.21628 0.0
N1778 N 0.96944 0.29645 0.28523 0.0
N1779 N 0.86031 0.29631 0.21144 0.0
H1780 H 0.941 0.26659 0.17415 0.0
H1781 H 0.89892 0.26779 0.17175 0.0
H1782 H 0.83724 0.30176 0.22043 0.0
H1783 H 0.86248 0.29817 0.18674 0.0
H1784 H 0.96897 0.3048 0.30861 0.0
H1785 H 0.99288 0.29515 0.27513 0.0
H1786 H 0.92553 0.28903 0.33072 0.0
H1787 H 0.88401 0.29483 0.32736 0.0
C1788 C 0.08394 0.67637 0.53977 0.0
C1789 C 0.07789 0.68714 0.5085 0.0
C1790 C 0.04662 0.6388 0.49874 0.0
C1791 C 0.05797 0.62556 0.52717 0.0
N1792 N 0.09478 0.63046 0.57109 0.0
N1793 N 0.06222 0.6727 0.45495 0.0
C1794 C 0.07884 0.64388 0.54675 0.0
C1795 C 0.06189 0.66662 0.48688 0.0
N1796 N 0.09281 0.69697 0.5633 0.0
N1797 N 0.02029 0.626 0.48382 0.0
H1798 H 0.07601 0.69113 0.4445 0.0
H1799 H 0.05232 0.65681 0.43856 0.0
H1800 H 1.00569 0.60794 0.49387 0.0
H1801 H 0.01041 0.63642 0.46397 0.0
H1802 H 0.09492 0.68997 0.58691 0.0
H1803 H 0.09387 0.72138 0.56035 0.0
H1804 H 0.11217 0.64288 0.58412 0.0
H1805 H 0.09366 0.60632 0.57579 0.0
C1806 C 0.63989 0.82012 0.73294 0.0
C1807 C 0.62577 0.79114 0.72186 0.0
C1808 C 0.66624 0.76244 0.75314 0.0
C1809 C 0.68262 0.79144 0.76169 0.0
N1810 N 0.6759 0.84724 0.76982 0.0
N1811 N 0.62951 0.73471 0.71741 0.0
C1812 C 0.66695 0.82014 0.75412 0.0
C1813 C 0.63997 0.76238 0.73111 0.0
N1814 N 0.6277 0.84791 0.72284 0.0
N1815 N 0.67373 0.7349 0.76767 0.0
H1816 H 0.61068 0.73345 0.70131 0.0
H1817 H 0.64159 0.71354 0.7194 0.0
H1818 H 0.68949 0.73369 0.78643 0.0
H1819 H 0.66071 0.71373 0.76457 0.0
H1820 H 0.63918 0.86984 0.72614 0.0
H1821 H 0.60701 0.84895 0.70916 0.0
H1822 H 0.66414 0.86855 0.76788 0.0
H1823 H 0.69236 0.84748 0.78823 0.0
C1824 C 0.63619 0.4737 0.67874 0.0
C1825 C 0.64198 0.49843 0.70087 0.0
C1826 C 0.59144 0.52321 0.68708 0.0
C1827 C 0.58708 0.50016 0.66319 0.0
N1828 N 0.60737 0.45678 0.63186 0.0
N1829 N 0.62931 0.55038 0.72125 0.0
C1830 C 0.61 0.4762 0.65778 0.0
C1831 C 0.62073 0.52425 0.70377 0.0
N1832 N 0.65497 0.44757 0.67844 0.0
N1833 N 0.56724 0.54391 0.69384 0.0
H1834 H 0.65136 0.55273 0.73281 0.0
H1835 H 0.61616 0.57105 0.72165 0.0
H1836 H 0.54544 0.54348 0.6817 0.0
H1837 H 0.56751 0.55943 0.71316 0.0
H1838 H 0.64969 0.42738 0.66508 0.0
H1839 H 0.6745 0.4451 0.69344 0.0
H1840 H 0.62522 0.44101 0.62472 0.0
H1841 H 0.58848 0.45821 0.61597 0.0
C1842 C 0.79433 0.32607 0.99437 0.0
C1843 C 0.80755 0.35663 1.00074 0.0
C1844 C 0.84429 0.35327 0.95378 0.0
C1845 C 0.83233 0.3222 0.94839 0.0
N1846 N 0.79841 0.27745 0.96342 0.0
N1847 N 0.84681 0.39882 0.98885 0.0
C1848 C 0.80799 0.30813 0.96874 0.0
C1849 C 0.83309 0.37008 0.98111 0.0
N1850 N 0.76859 0.31456 0.01263 0.0
N1851 N 0.86548 0.36696 0.93188 0.0
H1852 H 0.83808 0.4128 0.00756 0.0
H1853 H 0.8679 0.40827 0.97785 0.0
H1854 H 0.87473 0.35472 0.91211 0.0
H1855 H 0.87246 0.39076 0.93207 0.0
H1856 H 0.75591 0.29354 0.00792 0.0
H1857 H 0.75858 0.32704 0.03189 0.0
H1858 H 0.78254 0.2645 0.97842 0.0
H1859 H 0.80801 0.26415 0.94454 0.0
C1860 C 0.96177 0.5825 0.14734 0.0
C1861 C 0.95905 0.55768 0.16986 0.0
C1862 C 0.00744 0.53342 0.14651 0.0
C1863 C 0.0074 0.55563 0.12142 0.0
N1864 N 0.9843 0.60068 0.09647 0.0
N1865 N 0.97551 0.50666 0.18796 0.0
C1866 C 0.98448 0.58005 0.12141 0.0
C1867 C 0.98102 0.53246 0.16886 0.0
N1868 N 0.94368 0.60893 0.15147 0.0
N1869 N 0.03245 0.51303 0.14891 0.0
H1870 H 0.95568 0.50446 0.20398 0.0
H1871 H 0.98865 0.48604 0.18567 0.0
H1872 H 0.05166 0.51181 0.13226 0.0
H1873 H 0.03541 0.49886 0.16876 0.0
H1874 H 0.94705 0.62917 0.13768 0.0
H1875 H 0.92706 0.61177 0.17048 0.0
H1876 H 0.96561 0.61629 0.09299 0.0
H1877 H 1.00217 0.60114 0.07827 0.0
C1878 C 0.76639 0.7677 0.44039 0.0
C1879 C 0.77524 0.73606 0.44734 0.0
C1880 C 0.79765 0.73265 0.39173 0.0
C1881 C 0.78376 0.76175 0.38359 0.0
N1882 N 0.75089 0.80533 0.4003 0.0
N1883 N 0.79266 0.68616 0.42492 0.0
C1884 C 0.7668 0.77867 0.40797 0.0
C1885 C 0.78926 0.71796 0.42175 0.0
N1886 N 0.75945 0.78816 0.46476 0.0
N1887 N 0.8194 0.71905 0.37102 0.0
H1888 H 0.78422 0.67355 0.44486 0.0
H1889 H 0.80001 0.67167 0.40603 0.0
H1890 H 0.82682 0.72958 0.34949 0.0
H1891 H 0.83252 0.69927 0.37679 0.0
H1892 H 0.75568 0.8121 0.46125 0.0
H1893 H 0.76159 0.78232 0.48866 0.0
H1894 H 0.73524 0.81684 0.41623 0.0
H1895 H 0.75132 0.81442 0.37723 0.0
C1896 C 0.60959 0.511 0.87137 0.0
C1897 C 0.64281 0.52017 0.86763 0.0
C1898 C 0.64061 0.54811 0.9187 0.0
C1899 C 0.60633 0.54206 0.92072 0.0
N1900 N 0.55728 0.52233 0.89625 0.0
N1901 N 0.68954 0.55046 0.88508 0.0
C1902 C 0.59055 0.52451 0.89642 0.0
C1903 C 0.65827 0.53947 0.89061 0.0
N1904 N 0.59637 0.48928 0.85095 0.0
N1905 N 0.65667 0.56085 0.94399 0.0
H1906 H 0.70386 0.54349 0.86547 0.0
H1907 H 0.70059 0.56806 0.89877 0.0
H1908 H 0.64521 0.56739 0.96536 0.0
H1909 H 0.68195 0.56211 0.94508 0.0
H1910 H 0.57313 0.47919 0.85429 0.0
H1911 H 0.60987 0.47915 0.83226 0.0
H1912 H 0.54439 0.51244 0.87753 0.0
H1913 H 0.54231 0.53329 0.91324 0.0
C1914 C 0.74004 0.37136 0.18003 0.0
C1915 C 0.768 0.38904 0.16931 0.0
C1916 C 0.80009 0.36722 0.21145 0.0
C1917 C 0.77283 0.34762 0.22097 0.0
N1918 N 0.71726 0.32964 0.21424 0.0
N1919 N 0.82547 0.40162 0.17154 0.0
C1920 C 0.74288 0.34919 0.20514 0.0
C1921 C 0.79818 0.38653 0.18425 0.0
N1922 N 0.71076 0.37644 0.16659 0.0
N1923 N 0.82787 0.36772 0.22858 0.0
H1924 H 0.82502 0.41721 0.15242 0.0
H1925 H 0.84901 0.39725 0.17852 0.0
H1926 H 0.84619 0.38509 0.22612 0.0
H1927 H 0.83216 0.35174 0.24653 0.0
H1928 H 0.68867 0.36656 0.17487 0.0
H1929 H 0.70818 0.39246 0.14809 0.0
H1930 H 0.69582 0.3272 0.20184 0.0
H1931 H 0.71787 0.31446 0.23368 0.0
C1932 C 0.99303 0.57257 0.35046 0.0
C1933 C 0.9637 0.55583 0.34376 0.0
C1934 C 0.96591 0.52678 0.39383 0.0
C1935 C 0.9969 0.5409 0.39874 0.0
N1936 N 0.04052 0.57702 0.38369 0.0
N1937 N 0.92148 0.51729 0.35809 0.0
C1938 C 0.01051 0.56404 0.37772 0.0
C1939 C 0.94972 0.53325 0.3654 0.0
N1940 N 1.00401 0.59632 0.33063 0.0
N1941 N 0.95201 0.50743 0.41671 0.0
H1942 H 0.90791 0.52276 0.3384 0.0
H1943 H 0.91198 0.49786 0.37064 0.0
H1944 H 0.96391 0.50141 0.43731 0.0
H1945 H 0.92808 0.4988 0.41649 0.0
H1946 H 0.02414 0.61095 0.33492 0.0
H1947 H 0.99163 0.60268 0.31041 0.0
H1948 H 0.05346 0.5923 0.36836 0.0
H1949 H 0.05323 0.57138 0.40395 0.0
C1950 C 0.75521 0.72101 0.65728 0.0
C1951 C 0.78209 0.72246 0.63507 0.0
C1952 C 0.81254 0.75538 0.6744 0.0
C1953 C 0.78645 0.75204 0.69754 0.0
N1954 N 0.73363 0.7287 0.71124 0.0
N1955 N 0.83778 0.73843 0.62384 0.0
C1956 C 0.75809 0.7339 0.68896 0.0
C1957 C 0.8111 0.73906 0.64406 0.0
N1958 N 0.72626 0.70802 0.64768 0.0
N1959 N 0.8389 0.77423 0.68141 0.0
H1960 H 0.83726 0.7277 0.60142 0.0
H1961 H 0.86087 0.7467 0.62984 0.0
H1962 H 0.84186 0.78468 0.70372 0.0
H1963 H 0.85704 0.78094 0.66478 0.0
H1964 H 0.70444 0.70945 0.66079 0.0
H1965 H 0.72336 0.69785 0.62523 0.0
H1966 H 0.71458 0.71231 0.70846 0.0
H1967 H 0.73315 0.73947 0.73353 0.0
C1968 C 0.67682 0.5872 0.55796 0.0
C1969 C 0.68628 0.61287 0.53728 0.0
C1970 C 0.6308 0.60895 0.51584 0.0
C1971 C 0.6231 0.58029 0.53265 0.0
N1972 N 0.64503 0.53828 0.5636 0.0
N1973 N 0.6735 0.63958 0.48857 0.0
C1974 C 0.64803 0.56822 0.55181 0.0
C1975 C 0.66371 0.621 0.51373 0.0
N1976 N 0.69382 0.5817 0.5847 0.0
N1977 N 0.60674 0.6265 0.50383 0.0
H1978 H 0.69773 0.64664 0.48425 0.0
H1979 H 0.65828 0.6442 0.46982 0.0
H1980 H 0.58216 0.62175 0.50872 0.0
H1981 H 0.61137 0.64852 0.49337 0.0
H1982 H 0.68603 0.5651 0.60174 0.0
H1983 H 0.71306 0.59617 0.59205 0.0
H1984 H 0.66364 0.52764 0.5756 0.0
H1985 H 0.62594 0.52276 0.5579 0.0
C1986 C 0.14279 0.96204 0.57286 0.0
C1987 C 0.17259 0.96842 0.5562 0.0
C1988 C 0.14509 1.00014 0.51743 0.0
C1989 C 0.11616 0.99786 0.53679 0.0
N1990 N 0.08742 0.97736 0.58382 0.0
N1991 N 0.20362 0.99512 0.51423 0.0
C1992 C 0.11483 0.9787 0.56458 0.0
C1993 C 0.17418 0.98779 0.52882 0.0
N1994 N 0.14119 0.93963 0.59624 0.0
N1995 N 0.14446 0.01265 0.4875 0.0
H1996 H 0.22541 0.98551 0.52111 0.0
H1997 H 0.20674 0.01233 0.49667 0.0
H1998 H 0.12338 0.02084 0.47761 0.0
H1999 H 0.16399 0.01182 0.47113 0.0
H2000 H 0.11949 0.9314 0.60709 0.0
H2001 H 0.16143 0.92715 0.60289 0.0
H2002 H 0.08669 0.96773 0.60661 0.0
H2003 H 0.0655 0.98705 0.57779 0.0
C2004 C 0.34654 0.97884 0.8354 0.0
C2005 C 0.33958 0.98449 0.803 0.0
C2006 C 0.3034 0.93797 0.8031 0.0
C2007 C 0.31592 0.92899 0.83269 0.0
N2008 N 0.35075 0.93955 0.87662 0.0
N2009 N 0.31329 0.96781 0.75472 0.0
C2010 C 0.33757 0.94925 0.84901 0.0
C2011 C 0.31811 0.9639 0.78651 0.0
N2012 N 0.36103 1.00201 0.85326 0.0
N2013 N 0.27738 0.92162 0.79112 0.0
H2014 H 0.32421 0.98611 0.74138 0.0
H2015 H 0.30062 0.95133 0.74098 0.0
H2016 H 0.26545 0.90325 0.80362 0.0
H2017 H 0.2656 0.92842 0.77074 0.0
H2018 H 0.36432 1.00001 0.87767 0.0
H2019 H 0.36646 0.02454 0.84434 0.0
H2020 H 0.3695 0.95194 0.88776 0.0
H2021 H 0.34449 0.91788 0.88714 0.0
C2022 C 0.3947 0.0981 0.08841 0.0
C2023 C 0.37675 0.10305 0.06053 0.0
C2024 C 0.42342 0.08346 0.02833 0.0
C2025 C 0.44013 0.07568 0.05658 0.0
N2026 N 0.43408 0.06568 0.11321 0.0
N2027 N 0.37131 0.09191 1.00453 0.0
C2028 C 0.42353 0.08009 0.08653 0.0
C2029 C 0.39033 0.09324 0.03066 0.0
N2030 N 0.38523 0.11162 0.1167 0.0
N2031 N 0.43902 0.08294 0.99916 0.0
H2032 H 0.3468 0.09767 1.00535 0.0
H2033 H 0.37882 0.0817 0.98298 0.0
H2034 H 0.46291 0.07632 0.99549 0.0
H2035 H 0.42906 0.09201 0.97872 0.0
H2036 H 0.39933 0.11104 0.1369 0.0
H2037 H 0.36548 0.12646 0.11906 0.0
H2038 H 0.4212 0.06618 0.13499 0.0
H2039 H 0.45292 0.04969 0.11264 0.0
C2040 C 0.76472 0.59269 0.81604 0.0
C2041 C 0.76413 0.58747 0.78268 0.0
C2042 C 0.78251 0.64196 0.77415 0.0
C2043 C 0.77475 0.64861 0.80662 0.0
N2044 N 0.75403 0.63042 0.85792 0.0
N2045 N 0.77038 0.6084 0.72917 0.0
C2046 C 0.76504 0.62396 0.82763 0.0
C2047 C 0.77291 0.61228 0.76131 0.0
N2048 N 0.76472 0.56774 0.83653 0.0
N2049 N 0.7997 0.66361 0.75594 0.0
H2050 H 0.76311 0.58718 0.71858 0.0
H2051 H 0.77314 0.62711 0.71319 0.0
H2052 H 0.80904 0.68469 0.76538 0.0
H2053 H 0.80794 0.65893 0.7327 0.0
H2054 H 0.76746 0.57051 0.861 0.0
H2055 H 0.76564 0.54439 0.82851 0.0
H2056 H 0.74386 0.61313 0.87307 0.0
H2057 H 0.75178 0.65334 0.8667 0.0
C2058 C 0.87668 0.51029 0.07053 0.0
C2059 C 0.85329 0.49294 0.05293 0.0
C2060 C 0.88799 0.49707 1.00472 0.0
C2061 C 0.91114 0.5146 0.02214 0.0
N2062 N 0.92305 0.54685 0.06793 0.0
N2063 N 0.83165 0.47986 1.00148 0.0
C2064 C 0.90392 0.52421 0.05392 0.0
C2065 C 0.85731 0.48961 0.01936 0.0
N2066 N 0.87408 0.51192 0.10302 0.0
N2067 N 0.89592 0.48602 0.97496 0.0
H2068 H 0.80836 0.47543 0.01136 0.0
H2069 H 0.83264 0.47947 0.97665 0.0
H2070 H 0.91851 0.49067 0.96373 0.0
H2071 H 0.88109 0.47017 0.96257 0.0
H2072 H 0.89246 0.52141 0.11703 0.0
H2073 H 0.85477 0.50158 0.11623 0.0
H2074 H 0.91756 0.55662 0.09022 0.0
H2075 H 0.9424 0.55827 0.05563 0.0
C2076 C 0.32285 0.16919 0.73171 0.0
C2077 C 0.31695 0.14558 0.75514 0.0
C2078 C 0.28403 0.18155 0.78759 0.0
C2079 C 0.29174 0.20567 0.76512 0.0
N2080 N 0.30958 0.22111 0.71235 0.0
N2081 N 0.28579 0.12582 0.80066 0.0
C2082 C 0.30813 0.19888 0.73588 0.0
C2083 C 0.29537 0.15064 0.78156 0.0
N2084 N 0.34382 0.16375 0.70646 0.0
N2085 N 0.26756 0.18869 0.81537 0.0
H2086 H 0.29397 0.10296 0.79683 0.0
H2087 H 0.26791 0.12718 0.81867 0.0
H2088 H 0.25784 0.2108 0.81989 0.0
H2089 H 0.26463 0.17328 0.83453 0.0
H2090 H 0.35204 0.18114 0.69051 0.0
H2091 H 0.35457 0.14201 0.70234 0.0
H2092 H 0.31893 0.21704 0.68942 0.0
H2093 H 0.29852 0.24291 0.71506 0.0
C2094 C 0.23535 0.89108 0.30218 0.0
C2095 C 0.25949 0.91412 0.29267 0.0
C2096 C 0.30162 0.8747 0.29583 0.0
C2097 C 0.27751 0.85237 0.30637 0.0
N2098 N 0.22473 0.84258 0.3311 0.0
N2099 N 0.31642 0.93015 0.29037 0.0
C2100 C 0.24545 0.86173 0.31348 0.0
C2101 C 0.29299 0.90669 0.29265 0.0
N2102 N 0.20297 0.8958 0.29805 0.0
N2103 N 0.33224 0.86522 0.28766 0.0
H2104 H 0.31087 0.95401 0.28957 0.0
H2105 H 0.34112 0.92616 0.29285 0.0
H2106 H 0.33922 0.84191 0.29002 0.0
H2107 H 0.34981 0.87995 0.27655 0.0
H2108 H 0.18515 0.87815 0.30206 0.0
H2109 H 0.19403 0.91567 0.28717 0.0
H2110 H 0.20183 0.84961 0.33929 0.0
H2111 H 0.23217 0.82134 0.3406 0.0
C2112 C 0.53522 0.41603 0.45669 0.0
C2113 C 0.52256 0.39176 0.47772 0.0
C2114 C 0.51212 0.43409 0.5177 0.0
C2115 C 0.52916 0.45756 0.49874 0.0
N2116 N 0.56246 0.46766 0.45141 0.0
N2117 N 0.50768 0.37889 0.53233 0.0
C2118 C 0.5423 0.44755 0.46858 0.0
C2119 C 0.51364 0.40121 0.50939 0.0
N2120 N 0.53888 0.40986 0.42485 0.0
N2121 N 0.49244 0.44303 0.54274 0.0
H2122 H 0.51068 0.35484 0.52823 0.0
H2123 H 0.50387 0.38466 0.55631 0.0
H2124 H 0.48763 0.46654 0.54786 0.0
H2125 H 0.47737 0.42709 0.55552 0.0
H2126 H 0.54486 0.42734 0.40813 0.0
H2127 H 0.53232 0.38827 0.4146 0.0
H2128 H 0.57534 0.46071 0.4309 0.0
H2129 H 0.569 0.49022 0.45945 0.0
C2130 C 0.42965 0.78687 0.2407 0.0
C2131 C 0.4279 0.76816 0.21248 0.0
C2132 C 0.37826 0.74225 0.23338 0.0
C2133 C 0.37677 0.76446 0.25881 0.0
N2134 N 0.40037 0.80966 0.28582 0.0
N2135 N 0.39721 0.7321 0.17947 0.0
C2136 C 0.40234 0.78725 0.26238 0.0
C2137 C 0.40123 0.74701 0.2081 0.0
N2138 N 0.45788 0.80292 0.24773 0.0
N2139 N 0.35864 0.71571 0.2341 0.0
H2140 H 0.41306 0.73576 0.15986 0.0
H2141 H 0.37631 0.7188 0.17423 0.0
H2142 H 0.34289 0.71045 0.25332 0.0
H2143 H 0.36085 0.69733 0.21763 0.0
H2144 H 0.46154 0.81412 0.26953 0.0
H2145 H 0.47886 0.80258 0.23315 0.0
H2146 H 0.41621 0.82924 0.28684 0.0
H2147 H 0.38181 0.80973 0.30327 0.0
C2148 C 0.05399 0.68829 0.0236 0.0
C2149 C 0.05566 0.69501 0.99029 0.0
C2150 C 0.06037 0.63716 0.97987 0.0
C2151 C 0.06018 0.63052 0.01323 0.0
N2152 N 0.06022 0.65084 0.06691 0.0
N2153 N 0.06667 0.67574 0.93709 0.0
C2154 C 0.05821 0.6565 0.03503 0.0
C2155 C 0.06032 0.66931 0.96859 0.0
N2156 N 0.04674 0.71218 0.04443 0.0
N2157 N 0.06078 0.61259 0.95862 0.0
H2158 H 0.06733 0.69856 0.92788 0.0
H2159 H 0.07417 0.65894 0.92044 0.0
H2160 H 0.06408 0.58924 0.96526 0.0
H2161 H 0.05624 0.61501 0.93452 0.0
H2162 H 0.04149 0.70887 0.0686 0.0
H2163 H 0.04341 0.73532 0.03706 0.0
H2164 H 0.0629 0.66853 0.08399 0.0
H2165 H 0.06118 0.62818 0.07633 0.0
C2166 C 0.13415 0.28774 0.69691 0.0
C2167 C 0.10565 0.30528 0.70134 0.0
C2168 C 0.12425 0.32508 0.75259 0.0
C2169 C 0.15017 0.30394 0.75017 0.0
N2170 N 0.17917 0.26317 0.72181 0.0
N2171 N 0.07236 0.34066 0.73252 0.0
C2172 C 0.15522 0.28495 0.72263 0.0
C2173 C 0.1005 0.32439 0.72877 0.0
N2174 N 0.14092 0.27388 0.66804 0.0
N2175 N 0.12267 0.34566 0.7777 0.0
H2176 H 0.05511 0.34152 0.71484 0.0
H2177 H 0.06541 0.35221 0.75348 0.0
H2178 H 0.1397 0.34591 0.79564 0.0
H2179 H 0.10603 0.36371 0.7797 0.0
H2180 H 0.16288 0.26325 0.66226 0.0
H2181 H 0.12566 0.27566 0.64874 0.0
H2182 H 0.1818 0.24627 0.70388 0.0
H2183 H 0.19521 0.26035 0.74024 0.0
C2184 C 0.58093 0.75007 0.06388 0.0
C2185 C 0.54637 0.75157 0.06813 0.0
C2186 C 0.539 0.71124 0.02719 0.0
C2187 C 0.57327 0.71 0.02281 0.0
N2188 N 0.62635 0.73267 0.03038 0.0
N2189 N 0.49308 0.74048 0.04775 0.0
C2190 C 0.594 0.73129 0.03877 0.0
C2191 C 0.52557 0.73439 0.04772 0.0
N2192 N 0.60131 0.76414 0.08521 0.0
N2193 N 0.51938 0.68909 0.01315 0.0
H2194 H 0.48269 0.75794 0.06211 0.0
H2195 H 0.47721 0.73054 0.03135 0.0
H2196 H 0.52824 0.67237 0.99708 0.0
H2197 H 0.49481 0.68586 0.0194 0.0
H2198 H 0.62625 0.76045 0.0852 0.0
H2199 H 0.59345 0.77745 0.10471 0.0
H2200 H 0.64256 0.74979 0.03897 0.0
H2201 H 0.63622 0.71831 0.01246 0.0
C2202 C 0.12779 0.78138 0.835 0.0
C2203 C 0.12403 0.79299 0.86675 0.0
C2204 C 0.18379 0.79796 0.86922 0.0
C2205 C 0.18759 0.79115 0.83611 0.0
N2206 N 0.16102 0.78088 0.78623 0.0
N2207 N 0.14941 0.82099 0.91024 0.0
C2208 C 0.15897 0.78402 0.81861 0.0
C2209 C 0.15232 0.80384 0.88269 0.0
N2210 N 0.10206 0.76661 0.82078 0.0
N2211 N 0.20988 0.79701 0.88856 0.0
H2212 H 0.12704 0.82789 0.91997 0.0
H2213 H 0.16939 0.83164 0.92114 0.0
H2214 H 0.23277 0.78974 0.88062 0.0
H2215 H 0.20763 0.79926 0.91327 0.0
H2216 H 0.10425 0.75466 0.79909 0.0
H2217 H 0.07925 0.76359 0.83208 0.0
H2218 H 0.14062 0.77912 0.77213 0.0
H2219 H 0.1828 0.783 0.77305 0.0
C2220 C 0.98321 0.39952 0.58703 0.0
C2221 C 0.01503 0.38723 0.5894 0.0
C2222 C 0.03685 0.43074 0.55712 0.0
C2223 C 0.00712 0.44646 0.56077 0.0
N2224 N 0.95198 0.44701 0.58181 0.0
N2225 N 0.07322 0.39939 0.58615 0.0
C2226 C 0.98021 0.43129 0.57671 0.0
C2227 C 0.04226 0.40515 0.5771 0.0
N2228 N 0.95605 0.38093 0.59287 0.0
N2229 N 0.06035 0.44054 0.53547 0.0
H2230 H 0.07811 0.38524 0.60558 0.0
H2231 H 0.09361 0.41215 0.57748 0.0
H2232 H 0.05663 0.45814 0.51897 0.0
H2233 H 0.08173 0.42826 0.53126 0.0
H2234 H 0.93261 0.38854 0.58901 0.0
H2235 H 0.95687 0.35693 0.59785 0.0
H2236 H 0.93273 0.43813 0.59616 0.0
H2237 H 0.94876 0.4697 0.57305 0.0
C2238 C 0.42727 0.26168 0.34628 0.0
C2239 C 0.4393 0.28953 0.36186 0.0
C2240 C 0.39011 0.31685 0.34451 0.0
C2241 C 0.37971 0.28997 0.32628 0.0
N2242 N 0.39335 0.2389 0.30506 0.0
N2243 N 0.43494 0.3458 0.36871 0.0
C2244 C 0.39981 0.26304 0.32583 0.0
C2245 C 0.42148 0.3177 0.35884 0.0
N2246 N 0.44085 0.23332 0.35227 0.0
N2247 N 0.36938 0.34109 0.35005 0.0
H2248 H 0.45797 0.34771 0.37842 0.0
H2249 H 0.42482 0.36753 0.36409 0.0
H2250 H 0.34596 0.34144 0.34141 0.0
H2251 H 0.37416 0.35936 0.36611 0.0
H2252 H 0.43098 0.21181 0.3445 0.0
H2253 H 0.45996 0.23084 0.36773 0.0
H2254 H 0.40886 0.22012 0.30117 0.0
H2255 H 0.37431 0.23934 0.28921 0.0
C2256 C 0.51298 0.57944 0.33341 0.0
C2257 C 0.48018 0.57165 0.32629 0.0
C2258 C 0.46487 0.57349 0.38315 0.0
C2259 C 0.49796 0.57869 0.39026 0.0
N2260 N 0.55433 0.58092 0.37343 0.0
N2261 N 0.42619 0.55457 0.34472 0.0
C2262 C 0.52229 0.57996 0.3657 0.0
C2263 C 0.45639 0.56685 0.35125 0.0
N2264 N 0.53486 0.5877 0.3095 0.0
N2265 N 0.44149 0.57594 0.4068 0.0
H2266 H 0.4192 0.54842 0.32181 0.0
H2267 H 0.40913 0.54758 0.36233 0.0
H2268 H 0.44706 0.58086 0.43042 0.0
H2269 H 0.41665 0.57579 0.40257 0.0
H2270 H 0.55823 0.59665 0.31358 0.0
H2271 H 0.52875 0.58842 0.28559 0.0
H2272 H 0.57341 0.57878 0.35672 0.0
H2273 H 0.5617 0.58094 0.397 0.0
C2274 C 0.32389 0.73997 0.12039 0.0
C2275 C 0.30733 0.71601 0.10306 0.0
C2276 C 0.26152 0.71603 0.142 0.0
C2277 C 0.27752 0.74053 0.15868 0.0
N2278 N 0.32162 0.77835 0.1638 0.0
N2279 N 0.25911 0.68278 0.09521 0.0
C2280 C 0.3081 0.75331 0.14778 0.0
C2281 C 0.27564 0.70468 0.1131 0.0
N2282 N 0.35467 0.74954 0.11075 0.0
N2283 N 0.23372 0.70234 0.15509 0.0
H2284 H 0.26935 0.67101 0.0757 0.0
H2285 H 0.23451 0.67696 0.09884 0.0
H2286 H 0.22258 0.71062 0.17606 0.0
H2287 H 0.22279 0.68164 0.1466 0.0
H2288 H 0.36936 0.76518 0.12342 0.0
H2289 H 0.36624 0.74075 0.09021 0.0
H2290 H 0.343 0.79031 0.15663 0.0
H2291 H 0.31019 0.78846 0.18375 0.0
C2292 C 0.14786 0.53361 0.9206 0.0
C2293 C 0.13626 0.50894 0.90084 0.0
C2294 C 0.10125 0.48831 0.94437 0.0
C2295 C 0.10847 0.51611 0.96214 0.0
N2296 N 0.13603 0.56728 0.96584 0.0
N2297 N 0.1029 0.46219 0.8928 0.0
C2298 C 0.13161 0.53908 0.95029 0.0
C2299 C 0.11353 0.48582 0.91256 0.0
N2300 N 0.17381 0.55225 0.91057 0.0
N2301 N 0.08293 0.46426 0.95802 0.0
H2302 H 0.113 0.45869 0.86997 0.0
H2303 H 0.08329 0.44692 0.8984 0.0
H2304 H 0.07305 0.46548 0.98114 0.0
H2305 H 0.07962 0.44214 0.9475 0.0
H2306 H 0.18543 0.56867 0.92523 0.0
H2307 H 0.18572 0.54917 0.88852 0.0
H2308 H 0.14977 0.58619 0.95632 0.0
H2309 H 0.1236 0.57322 0.98691 0.0
C2310 C 0.31987 0.35982 0.65319 0.0
C2311 C 0.2897 0.36009 0.63742 0.0
C2312 C 0.26647 0.32504 0.68024 0.0
C2313 C 0.29479 0.32913 0.69917 0.0
N2314 N 0.34899 0.35386 0.70188 0.0
N2315 N 0.23276 0.34538 0.63872 0.0
C2316 C 0.32174 0.34717 0.685 0.0
C2317 C 0.26258 0.3436 0.65196 0.0
N2318 N 0.34726 0.37165 0.63767 0.0
N2319 N 0.24414 0.30152 0.68765 0.0
H2320 H 0.2292 0.35732 0.61749 0.0
H2321 H 0.21134 0.33704 0.6501 0.0
H2322 H 0.24778 0.28476 0.70517 0.0
H2323 H 0.22447 0.29573 0.67347 0.0
H2324 H 0.37072 0.36833 0.64551 0.0
H2325 H 0.34688 0.38249 0.61545 0.0
H2326 H 0.36648 0.37089 0.69485 0.0
H2327 H 0.35374 0.34466 0.72398 0.0
C2328 C 0.50383 0.55876 0.13765 0.0
C2329 C 0.4858 0.58552 0.14714 0.0
C2330 C 0.5002 0.61101 0.09608 0.0
C2331 C 0.51998 0.58505 0.08787 0.0
N2332 N 0.5484 0.53934 0.10532 0.0
N2333 N 0.47217 0.63975 0.13845 0.0
C2334 C 0.52444 0.56073 0.11023 0.0
C2335 C 0.48573 0.61259 0.12732 0.0
N2336 N 0.4994 0.53049 0.15304 0.0
N2337 N 0.49369 0.63308 0.07369 0.0
H2338 H 0.46172 0.64161 0.16134 0.0
H2339 H 0.47399 0.66108 0.1262 0.0
H2340 H 0.50342 0.63245 0.05049 0.0
H2341 H 0.47665 0.65059 0.07738 0.0
H2342 H 0.50959 0.50965 0.14462 0.0
H2343 H 0.48267 0.52665 0.17185 0.0
H2344 H 0.55468 0.52318 0.12258 0.0
H2345 H 0.56428 0.53996 0.08552 0.0
C2346 C 0.32926 0.72309 0.91795 0.0
C2347 C 0.30349 0.70272 0.92936 0.0
C2348 C 0.27146 0.71552 0.88333 0.0
C2349 C 0.29816 0.73413 0.87101 0.0
N2350 N 0.35546 0.74705 0.87144 0.0
N2351 N 0.25422 0.67271 0.91837 0.0
C2352 C 0.32806 0.73519 0.88672 0.0
C2353 C 0.27582 0.69678 0.91064 0.0
N2354 N 0.35385 0.73256 0.93734 0.0
N2355 N 0.24155 0.71684 0.8701 0.0
H2356 H 0.25731 0.65764 0.93754 0.0
H2357 H 0.23531 0.66558 0.90376 0.0
H2358 H 0.23701 0.73055 0.8503 0.0
H2359 H 0.22058 0.70643 0.88049 0.0
H2360 H 0.37134 0.74977 0.93073 0.0
H2361 H 0.35493 0.72601 0.96116 0.0
H2362 H 0.37859 0.74609 0.88084 0.0
H2363 H 0.35536 0.75409 0.84771 0.0
C2364 C 0.11941 0.4986 0.69749 0.0
C2365 C 0.11156 0.50163 0.73046 0.0
C2366 C 0.05922 0.52375 0.71704 0.0
C2367 C 0.06998 0.52602 0.68498 0.0
N2368 N 0.11434 0.52283 0.64613 0.0
N2369 N 0.07637 0.52621 0.77105 0.0
C2370 C 0.10115 0.51526 0.67542 0.0
C2371 C 0.08189 0.51628 0.74036 0.0
N2372 N 0.14431 0.48002 0.68726 0.0
N2373 N 0.0275 0.52929 0.72526 0.0
H2374 H 0.09334 0.52551 0.78881 0.0
H2375 H 0.05622 0.53932 0.77795 0.0
H2376 H 0.01045 0.53494 0.70843 0.0
H2377 H 0.01769 0.52515 0.74811 0.0
H2378 H 0.14932 0.47543 0.66321 0.0
H2379 H 0.15747 0.46655 0.70285 0.0
H2380 H 0.13824 0.51778 0.63927 0.0
H2381 H 0.10282 0.53725 0.63019 0.0
C2382 C 0.2735 0.37271 0.42404 0.0
C2383 C 0.28663 0.35446 0.44897 0.0
C2384 C 0.29597 0.31199 0.40899 0.0
C2385 C 0.27887 0.3283 0.38526 0.0
N2386 N 0.24555 0.37254 0.37376 0.0
N2387 N 0.30172 0.30241 0.46533 0.0
C2388 C 0.26591 0.35817 0.3939 0.0
C2389 C 0.29523 0.32284 0.44144 0.0
N2390 N 0.26993 0.40444 0.42813 0.0
N2391 N 0.31504 0.28726 0.40051 0.0
H2392 H 0.29953 0.30845 0.48939 0.0
H2393 H 0.30527 0.27842 0.4613 0.0
H2394 H 0.31896 0.28018 0.37698 0.0
H2395 H 0.33034 0.27657 0.41634 0.0
H2396 H 0.26366 0.41933 0.40976 0.0
H2397 H 0.27679 0.41655 0.44861 0.0
H2398 H 0.23285 0.39272 0.38003 0.0
H2399 H 0.2386 0.36243 0.35222 0.0
C2400 C 0.38814 0.48381 0.51501 0.0
C2401 C 0.37034 0.47975 0.54441 0.0
C2402 C 0.41055 0.51645 0.56931 0.0
C2403 C 0.43081 0.51671 0.54113 0.0
N2404 N 0.44068 0.49376 0.48882 0.0
N2405 N 0.3693 0.48817 0.60142 0.0
C2406 C 0.41999 0.49869 0.51435 0.0
C2407 C 0.38274 0.49516 0.57204 0.0
N2408 N 0.37432 0.47427 0.48726 0.0
N2409 N 0.41731 0.5372 0.59339 0.0
H2410 H 0.35011 0.47186 0.60496 0.0
H2411 H 0.37946 0.49601 0.62258 0.0
H2412 H 0.43658 0.55373 0.59191 0.0
H2413 H 0.40176 0.54035 0.61316 0.0
H2414 H 0.38466 0.4795 0.46486 0.0
H2415 H 0.35088 0.46428 0.48647 0.0
H2416 H 0.43532 0.47792 0.47051 0.0
H2417 H 0.46451 0.50263 0.48736 0.0
C2418 C 0.93083 0.12936 0.48766 0.0
C2419 C 0.90266 0.11 0.49371 0.0
C2420 C 0.92989 0.06451 0.47057 0.0
C2421 C 0.95956 0.08203 0.47203 0.0
N2422 N 0.98487 0.13312 0.46268 0.0
N2423 N 0.87264 0.06091 0.48658 0.0
C2424 C 0.95901 0.11531 0.47425 0.0
C2425 C 0.90109 0.07819 0.48309 0.0
N2426 N 0.9312 0.16047 0.49649 0.0
N2427 N 0.92968 0.03527 0.45675 0.0
H2428 H 0.85089 0.07088 0.49455 0.0
H2429 H 0.87066 0.03669 0.48249 0.0
H2430 H 0.95066 0.02628 0.44578 0.0
H2431 H 0.9087 0.02152 0.45329 0.0
H2432 H 0.95224 0.17475 0.49625 0.0
H2433 H 0.91055 0.17165 0.50552 0.0
H2434 H 0.98532 0.1577 0.46208 0.0
H2435 H 1.00417 0.12298 0.44995 0.0
C2436 C 0.77048 0.12196 0.32606 0.0
C2437 C 0.77252 0.09571 0.30556 0.0
C2438 C 0.79229 0.12954 0.26207 0.0
C2439 C 0.78044 0.15558 0.27969 0.0
N2440 N 0.75887 0.17733 0.32934 0.0
N2441 N 0.80232 0.07306 0.26157 0.0
C2442 C 0.77074 0.15232 0.31239 0.0
C2443 C 0.78939 0.09903 0.27589 0.0
N2444 N 0.76672 0.11733 0.35809 0.0
N2445 N 0.80452 0.1341 0.23181 0.0
H2446 H 0.80167 0.05122 0.27305 0.0
H2447 H 0.8159 0.0736 0.24024 0.0
H2448 H 0.80723 0.15661 0.22188 0.0
H2449 H 0.81126 0.1159 0.21644 0.0
H2450 H 0.76681 0.13563 0.37476 0.0
H2451 H 0.76686 0.09463 0.36771 0.0
H2452 H 0.74886 0.17537 0.35236 0.0
H2453 H 0.75635 0.19963 0.31964 0.0
C2454 C 0.66013 0.96243 0.06922 0.0
C2455 C 0.68884 0.98014 0.06012 0.0
C2456 C 0.65462 0.02454 0.04477 0.0
C2457 C 0.62604 0.00746 0.0553 0.0
N2458 N 0.6009 0.95755 0.07035 0.0
N2459 N 0.71388 0.02918 0.04215 0.0
C2460 C 0.62866 0.97566 0.0656 0.0
C2461 C 0.68615 0.01153 0.04872 0.0
N2462 N 0.66305 0.93338 0.08275 0.0
N2463 N 0.6514 0.0523 0.02891 0.0
H2464 H 0.73714 0.02008 0.04331 0.0
H2465 H 0.71411 0.05327 0.03744 0.0
H2466 H 0.62873 0.0611 0.02377 0.0
H2467 H 0.67067 0.06497 0.01798 0.0
H2468 H 0.64378 0.92057 0.09349 0.0
H2469 H 0.68542 0.92276 0.08529 0.0
H2470 H 0.60057 0.9334 0.07475 0.0
H2471 H 0.57773 0.96617 0.06726 0.0
C2472 C 0.3745 0.45702 0.20572 0.0
C2473 C 0.38319 0.47682 0.23165 0.0
C2474 C 0.35792 0.439 0.2692 0.0
C2475 C 0.34493 0.42209 0.24328 0.0
N2476 N 0.33926 0.41418 0.18714 0.0
N2477 N 0.37912 0.4891 0.2881 0.0
C2478 C 0.35307 0.43066 0.21152 0.0
C2479 C 0.37432 0.46828 0.26352 0.0
N2480 N 0.38714 0.46321 0.17584 0.0
N2481 N 0.35402 0.42712 0.29931 0.0
H2482 H 0.38954 0.51162 0.28511 0.0
H2483 H 0.36989 0.4853 0.31118 0.0
H2484 H 0.34148 0.40585 0.30413 0.0
H2485 H 0.36574 0.43673 0.31891 0.0
H2486 H 0.38389 0.4482 0.15641 0.0
H2487 H 0.40326 0.48219 0.17106 0.0
H2488 H 0.34129 0.4211 0.1634 0.0
H2489 H 0.3242 0.39424 0.1911 0.0
C2490 C 0.25127 0.56284 0.0383 0.0
C2491 C 0.26672 0.58578 0.05767 0.0
C2492 C 0.22152 0.58318 0.09665 0.0
C2493 C 0.20579 0.5606 0.07713 0.0
N2494 N 0.20828 0.52266 0.03443 0.0
N2495 N 0.27163 0.61095 0.10926 0.0
C2496 C 0.22166 0.5483 0.04954 0.0
C2497 C 0.25369 0.59337 0.08838 0.0
N2498 N 0.26442 0.55584 0.0089 0.0
N2499 N 0.20477 0.59677 0.12154 0.0
H2500 H 0.29508 0.6197 0.1039 0.0
H2501 H 0.26437 0.61458 0.13296 0.0
H2502 H 0.18073 0.5905 0.12776 0.0
H2503 H 0.21367 0.61615 0.13429 0.0
H2504 H 0.25248 0.54201 0.99207 0.0
H2505 H 0.28703 0.56507 1.00093 0.0
H2506 H 0.21971 0.51101 0.01546 0.0
H2507 H 0.18688 0.51133 0.04289 0.0
C2508 C 0.74513 0.92807 0.33075 0.0
C2509 C 0.72164 0.93548 0.30811 0.0
C2510 C 0.72537 0.88353 0.2842 0.0
C2511 C 0.74782 0.87508 0.30762 0.0
N2512 N 0.77309 0.8867 0.35767 0.0
N2513 N 0.68153 0.91745 0.27115 0.0
C2514 C 0.7558 0.89652 0.33245 0.0
C2515 C 0.70892 0.91206 0.28772 0.0
N2516 N 0.75852 0.95132 0.3493 0.0
N2517 N 0.72192 0.8661 0.25698 0.0
H2518 H 0.6688 0.93838 0.27356 0.0
H2519 H 0.66967 0.89994 0.25795 0.0
H2520 H 0.73609 0.84686 0.25131 0.0
H2521 H 0.70804 0.87321 0.23807 0.0
H2522 H 0.77848 0.94789 0.36346 0.0
H2523 H 0.751 0.97461 0.34903 0.0
H2524 H 0.77693 0.90056 0.37785 0.0
H2525 H 0.78102 0.86365 0.35973 0.0
C2526 C 0.87726 0.16129 0.79301 0.0
C2527 C 0.85844 0.14084 0.77346 0.0
C2528 C 0.80842 0.16429 0.79443 0.0
C2529 C 0.82767 0.18628 0.81157 0.0
N2530 N 0.87688 0.19355 0.84074 0.0
N2531 N 0.80622 0.11465 0.7655 0.0
C2532 C 0.86094 0.18052 0.81566 0.0
C2533 C 0.82392 0.13963 0.77731 0.0
N2534 N 0.91027 0.16426 0.78857 0.0
N2535 N 0.77554 0.16786 0.79382 0.0
H2536 H 0.817 0.09534 0.75433 0.0
H2537 H 0.78124 0.11146 0.7697 0.0
H2538 H 0.76378 0.18447 0.80826 0.0
H2539 H 0.76041 0.15523 0.77858 0.0
H2540 H 0.92427 0.18129 0.80036 0.0
H2541 H 0.92327 0.15223 0.77084 0.0
H2542 H 0.90095 0.18863 0.84552 0.0
H2543 H 0.86453 0.20531 0.85913 0.0
loop_
_geom_bond_atom_site_label_1
_geom_bond_atom_site_label_2
_geom_bond_distance
_geom_bond_site_symmetry_2
_ccdc_geom_bond_type
O0 Cd1 2.223 . S
O0 C8 1.315 . S
Cd1 O0 2.223 . S
Cd1 O4 2.297 1_455 S
Cd1 O5 2.439 1_455 S
Cd1 O11 2.240 . S
Cd2 O3 2.240 . S
Cd2 O10 2.223 . S
Cd2 O12 2.297 . S
Cd2 O13 2.439 . S
O3 Cd2 2.240 . S
O3 C8 1.279 . S
O4 Cd1 2.297 1_655 S
O4 C6 1.247 . S
O5 Cd1 2.439 1_655 S
O5 C6 1.208 . S
C6 O4 1.247 . S
C6 O5 1.208 . S
C7 O12 1.247 . S
C7 O13 1.208 . S
C8 O0 1.315 . S
C8 O3 1.279 . S
C9 O10 1.315 . S
C9 O11 1.279 . S
O10 Cd2 2.223 . S
O10 C9 1.315 . S
O11 Cd1 2.240 . S
O11 C9 1.279 . S
O12 Cd2 2.297 . S
O12 C7 1.247 . S
O13 Cd2 2.439 . S
O13 C7 1.208 . S
O14 Cd15 2.223 . S
O14 C22 1.315 . S
Cd15 O14 2.223 . S
Cd15 O18 2.297 . S
Cd15 O19 2.439 . S
Cd15 O25 2.240 . S
Cd16 O17 2.240 . S
Cd16 O24 2.223 . S
Cd16 O26 2.297 . S
Cd16 O27 2.439 . S
O17 Cd16 2.240 . S
O17 C22 1.279 . S
O18 Cd15 2.297 . S
O18 C20 1.247 . S
O19 Cd15 2.439 . S
O19 C20 1.208 . S
C20 O18 1.247 . S
C20 O19 1.208 . S
C21 O26 1.247 1_655 S
C21 O27 1.208 1_655 S
C22 O14 1.315 . S
C22 O17 1.279 . S
C23 O24 1.315 . S
C23 O25 1.279 . S
O24 Cd16 2.223 . S
O24 C23 1.315 . S
O25 Cd15 2.240 . S
O25 C23 1.279 . S
O26 Cd16 2.297 . S
O26 C21 1.247 1_455 S
O27 Cd16 2.439 . S
O27 C21 1.208 1_455 S
O28 Cd29 2.223 . S
O28 C36 1.315 . S
Cd29 O28 2.223 . S
Cd29 O32 2.297 . S
Cd29 O33 2.439 . S
Cd29 O39 2.240 . S
Cd30 O31 2.240 . S
Cd30 O38 2.223 . S
Cd30 O40 2.297 . S
Cd30 O41 2.439 . S
O31 Cd30 2.240 . S
O31 C36 1.279 . S
O32 Cd29 2.297 . S
O32 C34 1.247 . S
O33 Cd29 2.439 . S
O33 C34 1.208 . S
C34 O32 1.247 . S
C34 O33 1.208 . S
C35 O40 1.247 . S
C35 O41 1.208 . S
C36 O28 1.315 . S
C36 O31 1.279 . S
C37 O38 1.315 . S
C37 O39 1.279 . S
O38 Cd30 2.223 . S
O38 C37 1.315 . S
O39 Cd29 2.240 . S
O39 C37 1.279 . S
O40 Cd30 2.297 . S
O40 C35 1.247 . S
O41 Cd30 2.439 . S
O41 C35 1.208 . S
O42 Cd43 2.223 . S
O42 C50 1.315 . S
Cd43 O42 2.223 . S
Cd43 O46 2.297 . S
Cd43 O47 2.439 . S
Cd43 O53 2.240 . S
Cd44 O45 2.240 . S
Cd44 O52 2.223 . S
Cd44 O54 2.297 . S
Cd44 O55 2.439 . S
O45 Cd44 2.240 . S
O45 C50 1.279 . S
O46 Cd43 2.297 . S
O46 C48 1.247 . S
O47 Cd43 2.439 . S
O47 C48 1.208 . S
C48 O46 1.247 . S
C48 O47 1.208 . S
C49 O54 1.247 . S
C49 O55 1.208 . S
C50 O42 1.315 . S
C50 O45 1.279 . S
C51 O52 1.315 . S
C51 O53 1.279 . S
O52 Cd44 2.223 . S
O52 C51 1.315 . S
O53 Cd43 2.240 . S
O53 C51 1.279 . S
O54 Cd44 2.297 . S
O54 C49 1.247 . S
O55 Cd44 2.439 . S
O55 C49 1.208 . S
O56 Cd57 2.223 1_545 S
O56 C64 1.315 . S
Cd57 O56 2.223 1_565 S
Cd57 O60 2.297 . S
Cd57 O61 2.439 . S
Cd57 O67 2.240 1_565 S
Cd58 O59 2.240 1_545 S
Cd58 O66 2.223 . S
Cd58 O68 2.297 . S
Cd58 O69 2.439 1_545 S
O59 Cd58 2.240 1_565 S
O59 C64 1.279 1_565 S
O60 Cd57 2.297 . S
O60 C62 1.247 . S
O61 Cd57 2.439 . S
O61 C62 1.208 . S
C62 O60 1.247 . S
C62 O61 1.208 . S
C63 O68 1.247 . S
C63 O69 1.208 1_545 S
C64 O56 1.315 . S
C64 O59 1.279 1_545 S
C65 O66 1.315 . S
C65 O67 1.279 . S
O66 Cd58 2.223 . S
O66 C65 1.315 . S
O67 Cd57 2.240 1_545 S
O67 C65 1.279 . S
O68 Cd58 2.297 . S
O68 C63 1.247 . S
O69 Cd58 2.439 1_565 S
O69 C63 1.208 1_565 S
O70 Cd71 2.223 . S
O70 C78 1.315 . S
Cd71 O70 2.223 . S
Cd71 O74 2.297 . S
Cd71 O75 2.439 . S
Cd71 O81 2.240 . S
Cd72 O73 2.240 . S
Cd72 O80 2.223 . S
Cd72 O82 2.297 . S
Cd72 O83 2.439 . S
O73 Cd72 2.240 . S
O73 C78 1.279 . S
O74 Cd71 2.297 . S
O74 C76 1.247 . S
O75 Cd71 2.439 . S
O75 C76 1.208 . S
C76 O74 1.247 . S
C76 O75 1.208 . S
C77 O82 1.247 . S
C77 O83 1.208 . S
C78 O70 1.315 . S
C78 O73 1.279 . S
C79 O80 1.315 . S
C79 O81 1.279 . S
O80 Cd72 2.223 . S
O80 C79 1.315 . S
O81 Cd71 2.240 . S
O81 C79 1.279 . S
O82 Cd72 2.297 . S
O82 C77 1.247 . S
O83 Cd72 2.439 . S
O83 C77 1.208 . S
O84 Cd85 2.223 . S
O84 C92 1.315 . S
Cd85 O84 2.223 . S
Cd85 O88 2.297 . S
Cd85 O89 2.439 . S
Cd85 O95 2.240 . S
Cd86 O87 2.240 . S
Cd86 O94 2.223 . S
Cd86 O96 2.297 . S
Cd86 O97 2.439 . S
O87 Cd86 2.240 . S
O87 C92 1.279 . S
O88 Cd85 2.297 . S
O88 C90 1.247 . S
O89 Cd85 2.439 . S
O89 C90 1.208 . S
C90 O88 1.247 . S
C90 O89 1.208 . S
C91 O96 1.247 . S
C91 O97 1.208 . S
C92 O84 1.315 . S
C92 O87 1.279 . S
C93 O94 1.315 . S
C93 O95 1.279 . S
O94 Cd86 2.223 . S
O94 C93 1.315 . S
O95 Cd85 2.240 . S
O95 C93 1.279 . S
O96 Cd86 2.297 . S
O96 C91 1.247 . S
O97 Cd86 2.439 . S
O97 C91 1.208 . S
O98 Cd99 2.223 . S
O98 C106 1.315 . S
Cd99 O98 2.223 . S
Cd99 O102 2.297 . S
Cd99 O103 2.439 . S
Cd99 O109 2.240 . S
Cd100 O101 2.240 . S
Cd100 O108 2.223 . S
Cd100 O110 2.297 1_554 S
Cd100 O111 2.439 1_554 S
O101 Cd100 2.240 . S
O101 C106 1.279 . S
O102 Cd99 2.297 . S
O102 C104 1.247 . S
O103 Cd99 2.439 . S
O103 C104 1.208 . S
C104 O102 1.247 . S
C104 O103 1.208 . S
C105 O110 1.247 . S
C105 O111 1.208 . S
C106 O98 1.315 . S
C106 O101 1.279 . S
C107 O108 1.315 . S
C107 O109 1.279 . S
O108 Cd100 2.223 . S
O108 C107 1.315 . S
O109 Cd99 2.240 . S
O109 C107 1.279 . S
O110 Cd100 2.297 1_556 S
O110 C105 1.247 . S
O111 Cd100 2.439 1_556 S
O111 C105 1.208 . S
O112 Cd113 2.223 . S
O112 C120 1.315 . S
Cd113 O112 2.223 . S
Cd113 O116 2.297 . S
Cd113 O117 2.439 . S
Cd113 O123 2.240 . S
Cd114 O115 2.240 . S
Cd114 O122 2.223 . S
Cd114 O124 2.297 . S
Cd114 O125 2.439 . S
O115 Cd114 2.240 . S
O115 C120 1.279 . S
O116 Cd113 2.297 . S
O116 C118 1.247 . S
O117 Cd113 2.439 . S
O117 C118 1.208 . S
C118 O116 1.247 . S
C118 O117 1.208 . S
C119 O124 1.247 1_556 S
C119 O125 1.208 1_556 S
C120 O112 1.315 . S
C120 O115 1.279 . S
C121 O122 1.315 . S
C121 O123 1.279 . S
O122 Cd114 2.223 . S
O122 C121 1.315 . S
O123 Cd113 2.240 . S
O123 C121 1.279 . S
O124 Cd114 2.297 . S
O124 C119 1.247 1_554 S
O125 Cd114 2.439 . S
O125 C119 1.208 1_554 S
O126 Cd127 2.223 . S
O126 C134 1.315 . S
Cd127 O126 2.223 . S
Cd127 O130 2.297 . S
Cd127 O131 2.439 . S
Cd127 O137 2.240 . S
Cd128 O129 2.240 . S
Cd128 O136 2.223 . S
Cd128 O138 2.297 . S
Cd128 O139 2.439 . S
O129 Cd128 2.240 . S
O129 C134 1.279 . S
O130 Cd127 2.297 . S
O130 C132 1.247 . S
O131 Cd127 2.439 . S
O131 C132 1.208 . S
C132 O130 1.247 . S
C132 O131 1.208 . S
C133 O138 1.247 . S
C133 O139 1.208 . S
C134 O126 1.315 . S
C134 O129 1.279 . S
C135 O136 1.315 . S
C135 O137 1.279 . S
O136 Cd128 2.223 . S
O136 C135 1.315 . S
O137 Cd127 2.240 . S
O137 C135 1.279 . S
O138 Cd128 2.297 . S
O138 C133 1.247 . S
O139 Cd128 2.439 . S
O139 C133 1.208 . S
O140 Cd141 2.223 . S
O140 C148 1.315 . S
Cd141 O140 2.223 . S
Cd141 O144 2.297 . S
Cd141 O145 2.439 . S
Cd141 O151 2.240 . S
Cd142 O143 2.240 . S
Cd142 O150 2.223 . S
Cd142 O152 2.297 . S
Cd142 O153 2.439 . S
O143 Cd142 2.240 . S
O143 C148 1.279 . S
O144 Cd141 2.297 . S
O144 C146 1.247 . S
O145 Cd141 2.439 . S
O145 C146 1.208 . S
C146 O144 1.247 . S
C146 O145 1.208 . S
C147 O152 1.247 . S
C147 O153 1.208 . S
C148 O140 1.315 . S
C148 O143 1.279 . S
C149 O150 1.315 . S
C149 O151 1.279 . S
O150 Cd142 2.223 . S
O150 C149 1.315 . S
O151 Cd141 2.240 . S
O151 C149 1.279 . S
O152 Cd142 2.297 . S
O152 C147 1.247 . S
O153 Cd142 2.439 . S
O153 C147 1.208 . S
O154 Cd155 2.223 . S
O154 C162 1.315 . S
Cd155 O154 2.223 . S
Cd155 O158 2.297 . S
Cd155 O159 2.439 . S
Cd155 O165 2.240 . S
Cd156 O157 2.240 . S
Cd156 O164 2.223 . S
Cd156 O166 2.297 . S
Cd156 O167 2.439 . S
O157 Cd156 2.240 . S
O157 C162 1.279 . S
O158 Cd155 2.297 . S
O158 C160 1.247 . S
O159 Cd155 2.439 . S
O159 C160 1.208 . S
C160 O158 1.247 . S
C160 O159 1.208 . S
C161 O166 1.247 . S
C161 O167 1.208 . S
C162 O154 1.315 . S
C162 O157 1.279 . S
C163 O164 1.315 . S
C163 O165 1.279 . S
O164 Cd156 2.223 . S
O164 C163 1.315 . S
O165 Cd155 2.240 . S
O165 C163 1.279 . S
O166 Cd156 2.297 . S
O166 C161 1.247 . S
O167 Cd156 2.439 . S
O167 C161 1.208 . S
O168 Cd169 2.223 . S
O168 C176 1.315 . S
Cd169 O168 2.223 . S
Cd169 O172 2.297 . S
Cd169 O173 2.439 . S
Cd169 O179 2.240 . S
Cd170 O171 2.240 . S
Cd170 O178 2.223 . S
Cd170 O180 2.297 1_455 S
Cd170 O181 2.439 1_455 S
O171 Cd170 2.240 . S
O171 C176 1.279 . S
O172 Cd169 2.297 . S
O172 C174 1.247 . S
O173 Cd169 2.439 . S
O173 C174 1.208 . S
C174 O172 1.247 . S
C174 O173 1.208 . S
C175 O180 1.247 . S
C175 O181 1.208 . S
C176 O168 1.315 . S
C176 O171 1.279 . S
C177 O178 1.315 . S
C177 O179 1.279 . S
O178 Cd170 2.223 . S
O178 C177 1.315 . S
O179 Cd169 2.240 . S
O179 C177 1.279 . S
O180 Cd170 2.297 1_655 S
O180 C175 1.247 . S
O181 Cd170 2.439 1_655 S
O181 C175 1.208 . S
O182 Cd183 2.223 1_455 S
O182 C190 1.315 . S
Cd183 O182 2.223 1_655 S
Cd183 O186 2.297 . S
Cd183 O187 2.439 . S
Cd183 O193 2.240 1_655 S
Cd184 O185 2.240 1_455 S
Cd184 O192 2.223 . S
Cd184 O194 2.297 . S
Cd184 O195 2.439 1_455 S
O185 Cd184 2.240 1_655 S
O185 C190 1.279 1_655 S
O186 Cd183 2.297 . S
O186 C188 1.247 . S
O187 Cd183 2.439 . S
O187 C188 1.208 . S
C188 O186 1.247 . S
C188 O187 1.208 . S
C189 O194 1.247 . S
C189 O195 1.208 1_455 S
C190 O182 1.315 . S
C190 O185 1.279 1_455 S
C191 O192 1.315 . S
C191 O193 1.279 . S
O192 Cd184 2.223 . S
O192 C191 1.315 . S
O193 Cd183 2.240 1_455 S
O193 C191 1.279 . S
O194 Cd184 2.297 . S
O194 C189 1.247 . S
O195 Cd184 2.439 1_655 S
O195 C189 1.208 1_655 S
O196 Cd197 2.223 . S
O196 C204 1.315 . S
Cd197 O196 2.223 . S
Cd197 O200 2.297 . S
Cd197 O201 2.439 . S
Cd197 O207 2.240 . S
Cd198 O199 2.240 . S
Cd198 O206 2.223 . S
Cd198 O208 2.297 . S
Cd198 O209 2.439 . S
O199 Cd198 2.240 . S
O199 C204 1.279 . S
O200 Cd197 2.297 . S
O200 C202 1.247 . S
O201 Cd197 2.439 . S
O201 C202 1.208 . S
C202 O200 1.247 . S
C202 O201 1.208 . S
C203 O208 1.247 . S
C203 O209 1.208 . S
C204 O196 1.315 . S
C204 O199 1.279 . S
C205 O206 1.315 . S
C205 O207 1.279 . S
O206 Cd198 2.223 . S
O206 C205 1.315 . S
O207 Cd197 2.240 . S
O207 C205 1.279 . S
O208 Cd198 2.297 . S
O208 C203 1.247 . S
O209 Cd198 2.439 . S
O209 C203 1.208 . S
O210 Cd211 2.223 . S
O210 C218 1.315 . S
Cd211 O210 2.223 . S
Cd211 O214 2.297 . S
Cd211 O215 2.439 . S
Cd211 O221 2.240 . S
Cd212 O213 2.240 . S
Cd212 O220 2.223 . S
Cd212 O222 2.297 . S
Cd212 O223 2.439 . S
O213 Cd212 2.240 . S
O213 C218 1.279 . S
O214 Cd211 2.297 . S
O214 C216 1.247 . S
O215 Cd211 2.439 . S
O215 C216 1.208 . S
C216 O214 1.247 . S
C216 O215 1.208 . S
C217 O222 1.247 . S
C217 O223 1.208 . S
C218 O210 1.315 . S
C218 O213 1.279 . S
C219 O220 1.315 . S
C219 O221 1.279 . S
O220 Cd212 2.223 . S
O220 C219 1.315 . S
O221 Cd211 2.240 . S
O221 C219 1.279 . S
O222 Cd212 2.297 . S
O222 C217 1.247 . S
O223 Cd212 2.439 . S
O223 C217 1.208 . S
O224 Cd225 2.223 . S
O224 C232 1.315 . S
Cd225 O224 2.223 . S
Cd225 O228 2.297 . S
Cd225 O229 2.439 . S
Cd225 O235 2.240 . S
Cd226 O227 2.240 . S
Cd226 O234 2.223 . S
Cd226 O236 2.297 . S
Cd226 O237 2.439 . S
O227 Cd226 2.240 . S
O227 C232 1.279 . S
O228 Cd225 2.297 . S
O228 C230 1.247 . S
O229 Cd225 2.439 . S
O229 C230 1.208 . S
C230 O228 1.247 . S
C230 O229 1.208 . S
C231 O236 1.247 . S
C231 O237 1.208 . S
C232 O224 1.315 . S
C232 O227 1.279 . S
C233 O234 1.315 . S
C233 O235 1.279 . S
O234 Cd226 2.223 . S
O234 C233 1.315 . S
O235 Cd225 2.240 . S
O235 C233 1.279 . S
O236 Cd226 2.297 . S
O236 C231 1.247 . S
O237 Cd226 2.439 . S
O237 C231 1.208 . S
O238 Cd239 2.223 . S
O238 C246 1.315 . S
Cd239 O238 2.223 . S
Cd239 O242 2.297 . S
Cd239 O243 2.439 . S
Cd239 O249 2.240 . S
Cd240 O241 2.240 . S
Cd240 O248 2.223 . S
Cd240 O250 2.297 . S
Cd240 O251 2.439 . S
O241 Cd240 2.240 . S
O241 C246 1.279 . S
O242 Cd239 2.297 . S
O242 C244 1.247 . S
O243 Cd239 2.439 . S
O243 C244 1.208 . S
C244 O242 1.247 . S
C244 O243 1.208 . S
C245 O250 1.247 . S
C245 O251 1.208 . S
C246 O238 1.315 . S
C246 O241 1.279 . S
C247 O248 1.315 . S
C247 O249 1.279 . S
O248 Cd240 2.223 . S
O248 C247 1.315 . S
O249 Cd239 2.240 . S
O249 C247 1.279 . S
O250 Cd240 2.297 . S
O250 C245 1.247 . S
O251 Cd240 2.439 . S
O251 C245 1.208 . S
O252 Cd253 2.223 1_545 S
O252 C260 1.315 . S
Cd253 O252 2.223 1_565 S
Cd253 O256 2.297 . S
Cd253 O257 2.439 . S
Cd253 O263 2.240 1_565 S
Cd254 O255 2.240 1_545 S
Cd254 O262 2.223 . S
Cd254 O264 2.297 . S
Cd254 O265 2.437 1_545 S
O255 Cd254 2.240 1_565 S
O255 C260 1.279 1_565 S
O256 Cd253 2.297 . S
O256 C258 1.247 . S
O257 Cd253 2.439 . S
O257 C258 1.208 . S
C258 O256 1.247 . S
C258 O257 1.208 . S
C259 O264 1.247 . S
C259 O265 1.206 1_545 S
C260 O252 1.315 . S
C260 O255 1.279 1_545 S
C261 O262 1.315 . S
C261 O263 1.279 . S
O262 Cd254 2.223 . S
O262 C261 1.315 . S
O263 Cd253 2.240 1_545 S
O263 C261 1.279 . S
O264 Cd254 2.297 . S
O264 C259 1.247 . S
O265 Cd254 2.437 1_565 S
O265 C259 1.206 1_565 S
O266 Cd267 2.223 . S
O266 C274 1.315 . S
Cd267 O266 2.223 . S
Cd267 O270 2.297 . S
Cd267 O271 2.439 . S
Cd267 O277 2.240 . S
Cd268 O269 2.240 . S
Cd268 O276 2.223 . S
Cd268 O278 2.297 1_554 S
Cd268 O279 2.439 1_554 S
O269 Cd268 2.240 . S
O269 C274 1.279 . S
O270 Cd267 2.297 . S
O270 C272 1.247 . S
O271 Cd267 2.439 . S
O271 C272 1.208 . S
C272 O270 1.247 . S
C272 O271 1.208 . S
C273 O278 1.247 . S
C273 O279 1.208 . S
C274 O266 1.315 . S
C274 O269 1.279 . S
C275 O276 1.315 . S
C275 O277 1.279 . S
O276 Cd268 2.223 . S
O276 C275 1.315 . S
O277 Cd267 2.240 . S
O277 C275 1.279 . S
O278 Cd268 2.297 1_556 S
O278 C273 1.247 . S
O279 Cd268 2.439 1_556 S
O279 C273 1.208 . S
O280 Cd281 2.223 . S
O280 C288 1.315 . S
Cd281 O280 2.223 . S
Cd281 O284 2.297 . S
Cd281 O285 2.439 1_554 S
Cd281 O291 2.240 1_554 S
Cd282 O283 2.240 1_556 S
Cd282 O290 2.223 1_556 S
Cd282 O292 2.297 . S
Cd282 O293 2.439 . S
O283 Cd282 2.240 1_554 S
O283 C288 1.279 . S
O284 Cd281 2.297 . S
O284 C286 1.247 . S
O285 Cd281 2.439 1_556 S
O285 C286 1.208 1_556 S
C286 O284 1.247 . S
C286 O285 1.208 1_554 S
C287 O292 1.247 . S
C287 O293 1.208 . S
C288 O280 1.315 . S
C288 O283 1.279 . S
C289 O290 1.315 . S
C289 O291 1.279 1_554 S
O290 Cd282 2.223 1_554 S
O290 C289 1.315 . S
O291 Cd281 2.240 1_556 S
O291 C289 1.279 1_556 S
O292 Cd282 2.297 . S
O292 C287 1.247 . S
O293 Cd282 2.439 . S
O293 C287 1.208 . S
O294 Cd295 2.223 . S
O294 C302 1.315 . S
Cd295 O294 2.223 . S
Cd295 O298 2.297 . S
Cd295 O299 2.439 . S
Cd295 O305 2.240 . S
Cd296 O297 2.240 . S
Cd296 O304 2.223 . S
Cd296 O306 2.297 . S
Cd296 O307 2.439 . S
O297 Cd296 2.240 . S
O297 C302 1.279 . S
O298 Cd295 2.297 . S
O298 C300 1.247 . S
O299 Cd295 2.439 . S
O299 C300 1.208 . S
C300 O298 1.247 . S
C300 O299 1.208 . S
C301 O306 1.247 . S
C301 O307 1.208 . S
C302 O294 1.315 . S
C302 O297 1.279 . S
C303 O304 1.315 . S
C303 O305 1.279 . S
O304 Cd296 2.223 . S
O304 C303 1.315 . S
O305 Cd295 2.240 . S
O305 C303 1.279 . S
O306 Cd296 2.297 . S
O306 C301 1.247 . S
O307 Cd296 2.439 . S
O307 C301 1.208 . S
O308 Cd309 2.223 . S
O308 C316 1.315 . S
Cd309 O308 2.223 . S
Cd309 O312 2.297 . S
Cd309 O313 2.439 . S
Cd309 O319 2.240 . S
Cd310 O311 2.240 . S
Cd310 O318 2.223 . S
Cd310 O320 2.297 . S
Cd310 O321 2.439 . S
O311 Cd310 2.240 . S
O311 C316 1.279 . S
O312 Cd309 2.297 . S
O312 C314 1.247 . S
O313 Cd309 2.439 . S
O313 C314 1.208 . S
C314 O312 1.247 . S
C314 O313 1.208 . S
C315 O320 1.247 . S
C315 O321 1.208 . S
C316 O308 1.315 . S
C316 O311 1.279 . S
C317 O318 1.315 . S
C317 O319 1.279 . S
O318 Cd310 2.223 . S
O318 C317 1.315 . S
O319 Cd309 2.240 . S
O319 C317 1.279 . S
O320 Cd310 2.297 . S
O320 C315 1.247 . S
O321 Cd310 2.439 . S
O321 C315 1.208 . S
O322 Cd323 2.223 . S
O322 C330 1.315 . S
Cd323 O322 2.223 . S
Cd323 O326 2.297 . S
Cd323 O327 2.439 . S
Cd323 O333 2.240 . S
Cd324 O325 2.240 . S
Cd324 O332 2.223 . S
Cd324 O334 2.297 . S
Cd324 O335 2.439 . S
O325 Cd324 2.240 . S
O325 C330 1.279 . S
O326 Cd323 2.297 . S
O326 C328 1.247 . S
O327 Cd323 2.439 . S
O327 C328 1.208 . S
C328 O326 1.247 . S
C328 O327 1.208 . S
C329 O334 1.247 . S
C329 O335 1.208 . S
C330 O322 1.315 . S
C330 O325 1.279 . S
C331 O332 1.315 . S
C331 O333 1.279 . S
O332 Cd324 2.223 . S
O332 C331 1.315 . S
O333 Cd323 2.240 . S
O333 C331 1.279 . S
O334 Cd324 2.297 . S
O334 C329 1.247 . S
O335 Cd324 2.439 . S
O335 C329 1.208 . S
Co336 N341 2.057 1_554 S
Co336 O353 2.021 1_544 S
Co336 O356 2.062 1_455 S
Co336 O360 2.117 . S
Co336 O361 2.020 . S
C337 O357 1.259 . S
C337 O360 1.258 . S
Co338 N347 2.057 1_545 S
Co338 O354 2.117 1_545 S
Co338 O355 2.020 . S
Co338 O357 2.021 . S
Co338 O362 2.062 . S
C339 N341 1.316 . S
C339 N342 1.347 . S
C339 H344 0.931 . S
C340 N341 1.375 . S
C340 C343 1.350 . S
C340 H345 0.930 . S
N341 Co336 2.057 1_556 S
N341 C339 1.316 . S
N341 C340 1.375 . S
N342 C339 1.347 . S
N342 C343 1.373 . S
C343 C340 1.350 . S
C343 N342 1.373 . S
C343 H364 0.931 1_455 S
H344 C339 0.931 . S
H345 C340 0.930 . S
C346 O353 1.259 1_554 S
C346 O354 1.258 . S
N347 Co338 2.057 1_565 S
N347 C348 1.316 1_565 S
N347 C349 1.375 . S
C348 N347 1.316 1_545 S
C348 N350 1.347 1_545 S
C348 H359 0.931 . S
C349 N347 1.375 . S
C349 C351 1.350 . S
C349 H358 0.930 . S
N350 C348 1.347 1_565 S
N350 C351 1.373 . S
C351 C349 1.350 . S
C351 N350 1.373 . S
C351 H365 0.931 . S
C352 O355 1.256 1_655 S
C352 O356 1.255 . S
O353 Co336 2.021 1_566 S
O353 C346 1.259 1_556 S
O354 Co338 2.117 1_565 S
O354 C346 1.258 . S
O355 Co338 2.020 . S
O355 C352 1.256 1_455 S
O356 Co336 2.062 1_655 S
O356 C352 1.255 . S
O357 C337 1.259 . S
O357 Co338 2.021 . S
H358 C349 0.930 . S
H359 C348 0.931 . S
O360 Co336 2.117 . S
O360 C337 1.258 . S
O361 Co336 2.020 . S
O361 C363 1.256 . S
O362 Co338 2.062 . S
O362 C363 1.255 . S
C363 O361 1.256 . S
C363 O362 1.255 . S
H364 C343 0.931 1_655 S
H365 C351 0.931 . S
Co366 N371 2.057 . S
Co366 O383 2.021 . S
Co366 O386 2.062 . S
Co366 O390 2.117 . S
Co366 O391 2.020 . S
C367 O387 1.259 . S
C367 O390 1.258 . S
Co368 N377 2.057 . S
Co368 O384 2.117 . S
Co368 O385 2.020 . S
Co368 O387 2.021 . S
Co368 O392 2.062 . S
C369 N371 1.316 . S
C369 N372 1.347 . S
C369 H374 0.931 . S
C370 N371 1.375 . S
C370 C373 1.350 . S
C370 H375 0.930 . S
N371 Co366 2.057 . S
N371 C369 1.316 . S
N371 C370 1.375 . S
N372 C369 1.347 . S
N372 C373 1.373 . S
C373 C370 1.350 . S
C373 N372 1.373 . S
C373 H394 0.931 . S
H374 C369 0.931 . S
H375 C370 0.930 . S
C376 O383 1.259 . S
C376 O384 1.258 . S
N377 Co368 2.057 . S
N377 C378 1.316 . S
N377 C379 1.375 . S
C378 N377 1.316 . S
C378 N380 1.347 . S
C378 H389 0.931 . S
C379 N377 1.375 . S
C379 C381 1.350 . S
C379 H388 0.930 . S
N380 C378 1.347 . S
N380 C381 1.373 . S
C381 C379 1.350 . S
C381 N380 1.373 . S
C381 H395 0.931 . S
C382 O385 1.256 . S
C382 O386 1.255 . S
O383 Co366 2.021 . S
O383 C376 1.259 . S
O384 Co368 2.117 . S
O384 C376 1.258 . S
O385 Co368 2.020 . S
O385 C382 1.256 . S
O386 Co366 2.062 . S
O386 C382 1.255 . S
O387 C367 1.259 . S
O387 Co368 2.021 . S
H388 C379 0.930 . S
H389 C378 0.931 . S
O390 Co366 2.117 . S
O390 C367 1.258 . S
O391 Co366 2.020 . S
O391 C393 1.256 . S
O392 Co368 2.062 . S
O392 C393 1.255 . S
C393 O391 1.256 . S
C393 O392 1.255 . S
H394 C373 0.931 . S
H395 C381 0.931 . S
Co396 N401 2.057 . S
Co396 O413 2.021 1_545 S
Co396 O416 2.062 . S
Co396 O420 2.117 . S
Co396 O421 2.020 . S
C397 O417 1.259 . S
C397 O420 1.258 . S
Co398 N407 2.057 . S
Co398 O414 2.117 . S
Co398 O415 2.020 . S
Co398 O417 2.021 . S
Co398 O422 2.062 . S
C399 N401 1.296 1_565 S
C399 N402 1.342 1_565 S
C399 H404 0.953 . S
C400 N401 1.375 . S
C400 C403 1.350 . S
C400 H405 0.930 . S
N401 Co396 2.057 . S
N401 C399 1.296 1_545 S
N401 C400 1.375 . S
N402 C399 1.342 1_545 S
N402 C403 1.373 . S
C403 C400 1.350 . S
C403 N402 1.373 . S
C403 H424 0.931 . S
H404 C399 0.953 . S
H405 C400 0.930 . S
C406 O413 1.259 . S
C406 O414 1.258 1_565 S
N407 Co398 2.057 . S
N407 C408 1.316 . S
N407 C409 1.375 . S
C408 N407 1.316 . S
C408 N410 1.347 . S
C408 H419 0.931 . S
C409 N407 1.375 . S
C409 C411 1.350 . S
C409 H418 0.930 . S
N410 C408 1.347 . S
N410 C411 1.373 . S
C411 C409 1.350 . S
C411 N410 1.373 . S
C411 H425 0.931 . S
C412 O415 1.256 . S
C412 O416 1.255 . S
O413 Co396 2.021 1_565 S
O413 C406 1.259 . S
O414 Co398 2.117 . S
O414 C406 1.258 1_545 S
O415 Co398 2.020 . S
O415 C412 1.256 . S
O416 Co396 2.062 . S
O416 C412 1.255 . S
O417 C397 1.259 . S
O417 Co398 2.021 . S
H418 C409 0.930 . S
H419 C408 0.931 . S
O420 Co396 2.117 . S
O420 C397 1.258 . S
O421 Co396 2.020 . S
O421 C423 1.256 . S
O422 Co398 2.062 . S
O422 C423 1.255 . S
C423 O421 1.256 . S
C423 O422 1.255 . S
H424 C403 0.931 . S
H425 C411 0.931 . S
Co426 N431 2.057 . S
Co426 O443 2.021 . S
Co426 O446 2.062 . S
Co426 O450 2.117 . S
Co426 O451 2.020 . S
C427 O447 1.259 . S
C427 O450 1.258 . S
Co428 N437 2.057 . S
Co428 O444 2.117 . S
Co428 O445 2.020 . S
Co428 O447 2.021 . S
Co428 O452 2.062 . S
C429 N431 1.316 . S
C429 N432 1.347 . S
C429 H434 0.931 . S
C430 N431 1.375 . S
C430 C433 1.350 . S
C430 H435 0.930 . S
N431 Co426 2.057 . S
N431 C429 1.316 . S
N431 C430 1.375 . S
N432 C429 1.347 . S
N432 C433 1.373 . S
C433 C430 1.350 . S
C433 N432 1.373 . S
C433 H454 0.931 . S
H434 C429 0.931 . S
H435 C430 0.930 . S
C436 O443 1.259 . S
C436 O444 1.258 . S
N437 Co428 2.057 . S
N437 C438 1.316 . S
N437 C439 1.375 . S
C438 N437 1.316 . S
C438 N440 1.347 . S
C438 H449 0.931 . S
C439 N437 1.375 . S
C439 C441 1.350 . S
C439 H448 0.930 . S
N440 C438 1.347 . S
N440 C441 1.373 . S
C441 C439 1.350 . S
C441 N440 1.373 . S
C441 H455 0.931 . S
C442 O445 1.256 . S
C442 O446 1.255 . S
O443 Co426 2.021 . S
O443 C436 1.259 . S
O444 Co428 2.117 . S
O444 C436 1.258 . S
O445 Co428 2.020 . S
O445 C442 1.256 . S
O446 Co426 2.062 . S
O446 C442 1.255 . S
O447 C427 1.259 . S
O447 Co428 2.021 . S
H448 C439 0.930 . S
H449 C438 0.931 . S
O450 Co426 2.117 . S
O450 C427 1.258 . S
O451 Co426 2.020 . S
O451 C453 1.256 . S
O452 Co428 2.062 . S
O452 C453 1.255 . S
C453 O451 1.256 . S
C453 O452 1.255 . S
H454 C433 0.931 . S
H455 C441 0.931 . S
Co456 N461 2.057 1_545 S
Co456 O473 2.021 . S
Co456 O476 2.062 1_545 S
Co456 O480 2.117 . S
Co456 O481 2.020 1_455 S
C457 O477 1.259 . S
C457 O480 1.258 . S
Co458 N467 2.057 . S
Co458 O474 2.117 . S
Co458 O475 2.020 . S
Co458 O477 2.021 . S
Co458 O482 2.062 1_455 S
C459 N461 1.316 . S
C459 N462 1.347 . S
C459 H464 0.931 . S
C460 N461 1.375 1_655 S
C460 C463 1.350 . S
C460 H465 0.930 . S
N461 Co456 2.057 1_565 S
N461 C459 1.316 . S
N461 C460 1.375 1_455 S
N462 C459 1.347 . S
N462 C463 1.373 1_455 S
C463 C460 1.350 . S
C463 N462 1.373 1_655 S
C463 H484 0.931 . S
H464 C459 0.931 . S
H465 C460 0.930 . S
C466 O473 1.259 . S
C466 O474 1.258 . S
N467 Co458 2.057 . S
N467 C468 1.316 . S
N467 C469 1.375 . S
C468 N467 1.316 . S
C468 N470 1.347 . S
C468 H479 0.931 . S
C469 N467 1.375 . S
C469 C471 1.350 . S
C469 H478 0.930 . S
N470 C468 1.347 . S
N470 C471 1.373 . S
C471 C469 1.350 . S
C471 N470 1.373 . S
C471 H485 0.931 . S
C472 O475 1.256 . S
C472 O476 1.255 1_545 S
O473 Co456 2.021 . S
O473 C466 1.259 . S
O474 Co458 2.117 . S
O474 C466 1.258 . S
O475 Co458 2.020 . S
O475 C472 1.256 . S
O476 Co456 2.062 1_565 S
O476 C472 1.255 1_565 S
O477 C457 1.259 . S
O477 Co458 2.021 . S
H478 C469 0.930 . S
H479 C468 0.931 . S
O480 Co456 2.117 . S
O480 C457 1.258 . S
O481 Co456 2.020 1_655 S
O481 C483 1.256 . S
O482 Co458 2.062 1_655 S
O482 C483 1.255 . S
C483 O481 1.256 . S
C483 O482 1.255 . S
H484 C463 0.931 . S
H485 C471 0.931 . S
Co486 N491 2.057 . S
Co486 O503 2.021 . S
Co486 O506 2.062 . S
Co486 O510 2.117 . S
Co486 O511 2.020 . S
C487 O507 1.259 . S
C487 O510 1.258 . S
Co488 N497 2.057 . S
Co488 O504 2.117 . S
Co488 O505 2.020 . S
Co488 O507 2.021 . S
Co488 O512 2.062 . S
C489 N491 1.316 . S
C489 N492 1.347 . S
C489 H494 0.931 . S
C490 N491 1.375 . S
C490 C493 1.350 . S
C490 H495 0.930 . S
N491 Co486 2.057 . S
N491 C489 1.316 . S
N491 C490 1.375 . S
N492 C489 1.347 . S
N492 C493 1.373 . S
C493 C490 1.350 . S
C493 N492 1.373 . S
C493 H514 0.931 . S
H494 C489 0.931 . S
H495 C490 0.930 . S
C496 O503 1.259 . S
C496 O504 1.258 . S
N497 Co488 2.057 . S
N497 C498 1.316 . S
N497 C499 1.375 . S
C498 N497 1.316 . S
C498 N500 1.347 . S
C498 H509 0.931 . S
C499 N497 1.375 . S
C499 C501 1.350 . S
C499 H508 0.930 . S
N500 C498 1.347 . S
N500 C501 1.373 . S
C501 C499 1.350 . S
C501 N500 1.373 . S
C501 H515 0.931 . S
C502 O505 1.256 . S
C502 O506 1.255 . S
O503 Co486 2.021 . S
O503 C496 1.259 . S
O504 Co488 2.117 . S
O504 C496 1.258 . S
O505 Co488 2.020 . S
O505 C502 1.256 . S
O506 Co486 2.062 . S
O506 C502 1.255 . S
O507 C487 1.259 . S
O507 Co488 2.021 . S
H508 C499 0.930 . S
H509 C498 0.931 . S
O510 Co486 2.117 . S
O510 C487 1.258 . S
O511 Co486 2.020 . S
O511 C513 1.256 . S
O512 Co488 2.062 . S
O512 C513 1.255 . S
C513 O511 1.256 . S
C513 O512 1.255 . S
H514 C493 0.931 . S
H515 C501 0.931 . S
Co516 N521 2.057 1_554 S
Co516 O533 2.021 . S
Co516 O536 2.062 . S
Co516 O540 2.117 . S
Co516 O541 2.020 1_545 S
C517 O537 1.259 . S
C517 O540 1.258 . S
Co518 N527 2.057 . S
Co518 O534 2.117 . S
Co518 O535 2.020 . S
Co518 O537 2.021 . S
Co518 O542 2.062 . S
C519 N521 1.316 . S
C519 N522 1.347 . S
C519 H524 0.931 . S
C520 N521 1.375 . S
C520 C523 1.350 . S
C520 H525 0.930 1_545 S
N521 Co516 2.057 1_556 S
N521 C519 1.316 . S
N521 C520 1.375 . S
N522 C519 1.347 . S
N522 C523 1.373 . S
C523 C520 1.350 . S
C523 N522 1.373 . S
C523 H544 0.931 1_545 S
H524 C519 0.931 . S
H525 C520 0.930 1_565 S
C526 O533 1.259 . S
C526 O534 1.258 . S
N527 Co518 2.057 . S
N527 C528 1.316 . S
N527 C529 1.375 . S
C528 N527 1.316 . S
C528 N530 1.347 . S
C528 H539 0.931 . S
C529 N527 1.375 . S
C529 C531 1.350 . S
C529 H538 0.930 . S
N530 C528 1.347 . S
N530 C531 1.373 . S
C531 C529 1.350 . S
C531 N530 1.373 . S
C531 H545 0.931 . S
C532 O535 1.256 . S
C532 O536 1.255 . S
O533 Co516 2.021 . S
O533 C526 1.259 . S
O534 Co518 2.117 . S
O534 C526 1.258 . S
O535 Co518 2.020 . S
O535 C532 1.256 . S
O536 Co516 2.062 . S
O536 C532 1.255 . S
O537 C517 1.259 . S
O537 Co518 2.021 . S
H538 C529 0.930 . S
H539 C528 0.931 . S
O540 Co516 2.117 . S
O540 C517 1.258 . S
O541 Co516 2.020 1_565 S
O541 C543 1.256 . S
O542 Co518 2.062 . S
O542 C543 1.255 1_545 S
C543 O541 1.256 . S
C543 O542 1.255 1_565 S
H544 C523 0.931 1_565 S
H545 C531 0.931 . S
Co546 N551 2.057 . S
Co546 O563 2.021 . S
Co546 O566 2.062 . S
Co546 O570 2.117 . S
Co546 O571 2.020 . S
C547 O567 1.259 . S
C547 O570 1.258 . S
Co548 N557 2.057 . S
Co548 O564 2.117 . S
Co548 O565 2.020 . S
Co548 O567 2.021 . S
Co548 O572 2.062 . S
C549 N551 1.316 . S
C549 N552 1.347 . S
C549 H554 0.931 . S
C550 N551 1.375 . S
C550 C553 1.350 . S
C550 H555 0.930 . S
N551 Co546 2.057 . S
N551 C549 1.316 . S
N551 C550 1.375 . S
N552 C549 1.347 . S
N552 C553 1.373 . S
C553 C550 1.350 . S
C553 N552 1.373 . S
C553 H574 0.931 . S
H554 C549 0.931 . S
H555 C550 0.930 . S
C556 O563 1.259 . S
C556 O564 1.258 . S
N557 Co548 2.057 . S
N557 C558 1.316 . S
N557 C559 1.375 . S
C558 N557 1.316 . S
C558 N560 1.347 . S
C558 H569 0.931 . S
C559 N557 1.375 . S
C559 C561 1.350 . S
C559 H568 0.930 . S
N560 C558 1.347 . S
N560 C561 1.373 . S
C561 C559 1.350 . S
C561 N560 1.373 . S
C561 H575 0.931 . S
C562 O565 1.256 . S
C562 O566 1.255 . S
O563 Co546 2.021 . S
O563 C556 1.259 . S
O564 Co548 2.117 . S
O564 C556 1.258 . S
O565 Co548 2.020 . S
O565 C562 1.256 . S
O566 Co546 2.062 . S
O566 C562 1.255 . S
O567 C547 1.259 . S
O567 Co548 2.021 . S
H568 C559 0.930 . S
H569 C558 0.931 . S
O570 Co546 2.117 . S
O570 C547 1.258 . S
O571 Co546 2.020 . S
O571 C573 1.256 . S
O572 Co548 2.062 . S
O572 C573 1.255 . S
C573 O571 1.256 . S
C573 O572 1.255 . S
H574 C553 0.931 . S
H575 C561 0.931 . S
Co576 N581 2.057 . S
Co576 O593 2.021 1_554 S
Co576 O596 2.062 . S
Co576 O600 2.117 . S
Co576 O601 2.020 . S
C577 O597 1.259 . S
C577 O600 1.258 . S
Co578 N587 2.057 . S
Co578 O594 2.117 . S
Co578 O595 2.020 . S
Co578 O597 2.021 . S
Co578 O602 2.062 . S
C579 N581 1.316 . S
C579 N582 1.347 . S
C579 H584 0.931 1_554 S
C580 N581 1.375 . S
C580 C583 1.350 . S
C580 H585 0.930 . S
N581 Co576 2.057 . S
N581 C579 1.316 . S
N581 C580 1.375 . S
N582 C579 1.347 . S
N582 C583 1.373 . S
C583 C580 1.350 . S
C583 N582 1.373 . S
C583 H604 0.931 . S
H584 C579 0.931 1_556 S
H585 C580 0.930 . S
C586 O593 1.259 . S
C586 O594 1.258 1_556 S
N587 Co578 2.057 . S
N587 C588 1.316 . S
N587 C589 1.375 . S
C588 N587 1.316 . S
C588 N590 1.347 . S
C588 H599 0.931 . S
C589 N587 1.375 . S
C589 C591 1.350 . S
C589 H598 0.930 . S
N590 C588 1.347 . S
N590 C591 1.373 . S
C591 C589 1.350 . S
C591 N590 1.373 . S
C591 H605 0.931 . S
C592 O595 1.256 . S
C592 O596 1.255 . S
O593 Co576 2.021 1_556 S
O593 C586 1.259 . S
O594 Co578 2.117 . S
O594 C586 1.258 1_554 S
O595 Co578 2.020 . S
O595 C592 1.256 . S
O596 Co576 2.062 . S
O596 C592 1.255 . S
O597 C577 1.259 . S
O597 Co578 2.021 . S
H598 C589 0.930 . S
H599 C588 0.931 . S
O600 Co576 2.117 . S
O600 C577 1.258 . S
O601 Co576 2.020 . S
O601 C603 1.256 . S
O602 Co578 2.062 . S
O602 C603 1.255 . S
C603 O601 1.256 . S
C603 O602 1.255 . S
H604 C583 0.931 . S
H605 C591 0.931 . S
Co606 N611 2.057 . S
Co606 O623 2.021 . S
Co606 O626 2.062 . S
Co606 O630 2.117 . S
Co606 O631 2.020 . S
C607 O627 1.259 . S
C607 O630 1.258 . S
Co608 N617 2.057 . S
Co608 O624 2.117 . S
Co608 O625 2.020 . S
Co608 O627 2.021 . S
Co608 O632 2.062 . S
C609 N611 1.316 . S
C609 N612 1.347 . S
C609 H614 0.931 . S
C610 N611 1.375 . S
C610 C613 1.350 . S
C610 H615 0.930 . S
N611 Co606 2.057 . S
N611 C609 1.316 . S
N611 C610 1.375 . S
N612 C609 1.347 . S
N612 C613 1.373 . S
C613 C610 1.350 . S
C613 N612 1.373 . S
C613 H634 0.931 . S
H614 C609 0.931 . S
H615 C610 0.930 . S
C616 O623 1.259 . S
C616 O624 1.258 . S
N617 Co608 2.057 . S
N617 C618 1.316 . S
N617 C619 1.375 . S
C618 N617 1.316 . S
C618 N620 1.347 . S
C618 H629 0.931 . S
C619 N617 1.375 . S
C619 C621 1.350 . S
C619 H628 0.930 . S
N620 C618 1.347 . S
N620 C621 1.373 . S
C621 C619 1.350 . S
C621 N620 1.373 . S
C621 H635 0.931 . S
C622 O625 1.256 . S
C622 O626 1.255 . S
O623 Co606 2.021 . S
O623 C616 1.259 . S
O624 Co608 2.117 . S
O624 C616 1.258 . S
O625 Co608 2.020 . S
O625 C622 1.256 . S
O626 Co606 2.062 . S
O626 C622 1.255 . S
O627 C607 1.259 . S
O627 Co608 2.021 . S
H628 C619 0.930 . S
H629 C618 0.931 . S
O630 Co606 2.117 . S
O630 C607 1.258 . S
O631 Co606 2.020 . S
O631 C633 1.256 . S
O632 Co608 2.062 . S
O632 C633 1.255 . S
C633 O631 1.256 . S
C633 O632 1.255 . S
H634 C613 0.931 . S
H635 C621 0.931 . S
Co636 N641 2.057 . S
Co636 O653 2.021 1_455 S
Co636 O656 2.062 . S
Co636 O660 2.117 . S
Co636 O661 2.020 . S
C637 O657 1.259 . S
C637 O660 1.258 . S
Co638 N647 2.057 . S
Co638 O654 2.117 . S
Co638 O655 2.020 . S
Co638 O657 2.021 . S
Co638 O662 2.062 . S
C639 N641 1.316 . S
C639 N642 1.347 . S
C639 H644 0.931 1_455 S
C640 N641 1.375 . S
C640 C643 1.350 . S
C640 H645 0.930 . S
N641 Co636 2.057 . S
N641 C639 1.316 . S
N641 C640 1.375 . S
N642 C639 1.347 . S
N642 C643 1.373 . S
C643 C640 1.350 . S
C643 N642 1.373 . S
C643 H664 0.931 . S
H644 C639 0.931 1_655 S
H645 C640 0.930 . S
C646 O653 1.259 . S
C646 O654 1.258 1_655 S
N647 Co638 2.057 . S
N647 C648 1.316 . S
N647 C649 1.375 . S
C648 N647 1.316 . S
C648 N650 1.347 . S
C648 H659 0.931 . S
C649 N647 1.375 . S
C649 C651 1.350 . S
C649 H658 0.930 . S
N650 C648 1.347 . S
N650 C651 1.373 . S
C651 C649 1.350 . S
C651 N650 1.373 . S
C651 H665 0.931 . S
C652 O655 1.256 . S
C652 O656 1.255 . S
O653 Co636 2.021 1_655 S
O653 C646 1.259 . S
O654 Co638 2.117 . S
O654 C646 1.258 1_455 S
O655 Co638 2.020 . S
O655 C652 1.256 . S
O656 Co636 2.062 . S
O656 C652 1.255 . S
O657 C637 1.259 . S
O657 Co638 2.021 . S
H658 C649 0.930 . S
H659 C648 0.931 . S
O660 Co636 2.117 . S
O660 C637 1.258 . S
O661 Co636 2.020 . S
O661 C663 1.256 . S
O662 Co638 2.062 . S
O662 C663 1.255 . S
C663 O661 1.256 . S
C663 O662 1.255 . S
H664 C643 0.931 . S
H665 C651 0.931 . S
Co666 N671 2.057 . S
Co666 O683 2.021 . S
Co666 O686 2.062 . S
Co666 O690 2.117 . S
Co666 O691 2.020 . S
C667 O687 1.259 . S
C667 O690 1.258 . S
Co668 N677 2.057 . S
Co668 O684 2.117 . S
Co668 O685 2.020 . S
Co668 O687 2.021 . S
Co668 O692 2.062 . S
C669 N671 1.316 . S
C669 N672 1.347 . S
C669 H674 0.931 . S
C670 N671 1.375 . S
C670 C673 1.350 . S
C670 H675 0.930 . S
N671 Co666 2.057 . S
N671 C669 1.316 . S
N671 C670 1.375 . S
N672 C669 1.347 . S
N672 C673 1.373 . S
C673 C670 1.350 . S
C673 N672 1.373 . S
C673 H694 0.931 . S
H674 C669 0.931 . S
H675 C670 0.930 . S
C676 O683 1.259 . S
C676 O684 1.258 . S
N677 Co668 2.057 . S
N677 C678 1.316 . S
N677 C679 1.375 . S
C678 N677 1.316 . S
C678 N680 1.347 . S
C678 H689 0.931 . S
C679 N677 1.375 . S
C679 C681 1.350 . S
C679 H688 0.930 . S
N680 C678 1.347 . S
N680 C681 1.373 . S
C681 C679 1.350 . S
C681 N680 1.373 . S
C681 H695 0.931 . S
C682 O685 1.256 . S
C682 O686 1.255 . S
O683 Co666 2.021 . S
O683 C676 1.259 . S
O684 Co668 2.117 . S
O684 C676 1.258 . S
O685 Co668 2.020 . S
O685 C682 1.256 . S
O686 Co666 2.062 . S
O686 C682 1.255 . S
O687 C667 1.259 . S
O687 Co668 2.021 . S
H688 C679 0.930 . S
H689 C678 0.931 . S
O690 Co666 2.117 . S
O690 C667 1.258 . S
O691 Co666 2.020 . S
O691 C693 1.256 . S
O692 Co668 2.062 . S
O692 C693 1.255 . S
C693 O691 1.256 . S
C693 O692 1.255 . S
H694 C673 0.931 . S
H695 C681 0.931 . S
Co696 N701 2.057 . S
Co696 O713 2.021 . S
Co696 O716 2.062 . S
Co696 O720 2.117 . S
Co696 O721 2.020 . S
C697 O717 1.259 . S
C697 O720 1.258 . S
Co698 N707 2.057 . S
Co698 O714 2.117 . S
Co698 O715 2.020 . S
Co698 O717 2.021 . S
Co698 O722 2.062 . S
C699 N701 1.316 . S
C699 N702 1.347 . S
C699 H704 0.931 . S
C700 N701 1.375 . S
C700 C703 1.350 . S
C700 H705 0.930 . S
N701 Co696 2.057 . S
N701 C699 1.316 . S
N701 C700 1.375 . S
N702 C699 1.347 . S
N702 C703 1.373 . S
C703 C700 1.350 . S
C703 N702 1.373 . S
C703 H724 0.931 . S
H704 C699 0.931 . S
H705 C700 0.930 . S
C706 O713 1.259 . S
C706 O714 1.258 . S
N707 Co698 2.057 . S
N707 C708 1.316 . S
N707 C709 1.375 . S
C708 N707 1.316 . S
C708 N710 1.347 . S
C708 H719 0.931 . S
C709 N707 1.375 . S
C709 C711 1.350 . S
C709 H718 0.930 . S
N710 C708 1.347 . S
N710 C711 1.373 . S
C711 C709 1.350 . S
C711 N710 1.373 . S
C711 H725 0.931 . S
C712 O715 1.256 . S
C712 O716 1.255 . S
O713 Co696 2.021 . S
O713 C706 1.259 . S
O714 Co698 2.117 . S
O714 C706 1.258 . S
O715 Co698 2.020 . S
O715 C712 1.256 . S
O716 Co696 2.062 . S
O716 C712 1.255 . S
O717 C697 1.259 . S
O717 Co698 2.021 . S
H718 C709 0.930 . S
H719 C708 0.931 . S
O720 Co696 2.117 . S
O720 C697 1.258 . S
O721 Co696 2.020 . S
O721 C723 1.256 . S
O722 Co698 2.062 . S
O722 C723 1.255 . S
C723 O721 1.256 . S
C723 O722 1.255 . S
H724 C703 0.931 . S
H725 C711 0.931 . S
Co726 N731 2.057 . S
Co726 O743 2.021 . S
Co726 O746 2.062 . S
Co726 O750 2.117 . S
Co726 O751 2.020 . S
C727 O747 1.259 . S
C727 O750 1.258 . S
Co728 N737 2.057 . S
Co728 O744 2.117 . S
Co728 O745 2.020 . S
Co728 O747 2.021 . S
Co728 O752 2.062 . S
C729 N731 1.316 . S
C729 N732 1.347 . S
C729 H734 0.931 . S
C730 N731 1.375 . S
C730 C733 1.350 . S
C730 H735 0.930 . S
N731 Co726 2.057 . S
N731 C729 1.316 . S
N731 C730 1.375 . S
N732 C729 1.347 . S
N732 C733 1.373 . S
C733 C730 1.350 . S
C733 N732 1.373 . S
C733 H754 0.931 . S
H734 C729 0.931 . S
H735 C730 0.930 . S
C736 O743 1.259 . S
C736 O744 1.258 . S
N737 Co728 2.057 . S
N737 C738 1.316 . S
N737 C739 1.375 . S
C738 N737 1.316 . S
C738 N740 1.347 . S
C738 H749 0.931 . S
C739 N737 1.375 . S
C739 C741 1.350 . S
C739 H748 0.930 . S
N740 C738 1.347 . S
N740 C741 1.373 . S
C741 C739 1.350 . S
C741 N740 1.373 . S
C741 H755 0.931 . S
C742 O745 1.256 . S
C742 O746 1.255 . S
O743 Co726 2.021 . S
O743 C736 1.259 . S
O744 Co728 2.117 . S
O744 C736 1.258 . S
O745 Co728 2.020 . S
O745 C742 1.256 . S
O746 Co726 2.062 . S
O746 C742 1.255 . S
O747 C727 1.259 . S
O747 Co728 2.021 . S
H748 C739 0.930 . S
H749 C738 0.931 . S
O750 Co726 2.117 . S
O750 C727 1.258 . S
O751 Co726 2.020 . S
O751 C753 1.256 . S
O752 Co728 2.062 . S
O752 C753 1.255 . S
C753 O751 1.256 . S
C753 O752 1.255 . S
H754 C733 0.931 . S
H755 C741 0.931 . S
Co756 N761 2.057 . S
Co756 O773 2.021 . S
Co756 O776 2.062 . S
Co756 O780 2.117 . S
Co756 O781 2.020 . S
C757 O777 1.259 . S
C757 O780 1.258 . S
Co758 N767 2.057 . S
Co758 O774 2.117 . S
Co758 O775 2.020 . S
Co758 O777 2.021 . S
Co758 O782 2.062 . S
C759 N761 1.316 . S
C759 N762 1.347 . S
C759 H764 0.931 . S
C760 N761 1.375 . S
C760 C763 1.350 . S
C760 H765 0.930 . S
N761 Co756 2.057 . S
N761 C759 1.316 . S
N761 C760 1.375 . S
N762 C759 1.347 . S
N762 C763 1.373 . S
C763 C760 1.350 . S
C763 N762 1.373 . S
C763 H784 0.931 . S
H764 C759 0.931 . S
H765 C760 0.930 . S
C766 O773 1.259 . S
C766 O774 1.258 . S
N767 Co758 2.057 . S
N767 C768 1.316 . S
N767 C769 1.375 . S
C768 N767 1.316 . S
C768 N770 1.347 . S
C768 H779 0.931 . S
C769 N767 1.375 . S
C769 C771 1.350 . S
C769 H778 0.930 . S
N770 C768 1.347 . S
N770 C771 1.373 . S
C771 C769 1.350 . S
C771 N770 1.373 . S
C771 H785 0.931 . S
C772 O775 1.256 . S
C772 O776 1.255 . S
O773 Co756 2.021 . S
O773 C766 1.259 . S
O774 Co758 2.117 . S
O774 C766 1.258 . S
O775 Co758 2.020 . S
O775 C772 1.256 . S
O776 Co756 2.062 . S
O776 C772 1.255 . S
O777 C757 1.259 . S
O777 Co758 2.021 . S
H778 C769 0.930 . S
H779 C768 0.931 . S
O780 Co756 2.117 . S
O780 C757 1.258 . S
O781 Co756 2.020 . S
O781 C783 1.256 . S
O782 Co758 2.062 . S
O782 C783 1.255 . S
C783 O781 1.256 . S
C783 O782 1.255 . S
H784 C763 0.931 . S
H785 C771 0.931 . S
Co786 N791 2.057 1_455 S
Co786 O803 2.021 . S
Co786 O806 2.058 1_455 S
Co786 O810 2.117 . S
Co786 O811 2.020 1_554 S
C787 O807 1.259 . S
C787 O810 1.258 . S
Co788 N797 2.057 . S
Co788 O804 2.117 . S
Co788 O805 2.020 . S
Co788 O807 2.021 . S
Co788 O812 2.062 . S
C789 N791 1.316 . S
C789 N792 1.347 . S
C789 H794 0.931 . S
C790 N791 1.375 . S
C790 C793 1.350 . S
C790 H795 0.930 . S
N791 Co786 2.057 1_655 S
N791 C789 1.316 . S
N791 C790 1.375 . S
N792 C789 1.347 . S
N792 C793 1.373 . S
C793 C790 1.350 . S
C793 N792 1.373 . S
C793 H814 0.931 . S
H794 C789 0.931 . S
H795 C790 0.930 . S
C796 O803 1.259 . S
C796 O804 1.258 . S
N797 Co788 2.057 . S
N797 C798 1.316 . S
N797 C799 1.375 . S
C798 N797 1.316 . S
C798 N800 1.347 . S
C798 H809 0.931 . S
C799 N797 1.375 . S
C799 C801 1.350 . S
C799 H808 0.930 . S
N800 C798 1.347 . S
N800 C801 1.373 . S
C801 C799 1.350 . S
C801 N800 1.373 . S
C801 H815 0.931 . S
C802 O805 1.256 . S
C802 O806 1.243 1_455 S
O803 Co786 2.021 . S
O803 C796 1.259 . S
O804 Co788 2.117 . S
O804 C796 1.258 . S
O805 Co788 2.020 . S
O805 C802 1.256 . S
O806 Co786 2.058 1_655 S
O806 C802 1.243 1_655 S
O807 C787 1.259 . S
O807 Co788 2.021 . S
H808 C799 0.930 . S
H809 C798 0.931 . S
O810 Co786 2.117 . S
O810 C787 1.258 . S
O811 Co786 2.020 1_556 S
O811 C813 1.256 . S
O812 Co788 2.062 . S
O812 C813 1.255 1_554 S
C813 O811 1.256 . S
C813 O812 1.255 1_556 S
H814 C793 0.931 . S
H815 C801 0.931 . S
C816 C817 1.363 . S
C816 C822 1.379 . S
C816 N824 1.356 . S
C817 C816 1.363 . S
C817 C823 1.363 . S
C818 C819 1.363 . S
C818 C823 1.379 . S
C818 N825 1.356 . S
C819 C818 1.363 . S
C819 C822 1.363 . S
N820 C822 1.356 . S
N820 H832 0.984 . S
N820 H833 0.985 . S
N821 C823 1.356 . S
N821 H826 0.984 . S
N821 H827 0.985 . S
C822 C816 1.379 . S
C822 C819 1.363 . S
C822 N820 1.356 . S
C823 C817 1.363 . S
C823 C818 1.379 . S
C823 N821 1.356 . S
N824 C816 1.356 . S
N824 H830 0.984 . S
N824 H831 0.984 . S
N825 C818 1.356 . S
N825 H828 0.984 . S
N825 H829 0.985 1_455 S
H826 N821 0.984 . S
H827 N821 0.985 . S
H828 N825 0.984 . S
H829 N825 0.985 1_655 S
H830 N824 0.984 . S
H831 N824 0.984 . S
H832 N820 0.984 . S
H833 N820 0.985 . S
C834 C835 1.363 . S
C834 C840 1.379 . S
C834 N842 1.356 . S
C835 C834 1.363 . S
C835 C841 1.363 . S
C836 C837 1.363 . S
C836 C841 1.379 . S
C836 N843 1.356 . S
C837 C836 1.363 . S
C837 C840 1.363 . S
N838 C840 1.356 . S
N838 H850 0.984 . S
N838 H851 0.985 . S
N839 C841 1.356 . S
N839 H844 0.984 . S
N839 H845 0.985 . S
C840 C834 1.379 . S
C840 C837 1.363 . S
C840 N838 1.356 . S
C841 C835 1.363 . S
C841 C836 1.379 . S
C841 N839 1.356 . S
N842 C834 1.356 . S
N842 H848 0.984 . S
N842 H849 0.984 . S
N843 C836 1.356 . S
N843 H846 0.984 . S
N843 H847 0.985 . S
H844 N839 0.984 . S
H845 N839 0.985 . S
H846 N843 0.984 . S
H847 N843 0.985 . S
H848 N842 0.984 . S
H849 N842 0.984 . S
H850 N838 0.984 . S
H851 N838 0.985 . S
C852 C853 1.363 . S
C852 C858 1.379 . S
C852 N860 1.356 . S
C853 C852 1.363 . S
C853 C859 1.363 . S
C854 C855 1.363 . S
C854 C859 1.379 . S
C854 N861 1.356 . S
C855 C854 1.363 . S
C855 C858 1.363 . S
N856 C858 1.356 . S
N856 H868 0.984 . S
N856 H869 0.985 . S
N857 C859 1.356 . S
N857 H862 0.984 . S
N857 H863 0.985 . S
C858 C852 1.379 . S
C858 C855 1.363 . S
C858 N856 1.356 . S
C859 C853 1.363 . S
C859 C854 1.379 . S
C859 N857 1.356 . S
N860 C852 1.356 . S
N860 H866 0.984 . S
N860 H867 0.984 . S
N861 C854 1.356 . S
N861 H864 0.984 . S
N861 H865 0.985 . S
H862 N857 0.984 . S
H863 N857 0.985 . S
H864 N861 0.984 . S
H865 N861 0.985 . S
H866 N860 0.984 . S
H867 N860 0.984 . S
H868 N856 0.984 . S
H869 N856 0.985 . S
C870 C871 1.363 . S
C870 C876 1.379 . S
C870 N878 1.356 . S
C871 C870 1.363 . S
C871 C877 1.363 . S
C872 C873 1.363 . S
C872 C877 1.379 . S
C872 N879 1.356 . S
C873 C872 1.363 . S
C873 C876 1.363 . S
N874 C876 1.356 . S
N874 H886 0.984 . S
N874 H887 0.985 . S
N875 C877 1.356 . S
N875 H880 0.984 . S
N875 H881 0.985 . S
C876 C870 1.379 . S
C876 C873 1.363 . S
C876 N874 1.356 . S
C877 C871 1.363 . S
C877 C872 1.379 . S
C877 N875 1.356 . S
N878 C870 1.356 . S
N878 H884 0.984 . S
N878 H885 0.984 . S
N879 C872 1.356 . S
N879 H882 0.984 . S
N879 H883 0.985 . S
H880 N875 0.984 . S
H881 N875 0.985 . S
H882 N879 0.984 . S
H883 N879 0.985 . S
H884 N878 0.984 . S
H885 N878 0.984 . S
H886 N874 0.984 . S
H887 N874 0.985 . S
C888 C889 1.363 . S
C888 C894 1.379 . S
C888 N896 1.356 . S
C889 C888 1.363 . S
C889 C895 1.363 . S
C890 C891 1.363 . S
C890 C895 1.379 . S
C890 N897 1.356 . S
C891 C890 1.363 . S
C891 C894 1.363 . S
N892 C894 1.356 1_655 S
N892 H904 0.984 . S
N892 H905 0.985 . S
N893 C895 1.356 . S
N893 H898 0.984 . S
N893 H899 0.985 . S
C894 C888 1.379 . S
C894 C891 1.363 . S
C894 N892 1.356 1_455 S
C895 C889 1.363 . S
C895 C890 1.379 . S
C895 N893 1.356 . S
N896 C888 1.356 . S
N896 H902 0.984 . S
N896 H903 0.984 . S
N897 C890 1.356 . S
N897 H900 0.984 . S
N897 H901 0.985 . S
H898 N893 0.984 . S
H899 N893 0.985 . S
H900 N897 0.984 . S
H901 N897 0.985 . S
H902 N896 0.984 . S
H903 N896 0.984 . S
H904 N892 0.984 . S
H905 N892 0.985 . S
C906 C907 1.363 . S
C906 C912 1.379 . S
C906 N914 1.356 . S
C907 C906 1.363 . S
C907 C913 1.363 . S
C908 C909 1.363 . S
C908 C913 1.379 . S
C908 N915 1.356 . S
C909 C908 1.363 . S
C909 C912 1.363 . S
N910 C912 1.356 . S
N910 H922 0.984 . S
N910 H923 0.985 . S
N911 C913 1.356 . S
N911 H916 0.984 . S
N911 H917 0.985 . S
C912 C906 1.379 . S
C912 C909 1.363 . S
C912 N910 1.356 . S
C913 C907 1.363 . S
C913 C908 1.379 . S
C913 N911 1.356 . S
N914 C906 1.356 . S
N914 H920 0.984 . S
N914 H921 0.984 . S
N915 C908 1.356 . S
N915 H918 0.984 . S
N915 H919 0.985 . S
H916 N911 0.984 . S
H917 N911 0.985 . S
H918 N915 0.984 . S
H919 N915 0.985 . S
H920 N914 0.984 . S
H921 N914 0.984 . S
H922 N910 0.984 . S
H923 N910 0.985 . S
C924 C925 1.363 . S
C924 C930 1.379 . S
C924 N932 1.356 . S
C925 C924 1.363 . S
C925 C931 1.363 . S
C926 C927 1.363 . S
C926 C931 1.379 1_554 S
C926 N933 1.356 . S
C927 C926 1.363 . S
C927 C930 1.363 1_554 S
N928 C930 1.356 . S
N928 H940 0.984 . S
N928 H941 0.985 1_556 S
N929 C931 1.356 . S
N929 H934 0.984 . S
N929 H935 0.985 . S
C930 C924 1.379 . S
C930 C927 1.363 1_556 S
C930 N928 1.356 . S
C931 C925 1.363 . S
C931 C926 1.379 1_556 S
C931 N929 1.356 . S
N932 C924 1.356 . S
N932 H938 0.984 . S
N932 H939 0.984 . S
N933 C926 1.356 . S
N933 H936 0.984 . S
N933 H937 0.985 . S
H934 N929 0.984 . S
H935 N929 0.985 . S
H936 N933 0.984 . S
H937 N933 0.985 . S
H938 N932 0.984 . S
H939 N932 0.984 . S
H940 N928 0.984 . S
H941 N928 0.985 1_554 S
C942 C943 1.363 . S
C942 C948 1.379 . S
C942 N950 1.356 . S
C943 C942 1.363 . S
C943 C949 1.363 . S
C944 C945 1.363 . S
C944 C949 1.379 . S
C944 N951 1.356 . S
C945 C944 1.363 . S
C945 C948 1.363 . S
N946 C948 1.356 . S
N946 H958 0.984 . S
N946 H959 0.985 . S
N947 C949 1.356 . S
N947 H952 0.984 . S
N947 H953 0.985 . S
C948 C942 1.379 . S
C948 C945 1.363 . S
C948 N946 1.356 . S
C949 C943 1.363 . S
C949 C944 1.379 . S
C949 N947 1.356 . S
N950 C942 1.356 . S
N950 H956 0.984 . S
N950 H957 0.984 . S
N951 C944 1.356 . S
N951 H954 0.984 . S
N951 H955 0.985 . S
H952 N947 0.984 . S
H953 N947 0.985 . S
H954 N951 0.984 . S
H955 N951 0.985 . S
H956 N950 0.984 . S
H957 N950 0.984 . S
H958 N946 0.984 . S
H959 N946 0.985 . S
C960 C961 1.363 1_565 S
C960 C966 1.379 . S
C960 N968 1.356 . S
C961 C960 1.363 1_545 S
C961 C967 1.363 . S
C962 C963 1.363 1_545 S
C962 C967 1.379 . S
C962 N969 1.356 . S
C963 C962 1.363 1_565 S
C963 C966 1.363 . S
N964 C966 1.356 . S
N964 H976 0.984 . S
N964 H977 0.985 . S
N965 C967 1.356 . S
N965 H970 0.984 . S
N965 H971 0.985 . S
C966 C960 1.379 . S
C966 C963 1.363 . S
C966 N964 1.356 . S
C967 C961 1.363 . S
C967 C962 1.379 . S
C967 N965 1.356 . S
N968 C960 1.356 . S
N968 H974 0.984 . S
N968 H975 0.984 . S
N969 C962 1.356 . S
N969 H972 0.984 . S
N969 H973 0.985 . S
H970 N965 0.984 . S
H971 N965 0.985 . S
H972 N969 0.984 . S
H973 N969 0.985 . S
H974 N968 0.984 . S
H975 N968 0.984 . S
H976 N964 0.984 . S
H977 N964 0.985 . S
C978 C979 1.363 . S
C978 C984 1.379 . S
C978 N986 1.356 . S
C979 C978 1.363 . S
C979 C985 1.363 . S
C980 C981 1.363 . S
C980 C985 1.379 . S
C980 N987 1.356 . S
C981 C980 1.363 . S
C981 C984 1.363 . S
N982 C984 1.356 . S
N982 H994 0.984 . S
N982 H995 0.985 . S
N983 C985 1.356 . S
N983 H988 0.984 . S
N983 H989 0.985 . S
C984 C978 1.379 . S
C984 C981 1.363 . S
C984 N982 1.356 . S
C985 C979 1.363 . S
C985 C980 1.379 . S
C985 N983 1.356 . S
N986 C978 1.356 . S
N986 H992 0.984 . S
N986 H993 0.984 . S
N987 C980 1.356 . S
N987 H990 0.984 . S
N987 H991 0.985 . S
H988 N983 0.984 . S
H989 N983 0.985 . S
H990 N987 0.984 . S
H991 N987 0.985 . S
H992 N986 0.984 . S
H993 N986 0.984 . S
H994 N982 0.984 . S
H995 N982 0.985 . S
C996 C997 1.363 . S
C996 C1002 1.379 . S
C996 N1004 1.356 . S
C997 C996 1.363 . S
C997 C1003 1.363 . S
C998 C999 1.363 . S
C998 C1003 1.379 . S
C998 N1005 1.356 . S
C999 C998 1.363 . S
C999 C1002 1.363 . S
N1000 C1002 1.356 . S
N1000 H1012 0.984 . S
N1000 H1013 0.985 . S
N1001 C1003 1.356 . S
N1001 H1006 0.984 . S
N1001 H1007 0.985 . S
C1002 C996 1.379 . S
C1002 C999 1.363 . S
C1002 N1000 1.356 . S
C1003 C997 1.363 . S
C1003 C998 1.379 . S
C1003 N1001 1.356 . S
N1004 C996 1.356 . S
N1004 H1010 0.984 . S
N1004 H1011 0.984 . S
N1005 C998 1.356 . S
N1005 H1008 0.984 . S
N1005 H1009 0.985 . S
H1006 N1001 0.984 . S
H1007 N1001 0.985 . S
H1008 N1005 0.984 . S
H1009 N1005 0.985 . S
H1010 N1004 0.984 . S
H1011 N1004 0.984 . S
H1012 N1000 0.984 . S
H1013 N1000 0.985 . S
C1014 C1015 1.363 . S
C1014 C1020 1.379 . S
C1014 N1022 1.356 . S
C1015 C1014 1.363 . S
C1015 C1021 1.363 . S
C1016 C1017 1.363 . S
C1016 C1021 1.379 . S
C1016 N1023 1.356 . S
C1017 C1016 1.363 . S
C1017 C1020 1.363 . S
N1018 C1020 1.356 . S
N1018 H1030 0.984 . S
N1018 H1031 0.985 . S
N1019 C1021 1.356 . S
N1019 H1024 0.984 . S
N1019 H1025 0.985 . S
C1020 C1014 1.379 . S
C1020 C1017 1.363 . S
C1020 N1018 1.356 . S
C1021 C1015 1.363 . S
C1021 C1016 1.379 . S
C1021 N1019 1.356 . S
N1022 C1014 1.356 . S
N1022 H1028 0.984 . S
N1022 H1029 0.984 . S
N1023 C1016 1.356 . S
N1023 H1026 0.984 . S
N1023 H1027 0.985 . S
H1024 N1019 0.984 . S
H1025 N1019 0.985 . S
H1026 N1023 0.984 . S
H1027 N1023 0.985 . S
H1028 N1022 0.984 . S
H1029 N1022 0.984 . S
H1030 N1018 0.984 . S
H1031 N1018 0.985 . S
C1032 C1033 1.363 . S
C1032 C1038 1.379 . S
C1032 N1040 1.356 . S
C1033 C1032 1.363 . S
C1033 C1039 1.366 . S
C1034 C1035 1.363 . S
C1034 C1039 1.381 . S
C1034 N1041 1.356 1_545 S
C1035 C1034 1.363 . S
C1035 C1038 1.363 . S
N1036 C1038 1.356 . S
N1036 H1048 0.984 . S
N1036 H1049 0.985 . S
N1037 C1039 1.352 1_565 S
N1037 H1042 0.984 . S
N1037 H1043 0.985 . S
C1038 C1032 1.379 . S
C1038 C1035 1.363 . S
C1038 N1036 1.356 . S
C1039 C1033 1.366 . S
C1039 C1034 1.381 . S
C1039 N1037 1.352 1_545 S
N1040 C1032 1.356 . S
N1040 H1046 0.984 . S
N1040 H1047 0.984 . S
N1041 C1034 1.356 1_565 S
N1041 H1044 0.983 1_565 S
N1041 H1045 0.986 . S
H1042 N1037 0.984 . S
H1043 N1037 0.985 . S
H1044 N1041 0.983 1_545 S
H1045 N1041 0.986 . S
H1046 N1040 0.984 . S
H1047 N1040 0.984 . S
H1048 N1036 0.984 . S
H1049 N1036 0.985 . S
C1050 C1051 1.363 . S
C1050 C1056 1.379 . S
C1050 N1058 1.356 . S
C1051 C1050 1.363 . S
C1051 C1057 1.363 . S
C1052 C1053 1.363 . S
C1052 C1057 1.379 . S
C1052 N1059 1.356 . S
C1053 C1052 1.363 . S
C1053 C1056 1.363 . S
N1054 C1056 1.356 . S
N1054 H1066 0.984 . S
N1054 H1067 0.985 . S
N1055 C1057 1.356 . S
N1055 H1060 0.984 . S
N1055 H1061 0.985 . S
C1056 C1050 1.379 . S
C1056 C1053 1.363 . S
C1056 N1054 1.356 . S
C1057 C1051 1.363 . S
C1057 C1052 1.379 . S
C1057 N1055 1.356 . S
N1058 C1050 1.356 . S
N1058 H1064 0.984 . S
N1058 H1065 0.984 . S
N1059 C1052 1.356 . S
N1059 H1062 0.984 . S
N1059 H1063 0.985 . S
H1060 N1055 0.984 . S
H1061 N1055 0.985 . S
H1062 N1059 0.984 . S
H1063 N1059 0.985 . S
H1064 N1058 0.984 . S
H1065 N1058 0.984 . S
H1066 N1054 0.984 . S
H1067 N1054 0.985 . S
C1068 C1069 1.363 . S
C1068 C1074 1.379 . S
C1068 N1076 1.356 . S
C1069 C1068 1.363 . S
C1069 C1075 1.363 . S
C1070 C1071 1.363 . S
C1070 C1075 1.379 . S
C1070 N1077 1.356 1_545 S
C1071 C1070 1.363 . S
C1071 C1074 1.363 . S
N1072 C1074 1.356 . S
N1072 H1084 0.984 . S
N1072 H1085 0.985 . S
N1073 C1075 1.356 . S
N1073 H1078 0.984 . S
N1073 H1079 0.985 . S
C1074 C1068 1.379 . S
C1074 C1071 1.363 . S
C1074 N1072 1.356 . S
C1075 C1069 1.363 . S
C1075 C1070 1.379 . S
C1075 N1073 1.356 . S
N1076 C1068 1.356 . S
N1076 H1082 0.984 . S
N1076 H1083 0.984 . S
N1077 C1070 1.356 1_565 S
N1077 H1080 0.984 . S
N1077 H1081 0.985 . S
H1078 N1073 0.984 . S
H1079 N1073 0.985 . S
H1080 N1077 0.984 . S
H1081 N1077 0.985 . S
H1082 N1076 0.984 . S
H1083 N1076 0.984 . S
H1084 N1072 0.984 . S
H1085 N1072 0.985 . S
C1086 C1087 1.363 . S
C1086 C1092 1.379 . S
C1086 N1094 1.356 . S
C1087 C1086 1.363 . S
C1087 C1093 1.363 . S
C1088 C1089 1.363 . S
C1088 C1093 1.379 . S
C1088 N1095 1.356 . S
C1089 C1088 1.363 . S
C1089 C1092 1.363 . S
N1090 C1092 1.356 . S
N1090 H1102 0.984 . S
N1090 H1103 0.985 . S
N1091 C1093 1.356 . S
N1091 H1096 0.984 . S
N1091 H1097 0.985 . S
C1092 C1086 1.379 . S
C1092 C1089 1.363 . S
C1092 N1090 1.356 . S
C1093 C1087 1.363 . S
C1093 C1088 1.379 . S
C1093 N1091 1.356 . S
N1094 C1086 1.356 . S
N1094 H1100 0.984 . S
N1094 H1101 0.984 . S
N1095 C1088 1.356 . S
N1095 H1098 0.984 . S
N1095 H1099 0.985 . S
H1096 N1091 0.984 . S
H1097 N1091 0.985 . S
H1098 N1095 0.984 . S
H1099 N1095 0.985 . S
H1100 N1094 0.984 . S
H1101 N1094 0.984 . S
H1102 N1090 0.984 . S
H1103 N1090 0.985 . S
C1104 C1105 1.363 . S
C1104 C1110 1.379 . S
C1104 N1112 1.356 . S
C1105 C1104 1.363 . S
C1105 C1111 1.363 . S
C1106 C1107 1.363 . S
C1106 C1111 1.379 . S
C1106 N1113 1.356 . S
C1107 C1106 1.363 . S
C1107 C1110 1.363 . S
N1108 C1110 1.356 1_556 S
N1108 H1120 0.984 . S
N1108 H1121 0.986 . S
N1109 C1111 1.356 . S
N1109 H1114 0.984 . S
N1109 H1115 0.985 . S
C1110 C1104 1.379 . S
C1110 C1107 1.363 . S
C1110 N1108 1.356 1_554 S
C1111 C1105 1.363 . S
C1111 C1106 1.379 . S
C1111 N1109 1.356 . S
N1112 C1104 1.356 . S
N1112 H1118 0.984 1_554 S
N1112 H1119 0.984 . S
N1113 C1106 1.356 . S
N1113 H1116 0.984 . S
N1113 H1117 0.985 . S
H1114 N1109 0.984 . S
H1115 N1109 0.985 . S
H1116 N1113 0.984 . S
H1117 N1113 0.985 . S
H1118 N1112 0.984 1_556 S
H1119 N1112 0.984 . S
H1120 N1108 0.984 . S
H1121 N1108 0.986 . S
C1122 C1123 1.363 . S
C1122 C1128 1.379 . S
C1122 N1130 1.356 . S
C1123 C1122 1.363 . S
C1123 C1129 1.363 . S
C1124 C1125 1.363 . S
C1124 C1129 1.379 . S
C1124 N1131 1.356 . S
C1125 C1124 1.363 . S
C1125 C1128 1.363 . S
N1126 C1128 1.356 . S
N1126 H1138 0.984 . S
N1126 H1139 0.985 . S
N1127 C1129 1.356 . S
N1127 H1132 0.984 . S
N1127 H1133 0.985 . S
C1128 C1122 1.379 . S
C1128 C1125 1.363 . S
C1128 N1126 1.356 . S
C1129 C1123 1.363 . S
C1129 C1124 1.379 . S
C1129 N1127 1.356 . S
N1130 C1122 1.356 . S
N1130 H1136 0.984 . S
N1130 H1137 0.984 . S
N1131 C1124 1.356 . S
N1131 H1134 0.984 . S
N1131 H1135 0.985 . S
H1132 N1127 0.984 . S
H1133 N1127 0.985 . S
H1134 N1131 0.984 . S
H1135 N1131 0.985 . S
H1136 N1130 0.984 . S
H1137 N1130 0.984 . S
H1138 N1126 0.984 . S
H1139 N1126 0.985 . S
C1140 C1141 1.363 . S
C1140 C1146 1.379 . S
C1140 N1148 1.356 . S
C1141 C1140 1.363 . S
C1141 C1147 1.363 . S
C1142 C1143 1.363 . S
C1142 C1147 1.379 . S
C1142 N1149 1.356 . S
C1143 C1142 1.363 . S
C1143 C1146 1.363 . S
N1144 C1146 1.356 . S
N1144 H1156 0.984 . S
N1144 H1157 0.985 . S
N1145 C1147 1.356 . S
N1145 H1150 0.984 . S
N1145 H1151 0.985 . S
C1146 C1140 1.379 . S
C1146 C1143 1.363 . S
C1146 N1144 1.356 . S
C1147 C1141 1.363 . S
C1147 C1142 1.379 . S
C1147 N1145 1.356 . S
N1148 C1140 1.356 . S
N1148 H1154 0.984 . S
N1148 H1155 0.984 . S
N1149 C1142 1.356 . S
N1149 H1152 0.984 . S
N1149 H1153 0.985 . S
H1150 N1145 0.984 . S
H1151 N1145 0.985 . S
H1152 N1149 0.984 . S
H1153 N1149 0.985 . S
H1154 N1148 0.984 . S
H1155 N1148 0.984 . S
H1156 N1144 0.984 . S
H1157 N1144 0.985 . S
C1158 C1159 1.363 . S
C1158 C1164 1.379 . S
C1158 N1166 1.356 . S
C1159 C1158 1.363 . S
C1159 C1165 1.363 . S
C1160 C1161 1.363 . S
C1160 C1165 1.379 . S
C1160 N1167 1.356 . S
C1161 C1160 1.363 . S
C1161 C1164 1.363 . S
N1162 C1164 1.356 . S
N1162 H1174 0.984 . S
N1162 H1175 0.985 . S
N1163 C1165 1.356 . S
N1163 H1168 0.984 . S
N1163 H1169 0.985 . S
C1164 C1158 1.379 . S
C1164 C1161 1.363 . S
C1164 N1162 1.356 . S
C1165 C1159 1.363 . S
C1165 C1160 1.379 . S
C1165 N1163 1.356 . S
N1166 C1158 1.356 . S
N1166 H1172 0.984 . S
N1166 H1173 0.984 . S
N1167 C1160 1.356 . S
N1167 H1170 0.984 . S
N1167 H1171 0.985 . S
H1168 N1163 0.984 . S
H1169 N1163 0.985 . S
H1170 N1167 0.984 . S
H1171 N1167 0.985 . S
H1172 N1166 0.984 . S
H1173 N1166 0.984 . S
H1174 N1162 0.984 . S
H1175 N1162 0.985 . S
C1176 C1177 1.363 . S
C1176 C1182 1.379 . S
C1176 N1184 1.356 . S
C1177 C1176 1.363 . S
C1177 C1183 1.363 . S
C1178 C1179 1.363 . S
C1178 C1183 1.379 . S
C1178 N1185 1.356 . S
C1179 C1178 1.363 . S
C1179 C1182 1.363 . S
N1180 C1182 1.356 . S
N1180 H1192 0.984 . S
N1180 H1193 0.985 . S
N1181 C1183 1.356 . S
N1181 H1186 0.984 . S
N1181 H1187 0.985 . S
C1182 C1176 1.379 . S
C1182 C1179 1.363 . S
C1182 N1180 1.356 . S
C1183 C1177 1.363 . S
C1183 C1178 1.379 . S
C1183 N1181 1.356 . S
N1184 C1176 1.356 . S
N1184 H1190 0.984 . S
N1184 H1191 0.984 . S
N1185 C1178 1.356 . S
N1185 H1188 0.984 . S
N1185 H1189 0.985 . S
H1186 N1181 0.984 . S
H1187 N1181 0.985 . S
H1188 N1185 0.984 . S
H1189 N1185 0.985 . S
H1190 N1184 0.984 . S
H1191 N1184 0.984 . S
H1192 N1180 0.984 . S
H1193 N1180 0.985 . S
C1194 C1195 1.363 . S
C1194 C1200 1.379 . S
C1194 N1202 1.356 . S
C1195 C1194 1.363 . S
C1195 C1201 1.363 . S
C1196 C1197 1.363 . S
C1196 C1201 1.379 . S
C1196 N1203 1.356 1_565 S
C1197 C1196 1.363 . S
C1197 C1200 1.363 . S
N1198 C1200 1.356 . S
N1198 H1210 0.984 . S
N1198 H1211 0.985 . S
N1199 C1201 1.356 . S
N1199 H1204 0.984 . S
N1199 H1205 0.985 . S
C1200 C1194 1.379 . S
C1200 C1197 1.363 . S
C1200 N1198 1.356 . S
C1201 C1195 1.363 . S
C1201 C1196 1.379 . S
C1201 N1199 1.356 . S
N1202 C1194 1.356 . S
N1202 H1208 0.984 . S
N1202 H1209 0.984 . S
N1203 C1196 1.356 1_545 S
N1203 H1206 0.984 . S
N1203 H1207 0.985 . S
H1204 N1199 0.984 . S
H1205 N1199 0.985 . S
H1206 N1203 0.984 . S
H1207 N1203 0.985 . S
H1208 N1202 0.984 . S
H1209 N1202 0.984 . S
H1210 N1198 0.984 . S
H1211 N1198 0.985 . S
C1212 C1213 1.363 . S
C1212 C1218 1.379 . S
C1212 N1220 1.356 . S
C1213 C1212 1.363 . S
C1213 C1219 1.363 . S
C1214 C1215 1.363 . S
C1214 C1219 1.379 . S
C1214 N1221 1.356 . S
C1215 C1214 1.363 . S
C1215 C1218 1.363 . S
N1216 C1218 1.356 . S
N1216 H1228 0.984 . S
N1216 H1229 0.985 . S
N1217 C1219 1.356 . S
N1217 H1222 0.984 . S
N1217 H1223 0.985 . S
C1218 C1212 1.379 . S
C1218 C1215 1.363 . S
C1218 N1216 1.356 . S
C1219 C1213 1.363 . S
C1219 C1214 1.379 . S
C1219 N1217 1.356 . S
N1220 C1212 1.356 . S
N1220 H1226 0.984 . S
N1220 H1227 0.984 . S
N1221 C1214 1.356 . S
N1221 H1224 0.984 . S
N1221 H1225 0.985 . S
H1222 N1217 0.984 . S
H1223 N1217 0.985 . S
H1224 N1221 0.984 . S
H1225 N1221 0.985 . S
H1226 N1220 0.984 . S
H1227 N1220 0.984 . S
H1228 N1216 0.984 . S
H1229 N1216 0.985 . S
C1230 C1231 1.363 . S
C1230 C1236 1.379 . S
C1230 N1238 1.356 . S
C1231 C1230 1.363 . S
C1231 C1237 1.363 . S
C1232 C1233 1.363 . S
C1232 C1237 1.379 . S
C1232 N1239 1.356 . S
C1233 C1232 1.363 . S
C1233 C1236 1.363 . S
N1234 C1236 1.356 . S
N1234 H1246 0.984 . S
N1234 H1247 0.985 . S
N1235 C1237 1.356 . S
N1235 H1240 0.984 . S
N1235 H1241 0.985 . S
C1236 C1230 1.379 . S
C1236 C1233 1.363 . S
C1236 N1234 1.356 . S
C1237 C1231 1.363 . S
C1237 C1232 1.379 . S
C1237 N1235 1.356 . S
N1238 C1230 1.356 . S
N1238 H1244 0.984 . S
N1238 H1245 0.984 . S
N1239 C1232 1.356 . S
N1239 H1242 0.984 . S
N1239 H1243 0.985 . S
H1240 N1235 0.984 . S
H1241 N1235 0.985 . S
H1242 N1239 0.984 . S
H1243 N1239 0.985 . S
H1244 N1238 0.984 . S
H1245 N1238 0.984 . S
H1246 N1234 0.984 . S
H1247 N1234 0.985 . S
C1248 C1249 1.363 . S
C1248 C1254 1.379 . S
C1248 N1256 1.356 . S
C1249 C1248 1.363 . S
C1249 C1255 1.363 . S
C1250 C1251 1.363 1_554 S
C1250 C1255 1.379 1_554 S
C1250 N1257 1.356 . S
C1251 C1250 1.363 1_556 S
C1251 C1254 1.363 . S
N1252 C1254 1.356 . S
N1252 H1264 0.984 . S
N1252 H1265 0.985 . S
N1253 C1255 1.356 . S
N1253 H1258 0.984 . S
N1253 H1259 0.985 1_556 S
C1254 C1248 1.379 . S
C1254 C1251 1.363 . S
C1254 N1252 1.356 . S
C1255 C1249 1.363 . S
C1255 C1250 1.379 1_556 S
C1255 N1253 1.356 . S
N1256 C1248 1.356 . S
N1256 H1262 0.984 . S
N1256 H1263 0.984 . S
N1257 C1250 1.356 . S
N1257 H1260 0.984 . S
N1257 H1261 0.985 . S
H1258 N1253 0.984 . S
H1259 N1253 0.985 1_554 S
H1260 N1257 0.984 . S
H1261 N1257 0.985 . S
H1262 N1256 0.984 . S
H1263 N1256 0.984 . S
H1264 N1252 0.984 . S
H1265 N1252 0.985 . S
C1266 C1267 1.363 . S
C1266 C1272 1.379 . S
C1266 N1274 1.356 . S
C1267 C1266 1.363 . S
C1267 C1273 1.363 . S
C1268 C1269 1.363 . S
C1268 C1273 1.379 . S
C1268 N1275 1.356 . S
C1269 C1268 1.363 . S
C1269 C1272 1.363 . S
N1270 C1272 1.356 . S
N1270 H1282 0.984 . S
N1270 H1283 0.985 . S
N1271 C1273 1.356 . S
N1271 H1276 0.984 . S
N1271 H1277 0.985 . S
C1272 C1266 1.379 . S
C1272 C1269 1.363 . S
C1272 N1270 1.356 . S
C1273 C1267 1.363 . S
C1273 C1268 1.379 . S
C1273 N1271 1.356 . S
N1274 C1266 1.356 . S
N1274 H1280 0.984 . S
N1274 H1281 0.984 . S
N1275 C1268 1.356 . S
N1275 H1278 0.984 . S
N1275 H1279 0.985 . S
H1276 N1271 0.984 . S
H1277 N1271 0.985 . S
H1278 N1275 0.984 . S
H1279 N1275 0.985 . S
H1280 N1274 0.984 . S
H1281 N1274 0.984 . S
H1282 N1270 0.984 . S
H1283 N1270 0.985 . S
C1284 C1285 1.363 . S
C1284 C1290 1.379 . S
C1284 N1292 1.356 . S
C1285 C1284 1.363 . S
C1285 C1291 1.363 . S
C1286 C1287 1.363 . S
C1286 C1291 1.379 . S
C1286 N1293 1.356 . S
C1287 C1286 1.363 . S
C1287 C1290 1.363 . S
N1288 C1290 1.356 . S
N1288 H1300 0.984 . S
N1288 H1301 0.985 . S
N1289 C1291 1.356 . S
N1289 H1294 0.984 . S
N1289 H1295 0.985 . S
C1290 C1284 1.379 . S
C1290 C1287 1.363 . S
C1290 N1288 1.356 . S
C1291 C1285 1.363 . S
C1291 C1286 1.379 . S
C1291 N1289 1.356 . S
N1292 C1284 1.356 . S
N1292 H1298 0.984 . S
N1292 H1299 0.984 . S
N1293 C1286 1.356 . S
N1293 H1296 0.984 . S
N1293 H1297 0.985 . S
H1294 N1289 0.984 . S
H1295 N1289 0.985 . S
H1296 N1293 0.984 . S
H1297 N1293 0.985 . S
H1298 N1292 0.984 . S
H1299 N1292 0.984 . S
H1300 N1288 0.984 . S
H1301 N1288 0.985 . S
C1302 C1303 1.363 . S
C1302 C1308 1.379 . S
C1302 N1310 1.356 . S
C1303 C1302 1.363 . S
C1303 C1309 1.363 . S
C1304 C1305 1.363 . S
C1304 C1309 1.379 . S
C1304 N1311 1.356 . S
C1305 C1304 1.363 . S
C1305 C1308 1.363 . S
N1306 C1308 1.356 . S
N1306 H1318 0.984 . S
N1306 H1319 0.985 . S
N1307 C1309 1.356 . S
N1307 H1312 0.984 . S
N1307 H1313 0.985 . S
C1308 C1302 1.379 . S
C1308 C1305 1.363 . S
C1308 N1306 1.356 . S
C1309 C1303 1.363 . S
C1309 C1304 1.379 . S
C1309 N1307 1.356 . S
N1310 C1302 1.356 . S
N1310 H1316 0.984 . S
N1310 H1317 0.984 . S
N1311 C1304 1.356 . S
N1311 H1314 0.984 . S
N1311 H1315 0.985 . S
H1312 N1307 0.984 . S
H1313 N1307 0.985 . S
H1314 N1311 0.984 . S
H1315 N1311 0.985 . S
H1316 N1310 0.984 . S
H1317 N1310 0.984 . S
H1318 N1306 0.984 . S
H1319 N1306 0.985 . S
C1320 C1321 1.363 . S
C1320 C1326 1.379 . S
C1320 N1328 1.356 . S
C1321 C1320 1.363 . S
C1321 C1327 1.363 . S
C1322 C1323 1.363 . S
C1322 C1327 1.379 . S
C1322 N1329 1.356 . S
C1323 C1322 1.363 . S
C1323 C1326 1.363 . S
N1324 C1326 1.356 . S
N1324 H1336 0.984 . S
N1324 H1337 0.985 . S
N1325 C1327 1.356 . S
N1325 H1330 0.984 1_455 S
N1325 H1331 0.985 . S
C1326 C1320 1.379 . S
C1326 C1323 1.363 . S
C1326 N1324 1.356 . S
C1327 C1321 1.363 . S
C1327 C1322 1.379 . S
C1327 N1325 1.356 . S
N1328 C1320 1.356 . S
N1328 H1334 0.984 . S
N1328 H1335 0.984 1_455 S
N1329 C1322 1.356 . S
N1329 H1332 0.984 . S
N1329 H1333 0.985 . S
H1330 N1325 0.984 1_655 S
H1331 N1325 0.985 . S
H1332 N1329 0.984 . S
H1333 N1329 0.985 . S
H1334 N1328 0.984 . S
H1335 N1328 0.984 1_655 S
H1336 N1324 0.984 . S
H1337 N1324 0.985 . S
C1338 C1339 1.363 . S
C1338 C1344 1.379 . S
C1338 N1346 1.356 . S
C1339 C1338 1.363 . S
C1339 C1345 1.363 . S
C1340 C1341 1.363 . S
C1340 C1345 1.379 . S
C1340 N1347 1.356 . S
C1341 C1340 1.363 . S
C1341 C1344 1.363 . S
N1342 C1344 1.356 . S
N1342 H1354 0.984 . S
N1342 H1355 0.985 . S
N1343 C1345 1.356 . S
N1343 H1348 0.984 . S
N1343 H1349 0.985 . S
C1344 C1338 1.379 . S
C1344 C1341 1.363 . S
C1344 N1342 1.356 . S
C1345 C1339 1.363 . S
C1345 C1340 1.379 . S
C1345 N1343 1.356 . S
N1346 C1338 1.356 . S
N1346 H1352 0.984 . S
N1346 H1353 0.984 . S
N1347 C1340 1.356 . S
N1347 H1350 0.984 . S
N1347 H1351 0.985 . S
H1348 N1343 0.984 . S
H1349 N1343 0.985 . S
H1350 N1347 0.984 . S
H1351 N1347 0.985 . S
H1352 N1346 0.984 . S
H1353 N1346 0.984 . S
H1354 N1342 0.984 . S
H1355 N1342 0.985 . S
C1356 C1357 1.363 . S
C1356 C1362 1.379 . S
C1356 N1364 1.356 . S
C1357 C1356 1.363 . S
C1357 C1363 1.363 . S
C1358 C1359 1.363 . S
C1358 C1363 1.379 . S
C1358 N1365 1.356 . S
C1359 C1358 1.363 . S
C1359 C1362 1.363 . S
N1360 C1362 1.356 . S
N1360 H1372 0.984 . S
N1360 H1373 0.985 1_565 S
N1361 C1363 1.356 . S
N1361 H1366 0.984 . S
N1361 H1367 0.985 . S
C1362 C1356 1.379 . S
C1362 C1359 1.363 . S
C1362 N1360 1.356 . S
C1363 C1357 1.363 . S
C1363 C1358 1.379 . S
C1363 N1361 1.356 . S
N1364 C1356 1.356 . S
N1364 H1370 0.984 . S
N1364 H1371 0.984 . S
N1365 C1358 1.356 . S
N1365 H1368 0.984 . S
N1365 H1369 0.985 . S
H1366 N1361 0.984 . S
H1367 N1361 0.985 . S
H1368 N1365 0.984 . S
H1369 N1365 0.985 . S
H1370 N1364 0.984 . S
H1371 N1364 0.984 . S
H1372 N1360 0.984 . S
H1373 N1360 0.985 1_545 S
C1374 C1375 1.363 . S
C1374 C1380 1.379 . S
C1374 N1382 1.356 . S
C1375 C1374 1.363 . S
C1375 C1381 1.363 . S
C1376 C1377 1.363 . S
C1376 C1381 1.379 . S
C1376 N1383 1.356 . S
C1377 C1376 1.363 . S
C1377 C1380 1.363 . S
N1378 C1380 1.356 . S
N1378 H1390 0.984 . S
N1378 H1391 0.985 . S
N1379 C1381 1.356 . S
N1379 H1384 0.984 . S
N1379 H1385 0.985 . S
C1380 C1374 1.379 . S
C1380 C1377 1.363 . S
C1380 N1378 1.356 . S
C1381 C1375 1.363 . S
C1381 C1376 1.379 . S
C1381 N1379 1.356 . S
N1382 C1374 1.356 . S
N1382 H1388 0.984 . S
N1382 H1389 0.984 . S
N1383 C1376 1.356 . S
N1383 H1386 0.984 . S
N1383 H1387 0.985 . S
H1384 N1379 0.984 . S
H1385 N1379 0.985 . S
H1386 N1383 0.984 . S
H1387 N1383 0.985 . S
H1388 N1382 0.984 . S
H1389 N1382 0.984 . S
H1390 N1378 0.984 . S
H1391 N1378 0.985 . S
C1392 C1393 1.363 . S
C1392 C1398 1.379 . S
C1392 N1400 1.356 . S
C1393 C1392 1.363 . S
C1393 C1399 1.363 . S
C1394 C1395 1.363 . S
C1394 C1399 1.379 . S
C1394 N1401 1.356 . S
C1395 C1394 1.363 . S
C1395 C1398 1.363 . S
N1396 C1398 1.356 1_455 S
N1396 H1408 0.984 . S
N1396 H1409 0.985 . S
N1397 C1399 1.356 . S
N1397 H1402 0.984 . S
N1397 H1403 0.985 1_545 S
C1398 C1392 1.379 . S
C1398 C1395 1.363 . S
C1398 N1396 1.356 1_655 S
C1399 C1393 1.363 . S
C1399 C1394 1.379 . S
C1399 N1397 1.356 . S
N1400 C1392 1.356 . S
N1400 H1406 0.984 . S
N1400 H1407 0.984 . S
N1401 C1394 1.356 . S
N1401 H1404 0.984 . S
N1401 H1405 1.009 . S
H1402 N1397 0.984 . S
H1403 N1397 0.985 1_565 S
H1404 N1401 0.984 . S
H1405 N1401 1.009 . S
H1406 N1400 0.984 . S
H1407 N1400 0.984 . S
H1408 N1396 0.984 . S
H1409 N1396 0.985 . S
C1410 C1411 1.363 . S
C1410 C1416 1.379 . S
C1410 N1418 1.356 . S
C1411 C1410 1.363 . S
C1411 C1417 1.363 . S
C1412 C1413 1.363 . S
C1412 C1417 1.379 . S
C1412 N1419 1.356 . S
C1413 C1412 1.363 . S
C1413 C1416 1.363 . S
N1414 C1416 1.356 . S
N1414 H1426 0.984 . S
N1414 H1427 0.985 . S
N1415 C1417 1.356 . S
N1415 H1420 0.984 . S
N1415 H1421 0.985 . S
C1416 C1410 1.379 . S
C1416 C1413 1.363 . S
C1416 N1414 1.356 . S
C1417 C1411 1.363 . S
C1417 C1412 1.379 . S
C1417 N1415 1.356 . S
N1418 C1410 1.356 . S
N1418 H1424 0.984 . S
N1418 H1425 0.984 . S
N1419 C1412 1.356 . S
N1419 H1422 0.984 . S
N1419 H1423 0.985 . S
H1420 N1415 0.984 . S
H1421 N1415 0.985 . S
H1422 N1419 0.984 . S
H1423 N1419 0.985 . S
H1424 N1418 0.984 . S
H1425 N1418 0.984 . S
H1426 N1414 0.984 . S
H1427 N1414 0.985 . S
C1428 C1429 1.363 1_565 S
C1428 C1434 1.379 . S
C1428 N1436 1.356 . S
C1429 C1428 1.363 1_545 S
C1429 C1435 1.363 . S
C1430 C1431 1.363 . S
C1430 C1435 1.379 . S
C1430 N1437 1.356 . S
C1431 C1430 1.363 . S
C1431 C1434 1.363 1_545 S
N1432 C1434 1.356 . S
N1432 H1444 0.984 . S
N1432 H1445 0.985 . S
N1433 C1435 1.356 . S
N1433 H1438 0.984 . S
N1433 H1439 0.985 . S
C1434 C1428 1.379 . S
C1434 C1431 1.363 1_565 S
C1434 N1432 1.356 . S
C1435 C1429 1.363 . S
C1435 C1430 1.379 . S
C1435 N1433 1.356 . S
N1436 C1428 1.356 . S
N1436 H1442 0.984 . S
N1436 H1443 0.984 . S
N1437 C1430 1.356 . S
N1437 H1440 0.984 . S
N1437 H1441 0.985 . S
H1438 N1433 0.984 . S
H1439 N1433 0.985 . S
H1440 N1437 0.984 . S
H1441 N1437 0.985 . S
H1442 N1436 0.984 . S
H1443 N1436 0.984 . S
H1444 N1432 0.984 . S
H1445 N1432 0.985 . S
C1446 C1447 1.363 . S
C1446 C1452 1.379 . S
C1446 N1454 1.356 . S
C1447 C1446 1.363 . S
C1447 C1453 1.363 . S
C1448 C1449 1.363 . S
C1448 C1453 1.379 . S
C1448 N1455 1.356 . S
C1449 C1448 1.363 . S
C1449 C1452 1.363 . S
N1450 C1452 1.356 . S
N1450 H1462 0.984 . S
N1450 H1463 0.985 . S
N1451 C1453 1.356 . S
N1451 H1456 0.984 . S
N1451 H1457 0.985 . S
C1452 C1446 1.379 . S
C1452 C1449 1.363 . S
C1452 N1450 1.356 . S
C1453 C1447 1.363 . S
C1453 C1448 1.379 . S
C1453 N1451 1.356 . S
N1454 C1446 1.356 . S
N1454 H1460 0.984 . S
N1454 H1461 0.984 . S
N1455 C1448 1.356 . S
N1455 H1458 0.984 . S
N1455 H1459 0.985 . S
H1456 N1451 0.984 . S
H1457 N1451 0.985 . S
H1458 N1455 0.984 . S
H1459 N1455 0.985 . S
H1460 N1454 0.984 . S
H1461 N1454 0.984 . S
H1462 N1450 0.984 . S
H1463 N1450 0.985 . S
C1464 C1465 1.363 . S
C1464 C1470 1.379 . S
C1464 N1472 1.356 . S
C1465 C1464 1.363 . S
C1465 C1471 1.363 . S
C1466 C1467 1.363 . S
C1466 C1471 1.379 . S
C1466 N1473 1.356 1_545 S
C1467 C1466 1.363 . S
C1467 C1470 1.363 . S
N1468 C1470 1.356 . S
N1468 H1480 0.984 . S
N1468 H1481 0.985 . S
N1469 C1471 1.356 . S
N1469 H1474 0.984 . S
N1469 H1475 0.963 1_545 S
C1470 C1464 1.379 . S
C1470 C1467 1.363 . S
C1470 N1468 1.356 . S
C1471 C1465 1.363 . S
C1471 C1466 1.379 . S
C1471 N1469 1.356 . S
N1472 C1464 1.356 . S
N1472 H1478 0.984 . S
N1472 H1479 0.984 . S
N1473 C1466 1.356 1_565 S
N1473 H1476 0.984 1_655 S
N1473 H1477 0.985 . S
H1474 N1469 0.984 . S
H1475 N1469 0.963 1_565 S
H1476 N1473 0.984 1_455 S
H1477 N1473 0.985 . S
H1478 N1472 0.984 . S
H1479 N1472 0.984 . S
H1480 N1468 0.984 . S
H1481 N1468 0.985 . S
C1482 C1483 1.363 . S
C1482 C1488 1.379 . S
C1482 N1490 1.356 . S
C1483 C1482 1.363 . S
C1483 C1489 1.363 . S
C1484 C1485 1.363 . S
C1484 C1489 1.379 . S
C1484 N1491 1.356 . S
C1485 C1484 1.363 . S
C1485 C1488 1.363 . S
N1486 C1488 1.356 . S
N1486 H1498 0.984 . S
N1486 H1499 0.985 . S
N1487 C1489 1.356 . S
N1487 H1492 0.984 . S
N1487 H1493 0.985 . S
C1488 C1482 1.379 . S
C1488 C1485 1.363 . S
C1488 N1486 1.356 . S
C1489 C1483 1.363 . S
C1489 C1484 1.379 . S
C1489 N1487 1.356 . S
N1490 C1482 1.356 . S
N1490 H1496 0.984 . S
N1490 H1497 0.984 . S
N1491 C1484 1.356 . S
N1491 H1494 0.984 . S
N1491 H1495 0.985 . S
H1492 N1487 0.984 . S
H1493 N1487 0.985 . S
H1494 N1491 0.984 . S
H1495 N1491 0.985 . S
H1496 N1490 0.984 . S
H1497 N1490 0.984 . S
H1498 N1486 0.984 . S
H1499 N1486 0.985 . S
C1500 C1501 1.363 . S
C1500 C1506 1.379 . S
C1500 N1508 1.356 . S
C1501 C1500 1.363 . S
C1501 C1507 1.363 . S
C1502 C1503 1.363 . S
C1502 C1507 1.379 . S
C1502 N1509 1.356 . S
C1503 C1502 1.363 . S
C1503 C1506 1.363 . S
N1504 C1506 1.356 . S
N1504 H1516 0.984 . S
N1504 H1517 0.985 . S
N1505 C1507 1.356 1_565 S
N1505 H1510 0.984 . S
N1505 H1511 0.985 . S
C1506 C1500 1.379 . S
C1506 C1503 1.363 . S
C1506 N1504 1.356 . S
C1507 C1501 1.363 . S
C1507 C1502 1.379 . S
C1507 N1505 1.356 1_545 S
N1508 C1500 1.356 . S
N1508 H1514 0.984 . S
N1508 H1515 0.984 . S
N1509 C1502 1.356 . S
N1509 H1512 0.984 . S
N1509 H1513 0.985 1_545 S
H1510 N1505 0.984 . S
H1511 N1505 0.985 . S
H1512 N1509 0.984 . S
H1513 N1509 0.985 1_565 S
H1514 N1508 0.984 . S
H1515 N1508 0.984 . S
H1516 N1504 0.984 . S
H1517 N1504 0.985 . S
C1518 C1519 1.363 . S
C1518 C1524 1.379 . S
C1518 N1526 1.356 . S
C1519 C1518 1.363 . S
C1519 C1525 1.363 . S
C1520 C1521 1.363 . S
C1520 C1525 1.379 . S
C1520 N1527 1.356 . S
C1521 C1520 1.363 . S
C1521 C1524 1.363 . S
N1522 C1524 1.356 . S
N1522 H1534 0.984 . S
N1522 H1535 0.985 . S
N1523 C1525 1.356 . S
N1523 H1528 0.984 . S
N1523 H1529 0.985 . S
C1524 C1518 1.379 . S
C1524 C1521 1.363 . S
C1524 N1522 1.356 . S
C1525 C1519 1.363 . S
C1525 C1520 1.379 . S
C1525 N1523 1.356 . S
N1526 C1518 1.356 . S
N1526 H1532 0.984 . S
N1526 H1533 0.984 . S
N1527 C1520 1.356 . S
N1527 H1530 0.984 . S
N1527 H1531 0.985 . S
H1528 N1523 0.984 . S
H1529 N1523 0.985 . S
H1530 N1527 0.984 . S
H1531 N1527 0.985 . S
H1532 N1526 0.984 . S
H1533 N1526 0.984 . S
H1534 N1522 0.984 . S
H1535 N1522 0.985 . S
C1536 C1537 1.363 . S
C1536 C1542 1.379 . S
C1536 N1544 1.356 . S
C1537 C1536 1.363 . S
C1537 C1543 1.363 . S
C1538 C1539 1.368 . S
C1538 C1543 1.386 . S
C1538 N1545 1.344 1_565 S
C1539 C1538 1.368 . S
C1539 C1542 1.363 . S
N1540 C1542 1.356 . S
N1540 H1552 0.984 . S
N1540 H1553 0.985 . S
N1541 C1543 1.356 . S
N1541 H1546 0.984 . S
N1541 H1547 0.985 1_565 S
C1542 C1536 1.379 . S
C1542 C1539 1.363 . S
C1542 N1540 1.356 . S
C1543 C1537 1.363 . S
C1543 C1538 1.386 . S
C1543 N1541 1.356 . S
N1544 C1536 1.356 . S
N1544 H1550 0.984 . S
N1544 H1551 0.984 . S
N1545 C1538 1.344 1_545 S
N1545 H1548 0.984 . S
N1545 H1549 0.985 . S
H1546 N1541 0.984 . S
H1547 N1541 0.985 1_545 S
H1548 N1545 0.984 . S
H1549 N1545 0.985 . S
H1550 N1544 0.984 . S
H1551 N1544 0.984 . S
H1552 N1540 0.984 . S
H1553 N1540 0.985 . S
C1554 C1555 1.362 1_556 S
C1554 C1560 1.378 1_556 S
C1554 N1562 1.358 . S
C1555 C1554 1.362 1_554 S
C1555 C1561 1.363 . S
C1556 C1557 1.363 . S
C1556 C1561 1.379 . S
C1556 N1563 1.356 . S
C1557 C1556 1.363 . S
C1557 C1560 1.363 . S
N1558 C1560 1.356 1_556 S
N1558 H1570 0.984 . S
N1558 H1571 0.985 1_556 S
N1559 C1561 1.356 . S
N1559 H1564 0.984 . S
N1559 H1565 0.985 . S
C1560 C1554 1.378 1_554 S
C1560 C1557 1.363 . S
C1560 N1558 1.356 1_554 S
C1561 C1555 1.363 . S
C1561 C1556 1.379 . S
C1561 N1559 1.356 . S
N1562 C1554 1.358 . S
N1562 H1568 0.984 . S
N1562 H1569 0.984 . S
N1563 C1556 1.356 . S
N1563 H1566 0.984 . S
N1563 H1567 0.985 . S
H1564 N1559 0.984 . S
H1565 N1559 0.985 . S
H1566 N1563 0.984 . S
H1567 N1563 0.985 . S
H1568 N1562 0.984 . S
H1569 N1562 0.984 . S
H1570 N1558 0.984 . S
H1571 N1558 0.985 1_554 S
C1572 C1573 1.363 . S
C1572 C1578 1.379 . S
C1572 N1580 1.356 . S
C1573 C1572 1.363 . S
C1573 C1579 1.363 . S
C1574 C1575 1.363 . S
C1574 C1579 1.379 . S
C1574 N1581 1.356 . S
C1575 C1574 1.363 . S
C1575 C1578 1.363 . S
N1576 C1578 1.356 . S
N1576 H1588 0.984 . S
N1576 H1589 0.985 . S
N1577 C1579 1.356 . S
N1577 H1582 0.984 . S
N1577 H1583 0.985 . S
C1578 C1572 1.379 . S
C1578 C1575 1.363 . S
C1578 N1576 1.356 . S
C1579 C1573 1.363 . S
C1579 C1574 1.379 . S
C1579 N1577 1.356 . S
N1580 C1572 1.356 . S
N1580 H1586 0.984 . S
N1580 H1587 0.984 . S
N1581 C1574 1.356 . S
N1581 H1584 0.984 . S
N1581 H1585 0.985 . S
H1582 N1577 0.984 . S
H1583 N1577 0.985 . S
H1584 N1581 0.984 . S
H1585 N1581 0.985 . S
H1586 N1580 0.984 . S
H1587 N1580 0.984 . S
H1588 N1576 0.984 . S
H1589 N1576 0.985 . S
C1590 C1591 1.363 . S
C1590 C1596 1.379 . S
C1590 N1598 1.356 . S
C1591 C1590 1.363 . S
C1591 C1597 1.363 . S
C1592 C1593 1.363 . S
C1592 C1597 1.379 . S
C1592 N1599 1.356 . S
C1593 C1592 1.363 . S
C1593 C1596 1.363 . S
N1594 C1596 1.356 . S
N1594 H1606 0.984 . S
N1594 H1607 0.985 . S
N1595 C1597 1.356 . S
N1595 H1600 0.984 . S
N1595 H1601 0.985 . S
C1596 C1590 1.379 . S
C1596 C1593 1.363 . S
C1596 N1594 1.356 . S
C1597 C1591 1.363 . S
C1597 C1592 1.379 . S
C1597 N1595 1.356 . S
N1598 C1590 1.356 . S
N1598 H1604 0.984 . S
N1598 H1605 0.984 . S
N1599 C1592 1.356 . S
N1599 H1602 0.984 . S
N1599 H1603 0.985 . S
H1600 N1595 0.984 . S
H1601 N1595 0.985 . S
H1602 N1599 0.984 . S
H1603 N1599 0.985 . S
H1604 N1598 0.984 . S
H1605 N1598 0.984 . S
H1606 N1594 0.984 . S
H1607 N1594 0.985 . S
C1608 C1609 1.363 . S
C1608 C1614 1.379 . S
C1608 N1616 1.356 1_565 S
C1609 C1608 1.363 . S
C1609 C1615 1.363 . S
C1610 C1611 1.363 . S
C1610 C1615 1.379 . S
C1610 N1617 1.356 . S
C1611 C1610 1.363 . S
C1611 C1614 1.363 . S
N1612 C1614 1.356 . S
N1612 H1624 0.984 . S
N1612 H1625 0.985 . S
N1613 C1615 1.356 . S
N1613 H1618 0.984 . S
N1613 H1619 0.985 . S
C1614 C1608 1.379 . S
C1614 C1611 1.363 . S
C1614 N1612 1.356 . S
C1615 C1609 1.363 . S
C1615 C1610 1.379 . S
C1615 N1613 1.356 . S
N1616 C1608 1.356 1_545 S
N1616 H1622 0.984 . S
N1616 H1623 0.984 . S
N1617 C1610 1.356 . S
N1617 H1620 0.984 . S
N1617 H1621 0.985 . S
H1618 N1613 0.984 . S
H1619 N1613 0.985 . S
H1620 N1617 0.984 . S
H1621 N1617 0.985 . S
H1622 N1616 0.984 . S
H1623 N1616 0.984 . S
H1624 N1612 0.984 . S
H1625 N1612 0.985 . S
C1626 C1627 1.363 . S
C1626 C1632 1.379 . S
C1626 N1634 1.356 . S
C1627 C1626 1.363 . S
C1627 C1633 1.363 . S
C1628 C1629 1.363 . S
C1628 C1633 1.379 . S
C1628 N1635 1.356 . S
C1629 C1628 1.363 . S
C1629 C1632 1.363 . S
N1630 C1632 1.356 . S
N1630 H1642 0.984 . S
N1630 H1643 0.985 . S
N1631 C1633 1.356 . S
N1631 H1636 0.984 . S
N1631 H1637 0.985 . S
C1632 C1626 1.379 . S
C1632 C1629 1.363 . S
C1632 N1630 1.356 . S
C1633 C1627 1.363 . S
C1633 C1628 1.379 . S
C1633 N1631 1.356 . S
N1634 C1626 1.356 . S
N1634 H1640 0.984 . S
N1634 H1641 0.984 . S
N1635 C1628 1.356 . S
N1635 H1638 0.984 . S
N1635 H1639 0.985 . S
H1636 N1631 0.984 . S
H1637 N1631 0.985 . S
H1638 N1635 0.984 . S
H1639 N1635 0.985 . S
H1640 N1634 0.984 . S
H1641 N1634 0.984 . S
H1642 N1630 0.984 . S
H1643 N1630 0.985 . S
C1644 C1645 1.363 . S
C1644 C1650 1.379 . S
C1644 N1652 1.356 . S
C1645 C1644 1.363 . S
C1645 C1651 1.363 . S
C1646 C1647 1.363 . S
C1646 C1651 1.379 . S
C1646 N1653 1.356 . S
C1647 C1646 1.363 . S
C1647 C1650 1.363 . S
N1648 C1650 1.356 . S
N1648 H1660 0.984 . S
N1648 H1661 0.985 . S
N1649 C1651 1.356 . S
N1649 H1654 0.984 . S
N1649 H1655 0.985 . S
C1650 C1644 1.379 . S
C1650 C1647 1.363 . S
C1650 N1648 1.356 . S
C1651 C1645 1.363 . S
C1651 C1646 1.379 . S
C1651 N1649 1.356 . S
N1652 C1644 1.356 . S
N1652 H1658 0.984 . S
N1652 H1659 0.984 . S
N1653 C1646 1.356 . S
N1653 H1656 0.984 . S
N1653 H1657 0.985 . S
H1654 N1649 0.984 . S
H1655 N1649 0.985 . S
H1656 N1653 0.984 . S
H1657 N1653 0.985 . S
H1658 N1652 0.984 . S
H1659 N1652 0.984 . S
H1660 N1648 0.984 . S
H1661 N1648 0.985 . S
C1662 C1663 1.363 . S
C1662 C1668 1.379 . S
C1662 N1670 1.356 . S
C1663 C1662 1.363 . S
C1663 C1669 1.363 . S
C1664 C1665 1.363 . S
C1664 C1669 1.379 . S
C1664 N1671 1.356 . S
C1665 C1664 1.363 . S
C1665 C1668 1.363 . S
N1666 C1668 1.356 . S
N1666 H1678 0.984 . S
N1666 H1679 0.985 . S
N1667 C1669 1.356 . S
N1667 H1672 0.984 . S
N1667 H1673 0.985 . S
C1668 C1662 1.379 . S
C1668 C1665 1.363 . S
C1668 N1666 1.356 . S
C1669 C1663 1.363 . S
C1669 C1664 1.379 . S
C1669 N1667 1.356 . S
N1670 C1662 1.356 . S
N1670 H1676 0.984 . S
N1670 H1677 0.984 . S
N1671 C1664 1.356 . S
N1671 H1674 0.984 . S
N1671 H1675 0.985 . S
H1672 N1667 0.984 . S
H1673 N1667 0.985 . S
H1674 N1671 0.984 . S
H1675 N1671 0.985 . S
H1676 N1670 0.984 . S
H1677 N1670 0.984 . S
H1678 N1666 0.984 . S
H1679 N1666 0.985 . S
C1680 C1681 1.363 . S
C1680 C1686 1.379 . S
C1680 N1688 1.356 . S
C1681 C1680 1.363 . S
C1681 C1687 1.363 . S
C1682 C1683 1.363 . S
C1682 C1687 1.379 . S
C1682 N1689 1.356 . S
C1683 C1682 1.363 . S
C1683 C1686 1.363 . S
N1684 C1686 1.356 . S
N1684 H1696 0.984 . S
N1684 H1697 0.985 . S
N1685 C1687 1.356 . S
N1685 H1690 0.984 . S
N1685 H1691 0.985 . S
C1686 C1680 1.379 . S
C1686 C1683 1.363 . S
C1686 N1684 1.356 . S
C1687 C1681 1.363 . S
C1687 C1682 1.379 . S
C1687 N1685 1.356 . S
N1688 C1680 1.356 . S
N1688 H1694 0.984 . S
N1688 H1695 0.984 . S
N1689 C1682 1.356 . S
N1689 H1692 0.984 . S
N1689 H1693 0.985 . S
H1690 N1685 0.984 . S
H1691 N1685 0.985 . S
H1692 N1689 0.984 . S
H1693 N1689 0.985 . S
H1694 N1688 0.984 . S
H1695 N1688 0.984 . S
H1696 N1684 0.984 . S
H1697 N1684 0.985 . S
C1698 C1699 1.363 . S
C1698 C1704 1.379 . S
C1698 N1706 1.356 . S
C1699 C1698 1.363 . S
C1699 C1705 1.363 . S
C1700 C1701 1.363 . S
C1700 C1705 1.379 . S
C1700 N1707 1.356 . S
C1701 C1700 1.363 . S
C1701 C1704 1.363 . S
N1702 C1704 1.356 . S
N1702 H1714 0.984 . S
N1702 H1715 0.985 . S
N1703 C1705 1.356 . S
N1703 H1708 0.984 . S
N1703 H1709 0.985 . S
C1704 C1698 1.379 . S
C1704 C1701 1.363 . S
C1704 N1702 1.356 . S
C1705 C1699 1.363 . S
C1705 C1700 1.379 . S
C1705 N1703 1.356 . S
N1706 C1698 1.356 . S
N1706 H1712 0.984 . S
N1706 H1713 0.984 . S
N1707 C1700 1.356 . S
N1707 H1710 0.984 . S
N1707 H1711 0.985 . S
H1708 N1703 0.984 . S
H1709 N1703 0.985 . S
H1710 N1707 0.984 . S
H1711 N1707 0.985 . S
H1712 N1706 0.984 . S
H1713 N1706 0.984 . S
H1714 N1702 0.984 . S
H1715 N1702 0.985 . S
C1716 C1717 1.363 . S
C1716 C1722 1.379 . S
C1716 N1724 1.356 . S
C1717 C1716 1.363 . S
C1717 C1723 1.363 . S
C1718 C1719 1.363 . S
C1718 C1723 1.379 . S
C1718 N1725 1.356 . S
C1719 C1718 1.363 . S
C1719 C1722 1.363 . S
N1720 C1722 1.356 . S
N1720 H1732 0.984 . S
N1720 H1733 0.985 . S
N1721 C1723 1.356 . S
N1721 H1726 0.984 . S
N1721 H1727 0.985 . S
C1722 C1716 1.379 . S
C1722 C1719 1.363 . S
C1722 N1720 1.356 . S
C1723 C1717 1.363 . S
C1723 C1718 1.379 . S
C1723 N1721 1.356 . S
N1724 C1716 1.356 . S
N1724 H1730 0.984 . S
N1724 H1731 0.984 . S
N1725 C1718 1.356 . S
N1725 H1728 0.984 . S
N1725 H1729 0.985 . S
H1726 N1721 0.984 . S
H1727 N1721 0.985 . S
H1728 N1725 0.984 . S
H1729 N1725 0.985 . S
H1730 N1724 0.984 . S
H1731 N1724 0.984 . S
H1732 N1720 0.984 . S
H1733 N1720 0.985 . S
C1734 C1735 1.363 . S
C1734 C1740 1.379 . S
C1734 N1742 1.356 . S
C1735 C1734 1.363 . S
C1735 C1741 1.363 . S
C1736 C1737 1.363 . S
C1736 C1741 1.379 . S
C1736 N1743 1.356 . S
C1737 C1736 1.363 . S
C1737 C1740 1.363 . S
N1738 C1740 1.356 . S
N1738 H1750 0.984 . S
N1738 H1751 0.985 . S
N1739 C1741 1.356 . S
N1739 H1744 0.984 . S
N1739 H1745 0.985 . S
C1740 C1734 1.379 . S
C1740 C1737 1.363 . S
C1740 N1738 1.356 . S
C1741 C1735 1.363 . S
C1741 C1736 1.379 . S
C1741 N1739 1.356 . S
N1742 C1734 1.356 . S
N1742 H1748 0.984 . S
N1742 H1749 0.984 . S
N1743 C1736 1.356 . S
N1743 H1746 0.984 . S
N1743 H1747 0.985 . S
H1744 N1739 0.984 . S
H1745 N1739 0.985 . S
H1746 N1743 0.984 . S
H1747 N1743 0.985 . S
H1748 N1742 0.984 . S
H1749 N1742 0.984 . S
H1750 N1738 0.984 . S
H1751 N1738 0.985 . S
C1752 C1753 1.363 . S
C1752 C1758 1.379 . S
C1752 N1760 1.356 . S
C1753 C1752 1.363 . S
C1753 C1759 1.363 . S
C1754 C1755 1.363 1_554 S
C1754 C1759 1.379 1_554 S
C1754 N1761 1.356 . S
C1755 C1754 1.363 1_556 S
C1755 C1758 1.363 . S
N1756 C1758 1.356 . S
N1756 H1768 0.984 . S
N1756 H1769 0.985 . S
N1757 C1759 1.356 . S
N1757 H1762 0.984 . S
N1757 H1763 0.985 1_556 S
C1758 C1752 1.379 . S
C1758 C1755 1.363 . S
C1758 N1756 1.356 . S
C1759 C1753 1.363 . S
C1759 C1754 1.379 1_556 S
C1759 N1757 1.356 . S
N1760 C1752 1.356 . S
N1760 H1766 0.984 . S
N1760 H1767 0.984 . S
N1761 C1754 1.356 . S
N1761 H1764 0.984 . S
N1761 H1765 0.985 . S
H1762 N1757 0.984 . S
H1763 N1757 0.985 1_554 S
H1764 N1761 0.984 . S
H1765 N1761 0.985 . S
H1766 N1760 0.984 . S
H1767 N1760 0.984 . S
H1768 N1756 0.984 . S
H1769 N1756 0.985 . S
C1770 C1771 1.363 . S
C1770 C1776 1.379 . S
C1770 N1778 1.356 . S
C1771 C1770 1.363 . S
C1771 C1777 1.363 . S
C1772 C1773 1.363 . S
C1772 C1777 1.379 . S
C1772 N1779 1.356 . S
C1773 C1772 1.363 . S
C1773 C1776 1.363 . S
N1774 C1776 1.356 . S
N1774 H1786 0.984 . S
N1774 H1787 0.985 . S
N1775 C1777 1.356 . S
N1775 H1780 0.984 . S
N1775 H1781 0.985 . S
C1776 C1770 1.379 . S
C1776 C1773 1.363 . S
C1776 N1774 1.356 . S
C1777 C1771 1.363 . S
C1777 C1772 1.379 . S
C1777 N1775 1.356 . S
N1778 C1770 1.356 . S
N1778 H1784 0.984 . S
N1778 H1785 0.984 . S
N1779 C1772 1.356 . S
N1779 H1782 0.984 . S
N1779 H1783 0.985 . S
H1780 N1775 0.984 . S
H1781 N1775 0.985 . S
H1782 N1779 0.984 . S
H1783 N1779 0.985 . S
H1784 N1778 0.984 . S
H1785 N1778 0.984 . S
H1786 N1774 0.984 . S
H1787 N1774 0.985 . S
C1788 C1789 1.363 . S
C1788 C1794 1.379 . S
C1788 N1796 1.356 . S
C1789 C1788 1.363 . S
C1789 C1795 1.363 . S
C1790 C1791 1.363 . S
C1790 C1795 1.379 . S
C1790 N1797 1.356 . S
C1791 C1790 1.363 . S
C1791 C1794 1.363 . S
N1792 C1794 1.356 . S
N1792 H1804 0.984 . S
N1792 H1805 0.985 . S
N1793 C1795 1.356 . S
N1793 H1798 0.984 . S
N1793 H1799 0.985 . S
C1794 C1788 1.379 . S
C1794 C1791 1.363 . S
C1794 N1792 1.356 . S
C1795 C1789 1.363 . S
C1795 C1790 1.379 . S
C1795 N1793 1.356 . S
N1796 C1788 1.356 . S
N1796 H1802 0.984 . S
N1796 H1803 0.984 . S
N1797 C1790 1.356 . S
N1797 H1800 0.984 . S
N1797 H1801 0.985 . S
H1798 N1793 0.984 . S
H1799 N1793 0.985 . S
H1800 N1797 0.984 . S
H1801 N1797 0.985 . S
H1802 N1796 0.984 . S
H1803 N1796 0.984 . S
H1804 N1792 0.984 . S
H1805 N1792 0.985 . S
C1806 C1807 1.363 . S
C1806 C1812 1.379 . S
C1806 N1814 1.356 . S
C1807 C1806 1.363 . S
C1807 C1813 1.363 . S
C1808 C1809 1.363 . S
C1808 C1813 1.379 . S
C1808 N1815 1.356 . S
C1809 C1808 1.363 . S
C1809 C1812 1.363 . S
N1810 C1812 1.356 . S
N1810 H1822 0.984 . S
N1810 H1823 0.985 . S
N1811 C1813 1.356 . S
N1811 H1816 0.984 . S
N1811 H1817 0.985 . S
C1812 C1806 1.379 . S
C1812 C1809 1.363 . S
C1812 N1810 1.356 . S
C1813 C1807 1.363 . S
C1813 C1808 1.379 . S
C1813 N1811 1.356 . S
N1814 C1806 1.356 . S
N1814 H1820 0.984 . S
N1814 H1821 0.984 . S
N1815 C1808 1.356 . S
N1815 H1818 0.984 . S
N1815 H1819 0.985 . S
H1816 N1811 0.984 . S
H1817 N1811 0.985 . S
H1818 N1815 0.984 . S
H1819 N1815 0.985 . S
H1820 N1814 0.984 . S
H1821 N1814 0.984 . S
H1822 N1810 0.984 . S
H1823 N1810 0.985 . S
C1824 C1825 1.363 . S
C1824 C1830 1.379 . S
C1824 N1832 1.356 . S
C1825 C1824 1.363 . S
C1825 C1831 1.363 . S
C1826 C1827 1.363 . S
C1826 C1831 1.379 . S
C1826 N1833 1.356 . S
C1827 C1826 1.363 . S
C1827 C1830 1.363 . S
N1828 C1830 1.356 . S
N1828 H1840 0.984 . S
N1828 H1841 0.985 . S
N1829 C1831 1.356 . S
N1829 H1834 0.984 . S
N1829 H1835 0.985 . S
C1830 C1824 1.379 . S
C1830 C1827 1.363 . S
C1830 N1828 1.356 . S
C1831 C1825 1.363 . S
C1831 C1826 1.379 . S
C1831 N1829 1.356 . S
N1832 C1824 1.356 . S
N1832 H1838 0.984 . S
N1832 H1839 0.984 . S
N1833 C1826 1.356 . S
N1833 H1836 0.984 . S
N1833 H1837 0.985 . S
H1834 N1829 0.984 . S
H1835 N1829 0.985 . S
H1836 N1833 0.984 . S
H1837 N1833 0.985 . S
H1838 N1832 0.984 . S
H1839 N1832 0.984 . S
H1840 N1828 0.984 . S
H1841 N1828 0.985 . S
C1842 C1843 1.363 . S
C1842 C1848 1.379 . S
C1842 N1850 1.356 . S
C1843 C1842 1.363 . S
C1843 C1849 1.363 . S
C1844 C1845 1.363 . S
C1844 C1849 1.379 . S
C1844 N1851 1.356 . S
C1845 C1844 1.363 . S
C1845 C1848 1.363 . S
N1846 C1848 1.356 . S
N1846 H1858 0.984 . S
N1846 H1859 0.985 . S
N1847 C1849 1.387 . S
N1847 H1852 0.965 1_556 S
N1847 H1853 0.974 1_556 S
C1848 C1842 1.379 . S
C1848 C1845 1.363 . S
C1848 N1846 1.356 . S
C1849 C1843 1.363 . S
C1849 C1844 1.379 . S
C1849 N1847 1.387 . S
N1850 C1842 1.356 . S
N1850 H1856 0.984 . S
N1850 H1857 0.984 . S
N1851 C1844 1.356 . S
N1851 H1854 0.984 . S
N1851 H1855 0.985 . S
H1852 N1847 0.965 1_554 S
H1853 N1847 0.974 1_554 S
H1854 N1851 0.984 . S
H1855 N1851 0.985 . S
H1856 N1850 0.984 . S
H1857 N1850 0.984 . S
H1858 N1846 0.984 . S
H1859 N1846 0.985 . S
C1860 C1861 1.363 . S
C1860 C1866 1.379 . S
C1860 N1868 1.356 . S
C1861 C1860 1.363 . S
C1861 C1867 1.363 . S
C1862 C1863 1.363 . S
C1862 C1867 1.379 1_455 S
C1862 N1869 1.356 . S
C1863 C1862 1.363 . S
C1863 C1866 1.365 1_455 S
N1864 C1866 1.356 . S
N1864 H1876 0.984 . S
N1864 H1877 0.985 . S
N1865 C1867 1.356 . S
N1865 H1870 0.984 . S
N1865 H1871 0.985 . S
C1866 C1860 1.379 . S
C1866 C1863 1.365 1_655 S
C1866 N1864 1.356 . S
C1867 C1861 1.363 . S
C1867 C1862 1.379 1_655 S
C1867 N1865 1.356 . S
N1868 C1860 1.356 . S
N1868 H1874 0.984 . S
N1868 H1875 0.984 . S
N1869 C1862 1.356 . S
N1869 H1872 0.984 . S
N1869 H1873 0.985 . S
H1870 N1865 0.984 . S
H1871 N1865 0.985 . S
H1872 N1869 0.984 . S
H1873 N1869 0.985 . S
H1874 N1868 0.984 . S
H1875 N1868 0.984 . S
H1876 N1864 0.984 . S
H1877 N1864 0.985 . S
C1878 C1879 1.363 . S
C1878 C1884 1.379 . S
C1878 N1886 1.356 . S
C1879 C1878 1.363 . S
C1879 C1885 1.363 . S
C1880 C1881 1.363 . S
C1880 C1885 1.379 . S
C1880 N1887 1.356 . S
C1881 C1880 1.363 . S
C1881 C1884 1.363 . S
N1882 C1884 1.356 . S
N1882 H1894 0.984 . S
N1882 H1895 0.985 . S
N1883 C1885 1.356 . S
N1883 H1888 0.984 . S
N1883 H1889 0.985 . S
C1884 C1878 1.379 . S
C1884 C1881 1.363 . S
C1884 N1882 1.356 . S
C1885 C1879 1.363 . S
C1885 C1880 1.379 . S
C1885 N1883 1.356 . S
N1886 C1878 1.356 . S
N1886 H1892 0.984 . S
N1886 H1893 0.984 . S
N1887 C1880 1.356 . S
N1887 H1890 0.984 . S
N1887 H1891 0.985 . S
H1888 N1883 0.984 . S
H1889 N1883 0.985 . S
H1890 N1887 0.984 . S
H1891 N1887 0.985 . S
H1892 N1886 0.984 . S
H1893 N1886 0.984 . S
H1894 N1882 0.984 . S
H1895 N1882 0.985 . S
C1896 C1897 1.363 . S
C1896 C1902 1.379 . S
C1896 N1904 1.356 . S
C1897 C1896 1.363 . S
C1897 C1903 1.363 . S
C1898 C1899 1.363 . S
C1898 C1903 1.379 . S
C1898 N1905 1.356 . S
C1899 C1898 1.363 . S
C1899 C1902 1.363 . S
N1900 C1902 1.356 . S
N1900 H1912 0.984 . S
N1900 H1913 0.985 . S
N1901 C1903 1.356 . S
N1901 H1906 0.984 . S
N1901 H1907 0.985 . S
C1902 C1896 1.379 . S
C1902 C1899 1.363 . S
C1902 N1900 1.356 . S
C1903 C1897 1.363 . S
C1903 C1898 1.379 . S
C1903 N1901 1.356 . S
N1904 C1896 1.356 . S
N1904 H1910 0.984 . S
N1904 H1911 0.984 . S
N1905 C1898 1.356 . S
N1905 H1908 0.984 . S
N1905 H1909 0.985 . S
H1906 N1901 0.984 . S
H1907 N1901 0.985 . S
H1908 N1905 0.984 . S
H1909 N1905 0.985 . S
H1910 N1904 0.984 . S
H1911 N1904 0.984 . S
H1912 N1900 0.984 . S
H1913 N1900 0.985 . S
C1914 C1915 1.363 . S
C1914 C1920 1.379 . S
C1914 N1922 1.356 . S
C1915 C1914 1.363 . S
C1915 C1921 1.363 . S
C1916 C1917 1.363 . S
C1916 C1921 1.379 . S
C1916 N1923 1.356 . S
C1917 C1916 1.363 . S
C1917 C1920 1.363 . S
N1918 C1920 1.356 . S
N1918 H1930 0.984 . S
N1918 H1931 0.985 . S
N1919 C1921 1.356 . S
N1919 H1924 0.984 . S
N1919 H1925 0.985 . S
C1920 C1914 1.379 . S
C1920 C1917 1.363 . S
C1920 N1918 1.356 . S
C1921 C1915 1.363 . S
C1921 C1916 1.379 . S
C1921 N1919 1.356 . S
N1922 C1914 1.356 . S
N1922 H1928 0.984 . S
N1922 H1929 0.984 . S
N1923 C1916 1.356 . S
N1923 H1926 0.984 . S
N1923 H1927 0.985 . S
H1924 N1919 0.984 . S
H1925 N1919 0.985 . S
H1926 N1923 0.984 . S
H1927 N1923 0.985 . S
H1928 N1922 0.984 . S
H1929 N1922 0.984 . S
H1930 N1918 0.984 . S
H1931 N1918 0.985 . S
C1932 C1933 1.363 . S
C1932 C1938 1.379 . S
C1932 N1940 1.356 . S
C1933 C1932 1.363 . S
C1933 C1939 1.363 . S
C1934 C1935 1.363 . S
C1934 C1939 1.379 . S
C1934 N1941 1.356 . S
C1935 C1934 1.363 . S
C1935 C1938 1.363 . S
N1936 C1938 1.356 1_455 S
N1936 H1948 0.984 . S
N1936 H1949 0.985 . S
N1937 C1939 1.356 . S
N1937 H1942 0.984 . S
N1937 H1943 0.985 . S
C1938 C1932 1.379 . S
C1938 C1935 1.363 . S
C1938 N1936 1.356 1_655 S
C1939 C1933 1.363 . S
C1939 C1934 1.379 . S
C1939 N1937 1.356 . S
N1940 C1932 1.356 . S
N1940 H1946 0.984 . S
N1940 H1947 0.984 . S
N1941 C1934 1.356 . S
N1941 H1944 0.984 . S
N1941 H1945 0.985 . S
H1942 N1937 0.984 . S
H1943 N1937 0.985 . S
H1944 N1941 0.984 . S
H1945 N1941 0.985 . S
H1946 N1940 0.984 . S
H1947 N1940 0.984 . S
H1948 N1936 0.984 . S
H1949 N1936 0.985 . S
C1950 C1951 1.363 . S
C1950 C1956 1.379 . S
C1950 N1958 1.356 . S
C1951 C1950 1.363 . S
C1951 C1957 1.363 . S
C1952 C1953 1.363 . S
C1952 C1957 1.379 . S
C1952 N1959 1.356 . S
C1953 C1952 1.363 . S
C1953 C1956 1.363 . S
N1954 C1956 1.356 . S
N1954 H1966 0.984 . S
N1954 H1967 0.985 . S
N1955 C1957 1.356 . S
N1955 H1960 0.984 . S
N1955 H1961 0.985 . S
C1956 C1950 1.379 . S
C1956 C1953 1.363 . S
C1956 N1954 1.356 . S
C1957 C1951 1.363 . S
C1957 C1952 1.379 . S
C1957 N1955 1.356 . S
N1958 C1950 1.356 . S
N1958 H1964 0.984 . S
N1958 H1965 0.984 . S
N1959 C1952 1.356 . S
N1959 H1962 0.984 . S
N1959 H1963 0.985 . S
H1960 N1955 0.984 . S
H1961 N1955 0.985 . S
H1962 N1959 0.984 . S
H1963 N1959 0.985 . S
H1964 N1958 0.984 . S
H1965 N1958 0.984 . S
H1966 N1954 0.984 . S
H1967 N1954 0.985 . S
C1968 C1969 1.363 . S
C1968 C1974 1.379 . S
C1968 N1976 1.356 . S
C1969 C1968 1.363 . S
C1969 C1975 1.363 . S
C1970 C1971 1.363 . S
C1970 C1975 1.379 . S
C1970 N1977 1.356 . S
C1971 C1970 1.363 . S
C1971 C1974 1.363 . S
N1972 C1974 1.356 . S
N1972 H1984 0.984 . S
N1972 H1985 0.985 . S
N1973 C1975 1.356 . S
N1973 H1978 0.984 . S
N1973 H1979 0.985 . S
C1974 C1968 1.379 . S
C1974 C1971 1.363 . S
C1974 N1972 1.356 . S
C1975 C1969 1.363 . S
C1975 C1970 1.379 . S
C1975 N1973 1.356 . S
N1976 C1968 1.356 . S
N1976 H1982 0.984 . S
N1976 H1983 0.984 . S
N1977 C1970 1.356 . S
N1977 H1980 0.984 . S
N1977 H1981 0.985 . S
H1978 N1973 0.984 . S
H1979 N1973 0.985 . S
H1980 N1977 0.984 . S
H1981 N1977 0.985 . S
H1982 N1976 0.984 . S
H1983 N1976 0.984 . S
H1984 N1972 0.984 . S
H1985 N1972 0.985 . S
C1986 C1987 1.363 . S
C1986 C1992 1.379 . S
C1986 N1994 1.356 . S
C1987 C1986 1.363 . S
C1987 C1993 1.363 . S
C1988 C1989 1.359 1_545 S
C1988 C1993 1.379 1_545 S
C1988 N1995 1.356 . S
C1989 C1988 1.359 1_565 S
C1989 C1992 1.384 . S
N1990 C1992 1.356 . S
N1990 H2002 0.984 . S
N1990 H2003 0.985 . S
N1991 C1993 1.356 . S
N1991 H1996 0.984 . S
N1991 H1997 1.004 . S
C1992 C1986 1.379 . S
C1992 C1989 1.384 . S
C1992 N1990 1.356 . S
C1993 C1987 1.363 . S
C1993 C1988 1.379 1_565 S
C1993 N1991 1.356 . S
N1994 C1986 1.356 . S
N1994 H2000 0.984 . S
N1994 H2001 0.984 . S
N1995 C1988 1.356 . S
N1995 H1998 0.984 . S
N1995 H1999 0.985 . S
H1996 N1991 0.984 . S
H1997 N1991 1.004 . S
H1998 N1995 0.984 . S
H1999 N1995 0.985 . S
H2000 N1994 0.984 . S
H2001 N1994 0.984 . S
H2002 N1990 0.984 . S
H2003 N1990 0.985 . S
C2004 C2005 1.363 . S
C2004 C2010 1.379 . S
C2004 N2012 1.356 1_565 S
C2005 C2004 1.363 . S
C2005 C2011 1.363 . S
C2006 C2007 1.363 . S
C2006 C2011 1.379 . S
C2006 N2013 1.356 . S
C2007 C2006 1.363 . S
C2007 C2010 1.363 . S
N2008 C2010 1.356 . S
N2008 H2020 0.984 . S
N2008 H2021 0.985 . S
N2009 C2011 1.356 . S
N2009 H2014 0.984 . S
N2009 H2015 0.985 . S
C2010 C2004 1.379 . S
C2010 C2007 1.363 . S
C2010 N2008 1.356 . S
C2011 C2005 1.363 . S
C2011 C2006 1.379 . S
C2011 N2009 1.356 . S
N2012 C2004 1.356 1_545 S
N2012 H2018 0.984 . S
N2012 H2019 0.984 . S
N2013 C2006 1.356 . S
N2013 H2016 0.984 . S
N2013 H2017 0.985 . S
H2014 N2009 0.984 . S
H2015 N2009 0.985 . S
H2016 N2013 0.984 . S
H2017 N2013 0.985 . S
H2018 N2012 0.984 . S
H2019 N2012 0.984 . S
H2020 N2008 0.984 . S
H2021 N2008 0.985 . S
C2022 C2023 1.363 . S
C2022 C2028 1.379 . S
C2022 N2030 1.356 . S
C2023 C2022 1.363 . S
C2023 C2029 1.363 . S
C2024 C2025 1.363 . S
C2024 C2029 1.379 . S
C2024 N2031 1.356 . S
C2025 C2024 1.363 . S
C2025 C2028 1.363 . S
N2026 C2028 1.356 . S
N2026 H2038 0.984 . S
N2026 H2039 0.985 . S
N2027 C2029 1.356 1_556 S
N2027 H2032 0.981 1_556 S
N2027 H2033 0.985 . S
C2028 C2022 1.379 . S
C2028 C2025 1.363 . S
C2028 N2026 1.356 . S
C2029 C2023 1.363 . S
C2029 C2024 1.379 . S
C2029 N2027 1.356 1_554 S
N2030 C2022 1.356 . S
N2030 H2036 0.984 . S
N2030 H2037 0.984 . S
N2031 C2024 1.356 . S
N2031 H2034 0.984 . S
N2031 H2035 0.985 1_554 S
H2032 N2027 0.981 1_554 S
H2033 N2027 0.985 . S
H2034 N2031 0.984 . S
H2035 N2031 0.985 1_556 S
H2036 N2030 0.984 . S
H2037 N2030 0.984 . S
H2038 N2026 0.984 . S
H2039 N2026 0.985 . S
C2040 C2041 1.363 . S
C2040 C2046 1.379 . S
C2040 N2048 1.356 . S
C2041 C2040 1.363 . S
C2041 C2047 1.363 . S
C2042 C2043 1.363 . S
C2042 C2047 1.379 . S
C2042 N2049 1.356 . S
C2043 C2042 1.363 . S
C2043 C2046 1.363 . S
N2044 C2046 1.356 . S
N2044 H2056 0.984 . S
N2044 H2057 0.985 . S
N2045 C2047 1.356 . S
N2045 H2050 0.984 . S
N2045 H2051 0.985 . S
C2046 C2040 1.379 . S
C2046 C2043 1.363 . S
C2046 N2044 1.356 . S
C2047 C2041 1.363 . S
C2047 C2042 1.379 . S
C2047 N2045 1.356 . S
N2048 C2040 1.356 . S
N2048 H2054 0.984 . S
N2048 H2055 0.984 . S
N2049 C2042 1.356 . S
N2049 H2052 0.984 . S
N2049 H2053 0.985 . S
H2050 N2045 0.984 . S
H2051 N2045 0.985 . S
H2052 N2049 0.984 . S
H2053 N2049 0.985 . S
H2054 N2048 0.984 . S
H2055 N2048 0.984 . S
H2056 N2044 0.984 . S
H2057 N2044 0.985 . S
C2058 C2059 1.363 . S
C2058 C2064 1.379 . S
C2058 N2066 1.356 . S
C2059 C2058 1.363 . S
C2059 C2065 1.363 . S
C2060 C2061 1.363 . S
C2060 C2065 1.379 . S
C2060 N2067 1.356 1_554 S
C2061 C2060 1.363 . S
C2061 C2064 1.363 . S
N2062 C2064 1.356 . S
N2062 H2074 0.984 . S
N2062 H2075 0.985 . S
N2063 C2065 1.356 . S
N2063 H2068 0.984 . S
N2063 H2069 0.985 . S
C2064 C2058 1.379 . S
C2064 C2061 1.363 . S
C2064 N2062 1.356 . S
C2065 C2059 1.363 . S
C2065 C2060 1.379 . S
C2065 N2063 1.356 . S
N2066 C2058 1.356 . S
N2066 H2072 0.984 . S
N2066 H2073 0.984 . S
N2067 C2060 1.356 1_556 S
N2067 H2070 0.984 . S
N2067 H2071 0.985 . S
H2068 N2063 0.984 . S
H2069 N2063 0.985 . S
H2070 N2067 0.984 . S
H2071 N2067 0.985 . S
H2072 N2066 0.984 . S
H2073 N2066 0.984 . S
H2074 N2062 0.984 . S
H2075 N2062 0.985 . S
C2076 C2077 1.363 . S
C2076 C2082 1.379 . S
C2076 N2084 1.356 . S
C2077 C2076 1.363 . S
C2077 C2083 1.363 . S
C2078 C2079 1.363 . S
C2078 C2083 1.379 . S
C2078 N2085 1.356 . S
C2079 C2078 1.363 . S
C2079 C2082 1.363 . S
N2080 C2082 1.356 . S
N2080 H2092 0.984 . S
N2080 H2093 0.985 . S
N2081 C2083 1.356 . S
N2081 H2086 0.984 . S
N2081 H2087 0.985 . S
C2082 C2076 1.379 . S
C2082 C2079 1.363 . S
C2082 N2080 1.356 . S
C2083 C2077 1.363 . S
C2083 C2078 1.379 . S
C2083 N2081 1.356 . S
N2084 C2076 1.356 . S
N2084 H2090 0.984 . S
N2084 H2091 0.984 . S
N2085 C2078 1.356 . S
N2085 H2088 0.984 . S
N2085 H2089 0.985 . S
H2086 N2081 0.984 . S
H2087 N2081 0.985 . S
H2088 N2085 0.984 . S
H2089 N2085 0.985 . S
H2090 N2084 0.984 . S
H2091 N2084 0.984 . S
H2092 N2080 0.984 . S
H2093 N2080 0.985 . S
C2094 C2095 1.363 . S
C2094 C2100 1.379 . S
C2094 N2102 1.356 . S
C2095 C2094 1.363 . S
C2095 C2101 1.363 . S
C2096 C2097 1.363 . S
C2096 C2101 1.379 . S
C2096 N2103 1.356 . S
C2097 C2096 1.363 . S
C2097 C2100 1.363 . S
N2098 C2100 1.356 . S
N2098 H2110 0.984 . S
N2098 H2111 0.985 . S
N2099 C2101 1.356 . S
N2099 H2104 0.984 . S
N2099 H2105 0.985 . S
C2100 C2094 1.379 . S
C2100 C2097 1.363 . S
C2100 N2098 1.356 . S
C2101 C2095 1.363 . S
C2101 C2096 1.379 . S
C2101 N2099 1.356 . S
N2102 C2094 1.356 . S
N2102 H2108 0.984 . S
N2102 H2109 0.984 . S
N2103 C2096 1.356 . S
N2103 H2106 0.984 . S
N2103 H2107 0.985 . S
H2104 N2099 0.984 . S
H2105 N2099 0.985 . S
H2106 N2103 0.984 . S
H2107 N2103 0.985 . S
H2108 N2102 0.984 . S
H2109 N2102 0.984 . S
H2110 N2098 0.984 . S
H2111 N2098 0.985 . S
C2112 C2113 1.363 . S
C2112 C2118 1.379 . S
C2112 N2120 1.356 . S
C2113 C2112 1.363 . S
C2113 C2119 1.363 . S
C2114 C2115 1.363 . S
C2114 C2119 1.379 . S
C2114 N2121 1.356 . S
C2115 C2114 1.363 . S
C2115 C2118 1.363 . S
N2116 C2118 1.356 . S
N2116 H2128 0.984 . S
N2116 H2129 0.985 . S
N2117 C2119 1.356 . S
N2117 H2122 0.984 . S
N2117 H2123 0.985 . S
C2118 C2112 1.379 . S
C2118 C2115 1.363 . S
C2118 N2116 1.356 . S
C2119 C2113 1.363 . S
C2119 C2114 1.379 . S
C2119 N2117 1.356 . S
N2120 C2112 1.356 . S
N2120 H2126 0.984 . S
N2120 H2127 0.984 . S
N2121 C2114 1.356 . S
N2121 H2124 0.984 . S
N2121 H2125 0.985 . S
H2122 N2117 0.984 . S
H2123 N2117 0.985 . S
H2124 N2121 0.984 . S
H2125 N2121 0.985 . S
H2126 N2120 0.984 . S
H2127 N2120 0.984 . S
H2128 N2116 0.984 . S
H2129 N2116 0.985 . S
C2130 C2131 1.363 . S
C2130 C2136 1.379 . S
C2130 N2138 1.356 . S
C2131 C2130 1.363 . S
C2131 C2137 1.363 . S
C2132 C2133 1.363 . S
C2132 C2137 1.379 . S
C2132 N2139 1.356 . S
C2133 C2132 1.363 . S
C2133 C2136 1.363 . S
N2134 C2136 1.356 . S
N2134 H2146 0.984 . S
N2134 H2147 0.985 . S
N2135 C2137 1.356 . S
N2135 H2140 0.984 . S
N2135 H2141 0.985 . S
C2136 C2130 1.379 . S
C2136 C2133 1.363 . S
C2136 N2134 1.356 . S
C2137 C2131 1.363 . S
C2137 C2132 1.379 . S
C2137 N2135 1.356 . S
N2138 C2130 1.356 . S
N2138 H2144 0.984 . S
N2138 H2145 0.984 . S
N2139 C2132 1.356 . S
N2139 H2142 0.984 . S
N2139 H2143 0.985 . S
H2140 N2135 0.984 . S
H2141 N2135 0.985 . S
H2142 N2139 0.984 . S
H2143 N2139 0.985 . S
H2144 N2138 0.984 . S
H2145 N2138 0.984 . S
H2146 N2134 0.984 . S
H2147 N2134 0.985 . S
C2148 C2149 1.363 . S
C2148 C2154 1.379 1_556 S
C2148 N2156 1.356 . S
C2149 C2148 1.363 . S
C2149 C2155 1.363 . S
C2150 C2151 1.340 1_556 S
C2150 C2155 1.379 . S
C2150 N2157 1.356 1_455 S
C2151 C2150 1.340 1_554 S
C2151 C2154 1.371 . S
N2152 C2154 1.356 . S
N2152 H2164 0.984 . S
N2152 H2165 0.985 . S
N2153 C2155 1.356 . S
N2153 H2158 0.984 . S
N2153 H2159 0.985 1_455 S
C2154 C2148 1.379 1_554 S
C2154 C2151 1.371 . S
C2154 N2152 1.356 . S
C2155 C2149 1.363 . S
C2155 C2150 1.379 . S
C2155 N2153 1.356 . S
N2156 C2148 1.356 . S
N2156 H2162 0.984 1_556 S
N2156 H2163 0.984 . S
N2157 C2150 1.356 1_655 S
N2157 H2160 0.984 . S
N2157 H2161 0.985 . S
H2158 N2153 0.984 . S
H2159 N2153 0.985 1_655 S
H2160 N2157 0.984 . S
H2161 N2157 0.985 . S
H2162 N2156 0.984 1_554 S
H2163 N2156 0.984 . S
H2164 N2152 0.984 . S
H2165 N2152 0.985 . S
C2166 C2167 1.363 . S
C2166 C2172 1.379 . S
C2166 N2174 1.356 . S
C2167 C2166 1.363 . S
C2167 C2173 1.363 . S
C2168 C2169 1.363 . S
C2168 C2173 1.379 . S
C2168 N2175 1.356 . S
C2169 C2168 1.363 . S
C2169 C2172 1.363 . S
N2170 C2172 1.356 . S
N2170 H2182 0.984 . S
N2170 H2183 0.985 . S
N2171 C2173 1.356 . S
N2171 H2176 0.984 . S
N2171 H2177 0.985 . S
C2172 C2166 1.379 . S
C2172 C2169 1.363 . S
C2172 N2170 1.356 . S
C2173 C2167 1.363 . S
C2173 C2168 1.379 . S
C2173 N2171 1.356 . S
N2174 C2166 1.356 . S
N2174 H2180 0.984 . S
N2174 H2181 0.984 . S
N2175 C2168 1.356 . S
N2175 H2178 0.984 . S
N2175 H2179 0.985 . S
H2176 N2171 0.984 . S
H2177 N2171 0.985 . S
H2178 N2175 0.984 . S
H2179 N2175 0.985 . S
H2180 N2174 0.984 . S
H2181 N2174 0.984 . S
H2182 N2170 0.984 . S
H2183 N2170 0.985 . S
C2184 C2185 1.363 . S
C2184 C2190 1.379 . S
C2184 N2192 1.356 . S
C2185 C2184 1.363 . S
C2185 C2191 1.363 . S
C2186 C2187 1.363 . S
C2186 C2191 1.379 . S
C2186 N2193 1.356 . S
C2187 C2186 1.363 . S
C2187 C2190 1.363 . S
N2188 C2190 1.356 . S
N2188 H2200 0.984 . S
N2188 H2201 0.985 . S
N2189 C2191 1.356 . S
N2189 H2194 0.984 . S
N2189 H2195 0.985 . S
C2190 C2184 1.379 . S
C2190 C2187 1.363 . S
C2190 N2188 1.356 . S
C2191 C2185 1.363 . S
C2191 C2186 1.379 . S
C2191 N2189 1.356 . S
N2192 C2184 1.356 . S
N2192 H2198 0.984 . S
N2192 H2199 0.984 . S
N2193 C2186 1.356 . S
N2193 H2196 0.984 . S
N2193 H2197 0.985 . S
H2194 N2189 0.984 . S
H2195 N2189 0.985 . S
H2196 N2193 0.984 . S
H2197 N2193 0.985 . S
H2198 N2192 0.984 . S
H2199 N2192 0.984 . S
H2200 N2188 0.984 . S
H2201 N2188 0.985 . S
C2202 C2203 1.363 . S
C2202 C2208 1.379 . S
C2202 N2210 1.356 . S
C2203 C2202 1.363 . S
C2203 C2209 1.363 . S
C2204 C2205 1.363 . S
C2204 C2209 1.379 . S
C2204 N2211 1.356 . S
C2205 C2204 1.363 . S
C2205 C2208 1.363 . S
N2206 C2208 1.356 . S
N2206 H2218 0.984 . S
N2206 H2219 0.985 . S
N2207 C2209 1.356 . S
N2207 H2212 0.984 . S
N2207 H2213 0.985 . S
C2208 C2202 1.379 . S
C2208 C2205 1.363 . S
C2208 N2206 1.356 . S
C2209 C2203 1.363 . S
C2209 C2204 1.379 . S
C2209 N2207 1.356 . S
N2210 C2202 1.356 . S
N2210 H2216 0.984 . S
N2210 H2217 0.984 . S
N2211 C2204 1.356 . S
N2211 H2214 0.984 . S
N2211 H2215 0.985 . S
H2212 N2207 0.984 . S
H2213 N2207 0.985 . S
H2214 N2211 0.984 . S
H2215 N2211 0.985 . S
H2216 N2210 0.984 . S
H2217 N2210 0.984 . S
H2218 N2206 0.984 . S
H2219 N2206 0.985 . S
C2220 C2221 1.363 1_655 S
C2220 C2226 1.379 . S
C2220 N2228 1.356 . S
C2221 C2220 1.363 1_455 S
C2221 C2227 1.363 . S
C2222 C2223 1.363 . S
C2222 C2227 1.379 . S
C2222 N2229 1.356 . S
C2223 C2222 1.363 . S
C2223 C2226 1.363 1_455 S
N2224 C2226 1.356 . S
N2224 H2236 0.984 . S
N2224 H2237 0.985 . S
N2225 C2227 1.356 . S
N2225 H2230 0.984 . S
N2225 H2231 0.985 . S
C2226 C2220 1.379 . S
C2226 C2223 1.363 1_655 S
C2226 N2224 1.356 . S
C2227 C2221 1.363 . S
C2227 C2222 1.379 . S
C2227 N2225 1.356 . S
N2228 C2220 1.356 . S
N2228 H2234 0.984 . S
N2228 H2235 0.984 . S
N2229 C2222 1.356 . S
N2229 H2232 0.984 . S
N2229 H2233 0.985 . S
H2230 N2225 0.984 . S
H2231 N2225 0.985 . S
H2232 N2229 0.984 . S
H2233 N2229 0.985 . S
H2234 N2228 0.984 . S
H2235 N2228 0.984 . S
H2236 N2224 0.984 . S
H2237 N2224 0.985 . S
C2238 C2239 1.363 . S
C2238 C2244 1.379 . S
C2238 N2246 1.356 . S
C2239 C2238 1.363 . S
C2239 C2245 1.363 . S
C2240 C2241 1.363 . S
C2240 C2245 1.379 . S
C2240 N2247 1.356 . S
C2241 C2240 1.363 . S
C2241 C2244 1.363 . S
N2242 C2244 1.356 . S
N2242 H2254 0.984 . S
N2242 H2255 0.985 . S
N2243 C2245 1.356 . S
N2243 H2248 0.984 . S
N2243 H2249 0.985 . S
C2244 C2238 1.379 . S
C2244 C2241 1.363 . S
C2244 N2242 1.356 . S
C2245 C2239 1.363 . S
C2245 C2240 1.379 . S
C2245 N2243 1.356 . S
N2246 C2238 1.356 . S
N2246 H2252 0.984 . S
N2246 H2253 0.984 . S
N2247 C2240 1.356 . S
N2247 H2250 0.984 . S
N2247 H2251 0.985 . S
H2248 N2243 0.984 . S
H2249 N2243 0.985 . S
H2250 N2247 0.984 . S
H2251 N2247 0.985 . S
H2252 N2246 0.984 . S
H2253 N2246 0.984 . S
H2254 N2242 0.984 . S
H2255 N2242 0.985 . S
C2256 C2257 1.363 . S
C2256 C2262 1.379 . S
C2256 N2264 1.356 . S
C2257 C2256 1.363 . S
C2257 C2263 1.363 . S
C2258 C2259 1.363 . S
C2258 C2263 1.379 . S
C2258 N2265 1.356 . S
C2259 C2258 1.363 . S
C2259 C2262 1.363 . S
N2260 C2262 1.356 . S
N2260 H2272 0.984 . S
N2260 H2273 0.985 . S
N2261 C2263 1.356 . S
N2261 H2266 0.984 . S
N2261 H2267 0.985 . S
C2262 C2256 1.379 . S
C2262 C2259 1.363 . S
C2262 N2260 1.356 . S
C2263 C2257 1.363 . S
C2263 C2258 1.379 . S
C2263 N2261 1.356 . S
N2264 C2256 1.356 . S
N2264 H2270 0.984 . S
N2264 H2271 0.984 . S
N2265 C2258 1.356 . S
N2265 H2268 0.984 . S
N2265 H2269 0.985 . S
H2266 N2261 0.984 . S
H2267 N2261 0.985 . S
H2268 N2265 0.984 . S
H2269 N2265 0.985 . S
H2270 N2264 0.984 . S
H2271 N2264 0.984 . S
H2272 N2260 0.984 . S
H2273 N2260 0.985 . S
C2274 C2275 1.363 . S
C2274 C2280 1.379 . S
C2274 N2282 1.356 . S
C2275 C2274 1.363 . S
C2275 C2281 1.363 . S
C2276 C2277 1.363 . S
C2276 C2281 1.379 . S
C2276 N2283 1.356 . S
C2277 C2276 1.363 . S
C2277 C2280 1.363 . S
N2278 C2280 1.356 . S
N2278 H2290 0.984 . S
N2278 H2291 0.985 . S
N2279 C2281 1.356 . S
N2279 H2284 0.984 . S
N2279 H2285 0.985 . S
C2280 C2274 1.379 . S
C2280 C2277 1.363 . S
C2280 N2278 1.356 . S
C2281 C2275 1.363 . S
C2281 C2276 1.379 . S
C2281 N2279 1.356 . S
N2282 C2274 1.356 . S
N2282 H2288 0.984 . S
N2282 H2289 0.984 . S
N2283 C2276 1.356 . S
N2283 H2286 0.984 . S
N2283 H2287 0.985 . S
H2284 N2279 0.984 . S
H2285 N2279 0.985 . S
H2286 N2283 0.984 . S
H2287 N2283 0.985 . S
H2288 N2282 0.984 . S
H2289 N2282 0.984 . S
H2290 N2278 0.984 . S
H2291 N2278 0.985 . S
C2292 C2293 1.363 . S
C2292 C2298 1.379 . S
C2292 N2300 1.356 . S
C2293 C2292 1.363 . S
C2293 C2299 1.363 . S
C2294 C2295 1.363 . S
C2294 C2299 1.379 . S
C2294 N2301 1.356 . S
C2295 C2294 1.363 . S
C2295 C2298 1.363 . S
N2296 C2298 1.356 . S
N2296 H2308 0.984 . S
N2296 H2309 0.985 1_556 S
N2297 C2299 1.356 . S
N2297 H2302 0.984 . S
N2297 H2303 0.985 . S
C2298 C2292 1.379 . S
C2298 C2295 1.363 . S
C2298 N2296 1.356 . S
C2299 C2293 1.363 . S
C2299 C2294 1.379 . S
C2299 N2297 1.356 . S
N2300 C2292 1.356 . S
N2300 H2306 0.984 . S
N2300 H2307 0.984 . S
N2301 C2294 1.356 . S
N2301 H2304 0.984 . S
N2301 H2305 0.985 . S
H2302 N2297 0.984 . S
H2303 N2297 0.985 . S
H2304 N2301 0.984 . S
H2305 N2301 0.985 . S
H2306 N2300 0.984 . S
H2307 N2300 0.984 . S
H2308 N2296 0.984 . S
H2309 N2296 0.985 1_554 S
C2310 C2311 1.363 . S
C2310 C2316 1.379 . S
C2310 N2318 1.356 . S
C2311 C2310 1.363 . S
C2311 C2317 1.363 . S
C2312 C2313 1.363 . S
C2312 C2317 1.379 . S
C2312 N2319 1.356 . S
C2313 C2312 1.363 . S
C2313 C2316 1.363 . S
N2314 C2316 1.356 . S
N2314 H2326 0.984 . S
N2314 H2327 0.985 . S
N2315 C2317 1.356 . S
N2315 H2320 0.984 . S
N2315 H2321 0.985 . S
C2316 C2310 1.379 . S
C2316 C2313 1.363 . S
C2316 N2314 1.356 . S
C2317 C2311 1.363 . S
C2317 C2312 1.379 . S
C2317 N2315 1.356 . S
N2318 C2310 1.356 . S
N2318 H2324 0.984 . S
N2318 H2325 0.984 . S
N2319 C2312 1.356 . S
N2319 H2322 0.984 . S
N2319 H2323 0.985 . S
H2320 N2315 0.984 . S
H2321 N2315 0.985 . S
H2322 N2319 0.984 . S
H2323 N2319 0.985 . S
H2324 N2318 0.984 . S
H2325 N2318 0.984 . S
H2326 N2314 0.984 . S
H2327 N2314 0.985 . S
C2328 C2329 1.363 . S
C2328 C2334 1.379 . S
C2328 N2336 1.356 . S
C2329 C2328 1.363 . S
C2329 C2335 1.363 . S
C2330 C2331 1.363 . S
C2330 C2335 1.379 . S
C2330 N2337 1.356 . S
C2331 C2330 1.363 . S
C2331 C2334 1.363 . S
N2332 C2334 1.356 . S
N2332 H2344 0.984 . S
N2332 H2345 0.985 . S
N2333 C2335 1.356 . S
N2333 H2338 0.984 . S
N2333 H2339 0.985 . S
C2334 C2328 1.379 . S
C2334 C2331 1.363 . S
C2334 N2332 1.356 . S
C2335 C2329 1.363 . S
C2335 C2330 1.379 . S
C2335 N2333 1.356 . S
N2336 C2328 1.356 . S
N2336 H2342 0.984 . S
N2336 H2343 0.984 . S
N2337 C2330 1.356 . S
N2337 H2340 0.984 . S
N2337 H2341 0.985 . S
H2338 N2333 0.984 . S
H2339 N2333 0.985 . S
H2340 N2337 0.984 . S
H2341 N2337 0.985 . S
H2342 N2336 0.984 . S
H2343 N2336 0.984 . S
H2344 N2332 0.984 . S
H2345 N2332 0.985 . S
C2346 C2347 1.363 . S
C2346 C2352 1.379 . S
C2346 N2354 1.356 . S
C2347 C2346 1.363 . S
C2347 C2353 1.363 . S
C2348 C2349 1.363 . S
C2348 C2353 1.379 . S
C2348 N2355 1.356 . S
C2349 C2348 1.363 . S
C2349 C2352 1.363 . S
N2350 C2352 1.356 . S
N2350 H2362 0.984 . S
N2350 H2363 0.985 . S
N2351 C2353 1.356 . S
N2351 H2356 0.984 . S
N2351 H2357 0.985 . S
C2352 C2346 1.379 . S
C2352 C2349 1.363 . S
C2352 N2350 1.356 . S
C2353 C2347 1.363 . S
C2353 C2348 1.379 . S
C2353 N2351 1.356 . S
N2354 C2346 1.356 . S
N2354 H2360 0.984 . S
N2354 H2361 0.984 . S
N2355 C2348 1.356 . S
N2355 H2358 0.984 . S
N2355 H2359 0.985 . S
H2356 N2351 0.984 . S
H2357 N2351 0.985 . S
H2358 N2355 0.984 . S
H2359 N2355 0.985 . S
H2360 N2354 0.984 . S
H2361 N2354 0.984 . S
H2362 N2350 0.984 . S
H2363 N2350 0.985 . S
C2364 C2365 1.363 . S
C2364 C2370 1.379 . S
C2364 N2372 1.356 . S
C2365 C2364 1.363 . S
C2365 C2371 1.363 . S
C2366 C2367 1.363 . S
C2366 C2371 1.379 . S
C2366 N2373 1.356 . S
C2367 C2366 1.363 . S
C2367 C2370 1.363 . S
N2368 C2370 1.356 . S
N2368 H2380 0.984 . S
N2368 H2381 0.985 . S
N2369 C2371 1.356 . S
N2369 H2374 0.984 . S
N2369 H2375 0.985 . S
C2370 C2364 1.379 . S
C2370 C2367 1.363 . S
C2370 N2368 1.356 . S
C2371 C2365 1.363 . S
C2371 C2366 1.379 . S
C2371 N2369 1.356 . S
N2372 C2364 1.356 . S
N2372 H2378 0.984 . S
N2372 H2379 0.984 . S
N2373 C2366 1.356 . S
N2373 H2376 0.984 . S
N2373 H2377 0.985 . S
H2374 N2369 0.984 . S
H2375 N2369 0.985 . S
H2376 N2373 0.984 . S
H2377 N2373 0.985 . S
H2378 N2372 0.984 . S
H2379 N2372 0.984 . S
H2380 N2368 0.984 . S
H2381 N2368 0.985 . S
C2382 C2383 1.363 . S
C2382 C2388 1.379 . S
C2382 N2390 1.356 . S
C2383 C2382 1.363 . S
C2383 C2389 1.363 . S
C2384 C2385 1.363 . S
C2384 C2389 1.379 . S
C2384 N2391 1.356 . S
C2385 C2384 1.363 . S
C2385 C2388 1.363 . S
N2386 C2388 1.356 . S
N2386 H2398 0.984 . S
N2386 H2399 0.985 . S
N2387 C2389 1.356 . S
N2387 H2392 0.984 . S
N2387 H2393 0.985 . S
C2388 C2382 1.379 . S
C2388 C2385 1.363 . S
C2388 N2386 1.356 . S
C2389 C2383 1.363 . S
C2389 C2384 1.379 . S
C2389 N2387 1.356 . S
N2390 C2382 1.356 . S
N2390 H2396 0.984 . S
N2390 H2397 0.984 . S
N2391 C2384 1.356 . S
N2391 H2394 0.984 . S
N2391 H2395 0.985 . S
H2392 N2387 0.984 . S
H2393 N2387 0.985 . S
H2394 N2391 0.984 . S
H2395 N2391 0.985 . S
H2396 N2390 0.984 . S
H2397 N2390 0.984 . S
H2398 N2386 0.984 . S
H2399 N2386 0.985 . S
C2400 C2401 1.363 . S
C2400 C2406 1.379 . S
C2400 N2408 1.356 . S
C2401 C2400 1.363 . S
C2401 C2407 1.363 . S
C2402 C2403 1.363 . S
C2402 C2407 1.379 . S
C2402 N2409 1.356 . S
C2403 C2402 1.363 . S
C2403 C2406 1.363 . S
N2404 C2406 1.356 . S
N2404 H2416 0.984 . S
N2404 H2417 0.985 . S
N2405 C2407 1.356 . S
N2405 H2410 0.984 . S
N2405 H2411 0.985 . S
C2406 C2400 1.379 . S
C2406 C2403 1.363 . S
C2406 N2404 1.356 . S
C2407 C2401 1.363 . S
C2407 C2402 1.379 . S
C2407 N2405 1.356 . S
N2408 C2400 1.356 . S
N2408 H2414 0.984 . S
N2408 H2415 0.984 . S
N2409 C2402 1.356 . S
N2409 H2412 0.984 . S
N2409 H2413 0.985 . S
H2410 N2405 0.984 . S
H2411 N2405 0.985 . S
H2412 N2409 0.984 . S
H2413 N2409 0.985 . S
H2414 N2408 0.984 . S
H2415 N2408 0.984 . S
H2416 N2404 0.984 . S
H2417 N2404 0.985 . S
C2418 C2419 1.363 . S
C2418 C2424 1.379 . S
C2418 N2426 1.356 . S
C2419 C2418 1.363 . S
C2419 C2425 1.363 . S
C2420 C2421 1.363 . S
C2420 C2425 1.379 . S
C2420 N2427 1.356 . S
C2421 C2420 1.363 . S
C2421 C2424 1.363 . S
N2422 C2424 1.356 . S
N2422 H2434 0.984 . S
N2422 H2435 0.985 . S
N2423 C2425 1.356 . S
N2423 H2428 0.984 . S
N2423 H2429 0.985 . S
C2424 C2418 1.379 . S
C2424 C2421 1.363 . S
C2424 N2422 1.356 . S
C2425 C2419 1.363 . S
C2425 C2420 1.379 . S
C2425 N2423 1.356 . S
N2426 C2418 1.356 . S
N2426 H2432 0.984 . S
N2426 H2433 0.984 . S
N2427 C2420 1.356 . S
N2427 H2430 0.984 . S
N2427 H2431 0.985 . S
H2428 N2423 0.984 . S
H2429 N2423 0.985 . S
H2430 N2427 0.984 . S
H2431 N2427 0.985 . S
H2432 N2426 0.984 . S
H2433 N2426 0.984 . S
H2434 N2422 0.984 . S
H2435 N2422 0.985 . S
C2436 C2437 1.363 . S
C2436 C2442 1.379 . S
C2436 N2444 1.356 . S
C2437 C2436 1.363 . S
C2437 C2443 1.363 . S
C2438 C2439 1.363 . S
C2438 C2443 1.379 . S
C2438 N2445 1.356 . S
C2439 C2438 1.363 . S
C2439 C2442 1.363 . S
N2440 C2442 1.356 . S
N2440 H2452 0.984 . S
N2440 H2453 0.985 . S
N2441 C2443 1.356 . S
N2441 H2446 0.984 . S
N2441 H2447 0.985 . S
C2442 C2436 1.379 . S
C2442 C2439 1.363 . S
C2442 N2440 1.356 . S
C2443 C2437 1.363 . S
C2443 C2438 1.379 . S
C2443 N2441 1.356 . S
N2444 C2436 1.356 . S
N2444 H2450 0.984 . S
N2444 H2451 0.984 . S
N2445 C2438 1.356 . S
N2445 H2448 0.984 . S
N2445 H2449 0.985 . S
H2446 N2441 0.984 . S
H2447 N2441 0.985 . S
H2448 N2445 0.984 . S
H2449 N2445 0.985 . S
H2450 N2444 0.984 . S
H2451 N2444 0.984 . S
H2452 N2440 0.984 . S
H2453 N2440 0.985 . S
C2454 C2455 1.363 . S
C2454 C2460 1.379 . S
C2454 N2462 1.356 . S
C2455 C2454 1.363 . S
C2455 C2461 1.363 . S
C2456 C2457 1.368 . S
C2456 C2461 1.379 1_545 S
C2456 N2463 1.356 . S
C2457 C2456 1.368 . S
C2457 C2460 1.347 1_545 S
N2458 C2460 1.356 1_556 S
N2458 H2470 0.984 . S
N2458 H2471 0.985 . S
N2459 C2461 1.356 . S
N2459 H2464 0.984 . S
N2459 H2465 0.985 1_565 S
C2460 C2454 1.379 . S
C2460 C2457 1.347 1_565 S
C2460 N2458 1.356 1_554 S
C2461 C2455 1.363 . S
C2461 C2456 1.379 1_565 S
C2461 N2459 1.356 . S
N2462 C2454 1.356 . S
N2462 H2468 0.984 1_554 S
N2462 H2469 0.984 . S
N2463 C2456 1.356 . S
N2463 H2466 0.984 . S
N2463 H2467 0.985 . S
H2464 N2459 0.984 . S
H2465 N2459 0.985 1_545 S
H2466 N2463 0.984 . S
H2467 N2463 0.985 . S
H2468 N2462 0.984 1_556 S
H2469 N2462 0.984 . S
H2470 N2458 0.984 . S
H2471 N2458 0.985 . S
C2472 C2473 1.363 . S
C2472 C2478 1.379 . S
C2472 N2480 1.356 . S
C2473 C2472 1.363 . S
C2473 C2479 1.363 . S
C2474 C2475 1.363 . S
C2474 C2479 1.379 . S
C2474 N2481 1.356 . S
C2475 C2474 1.363 . S
C2475 C2478 1.363 . S
N2476 C2478 1.356 . S
N2476 H2488 0.984 . S
N2476 H2489 0.985 . S
N2477 C2479 1.356 . S
N2477 H2482 0.984 . S
N2477 H2483 0.985 . S
C2478 C2472 1.379 . S
C2478 C2475 1.363 . S
C2478 N2476 1.356 . S
C2479 C2473 1.363 . S
C2479 C2474 1.379 . S
C2479 N2477 1.356 . S
N2480 C2472 1.356 . S
N2480 H2486 0.984 . S
N2480 H2487 0.984 . S
N2481 C2474 1.356 . S
N2481 H2484 0.984 . S
N2481 H2485 0.985 . S
H2482 N2477 0.984 . S
H2483 N2477 0.985 . S
H2484 N2481 0.984 . S
H2485 N2481 0.985 . S
H2486 N2480 0.984 . S
H2487 N2480 0.984 . S
H2488 N2476 0.984 . S
H2489 N2476 0.985 . S
C2490 C2491 1.363 . S
C2490 C2496 1.379 . S
C2490 N2498 1.356 1_554 S
C2491 C2490 1.363 . S
C2491 C2497 1.363 . S
C2492 C2493 1.363 . S
C2492 C2497 1.379 . S
C2492 N2499 1.356 . S
C2493 C2492 1.363 . S
C2493 C2496 1.363 . S
N2494 C2496 1.356 . S
N2494 H2506 0.984 1_554 S
N2494 H2507 0.985 . S
N2495 C2497 1.356 . S
N2495 H2500 0.984 . S
N2495 H2501 0.985 . S
C2496 C2490 1.379 . S
C2496 C2493 1.363 . S
C2496 N2494 1.356 . S
C2497 C2491 1.363 . S
C2497 C2492 1.379 . S
C2497 N2495 1.356 . S
N2498 C2490 1.356 1_556 S
N2498 H2504 0.984 . S
N2498 H2505 0.984 . S
N2499 C2492 1.356 . S
N2499 H2502 0.984 . S
N2499 H2503 0.985 . S
H2500 N2495 0.984 . S
H2501 N2495 0.985 . S
H2502 N2499 0.984 . S
H2503 N2499 0.985 . S
H2504 N2498 0.984 . S
H2505 N2498 0.984 . S
H2506 N2494 0.984 1_556 S
H2507 N2494 0.985 . S
C2508 C2509 1.363 . S
C2508 C2514 1.379 . S
C2508 N2516 1.356 . S
C2509 C2508 1.363 . S
C2509 C2515 1.363 . S
C2510 C2511 1.363 . S
C2510 C2515 1.379 . S
C2510 N2517 1.356 . S
C2511 C2510 1.363 . S
C2511 C2514 1.363 . S
N2512 C2514 1.356 . S
N2512 H2524 0.984 . S
N2512 H2525 0.985 . S
N2513 C2515 1.356 . S
N2513 H2518 0.984 . S
N2513 H2519 0.985 . S
C2514 C2508 1.379 . S
C2514 C2511 1.363 . S
C2514 N2512 1.356 . S
C2515 C2509 1.363 . S
C2515 C2510 1.379 . S
C2515 N2513 1.356 . S
N2516 C2508 1.356 . S
N2516 H2522 0.984 . S
N2516 H2523 0.984 . S
N2517 C2510 1.356 . S
N2517 H2520 0.984 . S
N2517 H2521 0.985 . S
H2518 N2513 0.984 . S
H2519 N2513 0.985 . S
H2520 N2517 0.984 . S
H2521 N2517 0.985 . S
H2522 N2516 0.984 . S
H2523 N2516 0.984 . S
H2524 N2512 0.984 . S
H2525 N2512 0.985 . S
C2526 C2527 1.363 . S
C2526 C2532 1.379 . S
C2526 N2534 1.356 . S
C2527 C2526 1.363 . S
C2527 C2533 1.363 . S
C2528 C2529 1.363 . S
C2528 C2533 1.379 . S
C2528 N2535 1.356 . S
C2529 C2528 1.363 . S
C2529 C2532 1.363 . S
N2530 C2532 1.356 . S
N2530 H2542 0.984 . S
N2530 H2543 0.985 . S
N2531 C2533 1.356 . S
N2531 H2536 0.984 . S
N2531 H2537 0.985 . S
C2532 C2526 1.379 . S
C2532 C2529 1.363 . S
C2532 N2530 1.356 . S
C2533 C2527 1.363 . S
C2533 C2528 1.379 . S
C2533 N2531 1.356 . S
N2534 C2526 1.356 . S
N2534 H2540 0.984 . S
N2534 H2541 0.984 . S
N2535 C2528 1.356 . S
N2535 H2538 0.984 . S
N2535 H2539 0.985 . S
H2536 N2531 0.984 . S
H2537 N2531 0.985 . S
H2538 N2535 0.984 . S
H2539 N2535 0.985 . S
H2540 N2534 0.984 . S
H2541 N2534 0.984 . S
H2542 N2530 0.984 . S
H2543 N2530 0.985 . S
C819 C337 1.978 . S
C817 C8 1.982 . S
C835 C22 1.362 . S
C837 C382 1.319 . S
C853 C35 1.652 . S
C855 C406 1.666 . S
C873 N432 1.249 . S
C871 C49 1.142 . S
C889 C23 1.670 . S
C891 N462 1.756 . S
C909 C496 1.528 . S
C907 C34 1.515 . S
C927 C532 1.188 . S
C925 C48 1.144 . S
C943 C9 1.985 . S
C945 C556 1.969 . S
C961 C64 1.171 . S
C963 N350 1.191 . S
C979 C77 1.115 . S
C981 N372 1.191 . S
C999 C412 1.300 . S
C997 C92 1.322 . S
C1017 C436 1.909 . S
C1015 C105 1.898 . S
C1033 C63 1.240 . S
C1035 C466 1.261 . S
C1053 C502 1.410 . S
C1051 C78 1.436 . S
C1071 N522 1.271 . S
C1069 C91 1.183 . S
C1089 C562 1.896 . S
C1087 C106 1.896 . S
C1107 C363 1.839 . S
C1105 C107 1.864 . S
C1125 C592 1.108 . S
C1123 C118 1.063 . S
C1141 C135 1.396 . S
C1143 N612 1.468 . S
C1161 C646 1.691 . S
C1159 C146 1.684 . S
C1177 C65 1.168 . S
C1179 N552 1.171 . S
C1197 N402 1.497 1_565 S
C1195 C79 1.421 . S
C1213 C132 1.187 . S
C1215 C682 1.226 . S
C1233 C706 1.110 . S
C1231 C160 1.108 . S
C1249 C177 2.025 . S
C1251 C346 1.963 1_556 S
C1269 C723 0.959 . S
C1267 C188 0.947 . S
C1285 C204 1.961 . S
C1287 C397 1.934 . S
C1303 C219 1.277 . S
C1305 N680 1.282 . S
C1323 N470 1.372 . S
C1321 C190 1.369 . S
C1341 C607 1.613 . S
C1339 C202 1.600 . S
C1359 C543 1.148 . S
C1357 C217 1.116 . S
C1377 C727 1.790 . S
C1375 C175 1.763 . S
C1395 N342 1.050 1_655 S
C1393 C231 1.016 . S
C1411 C246 1.444 . S
C1413 N710 1.442 . S
C1431 C423 1.080 . S
C1429 C259 1.043 . S
C1447 C274 1.971 . S
C1449 C667 1.948 . S
C1465 C232 1.420 . S
C1467 C457 1.353 1_655 S
C1483 C245 1.089 . S
C1485 C633 1.126 . S
C1503 N530 1.304 . S
C1501 C260 1.301 . S
C1519 C273 1.747 . S
C1521 C753 1.745 . S
C1537 C275 1.924 . S
C1539 C352 1.881 1_565 S
C1555 C286 1.102 . S
C1557 C603 1.168 . S
C1573 C303 1.351 . S
C1575 N500 1.356 . S
C1591 C314 1.549 . S
C1593 C637 1.556 . S
C1611 N740 1.140 . S
C1609 C233 1.139 1_565 S
C1629 N410 1.320 . S
C1627 C247 1.315 . S
C1647 C453 1.119 . S
C1645 C300 1.083 . S
C1665 C367 1.175 . S
C1663 C328 1.185 . S
C1681 C36 1.970 . S
C1683 C757 1.966 . S
C1701 C712 1.322 . S
C1699 C50 1.364 . S
C1719 C796 1.646 . S
C1717 C7 1.638 . S
C1735 C21 1.135 . S
C1737 N672 1.239 . S
C1753 C51 1.654 . S
C1755 N582 1.738 1_556 S
C1773 C616 1.513 . S
C1771 C6 1.505 . S
C1791 C652 1.193 . S
C1789 C20 1.148 . S
C1809 C736 1.956 . S
C1807 C37 1.974 . S
C1827 N770 1.139 . S
C1825 C162 1.134 . S
C1843 C119 1.091 . S
C1845 N702 1.163 . S
C1861 C134 1.309 . S
C1863 C802 1.278 . S
C1881 C676 1.904 . S
C1879 C147 1.890 . S
C1899 C586 1.250 . S
C1897 C161 1.228 . S
C1915 C120 1.428 . S
C1917 C622 1.392 . S
C1935 N642 1.246 1_655 S
C1933 C133 1.162 . S
C1951 C148 1.853 . S
C1953 C742 1.851 . S
C1971 C783 1.869 . S
C1969 C149 1.880 . S
C1989 C472 1.048 1_565 S
C1987 C76 1.015 . S
C2007 N492 1.520 . S
C2005 C93 1.442 1_565 S
C2023 C104 1.650 . S
C2025 C526 1.660 . S
C2043 N732 1.158 . S
C2041 C163 1.158 . S
C2059 C121 1.374 . S
C2061 N792 1.445 . S
C2079 C442 1.176 . S
C2077 C90 1.136 . S
C2097 C376 1.080 . S
C2095 C62 1.075 . S
C2113 C203 1.781 . S
C2115 C766 1.770 . S
C2133 C393 1.012 . S
C2131 C216 0.988 . S
C2151 C787 1.724 . S
C2149 C174 1.703 . S
C2167 C191 1.287 . S
C2169 N440 1.287 . S
C2185 C218 1.362 . S
C2187 N590 1.365 . S
C2203 C176 1.846 . S
C2205 C487 1.815 . S
C2221 C189 1.077 . S
C2223 C663 1.100 . S
C2239 C205 2.067 . S
C2241 C547 2.017 . S
C2259 N762 1.023 . S
C2257 C329 0.996 . S
C2275 C288 1.426 . S
C2277 N380 1.424 . S
C2295 C813 1.010 . S
C2293 C301 0.990 . S
C2311 C316 1.922 . S
C2313 C427 1.896 . S
C2329 C330 1.468 . S
C2331 C577 1.403 . S
C2349 C513 1.202 . S
C2347 C287 1.144 . S
C2365 C302 1.320 . S
C2367 N650 1.322 . S
C2385 C573 1.768 . S
C2383 C315 1.754 . S
C2403 C772 1.825 . S
C2401 C317 1.883 . S
C2421 C483 1.141 . S
C2419 C244 1.089 . S
C2437 C261 1.363 . S
C2439 N620 1.366 . S
C2457 C517 1.548 . S
C2455 C272 1.541 . S
C2475 N560 1.158 . S
C2473 C331 1.156 . S
C2491 C289 1.328 . S
C2493 N800 1.332 . S
C2511 C693 1.132 . S
C2509 C258 1.086 . S
C2529 C697 1.193 . S
C2527 C230 1.192 . S
