# Generated by pormake.
# Topology ssb, (4,4)-cn, num edge types: 1
# Building blocks:
#     Node 0, Type 0, BuildingBlock: NAWXER_clean_sbu_0, # of connection points: 4
#     Node 1, Type 0, BuildingBlock: NAWXER_clean_sbu_0, # of connection points: 4
#     Node 2, Type 0, BuildingBlock: NAWXER_clean_sbu_0, # of connection points: 4
#     Node 3, Type 0, BuildingBlock: NAWXER_clean_sbu_0, # of connection points: 4
#     Node 4, Type 0, BuildingBlock: NAWXER_clean_sbu_0, # of connection points: 4
#     Node 5, Type 0, BuildingBlock: NAWXER_clean_sbu_0, # of connection points: 4
#     Node 6, Type 0, BuildingBlock: NAWXER_clean_sbu_0, # of connection points: 4
#     Node 7, Type 0, BuildingBlock: NAWXER_clean_sbu_0, # of connection points: 4
#     Node 8, Type 1, BuildingBlock: NAWXER_clean_sbu_0, # of connection points: 4
#     Node 9, Type 1, BuildingBlock: NAWXER_clean_sbu_0, # of connection points: 4
#     Node 10, Type 1, BuildingBlock: NAWXER_clean_sbu_0, # of connection points: 4
#     Node 11, Type 1, BuildingBlock: NAWXER_clean_sbu_0, # of connection points: 4
#     Node 12, Type 1, BuildingBlock: NAWXER_clean_sbu_0, # of connection points: 4
#     Node 13, Type 1, BuildingBlock: NAWXER_clean_sbu_0, # of connection points: 4
#     Node 14, Type 1, BuildingBlock: NAWXER_clean_sbu_0, # of connection points: 4
#     Node 15, Type 1, BuildingBlock: NAWXER_clean_sbu_0, # of connection points: 4
#     Edge 16, Type (0, 1), BuildingBlock: AJUNOK_clean_linker_0, # of connection points: 2
#     Edge 17, Type (0, 1), BuildingBlock: AJUNOK_clean_linker_0, # of connection points: 2
#     Edge 18, Type (0, 1), BuildingBlock: AJUNOK_clean_linker_0, # of connection points: 2
#     Edge 19, Type (0, 1), BuildingBlock: AJUNOK_clean_linker_0, # of connection points: 2
#     Edge 20, Type (0, 1), BuildingBlock: AJUNOK_clean_linker_0, # of connection points: 2
#     Edge 21, Type (0, 1), BuildingBlock: AJUNOK_clean_linker_0, # of connection points: 2
#     Edge 22, Type (0, 1), BuildingBlock: AJUNOK_clean_linker_0, # of connection points: 2
#     Edge 23, Type (0, 1), BuildingBlock: AJUNOK_clean_linker_0, # of connection points: 2
#     Edge 24, Type (0, 1), BuildingBlock: AJUNOK_clean_linker_0, # of connection points: 2
#     Edge 25, Type (0, 1), BuildingBlock: AJUNOK_clean_linker_0, # of connection points: 2
#     Edge 26, Type (0, 1), BuildingBlock: AJUNOK_clean_linker_0, # of connection points: 2
#     Edge 27, Type (0, 1), BuildingBlock: AJUNOK_clean_linker_0, # of connection points: 2
#     Edge 28, Type (0, 1), BuildingBlock: AJUNOK_clean_linker_0, # of connection points: 2
#     Edge 29, Type (0, 1), BuildingBlock: AJUNOK_clean_linker_0, # of connection points: 2
#     Edge 30, Type (0, 1), BuildingBlock: AJUNOK_clean_linker_0, # of connection points: 2
#     Edge 31, Type (0, 1), BuildingBlock: AJUNOK_clean_linker_0, # of connection points: 2
#     Edge 32, Type (0, 1), BuildingBlock: AJUNOK_clean_linker_0, # of connection points: 2
#     Edge 33, Type (0, 1), BuildingBlock: AJUNOK_clean_linker_0, # of connection points: 2
#     Edge 34, Type (0, 1), BuildingBlock: AJUNOK_clean_linker_0, # of connection points: 2
#     Edge 35, Type (0, 1), BuildingBlock: AJUNOK_clean_linker_0, # of connection points: 2
#     Edge 36, Type (0, 1), BuildingBlock: AJUNOK_clean_linker_0, # of connection points: 2
#     Edge 37, Type (0, 1), BuildingBlock: AJUNOK_clean_linker_0, # of connection points: 2
#     Edge 38, Type (0, 1), BuildingBlock: AJUNOK_clean_linker_0, # of connection points: 2
#     Edge 39, Type (0, 1), BuildingBlock: AJUNOK_clean_linker_0, # of connection points: 2
#     Edge 40, Type (0, 1), BuildingBlock: AJUNOK_clean_linker_0, # of connection points: 2
#     Edge 41, Type (0, 1), BuildingBlock: AJUNOK_clean_linker_0, # of connection points: 2
#     Edge 42, Type (0, 1), BuildingBlock: AJUNOK_clean_linker_0, # of connection points: 2
#     Edge 43, Type (0, 1), BuildingBlock: AJUNOK_clean_linker_0, # of connection points: 2
#     Edge 44, Type (0, 1), BuildingBlock: AJUNOK_clean_linker_0, # of connection points: 2
#     Edge 45, Type (0, 1), BuildingBlock: AJUNOK_clean_linker_0, # of connection points: 2
#     Edge 46, Type (0, 1), BuildingBlock: AJUNOK_clean_linker_0, # of connection points: 2
#     Edge 47, Type (0, 1), BuildingBlock: AJUNOK_clean_linker_0, # of connection points: 2
# Relax obj value: 0.002
# Max RMSD: 0.009
# Mean RMSD: 0.008
data_MOF--net-ssb--node1-NAWXER_clean_sbu_0--node2-NAWXER_clean_sbu_0--edge1-AJUNOK_clean_linker_0
_symmetry_space_group_name_H-M    P1
_symmetry_Int_Tables_number       1
_symmetry_cell_setting            triclinic
loop_
_symmetry_equiv_pos_as_xyz
'x, y, z'
_cell_length_a     31.980539
_cell_length_b     32.155495
_cell_length_c     26.852673
_cell_angle_alpha  90.266593
_cell_angle_beta   89.550095
_cell_angle_gamma 90.795499
loop_
_atom_site_label
_atom_site_type_symbol
_atom_site_fract_x
_atom_site_fract_y
_atom_site_fract_z
_atom_type_partial_charge
C0 C 0.18878 0.32999 0.36583 0.0
C1 C 0.3037 0.26632 0.26882 0.0
O2 O 0.17641 0.30473 0.33165 0.0
Zn3 Zn 0.20255 0.26517 0.2745 0.0
O4 O 0.22779 0.337 0.37087 0.0
Zn5 Zn 0.24691 0.29994 0.31764 0.0
O6 O 0.22616 0.32992 0.25181 0.0
O7 O 0.18027 0.28939 0.21375 0.0
O8 O 0.3062 0.29266 0.30422 0.0
O9 O 0.26732 0.25399 0.25457 0.0
O10 O 0.18336 0.21045 0.29756 0.0
O11 O 0.22908 0.24103 0.3471 0.0
C12 C 0.2011 0.32335 0.21549 0.0
C13 C 0.2049 0.21005 0.33722 0.0
C14 C 0.68619 0.28164 0.26645 0.0
C15 C 0.81387 0.29329 0.36249 0.0
O16 O 0.68908 0.29494 0.31096 0.0
Zn17 Zn 0.74847 0.28564 0.31769 0.0
O18 O 0.71756 0.26442 0.24516 0.0
Zn19 Zn 0.78205 0.25315 0.26042 0.0
O20 O 0.78937 0.1929 0.26774 0.0
O21 O 0.75455 0.22063 0.33053 0.0
O22 O 0.81855 0.27383 0.32126 0.0
O23 O 0.7782 0.30747 0.37452 0.0
O24 O 0.77245 0.32383 0.25867 0.0
O25 O 0.80724 0.28438 0.20571 0.0
C26 C 0.77165 0.18901 0.31011 0.0
C27 C 0.79347 0.31999 0.21817 0.0
C28 C 0.83419 0.69567 0.21457 0.0
C29 C 0.77828 0.80044 0.33108 0.0
O30 O 0.80532 0.68156 0.24368 0.0
Zn31 Zn 0.76328 0.70411 0.30154 0.0
O32 O 0.84342 0.73434 0.21505 0.0
Zn33 Zn 0.8045 0.74862 0.26848 0.0
O34 O 0.83072 0.71174 0.32675 0.0
O35 O 0.78198 0.66896 0.35639 0.0
O36 O 0.8048 0.80462 0.29592 0.0
O37 O 0.76026 0.76484 0.33699 0.0
O38 O 0.70838 0.69442 0.27051 0.0
O39 O 0.74622 0.74117 0.23053 0.0
C40 C 0.81966 0.68233 0.35631 0.0
C41 C 0.7125 0.71935 0.2341 0.0
C42 C 0.24496 0.70716 0.18808 0.0
C43 C 0.25542 0.83998 0.27788 0.0
O44 O 0.22711 0.74084 0.17642 0.0
Zn45 Zn 0.2433 0.77478 0.234 0.0
O46 O 0.26357 0.70482 0.22995 0.0
Zn47 Zn 0.27709 0.74339 0.29209 0.0
O48 O 0.24386 0.72196 0.34785 0.0
O49 O 0.20487 0.75512 0.29421 0.0
O50 O 0.27057 0.80877 0.30048 0.0
O51 O 0.2351 0.83496 0.23754 0.0
O52 O 0.3097 0.77594 0.22786 0.0
O53 O 0.33809 0.74234 0.29076 0.0
C54 C 0.20838 0.73591 0.33555 0.0
C55 C 0.34207 0.76397 0.25123 0.0
C56 C 0.31054 0.77109 0.84842 0.0
C57 C 0.17824 0.75779 0.75287 0.0
O58 O 0.27631 0.78897 0.85936 0.0
Zn59 Zn 0.24224 0.77265 0.80077 0.0
O60 O 0.31375 0.75242 0.80638 0.0
Zn61 Zn 0.2766 0.73856 0.7431 0.0
O62 O 0.29815 0.77235 0.68716 0.0
O63 O 0.262 0.8099 0.74058 0.0
O64 O 0.21127 0.74365 0.73227 0.0
O65 O 0.18077 0.77838 0.79364 0.0
O66 O 0.24114 0.70739 0.80678 0.0
O67 O 0.27639 0.67745 0.74528 0.0
C68 C 0.28189 0.80694 0.69925 0.0
C69 C 0.25293 0.67465 0.78391 0.0
C70 C 0.32569 0.19981 0.69339 0.0
C71 C 0.3001 0.33275 0.77634 0.0
O72 O 0.3012 0.19666 0.73119 0.0
Zn73 Zn 0.2734 0.23596 0.78521 0.0
O74 O 0.34007 0.2354 0.6814 0.0
Zn75 Zn 0.3125 0.26823 0.73279 0.0
O76 O 0.34188 0.2526 0.80096 0.0
O77 O 0.29609 0.21927 0.84845 0.0
O78 O 0.32342 0.32782 0.73812 0.0
O79 O 0.27959 0.30197 0.7949 0.0
O80 O 0.21424 0.22874 0.7732 0.0
O81 O 0.24676 0.26586 0.71516 0.0
C82 C 0.33202 0.23616 0.84282 0.0
C83 C 0.21295 0.24998 0.73347 0.0
C84 C 0.75404 0.18141 0.7533 0.0
C85 C 0.79356 0.30195 0.86105 0.0
O86 O 0.73257 0.21416 0.74677 0.0
Zn87 Zn 0.72691 0.27467 0.77732 0.0
O88 O 0.78116 0.18122 0.78788 0.0
Zn89 Zn 0.77368 0.23792 0.81475 0.0
O90 O 0.71348 0.23558 0.85099 0.0
O91 O 0.67092 0.27422 0.80765 0.0
O92 O 0.80992 0.26611 0.86522 0.0
O93 O 0.76267 0.30634 0.83172 0.0
O94 O 0.74491 0.30993 0.72046 0.0
O95 O 0.79601 0.27393 0.75365 0.0
C96 C 0.67693 0.25061 0.84484 0.0
C97 C 0.78351 0.30042 0.72199 0.0
C98 C 0.79934 0.76238 0.70955 0.0
C99 C 0.69625 0.81567 0.82598 0.0
O100 O 0.76001 0.76282 0.70291 0.0
Zn101 Zn 0.74762 0.7874 0.76727 0.0
O102 O 0.81507 0.77497 0.75069 0.0
Zn103 Zn 0.79568 0.80378 0.81845 0.0
O104 O 0.81351 0.76328 0.86676 0.0
O105 O 0.76249 0.73889 0.81969 0.0
O106 O 0.73348 0.8191 0.84327 0.0
O107 O 0.69093 0.80051 0.78276 0.0
O108 O 0.77754 0.84612 0.75411 0.0
O109 O 0.82686 0.85633 0.81015 0.0
C110 C 0.78827 0.73383 0.8555 0.0
C111 C 0.80794 0.86797 0.77124 0.0
C112 C 0.93986 0.33966 0.62708 0.0
C113 C 0.06033 0.35702 0.51184 0.0
O114 O 0.96014 0.37372 0.62098 0.0
Zn115 Zn 1.0043 0.35193 0.57571 0.0
O116 O 0.95459 0.30598 0.60911 0.0
Zn117 Zn 1.00446 0.28519 0.56334 0.0
O118 O 0.04031 0.25202 0.60549 0.0
O119 O 0.04663 0.31913 0.62095 0.0
O120 O 0.0479 0.31957 0.5191 0.0
O121 O 0.0439 0.3867 0.53647 0.0
O122 O 0.96481 0.32882 0.51823 0.0
O123 O 0.97074 0.26047 0.51116 0.0
C124 C 0.05835 0.28179 0.62853 0.0
C125 C 0.95374 0.29433 0.49804 0.0
C126 C 0.74895 0.05559 0.5958 0.0
C127 C 0.76003 0.93827 0.47379 0.0
O128 O 0.78508 0.04949 0.57655 0.0
Zn129 Zn 0.81641 1.01011 0.52472 0.0
O130 O 0.71764 0.03411 0.58043 0.0
Zn131 Zn 0.74907 0.99786 0.53353 0.0
O132 O 0.7873 0.97027 0.58714 0.0
O133 O 0.85436 0.9835 0.57336 0.0
O134 O 0.72656 0.94896 0.49629 0.0
O135 O 0.79385 0.95884 0.48211 0.0
O136 O 0.83299 0.04998 0.47174 0.0
O137 O 0.76478 0.04049 0.4765 0.0
C138 C 0.82542 0.96729 0.6003 0.0
C139 C 0.79649 0.05828 0.45603 0.0
C140 C 0.93792 0.74725 0.57435 0.0
C141 C 0.0632 0.73419 0.46868 0.0
O142 O 0.95202 0.77638 0.54651 0.0
Zn143 Zn 1.00003 0.7449 0.52132 0.0
O144 O 0.95692 0.71267 0.5764 0.0
Zn145 Zn 1.00783 0.68084 0.54556 0.0
O146 O 0.04047 0.67205 0.60554 0.0
O147 O 0.03599 0.73863 0.58723 0.0
O148 O 0.05369 0.70145 0.49347 0.0
O149 O 0.04031 0.76615 0.47266 0.0
O150 O 0.96617 0.6998 0.48052 0.0
O151 O 0.97576 0.63685 0.51082 0.0
C152 C 0.0488 0.70997 0.61606 0.0
C153 C 0.9581 0.66082 0.47998 0.0
C154 C 0.31933 0.06081 0.55788 0.0
C155 C 0.28696 0.97043 0.41641 0.0
O156 O 0.34507 0.04897 0.52451 0.0
Zn157 Zn 0.30601 1.01304 0.48877 0.0
O158 O 0.28151 0.04711 0.55752 0.0
Zn159 Zn 0.24224 1.00736 0.51356 0.0
O160 O 0.2279 0.96297 0.55914 0.0
O161 O 0.29477 0.96205 0.53874 0.0
O162 O 0.25591 0.97584 0.44593 0.0
O163 O 0.32255 0.98596 0.42733 0.0
O164 O 0.26401 0.05852 0.46151 0.0
O165 O 0.20001 0.04586 0.49018 0.0
C166 C 0.26362 0.9464 0.56286 0.0
C167 C 0.22523 0.0677 0.46393 0.0
C168 C 0.47937 0.79744 0.12248 0.0
C169 C 0.56633 0.81752 0.97449 0.0
O170 O 0.49279 0.83237 0.1063 0.0
Zn171 Zn 0.52121 0.81048 0.04788 0.0
O172 O 0.48625 0.76417 0.09771 0.0
Zn173 Zn 0.5181 0.74423 0.03294 0.0
O174 O 0.55988 0.70815 0.06459 0.0
O175 O 0.56851 0.77476 0.08243 0.0
O176 O 0.55463 0.77978 0.98181 0.0
O177 O 0.55489 0.84604 1.00441 0.0
O178 O 0.46954 0.79186 1.00199 0.0
O179 O 0.472 0.72409 0.99042 0.0
C180 C 0.5801 0.73705 0.08698 0.0
C181 C 0.45397 0.75859 0.9828 0.0
C182 C 0.25822 0.56393 0.05486 0.0
C183 C 0.28193 0.45067 0.93458 0.0
O184 O 0.29337 0.54756 0.04483 0.0
Zn185 Zn 0.27373 0.50341 1.00021 0.0
O186 O 0.22476 0.54789 0.03671 0.0
Zn187 Zn 0.20635 0.49818 0.98885 0.0
O188 O 0.17515 0.459 0.0314 0.0
O189 O 0.2425 0.4614 0.04845 0.0
O190 O 0.24373 0.45874 0.94451 0.0
O191 O 0.31087 0.46794 0.96014 0.0
O192 O 0.24973 0.53783 0.94054 0.0
O193 O 0.18122 0.52881 0.93412 0.0
C194 C 0.20576 0.44676 0.05726 0.0
C195 C 0.21558 0.54434 0.91771 0.0
C196 C 0.55289 0.22954 1.00457 0.0
C197 C 0.44556 0.22944 0.14159 0.0
O198 O 0.53746 0.26447 1.0171 0.0
Zn199 Zn 0.49562 0.29139 0.06796 0.0
O200 O 0.54234 0.19705 1.0291 0.0
Zn201 Zn 0.50083 0.22322 0.07593 0.0
O202 O 0.45569 0.24317 1.02577 0.0
O203 O 0.45449 0.31189 1.02088 0.0
O204 O 0.4626 0.19623 0.12539 0.0
O205 O 0.45606 0.26456 0.12288 0.0
O206 O 0.53273 0.32607 0.1088 0.0
O207 O 0.53926 0.25874 0.12338 0.0
C208 C 0.4404 0.27622 1.00771 0.0
C209 C 0.54893 0.29654 0.13322 0.0
C210 C 0.87261 0.5682 0.07777 0.0
C211 C 0.84714 0.45722 0.95412 0.0
O212 O 0.90158 0.54976 0.05383 0.0
Zn213 Zn 0.86414 0.51448 1.013 0.0
O214 O 0.83431 0.5588 0.06991 0.0
Zn215 Zn 0.7969 0.51963 1.02525 0.0
O216 O 0.77019 0.48391 0.07541 0.0
O217 O 0.83802 0.47347 0.0671 0.0
O218 O 0.81464 0.47402 0.97304 0.0
O219 O 0.88331 0.47157 0.96505 0.0
O220 O 0.83446 0.56158 0.96997 0.0
O221 O 0.76672 0.56046 0.98615 0.0
C222 C 0.80275 0.46372 0.0869 0.0
C223 C 0.798 0.57671 0.9635 0.0
C224 C 0.11449 0.34496 0.38857 0.0
C225 C 0.15717 0.34729 0.40119 0.0
C226 C 0.08301 0.35271 0.42389 0.0
C227 C 0.09276 0.36369 0.47315 0.0
H228 H 0.10512 0.33476 0.35175 0.0
H229 H 0.05071 0.34736 0.4134 0.0
S230 S 0.19901 0.37768 0.52495 0.0
N231 N 0.20729 0.36451 0.46617 0.0
N232 N 0.14771 0.37905 0.53238 0.0
C233 C 0.13504 0.36902 0.48564 0.0
C234 C 0.16735 0.36097 0.44964 0.0
C235 C 0.81466 0.13124 0.34506 0.0
C236 C 0.7757 0.15079 0.34044 0.0
C237 C 0.8214 0.10116 0.3822 0.0
C238 C 0.78925 0.08914 0.41558 0.0
H239 H 0.84073 0.14083 0.32162 0.0
H240 H 0.85213 0.0877 0.38519 0.0
S241 S 0.68078 0.12981 0.41679 0.0
N242 N 0.70436 0.15502 0.37091 0.0
N243 N 0.71626 0.09857 0.43967 0.0
C244 C 0.74969 0.10752 0.40979 0.0
C245 C 0.74314 0.13827 0.37254 0.0
C246 C 0.89259 0.65874 0.36701 0.0
C247 C 0.85229 0.66367 0.38757 0.0
C248 C 0.92712 0.65093 0.3972 0.0
C249 C 0.92259 0.64756 0.44903 0.0
H250 H 0.89798 0.66383 0.32758 0.0
H251 H 0.95806 0.65159 0.38044 0.0
S252 S 0.82348 0.65472 0.5209 0.0
N253 N 0.80932 0.6613 0.46242 0.0
N254 N 0.87445 0.64696 0.5194 0.0
C255 C 0.88199 0.64884 0.46958 0.0
C256 C 0.8467 0.6568 0.43876 0.0
C257 C 0.23162 0.90487 0.31901 0.0
C258 C 0.26428 0.88104 0.29964 0.0
C259 C 0.23973 0.93596 0.3546 0.0
C260 C 0.28073 0.94414 0.37167 0.0
H261 H 0.19948 0.89716 0.30991 0.0
H262 H 0.21337 0.95206 0.37087 0.0
S263 S 0.37738 0.89369 0.32617 0.0
N264 N 0.3392 0.87021 0.29546 0.0
N265 N 0.35462 0.92899 0.36163 0.0
C266 C 0.31391 0.92299 0.34892 0.0
C267 C 0.30558 0.89124 0.3131 0.0
C268 C 0.13383 0.70399 0.71284 0.0
C269 C 0.13832 0.74549 0.72937 0.0
C270 C 0.10288 0.69213 0.67885 0.0
C271 C 0.07566 0.72153 0.65907 0.0
H272 H 0.15616 0.68084 0.72396 0.0
H273 H 0.1022 0.66026 0.66559 0.0
S274 S 0.07126 0.83335 0.69472 0.0
N275 N 0.11064 0.81519 0.7272 0.0
N276 N 0.05228 0.7934 0.66277 0.0
C277 C 0.07795 0.76268 0.67788 0.0
C278 C 0.10932 0.77456 0.71319 0.0
C279 C 0.31329 0.12454 0.67531 0.0
C280 C 0.33269 0.16246 0.66166 0.0
C281 C 0.31192 0.09066 0.64257 0.0
C282 C 0.33051 0.0929 0.59512 0.0
H283 H 0.29692 0.12149 0.71061 0.0
H284 H 0.29442 0.06308 0.65365 0.0
S285 S 0.39005 0.1826 0.5432 0.0
N286 N 0.37459 0.19864 0.59882 0.0
N287 N 0.37233 0.13433 0.53748 0.0
C288 C 0.35297 0.12919 0.58229 0.0
C289 C 0.354 0.16414 0.61552 0.0
C290 C 0.82773 0.30277 0.64584 0.0
C291 C 0.81613 0.32101 0.69128 0.0
C292 C 0.86712 0.31107 0.62442 0.0
C293 C 0.89652 0.33794 0.64753 0.0
H294 H 0.80756 0.27956 0.62866 0.0
H295 H 0.87537 0.29472 0.59043 0.0
S296 S 0.88011 0.39518 0.76586 0.0
N297 N 0.83616 0.3684 0.75792 0.0
N298 N 0.90994 0.38471 0.71694 0.0
C299 C 0.88424 0.35846 0.69135 0.0
C300 C 0.84416 0.34966 0.71347 0.0
C301 C 0.79972 0.9365 0.73179 0.0
C302 C 0.8244 0.90145 0.73902 0.0
C303 C 0.80398 0.96037 0.68853 0.0
C304 C 0.8325 0.94965 0.65035 0.0
H305 H 0.77455 0.94342 0.75765 0.0
H306 H 0.78229 0.98554 0.68312 0.0
S307 S 0.90774 0.8634 0.65417 0.0
N308 N 0.88133 0.85942 0.70714 0.0
N309 N 0.88886 0.90423 0.62517 0.0
C310 C 0.85995 0.91692 0.65905 0.0
C311 C 0.85585 0.89271 0.70356 0.0
C312 C 0.863 0.72824 0.68067 0.0
C313 C 0.82879 0.753 0.66927 0.0
C314 C 0.89789 0.72714 0.64948 0.0
C315 C 0.90027 0.75121 0.60584 0.0
H316 H 0.86353 0.71091 0.71519 0.0
H317 H 0.92381 0.70799 0.66057 0.0
S318 S 0.81806 0.82058 0.5587 0.0
N319 N 0.79841 0.8017 0.61121 0.0
N320 N 0.86452 0.79929 0.55161 0.0
C321 C 0.86574 0.77536 0.5931 0.0
C322 C 0.82977 0.77622 0.625 0.0
C323 C 0.24743 0.87144 0.67015 0.0
C324 C 0.27983 0.84246 0.66401 0.0
C325 C 0.24224 0.90435 0.63694 0.0
C326 C 0.26963 0.91035 0.59642 0.0
H327 H 0.2251 0.86839 0.70053 0.0
H328 H 0.21675 0.92555 0.64352 0.0
S329 S 0.35957 0.84355 0.56303 0.0
N330 N 0.33949 0.82177 0.61361 0.0
N331 N 0.33045 0.88441 0.55159 0.0
C332 C 0.30242 0.88189 0.58978 0.0
C333 C 0.3073 0.84775 0.62334 0.0
C334 C 0.14163 0.22742 0.70445 0.0
C335 C 0.17259 0.25863 0.7095 0.0
C336 C 0.10426 0.2351 0.67892 0.0
C337 C 0.09618 0.27459 0.65891 0.0
H338 H 0.14687 0.19656 0.71895 0.0
H339 H 0.08174 0.20991 0.67454 0.0
S340 S 0.16652 0.36755 0.66588 0.0
N341 N 0.19223 0.33068 0.69458 0.0
N342 N 0.12211 0.34569 0.64797 0.0
C343 C 0.12652 0.30638 0.66549 0.0
C344 C 0.1647 0.29825 0.69041 0.0
C345 C 0.78289 0.1191 0.70873 0.0
C346 C 0.74938 0.14604 0.71736 0.0
C347 C 0.78159 0.08948 0.67015 0.0
C348 C 0.74649 0.0849 0.63888 0.0
H349 H 0.81114 0.12202 0.73053 0.0
H350 H 0.80881 0.07031 0.66432 0.0
S351 S 0.64874 0.14487 0.6487 0.0
N352 N 0.67865 0.16429 0.69324 0.0
N353 N 0.67628 0.10798 0.62144 0.0
C354 C 0.71186 0.11003 0.64866 0.0
C355 C 0.71335 0.14076 0.68759 0.0
C356 C 0.88175 0.26592 0.39187 0.0
C357 C 0.84943 0.29514 0.39705 0.0
C358 C 0.91536 0.26541 0.42488 0.0
C359 C 0.91821 0.2946 0.46359 0.0
H360 H 0.88082 0.24269 0.36254 0.0
H361 H 0.93942 0.24235 0.41975 0.0
S362 S 0.84139 0.37682 0.49427 0.0
N363 N 0.82199 0.35321 0.44469 0.0
N364 N 0.88547 0.35292 0.50638 0.0
C365 C 0.88613 0.32399 0.46928 0.0
C366 C 0.85162 0.32407 0.43612 0.0
C367 C 0.79717 0.87103 0.36537 0.0
C368 C 0.77049 0.83582 0.36648 0.0
C369 C 0.79286 0.90376 0.39971 0.0
C370 C 0.76129 0.90343 0.43666 0.0
H371 H 0.82238 0.87312 0.33828 0.0
H372 H 0.81479 0.92967 0.39724 0.0
S373 S 0.68208 0.81947 0.45535 0.0
N374 N 0.71049 0.80313 0.40766 0.0
N375 N 0.70214 0.86513 0.47163 0.0
C376 C 0.73362 0.86902 0.43766 0.0
C377 C 0.73832 0.83518 0.40289 0.0
C378 C 0.13815 0.76119 0.36279 0.0
C379 C 0.17168 0.73379 0.36983 0.0
C380 C 0.10357 0.76157 0.39522 0.0
C381 C 0.10069 0.73413 0.43566 0.0
H382 H 0.13874 0.78309 0.33227 0.0
H383 H 0.07869 0.78323 0.38812 0.0
S384 S 0.18006 0.65647 0.4712 0.0
N385 N 0.1999 0.67887 0.42094 0.0
N386 N 0.13474 0.67905 0.48155 0.0
C387 C 0.13393 0.70647 0.4432 0.0
C388 C 0.16943 0.70647 0.41046 0.0
C389 C 0.23016 0.17614 0.41428 0.0
C390 C 0.20406 0.17433 0.3722 0.0
C391 C 0.2343 0.14209 0.44576 0.0
C392 C 0.21199 0.10498 0.43725 0.0
H393 H 0.24903 0.20357 0.42222 0.0
H394 H 0.25652 0.14426 0.47601 0.0
S395 S 0.13693 0.08432 0.33554 0.0
N396 N 0.15342 0.13256 0.32576 0.0
N397 N 0.1612 0.06841 0.38597 0.0
C398 C 0.184 0.10307 0.3973 0.0
C399 C 0.18003 0.1378 0.36453 0.0
C400 C 0.66537 0.84536 0.90444 0.0
C401 C 0.65975 0.82401 0.8589 0.0
C402 C 0.63338 0.84658 0.94056 0.0
C403 C 0.59501 0.82601 0.93251 0.0
H404 H 0.69534 0.85952 0.91329 0.0
H405 H 0.63981 0.86106 0.97626 0.0
S406 S 0.56219 0.77026 0.81797 0.0
N407 N 0.61069 0.78571 0.8062 0.0
N408 N 0.55136 0.78733 0.87461 0.0
C409 C 0.58794 0.80705 0.88614 0.0
C410 C 0.62009 0.80629 0.84911 0.0
C411 C 0.2658 0.60215 0.81118 0.0
C412 C 0.238 0.63479 0.80452 0.0
C413 C 0.25618 0.57034 0.84496 0.0
C414 C 0.21844 0.57019 0.87273 0.0
H415 H 0.29654 0.60318 0.79391 0.0
H416 H 0.27979 0.54728 0.85203 0.0
S417 S 0.13171 0.64409 0.86015 0.0
N418 N 0.16843 0.66162 0.82178 0.0
N419 N 0.15064 0.60157 0.88521 0.0
C420 C 0.18843 0.59987 0.86186 0.0
C421 C 0.19824 0.63237 0.82772 0.0
C422 C 0.39236 0.27449 0.88072 0.0
C423 C 0.35936 0.24507 0.88601 0.0
C424 C 0.41651 0.28728 0.92139 0.0
C425 C 0.40899 0.27068 0.96871 0.0
H426 H 0.39971 0.28803 0.84481 0.0
H427 H 0.44242 0.30877 0.91527 0.0
S428 S 0.32696 0.19333 1.00362 0.0
N429 N 0.3203 0.20053 0.94335 0.0
N430 N 0.36674 0.22375 1.0195 0.0
C431 C 0.37621 0.24153 0.97491 0.0
C432 C 0.35118 0.22888 0.93367 0.0
C433 C 0.78854 0.37779 0.87826 0.0
C434 C 0.81079 0.34063 0.88473 0.0
C435 C 0.80287 0.41569 0.89736 0.0
C436 C 0.84016 0.4188 0.92434 0.0
H437 H 0.7591 0.37791 0.85859 0.0
H438 H 0.78351 0.44276 0.89246 0.0
S439 S 0.91235 0.33221 0.94961 0.0
N440 N 0.87392 0.31008 0.91778 0.0
N441 N 0.90053 0.38193 0.95503 0.0
C442 C 0.86389 0.38253 0.92988 0.0
C443 C 0.8492 0.34336 0.91003 0.0
C444 C 0.60904 0.28141 0.2512 0.0
C445 C 0.64981 0.2919 0.2358 0.0
C446 C 0.57525 0.28651 0.21881 0.0
C447 C 0.58113 0.30367 0.17102 0.0
H448 H 0.60361 0.26691 0.28704 0.0
H449 H 0.54466 0.27497 0.23016 0.0
S450 S 0.68123 0.34052 0.11584 0.0
N451 N 0.69389 0.32301 0.17137 0.0
N452 N 0.63007 0.33381 0.1115 0.0
C453 C 0.62125 0.31704 0.15681 0.0
C454 C 0.65573 0.31083 0.18904 0.0
C455 C 0.86103 0.62473 0.19748 0.0
C456 C 0.85597 0.66596 0.18134 0.0
C457 C 0.87304 0.59326 0.16429 0.0
C458 C 0.88051 0.60185 0.11379 0.0
H459 H 0.85313 0.61618 0.23543 0.0
H460 H 0.87265 0.56137 0.17723 0.0
S461 S 0.87534 0.70503 0.05351 0.0
N462 N 0.863 0.71428 0.11238 0.0
N463 N 0.88496 0.65474 0.04979 0.0
C464 C 0.87889 0.6434 0.09801 0.0
C465 C 0.86683 0.67563 0.13189 0.0
C466 C 0.38612 0.81438 0.20442 0.0
C467 C 0.38303 0.77644 0.23044 0.0
C468 C 0.42026 0.82338 0.17333 0.0
C469 C 0.45193 0.79426 0.16647 0.0
H470 H 0.3606 0.83617 0.20541 0.0
H471 H 0.4198 0.85144 0.15117 0.0
S472 S 0.4622 0.69369 0.23225 0.0
N473 N 0.4173 0.71233 0.25266 0.0
N474 N 0.48146 0.72874 0.19322 0.0
C475 C 0.45124 0.75799 0.19577 0.0
C476 C 0.41671 0.74917 0.22812 0.0
C477 C 0.22902 0.38738 0.17464 0.0
C478 C 0.19885 0.35509 0.17546 0.0
C479 C 0.22995 0.41709 0.13692 0.0
C480 C 0.20054 0.41636 0.0983 0.0
H481 H 0.25294 0.3895 0.20291 0.0
H482 H 0.25439 0.44077 0.13796 0.0
S483 S 0.11361 0.33983 0.08376 0.0
N484 N 0.1377 0.32495 0.13477 0.0
N485 N 0.13932 0.38151 0.06374 0.0
C486 C 0.16929 0.38512 0.0991 0.0
C487 C 0.16857 0.35429 0.13757 0.0
C488 C 0.33874 0.222 0.20296 0.0
C489 C 0.34208 0.2515 0.24205 0.0
C490 C 0.37352 0.21139 0.17308 0.0
C491 C 0.41295 0.22988 0.18114 0.0
H492 H 0.30865 0.20822 0.1939 0.0
H493 H 0.36884 0.19084 0.14146 0.0
S494 S 0.44016 0.30539 0.28091 0.0
N495 N 0.38969 0.29606 0.28925 0.0
N496 N 0.45424 0.2766 0.23274 0.0
C497 C 0.41729 0.25748 0.22158 0.0
C498 C 0.38215 0.26812 0.25215 0.0
C499 C 0.77102 0.39091 0.192 0.0
C500 C 0.79757 0.35658 0.18477 0.0
C501 C 0.77217 0.4252 0.15987 0.0
C502 C 0.80061 0.42697 0.11992 0.0
H503 H 0.74843 0.39108 0.2223 0.0
H504 H 0.7511 0.45069 0.16678 0.0
S505 S 0.87636 0.3453 0.0838 0.0
N506 N 0.85251 0.32648 0.13372 0.0
N507 N 0.8554 0.39112 0.07391 0.0
C508 C 0.8274 0.39299 0.11222 0.0
C509 C 0.82574 0.35778 0.14445 0.0
C510 C 0.64547 0.69433 0.19299 0.0
C511 C 0.67967 0.72259 0.1948 0.0
C512 C 0.61438 0.69728 0.15614 0.0
C513 C 0.61613 0.72884 0.12001 0.0
H514 H 0.64242 0.66994 0.22051 0.0
H515 H 0.58797 0.67583 0.15722 0.0
S516 S 0.69978 0.80906 0.10573 0.0
N517 N 0.71384 0.78202 0.15476 0.0
N518 N 0.65558 0.7875 0.08668 0.0
C519 C 0.65054 0.75649 0.12057 0.0
C520 C 0.68222 0.7534 0.15757 0.0
C521 C 0.27987 0.64236 0.15814 0.0
C522 C 0.24749 0.67139 0.1529 0.0
C523 C 0.28384 0.60831 0.12563 0.0
C524 C 0.25512 0.60142 0.0871 0.0
H525 H 0.3027 0.64607 0.18748 0.0
H526 H 0.30908 0.58677 0.13141 0.0
S527 S 0.16557 0.66871 0.0559 0.0
N528 N 0.18705 0.69153 0.10483 0.0
N529 N 0.1939 0.62717 0.04432 0.0
C530 C 0.22279 0.63034 0.08105 0.0
C531 C 0.21917 0.66541 0.11371 0.0
C532 C 0.37566 0.73662 0.87891 0.0
C533 C 0.34603 0.76858 0.88437 0.0
C534 C 0.40958 0.73281 0.9116 0.0
C535 C 0.416 0.76127 0.9508 0.0
H536 H 0.37258 0.71399 0.8491 0.0
H537 H 0.43151 0.70792 0.90531 0.0
S538 S 0.34714 0.84982 0.98293 0.0
N539 N 0.32491 0.82836 0.9336 0.0
N540 N 0.38898 0.82194 0.99423 0.0
C541 C 0.38646 0.79317 0.9571 0.0
C542 C 0.35146 0.7966 0.92425 0.0
C543 C 0.26067 0.38764 0.81796 0.0
C544 C 0.2997 0.37149 0.80525 0.0
C545 C 0.25603 0.4139 0.859 0.0
C546 C 0.29019 0.42477 0.88971 0.0
H547 H 0.23295 0.3777 0.7979 0.0
H548 H 0.22475 0.42448 0.86749 0.0
S549 S 0.40009 0.39333 0.86895 0.0
N550 N 0.37392 0.37018 0.82353 0.0
N551 N 0.36532 0.41993 0.90142 0.0
C552 C 0.33005 0.41086 0.87549 0.0
C553 C 0.33476 0.38413 0.83306 0.0
C554 C 0.65022 0.2149 0.92315 0.0
C555 C 0.64291 0.2416 0.8824 0.0
C556 C 0.62011 0.20861 0.96128 0.0
C557 C 0.58156 0.22903 0.96043 0.0
H558 H 0.67996 0.1995 0.92646 0.0
H559 H 0.6279 0.18932 0.99275 0.0
S560 S 0.54447 0.2985 0.86031 0.0
N561 N 0.5921 0.28575 0.84232 0.0
N562 N 0.53625 0.27429 0.91362 0.0
C563 C 0.57308 0.2542 0.91894 0.0
C564 C 0.60345 0.26038 0.88009 0.0
C565 C 0.82688 0.68059 0.90428 0.0
C566 C 0.78943 0.69354 0.88255 0.0
C567 C 0.8293 0.6424 0.92909 0.0
C568 C 0.79412 0.61577 0.9343 0.0
H569 H 0.85485 0.6999 0.90163 0.0
H570 H 0.85897 0.63411 0.94516 0.0
S571 S 0.68812 0.63565 0.88537 0.0
N572 N 0.7161 0.67674 0.86806 0.0
N573 N 0.7204 0.6055 0.91597 0.0
C574 C 0.75629 0.62851 0.91322 0.0
C575 C 0.75401 0.66715 0.88701 0.0
loop_
_geom_bond_atom_site_label_1
_geom_bond_atom_site_label_2
_geom_bond_distance
_geom_bond_site_symmetry_2
_ccdc_geom_bond_type
C0 O2 1.247 . S
C0 O4 1.258 . S
C1 O8 1.247 . S
C1 O9 1.258 . S
O2 C0 1.247 . S
O2 Zn3 2.028 . S
Zn3 O2 2.028 . S
Zn3 O7 2.035 . S
Zn3 O9 2.035 . S
Zn3 O10 2.028 . S
O4 C0 1.258 . S
O4 Zn5 2.035 . S
Zn5 O4 2.035 . S
Zn5 O6 2.028 . S
Zn5 O8 2.028 . S
Zn5 O11 2.035 . S
O6 Zn5 2.028 . S
O6 C12 1.247 . S
O7 Zn3 2.035 . S
O7 C12 1.258 . S
O8 C1 1.247 . S
O8 Zn5 2.028 . S
O9 C1 1.258 . S
O9 Zn3 2.035 . S
O10 Zn3 2.028 . S
O10 C13 1.247 . S
O11 Zn5 2.035 . S
O11 C13 1.258 . S
C12 O6 1.247 . S
C12 O7 1.258 . S
C13 O10 1.247 . S
C13 O11 1.258 . S
C14 O16 1.247 . S
C14 O18 1.258 . S
C15 O22 1.247 . S
C15 O23 1.258 . S
O16 C14 1.247 . S
O16 Zn17 2.028 . S
Zn17 O16 2.028 . S
Zn17 O21 2.035 . S
Zn17 O23 2.035 . S
Zn17 O24 2.028 . S
O18 C14 1.258 . S
O18 Zn19 2.035 . S
Zn19 O18 2.035 . S
Zn19 O20 2.028 . S
Zn19 O22 2.028 . S
Zn19 O25 2.035 . S
O20 Zn19 2.028 . S
O20 C26 1.247 . S
O21 Zn17 2.035 . S
O21 C26 1.258 . S
O22 C15 1.247 . S
O22 Zn19 2.028 . S
O23 C15 1.258 . S
O23 Zn17 2.035 . S
O24 Zn17 2.028 . S
O24 C27 1.247 . S
O25 Zn19 2.035 . S
O25 C27 1.258 . S
C26 O20 1.247 . S
C26 O21 1.258 . S
C27 O24 1.247 . S
C27 O25 1.258 . S
C28 O30 1.247 . S
C28 O32 1.258 . S
C29 O36 1.247 . S
C29 O37 1.258 . S
O30 C28 1.247 . S
O30 Zn31 2.028 . S
Zn31 O30 2.028 . S
Zn31 O35 2.035 . S
Zn31 O37 2.035 . S
Zn31 O38 2.028 . S
O32 C28 1.258 . S
O32 Zn33 2.035 . S
Zn33 O32 2.035 . S
Zn33 O34 2.028 . S
Zn33 O36 2.028 . S
Zn33 O39 2.035 . S
O34 Zn33 2.028 . S
O34 C40 1.247 . S
O35 Zn31 2.035 . S
O35 C40 1.258 . S
O36 C29 1.247 . S
O36 Zn33 2.028 . S
O37 C29 1.258 . S
O37 Zn31 2.035 . S
O38 Zn31 2.028 . S
O38 C41 1.247 . S
O39 Zn33 2.035 . S
O39 C41 1.258 . S
C40 O34 1.247 . S
C40 O35 1.258 . S
C41 O38 1.247 . S
C41 O39 1.258 . S
C42 O44 1.247 . S
C42 O46 1.258 . S
C43 O50 1.247 . S
C43 O51 1.258 . S
O44 C42 1.247 . S
O44 Zn45 2.028 . S
Zn45 O44 2.028 . S
Zn45 O49 2.035 . S
Zn45 O51 2.035 . S
Zn45 O52 2.028 . S
O46 C42 1.258 . S
O46 Zn47 2.035 . S
Zn47 O46 2.035 . S
Zn47 O48 2.028 . S
Zn47 O50 2.028 . S
Zn47 O53 2.035 . S
O48 Zn47 2.028 . S
O48 C54 1.247 . S
O49 Zn45 2.035 . S
O49 C54 1.258 . S
O50 C43 1.247 . S
O50 Zn47 2.028 . S
O51 C43 1.258 . S
O51 Zn45 2.035 . S
O52 Zn45 2.028 . S
O52 C55 1.247 . S
O53 Zn47 2.035 . S
O53 C55 1.258 . S
C54 O48 1.247 . S
C54 O49 1.258 . S
C55 O52 1.247 . S
C55 O53 1.258 . S
C56 O58 1.247 . S
C56 O60 1.258 . S
C57 O64 1.247 . S
C57 O65 1.258 . S
O58 C56 1.247 . S
O58 Zn59 2.028 . S
Zn59 O58 2.028 . S
Zn59 O63 2.035 . S
Zn59 O65 2.035 . S
Zn59 O66 2.028 . S
O60 C56 1.258 . S
O60 Zn61 2.035 . S
Zn61 O60 2.035 . S
Zn61 O62 2.028 . S
Zn61 O64 2.028 . S
Zn61 O67 2.035 . S
O62 Zn61 2.028 . S
O62 C68 1.247 . S
O63 Zn59 2.035 . S
O63 C68 1.258 . S
O64 C57 1.247 . S
O64 Zn61 2.028 . S
O65 C57 1.258 . S
O65 Zn59 2.035 . S
O66 Zn59 2.028 . S
O66 C69 1.247 . S
O67 Zn61 2.035 . S
O67 C69 1.258 . S
C68 O62 1.247 . S
C68 O63 1.258 . S
C69 O66 1.247 . S
C69 O67 1.258 . S
C70 O72 1.247 . S
C70 O74 1.258 . S
C71 O78 1.247 . S
C71 O79 1.258 . S
O72 C70 1.247 . S
O72 Zn73 2.028 . S
Zn73 O72 2.028 . S
Zn73 O77 2.035 . S
Zn73 O79 2.035 . S
Zn73 O80 2.028 . S
O74 C70 1.258 . S
O74 Zn75 2.035 . S
Zn75 O74 2.035 . S
Zn75 O76 2.028 . S
Zn75 O78 2.028 . S
Zn75 O81 2.035 . S
O76 Zn75 2.028 . S
O76 C82 1.247 . S
O77 Zn73 2.035 . S
O77 C82 1.258 . S
O78 C71 1.247 . S
O78 Zn75 2.028 . S
O79 C71 1.258 . S
O79 Zn73 2.035 . S
O80 Zn73 2.028 . S
O80 C83 1.247 . S
O81 Zn75 2.035 . S
O81 C83 1.258 . S
C82 O76 1.247 . S
C82 O77 1.258 . S
C83 O80 1.247 . S
C83 O81 1.258 . S
C84 O86 1.247 . S
C84 O88 1.258 . S
C85 O92 1.247 . S
C85 O93 1.258 . S
O86 C84 1.247 . S
O86 Zn87 2.028 . S
Zn87 O86 2.028 . S
Zn87 O91 2.035 . S
Zn87 O93 2.035 . S
Zn87 O94 2.028 . S
O88 C84 1.258 . S
O88 Zn89 2.035 . S
Zn89 O88 2.035 . S
Zn89 O90 2.028 . S
Zn89 O92 2.028 . S
Zn89 O95 2.035 . S
O90 Zn89 2.028 . S
O90 C96 1.247 . S
O91 Zn87 2.035 . S
O91 C96 1.258 . S
O92 C85 1.247 . S
O92 Zn89 2.028 . S
O93 C85 1.258 . S
O93 Zn87 2.035 . S
O94 Zn87 2.028 . S
O94 C97 1.247 . S
O95 Zn89 2.035 . S
O95 C97 1.258 . S
C96 O90 1.247 . S
C96 O91 1.258 . S
C97 O94 1.247 . S
C97 O95 1.258 . S
C98 O100 1.247 . S
C98 O102 1.258 . S
C99 O106 1.247 . S
C99 O107 1.258 . S
O100 C98 1.247 . S
O100 Zn101 2.028 . S
Zn101 O100 2.028 . S
Zn101 O105 2.035 . S
Zn101 O107 2.035 . S
Zn101 O108 2.028 . S
O102 C98 1.258 . S
O102 Zn103 2.035 . S
Zn103 O102 2.035 . S
Zn103 O104 2.028 . S
Zn103 O106 2.028 . S
Zn103 O109 2.035 . S
O104 Zn103 2.028 . S
O104 C110 1.247 . S
O105 Zn101 2.035 . S
O105 C110 1.258 . S
O106 C99 1.247 . S
O106 Zn103 2.028 . S
O107 C99 1.258 . S
O107 Zn101 2.035 . S
O108 Zn101 2.028 . S
O108 C111 1.247 . S
O109 Zn103 2.035 . S
O109 C111 1.258 . S
C110 O104 1.247 . S
C110 O105 1.258 . S
C111 O108 1.247 . S
C111 O109 1.258 . S
C112 O114 1.247 . S
C112 O116 1.258 . S
C113 O120 1.247 . S
C113 O121 1.258 . S
O114 C112 1.247 . S
O114 Zn115 2.031 . S
Zn115 O114 2.031 . S
Zn115 O119 2.032 1_655 S
Zn115 O121 2.032 1_655 S
Zn115 O122 2.031 . S
O116 C112 1.258 . S
O116 Zn117 2.028 1_655 S
Zn117 O116 2.028 1_455 S
Zn117 O118 2.035 . S
Zn117 O120 2.035 . S
Zn117 O123 2.028 1_455 S
O118 Zn117 2.035 . S
O118 C124 1.247 . S
O119 Zn115 2.032 1_455 S
O119 C124 1.258 . S
O120 C113 1.247 . S
O120 Zn117 2.035 . S
O121 C113 1.258 . S
O121 Zn115 2.032 1_455 S
O122 Zn115 2.031 . S
O122 C125 1.247 . S
O123 Zn117 2.028 1_655 S
O123 C125 1.258 . S
C124 O118 1.247 . S
C124 O119 1.258 . S
C125 O122 1.247 . S
C125 O123 1.258 . S
C126 O128 1.247 . S
C126 O130 1.258 . S
C127 O134 1.247 . S
C127 O135 1.258 . S
O128 C126 1.247 . S
O128 Zn129 2.035 . S
Zn129 O128 2.035 . S
Zn129 O133 2.028 1_545 S
Zn129 O135 2.028 1_545 S
Zn129 O136 2.035 . S
O130 C126 1.258 . S
O130 Zn131 2.032 1_545 S
Zn131 O130 2.032 1_565 S
Zn131 O132 2.031 . S
Zn131 O134 2.031 . S
Zn131 O137 2.032 1_565 S
O132 Zn131 2.031 . S
O132 C138 1.247 . S
O133 Zn129 2.028 1_565 S
O133 C138 1.258 . S
O134 C127 1.247 . S
O134 Zn131 2.031 . S
O135 C127 1.258 . S
O135 Zn129 2.028 1_565 S
O136 Zn129 2.035 . S
O136 C139 1.247 . S
O137 Zn131 2.032 1_545 S
O137 C139 1.258 . S
C138 O132 1.247 . S
C138 O133 1.258 . S
C139 O136 1.247 . S
C139 O137 1.258 . S
C140 O142 1.247 . S
C140 O144 1.258 . S
C141 O148 1.247 . S
C141 O149 1.258 . S
O142 C140 1.247 . S
O142 Zn143 2.031 . S
Zn143 O142 2.031 . S
Zn143 O147 2.032 1_655 S
Zn143 O149 2.032 1_655 S
Zn143 O150 2.031 . S
O144 C140 1.258 . S
O144 Zn145 2.028 1_655 S
Zn145 O144 2.028 1_455 S
Zn145 O146 2.035 . S
Zn145 O148 2.035 . S
Zn145 O151 2.028 1_455 S
O146 Zn145 2.035 . S
O146 C152 1.247 . S
O147 Zn143 2.032 1_455 S
O147 C152 1.258 . S
O148 C141 1.247 . S
O148 Zn145 2.035 . S
O149 C141 1.258 . S
O149 Zn143 2.032 1_455 S
O150 Zn143 2.031 . S
O150 C153 1.247 . S
O151 Zn145 2.028 1_655 S
O151 C153 1.258 . S
C152 O146 1.247 . S
C152 O147 1.258 . S
C153 O150 1.247 . S
C153 O151 1.258 . S
C154 O156 1.247 . S
C154 O158 1.258 . S
C155 O162 1.247 . S
C155 O163 1.258 . S
O156 C154 1.247 . S
O156 Zn157 2.035 . S
Zn157 O156 2.035 . S
Zn157 O161 2.028 1_545 S
Zn157 O163 2.028 1_545 S
Zn157 O164 2.035 . S
O158 C154 1.258 . S
O158 Zn159 2.032 1_545 S
Zn159 O158 2.032 1_565 S
Zn159 O160 2.031 . S
Zn159 O162 2.031 . S
Zn159 O165 2.032 1_565 S
O160 Zn159 2.031 . S
O160 C166 1.247 . S
O161 Zn157 2.028 1_565 S
O161 C166 1.258 . S
O162 C155 1.247 . S
O162 Zn159 2.031 . S
O163 C155 1.258 . S
O163 Zn157 2.028 1_565 S
O164 Zn157 2.035 . S
O164 C167 1.247 . S
O165 Zn159 2.032 1_545 S
O165 C167 1.258 . S
C166 O160 1.247 . S
C166 O161 1.258 . S
C167 O164 1.247 . S
C167 O165 1.258 . S
C168 O170 1.247 . S
C168 O172 1.258 . S
C169 O176 1.247 . S
C169 O177 1.258 . S
O170 C168 1.247 . S
O170 Zn171 2.028 . S
Zn171 O170 2.028 . S
Zn171 O175 2.035 . S
Zn171 O177 2.035 1_554 S
Zn171 O178 2.028 1_554 S
O172 C168 1.258 . S
O172 Zn173 2.035 . S
Zn173 O172 2.035 . S
Zn173 O174 2.028 . S
Zn173 O176 2.028 1_554 S
Zn173 O179 2.035 1_554 S
O174 Zn173 2.028 . S
O174 C180 1.247 . S
O175 Zn171 2.035 . S
O175 C180 1.258 . S
O176 C169 1.247 . S
O176 Zn173 2.028 1_556 S
O177 C169 1.258 . S
O177 Zn171 2.035 1_556 S
O178 Zn171 2.028 1_556 S
O178 C181 1.247 . S
O179 Zn173 2.035 1_556 S
O179 C181 1.258 . S
C180 O174 1.247 . S
C180 O175 1.258 . S
C181 O178 1.247 . S
C181 O179 1.258 . S
C182 O184 1.247 . S
C182 O186 1.258 . S
C183 O190 1.247 . S
C183 O191 1.258 . S
O184 C182 1.247 . S
O184 Zn185 2.028 . S
Zn185 O184 2.028 . S
Zn185 O189 2.035 . S
Zn185 O191 2.035 1_554 S
Zn185 O192 2.028 1_554 S
O186 C182 1.258 . S
O186 Zn187 2.035 . S
Zn187 O186 2.035 . S
Zn187 O188 2.028 . S
Zn187 O190 2.028 1_554 S
Zn187 O193 2.035 1_554 S
O188 Zn187 2.028 . S
O188 C194 1.247 . S
O189 Zn185 2.035 . S
O189 C194 1.258 . S
O190 C183 1.247 . S
O190 Zn187 2.028 1_556 S
O191 C183 1.258 . S
O191 Zn185 2.035 1_556 S
O192 Zn185 2.028 1_556 S
O192 C195 1.247 . S
O193 Zn187 2.035 1_556 S
O193 C195 1.258 . S
C194 O188 1.247 . S
C194 O189 1.258 . S
C195 O192 1.247 . S
C195 O193 1.258 . S
C196 O198 1.247 . S
C196 O200 1.258 . S
C197 O204 1.247 . S
C197 O205 1.258 . S
O198 C196 1.247 . S
O198 Zn199 2.028 1_556 S
Zn199 O198 2.028 1_554 S
Zn199 O203 2.035 1_554 S
Zn199 O205 2.035 . S
Zn199 O206 2.028 . S
O200 C196 1.258 . S
O200 Zn201 2.035 1_556 S
Zn201 O200 2.035 1_554 S
Zn201 O202 2.028 1_554 S
Zn201 O204 2.028 . S
Zn201 O207 2.035 . S
O202 Zn201 2.028 1_556 S
O202 C208 1.247 . S
O203 Zn199 2.035 1_556 S
O203 C208 1.258 . S
O204 C197 1.247 . S
O204 Zn201 2.028 . S
O205 C197 1.258 . S
O205 Zn199 2.035 . S
O206 Zn199 2.028 . S
O206 C209 1.247 . S
O207 Zn201 2.035 . S
O207 C209 1.258 . S
C208 O202 1.247 . S
C208 O203 1.258 . S
C209 O206 1.247 . S
C209 O207 1.258 . S
C210 O212 1.247 . S
C210 O214 1.258 . S
C211 O218 1.247 . S
C211 O219 1.258 . S
O212 C210 1.247 . S
O212 Zn213 2.028 . S
Zn213 O212 2.028 . S
Zn213 O217 2.035 . S
Zn213 O219 2.035 1_554 S
Zn213 O220 2.028 1_554 S
O214 C210 1.258 . S
O214 Zn215 2.035 . S
Zn215 O214 2.035 . S
Zn215 O216 2.028 . S
Zn215 O218 2.028 1_554 S
Zn215 O221 2.035 1_554 S
O216 Zn215 2.028 . S
O216 C222 1.247 . S
O217 Zn213 2.035 . S
O217 C222 1.258 . S
O218 C211 1.247 . S
O218 Zn215 2.028 1_556 S
O219 C211 1.258 . S
O219 Zn213 2.035 1_556 S
O220 Zn213 2.028 1_556 S
O220 C223 1.247 . S
O221 Zn215 2.035 1_556 S
O221 C223 1.258 . S
C222 O216 1.247 . S
C222 O217 1.258 . S
C223 O220 1.247 . S
C223 O221 1.258 . S
C224 C225 1.369 . S
C224 C226 1.419 . S
C224 H228 0.930 . S
C225 C224 1.369 . S
C225 C234 1.429 . S
C226 C224 1.419 . S
C226 C227 1.363 . S
C226 H229 0.929 . S
C227 C226 1.363 . S
C227 C233 1.428 . S
H228 C224 0.930 . S
H229 C226 0.929 . S
S230 N231 1.613 . S
S230 N232 1.610 . S
N231 S230 1.613 . S
N231 C234 1.350 . S
N232 S230 1.610 . S
N232 C233 1.351 . S
C233 C227 1.428 . S
C233 N232 1.351 . S
C233 C234 1.434 . S
C234 C225 1.429 . S
C234 N231 1.350 . S
C234 C233 1.434 . S
C235 C236 1.369 . S
C235 C237 1.419 . S
C235 H239 0.930 . S
C236 C235 1.369 . S
C236 C245 1.429 . S
C237 C235 1.419 . S
C237 C238 1.363 . S
C237 H240 0.929 . S
C238 C237 1.363 . S
C238 C244 1.428 . S
H239 C235 0.930 . S
H240 C237 0.929 . S
S241 N242 1.613 . S
S241 N243 1.610 . S
N242 S241 1.613 . S
N242 C245 1.350 . S
N243 S241 1.610 . S
N243 C244 1.351 . S
C244 C238 1.428 . S
C244 N243 1.351 . S
C244 C245 1.434 . S
C245 C236 1.429 . S
C245 N242 1.350 . S
C245 C244 1.434 . S
C246 C247 1.369 . S
C246 C248 1.419 . S
C246 H250 0.930 . S
C247 C246 1.369 . S
C247 C256 1.429 . S
C248 C246 1.419 . S
C248 C249 1.363 . S
C248 H251 0.929 . S
C249 C248 1.363 . S
C249 C255 1.428 . S
H250 C246 0.930 . S
H251 C248 0.929 . S
S252 N253 1.613 . S
S252 N254 1.610 . S
N253 S252 1.613 . S
N253 C256 1.350 . S
N254 S252 1.610 . S
N254 C255 1.351 . S
C255 C249 1.428 . S
C255 N254 1.351 . S
C255 C256 1.434 . S
C256 C247 1.429 . S
C256 N253 1.350 . S
C256 C255 1.434 . S
C257 C258 1.369 . S
C257 C259 1.419 . S
C257 H261 0.930 . S
C258 C257 1.369 . S
C258 C267 1.429 . S
C259 C257 1.419 . S
C259 C260 1.363 . S
C259 H262 0.929 . S
C260 C259 1.363 . S
C260 C266 1.428 . S
H261 C257 0.930 . S
H262 C259 0.929 . S
S263 N264 1.613 . S
S263 N265 1.610 . S
N264 S263 1.613 . S
N264 C267 1.350 . S
N265 S263 1.610 . S
N265 C266 1.351 . S
C266 C260 1.428 . S
C266 N265 1.351 . S
C266 C267 1.434 . S
C267 C258 1.429 . S
C267 N264 1.350 . S
C267 C266 1.434 . S
C268 C269 1.369 . S
C268 C270 1.419 . S
C268 H272 0.930 . S
C269 C268 1.369 . S
C269 C278 1.429 . S
C270 C268 1.419 . S
C270 C271 1.363 . S
C270 H273 0.929 . S
C271 C270 1.363 . S
C271 C277 1.428 . S
H272 C268 0.930 . S
H273 C270 0.929 . S
S274 N275 1.613 . S
S274 N276 1.610 . S
N275 S274 1.613 . S
N275 C278 1.350 . S
N276 S274 1.610 . S
N276 C277 1.351 . S
C277 C271 1.428 . S
C277 N276 1.351 . S
C277 C278 1.434 . S
C278 C269 1.429 . S
C278 N275 1.350 . S
C278 C277 1.434 . S
C279 C280 1.369 . S
C279 C281 1.419 . S
C279 H283 0.930 . S
C280 C279 1.369 . S
C280 C289 1.429 . S
C281 C279 1.419 . S
C281 C282 1.363 . S
C281 H284 0.929 . S
C282 C281 1.363 . S
C282 C288 1.428 . S
H283 C279 0.930 . S
H284 C281 0.929 . S
S285 N286 1.613 . S
S285 N287 1.610 . S
N286 S285 1.613 . S
N286 C289 1.350 . S
N287 S285 1.610 . S
N287 C288 1.351 . S
C288 C282 1.428 . S
C288 N287 1.351 . S
C288 C289 1.434 . S
C289 C280 1.429 . S
C289 N286 1.350 . S
C289 C288 1.434 . S
C290 C291 1.369 . S
C290 C292 1.419 . S
C290 H294 0.930 . S
C291 C290 1.369 . S
C291 C300 1.429 . S
C292 C290 1.419 . S
C292 C293 1.363 . S
C292 H295 0.929 . S
C293 C292 1.363 . S
C293 C299 1.428 . S
H294 C290 0.930 . S
H295 C292 0.929 . S
S296 N297 1.613 . S
S296 N298 1.610 . S
N297 S296 1.613 . S
N297 C300 1.350 . S
N298 S296 1.610 . S
N298 C299 1.351 . S
C299 C293 1.428 . S
C299 N298 1.351 . S
C299 C300 1.434 . S
C300 C291 1.429 . S
C300 N297 1.350 . S
C300 C299 1.434 . S
C301 C302 1.369 . S
C301 C303 1.419 . S
C301 H305 0.930 . S
C302 C301 1.369 . S
C302 C311 1.429 . S
C303 C301 1.419 . S
C303 C304 1.363 . S
C303 H306 0.929 . S
C304 C303 1.363 . S
C304 C310 1.428 . S
H305 C301 0.930 . S
H306 C303 0.929 . S
S307 N308 1.613 . S
S307 N309 1.610 . S
N308 S307 1.613 . S
N308 C311 1.350 . S
N309 S307 1.610 . S
N309 C310 1.351 . S
C310 C304 1.428 . S
C310 N309 1.351 . S
C310 C311 1.434 . S
C311 C302 1.429 . S
C311 N308 1.350 . S
C311 C310 1.434 . S
C312 C313 1.369 . S
C312 C314 1.419 . S
C312 H316 0.930 . S
C313 C312 1.369 . S
C313 C322 1.429 . S
C314 C312 1.419 . S
C314 C315 1.363 . S
C314 H317 0.929 . S
C315 C314 1.363 . S
C315 C321 1.428 . S
H316 C312 0.930 . S
H317 C314 0.929 . S
S318 N319 1.613 . S
S318 N320 1.610 . S
N319 S318 1.613 . S
N319 C322 1.350 . S
N320 S318 1.610 . S
N320 C321 1.351 . S
C321 C315 1.428 . S
C321 N320 1.351 . S
C321 C322 1.434 . S
C322 C313 1.429 . S
C322 N319 1.350 . S
C322 C321 1.434 . S
C323 C324 1.369 . S
C323 C325 1.419 . S
C323 H327 0.930 . S
C324 C323 1.369 . S
C324 C333 1.429 . S
C325 C323 1.419 . S
C325 C326 1.363 . S
C325 H328 0.929 . S
C326 C325 1.363 . S
C326 C332 1.428 . S
H327 C323 0.930 . S
H328 C325 0.929 . S
S329 N330 1.613 . S
S329 N331 1.610 . S
N330 S329 1.613 . S
N330 C333 1.350 . S
N331 S329 1.610 . S
N331 C332 1.351 . S
C332 C326 1.428 . S
C332 N331 1.351 . S
C332 C333 1.434 . S
C333 C324 1.429 . S
C333 N330 1.350 . S
C333 C332 1.434 . S
C334 C335 1.369 . S
C334 C336 1.419 . S
C334 H338 0.930 . S
C335 C334 1.369 . S
C335 C344 1.429 . S
C336 C334 1.419 . S
C336 C337 1.363 . S
C336 H339 0.929 . S
C337 C336 1.363 . S
C337 C343 1.428 . S
H338 C334 0.930 . S
H339 C336 0.929 . S
S340 N341 1.613 . S
S340 N342 1.610 . S
N341 S340 1.613 . S
N341 C344 1.350 . S
N342 S340 1.610 . S
N342 C343 1.351 . S
C343 C337 1.428 . S
C343 N342 1.351 . S
C343 C344 1.434 . S
C344 C335 1.429 . S
C344 N341 1.350 . S
C344 C343 1.434 . S
C345 C346 1.369 . S
C345 C347 1.419 . S
C345 H349 0.930 . S
C346 C345 1.369 . S
C346 C355 1.429 . S
C347 C345 1.419 . S
C347 C348 1.363 . S
C347 H350 0.929 . S
C348 C347 1.363 . S
C348 C354 1.428 . S
H349 C345 0.930 . S
H350 C347 0.929 . S
S351 N352 1.613 . S
S351 N353 1.610 . S
N352 S351 1.613 . S
N352 C355 1.350 . S
N353 S351 1.610 . S
N353 C354 1.351 . S
C354 C348 1.428 . S
C354 N353 1.351 . S
C354 C355 1.434 . S
C355 C346 1.429 . S
C355 N352 1.350 . S
C355 C354 1.434 . S
C356 C357 1.369 . S
C356 C358 1.419 . S
C356 H360 0.930 . S
C357 C356 1.369 . S
C357 C366 1.429 . S
C358 C356 1.419 . S
C358 C359 1.363 . S
C358 H361 0.929 . S
C359 C358 1.363 . S
C359 C365 1.428 . S
H360 C356 0.930 . S
H361 C358 0.929 . S
S362 N363 1.613 . S
S362 N364 1.610 . S
N363 S362 1.613 . S
N363 C366 1.350 . S
N364 S362 1.610 . S
N364 C365 1.351 . S
C365 C359 1.428 . S
C365 N364 1.351 . S
C365 C366 1.434 . S
C366 C357 1.429 . S
C366 N363 1.350 . S
C366 C365 1.434 . S
C367 C368 1.369 . S
C367 C369 1.419 . S
C367 H371 0.930 . S
C368 C367 1.369 . S
C368 C377 1.429 . S
C369 C367 1.419 . S
C369 C370 1.363 . S
C369 H372 0.929 . S
C370 C369 1.363 . S
C370 C376 1.428 . S
H371 C367 0.930 . S
H372 C369 0.929 . S
S373 N374 1.613 . S
S373 N375 1.610 . S
N374 S373 1.613 . S
N374 C377 1.350 . S
N375 S373 1.610 . S
N375 C376 1.351 . S
C376 C370 1.428 . S
C376 N375 1.351 . S
C376 C377 1.434 . S
C377 C368 1.429 . S
C377 N374 1.350 . S
C377 C376 1.434 . S
C378 C379 1.369 . S
C378 C380 1.419 . S
C378 H382 0.930 . S
C379 C378 1.369 . S
C379 C388 1.429 . S
C380 C378 1.419 . S
C380 C381 1.363 . S
C380 H383 0.929 . S
C381 C380 1.363 . S
C381 C387 1.428 . S
H382 C378 0.930 . S
H383 C380 0.929 . S
S384 N385 1.613 . S
S384 N386 1.610 . S
N385 S384 1.613 . S
N385 C388 1.350 . S
N386 S384 1.610 . S
N386 C387 1.351 . S
C387 C381 1.428 . S
C387 N386 1.351 . S
C387 C388 1.434 . S
C388 C379 1.429 . S
C388 N385 1.350 . S
C388 C387 1.434 . S
C389 C390 1.369 . S
C389 C391 1.419 . S
C389 H393 0.930 . S
C390 C389 1.369 . S
C390 C399 1.429 . S
C391 C389 1.419 . S
C391 C392 1.363 . S
C391 H394 0.929 . S
C392 C391 1.363 . S
C392 C398 1.428 . S
H393 C389 0.930 . S
H394 C391 0.929 . S
S395 N396 1.613 . S
S395 N397 1.610 . S
N396 S395 1.613 . S
N396 C399 1.350 . S
N397 S395 1.610 . S
N397 C398 1.351 . S
C398 C392 1.428 . S
C398 N397 1.351 . S
C398 C399 1.434 . S
C399 C390 1.429 . S
C399 N396 1.350 . S
C399 C398 1.434 . S
C400 C401 1.369 . S
C400 C402 1.419 . S
C400 H404 0.930 . S
C401 C400 1.369 . S
C401 C410 1.429 . S
C402 C400 1.419 . S
C402 C403 1.363 . S
C402 H405 0.929 . S
C403 C402 1.363 . S
C403 C409 1.428 . S
H404 C400 0.930 . S
H405 C402 0.929 . S
S406 N407 1.613 . S
S406 N408 1.610 . S
N407 S406 1.613 . S
N407 C410 1.350 . S
N408 S406 1.610 . S
N408 C409 1.351 . S
C409 C403 1.428 . S
C409 N408 1.351 . S
C409 C410 1.434 . S
C410 C401 1.429 . S
C410 N407 1.350 . S
C410 C409 1.434 . S
C411 C412 1.369 . S
C411 C413 1.419 . S
C411 H415 0.930 . S
C412 C411 1.369 . S
C412 C421 1.429 . S
C413 C411 1.419 . S
C413 C414 1.363 . S
C413 H416 0.929 . S
C414 C413 1.363 . S
C414 C420 1.428 . S
H415 C411 0.930 . S
H416 C413 0.929 . S
S417 N418 1.613 . S
S417 N419 1.610 . S
N418 S417 1.613 . S
N418 C421 1.350 . S
N419 S417 1.610 . S
N419 C420 1.351 . S
C420 C414 1.428 . S
C420 N419 1.351 . S
C420 C421 1.434 . S
C421 C412 1.429 . S
C421 N418 1.350 . S
C421 C420 1.434 . S
C422 C423 1.369 . S
C422 C424 1.419 . S
C422 H426 0.930 . S
C423 C422 1.369 . S
C423 C432 1.429 . S
C424 C422 1.419 . S
C424 C425 1.363 . S
C424 H427 0.929 . S
C425 C424 1.363 . S
C425 C431 1.428 . S
H426 C422 0.930 . S
H427 C424 0.929 . S
S428 N429 1.613 . S
S428 N430 1.610 . S
N429 S428 1.613 . S
N429 C432 1.350 . S
N430 S428 1.610 . S
N430 C431 1.351 . S
C431 C425 1.428 . S
C431 N430 1.351 . S
C431 C432 1.434 . S
C432 C423 1.429 . S
C432 N429 1.350 . S
C432 C431 1.434 . S
C433 C434 1.369 . S
C433 C435 1.419 . S
C433 H437 0.930 . S
C434 C433 1.369 . S
C434 C443 1.429 . S
C435 C433 1.419 . S
C435 C436 1.363 . S
C435 H438 0.929 . S
C436 C435 1.363 . S
C436 C442 1.428 . S
H437 C433 0.930 . S
H438 C435 0.929 . S
S439 N440 1.613 . S
S439 N441 1.610 . S
N440 S439 1.613 . S
N440 C443 1.350 . S
N441 S439 1.610 . S
N441 C442 1.351 . S
C442 C436 1.428 . S
C442 N441 1.351 . S
C442 C443 1.434 . S
C443 C434 1.429 . S
C443 N440 1.350 . S
C443 C442 1.434 . S
C444 C445 1.369 . S
C444 C446 1.419 . S
C444 H448 0.930 . S
C445 C444 1.369 . S
C445 C454 1.429 . S
C446 C444 1.419 . S
C446 C447 1.363 . S
C446 H449 0.929 . S
C447 C446 1.363 . S
C447 C453 1.428 . S
H448 C444 0.930 . S
H449 C446 0.929 . S
S450 N451 1.613 . S
S450 N452 1.610 . S
N451 S450 1.613 . S
N451 C454 1.350 . S
N452 S450 1.610 . S
N452 C453 1.351 . S
C453 C447 1.428 . S
C453 N452 1.351 . S
C453 C454 1.434 . S
C454 C445 1.429 . S
C454 N451 1.350 . S
C454 C453 1.434 . S
C455 C456 1.369 . S
C455 C457 1.419 . S
C455 H459 0.930 . S
C456 C455 1.369 . S
C456 C465 1.429 . S
C457 C455 1.419 . S
C457 C458 1.363 . S
C457 H460 0.929 . S
C458 C457 1.363 . S
C458 C464 1.428 . S
H459 C455 0.930 . S
H460 C457 0.929 . S
S461 N462 1.613 . S
S461 N463 1.610 . S
N462 S461 1.613 . S
N462 C465 1.350 . S
N463 S461 1.610 . S
N463 C464 1.351 . S
C464 C458 1.428 . S
C464 N463 1.351 . S
C464 C465 1.434 . S
C465 C456 1.429 . S
C465 N462 1.350 . S
C465 C464 1.434 . S
C466 C467 1.369 . S
C466 C468 1.419 . S
C466 H470 0.930 . S
C467 C466 1.369 . S
C467 C476 1.429 . S
C468 C466 1.419 . S
C468 C469 1.363 . S
C468 H471 0.929 . S
C469 C468 1.363 . S
C469 C475 1.428 . S
H470 C466 0.930 . S
H471 C468 0.929 . S
S472 N473 1.613 . S
S472 N474 1.610 . S
N473 S472 1.613 . S
N473 C476 1.350 . S
N474 S472 1.610 . S
N474 C475 1.351 . S
C475 C469 1.428 . S
C475 N474 1.351 . S
C475 C476 1.434 . S
C476 C467 1.429 . S
C476 N473 1.350 . S
C476 C475 1.434 . S
C477 C478 1.369 . S
C477 C479 1.419 . S
C477 H481 0.930 . S
C478 C477 1.369 . S
C478 C487 1.429 . S
C479 C477 1.419 . S
C479 C480 1.363 . S
C479 H482 0.929 . S
C480 C479 1.363 . S
C480 C486 1.428 . S
H481 C477 0.930 . S
H482 C479 0.929 . S
S483 N484 1.613 . S
S483 N485 1.610 . S
N484 S483 1.613 . S
N484 C487 1.350 . S
N485 S483 1.610 . S
N485 C486 1.351 . S
C486 C480 1.428 . S
C486 N485 1.351 . S
C486 C487 1.434 . S
C487 C478 1.429 . S
C487 N484 1.350 . S
C487 C486 1.434 . S
C488 C489 1.369 . S
C488 C490 1.419 . S
C488 H492 0.930 . S
C489 C488 1.369 . S
C489 C498 1.429 . S
C490 C488 1.419 . S
C490 C491 1.363 . S
C490 H493 0.929 . S
C491 C490 1.363 . S
C491 C497 1.428 . S
H492 C488 0.930 . S
H493 C490 0.929 . S
S494 N495 1.613 . S
S494 N496 1.610 . S
N495 S494 1.613 . S
N495 C498 1.350 . S
N496 S494 1.610 . S
N496 C497 1.351 . S
C497 C491 1.428 . S
C497 N496 1.351 . S
C497 C498 1.434 . S
C498 C489 1.429 . S
C498 N495 1.350 . S
C498 C497 1.434 . S
C499 C500 1.369 . S
C499 C501 1.419 . S
C499 H503 0.930 . S
C500 C499 1.369 . S
C500 C509 1.429 . S
C501 C499 1.419 . S
C501 C502 1.363 . S
C501 H504 0.929 . S
C502 C501 1.363 . S
C502 C508 1.428 . S
H503 C499 0.930 . S
H504 C501 0.929 . S
S505 N506 1.613 . S
S505 N507 1.610 . S
N506 S505 1.613 . S
N506 C509 1.350 . S
N507 S505 1.610 . S
N507 C508 1.351 . S
C508 C502 1.428 . S
C508 N507 1.351 . S
C508 C509 1.434 . S
C509 C500 1.429 . S
C509 N506 1.350 . S
C509 C508 1.434 . S
C510 C511 1.369 . S
C510 C512 1.419 . S
C510 H514 0.930 . S
C511 C510 1.369 . S
C511 C520 1.429 . S
C512 C510 1.419 . S
C512 C513 1.363 . S
C512 H515 0.929 . S
C513 C512 1.363 . S
C513 C519 1.428 . S
H514 C510 0.930 . S
H515 C512 0.929 . S
S516 N517 1.613 . S
S516 N518 1.610 . S
N517 S516 1.613 . S
N517 C520 1.350 . S
N518 S516 1.610 . S
N518 C519 1.351 . S
C519 C513 1.428 . S
C519 N518 1.351 . S
C519 C520 1.434 . S
C520 C511 1.429 . S
C520 N517 1.350 . S
C520 C519 1.434 . S
C521 C522 1.369 . S
C521 C523 1.419 . S
C521 H525 0.930 . S
C522 C521 1.369 . S
C522 C531 1.429 . S
C523 C521 1.419 . S
C523 C524 1.363 . S
C523 H526 0.929 . S
C524 C523 1.363 . S
C524 C530 1.428 . S
H525 C521 0.930 . S
H526 C523 0.929 . S
S527 N528 1.613 . S
S527 N529 1.610 . S
N528 S527 1.613 . S
N528 C531 1.350 . S
N529 S527 1.610 . S
N529 C530 1.351 . S
C530 C524 1.428 . S
C530 N529 1.351 . S
C530 C531 1.434 . S
C531 C522 1.429 . S
C531 N528 1.350 . S
C531 C530 1.434 . S
C532 C533 1.369 . S
C532 C534 1.419 . S
C532 H536 0.930 . S
C533 C532 1.369 . S
C533 C542 1.429 . S
C534 C532 1.419 . S
C534 C535 1.363 . S
C534 H537 0.929 . S
C535 C534 1.363 . S
C535 C541 1.428 . S
H536 C532 0.930 . S
H537 C534 0.929 . S
S538 N539 1.613 . S
S538 N540 1.610 . S
N539 S538 1.613 . S
N539 C542 1.350 . S
N540 S538 1.610 . S
N540 C541 1.351 . S
C541 C535 1.428 . S
C541 N540 1.351 . S
C541 C542 1.434 . S
C542 C533 1.429 . S
C542 N539 1.350 . S
C542 C541 1.434 . S
C543 C544 1.369 . S
C543 C545 1.419 . S
C543 H547 0.930 . S
C544 C543 1.369 . S
C544 C553 1.429 . S
C545 C543 1.419 . S
C545 C546 1.363 . S
C545 H548 0.929 . S
C546 C545 1.363 . S
C546 C552 1.428 . S
H547 C543 0.930 . S
H548 C545 0.929 . S
S549 N550 1.613 . S
S549 N551 1.610 . S
N550 S549 1.613 . S
N550 C553 1.350 . S
N551 S549 1.610 . S
N551 C552 1.351 . S
C552 C546 1.428 . S
C552 N551 1.351 . S
C552 C553 1.434 . S
C553 C544 1.429 . S
C553 N550 1.350 . S
C553 C552 1.434 . S
C554 C555 1.369 . S
C554 C556 1.419 . S
C554 H558 0.930 . S
C555 C554 1.369 . S
C555 C564 1.429 . S
C556 C554 1.419 . S
C556 C557 1.363 . S
C556 H559 0.929 . S
C557 C556 1.363 . S
C557 C563 1.428 . S
H558 C554 0.930 . S
H559 C556 0.929 . S
S560 N561 1.613 . S
S560 N562 1.610 . S
N561 S560 1.613 . S
N561 C564 1.350 . S
N562 S560 1.610 . S
N562 C563 1.351 . S
C563 C557 1.428 . S
C563 N562 1.351 . S
C563 C564 1.434 . S
C564 C555 1.429 . S
C564 N561 1.350 . S
C564 C563 1.434 . S
C565 C566 1.369 . S
C565 C567 1.419 . S
C565 H569 0.930 . S
C566 C565 1.369 . S
C566 C575 1.429 . S
C567 C565 1.419 . S
C567 C568 1.363 . S
C567 H570 0.929 . S
C568 C567 1.363 . S
C568 C574 1.428 . S
H569 C565 0.930 . S
H570 C567 0.929 . S
S571 N572 1.613 . S
S571 N573 1.610 . S
N572 S571 1.613 . S
N572 C575 1.350 . S
N573 S571 1.610 . S
N573 C574 1.351 . S
C574 C568 1.428 . S
C574 N573 1.351 . S
C574 C575 1.434 . S
C575 C566 1.429 . S
C575 N572 1.350 . S
C575 C574 1.434 . S
C227 C113 1.544 . S
C225 C0 1.558 . S
C238 C139 1.547 . S
C236 C26 1.557 . S
C249 C153 1.547 . S
C247 C40 1.559 . S
C260 C155 1.547 . S
C258 C43 1.559 . S
C269 C57 1.556 . S
C271 C152 1.546 . S
C282 C154 1.548 . S
C280 C70 1.556 . S
C293 C112 1.548 . S
C291 C97 1.558 . S
C304 C138 1.546 . S
C302 C111 1.559 . S
C315 C140 1.547 . S
C313 C98 1.557 . S
C326 C166 1.546 . S
C324 C68 1.559 . S
C337 C124 1.547 . S
C335 C83 1.556 . S
C348 C126 1.547 . S
C346 C84 1.555 . S
C359 C125 1.548 . S
C357 C15 1.559 . S
C370 C127 1.549 . S
C368 C29 1.558 . S
C381 C141 1.547 . S
C379 C54 1.557 . S
C392 C167 1.546 . S
C390 C13 1.558 . S
C403 C169 1.544 . S
C401 C99 1.560 . S
C412 C69 1.557 . S
C414 C195 1.548 . S
C423 C82 1.558 . S
C425 C208 1.550 . S
C434 C85 1.556 . S
C436 C211 1.549 . S
C445 C14 1.559 . S
C447 C209 1.543 . S
C456 C28 1.558 . S
C458 C210 1.547 . S
C467 C55 1.557 . S
C469 C168 1.545 . S
C480 C194 1.549 . S
C478 C12 1.555 . S
C491 C197 1.545 . S
C489 C1 1.558 . S
C500 C27 1.559 . S
C502 C222 1.544 . S
C511 C41 1.558 . S
C513 C180 1.544 . S
C522 C42 1.557 . S
C524 C182 1.546 . S
C535 C181 1.549 . S
C533 C56 1.558 . S
C546 C183 1.545 . S
C544 C71 1.561 . S
C555 C96 1.559 . S
C557 C196 1.546 . S
C568 C223 1.546 . S
C566 C110 1.559 . S
