# Generated by pormake.
# Topology pth, (4,4)-cn, num edge types: 1
# Building blocks:
#     Node 0, Type 0, BuildingBlock: QUQFOY_clean_sbu_3, # of connection points: 4
#     Node 1, Type 0, BuildingBlock: QUQFOY_clean_sbu_3, # of connection points: 4
#     Node 2, Type 0, BuildingBlock: QUQFOY_clean_sbu_3, # of connection points: 4
#     Node 3, Type 1, BuildingBlock: NAWXER_clean_sbu_0, # of connection points: 4
#     Node 4, Type 1, BuildingBlock: NAWXER_clean_sbu_0, # of connection points: 4
#     Node 5, Type 1, BuildingBlock: NAWXER_clean_sbu_0, # of connection points: 4
#     Edge 6, Type (0, 1), BuildingBlock: UVAHIK_clean_linker_0, # of connection points: 2
#     Edge 7, Type (0, 1), BuildingBlock: UVAHIK_clean_linker_0, # of connection points: 2
#     Edge 8, Type (0, 1), BuildingBlock: UVAHIK_clean_linker_0, # of connection points: 2
#     Edge 9, Type (0, 1), BuildingBlock: UVAHIK_clean_linker_0, # of connection points: 2
#     Edge 10, Type (0, 1), BuildingBlock: UVAHIK_clean_linker_0, # of connection points: 2
#     Edge 11, Type (0, 1), BuildingBlock: UVAHIK_clean_linker_0, # of connection points: 2
#     Edge 12, Type (0, 1), BuildingBlock: UVAHIK_clean_linker_0, # of connection points: 2
#     Edge 13, Type (0, 1), BuildingBlock: UVAHIK_clean_linker_0, # of connection points: 2
#     Edge 14, Type (0, 1), BuildingBlock: UVAHIK_clean_linker_0, # of connection points: 2
#     Edge 15, Type (0, 1), BuildingBlock: UVAHIK_clean_linker_0, # of connection points: 2
#     Edge 16, Type (0, 1), BuildingBlock: UVAHIK_clean_linker_0, # of connection points: 2
#     Edge 17, Type (0, 1), BuildingBlock: UVAHIK_clean_linker_0, # of connection points: 2
# Relax obj value: 0.004
# Max RMSD: 0.054
# Mean RMSD: 0.030
data_MOF--net-pth--node1-QUQFOY_clean_sbu_3--node2-NAWXER_clean_sbu_0--edge1-UVAHIK_clean_linker_0
_symmetry_space_group_name_H-M    P1
_symmetry_Int_Tables_number       1
_symmetry_cell_setting            triclinic
loop_
_symmetry_equiv_pos_as_xyz
'x, y, z'
_cell_length_a     30.376367
_cell_length_b     29.822302
_cell_length_c     76.892588
_cell_angle_alpha  90.108839
_cell_angle_beta   90.550407
_cell_angle_gamma 121.08535
loop_
_atom_site_label
_atom_site_type_symbol
_atom_site_fract_x
_atom_site_fract_y
_atom_site_fract_z
_atom_type_partial_charge
C0 C -0.00717 0.16182 0.09038 0.0
O1 O 0.96329 0.15381 0.07746 0.0
Cd2 Cd 0.95704 0.09889 0.0533 0.0
O3 O 0.01675 0.13731 0.09155 0.0
Cd4 Cd 0.024 0.06949 0.07561 0.0
C5 C 0.086 0.15795 0.04432 0.0
O6 O 0.9393 0.01382 0.06151 0.0
O7 O 0.0035 0.00935 0.05163 0.0
O8 O -0.00187 0.02081 0.10225 0.0
C9 C 0.95548 0.99141 0.05153 0.0
O10 O 0.04075 0.14631 0.03994 0.0
C11 C 0.03513 0.01272 0.10343 0.0
O12 O 0.09389 0.1389 0.05805 0.0
O13 O 0.06971 0.03355 0.09188 0.0
C14 C 0.13201 0.13474 0.4296 0.0
O15 O 0.15236 0.16847 0.41764 0.0
Cd16 Cd 0.10591 0.16233 0.39149 0.0
O17 O 0.08425 0.10003 0.42888 0.0
Cd18 Cd 0.00646 0.07531 0.41063 0.0
C19 C 0.05772 0.03177 0.38117 0.0
O20 O 0.02883 0.16064 0.39886 0.0
O21 O 0.96626 0.09282 0.38598 0.0
O22 O 0.96609 0.08241 0.43656 0.0
C23 C -0.00719 0.14226 0.38756 0.0
O24 O 0.08874 0.08021 0.37829 0.0
C25 C 0.92536 0.03772 0.43543 0.0
O26 O 0.0234 0.01726 0.39281 0.0
O27 O 0.92263 0.00826 0.42295 0.0
C28 C 0.9697 0.13256 0.71715 0.0
O29 O 0.98294 0.16554 0.7295 0.0
Cd30 Cd 0.02499 0.16021 0.75528 0.0
O31 O 0.98347 0.09876 0.7173 0.0
Cd32 Cd 0.03793 0.07541 0.73502 0.0
C33 C 0.94478 0.02927 0.76517 0.0
O34 O 0.10136 0.16104 0.74739 0.0
O35 O 0.097 0.09336 0.75936 0.0
O36 O 0.0857 0.08338 0.70907 0.0
C37 C 0.11968 0.1428 0.75829 0.0
O38 O 0.96157 0.07741 0.7684 0.0
C39 C 0.08107 0.03864 0.7098 0.0
O40 O 0.96429 0.01587 0.75308 0.0
O41 O 0.05388 0.00887 0.72206 0.0
C42 C 0.06784 0.65383 0.26879 0.0
C43 C 0.05429 0.52978 0.22404 0.0
O44 O 0.10532 0.65342 0.26169 0.0
Zn45 Zn 0.06422 0.5942 0.24605 0.0
O46 O 0.02173 0.6209 0.2638 0.0
Zn47 Zn 0.98175 0.55849 0.24551 0.0
O48 O 0.93932 0.49998 0.26066 0.0
O49 O 0.02272 0.5316 0.26401 0.0
O50 O 0.0112 0.52409 0.22853 0.0
O51 O 0.09583 0.56641 0.23083 0.0
O52 O 0.03581 0.62713 0.2279 0.0
O53 O 0.95135 0.58638 0.22967 0.0
C54 C 0.97617 0.49909 0.26835 0.0
C55 C -0.00704 0.6215 0.22283 0.0
C56 C 0.58598 0.08401 0.59432 0.0
C57 C 0.46724 0.08426 0.5512 0.0
O58 O 0.5507 0.0376 0.58972 0.0
Zn59 Zn 0.48462 0.00142 0.57251 0.0
O60 O 0.58615 0.12328 0.58786 0.0
Zn61 Zn 0.52703 0.08481 0.57273 0.0
O62 O 0.46484 0.04915 0.59066 0.0
O63 O 0.42762 0.96335 0.58844 0.0
O64 O 0.50704 0.12345 0.55784 0.0
O65 O 0.45535 0.03781 0.55555 0.0
O66 O 0.50283 0.96322 0.55638 0.0
O67 O 0.55287 0.04898 0.55461 0.0
C68 C 0.42994 0.00323 0.59542 0.0
C69 C 0.54102 0.003 0.54959 0.0
C70 C 0.462 0.52623 0.92606 0.0
C71 C 0.5761 0.64795 0.88196 0.0
O72 O 0.45973 0.56403 0.9194 0.0
Zn73 Zn 0.51815 0.5884 0.90411 0.0
O74 O 0.49699 0.51727 0.92117 0.0
Zn75 Zn 0.56017 0.54854 0.90367 0.0
O76 O 0.61888 0.57162 0.91936 0.0
O77 O 0.58002 0.61646 0.92235 0.0
O78 O 0.58671 0.61297 0.88619 0.0
O79 O 0.53944 0.64898 0.88944 0.0
O80 O 0.49174 0.52611 0.88547 0.0
O81 O 0.53925 0.48994 0.88784 0.0
C82 C 0.6153 0.60744 0.92702 0.0
C83 C 0.50248 0.4918 0.88052 0.0
C84 C 0.02822 0.20522 0.11933 0.0
C85 C 0.00121 0.20114 0.10387 0.0
C86 C 0.03744 0.24321 0.13187 0.0
C87 C -0.00956 0.32955 0.14623 0.0
H88 H 0.11687 0.39712 0.17352 0.0
C89 C 0.09763 0.50543 0.20119 0.0
C90 C 0.05396 0.49315 0.21095 0.0
C91 C 0.09454 0.47157 0.18788 0.0
C92 C 0.0816 0.37903 0.16589 0.0
H93 H 0.96344 0.23445 0.08937 0.0
H94 H 0.98032 0.30128 0.11105 0.0
H95 H 0.10556 0.33619 0.15019 0.0
H96 H 0.97378 0.43446 0.21509 0.0
H97 H 0.96886 0.37548 0.19246 0.0
H98 H 0.96687 0.37308 0.16154 0.0
C99 C -0.00653 0.2744 0.11369 0.0
C100 C 0.0748 0.34357 0.15265 0.0
C101 C 0.98386 0.23612 0.10121 0.0
C102 C 0.00795 0.44561 0.20762 0.0
C103 C 0.00501 0.41183 0.19453 0.0
C104 C -0.00265 0.36509 0.15934 0.0
C105 C 0.02023 0.27835 0.12921 0.0
C106 C 0.02885 0.31793 0.14278 0.0
C107 C 0.04782 0.42479 0.18421 0.0
C108 C 0.04262 0.38967 0.16953 0.0
H109 H 0.04205 0.17882 0.12182 0.0
H110 H 0.05737 0.24442 0.14378 0.0
H111 H 0.95436 0.3103 0.13906 0.0
H112 H 0.1336 0.5418 0.20347 0.0
H113 H 0.12825 0.48277 0.18015 0.0
C114 C 0.83698 0.97342 0.44676 0.0
C115 C 0.88198 0.0233 0.44733 0.0
C116 C 0.7946 0.96258 0.45701 0.0
C117 C 0.73381 0.02866 0.47526 0.0
H118 H 0.67229 0.92082 0.51035 0.0
C119 C 0.61663 0.04283 0.52997 0.0
C120 C 0.57329 -0.0024 0.53636 0.0
C121 C 0.64851 0.03918 0.51788 0.0
C122 C 0.68831 0.95044 0.50036 0.0
H123 H 0.9182 0.10023 0.45951 0.0
H124 H 0.84439 0.08156 0.47696 0.0
H125 H 0.73933 0.92546 0.4915 0.0
H126 H 0.52949 0.91278 0.53495 0.0
H127 H 0.5853 0.90639 0.51346 0.0
H128 H 0.68357 0.05407 0.48389 0.0
C129 C 0.84187 0.0509 0.46865 0.0
C130 C 0.72673 0.95312 0.48964 0.0
C131 C 0.88421 0.06144 0.45869 0.0
C132 C 0.56254 0.94839 0.53026 0.0
C133 C 0.59463 0.94472 0.51803 0.0
C134 C 0.69522 0.02565 0.48576 0.0
C135 C 0.79642 0.00176 0.46771 0.0
C136 C 0.75085 0.99332 0.47739 0.0
C137 C 0.63796 0.99021 0.51166 0.0
C138 C 0.6732 0.98771 0.49887 0.0
H139 H 0.83413 0.94322 0.43815 0.0
H140 H 0.75989 0.92436 0.4561 0.0
H141 H 0.75128 0.05951 0.4657 0.0
H142 H 0.62652 0.08143 0.53444 0.0
H143 H 0.68215 0.07503 0.51364 0.0
C144 C 0.8737 0.00328 0.78634 0.0
C145 C 0.90191 0.98902 0.77567 0.0
C146 C 0.83407 0.96618 0.79665 0.0
C147 C 0.7485 0.82276 0.80292 0.0
H148 H 0.73563 0.86509 0.84943 0.0
C149 C 0.63811 0.67656 0.85753 0.0
C150 C 0.60701 0.68635 0.86842 0.0
C151 C 0.6693 0.7131 0.84517 0.0
C152 C 0.73823 0.85289 0.83639 0.0
H153 H 0.91021 0.9243 0.76735 0.0
H154 H 0.84187 0.85963 0.78573 0.0
H155 H 0.80022 0.92921 0.82999 0.0
H156 H 0.58368 0.74193 0.87468 0.0
H157 H 0.63913 0.80656 0.8531 0.0
H158 H 0.68749 0.74592 0.80965 0.0
C159 C 0.8497 0.8994 0.78586 0.0
C160 C 0.77525 0.88962 0.82521 0.0
C161 C 0.88912 0.93653 0.77539 0.0
C162 C 0.60722 0.7333 0.86648 0.0
C163 C 0.63907 0.77032 0.8542 0.0
C164 C 0.71178 0.78594 0.81417 0.0
C165 C 0.82187 0.91385 0.79672 0.0
C166 C 0.78117 0.87497 0.80837 0.0
C167 C 0.6706 0.76062 0.84348 0.0
C168 C 0.70658 0.80052 0.83107 0.0
H169 H 0.88209 0.04327 0.78673 0.0
H170 H 0.81287 0.9786 0.80454 0.0
H171 H 0.75121 0.81026 0.78995 0.0
H172 H 0.63869 0.64065 0.85862 0.0
H173 H 0.69355 0.70475 0.83724 0.0
C174 C -0.00645 0.95261 0.12844 0.0
C175 C 0.03491 0.97711 0.11688 0.0
C176 C -0.01041 0.91476 0.14001 0.0
C177 C 0.03395 0.82142 0.14646 0.0
H178 H 0.97711 0.80807 0.19243 0.0
C179 C 0.03763 0.68631 0.19925 0.0
C180 C -0.00647 0.65733 0.20941 0.0
C181 C 0.0409 0.72336 0.18747 0.0
C182 C -0.00758 0.81092 0.17955 0.0
H183 H 0.10556 0.9823 0.10885 0.0
H184 H 0.0994 0.91689 0.12943 0.0
H185 H -0.00983 0.87981 0.17375 0.0
H186 H 0.91776 0.64375 0.21489 0.0
H187 H 0.92367 0.70926 0.19425 0.0
H188 H 0.03702 0.75296 0.15247 0.0
C189 C 0.06937 0.92624 0.12925 0.0
C190 C 2e-05 0.85209 0.16883 0.0
C191 C 0.07321 0.96409 0.11757 0.0
C192 C 0.95217 0.66541 0.20722 0.0
C193 C 0.95571 0.70311 0.19552 0.0
C194 C 0.02671 0.7805 0.15724 0.0
C195 C 0.02706 0.90054 0.14044 0.0
C196 C 0.0208 0.85785 0.15212 0.0
C197 C 0.00035 0.73276 0.18564 0.0
C198 C 0.00584 0.77479 0.17389 0.0
H199 H 0.9632 0.96152 0.12823 0.0
H200 H 0.95612 0.89542 0.14821 0.0
H201 H 0.04906 0.82393 0.13357 0.0
H202 H 0.07014 0.68091 0.20056 0.0
H203 H 0.07594 0.74584 0.18017 0.0
C204 C 0.14628 0.08946 0.45453 0.0
C205 C 0.16474 0.13358 0.44381 0.0
C206 C 0.17868 0.08605 0.46679 0.0
C207 C 0.29818 0.16269 0.49222 0.0
H208 H 0.30126 0.03434 0.49156 0.0
C209 C 0.44966 0.14059 0.53151 0.0
C210 C 0.43357 0.09157 0.53895 0.0
C211 C 0.41723 0.14697 0.52004 0.0
C212 C 0.30043 0.07017 0.49215 0.0
H213 H 0.23121 0.20968 0.43807 0.0
H214 H 0.28752 0.20389 0.45968 0.0
H215 H 0.24263 0.04338 0.47215 0.0
H216 H 0.37042 0.01106 0.54046 0.0
H217 H 0.31362 0.02243 0.521 0.0
H218 H 0.3553 0.18924 0.51244 0.0
C219 C 0.24802 0.17191 0.45851 0.0
C220 C 0.26685 0.07534 0.48097 0.0
C221 C 0.2158 0.17508 0.44609 0.0
C222 C 0.38429 0.04924 0.53481 0.0
C223 C 0.35173 0.05573 0.52353 0.0
C224 C 0.33144 0.15732 0.50357 0.0
C225 C 0.23006 0.12693 0.46875 0.0
C226 C 0.26533 0.1216 0.48089 0.0
C227 C 0.36778 0.10458 0.51591 0.0
C228 C 0.33296 0.11092 0.5037 0.0
H229 H 0.10719 0.05679 0.45312 0.0
H230 H 0.16366 0.05117 0.47466 0.0
H231 H 0.29756 0.19868 0.49249 0.0
H232 H 0.48748 0.17395 0.53441 0.0
H233 H 0.43123 0.18499 0.51425 0.0
C234 C 0.18389 0.23153 0.77019 0.0
C235 C 0.16422 0.17736 0.76964 0.0
C236 C 0.22547 0.26401 0.78113 0.0
C237 C 0.29548 0.2608 0.8204 0.0
H238 H 0.39538 0.40212 0.8062 0.0
C239 C 0.46822 0.40672 0.86416 0.0
C240 C 0.47156 0.4552 0.8663 0.0
C241 C 0.4357 0.37126 0.85133 0.0
C242 C 0.3678 0.36269 0.81032 0.0
H243 H 0.17328 0.11482 0.77987 0.0
H244 H 0.24649 0.17158 0.79866 0.0
H245 H 0.32877 0.34275 0.78569 0.0
H246 H 0.44508 0.50536 0.8563 0.0
H247 H 0.38929 0.44412 0.83391 0.0
H248 H 0.33471 0.28119 0.84508 0.0
C249 C 0.2292 0.18894 0.79093 0.0
C250 C 0.32943 0.32875 0.79862 0.0
C251 C 0.18736 0.15641 0.78009 0.0
C252 C 0.44316 0.4682 0.85505 0.0
C253 C 0.41146 0.43328 0.84212 0.0
C254 C 0.33421 0.29466 0.83205 0.0
C255 C 0.24866 0.24314 0.79165 0.0
C256 C 0.29208 0.27773 0.80362 0.0
C257 C 0.40687 0.38423 0.84025 0.0
C258 C 0.37006 0.34628 0.82724 0.0
H259 H 0.16674 0.24882 0.76235 0.0
H260 H 0.23874 0.30539 0.78156 0.0
H261 H 0.2671 0.22202 0.82479 0.0
H262 H 0.4896 0.39566 0.87268 0.0
H263 H 0.43293 0.3337 0.8501 0.0
C264 C 0.90972 0.08772 0.6919 0.0
C265 C 0.93549 0.13142 0.70306 0.0
C266 C 0.87395 0.08448 0.67961 0.0
C267 C 0.83241 0.16156 0.65481 0.0
H268 H 0.69949 0.03284 0.65401 0.0
C269 C 0.65997 0.13999 0.61461 0.0
C270 C 0.62675 0.09115 0.60673 0.0
C271 C 0.69844 0.14618 0.62628 0.0
C272 C 0.73659 0.06879 0.65382 0.0
H273 H 0.9453 0.20692 0.70958 0.0
H274 H 0.8833 0.20147 0.68792 0.0
H275 H 0.76663 0.04149 0.67373 0.0
H276 H 0.60857 0.01077 0.60463 0.0
H277 H 0.67623 0.02182 0.62444 0.0
H278 H 0.80286 0.18861 0.63466 0.0
C279 C 0.89069 0.16967 0.68878 0.0
C280 C 0.77502 0.07374 0.66518 0.0
C281 C 0.92601 0.17264 0.70122 0.0
C282 C 0.63312 0.04882 0.61063 0.0
C283 C 0.67185 0.05511 0.6221 0.0
C284 C 0.79412 0.15642 0.64326 0.0
C285 C 0.86364 0.12515 0.67806 0.0
C286 C 0.82332 0.12011 0.66579 0.0
C287 C 0.7049 0.10377 0.63017 0.0
C288 C 0.74568 0.10989 0.6426 0.0
H289 H 0.91607 0.05527 0.69296 0.0
H290 H 0.85402 0.04995 0.67139 0.0
H291 H 0.86945 0.19765 0.65494 0.0
H292 H 0.65593 0.17334 0.61192 0.0
H293 H 0.72264 0.18404 0.63241 0.0
C294 C 0.93967 0.92063 0.03043 0.0
C295 C 0.9206 0.94706 0.04 0.0
C296 C 0.90734 0.87908 0.01935 0.0
C297 C 0.76994 0.7836 0.0096 0.0
H298 H 0.82105 0.77534 0.96439 0.0
C299 C 0.63738 0.66815 0.95223 0.0
C300 C 0.65064 0.63904 0.94137 0.0
C301 C 0.6708 0.70024 0.96535 0.0
C302 C 0.80651 0.77658 0.97708 0.0
H303 H 0.85257 0.95051 0.04552 0.0
H304 H 0.79618 0.87856 0.02589 0.0
H305 H 0.87829 0.84313 0.98508 0.0
H306 H 0.70915 0.62012 0.93598 0.0
H307 H 0.76838 0.67723 0.95901 0.0
H308 H 0.6977 0.71798 0.00133 0.0
C309 C 0.836 0.88935 0.02719 0.0
C310 C 0.83925 0.81546 0.98895 0.0
C311 C 0.86836 0.93082 0.03835 0.0
C312 C 0.69791 0.64208 0.94415 0.0
C313 C 0.73181 0.67487 0.95724 0.0
C314 C 0.73717 0.74493 -0.0023 0.0
C315 C 0.85517 0.86308 0.0175 0.0
C316 C 0.82115 0.81992 0.00527 0.0
C317 C 0.71857 0.70442 0.96792 0.0
C318 C 0.75488 0.74153 0.98122 0.0
H319 H 0.9797 0.93195 0.0315 0.0
H320 H 0.92323 0.85927 0.01232 0.0
H321 H 0.75502 0.78517 0.02218 0.0
H322 H 0.60115 0.66654 0.95051 0.0
H323 H 0.65976 0.72299 0.97319 0.0
C324 C 0.02553 0.93899 0.37156 0.0
C325 C 0.06309 0.99255 0.37101 0.0
C326 C 0.03105 0.90263 0.36173 0.0
C327 C 0.1006 0.89411 0.32357 0.0
H328 H 0.05362 0.75494 0.34113 0.0
C329 C 0.12184 0.74024 0.28434 0.0
C330 C 0.07575 0.69174 0.28268 0.0
C331 C 0.12605 0.77752 0.29646 0.0
C332 C 0.06696 0.79372 0.33607 0.0
H333 H 0.13658 0.04965 0.35999 0.0
H334 H 0.14663 0.98648 0.34328 0.0
H335 H 0.04874 0.81889 0.35958 0.0
H336 H -0.00097 0.64319 0.29299 0.0
H337 H 0.00662 0.70758 0.31409 0.0
H338 H 0.11853 0.86867 0.30003 0.0
C339 C 0.11226 0.9725 0.35092 0.0
C340 C 0.06386 0.83026 0.34659 0.0
C341 C 0.10655 0.00877 0.3606 0.0
C342 C 0.03497 0.68037 0.29386 0.0
C343 C 0.03941 0.71712 0.30607 0.0
C344 C 0.10405 0.85767 0.31311 0.0
C345 C 0.07446 0.91899 0.35123 0.0
C346 C 0.07994 0.88072 0.34039 0.0
C347 C 0.08458 0.76645 0.30731 0.0
C348 C 0.08652 0.80684 0.31915 0.0
H349 H -0.00846 0.92519 0.3794 0.0
H350 H 0.00078 0.86182 0.36211 0.0
H351 H 0.11268 0.93228 0.31824 0.0
H352 H 0.15383 0.75005 0.27587 0.0
H353 H 0.16146 0.81519 0.29723 0.0
C354 C 0.10402 0.97447 0.69789 0.0
C355 C 0.10983 0.02445 0.69775 0.0
C356 C 0.13539 0.96375 0.68754 0.0
C357 C 0.26336 0.02999 0.6697 0.0
H358 H 0.21536 0.92192 0.63412 0.0
C359 C 0.39487 0.04338 0.61518 0.0
C360 C 0.39223 -0.00197 0.6086 0.0
C361 C 0.35931 0.03993 0.62722 0.0
C362 C 0.22943 0.95161 0.64424 0.0
H363 H 0.15197 0.1017 0.68622 0.0
H364 H 0.20682 0.08321 0.66858 0.0
H365 H 0.1531 0.92681 0.65295 0.0
H366 H 0.34979 0.91321 0.60962 0.0
H367 H 0.28752 0.90718 0.63102 0.0
H368 H 0.33933 0.05516 0.66124 0.0
C369 C 0.17809 0.05239 0.67663 0.0
C370 C 0.19377 0.95444 0.65495 0.0
C371 C 0.14646 0.06283 0.6867 0.0
C372 C 0.35295 0.94891 0.61446 0.0
C373 C 0.31716 0.94545 0.62664 0.0
C374 C 0.29885 0.02682 0.65922 0.0
C375 C 0.1735 0.00313 0.67715 0.0
C376 C 0.21048 0.99471 0.6674 0.0
C377 C 0.32009 0.99106 0.63319 0.0
C378 C 0.28234 0.98878 0.64594 0.0
H379 H 0.07609 0.94409 0.70625 0.0
H380 H 0.13118 0.92543 0.68812 0.0
H381 H 0.27722 0.06086 0.67942 0.0
H382 H 0.42422 0.08192 0.6109 0.0
H383 H 0.36213 0.07587 0.6316 0.0
C384 C 0.11873 0.20361 0.01615 0.0
C385 C 0.12905 0.19556 0.03334 0.0
C386 C 0.15732 0.24212 0.00595 0.0
C387 C 0.29803 0.32734 0.00181 0.0
H388 H 0.25801 0.40247 0.97054 0.0
C389 C 0.39242 0.50575 0.94768 0.0
C390 C 0.42533 0.49242 0.93951 0.0
C391 C 0.35887 0.47365 0.96064 0.0
C392 C 0.2702 0.38255 0.97935 0.0
H393 H 0.18847 0.22076 0.05319 0.0
H394 H 0.25633 0.28916 0.03536 0.0
H395 H 0.19576 0.33947 0.99066 0.0
H396 H 0.4484 0.43464 0.93842 0.0
H397 H 0.38931 0.37837 0.96047 0.0
H398 H 0.37284 0.37133 0.99072 0.0
C399 C 0.21823 0.2651 0.02974 0.0
C400 C 0.2342 0.34574 0.99074 0.0
C401 C 0.17944 0.22596 0.03996 0.0
C402 C 0.42382 0.44633 0.94452 0.0
C403 C 0.39018 0.41419 0.95732 0.0
C404 C 0.3342 0.36451 0.9905 0.0
C405 C 0.20731 0.27418 0.0127 0.0
C406 C 0.24727 0.31675 0.00182 0.0
C407 C 0.35732 0.4274 0.9656 0.0
C408 C 0.32043 0.39177 0.97885 0.0
H409 H 0.08048 0.18035 0.01055 0.0
H410 H 0.14779 0.24678 0.99273 0.0
H411 H 0.30946 0.30576 0.01014 0.0
H412 H 0.39291 0.54118 0.94419 0.0
H413 H 0.33448 0.48534 0.96686 0.0
C414 C 0.01722 0.23125 0.37681 0.0
C415 C 0.98325 0.1768 0.3764 0.0
C416 C 0.00854 0.26388 0.36615 0.0
C417 C 0.93939 0.26269 0.32607 0.0
H418 H 0.97733 0.40135 0.34241 0.0
C419 C 0.9206 0.41278 0.2832 0.0
C420 C 0.96682 0.46131 0.28232 0.0
C421 C 0.91471 0.37593 0.2957 0.0
C422 C 0.96639 0.36264 0.3377 0.0
H423 H 0.91306 0.11389 0.36469 0.0
H424 H 0.89734 0.17093 0.34632 0.0
H425 H 0.98198 0.34042 0.36235 0.0
H426 H 0.04212 0.51024 0.29424 0.0
H427 H 0.03149 0.44669 0.31607 0.0
H428 H 0.92427 0.28548 0.30134 0.0
C429 C 0.93123 0.1884 0.35464 0.0
C430 C 0.96937 0.32784 0.34907 0.0
C431 C 0.94012 0.1557 0.36522 0.0
C432 C 0.00613 0.47305 0.29452 0.0
C433 C -7e-05 0.4368 0.30712 0.0
C434 C 0.93599 0.29744 0.31472 0.0
C435 C 0.96542 0.24292 0.35493 0.0
C436 C 0.95719 0.27789 0.34329 0.0
C437 C 0.95453 0.3876 0.30772 0.0
C438 C 0.95068 0.3482 0.32032 0.0
H439 H 0.05094 0.2487 0.38522 0.0
H440 H 0.03627 0.30554 0.3665 0.0
H441 H 0.93014 0.22476 0.3211 0.0
H442 H 0.88976 0.40269 0.27391 0.0
H443 H 0.87925 0.33826 0.29593 0.0
loop_
_geom_bond_atom_site_label_1
_geom_bond_atom_site_label_2
_geom_bond_distance
_geom_bond_site_symmetry_2
_ccdc_geom_bond_type
C0 O1 1.306 . S
C0 O3 1.160 . S
O1 C0 1.306 . S
O1 Cd2 2.228 1_455 S
Cd2 O1 2.228 1_655 S
Cd2 O6 2.273 . S
Cd2 O10 2.277 1_655 S
O3 C0 1.160 . S
O3 Cd4 2.203 . S
Cd4 O3 2.203 . S
Cd4 O6 2.411 1_455 S
Cd4 O7 2.333 . S
Cd4 O8 2.352 . S
Cd4 O12 2.277 . S
Cd4 O13 2.356 . S
C5 O10 1.209 . S
C5 O12 1.226 . S
O6 Cd2 2.273 . S
O6 Cd4 2.411 1_655 S
O6 C9 1.320 . S
O7 Cd4 2.333 . S
O7 C9 1.214 1_455 S
O8 Cd4 2.352 . S
O8 C11 1.258 1_545 S
C9 O6 1.320 . S
C9 O7 1.214 1_655 S
O10 Cd2 2.277 1_455 S
O10 C5 1.209 . S
C11 O8 1.258 1_565 S
C11 O13 1.282 1_565 S
O12 Cd4 2.277 . S
O12 C5 1.226 . S
O13 Cd4 2.356 . S
O13 C11 1.282 1_545 S
C14 O15 1.306 . S
C14 O17 1.160 . S
O15 C14 1.306 . S
O15 Cd16 2.228 . S
Cd16 O15 2.228 . S
Cd16 O20 2.273 . S
Cd16 O24 2.277 . S
O17 C14 1.160 . S
O17 Cd18 2.203 . S
Cd18 O17 2.203 . S
Cd18 O20 2.411 . S
Cd18 O21 2.333 1_455 S
Cd18 O22 2.352 1_455 S
Cd18 O26 2.277 1_445 S
Cd18 O27 2.356 1_455 S
C19 O24 1.209 1_565 S
C19 O26 1.226 1_455 S
O20 Cd16 2.273 . S
O20 Cd18 2.411 . S
O20 C23 1.320 . S
O21 Cd18 2.333 1_655 S
O21 C23 1.214 1_655 S
O22 Cd18 2.352 1_655 S
O22 C25 1.258 . S
C23 O20 1.320 . S
C23 O21 1.214 1_455 S
O24 Cd16 2.277 . S
O24 C19 1.209 1_545 S
C25 O22 1.258 . S
C25 O27 1.282 . S
O26 Cd18 2.277 1_665 S
O26 C19 1.226 1_655 S
O27 Cd18 2.356 1_655 S
O27 C25 1.282 . S
C28 O29 1.306 . S
C28 O31 1.160 . S
O29 C28 1.306 . S
O29 Cd30 2.228 . S
Cd30 O29 2.228 . S
Cd30 O34 2.273 1_655 S
Cd30 O38 2.277 . S
O31 C28 1.160 . S
O31 Cd32 2.203 1_655 S
Cd32 O31 2.203 1_455 S
Cd32 O34 2.411 . S
Cd32 O35 2.333 . S
Cd32 O36 2.352 . S
Cd32 O40 2.277 1_445 S
Cd32 O41 2.356 . S
C33 O38 1.209 . S
C33 O40 1.226 1_545 S
O34 Cd30 2.273 1_455 S
O34 Cd32 2.411 . S
O34 C37 1.320 . S
O35 Cd32 2.333 . S
O35 C37 1.214 . S
O36 Cd32 2.352 . S
O36 C39 1.258 . S
C37 O34 1.320 . S
C37 O35 1.214 . S
O38 Cd30 2.277 . S
O38 C33 1.209 . S
C39 O36 1.258 . S
C39 O41 1.282 . S
O40 Cd32 2.277 1_665 S
O40 C33 1.226 1_565 S
O41 Cd32 2.356 . S
O41 C39 1.282 . S
C42 O44 1.247 . S
C42 O46 1.258 . S
C43 O50 1.247 . S
C43 O51 1.258 . S
O44 C42 1.247 . S
O44 Zn45 2.028 . S
Zn45 O44 2.028 . S
Zn45 O49 2.035 . S
Zn45 O51 2.035 . S
Zn45 O52 2.028 . S
O46 C42 1.258 . S
O46 Zn47 2.035 1_455 S
Zn47 O46 2.035 1_655 S
Zn47 O48 2.028 1_655 S
Zn47 O50 2.028 1_655 S
Zn47 O53 2.035 1_655 S
O48 Zn47 2.028 1_455 S
O48 C54 1.247 . S
O49 Zn45 2.035 . S
O49 C54 1.258 . S
O50 C43 1.247 . S
O50 Zn47 2.028 1_455 S
O51 C43 1.258 . S
O51 Zn45 2.035 . S
O52 Zn45 2.028 . S
O52 C55 1.247 . S
O53 Zn47 2.035 1_455 S
O53 C55 1.258 . S
C54 O48 1.247 . S
C54 O49 1.258 . S
C55 O52 1.247 . S
C55 O53 1.258 . S
C56 O58 1.247 . S
C56 O60 1.258 . S
C57 O64 1.247 . S
C57 O65 1.258 . S
O58 C56 1.247 . S
O58 Zn59 2.028 . S
Zn59 O58 2.028 . S
Zn59 O63 2.035 . S
Zn59 O65 2.035 . S
Zn59 O66 2.028 . S
O60 C56 1.258 . S
O60 Zn61 2.035 . S
Zn61 O60 2.035 . S
Zn61 O62 2.028 . S
Zn61 O64 2.028 . S
Zn61 O67 2.035 . S
O62 Zn61 2.028 . S
O62 C68 1.247 . S
O63 Zn59 2.035 . S
O63 C68 1.258 . S
O64 C57 1.247 . S
O64 Zn61 2.028 . S
O65 C57 1.258 . S
O65 Zn59 2.035 . S
O66 Zn59 2.028 . S
O66 C69 1.247 . S
O67 Zn61 2.035 . S
O67 C69 1.258 . S
C68 O62 1.247 . S
C68 O63 1.258 . S
C69 O66 1.247 . S
C69 O67 1.258 . S
C70 O72 1.247 . S
C70 O74 1.258 . S
C71 O78 1.247 . S
C71 O79 1.258 . S
O72 C70 1.247 . S
O72 Zn73 2.028 . S
Zn73 O72 2.028 . S
Zn73 O77 2.035 . S
Zn73 O79 2.035 . S
Zn73 O80 2.028 . S
O74 C70 1.258 . S
O74 Zn75 2.035 . S
Zn75 O74 2.035 . S
Zn75 O76 2.028 . S
Zn75 O78 2.028 . S
Zn75 O81 2.035 . S
O76 Zn75 2.028 . S
O76 C82 1.247 . S
O77 Zn73 2.035 . S
O77 C82 1.258 . S
O78 C71 1.247 . S
O78 Zn75 2.028 . S
O79 C71 1.258 . S
O79 Zn73 2.035 . S
O80 Zn73 2.028 . S
O80 C83 1.247 . S
O81 Zn75 2.035 . S
O81 C83 1.258 . S
C82 O76 1.247 . S
C82 O77 1.258 . S
C83 O80 1.247 . S
C83 O81 1.258 . S
C84 C85 1.349 . S
C84 C86 1.327 . S
C84 H109 0.950 . S
C85 C84 1.349 . S
C85 C101 1.349 . S
C86 C84 1.327 . S
C86 C105 1.429 . S
C86 H110 0.950 . S
C87 C104 1.574 . S
C87 C106 1.368 . S
C87 H111 0.949 . S
H88 C92 0.949 . S
C89 C90 1.349 . S
C89 C91 1.327 . S
C89 H112 0.950 . S
C90 C89 1.349 . S
C90 C102 1.349 . S
C91 C89 1.327 . S
C91 C107 1.429 . S
C91 H113 0.950 . S
C92 H88 0.949 . S
C92 C100 1.574 . S
C92 C108 1.368 . S
H93 C101 0.950 . S
H94 C99 0.950 . S
H95 C100 0.949 . S
H96 C102 0.950 . S
H97 C103 0.950 . S
H98 C104 0.949 . S
C99 H94 0.950 . S
C99 C101 1.327 . S
C99 C105 1.429 . S
C100 C92 1.574 . S
C100 H95 0.949 . S
C100 C106 1.368 . S
C101 C85 1.349 . S
C101 H93 0.950 . S
C101 C99 1.327 . S
C102 C90 1.349 . S
C102 H96 0.950 . S
C102 C103 1.327 . S
C103 H97 0.950 . S
C103 C102 1.327 . S
C103 C107 1.429 . S
C104 C87 1.574 . S
C104 H98 0.949 . S
C104 C108 1.368 . S
C105 C86 1.429 . S
C105 C99 1.429 . S
C105 C106 1.523 . S
C106 C87 1.368 . S
C106 C100 1.368 . S
C106 C105 1.523 . S
C107 C91 1.429 . S
C107 C103 1.429 . S
C107 C108 1.523 . S
C108 C92 1.368 . S
C108 C104 1.368 . S
C108 C107 1.523 . S
H109 C84 0.950 . S
H110 C86 0.950 . S
H111 C87 0.949 . S
H112 C89 0.950 . S
H113 C91 0.950 . S
C114 C115 1.349 . S
C114 C116 1.327 . S
C114 H139 0.950 1_545 S
C115 C114 1.349 . S
C115 C131 1.349 . S
C116 C114 1.327 . S
C116 C135 1.429 . S
C116 H140 0.950 1_545 S
C117 C134 1.574 . S
C117 C136 1.368 . S
C117 H141 0.949 . S
H118 C122 0.949 1_565 S
C119 C120 1.349 . S
C119 C121 1.327 . S
C119 H142 0.950 . S
C120 C119 1.349 . S
C120 C132 1.349 . S
C121 C119 1.327 . S
C121 C137 1.429 . S
C121 H143 0.950 . S
C122 H118 0.949 1_545 S
C122 C130 1.574 . S
C122 C138 1.368 . S
H123 C131 0.950 . S
H124 C129 0.950 . S
H125 C130 0.949 1_565 S
H126 C132 0.943 1_565 S
H127 C133 0.950 1_565 S
H128 C134 0.949 . S
C129 H124 0.950 . S
C129 C131 1.327 . S
C129 C135 1.429 . S
C130 C122 1.574 . S
C130 H125 0.949 1_545 S
C130 C136 1.368 . S
C131 C115 1.349 . S
C131 H123 0.950 . S
C131 C129 1.327 . S
C132 C120 1.349 . S
C132 H126 0.943 1_545 S
C132 C133 1.327 . S
C133 H127 0.950 1_545 S
C133 C132 1.327 . S
C133 C137 1.429 . S
C134 C117 1.574 . S
C134 H128 0.949 . S
C134 C138 1.368 . S
C135 C116 1.429 . S
C135 C129 1.429 . S
C135 C136 1.523 . S
C136 C117 1.368 . S
C136 C130 1.368 . S
C136 C135 1.523 . S
C137 C121 1.429 . S
C137 C133 1.429 . S
C137 C138 1.523 . S
C138 C122 1.368 . S
C138 C134 1.368 . S
C138 C137 1.523 . S
H139 C114 0.950 1_565 S
H140 C116 0.950 1_565 S
H141 C117 0.949 . S
H142 C119 0.950 . S
H143 C121 0.950 . S
C144 C145 1.349 . S
C144 C146 1.327 . S
C144 H169 0.950 1_565 S
C145 C144 1.349 . S
C145 C161 1.349 . S
C146 C144 1.327 . S
C146 C165 1.429 . S
C146 H170 0.950 . S
C147 C164 1.574 . S
C147 C166 1.368 . S
C147 H171 0.949 . S
H148 C152 0.949 . S
C149 C150 1.349 . S
C149 C151 1.327 . S
C149 H172 0.950 . S
C150 C149 1.349 . S
C150 C162 1.349 . S
C151 C149 1.327 . S
C151 C167 1.429 . S
C151 H173 0.950 . S
C152 H148 0.949 . S
C152 C160 1.574 . S
C152 C168 1.368 . S
H153 C161 0.950 . S
H154 C159 0.950 . S
H155 C160 0.949 . S
H156 C162 0.950 . S
H157 C163 0.950 . S
H158 C164 0.949 . S
C159 H154 0.950 . S
C159 C161 1.327 . S
C159 C165 1.429 . S
C160 C152 1.574 . S
C160 H155 0.949 . S
C160 C166 1.368 . S
C161 C145 1.349 . S
C161 H153 0.950 . S
C161 C159 1.327 . S
C162 C150 1.349 . S
C162 H156 0.950 . S
C162 C163 1.327 . S
C163 H157 0.950 . S
C163 C162 1.327 . S
C163 C167 1.429 . S
C164 C147 1.574 . S
C164 H158 0.949 . S
C164 C168 1.368 . S
C165 C146 1.429 . S
C165 C159 1.429 . S
C165 C166 1.523 . S
C166 C147 1.368 . S
C166 C160 1.368 . S
C166 C165 1.523 . S
C167 C151 1.429 . S
C167 C163 1.429 . S
C167 C168 1.523 . S
C168 C152 1.368 . S
C168 C164 1.368 . S
C168 C167 1.523 . S
H169 C144 0.950 1_545 S
H170 C146 0.950 . S
H171 C147 0.949 . S
H172 C149 0.950 . S
H173 C151 0.950 . S
C174 C175 1.349 . S
C174 C176 1.327 . S
C174 H199 0.950 . S
C175 C174 1.349 . S
C175 C191 1.349 . S
C176 C174 1.327 . S
C176 C195 1.429 . S
C176 H200 0.950 . S
C177 C194 1.574 . S
C177 C196 1.368 . S
C177 H201 0.949 . S
H178 C182 0.949 . S
C179 C180 1.349 . S
C179 C181 1.327 . S
C179 H202 0.950 . S
C180 C179 1.349 . S
C180 C192 1.349 . S
C181 C179 1.327 . S
C181 C197 1.429 . S
C181 H203 0.950 . S
C182 H178 0.949 . S
C182 C190 1.574 . S
C182 C198 1.368 . S
H183 C191 0.950 . S
H184 C189 0.950 . S
H185 C190 0.949 . S
H186 C192 0.950 . S
H187 C193 0.950 . S
H188 C194 0.949 . S
C189 H184 0.950 . S
C189 C191 1.327 . S
C189 C195 1.429 . S
C190 C182 1.574 . S
C190 H185 0.949 . S
C190 C196 1.368 . S
C191 C175 1.349 . S
C191 H183 0.950 . S
C191 C189 1.327 . S
C192 C180 1.349 . S
C192 H186 0.950 . S
C192 C193 1.327 . S
C193 H187 0.950 . S
C193 C192 1.327 . S
C193 C197 1.429 . S
C194 C177 1.574 . S
C194 H188 0.949 . S
C194 C198 1.368 . S
C195 C176 1.429 . S
C195 C189 1.429 . S
C195 C196 1.523 . S
C196 C177 1.368 . S
C196 C190 1.368 . S
C196 C195 1.523 . S
C197 C181 1.429 . S
C197 C193 1.429 . S
C197 C198 1.523 . S
C198 C182 1.368 . S
C198 C194 1.368 . S
C198 C197 1.523 . S
H199 C174 0.950 . S
H200 C176 0.950 . S
H201 C177 0.949 . S
H202 C179 0.950 . S
H203 C181 0.950 . S
C204 C205 1.349 . S
C204 C206 1.327 . S
C204 H229 0.950 . S
C205 C204 1.349 . S
C205 C221 1.349 . S
C206 C204 1.327 . S
C206 C225 1.429 . S
C206 H230 0.950 . S
C207 C224 1.574 . S
C207 C226 1.368 . S
C207 H231 0.949 . S
H208 C212 0.949 . S
C209 C210 1.349 . S
C209 C211 1.327 . S
C209 H232 0.950 . S
C210 C209 1.349 . S
C210 C222 1.349 . S
C211 C209 1.327 . S
C211 C227 1.429 . S
C211 H233 0.950 . S
C212 H208 0.949 . S
C212 C220 1.574 . S
C212 C228 1.368 . S
H213 C221 0.950 . S
H214 C219 0.950 . S
H215 C220 0.949 . S
H216 C222 0.950 . S
H217 C223 0.950 . S
H218 C224 0.949 . S
C219 H214 0.950 . S
C219 C221 1.327 . S
C219 C225 1.429 . S
C220 C212 1.574 . S
C220 H215 0.949 . S
C220 C226 1.368 . S
C221 C205 1.349 . S
C221 H213 0.950 . S
C221 C219 1.327 . S
C222 C210 1.349 . S
C222 H216 0.950 . S
C222 C223 1.327 . S
C223 H217 0.950 . S
C223 C222 1.327 . S
C223 C227 1.429 . S
C224 C207 1.574 . S
C224 H218 0.949 . S
C224 C228 1.368 . S
C225 C206 1.429 . S
C225 C219 1.429 . S
C225 C226 1.523 . S
C226 C207 1.368 . S
C226 C220 1.368 . S
C226 C225 1.523 . S
C227 C211 1.429 . S
C227 C223 1.429 . S
C227 C228 1.523 . S
C228 C212 1.368 . S
C228 C224 1.368 . S
C228 C227 1.523 . S
H229 C204 0.950 . S
H230 C206 0.950 . S
H231 C207 0.949 . S
H232 C209 0.950 . S
H233 C211 0.950 . S
C234 C235 1.349 . S
C234 C236 1.327 . S
C234 H259 0.950 . S
C235 C234 1.349 . S
C235 C251 1.349 . S
C236 C234 1.327 . S
C236 C255 1.429 . S
C236 H260 0.950 . S
C237 C254 1.574 . S
C237 C256 1.368 . S
C237 H261 0.949 . S
H238 C242 0.949 . S
C239 C240 1.349 . S
C239 C241 1.327 . S
C239 H262 0.950 . S
C240 C239 1.349 . S
C240 C252 1.349 . S
C241 C239 1.327 . S
C241 C257 1.429 . S
C241 H263 0.950 . S
C242 H238 0.949 . S
C242 C250 1.574 . S
C242 C258 1.368 . S
H243 C251 0.950 . S
H244 C249 0.950 . S
H245 C250 0.949 . S
H246 C252 0.950 . S
H247 C253 0.950 . S
H248 C254 0.949 . S
C249 H244 0.950 . S
C249 C251 1.327 . S
C249 C255 1.429 . S
C250 C242 1.574 . S
C250 H245 0.949 . S
C250 C256 1.368 . S
C251 C235 1.349 . S
C251 H243 0.950 . S
C251 C249 1.327 . S
C252 C240 1.349 . S
C252 H246 0.950 . S
C252 C253 1.327 . S
C253 H247 0.950 . S
C253 C252 1.327 . S
C253 C257 1.429 . S
C254 C237 1.574 . S
C254 H248 0.949 . S
C254 C258 1.368 . S
C255 C236 1.429 . S
C255 C249 1.429 . S
C255 C256 1.523 . S
C256 C237 1.368 . S
C256 C250 1.368 . S
C256 C255 1.523 . S
C257 C241 1.429 . S
C257 C253 1.429 . S
C257 C258 1.523 . S
C258 C242 1.368 . S
C258 C254 1.368 . S
C258 C257 1.523 . S
H259 C234 0.950 . S
H260 C236 0.950 . S
H261 C237 0.949 . S
H262 C239 0.950 . S
H263 C241 0.950 . S
C264 C265 1.349 . S
C264 C266 1.327 . S
C264 H289 0.950 . S
C265 C264 1.349 . S
C265 C281 1.349 . S
C266 C264 1.327 . S
C266 C285 1.429 . S
C266 H290 0.950 . S
C267 C284 1.574 . S
C267 C286 1.368 . S
C267 H291 0.949 . S
H268 C272 0.949 . S
C269 C270 1.349 . S
C269 C271 1.327 . S
C269 H292 0.950 . S
C270 C269 1.349 . S
C270 C282 1.349 . S
C271 C269 1.327 . S
C271 C287 1.429 . S
C271 H293 0.950 . S
C272 H268 0.949 . S
C272 C280 1.574 . S
C272 C288 1.368 . S
H273 C281 0.950 . S
H274 C279 0.950 . S
H275 C280 0.949 . S
H276 C282 0.950 . S
H277 C283 0.950 . S
H278 C284 0.949 . S
C279 H274 0.950 . S
C279 C281 1.327 . S
C279 C285 1.429 . S
C280 C272 1.574 . S
C280 H275 0.949 . S
C280 C286 1.368 . S
C281 C265 1.349 . S
C281 H273 0.950 . S
C281 C279 1.327 . S
C282 C270 1.349 . S
C282 H276 0.950 . S
C282 C283 1.327 . S
C283 H277 0.950 . S
C283 C282 1.327 . S
C283 C287 1.429 . S
C284 C267 1.574 . S
C284 H278 0.949 . S
C284 C288 1.368 . S
C285 C266 1.429 . S
C285 C279 1.429 . S
C285 C286 1.523 . S
C286 C267 1.368 . S
C286 C280 1.368 . S
C286 C285 1.523 . S
C287 C271 1.429 . S
C287 C283 1.429 . S
C287 C288 1.523 . S
C288 C272 1.368 . S
C288 C284 1.368 . S
C288 C287 1.523 . S
H289 C264 0.950 . S
H290 C266 0.950 . S
H291 C267 0.949 . S
H292 C269 0.950 . S
H293 C271 0.950 . S
C294 C295 1.349 . S
C294 C296 1.327 . S
C294 H319 0.950 1_565 S
C295 C294 1.349 . S
C295 C311 1.349 . S
C296 C294 1.327 . S
C296 C315 1.429 . S
C296 H320 0.950 . S
C297 C314 1.574 . S
C297 C316 1.368 . S
C297 H321 0.949 . S
H298 C302 0.949 . S
C299 C300 1.349 . S
C299 C301 1.327 . S
C299 H322 0.950 . S
C300 C299 1.349 . S
C300 C312 1.349 . S
C301 C299 1.327 . S
C301 C317 1.429 . S
C301 H323 0.950 . S
C302 H298 0.949 . S
C302 C310 1.574 . S
C302 C318 1.368 . S
H303 C311 0.950 . S
H304 C309 0.950 . S
H305 C310 0.949 . S
H306 C312 0.950 . S
H307 C313 0.950 . S
H308 C314 0.949 . S
C309 H304 0.950 . S
C309 C311 1.327 . S
C309 C315 1.429 . S
C310 C302 1.574 . S
C310 H305 0.949 . S
C310 C316 1.368 1_556 S
C311 C295 1.349 . S
C311 H303 0.950 . S
C311 C309 1.327 . S
C312 C300 1.349 . S
C312 H306 0.950 . S
C312 C313 1.327 . S
C313 H307 0.950 . S
C313 C312 1.327 . S
C313 C317 1.429 . S
C314 C297 1.574 . S
C314 H308 0.949 . S
C314 C318 1.368 1_554 S
C315 C296 1.429 . S
C315 C309 1.429 . S
C315 C316 1.523 . S
C316 C297 1.368 . S
C316 C310 1.368 1_554 S
C316 C315 1.523 . S
C317 C301 1.429 . S
C317 C313 1.429 . S
C317 C318 1.523 . S
C318 C302 1.368 . S
C318 C314 1.368 1_556 S
C318 C317 1.523 . S
H319 C294 0.950 1_545 S
H320 C296 0.950 . S
H321 C297 0.949 . S
H322 C299 0.950 . S
H323 C301 0.950 . S
C324 C325 1.349 1_655 S
C324 C326 1.327 . S
C324 H349 0.950 . S
C325 C324 1.349 1_455 S
C325 C341 1.349 . S
C326 C324 1.327 . S
C326 C345 1.429 1_655 S
C326 H350 0.950 . S
C327 C344 1.574 . S
C327 C346 1.368 . S
C327 H351 0.949 . S
H328 C332 0.949 1_655 S
C329 C330 1.349 . S
C329 C331 1.327 . S
C329 H352 0.950 . S
C330 C329 1.349 . S
C330 C342 1.349 . S
C331 C329 1.327 . S
C331 C347 1.429 . S
C331 H353 0.950 . S
C332 H328 0.949 1_455 S
C332 C340 1.574 1_455 S
C332 C348 1.368 . S
H333 C341 0.950 1_545 S
H334 C339 0.950 . S
H335 C340 0.949 . S
H336 C342 0.950 1_655 S
H337 C343 0.950 1_655 S
H338 C344 0.949 . S
C339 H334 0.950 . S
C339 C341 1.327 . S
C339 C345 1.429 . S
C340 C332 1.574 1_655 S
C340 H335 0.949 . S
C340 C346 1.368 1_655 S
C341 C325 1.349 . S
C341 H333 0.950 1_565 S
C341 C339 1.327 . S
C342 C330 1.349 . S
C342 H336 0.950 1_455 S
C342 C343 1.327 . S
C343 H337 0.950 1_455 S
C343 C342 1.327 . S
C343 C347 1.429 . S
C344 C327 1.574 . S
C344 H338 0.949 . S
C344 C348 1.368 . S
C345 C326 1.429 1_455 S
C345 C339 1.429 . S
C345 C346 1.523 . S
C346 C327 1.368 . S
C346 C340 1.368 1_455 S
C346 C345 1.523 . S
C347 C331 1.429 . S
C347 C343 1.429 . S
C347 C348 1.523 . S
C348 C332 1.368 . S
C348 C344 1.368 . S
C348 C347 1.523 . S
H349 C324 0.950 . S
H350 C326 0.950 . S
H351 C327 0.949 . S
H352 C329 0.950 . S
H353 C331 0.950 . S
C354 C355 1.349 . S
C354 C356 1.327 . S
C354 H379 0.950 . S
C355 C354 1.349 . S
C355 C371 1.349 . S
C356 C354 1.327 . S
C356 C375 1.429 . S
C356 H380 0.950 . S
C357 C374 1.574 . S
C357 C376 1.368 . S
C357 H381 0.949 . S
H358 C362 0.949 . S
C359 C360 1.349 . S
C359 C361 1.327 . S
C359 H382 0.950 . S
C360 C359 1.349 . S
C360 C372 1.349 . S
C361 C359 1.327 . S
C361 C377 1.429 . S
C361 H383 0.950 . S
C362 H358 0.949 . S
C362 C370 1.574 . S
C362 C378 1.368 . S
H363 C371 0.950 . S
H364 C369 0.950 . S
H365 C370 0.949 . S
H366 C372 0.950 . S
H367 C373 0.950 . S
H368 C374 0.949 . S
C369 H364 0.950 . S
C369 C371 1.327 . S
C369 C375 1.429 . S
C370 C362 1.574 . S
C370 H365 0.949 . S
C370 C376 1.368 . S
C371 C355 1.349 . S
C371 H363 0.950 . S
C371 C369 1.327 . S
C372 C360 1.349 . S
C372 H366 0.950 . S
C372 C373 1.327 . S
C373 H367 0.950 . S
C373 C372 1.327 . S
C373 C377 1.429 . S
C374 C357 1.574 . S
C374 H368 0.949 . S
C374 C378 1.368 . S
C375 C356 1.429 . S
C375 C369 1.429 . S
C375 C376 1.523 . S
C376 C357 1.368 . S
C376 C370 1.368 . S
C376 C375 1.523 . S
C377 C361 1.429 . S
C377 C373 1.429 . S
C377 C378 1.523 . S
C378 C362 1.368 . S
C378 C374 1.368 . S
C378 C377 1.523 . S
H379 C354 0.950 . S
H380 C356 0.950 . S
H381 C357 0.949 . S
H382 C359 0.950 . S
H383 C361 0.950 . S
C384 C385 1.349 . S
C384 C386 1.327 . S
C384 H409 0.950 . S
C385 C384 1.349 . S
C385 C401 1.349 . S
C386 C384 1.327 . S
C386 C405 1.429 . S
C386 H410 0.950 . S
C387 C404 1.574 . S
C387 C406 1.368 . S
C387 H411 0.949 . S
H388 C392 0.949 . S
C389 C390 1.349 . S
C389 C391 1.327 . S
C389 H412 0.950 . S
C390 C389 1.349 . S
C390 C402 1.349 . S
C391 C389 1.327 . S
C391 C407 1.429 . S
C391 H413 0.950 . S
C392 H388 0.949 . S
C392 C400 1.574 . S
C392 C408 1.368 . S
H393 C401 0.950 . S
H394 C399 0.950 . S
H395 C400 0.949 . S
H396 C402 0.950 . S
H397 C403 0.950 . S
H398 C404 0.949 . S
C399 H394 0.950 . S
C399 C401 1.327 . S
C399 C405 1.429 . S
C400 C392 1.574 . S
C400 H395 0.949 . S
C400 C406 1.368 1_556 S
C401 C385 1.349 . S
C401 H393 0.950 . S
C401 C399 1.327 . S
C402 C390 1.349 . S
C402 H396 0.950 . S
C402 C403 1.327 . S
C403 H397 0.950 . S
C403 C402 1.327 . S
C403 C407 1.429 . S
C404 C387 1.574 . S
C404 H398 0.949 . S
C404 C408 1.368 1_554 S
C405 C386 1.429 . S
C405 C399 1.429 . S
C405 C406 1.523 . S
C406 C387 1.368 . S
C406 C400 1.368 1_554 S
C406 C405 1.523 . S
C407 C391 1.429 . S
C407 C403 1.429 . S
C407 C408 1.523 . S
C408 C392 1.368 . S
C408 C404 1.368 1_556 S
C408 C407 1.523 . S
H409 C384 0.950 . S
H410 C386 0.950 . S
H411 C387 0.949 . S
H412 C389 0.950 . S
H413 C391 0.950 . S
C414 C415 1.349 . S
C414 C416 1.327 . S
C414 H439 0.950 . S
C415 C414 1.349 . S
C415 C431 1.349 . S
C416 C414 1.327 . S
C416 C435 1.429 . S
C416 H440 0.950 . S
C417 C434 1.574 . S
C417 C436 1.368 . S
C417 H441 0.949 1_455 S
H418 C422 0.949 . S
C419 C420 1.349 . S
C419 C421 1.327 . S
C419 H442 0.957 . S
C420 C419 1.349 . S
C420 C432 1.349 . S
C421 C419 1.327 . S
C421 C437 1.429 . S
C421 H443 0.950 1_455 S
C422 H418 0.949 . S
C422 C430 1.574 . S
C422 C438 1.368 . S
H423 C431 0.950 1_655 S
H424 C429 0.950 1_655 S
H425 C430 0.949 . S
H426 C432 0.950 . S
H427 C433 0.950 . S
H428 C434 0.949 1_655 S
C429 H424 0.950 1_455 S
C429 C431 1.327 . S
C429 C435 1.429 . S
C430 C422 1.574 . S
C430 H425 0.949 . S
C430 C436 1.368 . S
C431 C415 1.349 . S
C431 H423 0.950 1_455 S
C431 C429 1.327 . S
C432 C420 1.349 . S
C432 H426 0.950 . S
C432 C433 1.327 . S
C433 H427 0.950 . S
C433 C432 1.327 . S
C433 C437 1.429 . S
C434 C417 1.574 . S
C434 H428 0.949 1_455 S
C434 C438 1.368 . S
C435 C416 1.429 . S
C435 C429 1.429 . S
C435 C436 1.523 . S
C436 C417 1.368 . S
C436 C430 1.368 . S
C436 C435 1.523 . S
C437 C421 1.429 . S
C437 C433 1.429 . S
C437 C438 1.523 . S
C438 C422 1.368 . S
C438 C434 1.368 . S
C438 C437 1.523 . S
H439 C414 0.950 . S
H440 C416 0.950 . S
H441 C417 0.949 1_655 S
H442 C419 0.957 . S
H443 C421 0.950 1_655 S
C90 C43 1.427 . S
C85 C0 1.426 . S
C115 C25 1.456 . S
C120 C69 1.455 . S
C145 C33 1.476 1_565 S
C150 C71 1.476 . S
C175 C11 1.404 . S
C180 C55 1.403 . S
C210 C57 1.457 . S
C205 C14 1.454 . S
C235 C37 1.469 . S
C240 C83 1.474 . S
C270 C56 1.456 . S
C265 C28 1.453 . S
C295 C9 1.469 1_565 S
C300 C82 1.473 . S
C330 C42 1.503 . S
C325 C19 1.502 . S
C360 C68 1.454 . S
C355 C39 1.455 . S
C390 C70 1.475 . S
C385 C5 1.475 . S
C415 C23 1.517 . S
C420 C54 1.523 . S
