# Generated by pormake.
# Topology nia, (6,6)-cn, num edge types: 1
# Building blocks:
#     Node 0, Type 0, BuildingBlock: CUWYAW_clean_sbu_0, # of connection points: 6
#     Node 1, Type 0, BuildingBlock: CUWYAW_clean_sbu_0, # of connection points: 6
#     Node 2, Type 1, BuildingBlock: MIDCAF_clean_sbu_0, # of connection points: 6
#     Node 3, Type 1, BuildingBlock: MIDCAF_clean_sbu_0, # of connection points: 6
#     Edge 4, Type (0, 1), BuildingBlock: MIFKUJ_clean_linker_0, # of connection points: 2
#     Edge 5, Type (0, 1), BuildingBlock: MIFKUJ_clean_linker_0, # of connection points: 2
#     Edge 6, Type (0, 1), BuildingBlock: MIFKUJ_clean_linker_0, # of connection points: 2
#     Edge 7, Type (0, 1), BuildingBlock: MIFKUJ_clean_linker_0, # of connection points: 2
#     Edge 8, Type (0, 1), BuildingBlock: MIFKUJ_clean_linker_0, # of connection points: 2
#     Edge 9, Type (0, 1), BuildingBlock: MIFKUJ_clean_linker_0, # of connection points: 2
#     Edge 10, Type (0, 1), BuildingBlock: MIFKUJ_clean_linker_0, # of connection points: 2
#     Edge 11, Type (0, 1), BuildingBlock: MIFKUJ_clean_linker_0, # of connection points: 2
#     Edge 12, Type (0, 1), BuildingBlock: MIFKUJ_clean_linker_0, # of connection points: 2
#     Edge 13, Type (0, 1), BuildingBlock: MIFKUJ_clean_linker_0, # of connection points: 2
#     Edge 14, Type (0, 1), BuildingBlock: MIFKUJ_clean_linker_0, # of connection points: 2
#     Edge 15, Type (0, 1), BuildingBlock: MIFKUJ_clean_linker_0, # of connection points: 2
# Relax obj value: 0.258
# Max RMSD: 0.262
# Mean RMSD: 0.226
data_MOF--net-nia--node1-CUWYAW_clean_sbu_0--node2-MIDCAF_clean_sbu_0--edge1-MIFKUJ_clean_linker_0
_symmetry_space_group_name_H-M    P1
_symmetry_Int_Tables_number       1
_symmetry_cell_setting            triclinic
loop_
_symmetry_equiv_pos_as_xyz
'x, y, z'
_cell_length_a     35.197196
_cell_length_b     32.29944
_cell_length_c     44.067473
_cell_angle_alpha  99.299536
_cell_angle_beta   74.309623
_cell_angle_gamma 128.31723
loop_
_atom_site_label
_atom_site_type_symbol
_atom_site_fract_x
_atom_site_fract_y
_atom_site_fract_z
_atom_type_partial_charge
C0 C 0.04897 0.93874 0.0451 0.0
Eu1 Eu 0.01913 0.98463 0.02751 0.0
C2 C 0.06601 0.91261 0.05511 0.0
C3 C 0.03294 0.86866 0.07538 0.0
C4 C 0.04974 0.84545 0.08607 0.0
C5 C 0.09991 0.86555 0.07651 0.0
C6 C 0.13238 0.90816 0.05504 0.0
C7 C 0.11565 0.93173 0.04466 0.0
C8 C 0.93286 0.96823 0.05931 0.0
C9 C 0.97338 0.92873 0.96542 0.0
C10 C 0.93016 0.05288 0.98484 0.0
Eu11 Eu 0.98458 0.03096 0.99644 0.0
C12 C 0.93095 0.08706 0.96583 0.0
C13 C 0.93819 0.08277 0.93284 0.0
C14 C 0.93084 0.10914 0.91574 0.0
C15 C 0.91646 0.14048 0.93126 0.0
C16 C 0.91186 0.14706 0.964 0.0
C17 C 0.91873 0.12024 0.98117 0.0
C18 C 0.08036 0.07253 0.96564 0.0
C19 C 0.04419 0.09429 0.05243 0.0
O20 O 0.07949 0.98803 0.03547 0.0
O21 O 0.00219 0.91449 0.04542 0.0
O22 O 0.96712 0.98038 0.07262 0.0
O23 O 0.94525 0.96469 0.02989 0.0
O24 O 0.00258 0.9367 0.98281 0.0
O25 O 0.95606 0.95592 0.96944 0.0
O26 O 0.95391 0.07461 1.00779 0.0
O27 O 0.9338 0.01658 0.96999 0.0
O28 O 0.05443 0.08448 0.95907 0.0
O29 O 0.05459 0.0403 0.9884 0.0
O30 O 0.0089 0.08213 0.03921 0.0
O31 O 0.06102 0.06633 0.04732 0.0
H32 H 0.99439 0.85316 0.08371 0.0
H33 H 0.02375 0.81315 0.10285 0.0
H34 H 0.17095 0.9239 0.04662 0.0
H35 H 0.14164 0.96511 0.0286 0.0
H36 H 0.94769 0.05755 0.92031 0.0
H37 H 0.93508 0.10394 0.89044 0.0
H38 H 0.90047 0.17073 0.9765 0.0
H39 H 0.91252 0.12375 1.00661 0.0
C40 C 0.94302 0.97059 0.45205 0.0
Eu41 Eu 0.98796 0.99865 0.49768 0.0
C42 C 0.90095 0.96621 0.44707 0.0
C43 C 0.85824 0.91629 0.44221 0.0
C44 C 0.8179 0.91097 0.43744 0.0
C45 C 0.81967 0.95558 0.43714 0.0
C46 C 0.86243 0.00568 0.44183 0.0
C47 C 0.90274 0.01098 0.44697 0.0
C48 C 0.96058 0.94205 0.54909 0.0
C49 C 0.97808 0.06851 0.55557 0.0
C50 C 0.10745 0.06826 0.58669 0.0
Eu51 Eu 0.06523 0.05317 0.54195 0.0
C52 C 0.12966 0.04697 0.59608 0.0
C53 C 0.18062 0.07169 0.58493 0.0
C54 C 0.20317 0.05469 0.59492 0.0
C55 C 0.17553 0.01266 0.61652 0.0
C56 C 0.12424 0.98695 0.62724 0.0
C57 C 0.10145 0.00395 0.61708 0.0
C58 C 0.09266 0.1227 0.49762 0.0
C59 C 0.07951 0.98999 0.48045 0.0
O60 O 0.9832 0.01826 0.4547 0.0
O61 O 0.93213 0.9368 0.47197 0.0
O62 O 0.92989 0.94154 0.53761 0.0
O63 O 0.00392 0.97073 0.5321 0.0
O64 O 0.96665 0.04722 0.52808 0.0
O65 O 0.01022 0.06985 0.56692 0.0
O66 O 0.05897 0.03771 0.59021 0.0
O67 O 0.13137 0.09581 0.5604 0.0
O68 O 0.11918 0.13483 0.51763 0.0
O69 O 0.05541 0.0755 0.50251 0.0
O70 O 0.09165 0.01118 0.50783 0.0
O71 O 0.04416 0.98502 0.47104 0.0
H72 H 0.85617 0.88132 0.4419 0.0
H73 H 0.78573 0.872 0.43311 0.0
H74 H 0.86463 0.04058 0.44147 0.0
H75 H 0.93525 0.05008 0.45065 0.0
H76 H 0.20367 0.10538 0.5691 0.0
H77 H 0.24299 0.07653 0.58689 0.0
H78 H 0.10206 0.95465 0.64404 0.0
H79 H 0.06211 0.98425 0.62622 0.0
Zn80 Zn 0.34084 0.66298 0.21595 0.0
Zn81 Zn 0.29506 0.64603 0.33342 0.0
Zn82 Zn 0.31814 0.65673 0.27602 0.0
C83 C 0.3966 0.69692 0.31565 0.0
C84 C 0.24306 0.54564 0.31822 0.0
O85 O 0.28543 0.69072 0.26376 0.0
O86 O 0.3019 0.6854 0.21165 0.0
C87 C 0.43138 0.72542 0.22909 0.0
O88 O 0.38906 0.69985 0.28936 0.0
O89 O 0.36039 0.67084 0.33843 0.0
O90 O 0.24051 0.57116 0.34247 0.0
O91 O 0.27123 0.5706 0.2918 0.0
O92 O 0.4133 0.71489 0.20543 0.0
O93 O 0.40232 0.70635 0.25652 0.0
O94 O 0.27997 0.57494 0.25873 0.0
O95 O 0.3128 0.58837 0.20761 0.0
C96 C 0.28483 0.55705 0.23079 0.0
O97 O 0.28319 0.69858 0.29667 0.0
O98 O 0.27912 0.69499 0.34702 0.0
C99 C 0.28202 0.69642 0.23654 0.0
C100 C 0.27391 0.71148 0.32559 0.0
Zn101 Zn 0.6765 0.35981 0.80616 0.0
Zn102 Zn 0.71534 0.36598 0.68839 0.0
Zn103 Zn 0.69414 0.36236 0.74813 0.0
C104 C 0.74826 0.46665 0.70395 0.0
C105 C 0.61172 0.28893 0.70829 0.0
O106 O 0.72529 0.32785 0.76234 0.0
O107 O 0.68581 0.3078 0.81219 0.0
C108 C 0.74956 0.46476 0.78928 0.0
O109 O 0.73723 0.44686 0.73108 0.0
O110 O 0.73864 0.43744 0.68006 0.0
O111 O 0.64697 0.30563 0.68429 0.0
O112 O 0.6209 0.30858 0.73562 0.0
O113 O 0.73162 0.434 0.81199 0.0
O114 O 0.7361 0.44605 0.76285 0.0
O115 O 0.6105 0.31596 0.76927 0.0
O116 O 0.6086 0.33818 0.81956 0.0
C117 C 0.58606 0.31497 0.79746 0.0
O118 O 0.7358 0.32813 0.72908 0.0
O119 O 0.76468 0.35165 0.67889 0.0
C120 C 0.7145 0.30614 0.78854 0.0
C121 C 0.76229 0.33035 0.70166 0.0
H122 H 0.18878 0.92206 0.09404 0.0
H123 H 0.21636 0.89072 0.12318 0.0
H124 H 0.08138 0.73252 0.12297 0.0
H125 H 0.05405 0.76308 0.09256 0.0
H126 H 0.10434 0.76981 0.18374 0.0
H127 H 0.18013 0.75352 0.07982 0.0
H128 H 0.23025 0.78305 0.02574 0.0
H129 H 0.35857 0.90706 0.06228 0.0
H130 H 0.30893 0.87879 0.11661 0.0
H131 H 0.18466 0.64154 0.23702 0.0
H132 H 0.14924 0.67156 0.21404 0.0
H133 H 0.28918 0.82774 0.20171 0.0
H134 H 0.32454 0.79735 0.22432 0.0
H135 H 0.26064 0.78865 0.14722 0.0
H136 H 0.18527 0.80602 0.25109 0.0
H137 H 0.13497 0.77907 0.30515 0.0
H138 H 0.00614 0.65427 0.26942 0.0
H139 H 0.05591 0.68022 0.21496 0.0
C140 C 0.16538 0.88032 0.09937 0.0
C141 C 0.11897 0.84516 0.09105 0.0
C142 C 0.18108 0.86259 0.11631 0.0
C143 C 0.15071 0.80944 0.12539 0.0
C144 C 0.10506 0.77383 0.11643 0.0
C145 C 0.08951 0.79142 0.09913 0.0
C146 C 0.16633 0.79177 0.14508 0.0
C147 C 0.13808 0.77304 0.17565 0.0
C148 C 0.21091 0.79736 0.13476 0.0
C149 C 0.24079 0.81437 0.10221 0.0
C150 C 0.21894 0.78739 0.0763 0.0
C151 C 0.24726 0.80384 0.04562 0.0
C152 C 0.29754 0.84698 0.04058 0.0
C153 C 0.31961 0.8737 0.06622 0.0
C154 C 0.29142 0.85747 0.09695 0.0
C155 C 0.20697 0.68277 0.23064 0.0
C156 C 0.25688 0.71753 0.23279 0.0
C157 C 0.18688 0.69987 0.2174 0.0
C158 C 0.21664 0.75188 0.20605 0.0
C159 C 0.26561 0.78745 0.21025 0.0
C160 C 0.28564 0.77032 0.22342 0.0
C161 C 0.19905 0.76721 0.18624 0.0
C162 C 0.22686 0.78532 0.15547 0.0
C163 C 0.15408 0.76102 0.19644 0.0
C164 C 0.12437 0.74467 0.22903 0.0
C165 C 0.14634 0.77244 0.25477 0.0
C166 C 0.11789 0.75742 0.28549 0.0
C167 C 0.06742 0.71485 0.2908 0.0
C168 C 0.04526 0.68719 0.26531 0.0
C169 C 0.07354 0.70206 0.2345 0.0
H170 H 0.04546 0.70343 0.31465 0.0
H171 H 0.31945 0.85963 0.01679 0.0
H172 H 0.16198 0.99627 0.67876 0.0
H173 H 0.22498 0.01342 0.70311 0.0
H174 H 0.31508 0.02672 0.6111 0.0
H175 H 0.25098 0.00661 0.58665 0.0
H176 H 0.34001 0.00299 0.65516 0.0
H177 H 0.31489 0.12944 0.64074 0.0
H178 H 0.26555 0.16197 0.6478 0.0
H179 H 0.24607 0.16071 0.74822 0.0
H180 H 0.29438 0.12702 0.74177 0.0
H181 H 0.58444 0.23138 0.65513 0.0
H182 H 0.50105 0.1613 0.64728 0.0
H183 H 0.43992 0.17644 0.74374 0.0
H184 H 0.52332 0.24896 0.75068 0.0
H185 H 0.39352 0.1744 0.70647 0.0
H186 H 0.44009 0.06664 0.7163 0.0
H187 H 0.49473 0.03994 0.70424 0.0
H188 H 0.48097 0.01286 0.60782 0.0
H189 H 0.42687 0.04015 0.61917 0.0
C190 C 0.19385 0.99984 0.66372 0.0
C191 C 0.20248 0.00209 0.63076 0.0
C192 C 0.23006 0.00999 0.67771 0.0
C193 C 0.27555 0.02354 0.65886 0.0
C194 C 0.28064 0.01731 0.62611 0.0
C195 C 0.24414 0.00631 0.61214 0.0
C196 C 0.32076 0.05547 0.67197 0.0
C197 C 0.35169 0.04029 0.66661 0.0
C198 C 0.33602 0.10422 0.6869 0.0
C199 C 0.30757 0.12508 0.6908 0.0
C200 C 0.29977 0.13579 0.66433 0.0
C201 C 0.27197 0.15438 0.66823 0.0
C202 C 0.25253 0.16324 0.69848 0.0
C203 C 0.26096 0.15363 0.72486 0.0
C204 C 0.28846 0.1347 0.7211 0.0
C205 C 0.55334 0.21979 0.6748 0.0
C206 C 0.5607 0.24553 0.70403 0.0
C207 C 0.50559 0.17905 0.67035 0.0
C208 C 0.46413 0.16243 0.69516 0.0
C209 C 0.47134 0.1879 0.72434 0.0
C210 C 0.51911 0.22918 0.72854 0.0
C211 C 0.41323 0.12222 0.6897 0.0
C212 C 0.38138 0.13627 0.69614 0.0
C213 C 0.39784 0.07309 0.67528 0.0
C214 C 0.42951 0.05557 0.66859 0.0
C215 C 0.44886 0.05517 0.6925 0.0
C216 C 0.47976 0.03995 0.68579 0.0
C217 C 0.49134 0.02475 0.65529 0.0
C218 C 0.47194 0.0246 0.63145 0.0
C219 C 0.44108 0.03984 0.63802 0.0
H220 H 0.51532 0.01304 0.65012 0.0
H221 H 0.23106 0.17771 0.70147 0.0
H222 H 0.1107 0.12664 0.08831 0.0
H223 H 0.13987 0.19837 0.12639 0.0
H224 H 0.04855 0.23277 0.10647 0.0
H225 H 0.01948 0.16148 0.0681 0.0
H226 H 0.14013 0.32071 0.10663 0.0
H227 H 0.01509 0.1755 0.17628 0.0
H228 H 0.96872 0.08726 0.19922 0.0
H229 H 0.09935 0.13382 0.22531 0.0
H230 H 0.14674 0.22199 0.20191 0.0
H231 H 0.1889 0.47761 0.25868 0.0
H232 H 0.13604 0.3893 0.23638 0.0
H233 H 0.26343 0.42154 0.16567 0.0
H234 H 0.31582 0.50909 0.18749 0.0
H235 H 0.13658 0.29815 0.21629 0.0
H236 H 0.2343 0.40514 0.09579 0.0
H237 H 0.2778 0.49416 0.07499 0.0
H238 H 0.19294 0.52249 0.15324 0.0
H239 H 0.14833 0.43331 0.17415 0.0
C240 C 0.09675 0.14938 0.09201 0.0
C241 C 0.06275 0.13828 0.07513 0.0
C242 C 0.11315 0.1901 0.11399 0.0
C243 C 0.0958 0.22036 0.11958 0.0
C244 C 0.06218 0.20968 0.10262 0.0
C245 C 0.04566 0.16891 0.08068 0.0
C246 C 0.11485 0.26486 0.14197 0.0
C247 C 0.13896 0.31556 0.13068 0.0
C248 C 0.11248 0.25819 0.17355 0.0
C249 C 0.0844 0.2052 0.18733 0.0
C250 C 0.03398 0.16674 0.18672 0.0
C251 C 0.00752 0.11677 0.1998 0.0
C252 C 0.03107 0.10493 0.21372 0.0
C253 C 0.08116 0.14303 0.21452 0.0
C254 C 0.10783 0.193 0.20135 0.0
C255 C 0.20574 0.46489 0.23913 0.0
C256 C 0.25611 0.50016 0.22439 0.0
C257 C 0.17558 0.41467 0.22638 0.0
C258 C 0.19581 0.39975 0.19894 0.0
C259 C 0.24709 0.43285 0.18651 0.0
C260 C 0.27694 0.48275 0.19901 0.0
C261 C 0.16365 0.35349 0.18047 0.0
C262 C 0.13711 0.30275 0.19242 0.0
C263 C 0.16305 0.35991 0.14964 0.0
C264 C 0.18828 0.41276 0.1366 0.0
C265 C 0.22466 0.43024 0.10839 0.0
C266 C 0.24955 0.48073 0.09661 0.0
C267 C 0.23822 0.51401 0.11282 0.0
C268 C 0.20177 0.49674 0.14074 0.0
C269 C 0.17669 0.44624 0.15257 0.0
H270 H 0.25765 0.55315 0.1037 0.0
H271 H 0.01049 0.06624 0.22389 0.0
H272 H 0.01355 0.14717 0.59917 0.0
H273 H 0.97729 0.19086 0.62722 0.0
H274 H 0.8527 0.08811 0.58255 0.0
H275 H 0.89047 0.04656 0.55298 0.0
H276 H 0.87626 0.17995 0.58335 0.0
H277 H 0.84502 0.07299 0.66494 0.0
H278 H 0.87627 0.04073 0.69085 0.0
H279 H 0.98287 0.19839 0.71986 0.0
H280 H 0.95199 0.2315 0.69427 0.0
H281 H 0.73221 0.23836 0.72591 0.0
H282 H 0.769 0.19183 0.70642 0.0
H283 H 0.88775 0.32177 0.6431 0.0
H284 H 0.85101 0.36761 0.66205 0.0
H285 H 0.85942 0.20865 0.69891 0.0
H286 H 0.90543 0.27582 0.57178 0.0
H287 H 0.87644 0.30412 0.54058 0.0
H288 H 0.73108 0.21374 0.60118 0.0
H289 H 0.75902 0.18433 0.63247 0.0
C290 C 0.97826 0.13365 0.59548 0.0
C291 C 0.95474 0.0931 0.574 0.0
C292 C 0.95732 0.15851 0.61171 0.0
C293 C 0.91146 0.14218 0.60771 0.0
C294 C 0.88797 0.10156 0.58624 0.0
C295 C 0.90952 0.07761 0.56941 0.0
C296 C 0.88836 0.16789 0.62543 0.0
C297 C 0.8725 0.18596 0.60861 0.0
C298 C 0.88244 0.17521 0.65855 0.0
C299 C 0.89638 0.15468 0.6776 0.0
C300 C 0.8747 0.10062 0.67721 0.0
C301 C 0.89251 0.08224 0.69168 0.0
C302 C 0.93192 0.11758 0.70664 0.0
C303 C 0.95257 0.17113 0.70805 0.0
C304 C 0.93466 0.18968 0.6938 0.0
C305 C 0.76688 0.2575 0.70848 0.0
C306 C 0.78863 0.30653 0.69539 0.0
C307 C 0.78782 0.23085 0.69729 0.0
C308 C 0.83065 0.25281 0.67281 0.0
C309 C 0.85425 0.30352 0.66156 0.0
C310 C 0.83325 0.32978 0.67247 0.0
C311 C 0.84818 0.22133 0.6566 0.0
C312 C 0.86289 0.2022 0.6737 0.0
C313 C 0.85205 0.2119 0.62373 0.0
C314 C 0.83447 0.22824 0.60459 0.0
C315 C 0.86721 0.26174 0.57833 0.0
C316 C 0.85098 0.27803 0.56066 0.0
C317 C 0.80199 0.26085 0.56895 0.0
C318 C 0.76906 0.22714 0.59484 0.0
C319 C 0.78508 0.21068 0.61256 0.0
H320 H 0.78954 0.2736 0.55528 0.0
H321 H 0.94623 0.10335 0.7173 0.0
H322 H 0.84551 0.90645 0.03884 0.0
H323 H 0.7618 0.86888 0.07088 0.0
H324 H 0.82375 0.95197 0.15215 0.0
H325 H 0.90678 0.98726 0.12057 0.0
H326 H 0.74915 0.86025 0.1702 0.0
H327 H 0.77491 0.98792 0.1081 0.0
H328 H 0.79513 0.03136 0.05892 0.0
H329 H 0.67092 0.88714 0.02891 0.0
H330 H 0.65045 0.84261 0.07771 0.0
H331 H 0.49867 0.83013 0.21635 0.0
H332 H 0.58708 0.87755 0.1918 0.0
H333 H 0.57373 0.73731 0.19956 0.0
H334 H 0.48594 0.69097 0.2254 0.0
H335 H 0.62514 0.8613 0.13818 0.0
H336 H 0.67455 0.75759 0.19505 0.0
H337 H 0.66101 0.72592 0.24711 0.0
H338 H 0.64439 0.84364 0.29242 0.0
H339 H 0.65651 0.87486 0.24082 0.0
C340 C 0.84115 0.917 0.06347 0.0
C341 C 0.88262 0.94972 0.07724 0.0
C342 C 0.79327 0.89566 0.0818 0.0
C343 C 0.78609 0.90781 0.11405 0.0
C344 C 0.82789 0.94158 0.12747 0.0
C345 C 0.87548 0.96203 0.10934 0.0
C346 C 0.73525 0.88431 0.13421 0.0
C347 C 0.72221 0.86068 0.16307 0.0
C348 C 0.69975 0.88506 0.12548 0.0
C349 C 0.71151 0.91185 0.09637 0.0
C350 C 0.75211 0.96542 0.09091 0.0
C351 C 0.7636 0.99022 0.06312 0.0
C352 C 0.73441 0.96199 0.04077 0.0
C353 C 0.69354 0.90893 0.04622 0.0
C354 C 0.68198 0.8839 0.07394 0.0
C355 C 0.51534 0.81036 0.21407 0.0
C356 C 0.48592 0.75742 0.22351 0.0
C357 C 0.56571 0.83718 0.19961 0.0
C358 C 0.58762 0.81134 0.19375 0.0
C359 C 0.55849 0.75887 0.20439 0.0
C360 C 0.50823 0.73232 0.21931 0.0
C361 C 0.63929 0.8376 0.17421 0.0
C362 C 0.65226 0.86121 0.14532 0.0
C363 C 0.67524 0.83814 0.18321 0.0
C364 C 0.66601 0.81817 0.21424 0.0
C365 C 0.66767 0.77637 0.21622 0.0
C366 C 0.66001 0.75835 0.24564 0.0
C367 C 0.6515 0.78247 0.27314 0.0
C368 C 0.65028 0.82441 0.27126 0.0
C369 C 0.65724 0.84209 0.24194 0.0
H370 H 0.64625 0.76884 0.29583 0.0
H371 H 0.74341 0.98126 0.01925 0.0
H372 H 0.0173 0.93432 0.5769 0.0
H373 H 0.98849 0.86472 0.6126 0.0
H374 H 0.83765 0.78593 0.60547 0.0
H375 H 0.86594 0.85729 0.57208 0.0
H376 H 0.83411 0.77465 0.66138 0.0
H377 H 0.92162 0.75109 0.56154 0.0
H378 H 0.99606 0.78257 0.51878 0.0
H379 H 0.07824 0.81045 0.5859 0.0
H380 H 0.00433 0.77953 0.62902 0.0
H381 H 0.71273 0.50412 0.67936 0.0
H382 H 0.75598 0.59411 0.66183 0.0
H383 H 0.88148 0.646 0.6979 0.0
H384 H 0.83762 0.55503 0.7157 0.0
H385 H 0.90833 0.68011 0.63574 0.0
H386 H 0.81554 0.6874 0.73374 0.0
H387 H 0.74121 0.65588 0.77638 0.0
H388 H 0.66915 0.65912 0.71313 0.0
H389 H 0.7428 0.68981 0.66995 0.0
C390 C 0.97794 0.90258 0.58345 0.0
C391 C 0.9439 0.9015 0.57176 0.0
C392 C 0.96146 0.86226 0.60355 0.0
C393 C 0.91077 0.81889 0.61137 0.0
C394 C 0.87689 0.81858 0.60001 0.0
C395 C 0.89316 0.85948 0.58073 0.0
C396 C 0.89237 0.77311 0.63074 0.0
C397 C 0.8503 0.75393 0.65548 0.0
C398 C 0.91419 0.74668 0.62432 0.0
C399 C 0.95781 0.7635 0.59838 0.0
C400 C 0.95564 0.764 0.56709 0.0
C401 C -0.00231 0.78176 0.54284 0.0
C402 C 0.04188 0.79862 0.54963 0.0
C403 C 0.04402 0.79744 0.58067 0.0
C404 C 0.00208 0.77974 0.60501 0.0
C405 C 0.749 0.535 0.68432 0.0
C406 C 0.77137 0.52286 0.69948 0.0
C407 C 0.77382 0.58644 0.6742 0.0
C408 C 0.82198 0.62711 0.67863 0.0
C409 C 0.8443 0.61538 0.69429 0.0
C410 C 0.81906 0.56363 0.70478 0.0
C411 C 0.84905 0.68076 0.6653 0.0
C412 C 0.89264 0.70135 0.64181 0.0
C413 C 0.82859 0.70844 0.67276 0.0
C414 C 0.7845 0.69059 0.69863 0.0
C415 C 0.7837 0.68106 0.7289 0.0
C416 C 0.74171 0.66337 0.75316 0.0
C417 C 0.70045 0.65544 0.74747 0.0
C418 C 0.70113 0.66528 0.71751 0.0
C419 C 0.743 0.68287 0.69314 0.0
H420 H 0.66794 0.64173 0.76629 0.0
H421 H 0.07446 0.81252 0.53083 0.0
H422 H 0.08038 0.96279 0.41825 0.0
H423 H 0.11774 0.92272 0.38555 0.0
H424 H 0.16977 0.92471 0.46432 0.0
H425 H 0.13407 0.96658 0.49679 0.0
H426 H 0.23855 0.95155 0.41405 0.0
H427 H 0.06138 0.80917 0.43846 0.0
H428 H 0.9735 0.76512 0.43938 0.0
H429 H 0.00747 0.77568 0.33842 0.0
H430 H 0.09571 0.8208 0.33701 0.0
H431 H 0.26882 0.75497 0.38306 0.0
H432 H 0.24009 0.80764 0.40192 0.0
H433 H 0.21392 0.80064 0.31049 0.0
H434 H 0.24109 0.74509 0.29156 0.0
H435 H 0.13639 0.78272 0.35936 0.0
H436 H 0.31251 0.91434 0.33471 0.0
H437 H 0.39898 0.95388 0.33475 0.0
H438 H 0.36724 0.96287 0.43575 0.0
H439 H 0.28033 0.92263 0.43637 0.0
C440 C 0.09997 0.95493 0.42859 0.0
C441 C 0.10412 0.96784 0.46019 0.0
C442 C 0.12108 0.93164 0.40988 0.0
C443 C 0.14586 0.91964 0.42253 0.0
C444 C 0.15082 0.93344 0.45393 0.0
C445 C 0.13035 0.95742 0.47252 0.0
C446 C 0.16661 0.89265 0.40332 0.0
C447 C 0.2161 0.91459 0.40215 0.0
C448 C 0.13805 0.84525 0.38676 0.0
C449 C 0.08513 0.81864 0.38766 0.0
C450 C 0.05013 0.80244 0.4165 0.0
C451 C 0.00027 0.7773 0.4171 0.0
C452 C 0.98492 0.76771 0.38898 0.0
C453 C 0.0194 0.7832 0.36019 0.0
C454 C 0.06933 0.80854 0.35947 0.0
C455 C 0.25705 0.76432 0.36665 0.0
C456 C 0.25774 0.74571 0.33542 0.0
C457 C 0.24089 0.79502 0.37758 0.0
C458 C 0.22555 0.80898 0.35759 0.0
C459 C 0.22581 0.79056 0.32637 0.0
C460 C 0.24186 0.75922 0.31538 0.0
C461 C 0.20812 0.84154 0.37022 0.0
C462 C 0.15925 0.82052 0.37038 0.0
C463 C 0.23726 0.88988 0.3858 0.0
C464 C 0.2898 0.91518 0.38556 0.0
C465 C 0.3239 0.92452 0.35694 0.0
C466 C 0.373 0.94706 0.35685 0.0
C467 C 0.38858 0.96079 0.38524 0.0
C468 C 0.35512 0.95221 0.41378 0.0
C469 C 0.30594 0.9296 0.414 0.0
H470 H 0.42659 0.97814 0.38511 0.0
H471 H 0.94629 0.74819 0.38951 0.0
H472 H 0.14525 0.16195 0.93052 0.0
H473 H 0.22874 0.19808 0.89996 0.0
H474 H 0.21536 0.06763 0.92941 0.0
H475 H 0.13225 0.03312 0.96193 0.0
H476 H 0.30355 0.14729 0.92743 0.0
H477 H 0.20484 0.08126 0.85105 0.0
H478 H 0.14529 0.06892 0.82433 0.0
H479 H 0.24135 0.23482 0.80356 0.0
H480 H 0.3013 0.24828 0.8304 0.0
H481 H 0.51845 0.21063 0.81215 0.0
H482 H 0.43005 0.16325 0.83745 0.0
H483 H 0.44284 0.30325 0.83047 0.0
H484 H 0.53125 0.3505 0.80508 0.0
H485 H 0.35357 0.21194 0.81849 0.0
H486 H 0.45064 0.27413 0.898 0.0
H487 H 0.50968 0.28085 0.92233 0.0
H488 H 0.41391 0.11246 0.93387 0.0
H489 H 0.35458 0.10469 0.90923 0.0
C490 C 0.16017 0.14105 0.93064 0.0
C491 C 0.13204 0.09454 0.94851 0.0
C492 C 0.20792 0.16147 0.91277 0.0
C493 C 0.22839 0.13494 0.91126 0.0
C494 C 0.20065 0.08889 0.92978 0.0
C495 C 0.15307 0.06908 0.9484 0.0
C496 C 0.27879 0.15587 0.89076 0.0
C497 C 0.31392 0.16045 0.90343 0.0
C498 C 0.2933 0.1738 0.85933 0.0
C499 C 0.2574 0.16583 0.84299 0.0
C500 C 0.21314 0.11517 0.84095 0.0
C501 C 0.17932 0.10797 0.82577 0.0
C502 C 0.18941 0.1511 0.81242 0.0
C503 C 0.23349 0.20148 0.81404 0.0
C504 C 0.26747 0.20889 0.82915 0.0
C505 C 0.50192 0.2307 0.81525 0.0
C506 C 0.53133 0.28386 0.80613 0.0
C507 C 0.45155 0.20381 0.82996 0.0
C508 C 0.42971 0.22978 0.83626 0.0
C509 C 0.45866 0.28226 0.82586 0.0
C510 C 0.5091 0.3092 0.81122 0.0
C511 C 0.37785 0.20359 0.85536 0.0
C512 C 0.34268 0.19821 0.84241 0.0
C513 C 0.36301 0.18396 0.88624 0.0
C514 C 0.39834 0.1888 0.90155 0.0
C515 C 0.44229 0.23852 0.90558 0.0
C516 C 0.4758 0.24252 0.91944 0.0
C517 C 0.4656 0.1971 0.92958 0.0
C518 C 0.42179 0.1476 0.92598 0.0
C519 C 0.38818 0.14339 0.9121 0.0
H520 H 0.4916 0.20027 0.94028 0.0
H521 H 0.16321 0.14545 0.80064 0.0
H522 H 0.18466 0.20669 0.47097 0.0
H523 H 0.20777 0.27029 0.43318 0.0
H524 H 0.05318 0.18613 0.43327 0.0
H525 H 0.03032 0.12073 0.47007 0.0
H526 H 0.10277 0.21936 0.37704 0.0
H527 H 0.12336 0.30501 0.47724 0.0
H528 H 0.15411 0.33604 0.52636 0.0
H529 H 0.30444 0.43044 0.47276 0.0
H530 H 0.2746 0.39948 0.42327 0.0
H531 H 0.15164 0.47398 0.35312 0.0
H532 H 0.1227 0.39182 0.37529 0.0
H533 H 0.25283 0.40953 0.31871 0.0
H534 H 0.28155 0.49162 0.29575 0.0
H535 H 0.21644 0.40971 0.40101 0.0
H536 H 0.19077 0.30873 0.30106 0.0
H537 H 0.15605 0.27453 0.25361 0.0
H538 H 0.01072 0.21365 0.31023 0.0
H539 H 0.04479 0.24655 0.35826 0.0
C540 C 0.15567 0.20152 0.46267 0.0
C541 C 0.10576 0.15876 0.47333 0.0
C542 C 0.16885 0.23818 0.44123 0.0
C543 C 0.13224 0.2341 0.43082 0.0
C544 C 0.08225 0.19045 0.44091 0.0
C545 C 0.06914 0.15296 0.46188 0.0
C546 C 0.14614 0.27587 0.41002 0.0
C547 C 0.12737 0.26088 0.38257 0.0
C548 C 0.17859 0.33046 0.41678 0.0
C549 C 0.19671 0.34952 0.44652 0.0
C550 C 0.16298 0.33215 0.47591 0.0
C551 C 0.18026 0.34975 0.50383 0.0
C552 C 0.2312 0.38508 0.50268 0.0
C553 C 0.26499 0.40302 0.47361 0.0
C554 C 0.24791 0.3855 0.44562 0.0
C555 C 0.17299 0.45913 0.34432 0.0
C556 C 0.21872 0.48907 0.3226 0.0
C557 C 0.15652 0.41231 0.35714 0.0
C558 C 0.18565 0.39468 0.34872 0.0
C559 C 0.2296 0.42228 0.3253 0.0
C560 C 0.24578 0.46892 0.31202 0.0
C561 C 0.17382 0.35289 0.36809 0.0
C562 C 0.19237 0.36806 0.39554 0.0
C563 C 0.14077 0.29873 0.36166 0.0
C564 C 0.12037 0.28061 0.33304 0.0
C565 C 0.15151 0.28849 0.30331 0.0
C566 C 0.13186 0.2691 0.27634 0.0
C567 C 0.08117 0.24236 0.2788 0.0
C568 C 0.04998 0.23454 0.30834 0.0
C569 C 0.06939 0.25329 0.33545 0.0
H570 H 0.06592 0.22746 0.25792 0.0
H571 H 0.24449 0.39864 0.52432 0.0
H572 H 0.85312 0.08789 0.89177 0.0
H573 H 0.82688 0.12201 0.86353 0.0
H574 H 0.92103 0.27637 0.90262 0.0
H575 H 0.94609 0.24153 0.93204 0.0
H576 H 0.83305 0.25216 0.90353 0.0
H577 H 0.95754 0.25375 0.82406 0.0
H578 H 0.99556 0.20939 0.80011 0.0
H579 H 0.86104 0.08154 0.77095 0.0
H580 H 0.82244 0.12544 0.79451 0.0
H581 H 0.8096 0.33998 0.76272 0.0
H582 H 0.85351 0.31562 0.78105 0.0
H583 H 0.71708 0.19866 0.8434 0.0
H584 H 0.67339 0.22278 0.82534 0.0
H585 H 0.84233 0.22095 0.78843 0.0
H586 H 0.74093 0.22046 0.91577 0.0
H587 H 0.70104 0.26037 0.94594 0.0
H588 H 0.79523 0.39202 0.88158 0.0
H589 H 0.83625 0.35331 0.85137 0.0
C590 C 0.86858 0.12922 0.8941 0.0
C591 C 0.90216 0.16234 0.91366 0.0
C592 C 0.85365 0.14871 0.87793 0.0
C593 C 0.87296 0.20207 0.88031 0.0
C594 C 0.90599 0.23517 0.90024 0.0
C595 C 0.92034 0.21536 0.91693 0.0
C596 C 0.85791 0.22256 0.86207 0.0
C597 C 0.83557 0.24588 0.87835 0.0
C598 C 0.86202 0.21533 0.8291 0.0
C599 C 0.88721 0.19277 0.811 0.0
C600 C 0.93641 0.21654 0.8121 0.0
C601 C 0.95794 0.19138 0.79877 0.0
C602 C 0.93058 0.14247 0.7843 0.0
C603 C 0.8821 0.11933 0.78231 0.0
C604 C 0.86053 0.14456 0.79537 0.0
C605 C 0.78879 0.30783 0.77949 0.0
C606 C 0.73826 0.28339 0.7928 0.0
C607 C 0.81389 0.29413 0.79002 0.0
C608 C 0.78865 0.25617 0.81403 0.0
C609 C 0.73732 0.22864 0.82521 0.0
C610 C 0.71241 0.24235 0.81483 0.0
C611 C 0.81607 0.24904 0.83016 0.0
C612 C 0.84075 0.22829 0.81348 0.0
C613 C 0.81485 0.2595 0.86277 0.0
C614 C 0.79135 0.28379 0.88121 0.0
C615 C 0.75333 0.25809 0.9082 0.0
C616 C 0.7305 0.28047 0.92528 0.0
C617 C 0.74551 0.32864 0.91564 0.0
C618 C 0.78354 0.35465 0.88897 0.0
C619 C 0.80658 0.33249 0.87185 0.0
H620 H 0.7277 0.34585 0.92887 0.0
H621 H 0.94706 0.12264 0.77448 0.0
H622 H 0.72171 0.88695 0.46402 0.0
H623 H 0.65283 0.85766 0.44108 0.0
H624 H 0.75455 0.97891 0.36954 0.0
H625 H 0.8239 0.00842 0.39241 0.0
H626 H 0.64549 0.94266 0.39203 0.0
H627 H 0.74648 0.88283 0.34766 0.0
H628 H 0.79132 0.84994 0.3536 0.0
H629 H 0.65539 0.71304 0.40312 0.0
H630 H 0.60999 0.74586 0.39812 0.0
H631 H 0.48121 0.78982 0.28813 0.0
H632 H 0.56088 0.84484 0.30428 0.0
H633 H 0.50316 0.72563 0.37217 0.0
H634 H 0.42464 0.67021 0.35548 0.0
H635 H 0.59727 0.76937 0.34644 0.0
H636 H 0.49718 0.82613 0.39372 0.0
H637 H 0.44808 0.85661 0.39349 0.0
H638 H 0.57734 0.99581 0.3418 0.0
H639 H 0.62706 0.96563 0.34128 0.0
C640 C 0.72909 0.90852 0.44409 0.0
C641 C 0.77797 0.94907 0.42949 0.0
C642 C 0.68979 0.89204 0.43116 0.0
C643 C 0.69901 0.91573 0.40342 0.0
C644 C 0.74696 0.96036 0.39101 0.0
C645 C 0.78644 0.97702 0.40403 0.0
C646 C 0.66132 0.88676 0.38417 0.0
C647 C 0.63567 0.90547 0.38128 0.0
C648 C 0.64815 0.83781 0.3708 0.0
C649 C 0.67497 0.81701 0.37275 0.0
C650 C 0.72624 0.8459 0.35999 0.0
C651 C 0.75175 0.82728 0.36319 0.0
C652 C 0.72624 0.77947 0.37878 0.0
C653 C 0.67512 0.7501 0.39108 0.0
C654 C 0.64948 0.76868 0.38807 0.0
C655 C 0.4863 0.77472 0.30565 0.0
C656 C 0.44696 0.72597 0.32064 0.0
C657 C 0.53146 0.8064 0.31516 0.0
C658 C 0.53738 0.78962 0.33985 0.0
C659 C 0.49922 0.73937 0.35319 0.0
C660 C 0.45435 0.70787 0.34373 0.0
C661 C 0.58146 0.82527 0.35374 0.0
C662 C 0.60807 0.80745 0.35607 0.0
C663 C 0.59522 0.87479 0.36656 0.0
C664 C 0.56568 0.89338 0.36715 0.0
C665 C 0.51504 0.86306 0.3821 0.0
C666 C 0.48711 0.88027 0.38212 0.0
C667 C 0.50954 0.92805 0.36755 0.0
C668 C 0.56 0.95875 0.35301 0.0
C669 C 0.58808 0.94162 0.35285 0.0
H670 H 0.48786 0.94134 0.36761 0.0
H671 H 0.74606 0.76514 0.38127 0.0
H672 H 0.93559 0.91923 0.9162 0.0
H673 H 0.9098 0.85142 0.87582 0.0
H674 H 0.9537 0.77898 0.91739 0.0
H675 H 0.98105 0.84793 0.95757 0.0
H676 H 0.97781 0.777 0.85408 0.0
H677 H 0.8322 0.73248 0.93252 0.0
H678 H 0.77418 0.7488 0.96598 0.0
H679 H 0.74656 0.77226 0.88348 0.0
H680 H 0.80506 0.75682 0.84954 0.0
H681 H 0.82078 0.50875 0.82168 0.0
H682 H 0.87152 0.59937 0.83929 0.0
H683 H 0.81187 0.64022 0.78642 0.0
H684 H 0.75922 0.5479 0.76944 0.0
H685 H 0.80184 0.66867 0.84618 0.0
H686 H 0.93746 0.69466 0.76801 0.0
H687 H 0.99299 0.67365 0.73667 0.0
H688 H 0.03752 0.68015 0.82001 0.0
H689 H 0.98162 0.7003 0.85197 0.0
C690 C 0.93992 0.88898 0.91677 0.0
C691 C 0.95975 0.88853 0.94036 0.0
C692 C 0.92515 0.85024 0.89362 0.0
C693 C 0.92897 0.80959 0.89388 0.0
C694 C 0.9503 0.80995 0.91677 0.0
C695 C 0.96571 0.8492 0.93979 0.0
C696 C 0.90851 0.76541 0.87124 0.0
C697 C 0.93929 0.75307 0.85243 0.0
C698 C 0.8587 0.73529 0.86828 0.0
C699 C 0.8234 0.74423 0.88857 0.0
C700 C 0.81402 0.74154 0.92155 0.0
C701 C 0.78103 0.75057 0.94059 0.0
C702 C 0.75683 0.76175 0.92687 0.0
C703 C 0.76544 0.76374 0.89407 0.0
C704 C 0.79849 0.75486 0.87493 0.0
C705 C 0.81932 0.53731 0.81318 0.0
C706 C 0.78635 0.52157 0.7941 0.0
C707 C 0.84875 0.58931 0.82303 0.0
C708 C 0.84615 0.62695 0.81388 0.0
C709 C 0.81484 0.61191 0.79353 0.0
C710 C 0.78512 0.55942 0.78363 0.0
C711 C 0.87077 0.67922 0.82942 0.0
C712 C 0.84073 0.6932 0.8471 0.0
C713 C 0.9211 0.71038 0.83153 0.0
C714 C 0.95521 0.69885 0.81238 0.0
C715 C 0.95888 0.69133 0.77969 0.0
C716 C 0.99045 0.67958 0.76181 0.0
C717 C 0.01876 0.67555 0.77634 0.0
C718 C 0.01561 0.68334 0.80878 0.0
C719 C 0.98405 0.69501 0.82678 0.0
H720 H 0.04317 0.66643 0.76245 0.0
H721 H 0.73128 0.76873 0.94165 0.0
loop_
_geom_bond_atom_site_label_1
_geom_bond_atom_site_label_2
_geom_bond_distance
_geom_bond_site_symmetry_2
_ccdc_geom_bond_type
C0 Eu1 2.835 . S
C0 C2 1.500 . S
C0 O20 1.257 . S
C0 O21 1.260 . S
Eu1 C0 2.835 . S
Eu1 O20 2.473 . S
Eu1 O21 2.480 . S
Eu1 O22 2.430 1_455 S
Eu1 O23 2.670 1_455 S
Eu1 O24 2.394 1_455 S
Eu1 O29 2.355 1_564 S
Eu1 O31 2.374 1_565 S
C2 C0 1.500 . S
C2 C3 1.377 . S
C2 C7 1.377 . S
C3 C2 1.377 . S
C3 C4 1.395 . S
C3 H32 0.931 1_455 S
C4 C3 1.395 . S
C4 C5 1.383 . S
C4 H33 0.931 . S
C5 C4 1.383 . S
C5 C6 1.394 . S
C6 C5 1.394 . S
C6 C7 1.378 . S
C6 H34 0.931 . S
C7 C2 1.377 . S
C7 C6 1.378 . S
C7 H35 0.931 . S
C8 O22 1.259 . S
C8 O23 1.270 . S
C9 O24 1.251 1_556 S
C9 O25 1.251 . S
C10 Eu11 2.835 . S
C10 C12 1.500 . S
C10 O26 1.257 . S
C10 O27 1.260 1_655 S
Eu11 C10 2.835 . S
Eu11 O23 2.355 1_546 S
Eu11 O25 2.374 1_545 S
Eu11 O26 2.473 . S
Eu11 O27 2.480 1_655 S
Eu11 O28 2.430 1_655 S
Eu11 O29 2.670 1_655 S
Eu11 O30 2.394 1_656 S
C12 C10 1.500 . S
C12 C13 1.377 . S
C12 C17 1.377 . S
C13 C12 1.377 . S
C13 C14 1.395 . S
C13 H36 0.931 1_655 S
C14 C13 1.395 . S
C14 C15 1.383 . S
C14 H37 0.931 1_655 S
C15 C14 1.383 . S
C15 C16 1.394 . S
C16 C15 1.394 . S
C16 C17 1.378 . S
C16 H38 0.931 . S
C17 C12 1.377 . S
C17 C16 1.378 . S
C17 H39 0.931 . S
C18 O28 1.259 . S
C18 O29 1.270 . S
C19 O30 1.251 . S
C19 O31 1.251 . S
O20 C0 1.257 . S
O20 Eu1 2.473 . S
O21 C0 1.260 . S
O21 Eu1 2.480 . S
O22 Eu1 2.430 1_655 S
O22 C8 1.259 . S
O23 Eu1 2.670 1_655 S
O23 C8 1.270 . S
O23 Eu11 2.355 1_564 S
O24 Eu1 2.394 1_655 S
O24 C9 1.251 1_554 S
O25 C9 1.251 . S
O25 Eu11 2.374 1_565 S
O26 C10 1.257 . S
O26 Eu11 2.473 . S
O27 C10 1.260 1_455 S
O27 Eu11 2.480 1_455 S
O28 Eu11 2.430 1_455 S
O28 C18 1.259 . S
O29 Eu1 2.355 1_546 S
O29 Eu11 2.670 1_455 S
O29 C18 1.270 . S
O30 Eu11 2.394 1_454 S
O30 C19 1.251 . S
O31 Eu1 2.374 1_545 S
O31 C19 1.251 . S
H32 C3 0.931 1_655 S
H33 C4 0.931 . S
H34 C6 0.931 . S
H35 C7 0.931 . S
H36 C13 0.931 1_455 S
H37 C14 0.931 1_455 S
H38 C16 0.931 . S
H39 C17 0.931 . S
C40 Eu41 2.835 . S
C40 C42 1.500 . S
C40 O60 1.257 . S
C40 O61 1.260 . S
Eu41 C40 2.835 . S
Eu41 O60 2.473 . S
Eu41 O61 2.480 . S
Eu41 O62 2.430 . S
Eu41 O63 2.670 1_655 S
Eu41 O64 2.394 . S
Eu41 O69 2.355 1_665 S
Eu41 O71 2.374 1_655 S
C42 C40 1.500 . S
C42 C43 1.377 . S
C42 C47 1.377 . S
C43 C42 1.377 . S
C43 C44 1.395 . S
C43 H72 0.931 . S
C44 C43 1.395 . S
C44 C45 1.383 . S
C44 H73 0.931 . S
C45 C44 1.383 . S
C45 C46 1.394 . S
C46 C45 1.394 . S
C46 C47 1.378 . S
C46 H74 0.931 . S
C47 C42 1.377 . S
C47 C46 1.378 . S
C47 H75 0.931 1_565 S
C48 O62 1.259 . S
C48 O63 1.270 1_655 S
C49 O64 1.251 1_545 S
C49 O65 1.251 . S
C50 Eu51 2.835 . S
C50 C52 1.500 . S
C50 O66 1.257 . S
C50 O67 1.260 . S
Eu51 C50 2.835 . S
Eu51 O63 2.355 1_545 S
Eu51 O65 2.374 1_455 S
Eu51 O66 2.473 . S
Eu51 O67 2.480 . S
Eu51 O68 2.430 . S
Eu51 O69 2.670 . S
Eu51 O70 2.394 . S
C52 C50 1.500 . S
C52 C53 1.377 . S
C52 C57 1.377 . S
C53 C52 1.377 . S
C53 C54 1.395 . S
C53 H76 0.931 . S
C54 C53 1.395 . S
C54 C55 1.383 . S
C54 H77 0.931 . S
C55 C54 1.383 . S
C55 C56 1.394 . S
C56 C55 1.394 . S
C56 C57 1.378 . S
C56 H78 0.931 . S
C57 C52 1.377 . S
C57 C56 1.378 . S
C57 H79 0.931 . S
C58 O68 1.259 . S
C58 O69 1.270 . S
C59 O70 1.251 1_565 S
C59 O71 1.251 . S
O60 C40 1.257 . S
O60 Eu41 2.473 . S
O61 C40 1.260 . S
O61 Eu41 2.480 . S
O62 Eu41 2.430 . S
O62 C48 1.259 . S
O63 Eu41 2.670 1_455 S
O63 C48 1.270 1_455 S
O63 Eu51 2.355 1_565 S
O64 Eu41 2.394 . S
O64 C49 1.251 1_565 S
O65 C49 1.251 . S
O65 Eu51 2.374 1_655 S
O66 C50 1.257 . S
O66 Eu51 2.473 . S
O67 C50 1.260 . S
O67 Eu51 2.480 . S
O68 Eu51 2.430 . S
O68 C58 1.259 . S
O69 Eu41 2.355 1_445 S
O69 Eu51 2.670 . S
O69 C58 1.270 . S
O70 Eu51 2.394 . S
O70 C59 1.251 1_545 S
O71 Eu41 2.374 1_455 S
O71 C59 1.251 . S
H72 C43 0.931 . S
H73 C44 0.931 . S
H74 C46 0.931 . S
H75 C47 0.931 1_545 S
H76 C53 0.931 . S
H77 C54 0.931 . S
H78 C56 0.931 . S
H79 C57 0.931 . S
Zn80 O86 1.920 . S
Zn80 O92 1.898 . S
Zn80 O95 1.905 . S
Zn81 O89 1.905 . S
Zn81 O90 1.898 . S
Zn81 O98 1.920 . S
Zn82 O85 2.080 . S
Zn82 O88 2.114 . S
Zn82 O91 2.120 . S
Zn82 O93 2.120 . S
Zn82 O94 2.114 . S
Zn82 O97 2.080 . S
C83 O88 1.166 . S
C83 O89 1.182 . S
C84 O90 1.167 . S
C84 O91 1.299 . S
O85 Zn82 2.080 . S
O85 C99 1.305 . S
O86 Zn80 1.920 . S
O86 C99 1.234 . S
C87 O92 1.167 . S
C87 O93 1.299 . S
O88 Zn82 2.114 . S
O88 C83 1.166 . S
O89 Zn81 1.905 . S
O89 C83 1.182 . S
O90 Zn81 1.898 . S
O90 C84 1.167 . S
O91 Zn82 2.120 . S
O91 C84 1.299 . S
O92 Zn80 1.898 . S
O92 C87 1.167 . S
O93 Zn82 2.120 . S
O93 C87 1.299 . S
O94 Zn82 2.114 . S
O94 C96 1.166 . S
O95 Zn80 1.905 . S
O95 C96 1.182 . S
C96 O94 1.166 . S
C96 O95 1.182 . S
O97 Zn82 2.080 . S
O97 C100 1.305 . S
O98 Zn81 1.920 . S
O98 C100 1.234 . S
C99 O85 1.305 . S
C99 O86 1.234 . S
C100 O97 1.305 . S
C100 O98 1.234 . S
Zn101 O107 1.920 . S
Zn101 O113 1.898 . S
Zn101 O116 1.905 . S
Zn102 O110 1.905 . S
Zn102 O111 1.898 . S
Zn102 O119 1.920 . S
Zn103 O106 2.080 . S
Zn103 O109 2.114 . S
Zn103 O112 2.120 . S
Zn103 O114 2.120 . S
Zn103 O115 2.114 . S
Zn103 O118 2.080 . S
C104 O109 1.166 . S
C104 O110 1.182 . S
C105 O111 1.167 . S
C105 O112 1.299 . S
O106 Zn103 2.080 . S
O106 C120 1.305 . S
O107 Zn101 1.920 . S
O107 C120 1.234 . S
C108 O113 1.167 . S
C108 O114 1.299 . S
O109 Zn103 2.114 . S
O109 C104 1.166 . S
O110 Zn102 1.905 . S
O110 C104 1.182 . S
O111 Zn102 1.898 . S
O111 C105 1.167 . S
O112 Zn103 2.120 . S
O112 C105 1.299 . S
O113 Zn101 1.898 . S
O113 C108 1.167 . S
O114 Zn103 2.120 . S
O114 C108 1.299 . S
O115 Zn103 2.114 . S
O115 C117 1.166 . S
O116 Zn101 1.905 . S
O116 C117 1.182 . S
C117 O115 1.166 . S
C117 O116 1.182 . S
O118 Zn103 2.080 . S
O118 C121 1.305 . S
O119 Zn102 1.920 . S
O119 C121 1.234 . S
C120 O106 1.305 . S
C120 O107 1.234 . S
C121 O118 1.305 . S
C121 O119 1.234 . S
H122 C140 0.951 . S
H123 C142 0.951 . S
H124 C144 0.950 . S
H125 C145 0.950 . S
H126 C147 0.950 . S
H127 C150 0.950 . S
H128 C151 0.950 . S
H129 C153 0.950 . S
H130 C154 0.950 . S
H131 C155 0.951 . S
H132 C157 0.951 . S
H133 C159 0.950 . S
H134 C160 0.950 . S
H135 C162 0.950 . S
H136 C165 0.950 . S
H137 C166 0.950 . S
H138 C168 0.950 1_655 S
H139 C169 0.950 . S
C140 H122 0.951 . S
C140 C141 1.366 . S
C140 C142 1.388 . S
C141 C140 1.366 . S
C141 C145 1.385 . S
C142 H123 0.951 . S
C142 C140 1.388 . S
C142 C143 1.366 . S
C143 C142 1.366 . S
C143 C144 1.414 . S
C143 C146 1.499 . S
C144 H124 0.950 . S
C144 C143 1.414 . S
C144 C145 1.374 . S
C145 H125 0.950 . S
C145 C141 1.385 . S
C145 C144 1.374 . S
C146 C143 1.499 . S
C146 C147 1.373 . S
C146 C148 1.389 . S
C147 H126 0.950 . S
C147 C146 1.373 . S
C147 C163 1.377 . S
C148 C146 1.389 . S
C148 C149 1.524 . S
C148 C162 1.377 . S
C149 C148 1.524 . S
C149 C150 1.397 . S
C149 C154 1.363 . S
C150 H127 0.950 . S
C150 C149 1.397 . S
C150 C151 1.334 . S
C151 H128 0.950 . S
C151 C150 1.334 . S
C151 C152 1.287 . S
C152 C151 1.287 . S
C152 C153 1.524 . S
C152 H171 0.913 . S
C153 H129 0.950 . S
C153 C152 1.524 . S
C153 C154 1.415 . S
C154 H130 0.950 . S
C154 C149 1.363 . S
C154 C153 1.415 . S
C155 H131 0.951 . S
C155 C156 1.366 . S
C155 C157 1.388 . S
C156 C155 1.366 . S
C156 C160 1.385 . S
C157 H132 0.951 . S
C157 C155 1.388 . S
C157 C158 1.366 . S
C158 C157 1.366 . S
C158 C159 1.414 . S
C158 C161 1.499 . S
C159 H133 0.950 . S
C159 C158 1.414 . S
C159 C160 1.374 . S
C160 H134 0.950 . S
C160 C156 1.385 . S
C160 C159 1.374 . S
C161 C158 1.499 . S
C161 C162 1.373 . S
C161 C163 1.389 . S
C162 H135 0.950 . S
C162 C148 1.377 . S
C162 C161 1.373 . S
C163 C147 1.377 . S
C163 C161 1.389 . S
C163 C164 1.524 . S
C164 C163 1.524 . S
C164 C165 1.397 . S
C164 C169 1.363 . S
C165 H136 0.950 . S
C165 C164 1.397 . S
C165 C166 1.334 . S
C166 H137 0.950 . S
C166 C165 1.334 . S
C166 C167 1.287 . S
C167 C166 1.287 . S
C167 C168 1.524 . S
C167 H170 0.999 . S
C168 H138 0.950 1_455 S
C168 C167 1.524 . S
C168 C169 1.415 . S
C169 H139 0.950 . S
C169 C164 1.363 . S
C169 C168 1.415 . S
H170 C167 0.999 . S
H171 C152 0.913 . S
H172 C190 0.951 . S
H173 C192 0.951 . S
H174 C194 0.950 . S
H175 C195 0.950 . S
H176 C197 0.950 . S
H177 C200 0.950 . S
H178 C201 0.950 . S
H179 C203 0.950 . S
H180 C204 0.950 . S
H181 C205 0.951 . S
H182 C207 0.951 . S
H183 C209 0.950 . S
H184 C210 0.950 . S
H185 C212 0.950 . S
H186 C215 0.950 . S
H187 C216 0.950 . S
H188 C218 0.950 . S
H189 C219 0.950 . S
C190 H172 0.951 . S
C190 C191 1.366 . S
C190 C192 1.388 . S
C191 C190 1.366 . S
C191 C195 1.385 . S
C192 H173 0.951 . S
C192 C190 1.388 . S
C192 C193 1.366 . S
C193 C192 1.366 . S
C193 C194 1.414 . S
C193 C196 1.499 . S
C194 H174 0.950 . S
C194 C193 1.414 . S
C194 C195 1.374 . S
C195 H175 0.950 . S
C195 C191 1.385 . S
C195 C194 1.374 . S
C196 C193 1.499 . S
C196 C197 1.373 . S
C196 C198 1.389 . S
C197 H176 0.950 . S
C197 C196 1.373 . S
C197 C213 1.377 . S
C198 C196 1.389 . S
C198 C199 1.524 . S
C198 C212 1.377 . S
C199 C198 1.524 . S
C199 C200 1.397 . S
C199 C204 1.363 . S
C200 H177 0.950 . S
C200 C199 1.397 . S
C200 C201 1.334 . S
C201 H178 0.950 . S
C201 C200 1.334 . S
C201 C202 1.287 . S
C202 C201 1.287 . S
C202 C203 1.524 . S
C202 H221 0.913 . S
C203 H179 0.950 . S
C203 C202 1.524 . S
C203 C204 1.415 . S
C204 H180 0.950 . S
C204 C199 1.363 . S
C204 C203 1.415 . S
C205 H181 0.951 . S
C205 C206 1.366 . S
C205 C207 1.388 . S
C206 C205 1.366 . S
C206 C210 1.385 . S
C207 H182 0.951 . S
C207 C205 1.388 . S
C207 C208 1.366 . S
C208 C207 1.366 . S
C208 C209 1.414 . S
C208 C211 1.499 . S
C209 H183 0.950 . S
C209 C208 1.414 . S
C209 C210 1.374 . S
C210 H184 0.950 . S
C210 C206 1.385 . S
C210 C209 1.374 . S
C211 C208 1.499 . S
C211 C212 1.373 . S
C211 C213 1.389 . S
C212 H185 0.950 . S
C212 C198 1.377 . S
C212 C211 1.373 . S
C213 C197 1.377 . S
C213 C211 1.389 . S
C213 C214 1.524 . S
C214 C213 1.524 . S
C214 C215 1.397 . S
C214 C219 1.363 . S
C215 H186 0.950 . S
C215 C214 1.397 . S
C215 C216 1.334 . S
C216 H187 0.950 . S
C216 C215 1.334 . S
C216 C217 1.287 . S
C217 C216 1.287 . S
C217 C218 1.524 . S
C217 H220 0.999 . S
C218 H188 0.950 . S
C218 C217 1.524 . S
C218 C219 1.415 . S
C219 H189 0.950 . S
C219 C214 1.363 . S
C219 C218 1.415 . S
H220 C217 0.999 . S
H221 C202 0.913 . S
H222 C240 0.951 . S
H223 C242 0.951 . S
H224 C244 0.950 . S
H225 C245 0.950 . S
H226 C247 0.950 . S
H227 C250 0.950 . S
H228 C251 0.948 . S
H229 C253 0.950 . S
H230 C254 0.950 . S
H231 C255 0.951 . S
H232 C257 0.951 . S
H233 C259 0.950 . S
H234 C260 0.950 . S
H235 C262 0.950 . S
H236 C265 0.950 . S
H237 C266 0.950 . S
H238 C268 0.950 . S
H239 C269 0.950 . S
C240 H222 0.951 . S
C240 C241 1.366 . S
C240 C242 1.388 . S
C241 C240 1.366 . S
C241 C245 1.385 . S
C242 H223 0.951 . S
C242 C240 1.388 . S
C242 C243 1.366 . S
C243 C242 1.366 . S
C243 C244 1.414 . S
C243 C246 1.499 . S
C244 H224 0.950 . S
C244 C243 1.414 . S
C244 C245 1.374 . S
C245 H225 0.950 . S
C245 C241 1.385 . S
C245 C244 1.374 . S
C246 C243 1.499 . S
C246 C247 1.373 . S
C246 C248 1.389 . S
C247 H226 0.950 . S
C247 C246 1.373 . S
C247 C263 1.377 . S
C248 C246 1.389 . S
C248 C249 1.524 . S
C248 C262 1.377 . S
C249 C248 1.524 . S
C249 C250 1.397 . S
C249 C254 1.363 . S
C250 H227 0.950 . S
C250 C249 1.397 . S
C250 C251 1.334 . S
C251 H228 0.948 . S
C251 C250 1.334 . S
C251 C252 1.287 . S
C252 C251 1.287 . S
C252 C253 1.524 . S
C252 H271 0.913 . S
C253 H229 0.950 . S
C253 C252 1.524 . S
C253 C254 1.415 . S
C254 H230 0.950 . S
C254 C249 1.363 . S
C254 C253 1.415 . S
C255 H231 0.951 . S
C255 C256 1.366 . S
C255 C257 1.388 . S
C256 C255 1.366 . S
C256 C260 1.385 . S
C257 H232 0.951 . S
C257 C255 1.388 . S
C257 C258 1.366 . S
C258 C257 1.366 . S
C258 C259 1.414 . S
C258 C261 1.499 . S
C259 H233 0.950 . S
C259 C258 1.414 . S
C259 C260 1.374 . S
C260 H234 0.950 . S
C260 C256 1.385 . S
C260 C259 1.374 . S
C261 C258 1.499 . S
C261 C262 1.373 . S
C261 C263 1.389 . S
C262 H235 0.950 . S
C262 C248 1.377 . S
C262 C261 1.373 . S
C263 C247 1.377 . S
C263 C261 1.389 . S
C263 C264 1.524 . S
C264 C263 1.524 . S
C264 C265 1.397 . S
C264 C269 1.363 . S
C265 H236 0.950 . S
C265 C264 1.397 . S
C265 C266 1.334 . S
C266 H237 0.950 . S
C266 C265 1.334 . S
C266 C267 1.287 . S
C267 C266 1.287 . S
C267 C268 1.524 . S
C267 H270 0.999 . S
C268 H238 0.950 . S
C268 C267 1.524 . S
C268 C269 1.415 . S
C269 H239 0.950 . S
C269 C264 1.363 . S
C269 C268 1.415 . S
H270 C267 0.999 . S
H271 C252 0.913 . S
H272 C290 0.951 . S
H273 C292 0.951 . S
H274 C294 0.950 . S
H275 C295 0.950 . S
H276 C297 0.950 . S
H277 C300 0.950 . S
H278 C301 0.950 . S
H279 C303 0.950 . S
H280 C304 0.950 . S
H281 C305 0.951 . S
H282 C307 0.951 . S
H283 C309 0.950 . S
H284 C310 0.950 . S
H285 C312 0.950 . S
H286 C315 0.950 . S
H287 C316 0.950 . S
H288 C318 0.950 . S
H289 C319 0.950 . S
C290 H272 0.951 . S
C290 C291 1.366 . S
C290 C292 1.388 . S
C291 C290 1.366 . S
C291 C295 1.385 . S
C292 H273 0.951 . S
C292 C290 1.388 . S
C292 C293 1.366 . S
C293 C292 1.366 . S
C293 C294 1.414 . S
C293 C296 1.499 . S
C294 H274 0.950 . S
C294 C293 1.414 . S
C294 C295 1.374 . S
C295 H275 0.950 . S
C295 C291 1.385 . S
C295 C294 1.374 . S
C296 C293 1.499 . S
C296 C297 1.373 . S
C296 C298 1.389 . S
C297 H276 0.950 . S
C297 C296 1.373 . S
C297 C313 1.377 . S
C298 C296 1.389 . S
C298 C299 1.524 . S
C298 C312 1.377 . S
C299 C298 1.524 . S
C299 C300 1.397 . S
C299 C304 1.363 . S
C300 H277 0.950 . S
C300 C299 1.397 . S
C300 C301 1.334 . S
C301 H278 0.950 . S
C301 C300 1.334 . S
C301 C302 1.287 . S
C302 C301 1.287 . S
C302 C303 1.524 . S
C302 H321 0.913 . S
C303 H279 0.950 . S
C303 C302 1.524 . S
C303 C304 1.415 . S
C304 H280 0.950 . S
C304 C299 1.363 . S
C304 C303 1.415 . S
C305 H281 0.951 . S
C305 C306 1.366 . S
C305 C307 1.388 . S
C306 C305 1.366 . S
C306 C310 1.385 . S
C307 H282 0.951 . S
C307 C305 1.388 . S
C307 C308 1.366 . S
C308 C307 1.366 . S
C308 C309 1.414 . S
C308 C311 1.499 . S
C309 H283 0.950 . S
C309 C308 1.414 . S
C309 C310 1.374 . S
C310 H284 0.950 . S
C310 C306 1.385 . S
C310 C309 1.374 . S
C311 C308 1.499 . S
C311 C312 1.373 . S
C311 C313 1.389 . S
C312 H285 0.950 . S
C312 C298 1.377 . S
C312 C311 1.373 . S
C313 C297 1.377 . S
C313 C311 1.389 . S
C313 C314 1.524 . S
C314 C313 1.524 . S
C314 C315 1.397 . S
C314 C319 1.363 . S
C315 H286 0.950 . S
C315 C314 1.397 . S
C315 C316 1.334 . S
C316 H287 0.950 . S
C316 C315 1.334 . S
C316 C317 1.287 . S
C317 C316 1.287 . S
C317 C318 1.524 . S
C317 H320 0.999 . S
C318 H288 0.950 . S
C318 C317 1.524 . S
C318 C319 1.415 . S
C319 H289 0.950 . S
C319 C314 1.363 . S
C319 C318 1.415 . S
H320 C317 0.999 . S
H321 C302 0.913 . S
H322 C340 0.951 . S
H323 C342 0.951 . S
H324 C344 0.950 . S
H325 C345 0.950 . S
H326 C347 0.950 . S
H327 C350 0.950 . S
H328 C351 0.950 1_545 S
H329 C353 0.950 1_556 S
H330 C354 0.950 . S
H331 C355 0.951 . S
H332 C357 0.951 . S
H333 C359 0.950 . S
H334 C360 0.950 . S
H335 C362 0.950 . S
H336 C365 0.950 . S
H337 C366 0.950 . S
H338 C368 0.950 . S
H339 C369 0.950 . S
C340 H322 0.951 . S
C340 C341 1.366 . S
C340 C342 1.388 . S
C341 C340 1.366 . S
C341 C345 1.385 . S
C342 H323 0.951 . S
C342 C340 1.388 . S
C342 C343 1.366 . S
C343 C342 1.366 . S
C343 C344 1.414 . S
C343 C346 1.499 . S
C344 H324 0.950 . S
C344 C343 1.414 . S
C344 C345 1.374 . S
C345 H325 0.950 . S
C345 C341 1.385 . S
C345 C344 1.374 . S
C346 C343 1.499 . S
C346 C347 1.373 . S
C346 C348 1.389 . S
C347 H326 0.950 . S
C347 C346 1.373 . S
C347 C363 1.377 . S
C348 C346 1.389 . S
C348 C349 1.524 . S
C348 C362 1.377 . S
C349 C348 1.524 . S
C349 C350 1.397 . S
C349 C354 1.363 . S
C350 H327 0.950 . S
C350 C349 1.397 . S
C350 C351 1.334 . S
C351 H328 0.950 1_565 S
C351 C350 1.334 . S
C351 C352 1.287 . S
C352 C351 1.287 . S
C352 C353 1.524 . S
C352 H371 0.899 1_554 S
C353 H329 0.950 1_554 S
C353 C352 1.524 . S
C353 C354 1.415 . S
C354 H330 0.950 . S
C354 C349 1.363 . S
C354 C353 1.415 . S
C355 H331 0.951 . S
C355 C356 1.366 . S
C355 C357 1.388 . S
C356 C355 1.366 . S
C356 C360 1.385 . S
C357 H332 0.951 . S
C357 C355 1.388 . S
C357 C358 1.366 . S
C358 C357 1.366 . S
C358 C359 1.414 . S
C358 C361 1.499 . S
C359 H333 0.950 . S
C359 C358 1.414 . S
C359 C360 1.374 . S
C360 H334 0.950 . S
C360 C356 1.385 . S
C360 C359 1.374 . S
C361 C358 1.499 . S
C361 C362 1.373 . S
C361 C363 1.389 . S
C362 H335 0.950 . S
C362 C348 1.377 . S
C362 C361 1.373 . S
C363 C347 1.377 . S
C363 C361 1.389 . S
C363 C364 1.524 . S
C364 C363 1.524 . S
C364 C365 1.397 . S
C364 C369 1.363 . S
C365 H336 0.950 . S
C365 C364 1.397 . S
C365 C366 1.334 . S
C366 H337 0.950 . S
C366 C365 1.334 . S
C366 C367 1.287 . S
C367 C366 1.287 . S
C367 C368 1.524 . S
C367 H370 0.999 . S
C368 H338 0.950 . S
C368 C367 1.524 . S
C368 C369 1.415 . S
C369 H339 0.950 . S
C369 C364 1.363 . S
C369 C368 1.415 . S
H370 C367 0.999 . S
H371 C352 0.899 1_556 S
H372 C390 0.951 . S
H373 C392 0.951 . S
H374 C394 0.950 . S
H375 C395 0.950 . S
H376 C397 0.950 . S
H377 C400 0.950 . S
H378 C401 0.950 . S
H379 C403 0.950 . S
H380 C404 0.950 . S
H381 C405 0.951 . S
H382 C407 0.951 . S
H383 C409 0.950 . S
H384 C410 0.950 . S
H385 C412 0.950 . S
H386 C415 0.950 . S
H387 C416 0.950 . S
H388 C418 0.950 . S
H389 C419 0.950 . S
C390 H372 0.951 . S
C390 C391 1.366 . S
C390 C392 1.388 . S
C391 C390 1.366 . S
C391 C395 1.385 . S
C392 H373 0.951 . S
C392 C390 1.388 . S
C392 C393 1.366 . S
C393 C392 1.366 . S
C393 C394 1.414 . S
C393 C396 1.499 . S
C394 H374 0.950 . S
C394 C393 1.414 . S
C394 C395 1.374 . S
C395 H375 0.950 . S
C395 C391 1.385 . S
C395 C394 1.374 . S
C396 C393 1.499 . S
C396 C397 1.373 . S
C396 C398 1.389 . S
C397 H376 0.950 . S
C397 C396 1.373 . S
C397 C413 1.377 . S
C398 C396 1.389 . S
C398 C399 1.524 . S
C398 C412 1.377 . S
C399 C398 1.524 . S
C399 C400 1.397 . S
C399 C404 1.363 . S
C400 H377 0.950 . S
C400 C399 1.397 . S
C400 C401 1.334 1_655 S
C401 H378 0.950 . S
C401 C400 1.334 1_455 S
C401 C402 1.287 . S
C402 C401 1.287 . S
C402 C403 1.524 . S
C402 H421 0.913 . S
C403 H379 0.950 . S
C403 C402 1.524 . S
C403 C404 1.415 1_455 S
C404 H380 0.950 . S
C404 C399 1.363 . S
C404 C403 1.415 1_655 S
C405 H381 0.951 . S
C405 C406 1.366 . S
C405 C407 1.388 . S
C406 C405 1.366 . S
C406 C410 1.385 . S
C407 H382 0.951 . S
C407 C405 1.388 . S
C407 C408 1.366 . S
C408 C407 1.366 . S
C408 C409 1.414 . S
C408 C411 1.499 . S
C409 H383 0.950 . S
C409 C408 1.414 . S
C409 C410 1.374 . S
C410 H384 0.950 . S
C410 C406 1.385 . S
C410 C409 1.374 . S
C411 C408 1.499 . S
C411 C412 1.373 . S
C411 C413 1.389 . S
C412 H385 0.950 . S
C412 C398 1.377 . S
C412 C411 1.373 . S
C413 C397 1.377 . S
C413 C411 1.389 . S
C413 C414 1.524 . S
C414 C413 1.524 . S
C414 C415 1.397 . S
C414 C419 1.363 . S
C415 H386 0.950 . S
C415 C414 1.397 . S
C415 C416 1.334 . S
C416 H387 0.950 . S
C416 C415 1.334 . S
C416 C417 1.287 . S
C417 C416 1.287 . S
C417 C418 1.524 . S
C417 H420 0.999 . S
C418 H388 0.950 . S
C418 C417 1.524 . S
C418 C419 1.415 . S
C419 H389 0.950 . S
C419 C414 1.363 . S
C419 C418 1.415 . S
H420 C417 0.999 . S
H421 C402 0.913 . S
H422 C440 0.951 . S
H423 C442 0.951 . S
H424 C444 0.950 . S
H425 C445 0.950 . S
H426 C447 0.950 . S
H427 C450 0.950 . S
H428 C451 0.950 1_655 S
H429 C453 0.950 . S
H430 C454 0.950 . S
H431 C455 0.951 . S
H432 C457 0.951 . S
H433 C459 0.950 . S
H434 C460 0.950 . S
H435 C462 0.950 . S
H436 C465 0.950 . S
H437 C466 0.950 . S
H438 C468 0.950 . S
H439 C469 0.950 . S
C440 H422 0.951 . S
C440 C441 1.366 . S
C440 C442 1.388 . S
C441 C440 1.366 . S
C441 C445 1.385 . S
C442 H423 0.951 . S
C442 C440 1.388 . S
C442 C443 1.366 . S
C443 C442 1.366 . S
C443 C444 1.414 . S
C443 C446 1.499 . S
C444 H424 0.950 . S
C444 C443 1.414 . S
C444 C445 1.374 . S
C445 H425 0.950 . S
C445 C441 1.385 . S
C445 C444 1.374 . S
C446 C443 1.499 . S
C446 C447 1.373 . S
C446 C448 1.389 . S
C447 H426 0.950 . S
C447 C446 1.373 . S
C447 C463 1.377 . S
C448 C446 1.389 . S
C448 C449 1.524 . S
C448 C462 1.377 . S
C449 C448 1.524 . S
C449 C450 1.397 . S
C449 C454 1.363 . S
C450 H427 0.950 . S
C450 C449 1.397 . S
C450 C451 1.334 . S
C451 H428 0.950 1_455 S
C451 C450 1.334 . S
C451 C452 1.287 . S
C452 C451 1.287 . S
C452 C453 1.524 . S
C452 H471 0.913 1_455 S
C453 H429 0.950 . S
C453 C452 1.524 . S
C453 C454 1.415 . S
C454 H430 0.950 . S
C454 C449 1.363 . S
C454 C453 1.415 . S
C455 H431 0.951 . S
C455 C456 1.366 . S
C455 C457 1.388 . S
C456 C455 1.366 . S
C456 C460 1.385 . S
C457 H432 0.951 . S
C457 C455 1.388 . S
C457 C458 1.366 . S
C458 C457 1.366 . S
C458 C459 1.414 . S
C458 C461 1.499 . S
C459 H433 0.950 . S
C459 C458 1.414 . S
C459 C460 1.374 . S
C460 H434 0.950 . S
C460 C456 1.385 . S
C460 C459 1.374 . S
C461 C458 1.499 . S
C461 C462 1.373 . S
C461 C463 1.389 . S
C462 H435 0.950 . S
C462 C448 1.377 . S
C462 C461 1.373 . S
C463 C447 1.377 . S
C463 C461 1.389 . S
C463 C464 1.524 . S
C464 C463 1.524 . S
C464 C465 1.397 . S
C464 C469 1.363 . S
C465 H436 0.950 . S
C465 C464 1.397 . S
C465 C466 1.334 . S
C466 H437 0.950 . S
C466 C465 1.334 . S
C466 C467 1.287 . S
C467 C466 1.287 . S
C467 C468 1.524 . S
C467 H470 0.999 . S
C468 H438 0.950 . S
C468 C467 1.524 . S
C468 C469 1.415 . S
C469 H439 0.950 . S
C469 C464 1.363 . S
C469 C468 1.415 . S
H470 C467 0.999 . S
H471 C452 0.913 1_655 S
H472 C490 0.951 . S
H473 C492 0.951 . S
H474 C494 0.950 . S
H475 C495 0.950 . S
H476 C497 0.950 . S
H477 C500 0.950 . S
H478 C501 0.950 . S
H479 C503 0.950 . S
H480 C504 0.950 . S
H481 C505 0.951 . S
H482 C507 0.951 . S
H483 C509 0.950 . S
H484 C510 0.950 . S
H485 C512 0.950 . S
H486 C515 0.950 . S
H487 C516 0.950 . S
H488 C518 0.950 . S
H489 C519 0.950 . S
C490 H472 0.951 . S
C490 C491 1.366 . S
C490 C492 1.388 . S
C491 C490 1.366 . S
C491 C495 1.385 . S
C492 H473 0.951 . S
C492 C490 1.388 . S
C492 C493 1.366 . S
C493 C492 1.366 . S
C493 C494 1.414 . S
C493 C496 1.499 . S
C494 H474 0.950 . S
C494 C493 1.414 . S
C494 C495 1.374 . S
C495 H475 0.950 . S
C495 C491 1.385 . S
C495 C494 1.374 . S
C496 C493 1.499 . S
C496 C497 1.373 . S
C496 C498 1.389 . S
C497 H476 0.950 . S
C497 C496 1.373 . S
C497 C513 1.377 . S
C498 C496 1.389 . S
C498 C499 1.524 . S
C498 C512 1.377 . S
C499 C498 1.524 . S
C499 C500 1.397 . S
C499 C504 1.363 . S
C500 H477 0.950 . S
C500 C499 1.397 . S
C500 C501 1.334 . S
C501 H478 0.950 . S
C501 C500 1.334 . S
C501 C502 1.287 . S
C502 C501 1.287 . S
C502 C503 1.524 . S
C502 H521 0.913 . S
C503 H479 0.950 . S
C503 C502 1.524 . S
C503 C504 1.415 . S
C504 H480 0.950 . S
C504 C499 1.363 . S
C504 C503 1.415 . S
C505 H481 0.951 . S
C505 C506 1.366 . S
C505 C507 1.388 . S
C506 C505 1.366 . S
C506 C510 1.385 . S
C507 H482 0.951 . S
C507 C505 1.388 . S
C507 C508 1.366 . S
C508 C507 1.366 . S
C508 C509 1.414 . S
C508 C511 1.499 . S
C509 H483 0.950 . S
C509 C508 1.414 . S
C509 C510 1.374 . S
C510 H484 0.950 . S
C510 C506 1.385 . S
C510 C509 1.374 . S
C511 C508 1.499 . S
C511 C512 1.373 . S
C511 C513 1.389 . S
C512 H485 0.950 . S
C512 C498 1.377 . S
C512 C511 1.373 . S
C513 C497 1.377 . S
C513 C511 1.389 . S
C513 C514 1.524 . S
C514 C513 1.524 . S
C514 C515 1.397 . S
C514 C519 1.363 . S
C515 H486 0.950 . S
C515 C514 1.397 . S
C515 C516 1.334 . S
C516 H487 0.950 . S
C516 C515 1.334 . S
C516 C517 1.287 . S
C517 C516 1.287 . S
C517 C518 1.524 . S
C517 H520 0.999 . S
C518 H488 0.950 . S
C518 C517 1.524 . S
C518 C519 1.415 . S
C519 H489 0.950 . S
C519 C514 1.363 . S
C519 C518 1.415 . S
H520 C517 0.999 . S
H521 C502 0.913 . S
H522 C540 0.951 . S
H523 C542 0.951 . S
H524 C544 0.950 . S
H525 C545 0.950 . S
H526 C547 0.950 . S
H527 C550 0.950 . S
H528 C551 0.950 . S
H529 C553 0.950 . S
H530 C554 0.950 . S
H531 C555 0.951 . S
H532 C557 0.951 . S
H533 C559 0.950 . S
H534 C560 0.950 . S
H535 C562 0.950 . S
H536 C565 0.950 . S
H537 C566 0.950 . S
H538 C568 0.950 . S
H539 C569 0.950 . S
C540 H522 0.951 . S
C540 C541 1.366 . S
C540 C542 1.388 . S
C541 C540 1.366 . S
C541 C545 1.385 . S
C542 H523 0.951 . S
C542 C540 1.388 . S
C542 C543 1.366 . S
C543 C542 1.366 . S
C543 C544 1.414 . S
C543 C546 1.499 . S
C544 H524 0.950 . S
C544 C543 1.414 . S
C544 C545 1.374 . S
C545 H525 0.950 . S
C545 C541 1.385 . S
C545 C544 1.374 . S
C546 C543 1.499 . S
C546 C547 1.373 . S
C546 C548 1.389 . S
C547 H526 0.950 . S
C547 C546 1.373 . S
C547 C563 1.377 . S
C548 C546 1.389 . S
C548 C549 1.524 . S
C548 C562 1.377 . S
C549 C548 1.524 . S
C549 C550 1.397 . S
C549 C554 1.363 . S
C550 H527 0.950 . S
C550 C549 1.397 . S
C550 C551 1.334 . S
C551 H528 0.950 . S
C551 C550 1.334 . S
C551 C552 1.287 . S
C552 C551 1.287 . S
C552 C553 1.524 . S
C552 H571 0.913 . S
C553 H529 0.950 . S
C553 C552 1.524 . S
C553 C554 1.415 . S
C554 H530 0.950 . S
C554 C549 1.363 . S
C554 C553 1.415 . S
C555 H531 0.951 . S
C555 C556 1.366 . S
C555 C557 1.388 . S
C556 C555 1.366 . S
C556 C560 1.385 . S
C557 H532 0.951 . S
C557 C555 1.388 . S
C557 C558 1.366 . S
C558 C557 1.366 . S
C558 C559 1.414 . S
C558 C561 1.499 . S
C559 H533 0.950 . S
C559 C558 1.414 . S
C559 C560 1.374 . S
C560 H534 0.950 . S
C560 C556 1.385 . S
C560 C559 1.374 . S
C561 C558 1.499 . S
C561 C562 1.373 . S
C561 C563 1.389 . S
C562 H535 0.950 . S
C562 C548 1.377 . S
C562 C561 1.373 . S
C563 C547 1.377 . S
C563 C561 1.389 . S
C563 C564 1.524 . S
C564 C563 1.524 . S
C564 C565 1.397 . S
C564 C569 1.363 . S
C565 H536 0.950 . S
C565 C564 1.397 . S
C565 C566 1.334 . S
C566 H537 0.950 . S
C566 C565 1.334 . S
C566 C567 1.287 . S
C567 C566 1.287 . S
C567 C568 1.524 . S
C567 H570 0.999 . S
C568 H538 0.950 . S
C568 C567 1.524 . S
C568 C569 1.415 . S
C569 H539 0.950 . S
C569 C564 1.363 . S
C569 C568 1.415 . S
H570 C567 0.999 . S
H571 C552 0.913 . S
H572 C590 0.951 . S
H573 C592 0.951 . S
H574 C594 0.950 . S
H575 C595 0.950 . S
H576 C597 0.950 . S
H577 C600 0.950 . S
H578 C601 0.950 1_455 S
H579 C603 0.950 . S
H580 C604 0.950 . S
H581 C605 0.951 . S
H582 C607 0.951 . S
H583 C609 0.950 . S
H584 C610 0.950 . S
H585 C612 0.950 . S
H586 C615 0.950 . S
H587 C616 0.950 . S
H588 C618 0.950 . S
H589 C619 0.950 . S
C590 H572 0.951 . S
C590 C591 1.366 . S
C590 C592 1.388 . S
C591 C590 1.366 . S
C591 C595 1.385 . S
C592 H573 0.951 . S
C592 C590 1.388 . S
C592 C593 1.366 . S
C593 C592 1.366 . S
C593 C594 1.414 . S
C593 C596 1.499 . S
C594 H574 0.950 . S
C594 C593 1.414 . S
C594 C595 1.374 . S
C595 H575 0.950 . S
C595 C591 1.385 . S
C595 C594 1.374 . S
C596 C593 1.499 . S
C596 C597 1.373 . S
C596 C598 1.389 . S
C597 H576 0.950 . S
C597 C596 1.373 . S
C597 C613 1.377 . S
C598 C596 1.389 . S
C598 C599 1.524 . S
C598 C612 1.377 . S
C599 C598 1.524 . S
C599 C600 1.397 . S
C599 C604 1.363 . S
C600 H577 0.950 . S
C600 C599 1.397 . S
C600 C601 1.334 . S
C601 H578 0.950 1_655 S
C601 C600 1.334 . S
C601 C602 1.287 . S
C602 C601 1.287 . S
C602 C603 1.524 . S
C602 H621 0.913 . S
C603 H579 0.950 . S
C603 C602 1.524 . S
C603 C604 1.415 . S
C604 H580 0.950 . S
C604 C599 1.363 . S
C604 C603 1.415 . S
C605 H581 0.951 . S
C605 C606 1.366 . S
C605 C607 1.388 . S
C606 C605 1.366 . S
C606 C610 1.385 . S
C607 H582 0.951 . S
C607 C605 1.388 . S
C607 C608 1.366 . S
C608 C607 1.366 . S
C608 C609 1.414 . S
C608 C611 1.499 . S
C609 H583 0.950 . S
C609 C608 1.414 . S
C609 C610 1.374 . S
C610 H584 0.950 . S
C610 C606 1.385 . S
C610 C609 1.374 . S
C611 C608 1.499 . S
C611 C612 1.373 . S
C611 C613 1.389 . S
C612 H585 0.950 . S
C612 C598 1.377 . S
C612 C611 1.373 . S
C613 C597 1.377 . S
C613 C611 1.389 . S
C613 C614 1.524 . S
C614 C613 1.524 . S
C614 C615 1.397 . S
C614 C619 1.363 . S
C615 H586 0.950 . S
C615 C614 1.397 . S
C615 C616 1.334 . S
C616 H587 0.950 . S
C616 C615 1.334 . S
C616 C617 1.287 . S
C617 C616 1.287 . S
C617 C618 1.524 . S
C617 H620 0.999 . S
C618 H588 0.950 . S
C618 C617 1.524 . S
C618 C619 1.415 . S
C619 H589 0.950 . S
C619 C614 1.363 . S
C619 C618 1.415 . S
H620 C617 0.999 . S
H621 C602 0.913 . S
H622 C640 0.951 . S
H623 C642 0.951 . S
H624 C644 0.950 . S
H625 C645 0.950 . S
H626 C647 0.950 . S
H627 C650 0.950 . S
H628 C651 0.950 . S
H629 C653 0.950 . S
H630 C654 0.950 . S
H631 C655 0.951 . S
H632 C657 0.951 . S
H633 C659 0.950 . S
H634 C660 0.950 . S
H635 C662 0.950 . S
H636 C665 0.950 . S
H637 C666 0.950 . S
H638 C668 0.950 . S
H639 C669 0.950 . S
C640 H622 0.951 . S
C640 C641 1.366 . S
C640 C642 1.388 . S
C641 C640 1.366 . S
C641 C645 1.385 . S
C642 H623 0.951 . S
C642 C640 1.388 . S
C642 C643 1.366 . S
C643 C642 1.366 . S
C643 C644 1.414 . S
C643 C646 1.499 . S
C644 H624 0.950 . S
C644 C643 1.414 . S
C644 C645 1.374 . S
C645 H625 0.950 . S
C645 C641 1.385 . S
C645 C644 1.374 . S
C646 C643 1.499 . S
C646 C647 1.373 . S
C646 C648 1.389 . S
C647 H626 0.950 . S
C647 C646 1.373 . S
C647 C663 1.377 . S
C648 C646 1.389 . S
C648 C649 1.524 . S
C648 C662 1.377 . S
C649 C648 1.524 . S
C649 C650 1.397 . S
C649 C654 1.363 . S
C650 H627 0.950 . S
C650 C649 1.397 . S
C650 C651 1.334 . S
C651 H628 0.950 . S
C651 C650 1.334 . S
C651 C652 1.287 . S
C652 C651 1.287 . S
C652 C653 1.524 . S
C652 H671 0.913 . S
C653 H629 0.950 . S
C653 C652 1.524 . S
C653 C654 1.415 . S
C654 H630 0.950 . S
C654 C649 1.363 . S
C654 C653 1.415 . S
C655 H631 0.951 . S
C655 C656 1.366 . S
C655 C657 1.388 . S
C656 C655 1.366 . S
C656 C660 1.385 . S
C657 H632 0.951 . S
C657 C655 1.388 . S
C657 C658 1.366 . S
C658 C657 1.366 . S
C658 C659 1.414 . S
C658 C661 1.499 . S
C659 H633 0.950 . S
C659 C658 1.414 . S
C659 C660 1.374 . S
C660 H634 0.950 . S
C660 C656 1.385 . S
C660 C659 1.374 . S
C661 C658 1.499 . S
C661 C662 1.373 . S
C661 C663 1.389 . S
C662 H635 0.950 . S
C662 C648 1.377 . S
C662 C661 1.373 . S
C663 C647 1.377 . S
C663 C661 1.389 . S
C663 C664 1.524 . S
C664 C663 1.524 . S
C664 C665 1.397 . S
C664 C669 1.363 . S
C665 H636 0.950 . S
C665 C664 1.397 . S
C665 C666 1.334 . S
C666 H637 0.950 . S
C666 C665 1.334 . S
C666 C667 1.287 . S
C667 C666 1.287 . S
C667 C668 1.524 . S
C667 H670 0.999 . S
C668 H638 0.950 . S
C668 C667 1.524 . S
C668 C669 1.415 . S
C669 H639 0.950 . S
C669 C664 1.363 . S
C669 C668 1.415 . S
H670 C667 0.999 . S
H671 C652 0.913 . S
H672 C690 0.951 . S
H673 C692 0.951 . S
H674 C694 0.950 . S
H675 C695 0.950 . S
H676 C697 0.950 . S
H677 C700 0.950 . S
H678 C701 0.950 . S
H679 C703 0.950 . S
H680 C704 0.950 . S
H681 C705 0.951 . S
H682 C707 0.951 . S
H683 C709 0.950 . S
H684 C710 0.950 . S
H685 C712 0.950 . S
H686 C715 0.950 . S
H687 C716 0.950 . S
H688 C718 0.950 1_455 S
H689 C719 0.950 . S
C690 H672 0.951 . S
C690 C691 1.366 . S
C690 C692 1.388 . S
C691 C690 1.366 . S
C691 C695 1.385 . S
C692 H673 0.951 . S
C692 C690 1.388 . S
C692 C693 1.366 . S
C693 C692 1.366 . S
C693 C694 1.414 . S
C693 C696 1.499 . S
C694 H674 0.950 . S
C694 C693 1.414 . S
C694 C695 1.374 . S
C695 H675 0.950 . S
C695 C691 1.385 . S
C695 C694 1.374 . S
C696 C693 1.499 . S
C696 C697 1.373 . S
C696 C698 1.389 . S
C697 H676 0.950 . S
C697 C696 1.373 . S
C697 C713 1.377 . S
C698 C696 1.389 . S
C698 C699 1.524 . S
C698 C712 1.377 . S
C699 C698 1.524 . S
C699 C700 1.397 . S
C699 C704 1.363 . S
C700 H677 0.950 . S
C700 C699 1.397 . S
C700 C701 1.334 . S
C701 H678 0.950 . S
C701 C700 1.334 . S
C701 C702 1.287 . S
C702 C701 1.287 . S
C702 C703 1.524 . S
C702 H721 0.913 . S
C703 H679 0.950 . S
C703 C702 1.524 . S
C703 C704 1.415 . S
C704 H680 0.950 . S
C704 C699 1.363 . S
C704 C703 1.415 . S
C705 H681 0.951 . S
C705 C706 1.366 . S
C705 C707 1.388 . S
C706 C705 1.366 . S
C706 C710 1.385 . S
C707 H682 0.951 . S
C707 C705 1.388 . S
C707 C708 1.366 . S
C708 C707 1.366 . S
C708 C709 1.414 . S
C708 C711 1.499 . S
C709 H683 0.950 . S
C709 C708 1.414 . S
C709 C710 1.374 . S
C710 H684 0.950 . S
C710 C706 1.385 . S
C710 C709 1.374 . S
C711 C708 1.499 . S
C711 C712 1.373 . S
C711 C713 1.389 . S
C712 H685 0.950 . S
C712 C698 1.377 . S
C712 C711 1.373 . S
C713 C697 1.377 . S
C713 C711 1.389 . S
C713 C714 1.524 . S
C714 C713 1.524 . S
C714 C715 1.397 . S
C714 C719 1.363 . S
C715 H686 0.950 . S
C715 C714 1.397 . S
C715 C716 1.334 . S
C716 H687 0.950 . S
C716 C715 1.334 . S
C716 C717 1.287 1_655 S
C717 C716 1.287 1_455 S
C717 C718 1.524 1_455 S
C717 H720 0.999 . S
C718 H688 0.950 1_655 S
C718 C717 1.524 1_655 S
C718 C719 1.415 . S
C719 H689 0.950 . S
C719 C714 1.363 . S
C719 C718 1.415 . S
H720 C717 0.999 . S
H721 C702 0.913 . S
C141 C5 1.173 . S
C156 C99 1.084 . S
C191 C55 0.935 . S
C206 C105 0.876 . S
C241 C19 1.169 . S
C256 C96 1.104 . S
C291 C49 2.055 . S
C306 C121 1.931 . S
C341 C8 2.001 . S
C356 C87 1.911 . S
C406 C104 1.891 . S
C391 C48 1.977 . S
C441 C59 1.861 . S
C456 C100 1.756 . S
C506 C117 2.061 . S
C491 C18 2.132 . S
C556 C84 2.095 . S
C541 C58 2.247 . S
C606 C120 1.145 . S
C591 C15 1.260 . S
C656 C83 0.888 . S
C641 C45 0.940 . S
C706 C108 0.920 . S
C691 C9 0.976 . S
