# Generated by pormake.
# Topology gar, (4,6)-cn, num edge types: 1
# Building blocks:
#     Node 0, Type 0, BuildingBlock: NAHDIM_clean_sbu_0, # of connection points: 4
#     Node 1, Type 0, BuildingBlock: NAHDIM_clean_sbu_0, # of connection points: 4
#     Node 2, Type 0, BuildingBlock: NAHDIM_clean_sbu_0, # of connection points: 4
#     Node 3, Type 0, BuildingBlock: NAHDIM_clean_sbu_0, # of connection points: 4
#     Node 4, Type 0, BuildingBlock: NAHDIM_clean_sbu_0, # of connection points: 4
#     Node 5, Type 0, BuildingBlock: NAHDIM_clean_sbu_0, # of connection points: 4
#     Node 6, Type 0, BuildingBlock: NAHDIM_clean_sbu_0, # of connection points: 4
#     Node 7, Type 0, BuildingBlock: NAHDIM_clean_sbu_0, # of connection points: 4
#     Node 8, Type 0, BuildingBlock: NAHDIM_clean_sbu_0, # of connection points: 4
#     Node 9, Type 0, BuildingBlock: NAHDIM_clean_sbu_0, # of connection points: 4
#     Node 10, Type 0, BuildingBlock: NAHDIM_clean_sbu_0, # of connection points: 4
#     Node 11, Type 0, BuildingBlock: NAHDIM_clean_sbu_0, # of connection points: 4
#     Node 12, Type 0, BuildingBlock: NAHDIM_clean_sbu_0, # of connection points: 4
#     Node 13, Type 0, BuildingBlock: NAHDIM_clean_sbu_0, # of connection points: 4
#     Node 14, Type 0, BuildingBlock: NAHDIM_clean_sbu_0, # of connection points: 4
#     Node 15, Type 0, BuildingBlock: NAHDIM_clean_sbu_0, # of connection points: 4
#     Node 16, Type 0, BuildingBlock: NAHDIM_clean_sbu_0, # of connection points: 4
#     Node 17, Type 0, BuildingBlock: NAHDIM_clean_sbu_0, # of connection points: 4
#     Node 18, Type 0, BuildingBlock: NAHDIM_clean_sbu_0, # of connection points: 4
#     Node 19, Type 0, BuildingBlock: NAHDIM_clean_sbu_0, # of connection points: 4
#     Node 20, Type 0, BuildingBlock: NAHDIM_clean_sbu_0, # of connection points: 4
#     Node 21, Type 0, BuildingBlock: NAHDIM_clean_sbu_0, # of connection points: 4
#     Node 22, Type 0, BuildingBlock: NAHDIM_clean_sbu_0, # of connection points: 4
#     Node 23, Type 0, BuildingBlock: NAHDIM_clean_sbu_0, # of connection points: 4
#     Node 24, Type 1, BuildingBlock: KUMBUR_clean_sbu_0, # of connection points: 6
#     Node 25, Type 1, BuildingBlock: KUMBUR_clean_sbu_0, # of connection points: 6
#     Node 26, Type 1, BuildingBlock: KUMBUR_clean_sbu_0, # of connection points: 6
#     Node 27, Type 1, BuildingBlock: KUMBUR_clean_sbu_0, # of connection points: 6
#     Node 28, Type 1, BuildingBlock: KUMBUR_clean_sbu_0, # of connection points: 6
#     Node 29, Type 1, BuildingBlock: KUMBUR_clean_sbu_0, # of connection points: 6
#     Node 30, Type 1, BuildingBlock: KUMBUR_clean_sbu_0, # of connection points: 6
#     Node 31, Type 1, BuildingBlock: KUMBUR_clean_sbu_0, # of connection points: 6
#     Node 32, Type 1, BuildingBlock: KUMBUR_clean_sbu_0, # of connection points: 6
#     Node 33, Type 1, BuildingBlock: KUMBUR_clean_sbu_0, # of connection points: 6
#     Node 34, Type 1, BuildingBlock: KUMBUR_clean_sbu_0, # of connection points: 6
#     Node 35, Type 1, BuildingBlock: KUMBUR_clean_sbu_0, # of connection points: 6
#     Node 36, Type 1, BuildingBlock: KUMBUR_clean_sbu_0, # of connection points: 6
#     Node 37, Type 1, BuildingBlock: KUMBUR_clean_sbu_0, # of connection points: 6
#     Node 38, Type 1, BuildingBlock: KUMBUR_clean_sbu_0, # of connection points: 6
#     Node 39, Type 1, BuildingBlock: KUMBUR_clean_sbu_0, # of connection points: 6
#     Edge 40, Type (0, 1), BuildingBlock: ZUJKAS_clean_linker_0, # of connection points: 2
#     Edge 41, Type (0, 1), BuildingBlock: ZUJKAS_clean_linker_0, # of connection points: 2
#     Edge 42, Type (0, 1), BuildingBlock: ZUJKAS_clean_linker_0, # of connection points: 2
#     Edge 43, Type (0, 1), BuildingBlock: ZUJKAS_clean_linker_0, # of connection points: 2
#     Edge 44, Type (0, 1), BuildingBlock: ZUJKAS_clean_linker_0, # of connection points: 2
#     Edge 45, Type (0, 1), BuildingBlock: ZUJKAS_clean_linker_0, # of connection points: 2
#     Edge 46, Type (0, 1), BuildingBlock: ZUJKAS_clean_linker_0, # of connection points: 2
#     Edge 47, Type (0, 1), BuildingBlock: ZUJKAS_clean_linker_0, # of connection points: 2
#     Edge 48, Type (0, 1), BuildingBlock: ZUJKAS_clean_linker_0, # of connection points: 2
#     Edge 49, Type (0, 1), BuildingBlock: ZUJKAS_clean_linker_0, # of connection points: 2
#     Edge 50, Type (0, 1), BuildingBlock: ZUJKAS_clean_linker_0, # of connection points: 2
#     Edge 51, Type (0, 1), BuildingBlock: ZUJKAS_clean_linker_0, # of connection points: 2
#     Edge 52, Type (0, 1), BuildingBlock: ZUJKAS_clean_linker_0, # of connection points: 2
#     Edge 53, Type (0, 1), BuildingBlock: ZUJKAS_clean_linker_0, # of connection points: 2
#     Edge 54, Type (0, 1), BuildingBlock: ZUJKAS_clean_linker_0, # of connection points: 2
#     Edge 55, Type (0, 1), BuildingBlock: ZUJKAS_clean_linker_0, # of connection points: 2
#     Edge 56, Type (0, 1), BuildingBlock: ZUJKAS_clean_linker_0, # of connection points: 2
#     Edge 57, Type (0, 1), BuildingBlock: ZUJKAS_clean_linker_0, # of connection points: 2
#     Edge 58, Type (0, 1), BuildingBlock: ZUJKAS_clean_linker_0, # of connection points: 2
#     Edge 59, Type (0, 1), BuildingBlock: ZUJKAS_clean_linker_0, # of connection points: 2
#     Edge 60, Type (0, 1), BuildingBlock: ZUJKAS_clean_linker_0, # of connection points: 2
#     Edge 61, Type (0, 1), BuildingBlock: ZUJKAS_clean_linker_0, # of connection points: 2
#     Edge 62, Type (0, 1), BuildingBlock: ZUJKAS_clean_linker_0, # of connection points: 2
#     Edge 63, Type (0, 1), BuildingBlock: ZUJKAS_clean_linker_0, # of connection points: 2
#     Edge 64, Type (0, 1), BuildingBlock: ZUJKAS_clean_linker_0, # of connection points: 2
#     Edge 65, Type (0, 1), BuildingBlock: ZUJKAS_clean_linker_0, # of connection points: 2
#     Edge 66, Type (0, 1), BuildingBlock: ZUJKAS_clean_linker_0, # of connection points: 2
#     Edge 67, Type (0, 1), BuildingBlock: ZUJKAS_clean_linker_0, # of connection points: 2
#     Edge 68, Type (0, 1), BuildingBlock: ZUJKAS_clean_linker_0, # of connection points: 2
#     Edge 69, Type (0, 1), BuildingBlock: ZUJKAS_clean_linker_0, # of connection points: 2
#     Edge 70, Type (0, 1), BuildingBlock: ZUJKAS_clean_linker_0, # of connection points: 2
#     Edge 71, Type (0, 1), BuildingBlock: ZUJKAS_clean_linker_0, # of connection points: 2
#     Edge 72, Type (0, 1), BuildingBlock: ZUJKAS_clean_linker_0, # of connection points: 2
#     Edge 73, Type (0, 1), BuildingBlock: ZUJKAS_clean_linker_0, # of connection points: 2
#     Edge 74, Type (0, 1), BuildingBlock: ZUJKAS_clean_linker_0, # of connection points: 2
#     Edge 75, Type (0, 1), BuildingBlock: ZUJKAS_clean_linker_0, # of connection points: 2
#     Edge 76, Type (0, 1), BuildingBlock: ZUJKAS_clean_linker_0, # of connection points: 2
#     Edge 77, Type (0, 1), BuildingBlock: ZUJKAS_clean_linker_0, # of connection points: 2
#     Edge 78, Type (0, 1), BuildingBlock: ZUJKAS_clean_linker_0, # of connection points: 2
#     Edge 79, Type (0, 1), BuildingBlock: ZUJKAS_clean_linker_0, # of connection points: 2
#     Edge 80, Type (0, 1), BuildingBlock: ZUJKAS_clean_linker_0, # of connection points: 2
#     Edge 81, Type (0, 1), BuildingBlock: ZUJKAS_clean_linker_0, # of connection points: 2
#     Edge 82, Type (0, 1), BuildingBlock: ZUJKAS_clean_linker_0, # of connection points: 2
#     Edge 83, Type (0, 1), BuildingBlock: ZUJKAS_clean_linker_0, # of connection points: 2
#     Edge 84, Type (0, 1), BuildingBlock: ZUJKAS_clean_linker_0, # of connection points: 2
#     Edge 85, Type (0, 1), BuildingBlock: ZUJKAS_clean_linker_0, # of connection points: 2
#     Edge 86, Type (0, 1), BuildingBlock: ZUJKAS_clean_linker_0, # of connection points: 2
#     Edge 87, Type (0, 1), BuildingBlock: ZUJKAS_clean_linker_0, # of connection points: 2
#     Edge 88, Type (0, 1), BuildingBlock: ZUJKAS_clean_linker_0, # of connection points: 2
#     Edge 89, Type (0, 1), BuildingBlock: ZUJKAS_clean_linker_0, # of connection points: 2
#     Edge 90, Type (0, 1), BuildingBlock: ZUJKAS_clean_linker_0, # of connection points: 2
#     Edge 91, Type (0, 1), BuildingBlock: ZUJKAS_clean_linker_0, # of connection points: 2
#     Edge 92, Type (0, 1), BuildingBlock: ZUJKAS_clean_linker_0, # of connection points: 2
#     Edge 93, Type (0, 1), BuildingBlock: ZUJKAS_clean_linker_0, # of connection points: 2
#     Edge 94, Type (0, 1), BuildingBlock: ZUJKAS_clean_linker_0, # of connection points: 2
#     Edge 95, Type (0, 1), BuildingBlock: ZUJKAS_clean_linker_0, # of connection points: 2
#     Edge 96, Type (0, 1), BuildingBlock: ZUJKAS_clean_linker_0, # of connection points: 2
#     Edge 97, Type (0, 1), BuildingBlock: ZUJKAS_clean_linker_0, # of connection points: 2
#     Edge 98, Type (0, 1), BuildingBlock: ZUJKAS_clean_linker_0, # of connection points: 2
#     Edge 99, Type (0, 1), BuildingBlock: ZUJKAS_clean_linker_0, # of connection points: 2
#     Edge 100, Type (0, 1), BuildingBlock: ZUJKAS_clean_linker_0, # of connection points: 2
#     Edge 101, Type (0, 1), BuildingBlock: ZUJKAS_clean_linker_0, # of connection points: 2
#     Edge 102, Type (0, 1), BuildingBlock: ZUJKAS_clean_linker_0, # of connection points: 2
#     Edge 103, Type (0, 1), BuildingBlock: ZUJKAS_clean_linker_0, # of connection points: 2
#     Edge 104, Type (0, 1), BuildingBlock: ZUJKAS_clean_linker_0, # of connection points: 2
#     Edge 105, Type (0, 1), BuildingBlock: ZUJKAS_clean_linker_0, # of connection points: 2
#     Edge 106, Type (0, 1), BuildingBlock: ZUJKAS_clean_linker_0, # of connection points: 2
#     Edge 107, Type (0, 1), BuildingBlock: ZUJKAS_clean_linker_0, # of connection points: 2
#     Edge 108, Type (0, 1), BuildingBlock: ZUJKAS_clean_linker_0, # of connection points: 2
#     Edge 109, Type (0, 1), BuildingBlock: ZUJKAS_clean_linker_0, # of connection points: 2
#     Edge 110, Type (0, 1), BuildingBlock: ZUJKAS_clean_linker_0, # of connection points: 2
#     Edge 111, Type (0, 1), BuildingBlock: ZUJKAS_clean_linker_0, # of connection points: 2
#     Edge 112, Type (0, 1), BuildingBlock: ZUJKAS_clean_linker_0, # of connection points: 2
#     Edge 113, Type (0, 1), BuildingBlock: ZUJKAS_clean_linker_0, # of connection points: 2
#     Edge 114, Type (0, 1), BuildingBlock: ZUJKAS_clean_linker_0, # of connection points: 2
#     Edge 115, Type (0, 1), BuildingBlock: ZUJKAS_clean_linker_0, # of connection points: 2
#     Edge 116, Type (0, 1), BuildingBlock: ZUJKAS_clean_linker_0, # of connection points: 2
#     Edge 117, Type (0, 1), BuildingBlock: ZUJKAS_clean_linker_0, # of connection points: 2
#     Edge 118, Type (0, 1), BuildingBlock: ZUJKAS_clean_linker_0, # of connection points: 2
#     Edge 119, Type (0, 1), BuildingBlock: ZUJKAS_clean_linker_0, # of connection points: 2
#     Edge 120, Type (0, 1), BuildingBlock: ZUJKAS_clean_linker_0, # of connection points: 2
#     Edge 121, Type (0, 1), BuildingBlock: ZUJKAS_clean_linker_0, # of connection points: 2
#     Edge 122, Type (0, 1), BuildingBlock: ZUJKAS_clean_linker_0, # of connection points: 2
#     Edge 123, Type (0, 1), BuildingBlock: ZUJKAS_clean_linker_0, # of connection points: 2
#     Edge 124, Type (0, 1), BuildingBlock: ZUJKAS_clean_linker_0, # of connection points: 2
#     Edge 125, Type (0, 1), BuildingBlock: ZUJKAS_clean_linker_0, # of connection points: 2
#     Edge 126, Type (0, 1), BuildingBlock: ZUJKAS_clean_linker_0, # of connection points: 2
#     Edge 127, Type (0, 1), BuildingBlock: ZUJKAS_clean_linker_0, # of connection points: 2
#     Edge 128, Type (0, 1), BuildingBlock: ZUJKAS_clean_linker_0, # of connection points: 2
#     Edge 129, Type (0, 1), BuildingBlock: ZUJKAS_clean_linker_0, # of connection points: 2
#     Edge 130, Type (0, 1), BuildingBlock: ZUJKAS_clean_linker_0, # of connection points: 2
#     Edge 131, Type (0, 1), BuildingBlock: ZUJKAS_clean_linker_0, # of connection points: 2
#     Edge 132, Type (0, 1), BuildingBlock: ZUJKAS_clean_linker_0, # of connection points: 2
#     Edge 133, Type (0, 1), BuildingBlock: ZUJKAS_clean_linker_0, # of connection points: 2
#     Edge 134, Type (0, 1), BuildingBlock: ZUJKAS_clean_linker_0, # of connection points: 2
#     Edge 135, Type (0, 1), BuildingBlock: ZUJKAS_clean_linker_0, # of connection points: 2
# Relax obj value: 0.125
# Max RMSD: 0.303
# Mean RMSD: 0.174
data_MOF--net-gar--node1-NAHDIM_clean_sbu_0--node2-KUMBUR_clean_sbu_0--edge1-ZUJKAS_clean_linker_0
_symmetry_space_group_name_H-M    P1
_symmetry_Int_Tables_number       1
_symmetry_cell_setting            triclinic
loop_
_symmetry_equiv_pos_as_xyz
'x, y, z'
_cell_length_a     77.487542
_cell_length_b     71.454074
_cell_length_c     70.114183
_cell_angle_alpha  100.18418
_cell_angle_beta   93.262813
_cell_angle_gamma 102.26921
loop_
_atom_site_label
_atom_site_type_symbol
_atom_site_fract_x
_atom_site_fract_y
_atom_site_fract_z
_atom_type_partial_charge
C0 C 0.12785 0.32177 0.3758 0.0
O1 O 0.12621 0.32955 0.39383 0.0
O2 O 0.0872 0.28734 0.39328 0.0
Zn3 Zn 0.09055 0.30763 0.37624 0.0
O4 O 0.08921 0.33324 0.39238 0.0
C5 C 0.05533 0.30153 0.36129 0.0
O6 O 0.05407 0.30365 0.38013 0.0
O7 O 0.11426 0.311 0.3652 0.0
C8 C 0.0943 0.34895 0.38614 0.0
O9 O 0.10064 0.34828 0.36911 0.0
C10 C 0.09393 0.29216 0.41091 0.0
O11 O 0.10333 0.30999 0.41737 0.0
O12 O 0.07045 0.30159 0.35515 0.0
C13 C 0.98787 0.79894 0.6776 0.0
O14 O 0.98709 0.80032 0.65915 0.0
O15 O 0.01784 0.7636 0.65827 0.0
Zn16 Zn 0.02229 0.79202 0.67026 0.0
O17 O 0.02521 0.80857 0.64951 0.0
C18 C 0.05772 0.79171 0.68046 0.0
O19 O 0.05605 0.78473 0.66165 0.0
O20 O 1.00194 0.79609 0.68564 0.0
C21 C 0.02892 0.80188 0.63257 0.0
O22 O 0.03102 0.7839 0.62849 0.0
C23 C 1.00483 0.75356 0.64637 0.0
O24 O 0.99243 0.76191 0.64064 0.0
O25 O 0.04475 0.79731 0.68811 0.0
C26 C 0.62177 0.79451 0.88215 0.0
O27 O 0.62277 0.79995 0.90116 0.0
O28 O 0.57925 0.77791 0.90422 0.0
Zn29 Zn 0.58601 0.79647 0.88601 0.0
O30 O 0.59289 0.82357 0.90173 0.0
C31 C 0.54995 0.78684 0.8665 0.0
O32 O 0.54611 0.77527 0.87902 0.0
O33 O 0.60684 0.79131 0.87225 0.0
C34 C 0.59743 0.83795 0.89331 0.0
O35 O 0.59826 0.83465 0.87438 0.0
C36 C 0.57144 0.7834 0.91896 0.0
O37 O 0.56735 0.80054 0.92126 0.0
O38 O 0.56584 0.79623 0.86662 0.0
C39 C 0.48064 0.28023 0.17747 0.0
O40 O 0.4807 0.28458 0.16003 0.0
O41 O 0.51606 0.25155 0.15772 0.0
Zn42 Zn 0.51687 0.27887 0.17159 0.0
O43 O 0.51862 0.29734 0.1525 0.0
C44 C 0.55311 0.28446 0.18337 0.0
O45 O 0.55284 0.27976 0.16435 0.0
O46 O 0.4949 0.27798 0.1857 0.0
C47 C 0.52281 0.29232 0.13536 0.0
O48 O 0.52593 0.27488 0.13003 0.0
C49 C 0.50271 0.24031 0.14715 0.0
O50 O 0.48822 0.24664 0.14439 0.0
O51 O 0.53873 0.28612 0.19065 0.0
C52 C 0.05404 0.82617 0.14392 0.0
O53 O 0.05155 0.83165 0.12724 0.0
O54 O 0.08233 0.79188 0.11448 0.0
Zn55 Zn 0.08763 0.82062 0.12883 0.0
O56 O 0.08582 0.84081 0.11096 0.0
C57 C 0.12428 0.81742 0.13757 0.0
O58 O 0.12077 0.80617 0.12021 0.0
O59 O 0.06857 0.82142 0.14804 0.0
C60 C 0.09189 0.85907 0.11746 0.0
O61 O 0.10009 0.86458 0.13514 0.0
C62 C 0.08282 0.78428 0.0967 0.0
O63 O 0.08685 0.79573 0.0841 0.0
O64 O 0.11243 0.82605 0.1443 0.0
C65 C 0.56405 0.77739 0.40842 0.0
O66 O 0.56762 0.78449 0.42718 0.0
O67 O 0.5256 0.74578 0.43211 0.0
Zn68 Zn 0.52768 0.77023 0.41919 0.0
O69 O 0.53364 0.79681 0.43824 0.0
C70 C 0.48903 0.7625 0.40513 0.0
O71 O 0.48638 0.75404 0.42023 0.0
O72 O 0.54792 0.77035 0.40158 0.0
C73 C 0.52185 0.80469 0.44618 0.0
O74 O 0.50532 0.79465 0.44375 0.0
C75 C 0.53515 0.74537 0.44743 0.0
O76 O 0.54617 0.76157 0.4564 0.0
O77 O 0.50493 0.76952 0.40192 0.0
C78 C 0.54455 0.30193 0.64244 0.0
O79 O 0.54204 0.29155 0.62467 0.0
O80 O 0.57474 0.2883 0.61115 0.0
Zn81 Zn 0.57952 0.3151 0.6298 0.0
O82 O 0.57885 0.33915 0.61685 0.0
C83 C 0.60666 0.30527 0.65421 0.0
O84 O 0.59368 0.28992 0.65361 0.0
O85 O 0.5597 0.31332 0.64829 0.0
C86 C 0.58117 0.34124 0.59938 0.0
O87 O 0.58459 0.32668 0.58704 0.0
C88 C 0.5867 0.28039 0.60368 0.0
O89 O 0.60317 0.2906 0.60597 0.0
O90 O 0.60383 0.31866 0.64539 0.0
C91 C 0.05804 0.26956 0.90969 0.0
O92 O 0.0589 0.26176 0.92524 0.0
O93 O 0.02286 0.24797 0.93467 0.0
Zn94 Zn 0.02294 0.2722 0.92186 0.0
O95 O 0.02544 0.29848 0.94087 0.0
C96 C 0.98748 0.27674 0.90934 0.0
O97 O 0.98949 0.2872 0.92705 0.0
O98 O 0.04399 0.27508 0.90521 0.0
C99 C 0.04007 0.31084 0.94672 0.0
O100 O 0.05498 0.306 0.94225 0.0
C101 C 0.02518 0.24737 0.95272 0.0
O102 O 0.02721 0.26361 0.96565 0.0
O103 O 0.99975 0.26821 0.90378 0.0
C104 C 0.41218 0.10047 0.30722 0.0
O105 O 0.42738 0.10233 0.31745 0.0
O106 O 0.43262 0.06248 0.27454 0.0
Zn107 Zn 0.41617 0.06132 0.29555 0.0
O108 O 0.43113 0.06381 0.32044 0.0
C109 C 0.40542 0.02043 0.28716 0.0
O110 O 0.42275 0.02308 0.29004 0.0
O111 O 0.40444 0.08389 0.29712 0.0
C112 C 0.4266 0.05501 0.3342 0.0
O113 O 0.41081 0.04332 0.33268 0.0
C114 C 0.44782 0.0741 0.27777 0.0
O115 O 0.45244 0.0857 0.29486 0.0
O116 O 0.39867 0.0353 0.289 0.0
C117 C 0.33586 0.166 0.50445 0.0
O118 O 0.34078 0.18092 0.49586 0.0
O119 O 0.30697 0.19904 0.53704 0.0
Zn120 Zn 0.30401 0.18132 0.51043 0.0
O121 O 0.30838 0.19561 0.48789 0.0
C122 C 0.26569 0.17195 0.50368 0.0
O123 O 0.26825 0.19076 0.5039 0.0
O124 O 0.32092 0.16341 0.5114 0.0
C125 C 0.30528 0.1849 0.47095 0.0
O126 O 0.29966 0.16595 0.46938 0.0
C127 C 0.30337 0.21575 0.54133 0.0
O128 O 0.29761 0.22365 0.52738 0.0
O129 O 0.27905 0.16461 0.50605 0.0
C130 C 0.19605 0.98024 0.78308 0.0
O131 O 0.19024 0.9849 0.80013 0.0
O132 O 0.16358 0.01273 0.74422 0.0
Zn133 Zn 0.17823 0.01383 0.77231 0.0
O134 O 0.1618 0.01341 0.79684 0.0
C135 C 0.19106 0.05704 0.77547 0.0
O136 O 0.17386 0.05541 0.77272 0.0
O137 O 0.19276 0.98989 0.76984 0.0
C138 C 0.16512 0.02612 0.81293 0.0
O139 O 0.17924 0.04043 0.81462 0.0
C140 C 0.14924 0.0185 0.74069 0.0
O141 O 0.14105 0.02471 0.75561 0.0
O142 O 0.19659 0.0415 0.77654 0.0
C143 C 0.2846 0.97488 0.04945 0.0
O144 O 0.28844 0.96831 0.06515 0.0
O145 O 0.30518 0.93717 0.05641 0.0
Zn146 Zn 0.30519 0.94845 0.03221 0.0
O147 O 0.29712 0.92676 0.00896 0.0
C148 C 0.34052 0.94869 0.02624 0.0
O149 O 0.33381 0.93005 0.0256 0.0
O150 O 0.29028 0.96838 0.03353 0.0
C151 C 0.30052 0.93058 0.99239 0.0
O152 O 0.30728 0.94875 0.99106 0.0
C153 C 0.29488 0.9212 0.05787 0.0
O154 O 0.28317 0.91175 0.04319 0.0
O155 O 0.3305 0.96064 0.02937 0.0
C156 C 0.27675 0.42593 0.04814 0.0
O157 O 0.2734 0.41263 0.05902 0.0
O158 O 0.30606 0.39993 0.06639 0.0
Zn159 Zn 0.30859 0.41102 0.04172 0.0
O160 O 0.30531 0.39131 0.01625 0.0
C161 C 0.34627 0.42257 0.05133 0.0
O162 O 0.34348 0.40561 0.0568 0.0
O163 O 0.29091 0.42786 0.03963 0.0
C164 C 0.31383 0.37805 0.01163 0.0
O165 O 0.32524 0.37507 0.02471 0.0
C166 C 0.30063 0.38234 0.06828 0.0
O167 O 0.29553 0.36857 0.05267 0.0
O168 O 0.33319 0.42819 0.04433 0.0
C169 C 0.82539 0.12324 0.00942 0.0
O170 O 0.82903 0.14041 1.00436 0.0
O171 O 0.80571 0.15627 0.05054 0.0
Zn172 Zn 0.7962 0.13749 0.0254 0.0
O173 O 0.7938 0.15305 1.00453 0.0
C174 C 0.76318 0.12873 0.04246 0.0
O175 O 0.77128 0.1437 0.05598 0.0
O176 O 0.8119 0.11877 0.01856 0.0
C177 C 0.78358 0.16482 0.00746 0.0
O178 O 0.77543 0.16588 0.02341 0.0
C179 C 0.81403 0.17383 0.05152 0.0
O180 O 0.81877 0.17976 0.0355 0.0
O181 O 0.77148 0.12285 0.02829 0.0
C182 C 0.20543 0.49581 0.25836 0.0
O183 O 0.18827 0.49227 0.25982 0.0
O184 O 0.18454 0.52336 0.22336 0.0
Zn185 Zn 0.19811 0.53086 0.2499 0.0
O186 O 0.18063 0.53146 0.2699 0.0
C187 C 0.22162 0.56574 0.24125 0.0
O188 O 0.22238 0.55492 0.22423 0.0
O189 O 0.21302 0.51184 0.25394 0.0
C190 C 0.16995 0.54258 0.26889 0.0
O191 O 0.17083 0.55278 0.25497 0.0
C192 C 0.1694 0.51162 0.22072 0.0
O193 O 0.1632 0.50377 0.23524 0.0
O194 O 0.21276 0.55821 0.25378 0.0
C195 C 0.78002 0.92071 0.529 0.0
O196 O 0.775 0.90158 0.52444 0.0
O197 O 0.80927 0.90055 0.56285 0.0
Zn198 Zn 0.81383 0.91221 0.53898 0.0
O199 O 0.81233 0.89149 0.51471 0.0
C200 C 0.8518 0.92245 0.54592 0.0
O201 O 0.84938 0.90355 0.54512 0.0
O202 O 0.79608 0.92854 0.53541 0.0
C203 C 0.821 0.89619 0.50074 0.0
O204 O 0.83036 0.91416 0.5026 0.0
C205 C 0.81005 0.8832 0.56402 0.0
O206 O 0.81346 0.87157 0.54869 0.0
O207 O 0.83836 0.9297 0.54372 0.0
C208 C 0.91359 0.10835 0.26549 0.0
O209 O 0.91653 0.10127 0.24768 0.0
O210 O 0.9476 0.07311 0.2514 0.0
Zn211 Zn 0.93287 0.07592 0.27711 0.0
O212 O 0.94823 0.07729 0.30486 0.0
C213 C 0.91958 0.03353 0.27739 0.0
O214 O 0.93655 0.03588 0.28276 0.0
O215 O 0.91896 0.10045 0.27931 0.0
C216 C 0.96346 0.0733 0.30824 0.0
O217 O 0.97231 0.06892 0.29328 0.0
C218 C 0.95644 0.08625 0.24303 0.0
O219 O 0.95783 0.10464 0.25103 0.0
O220 O 0.91419 0.04847 0.27375 0.0
C221 C 0.32335 0.63552 0.50724 0.0
O222 O 0.32579 0.65356 0.50444 0.0
O223 O 0.29993 0.66321 0.54695 0.0
Zn224 Zn 0.29208 0.64507 0.52108 0.0
O225 O 0.28988 0.66089 0.50052 0.0
C226 C 0.2567 0.64017 0.52732 0.0
O227 O 0.26239 0.65924 0.53036 0.0
O228 O 0.30938 0.62822 0.51445 0.0
C229 C 0.27952 0.65421 0.48499 0.0
O230 O 0.27054 0.63597 0.48165 0.0
C231 C 0.3047 0.68162 0.54852 0.0
O232 O 0.30586 0.68911 0.5327 0.0
O233 O 0.26764 0.62951 0.52291 0.0
C234 C 0.4216 0.61725 0.78824 0.0
O235 O 0.43781 0.62411 0.79678 0.0
O236 O 0.44668 0.57171 0.75645 0.0
Zn237 Zn 0.43206 0.57558 0.78221 0.0
O238 O 0.44735 0.57826 0.81033 0.0
C239 C 0.41889 0.53219 0.77621 0.0
O240 O 0.43549 0.53315 0.77268 0.0
O241 O 0.41677 0.59864 0.78159 0.0
C242 C 0.46062 0.57063 0.81377 0.0
O243 O 0.46703 0.56159 0.79878 0.0
C244 C 0.45537 0.58447 0.74754 0.0
O245 O 0.4567 0.603 0.75494 0.0
O246 O 0.41378 0.54827 0.78018 0.0
C247 C 0.71502 0.99781 0.77071 0.0
O248 O 0.70162 0.99899 0.78116 0.0
O249 O 0.68765 0.01669 0.72564 0.0
Zn250 Zn 0.70162 0.02526 0.75189 0.0
O251 O 0.68461 0.02765 0.77228 0.0
C252 C 0.71998 0.06078 0.74001 0.0
O253 O 0.71203 0.05247 0.7226 0.0
O254 O 0.71711 1.00712 0.75685 0.0
C255 C 0.67577 0.04078 0.77279 0.0
O256 O 0.67808 0.05231 0.76003 0.0
C257 C 0.67208 1.00594 0.72378 0.0
O258 O 0.66578 0.99936 0.73893 0.0
O259 O 0.71746 0.05178 0.75404 0.0
C260 C 0.83176 0.67149 0.01627 0.0
O261 O 0.83721 0.69047 0.02215 0.0
O262 O 0.80268 0.70032 0.03691 0.0
Zn263 Zn 0.79861 0.68233 0.01045 0.0
O264 O 0.80297 0.69693 0.98839 0.0
C265 C 0.76134 0.67122 0.01606 0.0
O266 O 0.76534 0.6875 0.0291 0.0
O267 O 0.81549 0.66437 0.01028 0.0
C268 C 0.79121 0.70463 0.98157 0.0
O269 O 0.77622 0.70374 0.9896 0.0
C270 C 0.80174 0.71814 0.04064 0.0
O271 O 0.79818 0.72675 0.0263 0.0
O272 O 0.77341 0.66601 1.00626 0.0
C273 C 0.89076 0.59488 0.80797 0.0
O274 O 0.90304 0.60113 0.82277 0.0
O275 O 0.91843 0.55788 0.77734 0.0
Zn276 Zn 0.90459 0.55943 0.80061 0.0
O277 O 0.92171 0.56799 0.82489 0.0
C278 C 0.878 0.52492 0.78607 0.0
O279 O 0.8759 0.53457 0.77212 0.0
O280 O 0.88912 0.57796 0.79773 0.0
C281 C 0.93677 0.56363 0.82398 0.0
O282 O 0.94033 0.55372 0.80763 0.0
C283 C 0.92936 0.57295 0.77471 0.0
O284 O 0.93092 0.58954 0.78699 0.0
O285 O 0.88958 0.53288 0.80037 0.0
C286 C 0.76864 0.46251 0.51558 0.0
O287 O 0.76932 0.45337 0.49776 0.0
O288 O 0.80418 0.43365 0.54434 0.0
Zn289 Zn 0.80017 0.4486 0.52352 0.0
O290 O 0.79459 0.42863 0.49873 0.0
C291 C 0.83404 0.47506 0.53677 0.0
O292 O 0.82912 0.47325 0.55411 0.0
O293 O 0.78052 0.46256 0.52886 0.0
C294 C 0.80085 0.43248 0.48316 0.0
O295 O 0.80939 0.45038 0.48288 0.0
C296 C 0.81573 0.42352 0.54109 0.0
O297 O 0.82398 0.42415 0.52527 0.0
O298 O 0.82328 0.46688 0.52183 0.0
C299 C 0.69769 0.48222 0.28594 0.0
O300 O 0.69053 0.48489 0.30246 0.0
O301 O 0.66269 0.51436 0.25091 0.0
Zn302 Zn 0.67985 0.51665 0.27763 0.0
O303 O 0.66623 0.51623 0.3043 0.0
C304 C 0.70388 0.5533 0.26823 0.0
O305 O 0.70155 0.54284 0.25049 0.0
O306 O 0.69525 0.49336 0.2738 0.0
C307 C 0.6514 0.52079 0.30823 0.0
O308 O 0.6422 0.52573 0.29438 0.0
C309 C 0.65697 0.5287 0.24598 0.0
O310 O 0.66072 0.54538 0.25848 0.0
O311 O 0.69682 0.54527 0.28179 0.0
Tb312 Tb 0.03593 0.02813 0.01303 0.0
C313 C 0.07653 0.10643 0.06258 0.0
C314 C 0.07919 0.12987 0.04135 0.0
C315 C 0.07841 0.14066 0.07609 0.0
C316 C 0.07719 0.11048 0.04417 0.0
C317 C 0.07762 0.12151 0.07888 0.0
C318 C 0.07922 0.14484 0.05733 0.0
C319 C 0.07936 0.09812 0.09948 0.0
N320 N 0.07624 0.08788 0.06463 0.0
C321 C 0.07845 0.08373 0.08285 0.0
C322 C 0.07866 0.11705 0.09748 0.0
Tb323 Tb 0.07412 0.06495 0.03656 0.0
N324 N 0.07737 0.09562 0.02924 0.0
C325 C 0.08113 0.09961 0.01132 0.0
C326 C 0.08184 0.13374 0.02275 0.0
C327 C 0.08313 0.11858 0.00776 0.0
H328 H 0.07889 0.06914 0.08463 0.0
H329 H 0.08557 0.12146 0.99338 0.0
H330 H 0.08048 0.15977 0.05542 0.0
H331 H 0.08058 0.09459 0.11381 0.0
H332 H 0.08209 0.0882 0.99943 0.0
H333 H 0.02461 0.97101 0.05551 0.0
H334 H 0.0834 0.14841 0.01995 0.0
H335 H 0.03027 0.02439 0.96503 0.0
H336 H 0.02811 1.00441 0.04985 0.0
H337 H 0.02778 0.99913 0.93558 0.0
H338 H 0.07906 0.15242 0.08839 0.0
H339 H 0.02645 0.94425 0.02859 0.0
H340 H 0.02871 0.93316 0.99292 0.0
H341 H 0.0795 0.1282 0.11038 0.0
H342 H 0.02949 0.94083 0.96005 0.0
N343 N 0.03258 0.99727 0.01994 0.0
C344 C 0.02895 0.99308 0.03782 0.0
C345 C 0.02803 0.95899 0.02597 0.0
C346 C 0.03042 0.96303 0.00739 0.0
C347 C 0.02692 0.97403 0.04116 0.0
C348 C 0.03245 0.98251 1.00481 0.0
H349 H 0.0287 0.96534 0.93846 0.0
N350 N 0.03316 1.00538 0.98471 0.0
C351 C 0.02927 0.99544 0.94981 0.0
C352 C 0.03275 0.98673 0.98646 0.0
C353 C 0.03065 0.00974 0.96662 0.0
C354 C 0.02987 0.97641 0.95149 0.0
C355 C 0.03125 0.97175 0.96998 0.0
O356 O 0.01283 0.03218 0.99859 0.0
O357 O 0.04827 0.05902 0.02103 0.0
O358 O 0.05184 0.06829 0.05452 0.0
O359 O 0.03358 0.03716 0.04497 0.0
O360 O 0.03428 0.04936 0.99429 0.0
O361 O 0.01185 0.02137 0.0254 0.0
O362 O 0.0975 0.0627 0.05188 0.0
O363 O 0.06178 0.03408 0.02872 0.0
O364 O 0.05796 0.02473 0.99464 0.0
O365 O 0.0767 0.05559 1.00473 0.0
O366 O 0.07609 0.04377 0.05529 0.0
O367 O 0.09804 0.0709 0.02374 0.0
C368 C 0.04329 0.06465 1.00592 0.0
C369 C 0.98596 0.01179 1.00326 0.0
C370 C 0.95455 1.00702 0.99272 0.0
C371 C 0.97113 0.01941 0.99988 0.0
C372 C 0.95299 0.98672 0.98898 0.0
C373 C 0.98434 0.99152 0.99926 0.0
C374 C 0.96788 0.97905 0.99213 0.0
C375 C 0.03867 0.05412 0.0576 0.0
C376 C 1.00275 0.02554 0.0112 0.0
C377 C 0.03044 0.95252 0.9725 0.0
C378 C 0.03002 0.94816 0.99121 0.0
C379 C 0.06696 0.02848 0.04377 0.0
C380 C 0.12388 0.08297 0.04556 0.0
C381 C 0.13993 0.07714 0.04408 0.0
C382 C 0.15615 0.09045 0.05083 0.0
C383 C 0.15609 0.10982 0.05917 0.0
C384 C 0.12395 0.10237 0.05374 0.0
C385 C 0.14003 0.11573 0.06051 0.0
C386 C 0.07143 0.03878 0.99189 0.0
C387 C 0.10739 0.0683 0.03864 0.0
H388 H 0.97243 0.03509 1.00324 0.0
H389 H 0.94035 0.97684 0.98349 0.0
H390 H 0.99568 0.98536 1.00175 0.0
H391 H 0.96663 0.96341 0.98912 0.0
H392 H 0.13975 0.06203 0.03802 0.0
H393 H 0.16841 0.12035 0.06453 0.0
H394 H 0.1117 0.10715 0.05499 0.0
H395 H 0.14004 0.13068 0.06687 0.0
Tb396 Tb 0.31525 0.78075 0.2503 0.0
C397 C 0.28854 0.84808 0.29615 0.0
C398 C 0.31312 0.87637 0.30143 0.0
C399 C 0.28288 0.88074 0.30056 0.0
C400 C 0.30661 0.85592 0.29758 0.0
C401 C 0.2765 0.86046 0.29814 0.0
C402 C 0.30117 0.88868 0.30231 0.0
C403 C 0.25302 0.83222 0.29804 0.0
N404 N 0.28286 0.82842 0.29433 0.0
C405 C 0.26543 0.82055 0.29634 0.0
C406 C 0.25851 0.85221 0.29859 0.0
Tb407 Tb 0.3047 0.81102 0.29247 0.0
N408 N 0.31783 0.84361 0.29687 0.0
C409 C 0.33572 0.85098 0.30125 0.0
C410 C 0.33143 0.88386 0.30522 0.0
C411 C 0.34274 0.87112 0.3053 0.0
H412 H 0.26084 0.80523 0.29632 0.0
H413 H 0.35692 0.87679 0.30852 0.0
H414 H 0.30594 0.9044 0.30498 0.0
H415 H 0.23922 0.82579 0.29907 0.0
H416 H 0.34482 0.84156 0.30159 0.0
H417 H 0.2461 0.74203 0.2232 0.0
H418 H 0.33694 0.89946 0.30866 0.0
H419 H 0.34935 0.76136 0.26061 0.0
H420 H 0.26828 0.76849 0.24186 0.0
H421 H 0.35703 0.72962 0.25482 0.0
H422 H 0.27382 0.89044 0.30191 0.0
H423 H 0.25346 0.71061 0.21047 0.0
H424 H 0.27534 0.68971 0.2098 0.0
H425 H 0.24887 0.86123 0.30012 0.0
H426 H 0.30507 0.68588 0.21974 0.0
N427 N 0.29053 0.75515 0.23674 0.0
C428 C 0.27297 0.75625 0.23478 0.0
C429 C 0.26386 0.72287 0.21779 0.0
C430 C 0.28108 0.72076 0.22173 0.0
C431 C 0.25971 0.74058 0.2248 0.0
C432 C 0.29421 0.73725 0.23137 0.0
H433 H 0.33526 0.70045 0.23703 0.0
N434 N 0.32257 0.75073 0.24754 0.0
C435 C 0.34389 0.73082 0.2499 0.0
C436 C 0.31074 0.73494 0.2372 0.0
C437 C 0.33925 0.74887 0.25339 0.0
C438 C 0.33163 0.71445 0.23978 0.0
C439 C 0.31486 0.71635 0.2332 0.0
O440 O 0.34264 0.78903 0.24837 0.0
O441 O 0.32116 0.80973 0.26871 0.0
O442 O 0.28637 0.81294 0.26775 0.0
O443 O 0.2925 0.792 0.24001 0.0
O444 O 0.31734 0.80745 0.23874 0.0
O445 O 0.32464 0.77485 0.22275 0.0
O446 O 0.30206 0.7955 0.31554 0.0
O447 O 0.30385 0.78198 0.27705 0.0
O448 O 0.32849 0.77726 0.27797 0.0
O449 O 0.33246 0.80825 0.2957 0.0
O450 O 0.28164 0.78616 0.28992 0.0
O451 O 0.31101 0.82644 0.32145 0.0
C452 C 0.32154 0.81944 0.25518 0.0
C453 C 0.35151 0.79679 0.21883 0.0
C454 C 0.35402 0.82099 0.19799 0.0
C455 C 0.34352 0.80721 0.20708 0.0
C456 C 0.37261 0.82389 0.20048 0.0
C457 C 0.37006 0.79989 0.22112 0.0
C458 C 0.38054 0.81333 0.21194 0.0
C459 C 0.28318 0.80422 0.24899 0.0
C460 C 0.34104 0.7832 0.22958 0.0
C461 C 0.30212 0.7002 0.22296 0.0
C462 C 0.28525 0.70241 0.21721 0.0
C463 C 0.28855 0.77341 0.27966 0.0
C464 C 0.29283 0.81225 0.34349 0.0
C465 C 0.29 0.79791 0.35494 0.0
C466 C 0.27746 0.79784 0.36864 0.0
C467 C 0.26764 0.81239 0.37071 0.0
C468 C 0.28302 0.8268 0.34581 0.0
C469 C 0.27047 0.8268 0.35937 0.0
C470 C 0.33744 0.79151 0.292 0.0
C471 C 0.30563 0.81113 0.32885 0.0
H472 H 0.32921 0.80492 0.20531 0.0
H473 H 0.38104 0.83416 0.1934 0.0
H474 H 0.37644 0.79199 0.23016 0.0
H475 H 0.39484 0.81564 0.21376 0.0
H476 H 0.29738 0.78652 0.35286 0.0
H477 H 0.25795 0.81275 0.38123 0.0
H478 H 0.28493 0.83806 0.33714 0.0
H479 H 0.26291 0.838 0.36107 0.0
Tb480 Tb 0.5767 0.0505 0.522 0.0
C481 C 0.51924 0.9989 0.55942 0.0
C482 C 0.50558 0.97061 0.53478 0.0
C483 C 0.50659 0.96816 0.56894 0.0
C484 C 0.51475 0.99033 0.54012 0.0
C485 C 0.51502 0.98805 0.57414 0.0
C486 C 0.50184 0.95946 0.54927 0.0
C487 C 0.52654 0.01764 0.59792 0.0
N488 N 0.52711 0.01817 0.56377 0.0
C489 C 0.53028 0.02781 0.58278 0.0
C490 C 0.51901 0.99763 0.59359 0.0
Tb491 Tb 0.53331 0.0335 0.538 0.0
N492 N 0.51858 1.00165 0.52662 0.0
C493 C 0.51248 0.99435 0.50749 0.0
C494 C 0.49997 0.9629 0.51512 0.0
C495 C 0.50321 0.97494 0.50146 0.0
H496 H 0.53622 0.04324 0.58635 0.0
H497 H 0.4986 0.9693 0.48625 0.0
H498 H 0.49496 0.94423 0.54546 0.0
H499 H 0.52946 0.02526 0.61292 0.0
H500 H 0.51494 1.00325 0.49662 0.0
H501 H 0.60802 0.11512 0.57533 0.0
H502 H 0.49281 0.94785 0.51041 0.0
H503 H 0.57653 0.04142 0.47394 0.0
H504 H 0.59379 0.08043 0.56402 0.0
H505 H 0.58364 0.06005 0.44786 0.0
H506 H 0.50334 0.95951 0.58002 0.0
H507 H 0.61326 0.1372 0.55174 0.0
H508 H 0.61197 0.1413 0.51679 0.0
H509 H 0.51604 0.98981 0.60534 0.0
H510 H 0.60533 0.12628 0.48198 0.0
N511 N 0.59042 0.08258 0.53413 0.0
C512 C 0.596 0.08972 0.55343 0.0
C513 C 0.60699 0.12191 0.54663 0.0
C514 C 0.60222 0.11431 0.5268 0.0
C515 C 0.6041 0.10948 0.55998 0.0
C516 C 0.59399 0.09433 0.52097 0.0
H517 H 0.59502 0.09588 0.45609 0.0
N518 N 0.58336 0.0665 0.49678 0.0
C519 C 0.58552 0.06755 0.46291 0.0
C520 C 0.5903 0.08597 0.50154 0.0
C521 C 0.58155 0.05703 0.47776 0.0
C522 C 0.59188 0.08778 0.46761 0.0
C523 C 0.59464 0.09721 0.48716 0.0
O524 O 0.59427 0.0349 0.50834 0.0
O525 O 0.55571 0.02595 0.52426 0.0
O526 O 0.55274 0.02322 0.55467 0.0
O527 O 0.57788 0.04709 0.55275 0.0
O528 O 0.56917 0.02304 0.50029 0.0
O529 O 0.60069 0.05091 0.53785 0.0
O530 O 0.51539 0.04845 0.55189 0.0
O531 O 0.55419 0.05804 0.53547 0.0
O532 O 0.55715 0.05927 0.5038 0.0
O533 O 0.53207 0.03583 0.5071 0.0
O534 O 0.5412 0.06094 0.55969 0.0
O535 O 0.51015 0.03457 0.52157 0.0
C536 C 0.55682 0.01405 0.50902 0.0
C537 C 0.62456 0.04734 0.51915 0.0
C538 C 0.65433 0.04145 0.51637 0.0
C539 C 0.63661 0.03536 0.52034 0.0
C540 C 0.65976 0.05981 0.51119 0.0
C541 C 0.63024 0.06558 0.51399 0.0
C542 C 0.64777 0.07176 0.51004 0.0
C543 C 0.56914 0.03304 0.56101 0.0
C544 C 0.60617 0.04045 0.52329 0.0
C545 C 0.60205 0.11732 0.4928 0.0
C546 C 0.60583 0.12587 0.51261 0.0
C547 C 0.5533 0.06998 0.55072 0.0
C548 C 0.48539 0.03751 0.53882 0.0
C549 C 0.47352 0.04899 0.53482 0.0
C550 C 0.45525 0.04279 0.53647 0.0
C551 C 0.44911 0.02486 0.54228 0.0
C552 C 0.47903 0.01976 0.54467 0.0
C553 C 0.46095 0.01348 0.54638 0.0
C554 C 0.54071 0.04917 0.49797 0.0
C555 C 0.50423 0.04427 0.53631 0.0
H556 H 0.6322 0.02138 0.5246 0.0
H557 H 0.67321 0.06485 0.50778 0.0
H558 H 0.62119 0.07501 0.51301 0.0
H559 H 0.65206 0.08583 0.50599 0.0
H560 H 0.47862 0.06285 0.53059 0.0
H561 H 0.43512 0.01946 0.54343 0.0
H562 H 0.48797 0.01076 0.54785 0.0
H563 H 0.45608 0.9997 0.55081 0.0
Tb564 Tb 0.28403 0.29929 0.77375 0.0
C565 C 0.3462 0.29878 0.82147 0.0
C566 C 0.37255 0.32436 0.82291 0.0
C567 C 0.36571 0.31057 0.85158 0.0
C568 C 0.35685 0.31205 0.8127 0.0
C569 C 0.35067 0.29757 0.84093 0.0
C570 C 0.37661 0.324 0.84259 0.0
C571 C 0.32627 0.26948 0.83716 0.0
N572 N 0.3321 0.28619 0.81048 0.0
C573 C 0.32241 0.27127 0.81791 0.0
C574 C 0.34031 0.28286 0.84882 0.0
Tb575 Tb 0.32734 0.28969 0.77879 0.0
N576 N 0.35272 0.3115 0.79357 0.0
C577 C 0.36499 0.32101 0.78316 0.0
C578 C 0.38419 0.33577 0.81271 0.0
C579 C 0.38057 0.33376 0.79263 0.0
H580 H 0.31148 0.26081 0.80927 0.0
H581 H 0.38987 0.34179 0.78439 0.0
H582 H 0.38853 0.33346 0.85074 0.0
H583 H 0.31834 0.25782 0.84301 0.0
H584 H 0.36248 0.31906 0.76754 0.0
H585 H 0.25708 0.24544 0.70897 0.0
H586 H 0.3964 0.34541 0.81999 0.0
H587 H 0.27813 0.34408 0.78627 0.0
H588 H 0.27051 0.25715 0.74273 0.0
H589 H 0.27039 0.36967 0.77006 0.0
H590 H 0.36939 0.30988 0.86653 0.0
H591 H 0.25091 0.26899 0.68903 0.0
H592 H 0.25211 0.30387 0.6863 0.0
H593 H 0.34328 0.28142 0.86371 0.0
H594 H 0.25647 0.33817 0.70288 0.0
N595 N 0.27265 0.28723 0.74196 0.0
C596 C 0.26816 0.26768 0.73423 0.0
C597 C 0.25728 0.27427 0.7037 0.0
C598 C 0.26153 0.2942 0.71178 0.0
C599 C 0.26053 0.26093 0.71501 0.0
C600 C 0.26908 0.30022 0.73125 0.0
H601 H 0.26303 0.36289 0.73433 0.0
N602 N 0.2767 0.32369 0.75981 0.0
C603 C 0.27083 0.35563 0.76151 0.0
C604 C 0.27148 0.31932 0.74049 0.0
C605 C 0.27523 0.34114 0.77062 0.0
C606 C 0.26676 0.35178 0.74133 0.0
C607 C 0.26645 0.3332 0.73064 0.0
O608 O 0.26678 0.3083 0.79406 0.0
O609 O 0.30477 0.29522 0.79375 0.0
O610 O 0.30827 0.26095 0.77469 0.0
O611 O 0.28066 0.26867 0.77734 0.0
O612 O 0.29357 0.31895 0.80136 0.0
O613 O 0.25853 0.28154 0.77357 0.0
O614 O 0.33803 0.265 0.77914 0.0
O615 O 0.30401 0.28705 0.75891 0.0
O616 O 0.30352 0.32612 0.77013 0.0
O617 O 0.33103 0.32189 0.78233 0.0
O618 O 0.32842 0.29913 0.75099 0.0
O619 O 0.34493 0.28281 0.75802 0.0
C620 C 0.30508 0.31002 0.80694 0.0
C621 C 0.23607 0.29766 0.78368 0.0
C622 C 0.20589 0.29722 0.79281 0.0
C623 C 0.22308 0.29417 0.79675 0.0
C624 C 0.20215 0.30426 0.77588 0.0
C625 C 0.2318 0.30439 0.7668 0.0
C626 C 0.21501 0.30782 0.76304 0.0
C627 C 0.2909 0.25588 0.77598 0.0
C628 C 0.25373 0.29349 0.78731 0.0
C629 C 0.2602 0.32769 0.7108 0.0
C630 C 0.25767 0.30815 0.70138 0.0
C631 C 0.31176 0.29389 0.74533 0.0
C632 C 0.368 0.27056 0.77131 0.0
C633 C 0.38037 0.27327 0.75739 0.0
C634 C 0.39858 0.2746 0.76235 0.0
C635 C 0.40425 0.27349 0.78144 0.0
C636 C 0.37417 0.26963 0.7903 0.0
C637 C 0.39215 0.27113 0.79528 0.0
C638 C 0.32077 0.33286 0.77615 0.0
C639 C 0.34881 0.2691 0.76613 0.0
H640 H 0.2262 0.28862 0.80964 0.0
H641 H 0.18923 0.3071 0.77257 0.0
H642 H 0.24133 0.30677 0.75639 0.0
H643 H 0.21191 0.31311 0.75 0.0
H644 H 0.37581 0.27408 0.74271 0.0
H645 H 0.41816 0.27468 0.78574 0.0
H646 H 0.36514 0.2678 0.80141 0.0
H647 H 0.39674 0.27045 0.80996 0.0
Tb648 Tb 0.05496 0.06939 0.5383 0.0
C649 C 0.0763 0.01739 0.46903 0.0
C650 C 0.05161 0.01045 0.44425 0.0
C651 C 0.08137 0.0109 0.43483 0.0
C652 C 0.0585 0.01538 0.464 0.0
C653 C 0.08795 0.01479 0.45456 0.0
C654 C 0.0632 1.00873 0.42968 0.0
C655 C 0.11129 0.01831 0.48014 0.0
N656 N 0.08202 0.02089 0.48822 0.0
C657 C 0.09918 0.0207 0.49393 0.0
C658 C 0.1057 0.01559 0.46036 0.0
Tb659 Tb 0.06137 0.02523 0.50985 0.0
N660 N 0.04778 0.01688 0.47854 0.0
C661 C 0.02974 0.01201 0.47421 0.0
C662 C 0.03323 1.0067 0.43979 0.0
C663 C 0.02224 1.00716 0.45486 0.0
H664 H 0.10376 0.02294 0.50916 0.0
H665 H 0.00797 1.00386 0.45161 0.0
H666 H 0.05819 1.00516 0.41443 0.0
H667 H 0.12492 0.01863 0.48478 0.0
H668 H 0.02095 0.01238 0.48556 0.0
H669 H 0.10718 0.09123 0.59777 0.0
H670 H 0.02739 1.00292 0.42481 0.0
H671 H 0.01211 0.07079 0.53762 0.0
H672 H 0.09484 0.08124 0.56359 0.0
H673 H 0.99057 0.07583 0.56123 0.0
H674 H 0.09012 1.00902 0.42347 0.0
H675 H 0.08723 0.09461 0.62386 0.0
H676 H 0.05629 0.09281 0.63337 0.0
H677 H 0.11509 0.01367 0.4497 0.0
H678 H 0.02448 0.08852 0.62343 0.0
N679 N 0.06786 0.0781 0.56987 0.0
C680 C 0.08583 0.08245 0.57465 0.0
C681 C 0.08168 0.08989 0.60881 0.0
C682 C 0.06339 0.08616 0.60387 0.0
C683 C 0.09297 0.08815 0.59412 0.0
C684 C 0.05686 0.08044 0.58402 0.0
H685 H 0.9999 0.08245 0.59655 0.0
N686 N 0.03371 0.07395 0.55916 0.0
C687 C 1.00419 0.0765 0.5663 0.0
C688 C 0.03911 0.07824 0.57848 0.0
C689 C 0.01655 0.07368 0.55292 0.0
C690 C 0.00948 0.08017 0.58621 0.0
C691 C 0.02719 0.08138 0.59254 0.0
O692 O 0.04634 0.09243 0.52875 0.0
O693 O 0.05309 0.05217 0.50883 0.0
O694 O 0.0804 0.04913 0.50179 0.0
O695 O 0.08235 0.07187 0.53036 0.0
O696 O 0.03338 0.0661 0.51526 0.0
O697 O 0.07296 0.09668 0.54217 0.0
O698 O 0.07065 1.0017 0.5176 0.0
O699 O 0.06336 0.04245 0.53924 0.0
O700 O 0.03627 0.04566 0.54689 0.0
O701 O 0.03414 0.02268 0.51844 0.0
O702 O 0.08288 0.02823 0.53297 0.0
O703 O 0.04323 0.99826 0.50716 0.0
C704 C 0.03886 0.05537 0.50133 0.0
C705 C 0.0604 0.12431 0.54456 0.0
C706 C 0.0626 0.15843 0.54266 0.0
C707 C 0.0645 0.13967 0.53448 0.0
C708 C 0.05663 0.16171 0.56125 0.0
C709 C 0.05465 0.12775 0.56319 0.0
C710 C 0.05283 0.14643 0.57151 0.0
C711 C 0.08874 0.06524 0.51401 0.0
C712 C 0.0614 0.10479 0.53464 0.0
C713 C 0.03344 0.08618 0.61239 0.0
C714 C 0.05154 0.08861 0.61805 0.0
C715 C 0.07744 0.03904 0.54689 0.0
C716 C 0.0552 0.97025 0.50166 0.0
C717 C 0.05413 0.9548 0.51165 0.0
C718 C 0.05369 0.93582 0.50165 0.0
C719 C 0.05432 0.9325 0.48135 0.0
C720 C 0.05593 0.9668 0.48144 0.0
C721 C 0.05549 0.94796 0.47135 0.0
C722 C 0.02791 0.02943 0.53487 0.0
C723 C 0.05526 0.98966 0.51284 0.0
H724 H 0.06868 0.13686 0.51994 0.0
H725 H 0.05503 0.17606 0.56785 0.0
H726 H 0.05141 0.11604 0.57117 0.0
H727 H 0.0483 0.14905 0.58586 0.0
H728 H 0.05329 0.95754 0.52725 0.0
H729 H 0.05408 0.91804 0.47327 0.0
H730 H 0.05673 0.97854 0.47348 0.0
H731 H 0.05604 0.94533 0.45574 0.0
Tb732 Tb 0.32396 0.81192 0.77392 0.0
C733 C 0.28003 0.7523 0.81559 0.0
C734 C 0.28764 0.72161 0.80327 0.0
C735 C 0.27744 0.72735 0.83546 0.0
C736 C 0.28628 0.74053 0.80117 0.0
C737 C 0.2752 0.74574 0.83278 0.0
C738 C 0.28363 0.71527 0.82069 0.0
C739 C 0.26473 0.77513 0.84254 0.0
N740 N 0.2778 0.7698 0.81228 0.0
C741 C 0.26963 0.78094 0.82521 0.0
C742 C 0.26773 0.75757 0.84647 0.0
Tb743 Tb 0.28619 0.77802 0.78332 0.0
N744 N 0.28973 0.74708 0.78446 0.0
C745 C 0.2933 0.7347 0.7687 0.0
C746 C 0.29223 0.70932 0.78752 0.0
C747 C 0.29488 0.71583 0.77007 0.0
H748 H 0.26718 0.79459 0.82258 0.0
H749 H 0.29811 0.70632 0.75765 0.0
H750 H 0.28477 0.70086 0.82266 0.0
H751 H 0.25865 0.78424 0.85286 0.0
H752 H 0.29534 0.73939 0.75507 0.0
H753 H 0.31188 0.88337 0.80081 0.0
H754 H 0.29319 0.69461 0.78848 0.0
H755 H 0.34188 0.79561 0.73385 0.0
H756 H 0.31557 0.85055 0.80313 0.0
H757 H 0.34909 0.80596 0.70314 0.0
H758 H 0.27395 0.7221 0.84863 0.0
H759 H 0.31503 0.89492 0.76969 0.0
H760 H 0.32275 0.8889 0.73513 0.0
H761 H 0.26385 0.75306 0.85987 0.0
H762 H 0.33307 0.86787 0.70854 0.0
N763 N 0.3203 0.84294 0.7734 0.0
C764 C 0.31708 0.85524 0.78943 0.0
C765 C 0.31667 0.88041 0.7706 0.0
C766 C 0.3211 0.86829 0.7546 0.0
C767 C 0.31494 0.87397 0.7882 0.0
C768 C 0.32301 0.84949 0.75657 0.0
H769 H 0.34322 0.83705 0.69661 0.0
N770 N 0.33146 0.82035 0.74481 0.0
C771 C 0.34336 0.81505 0.71385 0.0
C772 C 0.3289 0.83782 0.74176 0.0
C773 C 0.33923 0.80924 0.7314 0.0
C774 C 0.33998 0.83257 0.71019 0.0
C775 C 0.33292 0.84436 0.72434 0.0
O776 O 0.35064 0.80989 0.77529 0.0
O777 O 0.31483 0.78344 0.7822 0.0
O778 O 0.30266 0.78827 0.81098 0.0
O779 O 0.31816 0.81771 0.80451 0.0
O780 O 0.33355 0.78546 0.7632 0.0
O781 O 0.34239 0.83272 0.79447 0.0
O782 O 0.2596 0.78031 0.78083 0.0
O783 O 0.29545 0.80648 0.7752 0.0
O784 O 0.30689 0.80196 0.7467 0.0
O785 O 0.29241 0.77203 0.75282 0.0
O786 O 0.2765 0.80449 0.79383 0.0
O787 O 0.26805 0.75697 0.76269 0.0
C788 C 0.32462 0.77354 0.77265 0.0
C789 C 0.37158 0.83956 0.78482 0.0
C790 C 0.40372 0.84737 0.78427 0.0
C791 C 0.38806 0.83491 0.78767 0.0
C792 C 0.40269 0.86477 0.77801 0.0
C793 C 0.37067 0.85689 0.77842 0.0
C794 C 0.38621 0.86943 0.77504 0.0
C795 C 0.31238 0.80621 0.81681 0.0
C796 C 0.35574 0.82574 0.78843 0.0
C797 C 0.33021 0.86264 0.72187 0.0
C798 C 0.32431 0.8746 0.737 0.0
C799 C 0.28566 0.81645 0.7846 0.0
C800 C 0.23854 0.75069 0.77154 0.0
C801 C 0.22225 0.75579 0.76874 0.0
C802 C 0.20637 0.74346 0.77173 0.0
C803 C 0.20696 0.7258 0.77764 0.0
C804 C 0.23902 0.73311 0.77765 0.0
C805 C 0.22325 0.72074 0.78069 0.0
C806 C 0.29778 0.78381 0.74064 0.0
C807 C 0.25464 0.76421 0.76801 0.0
H808 H 0.38868 0.82162 0.79287 0.0
H809 H 0.41456 0.87465 0.77529 0.0
H810 H 0.35807 0.86078 0.77611 0.0
H811 H 0.38548 0.8828 0.77014 0.0
H812 H 0.22193 0.76929 0.7638 0.0
H813 H 0.19488 0.716 0.77999 0.0
H814 H 0.25146 0.72888 0.77995 0.0
H815 H 0.22364 0.70717 0.78534 0.0
Tb816 Tb 0.55788 0.028 0.04453 0.0
C817 C 0.50854 0.06091 0.99472 0.0
C818 C 0.48628 0.03287 0.97797 0.0
C819 C 0.47876 0.06449 0.9861 0.0
C820 C 0.50365 0.0413 0.9868 0.0
C821 C 0.49632 0.07289 0.99411 0.0
C822 C 0.47373 0.04448 0.97805 0.0
C823 C 0.52012 0.10068 0.00788 0.0
N824 N 0.52563 0.06839 1.00219 0.0
C825 C 0.53176 0.08816 0.00805 0.0
C826 C 0.50227 0.09299 1.00111 0.0
Tb827 Tb 0.54354 0.04668 1.00271 0.0
N828 N 0.51619 0.03067 0.98701 0.0
C829 C 0.51253 0.01172 0.97722 0.0
C830 C 0.48219 0.01317 0.96892 0.0
C831 C 0.49546 1.00264 0.96829 0.0
H832 H 0.5455 0.09422 0.01347 0.0
H833 H 0.49254 0.98748 0.96103 0.0
H834 H 0.46026 0.03823 0.97153 0.0
H835 H 0.52493 0.11624 0.01302 0.0
H836 H 0.52252 1.00326 0.97672 0.0
H837 H 0.60701 0.08591 0.09038 0.0
H838 H 0.46898 1.0061 0.96202 0.0
H839 H 0.55623 0.98073 0.03082 0.0
H840 H 0.57877 0.07148 0.07033 0.0
H841 H 0.57583 0.95812 0.03354 0.0
H842 H 0.46909 0.0734 0.98565 0.0
H843 H 0.62906 0.06599 0.09381 0.0
H844 H 0.63727 0.03349 0.08589 0.0
H845 H 0.49329 0.10272 1.00094 0.0
H846 H 0.62901 0.99883 0.06995 0.0
N847 N 0.58476 0.04364 0.06144 0.0
C848 C 0.58822 0.06254 0.07134 0.0
C849 C 0.61669 0.05957 0.08475 0.0
C850 C 0.61288 0.04006 0.07514 0.0
C851 C 0.60428 0.07084 0.08286 0.0
C852 C 0.59658 0.03244 0.06352 0.0
H853 H 0.60611 0.97057 0.05041 0.0
N854 N 0.57549 1.00603 0.04516 0.0
C855 C 0.58053 0.97353 0.03957 0.0
C856 C 0.59185 0.01297 0.05491 0.0
C857 C 0.56945 0.98641 0.03808 0.0
C858 C 0.59763 0.98062 0.04905 0.0
C859 C 0.60337 1.0005 0.05718 0.0
O860 O 0.54472 1.00835 0.06087 0.0
O861 O 0.53661 0.02865 0.02384 0.0
O862 O 0.53087 0.05854 0.02747 0.0
O863 O 0.55039 0.05631 0.05317 0.0
O864 O 0.53581 1.00296 0.03254 0.0
O865 O 0.55264 0.03933 0.07276 0.0
O866 O 0.55727 0.06594 0.98634 0.0
O867 O 0.56466 0.04607 0.02356 0.0
O868 O 0.57131 0.01707 0.01991 0.0
O869 O 0.55119 0.01848 0.99444 0.0
O870 O 0.56601 0.07162 0.01451 0.0
O871 O 0.54762 0.03528 0.97402 0.0
C872 C 0.52743 0.01156 0.02181 0.0
C873 C 0.55362 0.01827 0.09472 0.0
C874 C 0.55565 0.02496 0.13018 0.0
C875 C 0.54898 0.0279 0.11217 0.0
C876 C 0.56719 0.01226 0.13055 0.0
C877 C 0.56519 1.00563 0.09528 0.0
C878 C 0.57197 1.00273 0.11315 0.0
C879 C 0.53758 0.06356 0.04589 0.0
C880 C 0.54634 0.02202 0.07632 0.0
C881 C 0.61994 1.00814 0.06806 0.0
C882 C 0.62463 0.02787 0.07714 0.0
C883 C 0.57408 0.063 0.02555 0.0
C884 C 0.54942 0.05716 0.95241 0.0
C885 C 0.55981 0.05515 0.93681 0.0
C886 C 0.55462 0.05945 0.91883 0.0
C887 C 0.5388 0.0659 0.91673 0.0
C888 C 0.53367 0.06356 0.95009 0.0
C889 C 0.52842 0.06792 0.93231 0.0
C890 C 0.56447 0.0118 1.00149 0.0
C891 C 0.55534 0.05234 0.97081 0.0
H892 H 0.53983 0.03742 0.11167 0.0
H893 H 0.57251 0.00975 0.14426 0.0
H894 H 0.56891 0.99794 0.08201 0.0
H895 H 0.58089 0.99298 0.11351 0.0
H896 H 0.5721 0.05046 0.93882 0.0
H897 H 0.53437 0.06917 0.90302 0.0
H898 H 0.5255 0.06524 0.96195 0.0
H899 H 0.51624 0.07283 0.93057 0.0
Tb900 Tb 0.32065 0.3098 0.28723 0.0
C901 C 0.24311 0.28156 0.25604 0.0
C902 C 0.22855 0.27873 0.28526 0.0
C903 C 0.21259 0.28507 0.25718 0.0
C904 C 0.24366 0.2788 0.27488 0.0
C905 C 0.22747 0.28443 0.24677 0.0
C906 C 0.21309 0.28211 0.27639 0.0
C907 C 0.24159 0.28334 0.21701 0.0
N908 N 0.25767 0.28054 0.24649 0.0
C909 C 0.25657 0.28006 0.22678 0.0
C910 C 0.22704 0.28586 0.22714 0.0
Tb911 Tb 0.28173 0.27419 0.26327 0.0
N912 N 0.25905 0.27624 0.28309 0.0
C913 C 0.26001 0.27353 0.30197 0.0
C914 C 0.22941 0.2752 0.30419 0.0
C915 C 0.2452 0.27245 0.3125 0.0
H916 H 0.26731 0.27698 0.21852 0.0
H917 H 0.24612 0.2698 0.32721 0.0
H918 H 0.20145 0.28232 0.28421 0.0
H919 H 0.24115 0.28349 0.20158 0.0
H920 H 0.27215 0.27259 0.3095 0.0
H921 H 0.34999 0.32545 0.21996 0.0
H922 H 0.21804 0.27476 0.31256 0.0
H923 H 0.34104 0.29733 0.32468 0.0
H924 H 0.3268 0.31 0.2374 0.0
H925 H 0.37122 0.30167 0.33947 0.0
H926 H 0.2005 0.28737 0.25037 0.0
H927 H 0.38013 0.3397 0.23644 0.0
H928 H 0.40153 0.3438 0.26579 0.0
H929 H 0.21531 0.2881 0.21951 0.0
H930 H 0.40768 0.33532 0.2976 0.0
N931 N 0.34207 0.31744 0.26536 0.0
C932 C 0.33924 0.31709 0.24569 0.0
C933 C 0.36967 0.33336 0.24455 0.0
C934 C 0.37323 0.33147 0.26374 0.0
C935 C 0.35271 0.32542 0.23527 0.0
C936 C 0.35911 0.32279 0.27355 0.0
H937 H 0.39666 0.31827 0.32436 0.0
N938 N 0.34873 0.30857 0.29933 0.0
C939 C 0.36905 0.30612 0.32572 0.0
C940 C 0.36261 0.31781 0.29108 0.0
C941 C 0.35183 0.30315 0.31683 0.0
C942 C 0.38334 0.31561 0.31725 0.0
C943 C 0.38022 0.32178 0.29983 0.0
O944 O 0.31767 0.31397 0.31718 0.0
O945 O 0.29221 0.29831 0.28693 0.0
O946 O 0.28636 0.29898 0.24788 0.0
O947 O 0.31167 0.32275 0.26328 0.0
O948 O 0.30124 0.32792 0.28891 0.0
O949 O 0.33272 0.33711 0.30476 0.0
O950 O 0.27218 0.25161 0.23906 0.0
O951 O 0.3103 0.28248 0.26819 0.0
O952 O 0.32019 0.2816 0.2966 0.0
O953 O 0.29125 0.26335 0.28825 0.0
O954 O 0.29977 0.27026 0.24038 0.0
O955 O 0.27519 0.24511 0.26747 0.0
C956 C 0.28735 0.31434 0.28888 0.0
C957 C 0.31778 0.34596 0.33258 0.0
C958 C 0.30026 0.37071 0.33582 0.0
C959 C 0.31061 0.35979 0.32483 0.0
C960 C 0.29784 0.36839 0.35504 0.0
C961 C 0.31551 0.34406 0.35192 0.0
C962 C 0.30566 0.35531 0.36311 0.0
C963 C 0.29825 0.31572 0.24929 0.0
C964 C 0.32625 0.33217 0.32042 0.0
C965 C 0.39413 0.33184 0.29095 0.0
C966 C 0.39061 0.33683 0.27295 0.0
C967 C 0.31434 0.27684 0.25147 0.0
C968 C 0.28357 0.22448 0.24108 0.0
C969 C 0.29975 0.22456 0.25121 0.0
C970 C 0.31133 0.2138 0.24251 0.0
C971 C 0.30669 0.20291 0.22349 0.0
C972 C 0.27896 0.21331 0.22219 0.0
C973 C 0.29051 0.20259 0.21345 0.0
C974 C 0.30681 0.26723 0.29864 0.0
C975 C 0.27271 0.23803 0.24888 0.0
H976 H 0.31234 0.36146 0.30995 0.0
H977 H 0.28995 0.37672 0.3638 0.0
H978 H 0.32096 0.33348 0.35818 0.0
H979 H 0.30377 0.35359 0.37793 0.0
H980 H 0.30361 0.23332 0.2657 0.0
H981 H 0.3154 0.19433 0.21659 0.0
H982 H 0.26666 0.21332 0.21403 0.0
H983 H 0.28695 0.1941 0.19883 0.0
Tb984 Tb 0.55158 0.56658 0.04455 0.0
C985 C 0.57255 0.51377 0.97497 0.0
C986 C 0.54781 0.5069 0.95026 0.0
C987 C 0.57744 0.50662 0.94076 0.0
C988 C 0.55478 0.51195 0.96999 0.0
C989 C 0.58409 0.51076 0.96047 0.0
C990 C 0.55931 0.50469 0.93566 0.0
C991 C 0.60752 0.51458 0.98602 0.0
N992 N 0.57836 0.51759 0.99416 0.0
C993 C 0.59552 0.5174 0.99985 0.0
C994 C 0.60184 0.51148 0.96624 0.0
Tb995 Tb 0.55785 0.52247 0.01584 0.0
N996 N 0.54415 0.514 0.98457 0.0
C997 C 0.52611 0.50966 0.98029 0.0
C998 C 0.52947 0.50362 0.94585 0.0
C999 C 0.51855 0.50473 0.96096 0.0
H1000 H 0.60021 0.51991 0.01506 0.0
H1001 H 0.5043 0.50186 0.95774 0.0
H1002 H 0.55424 0.50101 0.92042 0.0
H1003 H 0.62115 0.51486 0.99065 0.0
H1004 H 0.51735 0.51049 0.99164 0.0
H1005 H 0.60493 0.58733 0.10285 0.0
H1006 H 0.52358 0.49977 0.93089 0.0
H1007 H 0.50936 0.56961 0.04529 0.0
H1008 H 0.59199 0.57916 0.06885 0.0
H1009 H 0.48829 0.57427 0.06968 0.0
H1010 H 0.58611 0.50442 0.92938 0.0
H1011 H 0.58548 0.58816 0.12961 0.0
H1012 H 0.5547 0.58609 0.13998 0.0
H1013 H 0.61114 0.50925 0.95556 0.0
H1014 H 0.52285 0.58272 0.13093 0.0
N1015 N 0.56515 0.57459 0.07586 0.0
C1016 C 0.58319 0.57943 0.08021 0.0
C1017 C 0.57966 0.58448 0.11463 0.0
C1018 C 0.56129 0.58084 0.11015 0.0
C1019 C 0.59067 0.5841 0.09957 0.0
C1020 C 0.55441 0.57604 0.09039 0.0
H1021 H 0.49802 0.57875 0.10474 0.0
N1022 N 0.53093 0.57094 0.06618 0.0
C1023 C 0.50184 0.57421 0.07431 0.0
C1024 C 0.53663 0.57426 0.08537 0.0
C1025 C 0.51389 0.57159 0.06049 0.0
C1026 C 0.50736 0.57667 0.09407 0.0
C1027 C 0.52503 0.57704 0.09985 0.0
O1028 O 0.54245 0.58984 0.03599 0.0
O1029 O 0.54964 0.54956 0.015 0.0
O1030 O 0.57678 0.5462 0.00746 0.0
O1031 O 0.57873 0.56937 0.03578 0.0
O1032 O 0.52994 0.56348 0.02159 0.0
O1033 O 0.56931 0.59401 0.04865 0.0
O1034 O 0.56689 0.49903 0.02413 0.0
O1035 O 0.56002 0.53967 0.04528 0.0
O1036 O 0.53257 0.54283 0.05278 0.0
O1037 O 0.53065 0.52003 0.02426 0.0
O1038 O 0.57966 0.52568 0.03865 0.0
O1039 O 0.53959 0.49561 0.01334 0.0
C1040 C 0.53545 0.5529 0.00754 0.0
C1041 C 0.55603 0.62115 0.05366 0.0
C1042 C 0.55336 0.65459 0.05393 0.0
C1043 C 0.55473 0.63624 0.04377 0.0
C1044 C 0.55336 0.65764 0.0743 0.0
C1045 C 0.55596 0.62436 0.07397 0.0
C1046 C 0.55461 0.64255 0.08422 0.0
C1047 C 0.585 0.56257 0.01939 0.0
C1048 C 0.55737 0.60232 0.04223 0.0
C1049 C 0.53158 0.58073 0.11957 0.0
C1050 C 0.5497 0.58263 0.12472 0.0
C1051 C 0.57427 0.53641 0.05266 0.0
C1052 C 0.55123 0.46737 0.00904 0.0
C1053 C 0.54942 0.45225 0.01957 0.0
C1054 C 0.54885 0.433 0.01024 0.0
C1055 C 0.55009 0.42909 0.99004 0.0
C1056 C 0.55256 0.46331 0.98895 0.0
C1057 C 0.55198 0.4442 0.97951 0.0
C1058 C 0.52435 0.5266 0.04068 0.0
C1059 C 0.55145 0.48708 0.01954 0.0
H1060 H 0.55511 0.63374 0.0281 0.0
H1061 H 0.55225 0.6716 0.08251 0.0
H1062 H 0.55703 0.61293 0.08189 0.0
H1063 H 0.55456 0.64498 0.09989 0.0
H1064 H 0.54814 0.45548 0.03507 0.0
H1065 H 0.5498 0.41443 0.98245 0.0
H1066 H 0.55395 0.4748 0.9806 0.0
H1067 H 0.553 0.44109 0.96399 0.0
Tb1068 Tb 0.82555 0.31256 0.26783 0.0
C1069 C 0.78227 0.25223 0.30883 0.0
C1070 C 0.79011 0.22192 0.29551 0.0
C1071 C 0.78055 0.22682 0.32806 0.0
C1072 C 0.78833 0.24085 0.29394 0.0
C1073 C 0.7779 0.24522 0.32593 0.0
C1074 C 0.78667 0.21518 0.31286 0.0
C1075 C 0.76703 0.27419 0.33663 0.0
N1076 N 0.77974 0.2698 0.30607 0.0
C1077 C 0.77157 0.28049 0.31941 0.0
C1078 C 0.77045 0.25661 0.34004 0.0
Tb1079 Tb 0.78769 0.27898 0.27738 0.0
N1080 N 0.79118 0.24778 0.27732 0.0
C1081 C 0.79434 0.2357 0.2611 0.0
C1082 C 0.79459 0.21006 0.27934 0.0
C1083 C 0.79639 0.21686 0.26194 0.0
H1084 H 0.76883 0.29414 0.31715 0.0
H1085 H 0.79944 0.20766 0.24918 0.0
H1086 H 0.78814 0.20077 0.31443 0.0
H1087 H 0.76095 0.28294 0.34728 0.0
H1088 H 0.79588 0.24065 0.24753 0.0
H1089 H 0.81476 0.38414 0.29671 0.0
H1090 H 0.79613 0.19545 0.27995 0.0
H1091 H 0.84276 0.29661 0.22718 0.0
H1092 H 0.81796 0.35096 0.2981 0.0
H1093 H 0.85005 0.30765 0.19678 0.0
H1094 H 0.77743 0.22124 0.34116 0.0
H1095 H 0.81788 0.39643 0.26596 0.0
H1096 H 0.8253 0.391 0.23126 0.0
H1097 H 0.76688 0.25174 0.35337 0.0
H1098 H 0.83512 0.37023 0.20406 0.0
N1099 N 0.82228 0.34384 0.26817 0.0
C1100 C 0.8194 0.35595 0.28453 0.0
C1101 C 0.81927 0.38174 0.26645 0.0
C1102 C 0.8234 0.3698 0.25011 0.0
C1103 C 0.81757 0.37489 0.28383 0.0
C1104 C 0.82499 0.35077 0.25153 0.0
H1105 H 0.84469 0.33925 0.19119 0.0
N1106 N 0.83285 0.32149 0.23889 0.0
C1107 C 0.84452 0.31666 0.20776 0.0
C1108 C 0.83059 0.33923 0.23637 0.0
C1109 C 0.84036 0.31046 0.22513 0.0
C1110 C 0.84142 0.33447 0.20464 0.0
C1111 C 0.83463 0.34615 0.21915 0.0
O1112 O 0.85221 0.31043 0.26808 0.0
O1113 O 0.81623 0.28402 0.27583 0.0
O1114 O 0.80449 0.2886 0.30487 0.0
O1115 O 0.82043 0.31795 0.29862 0.0
O1116 O 0.83461 0.28586 0.25647 0.0
O1117 O 0.84435 0.33252 0.28864 0.0
O1118 O 0.76116 0.28168 0.27601 0.0
O1119 O 0.79706 0.30766 0.26967 0.0
O1120 O 0.80814 0.30335 0.24081 0.0
O1121 O 0.79325 0.27349 0.24665 0.0
O1122 O 0.77874 0.30562 0.28906 0.0
O1123 O 0.76898 0.25865 0.25672 0.0
C1124 C 0.82572 0.27399 0.26598 0.0
C1125 C 0.87321 0.34006 0.27824 0.0
C1126 C 0.90518 0.34822 0.27645 0.0
C1127 C 0.88971 0.33506 0.27921 0.0
C1128 C 0.90396 0.36654 0.27257 0.0
C1129 C 0.87211 0.35834 0.27416 0.0
C1130 C 0.88746 0.37148 0.2713 0.0
C1131 C 0.81465 0.30631 0.31079 0.0
C1132 C 0.85756 0.32584 0.28172 0.0
C1133 C 0.83223 0.3647 0.21723 0.0
C1134 C 0.82662 0.37651 0.2327 0.0
C1135 C 0.78769 0.31767 0.27976 0.0
C1136 C 0.73986 0.25225 0.26661 0.0
C1137 C 0.72347 0.2574 0.26467 0.0
C1138 C 0.7078 0.24491 0.268 0.0
C1139 C 0.70871 0.22708 0.27338 0.0
C1140 C 0.74062 0.23448 0.27216 0.0
C1141 C 0.72508 0.22199 0.27555 0.0
C1142 C 0.79863 0.28541 0.23461 0.0
C1143 C 0.75579 0.26589 0.26286 0.0
H1144 H 0.89055 0.32102 0.2826 0.0
H1145 H 0.91573 0.37696 0.27046 0.0
H1146 H 0.85952 0.36253 0.27333 0.0
H1147 H 0.88658 0.38559 0.26822 0.0
H1148 H 0.72291 0.27105 0.26018 0.0
H1149 H 0.69681 0.21719 0.27603 0.0
H1150 H 0.75312 0.23022 0.2738 0.0
H1151 H 0.72571 0.20828 0.27979 0.0
Tb1152 Tb 0.0521 0.53659 0.54381 0.0
C1153 C 1.00529 0.57124 0.49216 0.0
C1154 C 0.98214 0.54406 0.47546 0.0
C1155 C 0.97665 0.57675 0.48167 0.0
C1156 C 0.99939 0.55155 0.48501 0.0
C1157 C 0.99415 0.58418 0.4903 0.0
C1158 C 0.97069 0.55671 0.47416 0.0
C1159 C 0.01903 0.61093 0.5035 0.0
N1160 N 0.02244 0.57785 0.49973 0.0
C1161 C 0.02963 0.5975 0.50471 0.0
C1162 C 1.00115 0.60423 0.49646 0.0
Tb1163 Tb 0.03883 0.55484 0.50131 0.0
N1164 N 0.01098 0.53994 0.48627 0.0
C1165 C 1.00635 0.52069 0.47735 0.0
C1166 C 0.97716 0.52423 0.46694 0.0
C1167 C 0.98936 0.51252 0.46781 0.0
H1168 H 0.04343 0.60285 0.51018 0.0
H1169 H 0.98572 0.49721 0.46108 0.0
H1170 H 0.95735 0.55123 0.467 0.0
H1171 H 0.02469 0.62642 0.50794 0.0
H1172 H 0.01555 0.51136 0.47774 0.0
H1173 H 0.10414 0.5927 0.58781 0.0
H1174 H 0.96408 0.51791 0.45935 0.0
H1175 H 0.04786 0.48873 0.5313 0.0
H1176 H 0.07502 0.57947 0.56914 0.0
H1177 H 0.06656 0.46494 0.53274 0.0
H1178 H 0.96783 0.58642 0.4802 0.0
H1179 H 0.12523 0.57146 0.59005 0.0
H1180 H 0.1323 0.53853 0.58066 0.0
H1181 H 0.99302 0.61466 0.49533 0.0
H1182 H 0.12223 0.5038 0.56526 0.0
N1183 N 0.07957 0.55098 0.55997 0.0
C1184 C 0.08406 0.56998 0.56965 0.0
C1185 C 0.11257 0.56564 0.5814 0.0
C1186 C 0.10784 0.54615 0.57177 0.0
C1187 C 0.10064 0.57762 0.58031 0.0
C1188 C 0.09095 0.53913 0.56127 0.0
H1189 H 0.09768 0.47618 0.54743 0.0
N1190 N 0.06842 0.51337 0.54425 0.0
C1191 C 0.072 0.4803 0.53843 0.0
C1192 C 0.08524 0.51965 0.55293 0.0
C1193 C 0.06144 0.49382 0.53768 0.0
C1194 C 0.08958 0.48671 0.54667 0.0
C1195 C 0.09631 0.50655 0.5544 0.0
O1196 O 0.03844 0.51804 0.56087 0.0
O1197 O 0.03111 0.53823 0.52331 0.0
O1198 O 0.0275 0.56914 0.52593 0.0
O1199 O 0.04631 0.56584 0.55183 0.0
O1200 O 0.0286 0.51278 0.53272 0.0
O1201 O 0.04783 0.54904 0.57208 0.0
O1202 O 0.05377 0.57233 0.48417 0.0
O1203 O 0.05977 0.55364 0.52218 0.0
O1204 O 0.0647 0.52417 0.51926 0.0
O1205 O 0.04457 0.52555 0.4939 0.0
O1206 O 0.06203 0.57897 0.51233 0.0
O1207 O 0.04202 0.54192 0.47278 0.0
C1208 C 0.0208 0.52184 0.52192 0.0
C1209 C 0.04695 0.52835 0.59472 0.0
C1210 C 0.04537 0.53258 0.62978 0.0
C1211 C 0.03968 0.5357 0.61146 0.0
C1212 C 0.05862 0.52201 0.63114 0.0
C1213 C 0.06013 0.51778 0.59625 0.0
C1214 C 0.06597 0.51471 0.61443 0.0
C1215 C 0.03433 0.57408 0.54435 0.0
C1216 C 0.04051 0.53215 0.576 0.0
C1217 C 0.11348 0.51359 0.56405 0.0
C1218 C 0.1192 0.53336 0.57282 0.0
C1219 C 0.06972 0.57027 0.52363 0.0
C1220 C 0.04547 0.56304 0.45038 0.0
C1221 C 0.05615 0.56083 0.43508 0.0
C1222 C 0.05148 0.56532 0.41702 0.0
C1223 C 0.03579 0.5719 0.41446 0.0
C1224 C 0.0299 0.56967 0.44763 0.0
C1225 C 0.02509 0.57404 0.42972 0.0
C1226 C 0.05749 0.51845 0.50106 0.0
C1227 C 0.05088 0.55825 0.46898 0.0
H1228 H 0.02925 0.54353 0.6101 0.0
H1229 H 0.0633 0.51944 0.64508 0.0
H1230 H 0.06581 0.51181 0.58349 0.0
H1231 H 0.07615 0.50657 0.61555 0.0
H1232 H 0.06803 0.55542 0.43722 0.0
H1233 H 0.03193 0.57567 0.4008 0.0
H1234 H 0.02152 0.57151 0.45923 0.0
H1235 H 0.01307 0.57919 0.42768 0.0
Tb1236 Tb 0.78604 0.79975 0.26776 0.0
C1237 C 0.8413 0.76927 0.31297 0.0
C1238 C 0.85093 0.79341 0.34248 0.0
C1239 C 0.85145 0.75951 0.34237 0.0
C1240 C 0.84388 0.78821 0.32278 0.0
C1241 C 0.84549 0.75473 0.32244 0.0
C1242 C 0.85418 0.77886 0.35239 0.0
C1243 C 0.83961 0.73254 0.29136 0.0
N1244 N 0.83591 0.76542 0.29369 0.0
C1245 C 0.83575 0.74752 0.28263 0.0
C1246 C 0.84424 0.73606 0.31142 0.0
Tb1247 Tb 0.82928 0.79062 0.28058 0.0
N1248 N 0.84084 0.8018 0.31255 0.0
C1249 C 0.84609 0.82121 0.32086 0.0
C1250 C 0.8552 0.81314 0.35136 0.0
C1251 C 0.85303 0.82712 0.3404 0.0
H1252 H 0.83207 0.74456 0.26713 0.0
H1253 H 0.85666 0.84248 0.34699 0.0
H1254 H 0.85937 0.78253 0.36759 0.0
H1255 H 0.83898 0.71828 0.28261 0.0
H1256 H 0.84452 0.83232 0.3128 0.0
H1257 H 0.76033 0.74797 0.20081 0.0
H1258 H 0.8607 0.81777 0.36643 0.0
H1259 H 0.78213 0.8454 0.28122 0.0
H1260 H 0.77169 0.75808 0.23526 0.0
H1261 H 0.77498 0.87155 0.26569 0.0
H1262 H 0.85456 0.74852 0.34998 0.0
H1263 H 0.75644 0.77268 0.18131 0.0
H1264 H 0.75729 0.80787 0.18026 0.0
H1265 H 0.84733 0.72448 0.31813 0.0
H1266 H 0.76127 0.84172 0.19801 0.0
N1267 N 0.77497 0.78858 0.23563 0.0
C1268 C 0.77011 0.76919 0.22718 0.0
C1269 C 0.76154 0.77729 0.19651 0.0
C1270 C 0.76538 0.79698 0.20551 0.0
C1271 C 0.76364 0.76331 0.2075 0.0
C1272 C 0.77198 0.80215 0.22535 0.0
H1273 H 0.76746 0.86554 0.23003 0.0
N1274 N 0.77921 0.82482 0.25457 0.0
C1275 C 0.77481 0.85743 0.25691 0.0
C1276 C 0.77421 0.82103 0.23521 0.0
C1277 C 0.77882 0.84252 0.26566 0.0
C1278 C 0.77065 0.85401 0.23677 0.0
C1279 C 0.76995 0.8355 0.2257 0.0
O1280 O 0.76731 0.80805 0.28633 0.0
O1281 O 0.80531 0.79792 0.29048 0.0
O1282 O 0.80912 0.76632 0.28754 0.0
O1283 O 0.78428 0.7682 0.26807 0.0
O1284 O 0.79196 0.81987 0.29581 0.0
O1285 O 0.76157 0.77996 0.26742 0.0
O1286 O 0.84814 0.78181 0.26246 0.0
O1287 O 0.81005 0.79257 0.25795 0.0
O1288 O 0.80606 0.82441 0.2613 0.0
O1289 O 0.83105 0.8222 0.28039 0.0
O1290 O 0.82321 0.77059 0.25242 0.0
O1291 O 0.85344 0.81057 0.28003 0.0
C1292 C 0.80352 0.81206 0.3032 0.0
C1293 C 0.73724 0.79412 0.27507 0.0
C1294 C 0.70676 0.79278 0.28355 0.0
C1295 C 0.72426 0.79097 0.28819 0.0
C1296 C 0.70267 0.79805 0.26569 0.0
C1297 C 0.73271 0.7992 0.25735 0.0
C1298 C 0.71554 0.80121 0.25275 0.0
C1299 C 0.7929 0.75852 0.27852 0.0
C1300 C 0.75542 0.79199 0.27997 0.0
C1301 C 0.76441 0.83077 0.20566 0.0
C1302 C 0.76214 0.81151 0.19556 0.0
C1303 C 0.81178 0.77857 0.24506 0.0
C1304 C 0.87818 0.79686 0.27324 0.0
C1305 C 0.89094 0.799 0.25971 0.0
C1306 C 0.90866 0.79804 0.26466 0.0
C1307 C 0.91325 0.79502 0.28344 0.0
C1308 C 0.88318 0.79371 0.29172 0.0
C1309 C 0.9006 0.79282 0.29676 0.0
C1310 C 0.82235 0.83205 0.27021 0.0
C1311 C 0.85979 0.79821 0.26807 0.0
H1312 H 0.72772 0.78684 0.3018 0.0
H1313 H 0.68952 0.79997 0.26177 0.0
H1314 H 0.74239 0.80158 0.24706 0.0
H1315 H 0.71218 0.80525 0.23907 0.0
H1316 H 0.88701 0.80123 0.24536 0.0
H1317 H 0.92674 0.79467 0.28803 0.0
H1318 H 0.87368 0.79212 0.30233 0.0
H1319 H 0.90437 0.79054 0.31113 0.0
Tb1320 Tb 0.81065 0.28193 0.74931 0.0
C1321 C 0.77821 0.3402 0.80351 0.0
C1322 C 0.80208 0.36871 0.81439 0.0
C1323 C 0.77155 0.3722 0.81208 0.0
C1324 C 0.79608 0.34844 0.80745 0.0
C1325 C 0.76566 0.35187 0.80618 0.0
C1326 C 0.78975 0.38062 0.8162 0.0
C1327 C 0.74254 0.32233 0.79895 0.0
N1328 N 0.77312 0.32052 0.79815 0.0
C1329 C 0.75553 0.31139 0.79667 0.0
C1330 C 0.74762 0.34268 0.80348 0.0
Tb1331 Tb 0.79527 0.30378 0.79423 0.0
N1332 N 0.80749 0.33638 0.80564 0.0
C1333 C 0.8251 0.34363 0.81192 0.0
C1334 C 0.8202 0.37627 0.8199 0.0
C1335 C 0.83172 0.36363 0.81889 0.0
H1336 H 0.75144 0.29567 0.79309 0.0
H1337 H 0.84573 0.36928 0.82341 0.0
H1338 H 0.79412 0.39625 0.82126 0.0
H1339 H 0.72863 0.31505 0.79721 0.0
H1340 H 0.83428 0.33418 0.81121 0.0
H1341 H 0.7606 0.21682 0.71778 0.0
H1342 H 0.82536 0.39174 0.82539 0.0
H1343 H 0.8545 0.29018 0.75125 0.0
H1344 H 0.77182 0.25166 0.73136 0.0
H1345 H 0.87739 0.27096 0.74673 0.0
H1346 H 0.76213 0.38147 0.81403 0.0
H1347 H 0.78103 0.19444 0.71527 0.0
H1348 H 0.81219 0.18986 0.71991 0.0
H1349 H 0.73754 0.35112 0.80535 0.0
H1350 H 0.8441 0.20461 0.72798 0.0
N1351 N 0.79854 0.24941 0.73727 0.0
C1352 C 0.78103 0.24225 0.73051 0.0
C1353 C 0.78608 0.20979 0.72146 0.0
C1354 C 0.80411 0.21726 0.72759 0.0
C1355 C 0.77453 0.22239 0.72275 0.0
C1356 C 0.81 0.2374 0.7353 0.0
H1357 H 0.86859 0.23493 0.73766 0.0
N1358 N 0.83287 0.26527 0.74552 0.0
C1359 C 0.86349 0.26363 0.74479 0.0
C1360 C 0.82783 0.24564 0.73966 0.0
C1361 C 0.85046 0.27448 0.7473 0.0
C1362 C 0.85848 0.24329 0.73974 0.0
C1363 C 0.84044 0.23406 0.73673 0.0
O1364 O 0.82484 0.2964 0.72945 0.0
O1365 O 0.80827 0.30795 0.76865 0.0
O1366 O 0.77945 0.31001 0.77022 0.0
O1367 O 0.78289 0.28546 0.74479 0.0
O1368 O 0.83127 0.30916 0.7558 0.0
O1369 O 0.79833 0.27868 0.72105 0.0
O1370 O 0.78142 0.28941 0.81437 0.0
O1371 O 0.79749 0.27779 0.77479 0.0
O1372 O 0.82617 0.2753 0.77342 0.0
O1373 O 0.82292 0.30011 0.79864 0.0
O1374 O 0.77461 0.2766 0.78796 0.0
O1375 O 0.80783 0.30745 0.82244 0.0
C1376 C 0.82276 0.31921 0.76719 0.0
C1377 C 0.81797 0.28131 0.69656 0.0
C1378 C 0.82695 0.28708 0.66497 0.0
C1379 C 0.82114 0.29357 0.68306 0.0
C1380 C 0.82947 0.26793 0.66051 0.0
C1381 C 0.82056 0.26226 0.69199 0.0
C1382 C 0.8263 0.25563 0.67401 0.0
C1383 C 0.77443 0.2989 0.75268 0.0
C1384 C 0.81228 0.28911 0.71533 0.0
C1385 C 0.83464 0.2138 0.73016 0.0
C1386 C 0.81648 0.20541 0.72556 0.0
C1387 C 0.78298 0.26661 0.77632 0.0
C1388 C 0.78847 0.3048 0.84715 0.0
C1389 C 0.78548 0.29263 0.86076 0.0
C1390 C 0.77981 0.2992 0.8789 0.0
C1391 C 0.77724 0.31834 0.8833 0.0
C1392 C 0.78582 0.32383 0.85165 0.0
C1393 C 0.78022 0.33055 0.86969 0.0
C1394 C 0.83119 0.28642 0.79097 0.0
C1395 C 0.79405 0.29694 0.82836 0.0
H1396 H 0.81878 0.30817 0.68661 0.0
H1397 H 0.83399 0.26254 0.6467 0.0
H1398 H 0.81813 0.25255 0.7022 0.0
H1399 H 0.82831 0.24092 0.67052 0.0
H1400 H 0.78786 0.27804 0.85725 0.0
H1401 H 0.77281 0.32379 0.89714 0.0
H1402 H 0.78809 0.33346 0.84134 0.0
H1403 H 0.77818 0.34524 0.87314 0.0
Tb1404 Tb 0.81702 0.82479 0.79194 0.0
C1405 C 0.75225 0.76134 0.7646 0.0
C1406 C 0.75119 0.73002 0.774 0.0
C1407 C 0.72386 0.74047 0.76835 0.0
C1408 C 0.76096 0.74759 0.7697 0.0
C1409 C 0.73352 0.75757 0.76334 0.0
C1410 C 0.73268 0.7268 0.77381 0.0
C1411 C 0.73494 0.78679 0.75026 0.0
N1412 N 0.76194 0.77763 0.75947 0.0
C1413 C 0.75342 0.78988 0.75158 0.0
C1414 C 0.72496 0.77068 0.75631 0.0
Tb1415 Tb 0.79211 0.78005 0.76153 0.0
N1416 N 0.77884 0.75079 0.76913 0.0
C1417 C 0.7875 0.73636 0.77145 0.0
C1418 C 0.76021 0.71579 0.77756 0.0
C1419 C 0.7784 0.71889 0.77603 0.0
H1420 H 0.76047 0.80237 0.74645 0.0
H1421 H 0.78545 0.70783 0.77843 0.0
H1422 H 0.725 0.71346 0.77719 0.0
H1423 H 0.72839 0.7968 0.74441 0.0
H1424 H 0.80163 0.73855 0.77076 0.0
H1425 H 0.81609 0.89349 0.77034 0.0
H1426 H 0.75317 0.70215 0.78094 0.0
H1427 H 0.85014 0.80588 0.80571 0.0
H1428 H 0.80285 0.86175 0.77859 0.0
H1429 H 0.88285 0.81477 0.80881 0.0
H1430 H 0.7095 0.73742 0.76755 0.0
H1431 H 0.84858 0.90356 0.76967 0.0
H1432 H 0.87869 0.89649 0.77531 0.0
H1433 H 0.71061 0.76821 0.75497 0.0
H1434 H 0.89685 0.8751 0.78588 0.0
N1435 N 0.82754 0.85343 0.78177 0.0
C1436 C 0.81703 0.86584 0.77815 0.0
C1437 C 0.84283 0.88949 0.77309 0.0
C1438 C 0.85359 0.87716 0.77772 0.0
C1439 C 0.82448 0.88387 0.77347 0.0
C1440 C 0.84544 0.85904 0.78213 0.0
H1441 H 0.89849 0.84507 0.79913 0.0
N1442 N 0.84722 0.83003 0.79285 0.0
C1443 C 0.87535 0.82386 0.80273 0.0
C1444 C 0.85561 0.84691 0.78784 0.0
C1445 C 0.8568 0.81879 0.80078 0.0
C1446 C 0.88413 0.84091 0.79715 0.0
C1447 C 0.87429 0.85272 0.78966 0.0
O1448 O 0.82954 0.83011 0.82045 0.0
O1449 O 0.79188 0.80423 0.78438 0.0
O1450 O 0.79037 0.80641 0.7501 0.0
O1451 O 0.81706 0.82832 0.76167 0.0
O1452 O 0.79097 0.83262 0.79185 0.0
O1453 O 0.80925 0.84496 0.81331 0.0
O1454 O 0.8047 0.77965 0.73555 0.0
O1455 O 0.81758 0.79916 0.77072 0.0
O1456 O 0.81695 0.80049 0.80733 0.0
O1457 O 0.79512 0.77345 0.79086 0.0
O1458 O 0.81666 0.76992 0.76536 0.0
O1459 O 0.77956 0.76063 0.73591 0.0
C1460 C 0.78127 0.81525 0.78691 0.0
C1461 C 0.83456 0.86405 0.83333 0.0
C1462 C 0.83976 0.89941 0.83683 0.0
C1463 C 0.82813 0.88101 0.83384 0.0
C1464 C 0.85806 0.901 0.84022 0.0
C1465 C 0.85292 0.86585 0.83735 0.0
C1466 C 0.86455 0.88426 0.84086 0.0
C1467 C 0.80352 0.82098 0.74817 0.0
C1468 C 0.82233 0.84486 0.82587 0.0
C1469 C 0.88251 0.87047 0.7847 0.0
C1470 C 0.87217 0.88265 0.7787 0.0
C1471 C 0.82724 0.78695 0.77029 0.0
C1472 C 0.79874 0.74944 0.71414 0.0
C1473 C 0.80569 0.7366 0.72354 0.0
C1474 C 0.81137 0.72085 0.71291 0.0
C1475 C 0.81048 0.71841 0.69252 0.0
C1476 C 0.7978 0.74683 0.69381 0.0
C1477 C 0.80373 0.73139 0.68305 0.0
C1478 C 0.80636 0.783 0.80626 0.0
C1479 C 0.7925 0.76554 0.72555 0.0
H1480 H 0.81404 0.87982 0.83052 0.0
H1481 H 0.86724 0.91508 0.84223 0.0
H1482 H 0.85836 0.85306 0.83706 0.0
H1483 H 0.87868 0.88549 0.8435 0.0
H1484 H 0.80682 0.73898 0.7392 0.0
H1485 H 0.81474 0.70636 0.68392 0.0
H1486 H 0.79251 0.75671 0.68629 0.0
H1487 H 0.80298 0.7294 0.66733 0.0
Tb1488 Tb 0.53373 0.52794 0.51632 0.0
C1489 C 0.58681 0.60178 0.53378 0.0
C1490 C 0.61471 0.60193 0.51971 0.0
C1491 C 0.60341 0.63137 0.52469 0.0
C1492 C 0.59964 0.59206 0.52729 0.0
C1493 C 0.58891 0.62179 0.53312 0.0
C1494 C 0.61621 0.62142 0.51786 0.0
C1495 C 0.56361 0.62222 0.55142 0.0
N1496 N 0.57314 0.59216 0.54225 0.0
C1497 C 0.56202 0.60242 0.55174 0.0
C1498 C 0.5769 0.63187 0.54179 0.0
Tb1499 Tb 0.57248 0.55965 0.54205 0.0
N1500 N 0.59812 0.57344 0.52993 0.0
C1501 C 0.61208 0.56457 0.52693 0.0
C1502 C 0.62829 0.59227 0.51514 0.0
C1503 C 0.6271 0.57364 0.51912 0.0
H1504 H 0.55155 0.59579 0.55942 0.0
H1505 H 0.63777 0.56624 0.51619 0.0
H1506 H 0.62762 0.62917 0.51195 0.0
H1507 H 0.55449 0.63002 0.5586 0.0
H1508 H 0.6115 0.55012 0.52975 0.0
H1509 H 0.52573 0.46638 0.55293 0.0
H1510 H 0.64003 0.59935 0.50927 0.0
H1511 H 0.52322 0.52703 0.46917 0.0
H1512 H 0.52765 0.50054 0.55052 0.0
H1513 H 0.52113 0.50425 0.43803 0.0
H1514 H 0.60519 0.64669 0.52402 0.0
H1515 H 0.52828 0.44221 0.52392 0.0
H1516 H 0.53055 0.43452 0.48792 0.0
H1517 H 0.57812 0.64724 0.54169 0.0
H1518 H 0.52952 0.445 0.45634 0.0
N1519 N 0.53199 0.49638 0.5204 0.0
C1520 C 0.52888 0.49038 0.53764 0.0
C1521 C 0.52928 0.45731 0.52276 0.0
C1522 C 0.53117 0.46319 0.50486 0.0
C1523 C 0.52772 0.47089 0.53912 0.0
C1524 C 0.5322 0.483 0.50411 0.0
H1525 H 0.52559 0.47092 0.43753 0.0
N1526 N 0.53047 0.50753 0.48639 0.0
C1527 C 0.52431 0.49979 0.45152 0.0
C1528 C 0.53146 0.4888 0.48643 0.0
C1529 C 0.52569 0.51276 0.46929 0.0
C1530 C 0.52687 0.48101 0.4513 0.0
C1531 C 0.52992 0.47509 0.46892 0.0
O1532 O 0.51206 0.5414 0.51389 0.0
O1533 O 0.54766 0.55849 0.52622 0.0
O1534 O 0.5493 0.56368 0.55824 0.0
O1535 O 0.53059 0.53346 0.5481 0.0
O1536 O 0.53625 0.54991 0.49793 0.0
O1537 O 0.50786 0.51179 0.51733 0.0
O1538 O 0.57282 0.55148 0.56942 0.0
O1539 O 0.55641 0.53013 0.53657 0.0
O1540 O 0.55453 0.52657 0.49563 0.0
O1541 O 0.57862 0.55157 0.51105 0.0
O1542 O 0.58314 0.53347 0.53593 0.0
O1543 O 0.59253 0.57528 0.56436 0.0
C1544 C 0.54557 0.56444 0.51036 0.0
C1545 C 0.48568 0.52003 0.49813 0.0
C1546 C 0.45858 0.52645 0.48382 0.0
C1547 C 0.47299 0.5314 0.49831 0.0
C1548 C 0.45722 0.51009 0.46888 0.0
C1549 C 0.48392 0.50352 0.48328 0.0
C1550 C 0.46984 0.49872 0.46866 0.0
C1551 C 0.53578 0.54994 0.56115 0.0
C1552 C 0.50036 0.52551 0.51379 0.0
C1553 C 0.53044 0.45569 0.46962 0.0
C1554 C 0.53102 0.44973 0.4876 0.0
C1555 C 0.56849 0.52062 0.53406 0.0
C1556 C 0.60025 0.55698 0.58729 0.0
C1557 C 0.61363 0.54971 0.5779 0.0
C1558 C 0.62553 0.54174 0.58809 0.0
C1559 C 0.62376 0.54108 0.60784 0.0
C1560 C 0.59871 0.55624 0.60697 0.0
C1561 C 0.61043 0.54833 0.61719 0.0
C1562 C 0.57063 0.53795 0.49564 0.0
C1563 C 0.58707 0.56431 0.57667 0.0
H1564 H 0.47437 0.54414 0.50977 0.0
H1565 H 0.4462 0.50582 0.45762 0.0
H1566 H 0.4933 0.49425 0.483 0.0
H1567 H 0.46858 0.48601 0.45724 0.0
H1568 H 0.61484 0.5504 0.56277 0.0
H1569 H 0.63254 0.53475 0.61601 0.0
H1570 H 0.5883 0.5616 0.61437 0.0
H1571 H 0.60912 0.54768 0.63236 0.0
Tb1572 Tb 0.07471 0.55411 0.01896 0.0
C1573 C 0.01615 0.5015 0.05332 0.0
C1574 C 1.00301 0.47417 0.02743 0.0
C1575 C 1.00292 0.47009 0.06111 0.0
C1576 C 0.01226 0.49376 0.03375 0.0
C1577 C 0.0113 0.4899 0.0673 0.0
C1578 C 0.99873 0.46224 0.04119 0.0
C1579 C 0.02178 0.51875 0.09232 0.0
N1580 N 0.02385 0.52078 0.05865 0.0
C1581 C 0.02613 0.52969 0.07788 0.0
C1582 C 0.0145 0.49872 0.08703 0.0
Tb1583 Tb 0.03092 0.53746 0.03402 0.0
N1584 N 0.01648 0.50583 0.02099 0.0
C1585 C 0.01089 0.49937 1.00161 0.0
C1586 C 0.99782 0.46736 0.00754 0.0
C1587 C 1.00169 0.48006 0.9946 0.0
H1588 H 0.03181 0.54515 0.08214 0.0
H1589 H 0.99757 0.47501 0.97921 0.0
H1590 H 0.9918 0.44709 0.0366 0.0
H1591 H 0.02402 0.52579 0.10752 0.0
H1592 H 0.01369 0.50886 0.9913 0.0
H1593 H 0.10623 0.61752 0.07368 0.0
H1594 H 0.99052 0.45247 1.00209 0.0
H1595 H 0.07536 0.5459 0.971 0.0
H1596 H 0.09152 0.58313 0.06161 0.0
H1597 H 0.08352 0.565 0.94551 0.0
H1598 H 0.99919 0.46087 0.07161 0.0
H1599 H 0.11251 0.6401 0.05068 0.0
H1600 H 0.11201 0.64496 0.01598 0.0
H1601 H 0.01101 0.49031 0.09824 0.0
H1602 H 0.10589 0.63062 0.98097 0.0
N1603 N 0.08884 0.58591 0.03184 0.0
C1604 C 0.09414 0.59262 0.05125 0.0
C1605 C 0.10598 0.62494 0.04523 0.0
C1606 C 0.10148 0.61777 0.02529 0.0
C1607 C 0.10252 0.61222 0.05824 0.0
C1608 C 0.09297 0.59792 0.01901 0.0
H1609 H 0.09555 0.6007 0.95452 0.0
N1610 N 0.08231 0.57057 0.99428 0.0
C1611 C 0.08523 0.57223 0.96064 0.0
C1612 C 0.08957 0.58995 0.99947 0.0
C1613 C 0.08067 0.56144 0.97516 0.0
C1614 C 0.09196 0.59238 0.96578 0.0
C1615 C 0.09447 0.60146 0.98543 0.0
O1616 O 0.09253 0.53888 1.00526 0.0
O1617 O 0.05333 0.52974 0.02058 0.0
O1618 O 0.0498 0.5268 0.0511 0.0
O1619 O 0.07534 0.55027 0.04953 0.0
O1620 O 0.06673 0.52705 0.99668 0.0
O1621 O 0.09786 0.55307 0.03544 0.0
O1622 O 0.0134 0.55271 0.04828 0.0
O1623 O 0.05215 0.56188 0.03216 0.0
O1624 O 0.05592 0.56408 1.00098 0.0
O1625 O 0.03006 0.54137 1.00353 0.0
O1626 O 0.03905 0.56439 0.05635 0.0
O1627 O 0.00747 0.53855 0.01809 0.0
C1628 C 0.05417 0.51805 1.00514 0.0
C1629 C 0.12255 0.55025 0.01804 0.0
C1630 C 0.15273 0.54503 0.01911 0.0
C1631 C 0.13455 0.53863 0.02111 0.0
C1632 C 0.15865 0.56331 0.01391 0.0
C1633 C 0.12871 0.56836 0.01281 0.0
C1634 C 0.14668 0.57484 0.01075 0.0
C1635 C 0.06627 0.53624 0.05758 0.0
C1636 C 0.10379 0.54329 0.02076 0.0
C1637 C 0.10217 0.62146 0.99152 0.0
C1638 C 0.10566 0.62962 0.01145 0.0
C1639 C 0.05131 0.57354 0.04763 0.0
C1640 C 0.9832 0.54167 0.03622 0.0
C1641 C 0.97131 0.55352 0.03354 0.0
C1642 C 0.95329 0.54759 0.03646 0.0
C1643 C 0.94737 0.5295 0.04203 0.0
C1644 C 0.97706 0.52373 0.04179 0.0
C1645 C 0.95921 0.51768 0.04466 0.0
C1646 C 0.03931 0.55479 0.99489 0.0
C1647 C 1.00188 0.54838 0.033 0.0
H1648 H 0.12964 0.52451 0.02489 0.0
H1649 H 0.17256 0.56886 0.01254 0.0
H1650 H 0.11969 0.57751 0.01041 0.0
H1651 H 0.15138 0.58889 0.00681 0.0
H1652 H 0.97611 0.56726 0.02896 0.0
H1653 H 0.93365 0.5246 0.04465 0.0
H1654 H 0.98599 0.51442 0.04394 0.0
H1655 H 0.95454 0.50382 0.04901 0.0
H1656 H 0.02661 0.24025 0.98997 0.0
H1657 H 0.02988 0.21024 1.00069 0.0
H1658 H 0.03009 0.18219 0.94106 0.0
H1659 H 0.02678 0.21214 0.93018 0.0
H1660 H 0.00789 0.17136 0.99064 0.0
H1661 H 0.07589 0.17401 0.96868 0.0
H1662 H 0.06597 0.1949 0.97109 0.0
H1663 H 0.05997 0.17584 0.94983 0.0
C1664 C 0.02731 0.22771 0.97908 0.0
C1665 C 0.02648 0.22875 0.95916 0.0
C1666 C 0.02917 0.21051 0.98527 0.0
C1667 C 0.03048 0.19394 0.97176 0.0
C1668 C 0.02939 0.19482 0.95184 0.0
H1669 H 0.045 0.07749 0.97214 0.0
H1670 H 0.04164 0.10901 0.96543 0.0
C1671 C 0.02739 0.21197 0.94562 0.0
C1672 C 0.03296 0.17578 0.97847 0.0
H1673 H 0.06142 0.1451 0.97855 0.0
C1674 C 0.01964 0.16567 0.9881 0.0
C1675 C 0.04832 0.16833 0.97529 0.0
C1676 C 0.06346 0.17888 0.96582 0.0
C1677 C 0.02093 0.14801 0.9939 0.0
C1678 C 0.03619 0.14038 0.99045 0.0
C1679 C 0.04968 0.15079 0.98121 0.0
C1680 C 0.03803 0.12111 0.99508 0.0
C1681 C 1.00559 0.13731 1.00299 0.0
C1682 C 0.03716 0.11713 0.01407 0.0
C1683 C 0.03911 0.09894 0.01794 0.0
C1684 C 0.04232 0.08453 1.00298 0.0
C1685 C 0.04291 0.08845 0.98404 0.0
C1686 C 0.04099 0.1065 0.98019 0.0
H1687 H 0.99326 0.14237 1.00017 0.0
H1688 H 1.00294 0.12133 0.99737 0.0
H1689 H 0.00889 0.14 0.01899 0.0
H1690 H 0.0352 0.12816 0.02595 0.0
H1691 H 0.03811 0.09614 0.03257 0.0
H1692 H 0.13664 0.83856 0.17465 0.0
H1693 H 0.16449 0.83936 0.19376 0.0
H1694 H 0.17813 0.7995 0.14643 0.0
H1695 H 0.15077 0.79895 0.12725 0.0
H1696 H 0.17639 0.81035 0.20676 0.0
H1697 H 0.22358 0.84051 0.1577 0.0
H1698 H 0.20033 0.84072 0.155 0.0
H1699 H 0.20779 0.81907 0.14527 0.0
C1700 C 0.14568 0.83015 0.16823 0.0
C1701 C 0.14143 0.81882 0.14929 0.0
C1702 C 0.16161 0.83058 0.1792 0.0
C1703 C 0.17371 0.81979 0.17147 0.0
C1704 C 0.16939 0.80841 0.15262 0.0
H1705 H 0.26883 0.78641 0.2116 0.0
H1706 H 0.2427 0.79126 0.19353 0.0
C1707 C 0.15357 0.80802 0.14167 0.0
C1708 C 0.19045 0.81964 0.18324 0.0
H1709 H 0.23539 0.82542 0.18179 0.0
C1710 C 0.1893 0.81389 0.20139 0.0
C1711 C 0.20741 0.82423 0.17633 0.0
C1712 C 0.20991 0.83167 0.1576 0.0
C1713 C 0.20442 0.81196 0.2124 0.0
C1714 C 0.22128 0.81607 0.20524 0.0
C1715 C 0.2225 0.82213 0.18726 0.0
C1716 C 0.23772 0.81384 0.21604 0.0
C1717 C 0.20215 0.80489 0.23134 0.0
C1718 C 0.24406 0.82531 0.23453 0.0
C1719 C 0.25908 0.82262 0.2449 0.0
C1720 C 0.26812 0.80828 0.23718 0.0
C1721 C 0.26215 0.79739 0.21828 0.0
C1722 C 0.24716 0.80015 0.20786 0.0
H1723 H 0.18804 0.79831 0.23273 0.0
H1724 H 0.21014 0.79391 0.23267 0.0
H1725 H 0.20685 0.81741 0.24365 0.0
H1726 H 0.23736 0.83637 0.24098 0.0
H1727 H 0.26356 0.83181 0.259 0.0
H1728 H 0.55309 0.83226 0.44818 0.0
H1729 H 0.55863 0.86734 0.46144 0.0
H1730 H 0.50586 0.85975 0.47986 0.0
H1731 H 0.50011 0.82485 0.46631 0.0
H1732 H 0.51241 0.88901 0.46063 0.0
H1733 H 0.569 0.89897 0.51615 0.0
H1734 H 0.57302 0.88761 0.49239 0.0
H1735 H 0.55577 0.87519 0.50484 0.0
C1736 C 0.54276 0.838 0.45533 0.0
C1737 C 0.52614 0.82564 0.45614 0.0
C1738 C 0.54598 0.85811 0.46302 0.0
C1739 C 0.53275 0.86631 0.47191 0.0
C1740 C 0.51633 0.85388 0.47313 0.0
H1741 H 0.55233 0.98837 0.53451 0.0
H1742 H 0.54504 0.95254 0.52617 0.0
C1743 C 0.51307 0.83384 0.46538 0.0
C1744 C 0.53545 0.88792 0.47868 0.0
H1745 H 0.56271 0.92802 0.50786 0.0
C1746 C 0.52336 0.89749 0.47107 0.0
C1747 C 0.54958 0.89909 0.4925 0.0
C1748 C 0.56249 0.88968 0.50211 0.0
C1749 C 0.52515 0.91778 0.47652 0.0
C1750 C 0.53971 0.92913 0.48971 0.0
C1751 C 0.5516 0.9195 0.49767 0.0
C1752 C 0.54314 0.95097 0.49495 0.0
C1753 C 0.51118 0.92671 0.46819 0.0
C1754 C 0.54461 0.96222 0.48033 0.0
C1755 C 0.54838 0.98265 0.48511 0.0
C1756 C 0.55084 0.99243 0.50463 0.0
C1757 C 0.54979 0.98128 0.51934 0.0
C1758 C 0.54585 0.96077 0.51455 0.0
H1759 H 0.49831 0.91591 0.46413 0.0
H1760 H 0.50903 0.93932 0.47869 0.0
H1761 H 0.51551 0.9318 0.4548 0.0
H1762 H 0.54327 0.95524 0.46514 0.0
H1763 H 0.54964 0.99086 0.47347 0.0
H1764 H 0.54178 0.32571 0.67717 0.0
H1765 H 0.51671 0.32284 0.69715 0.0
H1766 H 0.48895 0.27105 0.65662 0.0
H1767 H 0.51355 0.27423 0.63636 0.0
H1768 H 0.46682 0.29347 0.66661 0.0
H1769 H 0.50394 0.28648 0.73396 0.0
H1770 H 0.51271 0.30867 0.72576 0.0
H1771 H 0.51347 0.28556 0.71105 0.0
C1772 C 0.53036 0.31367 0.67258 0.0
C1773 C 0.52975 0.30018 0.65517 0.0
C1774 C 0.51604 0.31197 0.68409 0.0
C1775 C 0.50095 0.29652 0.67864 0.0
C1776 C 0.50037 0.2831 0.66123 0.0
H1777 H 0.42337 0.25329 0.7538 0.0
H1778 H 0.44729 0.25908 0.7328 0.0
C1779 C 0.51453 0.28492 0.64965 0.0
C1780 C 0.48561 0.29426 0.69076 0.0
H1781 H 0.47415 0.28903 0.73623 0.0
C1782 C 0.46844 0.2925 0.68185 0.0
C1783 C 0.48759 0.29274 0.7106 0.0
C1784 C 0.50538 0.29326 0.72088 0.0
C1785 C 0.45331 0.28913 0.69209 0.0
C1786 C 0.45533 0.28803 0.71205 0.0
C1787 C 0.47251 0.28997 0.72099 0.0
C1788 C 0.43988 0.28399 0.72379 0.0
C1789 C 0.43527 0.28607 0.68117 0.0
C1790 C 0.42745 0.29585 0.72564 0.0
C1791 C 0.41352 0.29232 0.73745 0.0
C1792 C 0.41195 0.27711 0.74798 0.0
C1793 C 0.42426 0.26516 0.74593 0.0
C1794 C 0.43799 0.26851 0.73396 0.0
H1795 H 0.43566 0.28172 0.6652 0.0
H1796 H 0.42536 0.27468 0.68606 0.0
H1797 H 0.43073 0.29994 0.68385 0.0
H1798 H 0.42878 0.30818 0.71839 0.0
H1799 H 0.4044 0.30195 0.73898 0.0
H1800 H 0.02528 0.83958 0.63585 0.0
H1801 H 0.02907 0.85988 0.61105 0.0
H1802 H 0.04087 0.8124 0.5706 0.0
H1803 H 0.0373 0.79205 0.59534 0.0
H1804 H 0.06483 0.84792 0.57242 0.0
H1805 H 0.99533 0.85561 0.5624 0.0
H1806 H 1.00476 0.86216 0.58731 0.0
H1807 H 1.00149 0.83735 0.57451 0.0
C1808 C 0.02861 0.83342 0.62166 0.0
C1809 C 0.03095 0.81418 0.61757 0.0
C1810 C 0.03066 0.845 0.60747 0.0
C1811 C 0.03499 0.83753 0.58891 0.0
C1812 C 0.03742 0.81839 0.58481 0.0
H1813 H 0.03211 0.89916 0.49183 0.0
H1814 H 0.02817 0.87348 0.51128 0.0
C1815 C 0.03537 0.80679 0.59897 0.0
C1816 C 0.03759 0.84993 0.57402 0.0
H1817 H 0.01701 0.877 0.54868 0.0
C1818 C 0.05435 0.85415 0.56709 0.0
C1819 C 0.0238 0.85777 0.56687 0.0
C1820 C 1.00528 0.85287 0.57299 0.0
C1821 C 0.05787 0.86662 0.55372 0.0
C1822 C 0.04434 0.87526 0.54734 0.0
C1823 C 0.0274 0.87047 0.55371 0.0
C1824 C 0.0477 0.89006 0.53484 0.0
C1825 C 0.07605 0.87046 0.54656 0.0
C1826 C 0.06001 0.90781 0.54162 0.0
C1827 C 0.06232 0.92242 0.53056 0.0
C1828 C 0.05226 0.91962 0.51253 0.0
C1829 C 0.04018 0.90166 0.50556 0.0
C1830 C 0.03784 0.88704 0.51669 0.0
H1831 H 0.08298 0.85864 0.54817 0.0
H1832 H 0.07522 0.87189 0.53103 0.0
H1833 H 0.08421 0.88432 0.55529 0.0
H1834 H 0.06753 0.91057 0.55573 0.0
H1835 H 0.07184 0.93604 0.53623 0.0
H1836 H 0.51425 0.77124 0.864 0.0
H1837 H 0.49059 0.7808 0.84607 0.0
H1838 H 0.52962 0.82161 0.82344 0.0
H1839 H 0.55335 0.81197 0.84103 0.0
H1840 H 0.48501 0.81825 0.85222 0.0
H1841 H 0.49575 0.79416 0.77497 0.0
H1842 H 0.50535 0.78525 0.79467 0.0
H1843 H 0.5152 0.80888 0.78985 0.0
C1844 C 0.51782 0.78199 0.85493 0.0
C1845 C 0.53568 0.79087 0.85399 0.0
C1846 C 0.50429 0.78745 0.84472 0.0
C1847 C 0.50837 0.80178 0.83331 0.0
C1848 C 0.52619 0.81025 0.83187 0.0
H1849 H 0.43439 0.87112 0.80374 0.0
H1850 H 0.46129 0.86119 0.81411 0.0
C1851 C 0.53973 0.80479 0.84204 0.0
C1852 C 0.494 0.80907 0.82433 0.0
H1853 H 0.47544 0.81479 0.78098 0.0
C1854 C 0.48289 0.81746 0.83664 0.0
C1855 C 0.49128 0.80796 0.804 0.0
C1856 C 0.50241 0.79842 0.79005 0.0
C1857 C 0.4691 0.82481 0.82919 0.0
C1858 C 0.46658 0.82407 0.80891 0.0
C1859 C 0.47762 0.81559 0.79655 0.0
C1860 C 0.45173 0.83084 0.80027 0.0
C1861 C 0.45705 0.83286 0.84306 0.0
C1862 C 0.43792 0.81726 0.78826 0.0
C1863 C 0.42267 0.82291 0.7822 0.0
C1864 C 0.42099 0.84225 0.78804 0.0
C1865 C 0.43533 0.85612 0.79902 0.0
C1866 C 0.45062 0.85045 0.80508 0.0
H1867 H 0.45843 0.82855 0.85744 0.0
H1868 H 0.46051 0.84904 0.84544 0.0
H1869 H 0.44296 0.82775 0.83692 0.0
H1870 H 0.4386 0.80209 0.78429 0.0
H1871 H 0.41194 0.81198 0.77346 0.0
H1872 H 0.53003 0.22243 0.15178 0.0
H1873 H 0.53226 0.18995 0.13567 0.0
H1874 H 0.48016 0.18055 0.10553 0.0
H1875 H 0.47776 0.21316 0.12154 0.0
H1876 H 0.50816 0.15205 0.13519 0.0
H1877 H 0.51432 0.17207 0.0622 0.0
H1878 H 0.51794 0.19019 0.0844 0.0
H1879 H 0.4958 0.17748 0.07469 0.0
C1880 C 0.519 0.21347 0.14176 0.0
C1881 C 0.50376 0.22042 0.13782 0.0
C1882 C 0.52029 0.1949 0.13264 0.0
C1883 C 0.50644 0.183 0.11935 0.0
C1884 C 0.49105 0.18967 0.11563 0.0
H1885 H 0.50664 0.07494 0.03992 0.0
H1886 H 0.49712 0.10233 0.05892 0.0
C1887 C 0.48971 0.20826 0.12481 0.0
C1888 C 0.50848 0.16387 0.10898 0.0
H1889 H 0.51529 0.13992 0.06451 0.0
C1890 C 0.5096 0.14928 0.11971 0.0
C1891 C 0.51032 0.16042 0.08882 0.0
C1892 C 0.50967 0.17586 0.07678 0.0
C1893 C 0.51265 0.13126 0.11076 0.0
C1894 C 0.51499 0.12801 0.09068 0.0
C1895 C 0.51346 0.14247 0.0799 0.0
C1896 C 0.51979 0.11011 0.08059 0.0
C1897 C 0.51323 0.11586 0.12284 0.0
C1898 C 0.53561 0.10529 0.08659 0.0
C1899 C 0.54111 0.08962 0.07575 0.0
C1900 C 0.53099 0.07875 0.05856 0.0
C1901 C 0.51487 0.08324 0.05294 0.0
C1902 C 0.50936 0.09882 0.06382 0.0
H1903 H 0.50585 0.11813 0.13588 0.0
H1904 H 0.50756 0.10099 0.1142 0.0
H1905 H 0.52723 0.11669 0.12798 0.0
H1906 H 0.54405 0.11408 0.09925 0.0
H1907 H 0.55359 0.08655 0.08043 0.0
H1908 H 0.15972 0.34101 0.39577 0.0
H1909 H 0.18874 0.34689 0.38314 0.0
H1910 H 0.16444 0.31839 0.32557 0.0
H1911 H 0.13529 0.31232 0.33805 0.0
H1912 H 0.20172 0.31404 0.36391 0.0
H1913 H 0.20051 0.36992 0.31841 0.0
H1914 H 0.18668 0.36716 0.33812 0.0
H1915 H 0.18097 0.35041 0.31522 0.0
C1916 C 0.16049 0.33617 0.38037 0.0
C1917 C 0.14523 0.32603 0.36793 0.0
C1918 C 0.17706 0.33967 0.37319 0.0
C1919 C 0.17863 0.33336 0.35341 0.0
C1920 C 0.1634 0.32372 0.34082 0.0
H1921 H 0.25717 0.32245 0.27417 0.0
H1922 H 0.23209 0.32883 0.29189 0.0
C1923 C 0.14681 0.32006 0.34802 0.0
C1924 C 0.19636 0.33433 0.34647 0.0
H1925 H 0.22364 0.35299 0.31475 0.0
C1926 C 0.20665 0.32253 0.35315 0.0
C1927 C 0.20265 0.34569 0.33275 0.0
C1928 C 0.19224 0.35918 0.32576 0.0
C1929 C 0.22263 0.32061 0.34552 0.0
C1930 C 0.22882 0.33137 0.33099 0.0
C1931 C 0.21888 0.34423 0.32534 0.0
C1932 C 0.2446 0.32857 0.32041 0.0
C1933 C 0.23198 0.30646 0.35301 0.0
C1934 C 0.26034 0.3268 0.3302 0.0
C1935 C 0.27375 0.32109 0.31974 0.0
C1936 C 0.27249 0.31888 0.29943 0.0
C1937 C 0.25795 0.32314 0.28976 0.0
C1938 C 0.24381 0.32722 0.30003 0.0
H1939 H 0.22261 0.29502 0.35851 0.0
H1940 H 0.23881 0.29905 0.34171 0.0
H1941 H 0.24188 0.31453 0.36537 0.0
H1942 H 0.26217 0.32929 0.34591 0.0
H1943 H 0.28517 0.3185 0.32756 0.0
H1944 H 0.95463 0.05017 0.2183 0.0
H1945 H 0.96824 0.04378 0.1875 0.0
H1946 H 0.99083 0.10527 0.19365 0.0
H1947 H 0.97756 0.11166 0.22414 0.0
H1948 H 0.96475 0.05572 0.1521 0.0
H1949 H 0.03446 0.08459 0.18313 0.0
H1950 H 0.01656 0.07983 0.19823 0.0
H1951 H 0.02103 0.10203 0.18874 0.0
C1952 C 0.96261 0.06234 0.21321 0.0
C1953 C 0.96495 0.08148 0.22416 0.0
C1954 C 0.97041 0.05867 0.19542 0.0
C1955 C 0.98104 0.07393 0.18801 0.0
C1956 C 0.98322 0.093 0.1989 0.0
H1957 H 0.04087 0.08796 0.0852 0.0
H1958 H 0.02699 0.09208 0.1158 0.0
C1959 C 0.97541 0.09667 0.21651 0.0
C1960 C 0.98955 0.07024 0.16889 0.0
H1961 H 0.02926 0.07901 0.14859 0.0
C1962 C 0.97889 0.06069 0.15146 0.0
C1963 C 0.00806 0.0767 0.16752 0.0
C1964 C 0.02074 0.08619 0.18541 0.0
C1965 C 0.98594 0.05799 0.13309 0.0
C1966 C 1.00446 0.06453 0.1317 0.0
C1967 C 0.01512 0.07395 0.14918 0.0
C1968 C 0.01302 0.06186 0.11248 0.0
C1969 C 0.97318 0.0488 0.11519 0.0
C1970 C 0.01031 0.04348 0.09991 0.0
C1971 C 0.01834 0.04109 0.08224 0.0
C1972 C 0.02968 0.05691 0.0764 0.0
C1973 C 0.03249 0.07528 0.08902 0.0
C1974 C 0.02442 0.07767 0.10669 0.0
H1975 H 0.95949 0.05043 0.11762 0.0
H1976 H 0.97731 0.05534 0.10248 0.0
H1977 H 0.97279 0.03294 0.11163 0.0
H1978 H 1.00214 0.03075 0.10387 0.0
H1979 H 0.01577 0.02665 0.07325 0.0
H1980 H 0.29435 0.69306 0.48936 0.0
H1981 H 0.28907 0.71515 0.468 0.0
H1982 H 0.25309 0.66754 0.42914 0.0
H1983 H 0.25835 0.64514 0.45046 0.0
H1984 H 0.27854 0.69103 0.41063 0.0
H1985 H 0.24374 0.73584 0.46086 0.0
H1986 H 0.2643 0.73312 0.47195 0.0
H1987 H 0.24638 0.71202 0.46402 0.0
C1988 C 0.2853 0.68723 0.47629 0.0
C1989 C 0.27672 0.66734 0.47162 0.0
C1990 C 0.28218 0.69992 0.46419 0.0
C1991 C 0.27042 0.69302 0.44725 0.0
C1992 C 0.26207 0.67314 0.4423 0.0
H1993 H 0.24596 0.77707 0.37767 0.0
H1994 H 0.24175 0.75013 0.39562 0.0
C1995 C 0.26512 0.66039 0.45446 0.0
C1996 C 0.26758 0.70659 0.43439 0.0
H1997 H 0.25603 0.75012 0.4346 0.0
C1998 C 0.27334 0.70378 0.41571 0.0
C1999 C 0.26053 0.72302 0.44097 0.0
C2000 C 0.25321 0.72611 0.46048 0.0
C2001 C 0.27327 0.71767 0.4039 0.0
C2002 C 0.26748 0.73482 0.4111 0.0
C2003 C 0.26066 0.73703 0.42925 0.0
C2004 C 0.26979 0.75128 0.40069 0.0
C2005 C 0.27979 0.71413 0.384 0.0
C2006 C 0.28694 0.76111 0.39819 0.0
C2007 C 0.28938 0.77652 0.3882 0.0
C2008 C 0.27471 0.78241 0.3805 0.0
C2009 C 0.25752 0.77291 0.38353 0.0
C2010 C 0.25508 0.75747 0.39363 0.0
H2011 H 0.27892 0.69835 0.37851 0.0
H2012 H 0.27206 0.71972 0.37334 0.0
H2013 H 0.29391 0.72191 0.38488 0.0
H2014 H 0.29846 0.75682 0.40399 0.0
H2015 H 0.3028 0.78381 0.38646 0.0
H2016 H 0.6363 0.99082 0.71754 0.0
H2017 H 0.61654 0.99051 0.68893 0.0
H2018 H 0.66156 0.01499 0.66063 0.0
H2019 H 0.68143 0.01543 0.68914 0.0
H2020 H 0.61505 0.02598 0.67525 0.0
H2021 H 0.63135 0.96964 0.6182 0.0
H2022 H 0.63602 0.97047 0.64393 0.0
H2023 H 0.65025 0.98689 0.6318 0.0
C2024 C 0.64204 0.99578 0.70509 0.0
C2025 C 0.66043 1.00323 0.70562 0.0
C2026 C 0.63072 0.99561 0.68879 0.0
C2027 C 0.63764 1.00258 0.67268 0.0
C2028 C 0.65602 1.00928 0.67284 0.0
H2029 H 0.59969 0.05384 0.58296 0.0
H2030 H 0.6148 0.04512 0.61054 0.0
C2031 C 0.66734 0.0096 0.68917 0.0
C2032 C 0.62561 1.00474 0.65652 0.0
H2033 H 0.61524 0.99148 0.60732 0.0
C2034 C 0.61489 0.01825 0.66043 0.0
C2035 C 0.62544 0.99458 0.63727 0.0
C2036 C 0.63626 0.97944 0.63249 0.0
C2037 C 0.60453 0.02245 0.6454 0.0
C2038 C 0.60495 0.01289 0.62608 0.0
C2039 C 0.61509 0.99883 0.62222 0.0
C2040 C 0.59558 0.01808 0.6096 0.0
C2041 C 0.59345 0.03734 0.65013 0.0
C2042 C 0.57984 1.00567 0.60005 0.0
C2043 C 0.5711 0.01064 0.58435 0.0
C2044 C 0.57811 0.02803 0.57791 0.0
C2045 C 0.59395 0.04037 0.58754 0.0
C2046 C 0.60258 0.03544 0.60331 0.0
H2047 H 0.59244 0.04123 0.66602 0.0
H2048 H 0.59955 0.05081 0.64494 0.0
H2049 H 0.57988 0.03174 0.6425 0.0
H2050 H 0.57432 0.99218 0.60475 0.0
H2051 H 0.55901 1.00073 0.57714 0.0
H2052 H 0.29714 0.38611 0.97965 0.0
H2053 H 0.29651 0.37059 0.94566 0.0
H2054 H 0.32603 0.33048 0.96291 0.0
H2055 H 0.32726 0.34645 0.99705 0.0
H2056 H 0.33945 0.34424 0.93313 0.0
H2057 H 0.26683 0.32035 0.91562 0.0
H2058 H 0.27322 0.34608 0.92508 0.0
H2059 H 0.27693 0.32916 0.94029 0.0
C2060 C 0.30332 0.37383 0.97629 0.0
C2061 C 0.31218 0.36747 0.99113 0.0
C2062 C 0.30285 0.36487 0.95679 0.0
C2063 C 0.31091 0.34908 0.95166 0.0
C2064 C 0.31962 0.34256 0.96647 0.0
H2065 H 0.29052 0.28622 0.83065 0.0
H2066 H 0.29366 0.29323 0.86637 0.0
C2067 C 0.32027 0.35167 0.986 0.0
C2068 C 0.31098 0.3401 0.93079 0.0
H2069 H 0.28413 0.32196 0.88831 0.0
C2070 C 0.32732 0.33916 0.92338 0.0
C2071 C 0.29517 0.33302 0.91806 0.0
C2072 C 0.27705 0.33199 0.92522 0.0
C2073 C 0.32832 0.33211 0.90353 0.0
C2074 C 0.31262 0.32637 0.89057 0.0
C2075 C 0.29623 0.32659 0.89812 0.0
C2076 C 0.3128 0.32071 0.86907 0.0
C2077 C 0.34615 0.33056 0.89669 0.0
C2078 C 0.32269 0.33362 0.85861 0.0
C2079 C 0.32114 0.32939 0.83823 0.0
C2080 C 0.30979 0.31213 0.82795 0.0
C2081 C 0.29996 0.29919 0.83833 0.0
C2082 C 0.30161 0.30331 0.85871 0.0
H2083 H 0.35559 0.32955 0.9088 0.0
H2084 H 0.34482 0.31755 0.88498 0.0
H2085 H 0.35192 0.34376 0.89091 0.0
H2086 H 0.33092 0.34746 0.86613 0.0
H2087 H 0.32826 0.33996 0.83045 0.0
H2088 H 0.94753 0.07306 0.34327 0.0
H2089 H 0.9606 0.06966 0.37508 0.0
H2090 H 0.01022 0.06758 0.3511 0.0
H2091 H 0.99738 0.07092 0.31962 0.0
H2092 H 0.97553 0.03982 0.38618 0.0
H2093 H 0.02757 0.10826 0.40046 0.0
H2094 H 0.00922 0.10364 0.38192 0.0
H2095 H 0.02797 0.09294 0.37734 0.0
C2096 C 0.96129 0.07211 0.34478 0.0
C2097 C 0.97127 0.07246 0.32853 0.0
C2098 C 0.9688 0.07005 0.3631 0.0
C2099 C 0.98668 0.06861 0.36602 0.0
C2100 C 0.9966 0.06905 0.3498 0.0
H2101 H 0.05734 0.05796 0.46793 0.0
H2102 H 0.04518 0.06004 0.43515 0.0
C2103 C 0.98909 0.07089 0.33154 0.0
C2104 C 0.99487 0.06612 0.38559 0.0
H2105 H 0.02957 0.08594 0.42142 0.0
C2106 C 0.98727 0.05005 0.39387 0.0
C2107 C 0.01046 0.0791 0.39592 0.0
C2108 C 0.01923 0.09706 0.3886 0.0
C2109 C 0.99477 0.0465 0.41155 0.0
C2110 C 0.01019 0.05966 0.42208 0.0
C2111 C 0.01786 0.07567 0.41372 0.0
C2112 C 0.01796 0.05755 0.44203 0.0
C2113 C 0.98628 0.02813 0.41838 0.0
C2114 C 0.00712 0.05556 0.45737 0.0
C2115 C 0.01405 0.05417 0.47598 0.0
C2116 C 0.03218 0.05467 0.48033 0.0
C2117 C 0.04324 0.05691 0.46517 0.0
C2118 C 0.03624 0.05831 0.44635 0.0
H2119 H 0.97912 0.01663 0.40602 0.0
H2120 H 0.99628 0.02224 0.42596 0.0
H2121 H 0.97643 0.03142 0.42861 0.0
H2122 H 0.99319 0.05559 0.45514 0.0
H2123 H 1.0051 0.05295 0.48726 0.0
H2124 H 0.30234 0.67081 0.58391 0.0
H2125 H 0.30229 0.69178 0.61543 0.0
H2126 H 0.31132 0.74243 0.58863 0.0
H2127 H 0.31123 0.72154 0.5569 0.0
H2128 H 0.32849 0.72427 0.63636 0.0
H2129 H 0.26545 0.7446 0.61567 0.0
H2130 H 0.27257 0.72437 0.60164 0.0
H2131 H 0.28285 0.74896 0.6 0.0
C2132 C 0.30446 0.68642 0.5847 0.0
C2133 C 0.30664 0.69449 0.56786 0.0
C2134 C 0.30443 0.69837 0.60272 0.0
C2135 C 0.3065 0.71857 0.60424 0.0
C2136 C 0.30938 0.72681 0.58765 0.0
H2137 H 0.30253 0.80328 0.71028 0.0
H2138 H 0.30491 0.78908 0.6763 0.0
C2139 C 0.30943 0.71486 0.56957 0.0
C2140 C 0.30523 0.7308 0.62322 0.0
H2141 H 0.27876 0.75742 0.6477 0.0
C2142 C 0.31771 0.73165 0.63881 0.0
C2143 C 0.29115 0.74043 0.6263 0.0
C2144 C 0.27713 0.73951 0.6101 0.0
C2145 C 0.31629 0.74159 0.65755 0.0
C2146 C 0.30189 0.75062 0.66076 0.0
C2147 C 0.28975 0.75039 0.64508 0.0
C2148 C 0.29872 0.75924 0.68059 0.0
C2149 C 0.33007 0.74216 0.67389 0.0
C2150 C 0.29378 0.74707 0.69391 0.0
C2151 C 0.29247 0.75508 0.71325 0.0
C2152 C 0.29619 0.77543 0.71962 0.0
C2153 C 0.29999 0.78756 0.7059 0.0
C2154 C 0.30128 0.7795 0.6865 0.0
H2155 H 0.34231 0.73849 0.66831 0.0
H2156 H 0.33363 0.75682 0.68351 0.0
H2157 H 0.32456 0.73137 0.68283 0.0
H2158 H 0.29146 0.73135 0.68946 0.0
H2159 H 0.28928 0.74528 0.72331 0.0
H2160 H 0.65625 0.06858 0.77909 0.0
H2161 H 0.63543 0.07242 0.80367 0.0
H2162 H 0.64535 0.02173 0.82392 0.0
H2163 H 0.6664 0.01796 0.79965 0.0
H2164 H 0.60466 0.04661 0.80893 0.0
H2165 H 0.65361 0.06281 0.87389 0.0
H2166 H 0.66012 0.0635 0.84967 0.0
H2167 H 0.65383 0.04055 0.85748 0.0
C2168 C 0.65406 0.05829 0.78882 0.0
C2169 C 0.66307 0.04304 0.78751 0.0
C2170 C 0.64215 0.0605 0.80284 0.0
C2171 C 0.63909 0.04755 0.8158 0.0
C2172 C 0.64784 0.03214 0.81433 0.0
H2173 H 0.57151 0.03001 0.90743 0.0
H2174 H 0.59148 0.02752 0.88181 0.0
C2175 C 0.65979 0.02995 0.80038 0.0
C2176 C 0.62647 0.04992 0.83064 0.0
H2177 H 0.62312 0.05632 0.87958 0.0
C2178 C 0.60869 0.04888 0.82439 0.0
C2179 C 0.63183 0.05294 0.85078 0.0
C2180 C 0.65092 0.05521 0.85841 0.0
C2181 C 0.596 0.05024 0.83776 0.0
C2182 C 0.60131 0.0529 0.85786 0.0
C2183 C 0.61911 0.05417 0.86412 0.0
C2184 C 0.58859 0.05416 0.8727 0.0
C2185 C 0.57693 0.04833 0.83031 0.0
C2186 C 0.58038 0.06999 0.87601 0.0
C2187 C 0.56906 0.07155 0.89075 0.0
C2188 C 0.56584 0.05733 0.90246 0.0
C2189 C 0.57392 0.04135 0.89886 0.0
C2190 C 0.58525 0.03984 0.88418 0.0
H2191 H 0.57438 0.04235 0.81442 0.0
H2192 H 0.56782 0.03872 0.83806 0.0
H2193 H 0.57375 0.06294 0.83307 0.0
H2194 H 0.58305 0.08135 0.86749 0.0
H2195 H 0.56324 0.08416 0.89333 0.0
H2196 H 0.30872 0.40768 0.10338 0.0
H2197 H 0.30944 0.39978 0.13594 0.0
H2198 H 0.29292 0.33848 0.11064 0.0
H2199 H 0.29226 0.34619 0.078 0.0
H2200 H 0.28202 0.37877 0.1545 0.0
H2201 H 0.33852 0.34264 0.14606 0.0
H2202 H 0.33312 0.35806 0.12987 0.0
H2203 H 0.3208 0.33321 0.12688 0.0
C2204 C 0.30524 0.39249 0.10471 0.0
C2205 C 0.30054 0.37754 0.08803 0.0
C2206 C 0.30563 0.38803 0.12335 0.0
C2207 C 0.30149 0.36855 0.1257 0.0
C2208 C 0.29647 0.35361 0.10914 0.0
H2209 H 0.28981 0.29896 0.21137 0.0
H2210 H 0.29063 0.31445 0.18321 0.0
C2211 C 0.29602 0.35805 0.09048 0.0
C2212 C 0.30238 0.36376 0.14544 0.0
H2213 H 0.32199 0.33784 0.17315 0.0
C2214 C 0.2909 0.37003 0.15872 0.0
C2215 C 0.31414 0.35257 0.15098 0.0
C2216 C 0.32748 0.34637 0.13779 0.0
C2217 C 0.29018 0.36444 0.17698 0.0
C2218 C 0.30138 0.3525 0.18211 0.0
C2219 C 0.31337 0.34695 0.16915 0.0
C2220 C 0.29966 0.34383 0.19982 0.0
C2221 C 0.27691 0.37053 0.19029 0.0
C2222 C 0.30437 0.35522 0.21866 0.0
C2223 C 0.30352 0.34628 0.23501 0.0
C2224 C 0.29777 0.3259 0.23268 0.0
C2225 C 0.29318 0.31471 0.21379 0.0
C2226 C 0.29403 0.32354 0.1976 0.0
H2227 H 0.26767 0.37772 0.18314 0.0
H2228 H 0.26903 0.35765 0.19518 0.0
H2229 H 0.28406 0.38092 0.20342 0.0
H2230 H 0.30909 0.3709 0.22067 0.0
H2231 H 0.30753 0.35523 0.24939 0.0
H2232 H 0.27797 0.99519 0.0213 0.0
H2233 H 0.25888 0.01853 0.02238 0.0
H2234 H 0.24713 0.01074 0.08022 0.0
H2235 H 0.26622 0.98744 0.07936 0.0
H2236 H 0.21691 1.00569 0.05145 0.0
H2237 H 0.26694 0.0753 0.05616 0.0
H2238 H 0.26919 0.05504 0.03791 0.0
H2239 H 0.27243 0.05395 0.0632 0.0
C2240 C 0.27143 0.99854 0.03431 0.0
C2241 C 0.27357 0.98946 0.05025 0.0
C2242 C 0.26064 0.01197 0.03494 0.0
C2243 C 0.25182 0.01647 0.05146 0.0
C2244 C 0.25399 1.00753 0.06741 0.0
H2245 H 0.18332 0.09699 0.07956 0.0
H2246 H 0.20821 0.08071 0.07943 0.0
C2247 C 0.26488 0.99422 0.06688 0.0
C2248 C 0.23931 0.02942 0.05157 0.0
H2249 H 0.23663 0.07643 0.05108 0.0
C2250 C 0.2212 0.02117 0.05145 0.0
C2251 C 0.24506 0.04959 0.05167 0.0
C2252 C 0.26447 0.05912 0.05239 0.0
C2253 C 0.20857 0.03253 0.05108 0.0
C2254 C 0.21425 0.0526 0.0507 0.0
C2255 C 0.23239 0.06098 0.05121 0.0
C2256 C 0.20129 0.0649 0.04975 0.0
C2257 C 0.18922 0.02301 0.05113 0.0
C2258 C 0.18971 0.0619 0.03286 0.0
C2259 C 0.17558 0.07115 0.03288 0.0
C2260 C 0.17284 0.08355 0.0498 0.0
C2261 C 0.18518 0.08757 0.0663 0.0
C2262 C 0.19934 0.07826 0.06627 0.0
H2263 H 0.18739 1.00841 0.05519 0.0
H2264 H 0.18272 0.03234 0.06143 0.0
H2265 H 0.18236 0.02112 0.03635 0.0
H2266 H 0.19117 0.05175 0.01993 0.0
H2267 H 0.16641 0.06805 0.01987 0.0
H2268 H 0.73361 0.67663 0.03699 0.0
H2269 H 0.70344 0.65659 0.03236 0.0
H2270 H 0.71702 0.61879 0.98322 0.0
H2271 H 0.74747 0.63858 0.98801 0.0
H2272 H 0.67844 0.64819 1.00081 0.0
H2273 H 0.69552 0.58024 0.01646 0.0
H2274 H 0.71121 0.60353 0.02182 0.0
H2275 H 0.70643 0.58999 0.99725 0.0
C2276 C 0.73023 0.66404 0.02521 0.0
C2277 C 0.74299 0.65913 0.01295 0.0
C2278 C 0.71295 0.65261 0.02256 0.0
C2279 C 0.70804 0.63605 0.00761 0.0
C2280 C 0.72063 0.63127 0.9951 0.0
H2281 H 0.60262 0.55494 0.9869 0.0
H2282 H 0.63221 0.57205 0.98104 0.0
C2283 C 0.73799 0.64265 0.99781 0.0
C2284 C 0.68966 0.624 1.00529 0.0
H2285 H 0.66526 0.57918 0.00904 0.0
C2286 C 0.67556 0.63305 1.00243 0.0
C2287 C 0.68594 0.60421 0.00732 0.0
C2288 C 0.70053 0.5939 0.01104 0.0
C2289 C 0.65788 0.62303 1.00216 0.0
C2290 C 0.65421 0.60352 1.0049 0.0
C2291 C 0.6682 0.59416 0.00688 0.0
C2292 C 0.63616 0.59336 0.00788 0.0
C2293 C 0.64321 0.63349 0.99938 0.0
C2294 C 0.62872 0.59964 0.02493 0.0
C2295 C 0.61204 0.58976 0.02848 0.0
C2296 C 0.60242 0.57333 0.01503 0.0
C2297 C 0.60979 0.56727 0.99774 0.0
C2298 C 0.62663 0.5771 0.99429 0.0
H2299 H 0.64776 0.64651 0.99279 0.0
H2300 H 0.63168 0.62357 0.98998 0.0
H2301 H 0.63866 0.63843 0.01375 0.0
H2302 H 0.63598 0.61207 0.03567 0.0
H2303 H 0.60683 0.59493 0.04193 0.0
H2304 H 0.70474 0.45834 0.31069 0.0
H2305 H 0.72071 0.4323 0.30643 0.0
H2306 H 0.73061 0.44182 0.24871 0.0
H2307 H 0.7147 0.46854 0.25313 0.0
H2308 H 0.71537 0.3983 0.28463 0.0
H2309 H 0.77942 0.43787 0.2653 0.0
H2310 H 0.76264 0.45034 0.27407 0.0
H2311 H 0.76071 0.438 0.24907 0.0
C2312 C 0.71034 0.45517 0.29701 0.0
C2313 C 0.70821 0.46608 0.28234 0.0
C2314 C 0.7196 0.43996 0.29455 0.0
C2315 C 0.72743 0.43468 0.27731 0.0
C2316 C 0.72532 0.44548 0.26248 0.0
H2317 H 0.78423 0.33569 0.24699 0.0
H2318 H 0.77029 0.36358 0.24497 0.0
C2319 C 0.71597 0.46087 0.26495 0.0
C2320 C 0.73702 0.4176 0.27513 0.0
H2321 H 0.77618 0.40398 0.26432 0.0
C2322 C 0.72868 0.39977 0.28017 0.0
C2323 C 0.75449 0.41875 0.26919 0.0
C2324 C 0.76495 0.43729 0.26426 0.0
C2325 C 0.73695 0.38368 0.27956 0.0
C2326 C 0.75454 0.38496 0.27407 0.0
C2327 C 0.7628 0.40257 0.26856 0.0
C2328 C 0.76458 0.36863 0.27511 0.0
C2329 C 0.72649 0.36518 0.28463 0.0
C2330 C 0.76685 0.36205 0.2927 0.0
C2331 C 0.77493 0.34626 0.29387 0.0
C2332 C 0.78148 0.33624 0.27762 0.0
C2333 C 0.77973 0.34303 0.25998 0.0
C2334 C 0.77159 0.35906 0.25882 0.0
H2335 H 0.71197 0.36408 0.2824 0.0
H2336 H 0.7296 0.35205 0.27575 0.0
H2337 H 0.72989 0.36518 0.30022 0.0
H2338 H 0.76214 0.36906 0.30573 0.0
H2339 H 0.77585 0.34164 0.30773 0.0
H2340 H 0.84936 0.476 0.50274 0.0
H2341 H 0.88093 0.48516 0.49881 0.0
H2342 H 0.89276 0.5022 0.56112 0.0
H2343 H 0.86115 0.49262 0.56528 0.0
H2344 H 0.90616 0.51904 0.50936 0.0
H2345 H 0.92248 0.46204 0.54708 0.0
H2346 H 0.89996 0.46282 0.53987 0.0
H2347 H 0.91181 0.47873 0.56156 0.0
C2348 C 0.85863 0.48189 0.51564 0.0
C2349 C 0.85277 0.48337 0.53436 0.0
C2350 C 0.87668 0.48709 0.51334 0.0
C2351 C 0.88919 0.4939 0.52969 0.0
C2352 C 0.88333 0.49647 0.54835 0.0
H2353 H 0.99995 0.54785 0.53147 0.0
H2354 H 0.96793 0.54096 0.53118 0.0
C2355 C 0.86526 0.49115 0.55068 0.0
C2356 C 0.90836 0.4978 0.5271 0.0
H2357 H 0.94675 0.48435 0.53859 0.0
C2358 C 0.91506 0.51145 0.51572 0.0
C2359 C 0.91982 0.48754 0.53505 0.0
C2360 C 0.91316 0.47182 0.54641 0.0
C2361 C 0.93301 0.51538 0.51232 0.0
C2362 C 0.94465 0.50569 0.52089 0.0
C2363 C 0.93786 0.49182 0.53205 0.0
C2364 C 0.96402 0.51014 0.51911 0.0
C2365 C 0.9392 0.52947 0.49916 0.0
C2366 C 0.97266 0.49507 0.51278 0.0
C2367 C 0.99116 0.49902 0.5131 0.0
C2368 C 1.00127 0.51813 0.51945 0.0
C2369 C 0.99258 0.53317 0.52562 0.0
C2370 C 0.97416 0.52922 0.52548 0.0
H2371 H 0.92803 0.5311 0.48939 0.0
H2372 H 0.94536 0.54407 0.50808 0.0
H2373 H 0.94917 0.52445 0.4901 0.0
H2374 H 0.96511 0.48018 0.50799 0.0
H2375 H 0.99761 0.48713 0.50863 0.0
H2376 H 0.37984 0.10137 0.29052 0.0
H2377 H 0.36987 0.12992 0.28381 0.0
H2378 H 0.41887 0.16747 0.31274 0.0
H2379 H 0.42893 0.1389 0.31984 0.0
H2380 H 0.38791 0.18263 0.3203 0.0
H2381 H 0.39227 0.15851 0.24177 0.0
H2382 H 0.37941 0.13937 0.25194 0.0
H2383 H 0.4026 0.14862 0.26025 0.0
C2384 C 0.38844 0.1157 0.29566 0.0
C2385 C 0.40527 0.11787 0.30545 0.0
C2386 C 0.38275 0.13198 0.29177 0.0
C2387 C 0.39384 0.15069 0.29739 0.0
C2388 C 0.41022 0.15309 0.30815 0.0
H2389 H 0.34522 0.2209 0.23217 0.0
H2390 H 0.37121 0.21398 0.24872 0.0
C2391 C 0.41592 0.13676 0.31218 0.0
C2392 C 0.38841 0.16736 0.29102 0.0
H2393 H 0.37237 0.17979 0.25008 0.0
C2394 C 0.38485 0.18237 0.30495 0.0
C2395 C 0.38516 0.16744 0.27102 0.0
C2396 C 0.39026 0.15274 0.25539 0.0
C2397 C 0.37637 0.19634 0.29932 0.0
C2398 C 0.37093 0.19478 0.27935 0.0
C2399 C 0.37624 0.18096 0.26543 0.0
C2400 C 0.35734 0.20462 0.27262 0.0
C2401 C 0.37287 0.21219 0.31489 0.0
C2402 C 0.34115 0.20263 0.28099 0.0
C2403 C 0.32652 0.207 0.27179 0.0
C2404 C 0.32765 0.21287 0.25377 0.0
C2405 C 0.34405 0.21609 0.24595 0.0
C2406 C 0.35887 0.21224 0.25545 0.0
H2407 H 0.38413 0.21709 0.32649 0.0
H2408 H 0.37077 0.22502 0.30891 0.0
H2409 H 0.36091 0.20629 0.32182 0.0
H2410 H 0.33933 0.19622 0.29382 0.0
H2411 H 0.31396 0.20437 0.27804 0.0
H2412 H 0.3669 0.16481 0.48798 0.0
H2413 H 0.38669 0.14293 0.49173 0.0
H2414 H 0.35193 0.11551 0.52972 0.0
H2415 H 0.33186 0.13695 0.52565 0.0
H2416 H 0.40491 0.13906 0.52416 0.0
H2417 H 0.35864 0.06851 0.49231 0.0
H2418 H 0.35396 0.09166 0.48972 0.0
H2419 H 0.34995 0.08246 0.51175 0.0
C2420 C 0.36339 0.15402 0.49701 0.0
C2421 C 0.34774 0.15256 0.50643 0.0
C2422 C 0.37472 0.14153 0.49915 0.0
C2423 C 0.37065 0.12733 0.51073 0.0
C2424 C 0.35512 0.12597 0.52028 0.0
H2425 H 0.42647 0.04916 0.55562 0.0
H2426 H 0.40607 0.06947 0.54863 0.0
C2427 C 0.34371 0.13835 0.51804 0.0
C2428 C 0.38301 0.11452 0.51349 0.0
H2429 H 0.38537 0.06682 0.51002 0.0
C2430 C 0.40067 0.12327 0.5209 0.0
C2431 C 0.37749 0.09389 0.50919 0.0
C2432 C 0.35903 0.08356 0.50012 0.0
C2433 C 0.41281 0.11197 0.52457 0.0
C2434 C 0.40716 0.09141 0.52065 0.0
C2435 C 0.38959 0.08262 0.5131 0.0
C2436 C 0.41932 0.07879 0.52448 0.0
C2437 C 0.43151 0.12205 0.533 0.0
C2438 C 0.43336 0.07712 0.513 0.0
C2439 C 0.44492 0.06533 0.51678 0.0
C2440 C 0.4427 0.05503 0.53217 0.0
C2441 C 0.42847 0.05665 0.54351 0.0
C2442 C 0.41685 0.06834 0.53963 0.0
H2443 H 0.43297 0.13798 0.53817 0.0
H2444 H 0.43558 0.11559 0.54534 0.0
H2445 H 0.44073 0.11996 0.52167 0.0
H2446 H 0.43531 0.08488 0.50107 0.0
H2447 H 0.45549 0.06415 0.5075 0.0
H2448 H 0.70828 0.58249 0.30153 0.0
H2449 H 0.72363 0.61708 0.30563 0.0
H2450 H 0.73736 0.60689 0.24661 0.0
H2451 H 0.72231 0.57257 0.2425 0.0
H2452 H 0.76554 0.62983 0.27055 0.0
H2453 H 0.70638 0.66024 0.28497 0.0
H2454 H 0.71117 0.64492 0.30137 0.0
H2455 H 0.70475 0.63458 0.27602 0.0
C2456 C 0.71461 0.58757 0.28943 0.0
C2457 C 0.71389 0.57446 0.27165 0.0
C2458 C 0.72331 0.60752 0.29173 0.0
C2459 C 0.73157 0.61501 0.27634 0.0
C2460 C 0.73115 0.6018 0.25878 0.0
H2461 H 0.7617 0.73562 0.25836 0.0
H2462 H 0.74767 0.70169 0.25882 0.0
C2463 C 0.72243 0.582 0.25644 0.0
C2464 C 0.7407 0.6364 0.27826 0.0
H2465 H 0.73378 0.68299 0.28705 0.0
C2466 C 0.75856 0.64142 0.27427 0.0
C2467 C 0.73175 0.6518 0.28282 0.0
C2468 C 0.71242 0.6477 0.28638 0.0
C2469 C 0.76756 0.66101 0.27476 0.0
C2470 C 0.75868 0.67644 0.27959 0.0
C2471 C 0.74081 0.67143 0.28351 0.0
C2472 C 0.76741 0.69765 0.27983 0.0
C2473 C 0.7864 0.66491 0.26943 0.0
C2474 C 0.78321 0.70732 0.29174 0.0
C2475 C 0.79135 0.72697 0.29154 0.0
C2476 C 0.78402 0.73767 0.27938 0.0
C2477 C 0.76799 0.72807 0.26783 0.0
C2478 C 0.75984 0.70849 0.2681 0.0
H2479 H 0.78973 0.65152 0.26132 0.0
H2480 H 0.7887 0.67634 0.26041 0.0
H2481 H 0.79562 0.67012 0.28294 0.0
H2482 H 0.78924 0.69973 0.30139 0.0
H2483 H 0.80335 0.7338 0.30106 0.0
H2484 H 0.85477 0.50235 0.75575 0.0
H2485 H 0.84069 0.46765 0.75178 0.0
H2486 H 0.86507 0.46654 0.80829 0.0
H2487 H 0.87909 0.50119 0.81248 0.0
H2488 H 0.85973 0.43873 0.7516 0.0
H2489 H 0.81356 0.43701 0.80915 0.0
H2490 H 0.82271 0.45903 0.80043 0.0
H2491 H 0.83568 0.45068 0.81787 0.0
C2492 C 0.85691 0.49481 0.76747 0.0
C2493 C 0.86811 0.5045 0.7844 0.0
C2494 C 0.84885 0.475 0.76518 0.0
C2495 C 0.85169 0.46463 0.77983 0.0
C2496 C 0.86243 0.47439 0.79698 0.0
H2497 H 0.85437 0.34501 0.77417 0.0
H2498 H 0.86011 0.38042 0.77604 0.0
C2499 C 0.87054 0.49416 0.79927 0.0
C2500 C 0.84495 0.44324 0.77648 0.0
H2501 H 0.82073 0.4067 0.7958 0.0
C2502 C 0.85105 0.43171 0.76114 0.0
C2503 C 0.83346 0.43416 0.78879 0.0
C2504 C 0.82581 0.44585 0.80487 0.0
C2505 C 0.84661 0.4113 0.75832 0.0
C2506 C 0.83601 0.40225 0.77136 0.0
C2507 C 0.82916 0.41372 0.78609 0.0
C2508 C 0.83247 0.38094 0.77036 0.0
C2509 C 0.85339 0.3996 0.74147 0.0
C2510 C 0.81503 0.36965 0.76689 0.0
C2511 C 0.81177 0.3495 0.76593 0.0
C2512 C 0.82586 0.34048 0.76889 0.0
C2513 C 0.8433 0.35176 0.77212 0.0
C2514 C 0.84657 0.37189 0.77308 0.0
H2515 H 0.85679 0.40815 0.72988 0.0
H2516 H 0.8656 0.39553 0.74674 0.0
H2517 H 0.84342 0.38598 0.73503 0.0
H2518 H 0.80399 0.3764 0.76472 0.0
H2519 H 0.79826 0.34105 0.76277 0.0
H2520 H 0.10709 0.89814 0.12586 0.0
H2521 H 0.10166 0.92364 0.10885 0.0
H2522 H 0.06504 0.88055 0.06612 0.0
H2523 H 0.07041 0.85475 0.08321 0.0
H2524 H 0.1062 0.92881 0.07022 0.0
H2525 H 0.03559 0.92091 0.08533 0.0
H2526 H 0.05079 0.91033 0.09812 0.0
H2527 H 0.04177 0.89914 0.07361 0.0
C2528 C 0.0979 0.89396 0.11281 0.0
C2529 C 0.08915 0.87427 0.10602 0.0
C2530 C 0.09483 0.90865 0.10303 0.0
C2531 C 0.08277 0.9042 0.08627 0.0
C2532 C 0.07422 0.8845 0.07917 0.0
H2533 H 0.07254 0.99656 0.01797 0.0
H2534 H 0.07585 0.965 0.0257 0.0
C2535 C 0.0774 0.8697 0.0889 0.0
C2536 C 0.07914 0.92037 0.07665 0.0
H2537 H 0.04724 0.94543 0.06815 0.0
C2538 C 0.09324 0.93227 0.06955 0.0
C2539 C 0.06228 0.92511 0.07586 0.0
C2540 C 0.04671 0.91335 0.08374 0.0
C2541 C 0.09104 0.94883 0.06208 0.0
C2542 C 0.07426 0.95373 0.06159 0.0
C2543 C 0.06007 0.94163 0.06834 0.0
C2544 C 0.07166 0.97241 0.05614 0.0
C2545 C 0.10688 0.96148 0.05553 0.0
C2546 C 0.06799 0.98703 0.07049 0.0
C2547 C 0.06615 1.00492 0.0661 0.0
C2548 C 0.06741 1.00857 0.0471 0.0
C2549 C 0.07105 0.99398 0.03261 0.0
C2550 C 0.07312 0.97603 0.03709 0.0
H2551 H 0.11945 0.95725 0.0593 0.0
H2552 H 0.10503 0.96014 0.0395 0.0
H2553 H 0.10812 0.97705 0.06226 0.0
H2554 H 0.0669 0.98473 0.08528 0.0
H2555 H 0.06368 0.01601 0.07764 0.0
H2556 H 0.97695 0.25491 0.87217 0.0
H2557 H 0.95079 0.2549 0.85051 0.0
H2558 H 0.93573 0.29686 0.89469 0.0
H2559 H 0.96153 0.29691 0.91632 0.0
H2560 H 0.9124 0.24722 0.85862 0.0
H2561 H 0.93816 0.32168 0.84458 0.0
H2562 H 0.95245 0.3074 0.85331 0.0
H2563 H 0.93957 0.31954 0.86976 0.0
C2564 C 0.96804 0.2641 0.87728 0.0
C2565 C 0.97145 0.27595 0.89603 0.0
C2566 C 0.95308 0.26406 0.86488 0.0
C2567 C 0.94138 0.27606 0.87087 0.0
C2568 C 0.94465 0.28767 0.88962 0.0
H2569 H 0.84842 0.30909 0.82535 0.0
H2570 H 0.87473 0.30535 0.84383 0.0
C2571 C 0.95944 0.2876 0.90203 0.0
C2572 C 0.92572 0.27665 0.85772 0.0
H2573 H 0.90784 0.3073 0.83436 0.0
C2574 C 0.91144 0.26027 0.85313 0.0
C2575 C 0.92441 0.29371 0.85065 0.0
C2576 C 0.9395 0.31157 0.85465 0.0
C2577 C 0.89568 0.26073 0.84226 0.0
C2578 C 0.89429 0.27791 0.83532 0.0
C2579 C 0.90876 0.29414 0.83965 0.0
C2580 C 0.87786 0.27965 0.82404 0.0
C2581 C 0.88043 0.24307 0.83903 0.0
C2582 C 0.87068 0.2665 0.80661 0.0
C2583 C 0.85543 0.26848 0.79606 0.0
C2584 C 0.84714 0.2839 0.80243 0.0
C2585 C 0.85438 0.29705 0.81987 0.0
C2586 C 0.86952 0.29496 0.83048 0.0
H2587 H 0.88167 0.23359 0.84977 0.0
H2588 H 0.86752 0.2474 0.84004 0.0
H2589 H 0.88033 0.23428 0.82429 0.0
H2590 H 0.87698 0.25479 0.801 0.0
H2591 H 0.85016 0.25789 0.7829 0.0
H2592 H 0.55631 0.25253 0.60443 0.0
H2593 H 0.55123 0.21717 0.59315 0.0
H2594 H 0.60262 0.22467 0.57122 0.0
H2595 H 0.608 0.25992 0.583 0.0
H2596 H 0.54942 0.19332 0.55864 0.0
H2597 H 0.60684 0.18617 0.60541 0.0
H2598 H 0.59914 0.2085 0.60778 0.0
H2599 H 0.613 0.20245 0.58894 0.0
C2600 C 0.56649 0.24669 0.59708 0.0
C2601 C 0.58265 0.25914 0.59481 0.0
C2602 C 0.56358 0.22641 0.59064 0.0
C2603 C 0.5767 0.21805 0.58172 0.0
C2604 C 0.59248 0.23057 0.57858 0.0
H2605 H 0.55542 0.09379 0.52351 0.0
H2606 H 0.56172 0.1296 0.52976 0.0
C2607 C 0.59548 0.25081 0.58519 0.0
C2608 C 0.57399 0.19631 0.57607 0.0
H2609 H 0.59195 0.15784 0.58281 0.0
C2610 C 0.55874 0.18558 0.56394 0.0
C2611 C 0.58599 0.18604 0.58312 0.0
C2612 C 0.60206 0.19634 0.59719 0.0
C2613 C 0.55516 0.16504 0.55872 0.0
C2614 C 0.56737 0.15484 0.56543 0.0
C2615 C 0.58264 0.16558 0.57749 0.0
C2616 C 0.56408 0.13301 0.5612 0.0
C2617 C 0.53802 0.15445 0.54659 0.0
C2618 C 0.56382 0.12285 0.57666 0.0
C2619 C 0.56061 0.10244 0.57306 0.0
C2620 C 0.55788 0.09164 0.55392 0.0
C2621 C 0.55798 0.10171 0.5384 0.0
C2622 C 0.56128 0.12221 0.542 0.0
H2623 H 0.52816 0.16372 0.54701 0.0
H2624 H 0.54071 0.15042 0.53121 0.0
H2625 H 0.53206 0.14086 0.55167 0.0
H2626 H 0.56587 0.13072 0.59159 0.0
H2627 H 0.56029 0.09504 0.5853 0.0
H2628 H 0.59958 0.79237 0.41869 0.0
H2629 H 0.62369 0.79406 0.39762 0.0
H2630 H 0.5862 0.76514 0.34796 0.0
H2631 H 0.56189 0.76367 0.36893 0.0
H2632 H 0.63547 0.76501 0.37438 0.0
H2633 H 0.61245 0.81316 0.32939 0.0
H2634 H 0.6034 0.80921 0.35187 0.0
H2635 H 0.5962 0.79126 0.32987 0.0
C2636 C 0.5964 0.78639 0.40328 0.0
C2637 C 0.57872 0.77799 0.39552 0.0
C2638 C 0.61025 0.78735 0.39124 0.0
C2639 C 0.60679 0.78002 0.37113 0.0
C2640 C 0.58919 0.7713 0.36336 0.0
H2641 H 0.67184 0.77377 0.27432 0.0
H2642 H 0.64824 0.77021 0.29594 0.0
C2643 C 0.5753 0.77036 0.3754 0.0
C2644 C 0.62164 0.7814 0.3584 0.0
H2645 H 0.63668 0.79985 0.31909 0.0
C2646 C 0.63577 0.77269 0.36233 0.0
C2647 C 0.62208 0.79146 0.34269 0.0
C2648 C 0.60782 0.80197 0.33827 0.0
C2649 C 0.6501 0.77344 0.35078 0.0
C2650 C 0.65048 0.78342 0.33502 0.0
C2651 C 0.63638 0.79216 0.33112 0.0
C2652 C 0.66525 0.78485 0.3222 0.0
C2653 C 0.66449 0.76313 0.35527 0.0
C2654 C 0.68278 0.79422 0.32971 0.0
C2655 C 0.69637 0.79637 0.31731 0.0
C2656 C 0.69269 0.78933 0.2971 0.0
C2657 C 0.67516 0.77966 0.28973 0.0
C2658 C 0.66162 0.77753 0.3021 0.0
H2659 H 0.66006 0.75216 0.36443 0.0
H2660 H 0.66878 0.75571 0.34168 0.0
H2661 H 0.67615 0.77402 0.36336 0.0
H2662 H 0.68588 0.80034 0.3451 0.0
H2663 H 0.70964 0.8041 0.32348 0.0
H2664 H 0.06915 0.25759 0.40549 0.0
H2665 H 0.06276 0.23569 0.42867 0.0
H2666 H 0.10511 0.27315 0.46949 0.0
H2667 H 0.11117 0.29539 0.44673 0.0
H2668 H 0.08232 0.21488 0.44417 0.0
H2669 H 0.06516 0.26784 0.50354 0.0
H2670 H 0.06764 0.27273 0.47935 0.0
H2671 H 0.08685 0.27645 0.49647 0.0
C2672 C 0.07708 0.26117 0.41942 0.0
C2673 C 0.09057 0.27829 0.42435 0.0
C2674 C 0.07339 0.24866 0.43266 0.0
C2675 C 0.08318 0.25302 0.45101 0.0
C2676 C 0.097 0.26981 0.45569 0.0
H2677 H 0.09205 0.16933 0.5243 0.0
H2678 H 0.09682 0.19282 0.50255 0.0
C2679 C 0.10055 0.28242 0.44258 0.0
C2680 C 0.07929 0.23971 0.46502 0.0
H2681 H 0.07046 0.2384 0.51201 0.0
C2682 C 0.0796 0.22 0.45896 0.0
C2683 C 0.07541 0.24631 0.48422 0.0
C2684 C 0.07355 0.26694 0.49122 0.0
C2685 C 0.07659 0.20681 0.47169 0.0
C2686 C 0.07375 0.21366 0.49122 0.0
C2687 C 0.07295 0.23325 0.49714 0.0
C2688 C 0.07149 0.20067 0.50566 0.0
C2689 C 0.0762 0.1856 0.46396 0.0
C2690 C 0.05613 0.19813 0.51551 0.0
C2691 C 0.05354 0.18499 0.52825 0.0
C2692 C 0.06625 0.17414 0.53124 0.0
C2693 C 0.08194 0.17733 0.52201 0.0
C2694 C 0.08461 0.19062 0.50949 0.0
H2695 H 0.07309 0.18178 0.44789 0.0
H2696 H 0.08945 0.18277 0.4674 0.0
H2697 H 0.06623 0.17583 0.47066 0.0
H2698 H 0.04589 0.20587 0.51289 0.0
H2699 H 0.0413 0.18271 0.53514 0.0
H2700 H 0.55774 0.29052 0.22329 0.0
H2701 H 0.58391 0.28849 0.2435 0.0
H2702 H 0.61095 0.27753 0.19198 0.0
H2703 H 0.58518 0.27991 0.17183 0.0
H2704 H 0.5982 0.25681 0.24222 0.0
H2705 H 0.6488 0.31831 0.22752 0.0
H2706 H 0.62535 0.31592 0.22159 0.0
H2707 H 0.63784 0.30285 0.20528 0.0
C2708 C 0.5694 0.28805 0.21632 0.0
C2709 C 0.56938 0.28539 0.19595 0.0
C2710 C 0.58431 0.28685 0.22788 0.0
C2711 C 0.59947 0.28313 0.21927 0.0
C2712 C 0.59958 0.28089 0.199 0.0
H2713 H 0.67725 0.22234 0.24751 0.0
H2714 H 0.65009 0.23264 0.23925 0.0
C2715 C 0.58475 0.28213 0.18747 0.0
C2716 C 0.61468 0.27995 0.23109 0.0
H2717 H 0.65987 0.29238 0.23836 0.0
C2718 C 0.61167 0.26482 0.24169 0.0
C2719 C 0.63222 0.29062 0.23071 0.0
C2720 C 0.63623 0.30797 0.22083 0.0
C2721 C 0.62583 0.25932 0.25093 0.0
C2722 C 0.64345 0.26891 0.24912 0.0
C2723 C 0.64638 0.28481 0.23952 0.0
C2724 C 0.65906 0.26207 0.25597 0.0
C2725 C 0.62175 0.24316 0.26236 0.0
C2726 C 0.67321 0.2752 0.26797 0.0
C2727 C 0.68883 0.26941 0.27248 0.0
C2728 C 0.69056 0.25035 0.26508 0.0
C2729 C 0.67617 0.23702 0.25364 0.0
C2730 C 0.66061 0.24288 0.24898 0.0
H2731 H 0.60857 0.24228 0.26807 0.0
H2732 H 0.62135 0.22899 0.25263 0.0
H2733 H 0.63198 0.24525 0.27476 0.0
H2734 H 0.67233 0.29009 0.27348 0.0
H2735 H 0.69969 0.27994 0.28146 0.0
H2736 H 0.5976 0.84957 0.93254 0.0
H2737 H 0.59609 0.88182 0.95007 0.0
H2738 H 0.59967 0.90388 0.89669 0.0
H2739 H 0.60138 0.87167 0.87897 0.0
H2740 H 0.61941 0.93049 0.93186 0.0
H2741 H 0.54871 0.89911 0.93975 0.0
H2742 H 0.56422 0.8863 0.94836 0.0
H2743 H 0.56136 0.88687 0.92287 0.0
C2744 C 0.59836 0.86134 0.92455 0.0
C2745 C 0.59931 0.85801 0.90431 0.0
C2746 C 0.59749 0.87973 0.9346 0.0
C2747 C 0.59748 0.89504 0.92457 0.0
C2748 C 0.59961 0.89216 0.90462 0.0
H2749 H 0.55048 0.99237 0.96492 0.0
H2750 H 0.56018 0.96579 0.94475 0.0
C2751 C 0.60054 0.87375 0.89454 0.0
C2752 C 0.59352 0.9134 0.93453 0.0
H2753 H 0.56074 0.93143 0.95647 0.0
C2754 C 0.60659 0.93079 0.93722 0.0
C2755 C 0.57666 0.91368 0.94114 0.0
C2756 C 0.56185 0.89555 0.93777 0.0
C2757 C 0.60335 0.9485 0.94685 0.0
C2758 C 0.58668 0.94862 0.95404 0.0
C2759 C 0.57353 0.93126 0.95098 0.0
C2760 C 0.58246 0.96642 0.9651 0.0
C2761 C 0.61766 0.96692 0.94905 0.0
C2762 C 0.59197 0.97575 0.98309 0.0
C2763 C 0.58652 0.99104 0.99463 0.0
C2764 C 0.57128 0.99698 0.98851 0.0
C2765 C 0.56219 0.98806 0.97015 0.0
C2766 C 0.56771 0.97288 0.95859 0.0
H2767 H 0.62751 0.96539 0.93831 0.0
H2768 H 0.6119 0.97955 0.94727 0.0
H2769 H 0.62479 0.97014 0.96385 0.0
H2770 H 0.60321 0.97077 0.98854 0.0
H2771 H 0.59401 0.99785 0.00853 0.0
H2772 H 0.98522 0.79666 0.71587 0.0
H2773 H 0.95862 0.79469 0.73325 0.0
H2774 H 0.92829 0.79941 0.68152 0.0
H2775 H 0.95478 0.80125 0.66392 0.0
H2776 H 0.93652 0.82165 0.73954 0.0
H2777 H 0.90015 0.74933 0.69735 0.0
H2778 H 0.92371 0.7584 0.69702 0.0
H2779 H 0.90816 0.76707 0.6828 0.0
C2780 C 0.97291 0.79733 0.70818 0.0
C2781 C 0.97208 0.79901 0.68847 0.0
C2782 C 0.95774 0.79619 0.71814 0.0
C2783 C 0.94148 0.79658 0.70855 0.0
C2784 C 0.94067 0.79872 0.68904 0.0
H2785 H 0.84352 0.81483 0.75092 0.0
H2786 H 0.87236 0.81762 0.73801 0.0
C2787 C 0.95585 0.7999 0.67906 0.0
C2788 C 0.9254 0.79497 0.71905 0.0
H2789 H 0.88392 0.7667 0.71906 0.0
C2790 C 0.92503 0.80963 0.73512 0.0
C2791 C 0.91059 0.77906 0.7134 0.0
C2792 C 0.91064 0.76245 0.69681 0.0
C2793 C 0.90998 0.80908 0.74537 0.0
C2794 C 0.89495 0.79356 0.73932 0.0
C2795 C 0.89547 0.77863 0.72357 0.0
C2796 C 0.87831 0.79287 0.74872 0.0
C2797 C 0.91029 0.82485 0.76284 0.0
C2798 C 0.87212 0.77798 0.75894 0.0
C2799 C 0.85571 0.77653 0.76658 0.0
C2800 C 0.8453 0.78993 0.76406 0.0
C2801 C 0.85151 0.80474 0.7537 0.0
C2802 C 0.86796 0.8063 0.74624 0.0
H2803 H 0.92376 0.83437 0.76724 0.0
H2804 H 0.90114 0.8341 0.75948 0.0
H2805 H 0.90567 0.81811 0.77528 0.0
H2806 H 0.87986 0.76735 0.76076 0.0
H2807 H 0.85101 0.76475 0.77416 0.0
H2808 H 0.16754 0.05436 0.84566 0.0
H2809 H 0.15083 0.05437 0.87403 0.0
H2810 H 0.11979 0.99694 0.84863 0.0
H2811 H 0.13675 0.99679 0.81985 0.0
H2812 H 0.11642 0.05294 0.87915 0.0
H2813 H 0.13309 0.98829 0.90264 0.0
H2814 H 0.1445 0.99964 0.88444 0.0
H2815 H 0.12283 0.98376 0.87814 0.0
C2816 C 0.1572 0.04158 0.84591 0.0
C2817 C 0.15377 0.02552 0.83008 0.0
C2818 C 0.14752 0.04165 0.86238 0.0
C2819 C 0.13399 0.02559 0.86411 0.0
C2820 C 0.13031 0.00949 0.84825 0.0
H2821 H 0.06725 1.00599 0.96217 0.0
H2822 H 0.08115 1.00267 0.93152 0.0
C2823 C 0.13999 0.00946 0.83154 0.0
C2824 C 0.12383 0.02622 0.88229 0.0
H2825 H 0.1133 1.00334 0.92085 0.0
C2826 C 0.1158 0.04201 0.88819 0.0
C2827 C 0.12266 0.01209 0.89445 0.0
C2828 C 0.13133 0.99506 0.88978 0.0
C2829 C 0.10678 0.04399 0.90531 0.0
C2830 C 0.10599 0.03015 0.91777 0.0
C2831 C 0.11377 0.01416 0.91172 0.0
C2832 C 0.09737 0.03212 0.93703 0.0
C2833 C 0.09773 0.06079 0.90947 0.0
C2834 C 0.10177 0.04958 0.95116 0.0
C2835 C 0.09355 0.05159 0.96873 0.0
C2836 C 0.08064 0.03617 0.97317 0.0
C2837 C 0.07668 0.01846 0.95936 0.0
C2838 C 0.08484 0.01648 0.94169 0.0
H2839 H 0.09427 0.06579 0.89592 0.0
H2840 H 0.08541 0.05675 0.9166 0.0
H2841 H 0.10689 0.07329 0.91926 0.0
H2842 H 0.11175 0.0618 0.94874 0.0
H2843 H 0.09738 0.06542 0.97885 0.0
H2844 H 0.80299 0.42052 0.57628 0.0
H2845 H 0.80784 0.39766 0.59713 0.0
H2846 H 0.84066 0.37374 0.55608 0.0
H2847 H 0.83624 0.39678 0.53542 0.0
H2848 H 0.79844 0.35817 0.58777 0.0
H2849 H 0.87117 0.3824 0.6071 0.0
H2850 H 0.85839 0.39692 0.5963 0.0
H2851 H 0.8649 0.3769 0.58134 0.0
C2852 C 0.81139 0.41053 0.57181 0.0
C2853 C 0.81925 0.41046 0.55423 0.0
C2854 C 0.81415 0.3975 0.58372 0.0
C2855 C 0.8248 0.3842 0.57826 0.0
C2856 C 0.83274 0.38419 0.56079 0.0
H2857 H 0.81707 0.27812 0.6257 0.0
H2858 H 0.81814 0.30095 0.60331 0.0
C2859 C 0.83009 0.39729 0.54894 0.0
C2860 C 0.82669 0.36955 0.59027 0.0
H2861 H 0.85705 0.35218 0.61513 0.0
C2862 C 0.81124 0.35688 0.5938 0.0
C2863 C 0.84342 0.36803 0.5982 0.0
C2864 C 0.86041 0.3819 0.59572 0.0
C2865 C 0.81204 0.34267 0.60506 0.0
C2866 C 0.82879 0.34076 0.61254 0.0
C2867 C 0.84426 0.35349 0.60909 0.0
C2868 C 0.83038 0.32652 0.62512 0.0
C2869 C 0.79489 0.33023 0.6093 0.0
C2870 C 0.83785 0.33323 0.64444 0.0
C2871 C 0.83754 0.32022 0.65714 0.0
C2872 C 0.82968 0.30026 0.65075 0.0
C2873 C 0.8232 0.2934 0.63106 0.0
C2874 C 0.82361 0.30645 0.61831 0.0
H2875 H 0.78337 0.33669 0.60653 0.0
H2876 H 0.79244 0.31561 0.59972 0.0
H2877 H 0.7956 0.32826 0.62467 0.0
H2878 H 0.8433 0.34865 0.64991 0.0
H2879 H 0.843 0.32587 0.67213 0.0
H2880 H 0.45841 0.08128 0.34357 0.0
H2881 H 0.48084 0.08343 0.37036 0.0
H2882 H 0.44677 0.03585 0.3897 0.0
H2883 H 0.42418 0.03357 0.36299 0.0
H2884 H 0.47628 0.08775 0.41327 0.0
H2885 H 0.49581 0.01986 0.37951 0.0
H2886 H 0.48447 0.03349 0.36564 0.0
H2887 H 0.47234 0.01796 0.3802 0.0
C2888 C 0.45563 0.07132 0.35358 0.0
C2889 C 0.43957 0.05715 0.35112 0.0
C2890 C 0.46845 0.07262 0.36886 0.0
C2891 C 0.46546 0.05966 0.38176 0.0
C2892 C 0.4493 0.04584 0.37968 0.0
H2893 H 0.50923 0.02761 0.479 0.0
H2894 H 0.49354 0.03251 0.45005 0.0
C2895 C 0.43641 0.0446 0.36449 0.0
C2896 C 0.47935 0.06025 0.39723 0.0
H2897 H 0.50639 0.03294 0.41271 0.0
C2898 C 0.4831 0.07596 0.41311 0.0
C2899 C 0.48827 0.0449 0.39671 0.0
C2900 C 0.48518 0.02814 0.37954 0.0
C2901 C 0.49483 0.07609 0.42917 0.0
C2902 C 0.5031 0.06025 0.42904 0.0
C2903 C 0.49999 0.04505 0.4127 0.0
C2904 C 0.51318 0.05783 0.44658 0.0
C2905 C 0.49754 0.09255 0.44658 0.0
C2906 C 0.5295 0.07049 0.45419 0.0
C2907 C 0.5386 0.06776 0.47094 0.0
C2908 C 0.53151 0.05226 0.48016 0.0
C2909 C 0.51517 0.03966 0.47233 0.0
C2910 C 0.50615 0.0424 0.45572 0.0
H2911 H 0.48838 0.1024 0.44531 0.0
H2912 H 0.49551 0.08666 0.46012 0.0
H2913 H 0.51137 0.10131 0.448 0.0
H2914 H 0.53518 0.0824 0.44718 0.0
H2915 H 0.55105 0.07785 0.47673 0.0
H2916 H 0.8101 0.70477 0.0733 0.0
H2917 H 0.81172 0.72119 0.10717 0.0
H2918 H 0.79919 0.77154 0.08858 0.0
H2919 H 0.79737 0.75512 0.05446 0.0
H2920 H 0.83389 0.75771 0.12623 0.0
H2921 H 0.76189 0.75713 0.12702 0.0
H2922 H 0.77024 0.7418 0.10813 0.0
H2923 H 0.77335 0.76744 0.10836 0.0
C2924 C 0.80771 0.71935 0.07634 0.0
C2925 C 0.80352 0.72859 0.06114 0.0
C2926 C 0.80866 0.72872 0.09573 0.0
C2927 C 0.80538 0.74748 0.10037 0.0
C2928 C 0.80151 0.75694 0.08529 0.0
H2929 H 0.81177 0.80745 0.22376 0.0
H2930 H 0.80988 0.80339 0.18798 0.0
C2931 C 0.80058 0.74757 0.06581 0.0
C2932 C 0.80604 0.75684 0.12111 0.0
H2933 H 0.77976 0.76868 0.15678 0.0
C2934 C 0.82213 0.76044 0.13285 0.0
C2935 C 0.79066 0.76039 0.1297 0.0
C2936 C 0.77299 0.75642 0.11776 0.0
C2937 C 0.82307 0.76673 0.15307 0.0
C2938 C 0.80753 0.76936 0.16174 0.0
C2939 C 0.79163 0.76672 0.14998 0.0
C2940 C 0.80718 0.7721 0.18307 0.0
C2941 C 0.84047 0.76969 0.16523 0.0
C2942 C 0.80606 0.75584 0.19192 0.0
C2943 C 0.80702 0.7581 0.21212 0.0
C2944 C 0.80886 0.77662 0.22382 0.0
C2945 C 0.80986 0.79296 0.21498 0.0
C2946 C 0.80888 0.79068 0.19464 0.0
H2947 H 0.85183 0.77023 0.1562 0.0
H2948 H 0.84287 0.78343 0.17627 0.0
H2949 H 0.83991 0.75745 0.17313 0.0
H2950 H 0.80482 0.74143 0.18318 0.0
H2951 H 0.80649 0.74536 0.21867 0.0
H2952 H 0.11722 0.02615 0.72954 0.0
H2953 H 0.1051 0.02927 0.6977 0.0
H2954 H 0.15215 0.01724 0.67302 0.0
H2955 H 0.16419 0.01351 0.70503 0.0
H2956 H 0.11326 0.05323 0.67458 0.0
H2957 H 0.11752 0.98186 0.63186 0.0
H2958 H 0.12151 0.98752 0.65804 0.0
H2959 H 0.13874 0.99586 0.64326 0.0
C2960 C 0.12505 0.02391 0.71738 0.0
C2961 C 0.1418 0.01935 0.72025 0.0
C2962 C 0.11802 0.02581 0.69894 0.0
C2963 C 0.12732 0.02325 0.68231 0.0
C2964 C 0.14416 0.01878 0.68511 0.0
H2965 H 0.11059 0.03887 0.56112 0.0
H2966 H 0.12165 0.03539 0.59337 0.0
C2967 C 0.1512 0.01674 0.70365 0.0
C2968 C 0.11951 0.02587 0.66254 0.0
H2969 H 0.11053 1.00493 0.61375 0.0
C2970 C 0.11256 0.04246 0.6614 0.0
C2971 C 0.11836 0.01209 0.64486 0.0
C2972 C 0.12425 0.99324 0.64453 0.0
C2973 C 0.10509 0.04578 0.64358 0.0
C2974 C 0.10415 0.03213 0.62594 0.0
C2975 C 0.11105 0.01554 0.62703 0.0
C2976 C 0.09693 0.03519 0.60618 0.0
C2977 C 0.09897 0.06442 0.6436 0.0
C2978 C 0.07911 0.03637 0.60196 0.0
C2979 C 0.0726 0.03828 0.58314 0.0
C2980 C 0.08378 0.03941 0.56795 0.0
C2981 C 0.10155 0.03838 0.57234 0.0
C2982 C 0.10795 0.03628 0.59093 0.0
H2983 H 0.10274 0.07478 0.65775 0.0
H2984 H 0.10484 0.07163 0.63194 0.0
H2985 H 0.08432 0.06108 0.64057 0.0
H2986 H 0.07002 0.03523 0.61308 0.0
H2987 H 0.05874 0.0384 0.58037 0.0
H2988 H 0.81426 0.43539 0.4484 0.0
H2989 H 0.8172 0.40872 0.42261 0.0
H2990 H 0.79103 0.36674 0.45495 0.0
H2991 H 0.78784 0.39332 0.4808 0.0
H2992 H 0.83558 0.37869 0.42833 0.0
H2993 H 0.76465 0.3489 0.39939 0.0
H2994 H 0.77236 0.3731 0.41399 0.0
H2995 H 0.77001 0.35214 0.42524 0.0
C2996 C 0.80889 0.4205 0.44993 0.0
C2997 C 0.80081 0.41647 0.46663 0.0
C2998 C 0.81066 0.40529 0.43523 0.0
C2999 C 0.80431 0.38582 0.43692 0.0
C3000 C 0.79584 0.3817 0.45332 0.0
H3001 H 0.80537 0.28819 0.34145 0.0
H3002 H 0.80446 0.30432 0.37516 0.0
C3003 C 0.79405 0.39691 0.46805 0.0
C3004 C 0.80719 0.36997 0.4217 0.0
H3005 H 0.78586 0.33454 0.38355 0.0
C3006 C 0.82471 0.36884 0.41867 0.0
C3007 C 0.79296 0.357 0.40938 0.0
C3008 C 0.77391 0.3578 0.41199 0.0
C3009 C 0.82843 0.35568 0.40299 0.0
C3010 C 0.81425 0.34359 0.38993 0.0
C3011 C 0.79669 0.34384 0.39367 0.0
C3012 C 0.81728 0.33303 0.37079 0.0
C3013 C 0.8475 0.35524 0.40018 0.0
C3014 C 0.8251 0.34378 0.35739 0.0
C3015 C 0.82528 0.33474 0.33814 0.0
C3016 C 0.81746 0.31478 0.33185 0.0
C3017 C 0.81087 0.30372 0.34567 0.0
C3018 C 0.81051 0.31285 0.36496 0.0
H3019 H 0.85598 0.35993 0.41427 0.0
H3020 H 0.84877 0.34041 0.3933 0.0
H3021 H 0.8526 0.3655 0.39056 0.0
H3022 H 0.8302 0.35942 0.36153 0.0
H3023 H 0.83078 0.34371 0.32805 0.0
H3024 H 0.48136 0.09679 0.28003 0.0
H3025 H 0.50305 0.09452 0.25616 0.0
H3026 H 0.46506 0.04775 0.21856 0.0
H3027 H 0.44325 0.05009 0.2421 0.0
H3028 H 0.51682 0.06274 0.24334 0.0
H3029 H 0.48299 0.08343 0.18132 0.0
H3030 H 0.47654 0.08809 0.20575 0.0
H3031 H 0.46881 0.06436 0.19039 0.0
C3032 C 0.47755 0.08619 0.26657 0.0
C3033 C 0.46058 0.07363 0.26293 0.0
C3034 C 0.48996 0.08491 0.25297 0.0
C3035 C 0.48556 0.07117 0.2355 0.0
C3036 C 0.46858 0.05877 0.23176 0.0
H3037 H 0.5438 1.00814 0.16038 0.0
H3038 H 0.52974 0.02249 0.18786 0.0
C3039 C 0.45616 0.06005 0.24529 0.0
C3040 C 0.49899 0.06877 0.22168 0.0
H3041 H 0.5054 0.0653 0.17363 0.0
C3042 C 0.5145 0.06362 0.22815 0.0
C3043 C 0.49609 0.07027 0.20199 0.0
C3044 C 0.48029 0.07705 0.19449 0.0
C3045 C 0.5267 0.05881 0.21516 0.0
C3046 C 0.52306 0.05882 0.19517 0.0
C3047 C 0.50808 0.06508 0.18893 0.0
C3048 C 0.53381 0.05108 0.18021 0.0
C3049 C 0.54322 0.05354 0.22293 0.0
C3050 C 0.54076 0.06238 0.1668 0.0
C3051 C 0.54866 0.05414 0.151 0.0
C3052 C 0.54969 0.03445 0.14834 0.0
C3053 C 0.54342 0.02342 0.16224 0.0
C3054 C 0.53542 0.03163 0.17797 0.0
H3055 H 0.54704 0.06056 0.23848 0.0
H3056 H 0.54062 0.0375 0.22197 0.0
H3057 H 0.55455 0.05794 0.21443 0.0
H3058 H 0.53959 0.0774 0.16823 0.0
H3059 H 0.55353 0.06301 0.14056 0.0
H3060 H 0.81711 0.70224 0.9569 0.0
H3061 H 0.82063 0.71563 0.92725 0.0
H3062 H 0.7754 0.74102 0.93745 0.0
H3063 H 0.77144 0.72712 0.96679 0.0
H3064 H 0.77345 0.72294 0.9006 0.0
H3065 H 0.84063 0.77067 0.92132 0.0
H3066 H 0.83999 0.7457 0.92264 0.0
H3067 H 0.82777 0.75943 0.93863 0.0
C3068 C 0.808 0.71082 0.95293 0.0
C3069 C 0.79402 0.71366 0.96423 0.0
C3070 C 0.8101 0.71857 0.93602 0.0
C3071 C 0.79847 0.72962 0.93028 0.0
C3072 C 0.78457 0.73259 0.94163 0.0
H3073 H 0.81403 0.80264 0.84371 0.0
H3074 H 0.81211 0.78924 0.87339 0.0
C3075 C 0.78234 0.72467 0.95842 0.0
C3076 C 0.80028 0.73741 0.91203 0.0
H3077 H 0.8293 0.76569 0.88807 0.0
C3078 C 0.78564 0.73236 0.89789 0.0
C3079 C 0.81612 0.74989 0.9086 0.0
C3080 C 0.83196 0.75691 0.92369 0.0
C3081 C 0.78641 0.73933 0.88038 0.0
C3082 C 0.80247 0.7512 0.87664 0.0
C3083 C 0.81707 0.75637 0.89084 0.0
C3084 C 0.80418 0.75909 0.85844 0.0
C3085 C 0.76985 0.73432 0.86635 0.0
C3086 C 0.80073 0.7466 0.84012 0.0
C3087 C 0.80166 0.75426 0.82308 0.0
C3088 C 0.80637 0.77452 0.82404 0.0
C3089 C 0.81045 0.78694 0.84242 0.0
C3090 C 0.80931 0.77931 0.85943 0.0
H3091 H 0.7577 0.73 0.8737 0.0
H3092 H 0.76857 0.74683 0.8594 0.0
H3093 H 0.77051 0.72181 0.85474 0.0
H3094 H 0.79728 0.73091 0.83897 0.0
H3095 H 0.79886 0.74431 0.80925 0.0
H3096 H 0.85563 0.12854 0.99085 0.0
H3097 H 0.87561 0.10632 0.98482 0.0
H3098 H 0.84194 0.06488 0.0123 0.0
H3099 H 0.82176 0.08688 0.01821 0.0
H3100 H 0.89349 0.09318 0.0137 0.0
H3101 H 0.8504 0.03092 0.96153 0.0
H3102 H 0.84548 0.0548 0.96665 0.0
H3103 H 0.84081 0.03856 0.9835 0.0
C3104 C 0.85236 0.11462 0.99544 0.0
C3105 C 0.83711 0.10949 1.00502 0.0
C3106 C 0.86379 0.10194 0.99197 0.0
C3107 C 0.86011 0.08386 0.99787 0.0
C3108 C 0.84481 0.07859 0.00726 0.0
H3109 H 0.92156 0.99628 1.00482 0.0
H3110 H 0.89765 0.01399 1.0047 0.0
C3111 C 0.83338 0.09126 0.01075 0.0
C3112 C 0.87296 0.07117 0.99546 0.0
H3113 H 0.87789 0.026 0.97417 0.0
C3114 C 0.89012 0.07854 1.00496 0.0
C3115 C 0.86843 0.05202 0.98419 0.0
C3116 C 0.85033 0.04361 0.97323 0.0
C3117 C 0.90286 0.06722 1.00366 0.0
C3118 C 0.89842 0.04814 0.99225 0.0
C3119 C 0.88123 0.04066 0.98284 0.0
C3120 C 0.91164 0.03592 0.98995 0.0
C3121 C 0.9209 0.07565 0.01483 0.0
C3122 C 0.92702 0.04198 0.98098 0.0
C3123 C 0.94062 0.03196 0.98105 0.0
C3124 C 0.93901 0.01561 0.98996 0.0
C3125 C 0.9231 1.00879 0.9978 0.0
C3126 C 0.90949 0.01891 0.9978 0.0
H3127 H 0.92074 0.08833 0.02651 0.0
H3128 H 0.92569 0.06447 0.0215 0.0
H3129 H 0.93054 0.08073 1.00469 0.0
H3130 H 0.92875 0.05486 0.97451 0.0
H3131 H 0.95263 0.03732 0.97462 0.0
H3132 H 0.35638 0.4611 0.0489 0.0
H3133 H 0.38663 0.48064 0.0503 0.0
H3134 H 0.40751 0.43074 0.05773 0.0
H3135 H 0.37737 0.41135 0.0571 0.0
H3136 H 0.42653 0.46327 0.081 0.0
H3137 H 0.41709 0.47688 1.00602 0.0
H3138 H 0.40188 0.48553 0.02183 0.0
H3139 H 0.40097 0.45977 0.01563 0.0
C3140 C 0.36743 0.45431 0.05087 0.0
C3141 C 0.3645 0.43464 0.05271 0.0
C3142 C 0.3847 0.46547 0.05158 0.0
C3143 C 0.39933 0.45704 0.05369 0.0
C3144 C 0.39643 0.43754 0.05601 0.0
H3145 H 0.50261 0.49446 0.01769 0.0
H3146 H 0.47284 0.4782 0.02271 0.0
C3147 C 0.37918 0.42646 0.0556 0.0
C3148 C 0.41766 0.4683 0.05306 0.0
H3149 H 0.44436 0.49301 0.02432 0.0
C3150 C 0.43045 0.4698 0.06862 0.0
C3151 C 0.42279 0.4766 0.03679 0.0
C3152 C 0.41002 0.47448 0.01904 0.0
C3153 C 0.44827 0.47919 0.06827 0.0
C3154 C 0.45331 0.48778 0.05214 0.0
C3155 C 0.44046 0.48652 0.03673 0.0
C3156 C 0.47198 0.49715 0.05021 0.0
C3157 C 0.4616 0.47917 0.08482 0.0
C3158 C 0.48161 0.51307 0.06418 0.0
C3159 C 0.4989 0.52227 0.06152 0.0
C3160 C 0.50666 0.51606 0.04457 0.0
C3161 C 0.49706 0.49986 0.03083 0.0
C3162 C 0.47996 0.49052 0.03364 0.0
H3163 H 0.45658 0.46765 0.09318 0.0
H3164 H 0.47433 0.4769 0.07939 0.0
H3165 H 0.46428 0.49348 0.09498 0.0
H3166 H 0.47566 0.51864 0.07696 0.0
H3167 H 0.50606 0.53436 0.07261 0.0
H3168 H 0.38622 0.61135 0.77139 0.0
H3169 H 0.36844 0.636 0.76928 0.0
H3170 H 0.41199 0.68106 0.80009 0.0
H3171 H 0.42964 0.65694 0.80196 0.0
H3172 H 0.35555 0.66253 0.79522 0.0
H3173 H 0.40281 0.70567 0.75476 0.0
H3174 H 0.40459 0.68177 0.75838 0.0
H3175 H 0.4132 0.70292 0.77728 0.0
C3176 C 0.39208 0.6265 0.77767 0.0
C3177 C 0.4097 0.63178 0.78671 0.0
C3178 C 0.38179 0.64076 0.7765 0.0
C3179 C 0.38871 0.66092 0.78414 0.0
C3180 C 0.40614 0.66599 0.79349 0.0
H3181 H 0.32768 0.75651 0.80608 0.0
H3182 H 0.34202 0.72934 0.8095 0.0
C3183 C 0.41633 0.65189 0.79467 0.0
C3184 C 0.37811 0.67668 0.78246 0.0
H3185 H 0.38059 0.72089 0.76814 0.0
C3186 C 0.36111 0.67523 0.78924 0.0
C3187 C 0.38481 0.6935 0.77446 0.0
C3188 C 0.40226 0.69602 0.76562 0.0
C3189 C 0.35112 0.68987 0.7886 0.0
C3190 C 0.35811 0.70699 0.78119 0.0
C3191 C 0.37496 0.70821 0.77413 0.0
C3192 C 0.34802 0.72322 0.77948 0.0
C3193 C 0.33278 0.68644 0.79528 0.0
C3194 C 0.34635 0.72959 0.76167 0.0
C3195 C 0.33815 0.74515 0.75976 0.0
C3196 C 0.33103 0.75527 0.77549 0.0
C3197 C 0.33249 0.74896 0.79342 0.0
C3198 C 0.34078 0.73322 0.79534 0.0
H3199 H 0.32754 0.67087 0.79597 0.0
H3200 H 0.33318 0.69529 0.81006 0.0
H3201 H 0.32348 0.69092 0.7853 0.0
H3202 H 0.3516 0.72257 0.74903 0.0
H3203 H 0.3376 0.74952 0.74575 0.0
H3204 H 0.24002 0.60138 0.52138 0.0
H3205 H 0.20828 0.58756 0.522 0.0
H3206 H 0.19903 0.6456 0.53625 0.0
H3207 H 0.23052 0.65952 0.53557 0.0
H3208 H 0.18615 0.59415 0.55347 0.0
H3209 H 0.16428 0.61876 0.48719 0.0
H3210 H 0.18698 0.61758 0.49302 0.0
H3211 H 0.17855 0.63767 0.50505 0.0
C3212 C 0.23122 0.61118 0.52466 0.0
C3213 C 0.23775 0.63154 0.5283 0.0
C3214 C 0.21313 0.60327 0.52501 0.0
C3215 C 0.20135 0.6156 0.52887 0.0
C3216 C 0.2079 0.63588 0.5329 0.0
H3217 H 0.08978 0.60643 0.53742 0.0
H3218 H 0.12229 0.61668 0.54072 0.0
C3219 C 0.22592 0.64378 0.53258 0.0
C3220 C 0.18217 0.60744 0.5288 0.0
H3221 H 0.14173 0.60717 0.50668 0.0
C3222 C 0.1764 0.59673 0.5431 0.0
C3223 C 0.16958 0.611 0.51531 0.0
C3224 C 0.17512 0.62173 0.49915 0.0
C3225 C 0.15825 0.58996 0.5446 0.0
C3226 C 0.14567 0.59395 0.53141 0.0
C3227 C 0.15146 0.60433 0.51689 0.0
C3228 C 0.12635 0.58744 0.53221 0.0
C3229 C 0.15258 0.57961 0.5609 0.0
C3230 C 0.11797 0.56764 0.52646 0.0
C3231 C 0.09948 0.56181 0.52449 0.0
C3232 C 0.08909 0.57568 0.52848 0.0
C3233 C 0.09753 0.59545 0.53461 0.0
C3234 C 0.11603 0.60129 0.53651 0.0
H3235 H 0.16405 0.57816 0.57033 0.0
H3236 H 0.14444 0.58796 0.56997 0.0
H3237 H 0.14429 0.56482 0.5549 0.0
H3238 H 0.12571 0.5568 0.5226 0.0
H3239 H 0.09342 0.54662 0.519 0.0
H3240 H 0.74564 0.99503 0.75393 0.0
H3241 H 0.76917 0.98021 0.76491 0.0
H3242 H 0.73903 0.96328 0.81139 0.0
H3243 H 0.71537 0.97784 0.80046 0.0
H3244 H 0.78885 0.99013 0.80196 0.0
H3245 H 0.75202 0.91267 0.78535 0.0
H3246 H 0.74459 0.93144 0.77518 0.0
H3247 H 0.74052 0.92862 0.79962 0.0
C3248 C 0.74391 0.98795 0.76636 0.0
C3249 C 0.72861 0.98756 0.77631 0.0
C3250 C 0.7574 0.97958 0.77264 0.0
C3251 C 0.75574 0.97055 0.78884 0.0
C3252 C 0.74041 0.96993 0.79866 0.0
H3253 H 0.81446 0.91307 0.85643 0.0
H3254 H 0.79603 0.93375 0.84546 0.0
C3255 C 0.72693 0.9783 0.79242 0.0
C3256 C 0.77021 0.96224 0.79592 0.0
H3257 H 0.77909 0.92009 0.80591 0.0
C3258 C 0.78682 0.97479 0.80269 0.0
C3259 C 0.76749 0.94222 0.79669 0.0
C3260 C 0.75025 0.9279 0.78865 0.0
C3261 C 0.80061 0.9679 0.81094 0.0
C3262 C 0.79762 0.94802 0.8123 0.0
C3263 C 0.78119 0.93541 0.80505 0.0
C3264 C 0.81116 0.93975 0.82137 0.0
C3265 C 0.81805 0.98191 0.81866 0.0
C3266 C 0.82618 0.93705 0.8119 0.0
C3267 C 0.83682 0.92539 0.81829 0.0
C3268 C 0.83238 0.91621 0.83404 0.0
C3269 C 0.81816 0.92016 0.84434 0.0
C3270 C 0.80762 0.93186 0.83805 0.0
H3271 H 0.81731 0.99735 0.81924 0.0
H3272 H 0.8223 0.98007 0.83348 0.0
H3273 H 0.82839 0.97869 0.80907 0.0
H3274 H 0.82894 0.94278 0.79882 0.0
H3275 H 0.84756 0.92223 0.80995 0.0
H3276 H 0.74491 0.90873 0.5151 0.0
H3277 H 0.72354 0.92908 0.51217 0.0
H3278 H 0.76424 0.98067 0.53591 0.0
H3279 H 0.78575 0.96051 0.53862 0.0
H3280 H 0.71264 0.95439 0.54128 0.0
H3281 H 0.74404 0.99436 0.48656 0.0
H3282 H 0.75 0.97256 0.49174 0.0
H3283 H 0.75878 0.99572 0.50771 0.0
C3284 C 0.74936 0.92441 0.51959 0.0
C3285 C 0.76708 0.93299 0.527 0.0
C3286 C 0.73712 0.93601 0.51792 0.0
C3287 C 0.74236 0.9564 0.52354 0.0
C3288 C 0.75999 0.965 0.53108 0.0
H3289 H 0.68924 0.05221 0.53132 0.0
H3290 H 0.71023 0.03122 0.53301 0.0
C3291 C 0.77225 0.95343 0.53272 0.0
C3292 C 0.72927 0.96863 0.52206 0.0
H3293 H 0.72071 1.00616 0.50171 0.0
C3294 C 0.71433 0.96563 0.53253 0.0
C3295 C 0.73152 0.98329 0.51065 0.0
C3296 C 0.74686 0.98659 0.49837 0.0
C3297 C 0.70178 0.97717 0.53223 0.0
C3298 C 0.70412 0.99192 0.52094 0.0
C3299 C 0.719 0.99487 0.5104 0.0
C3300 C 0.69129 1.00451 0.51991 0.0
C3301 C 0.68634 0.97381 0.54435 0.0
C3302 C 0.67375 0.99645 0.51176 0.0
C3303 C 0.66175 1.00841 0.51065 0.0
C3304 C 0.66709 0.02869 0.51759 0.0
C3305 C 0.68473 0.0367 0.52563 0.0
C3306 C 0.69673 0.02473 0.52671 0.0
H3307 H 0.68868 0.96522 0.5556 0.0
H3308 H 0.68372 0.9879 0.55165 0.0
H3309 H 0.67425 0.96556 0.53473 0.0
H3310 H 0.66939 0.98092 0.50607 0.0
H3311 H 0.64836 1.0018 0.50405 0.0
H3312 H 0.38406 0.5227 0.7861 0.0
H3313 H 0.36594 0.49001 0.78689 0.0
H3314 H 0.40847 0.46413 0.76628 0.0
H3315 H 0.42651 0.49633 0.76574 0.0
H3316 H 0.35323 0.45617 0.75894 0.0
H3317 H 0.3994 0.44032 0.8137 0.0
H3318 H 0.40127 0.46448 0.80853 0.0
H3319 H 0.41021 0.44669 0.79306 0.0
C3320 C 0.38955 0.51005 0.78174 0.0
C3321 C 0.40694 0.51242 0.77603 0.0
C3322 C 0.37914 0.49128 0.78219 0.0
C3323 C 0.38586 0.47435 0.77708 0.0
C3324 C 0.40299 0.47676 0.77086 0.0
H3325 H 0.35359 0.34791 0.76526 0.0
H3326 H 0.36817 0.38193 0.76608 0.0
C3327 C 0.41333 0.49537 0.77044 0.0
C3328 C 0.3752 0.45419 0.77807 0.0
H3329 H 0.37748 0.41306 0.79619 0.0
C3330 C 0.35847 0.44686 0.76728 0.0
C3331 C 0.38183 0.44175 0.78892 0.0
C3332 C 0.39907 0.44876 0.80186 0.0
C3333 C 0.34869 0.42747 0.76644 0.0
C3334 C 0.35556 0.41491 0.77691 0.0
C3335 C 0.37211 0.42241 0.788 0.0
C3336 C 0.34618 0.39386 0.77624 0.0
C3337 C 0.33136 0.42041 0.75369 0.0
C3338 C 0.32885 0.38874 0.78181 0.0
C3339 C 0.32052 0.36906 0.78157 0.0
C3340 C 0.32927 0.35387 0.77588 0.0
C3341 C 0.34654 0.35905 0.77026 0.0
C3342 C 0.35488 0.37866 0.77053 0.0
H3343 H 0.33017 0.42978 0.74283 0.0
H3344 H 0.32991 0.40515 0.74583 0.0
H3345 H 0.32022 0.42079 0.76292 0.0
H3346 H 0.32184 0.4 0.78677 0.0
H3347 H 0.30744 0.36587 0.78646 0.0
H3348 H 0.21779 0.59267 0.27251 0.0
H3349 H 0.22988 0.62778 0.27892 0.0
H3350 H 0.25646 0.62203 0.2265 0.0
H3351 H 0.24394 0.58673 0.21962 0.0
H3352 H 0.26353 0.64864 0.28514 0.0
H3353 H 0.23007 0.6638 0.21924 0.0
H3354 H 0.22432 0.64052 0.22667 0.0
H3355 H 0.24377 0.64653 0.21415 0.0
C3356 C 0.22621 0.59881 0.26231 0.0
C3357 C 0.22982 0.5869 0.24548 0.0
C3358 C 0.23312 0.61891 0.26601 0.0
C3359 C 0.24383 0.62757 0.25304 0.0
C3360 C 0.24786 0.6157 0.23646 0.0
H3361 H 0.30808 0.74605 0.2815 0.0
H3362 H 0.2974 0.7107 0.27511 0.0
C3363 C 0.24081 0.59553 0.23263 0.0
C3364 C 0.25077 0.64902 0.25715 0.0
H3365 H 0.25042 0.69038 0.23925 0.0
C3366 C 0.26068 0.65777 0.2751 0.0
C3367 C 0.24684 0.66093 0.24413 0.0
C3368 C 0.23553 0.65253 0.22505 0.0
C3369 C 0.26676 0.67809 0.2804 0.0
C3370 C 0.26317 0.68994 0.2672 0.0
C3371 C 0.25324 0.68123 0.24928 0.0
C3372 C 0.26962 0.71142 0.27165 0.0
C3373 C 0.27658 0.68667 0.3003 0.0
C3374 C 0.25758 0.72361 0.27172 0.0
C3375 C 0.26374 0.74388 0.27497 0.0
C3376 C 0.28203 0.75217 0.27766 0.0
C3377 C 0.29398 0.74002 0.27854 0.0
C3378 C 0.28786 0.7198 0.27525 0.0
H3379 H 0.27369 0.67642 0.31053 0.0
H3380 H 0.29107 0.68971 0.29901 0.0
H3381 H 0.27306 0.70058 0.30665 0.0
H3382 H 0.24343 0.71742 0.26907 0.0
H3383 H 0.25427 0.75303 0.27462 0.0
H3384 H 0.51887 0.70753 0.42946 0.0
H3385 H 0.5205 0.67721 0.44057 0.0
H3386 H 0.55235 0.71061 0.49283 0.0
H3387 H 0.55119 0.7408 0.48159 0.0
H3388 H 0.56656 0.68165 0.47826 0.0
H3389 H 0.49495 0.65099 0.48018 0.0
H3390 H 0.50038 0.65573 0.4567 0.0
H3391 H 0.50338 0.67571 0.47712 0.0
C3392 C 0.52607 0.70844 0.44342 0.0
C3393 C 0.53486 0.72673 0.4546 0.0
C3394 C 0.52691 0.69102 0.44985 0.0
C3395 C 0.53635 0.69142 0.46776 0.0
C3396 C 0.54495 0.70972 0.47899 0.0
H3397 H 0.52689 0.59088 0.52592 0.0
H3398 H 0.52557 0.62201 0.51628 0.0
C3399 C 0.54423 0.72707 0.47252 0.0
C3400 C 0.53805 0.67297 0.47454 0.0
H3401 H 0.51436 0.63003 0.48432 0.0
C3402 C 0.5551 0.67041 0.47964 0.0
C3403 C 0.52319 0.65824 0.47663 0.0
C3404 C 0.50444 0.66034 0.47256 0.0
C3405 C 0.55773 0.65377 0.4866 0.0
C3406 C 0.54291 0.63872 0.48817 0.0
C3407 C 0.52583 0.64134 0.48315 0.0
C3408 C 0.54474 0.62031 0.49507 0.0
C3409 C 0.57646 0.65293 0.49277 0.0
C3410 C 0.55596 0.6087 0.48659 0.0
C3411 C 0.55706 0.59117 0.49255 0.0
C3412 C 0.547 0.58471 0.50715 0.0
C3413 C 0.53545 0.59596 0.51532 0.0
C3414 C 0.53452 0.61365 0.50956 0.0
H3415 H 0.5852 0.66778 0.49718 0.0
H3416 H 0.57682 0.64524 0.5051 0.0
H3417 H 0.58197 0.64502 0.48036 0.0
H3418 H 0.56348 0.61283 0.47486 0.0
H3419 H 0.56541 0.58232 0.48531 0.0
H3420 H 0.63757 0.33373 0.6572 0.0
H3421 H 0.66666 0.33448 0.67358 0.0
H3422 H 0.64504 0.27977 0.69051 0.0
H3423 H 0.61605 0.27903 0.67448 0.0
H3424 H 0.66553 0.30633 0.72072 0.0
H3425 H 0.70182 0.30169 0.65463 0.0
H3426 H 0.6908 0.32157 0.65864 0.0
H3427 H 0.67791 0.29687 0.6534 0.0
C3428 C 0.63901 0.32187 0.66442 0.0
C3429 C 0.6244 0.3063 0.66443 0.0
C3430 C 0.6557 0.32224 0.67368 0.0
C3431 C 0.65819 0.30702 0.68309 0.0
C3432 C 0.64355 0.29166 0.68333 0.0
H3433 H 0.75518 0.27462 0.72004 0.0
H3434 H 0.72746 0.27741 0.7034 0.0
C3435 C 0.62693 0.29126 0.6741 0.0
C3436 C 0.67586 0.30705 0.69294 0.0
H3437 H 0.71884 0.30593 0.68484 0.0
C3438 C 0.67719 0.30632 0.71287 0.0
C3439 C 0.69108 0.30674 0.6827 0.0
C3440 C 0.69039 0.30658 0.66113 0.0
C3441 C 0.69322 0.30536 0.7228 0.0
C3442 C 0.70853 0.30541 0.71265 0.0
C3443 C 0.70719 0.30605 0.6927 0.0
C3444 C 0.72587 0.30425 0.72238 0.0
C3445 C 0.69346 0.30374 0.74398 0.0
C3446 C 0.73454 0.31863 0.73835 0.0
C3447 C 0.75042 0.31707 0.74792 0.0
C3448 C 0.75807 0.30108 0.74176 0.0
C3449 C 0.74968 0.28705 0.72534 0.0
C3450 C 0.73378 0.28864 0.71577 0.0
H3451 H 0.67987 0.29888 0.74821 0.0
H3452 H 0.70149 0.29333 0.74723 0.0
H3453 H 0.69949 0.31825 0.75315 0.0
H3454 H 0.72902 0.3311 0.74347 0.0
H3455 H 0.75669 0.32844 0.76016 0.0
H3456 H 0.01196 0.32872 0.95108 0.0
H3457 H 0.01315 0.36338 0.96315 0.0
H3458 H 0.06983 0.37406 0.97621 0.0
H3459 H 0.06882 0.33962 0.96376 0.0
H3460 H 0.02442 0.38891 0.99786 0.0
H3461 H 0.06618 0.41232 0.94099 0.0
H3462 H 0.05575 0.3871 0.94031 0.0
H3463 H 0.07599 0.39844 0.95569 0.0
C3464 C 0.02467 0.3384 0.95668 0.0
C3465 C 0.04032 0.33134 0.95623 0.0
C3466 C 0.02534 0.35826 0.96358 0.0
C3467 C 0.04164 0.37153 0.97019 0.0
C3468 C 0.05714 0.3643 0.97069 0.0
H3469 H 0.05404 0.49351 0.03139 0.0
H3470 H 0.05023 0.458 0.02396 0.0
C3471 C 0.05652 0.34451 0.96368 0.0
C3472 C 0.04252 0.39294 0.97601 0.0
H3473 H 0.06166 0.43734 0.96588 0.0
C3474 C 0.0325 0.39951 0.99082 0.0
C3475 C 0.05289 0.40685 0.96672 0.0
C3476 C 0.06318 0.40085 0.94992 0.0
C3477 C 0.03266 0.4195 0.99666 0.0
C3478 C 0.04339 0.43351 0.98768 0.0
C3479 C 0.05339 0.42682 0.97286 0.0
C3480 C 0.04428 0.45507 0.99283 0.0
C3481 C 0.02094 0.4252 0.01206 0.0
C3482 C 0.04256 0.46565 0.97796 0.0
C3483 C 0.0452 0.48602 0.98218 0.0
C3484 C 0.04911 0.49638 1.00145 0.0
C3485 C 0.05045 0.4859 0.01646 0.0
C3486 C 0.04821 0.46549 0.01218 0.0
H3487 H 0.00954 0.41295 0.01262 0.0
H3488 H 0.02875 0.42921 0.02653 0.0
H3489 H 0.01571 0.43785 0.0094 0.0
H3490 H 0.03957 0.45817 0.9629 0.0
H3491 H 0.04435 0.49375 0.97031 0.0
H3492 H 0.0238 0.83999 0.14178 0.0
H3493 H 0.99934 0.83616 0.16232 0.0
H3494 H 0.02641 0.80394 0.19576 0.0
H3495 H 0.05121 0.80827 0.17562 0.0
H3496 H 0.97692 0.80444 0.16759 0.0
H3497 H 0.01363 0.84152 0.23896 0.0
H3498 H 0.02331 0.84297 0.21632 0.0
H3499 H 0.02284 0.82195 0.22734 0.0
C3500 C 0.02467 0.83226 0.15364 0.0
C3501 C 0.03958 0.82455 0.1571 0.0
C3502 C 0.01061 0.83004 0.16538 0.0
C3503 C 0.01104 0.82001 0.18086 0.0
C3504 C 0.02589 0.81221 0.1843 0.0
H3505 H 0.93566 0.77874 0.25926 0.0
H3506 H 0.95982 0.78445 0.23862 0.0
C3507 C 0.04007 0.81461 0.17267 0.0
C3508 C 0.99565 0.81712 0.19285 0.0
H3509 H 0.98427 0.82292 0.23965 0.0
C3510 C 0.97855 0.80865 0.18333 0.0
C3511 C 0.99764 0.82264 0.21344 0.0
C3512 C 0.01531 0.83296 0.2246 0.0
C3513 C 0.96358 0.80518 0.1938 0.0
C3514 C 0.96567 0.81033 0.21435 0.0
C3515 C 0.98269 0.8189 0.22388 0.0
C3516 C 0.95045 0.80655 0.22629 0.0
C3517 C 0.94565 0.79561 0.18287 0.0
C3518 C 0.93702 0.81703 0.22619 0.0
C3519 C 0.92321 0.81399 0.23824 0.0
C3520 C 0.92254 0.80039 0.25065 0.0
C3521 C 0.93585 0.78962 0.25027 0.0
C3522 C 0.94967 0.79277 0.23837 0.0
H3523 H 0.94666 0.78965 0.16733 0.0
H3524 H 0.93878 0.78359 0.18973 0.0
H3525 H 0.93733 0.80652 0.18349 0.0
H3526 H 0.93744 0.82788 0.21712 0.0
H3527 H 0.91338 0.82273 0.23825 0.0
H3528 H 0.51798 0.32978 0.14154 0.0
H3529 H 0.52185 0.35249 0.11892 0.0
H3530 H 0.53557 0.30864 0.0756 0.0
H3531 H 0.53193 0.28593 0.09811 0.0
H3532 H 0.55904 0.34481 0.08067 0.0
H3533 H 0.48925 0.35167 0.0704 0.0
H3534 H 0.49828 0.3565 0.09541 0.0
H3535 H 0.49539 0.33243 0.08094 0.0
C3536 C 0.52172 0.32493 0.12716 0.0
C3537 C 0.52462 0.30603 0.12163 0.0
C3538 C 0.52383 0.33789 0.11422 0.0
C3539 C 0.52877 0.33215 0.09549 0.0
C3540 C 0.53167 0.31332 0.08995 0.0
H3541 H 0.52728 0.39629 1.00056 0.0
H3542 H 0.52289 0.37089 0.02033 0.0
C3543 C 0.52957 0.30036 0.10285 0.0
C3544 C 0.53158 0.34599 0.0819 0.0
H3545 H 0.51091 0.37391 0.05774 0.0
C3546 C 0.5485 0.35111 0.07558 0.0
C3547 C 0.51774 0.35397 0.07508 0.0
C3548 C 0.49909 0.34825 0.08063 0.0
C3549 C 0.55208 0.36437 0.06295 0.0
C3550 C 0.53842 0.3729 0.05672 0.0
C3551 C 0.52138 0.36743 0.06266 0.0
C3552 C 0.54165 0.3879 0.04439 0.0
C3553 C 0.57041 0.36901 0.05629 0.0
C3554 C 0.55363 0.40584 0.05139 0.0
C3555 C 0.55622 0.4203 0.04012 0.0
C3556 C 0.54678 0.41715 0.02166 0.0
C3557 C 0.5349 0.39907 0.01461 0.0
C3558 C 0.53229 0.38461 0.02593 0.0
H3559 H 0.57776 0.35754 0.05799 0.0
H3560 H 0.56976 0.37057 0.0408 0.0
H3561 H 0.57808 0.38302 0.06523 0.0
H3562 H 0.56079 0.40879 0.06571 0.0
H3563 H 0.56557 0.43401 0.04591 0.0
H3564 H 0.02215 0.30383 0.3707 0.0
H3565 H 0.9977 0.30807 0.34977 0.0
H3566 H 0.02885 0.30399 0.30076 0.0
H3567 H 0.05371 0.30016 0.32184 0.0
H3568 H 0.01415 0.33531 0.30411 0.0
H3569 H 0.96251 0.27037 0.30881 0.0
H3570 H 0.97173 0.28359 0.33263 0.0
H3571 H 0.98563 0.27262 0.31643 0.0
C3572 C 0.02376 0.30351 0.35541 0.0
C3573 C 0.03989 0.30166 0.34794 0.0
C3574 C 0.00969 0.30581 0.34341 0.0
C3575 C 0.01134 0.30603 0.32363 0.0
C3576 C 0.02727 0.30372 0.31597 0.0
H3577 H 0.91405 0.31461 0.25956 0.0
H3578 H 0.94133 0.30398 0.26676 0.0
C3579 C 0.04143 0.30149 0.32802 0.0
C3580 C 0.99688 0.3103 0.31153 0.0
H3581 H 0.95199 0.29779 0.30063 0.0
C3582 C 1.00059 0.3269 0.303 0.0
C3583 C 0.97926 0.29913 0.30975 0.0
C3584 C 0.97459 0.28032 0.31722 0.0
C3585 C 0.98698 0.33331 0.2938 0.0
C3586 C 0.96917 0.3231 0.29358 0.0
C3587 C 0.96561 0.30582 0.30103 0.0
C3588 C 0.95391 0.33065 0.28697 0.0
C3589 C 0.99183 0.35105 0.28464 0.0
C3590 C 0.95202 0.34931 0.29565 0.0
C3591 C 0.93654 0.35548 0.29138 0.0
C3592 C 0.92254 0.34293 0.27865 0.0
C3593 C 0.92465 0.32451 0.2695 0.0
C3594 C 0.94021 0.31845 0.27359 0.0
H3595 H 1.00536 0.35263 0.27972 0.0
H3596 H 0.98225 0.35035 0.27199 0.0
H3597 H 0.99185 0.36431 0.29561 0.0
H3598 H 0.96215 0.35878 0.30644 0.0
H3599 H 0.93513 0.36962 0.29884 0.0
H3600 H 0.98254 0.72906 0.61614 0.0
H3601 H 0.9847 0.69627 0.60039 0.0
H3602 H 0.02892 0.69911 0.64187 0.0
H3603 H 0.02704 0.7318 0.65751 0.0
H3604 H 0.03553 0.69036 0.60278 0.0
H3605 H 0.9729 0.64272 0.61727 0.0
H3606 H 0.97046 0.66363 0.60728 0.0
H3607 H 0.98159 0.66708 0.63123 0.0
C3608 C 0.99254 0.72256 0.62208 0.0
C3609 C 1.00469 0.73306 0.63798 0.0
C3610 C 0.99368 0.7038 0.61314 0.0
C3611 C 1.00688 0.69527 0.6201 0.0
C3612 C 0.01862 0.70546 0.63634 0.0
H3613 H 0.04978 0.59444 0.5802 0.0
H3614 H 0.04211 0.62303 0.5994 0.0
C3615 C 0.01753 0.72416 0.64522 0.0
C3616 C 0.00967 0.67655 0.60946 0.0
H3617 H 0.99086 0.62787 0.59578 0.0
C3618 C 0.02581 0.67667 0.60133 0.0
C3619 C 0.99687 0.65882 0.6075 0.0
C3620 C 0.97952 0.65791 0.61639 0.0
C3621 C 0.02949 0.65951 0.59114 0.0
C3622 C 0.01681 0.64171 0.58938 0.0
C3623 C 1.00058 0.64157 0.59733 0.0
C3624 C 0.02018 0.62322 0.57895 0.0
C3625 C 0.04677 0.66062 0.582 0.0
C3626 C 0.00989 0.61346 0.56156 0.0
C3627 C 0.01416 0.59706 0.55062 0.0
C3628 C 0.02884 0.59023 0.55688 0.0
C3629 C 0.03855 0.59947 0.57484 0.0
C3630 C 0.03423 0.61584 0.58579 0.0
H3631 H 0.05306 0.6758 0.58078 0.0
H3632 H 0.05615 0.65536 0.59117 0.0
H3633 H 0.0447 0.65124 0.56726 0.0
H3634 H 0.9989 0.61887 0.55615 0.0
H3635 H 1.00611 0.58997 0.5371 0.0
H3636 H 0.65579 0.80064 0.89879 0.0
H3637 H 0.68284 0.8022 0.88216 0.0
H3638 H 0.65157 0.7893 0.82659 0.0
H3639 H 0.62448 0.78736 0.84301 0.0
H3640 H 0.67779 0.76856 0.82734 0.0
H3641 H 0.70471 0.84762 0.8564 0.0
H3642 H 0.69971 0.83308 0.87467 0.0
H3643 H 0.68206 0.8356 0.85822 0.0
C3644 C 0.65466 0.79802 0.88302 0.0
C3645 C 0.63801 0.79401 0.87221 0.0
C3646 C 0.67013 0.79904 0.87357 0.0
C3647 C 0.66918 0.79624 0.85319 0.0
C3648 C 0.65256 0.79162 0.84235 0.0
H3649 H 0.75465 0.83409 0.78484 0.0
H3650 H 0.72658 0.82803 0.79968 0.0
C3651 C 0.6371 0.79052 0.85177 0.0
C3652 C 0.68548 0.79824 0.84305 0.0
H3653 H 0.72321 0.8308 0.83779 0.0
C3654 C 0.68776 0.78214 0.82961 0.0
C3655 C 0.69827 0.81609 0.84587 0.0
C3656 C 0.69605 0.83416 0.85944 0.0
C3657 C 0.70255 0.78337 0.8189 0.0
C3658 C 0.71556 0.8011 0.82198 0.0
C3659 C 0.71325 0.81721 0.83545 0.0
C3660 C 0.73166 0.80341 0.81138 0.0
C3661 C 0.70373 0.76595 0.80386 0.0
C3662 C 0.74374 0.79151 0.8129 0.0
C3663 C 0.7596 0.79481 0.80423 0.0
C3664 C 0.76369 0.81014 0.79399 0.0
C3665 C 0.75162 0.82202 0.79243 0.0
C3666 C 0.73566 0.81858 0.80092 0.0
H3667 H 0.69076 0.75529 0.80001 0.0
H3668 H 0.70831 0.77073 0.79048 0.0
H3669 H 0.7134 0.75836 0.80955 0.0
H3670 H 0.74124 0.78012 0.8214 0.0
H3671 H 0.76889 0.7858 0.80615 0.0
H3672 H 0.45141 0.54825 0.72224 0.0
H3673 H 0.46452 0.54111 0.69122 0.0
H3674 H 0.4913 0.60159 0.69863 0.0
H3675 H 0.47838 0.60875 0.72926 0.0
H3676 H 0.46221 0.55574 0.65604 0.0
H3677 H 0.53231 0.5753 0.68718 0.0
H3678 H 0.51411 0.57138 0.70206 0.0
H3679 H 0.52066 0.59424 0.69413 0.0
C3680 C 0.46021 0.56003 0.71739 0.0
C3681 C 0.46377 0.57913 0.7287 0.0
C3682 C 0.46771 0.55593 0.69946 0.0
C3683 C 0.4793 0.57068 0.6923 0.0
C3684 C 0.48281 0.58969 0.70363 0.0
H3685 H 0.54191 0.58223 0.59134 0.0
H3686 H 0.52799 0.58649 0.62186 0.0
C3687 C 0.47523 0.59381 0.72133 0.0
C3688 C 0.48748 0.56656 0.67303 0.0
H3689 H 0.52731 0.57124 0.6528 0.0
C3690 C 0.47647 0.55898 0.65544 0.0
C3691 C 0.50613 0.57083 0.67173 0.0
C3692 C 0.51903 0.57822 0.68977 0.0
C3693 C 0.48337 0.5562 0.63697 0.0
C3694 C 0.50206 0.56049 0.63564 0.0
C3695 C 0.51304 0.56788 0.65332 0.0
C3696 C 0.51048 0.55772 0.6163 0.0
C3697 C 0.47035 0.54944 0.61898 0.0
C3698 C 0.50579 0.54005 0.60244 0.0
C3699 C 0.51372 0.53764 0.58467 0.0
C3700 C 0.52691 0.55268 0.58004 0.0
C3701 C 0.5318 0.57024 0.59403 0.0
C3702 C 0.52379 0.57269 0.61173 0.0
H3703 H 0.4573 0.55292 0.62176 0.0
H3704 H 0.4754 0.55627 0.60675 0.0
H3705 H 0.46811 0.53336 0.61449 0.0
H3706 H 0.49613 0.52785 0.60542 0.0
H3707 H 0.50961 0.52378 0.57463 0.0
H3708 H 0.76513 0.19356 0.01161 0.0
H3709 H 0.76265 0.21612 0.98978 0.0
H3710 H 0.79466 0.18831 0.95055 0.0
H3711 H 0.79754 0.16585 0.97255 0.0
H3712 H 0.80562 0.2281 0.95842 0.0
H3713 H 0.73299 0.20613 0.93781 0.0
H3714 H 0.73884 0.21235 0.96365 0.0
H3715 H 0.7449 0.19151 0.94962 0.0
C3716 C 0.77154 0.19211 0.99827 0.0
C3717 C 0.78151 0.17788 0.99378 0.0
C3718 C 0.77 0.20496 0.98575 0.0
C3719 C 0.77822 0.20367 0.96842 0.0
C3720 C 0.78813 0.18945 0.96383 0.0
H3721 H 0.76366 0.26044 0.87192 0.0
H3722 H 0.76282 0.23784 0.89441 0.0
C3723 C 0.78976 0.17663 0.9764 0.0
C3724 C 0.77722 0.21781 0.95556 0.0
H3725 H 0.74828 0.23552 0.92903 0.0
C3726 C 0.7931 0.22969 0.95193 0.0
C3727 C 0.76085 0.2197 0.947 0.0
C3728 C 0.74343 0.20662 0.94954 0.0
C3729 C 0.79307 0.24356 0.94009 0.0
C3730 C 0.77668 0.24591 0.93205 0.0
C3731 C 0.7608 0.23389 0.93549 0.0
C3732 C 0.77585 0.26002 0.91911 0.0
C3733 C 0.81062 0.25523 0.93591 0.0
C3734 C 0.78294 0.28006 0.92575 0.0
C3735 C 0.78362 0.293 0.91286 0.0
C3736 C 0.77712 0.28608 0.89319 0.0
C3737 C 0.76912 0.26615 0.8869 0.0
C3738 C 0.76851 0.25324 0.89975 0.0
H3739 H 0.82175 0.24835 0.93915 0.0
H3740 H 0.8103 0.25685 0.92044 0.0
H3741 H 0.81339 0.27003 0.94518 0.0
H3742 H 0.78833 0.28562 0.94077 0.0
H3743 H 0.78988 0.30826 0.91813 0.0
H3744 H 0.13467 0.49213 0.21251 0.0
H3745 H 0.11497 0.49049 0.18345 0.0
H3746 H 0.15847 0.5231 0.15858 0.0
H3747 H 0.17829 0.52477 0.1875 0.0
H3748 H 0.10828 0.52401 0.17138 0.0
H3749 H 0.13495 0.47815 0.11325 0.0
H3750 H 0.1397 0.4783 0.13882 0.0
H3751 H 0.15167 0.49746 0.1279 0.0
C3752 C 0.14013 0.49865 0.20071 0.0
C3753 C 0.15803 0.50865 0.20232 0.0
C3754 C 0.12885 0.4977 0.18414 0.0
C3755 C 0.13533 0.50649 0.16884 0.0
C3756 C 0.15331 0.51591 0.17011 0.0
H3757 H 0.09785 0.55537 0.07838 0.0
H3758 H 0.11285 0.54591 0.1055 0.0
C3759 C 0.16458 0.51696 0.18669 0.0
C3760 C 0.12303 0.50759 0.1524 0.0
H3761 H 0.11633 0.49811 0.10278 0.0
C3762 C 0.1098 0.51803 0.15639 0.0
C3763 C 0.12507 0.49974 0.13292 0.0
C3764 C 0.13851 0.48762 0.12792 0.0
C3765 C 0.09911 0.52166 0.14128 0.0
C3766 C 0.10177 0.51464 0.12184 0.0
C3767 C 0.11446 0.5035 0.11781 0.0
C3768 C 0.09244 0.52008 0.10555 0.0
C3769 C 0.08553 0.53364 0.14604 0.0
C3770 C 0.07602 0.5086 0.09677 0.0
C3771 C 0.06737 0.51393 0.08124 0.0
C3772 C 0.07507 0.53084 0.07435 0.0
C3773 C 0.09155 0.54228 0.08331 0.0
C3774 C 0.10015 0.53692 0.09878 0.0
H3775 H 0.0844 0.53715 0.16194 0.0
H3776 H 0.08924 0.54751 0.14062 0.0
H3777 H 0.07234 0.52564 0.13853 0.0
H3778 H 0.06996 0.49552 0.10188 0.0
H3779 H 0.0548 0.50467 0.07452 0.0
H3780 H 0.80013 0.85906 0.48988 0.0
H3781 H 0.79806 0.83662 0.45856 0.0
H3782 H 0.83797 0.87892 0.43888 0.0
H3783 H 0.84023 0.90123 0.46996 0.0
H3784 H 0.78801 0.84401 0.42294 0.0
H3785 H 0.85503 0.82899 0.42237 0.0
H3786 H 0.84653 0.839 0.44445 0.0
H3787 H 0.85606 0.85468 0.42845 0.0
C3788 C 0.80863 0.86345 0.47897 0.0
C3789 C 0.82032 0.88196 0.48241 0.0
C3790 C 0.80746 0.8506 0.46111 0.0
C3791 C 0.8181 0.85593 0.44651 0.0
C3792 C 0.82997 0.87426 0.45009 0.0
H3793 H 0.81004 0.84645 0.32776 0.0
H3794 H 0.81316 0.85267 0.36335 0.0
C3795 C 0.8311 0.8871 0.46783 0.0
C3796 C 0.81567 0.84345 0.42681 0.0
H3797 H 0.83897 0.82562 0.39063 0.0
C3798 C 0.79903 0.8395 0.41605 0.0
C3799 C 0.83 0.83738 0.41782 0.0
C3800 C 0.84786 0.84005 0.42896 0.0
C3801 C 0.79676 0.83112 0.39614 0.0
C3802 C 0.81147 0.82666 0.38682 0.0
C3803 C 0.82775 0.82918 0.39784 0.0
C3804 C 0.81076 0.82239 0.36536 0.0
C3805 C 0.7789 0.82815 0.38488 0.0
C3806 C 0.80863 0.80329 0.3548 0.0
C3807 C 0.80682 0.79969 0.33436 0.0
C3808 C 0.80747 0.81525 0.32443 0.0
C3809 C 0.80978 0.83429 0.33513 0.0
C3810 C 0.81154 0.83785 0.3554 0.0
H3811 H 0.76813 0.82853 0.39466 0.0
H3812 H 0.77927 0.83994 0.3764 0.0
H3813 H 0.77573 0.81399 0.37442 0.0
H3814 H 0.80793 0.79119 0.36232 0.0
H3815 H 0.80455 0.78482 0.32636 0.0
H3816 H 0.49289 0.56334 0.82444 0.0
H3817 H 0.50553 0.56051 0.85627 0.0
H3818 H 0.45958 0.57435 0.88205 0.0
H3819 H 0.44681 0.57738 0.84998 0.0
H3820 H 0.51508 0.58664 0.89232 0.0
H3821 H 0.46252 0.52354 0.90087 0.0
H3822 H 0.46515 0.53128 0.87785 0.0
H3823 H 0.45474 0.54447 0.89632 0.0
C3824 C 0.48538 0.56594 0.83682 0.0
C3825 C 0.46865 0.57064 0.83423 0.0
C3826 C 0.49274 0.56429 0.85522 0.0
C3827 C 0.48361 0.56687 0.87196 0.0
C3828 C 0.46699 0.5719 0.86957 0.0
H3829 H 0.50218 0.55287 0.9935 0.0
H3830 H 0.49085 0.55626 0.96143 0.0
C3831 C 0.45969 0.57383 0.8511 0.0
C3832 C 0.49155 0.56419 0.89159 0.0
H3833 H 0.48442 0.53677 0.92733 0.0
C3834 C 0.50831 0.5757 0.89993 0.0
C3835 C 0.48305 0.54994 0.90189 0.0
C3836 C 0.46545 0.53645 0.89378 0.0
C3837 C 0.51637 0.57384 0.9181 0.0
C3838 C 0.50793 0.55945 0.9284 0.0
C3839 C 0.49121 0.54783 0.91989 0.0
C3840 C 0.51552 0.55683 0.94831 0.0
C3841 C 0.53361 0.588 0.92637 0.0
C3842 C 0.53338 0.55561 0.95244 0.0
C3843 C 0.54006 0.55387 0.97126 0.0
C3844 C 0.529 0.55269 0.98654 0.0
C3845 C 0.51117 0.55348 0.98223 0.0
C3846 C 0.50459 0.55542 0.96365 0.0
H3847 H 0.53547 0.60146 0.92013 0.0
H3848 H 0.53423 0.59225 0.94245 0.0
H3849 H 0.54481 0.58105 0.92268 0.0
H3850 H 0.54228 0.55598 0.94111 0.0
H3851 H 0.55392 0.55369 0.97389 0.0
H3852 H 0.80521 0.16626 0.08693 0.0
H3853 H 0.80219 0.18977 0.11562 0.0
H3854 H 0.82155 0.2372 0.08638 0.0
H3855 H 0.82472 0.21373 0.05745 0.0
H3856 H 0.8353 0.2426 0.12722 0.0
H3857 H 0.76189 0.22026 0.11521 0.0
H3858 H 0.77247 0.20018 0.11505 0.0
H3859 H 0.77605 0.2146 0.09645 0.0
C3860 C 0.80906 0.18169 0.08663 0.0
C3861 C 0.81503 0.18812 0.06982 0.0
C3862 C 0.80722 0.19508 0.103 0.0
C3863 C 0.81125 0.21513 0.10288 0.0
C3864 C 0.8182 0.22173 0.08661 0.0
H3865 H 0.80465 0.30514 0.20451 0.0
H3866 H 0.80673 0.29087 0.17049 0.0
C3867 C 0.82006 0.20831 0.07015 0.0
C3868 C 0.80763 0.22897 0.11964 0.0
H3869 H 0.77425 0.23852 0.14681 0.0
C3870 C 0.82196 0.24204 0.13138 0.0
C3871 C 0.79017 0.22825 0.12481 0.0
C3872 C 0.77423 0.21521 0.11213 0.0
C3873 C 0.81935 0.25349 0.14897 0.0
C3874 C 0.80195 0.25193 0.15467 0.0
C3875 C 0.78756 0.23963 0.14238 0.0
C3876 C 0.79869 0.26098 0.17436 0.0
C3877 C 0.83529 0.2663 0.16186 0.0
C3878 C 0.79263 0.24891 0.18746 0.0
C3879 C 0.79154 0.25697 0.20683 0.0
C3880 C 0.79657 0.27728 0.21349 0.0
C3881 C 0.80127 0.28941 0.19996 0.0
C3882 C 0.80244 0.28131 0.18054 0.0
H3883 H 0.84799 0.26366 0.15661 0.0
H3884 H 0.83519 0.28185 0.16215 0.0
H3885 H 0.83479 0.26378 0.17702 0.0
H3886 H 0.78949 0.23317 0.18288 0.0
H3887 H 0.78753 0.24716 0.2167 0.0
H3888 H 0.16614 0.52551 0.30084 0.0
H3889 H 0.14485 0.52895 0.32493 0.0
H3890 H 0.12269 0.56634 0.29332 0.0
H3891 H 0.14413 0.56329 0.26936 0.0
H3892 H 0.12957 0.58136 0.33243 0.0
H3893 H 0.09191 0.50429 0.31958 0.0
H3894 H 0.11541 0.50719 0.32455 0.0
H3895 H 0.10681 0.51361 0.30283 0.0
C3896 C 0.15667 0.53438 0.29895 0.0
C3897 C 0.1568 0.54412 0.28318 0.0
C3898 C 0.14444 0.53622 0.31266 0.0
C3899 C 0.13203 0.54765 0.31073 0.0
C3900 C 0.13212 0.55737 0.295 0.0
H3901 H 0.04144 0.55047 0.37827 0.0
H3902 H 0.0607 0.54691 0.35198 0.0
C3903 C 0.14437 0.5556 0.28133 0.0
C3904 C 0.11946 0.5502 0.32555 0.0
H3905 H 0.08652 0.52531 0.34791 0.0
C3906 C 0.12008 0.56913 0.33574 0.0
C3907 C 0.10696 0.53423 0.32965 0.0
C3908 C 0.10506 0.5137 0.31846 0.0
C3909 C 0.10877 0.57249 0.35024 0.0
C3910 C 0.09677 0.55644 0.35489 0.0
C3911 C 0.09586 0.53756 0.34441 0.0
C3912 C 0.08515 0.55893 0.37073 0.0
C3913 C 0.10965 0.59322 0.36031 0.0
C3914 C 0.09256 0.56672 0.38994 0.0
C3915 C 0.08163 0.56895 0.40492 0.0
C3916 C 0.06305 0.56322 0.40099 0.0
C3917 C 0.05568 0.55528 0.38172 0.0
C3918 C 0.06665 0.5531 0.36672 0.0
H3919 H 0.11571 0.60391 0.35148 0.0
H3920 H 0.09624 0.59546 0.36329 0.0
H3921 H 0.11797 0.59635 0.37441 0.0
H3922 H 0.10683 0.57098 0.39338 0.0
H3923 H 0.08773 0.57528 0.41957 0.0
H3924 H 0.80961 0.84677 0.57151 0.0
H3925 H 0.80723 0.83633 0.60287 0.0
H3926 H 0.80425 0.89435 0.63043 0.0
H3927 H 0.80624 0.9048 0.59916 0.0
H3928 H 0.82958 0.84996 0.63628 0.0
H3929 H 0.76226 0.86093 0.64962 0.0
H3930 H 0.77074 0.86085 0.62617 0.0
H3931 H 0.77701 0.88233 0.64505 0.0
C3932 C 0.80829 0.85726 0.58421 0.0
C3933 C 0.80803 0.87659 0.5828 0.0
C3934 C 0.80696 0.85128 0.60212 0.0
C3935 C 0.8053 0.86449 0.61893 0.0
C3936 C 0.8051 0.88379 0.61758 0.0
H3937 H 0.82801 0.85049 0.73808 0.0
H3938 H 0.82832 0.86166 0.70708 0.0
C3939 C 0.80634 0.88976 0.59968 0.0
C3940 C 0.8045 0.85828 0.63802 0.0
H3941 H 0.77947 0.85526 0.67638 0.0
C3942 C 0.81859 0.85103 0.64502 0.0
C3943 C 0.79006 0.85951 0.6493 0.0
C3944 C 0.77407 0.86614 0.64209 0.0
C3945 C 0.81875 0.84521 0.66312 0.0
C3946 C 0.80462 0.8471 0.67471 0.0
C3947 C 0.79041 0.85408 0.66759 0.0
C3948 C 0.80401 0.84121 0.69395 0.0
C3949 C 0.83388 0.83671 0.66946 0.0
C3950 C 0.7899 0.82655 0.69712 0.0
C3951 C 0.78953 0.82035 0.71492 0.0
C3952 C 0.80327 0.82872 0.72994 0.0
C3953 C 0.81719 0.84376 0.72688 0.0
C3954 C 0.81748 0.85003 0.70909 0.0
H3955 H 0.84099 0.83156 0.65696 0.0
H3956 H 0.84355 0.84811 0.67993 0.0
H3957 H 0.82905 0.82429 0.67679 0.0
H3958 H 0.77933 0.8196 0.68566 0.0
H3959 H 0.77863 0.80869 0.71671 0.0
H3960 H 0.76429 0.48421 0.5504 0.0
H3961 H 0.73906 0.49847 0.55876 0.0
H3962 H 0.71418 0.47655 0.50017 0.0
H3963 H 0.73937 0.46214 0.4916 0.0
H3964 H 0.72429 0.52602 0.53956 0.0
H3965 H 0.67711 0.45463 0.53682 0.0
H3966 H 0.70087 0.45719 0.53895 0.0
H3967 H 0.68939 0.45744 0.51608 0.0
C3968 C 0.75349 0.48245 0.53925 0.0
C3969 C 0.75378 0.47193 0.52037 0.0
C3970 C 0.73912 0.49064 0.54405 0.0
C3971 C 0.72475 0.48836 0.53012 0.0
C3972 C 0.7251 0.47824 0.51115 0.0
H3973 H 0.62339 0.52014 0.55123 0.0
H3974 H 0.64722 0.50825 0.53497 0.0
C3975 C 0.73952 0.47009 0.50629 0.0
C3976 C 0.70929 0.49635 0.53572 0.0
H3977 H 0.66639 0.48299 0.5459 0.0
C3978 C 0.71157 0.51665 0.54082 0.0
C3979 C 0.69273 0.48403 0.53716 0.0
C3980 C 0.68978 0.46209 0.53209 0.0
C3981 C 0.69775 0.52501 0.54769 0.0
C3982 C 0.68142 0.51268 0.54996 0.0
C3983 C 0.67895 0.49238 0.5442 0.0
C3984 C 0.66714 0.52046 0.55943 0.0
C3985 C 0.70078 0.54697 0.55249 0.0
C3986 C 0.67042 0.53104 0.57863 0.0
C3987 C 0.65693 0.53798 0.58788 0.0
C3988 C 0.63981 0.53428 0.57819 0.0
C3989 C 0.6365 0.52349 0.55899 0.0
C3990 C 0.65006 0.51659 0.54971 0.0
H3991 H 0.71132 0.55401 0.54426 0.0
H3992 H 0.68843 0.55183 0.5492 0.0
H3993 H 0.70515 0.55214 0.56824 0.0
H3994 H 0.68341 0.53378 0.58654 0.0
H3995 H 0.65995 0.54638 0.60259 0.0
H3996 H 0.25574 0.1322 0.49957 0.0
H3997 H 0.22565 0.11204 0.49719 0.0
H3998 H 0.20438 0.16353 0.50095 0.0
H3999 H 0.23435 0.18371 0.50288 0.0
H4000 H 0.20233 0.11312 0.52373 0.0
H4001 H 0.17268 0.12755 0.45569 0.0
H4002 H 0.1963 0.13405 0.46262 0.0
H4003 H 0.18233 0.14966 0.47278 0.0
C4004 C 0.24465 0.13922 0.49968 0.0
C4005 C 0.24745 0.15958 0.50139 0.0
C4006 C 0.22745 0.12766 0.49829 0.0
C4007 C 0.21271 0.13621 0.49857 0.0
C4008 C 0.21548 0.15652 0.50018 0.0
H4009 H 0.11177 0.09545 0.53827 0.0
H4010 H 0.14167 0.11137 0.53309 0.0
C4011 C 0.23266 0.16807 0.50144 0.0
C4012 C 0.19458 0.12411 0.49863 0.0
H4013 H 0.1522 0.11371 0.47671 0.0
C4014 C 0.19142 0.11309 0.5133 0.0
C4015 C 0.18038 0.12379 0.48485 0.0
C4016 C 0.18311 0.13423 0.46798 0.0
C4017 C 0.17436 0.1024 0.51504 0.0
C4018 C 0.15997 0.1031 0.50203 0.0
C4019 C 0.16321 0.11342 0.48685 0.0
C4020 C 0.14142 0.09385 0.50452 0.0
C4021 C 0.17191 0.09049 0.53085 0.0
C4022 C 0.13102 0.07924 0.4898 0.0
C4023 C 0.11372 0.07017 0.49262 0.0
C4024 C 0.10657 0.07553 0.51025 0.0
C4025 C 0.11686 0.09068 0.52462 0.0
C4026 C 0.13405 0.09976 0.52175 0.0
H4027 H 0.18449 0.08673 0.53551 0.0
H4028 H 0.16763 0.09912 0.54374 0.0
H4029 H 0.16162 0.07677 0.52593 0.0
H4030 H 0.13637 0.07465 0.47626 0.0
H4031 H 0.10602 0.05891 0.48106 0.0
H4032 H 0.20348 0.95803 0.80941 0.0
H4033 H 0.21927 0.93181 0.80638 0.0
H4034 H 0.22766 0.9374 0.74728 0.0
H4035 H 0.21188 0.96423 0.7504 0.0
H4036 H 0.21324 0.89667 0.78582 0.0
H4037 H 0.27699 0.93469 0.76434 0.0
H4038 H 0.26034 0.94754 0.77276 0.0
H4039 H 0.25804 0.93415 0.74813 0.0
C4040 C 0.20869 0.95393 0.79567 0.0
C4041 C 0.20619 0.96376 0.7802 0.0
C4042 C 0.21784 0.93864 0.79394 0.0
C4043 C 0.22521 0.93226 0.77669 0.0
C4044 C 0.22271 0.94195 0.76106 0.0
H4045 H 0.28246 0.83328 0.75104 0.0
H4046 H 0.26841 0.86081 0.74776 0.0
C4047 C 0.21343 0.95738 0.76278 0.0
C4048 C 0.23478 0.91523 0.77535 0.0
H4049 H 0.27387 0.90117 0.76522 0.0
C4050 C 0.22651 0.89786 0.78128 0.0
C4051 C 0.25218 0.91605 0.76933 0.0
C4052 C 0.26253 0.93414 0.76343 0.0
C4053 C 0.23478 0.88188 0.78143 0.0
C4054 C 0.25233 0.88286 0.77592 0.0
C4055 C 0.26053 0.9 0.76953 0.0
C4056 C 0.26241 0.86673 0.77775 0.0
C4057 C 0.22434 0.86379 0.78731 0.0
C4058 C 0.26457 0.86079 0.79571 0.0
C4059 C 0.27269 0.84518 0.79759 0.0
C4060 C 0.27943 0.83479 0.78174 0.0
C4061 C 0.27781 0.84096 0.76375 0.0
C4062 C 0.26961 0.85677 0.76186 0.0
H4063 H 0.20982 0.86259 0.78487 0.0
H4064 H 0.22751 0.85037 0.77908 0.0
H4065 H 0.22767 0.86455 0.80307 0.0
H4066 H 0.25974 0.86815 0.80846 0.0
H4067 H 0.2735 0.84101 0.81168 0.0
H4068 H 0.35908 0.9862 0.02766 0.0
H4069 H 0.39057 0.99707 0.02351 0.0
H4070 H 0.39588 0.93733 0.01355 0.0
H4071 H 0.36459 0.92636 0.01794 0.0
H4072 H 0.4212 0.962 0.04113 0.0
H4073 H 0.41657 0.99293 0.9742 0.0
H4074 H 0.40434 1.00231 0.99324 0.0
H4075 H 0.39792 0.97698 0.9817 0.0
C4076 C 0.36693 0.97537 0.02446 0.0
C4077 C 0.35936 0.95543 0.02318 0.0
C4078 C 0.38487 0.9816 0.02193 0.0
C4079 C 0.39546 0.96796 0.01794 0.0
C4080 C 0.38789 0.94806 0.0165 0.0
H4081 H 0.50784 0.97517 0.00776 0.0
H4082 H 0.47536 0.96421 1.00496 0.0
C4083 C 0.37001 0.94183 0.01906 0.0
C4084 C 0.41471 0.97445 0.01658 0.0
H4085 H 0.44531 0.99898 0.99121 0.0
C4086 C 0.42646 0.96994 0.03012 0.0
C4087 C 0.4215 0.98487 1.00223 0.0
C4088 C 0.40945 0.98944 0.98689 0.0
C4089 C 0.44486 0.97583 0.02989 0.0
C4090 C 0.45164 0.98628 0.0156 0.0
C4091 C 0.43996 0.99085 1.00206 0.0
C4092 C 0.47091 0.99305 0.01506 0.0
C4093 C 0.45697 0.97121 0.04517 0.0
C4094 C 0.47896 0.01287 0.02133 0.0
C4095 C 0.49739 0.01908 0.02303 0.0
C4096 C 0.508 1.00562 0.01801 0.0
C4097 C 0.49988 0.98583 0.01139 0.0
C4098 C 0.48142 0.97959 0.00979 0.0
H4099 H 0.44964 0.96594 0.05708 0.0
H4100 H 0.46348 0.95966 0.03831 0.0
H4101 H 0.46755 0.98431 0.05158 0.0
H4102 H 0.47101 0.0234 0.02564 0.0
H4103 H 0.50326 0.03426 0.02886 0.0
H4104 H 0.88944 0.63172 0.82645 0.0
H4105 H 0.87349 0.65405 0.81417 0.0
H4106 H 0.85317 0.61025 0.76256 0.0
H4107 H 0.86839 0.58781 0.7749 0.0
H4108 H 0.87827 0.66897 0.78236 0.0
H4109 H 0.80893 0.62734 0.7762 0.0
H4110 H 0.82664 0.62094 0.78966 0.0
H4111 H 0.82231 0.61255 0.76367 0.0
C4112 C 0.8813 0.62676 0.81266 0.0
C4113 C 0.88014 0.60798 0.80169 0.0
C4114 C 0.87223 0.63952 0.80565 0.0
C4115 C 0.86188 0.63368 0.78761 0.0
C4116 C 0.86061 0.61488 0.77678 0.0
H4117 H 0.84031 0.70502 0.70634 0.0
H4118 H 0.85225 0.68427 0.72547 0.0
C4119 C 0.86947 0.6021 0.78382 0.0
C4120 C 0.85354 0.64757 0.77915 0.0
H4121 H 0.81511 0.6511 0.75534 0.0
C4122 C 0.86438 0.66523 0.77673 0.0
C4123 C 0.83536 0.64286 0.77213 0.0
C4124 C 0.82263 0.62498 0.77576 0.0
C4125 C 0.85773 0.67789 0.76665 0.0
C4126 C 0.83993 0.67235 0.75819 0.0
C4127 C 0.82888 0.65514 0.76143 0.0
C4128 C 0.83241 0.68422 0.74604 0.0
C4129 C 0.86983 0.69708 0.76529 0.0
C4130 C 0.81675 0.69011 0.75057 0.0
C4131 C 0.80961 0.70136 0.7393 0.0
C4132 C 0.81813 0.70722 0.72345 0.0
C4133 C 0.83348 0.70077 0.7185 0.0
C4134 C 0.84048 0.68922 0.72962 0.0
H4135 H 0.88055 0.70183 0.77751 0.0
H4136 H 0.87622 0.69533 0.75152 0.0
H4137 H 0.86238 0.70876 0.76543 0.0
H4138 H 0.81012 0.68619 0.76297 0.0
H4139 H 0.79745 0.70559 0.74306 0.0
H4140 H 0.86688 0.68202 0.03002 0.0
H4141 H 0.88742 0.66066 0.03231 0.0
H4142 H 0.84571 0.61048 0.00724 0.0
H4143 H 0.82507 0.63172 1.00475 0.0
H4144 H 0.88359 0.62964 0.05307 0.0
H4145 H 0.88715 0.60378 0.97416 0.0
H4146 H 0.87881 0.62505 0.98332 0.0
H4147 H 0.8651 0.60103 0.98165 0.0
C4148 C 0.86207 0.66645 0.02486 0.0
C4149 C 0.84432 0.65859 0.01715 0.0
C4150 C 0.87384 0.65428 0.0262 0.0
C4151 C 0.86814 0.63403 0.01974 0.0
C4152 C 0.85046 0.6261 0.012 0.0
H4153 H 0.919 0.53667 0.01941 0.0
H4154 H 0.89828 0.55761 0.01581 0.0
C4155 C 0.83866 0.63827 0.01068 0.0
C4156 C 0.88055 0.62117 0.02182 0.0
H4157 H 0.90112 0.58853 0.99605 0.0
C4158 C 0.88749 0.6207 0.04061 0.0
C4159 C 0.88552 0.60948 1.00554 0.0
C4160 C 0.8789 0.60991 0.985 0.0
C4161 C 0.89911 0.60864 0.0436 0.0
C4162 C 0.9042 0.59704 0.02731 0.0
C4163 C 0.8972 0.59745 0.00851 0.0
C4164 C 0.91683 0.58442 0.02949 0.0
C4165 C 0.90553 0.60812 0.06419 0.0
C4166 C 0.93421 0.59258 0.03815 0.0
C4167 C 0.94603 0.58065 0.04039 0.0
C4168 C 0.94076 0.56031 0.03386 0.0
C4169 C 0.92341 0.55223 0.02489 0.0
C4170 C 0.91159 0.56418 0.02269 0.0
H4171 H 0.89679 0.61357 0.07484 0.0
H4172 H 0.90619 0.59307 0.06572 0.0
H4173 H 0.91905 0.61761 0.06797 0.0
H4174 H 0.93864 0.60821 0.04317 0.0
H4175 H 0.95923 0.58736 0.04749 0.0
H4176 H 0.22814 0.06757 0.77726 0.0
H4177 H 0.24705 0.10032 0.77835 0.0
H4178 H 0.2005 0.12415 0.77704 0.0
H4179 H 0.18178 0.09197 0.77615 0.0
H4180 H 0.24835 0.12652 0.75247 0.0
H4181 H 0.23049 0.16111 0.82323 0.0
H4182 H 0.22547 0.13497 0.81502 0.0
H4183 H 0.21135 0.14937 0.80641 0.0
C4184 C 0.22194 0.07981 0.77738 0.0
C4185 C 0.2033 0.07689 0.77676 0.0
C4186 C 0.2328 0.09861 0.77793 0.0
C4187 C 0.22537 0.11506 0.77812 0.0
C4188 C 0.20679 0.11204 0.77738 0.0
H4189 H 0.2555 0.23952 0.77718 0.0
H4190 H 0.2412 0.2057 0.77761 0.0
C4191 C 0.19601 0.0934 0.77676 0.0
C4192 C 0.23668 0.13532 0.77873 0.0
H4193 H 0.24448 0.18277 0.80348 0.0
C4194 C 0.24765 0.13876 0.76378 0.0
C4195 C 0.23593 0.15155 0.79339 0.0
C4196 C 0.22532 0.14908 0.81052 0.0
C4197 C 0.25715 0.1578 0.76266 0.0
C4198 C 0.25606 0.17409 0.77711 0.0
C4199 C 0.24539 0.17054 0.79227 0.0
C4200 C 0.26526 0.19495 0.7765 0.0
C4201 C 0.26769 0.16034 0.7455 0.0
C4202 C 0.28378 0.20072 0.7759 0.0
C4203 C 0.29212 0.2203 0.77562 0.0
C4204 C 0.28222 0.23481 0.77606 0.0
C4205 C 0.26372 0.22898 0.77679 0.0
C4206 C 0.25543 0.20947 0.77707 0.0
H4207 H 0.26345 0.14763 0.73326 0.0
H4208 H 0.26633 0.17374 0.74016 0.0
H4209 H 0.28193 0.16171 0.75003 0.0
H4210 H 0.29191 0.19014 0.77593 0.0
H4211 H 0.30637 0.22407 0.77522 0.0
H4212 H 0.36977 0.00936 0.2751 0.0
H4213 H 0.35165 0.97602 0.26517 0.0
H4214 H 0.3975 0.95311 0.27704 0.0
H4215 H 0.4157 0.9862 0.28647 0.0
H4216 H 0.37869 0.93475 0.24186 0.0
H4217 H 0.33327 0.93855 0.30046 0.0
H4218 H 0.33399 0.95652 0.28537 0.0
H4219 H 0.3533 0.95702 0.3011 0.0
C4220 C 0.37595 0.9972 0.27566 0.0
C4221 C 0.39416 1.00042 0.28163 0.0
C4222 C 0.36557 0.97817 0.27006 0.0
C4223 C 0.37318 0.96208 0.27059 0.0
C4224 C 0.39134 0.96531 0.27651 0.0
H4225 H 0.35524 0.84041 0.26174 0.0
H4226 H 0.36582 0.87528 0.26187 0.0
C4227 C 0.40173 0.98426 0.28195 0.0
C4228 C 0.3625 0.94176 0.2649 0.0
H4229 H 0.329 0.90881 0.27832 0.0
C4230 C 0.36785 0.92907 0.24989 0.0
C4231 C 0.34804 0.93446 0.27501 0.0
C4232 C 0.34183 0.94726 0.29148 0.0
C4233 C 0.35976 0.9091 0.24544 0.0
C4234 C 0.34618 0.90157 0.2565 0.0
C4235 C 0.33985 0.91449 0.27037 0.0
C4236 C 0.33967 0.88027 0.25532 0.0
C4237 C 0.36582 0.89626 0.22892 0.0
C4238 C 0.32146 0.87154 0.25198 0.0
C4239 C 0.31545 0.85168 0.25218 0.0
C4240 C 0.32752 0.84051 0.2564 0.0
C4241 C 0.34572 0.84903 0.25915 0.0
C4242 C 0.35174 0.86882 0.25887 0.0
H4243 H 0.3711 0.90467 0.2178 0.0
H4244 H 0.37665 0.89019 0.23465 0.0
H4245 H 0.35478 0.88395 0.22177 0.0
H4246 H 0.31192 0.88008 0.24923 0.0
H4247 H 0.30138 0.84514 0.24931 0.0
H4248 H 0.57414 0.37471 0.6207 0.0
H4249 H 0.57182 0.40488 0.60961 0.0
H4250 H 0.58344 0.38047 0.55236 0.0
H4251 H 0.58553 0.35028 0.56321 0.0
H4252 H 0.59611 0.43138 0.59474 0.0
H4253 H 0.53883 0.39847 0.53935 0.0
H4254 H 0.54555 0.38563 0.55741 0.0
H4255 H 0.55715 0.38692 0.53601 0.0
C4256 C 0.57614 0.37571 0.60572 0.0
C4257 C 0.57991 0.35987 0.59286 0.0
C4258 C 0.57483 0.39304 0.59938 0.0
C4259 C 0.57712 0.39499 0.58 0.0
C4260 C 0.58116 0.37931 0.56724 0.0
H4261 H 0.57552 0.48764 0.51299 0.0
H4262 H 0.57817 0.45757 0.52432 0.0
C4263 C 0.58247 0.36201 0.57355 0.0
C4264 C 0.57558 0.41344 0.57319 0.0
H4265 H 0.55356 0.43114 0.53908 0.0
C4266 C 0.58671 0.43131 0.58265 0.0
C4267 C 0.56339 0.41353 0.55734 0.0
C4268 C 0.55043 0.39515 0.54703 0.0
C4269 C 0.58622 0.44901 0.57653 0.0
C4270 C 0.57402 0.44908 0.56068 0.0
C4271 C 0.56292 0.43122 0.5512 0.0
C4272 C 0.57245 0.46746 0.55379 0.0
C4273 C 0.59916 0.46744 0.58678 0.0
C4274 C 0.56819 0.4831 0.56643 0.0
C4275 C 0.56654 0.50019 0.55989 0.0
C4276 C 0.56876 0.50192 0.54046 0.0
C4277 C 0.57329 0.48647 0.52789 0.0
C4278 C 0.57487 0.46933 0.5344 0.0
H4279 H 0.61072 0.46418 0.59459 0.0
H4280 H 0.60409 0.47688 0.57635 0.0
H4281 H 0.59239 0.47576 0.59769 0.0
H4282 H 0.56598 0.48205 0.58134 0.0
H4283 H 0.56345 0.51204 0.57003 0.0
H4284 H 0.45358 0.74934 0.40825 0.0
H4285 H 0.42825 0.75395 0.38867 0.0
H4286 H 0.46389 0.78604 0.35462 0.0
H4287 H 0.48935 0.78123 0.37398 0.0
H4288 H 0.41865 0.7875 0.38383 0.0
H4289 H 0.43014 0.7471 0.31234 0.0
H4290 H 0.44154 0.74542 0.33493 0.0
H4291 H 0.44882 0.7661 0.32367 0.0
C4292 C 0.45609 0.75725 0.3965 0.0
C4293 C 0.4736 0.7648 0.39268 0.0
C4294 C 0.44153 0.75993 0.38532 0.0
C4295 C 0.44405 0.77014 0.36993 0.0
C4296 C 0.46151 0.77775 0.36609 0.0
H4297 H 0.36349 0.81928 0.31576 0.0
H4298 H 0.38916 0.81436 0.33467 0.0
C4299 C 0.4761 0.77506 0.37728 0.0
C4300 C 0.4284 0.77324 0.35836 0.0
H4301 H 0.40782 0.7653 0.31218 0.0
C4302 C 0.4163 0.78262 0.36816 0.0
C4303 C 0.4251 0.76667 0.33792 0.0
C4304 C 0.43697 0.75559 0.32658 0.0
C4305 C 0.40122 0.78581 0.35814 0.0
C4306 C 0.3982 0.77975 0.33763 0.0
C4307 C 0.41017 0.77014 0.32785 0.0
C4308 C 0.38254 0.78286 0.3261 0.0
C4309 C 0.38843 0.79525 0.36971 0.0
C4310 C 0.37033 0.76689 0.31461 0.0
C4311 C 0.35566 0.76967 0.30371 0.0
C4312 C 0.3529 0.78854 0.30384 0.0
C4313 C 0.36512 0.80454 0.31535 0.0
C4314 C 0.37981 0.80174 0.32626 0.0
H4315 H 0.38997 0.79417 0.3853 0.0
H4316 H 0.39107 0.81096 0.36892 0.0
H4317 H 0.37448 0.78844 0.36375 0.0
H4318 H 0.37206 0.75218 0.31423 0.0
H4319 H 0.34637 0.75698 0.29533 0.0
H4320 H 0.07692 0.75653 0.11957 0.0
H4321 H 0.07236 0.72113 0.1096 0.0
H4322 H 0.07644 0.72725 0.04984 0.0
H4323 H 0.0814 0.76275 0.05976 0.0
H4324 H 0.04643 0.69496 0.08566 0.0
H4325 H 0.11075 0.69285 0.05542 0.0
H4326 H 0.10659 0.71472 0.06981 0.0
H4327 H 0.09829 0.70738 0.0445 0.0
C4328 C 0.07691 0.7504 0.10429 0.0
C4329 C 0.07962 0.76261 0.0905 0.0
C4330 C 0.0743 0.73009 0.0986 0.0
C4331 C 0.07436 0.7214 0.07898 0.0
C4332 C 0.07679 0.73353 0.06513 0.0
H4333 H 0.05416 0.59794 0.02095 0.0
H4334 H 0.05999 0.63376 0.02784 0.0
C4335 C 0.07948 0.75388 0.07082 0.0
C4336 C 0.07134 0.69967 0.07311 0.0
H4337 H 0.08944 0.66277 0.05067 0.0
C4338 C 0.05589 0.68797 0.07807 0.0
C4339 C 0.0836 0.6904 0.06308 0.0
C4340 C 0.10082 0.70195 0.05803 0.0
C4341 C 0.05237 0.66745 0.07331 0.0
C4342 C 0.0647 0.65821 0.06349 0.0
C4343 C 0.08 0.66983 0.05821 0.0
C4344 C 0.06212 0.63652 0.05917 0.0
C4345 C 0.03531 0.6558 0.07863 0.0
C4346 C 0.06171 0.62611 0.07443 0.0
C4347 C 0.05858 0.6057 0.07051 0.0
C4348 C 0.05609 0.59521 0.05125 0.0
C4349 C 0.05655 0.6056 0.03594 0.0
C4350 C 0.05975 0.62608 0.03987 0.0
H4351 H 0.02533 0.6648 0.08144 0.0
H4352 H 0.0295 0.64301 0.06689 0.0
H4353 H 0.03811 0.65035 0.09208 0.0
H4354 H 0.06369 0.6338 0.08943 0.0
H4355 H 0.05807 0.59806 0.08258 0.0
H4356 H 0.06228 0.28759 0.87811 0.0
H4357 H 0.08792 0.29169 0.859 0.0
H4358 H 0.11441 0.26172 0.89554 0.0
H4359 H 0.08892 0.25747 0.9146 0.0
H4360 H 0.12413 0.31053 0.87173 0.0
H4361 H 0.11662 0.23199 0.84002 0.0
H4362 H 0.09904 0.24145 0.85128 0.0
H4363 H 0.11716 0.23755 0.86609 0.0
C4364 C 0.07353 0.2818 0.88204 0.0
C4365 C 0.07345 0.2721 0.89786 0.0
C4366 C 0.0882 0.2842 0.87112 0.0
C4367 C 0.10302 0.2768 0.87567 0.0
C4368 C 0.10303 0.26726 0.89153 0.0
H4369 H 0.20814 0.30632 0.83287 0.0
H4370 H 0.18384 0.3012 0.8538 0.0
C4371 C 0.08843 0.26493 0.90248 0.0
C4372 C 0.11855 0.27919 0.86398 0.0
H4373 H 0.14273 0.25362 0.83442 0.0
C4374 C 0.12821 0.2981 0.86358 0.0
C4375 C 0.1238 0.26296 0.85323 0.0
C4376 C 0.11356 0.24233 0.85247 0.0
C4377 C 0.14304 0.30121 0.85285 0.0
C4378 C 0.14847 0.28497 0.84236 0.0
C4379 C 0.13871 0.26606 0.84265 0.0
C4380 C 0.16355 0.2873 0.83004 0.0
C4381 C 0.15252 0.32186 0.85243 0.0
C4382 C 0.16038 0.28063 0.80982 0.0
C4383 C 0.1742 0.28344 0.79791 0.0
C4384 C 0.19161 0.29291 0.8059 0.0
C4385 C 0.19492 0.29897 0.82625 0.0
C4386 C 0.181 0.29622 0.8382 0.0
H4387 H 0.14457 0.33257 0.85787 0.0
H4388 H 0.16525 0.32559 0.86184 0.0
H4389 H 0.15559 0.32338 0.83743 0.0
H4390 H 0.14708 0.27356 0.80319 0.0
H4391 H 0.17122 0.2783 0.78234 0.0
H4392 H 0.55741 0.79229 0.95341 0.0
H4393 H 0.55326 0.77296 0.97899 0.0
H4394 H 0.573 0.72764 0.94388 0.0
H4395 H 0.57748 0.74697 0.91835 0.0
H4396 H 0.53301 0.73593 0.97849 0.0
H4397 H 0.60448 0.73922 0.99521 0.0
H4398 H 0.59669 0.75481 0.98069 0.0
H4399 H 0.59687 0.73005 0.96995 0.0
C4400 C 0.56085 0.77819 0.9511 0.0
C4401 C 0.56792 0.77123 0.93391 0.0
C4402 C 0.55846 0.76718 0.96574 0.0
C4403 C 0.56315 0.74907 0.96347 0.0
C4404 C 0.5697 0.74181 0.9461 0.0
H4405 H 0.53383 0.65203 0.01953 0.0
H4406 H 0.53531 0.67696 0.99961 0.0
C4407 C 0.57214 0.75282 0.93147 0.0
C4408 C 0.56115 0.73769 0.97922 0.0
H4409 H 0.58409 0.7159 0.0083 0.0
C4410 C 0.54419 0.73169 0.98516 0.0
C4411 C 0.57582 0.73255 0.98819 0.0
C4412 C 0.59452 0.73965 0.98335 0.0
C4413 C 0.54139 0.71994 0.99926 0.0
C4414 C 0.55589 0.7138 0.00733 0.0
C4415 C 0.57296 0.72049 1.00199 0.0
C4416 C 0.5536 0.69947 0.0204 0.0
C4417 C 0.52294 0.7142 1.00533 0.0
C4418 C 0.56349 0.70378 0.03867 0.0
C4419 C 0.56288 0.68943 0.04999 0.0
C4420 C 0.55247 0.67048 0.04313 0.0
C4421 C 0.54212 0.66644 0.02512 0.0
C4422 C 0.54277 0.68075 0.01382 0.0
H4423 H 0.51495 0.72493 1.00295 0.0
H4424 H 0.51608 0.69983 0.99639 0.0
H4425 H 0.52331 0.71294 0.0209 0.0
H4426 H 0.57204 0.71811 0.04394 0.0
H4427 H 0.57112 0.69294 0.06371 0.0
H4428 H 0.0869 0.77943 0.66825 0.0
H4429 H 0.11134 0.77377 0.68823 0.0
H4430 H 0.08896 0.79552 0.74028 0.0
H4431 H 0.06414 0.80096 0.72032 0.0
H4432 H 0.13631 0.79888 0.71625 0.0
H4433 H 0.09389 0.74097 0.74746 0.0
H4434 H 0.08605 0.74988 0.72682 0.0
H4435 H 0.08772 0.76411 0.75096 0.0
C4436 C 0.08719 0.78316 0.68394 0.0
C4437 C 0.07349 0.7905 0.6927 0.0
C4438 C 0.10119 0.77991 0.69534 0.0
C4439 C 0.10178 0.78389 0.71571 0.0
C4440 C 0.08853 0.79197 0.72456 0.0
H4441 H 0.19802 0.77851 0.78418 0.0
H4442 H 0.1717 0.78913 0.77337 0.0
C4443 C 0.07445 0.79522 0.71314 0.0
C4444 C 0.11618 0.77916 0.72743 0.0
H4445 H 0.12456 0.74859 0.75737 0.0
C4446 C 0.13377 0.78803 0.7254 0.0
C4447 C 0.11276 0.7648 0.73913 0.0
C4448 C 0.09411 0.75423 0.74117 0.0
C4449 C 0.14808 0.78267 0.73444 0.0
C4450 C 0.14468 0.76834 0.74619 0.0
C4451 C 0.12709 0.75969 0.7485 0.0
C4452 C 0.15925 0.76126 0.75506 0.0
C4453 C 0.16669 0.79179 0.73064 0.0
C4454 C 0.16045 0.74179 0.7492 0.0
C4455 C 0.17538 0.73563 0.75551 0.0
C4456 C 0.18932 0.74891 0.76772 0.0
C4457 C 0.18756 0.76808 0.77452 0.0
C4458 C 0.17259 0.77417 0.76833 0.0
H4459 H 0.16677 0.79906 0.71788 0.0
H4460 H 0.17314 0.80299 0.74355 0.0
H4461 H 0.17479 0.78066 0.72806 0.0
H4462 H 0.15024 0.73159 0.73901 0.0
H4463 H 0.17645 0.72082 0.75 0.0
H4464 H 0.11226 0.38543 0.38326 0.0
H4465 H 0.11034 0.41655 0.4033 0.0
H4466 H 0.07113 0.38584 0.43496 0.0
H4467 H 0.07356 0.35477 0.41562 0.0
H4468 H 0.08386 0.43377 0.40696 0.0
H4469 H 0.10388 0.42024 0.47915 0.0
H4470 H 0.10647 0.40456 0.45685 0.0
H4471 H 0.08552 0.40125 0.46722 0.0
C4472 C 0.10335 0.38536 0.39462 0.0
C4473 C 0.09315 0.36772 0.39802 0.0
C4474 C 0.10228 0.40311 0.40605 0.0
C4475 C 0.0909 0.40348 0.42093 0.0
C4476 C 0.08046 0.38587 0.42404 0.0
H4477 H 0.04013 0.49385 0.46814 0.0
H4478 H 0.05023 0.46739 0.44826 0.0
C4479 C 0.08175 0.36814 0.41287 0.0
C4480 C 0.08916 0.42228 0.43257 0.0
H4481 H 0.08724 0.44523 0.47907 0.0
C4482 C 0.08488 0.43643 0.42274 0.0
C4483 C 0.09092 0.42596 0.45316 0.0
C4484 C 0.09716 0.41227 0.46468 0.0
C4485 C 0.08141 0.45374 0.43294 0.0
C4486 C 0.0816 0.45659 0.45345 0.0
C4487 C 0.08677 0.44289 0.46331 0.0
C4488 C 0.07584 0.47323 0.46496 0.0
C4489 C 0.07763 0.46875 0.4216 0.0
C4490 C 0.08663 0.48491 0.48134 0.0
C4491 C 0.08069 0.49971 0.49301 0.0
C4492 C 0.0639 0.50318 0.48841 0.0
C4493 C 0.0532 0.49165 0.4719 0.0
C4494 C 0.05903 0.47663 0.46043 0.0
H4495 H 0.08422 0.46785 0.4079 0.0
H4496 H 0.06313 0.46591 0.41753 0.0
H4497 H 0.08218 0.4838 0.43026 0.0
H4498 H 0.0996 0.48246 0.4852 0.0
H4499 H 0.08925 0.50842 0.50564 0.0
H4500 H 0.47562 0.26945 0.21271 0.0
H4501 H 0.44767 0.26237 0.22748 0.0
H4502 H 0.41997 0.27541 0.17812 0.0
H4503 H 0.44772 0.28228 0.16315 0.0
H4504 H 0.42624 0.28733 0.23794 0.0
H4505 H 0.38873 0.22353 0.18416 0.0
H4506 H 0.4125 0.23212 0.18515 0.0
H4507 H 0.39784 0.24359 0.17284 0.0
C4508 C 0.46356 0.27073 0.20495 0.0
C4509 C 0.46389 0.27643 0.18674 0.0
C4510 C 0.44761 0.26659 0.21338 0.0
C4511 C 0.4317 0.26792 0.20369 0.0
C4512 C 0.43201 0.27374 0.18559 0.0
H4513 H 0.32592 0.27422 0.21577 0.0
H4514 H 0.35469 0.26915 0.20635 0.0
C4515 C 0.44794 0.27789 0.17716 0.0
C4516 C 0.41496 0.26484 0.2131 0.0
H4517 H 0.37129 0.24124 0.20475 0.0
C4518 C 0.41425 0.27705 0.23087 0.0
C4519 C 0.39945 0.25118 0.204 0.0
C4520 C 0.39969 0.23671 0.18559 0.0
C4521 C 0.39814 0.27719 0.239 0.0
C4522 C 0.3823 0.2645 0.22918 0.0
C4523 C 0.38331 0.25125 0.21211 0.0
C4524 C 0.36445 0.26623 0.23502 0.0
C4525 C 0.39824 0.2918 0.25736 0.0
C4526 C 0.36011 0.2659 0.25417 0.0
C4527 C 0.34391 0.2696 0.25972 0.0
C4528 C 0.33158 0.27308 0.24607 0.0
C4529 C 0.33539 0.27199 0.22665 0.0
C4530 C 0.35177 0.26895 0.22125 0.0
H4531 H 0.41026 0.30394 0.2598 0.0
H4532 H 0.38638 0.29803 0.2568 0.0
H4533 H 0.39808 0.28442 0.27002 0.0
H4534 H 0.36928 0.26299 0.26489 0.0
H4535 H 0.34102 0.26938 0.27456 0.0
H4536 H 0.66801 0.51874 0.34438 0.0
H4537 H 0.65574 0.52093 0.37627 0.0
H4538 H 0.60614 0.5263 0.34943 0.0
H4539 H 0.61817 0.5242 0.31793 0.0
H4540 H 0.64147 0.5507 0.39886 0.0
H4541 H 0.58902 0.48281 0.37922 0.0
H4542 H 0.60731 0.48818 0.36472 0.0
H4543 H 0.58862 0.49916 0.36257 0.0
C4544 C 0.65444 0.52022 0.34519 0.0
C4545 C 0.64421 0.52114 0.32815 0.0
C4546 C 0.64738 0.52157 0.3636 0.0
C4547 C 0.62974 0.52354 0.36565 0.0
C4548 C 0.6196 0.52442 0.34863 0.0
H4549 H 0.55634 0.53208 0.45742 0.0
H4550 H 0.57094 0.52868 0.42735 0.0
C4551 C 0.62664 0.5233 0.3304 0.0
C4552 C 0.62188 0.52499 0.38532 0.0
H4553 H 0.58688 0.5042 0.40859 0.0
C4554 C 0.62963 0.54038 0.40098 0.0
C4555 C 0.60625 0.5118 0.38851 0.0
C4556 C 0.59737 0.49445 0.37295 0.0
C4557 C 0.62205 0.54325 0.41906 0.0
C4558 C 0.60636 0.53004 0.42227 0.0
C4559 C 0.59878 0.51452 0.40662 0.0
C4560 C 0.59738 0.53216 0.44132 0.0
C4561 C 0.63065 0.56106 0.43422 0.0
C4562 C 0.60687 0.53502 0.45986 0.0
C4563 C 0.59836 0.53697 0.47729 0.0
C4564 C 0.57992 0.5358 0.47701 0.0
C4565 C 0.5704 0.53265 0.4585 0.0
C4566 C 0.5789 0.53085 0.4411 0.0
H4567 H 0.63858 0.57266 0.42757 0.0
H4568 H 0.6206 0.5672 0.44238 0.0
H4569 H 0.63981 0.55698 0.44468 0.0
H4570 H 0.62093 0.53543 0.46096 0.0
H4571 H 0.60623 0.5389 0.49101 0.0
H4572 H 0.31631 0.93809 0.09138 0.0
H4573 H 0.32363 0.92237 0.11802 0.0
H4574 H 0.28709 0.8689 0.09 0.0
H4575 H 0.27949 0.88455 0.06329 0.0
H4576 H 0.28737 0.87918 0.13246 0.0
H4577 H 0.3543 0.88115 0.10701 0.0
H4578 H 0.34811 0.90427 0.1115 0.0
H4579 H 0.33613 0.88516 0.09216 0.0
C4580 C 0.30965 0.92305 0.09097 0.0
C4581 C 0.29751 0.91246 0.07508 0.0
C4582 C 0.31386 0.91412 0.10619 0.0
C4583 C 0.30611 0.89443 0.10574 0.0
C4584 C 0.29325 0.88411 0.09051 0.0
H4585 H 0.3245 0.80799 0.17175 0.0
H4586 H 0.31162 0.8266 0.15095 0.0
C4587 C 0.28896 0.89306 0.07527 0.0
C4588 C 0.31247 0.88426 0.12035 0.0
H4589 H 0.34897 0.8696 0.13608 0.0
C4590 C 0.30082 0.87705 0.13331 0.0
C4591 C 0.33001 0.8815 0.12128 0.0
C4592 C 0.34286 0.88826 0.10716 0.0
C4593 C 0.30639 0.86737 0.14748 0.0
C4594 C 0.32394 0.86463 0.14838 0.0
C4595 C 0.33555 0.87186 0.13541 0.0
C4596 C 0.33058 0.85385 0.16228 0.0
C4597 C 0.29358 0.86045 0.16153 0.0
C4598 C 0.34562 0.86297 0.17535 0.0
C4599 C 0.35308 0.85234 0.18712 0.0
C4600 C 0.34564 0.8324 0.18602 0.0
C4601 C 0.33038 0.8234 0.17315 0.0
C4602 C 0.32296 0.83402 0.16131 0.0
H4603 H 0.28255 0.86819 0.16237 0.0
H4604 H 0.28772 0.84462 0.15653 0.0
H4605 H 0.30045 0.86261 0.17636 0.0
H4606 H 0.35173 0.87825 0.17624 0.0
H4607 H 0.36474 0.85972 0.19702 0.0
H4608 H 0.97201 0.5643 0.82485 0.0
H4609 H 0.99286 0.56811 0.8535 0.0
H4610 H 0.95169 0.57677 0.89078 0.0
H4611 H 0.93085 0.57356 0.86215 0.0
H4612 H 0.985 0.60039 0.90572 0.0
H4613 H 0.98807 0.52275 0.88216 0.0
H4614 H 0.99462 0.53793 0.86479 0.0
H4615 H 0.97206 0.5334 0.87085 0.0
C4616 C 0.96745 0.56725 0.83916 0.0
C4617 C 0.94974 0.56829 0.8413 0.0
C4618 C 0.97937 0.5694 0.85549 0.0
C4619 C 0.97367 0.57226 0.87419 0.0
C4620 C 0.95629 0.57447 0.87643 0.0
H4621 H 1.00692 0.53602 0.97591 0.0
H4622 H 0.9926 0.54242 0.9468 0.0
C4623 C 0.9444 0.57258 0.86008 0.0
C4624 C 0.98529 0.57127 0.89126 0.0
H4625 H 1.00558 0.54012 0.91085 0.0
C4626 C 0.98963 0.58729 0.90685 0.0
C4627 C 0.99112 0.55404 0.89268 0.0
C4628 C 0.98613 0.53597 0.87683 0.0
C4629 C 0.99942 0.58641 0.92402 0.0
C4630 C 1.00518 0.56917 0.9254 0.0
C4631 C 1.0012 0.55335 0.90963 0.0
C4632 C 0.01392 0.56636 0.94361 0.0
C4633 C 1.00291 0.60359 0.9408 0.0
C4634 C 0.03068 0.5778 0.95153 0.0
C4635 C 0.03893 0.57426 0.96838 0.0
C4636 C 0.03063 0.55904 0.97735 0.0
C4637 C 0.01378 0.54778 0.96939 0.0
C4638 C 1.00554 0.5514 0.9527 0.0
H4639 H 0.99471 0.61421 0.93873 0.0
H4640 H 1.00017 0.59862 0.9547 0.0
H4641 H 0.01709 0.61127 0.94212 0.0
H4642 H 0.03745 0.58926 0.94457 0.0
H4643 H 0.05177 0.58341 0.97432 0.0
H4644 H 0.29665 0.25146 0.5561 0.0
H4645 H 0.29787 0.26694 0.59041 0.0
H4646 H 0.31372 0.21761 0.60774 0.0
H4647 H 0.31287 0.20225 0.57363 0.0
H4648 H 0.27868 0.25375 0.61884 0.0
H4649 H 0.35027 0.2626 0.6402 0.0
H4650 H 0.34107 0.2569 0.61507 0.0
H4651 H 0.33961 0.23793 0.62913 0.0
C4652 C 0.30058 0.24399 0.56721 0.0
C4653 C 0.30475 0.22564 0.56207 0.0
C4654 C 0.30124 0.25286 0.58682 0.0
C4655 C 0.30617 0.24361 0.60169 0.0
C4656 C 0.31031 0.22528 0.59658 0.0
H4657 H 0.30444 0.25639 0.72585 0.0
H4658 H 0.30162 0.245 0.69039 0.0
C4659 C 0.30971 0.21645 0.57701 0.0
C4660 C 0.30619 0.2526 0.62253 0.0
H4661 H 0.33174 0.26595 0.66624 0.0
C4662 C 0.29037 0.25672 0.62914 0.0
C4663 C 0.32142 0.25642 0.63602 0.0
C4664 C 0.3391 0.25343 0.62973 0.0
C4665 C 0.28924 0.26397 0.64892 0.0
C4666 C 0.30426 0.26706 0.66245 0.0
C4667 C 0.32018 0.26338 0.65583 0.0
C4668 C 0.3037 0.27373 0.68364 0.0
C4669 C 0.27177 0.26727 0.65542 0.0
C4670 C 0.30563 0.29362 0.69153 0.0
C4671 C 0.30723 0.30012 0.71176 0.0
C4672 C 0.30655 0.28677 0.72433 0.0
C4673 C 0.30435 0.26684 0.71639 0.0
C4674 C 0.30287 0.26037 0.6962 0.0
H4675 H 0.26191 0.26632 0.64295 0.0
H4676 H 0.26637 0.25594 0.66383 0.0
H4677 H 0.27364 0.28178 0.66508 0.0
H4678 H 0.30655 0.30418 0.68208 0.0
H4679 H 0.30948 0.31562 0.71762 0.0
H4680 H 0.64891 0.49887 0.21236 0.0
H4681 H 0.63402 0.49967 0.18047 0.0
H4682 H 0.62694 0.55732 0.20304 0.0
H4683 H 0.64181 0.55674 0.23437 0.0
H4684 H 0.60088 0.50365 0.1667 0.0
H4685 H 0.65032 0.56776 0.15526 0.0
H4686 H 0.65391 0.55472 0.17437 0.0
H4687 H 0.64053 0.57259 0.17764 0.0
C4688 C 0.64416 0.51171 0.21058 0.0
C4689 C 0.64689 0.52778 0.2263 0.0
C4690 C 0.63557 0.51218 0.19219 0.0
C4691 C 0.62951 0.52878 0.18876 0.0
C4692 C 0.63178 0.54449 0.20466 0.0
H4693 H 0.55583 0.53339 0.086 0.0
H4694 H 0.5681 0.53168 0.1188 0.0
C4695 C 0.6403 0.54404 0.22287 0.0
C4696 C 0.621 0.53 0.16884 0.0
H4697 H 0.62373 0.55866 0.13392 0.0
C4698 C 0.60597 0.51569 0.15958 0.0
C4699 C 0.62744 0.54551 0.15897 0.0
C4700 C 0.64403 0.56091 0.16695 0.0
C4701 C 0.59728 0.5166 0.14136 0.0
C4702 C 0.60343 0.53245 0.13181 0.0
C4703 C 0.6186 0.54658 0.14098 0.0
C4704 C 0.59531 0.53407 0.11184 0.0
C4705 C 0.58181 0.50017 0.13227 0.0
C4706 C 0.60621 0.53672 0.09666 0.0
C4707 C 0.59921 0.53797 0.07801 0.0
C4708 C 0.581 0.53702 0.07362 0.0
C4709 C 0.56994 0.53457 0.08875 0.0
C4710 C 0.57701 0.53326 0.10757 0.0
H4711 H 0.58166 0.48688 0.13848 0.0
H4712 H 0.56926 0.5048 0.13513 0.0
H4713 H 0.58216 0.49636 0.11626 0.0
H4714 H 0.62029 0.53744 0.09909 0.0
H4715 H 0.60818 0.53958 0.06681 0.0
H4716 H 0.3094 0.93381 0.95586 0.0
H4717 H 0.31167 0.90755 0.92931 0.0
H4718 H 0.29269 0.86494 0.96426 0.0
H4719 H 0.29031 0.89116 0.99102 0.0
H4720 H 0.33358 0.879 0.93418 0.0
H4721 H 0.26222 0.8453 0.90975 0.0
H4722 H 0.26945 0.87014 0.92302 0.0
H4723 H 0.2694 0.85022 0.93539 0.0
C4724 C 0.30544 0.91886 0.95785 0.0
C4725 C 0.2997 0.91458 0.97557 0.0
C4726 C 0.30681 0.90389 0.94269 0.0
C4727 C 0.30235 0.88438 0.94489 0.0
C4728 C 0.29606 0.87993 0.96229 0.0
H4729 H 0.30365 0.7882 0.84768 0.0
H4730 H 0.30267 0.80427 0.8814 0.0
C4731 C 0.29472 0.89493 0.97753 0.0
C4732 C 0.30516 0.86893 0.92918 0.0
H4733 H 0.28335 0.83321 0.89149 0.0
C4734 C 0.32262 0.86878 0.92498 0.0
C4735 C 0.29084 0.85548 0.91747 0.0
C4736 C 0.27187 0.8552 0.92146 0.0
C4737 C 0.32612 0.8561 0.90876 0.0
C4738 C 0.31175 0.84357 0.89626 0.0
C4739 C 0.29433 0.84287 0.90113 0.0
C4740 C 0.31432 0.83324 0.87678 0.0
C4741 C 0.34514 0.85662 0.90484 0.0
C4742 C 0.32141 0.84417 0.86316 0.0
C4743 C 0.32171 0.83513 0.84393 0.0
C4744 C 0.31472 0.81496 0.83782 0.0
C4745 C 0.30861 0.80384 0.85177 0.0
C4746 C 0.30817 0.81296 0.87106 0.0
H4747 H 0.35415 0.86144 0.91855 0.0
H4748 H 0.34676 0.84209 0.89748 0.0
H4749 H 0.34929 0.86724 0.89526 0.0
H4750 H 0.32598 0.85989 0.86719 0.0
H4751 H 0.32676 0.84418 0.83373 0.0
H4752 H 0.92846 0.54138 0.74608 0.0
H4753 H 0.95002 0.53754 0.72241 0.0
H4754 H 0.97944 0.59648 0.745 0.0
H4755 H 0.95795 0.60051 0.76885 0.0
H4756 H 0.96101 0.5613 0.69366 0.0
H4757 H 0.01584 0.56092 0.7484 0.0
H4758 H 0.99288 0.55662 0.75347 0.0
H4759 H 1.00496 0.58092 0.75311 0.0
C4760 C 0.93946 0.55358 0.74597 0.0
C4761 C 0.94157 0.57122 0.7594 0.0
C4762 C 0.95174 0.55135 0.73244 0.0
C4763 C 0.96639 0.56664 0.73221 0.0
C4764 C 0.96832 0.58444 0.7452 0.0
H4765 H 0.03708 0.56808 0.64002 0.0
H4766 H 0.01908 0.57791 0.66592 0.0
C4767 C 0.95598 0.58674 0.75871 0.0
C4768 C 0.97968 0.56374 0.71838 0.0
H4769 H 0.0222 0.55817 0.71561 0.0
C4770 C 0.97443 0.56075 0.69842 0.0
C4771 C 0.99707 0.56283 0.72476 0.0
C4772 C 1.00309 0.56534 0.74609 0.0
C4773 C 0.98615 0.55677 0.68455 0.0
C4774 C 1.00357 0.55596 0.69091 0.0
C4775 C 0.00885 0.55899 0.71088 0.0
C4776 C 0.01617 0.55107 0.67687 0.0
C4777 C 0.97967 0.55294 0.6632 0.0
C4778 C 0.02101 0.53306 0.67505 0.0
C4779 C 0.03123 0.52736 0.66025 0.0
C4780 C 0.03677 0.53965 0.64711 0.0
C4781 C 0.03271 0.55816 0.64971 0.0
C4782 C 0.02249 0.56382 0.66449 0.0
H4783 H 0.965 0.5505 0.66079 0.0
H4784 H 0.98566 0.56571 0.65687 0.0
H4785 H 0.98378 0.53998 0.65522 0.0
H4786 H 0.01624 0.52307 0.68455 0.0
H4787 H 0.03405 0.51298 0.65853 0.0
H4788 H 0.31813 0.22324 0.46833 0.0
H4789 H 0.32141 0.23683 0.43863 0.0
H4790 H 0.30111 0.17937 0.40369 0.0
H4791 H 0.29812 0.16566 0.43314 0.0
H4792 H 0.32993 0.19994 0.38898 0.0
H4793 H 0.28003 0.24462 0.40489 0.0
H4794 H 0.29814 0.24947 0.42354 0.0
H4795 H 0.28288 0.22602 0.41836 0.0
C4796 C 0.31439 0.2135 0.45432 0.0
C4797 C 0.30772 0.19338 0.45315 0.0
C4798 C 0.31622 0.2213 0.43735 0.0
C4799 C 0.31127 0.20916 0.41891 0.0
C4800 C 0.305 0.18903 0.41773 0.0
H4801 H 0.28077 0.24251 0.31248 0.0
H4802 H 0.28331 0.22741 0.34066 0.0
C4803 C 0.30323 0.18123 0.43463 0.0
C4804 C 0.31207 0.21733 0.40079 0.0
H4805 H 0.2949 0.24795 0.37687 0.0
C4806 C 0.32231 0.21048 0.38633 0.0
C4807 C 0.30197 0.2309 0.39724 0.0
C4808 C 0.29 0.23808 0.41172 0.0
C4809 C 0.32265 0.21678 0.36839 0.0
C4810 C 0.31267 0.23051 0.36496 0.0
C4811 C 0.30258 0.23745 0.37951 0.0
C4812 C 0.31183 0.23747 0.34621 0.0
C4813 C 0.33328 0.20828 0.35313 0.0
C4814 C 0.32712 0.24754 0.33937 0.0
C4815 C 0.32571 0.25611 0.323 0.0
C4816 C 0.30898 0.25521 0.31351 0.0
C4817 C 0.29387 0.24397 0.31964 0.0
C4818 C 0.29528 0.23531 0.33584 0.0
H4819 H 0.33617 0.19437 0.3559 0.0
H4820 H 0.32619 0.20558 0.33834 0.0
H4821 H 0.34613 0.21878 0.35337 0.0
H4822 H 0.34006 0.24943 0.34709 0.0
H4823 H 0.3377 0.2638 0.31812 0.0
H4824 H 0.35396 0.64652 0.49056 0.0
H4825 H 0.37677 0.62802 0.48355 0.0
H4826 H 0.3465 0.58052 0.50654 0.0
H4827 H 0.32347 0.59876 0.51332 0.0
H4828 H 0.39675 0.61519 0.50978 0.0
H4829 H 0.35823 0.5527 0.45462 0.0
H4830 H 0.35067 0.57491 0.46177 0.0
H4831 H 0.34777 0.55665 0.47671 0.0
C4832 C 0.35206 0.63207 0.49398 0.0
C4833 C 0.33689 0.62409 0.50247 0.0
C4834 C 0.36511 0.62153 0.48996 0.0
C4835 C 0.36319 0.6028 0.49427 0.0
C4836 C 0.34804 0.59477 0.50269 0.0
H4837 H 0.44329 0.54056 0.51576 0.0
H4838 H 0.4207 0.55982 0.51727 0.0
C4839 C 0.33496 0.60527 0.50668 0.0
C4840 C 0.3775 0.59213 0.49098 0.0
H4841 H 0.38598 0.54907 0.46847 0.0
C4842 C 0.39445 0.60081 0.50062 0.0
C4843 C 0.37451 0.5735 0.4788 0.0
C4844 C 0.35686 0.56395 0.46722 0.0
C4845 C 0.40835 0.59106 0.49891 0.0
C4846 C 0.40511 0.57201 0.48753 0.0
C4847 C 0.38835 0.5636 0.47736 0.0
C4848 C 0.41882 0.56039 0.48648 0.0
C4849 C 0.4264 0.60125 0.50926 0.0
C4850 C 0.42491 0.55393 0.46857 0.0
C4851 C 0.43784 0.5429 0.46765 0.0
C4852 C 0.44482 0.53809 0.48463 0.0
C4853 C 0.43847 0.54438 0.50249 0.0
C4854 C 0.42555 0.55537 0.50339 0.0
H4855 H 0.42798 0.61734 0.51263 0.0
H4856 H 0.42803 0.59624 0.52323 0.0
H4857 H 0.43714 0.59779 0.50038 0.0
H4858 H 0.41979 0.5576 0.45535 0.0
H4859 H 0.44255 0.53836 0.4537 0.0
H4860 H 0.88327 0.91101 0.54679 0.0
H4861 H 0.91313 0.93151 0.54903 0.0
H4862 H 0.89137 0.98271 0.55326 0.0
H4863 H 0.86139 0.96224 0.55057 0.0
H4864 H 0.91462 0.9818 0.52649 0.0
H4865 H 0.94462 0.96765 0.5945 0.0
H4866 H 0.935 0.94549 0.57746 0.0
H4867 H 0.92098 0.96103 0.58764 0.0
C4868 C 0.88482 0.92665 0.54841 0.0
C4869 C 0.86994 0.93499 0.54848 0.0
C4870 C 0.90193 0.93838 0.54986 0.0
C4871 C 0.90452 0.95869 0.55167 0.0
C4872 C 0.88969 0.96708 0.55201 0.0
H4873 H 0.01094 0.03637 0.56792 0.0
H4874 H 0.9807 0.02074 0.5732 0.0
C4875 C 0.87257 0.95535 0.55045 0.0
C4876 C 0.92255 0.97093 0.55161 0.0
H4877 H 0.96499 0.98144 0.5733 0.0
C4878 C 0.92558 0.98191 0.53689 0.0
C4879 C 0.9368 0.97132 0.56534 0.0
C4880 C 0.93417 0.9609 0.58225 0.0
C4881 C 0.94259 0.99258 0.53503 0.0
C4882 C 0.95704 0.99191 0.54797 0.0
C4883 C 0.95392 0.98169 0.56323 0.0
C4884 C 0.97553 1.00102 0.54524 0.0
C4885 C 0.94496 1.00438 0.51913 0.0
C4886 C 0.98276 0.99475 0.52803 0.0
C4887 C 0.99989 1.00374 0.52488 0.0
C4888 C 0.01021 0.01916 0.53896 0.0
C4889 C 1.00321 0.02487 0.55659 0.0
C4890 C 0.98598 0.01587 0.55969 0.0
H4891 H 0.93235 1.00807 0.51446 0.0
H4892 H 0.95524 0.01813 0.52396 0.0
H4893 H 0.94924 0.99571 0.50626 0.0
H4894 H 0.97508 0.98296 0.51691 0.0
H4895 H 1.00489 0.99871 0.51126 0.0
H4896 H 0.90186 0.12801 0.29946 0.0
H4897 H 0.88584 0.15474 0.30232 0.0
H4898 H 0.888 0.1546 0.24111 0.0
H4899 H 0.90341 0.1281 0.23812 0.0
H4900 H 0.89216 0.19244 0.29669 0.0
H4901 H 0.83644 0.1519 0.24265 0.0
H4902 H 0.85257 0.14011 0.25197 0.0
H4903 H 0.85715 0.15306 0.2323 0.0
C4904 C 0.89887 0.13358 0.28656 0.0
C4905 C 0.90401 0.12532 0.26848 0.0
C4906 C 0.88963 0.14906 0.28821 0.0
C4907 C 0.885 0.15684 0.27185 0.0
C4908 C 0.89059 0.14886 0.25401 0.0
H4909 H 0.83762 0.24914 0.23877 0.0
H4910 H 0.85087 0.22157 0.24187 0.0
C4911 C 0.8997 0.13353 0.25235 0.0
C4912 C 0.87463 0.17319 0.27308 0.0
H4913 H 0.83957 0.18649 0.25049 0.0
C4914 C 0.88053 0.19093 0.28669 0.0
C4915 C 0.85923 0.17181 0.26026 0.0
C4916 C 0.85085 0.15313 0.24613 0.0
C4917 C 0.87224 0.20709 0.28721 0.0
C4918 C 0.85719 0.20587 0.27395 0.0
C4919 C 0.85106 0.18796 0.26069 0.0
C4920 C 0.8483 0.22307 0.27261 0.0
C4921 C 0.88023 0.22573 0.30153 0.0
C4922 C 0.84173 0.23359 0.28867 0.0
C4923 C 0.83383 0.24963 0.28684 0.0
C4924 C 0.83207 0.25568 0.26881 0.0
C4925 C 0.83847 0.245 0.25288 0.0
C4926 C 0.84617 0.22905 0.25466 0.0
H4927 H 0.89398 0.22613 0.3073 0.0
H4928 H 0.88043 0.23865 0.2947 0.0
H4929 H 0.87207 0.22687 0.31401 0.0
H4930 H 0.84262 0.22941 0.30272 0.0
H4931 H 0.82937 0.25746 0.29959 0.0
H4932 H 0.74238 0.09696 0.01771 0.0
H4933 H 0.71015 0.08511 0.0164 0.0
H4934 H 0.70847 0.13007 0.06568 0.0
H4935 H 0.74062 0.14196 0.06726 0.0
H4936 H 0.68913 0.0749 0.05125 0.0
H4937 H 0.67326 0.13495 0.01752 0.0
H4938 H 0.69401 0.12743 0.01512 0.0
H4939 H 0.69018 0.14131 0.03776 0.0
C4940 C 0.73518 0.10423 0.02837 0.0
C4941 C 0.74403 0.12044 0.04254 0.0
C4942 C 0.71681 0.09746 0.02758 0.0
C4943 C 0.70706 0.10691 0.04081 0.0
C4944 C 0.71585 0.12275 0.05526 0.0
H4945 H 0.59382 0.09809 0.04436 0.0
H4946 H 0.62629 0.10822 0.04998 0.0
C4947 C 0.73421 0.12945 0.05616 0.0
C4948 C 0.6876 0.10033 0.03944 0.0
H4949 H 0.64924 0.11251 0.02559 0.0
C4950 C 0.68033 0.08305 0.04565 0.0
C4951 C 0.67634 0.11116 0.03224 0.0
C4952 C 0.68373 0.12972 0.02515 0.0
C4953 C 0.66191 0.07635 0.04513 0.0
C4954 C 0.65047 0.08703 0.0377 0.0
C4955 C 0.65791 0.10436 0.03144 0.0
C4956 C 0.6308 0.08038 0.0358 0.0
C4957 C 0.65507 0.05822 0.05308 0.0
C4958 C 0.62247 0.06144 0.02598 0.0
C4959 C 0.60401 0.05555 0.02331 0.0
C4960 C 0.59348 0.06858 0.03008 0.0
C4961 C 0.60172 0.08769 0.03939 0.0
C4962 C 0.62022 0.09345 0.04253 0.0
H4963 H 0.66478 0.05627 0.06443 0.0
H4964 H 0.64247 0.05881 0.05946 0.0
H4965 H 0.65279 0.04524 0.04113 0.0
H4966 H 0.63022 0.05135 0.01981 0.0
H4967 H 0.59808 0.0411 0.01515 0.0
H4968 H 0.24118 0.49872 0.25736 0.0
H4969 H 0.25847 0.47639 0.26708 0.0
H4970 H 0.21063 0.43938 0.27995 0.0
H4971 H 0.19325 0.46133 0.26998 0.0
H4972 H 0.26132 0.46761 0.30332 0.0
H4973 H 0.23404 0.4 0.24871 0.0
H4974 H 0.23055 0.42352 0.24562 0.0
H4975 H 0.21704 0.40966 0.26065 0.0
C4976 C 0.23431 0.48568 0.26201 0.0
C4977 C 0.21584 0.4818 0.26293 0.0
C4978 C 0.24421 0.47295 0.26754 0.0
C4979 C 0.23579 0.45611 0.27396 0.0
C4980 C 0.21734 0.45205 0.2746 0.0
H4981 H 0.26548 0.37246 0.33583 0.0
H4982 H 0.25047 0.39342 0.31997 0.0
C4983 C 0.20744 0.46472 0.26904 0.0
C4984 C 0.24638 0.44359 0.28156 0.0
H4985 H 0.25022 0.39637 0.27756 0.0
C4986 C 0.25908 0.45208 0.29752 0.0
C4987 C 0.24339 0.42335 0.27395 0.0
C4988 C 0.23064 0.41362 0.25617 0.0
C4989 C 0.26843 0.44072 0.30654 0.0
C4990 C 0.26504 0.42042 0.2993 0.0
C4991 C 0.25264 0.41196 0.28311 0.0
C4992 C 0.27408 0.4077 0.30861 0.0
C4993 C 0.28149 0.45035 0.32412 0.0
C4994 C 0.29223 0.40878 0.30727 0.0
C4995 C 0.30079 0.39685 0.31626 0.0
C4996 C 0.29133 0.38376 0.32681 0.0
C4997 C 0.27312 0.38266 0.32806 0.0
C4998 C 0.26453 0.39448 0.31891 0.0
H4999 H 0.28048 0.46558 0.32976 0.0
H5000 H 0.27931 0.44188 0.33595 0.0
H5001 H 0.29518 0.45067 0.3201 0.0
H5002 H 0.29973 0.4188 0.29921 0.0
H5003 H 0.31484 0.39793 0.31509 0.0
H5004 H 0.24665 0.42763 0.06637 0.0
H5005 H 0.22542 0.44773 0.06158 0.0
H5006 H 0.25672 0.47231 0.01935 0.0
H5007 H 0.27803 0.45229 0.02399 0.0
H5008 H 0.23282 0.49023 0.06611 0.0
H5009 H 0.20547 0.45139 0.99112 0.0
H5010 H 0.21757 0.44071 0.00745 0.0
H5011 H 0.22926 0.45886 0.99519 0.0
C5012 C 0.24903 0.43729 0.05604 0.0
C5013 C 0.26401 0.4383 0.04551 0.0
C5014 C 0.23689 0.44877 0.05335 0.0
C5015 C 0.23941 0.4613 0.03995 0.0
C5016 C 0.25442 0.4625 0.02955 0.0
H5017 H 0.1809 0.5393 0.99865 0.0
H5018 H 0.20205 0.51951 1.00455 0.0
C5019 C 0.26661 0.45112 0.0323 0.0
C5020 C 0.22646 0.47332 0.037 0.0
H5021 H 0.1962 0.48034 1.00322 0.0
C5022 C 0.22473 0.48806 0.05241 0.0
C5023 C 0.21602 0.47043 0.01908 0.0
C5024 C 0.217 0.4544 1.00227 0.0
C5025 C 0.21308 0.50031 0.05024 0.0
C5026 C 0.20257 0.4974 0.03231 0.0
C5027 C 0.20426 0.48257 0.01694 0.0
C5028 C 0.18983 0.50966 0.02909 0.0
C5029 C 0.2125 0.51658 0.06698 0.0
C5030 C 0.17582 0.51056 0.0408 0.0
C5031 C 0.16383 0.52207 0.03764 0.0
C5032 C 0.16548 0.53275 0.02251 0.0
C5033 C 0.1794 0.53157 0.01064 0.0
C5034 C 0.19143 0.52013 0.01389 0.0
H5035 H 0.22467 0.52024 0.07733 0.0
H5036 H 0.21101 0.52997 0.0617 0.0
H5037 H 0.20098 0.51191 0.07509 0.0
H5038 H 0.17409 0.50227 0.05236 0.0
H5039 H 0.15338 0.52275 0.04718 0.0
H5040 H 0.88426 0.01898 0.26134 0.0
H5041 H 0.86582 0.98574 0.25919 0.0
H5042 H 0.90928 0.96954 0.28824 0.0
H5043 H 0.92755 1.00221 0.29036 0.0
H5044 H 0.87253 0.94758 0.24146 0.0
H5045 H 0.86773 0.9533 0.32069 0.0
H5046 H 0.87411 0.97448 0.30972 0.0
H5047 H 0.88999 0.96036 0.31431 0.0
C5048 C 0.88985 1.00838 0.26735 0.0
C5049 C 0.90751 0.01357 0.27609 0.0
C5050 C 0.87929 0.98927 0.26606 0.0
C5051 C 0.88597 0.97494 0.27376 0.0
C5052 C 0.90355 0.98018 0.28243 0.0
H5053 H 0.85404 0.8544 0.28969 0.0
H5054 H 0.86819 0.8883 0.2895 0.0
C5055 C 0.91409 0.99904 0.28354 0.0
C5056 C 0.87496 0.95447 0.27274 0.0
H5057 H 0.85925 0.92141 0.30126 0.0
C5058 C 0.86943 0.94194 0.25454 0.0
C5059 C 0.87093 0.9468 0.28971 0.0
C5060 C 0.87584 0.95944 0.30973 0.0
C5061 C 0.86072 0.92203 0.25291 0.0
C5062 C 0.85687 0.91426 0.26994 0.0
C5063 C 0.86211 0.92699 0.2881 0.0
C5064 C 0.84799 0.89301 0.26943 0.0
C5065 C 0.8565 0.90933 0.23287 0.0
C5066 C 0.83169 0.88378 0.25827 0.0
C5067 C 0.82356 0.86408 0.2582 0.0
C5068 C 0.83122 0.85296 0.26959 0.0
C5069 C 0.84751 0.86224 0.28075 0.0
C5070 C 0.85569 0.88185 0.2807 0.0
H5071 H 0.86485 0.91564 0.22218 0.0
H5072 H 0.85849 0.89442 0.23301 0.0
H5073 H 0.84243 0.90815 0.22775 0.0
H5074 H 0.82505 0.89187 0.24973 0.0
H5075 H 0.81122 0.85759 0.24916 0.0
H5076 H 0.72422 0.08649 0.71505 0.0
H5077 H 0.7395 0.12097 0.72264 0.0
H5078 H 0.75535 0.11525 0.78092 0.0
H5079 H 0.73989 0.08091 0.7736 0.0
H5080 H 0.73891 0.14504 0.7805 0.0
H5081 H 0.7916 0.14954 0.73022 0.0
H5082 H 0.77002 0.13771 0.71805 0.0
H5083 H 0.77995 0.12666 0.73567 0.0
C5084 C 0.73119 0.09249 0.72938 0.0
C5085 C 0.73074 0.08101 0.74376 0.0
C5086 C 0.74003 0.11216 0.73365 0.0
C5087 C 0.74872 0.12059 0.75227 0.0
C5088 C 0.74878 0.10899 0.76643 0.0
H5089 H 0.80638 0.24337 0.78001 0.0
H5090 H 0.79938 0.2077 0.7759 0.0
C5091 C 0.7399 0.08938 0.76222 0.0
C5092 C 0.7561 0.14188 0.7576 0.0
H5093 H 0.78456 0.1797 0.74437 0.0
C5094 C 0.74899 0.15261 0.77269 0.0
C5095 C 0.76949 0.15167 0.74766 0.0
C5096 C 0.77835 0.14079 0.73213 0.0
C5097 C 0.75432 0.17299 0.7775 0.0
C5098 C 0.76679 0.1829 0.76664 0.0
C5099 C 0.77464 0.17211 0.7523 0.0
C5100 C 0.77114 0.20443 0.7693 0.0
C5101 C 0.74651 0.18368 0.79418 0.0
C5102 C 0.75761 0.21434 0.76675 0.0
C5103 C 0.76158 0.23463 0.76909 0.0
C5104 C 0.7792 0.24525 0.77338 0.0
C5105 C 0.79275 0.23541 0.77611 0.0
C5106 C 0.78876 0.21509 0.7739 0.0
H5107 H 0.74218 0.17419 0.80479 0.0
H5108 H 0.75618 0.197 0.80199 0.0
H5109 H 0.73465 0.18809 0.78843 0.0
H5110 H 0.74398 0.20637 0.76279 0.0
H5111 H 0.75094 0.24201 0.76717 0.0
loop_
_geom_bond_atom_site_label_1
_geom_bond_atom_site_label_2
_geom_bond_distance
_geom_bond_site_symmetry_2
_ccdc_geom_bond_type
C0 O1 1.160 . S
C0 O7 1.185 . S
O1 C0 1.160 . S
O2 Zn3 1.899 . S
O2 C10 1.284 . S
Zn3 O2 1.899 . S
Zn3 O4 2.032 . S
Zn3 O7 2.086 . S
Zn3 O12 1.977 . S
O4 Zn3 2.032 . S
O4 C8 1.278 . S
C5 O6 1.203 . S
C5 O12 1.267 . S
O6 C5 1.203 . S
O7 C0 1.185 . S
O7 Zn3 2.086 . S
C8 O4 1.278 . S
C8 O9 1.211 . S
O9 C8 1.211 . S
C10 O2 1.284 . S
C10 O11 1.273 . S
O11 C10 1.273 . S
O12 Zn3 1.977 . S
O12 C5 1.267 . S
C13 O14 1.160 . S
C13 O20 1.185 . S
O14 C13 1.160 . S
O15 Zn16 1.899 . S
O15 C23 1.284 . S
Zn16 O15 1.899 . S
Zn16 O17 2.032 . S
Zn16 O20 2.086 . S
Zn16 O25 1.977 1_655 S
O17 Zn16 2.032 . S
O17 C21 1.278 1_655 S
C18 O19 1.203 . S
C18 O25 1.267 . S
O19 C18 1.203 . S
O20 C13 1.185 . S
O20 Zn16 2.086 . S
C21 O17 1.278 1_455 S
C21 O22 1.211 . S
O22 C21 1.211 . S
C23 O15 1.284 . S
C23 O24 1.273 1_655 S
O24 C23 1.273 1_455 S
O25 Zn16 1.977 1_455 S
O25 C18 1.267 . S
C26 O27 1.160 . S
C26 O33 1.185 . S
O27 C26 1.160 . S
O28 Zn29 1.899 . S
O28 C36 1.284 . S
Zn29 O28 1.899 . S
Zn29 O30 2.032 . S
Zn29 O33 2.086 . S
Zn29 O38 1.977 . S
O30 Zn29 2.032 . S
O30 C34 1.278 . S
C31 O32 1.203 . S
C31 O38 1.267 . S
O32 C31 1.203 . S
O33 C26 1.185 . S
O33 Zn29 2.086 . S
C34 O30 1.278 . S
C34 O35 1.211 . S
O35 C34 1.211 . S
C36 O28 1.284 . S
C36 O37 1.273 . S
O37 C36 1.273 . S
O38 Zn29 1.977 . S
O38 C31 1.267 . S
C39 O40 1.160 . S
C39 O46 1.185 . S
O40 C39 1.160 . S
O41 Zn42 1.899 . S
O41 C49 1.284 . S
Zn42 O41 1.899 . S
Zn42 O43 2.032 . S
Zn42 O46 2.086 . S
Zn42 O51 1.977 . S
O43 Zn42 2.032 . S
O43 C47 1.278 . S
C44 O45 1.203 . S
C44 O51 1.267 . S
O45 C44 1.203 . S
O46 C39 1.185 . S
O46 Zn42 2.086 . S
C47 O43 1.278 . S
C47 O48 1.211 . S
O48 C47 1.211 . S
C49 O41 1.284 . S
C49 O50 1.273 . S
O50 C49 1.273 . S
O51 Zn42 1.977 . S
O51 C44 1.267 . S
C52 O53 1.160 . S
C52 O59 1.185 . S
O53 C52 1.160 . S
O54 Zn55 1.899 . S
O54 C62 1.284 . S
Zn55 O54 1.899 . S
Zn55 O56 2.032 . S
Zn55 O59 2.086 . S
Zn55 O64 1.977 . S
O56 Zn55 2.032 . S
O56 C60 1.278 . S
C57 O58 1.203 . S
C57 O64 1.267 . S
O58 C57 1.203 . S
O59 C52 1.185 . S
O59 Zn55 2.086 . S
C60 O56 1.278 . S
C60 O61 1.211 . S
O61 C60 1.211 . S
C62 O54 1.284 . S
C62 O63 1.273 . S
O63 C62 1.273 . S
O64 Zn55 1.977 . S
O64 C57 1.267 . S
C65 O66 1.160 . S
C65 O72 1.185 . S
O66 C65 1.160 . S
O67 Zn68 1.899 . S
O67 C75 1.284 . S
Zn68 O67 1.899 . S
Zn68 O69 2.032 . S
Zn68 O72 2.086 . S
Zn68 O77 1.977 . S
O69 Zn68 2.032 . S
O69 C73 1.278 . S
C70 O71 1.203 . S
C70 O77 1.267 . S
O71 C70 1.203 . S
O72 C65 1.185 . S
O72 Zn68 2.086 . S
C73 O69 1.278 . S
C73 O74 1.211 . S
O74 C73 1.211 . S
C75 O67 1.284 . S
C75 O76 1.273 . S
O76 C75 1.273 . S
O77 Zn68 1.977 . S
O77 C70 1.267 . S
C78 O79 1.160 . S
C78 O85 1.185 . S
O79 C78 1.160 . S
O80 Zn81 1.899 . S
O80 C88 1.284 . S
Zn81 O80 1.899 . S
Zn81 O82 2.032 . S
Zn81 O85 2.086 . S
Zn81 O90 1.977 . S
O82 Zn81 2.032 . S
O82 C86 1.278 . S
C83 O84 1.203 . S
C83 O90 1.267 . S
O84 C83 1.203 . S
O85 C78 1.185 . S
O85 Zn81 2.086 . S
C86 O82 1.278 . S
C86 O87 1.211 . S
O87 C86 1.211 . S
C88 O80 1.284 . S
C88 O89 1.273 . S
O89 C88 1.273 . S
O90 Zn81 1.977 . S
O90 C83 1.267 . S
C91 O92 1.160 . S
C91 O98 1.185 . S
O92 C91 1.160 . S
O93 Zn94 1.899 . S
O93 C101 1.284 . S
Zn94 O93 1.899 . S
Zn94 O95 2.032 . S
Zn94 O98 2.086 . S
Zn94 O103 1.932 1_455 S
O95 Zn94 2.032 . S
O95 C99 1.278 . S
C96 O97 1.203 . S
C96 O103 1.320 . S
O97 C96 1.203 . S
O98 C91 1.185 . S
O98 Zn94 2.086 . S
C99 O95 1.278 . S
C99 O100 1.211 . S
O100 C99 1.211 . S
C101 O93 1.284 . S
C101 O102 1.273 . S
O102 C101 1.273 . S
O103 Zn94 1.932 1_655 S
O103 C96 1.320 . S
C104 O105 1.160 . S
C104 O111 1.185 . S
O105 C104 1.160 . S
O106 Zn107 1.899 . S
O106 C114 1.284 . S
Zn107 O106 1.899 . S
Zn107 O108 2.032 . S
Zn107 O111 2.086 . S
Zn107 O116 1.977 . S
O108 Zn107 2.032 . S
O108 C112 1.278 . S
C109 O110 1.203 . S
C109 O116 1.267 1_565 S
O110 C109 1.203 . S
O111 C104 1.185 . S
O111 Zn107 2.086 . S
C112 O108 1.278 . S
C112 O113 1.211 . S
O113 C112 1.211 . S
C114 O106 1.284 . S
C114 O115 1.273 . S
O115 C114 1.273 . S
O116 Zn107 1.977 . S
O116 C109 1.267 1_545 S
C117 O118 1.160 . S
C117 O124 1.185 . S
O118 C117 1.160 . S
O119 Zn120 1.899 . S
O119 C127 1.284 . S
Zn120 O119 1.899 . S
Zn120 O121 2.032 . S
Zn120 O124 2.086 . S
Zn120 O129 1.977 . S
O121 Zn120 2.032 . S
O121 C125 1.278 . S
C122 O123 1.203 . S
C122 O129 1.267 . S
O123 C122 1.203 . S
O124 C117 1.185 . S
O124 Zn120 2.086 . S
C125 O121 1.278 . S
C125 O126 1.211 . S
O126 C125 1.211 . S
C127 O119 1.284 . S
C127 O128 1.273 . S
O128 C127 1.273 . S
O129 Zn120 1.977 . S
O129 C122 1.267 . S
C130 O131 1.160 . S
C130 O137 1.185 . S
O131 C130 1.160 . S
O132 Zn133 1.899 . S
O132 C140 1.284 . S
Zn133 O132 1.899 . S
Zn133 O134 2.032 . S
Zn133 O137 2.086 . S
Zn133 O142 1.977 1_565 S
O134 Zn133 2.032 . S
O134 C138 1.278 1_565 S
C135 O136 1.203 . S
C135 O142 1.267 . S
O136 C135 1.203 . S
O137 C130 1.185 . S
O137 Zn133 2.086 . S
C138 O134 1.278 1_545 S
C138 O139 1.211 . S
O139 C138 1.211 . S
C140 O132 1.284 . S
C140 O141 1.273 1_565 S
O141 C140 1.273 1_545 S
O142 Zn133 1.977 1_545 S
O142 C135 1.267 . S
C143 O144 1.160 . S
C143 O150 1.185 . S
O144 C143 1.160 . S
O145 Zn146 1.899 . S
O145 C153 1.284 . S
Zn146 O145 1.899 . S
Zn146 O147 2.032 1_554 S
Zn146 O150 2.086 . S
Zn146 O155 1.977 . S
O147 Zn146 2.032 1_556 S
O147 C151 1.278 . S
C148 O149 1.203 . S
C148 O155 1.267 . S
O149 C148 1.203 . S
O150 C143 1.185 . S
O150 Zn146 2.086 . S
C151 O147 1.278 . S
C151 O152 1.211 . S
O152 C151 1.211 . S
C153 O145 1.284 . S
C153 O154 1.273 . S
O154 C153 1.273 . S
O155 Zn146 1.977 . S
O155 C148 1.267 . S
C156 O157 1.160 . S
C156 O163 1.185 . S
O157 C156 1.160 . S
O158 Zn159 1.899 . S
O158 C166 1.284 . S
Zn159 O158 1.899 . S
Zn159 O160 2.032 . S
Zn159 O163 2.086 . S
Zn159 O168 1.977 . S
O160 Zn159 2.032 . S
O160 C164 1.278 . S
C161 O162 1.203 . S
C161 O168 1.267 . S
O162 C161 1.203 . S
O163 C156 1.185 . S
O163 Zn159 2.086 . S
C164 O160 1.278 . S
C164 O165 1.211 . S
O165 C164 1.211 . S
C166 O158 1.284 . S
C166 O167 1.273 . S
O167 C166 1.273 . S
O168 Zn159 1.977 . S
O168 C161 1.267 . S
C169 O170 1.160 . S
C169 O176 1.185 . S
O170 C169 1.160 . S
O171 Zn172 1.899 . S
O171 C179 1.284 . S
Zn172 O171 1.899 . S
Zn172 O173 2.032 . S
Zn172 O176 2.086 . S
Zn172 O181 1.977 . S
O173 Zn172 2.032 . S
O173 C177 1.278 1_554 S
C174 O175 1.203 . S
C174 O181 1.267 . S
O175 C174 1.203 . S
O176 C169 1.185 . S
O176 Zn172 2.086 . S
C177 O173 1.278 1_556 S
C177 O178 1.211 . S
O178 C177 1.211 . S
C179 O171 1.284 . S
C179 O180 1.273 . S
O180 C179 1.273 . S
O181 Zn172 1.977 . S
O181 C174 1.267 . S
C182 O183 1.160 . S
C182 O189 1.185 . S
O183 C182 1.160 . S
O184 Zn185 1.899 . S
O184 C192 1.284 . S
Zn185 O184 1.899 . S
Zn185 O186 2.032 . S
Zn185 O189 2.086 . S
Zn185 O194 1.977 . S
O186 Zn185 2.032 . S
O186 C190 1.278 . S
C187 O188 1.203 . S
C187 O194 1.267 . S
O188 C187 1.203 . S
O189 C182 1.185 . S
O189 Zn185 2.086 . S
C190 O186 1.278 . S
C190 O191 1.211 . S
O191 C190 1.211 . S
C192 O184 1.284 . S
C192 O193 1.273 . S
O193 C192 1.273 . S
O194 Zn185 1.977 . S
O194 C187 1.267 . S
C195 O196 1.160 . S
C195 O202 1.185 . S
O196 C195 1.160 . S
O197 Zn198 1.899 . S
O197 C205 1.284 . S
Zn198 O197 1.899 . S
Zn198 O199 2.032 . S
Zn198 O202 2.086 . S
Zn198 O207 1.977 . S
O199 Zn198 2.032 . S
O199 C203 1.278 . S
C200 O201 1.203 . S
C200 O207 1.267 . S
O201 C200 1.203 . S
O202 C195 1.185 . S
O202 Zn198 2.086 . S
C203 O199 1.278 . S
C203 O204 1.211 . S
O204 C203 1.211 . S
C205 O197 1.284 . S
C205 O206 1.273 . S
O206 C205 1.273 . S
O207 Zn198 1.977 . S
O207 C200 1.267 . S
C208 O209 1.160 . S
C208 O215 1.185 . S
O209 C208 1.160 . S
O210 Zn211 1.899 . S
O210 C218 1.284 . S
Zn211 O210 1.899 . S
Zn211 O212 2.032 . S
Zn211 O215 2.086 . S
Zn211 O220 1.977 . S
O212 Zn211 2.032 . S
O212 C216 1.278 . S
C213 O214 1.203 . S
C213 O220 1.267 . S
O214 C213 1.203 . S
O215 C208 1.185 . S
O215 Zn211 2.086 . S
C216 O212 1.278 . S
C216 O217 1.211 . S
O217 C216 1.211 . S
C218 O210 1.284 . S
C218 O219 1.273 . S
O219 C218 1.273 . S
O220 Zn211 1.977 . S
O220 C213 1.267 . S
C221 O222 1.160 . S
C221 O228 1.185 . S
O222 C221 1.160 . S
O223 Zn224 1.899 . S
O223 C231 1.284 . S
Zn224 O223 1.899 . S
Zn224 O225 2.032 . S
Zn224 O228 2.086 . S
Zn224 O233 1.977 . S
O225 Zn224 2.032 . S
O225 C229 1.278 . S
C226 O227 1.203 . S
C226 O233 1.267 . S
O227 C226 1.203 . S
O228 C221 1.185 . S
O228 Zn224 2.086 . S
C229 O225 1.278 . S
C229 O230 1.211 . S
O230 C229 1.211 . S
C231 O223 1.284 . S
C231 O232 1.273 . S
O232 C231 1.273 . S
O233 Zn224 1.977 . S
O233 C226 1.267 . S
C234 O235 1.160 . S
C234 O241 1.185 . S
O235 C234 1.160 . S
O236 Zn237 1.899 . S
O236 C244 1.284 . S
Zn237 O236 1.899 . S
Zn237 O238 2.032 . S
Zn237 O241 2.086 . S
Zn237 O246 1.977 . S
O238 Zn237 2.032 . S
O238 C242 1.278 . S
C239 O240 1.203 . S
C239 O246 1.267 . S
O240 C239 1.203 . S
O241 C234 1.185 . S
O241 Zn237 2.086 . S
C242 O238 1.278 . S
C242 O243 1.211 . S
O243 C242 1.211 . S
C244 O236 1.284 . S
C244 O245 1.273 . S
O245 C244 1.273 . S
O246 Zn237 1.977 . S
O246 C239 1.267 . S
C247 O248 1.160 . S
C247 O254 1.185 . S
O248 C247 1.160 . S
O249 Zn250 1.899 . S
O249 C257 1.284 . S
Zn250 O249 1.899 . S
Zn250 O251 2.032 . S
Zn250 O254 2.086 . S
Zn250 O259 1.977 . S
O251 Zn250 2.032 . S
O251 C255 1.278 . S
C252 O253 1.203 . S
C252 O259 1.267 . S
O253 C252 1.203 . S
O254 C247 1.185 . S
O254 Zn250 2.086 . S
C255 O251 1.278 . S
C255 O256 1.211 . S
O256 C255 1.211 . S
C257 O249 1.284 . S
C257 O258 1.273 . S
O258 C257 1.273 . S
O259 Zn250 1.977 . S
O259 C252 1.267 . S
C260 O261 1.183 . S
C260 O267 1.173 1_554 S
O261 C260 1.183 . S
O262 Zn263 1.899 . S
O262 C270 1.284 . S
Zn263 O262 1.899 . S
Zn263 O264 2.032 1_554 S
Zn263 O267 2.086 1_554 S
Zn263 O272 1.977 1_554 S
O264 Zn263 2.032 1_556 S
O264 C268 1.278 . S
C265 O266 1.203 1_556 S
C265 O272 1.267 . S
O266 C265 1.203 1_554 S
O267 C260 1.173 1_556 S
O267 Zn263 2.086 1_556 S
C268 O264 1.278 . S
C268 O269 1.211 . S
O269 C268 1.211 . S
C270 O262 1.284 . S
C270 O271 1.273 . S
O271 C270 1.273 . S
O272 Zn263 1.977 1_556 S
O272 C265 1.267 . S
C273 O274 1.160 . S
C273 O280 1.185 . S
O274 C273 1.160 . S
O275 Zn276 1.899 . S
O275 C283 1.284 . S
Zn276 O275 1.899 . S
Zn276 O277 2.032 . S
Zn276 O280 2.086 . S
Zn276 O285 1.977 . S
O277 Zn276 2.032 . S
O277 C281 1.278 . S
C278 O279 1.203 . S
C278 O285 1.267 . S
O279 C278 1.203 . S
O280 C273 1.185 . S
O280 Zn276 2.086 . S
C281 O277 1.278 . S
C281 O282 1.211 . S
O282 C281 1.211 . S
C283 O275 1.284 . S
C283 O284 1.273 . S
O284 C283 1.273 . S
O285 Zn276 1.977 . S
O285 C278 1.267 . S
C286 O287 1.160 . S
C286 O293 1.185 . S
O287 C286 1.160 . S
O288 Zn289 1.899 . S
O288 C296 1.284 . S
Zn289 O288 1.899 . S
Zn289 O290 2.032 . S
Zn289 O293 2.086 . S
Zn289 O298 1.977 . S
O290 Zn289 2.032 . S
O290 C294 1.278 . S
C291 O292 1.203 . S
C291 O298 1.267 . S
O292 C291 1.203 . S
O293 C286 1.185 . S
O293 Zn289 2.086 . S
C294 O290 1.278 . S
C294 O295 1.211 . S
O295 C294 1.211 . S
C296 O288 1.284 . S
C296 O297 1.273 . S
O297 C296 1.273 . S
O298 Zn289 1.977 . S
O298 C291 1.267 . S
C299 O300 1.160 . S
C299 O306 1.185 . S
O300 C299 1.160 . S
O301 Zn302 1.899 . S
O301 C309 1.284 . S
Zn302 O301 1.899 . S
Zn302 O303 2.032 . S
Zn302 O306 2.086 . S
Zn302 O311 1.977 . S
O303 Zn302 2.032 . S
O303 C307 1.278 . S
C304 O305 1.203 . S
C304 O311 1.267 . S
O305 C304 1.203 . S
O306 C299 1.185 . S
O306 Zn302 2.086 . S
C307 O303 1.278 . S
C307 O308 1.211 . S
O308 C307 1.211 . S
C309 O301 1.284 . S
C309 O310 1.273 . S
O310 C309 1.273 . S
O311 Zn302 1.977 . S
O311 C304 1.267 . S
Tb312 N343 2.660 1_545 S
Tb312 N350 2.600 1_544 S
Tb312 O356 2.546 1_454 S
Tb312 O357 2.610 . S
Tb312 O359 2.320 . S
Tb312 O360 2.552 . S
Tb312 O361 2.413 1_455 S
Tb312 O363 2.362 . S
Tb312 O364 2.421 1_554 S
Tb312 C376 2.833 1_454 S
C313 C316 1.432 . S
C313 C317 1.414 . S
C313 N320 1.359 . S
C314 C316 1.417 . S
C314 C318 1.432 . S
C314 C326 1.410 1_554 S
C315 C317 1.444 . S
C315 C318 1.317 . S
C315 H338 0.929 . S
C316 C313 1.432 . S
C316 C314 1.417 . S
C316 N324 1.360 . S
C317 C313 1.414 . S
C317 C315 1.444 . S
C317 C322 1.385 . S
C318 C314 1.432 . S
C318 C315 1.317 . S
C318 H330 0.930 . S
C319 C321 1.392 . S
C319 C322 1.370 . S
C319 H331 0.931 . S
N320 C313 1.359 . S
N320 C321 1.327 . S
N320 Tb323 2.600 . S
C321 C319 1.392 . S
C321 N320 1.327 . S
C321 H328 0.930 . S
C322 C317 1.385 . S
C322 C319 1.370 . S
C322 H341 0.930 . S
Tb323 N320 2.600 . S
Tb323 N324 2.660 . S
Tb323 O357 2.362 . S
Tb323 O358 2.421 . S
Tb323 O362 2.546 . S
Tb323 O363 2.610 . S
Tb323 O365 2.320 1_554 S
Tb323 O366 2.552 . S
Tb323 O367 2.413 . S
Tb323 C387 2.833 . S
N324 C316 1.360 . S
N324 Tb323 2.660 . S
N324 C325 1.305 1_554 S
C325 N324 1.305 1_556 S
C325 C327 1.407 . S
C325 H332 0.930 . S
C326 C314 1.410 1_556 S
C326 C327 1.345 . S
C326 H334 0.930 . S
C327 C325 1.407 . S
C327 C326 1.345 . S
C327 H329 0.930 . S
H328 C321 0.930 . S
H329 C327 0.930 . S
H330 C318 0.930 . S
H331 C319 0.931 . S
H332 C325 0.930 . S
H333 C347 0.931 1_455 S
H334 C326 0.930 . S
H335 C353 0.922 1_545 S
H336 C344 0.930 1_545 S
H337 C351 0.931 . S
H338 C315 0.929 . S
H339 C345 0.930 . S
H340 C378 0.930 1_554 S
H341 C322 0.930 . S
H342 C377 0.929 . S
N343 Tb312 2.660 1_565 S
N343 C344 1.305 . S
N343 C348 1.360 1_455 S
C344 H336 0.930 1_565 S
C344 N343 1.305 . S
C344 C347 1.403 1_455 S
C345 H339 0.930 . S
C345 C346 1.410 . S
C345 C347 1.350 . S
C346 C345 1.410 . S
C346 C348 1.417 . S
C346 C378 1.432 1_554 S
C347 H333 0.931 1_655 S
C347 C344 1.403 1_655 S
C347 C345 1.350 . S
C348 N343 1.360 1_655 S
C348 C346 1.417 . S
C348 C352 1.432 1_554 S
H349 C354 0.930 . S
N350 Tb312 2.600 1_566 S
N350 C352 1.359 1_455 S
N350 C353 1.327 . S
C351 H337 0.931 . S
C351 C353 1.392 1_655 S
C351 C354 1.370 . S
C352 C348 1.432 1_556 S
C352 N350 1.359 1_655 S
C352 C355 1.414 . S
C353 H335 0.922 1_565 S
C353 N350 1.327 . S
C353 C351 1.392 1_455 S
C354 H349 0.930 . S
C354 C351 1.370 . S
C354 C355 1.385 . S
C355 C352 1.414 . S
C355 C354 1.385 . S
C355 C377 1.444 . S
O356 Tb312 2.546 1_656 S
O356 C376 1.251 . S
O357 Tb312 2.610 . S
O357 Tb323 2.362 . S
O357 C368 1.283 . S
O358 Tb323 2.421 . S
O358 C375 1.262 . S
O359 Tb312 2.320 . S
O359 C375 1.260 . S
O360 Tb312 2.552 . S
O360 C368 1.243 . S
O361 Tb312 2.413 1_655 S
O361 C376 1.256 1_554 S
O362 Tb323 2.546 . S
O362 C387 1.251 . S
O363 Tb312 2.362 . S
O363 Tb323 2.610 . S
O363 C379 1.283 . S
O364 Tb312 2.421 1_556 S
O364 C386 1.262 . S
O365 Tb323 2.320 1_556 S
O365 C386 1.260 . S
O366 Tb323 2.552 . S
O366 C379 1.243 . S
O367 Tb323 2.413 . S
O367 C387 1.256 . S
C368 O357 1.283 . S
C368 O360 1.243 . S
C369 C371 1.382 1_556 S
C369 C373 1.393 . S
C369 C376 1.500 . S
C370 C371 1.400 1_556 S
C370 C372 1.384 . S
C371 C369 1.382 1_554 S
C371 C370 1.400 1_554 S
C371 H388 0.930 . S
C372 C370 1.384 . S
C372 C374 1.392 . S
C372 H389 0.931 . S
C373 C369 1.393 . S
C373 C374 1.401 . S
C373 H390 0.930 . S
C374 C372 1.392 . S
C374 C373 1.401 . S
C374 H391 0.930 . S
C375 O358 1.262 . S
C375 O359 1.260 . S
C376 Tb312 2.833 1_656 S
C376 O356 1.251 . S
C376 O361 1.256 1_556 S
C376 C369 1.500 . S
C377 H342 0.929 . S
C377 C355 1.444 . S
C377 C378 1.317 . S
C378 H340 0.930 1_556 S
C378 C346 1.432 1_556 S
C378 C377 1.317 . S
C379 O363 1.283 . S
C379 O366 1.243 . S
C380 C381 1.382 . S
C380 C384 1.393 . S
C380 C387 1.500 . S
C381 C380 1.382 . S
C381 C382 1.400 . S
C381 H392 0.930 . S
C382 C381 1.400 . S
C382 C383 1.384 . S
C383 C382 1.384 . S
C383 C385 1.392 . S
C383 H393 0.931 . S
C384 C380 1.393 . S
C384 C385 1.401 . S
C384 H394 0.930 . S
C385 C383 1.392 . S
C385 C384 1.401 . S
C385 H395 0.930 . S
C386 O364 1.262 . S
C386 O365 1.260 . S
C387 Tb323 2.833 . S
C387 O362 1.251 . S
C387 O367 1.256 . S
C387 C380 1.500 . S
H388 C371 0.930 . S
H389 C372 0.931 . S
H390 C373 0.930 . S
H391 C374 0.930 . S
H392 C381 0.930 . S
H393 C383 0.931 . S
H394 C384 0.930 . S
H395 C385 0.930 . S
Tb396 N427 2.660 . S
Tb396 N434 2.600 . S
Tb396 O440 2.546 . S
Tb396 O441 2.610 . S
Tb396 O443 2.320 . S
Tb396 O444 2.552 . S
Tb396 O445 2.413 . S
Tb396 O447 2.362 . S
Tb396 O448 2.421 . S
Tb396 C460 2.833 . S
C397 C400 1.432 . S
C397 C401 1.414 . S
C397 N404 1.359 . S
C398 C400 1.417 . S
C398 C402 1.432 . S
C398 C410 1.410 . S
C399 C401 1.444 . S
C399 C402 1.317 . S
C399 H422 0.929 . S
C400 C397 1.432 . S
C400 C398 1.417 . S
C400 N408 1.360 . S
C401 C397 1.414 . S
C401 C399 1.444 . S
C401 C406 1.385 . S
C402 C398 1.432 . S
C402 C399 1.317 . S
C402 H414 0.930 . S
C403 C405 1.392 . S
C403 C406 1.370 . S
C403 H415 0.931 . S
N404 C397 1.359 . S
N404 C405 1.327 . S
N404 Tb407 2.600 . S
C405 C403 1.392 . S
C405 N404 1.327 . S
C405 H412 0.930 . S
C406 C401 1.385 . S
C406 C403 1.370 . S
C406 H425 0.930 . S
Tb407 N404 2.600 . S
Tb407 N408 2.660 . S
Tb407 O441 2.362 . S
Tb407 O442 2.421 . S
Tb407 O446 2.546 . S
Tb407 O447 2.610 . S
Tb407 O449 2.320 . S
Tb407 O450 2.552 . S
Tb407 O451 2.413 . S
Tb407 C471 2.833 . S
N408 C400 1.360 . S
N408 Tb407 2.660 . S
N408 C409 1.305 . S
C409 N408 1.305 . S
C409 C411 1.407 . S
C409 H416 0.930 . S
C410 C398 1.410 . S
C410 C411 1.345 . S
C410 H418 0.930 . S
C411 C409 1.407 . S
C411 C410 1.345 . S
C411 H413 0.930 . S
H412 C405 0.930 . S
H413 C411 0.930 . S
H414 C402 0.930 . S
H415 C403 0.931 . S
H416 C409 0.930 . S
H417 C431 0.930 . S
H418 C410 0.930 . S
H419 C437 0.930 . S
H420 C428 0.930 . S
H421 C435 0.931 . S
H422 C399 0.929 . S
H423 C429 0.930 . S
H424 C462 0.930 . S
H425 C406 0.930 . S
H426 C461 0.929 . S
N427 Tb396 2.660 . S
N427 C428 1.305 . S
N427 C432 1.360 . S
C428 H420 0.930 . S
C428 N427 1.305 . S
C428 C431 1.407 . S
C429 H423 0.930 . S
C429 C430 1.410 . S
C429 C431 1.345 . S
C430 C429 1.410 . S
C430 C432 1.417 . S
C430 C462 1.432 . S
C431 H417 0.930 . S
C431 C428 1.407 . S
C431 C429 1.345 . S
C432 N427 1.360 . S
C432 C430 1.417 . S
C432 C436 1.432 . S
H433 C438 0.930 . S
N434 Tb396 2.600 . S
N434 C436 1.359 . S
N434 C437 1.327 . S
C435 H421 0.931 . S
C435 C437 1.392 . S
C435 C438 1.370 . S
C436 C432 1.432 . S
C436 N434 1.359 . S
C436 C439 1.414 . S
C437 H419 0.930 . S
C437 N434 1.327 . S
C437 C435 1.392 . S
C438 H433 0.930 . S
C438 C435 1.370 . S
C438 C439 1.385 . S
C439 C436 1.414 . S
C439 C438 1.385 . S
C439 C461 1.444 . S
O440 Tb396 2.546 . S
O440 C460 1.251 . S
O441 Tb396 2.610 . S
O441 Tb407 2.362 . S
O441 C452 1.283 . S
O442 Tb407 2.421 . S
O442 C459 1.262 . S
O443 Tb396 2.320 . S
O443 C459 1.260 . S
O444 Tb396 2.552 . S
O444 C452 1.243 . S
O445 Tb396 2.413 . S
O445 C460 1.256 . S
O446 Tb407 2.546 . S
O446 C471 1.251 . S
O447 Tb396 2.362 . S
O447 Tb407 2.610 . S
O447 C463 1.283 . S
O448 Tb396 2.421 . S
O448 C470 1.262 . S
O449 Tb407 2.320 . S
O449 C470 1.260 . S
O450 Tb407 2.552 . S
O450 C463 1.243 . S
O451 Tb407 2.413 . S
O451 C471 1.256 . S
C452 O441 1.283 . S
C452 O444 1.243 . S
C453 C455 1.382 . S
C453 C457 1.393 . S
C453 C460 1.500 . S
C454 C455 1.400 . S
C454 C456 1.384 . S
C455 C453 1.382 . S
C455 C454 1.400 . S
C455 H472 0.930 . S
C456 C454 1.384 . S
C456 C458 1.392 . S
C456 H473 0.931 . S
C457 C453 1.393 . S
C457 C458 1.401 . S
C457 H474 0.930 . S
C458 C456 1.392 . S
C458 C457 1.401 . S
C458 H475 0.930 . S
C459 O442 1.262 . S
C459 O443 1.260 . S
C460 Tb396 2.833 . S
C460 O440 1.251 . S
C460 O445 1.256 . S
C460 C453 1.500 . S
C461 H426 0.929 . S
C461 C439 1.444 . S
C461 C462 1.317 . S
C462 H424 0.930 . S
C462 C430 1.432 . S
C462 C461 1.317 . S
C463 O447 1.283 . S
C463 O450 1.243 . S
C464 C465 1.382 . S
C464 C468 1.393 . S
C464 C471 1.500 . S
C465 C464 1.382 . S
C465 C466 1.400 . S
C465 H476 0.930 . S
C466 C465 1.400 . S
C466 C467 1.384 . S
C467 C466 1.384 . S
C467 C469 1.392 . S
C467 H477 0.931 . S
C468 C464 1.393 . S
C468 C469 1.401 . S
C468 H478 0.930 . S
C469 C467 1.392 . S
C469 C468 1.401 . S
C469 H479 0.930 . S
C470 O448 1.262 . S
C470 O449 1.260 . S
C471 Tb407 2.833 . S
C471 O446 1.251 . S
C471 O451 1.256 . S
C471 C464 1.500 . S
H472 C455 0.930 . S
H473 C456 0.931 . S
H474 C457 0.930 . S
H475 C458 0.930 . S
H476 C465 0.930 . S
H477 C467 0.931 . S
H478 C468 0.930 . S
H479 C469 0.930 . S
Tb480 N511 2.660 . S
Tb480 N518 2.600 . S
Tb480 O524 2.546 . S
Tb480 O525 2.610 . S
Tb480 O527 2.320 . S
Tb480 O528 2.552 . S
Tb480 O529 2.413 . S
Tb480 O531 2.362 . S
Tb480 O532 2.421 . S
Tb480 C544 2.833 . S
C481 C484 1.432 . S
C481 C485 1.414 . S
C481 N488 1.359 1_565 S
C482 C484 1.417 . S
C482 C486 1.432 . S
C482 C494 1.410 . S
C483 C485 1.444 . S
C483 C486 1.317 . S
C483 H506 0.929 . S
C484 C481 1.432 . S
C484 C482 1.417 . S
C484 N492 1.360 1_565 S
C485 C481 1.414 . S
C485 C483 1.444 . S
C485 C490 1.385 . S
C486 C482 1.432 . S
C486 C483 1.317 . S
C486 H498 0.930 . S
C487 C489 1.392 . S
C487 C490 1.370 1_545 S
C487 H499 0.931 . S
N488 C481 1.359 1_545 S
N488 C489 1.327 . S
N488 Tb491 2.600 . S
C489 C487 1.392 . S
C489 N488 1.327 . S
C489 H496 0.930 . S
C490 C485 1.385 . S
C490 C487 1.370 1_565 S
C490 H509 0.930 . S
Tb491 N488 2.600 . S
Tb491 N492 2.660 . S
Tb491 O525 2.362 . S
Tb491 O526 2.421 . S
Tb491 O530 2.546 . S
Tb491 O531 2.610 . S
Tb491 O533 2.320 . S
Tb491 O534 2.552 . S
Tb491 O535 2.413 . S
Tb491 C555 2.833 . S
N492 C484 1.360 1_545 S
N492 Tb491 2.660 . S
N492 C493 1.305 1_545 S
C493 N492 1.305 1_565 S
C493 C495 1.407 . S
C493 H500 0.930 1_565 S
C494 C482 1.410 . S
C494 C495 1.345 . S
C494 H502 0.930 . S
C495 C493 1.407 . S
C495 C494 1.345 . S
C495 H497 0.930 . S
H496 C489 0.930 . S
H497 C495 0.930 . S
H498 C486 0.930 . S
H499 C487 0.931 . S
H500 C493 0.930 1_545 S
H501 C515 0.930 . S
H502 C494 0.930 . S
H503 C521 0.930 . S
H504 C512 0.930 . S
H505 C519 0.931 . S
H506 C483 0.929 . S
H507 C513 0.930 . S
H508 C546 0.930 . S
H509 C490 0.930 . S
H510 C545 0.929 . S
N511 Tb480 2.660 . S
N511 C512 1.305 . S
N511 C516 1.360 . S
C512 H504 0.930 . S
C512 N511 1.305 . S
C512 C515 1.407 . S
C513 H507 0.930 . S
C513 C514 1.410 . S
C513 C515 1.345 . S
C514 C513 1.410 . S
C514 C516 1.417 . S
C514 C546 1.432 . S
C515 H501 0.930 . S
C515 C512 1.407 . S
C515 C513 1.345 . S
C516 N511 1.360 . S
C516 C514 1.417 . S
C516 C520 1.432 . S
H517 C522 0.930 . S
N518 Tb480 2.600 . S
N518 C520 1.359 . S
N518 C521 1.327 . S
C519 H505 0.931 . S
C519 C521 1.392 . S
C519 C522 1.370 . S
C520 C516 1.432 . S
C520 N518 1.359 . S
C520 C523 1.414 . S
C521 H503 0.930 . S
C521 N518 1.327 . S
C521 C519 1.392 . S
C522 H517 0.930 . S
C522 C519 1.370 . S
C522 C523 1.385 . S
C523 C520 1.414 . S
C523 C522 1.385 . S
C523 C545 1.444 . S
O524 Tb480 2.546 . S
O524 C544 1.251 . S
O525 Tb480 2.610 . S
O525 Tb491 2.362 . S
O525 C536 1.283 . S
O526 Tb491 2.421 . S
O526 C543 1.262 . S
O527 Tb480 2.320 . S
O527 C543 1.260 . S
O528 Tb480 2.552 . S
O528 C536 1.243 . S
O529 Tb480 2.413 . S
O529 C544 1.256 . S
O530 Tb491 2.546 . S
O530 C555 1.251 . S
O531 Tb480 2.362 . S
O531 Tb491 2.610 . S
O531 C547 1.283 . S
O532 Tb480 2.421 . S
O532 C554 1.262 . S
O533 Tb491 2.320 . S
O533 C554 1.260 . S
O534 Tb491 2.552 . S
O534 C547 1.243 . S
O535 Tb491 2.413 . S
O535 C555 1.256 . S
C536 O525 1.283 . S
C536 O528 1.243 . S
C537 C539 1.382 . S
C537 C541 1.393 . S
C537 C544 1.500 . S
C538 C539 1.400 1_565 S
C538 C540 1.384 . S
C539 C537 1.382 . S
C539 C538 1.400 1_545 S
C539 H556 0.930 . S
C540 C538 1.384 . S
C540 C542 1.392 1_565 S
C540 H557 0.931 . S
C541 C537 1.393 . S
C541 C542 1.401 . S
C541 H558 0.930 . S
C542 C540 1.392 1_545 S
C542 C541 1.401 . S
C542 H559 0.930 . S
C543 O526 1.262 . S
C543 O527 1.260 . S
C544 Tb480 2.833 . S
C544 O524 1.251 . S
C544 O529 1.256 . S
C544 C537 1.500 . S
C545 H510 0.929 . S
C545 C523 1.444 . S
C545 C546 1.317 . S
C546 H508 0.930 . S
C546 C514 1.432 . S
C546 C545 1.317 . S
C547 O531 1.283 . S
C547 O534 1.243 . S
C548 C549 1.382 . S
C548 C552 1.393 . S
C548 C555 1.500 . S
C549 C548 1.382 . S
C549 C550 1.400 . S
C549 H560 0.930 . S
C550 C549 1.400 . S
C550 C551 1.384 . S
C551 C550 1.384 . S
C551 C553 1.392 . S
C551 H561 0.931 . S
C552 C548 1.393 . S
C552 C553 1.401 . S
C552 H562 0.930 . S
C553 C551 1.392 . S
C553 C552 1.401 . S
C553 H563 0.930 . S
C554 O532 1.262 . S
C554 O533 1.260 . S
C555 Tb491 2.833 . S
C555 O530 1.251 . S
C555 O535 1.256 . S
C555 C548 1.500 . S
H556 C539 0.930 . S
H557 C540 0.931 . S
H558 C541 0.930 . S
H559 C542 0.930 . S
H560 C549 0.930 . S
H561 C551 0.931 . S
H562 C552 0.930 . S
H563 C553 0.930 . S
Tb564 N595 2.660 . S
Tb564 N602 2.600 . S
Tb564 O608 2.546 . S
Tb564 O609 2.610 . S
Tb564 O611 2.320 . S
Tb564 O612 2.552 . S
Tb564 O613 2.413 . S
Tb564 O615 2.362 . S
Tb564 O616 2.421 . S
Tb564 C628 2.833 . S
C565 C568 1.432 . S
C565 C569 1.414 . S
C565 N572 1.359 . S
C566 C568 1.417 . S
C566 C570 1.432 . S
C566 C578 1.410 . S
C567 C569 1.444 . S
C567 C570 1.317 . S
C567 H590 0.929 . S
C568 C565 1.432 . S
C568 C566 1.417 . S
C568 N576 1.360 . S
C569 C565 1.414 . S
C569 C567 1.444 . S
C569 C574 1.385 . S
C570 C566 1.432 . S
C570 C567 1.317 . S
C570 H582 0.930 . S
C571 C573 1.392 . S
C571 C574 1.370 . S
C571 H583 0.931 . S
N572 C565 1.359 . S
N572 C573 1.327 . S
N572 Tb575 2.600 . S
C573 C571 1.392 . S
C573 N572 1.327 . S
C573 H580 0.930 . S
C574 C569 1.385 . S
C574 C571 1.370 . S
C574 H593 0.930 . S
Tb575 N572 2.600 . S
Tb575 N576 2.660 . S
Tb575 O609 2.362 . S
Tb575 O610 2.421 . S
Tb575 O614 2.546 . S
Tb575 O615 2.610 . S
Tb575 O617 2.320 . S
Tb575 O618 2.552 . S
Tb575 O619 2.413 . S
Tb575 C639 2.833 . S
N576 C568 1.360 . S
N576 Tb575 2.660 . S
N576 C577 1.305 . S
C577 N576 1.305 . S
C577 C579 1.407 . S
C577 H584 0.930 . S
C578 C566 1.410 . S
C578 C579 1.345 . S
C578 H586 0.930 . S
C579 C577 1.407 . S
C579 C578 1.345 . S
C579 H581 0.930 . S
H580 C573 0.930 . S
H581 C579 0.930 . S
H582 C570 0.930 . S
H583 C571 0.931 . S
H584 C577 0.930 . S
H585 C599 0.930 . S
H586 C578 0.930 . S
H587 C605 0.930 . S
H588 C596 0.930 . S
H589 C603 0.931 . S
H590 C567 0.929 . S
H591 C597 0.930 . S
H592 C630 0.930 . S
H593 C574 0.930 . S
H594 C629 0.929 . S
N595 Tb564 2.660 . S
N595 C596 1.305 . S
N595 C600 1.360 . S
C596 H588 0.930 . S
C596 N595 1.305 . S
C596 C599 1.407 . S
C597 H591 0.930 . S
C597 C598 1.410 . S
C597 C599 1.345 . S
C598 C597 1.410 . S
C598 C600 1.417 . S
C598 C630 1.432 . S
C599 H585 0.930 . S
C599 C596 1.407 . S
C599 C597 1.345 . S
C600 N595 1.360 . S
C600 C598 1.417 . S
C600 C604 1.432 . S
H601 C606 0.930 . S
N602 Tb564 2.600 . S
N602 C604 1.359 . S
N602 C605 1.327 . S
C603 H589 0.931 . S
C603 C605 1.392 . S
C603 C606 1.370 . S
C604 C600 1.432 . S
C604 N602 1.359 . S
C604 C607 1.414 . S
C605 H587 0.930 . S
C605 N602 1.327 . S
C605 C603 1.392 . S
C606 H601 0.930 . S
C606 C603 1.370 . S
C606 C607 1.385 . S
C607 C604 1.414 . S
C607 C606 1.385 . S
C607 C629 1.444 . S
O608 Tb564 2.546 . S
O608 C628 1.251 . S
O609 Tb564 2.610 . S
O609 Tb575 2.362 . S
O609 C620 1.283 . S
O610 Tb575 2.421 . S
O610 C627 1.262 . S
O611 Tb564 2.320 . S
O611 C627 1.260 . S
O612 Tb564 2.552 . S
O612 C620 1.243 . S
O613 Tb564 2.413 . S
O613 C628 1.256 . S
O614 Tb575 2.546 . S
O614 C639 1.251 . S
O615 Tb564 2.362 . S
O615 Tb575 2.610 . S
O615 C631 1.283 . S
O616 Tb564 2.421 . S
O616 C638 1.262 . S
O617 Tb575 2.320 . S
O617 C638 1.260 . S
O618 Tb575 2.552 . S
O618 C631 1.243 . S
O619 Tb575 2.413 . S
O619 C639 1.256 . S
C620 O609 1.283 . S
C620 O612 1.243 . S
C621 C623 1.382 . S
C621 C625 1.393 . S
C621 C628 1.500 . S
C622 C623 1.400 . S
C622 C624 1.384 . S
C623 C621 1.382 . S
C623 C622 1.400 . S
C623 H640 0.930 . S
C624 C622 1.384 . S
C624 C626 1.392 . S
C624 H641 0.931 . S
C625 C621 1.393 . S
C625 C626 1.401 . S
C625 H642 0.930 . S
C626 C624 1.392 . S
C626 C625 1.401 . S
C626 H643 0.930 . S
C627 O610 1.262 . S
C627 O611 1.260 . S
C628 Tb564 2.833 . S
C628 O608 1.251 . S
C628 O613 1.256 . S
C628 C621 1.500 . S
C629 H594 0.929 . S
C629 C607 1.444 . S
C629 C630 1.317 . S
C630 H592 0.930 . S
C630 C598 1.432 . S
C630 C629 1.317 . S
C631 O615 1.283 . S
C631 O618 1.243 . S
C632 C633 1.382 . S
C632 C636 1.393 . S
C632 C639 1.500 . S
C633 C632 1.382 . S
C633 C634 1.400 . S
C633 H644 0.930 . S
C634 C633 1.400 . S
C634 C635 1.384 . S
C635 C634 1.384 . S
C635 C637 1.392 . S
C635 H645 0.931 . S
C636 C632 1.393 . S
C636 C637 1.401 . S
C636 H646 0.930 . S
C637 C635 1.392 . S
C637 C636 1.401 . S
C637 H647 0.930 . S
C638 O616 1.262 . S
C638 O617 1.260 . S
C639 Tb575 2.833 . S
C639 O614 1.251 . S
C639 O619 1.256 . S
C639 C632 1.500 . S
H640 C623 0.930 . S
H641 C624 0.931 . S
H642 C625 0.930 . S
H643 C626 0.930 . S
H644 C633 0.930 . S
H645 C635 0.931 . S
H646 C636 0.930 . S
H647 C637 0.930 . S
Tb648 N679 2.660 . S
Tb648 N686 2.600 . S
Tb648 O692 2.546 . S
Tb648 O693 2.610 . S
Tb648 O695 2.320 . S
Tb648 O696 2.552 . S
Tb648 O697 2.413 . S
Tb648 O699 2.362 . S
Tb648 O700 2.421 . S
Tb648 C712 2.833 . S
C649 C652 1.432 . S
C649 C653 1.414 . S
C649 N656 1.360 . S
C650 C652 1.417 . S
C650 C654 1.432 . S
C650 C662 1.410 . S
C651 C653 1.444 . S
C651 C654 1.317 . S
C651 H674 0.929 . S
C652 C649 1.432 . S
C652 C650 1.417 . S
C652 N660 1.360 . S
C653 C649 1.414 . S
C653 C651 1.444 . S
C653 C658 1.385 . S
C654 C650 1.432 . S
C654 C651 1.317 . S
C654 H666 0.930 . S
C655 C657 1.392 1_565 S
C655 C658 1.370 . S
C655 H667 0.931 . S
N656 C649 1.360 . S
N656 C657 1.328 1_565 S
N656 Tb659 2.599 1_565 S
C657 C655 1.392 1_545 S
C657 N656 1.328 1_545 S
C657 H664 0.930 . S
C658 C653 1.385 . S
C658 C655 1.370 . S
C658 H677 0.930 . S
Tb659 N656 2.599 1_545 S
Tb659 N660 2.660 1_545 S
Tb659 O693 2.362 . S
Tb659 O694 2.421 . S
Tb659 O698 2.546 1_545 S
Tb659 O699 2.610 . S
Tb659 O701 2.320 . S
Tb659 O702 2.552 . S
Tb659 O703 2.413 1_545 S
Tb659 C723 2.833 1_545 S
N660 C652 1.360 . S
N660 Tb659 2.660 1_565 S
N660 C661 1.305 . S
C661 N660 1.305 . S
C661 C663 1.439 . S
C661 H668 0.930 . S
C662 C650 1.410 . S
C662 C663 1.380 . S
C662 H670 0.937 . S
C663 C661 1.439 . S
C663 C662 1.380 . S
C663 H665 0.866 1_455 S
H664 C657 0.930 . S
H665 C663 0.866 1_655 S
H666 C654 0.930 . S
H667 C655 0.931 . S
H668 C661 0.930 . S
H669 C683 0.930 . S
H670 C662 0.937 . S
H671 C689 0.930 . S
H672 C680 0.930 . S
H673 C687 0.887 1_655 S
H674 C651 0.929 . S
H675 C681 0.930 . S
H676 C714 0.930 . S
H677 C658 0.930 . S
H678 C713 0.929 . S
N679 Tb648 2.660 . S
N679 C680 1.305 . S
N679 C684 1.360 . S
C680 H672 0.930 . S
C680 N679 1.305 . S
C680 C683 1.407 . S
C681 H675 0.930 . S
C681 C682 1.410 . S
C681 C683 1.345 . S
C682 C681 1.410 . S
C682 C684 1.417 . S
C682 C714 1.432 . S
C683 H669 0.930 . S
C683 C680 1.407 . S
C683 C681 1.345 . S
C684 N679 1.360 . S
C684 C682 1.417 . S
C684 C688 1.432 . S
H685 C690 0.930 . S
N686 Tb648 2.600 . S
N686 C688 1.359 . S
N686 C689 1.327 . S
C687 H673 0.887 1_455 S
C687 C689 1.420 . S
C687 C690 1.388 . S
C688 C684 1.432 . S
C688 N686 1.359 . S
C688 C691 1.414 . S
C689 H671 0.930 . S
C689 N686 1.327 . S
C689 C687 1.420 . S
C690 H685 0.930 . S
C690 C687 1.388 . S
C690 C691 1.385 . S
C691 C688 1.414 . S
C691 C690 1.385 . S
C691 C713 1.444 . S
O692 Tb648 2.546 . S
O692 C712 1.251 . S
O693 Tb648 2.610 . S
O693 Tb659 2.362 . S
O693 C704 1.283 . S
O694 Tb659 2.421 . S
O694 C711 1.262 . S
O695 Tb648 2.320 . S
O695 C711 1.260 . S
O696 Tb648 2.552 . S
O696 C704 1.243 . S
O697 Tb648 2.413 . S
O697 C712 1.256 . S
O698 Tb659 2.546 1_565 S
O698 C723 1.251 . S
O699 Tb648 2.362 . S
O699 Tb659 2.610 . S
O699 C715 1.283 . S
O700 Tb648 2.421 . S
O700 C722 1.262 . S
O701 Tb659 2.320 . S
O701 C722 1.260 . S
O702 Tb659 2.552 . S
O702 C715 1.243 . S
O703 Tb659 2.413 1_565 S
O703 C723 1.256 . S
C704 O693 1.283 . S
C704 O696 1.243 . S
C705 C707 1.382 . S
C705 C709 1.393 . S
C705 C712 1.500 . S
C706 C707 1.400 . S
C706 C708 1.384 . S
C707 C705 1.382 . S
C707 C706 1.400 . S
C707 H724 0.930 . S
C708 C706 1.384 . S
C708 C710 1.392 . S
C708 H725 0.931 . S
C709 C705 1.393 . S
C709 C710 1.401 . S
C709 H726 0.930 . S
C710 C708 1.392 . S
C710 C709 1.401 . S
C710 H727 0.930 . S
C711 O694 1.262 . S
C711 O695 1.260 . S
C712 Tb648 2.833 . S
C712 O692 1.251 . S
C712 O697 1.256 . S
C712 C705 1.500 . S
C713 H678 0.929 . S
C713 C691 1.444 . S
C713 C714 1.317 . S
C714 H676 0.930 . S
C714 C682 1.432 . S
C714 C713 1.317 . S
C715 O699 1.283 . S
C715 O702 1.243 . S
C716 C717 1.382 . S
C716 C720 1.393 . S
C716 C723 1.500 . S
C717 C716 1.382 . S
C717 C718 1.400 . S
C717 H728 0.930 . S
C718 C717 1.400 . S
C718 C719 1.384 . S
C719 C718 1.384 . S
C719 C721 1.392 . S
C719 H729 0.931 . S
C720 C716 1.393 . S
C720 C721 1.401 . S
C720 H730 0.930 . S
C721 C719 1.392 . S
C721 C720 1.401 . S
C721 H731 0.930 . S
C722 O700 1.262 . S
C722 O701 1.260 . S
C723 Tb659 2.833 1_565 S
C723 O698 1.251 . S
C723 O703 1.256 . S
C723 C716 1.500 . S
H724 C707 0.930 . S
H725 C708 0.931 . S
H726 C709 0.930 . S
H727 C710 0.930 . S
H728 C717 0.930 . S
H729 C719 0.931 . S
H730 C720 0.930 . S
H731 C721 0.930 . S
Tb732 N763 2.660 . S
Tb732 N770 2.600 . S
Tb732 O776 2.546 . S
Tb732 O777 2.610 . S
Tb732 O779 2.320 . S
Tb732 O780 2.552 . S
Tb732 O781 2.413 . S
Tb732 O783 2.362 . S
Tb732 O784 2.421 . S
Tb732 C796 2.833 . S
C733 C736 1.432 . S
C733 C737 1.414 . S
C733 N740 1.359 . S
C734 C736 1.417 . S
C734 C738 1.432 . S
C734 C746 1.410 . S
C735 C737 1.444 . S
C735 C738 1.317 . S
C735 H758 0.929 . S
C736 C733 1.432 . S
C736 C734 1.417 . S
C736 N744 1.360 . S
C737 C733 1.414 . S
C737 C735 1.444 . S
C737 C742 1.385 . S
C738 C734 1.432 . S
C738 C735 1.317 . S
C738 H750 0.930 . S
C739 C741 1.392 . S
C739 C742 1.370 . S
C739 H751 0.931 . S
N740 C733 1.359 . S
N740 C741 1.327 . S
N740 Tb743 2.600 . S
C741 C739 1.392 . S
C741 N740 1.327 . S
C741 H748 0.930 . S
C742 C737 1.385 . S
C742 C739 1.370 . S
C742 H761 0.930 . S
Tb743 N740 2.600 . S
Tb743 N744 2.660 . S
Tb743 O777 2.362 . S
Tb743 O778 2.421 . S
Tb743 O782 2.546 . S
Tb743 O783 2.610 . S
Tb743 O785 2.320 . S
Tb743 O786 2.552 . S
Tb743 O787 2.413 . S
Tb743 C807 2.833 . S
N744 C736 1.360 . S
N744 Tb743 2.660 . S
N744 C745 1.305 . S
C745 N744 1.305 . S
C745 C747 1.407 . S
C745 H752 0.930 . S
C746 C734 1.410 . S
C746 C747 1.345 . S
C746 H754 0.930 . S
C747 C745 1.407 . S
C747 C746 1.345 . S
C747 H749 0.930 . S
H748 C741 0.930 . S
H749 C747 0.930 . S
H750 C738 0.930 . S
H751 C739 0.931 . S
H752 C745 0.930 . S
H753 C767 0.930 . S
H754 C746 0.930 . S
H755 C773 0.930 . S
H756 C764 0.930 . S
H757 C771 0.931 . S
H758 C735 0.929 . S
H759 C765 0.930 . S
H760 C798 0.930 . S
H761 C742 0.930 . S
H762 C797 0.929 . S
N763 Tb732 2.660 . S
N763 C764 1.305 . S
N763 C768 1.360 . S
C764 H756 0.930 . S
C764 N763 1.305 . S
C764 C767 1.407 . S
C765 H759 0.930 . S
C765 C766 1.410 . S
C765 C767 1.345 . S
C766 C765 1.410 . S
C766 C768 1.417 . S
C766 C798 1.432 . S
C767 H753 0.930 . S
C767 C764 1.407 . S
C767 C765 1.345 . S
C768 N763 1.360 . S
C768 C766 1.417 . S
C768 C772 1.432 . S
H769 C774 0.930 . S
N770 Tb732 2.600 . S
N770 C772 1.359 . S
N770 C773 1.327 . S
C771 H757 0.931 . S
C771 C773 1.392 . S
C771 C774 1.370 . S
C772 C768 1.432 . S
C772 N770 1.359 . S
C772 C775 1.414 . S
C773 H755 0.930 . S
C773 N770 1.327 . S
C773 C771 1.392 . S
C774 H769 0.930 . S
C774 C771 1.370 . S
C774 C775 1.385 . S
C775 C772 1.414 . S
C775 C774 1.385 . S
C775 C797 1.444 . S
O776 Tb732 2.546 . S
O776 C796 1.251 . S
O777 Tb732 2.610 . S
O777 Tb743 2.362 . S
O777 C788 1.283 . S
O778 Tb743 2.421 . S
O778 C795 1.262 . S
O779 Tb732 2.320 . S
O779 C795 1.260 . S
O780 Tb732 2.552 . S
O780 C788 1.243 . S
O781 Tb732 2.413 . S
O781 C796 1.256 . S
O782 Tb743 2.546 . S
O782 C807 1.251 . S
O783 Tb732 2.362 . S
O783 Tb743 2.610 . S
O783 C799 1.283 . S
O784 Tb732 2.421 . S
O784 C806 1.262 . S
O785 Tb743 2.320 . S
O785 C806 1.260 . S
O786 Tb743 2.552 . S
O786 C799 1.243 . S
O787 Tb743 2.413 . S
O787 C807 1.256 . S
C788 O777 1.283 . S
C788 O780 1.243 . S
C789 C791 1.382 . S
C789 C793 1.393 . S
C789 C796 1.500 . S
C790 C791 1.400 . S
C790 C792 1.384 . S
C791 C789 1.382 . S
C791 C790 1.400 . S
C791 H808 0.930 . S
C792 C790 1.384 . S
C792 C794 1.392 . S
C792 H809 0.931 . S
C793 C789 1.393 . S
C793 C794 1.401 . S
C793 H810 0.930 . S
C794 C792 1.392 . S
C794 C793 1.401 . S
C794 H811 0.930 . S
C795 O778 1.262 . S
C795 O779 1.260 . S
C796 Tb732 2.833 . S
C796 O776 1.251 . S
C796 O781 1.256 . S
C796 C789 1.500 . S
C797 H762 0.929 . S
C797 C775 1.444 . S
C797 C798 1.317 . S
C798 H760 0.930 . S
C798 C766 1.432 . S
C798 C797 1.317 . S
C799 O783 1.283 . S
C799 O786 1.243 . S
C800 C801 1.382 . S
C800 C804 1.393 . S
C800 C807 1.500 . S
C801 C800 1.382 . S
C801 C802 1.400 . S
C801 H812 0.930 . S
C802 C801 1.400 . S
C802 C803 1.384 . S
C803 C802 1.384 . S
C803 C805 1.392 . S
C803 H813 0.931 . S
C804 C800 1.393 . S
C804 C805 1.401 . S
C804 H814 0.930 . S
C805 C803 1.392 . S
C805 C804 1.401 . S
C805 H815 0.930 . S
C806 O784 1.262 . S
C806 O785 1.260 . S
C807 Tb743 2.833 . S
C807 O782 1.251 . S
C807 O787 1.256 . S
C807 C800 1.500 . S
H808 C791 0.930 . S
H809 C792 0.931 . S
H810 C793 0.930 . S
H811 C794 0.930 . S
H812 C801 0.930 . S
H813 C803 0.931 . S
H814 C804 0.930 . S
H815 C805 0.930 . S
Tb816 N847 2.660 . S
Tb816 N854 2.600 . S
Tb816 O860 2.589 . S
Tb816 O861 2.610 . S
Tb816 O863 2.320 . S
Tb816 O864 2.552 . S
Tb816 O865 2.413 . S
Tb816 O867 2.362 . S
Tb816 O868 2.421 1_545 S
Tb816 C880 2.833 . S
C817 C820 1.432 . S
C817 C821 1.414 . S
C817 N824 1.359 . S
C818 C820 1.417 . S
C818 C822 1.432 . S
C818 C830 1.410 1_545 S
C819 C821 1.444 . S
C819 C822 1.317 . S
C819 H842 0.929 . S
C820 C817 1.432 . S
C820 C818 1.417 . S
C820 N828 1.360 . S
C821 C817 1.414 . S
C821 C819 1.444 . S
C821 C826 1.385 . S
C822 C818 1.432 . S
C822 C819 1.317 . S
C822 H834 0.930 . S
C823 C825 1.392 . S
C823 C826 1.370 . S
C823 H835 0.931 . S
N824 C817 1.359 . S
N824 C825 1.327 . S
N824 Tb827 2.600 . S
C825 C823 1.392 . S
C825 N824 1.327 . S
C825 H832 0.930 . S
C826 C821 1.385 . S
C826 C823 1.370 . S
C826 H845 0.930 . S
Tb827 N824 2.600 . S
Tb827 N828 2.660 . S
Tb827 O861 2.362 1_556 S
Tb827 O862 2.421 1_556 S
Tb827 O866 2.546 . S
Tb827 O867 2.610 1_556 S
Tb827 O869 2.320 . S
Tb827 O870 2.552 1_556 S
Tb827 O871 2.413 . S
Tb827 C891 2.833 . S
N828 C820 1.360 . S
N828 Tb827 2.660 . S
N828 C829 1.305 1_545 S
C829 N828 1.305 1_565 S
C829 C831 1.407 . S
C829 H836 0.930 . S
C830 C818 1.410 1_565 S
C830 C831 1.345 . S
C830 H838 0.930 . S
C831 C829 1.407 . S
C831 C830 1.345 . S
C831 H833 0.930 . S
H832 C825 0.930 . S
H833 C831 0.930 . S
H834 C822 0.930 . S
H835 C823 0.931 . S
H836 C829 0.930 . S
H837 C851 0.930 . S
H838 C830 0.930 . S
H839 C857 0.930 . S
H840 C848 0.930 . S
H841 C855 0.931 . S
H842 C819 0.929 . S
H843 C849 0.930 . S
H844 C882 0.930 . S
H845 C826 0.930 . S
H846 C881 0.929 . S
N847 Tb816 2.660 . S
N847 C848 1.305 . S
N847 C852 1.360 . S
C848 H840 0.930 . S
C848 N847 1.305 . S
C848 C851 1.407 . S
C849 H843 0.930 . S
C849 C850 1.410 . S
C849 C851 1.345 . S
C850 C849 1.410 . S
C850 C852 1.417 . S
C850 C882 1.432 . S
C851 H837 0.930 . S
C851 C848 1.407 . S
C851 C849 1.345 . S
C852 N847 1.360 . S
C852 C850 1.417 . S
C852 C856 1.432 . S
H853 C858 0.930 . S
N854 Tb816 2.600 . S
N854 C856 1.359 . S
N854 C857 1.327 1_545 S
C855 H841 0.931 . S
C855 C857 1.392 . S
C855 C858 1.370 . S
C856 C852 1.432 . S
C856 N854 1.359 . S
C856 C859 1.414 . S
C857 H839 0.930 . S
C857 N854 1.327 1_565 S
C857 C855 1.392 . S
C858 H853 0.930 . S
C858 C855 1.370 . S
C858 C859 1.385 1_565 S
C859 C856 1.414 . S
C859 C858 1.385 1_545 S
C859 C881 1.444 . S
O860 Tb816 2.589 . S
O860 C880 1.293 . S
O861 Tb816 2.610 . S
O861 Tb827 2.362 1_554 S
O861 C872 1.283 . S
O862 Tb827 2.421 1_554 S
O862 C879 1.262 . S
O863 Tb816 2.320 . S
O863 C879 1.260 . S
O864 Tb816 2.552 . S
O864 C872 1.243 . S
O865 Tb816 2.413 . S
O865 C880 1.256 . S
O866 Tb827 2.546 . S
O866 C891 1.251 . S
O867 Tb816 2.362 . S
O867 Tb827 2.610 1_554 S
O867 C883 1.283 . S
O868 Tb816 2.421 1_565 S
O868 C890 1.261 . S
O869 Tb827 2.320 . S
O869 C890 1.264 1_546 S
O870 Tb827 2.552 1_554 S
O870 C883 1.243 . S
O871 Tb827 2.413 . S
O871 C891 1.256 . S
C872 O861 1.283 . S
C872 O864 1.243 . S
C873 C875 1.382 . S
C873 C877 1.393 1_545 S
C873 C880 1.500 . S
C874 C875 1.400 . S
C874 C876 1.384 . S
C875 C873 1.382 . S
C875 C874 1.400 . S
C875 H892 0.930 . S
C876 C874 1.384 . S
C876 C878 1.392 1_545 S
C876 H893 0.931 1_545 S
C877 C873 1.393 1_565 S
C877 C878 1.401 . S
C877 H894 0.930 . S
C878 C876 1.392 1_565 S
C878 C877 1.401 . S
C878 H895 0.930 . S
C879 O862 1.262 . S
C879 O863 1.260 . S
C880 Tb816 2.833 . S
C880 O860 1.293 . S
C880 O865 1.256 . S
C880 C873 1.500 . S
C881 H846 0.929 . S
C881 C859 1.444 . S
C881 C882 1.317 . S
C882 H844 0.930 . S
C882 C850 1.432 . S
C882 C881 1.317 . S
C883 O867 1.283 . S
C883 O870 1.243 . S
C884 C885 1.382 . S
C884 C888 1.393 . S
C884 C891 1.500 . S
C885 C884 1.382 . S
C885 C886 1.400 . S
C885 H896 0.930 . S
C886 C885 1.400 . S
C886 C887 1.384 . S
C887 C886 1.384 . S
C887 C889 1.392 . S
C887 H897 0.931 . S
C888 C884 1.393 . S
C888 C889 1.401 . S
C888 H898 0.930 . S
C889 C887 1.392 . S
C889 C888 1.401 . S
C889 H899 0.930 . S
C890 O868 1.261 . S
C890 O869 1.264 1_564 S
C891 Tb827 2.833 . S
C891 O866 1.251 . S
C891 O871 1.256 . S
C891 C884 1.500 . S
H892 C875 0.930 . S
H893 C876 0.931 1_565 S
H894 C877 0.930 . S
H895 C878 0.930 . S
H896 C885 0.930 . S
H897 C887 0.931 . S
H898 C888 0.930 . S
H899 C889 0.930 . S
Tb900 N931 2.660 . S
Tb900 N938 2.600 . S
Tb900 O944 2.546 . S
Tb900 O945 2.610 . S
Tb900 O947 2.320 . S
Tb900 O948 2.552 . S
Tb900 O949 2.413 . S
Tb900 O951 2.362 . S
Tb900 O952 2.421 . S
Tb900 C964 2.833 . S
C901 C904 1.432 . S
C901 C905 1.414 . S
C901 N908 1.359 . S
C902 C904 1.417 . S
C902 C906 1.432 . S
C902 C914 1.410 . S
C903 C905 1.444 . S
C903 C906 1.317 . S
C903 H926 0.929 . S
C904 C901 1.432 . S
C904 C902 1.417 . S
C904 N912 1.360 . S
C905 C901 1.414 . S
C905 C903 1.444 . S
C905 C910 1.385 . S
C906 C902 1.432 . S
C906 C903 1.317 . S
C906 H918 0.930 . S
C907 C909 1.392 . S
C907 C910 1.370 . S
C907 H919 0.931 . S
N908 C901 1.359 . S
N908 C909 1.327 . S
N908 Tb911 2.600 . S
C909 C907 1.392 . S
C909 N908 1.327 . S
C909 H916 0.930 . S
C910 C905 1.385 . S
C910 C907 1.370 . S
C910 H929 0.930 . S
Tb911 N908 2.600 . S
Tb911 N912 2.660 . S
Tb911 O945 2.362 . S
Tb911 O946 2.421 . S
Tb911 O950 2.546 . S
Tb911 O951 2.610 . S
Tb911 O953 2.320 . S
Tb911 O954 2.552 . S
Tb911 O955 2.413 . S
Tb911 C975 2.833 . S
N912 C904 1.360 . S
N912 Tb911 2.660 . S
N912 C913 1.305 . S
C913 N912 1.305 . S
C913 C915 1.407 . S
C913 H920 0.930 . S
C914 C902 1.410 . S
C914 C915 1.345 . S
C914 H922 0.930 . S
C915 C913 1.407 . S
C915 C914 1.345 . S
C915 H917 0.930 . S
H916 C909 0.930 . S
H917 C915 0.930 . S
H918 C906 0.930 . S
H919 C907 0.931 . S
H920 C913 0.930 . S
H921 C935 0.930 . S
H922 C914 0.930 . S
H923 C941 0.930 . S
H924 C932 0.930 . S
H925 C939 0.931 . S
H926 C903 0.929 . S
H927 C933 0.930 . S
H928 C966 0.930 . S
H929 C910 0.930 . S
H930 C965 0.929 . S
N931 Tb900 2.660 . S
N931 C932 1.305 . S
N931 C936 1.360 . S
C932 H924 0.930 . S
C932 N931 1.305 . S
C932 C935 1.407 . S
C933 H927 0.930 . S
C933 C934 1.410 . S
C933 C935 1.345 . S
C934 C933 1.410 . S
C934 C936 1.417 . S
C934 C966 1.432 . S
C935 H921 0.930 . S
C935 C932 1.407 . S
C935 C933 1.345 . S
C936 N931 1.360 . S
C936 C934 1.417 . S
C936 C940 1.432 . S
H937 C942 0.930 . S
N938 Tb900 2.600 . S
N938 C940 1.359 . S
N938 C941 1.327 . S
C939 H925 0.931 . S
C939 C941 1.392 . S
C939 C942 1.370 . S
C940 C936 1.432 . S
C940 N938 1.359 . S
C940 C943 1.414 . S
C941 H923 0.930 . S
C941 N938 1.327 . S
C941 C939 1.392 . S
C942 H937 0.930 . S
C942 C939 1.370 . S
C942 C943 1.385 . S
C943 C940 1.414 . S
C943 C942 1.385 . S
C943 C965 1.444 . S
O944 Tb900 2.546 . S
O944 C964 1.251 . S
O945 Tb900 2.610 . S
O945 Tb911 2.362 . S
O945 C956 1.283 . S
O946 Tb911 2.421 . S
O946 C963 1.262 . S
O947 Tb900 2.320 . S
O947 C963 1.260 . S
O948 Tb900 2.552 . S
O948 C956 1.243 . S
O949 Tb900 2.413 . S
O949 C964 1.256 . S
O950 Tb911 2.546 . S
O950 C975 1.251 . S
O951 Tb900 2.362 . S
O951 Tb911 2.610 . S
O951 C967 1.283 . S
O952 Tb900 2.421 . S
O952 C974 1.262 . S
O953 Tb911 2.320 . S
O953 C974 1.260 . S
O954 Tb911 2.552 . S
O954 C967 1.243 . S
O955 Tb911 2.413 . S
O955 C975 1.256 . S
C956 O945 1.283 . S
C956 O948 1.243 . S
C957 C959 1.382 . S
C957 C961 1.393 . S
C957 C964 1.500 . S
C958 C959 1.400 . S
C958 C960 1.384 . S
C959 C957 1.382 . S
C959 C958 1.400 . S
C959 H976 0.930 . S
C960 C958 1.384 . S
C960 C962 1.392 . S
C960 H977 0.931 . S
C961 C957 1.393 . S
C961 C962 1.401 . S
C961 H978 0.930 . S
C962 C960 1.392 . S
C962 C961 1.401 . S
C962 H979 0.930 . S
C963 O946 1.262 . S
C963 O947 1.260 . S
C964 Tb900 2.833 . S
C964 O944 1.251 . S
C964 O949 1.256 . S
C964 C957 1.500 . S
C965 H930 0.929 . S
C965 C943 1.444 . S
C965 C966 1.317 . S
C966 H928 0.930 . S
C966 C934 1.432 . S
C966 C965 1.317 . S
C967 O951 1.283 . S
C967 O954 1.243 . S
C968 C969 1.382 . S
C968 C972 1.393 . S
C968 C975 1.500 . S
C969 C968 1.382 . S
C969 C970 1.400 . S
C969 H980 0.930 . S
C970 C969 1.400 . S
C970 C971 1.384 . S
C971 C970 1.384 . S
C971 C973 1.392 . S
C971 H981 0.931 . S
C972 C968 1.393 . S
C972 C973 1.401 . S
C972 H982 0.930 . S
C973 C971 1.392 . S
C973 C972 1.401 . S
C973 H983 0.930 . S
C974 O952 1.262 . S
C974 O953 1.260 . S
C975 Tb911 2.833 . S
C975 O950 1.251 . S
C975 O955 1.256 . S
C975 C968 1.500 . S
H976 C959 0.930 . S
H977 C960 0.931 . S
H978 C961 0.930 . S
H979 C962 0.930 . S
H980 C969 0.930 . S
H981 C971 0.931 . S
H982 C972 0.930 . S
H983 C973 0.930 . S
Tb984 N1015 2.660 . S
Tb984 N1022 2.600 . S
Tb984 O1028 2.546 . S
Tb984 O1029 2.593 1_554 S
Tb984 O1031 2.320 . S
Tb984 O1032 2.552 1_554 S
Tb984 O1033 2.413 . S
Tb984 O1035 2.362 . S
Tb984 O1036 2.421 . S
Tb984 C1048 2.833 . S
C985 C988 1.432 . S
C985 C989 1.414 . S
C985 N992 1.359 . S
C986 C988 1.417 . S
C986 C990 1.432 . S
C986 C998 1.410 . S
C987 C989 1.444 . S
C987 C990 1.317 . S
C987 H1010 0.929 . S
C988 C985 1.432 . S
C988 C986 1.417 . S
C988 N996 1.360 . S
C989 C985 1.414 . S
C989 C987 1.444 . S
C989 C994 1.385 . S
C990 C986 1.432 . S
C990 C987 1.317 . S
C990 H1002 0.930 . S
C991 C993 1.392 . S
C991 C994 1.370 . S
C991 H1003 0.931 . S
N992 C985 1.359 . S
N992 C993 1.327 . S
N992 Tb995 2.600 1_556 S
C993 C991 1.392 . S
C993 N992 1.327 . S
C993 H1000 0.930 . S
C994 C989 1.385 . S
C994 C991 1.370 . S
C994 H1013 0.930 . S
Tb995 N992 2.600 1_554 S
Tb995 N996 2.660 1_554 S
Tb995 O1029 2.349 1_554 S
Tb995 O1030 2.421 . S
Tb995 O1034 2.546 . S
Tb995 O1035 2.610 . S
Tb995 O1037 2.320 . S
Tb995 O1038 2.552 . S
Tb995 O1039 2.413 . S
Tb995 C1059 2.833 . S
N996 C988 1.360 . S
N996 Tb995 2.660 1_556 S
N996 C997 1.305 . S
C997 N996 1.305 . S
C997 C999 1.407 . S
C997 H1004 0.930 . S
C998 C986 1.410 . S
C998 C999 1.345 . S
C998 H1006 0.930 . S
C999 C997 1.407 . S
C999 C998 1.345 . S
C999 H1001 0.930 . S
H1000 C993 0.930 . S
H1001 C999 0.930 . S
H1002 C990 0.930 . S
H1003 C991 0.931 . S
H1004 C997 0.930 . S
H1005 C1019 0.930 . S
H1006 C998 0.930 . S
H1007 C1025 0.930 . S
H1008 C1016 0.930 . S
H1009 C1023 0.931 . S
H1010 C987 0.929 . S
H1011 C1017 0.930 . S
H1012 C1050 0.930 . S
H1013 C994 0.930 . S
H1014 C1049 0.929 . S
N1015 Tb984 2.660 . S
N1015 C1016 1.305 . S
N1015 C1020 1.360 . S
C1016 H1008 0.930 . S
C1016 N1015 1.305 . S
C1016 C1019 1.407 . S
C1017 H1011 0.930 . S
C1017 C1018 1.410 . S
C1017 C1019 1.345 . S
C1018 C1017 1.410 . S
C1018 C1020 1.417 . S
C1018 C1050 1.432 . S
C1019 H1005 0.930 . S
C1019 C1016 1.407 . S
C1019 C1017 1.345 . S
C1020 N1015 1.360 . S
C1020 C1018 1.417 . S
C1020 C1024 1.432 . S
H1021 C1026 0.930 . S
N1022 Tb984 2.600 . S
N1022 C1024 1.359 . S
N1022 C1025 1.327 . S
C1023 H1009 0.931 . S
C1023 C1025 1.392 . S
C1023 C1026 1.370 . S
C1024 C1020 1.432 . S
C1024 N1022 1.359 . S
C1024 C1027 1.414 . S
C1025 H1007 0.930 . S
C1025 N1022 1.327 . S
C1025 C1023 1.392 . S
C1026 H1021 0.930 . S
C1026 C1023 1.370 . S
C1026 C1027 1.385 . S
C1027 C1024 1.414 . S
C1027 C1026 1.385 . S
C1027 C1049 1.444 . S
O1028 Tb984 2.546 . S
O1028 C1048 1.251 . S
O1029 Tb984 2.593 1_556 S
O1029 Tb995 2.349 1_556 S
O1029 C1040 1.302 . S
O1030 Tb995 2.421 . S
O1030 C1047 1.262 . S
O1031 Tb984 2.320 . S
O1031 C1047 1.260 . S
O1032 Tb984 2.552 1_556 S
O1032 C1040 1.243 . S
O1033 Tb984 2.413 . S
O1033 C1048 1.256 . S
O1034 Tb995 2.546 . S
O1034 C1059 1.251 . S
O1035 Tb984 2.362 . S
O1035 Tb995 2.610 . S
O1035 C1051 1.283 . S
O1036 Tb984 2.421 . S
O1036 C1058 1.262 . S
O1037 Tb995 2.320 . S
O1037 C1058 1.260 . S
O1038 Tb995 2.552 . S
O1038 C1051 1.243 . S
O1039 Tb995 2.413 . S
O1039 C1059 1.256 . S
C1040 O1029 1.302 . S
C1040 O1032 1.243 . S
C1041 C1043 1.382 . S
C1041 C1045 1.393 . S
C1041 C1048 1.500 . S
C1042 C1043 1.400 . S
C1042 C1044 1.384 . S
C1043 C1041 1.382 . S
C1043 C1042 1.400 . S
C1043 H1060 0.930 . S
C1044 C1042 1.384 . S
C1044 C1046 1.392 . S
C1044 H1061 0.931 . S
C1045 C1041 1.393 . S
C1045 C1046 1.401 . S
C1045 H1062 0.930 . S
C1046 C1044 1.392 . S
C1046 C1045 1.401 . S
C1046 H1063 0.930 . S
C1047 O1030 1.262 . S
C1047 O1031 1.260 . S
C1048 Tb984 2.833 . S
C1048 O1028 1.251 . S
C1048 O1033 1.256 . S
C1048 C1041 1.500 . S
C1049 H1014 0.929 . S
C1049 C1027 1.444 . S
C1049 C1050 1.317 . S
C1050 H1012 0.930 . S
C1050 C1018 1.432 . S
C1050 C1049 1.317 . S
C1051 O1035 1.283 . S
C1051 O1038 1.243 . S
C1052 C1053 1.382 . S
C1052 C1056 1.393 . S
C1052 C1059 1.500 . S
C1053 C1052 1.382 . S
C1053 C1054 1.400 . S
C1053 H1064 0.930 . S
C1054 C1053 1.400 . S
C1054 C1055 1.384 . S
C1055 C1054 1.384 . S
C1055 C1057 1.392 . S
C1055 H1065 0.931 . S
C1056 C1052 1.393 . S
C1056 C1057 1.401 . S
C1056 H1066 0.930 . S
C1057 C1055 1.392 . S
C1057 C1056 1.401 . S
C1057 H1067 0.930 . S
C1058 O1036 1.262 . S
C1058 O1037 1.260 . S
C1059 Tb995 2.833 . S
C1059 O1034 1.251 . S
C1059 O1039 1.256 . S
C1059 C1052 1.500 . S
H1060 C1043 0.930 . S
H1061 C1044 0.931 . S
H1062 C1045 0.930 . S
H1063 C1046 0.930 . S
H1064 C1053 0.930 . S
H1065 C1055 0.931 . S
H1066 C1056 0.930 . S
H1067 C1057 0.930 . S
Tb1068 N1099 2.660 . S
Tb1068 N1106 2.600 . S
Tb1068 O1112 2.546 . S
Tb1068 O1113 2.610 . S
Tb1068 O1115 2.320 . S
Tb1068 O1116 2.552 . S
Tb1068 O1117 2.413 . S
Tb1068 O1119 2.362 . S
Tb1068 O1120 2.421 . S
Tb1068 C1132 2.833 . S
C1069 C1072 1.432 . S
C1069 C1073 1.414 . S
C1069 N1076 1.359 . S
C1070 C1072 1.417 . S
C1070 C1074 1.432 . S
C1070 C1082 1.410 . S
C1071 C1073 1.444 . S
C1071 C1074 1.317 . S
C1071 H1094 0.929 . S
C1072 C1069 1.432 . S
C1072 C1070 1.417 . S
C1072 N1080 1.360 . S
C1073 C1069 1.414 . S
C1073 C1071 1.444 . S
C1073 C1078 1.385 . S
C1074 C1070 1.432 . S
C1074 C1071 1.317 . S
C1074 H1086 0.930 . S
C1075 C1077 1.392 . S
C1075 C1078 1.370 . S
C1075 H1087 0.931 . S
N1076 C1069 1.359 . S
N1076 C1077 1.327 . S
N1076 Tb1079 2.600 . S
C1077 C1075 1.392 . S
C1077 N1076 1.327 . S
C1077 H1084 0.930 . S
C1078 C1073 1.385 . S
C1078 C1075 1.370 . S
C1078 H1097 0.930 . S
Tb1079 N1076 2.600 . S
Tb1079 N1080 2.660 . S
Tb1079 O1113 2.362 . S
Tb1079 O1114 2.421 . S
Tb1079 O1118 2.546 . S
Tb1079 O1119 2.610 . S
Tb1079 O1121 2.320 . S
Tb1079 O1122 2.552 . S
Tb1079 O1123 2.413 . S
Tb1079 C1143 2.833 . S
N1080 C1072 1.360 . S
N1080 Tb1079 2.660 . S
N1080 C1081 1.305 . S
C1081 N1080 1.305 . S
C1081 C1083 1.407 . S
C1081 H1088 0.930 . S
C1082 C1070 1.410 . S
C1082 C1083 1.345 . S
C1082 H1090 0.930 . S
C1083 C1081 1.407 . S
C1083 C1082 1.345 . S
C1083 H1085 0.930 . S
H1084 C1077 0.930 . S
H1085 C1083 0.930 . S
H1086 C1074 0.930 . S
H1087 C1075 0.931 . S
H1088 C1081 0.930 . S
H1089 C1103 0.930 . S
H1090 C1082 0.930 . S
H1091 C1109 0.930 . S
H1092 C1100 0.930 . S
H1093 C1107 0.931 . S
H1094 C1071 0.929 . S
H1095 C1101 0.930 . S
H1096 C1134 0.930 . S
H1097 C1078 0.930 . S
H1098 C1133 0.929 . S
N1099 Tb1068 2.660 . S
N1099 C1100 1.305 . S
N1099 C1104 1.360 . S
C1100 H1092 0.930 . S
C1100 N1099 1.305 . S
C1100 C1103 1.407 . S
C1101 H1095 0.930 . S
C1101 C1102 1.410 . S
C1101 C1103 1.345 . S
C1102 C1101 1.410 . S
C1102 C1104 1.417 . S
C1102 C1134 1.432 . S
C1103 H1089 0.930 . S
C1103 C1100 1.407 . S
C1103 C1101 1.345 . S
C1104 N1099 1.360 . S
C1104 C1102 1.417 . S
C1104 C1108 1.432 . S
H1105 C1110 0.930 . S
N1106 Tb1068 2.600 . S
N1106 C1108 1.359 . S
N1106 C1109 1.327 . S
C1107 H1093 0.931 . S
C1107 C1109 1.392 . S
C1107 C1110 1.370 . S
C1108 C1104 1.432 . S
C1108 N1106 1.359 . S
C1108 C1111 1.414 . S
C1109 H1091 0.930 . S
C1109 N1106 1.327 . S
C1109 C1107 1.392 . S
C1110 H1105 0.930 . S
C1110 C1107 1.370 . S
C1110 C1111 1.385 . S
C1111 C1108 1.414 . S
C1111 C1110 1.385 . S
C1111 C1133 1.444 . S
O1112 Tb1068 2.546 . S
O1112 C1132 1.251 . S
O1113 Tb1068 2.610 . S
O1113 Tb1079 2.362 . S
O1113 C1124 1.283 . S
O1114 Tb1079 2.421 . S
O1114 C1131 1.262 . S
O1115 Tb1068 2.320 . S
O1115 C1131 1.260 . S
O1116 Tb1068 2.552 . S
O1116 C1124 1.243 . S
O1117 Tb1068 2.413 . S
O1117 C1132 1.256 . S
O1118 Tb1079 2.546 . S
O1118 C1143 1.251 . S
O1119 Tb1068 2.362 . S
O1119 Tb1079 2.610 . S
O1119 C1135 1.283 . S
O1120 Tb1068 2.421 . S
O1120 C1142 1.262 . S
O1121 Tb1079 2.320 . S
O1121 C1142 1.260 . S
O1122 Tb1079 2.552 . S
O1122 C1135 1.243 . S
O1123 Tb1079 2.413 . S
O1123 C1143 1.256 . S
C1124 O1113 1.283 . S
C1124 O1116 1.243 . S
C1125 C1127 1.382 . S
C1125 C1129 1.393 . S
C1125 C1132 1.500 . S
C1126 C1127 1.400 . S
C1126 C1128 1.384 . S
C1127 C1125 1.382 . S
C1127 C1126 1.400 . S
C1127 H1144 0.930 . S
C1128 C1126 1.384 . S
C1128 C1130 1.392 . S
C1128 H1145 0.931 . S
C1129 C1125 1.393 . S
C1129 C1130 1.401 . S
C1129 H1146 0.930 . S
C1130 C1128 1.392 . S
C1130 C1129 1.401 . S
C1130 H1147 0.930 . S
C1131 O1114 1.262 . S
C1131 O1115 1.260 . S
C1132 Tb1068 2.833 . S
C1132 O1112 1.251 . S
C1132 O1117 1.256 . S
C1132 C1125 1.500 . S
C1133 H1098 0.929 . S
C1133 C1111 1.444 . S
C1133 C1134 1.317 . S
C1134 H1096 0.930 . S
C1134 C1102 1.432 . S
C1134 C1133 1.317 . S
C1135 O1119 1.283 . S
C1135 O1122 1.243 . S
C1136 C1137 1.382 . S
C1136 C1140 1.393 . S
C1136 C1143 1.500 . S
C1137 C1136 1.382 . S
C1137 C1138 1.400 . S
C1137 H1148 0.930 . S
C1138 C1137 1.400 . S
C1138 C1139 1.384 . S
C1139 C1138 1.384 . S
C1139 C1141 1.392 . S
C1139 H1149 0.931 . S
C1140 C1136 1.393 . S
C1140 C1141 1.401 . S
C1140 H1150 0.930 . S
C1141 C1139 1.392 . S
C1141 C1140 1.401 . S
C1141 H1151 0.930 . S
C1142 O1120 1.262 . S
C1142 O1121 1.260 . S
C1143 Tb1079 2.833 . S
C1143 O1118 1.251 . S
C1143 O1123 1.256 . S
C1143 C1136 1.500 . S
H1144 C1127 0.930 . S
H1145 C1128 0.931 . S
H1146 C1129 0.930 . S
H1147 C1130 0.930 . S
H1148 C1137 0.930 . S
H1149 C1139 0.931 . S
H1150 C1140 0.930 . S
H1151 C1141 0.930 . S
Tb1152 N1183 2.660 . S
Tb1152 N1190 2.600 . S
Tb1152 O1196 2.546 . S
Tb1152 O1197 2.610 . S
Tb1152 O1199 2.320 . S
Tb1152 O1200 2.552 . S
Tb1152 O1201 2.413 . S
Tb1152 O1203 2.362 . S
Tb1152 O1204 2.421 . S
Tb1152 C1216 2.833 . S
C1153 C1156 1.432 . S
C1153 C1157 1.414 1_455 S
C1153 N1160 1.359 . S
C1154 C1156 1.417 1_655 S
C1154 C1158 1.432 . S
C1154 C1166 1.410 . S
C1155 C1157 1.444 . S
C1155 C1158 1.317 . S
C1155 H1178 0.929 . S
C1156 C1153 1.432 . S
C1156 C1154 1.417 1_455 S
C1156 N1164 1.360 . S
C1157 C1153 1.414 1_655 S
C1157 C1155 1.444 . S
C1157 C1162 1.382 . S
C1158 C1154 1.432 . S
C1158 C1155 1.317 . S
C1158 H1170 0.930 . S
C1159 C1161 1.392 . S
C1159 C1162 1.336 1_455 S
C1159 H1171 0.931 . S
N1160 C1153 1.359 . S
N1160 C1161 1.327 . S
N1160 Tb1163 2.600 . S
C1161 C1159 1.392 . S
C1161 N1160 1.327 . S
C1161 H1168 0.930 . S
C1162 C1157 1.382 . S
C1162 C1159 1.336 1_655 S
C1162 H1181 0.968 . S
Tb1163 N1160 2.600 . S
Tb1163 N1164 2.660 . S
Tb1163 O1197 2.362 . S
Tb1163 O1198 2.421 . S
Tb1163 O1202 2.546 . S
Tb1163 O1203 2.610 . S
Tb1163 O1205 2.320 . S
Tb1163 O1206 2.552 . S
Tb1163 O1207 2.413 . S
Tb1163 C1227 2.833 . S
N1164 C1156 1.360 . S
N1164 Tb1163 2.660 . S
N1164 C1165 1.305 . S
C1165 N1164 1.305 . S
C1165 C1167 1.407 . S
C1165 H1172 0.930 . S
C1166 C1154 1.410 . S
C1166 C1167 1.345 1_655 S
C1166 H1174 0.930 . S
C1167 C1165 1.407 . S
C1167 C1166 1.345 1_455 S
C1167 H1169 0.924 . S
H1168 C1161 0.930 . S
H1169 C1167 0.924 . S
H1170 C1158 0.930 . S
H1171 C1159 0.931 . S
H1172 C1165 0.930 . S
H1173 C1187 0.930 . S
H1174 C1166 0.930 . S
H1175 C1193 0.930 . S
H1176 C1184 0.930 . S
H1177 C1191 0.931 . S
H1178 C1155 0.929 . S
H1179 C1185 0.930 . S
H1180 C1218 0.930 . S
H1181 C1162 0.968 . S
H1182 C1217 0.929 . S
N1183 Tb1152 2.660 . S
N1183 C1184 1.305 . S
N1183 C1188 1.360 . S
C1184 H1176 0.930 . S
C1184 N1183 1.305 . S
C1184 C1187 1.407 . S
C1185 H1179 0.930 . S
C1185 C1186 1.410 . S
C1185 C1187 1.345 . S
C1186 C1185 1.410 . S
C1186 C1188 1.417 . S
C1186 C1218 1.432 . S
C1187 H1173 0.930 . S
C1187 C1184 1.407 . S
C1187 C1185 1.345 . S
C1188 N1183 1.360 . S
C1188 C1186 1.417 . S
C1188 C1192 1.432 . S
H1189 C1194 0.930 . S
N1190 Tb1152 2.600 . S
N1190 C1192 1.359 . S
N1190 C1193 1.327 . S
C1191 H1177 0.931 . S
C1191 C1193 1.392 . S
C1191 C1194 1.370 . S
C1192 C1188 1.432 . S
C1192 N1190 1.359 . S
C1192 C1195 1.414 . S
C1193 H1175 0.930 . S
C1193 N1190 1.327 . S
C1193 C1191 1.392 . S
C1194 H1189 0.930 . S
C1194 C1191 1.370 . S
C1194 C1195 1.385 . S
C1195 C1192 1.414 . S
C1195 C1194 1.385 . S
C1195 C1217 1.444 . S
O1196 Tb1152 2.546 . S
O1196 C1216 1.251 . S
O1197 Tb1152 2.610 . S
O1197 Tb1163 2.362 . S
O1197 C1208 1.283 . S
O1198 Tb1163 2.421 . S
O1198 C1215 1.262 . S
O1199 Tb1152 2.320 . S
O1199 C1215 1.260 . S
O1200 Tb1152 2.552 . S
O1200 C1208 1.243 . S
O1201 Tb1152 2.413 . S
O1201 C1216 1.256 . S
O1202 Tb1163 2.546 . S
O1202 C1227 1.251 . S
O1203 Tb1152 2.362 . S
O1203 Tb1163 2.610 . S
O1203 C1219 1.283 . S
O1204 Tb1152 2.421 . S
O1204 C1226 1.262 . S
O1205 Tb1163 2.320 . S
O1205 C1226 1.260 . S
O1206 Tb1163 2.552 . S
O1206 C1219 1.243 . S
O1207 Tb1163 2.413 . S
O1207 C1227 1.256 . S
C1208 O1197 1.283 . S
C1208 O1200 1.243 . S
C1209 C1211 1.382 . S
C1209 C1213 1.393 . S
C1209 C1216 1.500 . S
C1210 C1211 1.400 . S
C1210 C1212 1.384 . S
C1211 C1209 1.382 . S
C1211 C1210 1.400 . S
C1211 H1228 0.930 . S
C1212 C1210 1.384 . S
C1212 C1214 1.392 . S
C1212 H1229 0.931 . S
C1213 C1209 1.393 . S
C1213 C1214 1.401 . S
C1213 H1230 0.930 . S
C1214 C1212 1.392 . S
C1214 C1213 1.401 . S
C1214 H1231 0.930 . S
C1215 O1198 1.262 . S
C1215 O1199 1.260 . S
C1216 Tb1152 2.833 . S
C1216 O1196 1.251 . S
C1216 O1201 1.256 . S
C1216 C1209 1.500 . S
C1217 H1182 0.929 . S
C1217 C1195 1.444 . S
C1217 C1218 1.317 . S
C1218 H1180 0.930 . S
C1218 C1186 1.432 . S
C1218 C1217 1.317 . S
C1219 O1203 1.283 . S
C1219 O1206 1.243 . S
C1220 C1221 1.382 . S
C1220 C1224 1.393 . S
C1220 C1227 1.500 . S
C1221 C1220 1.382 . S
C1221 C1222 1.400 . S
C1221 H1232 0.930 . S
C1222 C1221 1.400 . S
C1222 C1223 1.384 . S
C1223 C1222 1.384 . S
C1223 C1225 1.392 . S
C1223 H1233 0.931 . S
C1224 C1220 1.393 . S
C1224 C1225 1.401 . S
C1224 H1234 0.930 . S
C1225 C1223 1.392 . S
C1225 C1224 1.401 . S
C1225 H1235 0.930 . S
C1226 O1204 1.262 . S
C1226 O1205 1.260 . S
C1227 Tb1163 2.833 . S
C1227 O1202 1.251 . S
C1227 O1207 1.256 . S
C1227 C1220 1.500 . S
H1228 C1211 0.930 . S
H1229 C1212 0.931 . S
H1230 C1213 0.930 . S
H1231 C1214 0.930 . S
H1232 C1221 0.930 . S
H1233 C1223 0.931 . S
H1234 C1224 0.930 . S
H1235 C1225 0.930 . S
Tb1236 N1267 2.660 . S
Tb1236 N1274 2.600 . S
Tb1236 O1280 2.546 . S
Tb1236 O1281 2.610 . S
Tb1236 O1283 2.320 . S
Tb1236 O1284 2.552 . S
Tb1236 O1285 2.413 . S
Tb1236 O1287 2.362 . S
Tb1236 O1288 2.421 . S
Tb1236 C1300 2.833 . S
C1237 C1240 1.432 . S
C1237 C1241 1.414 . S
C1237 N1244 1.359 . S
C1238 C1240 1.417 . S
C1238 C1242 1.432 . S
C1238 C1250 1.410 . S
C1239 C1241 1.444 . S
C1239 C1242 1.317 . S
C1239 H1262 0.929 . S
C1240 C1237 1.432 . S
C1240 C1238 1.417 . S
C1240 N1248 1.360 . S
C1241 C1237 1.414 . S
C1241 C1239 1.444 . S
C1241 C1246 1.385 . S
C1242 C1238 1.432 . S
C1242 C1239 1.317 . S
C1242 H1254 0.930 . S
C1243 C1245 1.392 . S
C1243 C1246 1.370 . S
C1243 H1255 0.931 . S
N1244 C1237 1.359 . S
N1244 C1245 1.327 . S
N1244 Tb1247 2.600 . S
C1245 C1243 1.392 . S
C1245 N1244 1.327 . S
C1245 H1252 0.930 . S
C1246 C1241 1.385 . S
C1246 C1243 1.370 . S
C1246 H1265 0.930 . S
Tb1247 N1244 2.600 . S
Tb1247 N1248 2.660 . S
Tb1247 O1281 2.362 . S
Tb1247 O1282 2.421 . S
Tb1247 O1286 2.546 . S
Tb1247 O1287 2.610 . S
Tb1247 O1289 2.320 . S
Tb1247 O1290 2.552 . S
Tb1247 O1291 2.413 . S
Tb1247 C1311 2.833 . S
N1248 C1240 1.360 . S
N1248 Tb1247 2.660 . S
N1248 C1249 1.305 . S
C1249 N1248 1.305 . S
C1249 C1251 1.407 . S
C1249 H1256 0.930 . S
C1250 C1238 1.410 . S
C1250 C1251 1.345 . S
C1250 H1258 0.930 . S
C1251 C1249 1.407 . S
C1251 C1250 1.345 . S
C1251 H1253 0.930 . S
H1252 C1245 0.930 . S
H1253 C1251 0.930 . S
H1254 C1242 0.930 . S
H1255 C1243 0.931 . S
H1256 C1249 0.930 . S
H1257 C1271 0.930 . S
H1258 C1250 0.930 . S
H1259 C1277 0.930 . S
H1260 C1268 0.930 . S
H1261 C1275 0.931 . S
H1262 C1239 0.929 . S
H1263 C1269 0.930 . S
H1264 C1302 0.930 . S
H1265 C1246 0.930 . S
H1266 C1301 0.929 . S
N1267 Tb1236 2.660 . S
N1267 C1268 1.305 . S
N1267 C1272 1.360 . S
C1268 H1260 0.930 . S
C1268 N1267 1.305 . S
C1268 C1271 1.407 . S
C1269 H1263 0.930 . S
C1269 C1270 1.410 . S
C1269 C1271 1.345 . S
C1270 C1269 1.410 . S
C1270 C1272 1.417 . S
C1270 C1302 1.432 . S
C1271 H1257 0.930 . S
C1271 C1268 1.407 . S
C1271 C1269 1.345 . S
C1272 N1267 1.360 . S
C1272 C1270 1.417 . S
C1272 C1276 1.432 . S
H1273 C1278 0.930 . S
N1274 Tb1236 2.600 . S
N1274 C1276 1.359 . S
N1274 C1277 1.327 . S
C1275 H1261 0.931 . S
C1275 C1277 1.392 . S
C1275 C1278 1.370 . S
C1276 C1272 1.432 . S
C1276 N1274 1.359 . S
C1276 C1279 1.414 . S
C1277 H1259 0.930 . S
C1277 N1274 1.327 . S
C1277 C1275 1.392 . S
C1278 H1273 0.930 . S
C1278 C1275 1.370 . S
C1278 C1279 1.385 . S
C1279 C1276 1.414 . S
C1279 C1278 1.385 . S
C1279 C1301 1.444 . S
O1280 Tb1236 2.546 . S
O1280 C1300 1.251 . S
O1281 Tb1236 2.610 . S
O1281 Tb1247 2.362 . S
O1281 C1292 1.283 . S
O1282 Tb1247 2.421 . S
O1282 C1299 1.262 . S
O1283 Tb1236 2.320 . S
O1283 C1299 1.260 . S
O1284 Tb1236 2.552 . S
O1284 C1292 1.243 . S
O1285 Tb1236 2.413 . S
O1285 C1300 1.256 . S
O1286 Tb1247 2.546 . S
O1286 C1311 1.251 . S
O1287 Tb1236 2.362 . S
O1287 Tb1247 2.610 . S
O1287 C1303 1.283 . S
O1288 Tb1236 2.421 . S
O1288 C1310 1.262 . S
O1289 Tb1247 2.320 . S
O1289 C1310 1.260 . S
O1290 Tb1247 2.552 . S
O1290 C1303 1.243 . S
O1291 Tb1247 2.413 . S
O1291 C1311 1.256 . S
C1292 O1281 1.283 . S
C1292 O1284 1.243 . S
C1293 C1295 1.382 . S
C1293 C1297 1.393 . S
C1293 C1300 1.500 . S
C1294 C1295 1.400 . S
C1294 C1296 1.384 . S
C1295 C1293 1.382 . S
C1295 C1294 1.400 . S
C1295 H1312 0.930 . S
C1296 C1294 1.384 . S
C1296 C1298 1.392 . S
C1296 H1313 0.931 . S
C1297 C1293 1.393 . S
C1297 C1298 1.401 . S
C1297 H1314 0.930 . S
C1298 C1296 1.392 . S
C1298 C1297 1.401 . S
C1298 H1315 0.930 . S
C1299 O1282 1.262 . S
C1299 O1283 1.260 . S
C1300 Tb1236 2.833 . S
C1300 O1280 1.251 . S
C1300 O1285 1.256 . S
C1300 C1293 1.500 . S
C1301 H1266 0.929 . S
C1301 C1279 1.444 . S
C1301 C1302 1.317 . S
C1302 H1264 0.930 . S
C1302 C1270 1.432 . S
C1302 C1301 1.317 . S
C1303 O1287 1.283 . S
C1303 O1290 1.243 . S
C1304 C1305 1.382 . S
C1304 C1308 1.393 . S
C1304 C1311 1.500 . S
C1305 C1304 1.382 . S
C1305 C1306 1.400 . S
C1305 H1316 0.930 . S
C1306 C1305 1.400 . S
C1306 C1307 1.384 . S
C1307 C1306 1.384 . S
C1307 C1309 1.392 . S
C1307 H1317 0.931 . S
C1308 C1304 1.393 . S
C1308 C1309 1.401 . S
C1308 H1318 0.930 . S
C1309 C1307 1.392 . S
C1309 C1308 1.401 . S
C1309 H1319 0.930 . S
C1310 O1288 1.262 . S
C1310 O1289 1.260 . S
C1311 Tb1247 2.833 . S
C1311 O1286 1.251 . S
C1311 O1291 1.256 . S
C1311 C1304 1.500 . S
H1312 C1295 0.930 . S
H1313 C1296 0.931 . S
H1314 C1297 0.930 . S
H1315 C1298 0.930 . S
H1316 C1305 0.930 . S
H1317 C1307 0.931 . S
H1318 C1308 0.930 . S
H1319 C1309 0.930 . S
Tb1320 N1351 2.660 . S
Tb1320 N1358 2.600 . S
Tb1320 O1364 2.546 . S
Tb1320 O1365 2.610 . S
Tb1320 O1367 2.320 . S
Tb1320 O1368 2.552 . S
Tb1320 O1369 2.413 . S
Tb1320 O1371 2.362 . S
Tb1320 O1372 2.421 . S
Tb1320 C1384 2.833 . S
C1321 C1324 1.432 . S
C1321 C1325 1.414 . S
C1321 N1328 1.359 . S
C1322 C1324 1.417 . S
C1322 C1326 1.432 . S
C1322 C1334 1.410 . S
C1323 C1325 1.444 . S
C1323 C1326 1.317 . S
C1323 H1346 0.929 . S
C1324 C1321 1.432 . S
C1324 C1322 1.417 . S
C1324 N1332 1.360 . S
C1325 C1321 1.414 . S
C1325 C1323 1.444 . S
C1325 C1330 1.385 . S
C1326 C1322 1.432 . S
C1326 C1323 1.317 . S
C1326 H1338 0.930 . S
C1327 C1329 1.392 . S
C1327 C1330 1.370 . S
C1327 H1339 0.931 . S
N1328 C1321 1.359 . S
N1328 C1329 1.327 . S
N1328 Tb1331 2.600 . S
C1329 C1327 1.392 . S
C1329 N1328 1.327 . S
C1329 H1336 0.930 . S
C1330 C1325 1.385 . S
C1330 C1327 1.370 . S
C1330 H1349 0.930 . S
Tb1331 N1328 2.600 . S
Tb1331 N1332 2.660 . S
Tb1331 O1365 2.362 . S
Tb1331 O1366 2.421 . S
Tb1331 O1370 2.546 . S
Tb1331 O1371 2.610 . S
Tb1331 O1373 2.320 . S
Tb1331 O1374 2.552 . S
Tb1331 O1375 2.413 . S
Tb1331 C1395 2.833 . S
N1332 C1324 1.360 . S
N1332 Tb1331 2.660 . S
N1332 C1333 1.305 . S
C1333 N1332 1.305 . S
C1333 C1335 1.407 . S
C1333 H1340 0.930 . S
C1334 C1322 1.410 . S
C1334 C1335 1.345 . S
C1334 H1342 0.930 . S
C1335 C1333 1.407 . S
C1335 C1334 1.345 . S
C1335 H1337 0.930 . S
H1336 C1329 0.930 . S
H1337 C1335 0.930 . S
H1338 C1326 0.930 . S
H1339 C1327 0.931 . S
H1340 C1333 0.930 . S
H1341 C1355 0.930 . S
H1342 C1334 0.930 . S
H1343 C1361 0.930 . S
H1344 C1352 0.930 . S
H1345 C1359 0.931 . S
H1346 C1323 0.929 . S
H1347 C1353 0.930 . S
H1348 C1386 0.930 . S
H1349 C1330 0.930 . S
H1350 C1385 0.929 . S
N1351 Tb1320 2.660 . S
N1351 C1352 1.305 . S
N1351 C1356 1.360 . S
C1352 H1344 0.930 . S
C1352 N1351 1.305 . S
C1352 C1355 1.407 . S
C1353 H1347 0.930 . S
C1353 C1354 1.410 . S
C1353 C1355 1.345 . S
C1354 C1353 1.410 . S
C1354 C1356 1.417 . S
C1354 C1386 1.432 . S
C1355 H1341 0.930 . S
C1355 C1352 1.407 . S
C1355 C1353 1.345 . S
C1356 N1351 1.360 . S
C1356 C1354 1.417 . S
C1356 C1360 1.432 . S
H1357 C1362 0.930 . S
N1358 Tb1320 2.600 . S
N1358 C1360 1.359 . S
N1358 C1361 1.327 . S
C1359 H1345 0.931 . S
C1359 C1361 1.392 . S
C1359 C1362 1.370 . S
C1360 C1356 1.432 . S
C1360 N1358 1.359 . S
C1360 C1363 1.414 . S
C1361 H1343 0.930 . S
C1361 N1358 1.327 . S
C1361 C1359 1.392 . S
C1362 H1357 0.930 . S
C1362 C1359 1.370 . S
C1362 C1363 1.385 . S
C1363 C1360 1.414 . S
C1363 C1362 1.385 . S
C1363 C1385 1.444 . S
O1364 Tb1320 2.546 . S
O1364 C1384 1.251 . S
O1365 Tb1320 2.610 . S
O1365 Tb1331 2.362 . S
O1365 C1376 1.283 . S
O1366 Tb1331 2.421 . S
O1366 C1383 1.262 . S
O1367 Tb1320 2.320 . S
O1367 C1383 1.260 . S
O1368 Tb1320 2.552 . S
O1368 C1376 1.243 . S
O1369 Tb1320 2.413 . S
O1369 C1384 1.256 . S
O1370 Tb1331 2.546 . S
O1370 C1395 1.251 . S
O1371 Tb1320 2.362 . S
O1371 Tb1331 2.610 . S
O1371 C1387 1.283 . S
O1372 Tb1320 2.421 . S
O1372 C1394 1.262 . S
O1373 Tb1331 2.320 . S
O1373 C1394 1.260 . S
O1374 Tb1331 2.552 . S
O1374 C1387 1.243 . S
O1375 Tb1331 2.413 . S
O1375 C1395 1.256 . S
C1376 O1365 1.283 . S
C1376 O1368 1.243 . S
C1377 C1379 1.382 . S
C1377 C1381 1.393 . S
C1377 C1384 1.500 . S
C1378 C1379 1.400 . S
C1378 C1380 1.384 . S
C1379 C1377 1.382 . S
C1379 C1378 1.400 . S
C1379 H1396 0.930 . S
C1380 C1378 1.384 . S
C1380 C1382 1.392 . S
C1380 H1397 0.931 . S
C1381 C1377 1.393 . S
C1381 C1382 1.401 . S
C1381 H1398 0.930 . S
C1382 C1380 1.392 . S
C1382 C1381 1.401 . S
C1382 H1399 0.930 . S
C1383 O1366 1.262 . S
C1383 O1367 1.260 . S
C1384 Tb1320 2.833 . S
C1384 O1364 1.251 . S
C1384 O1369 1.256 . S
C1384 C1377 1.500 . S
C1385 H1350 0.929 . S
C1385 C1363 1.444 . S
C1385 C1386 1.317 . S
C1386 H1348 0.930 . S
C1386 C1354 1.432 . S
C1386 C1385 1.317 . S
C1387 O1371 1.283 . S
C1387 O1374 1.243 . S
C1388 C1389 1.382 . S
C1388 C1392 1.393 . S
C1388 C1395 1.500 . S
C1389 C1388 1.382 . S
C1389 C1390 1.400 . S
C1389 H1400 0.930 . S
C1390 C1389 1.400 . S
C1390 C1391 1.384 . S
C1391 C1390 1.384 . S
C1391 C1393 1.392 . S
C1391 H1401 0.931 . S
C1392 C1388 1.393 . S
C1392 C1393 1.401 . S
C1392 H1402 0.930 . S
C1393 C1391 1.392 . S
C1393 C1392 1.401 . S
C1393 H1403 0.930 . S
C1394 O1372 1.262 . S
C1394 O1373 1.260 . S
C1395 Tb1331 2.833 . S
C1395 O1370 1.251 . S
C1395 O1375 1.256 . S
C1395 C1388 1.500 . S
H1396 C1379 0.930 . S
H1397 C1380 0.931 . S
H1398 C1381 0.930 . S
H1399 C1382 0.930 . S
H1400 C1389 0.930 . S
H1401 C1391 0.931 . S
H1402 C1392 0.930 . S
H1403 C1393 0.930 . S
Tb1404 N1435 2.660 . S
Tb1404 N1442 2.600 . S
Tb1404 O1448 2.546 . S
Tb1404 O1449 2.610 . S
Tb1404 O1451 2.320 . S
Tb1404 O1452 2.552 . S
Tb1404 O1453 2.413 . S
Tb1404 O1455 2.362 . S
Tb1404 O1456 2.421 . S
Tb1404 C1468 2.833 . S
C1405 C1408 1.432 . S
C1405 C1409 1.414 . S
C1405 N1412 1.359 . S
C1406 C1408 1.417 . S
C1406 C1410 1.432 . S
C1406 C1418 1.410 . S
C1407 C1409 1.444 . S
C1407 C1410 1.317 . S
C1407 H1430 0.929 . S
C1408 C1405 1.432 . S
C1408 C1406 1.417 . S
C1408 N1416 1.360 . S
C1409 C1405 1.414 . S
C1409 C1407 1.444 . S
C1409 C1414 1.385 . S
C1410 C1406 1.432 . S
C1410 C1407 1.317 . S
C1410 H1422 0.930 . S
C1411 C1413 1.392 . S
C1411 C1414 1.370 . S
C1411 H1423 0.931 . S
N1412 C1405 1.359 . S
N1412 C1413 1.327 . S
N1412 Tb1415 2.600 . S
C1413 C1411 1.392 . S
C1413 N1412 1.327 . S
C1413 H1420 0.930 . S
C1414 C1409 1.385 . S
C1414 C1411 1.370 . S
C1414 H1433 0.930 . S
Tb1415 N1412 2.600 . S
Tb1415 N1416 2.660 . S
Tb1415 O1449 2.362 . S
Tb1415 O1450 2.421 . S
Tb1415 O1454 2.546 . S
Tb1415 O1455 2.610 . S
Tb1415 O1457 2.320 . S
Tb1415 O1458 2.552 . S
Tb1415 O1459 2.413 . S
Tb1415 C1479 2.833 . S
N1416 C1408 1.360 . S
N1416 Tb1415 2.660 . S
N1416 C1417 1.305 . S
C1417 N1416 1.305 . S
C1417 C1419 1.407 . S
C1417 H1424 0.930 . S
C1418 C1406 1.410 . S
C1418 C1419 1.345 . S
C1418 H1426 0.930 . S
C1419 C1417 1.407 . S
C1419 C1418 1.345 . S
C1419 H1421 0.930 . S
H1420 C1413 0.930 . S
H1421 C1419 0.930 . S
H1422 C1410 0.930 . S
H1423 C1411 0.931 . S
H1424 C1417 0.930 . S
H1425 C1439 0.930 . S
H1426 C1418 0.930 . S
H1427 C1445 0.930 . S
H1428 C1436 0.930 . S
H1429 C1443 0.931 . S
H1430 C1407 0.929 . S
H1431 C1437 0.930 . S
H1432 C1470 0.930 . S
H1433 C1414 0.930 . S
H1434 C1469 0.929 . S
N1435 Tb1404 2.660 . S
N1435 C1436 1.305 . S
N1435 C1440 1.360 . S
C1436 H1428 0.930 . S
C1436 N1435 1.305 . S
C1436 C1439 1.407 . S
C1437 H1431 0.930 . S
C1437 C1438 1.410 . S
C1437 C1439 1.345 . S
C1438 C1437 1.410 . S
C1438 C1440 1.417 . S
C1438 C1470 1.432 . S
C1439 H1425 0.930 . S
C1439 C1436 1.407 . S
C1439 C1437 1.345 . S
C1440 N1435 1.360 . S
C1440 C1438 1.417 . S
C1440 C1444 1.432 . S
H1441 C1446 0.930 . S
N1442 Tb1404 2.600 . S
N1442 C1444 1.359 . S
N1442 C1445 1.327 . S
C1443 H1429 0.931 . S
C1443 C1445 1.392 . S
C1443 C1446 1.370 . S
C1444 C1440 1.432 . S
C1444 N1442 1.359 . S
C1444 C1447 1.414 . S
C1445 H1427 0.930 . S
C1445 N1442 1.327 . S
C1445 C1443 1.392 . S
C1446 H1441 0.930 . S
C1446 C1443 1.370 . S
C1446 C1447 1.385 . S
C1447 C1444 1.414 . S
C1447 C1446 1.385 . S
C1447 C1469 1.444 . S
O1448 Tb1404 2.546 . S
O1448 C1468 1.251 . S
O1449 Tb1404 2.610 . S
O1449 Tb1415 2.362 . S
O1449 C1460 1.283 . S
O1450 Tb1415 2.421 . S
O1450 C1467 1.262 . S
O1451 Tb1404 2.320 . S
O1451 C1467 1.260 . S
O1452 Tb1404 2.552 . S
O1452 C1460 1.243 . S
O1453 Tb1404 2.413 . S
O1453 C1468 1.256 . S
O1454 Tb1415 2.546 . S
O1454 C1479 1.251 . S
O1455 Tb1404 2.362 . S
O1455 Tb1415 2.610 . S
O1455 C1471 1.283 . S
O1456 Tb1404 2.421 . S
O1456 C1478 1.262 . S
O1457 Tb1415 2.320 . S
O1457 C1478 1.260 . S
O1458 Tb1415 2.552 . S
O1458 C1471 1.243 . S
O1459 Tb1415 2.413 . S
O1459 C1479 1.256 . S
C1460 O1449 1.283 . S
C1460 O1452 1.243 . S
C1461 C1463 1.382 . S
C1461 C1465 1.393 . S
C1461 C1468 1.500 . S
C1462 C1463 1.400 . S
C1462 C1464 1.384 . S
C1463 C1461 1.382 . S
C1463 C1462 1.400 . S
C1463 H1480 0.930 . S
C1464 C1462 1.384 . S
C1464 C1466 1.392 . S
C1464 H1481 0.931 . S
C1465 C1461 1.393 . S
C1465 C1466 1.401 . S
C1465 H1482 0.930 . S
C1466 C1464 1.392 . S
C1466 C1465 1.401 . S
C1466 H1483 0.930 . S
C1467 O1450 1.262 . S
C1467 O1451 1.260 . S
C1468 Tb1404 2.833 . S
C1468 O1448 1.251 . S
C1468 O1453 1.256 . S
C1468 C1461 1.500 . S
C1469 H1434 0.929 . S
C1469 C1447 1.444 . S
C1469 C1470 1.317 . S
C1470 H1432 0.930 . S
C1470 C1438 1.432 . S
C1470 C1469 1.317 . S
C1471 O1455 1.283 . S
C1471 O1458 1.243 . S
C1472 C1473 1.382 . S
C1472 C1476 1.393 . S
C1472 C1479 1.500 . S
C1473 C1472 1.382 . S
C1473 C1474 1.400 . S
C1473 H1484 0.930 . S
C1474 C1473 1.400 . S
C1474 C1475 1.384 . S
C1475 C1474 1.384 . S
C1475 C1477 1.392 . S
C1475 H1485 0.931 . S
C1476 C1472 1.393 . S
C1476 C1477 1.401 . S
C1476 H1486 0.930 . S
C1477 C1475 1.392 . S
C1477 C1476 1.401 . S
C1477 H1487 0.930 . S
C1478 O1456 1.262 . S
C1478 O1457 1.260 . S
C1479 Tb1415 2.833 . S
C1479 O1454 1.251 . S
C1479 O1459 1.256 . S
C1479 C1472 1.500 . S
H1480 C1463 0.930 . S
H1481 C1464 0.931 . S
H1482 C1465 0.930 . S
H1483 C1466 0.930 . S
H1484 C1473 0.930 . S
H1485 C1475 0.931 . S
H1486 C1476 0.930 . S
H1487 C1477 0.930 . S
Tb1488 N1519 2.660 . S
Tb1488 N1526 2.600 . S
Tb1488 O1532 2.546 . S
Tb1488 O1533 2.610 . S
Tb1488 O1535 2.320 . S
Tb1488 O1536 2.552 . S
Tb1488 O1537 2.413 . S
Tb1488 O1539 2.362 . S
Tb1488 O1540 2.421 . S
Tb1488 C1552 2.833 . S
C1489 C1492 1.432 . S
C1489 C1493 1.414 . S
C1489 N1496 1.359 . S
C1490 C1492 1.417 . S
C1490 C1494 1.432 . S
C1490 C1502 1.410 . S
C1491 C1493 1.444 . S
C1491 C1494 1.317 . S
C1491 H1514 0.929 . S
C1492 C1489 1.432 . S
C1492 C1490 1.417 . S
C1492 N1500 1.360 . S
C1493 C1489 1.414 . S
C1493 C1491 1.444 . S
C1493 C1498 1.385 . S
C1494 C1490 1.432 . S
C1494 C1491 1.317 . S
C1494 H1506 0.930 . S
C1495 C1497 1.392 . S
C1495 C1498 1.370 . S
C1495 H1507 0.931 . S
N1496 C1489 1.359 . S
N1496 C1497 1.327 . S
N1496 Tb1499 2.600 . S
C1497 C1495 1.392 . S
C1497 N1496 1.327 . S
C1497 H1504 0.930 . S
C1498 C1493 1.385 . S
C1498 C1495 1.370 . S
C1498 H1517 0.930 . S
Tb1499 N1496 2.600 . S
Tb1499 N1500 2.660 . S
Tb1499 O1533 2.362 . S
Tb1499 O1534 2.421 . S
Tb1499 O1538 2.546 . S
Tb1499 O1539 2.610 . S
Tb1499 O1541 2.320 . S
Tb1499 O1542 2.552 . S
Tb1499 O1543 2.413 . S
Tb1499 C1563 2.833 . S
N1500 C1492 1.360 . S
N1500 Tb1499 2.660 . S
N1500 C1501 1.305 . S
C1501 N1500 1.305 . S
C1501 C1503 1.407 . S
C1501 H1508 0.930 . S
C1502 C1490 1.410 . S
C1502 C1503 1.345 . S
C1502 H1510 0.930 . S
C1503 C1501 1.407 . S
C1503 C1502 1.345 . S
C1503 H1505 0.930 . S
H1504 C1497 0.930 . S
H1505 C1503 0.930 . S
H1506 C1494 0.930 . S
H1507 C1495 0.931 . S
H1508 C1501 0.930 . S
H1509 C1523 0.930 . S
H1510 C1502 0.930 . S
H1511 C1529 0.930 . S
H1512 C1520 0.930 . S
H1513 C1527 0.931 . S
H1514 C1491 0.929 . S
H1515 C1521 0.930 . S
H1516 C1554 0.930 . S
H1517 C1498 0.930 . S
H1518 C1553 0.929 . S
N1519 Tb1488 2.660 . S
N1519 C1520 1.305 . S
N1519 C1524 1.360 . S
C1520 H1512 0.930 . S
C1520 N1519 1.305 . S
C1520 C1523 1.407 . S
C1521 H1515 0.930 . S
C1521 C1522 1.410 . S
C1521 C1523 1.345 . S
C1522 C1521 1.410 . S
C1522 C1524 1.417 . S
C1522 C1554 1.432 . S
C1523 H1509 0.930 . S
C1523 C1520 1.407 . S
C1523 C1521 1.345 . S
C1524 N1519 1.360 . S
C1524 C1522 1.417 . S
C1524 C1528 1.432 . S
H1525 C1530 0.930 . S
N1526 Tb1488 2.600 . S
N1526 C1528 1.359 . S
N1526 C1529 1.327 . S
C1527 H1513 0.931 . S
C1527 C1529 1.392 . S
C1527 C1530 1.370 . S
C1528 C1524 1.432 . S
C1528 N1526 1.359 . S
C1528 C1531 1.414 . S
C1529 H1511 0.930 . S
C1529 N1526 1.327 . S
C1529 C1527 1.392 . S
C1530 H1525 0.930 . S
C1530 C1527 1.370 . S
C1530 C1531 1.385 . S
C1531 C1528 1.414 . S
C1531 C1530 1.385 . S
C1531 C1553 1.444 . S
O1532 Tb1488 2.546 . S
O1532 C1552 1.251 . S
O1533 Tb1488 2.610 . S
O1533 Tb1499 2.362 . S
O1533 C1544 1.283 . S
O1534 Tb1499 2.421 . S
O1534 C1551 1.262 . S
O1535 Tb1488 2.320 . S
O1535 C1551 1.260 . S
O1536 Tb1488 2.552 . S
O1536 C1544 1.243 . S
O1537 Tb1488 2.413 . S
O1537 C1552 1.256 . S
O1538 Tb1499 2.546 . S
O1538 C1563 1.251 . S
O1539 Tb1488 2.362 . S
O1539 Tb1499 2.610 . S
O1539 C1555 1.283 . S
O1540 Tb1488 2.421 . S
O1540 C1562 1.262 . S
O1541 Tb1499 2.320 . S
O1541 C1562 1.260 . S
O1542 Tb1499 2.552 . S
O1542 C1555 1.243 . S
O1543 Tb1499 2.413 . S
O1543 C1563 1.256 . S
C1544 O1533 1.283 . S
C1544 O1536 1.243 . S
C1545 C1547 1.382 . S
C1545 C1549 1.393 . S
C1545 C1552 1.500 . S
C1546 C1547 1.400 . S
C1546 C1548 1.384 . S
C1547 C1545 1.382 . S
C1547 C1546 1.400 . S
C1547 H1564 0.930 . S
C1548 C1546 1.384 . S
C1548 C1550 1.392 . S
C1548 H1565 0.931 . S
C1549 C1545 1.393 . S
C1549 C1550 1.401 . S
C1549 H1566 0.930 . S
C1550 C1548 1.392 . S
C1550 C1549 1.401 . S
C1550 H1567 0.930 . S
C1551 O1534 1.262 . S
C1551 O1535 1.260 . S
C1552 Tb1488 2.833 . S
C1552 O1532 1.251 . S
C1552 O1537 1.256 . S
C1552 C1545 1.500 . S
C1553 H1518 0.929 . S
C1553 C1531 1.444 . S
C1553 C1554 1.317 . S
C1554 H1516 0.930 . S
C1554 C1522 1.432 . S
C1554 C1553 1.317 . S
C1555 O1539 1.283 . S
C1555 O1542 1.243 . S
C1556 C1557 1.382 . S
C1556 C1560 1.393 . S
C1556 C1563 1.500 . S
C1557 C1556 1.382 . S
C1557 C1558 1.400 . S
C1557 H1568 0.930 . S
C1558 C1557 1.400 . S
C1558 C1559 1.384 . S
C1559 C1558 1.384 . S
C1559 C1561 1.392 . S
C1559 H1569 0.931 . S
C1560 C1556 1.393 . S
C1560 C1561 1.401 . S
C1560 H1570 0.930 . S
C1561 C1559 1.392 . S
C1561 C1560 1.401 . S
C1561 H1571 0.930 . S
C1562 O1540 1.262 . S
C1562 O1541 1.260 . S
C1563 Tb1499 2.833 . S
C1563 O1538 1.251 . S
C1563 O1543 1.256 . S
C1563 C1556 1.500 . S
H1564 C1547 0.930 . S
H1565 C1548 0.931 . S
H1566 C1549 0.930 . S
H1567 C1550 0.930 . S
H1568 C1557 0.930 . S
H1569 C1559 0.931 . S
H1570 C1560 0.930 . S
H1571 C1561 0.930 . S
Tb1572 N1603 2.660 . S
Tb1572 N1610 2.600 1_554 S
Tb1572 O1616 2.546 1_554 S
Tb1572 O1617 2.610 . S
Tb1572 O1619 2.320 . S
Tb1572 O1620 2.552 1_554 S
Tb1572 O1621 2.413 . S
Tb1572 O1623 2.362 . S
Tb1572 O1624 2.421 1_554 S
Tb1572 C1636 2.833 1_554 S
C1573 C1576 1.432 1_455 S
C1573 C1577 1.414 1_455 S
C1573 N1580 1.359 . S
C1574 C1576 1.417 . S
C1574 C1578 1.432 . S
C1574 C1586 1.410 1_554 S
C1575 C1577 1.444 . S
C1575 C1578 1.317 . S
C1575 H1598 0.929 . S
C1576 C1573 1.432 1_655 S
C1576 C1574 1.417 . S
C1576 N1584 1.360 1_655 S
C1577 C1573 1.414 1_655 S
C1577 C1575 1.444 . S
C1577 C1582 1.385 . S
C1578 C1574 1.432 . S
C1578 C1575 1.317 . S
C1578 H1590 0.930 . S
C1579 C1581 1.392 . S
C1579 C1582 1.370 1_455 S
C1579 H1591 0.931 . S
N1580 C1573 1.359 . S
N1580 C1581 1.327 . S
N1580 Tb1583 2.600 . S
C1581 C1579 1.392 . S
C1581 N1580 1.327 . S
C1581 H1588 0.930 . S
C1582 C1577 1.385 . S
C1582 C1579 1.370 1_655 S
C1582 H1601 0.930 . S
Tb1583 N1580 2.600 . S
Tb1583 N1584 2.660 . S
Tb1583 O1617 2.362 . S
Tb1583 O1618 2.421 . S
Tb1583 O1622 2.546 . S
Tb1583 O1623 2.610 . S
Tb1583 O1625 2.320 1_554 S
Tb1583 O1626 2.552 . S
Tb1583 O1627 2.374 1_455 S
Tb1583 C1647 2.833 1_455 S
N1584 C1576 1.360 1_455 S
N1584 Tb1583 2.660 . S
N1584 C1585 1.305 1_554 S
C1585 N1584 1.305 1_556 S
C1585 C1587 1.407 1_455 S
C1585 H1592 0.930 . S
C1586 C1574 1.410 1_556 S
C1586 C1587 1.345 . S
C1586 H1594 0.930 . S
C1587 C1585 1.407 1_655 S
C1587 C1586 1.345 . S
C1587 H1589 0.930 . S
H1588 C1581 0.930 . S
H1589 C1587 0.930 . S
H1590 C1578 0.930 . S
H1591 C1579 0.931 . S
H1592 C1585 0.930 . S
H1593 C1607 0.930 . S
H1594 C1586 0.930 . S
H1595 C1613 0.930 . S
H1596 C1604 0.930 . S
H1597 C1611 0.931 . S
H1598 C1575 0.929 . S
H1599 C1605 0.930 . S
H1600 C1638 0.930 . S
H1601 C1582 0.930 . S
H1602 C1637 0.929 . S
N1603 Tb1572 2.660 . S
N1603 C1604 1.305 . S
N1603 C1608 1.360 . S
C1604 H1596 0.930 . S
C1604 N1603 1.305 . S
C1604 C1607 1.407 . S
C1605 H1599 0.930 . S
C1605 C1606 1.410 . S
C1605 C1607 1.345 . S
C1606 C1605 1.410 . S
C1606 C1608 1.417 . S
C1606 C1638 1.432 . S
C1607 H1593 0.930 . S
C1607 C1604 1.407 . S
C1607 C1605 1.345 . S
C1608 N1603 1.360 . S
C1608 C1606 1.417 . S
C1608 C1612 1.432 1_554 S
H1609 C1614 0.930 . S
N1610 Tb1572 2.600 1_556 S
N1610 C1612 1.359 . S
N1610 C1613 1.327 . S
C1611 H1597 0.931 . S
C1611 C1613 1.392 . S
C1611 C1614 1.370 . S
C1612 C1608 1.432 1_556 S
C1612 N1610 1.359 . S
C1612 C1615 1.414 . S
C1613 H1595 0.930 . S
C1613 N1610 1.327 . S
C1613 C1611 1.392 . S
C1614 H1609 0.930 . S
C1614 C1611 1.370 . S
C1614 C1615 1.385 . S
C1615 C1612 1.414 . S
C1615 C1614 1.385 . S
C1615 C1637 1.444 . S
O1616 Tb1572 2.546 1_556 S
O1616 C1636 1.251 . S
O1617 Tb1572 2.610 . S
O1617 Tb1583 2.362 . S
O1617 C1628 1.283 . S
O1618 Tb1583 2.421 . S
O1618 C1635 1.262 . S
O1619 Tb1572 2.320 . S
O1619 C1635 1.260 . S
O1620 Tb1572 2.552 1_556 S
O1620 C1628 1.243 1_556 S
O1621 Tb1572 2.413 . S
O1621 C1636 1.256 1_554 S
O1622 Tb1583 2.546 . S
O1622 C1647 1.251 1_455 S
O1623 Tb1572 2.362 . S
O1623 Tb1583 2.610 . S
O1623 C1639 1.283 . S
O1624 Tb1572 2.421 1_556 S
O1624 C1646 1.262 . S
O1625 Tb1583 2.320 1_556 S
O1625 C1646 1.260 . S
O1626 Tb1583 2.552 . S
O1626 C1639 1.243 . S
O1627 Tb1583 2.374 1_655 S
O1627 C1647 1.267 . S
C1628 O1617 1.283 . S
C1628 O1620 1.243 1_554 S
C1629 C1631 1.382 1_556 S
C1629 C1633 1.393 . S
C1629 C1636 1.500 . S
C1630 C1631 1.400 1_556 S
C1630 C1632 1.384 . S
C1631 C1629 1.382 1_554 S
C1631 C1630 1.400 1_554 S
C1631 H1648 0.930 . S
C1632 C1630 1.384 . S
C1632 C1634 1.392 . S
C1632 H1649 0.931 . S
C1633 C1629 1.393 . S
C1633 C1634 1.401 . S
C1633 H1650 0.930 . S
C1634 C1632 1.392 . S
C1634 C1633 1.401 . S
C1634 H1651 0.930 . S
C1635 O1618 1.262 . S
C1635 O1619 1.260 . S
C1636 Tb1572 2.833 1_556 S
C1636 O1616 1.251 . S
C1636 O1621 1.256 1_556 S
C1636 C1629 1.500 . S
C1637 H1602 0.929 . S
C1637 C1615 1.444 . S
C1637 C1638 1.317 1_556 S
C1638 H1600 0.930 . S
C1638 C1606 1.432 . S
C1638 C1637 1.317 1_554 S
C1639 O1623 1.283 . S
C1639 O1626 1.243 . S
C1640 C1641 1.382 . S
C1640 C1644 1.393 . S
C1640 C1647 1.500 . S
C1641 C1640 1.382 . S
C1641 C1642 1.400 . S
C1641 H1652 0.930 . S
C1642 C1641 1.400 . S
C1642 C1643 1.384 . S
C1643 C1642 1.384 . S
C1643 C1645 1.392 . S
C1643 H1653 0.931 . S
C1644 C1640 1.393 . S
C1644 C1645 1.401 . S
C1644 H1654 0.930 . S
C1645 C1643 1.392 . S
C1645 C1644 1.401 . S
C1645 H1655 0.930 . S
C1646 O1624 1.262 . S
C1646 O1625 1.260 . S
C1647 Tb1583 2.833 1_655 S
C1647 O1622 1.251 1_655 S
C1647 O1627 1.267 . S
C1647 C1640 1.500 . S
H1648 C1631 0.930 . S
H1649 C1632 0.931 . S
H1650 C1633 0.930 . S
H1651 C1634 0.930 . S
H1652 C1641 0.930 . S
H1653 C1643 0.931 . S
H1654 C1644 0.930 . S
H1655 C1645 0.930 . S
H1656 C1664 0.929 . S
H1657 C1666 0.947 . S
H1658 C1668 0.930 . S
H1659 C1671 0.929 . S
H1660 C1674 0.930 1_655 S
H1661 C1676 0.960 . S
H1662 C1676 0.960 . S
H1663 C1676 0.960 . S
C1664 H1656 0.929 . S
C1664 C1665 1.377 . S
C1664 C1666 1.384 . S
C1665 C1664 1.377 . S
C1665 C1671 1.390 . S
C1666 H1657 0.947 . S
C1666 C1664 1.384 . S
C1666 C1667 1.372 . S
C1667 C1666 1.372 . S
C1667 C1668 1.400 . S
C1667 C1672 1.490 . S
C1668 H1658 0.930 . S
C1668 C1667 1.400 . S
C1668 C1671 1.386 . S
H1669 C1685 0.930 . S
H1670 C1686 0.931 . S
C1671 H1659 0.929 . S
C1671 C1665 1.390 . S
C1671 C1668 1.386 . S
C1672 C1667 1.490 . S
C1672 C1674 1.395 . S
C1672 C1675 1.403 . S
H1673 C1679 0.930 . S
C1674 H1660 0.930 1_455 S
C1674 C1672 1.395 . S
C1674 C1677 1.403 . S
C1675 C1672 1.403 . S
C1675 C1676 1.524 . S
C1675 C1679 1.400 . S
C1676 H1661 0.960 . S
C1676 H1662 0.960 . S
C1676 H1663 0.960 . S
C1676 C1675 1.524 . S
C1677 C1674 1.403 . S
C1677 C1678 1.392 . S
C1677 C1681 1.495 1_455 S
C1678 C1677 1.392 . S
C1678 C1679 1.385 . S
C1678 C1680 1.478 . S
C1679 H1673 0.930 . S
C1679 C1675 1.400 . S
C1679 C1678 1.385 . S
C1680 C1678 1.478 . S
C1680 C1682 1.381 1_556 S
C1680 C1686 1.383 . S
C1681 C1677 1.495 1_655 S
C1681 H1687 0.959 . S
C1681 H1688 0.961 . S
C1681 H1689 0.960 1_556 S
C1682 C1680 1.381 1_554 S
C1682 C1683 1.394 . S
C1682 H1690 0.930 . S
C1683 C1682 1.394 . S
C1683 C1684 1.383 . S
C1683 H1691 0.929 . S
C1684 C1683 1.383 . S
C1684 C1685 1.377 1_554 S
C1685 H1669 0.930 . S
C1685 C1684 1.377 1_556 S
C1685 C1686 1.379 . S
C1686 H1670 0.931 . S
C1686 C1680 1.383 . S
C1686 C1685 1.379 . S
H1687 C1681 0.959 . S
H1688 C1681 0.961 . S
H1689 C1681 0.960 1_554 S
H1690 C1682 0.930 . S
H1691 C1683 0.929 . S
H1692 C1700 0.929 . S
H1693 C1702 0.930 . S
H1694 C1704 0.930 . S
H1695 C1707 0.929 . S
H1696 C1710 0.930 . S
H1697 C1712 0.960 . S
H1698 C1712 0.960 . S
H1699 C1712 0.960 . S
C1700 H1692 0.929 . S
C1700 C1701 1.377 . S
C1700 C1702 1.384 . S
C1701 C1700 1.377 . S
C1701 C1707 1.390 . S
C1702 H1693 0.930 . S
C1702 C1700 1.384 . S
C1702 C1703 1.372 . S
C1703 C1702 1.372 . S
C1703 C1704 1.400 . S
C1703 C1708 1.490 . S
C1704 H1694 0.930 . S
C1704 C1703 1.400 . S
C1704 C1707 1.386 . S
H1705 C1721 0.930 . S
H1706 C1722 0.931 . S
C1707 H1695 0.929 . S
C1707 C1701 1.390 . S
C1707 C1704 1.386 . S
C1708 C1703 1.490 . S
C1708 C1710 1.395 . S
C1708 C1711 1.403 . S
H1709 C1715 0.930 . S
C1710 H1696 0.930 . S
C1710 C1708 1.395 . S
C1710 C1713 1.403 . S
C1711 C1708 1.403 . S
C1711 C1712 1.524 . S
C1711 C1715 1.400 . S
C1712 H1697 0.960 . S
C1712 H1698 0.960 . S
C1712 H1699 0.960 . S
C1712 C1711 1.524 . S
C1713 C1710 1.403 . S
C1713 C1714 1.392 . S
C1713 C1717 1.495 . S
C1714 C1713 1.392 . S
C1714 C1715 1.385 . S
C1714 C1716 1.478 . S
C1715 H1709 0.930 . S
C1715 C1711 1.400 . S
C1715 C1714 1.385 . S
C1716 C1714 1.478 . S
C1716 C1718 1.381 . S
C1716 C1722 1.383 . S
C1717 C1713 1.495 . S
C1717 H1723 0.959 . S
C1717 H1724 0.961 . S
C1717 H1725 0.960 . S
C1718 C1716 1.381 . S
C1718 C1719 1.394 . S
C1718 H1726 0.930 . S
C1719 C1718 1.394 . S
C1719 C1720 1.383 . S
C1719 H1727 0.929 . S
C1720 C1719 1.383 . S
C1720 C1721 1.377 . S
C1721 H1705 0.930 . S
C1721 C1720 1.377 . S
C1721 C1722 1.379 . S
C1722 H1706 0.931 . S
C1722 C1716 1.383 . S
C1722 C1721 1.379 . S
H1723 C1717 0.959 . S
H1724 C1717 0.961 . S
H1725 C1717 0.960 . S
H1726 C1718 0.930 . S
H1727 C1719 0.929 . S
H1728 C1736 0.929 . S
H1729 C1738 0.930 . S
H1730 C1740 0.930 . S
H1731 C1743 0.929 . S
H1732 C1746 0.930 . S
H1733 C1748 0.960 . S
H1734 C1748 0.960 . S
H1735 C1748 0.960 . S
C1736 H1728 0.929 . S
C1736 C1737 1.377 . S
C1736 C1738 1.384 . S
C1737 C1736 1.377 . S
C1737 C1743 1.390 . S
C1738 H1729 0.930 . S
C1738 C1736 1.384 . S
C1738 C1739 1.372 . S
C1739 C1738 1.372 . S
C1739 C1740 1.400 . S
C1739 C1744 1.490 . S
C1740 H1730 0.930 . S
C1740 C1739 1.400 . S
C1740 C1743 1.386 . S
H1741 C1757 0.930 . S
H1742 C1758 0.931 . S
C1743 H1731 0.929 . S
C1743 C1737 1.390 . S
C1743 C1740 1.386 . S
C1744 C1739 1.490 . S
C1744 C1746 1.395 . S
C1744 C1747 1.403 . S
H1745 C1751 0.930 . S
C1746 H1732 0.930 . S
C1746 C1744 1.395 . S
C1746 C1749 1.403 . S
C1747 C1744 1.403 . S
C1747 C1748 1.524 . S
C1747 C1751 1.400 . S
C1748 H1733 0.960 . S
C1748 H1734 0.960 . S
C1748 H1735 0.960 . S
C1748 C1747 1.524 . S
C1749 C1746 1.403 . S
C1749 C1750 1.392 . S
C1749 C1753 1.495 . S
C1750 C1749 1.392 . S
C1750 C1751 1.385 . S
C1750 C1752 1.478 . S
C1751 H1745 0.930 . S
C1751 C1747 1.400 . S
C1751 C1750 1.385 . S
C1752 C1750 1.478 . S
C1752 C1754 1.381 . S
C1752 C1758 1.383 . S
C1753 C1749 1.495 . S
C1753 H1759 0.959 . S
C1753 H1760 0.961 . S
C1753 H1761 0.960 . S
C1754 C1752 1.381 . S
C1754 C1755 1.394 . S
C1754 H1762 0.930 . S
C1755 C1754 1.394 . S
C1755 C1756 1.383 . S
C1755 H1763 0.929 . S
C1756 C1755 1.383 . S
C1756 C1757 1.377 . S
C1757 H1741 0.930 . S
C1757 C1756 1.377 . S
C1757 C1758 1.379 . S
C1758 H1742 0.931 . S
C1758 C1752 1.383 . S
C1758 C1757 1.379 . S
H1759 C1753 0.959 . S
H1760 C1753 0.961 . S
H1761 C1753 0.960 . S
H1762 C1754 0.930 . S
H1763 C1755 0.929 . S
H1764 C1772 0.929 . S
H1765 C1774 0.930 . S
H1766 C1776 0.930 . S
H1767 C1779 0.929 . S
H1768 C1782 0.930 . S
H1769 C1784 0.960 . S
H1770 C1784 0.960 . S
H1771 C1784 0.960 . S
C1772 H1764 0.929 . S
C1772 C1773 1.377 . S
C1772 C1774 1.384 . S
C1773 C1772 1.377 . S
C1773 C1779 1.390 . S
C1774 H1765 0.930 . S
C1774 C1772 1.384 . S
C1774 C1775 1.372 . S
C1775 C1774 1.372 . S
C1775 C1776 1.400 . S
C1775 C1780 1.490 . S
C1776 H1766 0.930 . S
C1776 C1775 1.400 . S
C1776 C1779 1.386 . S
H1777 C1793 0.930 . S
H1778 C1794 0.931 . S
C1779 H1767 0.929 . S
C1779 C1773 1.390 . S
C1779 C1776 1.386 . S
C1780 C1775 1.490 . S
C1780 C1782 1.395 . S
C1780 C1783 1.403 . S
H1781 C1787 0.930 . S
C1782 H1768 0.930 . S
C1782 C1780 1.395 . S
C1782 C1785 1.403 . S
C1783 C1780 1.403 . S
C1783 C1784 1.524 . S
C1783 C1787 1.400 . S
C1784 H1769 0.960 . S
C1784 H1770 0.960 . S
C1784 H1771 0.960 . S
C1784 C1783 1.524 . S
C1785 C1782 1.403 . S
C1785 C1786 1.392 . S
C1785 C1789 1.495 . S
C1786 C1785 1.392 . S
C1786 C1787 1.385 . S
C1786 C1788 1.478 . S
C1787 H1781 0.930 . S
C1787 C1783 1.400 . S
C1787 C1786 1.385 . S
C1788 C1786 1.478 . S
C1788 C1790 1.381 . S
C1788 C1794 1.383 . S
C1789 C1785 1.495 . S
C1789 H1795 0.959 . S
C1789 H1796 0.961 . S
C1789 H1797 0.960 . S
C1790 C1788 1.381 . S
C1790 C1791 1.394 . S
C1790 H1798 0.930 . S
C1791 C1790 1.394 . S
C1791 C1792 1.383 . S
C1791 H1799 0.929 . S
C1792 C1791 1.383 . S
C1792 C1793 1.377 . S
C1793 H1777 0.930 . S
C1793 C1792 1.377 . S
C1793 C1794 1.379 . S
C1794 H1778 0.931 . S
C1794 C1788 1.383 . S
C1794 C1793 1.379 . S
H1795 C1789 0.959 . S
H1796 C1789 0.961 . S
H1797 C1789 0.960 . S
H1798 C1790 0.930 . S
H1799 C1791 0.929 . S
H1800 C1808 0.929 . S
H1801 C1810 0.930 . S
H1802 C1812 0.930 . S
H1803 C1815 0.929 . S
H1804 C1818 0.930 . S
H1805 C1820 0.960 . S
H1806 C1820 0.960 . S
H1807 C1820 0.960 . S
C1808 H1800 0.929 . S
C1808 C1809 1.377 . S
C1808 C1810 1.384 . S
C1809 C1808 1.377 . S
C1809 C1815 1.390 . S
C1810 H1801 0.930 . S
C1810 C1808 1.384 . S
C1810 C1811 1.372 . S
C1811 C1810 1.372 . S
C1811 C1812 1.400 . S
C1811 C1816 1.490 . S
C1812 H1802 0.930 . S
C1812 C1811 1.400 . S
C1812 C1815 1.386 . S
H1813 C1829 0.930 . S
H1814 C1830 0.931 . S
C1815 H1803 0.929 . S
C1815 C1809 1.390 . S
C1815 C1812 1.386 . S
C1816 C1811 1.490 . S
C1816 C1818 1.395 . S
C1816 C1819 1.403 . S
H1817 C1823 0.930 . S
C1818 H1804 0.930 . S
C1818 C1816 1.395 . S
C1818 C1821 1.403 . S
C1819 C1816 1.403 . S
C1819 C1820 1.524 1_455 S
C1819 C1823 1.400 . S
C1820 H1805 0.960 . S
C1820 H1806 0.960 . S
C1820 H1807 0.960 . S
C1820 C1819 1.524 1_655 S
C1821 C1818 1.403 . S
C1821 C1822 1.392 . S
C1821 C1825 1.495 . S
C1822 C1821 1.392 . S
C1822 C1823 1.385 . S
C1822 C1824 1.478 . S
C1823 H1817 0.930 . S
C1823 C1819 1.400 . S
C1823 C1822 1.385 . S
C1824 C1822 1.478 . S
C1824 C1826 1.381 . S
C1824 C1830 1.383 . S
C1825 C1821 1.495 . S
C1825 H1831 0.959 . S
C1825 H1832 0.961 . S
C1825 H1833 0.960 . S
C1826 C1824 1.381 . S
C1826 C1827 1.394 . S
C1826 H1834 0.930 . S
C1827 C1826 1.394 . S
C1827 C1828 1.383 . S
C1827 H1835 0.929 . S
C1828 C1827 1.383 . S
C1828 C1829 1.377 . S
C1829 H1813 0.930 . S
C1829 C1828 1.377 . S
C1829 C1830 1.379 . S
C1830 H1814 0.931 . S
C1830 C1824 1.383 . S
C1830 C1829 1.379 . S
H1831 C1825 0.959 . S
H1832 C1825 0.961 . S
H1833 C1825 0.960 . S
H1834 C1826 0.930 . S
H1835 C1827 0.929 . S
H1836 C1844 0.929 . S
H1837 C1846 0.930 . S
H1838 C1848 0.930 . S
H1839 C1851 0.929 . S
H1840 C1854 0.930 . S
H1841 C1856 0.960 . S
H1842 C1856 0.960 . S
H1843 C1856 0.960 . S
C1844 H1836 0.929 . S
C1844 C1845 1.377 . S
C1844 C1846 1.384 . S
C1845 C1844 1.377 . S
C1845 C1851 1.390 . S
C1846 H1837 0.930 . S
C1846 C1844 1.384 . S
C1846 C1847 1.372 . S
C1847 C1846 1.372 . S
C1847 C1848 1.400 . S
C1847 C1852 1.490 . S
C1848 H1838 0.930 . S
C1848 C1847 1.400 . S
C1848 C1851 1.386 . S
H1849 C1865 0.930 . S
H1850 C1866 0.931 . S
C1851 H1839 0.929 . S
C1851 C1845 1.390 . S
C1851 C1848 1.386 . S
C1852 C1847 1.490 . S
C1852 C1854 1.395 . S
C1852 C1855 1.403 . S
H1853 C1859 0.930 . S
C1854 H1840 0.930 . S
C1854 C1852 1.395 . S
C1854 C1857 1.403 . S
C1855 C1852 1.403 . S
C1855 C1856 1.524 . S
C1855 C1859 1.400 . S
C1856 H1841 0.960 . S
C1856 H1842 0.960 . S
C1856 H1843 0.960 . S
C1856 C1855 1.524 . S
C1857 C1854 1.403 . S
C1857 C1858 1.392 . S
C1857 C1861 1.495 . S
C1858 C1857 1.392 . S
C1858 C1859 1.385 . S
C1858 C1860 1.478 . S
C1859 H1853 0.930 . S
C1859 C1855 1.400 . S
C1859 C1858 1.385 . S
C1860 C1858 1.478 . S
C1860 C1862 1.381 . S
C1860 C1866 1.383 . S
C1861 C1857 1.495 . S
C1861 H1867 0.959 . S
C1861 H1868 0.961 . S
C1861 H1869 0.960 . S
C1862 C1860 1.381 . S
C1862 C1863 1.394 . S
C1862 H1870 0.930 . S
C1863 C1862 1.394 . S
C1863 C1864 1.383 . S
C1863 H1871 0.929 . S
C1864 C1863 1.383 . S
C1864 C1865 1.377 . S
C1865 H1849 0.930 . S
C1865 C1864 1.377 . S
C1865 C1866 1.379 . S
C1866 H1850 0.931 . S
C1866 C1860 1.383 . S
C1866 C1865 1.379 . S
H1867 C1861 0.959 . S
H1868 C1861 0.961 . S
H1869 C1861 0.960 . S
H1870 C1862 0.930 . S
H1871 C1863 0.929 . S
H1872 C1880 0.929 . S
H1873 C1882 0.930 . S
H1874 C1884 0.930 . S
H1875 C1887 0.929 . S
H1876 C1890 0.930 . S
H1877 C1892 0.960 . S
H1878 C1892 0.960 . S
H1879 C1892 0.960 . S
C1880 H1872 0.929 . S
C1880 C1881 1.377 . S
C1880 C1882 1.384 . S
C1881 C1880 1.377 . S
C1881 C1887 1.390 . S
C1882 H1873 0.930 . S
C1882 C1880 1.384 . S
C1882 C1883 1.372 . S
C1883 C1882 1.372 . S
C1883 C1884 1.400 . S
C1883 C1888 1.490 . S
C1884 H1874 0.930 . S
C1884 C1883 1.400 . S
C1884 C1887 1.386 . S
H1885 C1901 0.930 . S
H1886 C1902 0.931 . S
C1887 H1875 0.929 . S
C1887 C1881 1.390 . S
C1887 C1884 1.386 . S
C1888 C1883 1.490 . S
C1888 C1890 1.395 . S
C1888 C1891 1.403 . S
H1889 C1895 0.930 . S
C1890 H1876 0.930 . S
C1890 C1888 1.395 . S
C1890 C1893 1.403 . S
C1891 C1888 1.403 . S
C1891 C1892 1.524 . S
C1891 C1895 1.400 . S
C1892 H1877 0.960 . S
C1892 H1878 0.960 . S
C1892 H1879 0.960 . S
C1892 C1891 1.524 . S
C1893 C1890 1.403 . S
C1893 C1894 1.392 . S
C1893 C1897 1.495 . S
C1894 C1893 1.392 . S
C1894 C1895 1.385 . S
C1894 C1896 1.478 . S
C1895 H1889 0.930 . S
C1895 C1891 1.400 . S
C1895 C1894 1.385 . S
C1896 C1894 1.478 . S
C1896 C1898 1.381 . S
C1896 C1902 1.383 . S
C1897 C1893 1.495 . S
C1897 H1903 0.959 . S
C1897 H1904 0.961 . S
C1897 H1905 0.960 . S
C1898 C1896 1.381 . S
C1898 C1899 1.394 . S
C1898 H1906 0.930 . S
C1899 C1898 1.394 . S
C1899 C1900 1.383 . S
C1899 H1907 0.929 . S
C1900 C1899 1.383 . S
C1900 C1901 1.377 . S
C1901 H1885 0.930 . S
C1901 C1900 1.377 . S
C1901 C1902 1.379 . S
C1902 H1886 0.931 . S
C1902 C1896 1.383 . S
C1902 C1901 1.379 . S
H1903 C1897 0.959 . S
H1904 C1897 0.961 . S
H1905 C1897 0.960 . S
H1906 C1898 0.930 . S
H1907 C1899 0.929 . S
H1908 C1916 0.929 . S
H1909 C1918 0.930 . S
H1910 C1920 0.930 . S
H1911 C1923 0.929 . S
H1912 C1926 0.930 . S
H1913 C1928 0.960 . S
H1914 C1928 0.960 . S
H1915 C1928 0.960 . S
C1916 H1908 0.929 . S
C1916 C1917 1.377 . S
C1916 C1918 1.384 . S
C1917 C1916 1.377 . S
C1917 C1923 1.390 . S
C1918 H1909 0.930 . S
C1918 C1916 1.384 . S
C1918 C1919 1.372 . S
C1919 C1918 1.372 . S
C1919 C1920 1.400 . S
C1919 C1924 1.490 . S
C1920 H1910 0.930 . S
C1920 C1919 1.400 . S
C1920 C1923 1.386 . S
H1921 C1937 0.930 . S
H1922 C1938 0.931 . S
C1923 H1911 0.929 . S
C1923 C1917 1.390 . S
C1923 C1920 1.386 . S
C1924 C1919 1.490 . S
C1924 C1926 1.395 . S
C1924 C1927 1.403 . S
H1925 C1931 0.930 . S
C1926 H1912 0.930 . S
C1926 C1924 1.395 . S
C1926 C1929 1.403 . S
C1927 C1924 1.403 . S
C1927 C1928 1.524 . S
C1927 C1931 1.400 . S
C1928 H1913 0.960 . S
C1928 H1914 0.960 . S
C1928 H1915 0.960 . S
C1928 C1927 1.524 . S
C1929 C1926 1.403 . S
C1929 C1930 1.392 . S
C1929 C1933 1.495 . S
C1930 C1929 1.392 . S
C1930 C1931 1.385 . S
C1930 C1932 1.478 . S
C1931 H1925 0.930 . S
C1931 C1927 1.400 . S
C1931 C1930 1.385 . S
C1932 C1930 1.478 . S
C1932 C1934 1.381 . S
C1932 C1938 1.383 . S
C1933 C1929 1.495 . S
C1933 H1939 0.959 . S
C1933 H1940 0.961 . S
C1933 H1941 0.960 . S
C1934 C1932 1.381 . S
C1934 C1935 1.394 . S
C1934 H1942 0.930 . S
C1935 C1934 1.394 . S
C1935 C1936 1.383 . S
C1935 H1943 0.929 . S
C1936 C1935 1.383 . S
C1936 C1937 1.377 . S
C1937 H1921 0.930 . S
C1937 C1936 1.377 . S
C1937 C1938 1.379 . S
C1938 H1922 0.931 . S
C1938 C1932 1.383 . S
C1938 C1937 1.379 . S
H1939 C1933 0.959 . S
H1940 C1933 0.961 . S
H1941 C1933 0.960 . S
H1942 C1934 0.930 . S
H1943 C1935 0.929 . S
H1944 C1952 0.929 . S
H1945 C1954 0.930 . S
H1946 C1956 0.930 . S
H1947 C1959 0.929 . S
H1948 C1962 0.930 . S
H1949 C1964 0.960 . S
H1950 C1964 0.960 . S
H1951 C1964 0.960 . S
C1952 H1944 0.929 . S
C1952 C1953 1.377 . S
C1952 C1954 1.384 . S
C1953 C1952 1.377 . S
C1953 C1959 1.390 . S
C1954 H1945 0.930 . S
C1954 C1952 1.384 . S
C1954 C1955 1.372 . S
C1955 C1954 1.372 . S
C1955 C1956 1.400 . S
C1955 C1960 1.490 . S
C1956 H1946 0.930 . S
C1956 C1955 1.400 . S
C1956 C1959 1.386 . S
H1957 C1973 0.930 . S
H1958 C1974 0.931 . S
C1959 H1947 0.929 . S
C1959 C1953 1.390 . S
C1959 C1956 1.386 . S
C1960 C1955 1.490 . S
C1960 C1962 1.395 . S
C1960 C1963 1.403 1_655 S
H1961 C1967 0.930 . S
C1962 H1948 0.930 . S
C1962 C1960 1.395 . S
C1962 C1965 1.403 . S
C1963 C1960 1.403 1_455 S
C1963 C1964 1.524 . S
C1963 C1967 1.400 . S
C1964 H1949 0.960 . S
C1964 H1950 0.960 . S
C1964 H1951 0.960 . S
C1964 C1963 1.524 . S
C1965 C1962 1.403 . S
C1965 C1966 1.392 . S
C1965 C1969 1.495 . S
C1966 C1965 1.392 . S
C1966 C1967 1.385 1_655 S
C1966 C1968 1.478 1_655 S
C1967 H1961 0.930 . S
C1967 C1963 1.400 . S
C1967 C1966 1.385 1_455 S
C1968 C1966 1.478 1_455 S
C1968 C1970 1.381 . S
C1968 C1974 1.383 . S
C1969 C1965 1.495 . S
C1969 H1975 0.959 . S
C1969 H1976 0.961 . S
C1969 H1977 0.960 . S
C1970 C1968 1.381 . S
C1970 C1971 1.394 . S
C1970 H1978 0.930 1_455 S
C1971 C1970 1.394 . S
C1971 C1972 1.383 . S
C1971 H1979 0.929 . S
C1972 C1971 1.383 . S
C1972 C1973 1.377 . S
C1973 H1957 0.930 . S
C1973 C1972 1.377 . S
C1973 C1974 1.379 . S
C1974 H1958 0.931 . S
C1974 C1968 1.383 . S
C1974 C1973 1.379 . S
H1975 C1969 0.959 . S
H1976 C1969 0.961 . S
H1977 C1969 0.960 . S
H1978 C1970 0.930 1_655 S
H1979 C1971 0.929 . S
H1980 C1988 0.929 . S
H1981 C1990 0.930 . S
H1982 C1992 0.930 . S
H1983 C1995 0.929 . S
H1984 C1998 0.930 . S
H1985 C2000 0.960 . S
H1986 C2000 0.960 . S
H1987 C2000 0.960 . S
C1988 H1980 0.929 . S
C1988 C1989 1.377 . S
C1988 C1990 1.384 . S
C1989 C1988 1.377 . S
C1989 C1995 1.390 . S
C1990 H1981 0.930 . S
C1990 C1988 1.384 . S
C1990 C1991 1.372 . S
C1991 C1990 1.372 . S
C1991 C1992 1.400 . S
C1991 C1996 1.490 . S
C1992 H1982 0.930 . S
C1992 C1991 1.400 . S
C1992 C1995 1.386 . S
H1993 C2009 0.930 . S
H1994 C2010 0.931 . S
C1995 H1983 0.929 . S
C1995 C1989 1.390 . S
C1995 C1992 1.386 . S
C1996 C1991 1.490 . S
C1996 C1998 1.395 . S
C1996 C1999 1.403 . S
H1997 C2003 0.930 . S
C1998 H1984 0.930 . S
C1998 C1996 1.395 . S
C1998 C2001 1.403 . S
C1999 C1996 1.403 . S
C1999 C2000 1.524 . S
C1999 C2003 1.400 . S
C2000 H1985 0.960 . S
C2000 H1986 0.960 . S
C2000 H1987 0.960 . S
C2000 C1999 1.524 . S
C2001 C1998 1.403 . S
C2001 C2002 1.392 . S
C2001 C2005 1.495 . S
C2002 C2001 1.392 . S
C2002 C2003 1.385 . S
C2002 C2004 1.478 . S
C2003 H1997 0.930 . S
C2003 C1999 1.400 . S
C2003 C2002 1.385 . S
C2004 C2002 1.478 . S
C2004 C2006 1.381 . S
C2004 C2010 1.383 . S
C2005 C2001 1.495 . S
C2005 H2011 0.959 . S
C2005 H2012 0.961 . S
C2005 H2013 0.960 . S
C2006 C2004 1.381 . S
C2006 C2007 1.394 . S
C2006 H2014 0.930 . S
C2007 C2006 1.394 . S
C2007 C2008 1.383 . S
C2007 H2015 0.929 . S
C2008 C2007 1.383 . S
C2008 C2009 1.377 . S
C2009 H1993 0.930 . S
C2009 C2008 1.377 . S
C2009 C2010 1.379 . S
C2010 H1994 0.931 . S
C2010 C2004 1.383 . S
C2010 C2009 1.379 . S
H2011 C2005 0.959 . S
H2012 C2005 0.961 . S
H2013 C2005 0.960 . S
H2014 C2006 0.930 . S
H2015 C2007 0.929 . S
H2016 C2024 0.929 . S
H2017 C2026 0.930 . S
H2018 C2028 0.930 . S
H2019 C2031 0.929 . S
H2020 C2034 0.930 . S
H2021 C2036 0.960 . S
H2022 C2036 0.930 1_565 S
H2023 C2036 0.960 . S
C2024 H2016 0.929 . S
C2024 C2025 1.377 . S
C2024 C2026 1.384 . S
C2025 C2024 1.377 . S
C2025 C2031 1.390 . S
C2026 H2017 0.930 . S
C2026 C2024 1.384 . S
C2026 C2027 1.372 . S
C2027 C2026 1.372 . S
C2027 C2028 1.400 . S
C2027 C2032 1.490 . S
C2028 H2018 0.930 . S
C2028 C2027 1.400 . S
C2028 C2031 1.386 . S
H2029 C2045 0.930 . S
H2030 C2046 0.931 . S
C2031 H2019 0.929 . S
C2031 C2025 1.390 . S
C2031 C2028 1.386 . S
C2032 C2027 1.490 . S
C2032 C2034 1.395 . S
C2032 C2035 1.403 . S
H2033 C2039 0.930 . S
C2034 H2020 0.930 . S
C2034 C2032 1.395 . S
C2034 C2037 1.403 . S
C2035 C2032 1.403 . S
C2035 C2036 1.524 . S
C2035 C2039 1.400 . S
C2036 H2021 0.960 . S
C2036 H2022 0.930 1_545 S
C2036 H2023 0.960 . S
C2036 C2035 1.524 . S
C2037 C2034 1.403 . S
C2037 C2038 1.392 . S
C2037 C2041 1.495 . S
C2038 C2037 1.392 . S
C2038 C2039 1.385 . S
C2038 C2040 1.478 . S
C2039 H2033 0.930 . S
C2039 C2035 1.400 . S
C2039 C2038 1.385 . S
C2040 C2038 1.478 . S
C2040 C2042 1.381 . S
C2040 C2046 1.383 . S
C2041 C2037 1.495 . S
C2041 H2047 0.959 . S
C2041 H2048 0.961 . S
C2041 H2049 0.960 . S
C2042 C2040 1.381 . S
C2042 C2043 1.394 . S
C2042 H2050 0.930 . S
C2043 C2042 1.394 . S
C2043 C2044 1.383 . S
C2043 H2051 0.929 . S
C2044 C2043 1.383 . S
C2044 C2045 1.377 . S
C2045 H2029 0.930 . S
C2045 C2044 1.377 . S
C2045 C2046 1.379 . S
C2046 H2030 0.931 . S
C2046 C2040 1.383 . S
C2046 C2045 1.379 . S
H2047 C2041 0.959 . S
H2048 C2041 0.961 . S
H2049 C2041 0.960 . S
H2050 C2042 0.930 . S
H2051 C2043 0.929 . S
H2052 C2060 0.929 . S
H2053 C2062 0.930 . S
H2054 C2064 0.930 . S
H2055 C2067 0.929 . S
H2056 C2070 0.930 . S
H2057 C2072 0.960 . S
H2058 C2072 0.960 . S
H2059 C2072 0.960 . S
C2060 H2052 0.929 . S
C2060 C2061 1.377 . S
C2060 C2062 1.384 . S
C2061 C2060 1.377 . S
C2061 C2067 1.390 . S
C2062 H2053 0.930 . S
C2062 C2060 1.384 . S
C2062 C2063 1.372 . S
C2063 C2062 1.372 . S
C2063 C2064 1.400 . S
C2063 C2068 1.490 . S
C2064 H2054 0.930 . S
C2064 C2063 1.400 . S
C2064 C2067 1.386 . S
H2065 C2081 0.930 . S
H2066 C2082 0.931 . S
C2067 H2055 0.929 . S
C2067 C2061 1.390 . S
C2067 C2064 1.386 . S
C2068 C2063 1.490 . S
C2068 C2070 1.395 . S
C2068 C2071 1.403 . S
H2069 C2075 0.930 . S
C2070 H2056 0.930 . S
C2070 C2068 1.395 . S
C2070 C2073 1.403 . S
C2071 C2068 1.403 . S
C2071 C2072 1.524 . S
C2071 C2075 1.400 . S
C2072 H2057 0.960 . S
C2072 H2058 0.960 . S
C2072 H2059 0.960 . S
C2072 C2071 1.524 . S
C2073 C2070 1.403 . S
C2073 C2074 1.392 . S
C2073 C2077 1.495 . S
C2074 C2073 1.392 . S
C2074 C2075 1.385 . S
C2074 C2076 1.478 . S
C2075 H2069 0.930 . S
C2075 C2071 1.400 . S
C2075 C2074 1.385 . S
C2076 C2074 1.478 . S
C2076 C2078 1.381 . S
C2076 C2082 1.383 . S
C2077 C2073 1.495 . S
C2077 H2083 0.959 . S
C2077 H2084 0.961 . S
C2077 H2085 0.960 . S
C2078 C2076 1.381 . S
C2078 C2079 1.394 . S
C2078 H2086 0.930 . S
C2079 C2078 1.394 . S
C2079 C2080 1.383 . S
C2079 H2087 0.929 . S
C2080 C2079 1.383 . S
C2080 C2081 1.377 . S
C2081 H2065 0.930 . S
C2081 C2080 1.377 . S
C2081 C2082 1.379 . S
C2082 H2066 0.931 . S
C2082 C2076 1.383 . S
C2082 C2081 1.379 . S
H2083 C2077 0.959 . S
H2084 C2077 0.961 . S
H2085 C2077 0.960 . S
H2086 C2078 0.930 . S
H2087 C2079 0.929 . S
H2088 C2096 0.929 . S
H2089 C2098 0.930 . S
H2090 C2100 0.930 1_455 S
H2091 C2103 0.929 . S
H2092 C2106 0.930 . S
H2093 C2108 0.960 . S
H2094 C2108 0.960 . S
H2095 C2108 0.960 . S
C2096 H2088 0.929 . S
C2096 C2097 1.377 . S
C2096 C2098 1.384 . S
C2097 C2096 1.377 . S
C2097 C2103 1.390 . S
C2098 H2089 0.930 . S
C2098 C2096 1.384 . S
C2098 C2099 1.372 . S
C2099 C2098 1.372 . S
C2099 C2100 1.400 . S
C2099 C2104 1.490 . S
C2100 H2090 0.930 1_655 S
C2100 C2099 1.400 . S
C2100 C2103 1.386 . S
H2101 C2117 0.930 . S
H2102 C2118 0.931 . S
C2103 H2091 0.929 . S
C2103 C2097 1.390 . S
C2103 C2100 1.386 . S
C2104 C2099 1.490 . S
C2104 C2106 1.395 . S
C2104 C2107 1.403 1_655 S
H2105 C2111 0.930 . S
C2106 H2092 0.930 . S
C2106 C2104 1.395 . S
C2106 C2109 1.403 . S
C2107 C2104 1.403 1_455 S
C2107 C2108 1.524 . S
C2107 C2111 1.400 . S
C2108 H2093 0.960 . S
C2108 H2094 0.960 . S
C2108 H2095 0.960 . S
C2108 C2107 1.524 . S
C2109 C2106 1.403 . S
C2109 C2110 1.392 1_655 S
C2109 C2113 1.495 . S
C2110 C2109 1.392 1_455 S
C2110 C2111 1.385 . S
C2110 C2112 1.478 . S
C2111 H2105 0.930 . S
C2111 C2107 1.400 . S
C2111 C2110 1.385 . S
C2112 C2110 1.478 . S
C2112 C2114 1.381 . S
C2112 C2118 1.383 . S
C2113 C2109 1.495 . S
C2113 H2119 0.959 . S
C2113 H2120 0.961 . S
C2113 H2121 0.960 . S
C2114 C2112 1.381 . S
C2114 C2115 1.394 . S
C2114 H2122 0.930 1_455 S
C2115 C2114 1.394 . S
C2115 C2116 1.383 . S
C2115 H2123 0.929 . S
C2116 C2115 1.383 . S
C2116 C2117 1.377 . S
C2117 H2101 0.930 . S
C2117 C2116 1.377 . S
C2117 C2118 1.379 . S
C2118 H2102 0.931 . S
C2118 C2112 1.383 . S
C2118 C2117 1.379 . S
H2119 C2113 0.959 . S
H2120 C2113 0.961 . S
H2121 C2113 0.960 . S
H2122 C2114 0.930 1_655 S
H2123 C2115 0.929 . S
H2124 C2132 0.929 . S
H2125 C2134 0.930 . S
H2126 C2136 0.930 . S
H2127 C2139 0.929 . S
H2128 C2142 0.930 . S
H2129 C2144 0.960 . S
H2130 C2144 0.960 . S
H2131 C2144 0.960 . S
C2132 H2124 0.929 . S
C2132 C2133 1.377 . S
C2132 C2134 1.384 . S
C2133 C2132 1.377 . S
C2133 C2139 1.390 . S
C2134 H2125 0.930 . S
C2134 C2132 1.384 . S
C2134 C2135 1.372 . S
C2135 C2134 1.372 . S
C2135 C2136 1.400 . S
C2135 C2140 1.490 . S
C2136 H2126 0.930 . S
C2136 C2135 1.400 . S
C2136 C2139 1.386 . S
H2137 C2153 0.930 . S
H2138 C2154 0.931 . S
C2139 H2127 0.929 . S
C2139 C2133 1.390 . S
C2139 C2136 1.386 . S
C2140 C2135 1.490 . S
C2140 C2142 1.395 . S
C2140 C2143 1.403 . S
H2141 C2147 0.930 . S
C2142 H2128 0.930 . S
C2142 C2140 1.395 . S
C2142 C2145 1.403 . S
C2143 C2140 1.403 . S
C2143 C2144 1.524 . S
C2143 C2147 1.400 . S
C2144 H2129 0.960 . S
C2144 H2130 0.960 . S
C2144 H2131 0.960 . S
C2144 C2143 1.524 . S
C2145 C2142 1.403 . S
C2145 C2146 1.392 . S
C2145 C2149 1.495 . S
C2146 C2145 1.392 . S
C2146 C2147 1.385 . S
C2146 C2148 1.478 . S
C2147 H2141 0.930 . S
C2147 C2143 1.400 . S
C2147 C2146 1.385 . S
C2148 C2146 1.478 . S
C2148 C2150 1.381 . S
C2148 C2154 1.383 . S
C2149 C2145 1.495 . S
C2149 H2155 0.959 . S
C2149 H2156 0.961 . S
C2149 H2157 0.960 . S
C2150 C2148 1.381 . S
C2150 C2151 1.394 . S
C2150 H2158 0.930 . S
C2151 C2150 1.394 . S
C2151 C2152 1.383 . S
C2151 H2159 0.929 . S
C2152 C2151 1.383 . S
C2152 C2153 1.377 . S
C2153 H2137 0.930 . S
C2153 C2152 1.377 . S
C2153 C2154 1.379 . S
C2154 H2138 0.931 . S
C2154 C2148 1.383 . S
C2154 C2153 1.379 . S
H2155 C2149 0.959 . S
H2156 C2149 0.961 . S
H2157 C2149 0.960 . S
H2158 C2150 0.930 . S
H2159 C2151 0.929 . S
H2160 C2168 0.929 . S
H2161 C2170 0.930 . S
H2162 C2172 0.930 . S
H2163 C2175 0.929 . S
H2164 C2178 0.930 . S
H2165 C2180 0.960 . S
H2166 C2180 0.960 . S
H2167 C2180 0.960 . S
C2168 H2160 0.929 . S
C2168 C2169 1.377 . S
C2168 C2170 1.384 . S
C2169 C2168 1.377 . S
C2169 C2175 1.390 . S
C2170 H2161 0.930 . S
C2170 C2168 1.384 . S
C2170 C2171 1.372 . S
C2171 C2170 1.372 . S
C2171 C2172 1.400 . S
C2171 C2176 1.490 . S
C2172 H2162 0.930 . S
C2172 C2171 1.400 . S
C2172 C2175 1.386 . S
H2173 C2189 0.930 . S
H2174 C2190 0.931 . S
C2175 H2163 0.929 . S
C2175 C2169 1.390 . S
C2175 C2172 1.386 . S
C2176 C2171 1.490 . S
C2176 C2178 1.395 . S
C2176 C2179 1.403 . S
H2177 C2183 0.930 . S
C2178 H2164 0.930 . S
C2178 C2176 1.395 . S
C2178 C2181 1.403 . S
C2179 C2176 1.403 . S
C2179 C2180 1.524 . S
C2179 C2183 1.400 . S
C2180 H2165 0.960 . S
C2180 H2166 0.960 . S
C2180 H2167 0.960 . S
C2180 C2179 1.524 . S
C2181 C2178 1.403 . S
C2181 C2182 1.392 . S
C2181 C2185 1.495 . S
C2182 C2181 1.392 . S
C2182 C2183 1.385 . S
C2182 C2184 1.478 . S
C2183 H2177 0.930 . S
C2183 C2179 1.400 . S
C2183 C2182 1.385 . S
C2184 C2182 1.478 . S
C2184 C2186 1.381 . S
C2184 C2190 1.383 . S
C2185 C2181 1.495 . S
C2185 H2191 0.959 . S
C2185 H2192 0.961 . S
C2185 H2193 0.960 . S
C2186 C2184 1.381 . S
C2186 C2187 1.394 . S
C2186 H2194 0.930 . S
C2187 C2186 1.394 . S
C2187 C2188 1.383 . S
C2187 H2195 0.929 . S
C2188 C2187 1.383 . S
C2188 C2189 1.377 . S
C2189 H2173 0.930 . S
C2189 C2188 1.377 . S
C2189 C2190 1.379 . S
C2190 H2174 0.931 . S
C2190 C2184 1.383 . S
C2190 C2189 1.379 . S
H2191 C2185 0.959 . S
H2192 C2185 0.961 . S
H2193 C2185 0.960 . S
H2194 C2186 0.930 . S
H2195 C2187 0.929 . S
H2196 C2204 0.929 . S
H2197 C2206 0.930 . S
H2198 C2208 0.930 . S
H2199 C2211 0.929 . S
H2200 C2214 0.930 . S
H2201 C2216 0.960 . S
H2202 C2216 0.960 . S
H2203 C2216 0.960 . S
C2204 H2196 0.929 . S
C2204 C2205 1.377 . S
C2204 C2206 1.384 . S
C2205 C2204 1.377 . S
C2205 C2211 1.390 . S
C2206 H2197 0.930 . S
C2206 C2204 1.384 . S
C2206 C2207 1.372 . S
C2207 C2206 1.372 . S
C2207 C2208 1.400 . S
C2207 C2212 1.490 . S
C2208 H2198 0.930 . S
C2208 C2207 1.400 . S
C2208 C2211 1.386 . S
H2209 C2225 0.930 . S
H2210 C2226 0.931 . S
C2211 H2199 0.929 . S
C2211 C2205 1.390 . S
C2211 C2208 1.386 . S
C2212 C2207 1.490 . S
C2212 C2214 1.395 . S
C2212 C2215 1.403 . S
H2213 C2219 0.930 . S
C2214 H2200 0.930 . S
C2214 C2212 1.395 . S
C2214 C2217 1.403 . S
C2215 C2212 1.403 . S
C2215 C2216 1.524 . S
C2215 C2219 1.400 . S
C2216 H2201 0.960 . S
C2216 H2202 0.960 . S
C2216 H2203 0.960 . S
C2216 C2215 1.524 . S
C2217 C2214 1.403 . S
C2217 C2218 1.392 . S
C2217 C2221 1.495 . S
C2218 C2217 1.392 . S
C2218 C2219 1.385 . S
C2218 C2220 1.478 . S
C2219 H2213 0.930 . S
C2219 C2215 1.400 . S
C2219 C2218 1.385 . S
C2220 C2218 1.478 . S
C2220 C2222 1.381 . S
C2220 C2226 1.383 . S
C2221 C2217 1.495 . S
C2221 H2227 0.959 . S
C2221 H2228 0.961 . S
C2221 H2229 0.960 . S
C2222 C2220 1.381 . S
C2222 C2223 1.394 . S
C2222 H2230 0.930 . S
C2223 C2222 1.394 . S
C2223 C2224 1.383 . S
C2223 H2231 0.929 . S
C2224 C2223 1.383 . S
C2224 C2225 1.377 . S
C2225 H2209 0.930 . S
C2225 C2224 1.377 . S
C2225 C2226 1.379 . S
C2226 H2210 0.931 . S
C2226 C2220 1.383 . S
C2226 C2225 1.379 . S
H2227 C2221 0.959 . S
H2228 C2221 0.961 . S
H2229 C2221 0.960 . S
H2230 C2222 0.930 . S
H2231 C2223 0.929 . S
H2232 C2240 0.939 . S
H2233 C2242 0.914 1_556 S
H2234 C2244 0.930 . S
H2235 C2247 0.929 . S
H2236 C2250 0.930 . S
H2237 C2252 0.960 . S
H2238 C2252 0.960 . S
H2239 C2252 0.960 . S
C2240 H2232 0.939 . S
C2240 C2241 1.368 1_556 S
C2240 C2242 1.383 1_556 S
C2241 C2240 1.368 1_554 S
C2241 C2247 1.390 . S
C2242 H2233 0.914 1_554 S
C2242 C2240 1.383 1_554 S
C2242 C2243 1.389 . S
C2243 C2242 1.389 . S
C2243 C2244 1.400 . S
C2243 C2248 1.490 . S
C2244 H2234 0.930 . S
C2244 C2243 1.400 . S
C2244 C2247 1.386 . S
H2245 C2261 0.930 . S
H2246 C2262 0.931 . S
C2247 H2235 0.929 . S
C2247 C2241 1.390 . S
C2247 C2244 1.386 . S
C2248 C2243 1.490 . S
C2248 C2250 1.395 . S
C2248 C2251 1.403 . S
H2249 C2255 0.955 . S
C2250 H2236 0.930 . S
C2250 C2248 1.395 . S
C2250 C2253 1.403 . S
C2251 C2248 1.403 . S
C2251 C2252 1.524 1_565 S
C2251 C2255 1.388 1_565 S
C2252 H2237 0.960 . S
C2252 H2238 0.960 . S
C2252 H2239 0.960 . S
C2252 C2251 1.524 1_545 S
C2253 C2250 1.403 . S
C2253 C2254 1.392 . S
C2253 C2257 1.500 . S
C2254 C2253 1.392 . S
C2254 C2255 1.374 1_565 S
C2254 C2256 1.478 . S
C2255 H2249 0.955 . S
C2255 C2251 1.388 1_545 S
C2255 C2254 1.374 1_545 S
C2256 C2254 1.478 . S
C2256 C2258 1.381 . S
C2256 C2262 1.383 . S
C2257 C2253 1.500 . S
C2257 H2263 0.954 1_554 S
C2257 H2264 0.975 . S
C2257 H2265 0.946 1_554 S
C2258 C2256 1.381 . S
C2258 C2259 1.394 1_565 S
C2258 H2266 0.930 1_554 S
C2259 C2258 1.394 1_545 S
C2259 C2260 1.383 . S
C2259 H2267 0.929 1_554 S
C2260 C2259 1.383 . S
C2260 C2261 1.377 . S
C2261 H2245 0.930 . S
C2261 C2260 1.377 . S
C2261 C2262 1.379 1_545 S
C2262 H2246 0.931 . S
C2262 C2256 1.383 . S
C2262 C2261 1.379 1_565 S
H2263 C2257 0.954 1_556 S
H2264 C2257 0.975 . S
H2265 C2257 0.946 1_556 S
H2266 C2258 0.930 1_556 S
H2267 C2259 0.929 1_556 S
H2268 C2276 0.929 . S
H2269 C2278 0.930 . S
H2270 C2280 0.930 . S
H2271 C2283 0.929 . S
H2272 C2286 0.930 . S
H2273 C2288 0.960 . S
H2274 C2288 0.960 1_554 S
H2275 C2288 0.960 . S
C2276 H2268 0.929 . S
C2276 C2277 1.377 1_554 S
C2276 C2278 1.384 . S
C2277 C2276 1.377 1_556 S
C2277 C2283 1.390 . S
C2278 H2269 0.930 . S
C2278 C2276 1.384 . S
C2278 C2279 1.367 1_554 S
C2279 C2278 1.367 1_556 S
C2279 C2280 1.406 . S
C2279 C2284 1.477 1_556 S
C2280 H2270 0.930 . S
C2280 C2279 1.406 . S
C2280 C2283 1.386 . S
H2281 C2297 0.930 . S
H2282 C2298 0.931 . S
C2283 H2271 0.929 . S
C2283 C2277 1.390 . S
C2283 C2280 1.386 . S
C2284 C2279 1.477 1_554 S
C2284 C2286 1.403 . S
C2284 C2287 1.410 1_554 S
H2285 C2291 0.929 . S
C2286 H2272 0.930 . S
C2286 C2284 1.403 . S
C2286 C2289 1.403 . S
C2287 C2284 1.410 1_556 S
C2287 C2288 1.524 . S
C2287 C2291 1.403 . S
C2288 H2273 0.960 . S
C2288 H2274 0.960 1_556 S
C2288 H2275 0.960 . S
C2288 C2287 1.524 . S
C2289 C2286 1.403 . S
C2289 C2290 1.392 . S
C2289 C2293 1.495 . S
C2290 C2289 1.392 . S
C2290 C2291 1.384 1_554 S
C2290 C2292 1.478 . S
C2291 H2285 0.929 . S
C2291 C2287 1.403 . S
C2291 C2290 1.384 1_556 S
C2292 C2290 1.478 . S
C2292 C2294 1.381 . S
C2292 C2298 1.383 1_554 S
C2293 C2289 1.495 . S
C2293 H2299 0.959 . S
C2293 H2300 0.961 1_554 S
C2293 H2301 0.960 . S
C2294 C2292 1.381 . S
C2294 C2295 1.394 . S
C2294 H2302 0.930 . S
C2295 C2294 1.394 . S
C2295 C2296 1.383 . S
C2295 H2303 0.929 . S
C2296 C2295 1.383 . S
C2296 C2297 1.377 1_554 S
C2297 H2281 0.930 . S
C2297 C2296 1.377 1_556 S
C2297 C2298 1.379 . S
C2298 H2282 0.931 . S
C2298 C2292 1.383 1_556 S
C2298 C2297 1.379 . S
H2299 C2293 0.959 . S
H2300 C2293 0.961 1_556 S
H2301 C2293 0.960 . S
H2302 C2294 0.930 . S
H2303 C2295 0.929 . S
H2304 C2312 0.929 . S
H2305 C2314 0.930 . S
H2306 C2316 0.930 . S
H2307 C2319 0.929 . S
H2308 C2322 0.930 . S
H2309 C2324 0.960 . S
H2310 C2324 0.960 . S
H2311 C2324 0.960 . S
C2312 H2304 0.929 . S
C2312 C2313 1.377 . S
C2312 C2314 1.384 . S
C2313 C2312 1.377 . S
C2313 C2319 1.390 . S
C2314 H2305 0.930 . S
C2314 C2312 1.384 . S
C2314 C2315 1.372 . S
C2315 C2314 1.372 . S
C2315 C2316 1.400 . S
C2315 C2320 1.490 . S
C2316 H2306 0.930 . S
C2316 C2315 1.400 . S
C2316 C2319 1.386 . S
H2317 C2333 0.930 . S
H2318 C2334 0.931 . S
C2319 H2307 0.929 . S
C2319 C2313 1.390 . S
C2319 C2316 1.386 . S
C2320 C2315 1.490 . S
C2320 C2322 1.395 . S
C2320 C2323 1.403 . S
H2321 C2327 0.930 . S
C2322 H2308 0.930 . S
C2322 C2320 1.395 . S
C2322 C2325 1.403 . S
C2323 C2320 1.403 . S
C2323 C2324 1.524 . S
C2323 C2327 1.400 . S
C2324 H2309 0.960 . S
C2324 H2310 0.960 . S
C2324 H2311 0.960 . S
C2324 C2323 1.524 . S
C2325 C2322 1.403 . S
C2325 C2326 1.392 . S
C2325 C2329 1.495 . S
C2326 C2325 1.392 . S
C2326 C2327 1.385 . S
C2326 C2328 1.478 . S
C2327 H2321 0.930 . S
C2327 C2323 1.400 . S
C2327 C2326 1.385 . S
C2328 C2326 1.478 . S
C2328 C2330 1.381 . S
C2328 C2334 1.383 . S
C2329 C2325 1.495 . S
C2329 H2335 0.959 . S
C2329 H2336 0.961 . S
C2329 H2337 0.960 . S
C2330 C2328 1.381 . S
C2330 C2331 1.394 . S
C2330 H2338 0.930 . S
C2331 C2330 1.394 . S
C2331 C2332 1.383 . S
C2331 H2339 0.929 . S
C2332 C2331 1.383 . S
C2332 C2333 1.377 . S
C2333 H2317 0.930 . S
C2333 C2332 1.377 . S
C2333 C2334 1.379 . S
C2334 H2318 0.931 . S
C2334 C2328 1.383 . S
C2334 C2333 1.379 . S
H2335 C2329 0.959 . S
H2336 C2329 0.961 . S
H2337 C2329 0.960 . S
H2338 C2330 0.930 . S
H2339 C2331 0.929 . S
H2340 C2348 0.929 . S
H2341 C2350 0.930 . S
H2342 C2352 0.930 . S
H2343 C2355 0.929 . S
H2344 C2358 0.930 . S
H2345 C2360 0.960 . S
H2346 C2360 0.960 . S
H2347 C2360 0.960 . S
C2348 H2340 0.929 . S
C2348 C2349 1.377 . S
C2348 C2350 1.384 . S
C2349 C2348 1.377 . S
C2349 C2355 1.390 . S
C2350 H2341 0.930 . S
C2350 C2348 1.384 . S
C2350 C2351 1.372 . S
C2351 C2350 1.372 . S
C2351 C2352 1.400 . S
C2351 C2356 1.490 . S
C2352 H2342 0.930 . S
C2352 C2351 1.400 . S
C2352 C2355 1.386 . S
H2353 C2369 0.930 . S
H2354 C2370 0.931 . S
C2355 H2343 0.929 . S
C2355 C2349 1.390 . S
C2355 C2352 1.386 . S
C2356 C2351 1.490 . S
C2356 C2358 1.395 . S
C2356 C2359 1.403 . S
H2357 C2363 0.930 . S
C2358 H2344 0.930 . S
C2358 C2356 1.395 . S
C2358 C2361 1.403 . S
C2359 C2356 1.403 . S
C2359 C2360 1.524 . S
C2359 C2363 1.400 . S
C2360 H2345 0.960 . S
C2360 H2346 0.960 . S
C2360 H2347 0.960 . S
C2360 C2359 1.524 . S
C2361 C2358 1.403 . S
C2361 C2362 1.392 . S
C2361 C2365 1.495 . S
C2362 C2361 1.392 . S
C2362 C2363 1.385 . S
C2362 C2364 1.478 . S
C2363 H2357 0.930 . S
C2363 C2359 1.400 . S
C2363 C2362 1.385 . S
C2364 C2362 1.478 . S
C2364 C2366 1.381 . S
C2364 C2370 1.383 . S
C2365 C2361 1.495 . S
C2365 H2371 0.959 . S
C2365 H2372 0.961 . S
C2365 H2373 0.960 . S
C2366 C2364 1.381 . S
C2366 C2367 1.394 1_655 S
C2366 H2374 0.930 . S
C2367 C2366 1.394 1_455 S
C2367 C2368 1.383 . S
C2367 H2375 0.929 . S
C2368 C2367 1.383 . S
C2368 C2369 1.377 . S
C2369 H2353 0.930 . S
C2369 C2368 1.377 . S
C2369 C2370 1.379 1_455 S
C2370 H2354 0.931 . S
C2370 C2364 1.383 . S
C2370 C2369 1.379 1_655 S
H2371 C2365 0.959 . S
H2372 C2365 0.961 . S
H2373 C2365 0.960 . S
H2374 C2366 0.930 . S
H2375 C2367 0.929 . S
H2376 C2384 0.929 . S
H2377 C2386 0.930 . S
H2378 C2388 0.930 . S
H2379 C2391 0.929 . S
H2380 C2394 0.930 . S
H2381 C2396 0.960 . S
H2382 C2396 0.960 . S
H2383 C2396 0.960 . S
C2384 H2376 0.929 . S
C2384 C2385 1.377 . S
C2384 C2386 1.384 . S
C2385 C2384 1.377 . S
C2385 C2391 1.390 . S
C2386 H2377 0.930 . S
C2386 C2384 1.384 . S
C2386 C2387 1.372 . S
C2387 C2386 1.372 . S
C2387 C2388 1.400 . S
C2387 C2392 1.490 . S
C2388 H2378 0.930 . S
C2388 C2387 1.400 . S
C2388 C2391 1.386 . S
H2389 C2405 0.930 . S
H2390 C2406 0.931 . S
C2391 H2379 0.929 . S
C2391 C2385 1.390 . S
C2391 C2388 1.386 . S
C2392 C2387 1.490 . S
C2392 C2394 1.395 . S
C2392 C2395 1.403 . S
H2393 C2399 0.930 . S
C2394 H2380 0.930 . S
C2394 C2392 1.395 . S
C2394 C2397 1.403 . S
C2395 C2392 1.403 . S
C2395 C2396 1.524 . S
C2395 C2399 1.400 . S
C2396 H2381 0.960 . S
C2396 H2382 0.960 . S
C2396 H2383 0.960 . S
C2396 C2395 1.524 . S
C2397 C2394 1.403 . S
C2397 C2398 1.392 . S
C2397 C2401 1.495 . S
C2398 C2397 1.392 . S
C2398 C2399 1.385 . S
C2398 C2400 1.478 . S
C2399 H2393 0.930 . S
C2399 C2395 1.400 . S
C2399 C2398 1.385 . S
C2400 C2398 1.478 . S
C2400 C2402 1.381 . S
C2400 C2406 1.383 . S
C2401 C2397 1.495 . S
C2401 H2407 0.959 . S
C2401 H2408 0.961 . S
C2401 H2409 0.960 . S
C2402 C2400 1.381 . S
C2402 C2403 1.394 . S
C2402 H2410 0.930 . S
C2403 C2402 1.394 . S
C2403 C2404 1.383 . S
C2403 H2411 0.929 . S
C2404 C2403 1.383 . S
C2404 C2405 1.377 . S
C2405 H2389 0.930 . S
C2405 C2404 1.377 . S
C2405 C2406 1.379 . S
C2406 H2390 0.931 . S
C2406 C2400 1.383 . S
C2406 C2405 1.379 . S
H2407 C2401 0.959 . S
H2408 C2401 0.961 . S
H2409 C2401 0.960 . S
H2410 C2402 0.930 . S
H2411 C2403 0.929 . S
H2412 C2420 0.929 . S
H2413 C2422 0.930 . S
H2414 C2424 0.930 . S
H2415 C2427 0.929 . S
H2416 C2430 0.930 . S
H2417 C2432 0.960 . S
H2418 C2432 0.960 . S
H2419 C2432 0.960 . S
C2420 H2412 0.929 . S
C2420 C2421 1.377 . S
C2420 C2422 1.384 . S
C2421 C2420 1.377 . S
C2421 C2427 1.390 . S
C2422 H2413 0.930 . S
C2422 C2420 1.384 . S
C2422 C2423 1.372 . S
C2423 C2422 1.372 . S
C2423 C2424 1.400 . S
C2423 C2428 1.490 . S
C2424 H2414 0.930 . S
C2424 C2423 1.400 . S
C2424 C2427 1.386 . S
H2425 C2441 0.930 . S
H2426 C2442 0.931 . S
C2427 H2415 0.929 . S
C2427 C2421 1.390 . S
C2427 C2424 1.386 . S
C2428 C2423 1.490 . S
C2428 C2430 1.395 . S
C2428 C2431 1.403 . S
H2429 C2435 0.930 . S
C2430 H2416 0.930 . S
C2430 C2428 1.395 . S
C2430 C2433 1.403 . S
C2431 C2428 1.403 . S
C2431 C2432 1.524 . S
C2431 C2435 1.400 . S
C2432 H2417 0.960 . S
C2432 H2418 0.960 . S
C2432 H2419 0.960 . S
C2432 C2431 1.524 . S
C2433 C2430 1.403 . S
C2433 C2434 1.392 . S
C2433 C2437 1.495 . S
C2434 C2433 1.392 . S
C2434 C2435 1.385 . S
C2434 C2436 1.478 . S
C2435 H2429 0.930 . S
C2435 C2431 1.400 . S
C2435 C2434 1.385 . S
C2436 C2434 1.478 . S
C2436 C2438 1.381 . S
C2436 C2442 1.383 . S
C2437 C2433 1.495 . S
C2437 H2443 0.959 . S
C2437 H2444 0.961 . S
C2437 H2445 0.960 . S
C2438 C2436 1.381 . S
C2438 C2439 1.394 . S
C2438 H2446 0.930 . S
C2439 C2438 1.394 . S
C2439 C2440 1.383 . S
C2439 H2447 0.929 . S
C2440 C2439 1.383 . S
C2440 C2441 1.377 . S
C2441 H2425 0.930 . S
C2441 C2440 1.377 . S
C2441 C2442 1.379 . S
C2442 H2426 0.931 . S
C2442 C2436 1.383 . S
C2442 C2441 1.379 . S
H2443 C2437 0.959 . S
H2444 C2437 0.961 . S
H2445 C2437 0.960 . S
H2446 C2438 0.930 . S
H2447 C2439 0.929 . S
H2448 C2456 0.929 . S
H2449 C2458 0.930 . S
H2450 C2460 0.930 . S
H2451 C2463 0.929 . S
H2452 C2466 0.930 . S
H2453 C2468 0.960 . S
H2454 C2468 0.960 . S
H2455 C2468 0.960 . S
C2456 H2448 0.929 . S
C2456 C2457 1.377 . S
C2456 C2458 1.384 . S
C2457 C2456 1.377 . S
C2457 C2463 1.390 . S
C2458 H2449 0.930 . S
C2458 C2456 1.384 . S
C2458 C2459 1.372 . S
C2459 C2458 1.372 . S
C2459 C2460 1.400 . S
C2459 C2464 1.490 . S
C2460 H2450 0.930 . S
C2460 C2459 1.400 . S
C2460 C2463 1.386 . S
H2461 C2477 0.930 . S
H2462 C2478 0.931 . S
C2463 H2451 0.929 . S
C2463 C2457 1.390 . S
C2463 C2460 1.386 . S
C2464 C2459 1.490 . S
C2464 C2466 1.395 . S
C2464 C2467 1.403 . S
H2465 C2471 0.930 . S
C2466 H2452 0.930 . S
C2466 C2464 1.395 . S
C2466 C2469 1.403 . S
C2467 C2464 1.403 . S
C2467 C2468 1.524 . S
C2467 C2471 1.400 . S
C2468 H2453 0.960 . S
C2468 H2454 0.960 . S
C2468 H2455 0.960 . S
C2468 C2467 1.524 . S
C2469 C2466 1.403 . S
C2469 C2470 1.392 . S
C2469 C2473 1.495 . S
C2470 C2469 1.392 . S
C2470 C2471 1.385 . S
C2470 C2472 1.478 . S
C2471 H2465 0.930 . S
C2471 C2467 1.400 . S
C2471 C2470 1.385 . S
C2472 C2470 1.478 . S
C2472 C2474 1.381 . S
C2472 C2478 1.383 . S
C2473 C2469 1.495 . S
C2473 H2479 0.959 . S
C2473 H2480 0.961 . S
C2473 H2481 0.960 . S
C2474 C2472 1.381 . S
C2474 C2475 1.394 . S
C2474 H2482 0.930 . S
C2475 C2474 1.394 . S
C2475 C2476 1.383 . S
C2475 H2483 0.929 . S
C2476 C2475 1.383 . S
C2476 C2477 1.377 . S
C2477 H2461 0.930 . S
C2477 C2476 1.377 . S
C2477 C2478 1.379 . S
C2478 H2462 0.931 . S
C2478 C2472 1.383 . S
C2478 C2477 1.379 . S
H2479 C2473 0.959 . S
H2480 C2473 0.961 . S
H2481 C2473 0.960 . S
H2482 C2474 0.930 . S
H2483 C2475 0.929 . S
H2484 C2492 0.929 . S
H2485 C2494 0.930 . S
H2486 C2496 0.930 . S
H2487 C2499 0.929 . S
H2488 C2502 0.930 . S
H2489 C2504 0.960 . S
H2490 C2504 0.960 . S
H2491 C2504 0.960 . S
C2492 H2484 0.929 . S
C2492 C2493 1.377 . S
C2492 C2494 1.384 . S
C2493 C2492 1.377 . S
C2493 C2499 1.390 . S
C2494 H2485 0.930 . S
C2494 C2492 1.384 . S
C2494 C2495 1.372 . S
C2495 C2494 1.372 . S
C2495 C2496 1.400 . S
C2495 C2500 1.490 . S
C2496 H2486 0.930 . S
C2496 C2495 1.400 . S
C2496 C2499 1.386 . S
H2497 C2513 0.930 . S
H2498 C2514 0.931 . S
C2499 H2487 0.929 . S
C2499 C2493 1.390 . S
C2499 C2496 1.386 . S
C2500 C2495 1.490 . S
C2500 C2502 1.395 . S
C2500 C2503 1.403 . S
H2501 C2507 0.930 . S
C2502 H2488 0.930 . S
C2502 C2500 1.395 . S
C2502 C2505 1.403 . S
C2503 C2500 1.403 . S
C2503 C2504 1.524 . S
C2503 C2507 1.400 . S
C2504 H2489 0.960 . S
C2504 H2490 0.960 . S
C2504 H2491 0.960 . S
C2504 C2503 1.524 . S
C2505 C2502 1.403 . S
C2505 C2506 1.392 . S
C2505 C2509 1.495 . S
C2506 C2505 1.392 . S
C2506 C2507 1.385 . S
C2506 C2508 1.478 . S
C2507 H2501 0.930 . S
C2507 C2503 1.400 . S
C2507 C2506 1.385 . S
C2508 C2506 1.478 . S
C2508 C2510 1.381 . S
C2508 C2514 1.383 . S
C2509 C2505 1.495 . S
C2509 H2515 0.959 . S
C2509 H2516 0.961 . S
C2509 H2517 0.960 . S
C2510 C2508 1.381 . S
C2510 C2511 1.394 . S
C2510 H2518 0.930 . S
C2511 C2510 1.394 . S
C2511 C2512 1.383 . S
C2511 H2519 0.929 . S
C2512 C2511 1.383 . S
C2512 C2513 1.377 . S
C2513 H2497 0.930 . S
C2513 C2512 1.377 . S
C2513 C2514 1.379 . S
C2514 H2498 0.931 . S
C2514 C2508 1.383 . S
C2514 C2513 1.379 . S
H2515 C2509 0.959 . S
H2516 C2509 0.961 . S
H2517 C2509 0.960 . S
H2518 C2510 0.930 . S
H2519 C2511 0.929 . S
H2520 C2528 0.929 . S
H2521 C2530 0.930 . S
H2522 C2532 0.930 . S
H2523 C2535 0.929 . S
H2524 C2538 0.930 . S
H2525 C2540 0.960 . S
H2526 C2540 0.960 . S
H2527 C2540 0.960 . S
C2528 H2520 0.929 . S
C2528 C2529 1.377 . S
C2528 C2530 1.384 . S
C2529 C2528 1.377 . S
C2529 C2535 1.390 . S
C2530 H2521 0.930 . S
C2530 C2528 1.384 . S
C2530 C2531 1.372 . S
C2531 C2530 1.372 . S
C2531 C2532 1.400 . S
C2531 C2536 1.490 . S
C2532 H2522 0.930 . S
C2532 C2531 1.400 . S
C2532 C2535 1.386 . S
H2533 C2549 0.930 . S
H2534 C2550 0.931 . S
C2535 H2523 0.929 . S
C2535 C2529 1.390 . S
C2535 C2532 1.386 . S
C2536 C2531 1.490 . S
C2536 C2538 1.395 . S
C2536 C2539 1.403 . S
H2537 C2543 0.930 . S
C2538 H2524 0.930 . S
C2538 C2536 1.395 . S
C2538 C2541 1.403 . S
C2539 C2536 1.403 . S
C2539 C2540 1.524 . S
C2539 C2543 1.400 . S
C2540 H2525 0.960 . S
C2540 H2526 0.960 . S
C2540 H2527 0.960 . S
C2540 C2539 1.524 . S
C2541 C2538 1.403 . S
C2541 C2542 1.392 . S
C2541 C2545 1.495 . S
C2542 C2541 1.392 . S
C2542 C2543 1.385 . S
C2542 C2544 1.478 . S
C2543 H2537 0.930 . S
C2543 C2539 1.400 . S
C2543 C2542 1.385 . S
C2544 C2542 1.478 . S
C2544 C2546 1.381 . S
C2544 C2550 1.383 . S
C2545 C2541 1.495 . S
C2545 H2551 0.959 . S
C2545 H2552 0.961 . S
C2545 H2553 0.960 . S
C2546 C2544 1.381 . S
C2546 C2547 1.394 . S
C2546 H2554 0.930 . S
C2547 C2546 1.394 . S
C2547 C2548 1.383 . S
C2547 H2555 0.929 . S
C2548 C2547 1.383 . S
C2548 C2549 1.377 . S
C2549 H2533 0.930 . S
C2549 C2548 1.377 . S
C2549 C2550 1.379 . S
C2550 H2534 0.931 . S
C2550 C2544 1.383 . S
C2550 C2549 1.379 . S
H2551 C2545 0.959 . S
H2552 C2545 0.961 . S
H2553 C2545 0.960 . S
H2554 C2546 0.930 . S
H2555 C2547 0.929 . S
H2556 C2564 0.929 . S
H2557 C2566 0.930 . S
H2558 C2568 0.930 . S
H2559 C2571 0.929 . S
H2560 C2574 0.930 . S
H2561 C2576 0.960 . S
H2562 C2576 0.960 . S
H2563 C2576 0.960 . S
C2564 H2556 0.929 . S
C2564 C2565 1.377 . S
C2564 C2566 1.384 . S
C2565 C2564 1.377 . S
C2565 C2571 1.390 . S
C2566 H2557 0.930 . S
C2566 C2564 1.384 . S
C2566 C2567 1.372 . S
C2567 C2566 1.372 . S
C2567 C2568 1.400 . S
C2567 C2572 1.490 . S
C2568 H2558 0.930 . S
C2568 C2567 1.400 . S
C2568 C2571 1.386 . S
H2569 C2585 0.930 . S
H2570 C2586 0.931 . S
C2571 H2559 0.929 . S
C2571 C2565 1.390 . S
C2571 C2568 1.386 . S
C2572 C2567 1.490 . S
C2572 C2574 1.395 . S
C2572 C2575 1.403 . S
H2573 C2579 0.930 . S
C2574 H2560 0.930 . S
C2574 C2572 1.395 . S
C2574 C2577 1.403 . S
C2575 C2572 1.403 . S
C2575 C2576 1.524 . S
C2575 C2579 1.400 . S
C2576 H2561 0.960 . S
C2576 H2562 0.960 . S
C2576 H2563 0.960 . S
C2576 C2575 1.524 . S
C2577 C2574 1.403 . S
C2577 C2578 1.392 . S
C2577 C2581 1.495 . S
C2578 C2577 1.392 . S
C2578 C2579 1.385 . S
C2578 C2580 1.478 . S
C2579 H2573 0.930 . S
C2579 C2575 1.400 . S
C2579 C2578 1.385 . S
C2580 C2578 1.478 . S
C2580 C2582 1.381 . S
C2580 C2586 1.383 . S
C2581 C2577 1.495 . S
C2581 H2587 0.959 . S
C2581 H2588 0.961 . S
C2581 H2589 0.960 . S
C2582 C2580 1.381 . S
C2582 C2583 1.394 . S
C2582 H2590 0.930 . S
C2583 C2582 1.394 . S
C2583 C2584 1.383 . S
C2583 H2591 0.929 . S
C2584 C2583 1.383 . S
C2584 C2585 1.377 . S
C2585 H2569 0.930 . S
C2585 C2584 1.377 . S
C2585 C2586 1.379 . S
C2586 H2570 0.931 . S
C2586 C2580 1.383 . S
C2586 C2585 1.379 . S
H2587 C2581 0.959 . S
H2588 C2581 0.961 . S
H2589 C2581 0.960 . S
H2590 C2582 0.930 . S
H2591 C2583 0.929 . S
H2592 C2600 0.929 . S
H2593 C2602 0.930 . S
H2594 C2604 0.930 . S
H2595 C2607 0.929 . S
H2596 C2610 0.930 . S
H2597 C2612 0.960 . S
H2598 C2612 0.960 . S
H2599 C2612 0.960 . S
C2600 H2592 0.929 . S
C2600 C2601 1.377 . S
C2600 C2602 1.384 . S
C2601 C2600 1.377 . S
C2601 C2607 1.390 . S
C2602 H2593 0.930 . S
C2602 C2600 1.384 . S
C2602 C2603 1.372 . S
C2603 C2602 1.372 . S
C2603 C2604 1.400 . S
C2603 C2608 1.490 . S
C2604 H2594 0.930 . S
C2604 C2603 1.400 . S
C2604 C2607 1.386 . S
H2605 C2621 0.930 . S
H2606 C2622 0.931 . S
C2607 H2595 0.929 . S
C2607 C2601 1.390 . S
C2607 C2604 1.386 . S
C2608 C2603 1.490 . S
C2608 C2610 1.395 . S
C2608 C2611 1.403 . S
H2609 C2615 0.930 . S
C2610 H2596 0.930 . S
C2610 C2608 1.395 . S
C2610 C2613 1.403 . S
C2611 C2608 1.403 . S
C2611 C2612 1.524 . S
C2611 C2615 1.400 . S
C2612 H2597 0.960 . S
C2612 H2598 0.960 . S
C2612 H2599 0.960 . S
C2612 C2611 1.524 . S
C2613 C2610 1.403 . S
C2613 C2614 1.392 . S
C2613 C2617 1.495 . S
C2614 C2613 1.392 . S
C2614 C2615 1.385 . S
C2614 C2616 1.478 . S
C2615 H2609 0.930 . S
C2615 C2611 1.400 . S
C2615 C2614 1.385 . S
C2616 C2614 1.478 . S
C2616 C2618 1.381 . S
C2616 C2622 1.383 . S
C2617 C2613 1.495 . S
C2617 H2623 0.959 . S
C2617 H2624 0.961 . S
C2617 H2625 0.960 . S
C2618 C2616 1.381 . S
C2618 C2619 1.394 . S
C2618 H2626 0.930 . S
C2619 C2618 1.394 . S
C2619 C2620 1.383 . S
C2619 H2627 0.929 . S
C2620 C2619 1.383 . S
C2620 C2621 1.377 . S
C2621 H2605 0.930 . S
C2621 C2620 1.377 . S
C2621 C2622 1.379 . S
C2622 H2606 0.931 . S
C2622 C2616 1.383 . S
C2622 C2621 1.379 . S
H2623 C2617 0.959 . S
H2624 C2617 0.961 . S
H2625 C2617 0.960 . S
H2626 C2618 0.930 . S
H2627 C2619 0.929 . S
H2628 C2636 0.929 . S
H2629 C2638 0.930 . S
H2630 C2640 0.930 . S
H2631 C2643 0.929 . S
H2632 C2646 0.930 . S
H2633 C2648 0.960 . S
H2634 C2648 0.960 . S
H2635 C2648 0.960 . S
C2636 H2628 0.929 . S
C2636 C2637 1.377 . S
C2636 C2638 1.384 . S
C2637 C2636 1.377 . S
C2637 C2643 1.390 . S
C2638 H2629 0.930 . S
C2638 C2636 1.384 . S
C2638 C2639 1.372 . S
C2639 C2638 1.372 . S
C2639 C2640 1.400 . S
C2639 C2644 1.490 . S
C2640 H2630 0.930 . S
C2640 C2639 1.400 . S
C2640 C2643 1.386 . S
H2641 C2657 0.930 . S
H2642 C2658 0.931 . S
C2643 H2631 0.929 . S
C2643 C2637 1.390 . S
C2643 C2640 1.386 . S
C2644 C2639 1.490 . S
C2644 C2646 1.395 . S
C2644 C2647 1.403 . S
H2645 C2651 0.930 . S
C2646 H2632 0.930 . S
C2646 C2644 1.395 . S
C2646 C2649 1.403 . S
C2647 C2644 1.403 . S
C2647 C2648 1.524 . S
C2647 C2651 1.400 . S
C2648 H2633 0.960 . S
C2648 H2634 0.960 . S
C2648 H2635 0.960 . S
C2648 C2647 1.524 . S
C2649 C2646 1.403 . S
C2649 C2650 1.392 . S
C2649 C2653 1.495 . S
C2650 C2649 1.392 . S
C2650 C2651 1.385 . S
C2650 C2652 1.478 . S
C2651 H2645 0.930 . S
C2651 C2647 1.400 . S
C2651 C2650 1.385 . S
C2652 C2650 1.478 . S
C2652 C2654 1.381 . S
C2652 C2658 1.383 . S
C2653 C2649 1.495 . S
C2653 H2659 0.959 . S
C2653 H2660 0.961 . S
C2653 H2661 0.960 . S
C2654 C2652 1.381 . S
C2654 C2655 1.394 . S
C2654 H2662 0.930 . S
C2655 C2654 1.394 . S
C2655 C2656 1.383 . S
C2655 H2663 0.929 . S
C2656 C2655 1.383 . S
C2656 C2657 1.377 . S
C2657 H2641 0.930 . S
C2657 C2656 1.377 . S
C2657 C2658 1.379 . S
C2658 H2642 0.931 . S
C2658 C2652 1.383 . S
C2658 C2657 1.379 . S
H2659 C2653 0.959 . S
H2660 C2653 0.961 . S
H2661 C2653 0.960 . S
H2662 C2654 0.930 . S
H2663 C2655 0.929 . S
H2664 C2672 0.929 . S
H2665 C2674 0.930 . S
H2666 C2676 0.930 . S
H2667 C2679 0.929 . S
H2668 C2682 0.930 . S
H2669 C2684 0.960 . S
H2670 C2684 0.960 . S
H2671 C2684 0.960 . S
C2672 H2664 0.929 . S
C2672 C2673 1.377 . S
C2672 C2674 1.384 . S
C2673 C2672 1.377 . S
C2673 C2679 1.390 . S
C2674 H2665 0.930 . S
C2674 C2672 1.384 . S
C2674 C2675 1.372 . S
C2675 C2674 1.372 . S
C2675 C2676 1.400 . S
C2675 C2680 1.490 . S
C2676 H2666 0.930 . S
C2676 C2675 1.400 . S
C2676 C2679 1.386 . S
H2677 C2693 0.930 . S
H2678 C2694 0.931 . S
C2679 H2667 0.929 . S
C2679 C2673 1.390 . S
C2679 C2676 1.386 . S
C2680 C2675 1.490 . S
C2680 C2682 1.395 . S
C2680 C2683 1.403 . S
H2681 C2687 0.930 . S
C2682 H2668 0.930 . S
C2682 C2680 1.395 . S
C2682 C2685 1.403 . S
C2683 C2680 1.403 . S
C2683 C2684 1.524 . S
C2683 C2687 1.400 . S
C2684 H2669 0.960 . S
C2684 H2670 0.960 . S
C2684 H2671 0.960 . S
C2684 C2683 1.524 . S
C2685 C2682 1.403 . S
C2685 C2686 1.392 . S
C2685 C2689 1.495 . S
C2686 C2685 1.392 . S
C2686 C2687 1.385 . S
C2686 C2688 1.478 . S
C2687 H2681 0.930 . S
C2687 C2683 1.400 . S
C2687 C2686 1.385 . S
C2688 C2686 1.478 . S
C2688 C2690 1.381 . S
C2688 C2694 1.383 . S
C2689 C2685 1.495 . S
C2689 H2695 0.959 . S
C2689 H2696 0.961 . S
C2689 H2697 0.960 . S
C2690 C2688 1.381 . S
C2690 C2691 1.394 . S
C2690 H2698 0.930 . S
C2691 C2690 1.394 . S
C2691 C2692 1.383 . S
C2691 H2699 0.929 . S
C2692 C2691 1.383 . S
C2692 C2693 1.377 . S
C2693 H2677 0.930 . S
C2693 C2692 1.377 . S
C2693 C2694 1.379 . S
C2694 H2678 0.931 . S
C2694 C2688 1.383 . S
C2694 C2693 1.379 . S
H2695 C2689 0.959 . S
H2696 C2689 0.961 . S
H2697 C2689 0.960 . S
H2698 C2690 0.930 . S
H2699 C2691 0.929 . S
H2700 C2708 0.929 . S
H2701 C2710 0.930 . S
H2702 C2712 0.930 . S
H2703 C2715 0.929 . S
H2704 C2718 0.930 . S
H2705 C2720 0.960 . S
H2706 C2720 0.960 . S
H2707 C2720 0.960 . S
C2708 H2700 0.929 . S
C2708 C2709 1.377 . S
C2708 C2710 1.384 . S
C2709 C2708 1.377 . S
C2709 C2715 1.390 . S
C2710 H2701 0.930 . S
C2710 C2708 1.384 . S
C2710 C2711 1.372 . S
C2711 C2710 1.372 . S
C2711 C2712 1.400 . S
C2711 C2716 1.490 . S
C2712 H2702 0.930 . S
C2712 C2711 1.400 . S
C2712 C2715 1.386 . S
H2713 C2729 0.930 . S
H2714 C2730 0.931 . S
C2715 H2703 0.929 . S
C2715 C2709 1.390 . S
C2715 C2712 1.386 . S
C2716 C2711 1.490 . S
C2716 C2718 1.395 . S
C2716 C2719 1.403 . S
H2717 C2723 0.930 . S
C2718 H2704 0.930 . S
C2718 C2716 1.395 . S
C2718 C2721 1.403 . S
C2719 C2716 1.403 . S
C2719 C2720 1.524 . S
C2719 C2723 1.400 . S
C2720 H2705 0.960 . S
C2720 H2706 0.960 . S
C2720 H2707 0.960 . S
C2720 C2719 1.524 . S
C2721 C2718 1.403 . S
C2721 C2722 1.392 . S
C2721 C2725 1.495 . S
C2722 C2721 1.392 . S
C2722 C2723 1.385 . S
C2722 C2724 1.478 . S
C2723 H2717 0.930 . S
C2723 C2719 1.400 . S
C2723 C2722 1.385 . S
C2724 C2722 1.478 . S
C2724 C2726 1.381 . S
C2724 C2730 1.383 . S
C2725 C2721 1.495 . S
C2725 H2731 0.959 . S
C2725 H2732 0.961 . S
C2725 H2733 0.960 . S
C2726 C2724 1.381 . S
C2726 C2727 1.394 . S
C2726 H2734 0.930 . S
C2727 C2726 1.394 . S
C2727 C2728 1.383 . S
C2727 H2735 0.929 . S
C2728 C2727 1.383 . S
C2728 C2729 1.377 . S
C2729 H2713 0.930 . S
C2729 C2728 1.377 . S
C2729 C2730 1.379 . S
C2730 H2714 0.931 . S
C2730 C2724 1.383 . S
C2730 C2729 1.379 . S
H2731 C2725 0.959 . S
H2732 C2725 0.961 . S
H2733 C2725 0.960 . S
H2734 C2726 0.930 . S
H2735 C2727 0.929 . S
H2736 C2744 0.929 . S
H2737 C2746 0.930 . S
H2738 C2748 0.930 . S
H2739 C2751 0.929 . S
H2740 C2754 0.930 . S
H2741 C2756 0.960 . S
H2742 C2756 0.960 . S
H2743 C2756 0.960 . S
C2744 H2736 0.929 . S
C2744 C2745 1.377 . S
C2744 C2746 1.384 . S
C2745 C2744 1.377 . S
C2745 C2751 1.390 . S
C2746 H2737 0.930 . S
C2746 C2744 1.384 . S
C2746 C2747 1.372 . S
C2747 C2746 1.372 . S
C2747 C2748 1.400 . S
C2747 C2752 1.490 . S
C2748 H2738 0.930 . S
C2748 C2747 1.400 . S
C2748 C2751 1.386 . S
H2749 C2765 0.930 1_545 S
H2750 C2766 0.931 . S
C2751 H2739 0.929 . S
C2751 C2745 1.390 . S
C2751 C2748 1.386 . S
C2752 C2747 1.490 . S
C2752 C2754 1.395 . S
C2752 C2755 1.403 . S
H2753 C2759 0.930 . S
C2754 H2740 0.930 . S
C2754 C2752 1.395 . S
C2754 C2757 1.403 . S
C2755 C2752 1.403 . S
C2755 C2756 1.524 . S
C2755 C2759 1.400 . S
C2756 H2741 0.960 . S
C2756 H2742 0.960 . S
C2756 H2743 0.960 . S
C2756 C2755 1.524 . S
C2757 C2754 1.403 . S
C2757 C2758 1.392 . S
C2757 C2761 1.495 . S
C2758 C2757 1.392 . S
C2758 C2759 1.385 . S
C2758 C2760 1.478 . S
C2759 H2753 0.930 . S
C2759 C2755 1.400 . S
C2759 C2758 1.385 . S
C2760 C2758 1.478 . S
C2760 C2762 1.388 . S
C2760 C2766 1.383 . S
C2761 C2757 1.495 . S
C2761 H2767 0.959 . S
C2761 H2768 0.961 . S
C2761 H2769 0.960 . S
C2762 C2760 1.388 . S
C2762 C2763 1.391 1_556 S
C2762 H2770 0.926 1_556 S
C2763 C2762 1.391 1_554 S
C2763 C2764 1.411 . S
C2763 H2771 0.929 . S
C2764 C2763 1.411 . S
C2764 C2765 1.331 1_554 S
C2765 H2749 0.930 1_565 S
C2765 C2764 1.331 1_556 S
C2765 C2766 1.379 . S
C2766 H2750 0.931 . S
C2766 C2760 1.383 . S
C2766 C2765 1.379 . S
H2767 C2761 0.959 . S
H2768 C2761 0.961 . S
H2769 C2761 0.960 . S
H2770 C2762 0.926 1_554 S
H2771 C2763 0.929 . S
H2772 C2780 0.929 . S
H2773 C2782 0.930 . S
H2774 C2784 0.930 . S
H2775 C2787 0.929 . S
H2776 C2790 0.930 . S
H2777 C2792 0.960 . S
H2778 C2792 0.960 . S
H2779 C2792 0.960 . S
C2780 H2772 0.929 . S
C2780 C2781 1.377 . S
C2780 C2782 1.384 . S
C2781 C2780 1.377 . S
C2781 C2787 1.390 . S
C2782 H2773 0.930 . S
C2782 C2780 1.384 . S
C2782 C2783 1.372 . S
C2783 C2782 1.372 . S
C2783 C2784 1.400 . S
C2783 C2788 1.490 . S
C2784 H2774 0.930 . S
C2784 C2783 1.400 . S
C2784 C2787 1.386 . S
H2785 C2801 0.930 . S
H2786 C2802 0.931 . S
C2787 H2775 0.929 . S
C2787 C2781 1.390 . S
C2787 C2784 1.386 . S
C2788 C2783 1.490 . S
C2788 C2790 1.395 . S
C2788 C2791 1.403 . S
H2789 C2795 0.930 . S
C2790 H2776 0.930 . S
C2790 C2788 1.395 . S
C2790 C2793 1.403 . S
C2791 C2788 1.403 . S
C2791 C2792 1.524 . S
C2791 C2795 1.400 . S
C2792 H2777 0.960 . S
C2792 H2778 0.960 . S
C2792 H2779 0.960 . S
C2792 C2791 1.524 . S
C2793 C2790 1.403 . S
C2793 C2794 1.392 . S
C2793 C2797 1.495 . S
C2794 C2793 1.392 . S
C2794 C2795 1.385 . S
C2794 C2796 1.478 . S
C2795 H2789 0.930 . S
C2795 C2791 1.400 . S
C2795 C2794 1.385 . S
C2796 C2794 1.478 . S
C2796 C2798 1.381 . S
C2796 C2802 1.383 . S
C2797 C2793 1.495 . S
C2797 H2803 0.959 . S
C2797 H2804 0.961 . S
C2797 H2805 0.960 . S
C2798 C2796 1.381 . S
C2798 C2799 1.394 . S
C2798 H2806 0.930 . S
C2799 C2798 1.394 . S
C2799 C2800 1.383 . S
C2799 H2807 0.929 . S
C2800 C2799 1.383 . S
C2800 C2801 1.377 . S
C2801 H2785 0.930 . S
C2801 C2800 1.377 . S
C2801 C2802 1.379 . S
C2802 H2786 0.931 . S
C2802 C2796 1.383 . S
C2802 C2801 1.379 . S
H2803 C2797 0.959 . S
H2804 C2797 0.961 . S
H2805 C2797 0.960 . S
H2806 C2798 0.930 . S
H2807 C2799 0.929 . S
H2808 C2816 0.929 . S
H2809 C2818 0.930 . S
H2810 C2820 0.930 . S
H2811 C2823 0.929 . S
H2812 C2826 0.930 . S
H2813 C2828 0.960 . S
H2814 C2828 0.960 . S
H2815 C2828 0.960 . S
C2816 H2808 0.929 . S
C2816 C2817 1.377 . S
C2816 C2818 1.384 . S
C2817 C2816 1.377 . S
C2817 C2823 1.390 1_545 S
C2818 H2809 0.930 . S
C2818 C2816 1.384 . S
C2818 C2819 1.372 . S
C2819 C2818 1.372 . S
C2819 C2820 1.400 1_545 S
C2819 C2824 1.490 . S
C2820 H2810 0.930 . S
C2820 C2819 1.400 1_565 S
C2820 C2823 1.386 . S
H2821 C2837 0.936 . S
H2822 C2838 0.959 . S
C2823 H2811 0.929 . S
C2823 C2817 1.390 1_565 S
C2823 C2820 1.386 . S
C2824 C2819 1.490 . S
C2824 C2826 1.395 . S
C2824 C2827 1.403 1_545 S
H2825 C2831 0.930 . S
C2826 H2812 0.930 . S
C2826 C2824 1.395 . S
C2826 C2829 1.403 . S
C2827 C2824 1.403 1_565 S
C2827 C2828 1.524 . S
C2827 C2831 1.400 . S
C2828 H2813 0.960 . S
C2828 H2814 0.960 . S
C2828 H2815 0.960 . S
C2828 C2827 1.524 . S
C2829 C2826 1.403 . S
C2829 C2830 1.392 . S
C2829 C2833 1.495 . S
C2830 C2829 1.392 . S
C2830 C2831 1.385 1_545 S
C2830 C2832 1.478 . S
C2831 H2825 0.930 . S
C2831 C2827 1.400 . S
C2831 C2830 1.385 1_565 S
C2832 C2830 1.478 . S
C2832 C2834 1.381 . S
C2832 C2838 1.354 1_545 S
C2833 C2829 1.495 . S
C2833 H2839 0.959 . S
C2833 H2840 0.961 . S
C2833 H2841 0.960 . S
C2834 C2832 1.381 . S
C2834 C2835 1.394 . S
C2834 H2842 0.930 . S
C2835 C2834 1.394 . S
C2835 C2836 1.383 . S
C2835 H2843 0.929 . S
C2836 C2835 1.383 . S
C2836 C2837 1.371 1_545 S
C2837 H2821 0.936 . S
C2837 C2836 1.371 1_565 S
C2837 C2838 1.382 . S
C2838 H2822 0.959 . S
C2838 C2832 1.354 1_565 S
C2838 C2837 1.382 . S
H2839 C2833 0.959 . S
H2840 C2833 0.961 . S
H2841 C2833 0.960 . S
H2842 C2834 0.930 . S
H2843 C2835 0.929 . S
H2844 C2852 0.929 . S
H2845 C2854 0.930 . S
H2846 C2856 0.930 . S
H2847 C2859 0.929 . S
H2848 C2862 0.930 . S
H2849 C2864 0.960 . S
H2850 C2864 0.960 . S
H2851 C2864 0.960 . S
C2852 H2844 0.929 . S
C2852 C2853 1.377 . S
C2852 C2854 1.384 . S
C2853 C2852 1.377 . S
C2853 C2859 1.390 . S
C2854 H2845 0.930 . S
C2854 C2852 1.384 . S
C2854 C2855 1.372 . S
C2855 C2854 1.372 . S
C2855 C2856 1.400 . S
C2855 C2860 1.490 . S
C2856 H2846 0.930 . S
C2856 C2855 1.400 . S
C2856 C2859 1.386 . S
H2857 C2873 0.930 . S
H2858 C2874 0.931 . S
C2859 H2847 0.929 . S
C2859 C2853 1.390 . S
C2859 C2856 1.386 . S
C2860 C2855 1.490 . S
C2860 C2862 1.395 . S
C2860 C2863 1.403 . S
H2861 C2867 0.930 . S
C2862 H2848 0.930 . S
C2862 C2860 1.395 . S
C2862 C2865 1.403 . S
C2863 C2860 1.403 . S
C2863 C2864 1.524 . S
C2863 C2867 1.400 . S
C2864 H2849 0.960 . S
C2864 H2850 0.960 . S
C2864 H2851 0.960 . S
C2864 C2863 1.524 . S
C2865 C2862 1.403 . S
C2865 C2866 1.392 . S
C2865 C2869 1.495 . S
C2866 C2865 1.392 . S
C2866 C2867 1.385 . S
C2866 C2868 1.478 . S
C2867 H2861 0.930 . S
C2867 C2863 1.400 . S
C2867 C2866 1.385 . S
C2868 C2866 1.478 . S
C2868 C2870 1.381 . S
C2868 C2874 1.383 . S
C2869 C2865 1.495 . S
C2869 H2875 0.959 . S
C2869 H2876 0.961 . S
C2869 H2877 0.960 . S
C2870 C2868 1.381 . S
C2870 C2871 1.394 . S
C2870 H2878 0.930 . S
C2871 C2870 1.394 . S
C2871 C2872 1.383 . S
C2871 H2879 0.929 . S
C2872 C2871 1.383 . S
C2872 C2873 1.377 . S
C2873 H2857 0.930 . S
C2873 C2872 1.377 . S
C2873 C2874 1.379 . S
C2874 H2858 0.931 . S
C2874 C2868 1.383 . S
C2874 C2873 1.379 . S
H2875 C2869 0.959 . S
H2876 C2869 0.961 . S
H2877 C2869 0.960 . S
H2878 C2870 0.930 . S
H2879 C2871 0.929 . S
H2880 C2888 0.929 . S
H2881 C2890 0.930 . S
H2882 C2892 0.930 . S
H2883 C2895 0.929 . S
H2884 C2898 0.930 . S
H2885 C2900 0.960 . S
H2886 C2900 0.960 . S
H2887 C2900 0.960 . S
C2888 H2880 0.929 . S
C2888 C2889 1.377 . S
C2888 C2890 1.384 . S
C2889 C2888 1.377 . S
C2889 C2895 1.390 . S
C2890 H2881 0.930 . S
C2890 C2888 1.384 . S
C2890 C2891 1.372 . S
C2891 C2890 1.372 . S
C2891 C2892 1.400 . S
C2891 C2896 1.490 . S
C2892 H2882 0.930 . S
C2892 C2891 1.400 . S
C2892 C2895 1.386 . S
H2893 C2909 0.930 . S
H2894 C2910 0.931 . S
C2895 H2883 0.929 . S
C2895 C2889 1.390 . S
C2895 C2892 1.386 . S
C2896 C2891 1.490 . S
C2896 C2898 1.395 . S
C2896 C2899 1.403 . S
H2897 C2903 0.930 . S
C2898 H2884 0.930 . S
C2898 C2896 1.395 . S
C2898 C2901 1.403 . S
C2899 C2896 1.403 . S
C2899 C2900 1.524 . S
C2899 C2903 1.400 . S
C2900 H2885 0.960 . S
C2900 H2886 0.960 . S
C2900 H2887 0.960 . S
C2900 C2899 1.524 . S
C2901 C2898 1.403 . S
C2901 C2902 1.392 . S
C2901 C2905 1.495 . S
C2902 C2901 1.392 . S
C2902 C2903 1.385 . S
C2902 C2904 1.478 . S
C2903 H2897 0.930 . S
C2903 C2899 1.400 . S
C2903 C2902 1.385 . S
C2904 C2902 1.478 . S
C2904 C2906 1.381 . S
C2904 C2910 1.383 . S
C2905 C2901 1.495 . S
C2905 H2911 0.959 . S
C2905 H2912 0.961 . S
C2905 H2913 0.960 . S
C2906 C2904 1.381 . S
C2906 C2907 1.394 . S
C2906 H2914 0.930 . S
C2907 C2906 1.394 . S
C2907 C2908 1.383 . S
C2907 H2915 0.929 . S
C2908 C2907 1.383 . S
C2908 C2909 1.377 . S
C2909 H2893 0.930 . S
C2909 C2908 1.377 . S
C2909 C2910 1.379 . S
C2910 H2894 0.931 . S
C2910 C2904 1.383 . S
C2910 C2909 1.379 . S
H2911 C2905 0.959 . S
H2912 C2905 0.961 . S
H2913 C2905 0.960 . S
H2914 C2906 0.930 . S
H2915 C2907 0.929 . S
H2916 C2924 0.929 . S
H2917 C2926 0.930 . S
H2918 C2928 0.930 . S
H2919 C2931 0.929 . S
H2920 C2934 0.930 . S
H2921 C2936 0.960 . S
H2922 C2936 0.960 . S
H2923 C2936 0.960 . S
C2924 H2916 0.929 . S
C2924 C2925 1.377 . S
C2924 C2926 1.384 . S
C2925 C2924 1.377 . S
C2925 C2931 1.390 . S
C2926 H2917 0.930 . S
C2926 C2924 1.384 . S
C2926 C2927 1.372 . S
C2927 C2926 1.372 . S
C2927 C2928 1.400 . S
C2927 C2932 1.490 . S
C2928 H2918 0.930 . S
C2928 C2927 1.400 . S
C2928 C2931 1.386 . S
H2929 C2945 0.930 . S
H2930 C2946 0.931 . S
C2931 H2919 0.929 . S
C2931 C2925 1.390 . S
C2931 C2928 1.386 . S
C2932 C2927 1.490 . S
C2932 C2934 1.395 . S
C2932 C2935 1.403 . S
H2933 C2939 0.930 . S
C2934 H2920 0.930 . S
C2934 C2932 1.395 . S
C2934 C2937 1.403 . S
C2935 C2932 1.403 . S
C2935 C2936 1.524 . S
C2935 C2939 1.400 . S
C2936 H2921 0.960 . S
C2936 H2922 0.960 . S
C2936 H2923 0.960 . S
C2936 C2935 1.524 . S
C2937 C2934 1.403 . S
C2937 C2938 1.392 . S
C2937 C2941 1.495 . S
C2938 C2937 1.392 . S
C2938 C2939 1.385 . S
C2938 C2940 1.478 . S
C2939 H2933 0.930 . S
C2939 C2935 1.400 . S
C2939 C2938 1.385 . S
C2940 C2938 1.478 . S
C2940 C2942 1.381 . S
C2940 C2946 1.383 . S
C2941 C2937 1.495 . S
C2941 H2947 0.959 . S
C2941 H2948 0.961 . S
C2941 H2949 0.960 . S
C2942 C2940 1.381 . S
C2942 C2943 1.394 . S
C2942 H2950 0.930 . S
C2943 C2942 1.394 . S
C2943 C2944 1.383 . S
C2943 H2951 0.929 . S
C2944 C2943 1.383 . S
C2944 C2945 1.377 . S
C2945 H2929 0.930 . S
C2945 C2944 1.377 . S
C2945 C2946 1.379 . S
C2946 H2930 0.931 . S
C2946 C2940 1.383 . S
C2946 C2945 1.379 . S
H2947 C2941 0.959 . S
H2948 C2941 0.961 . S
H2949 C2941 0.960 . S
H2950 C2942 0.930 . S
H2951 C2943 0.929 . S
H2952 C2960 0.929 . S
H2953 C2962 0.930 . S
H2954 C2964 0.930 . S
H2955 C2967 0.929 . S
H2956 C2970 0.930 . S
H2957 C2972 0.960 . S
H2958 C2972 0.960 . S
H2959 C2972 0.960 1_545 S
C2960 H2952 0.929 . S
C2960 C2961 1.377 . S
C2960 C2962 1.384 . S
C2961 C2960 1.377 . S
C2961 C2967 1.390 1_565 S
C2962 H2953 0.930 . S
C2962 C2960 1.384 . S
C2962 C2963 1.372 1_565 S
C2963 C2962 1.372 1_545 S
C2963 C2964 1.400 . S
C2963 C2968 1.490 . S
C2964 H2954 0.930 . S
C2964 C2963 1.400 . S
C2964 C2967 1.386 . S
H2965 C2981 0.930 . S
H2966 C2982 0.931 . S
C2967 H2955 0.929 . S
C2967 C2961 1.390 1_545 S
C2967 C2964 1.386 . S
C2968 C2963 1.490 . S
C2968 C2970 1.395 . S
C2968 C2971 1.403 . S
H2969 C2975 0.930 . S
C2970 H2956 0.930 . S
C2970 C2968 1.395 . S
C2970 C2973 1.403 . S
C2971 C2968 1.403 . S
C2971 C2972 1.524 1_545 S
C2971 C2975 1.400 . S
C2972 H2957 0.960 . S
C2972 H2958 0.960 . S
C2972 H2959 0.960 1_565 S
C2972 C2971 1.524 1_565 S
C2973 C2970 1.403 . S
C2973 C2974 1.392 . S
C2973 C2977 1.495 . S
C2974 C2973 1.392 . S
C2974 C2975 1.385 . S
C2974 C2976 1.478 . S
C2975 H2969 0.930 . S
C2975 C2971 1.400 . S
C2975 C2974 1.385 . S
C2976 C2974 1.478 . S
C2976 C2978 1.381 . S
C2976 C2982 1.383 . S
C2977 C2973 1.495 . S
C2977 H2983 0.959 . S
C2977 H2984 0.961 . S
C2977 H2985 0.960 . S
C2978 C2976 1.381 . S
C2978 C2979 1.394 . S
C2978 H2986 0.930 . S
C2979 C2978 1.394 . S
C2979 C2980 1.383 . S
C2979 H2987 0.929 . S
C2980 C2979 1.383 . S
C2980 C2981 1.377 . S
C2981 H2965 0.930 . S
C2981 C2980 1.377 . S
C2981 C2982 1.379 . S
C2982 H2966 0.931 . S
C2982 C2976 1.383 . S
C2982 C2981 1.379 . S
H2983 C2977 0.959 . S
H2984 C2977 0.961 . S
H2985 C2977 0.960 . S
H2986 C2978 0.930 . S
H2987 C2979 0.929 . S
H2988 C2996 0.929 . S
H2989 C2998 0.930 . S
H2990 C3000 0.930 . S
H2991 C3003 0.929 . S
H2992 C3006 0.930 . S
H2993 C3008 0.960 . S
H2994 C3008 0.960 . S
H2995 C3008 0.960 . S
C2996 H2988 0.929 . S
C2996 C2997 1.377 . S
C2996 C2998 1.384 . S
C2997 C2996 1.377 . S
C2997 C3003 1.390 . S
C2998 H2989 0.930 . S
C2998 C2996 1.384 . S
C2998 C2999 1.372 . S
C2999 C2998 1.372 . S
C2999 C3000 1.400 . S
C2999 C3004 1.490 . S
C3000 H2990 0.930 . S
C3000 C2999 1.400 . S
C3000 C3003 1.386 . S
H3001 C3017 0.930 . S
H3002 C3018 0.931 . S
C3003 H2991 0.929 . S
C3003 C2997 1.390 . S
C3003 C3000 1.386 . S
C3004 C2999 1.490 . S
C3004 C3006 1.395 . S
C3004 C3007 1.403 . S
H3005 C3011 0.930 . S
C3006 H2992 0.930 . S
C3006 C3004 1.395 . S
C3006 C3009 1.403 . S
C3007 C3004 1.403 . S
C3007 C3008 1.524 . S
C3007 C3011 1.400 . S
C3008 H2993 0.960 . S
C3008 H2994 0.960 . S
C3008 H2995 0.960 . S
C3008 C3007 1.524 . S
C3009 C3006 1.403 . S
C3009 C3010 1.392 . S
C3009 C3013 1.495 . S
C3010 C3009 1.392 . S
C3010 C3011 1.385 . S
C3010 C3012 1.478 . S
C3011 H3005 0.930 . S
C3011 C3007 1.400 . S
C3011 C3010 1.385 . S
C3012 C3010 1.478 . S
C3012 C3014 1.381 . S
C3012 C3018 1.383 . S
C3013 C3009 1.495 . S
C3013 H3019 0.959 . S
C3013 H3020 0.961 . S
C3013 H3021 0.960 . S
C3014 C3012 1.381 . S
C3014 C3015 1.394 . S
C3014 H3022 0.930 . S
C3015 C3014 1.394 . S
C3015 C3016 1.383 . S
C3015 H3023 0.929 . S
C3016 C3015 1.383 . S
C3016 C3017 1.377 . S
C3017 H3001 0.930 . S
C3017 C3016 1.377 . S
C3017 C3018 1.379 . S
C3018 H3002 0.931 . S
C3018 C3012 1.383 . S
C3018 C3017 1.379 . S
H3019 C3013 0.959 . S
H3020 C3013 0.961 . S
H3021 C3013 0.960 . S
H3022 C3014 0.930 . S
H3023 C3015 0.929 . S
H3024 C3032 0.929 . S
H3025 C3034 0.930 . S
H3026 C3036 0.930 . S
H3027 C3039 0.929 . S
H3028 C3042 0.930 . S
H3029 C3044 0.960 . S
H3030 C3044 0.960 . S
H3031 C3044 0.960 . S
C3032 H3024 0.929 . S
C3032 C3033 1.377 . S
C3032 C3034 1.384 . S
C3033 C3032 1.377 . S
C3033 C3039 1.390 . S
C3034 H3025 0.930 . S
C3034 C3032 1.384 . S
C3034 C3035 1.372 . S
C3035 C3034 1.372 . S
C3035 C3036 1.400 . S
C3035 C3040 1.490 . S
C3036 H3026 0.930 . S
C3036 C3035 1.400 . S
C3036 C3039 1.386 . S
H3037 C3053 0.930 1_565 S
H3038 C3054 0.931 1_565 S
C3039 H3027 0.929 . S
C3039 C3033 1.390 . S
C3039 C3036 1.386 . S
C3040 C3035 1.490 . S
C3040 C3042 1.395 . S
C3040 C3043 1.403 . S
H3041 C3047 0.930 . S
C3042 H3028 0.930 . S
C3042 C3040 1.395 . S
C3042 C3045 1.403 . S
C3043 C3040 1.403 . S
C3043 C3044 1.524 . S
C3043 C3047 1.400 . S
C3044 H3029 0.960 . S
C3044 H3030 0.960 . S
C3044 H3031 0.960 . S
C3044 C3043 1.524 . S
C3045 C3042 1.403 . S
C3045 C3046 1.392 . S
C3045 C3049 1.495 . S
C3046 C3045 1.392 . S
C3046 C3047 1.385 . S
C3046 C3048 1.478 . S
C3047 H3041 0.930 . S
C3047 C3043 1.400 . S
C3047 C3046 1.385 . S
C3048 C3046 1.478 . S
C3048 C3050 1.381 . S
C3048 C3054 1.383 . S
C3049 C3045 1.495 . S
C3049 H3055 0.959 . S
C3049 H3056 0.961 . S
C3049 H3057 0.960 . S
C3050 C3048 1.381 . S
C3050 C3051 1.394 . S
C3050 H3058 0.930 . S
C3051 C3050 1.394 . S
C3051 C3052 1.383 . S
C3051 H3059 0.929 . S
C3052 C3051 1.383 . S
C3052 C3053 1.377 . S
C3053 H3037 0.930 1_545 S
C3053 C3052 1.377 . S
C3053 C3054 1.379 . S
C3054 H3038 0.931 1_545 S
C3054 C3048 1.383 . S
C3054 C3053 1.379 . S
H3055 C3049 0.959 . S
H3056 C3049 0.961 . S
H3057 C3049 0.960 . S
H3058 C3050 0.930 . S
H3059 C3051 0.929 . S
H3060 C3068 0.929 . S
H3061 C3070 0.930 . S
H3062 C3072 0.930 . S
H3063 C3075 0.929 . S
H3064 C3078 0.930 . S
H3065 C3080 0.960 . S
H3066 C3080 0.960 . S
H3067 C3080 0.960 . S
C3068 H3060 0.929 . S
C3068 C3069 1.377 . S
C3068 C3070 1.384 . S
C3069 C3068 1.377 . S
C3069 C3075 1.390 . S
C3070 H3061 0.930 . S
C3070 C3068 1.384 . S
C3070 C3071 1.372 . S
C3071 C3070 1.372 . S
C3071 C3072 1.400 . S
C3071 C3076 1.490 . S
C3072 H3062 0.930 . S
C3072 C3071 1.400 . S
C3072 C3075 1.386 . S
H3073 C3089 0.930 . S
H3074 C3090 0.931 . S
C3075 H3063 0.929 . S
C3075 C3069 1.390 . S
C3075 C3072 1.386 . S
C3076 C3071 1.490 . S
C3076 C3078 1.395 . S
C3076 C3079 1.403 . S
H3077 C3083 0.930 . S
C3078 H3064 0.930 . S
C3078 C3076 1.395 . S
C3078 C3081 1.403 . S
C3079 C3076 1.403 . S
C3079 C3080 1.524 . S
C3079 C3083 1.400 . S
C3080 H3065 0.960 . S
C3080 H3066 0.960 . S
C3080 H3067 0.960 . S
C3080 C3079 1.524 . S
C3081 C3078 1.403 . S
C3081 C3082 1.392 . S
C3081 C3085 1.495 . S
C3082 C3081 1.392 . S
C3082 C3083 1.385 . S
C3082 C3084 1.478 . S
C3083 H3077 0.930 . S
C3083 C3079 1.400 . S
C3083 C3082 1.385 . S
C3084 C3082 1.478 . S
C3084 C3086 1.381 . S
C3084 C3090 1.383 . S
C3085 C3081 1.495 . S
C3085 H3091 0.959 . S
C3085 H3092 0.961 . S
C3085 H3093 0.960 . S
C3086 C3084 1.381 . S
C3086 C3087 1.394 . S
C3086 H3094 0.930 . S
C3087 C3086 1.394 . S
C3087 C3088 1.383 . S
C3087 H3095 0.929 . S
C3088 C3087 1.383 . S
C3088 C3089 1.377 . S
C3089 H3073 0.930 . S
C3089 C3088 1.377 . S
C3089 C3090 1.379 . S
C3090 H3074 0.931 . S
C3090 C3084 1.383 . S
C3090 C3089 1.379 . S
H3091 C3085 0.959 . S
H3092 C3085 0.961 . S
H3093 C3085 0.960 . S
H3094 C3086 0.930 . S
H3095 C3087 0.929 . S
H3096 C3104 0.929 . S
H3097 C3106 0.930 . S
H3098 C3108 0.930 . S
H3099 C3111 0.929 . S
H3100 C3114 0.930 . S
H3101 C3116 0.960 . S
H3102 C3116 0.960 . S
H3103 C3116 0.960 . S
C3104 H3096 0.929 . S
C3104 C3105 1.377 . S
C3104 C3106 1.384 . S
C3105 C3104 1.377 . S
C3105 C3111 1.390 . S
C3106 H3097 0.930 . S
C3106 C3104 1.384 . S
C3106 C3107 1.372 . S
C3107 C3106 1.372 . S
C3107 C3108 1.400 . S
C3107 C3112 1.490 . S
C3108 H3098 0.930 . S
C3108 C3107 1.400 . S
C3108 C3111 1.386 . S
H3109 C3125 0.930 . S
H3110 C3126 0.931 . S
C3111 H3099 0.929 . S
C3111 C3105 1.390 . S
C3111 C3108 1.386 . S
C3112 C3107 1.490 . S
C3112 C3114 1.395 . S
C3112 C3115 1.386 1_554 S
H3113 C3119 0.935 . S
C3114 H3100 0.930 . S
C3114 C3112 1.395 . S
C3114 C3117 1.403 . S
C3115 C3112 1.386 1_556 S
C3115 C3116 1.542 . S
C3115 C3119 1.400 . S
C3116 H3101 0.960 . S
C3116 H3102 0.960 . S
C3116 H3103 0.960 . S
C3116 C3115 1.542 . S
C3117 C3114 1.403 . S
C3117 C3118 1.392 . S
C3117 C3121 1.495 . S
C3118 C3117 1.392 . S
C3118 C3119 1.380 1_554 S
C3118 C3120 1.478 . S
C3119 H3113 0.935 . S
C3119 C3115 1.400 . S
C3119 C3118 1.380 1_556 S
C3120 C3118 1.478 . S
C3120 C3122 1.381 . S
C3120 C3126 1.383 . S
C3121 C3117 1.495 . S
C3121 H3127 0.959 . S
C3121 H3128 0.961 . S
C3121 H3129 0.960 . S
C3122 C3120 1.381 . S
C3122 C3123 1.394 . S
C3122 H3130 0.930 . S
C3123 C3122 1.394 . S
C3123 C3124 1.383 . S
C3123 H3131 0.929 1_554 S
C3124 C3123 1.383 . S
C3124 C3125 1.377 . S
C3125 H3109 0.930 . S
C3125 C3124 1.377 . S
C3125 C3126 1.379 . S
C3126 H3110 0.931 . S
C3126 C3120 1.383 . S
C3126 C3125 1.379 . S
H3127 C3121 0.959 . S
H3128 C3121 0.961 . S
H3129 C3121 0.960 . S
H3130 C3122 0.930 . S
H3131 C3123 0.929 1_556 S
H3132 C3140 0.929 . S
H3133 C3142 0.930 . S
H3134 C3144 0.930 . S
H3135 C3147 0.929 . S
H3136 C3150 0.930 . S
H3137 C3152 0.960 . S
H3138 C3152 0.960 . S
H3139 C3152 0.960 . S
C3140 H3132 0.929 . S
C3140 C3141 1.377 . S
C3140 C3142 1.384 . S
C3141 C3140 1.377 . S
C3141 C3147 1.390 . S
C3142 H3133 0.930 . S
C3142 C3140 1.384 . S
C3142 C3143 1.372 . S
C3143 C3142 1.372 . S
C3143 C3144 1.400 . S
C3143 C3148 1.490 . S
C3144 H3134 0.930 . S
C3144 C3143 1.400 . S
C3144 C3147 1.386 . S
H3145 C3161 0.930 . S
H3146 C3162 0.931 . S
C3147 H3135 0.929 . S
C3147 C3141 1.390 . S
C3147 C3144 1.386 . S
C3148 C3143 1.490 . S
C3148 C3150 1.395 . S
C3148 C3151 1.403 . S
H3149 C3155 0.930 . S
C3150 H3136 0.930 . S
C3150 C3148 1.395 . S
C3150 C3153 1.403 . S
C3151 C3148 1.403 . S
C3151 C3152 1.524 . S
C3151 C3155 1.400 . S
C3152 H3137 0.960 . S
C3152 H3138 0.960 . S
C3152 H3139 0.960 . S
C3152 C3151 1.524 . S
C3153 C3150 1.403 . S
C3153 C3154 1.392 . S
C3153 C3157 1.495 . S
C3154 C3153 1.392 . S
C3154 C3155 1.385 . S
C3154 C3156 1.478 . S
C3155 H3149 0.930 . S
C3155 C3151 1.400 . S
C3155 C3154 1.385 . S
C3156 C3154 1.478 . S
C3156 C3158 1.381 . S
C3156 C3162 1.383 . S
C3157 C3153 1.495 . S
C3157 H3163 0.959 . S
C3157 H3164 0.961 . S
C3157 H3165 0.960 . S
C3158 C3156 1.381 . S
C3158 C3159 1.394 . S
C3158 H3166 0.930 . S
C3159 C3158 1.394 . S
C3159 C3160 1.383 . S
C3159 H3167 0.929 . S
C3160 C3159 1.383 . S
C3160 C3161 1.377 . S
C3161 H3145 0.930 . S
C3161 C3160 1.377 . S
C3161 C3162 1.379 . S
C3162 H3146 0.931 . S
C3162 C3156 1.383 . S
C3162 C3161 1.379 . S
H3163 C3157 0.959 . S
H3164 C3157 0.961 . S
H3165 C3157 0.960 . S
H3166 C3158 0.930 . S
H3167 C3159 0.929 . S
H3168 C3176 0.929 . S
H3169 C3178 0.930 . S
H3170 C3180 0.930 . S
H3171 C3183 0.929 . S
H3172 C3186 0.930 . S
H3173 C3188 0.960 . S
H3174 C3188 0.960 . S
H3175 C3188 0.960 . S
C3176 H3168 0.929 . S
C3176 C3177 1.377 . S
C3176 C3178 1.384 . S
C3177 C3176 1.377 . S
C3177 C3183 1.390 . S
C3178 H3169 0.930 . S
C3178 C3176 1.384 . S
C3178 C3179 1.372 . S
C3179 C3178 1.372 . S
C3179 C3180 1.400 . S
C3179 C3184 1.490 . S
C3180 H3170 0.930 . S
C3180 C3179 1.400 . S
C3180 C3183 1.386 . S
H3181 C3197 0.930 . S
H3182 C3198 0.931 . S
C3183 H3171 0.929 . S
C3183 C3177 1.390 . S
C3183 C3180 1.386 . S
C3184 C3179 1.490 . S
C3184 C3186 1.395 . S
C3184 C3187 1.403 . S
H3185 C3191 0.930 . S
C3186 H3172 0.930 . S
C3186 C3184 1.395 . S
C3186 C3189 1.403 . S
C3187 C3184 1.403 . S
C3187 C3188 1.524 . S
C3187 C3191 1.400 . S
C3188 H3173 0.960 . S
C3188 H3174 0.960 . S
C3188 H3175 0.960 . S
C3188 C3187 1.524 . S
C3189 C3186 1.403 . S
C3189 C3190 1.392 . S
C3189 C3193 1.495 . S
C3190 C3189 1.392 . S
C3190 C3191 1.385 . S
C3190 C3192 1.478 . S
C3191 H3185 0.930 . S
C3191 C3187 1.400 . S
C3191 C3190 1.385 . S
C3192 C3190 1.478 . S
C3192 C3194 1.381 . S
C3192 C3198 1.383 . S
C3193 C3189 1.495 . S
C3193 H3199 0.959 . S
C3193 H3200 0.961 . S
C3193 H3201 0.960 . S
C3194 C3192 1.381 . S
C3194 C3195 1.394 . S
C3194 H3202 0.930 . S
C3195 C3194 1.394 . S
C3195 C3196 1.383 . S
C3195 H3203 0.929 . S
C3196 C3195 1.383 . S
C3196 C3197 1.377 . S
C3197 H3181 0.930 . S
C3197 C3196 1.377 . S
C3197 C3198 1.379 . S
C3198 H3182 0.931 . S
C3198 C3192 1.383 . S
C3198 C3197 1.379 . S
H3199 C3193 0.959 . S
H3200 C3193 0.961 . S
H3201 C3193 0.960 . S
H3202 C3194 0.930 . S
H3203 C3195 0.929 . S
H3204 C3212 0.929 . S
H3205 C3214 0.930 . S
H3206 C3216 0.930 . S
H3207 C3219 0.929 . S
H3208 C3222 0.930 . S
H3209 C3224 0.960 . S
H3210 C3224 0.960 . S
H3211 C3224 0.960 . S
C3212 H3204 0.929 . S
C3212 C3213 1.377 . S
C3212 C3214 1.384 . S
C3213 C3212 1.377 . S
C3213 C3219 1.390 . S
C3214 H3205 0.930 . S
C3214 C3212 1.384 . S
C3214 C3215 1.372 . S
C3215 C3214 1.372 . S
C3215 C3216 1.400 . S
C3215 C3220 1.490 . S
C3216 H3206 0.930 . S
C3216 C3215 1.400 . S
C3216 C3219 1.386 . S
H3217 C3233 0.930 . S
H3218 C3234 0.931 . S
C3219 H3207 0.929 . S
C3219 C3213 1.390 . S
C3219 C3216 1.386 . S
C3220 C3215 1.490 . S
C3220 C3222 1.395 . S
C3220 C3223 1.403 . S
H3221 C3227 0.930 . S
C3222 H3208 0.930 . S
C3222 C3220 1.395 . S
C3222 C3225 1.403 . S
C3223 C3220 1.403 . S
C3223 C3224 1.524 . S
C3223 C3227 1.400 . S
C3224 H3209 0.960 . S
C3224 H3210 0.960 . S
C3224 H3211 0.960 . S
C3224 C3223 1.524 . S
C3225 C3222 1.403 . S
C3225 C3226 1.392 . S
C3225 C3229 1.495 . S
C3226 C3225 1.392 . S
C3226 C3227 1.385 . S
C3226 C3228 1.478 . S
C3227 H3221 0.930 . S
C3227 C3223 1.400 . S
C3227 C3226 1.385 . S
C3228 C3226 1.478 . S
C3228 C3230 1.381 . S
C3228 C3234 1.383 . S
C3229 C3225 1.495 . S
C3229 H3235 0.959 . S
C3229 H3236 0.961 . S
C3229 H3237 0.960 . S
C3230 C3228 1.381 . S
C3230 C3231 1.394 . S
C3230 H3238 0.930 . S
C3231 C3230 1.394 . S
C3231 C3232 1.383 . S
C3231 H3239 0.929 . S
C3232 C3231 1.383 . S
C3232 C3233 1.377 . S
C3233 H3217 0.930 . S
C3233 C3232 1.377 . S
C3233 C3234 1.379 . S
C3234 H3218 0.931 . S
C3234 C3228 1.383 . S
C3234 C3233 1.379 . S
H3235 C3229 0.959 . S
H3236 C3229 0.961 . S
H3237 C3229 0.960 . S
H3238 C3230 0.930 . S
H3239 C3231 0.929 . S
H3240 C3248 0.929 . S
H3241 C3250 0.930 . S
H3242 C3252 0.930 . S
H3243 C3255 0.929 . S
H3244 C3258 0.930 . S
H3245 C3260 0.960 . S
H3246 C3260 0.960 . S
H3247 C3260 0.960 . S
C3248 H3240 0.929 . S
C3248 C3249 1.377 1_565 S
C3248 C3250 1.384 . S
C3249 C3248 1.377 1_545 S
C3249 C3255 1.390 . S
C3250 H3241 0.930 . S
C3250 C3248 1.384 . S
C3250 C3251 1.372 . S
C3251 C3250 1.372 . S
C3251 C3252 1.400 . S
C3251 C3256 1.490 . S
C3252 H3242 0.930 . S
C3252 C3251 1.400 . S
C3252 C3255 1.386 1_565 S
H3253 C3269 0.930 . S
H3254 C3270 0.931 . S
C3255 H3243 0.929 . S
C3255 C3249 1.390 . S
C3255 C3252 1.386 1_545 S
C3256 C3251 1.490 . S
C3256 C3258 1.395 . S
C3256 C3259 1.403 . S
H3257 C3263 0.930 . S
C3258 H3244 0.930 . S
C3258 C3256 1.395 . S
C3258 C3261 1.403 . S
C3259 C3256 1.403 . S
C3259 C3260 1.524 . S
C3259 C3263 1.400 . S
C3260 H3245 0.960 . S
C3260 H3246 0.960 . S
C3260 H3247 0.960 . S
C3260 C3259 1.524 . S
C3261 C3258 1.403 . S
C3261 C3262 1.392 . S
C3261 C3265 1.495 . S
C3262 C3261 1.392 . S
C3262 C3263 1.385 . S
C3262 C3264 1.478 . S
C3263 H3257 0.930 . S
C3263 C3259 1.400 . S
C3263 C3262 1.385 . S
C3264 C3262 1.478 . S
C3264 C3266 1.381 . S
C3264 C3270 1.383 . S
C3265 C3261 1.495 . S
C3265 H3271 0.959 . S
C3265 H3272 0.961 . S
C3265 H3273 0.960 . S
C3266 C3264 1.381 . S
C3266 C3267 1.394 . S
C3266 H3274 0.930 . S
C3267 C3266 1.394 . S
C3267 C3268 1.383 . S
C3267 H3275 0.929 . S
C3268 C3267 1.383 . S
C3268 C3269 1.377 . S
C3269 H3253 0.930 . S
C3269 C3268 1.377 . S
C3269 C3270 1.379 . S
C3270 H3254 0.931 . S
C3270 C3264 1.383 . S
C3270 C3269 1.379 . S
H3271 C3265 0.959 . S
H3272 C3265 0.961 . S
H3273 C3265 0.960 . S
H3274 C3266 0.930 . S
H3275 C3267 0.929 . S
H3276 C3284 0.929 . S
H3277 C3286 0.930 . S
H3278 C3288 0.930 . S
H3279 C3291 0.929 . S
H3280 C3294 0.930 . S
H3281 C3296 0.960 . S
H3282 C3296 0.960 . S
H3283 C3296 0.960 . S
C3284 H3276 0.929 . S
C3284 C3285 1.377 . S
C3284 C3286 1.384 . S
C3285 C3284 1.377 . S
C3285 C3291 1.390 . S
C3286 H3277 0.930 . S
C3286 C3284 1.384 . S
C3286 C3287 1.372 . S
C3287 C3286 1.372 . S
C3287 C3288 1.400 . S
C3287 C3292 1.490 . S
C3288 H3278 0.930 . S
C3288 C3287 1.400 . S
C3288 C3291 1.386 . S
H3289 C3305 0.930 1_545 S
H3290 C3306 0.931 . S
C3291 H3279 0.929 . S
C3291 C3285 1.390 . S
C3291 C3288 1.386 . S
C3292 C3287 1.490 . S
C3292 C3294 1.395 . S
C3292 C3295 1.403 . S
H3293 C3299 0.930 . S
C3294 H3280 0.930 . S
C3294 C3292 1.395 . S
C3294 C3297 1.403 . S
C3295 C3292 1.403 . S
C3295 C3296 1.524 . S
C3295 C3299 1.400 . S
C3296 H3281 0.960 . S
C3296 H3282 0.960 . S
C3296 H3283 0.960 . S
C3296 C3295 1.524 . S
C3297 C3294 1.403 . S
C3297 C3298 1.392 . S
C3297 C3301 1.495 . S
C3298 C3297 1.392 . S
C3298 C3299 1.385 . S
C3298 C3300 1.478 . S
C3299 H3293 0.930 . S
C3299 C3295 1.400 . S
C3299 C3298 1.385 . S
C3300 C3298 1.478 . S
C3300 C3302 1.381 . S
C3300 C3306 1.383 . S
C3301 C3297 1.495 . S
C3301 H3307 0.959 . S
C3301 H3308 0.961 . S
C3301 H3309 0.960 . S
C3302 C3300 1.381 . S
C3302 C3303 1.394 . S
C3302 H3310 0.930 . S
C3303 C3302 1.394 . S
C3303 C3304 1.383 . S
C3303 H3311 0.929 . S
C3304 C3303 1.383 . S
C3304 C3305 1.377 . S
C3305 H3289 0.930 1_565 S
C3305 C3304 1.377 . S
C3305 C3306 1.379 . S
C3306 H3290 0.931 . S
C3306 C3300 1.383 . S
C3306 C3305 1.379 . S
H3307 C3301 0.959 . S
H3308 C3301 0.961 . S
H3309 C3301 0.960 . S
H3310 C3302 0.930 . S
H3311 C3303 0.929 . S
H3312 C3320 0.929 . S
H3313 C3322 0.930 . S
H3314 C3324 0.930 . S
H3315 C3327 0.929 . S
H3316 C3330 0.930 . S
H3317 C3332 0.960 . S
H3318 C3332 0.960 . S
H3319 C3332 0.960 . S
C3320 H3312 0.929 . S
C3320 C3321 1.377 . S
C3320 C3322 1.384 . S
C3321 C3320 1.377 . S
C3321 C3327 1.390 . S
C3322 H3313 0.930 . S
C3322 C3320 1.384 . S
C3322 C3323 1.372 . S
C3323 C3322 1.372 . S
C3323 C3324 1.400 . S
C3323 C3328 1.490 . S
C3324 H3314 0.930 . S
C3324 C3323 1.400 . S
C3324 C3327 1.386 . S
H3325 C3341 0.930 . S
H3326 C3342 0.931 . S
C3327 H3315 0.929 . S
C3327 C3321 1.390 . S
C3327 C3324 1.386 . S
C3328 C3323 1.490 . S
C3328 C3330 1.395 . S
C3328 C3331 1.403 . S
H3329 C3335 0.930 . S
C3330 H3316 0.930 . S
C3330 C3328 1.395 . S
C3330 C3333 1.403 . S
C3331 C3328 1.403 . S
C3331 C3332 1.524 . S
C3331 C3335 1.400 . S
C3332 H3317 0.960 . S
C3332 H3318 0.960 . S
C3332 H3319 0.960 . S
C3332 C3331 1.524 . S
C3333 C3330 1.403 . S
C3333 C3334 1.392 . S
C3333 C3337 1.495 . S
C3334 C3333 1.392 . S
C3334 C3335 1.385 . S
C3334 C3336 1.478 . S
C3335 H3329 0.930 . S
C3335 C3331 1.400 . S
C3335 C3334 1.385 . S
C3336 C3334 1.478 . S
C3336 C3338 1.381 . S
C3336 C3342 1.383 . S
C3337 C3333 1.495 . S
C3337 H3343 0.959 . S
C3337 H3344 0.961 . S
C3337 H3345 0.960 . S
C3338 C3336 1.381 . S
C3338 C3339 1.394 . S
C3338 H3346 0.930 . S
C3339 C3338 1.394 . S
C3339 C3340 1.383 . S
C3339 H3347 0.929 . S
C3340 C3339 1.383 . S
C3340 C3341 1.377 . S
C3341 H3325 0.930 . S
C3341 C3340 1.377 . S
C3341 C3342 1.379 . S
C3342 H3326 0.931 . S
C3342 C3336 1.383 . S
C3342 C3341 1.379 . S
H3343 C3337 0.959 . S
H3344 C3337 0.961 . S
H3345 C3337 0.960 . S
H3346 C3338 0.930 . S
H3347 C3339 0.929 . S
H3348 C3356 0.929 . S
H3349 C3358 0.930 . S
H3350 C3360 0.930 . S
H3351 C3363 0.929 . S
H3352 C3366 0.930 . S
H3353 C3368 0.960 . S
H3354 C3368 0.960 . S
H3355 C3368 0.960 . S
C3356 H3348 0.929 . S
C3356 C3357 1.377 . S
C3356 C3358 1.384 . S
C3357 C3356 1.377 . S
C3357 C3363 1.390 . S
C3358 H3349 0.930 . S
C3358 C3356 1.384 . S
C3358 C3359 1.372 . S
C3359 C3358 1.372 . S
C3359 C3360 1.400 . S
C3359 C3364 1.490 . S
C3360 H3350 0.930 . S
C3360 C3359 1.400 . S
C3360 C3363 1.386 . S
H3361 C3377 0.930 . S
H3362 C3378 0.931 . S
C3363 H3351 0.929 . S
C3363 C3357 1.390 . S
C3363 C3360 1.386 . S
C3364 C3359 1.490 . S
C3364 C3366 1.395 . S
C3364 C3367 1.403 . S
H3365 C3371 0.930 . S
C3366 H3352 0.930 . S
C3366 C3364 1.395 . S
C3366 C3369 1.403 . S
C3367 C3364 1.403 . S
C3367 C3368 1.524 . S
C3367 C3371 1.400 . S
C3368 H3353 0.960 . S
C3368 H3354 0.960 . S
C3368 H3355 0.960 . S
C3368 C3367 1.524 . S
C3369 C3366 1.403 . S
C3369 C3370 1.392 . S
C3369 C3373 1.495 . S
C3370 C3369 1.392 . S
C3370 C3371 1.385 . S
C3370 C3372 1.478 . S
C3371 H3365 0.930 . S
C3371 C3367 1.400 . S
C3371 C3370 1.385 . S
C3372 C3370 1.478 . S
C3372 C3374 1.381 . S
C3372 C3378 1.383 . S
C3373 C3369 1.495 . S
C3373 H3379 0.959 . S
C3373 H3380 0.961 . S
C3373 H3381 0.960 . S
C3374 C3372 1.381 . S
C3374 C3375 1.394 . S
C3374 H3382 0.930 . S
C3375 C3374 1.394 . S
C3375 C3376 1.383 . S
C3375 H3383 0.929 . S
C3376 C3375 1.383 . S
C3376 C3377 1.377 . S
C3377 H3361 0.930 . S
C3377 C3376 1.377 . S
C3377 C3378 1.379 . S
C3378 H3362 0.931 . S
C3378 C3372 1.383 . S
C3378 C3377 1.379 . S
H3379 C3373 0.959 . S
H3380 C3373 0.961 . S
H3381 C3373 0.960 . S
H3382 C3374 0.930 . S
H3383 C3375 0.929 . S
H3384 C3392 0.929 . S
H3385 C3394 0.930 . S
H3386 C3396 0.930 . S
H3387 C3399 0.929 . S
H3388 C3402 0.930 . S
H3389 C3404 0.960 . S
H3390 C3404 0.960 . S
H3391 C3404 0.960 . S
C3392 H3384 0.929 . S
C3392 C3393 1.377 . S
C3392 C3394 1.384 . S
C3393 C3392 1.377 . S
C3393 C3399 1.390 . S
C3394 H3385 0.930 . S
C3394 C3392 1.384 . S
C3394 C3395 1.372 . S
C3395 C3394 1.372 . S
C3395 C3396 1.400 . S
C3395 C3400 1.490 . S
C3396 H3386 0.930 . S
C3396 C3395 1.400 . S
C3396 C3399 1.386 . S
H3397 C3413 0.930 . S
H3398 C3414 0.931 . S
C3399 H3387 0.929 . S
C3399 C3393 1.390 . S
C3399 C3396 1.386 . S
C3400 C3395 1.490 . S
C3400 C3402 1.395 . S
C3400 C3403 1.403 . S
H3401 C3407 0.930 . S
C3402 H3388 0.930 . S
C3402 C3400 1.395 . S
C3402 C3405 1.403 . S
C3403 C3400 1.403 . S
C3403 C3404 1.524 . S
C3403 C3407 1.400 . S
C3404 H3389 0.960 . S
C3404 H3390 0.960 . S
C3404 H3391 0.960 . S
C3404 C3403 1.524 . S
C3405 C3402 1.403 . S
C3405 C3406 1.392 . S
C3405 C3409 1.495 . S
C3406 C3405 1.392 . S
C3406 C3407 1.385 . S
C3406 C3408 1.478 . S
C3407 H3401 0.930 . S
C3407 C3403 1.400 . S
C3407 C3406 1.385 . S
C3408 C3406 1.478 . S
C3408 C3410 1.381 . S
C3408 C3414 1.383 . S
C3409 C3405 1.495 . S
C3409 H3415 0.959 . S
C3409 H3416 0.961 . S
C3409 H3417 0.960 . S
C3410 C3408 1.381 . S
C3410 C3411 1.394 . S
C3410 H3418 0.930 . S
C3411 C3410 1.394 . S
C3411 C3412 1.383 . S
C3411 H3419 0.929 . S
C3412 C3411 1.383 . S
C3412 C3413 1.377 . S
C3413 H3397 0.930 . S
C3413 C3412 1.377 . S
C3413 C3414 1.379 . S
C3414 H3398 0.931 . S
C3414 C3408 1.383 . S
C3414 C3413 1.379 . S
H3415 C3409 0.959 . S
H3416 C3409 0.961 . S
H3417 C3409 0.960 . S
H3418 C3410 0.930 . S
H3419 C3411 0.929 . S
H3420 C3428 0.929 . S
H3421 C3430 0.930 . S
H3422 C3432 0.930 . S
H3423 C3435 0.929 . S
H3424 C3438 0.930 . S
H3425 C3440 0.960 . S
H3426 C3440 0.960 . S
H3427 C3440 0.960 . S
C3428 H3420 0.929 . S
C3428 C3429 1.377 . S
C3428 C3430 1.384 . S
C3429 C3428 1.377 . S
C3429 C3435 1.390 . S
C3430 H3421 0.930 . S
C3430 C3428 1.384 . S
C3430 C3431 1.372 . S
C3431 C3430 1.372 . S
C3431 C3432 1.400 . S
C3431 C3436 1.490 . S
C3432 H3422 0.930 . S
C3432 C3431 1.400 . S
C3432 C3435 1.386 . S
H3433 C3449 0.930 . S
H3434 C3450 0.931 . S
C3435 H3423 0.929 . S
C3435 C3429 1.390 . S
C3435 C3432 1.386 . S
C3436 C3431 1.490 . S
C3436 C3438 1.395 . S
C3436 C3439 1.403 . S
H3437 C3443 0.930 . S
C3438 H3424 0.930 . S
C3438 C3436 1.395 . S
C3438 C3441 1.403 . S
C3439 C3436 1.403 . S
C3439 C3440 1.524 . S
C3439 C3443 1.400 . S
C3440 H3425 0.960 . S
C3440 H3426 0.960 . S
C3440 H3427 0.960 . S
C3440 C3439 1.524 . S
C3441 C3438 1.403 . S
C3441 C3442 1.392 . S
C3441 C3445 1.495 . S
C3442 C3441 1.392 . S
C3442 C3443 1.385 . S
C3442 C3444 1.478 . S
C3443 H3437 0.930 . S
C3443 C3439 1.400 . S
C3443 C3442 1.385 . S
C3444 C3442 1.478 . S
C3444 C3446 1.381 . S
C3444 C3450 1.383 . S
C3445 C3441 1.495 . S
C3445 H3451 0.959 . S
C3445 H3452 0.961 . S
C3445 H3453 0.960 . S
C3446 C3444 1.381 . S
C3446 C3447 1.394 . S
C3446 H3454 0.930 . S
C3447 C3446 1.394 . S
C3447 C3448 1.383 . S
C3447 H3455 0.929 . S
C3448 C3447 1.383 . S
C3448 C3449 1.377 . S
C3449 H3433 0.930 . S
C3449 C3448 1.377 . S
C3449 C3450 1.379 . S
C3450 H3434 0.931 . S
C3450 C3444 1.383 . S
C3450 C3449 1.379 . S
H3451 C3445 0.959 . S
H3452 C3445 0.961 . S
H3453 C3445 0.960 . S
H3454 C3446 0.930 . S
H3455 C3447 0.929 . S
H3456 C3464 0.929 . S
H3457 C3466 0.930 . S
H3458 C3468 0.930 1_554 S
H3459 C3471 0.929 . S
H3460 C3474 0.930 . S
H3461 C3476 0.960 . S
H3462 C3476 0.960 . S
H3463 C3476 0.960 . S
C3464 H3456 0.929 . S
C3464 C3465 1.377 . S
C3464 C3466 1.384 . S
C3465 C3464 1.377 . S
C3465 C3471 1.390 . S
C3466 H3457 0.930 . S
C3466 C3464 1.384 . S
C3466 C3467 1.372 . S
C3467 C3466 1.372 . S
C3467 C3468 1.400 . S
C3467 C3472 1.490 . S
C3468 H3458 0.930 1_556 S
C3468 C3467 1.400 . S
C3468 C3471 1.386 . S
H3469 C3485 0.930 . S
H3470 C3486 0.931 . S
C3471 H3459 0.929 . S
C3471 C3465 1.390 . S
C3471 C3468 1.386 . S
C3472 C3467 1.490 . S
C3472 C3474 1.395 . S
C3472 C3475 1.403 . S
H3473 C3479 0.930 . S
C3474 H3460 0.930 . S
C3474 C3472 1.395 . S
C3474 C3477 1.403 . S
C3475 C3472 1.403 . S
C3475 C3476 1.524 . S
C3475 C3479 1.400 . S
C3476 H3461 0.960 . S
C3476 H3462 0.960 . S
C3476 H3463 0.960 . S
C3476 C3475 1.524 . S
C3477 C3474 1.403 . S
C3477 C3478 1.392 . S
C3477 C3481 1.550 . S
C3478 C3477 1.392 . S
C3478 C3479 1.385 . S
C3478 C3480 1.478 . S
C3479 H3473 0.930 . S
C3479 C3475 1.400 . S
C3479 C3478 1.385 . S
C3480 C3478 1.478 . S
C3480 C3482 1.381 . S
C3480 C3486 1.383 1_556 S
C3481 C3477 1.550 . S
C3481 H3487 0.926 1_455 S
C3481 H3488 0.959 1_455 S
C3481 H3489 0.960 . S
C3482 C3480 1.381 . S
C3482 C3483 1.394 . S
C3482 H3490 0.930 . S
C3483 C3482 1.394 . S
C3483 C3484 1.383 1_556 S
C3483 H3491 0.929 . S
C3484 C3483 1.383 1_554 S
C3484 C3485 1.377 . S
C3485 H3469 0.930 . S
C3485 C3484 1.377 . S
C3485 C3486 1.379 . S
C3486 H3470 0.931 . S
C3486 C3480 1.383 1_554 S
C3486 C3485 1.379 . S
H3487 C3481 0.926 1_655 S
H3488 C3481 0.959 1_655 S
H3489 C3481 0.960 . S
H3490 C3482 0.930 . S
H3491 C3483 0.929 . S
H3492 C3500 0.929 . S
H3493 C3502 0.930 1_655 S
H3494 C3504 0.930 . S
H3495 C3507 0.929 . S
H3496 C3510 0.930 . S
H3497 C3512 0.960 . S
H3498 C3512 0.960 1_455 S
H3499 C3512 0.960 1_455 S
C3500 H3492 0.929 . S
C3500 C3501 1.377 . S
C3500 C3502 1.384 . S
C3501 C3500 1.377 . S
C3501 C3507 1.390 . S
C3502 H3493 0.930 1_455 S
C3502 C3500 1.384 . S
C3502 C3503 1.372 1_455 S
C3503 C3502 1.372 1_655 S
C3503 C3504 1.400 1_655 S
C3503 C3508 1.490 . S
C3504 H3494 0.930 . S
C3504 C3503 1.400 1_455 S
C3504 C3507 1.386 . S
H3505 C3521 0.930 . S
H3506 C3522 0.931 . S
C3507 H3495 0.929 . S
C3507 C3501 1.390 . S
C3507 C3504 1.386 . S
C3508 C3503 1.490 . S
C3508 C3510 1.395 . S
C3508 C3511 1.403 . S
H3509 C3515 0.930 . S
C3510 H3496 0.930 . S
C3510 C3508 1.395 . S
C3510 C3513 1.403 . S
C3511 C3508 1.403 . S
C3511 C3512 1.524 . S
C3511 C3515 1.400 . S
C3512 H3497 0.960 . S
C3512 H3498 0.960 1_655 S
C3512 H3499 0.960 1_655 S
C3512 C3511 1.524 . S
C3513 C3510 1.403 . S
C3513 C3514 1.392 . S
C3513 C3517 1.495 . S
C3514 C3513 1.392 . S
C3514 C3515 1.385 . S
C3514 C3516 1.478 . S
C3515 H3509 0.930 . S
C3515 C3511 1.400 . S
C3515 C3514 1.385 . S
C3516 C3514 1.478 . S
C3516 C3518 1.381 . S
C3516 C3522 1.383 . S
C3517 C3513 1.495 . S
C3517 H3523 0.959 . S
C3517 H3524 0.961 . S
C3517 H3525 0.960 . S
C3518 C3516 1.381 . S
C3518 C3519 1.394 . S
C3518 H3526 0.930 . S
C3519 C3518 1.394 . S
C3519 C3520 1.383 . S
C3519 H3527 0.929 . S
C3520 C3519 1.383 . S
C3520 C3521 1.377 . S
C3521 H3505 0.930 . S
C3521 C3520 1.377 . S
C3521 C3522 1.379 . S
C3522 H3506 0.931 . S
C3522 C3516 1.383 . S
C3522 C3521 1.379 . S
H3523 C3517 0.959 . S
H3524 C3517 0.961 . S
H3525 C3517 0.960 . S
H3526 C3518 0.930 . S
H3527 C3519 0.929 . S
H3528 C3536 0.929 . S
H3529 C3538 0.930 . S
H3530 C3540 0.930 . S
H3531 C3543 0.929 . S
H3532 C3546 0.930 . S
H3533 C3548 0.960 . S
H3534 C3548 0.960 . S
H3535 C3548 0.960 . S
C3536 H3528 0.929 . S
C3536 C3537 1.377 . S
C3536 C3538 1.384 . S
C3537 C3536 1.377 . S
C3537 C3543 1.390 . S
C3538 H3529 0.930 . S
C3538 C3536 1.384 . S
C3538 C3539 1.372 . S
C3539 C3538 1.372 . S
C3539 C3540 1.400 . S
C3539 C3544 1.490 . S
C3540 H3530 0.930 . S
C3540 C3539 1.400 . S
C3540 C3543 1.386 . S
H3541 C3557 0.930 . S
H3542 C3558 0.931 . S
C3543 H3531 0.929 . S
C3543 C3537 1.390 . S
C3543 C3540 1.386 . S
C3544 C3539 1.490 . S
C3544 C3546 1.395 . S
C3544 C3547 1.403 . S
H3545 C3551 0.930 . S
C3546 H3532 0.930 . S
C3546 C3544 1.395 . S
C3546 C3549 1.403 . S
C3547 C3544 1.403 . S
C3547 C3548 1.524 . S
C3547 C3551 1.400 . S
C3548 H3533 0.960 . S
C3548 H3534 0.960 . S
C3548 H3535 0.960 . S
C3548 C3547 1.524 . S
C3549 C3546 1.403 . S
C3549 C3550 1.392 . S
C3549 C3553 1.495 . S
C3550 C3549 1.392 . S
C3550 C3551 1.385 . S
C3550 C3552 1.478 . S
C3551 H3545 0.930 . S
C3551 C3547 1.400 . S
C3551 C3550 1.385 . S
C3552 C3550 1.478 . S
C3552 C3554 1.381 . S
C3552 C3558 1.383 . S
C3553 C3549 1.495 . S
C3553 H3559 0.959 . S
C3553 H3560 0.961 . S
C3553 H3561 0.960 . S
C3554 C3552 1.381 . S
C3554 C3555 1.394 . S
C3554 H3562 0.930 . S
C3555 C3554 1.394 . S
C3555 C3556 1.383 . S
C3555 H3563 0.929 . S
C3556 C3555 1.383 . S
C3556 C3557 1.377 . S
C3557 H3541 0.930 . S
C3557 C3556 1.377 . S
C3557 C3558 1.379 . S
C3558 H3542 0.931 . S
C3558 C3552 1.383 . S
C3558 C3557 1.379 . S
H3559 C3553 0.959 . S
H3560 C3553 0.961 . S
H3561 C3553 0.960 . S
H3562 C3554 0.930 . S
H3563 C3555 0.929 . S
H3564 C3572 0.929 . S
H3565 C3574 0.930 . S
H3566 C3576 0.930 . S
H3567 C3579 0.929 . S
H3568 C3582 0.930 1_455 S
H3569 C3584 0.960 . S
H3570 C3584 0.960 . S
H3571 C3584 0.960 . S
C3572 H3564 0.929 . S
C3572 C3573 1.377 . S
C3572 C3574 1.384 . S
C3573 C3572 1.377 . S
C3573 C3579 1.390 . S
C3574 H3565 0.930 . S
C3574 C3572 1.384 . S
C3574 C3575 1.372 . S
C3575 C3574 1.372 . S
C3575 C3576 1.400 . S
C3575 C3580 1.490 1_455 S
C3576 H3566 0.930 . S
C3576 C3575 1.400 . S
C3576 C3579 1.386 . S
H3577 C3593 0.930 . S
H3578 C3594 0.931 . S
C3579 H3567 0.929 . S
C3579 C3573 1.390 . S
C3579 C3576 1.386 . S
C3580 C3575 1.490 1_655 S
C3580 C3582 1.395 . S
C3580 C3583 1.403 . S
H3581 C3587 0.930 . S
C3582 H3568 0.930 1_655 S
C3582 C3580 1.395 . S
C3582 C3585 1.403 . S
C3583 C3580 1.403 . S
C3583 C3584 1.524 . S
C3583 C3587 1.400 . S
C3584 H3569 0.960 . S
C3584 H3570 0.960 . S
C3584 H3571 0.960 . S
C3584 C3583 1.524 . S
C3585 C3582 1.403 . S
C3585 C3586 1.392 . S
C3585 C3589 1.495 . S
C3586 C3585 1.392 . S
C3586 C3587 1.385 . S
C3586 C3588 1.478 . S
C3587 H3581 0.930 . S
C3587 C3583 1.400 . S
C3587 C3586 1.385 . S
C3588 C3586 1.478 . S
C3588 C3590 1.381 . S
C3588 C3594 1.383 . S
C3589 C3585 1.495 . S
C3589 H3595 0.959 . S
C3589 H3596 0.961 . S
C3589 H3597 0.960 . S
C3590 C3588 1.381 . S
C3590 C3591 1.394 . S
C3590 H3598 0.930 . S
C3591 C3590 1.394 . S
C3591 C3592 1.383 . S
C3591 H3599 0.929 . S
C3592 C3591 1.383 . S
C3592 C3593 1.377 . S
C3593 H3577 0.930 . S
C3593 C3592 1.377 . S
C3593 C3594 1.379 . S
C3594 H3578 0.931 . S
C3594 C3588 1.383 . S
C3594 C3593 1.379 . S
H3595 C3589 0.959 . S
H3596 C3589 0.961 . S
H3597 C3589 0.960 . S
H3598 C3590 0.930 . S
H3599 C3591 0.929 . S
H3600 C3608 0.929 . S
H3601 C3610 0.930 . S
H3602 C3612 0.930 . S
H3603 C3615 0.929 . S
H3604 C3618 0.930 . S
H3605 C3620 0.960 . S
H3606 C3620 0.960 . S
H3607 C3620 0.960 . S
C3608 H3600 0.929 . S
C3608 C3609 1.377 1_455 S
C3608 C3610 1.384 . S
C3609 C3608 1.377 1_655 S
C3609 C3615 1.390 . S
C3610 H3601 0.930 . S
C3610 C3608 1.384 . S
C3610 C3611 1.372 . S
C3611 C3610 1.372 . S
C3611 C3612 1.400 1_455 S
C3611 C3616 1.490 . S
C3612 H3602 0.930 . S
C3612 C3611 1.400 1_655 S
C3612 C3615 1.386 . S
H3613 C3629 0.930 . S
H3614 C3630 0.931 . S
C3615 H3603 0.929 . S
C3615 C3609 1.390 . S
C3615 C3612 1.386 . S
C3616 C3611 1.490 . S
C3616 C3618 1.395 . S
C3616 C3619 1.399 . S
H3617 C3623 0.930 1_655 S
C3618 H3604 0.930 . S
C3618 C3616 1.395 . S
C3618 C3621 1.403 . S
C3619 C3616 1.399 . S
C3619 C3620 1.531 1_455 S
C3619 C3623 1.396 . S
C3620 H3605 0.960 . S
C3620 H3606 0.960 . S
C3620 H3607 0.960 . S
C3620 C3619 1.531 1_655 S
C3621 C3618 1.403 . S
C3621 C3622 1.392 . S
C3621 C3625 1.495 . S
C3622 C3621 1.392 . S
C3622 C3623 1.385 . S
C3622 C3624 1.478 . S
C3623 H3617 0.930 1_455 S
C3623 C3619 1.396 . S
C3623 C3622 1.385 . S
C3624 C3622 1.478 . S
C3624 C3626 1.381 . S
C3624 C3630 1.383 . S
C3625 C3621 1.495 . S
C3625 H3631 0.959 . S
C3625 H3632 0.961 . S
C3625 H3633 0.960 . S
C3626 C3624 1.381 . S
C3626 C3627 1.394 . S
C3626 H3634 0.930 . S
C3627 C3626 1.394 . S
C3627 C3628 1.383 . S
C3627 H3635 0.929 . S
C3628 C3627 1.383 . S
C3628 C3629 1.377 . S
C3629 H3613 0.930 . S
C3629 C3628 1.377 . S
C3629 C3630 1.379 . S
C3630 H3614 0.931 . S
C3630 C3624 1.383 . S
C3630 C3629 1.379 . S
H3631 C3625 0.959 . S
H3632 C3625 0.961 . S
H3633 C3625 0.960 . S
H3634 C3626 0.930 . S
H3635 C3627 0.929 . S
H3636 C3644 0.929 . S
H3637 C3646 0.930 . S
H3638 C3648 0.930 . S
H3639 C3651 0.929 . S
H3640 C3654 0.930 . S
H3641 C3656 0.960 . S
H3642 C3656 0.960 . S
H3643 C3656 0.960 . S
C3644 H3636 0.929 . S
C3644 C3645 1.377 . S
C3644 C3646 1.384 . S
C3645 C3644 1.377 . S
C3645 C3651 1.390 . S
C3646 H3637 0.930 . S
C3646 C3644 1.384 . S
C3646 C3647 1.372 . S
C3647 C3646 1.372 . S
C3647 C3648 1.400 . S
C3647 C3652 1.490 . S
C3648 H3638 0.930 . S
C3648 C3647 1.400 . S
C3648 C3651 1.386 . S
H3649 C3665 0.930 . S
H3650 C3666 0.931 . S
C3651 H3639 0.929 . S
C3651 C3645 1.390 . S
C3651 C3648 1.386 . S
C3652 C3647 1.490 . S
C3652 C3654 1.395 . S
C3652 C3655 1.403 . S
H3653 C3659 0.930 . S
C3654 H3640 0.930 . S
C3654 C3652 1.395 . S
C3654 C3657 1.403 . S
C3655 C3652 1.403 . S
C3655 C3656 1.524 . S
C3655 C3659 1.400 . S
C3656 H3641 0.960 . S
C3656 H3642 0.960 . S
C3656 H3643 0.960 . S
C3656 C3655 1.524 . S
C3657 C3654 1.403 . S
C3657 C3658 1.392 . S
C3657 C3661 1.495 . S
C3658 C3657 1.392 . S
C3658 C3659 1.385 . S
C3658 C3660 1.478 . S
C3659 H3653 0.930 . S
C3659 C3655 1.400 . S
C3659 C3658 1.385 . S
C3660 C3658 1.478 . S
C3660 C3662 1.381 . S
C3660 C3666 1.383 . S
C3661 C3657 1.495 . S
C3661 H3667 0.959 . S
C3661 H3668 0.961 . S
C3661 H3669 0.960 . S
C3662 C3660 1.381 . S
C3662 C3663 1.394 . S
C3662 H3670 0.930 . S
C3663 C3662 1.394 . S
C3663 C3664 1.383 . S
C3663 H3671 0.929 . S
C3664 C3663 1.383 . S
C3664 C3665 1.377 . S
C3665 H3649 0.930 . S
C3665 C3664 1.377 . S
C3665 C3666 1.379 . S
C3666 H3650 0.931 . S
C3666 C3660 1.383 . S
C3666 C3665 1.379 . S
H3667 C3661 0.959 . S
H3668 C3661 0.961 . S
H3669 C3661 0.960 . S
H3670 C3662 0.930 . S
H3671 C3663 0.929 . S
H3672 C3680 0.929 . S
H3673 C3682 0.930 . S
H3674 C3684 0.930 . S
H3675 C3687 0.929 . S
H3676 C3690 0.930 . S
H3677 C3692 0.960 . S
H3678 C3692 0.960 . S
H3679 C3692 0.960 . S
C3680 H3672 0.929 . S
C3680 C3681 1.377 . S
C3680 C3682 1.384 . S
C3681 C3680 1.377 . S
C3681 C3687 1.390 . S
C3682 H3673 0.930 . S
C3682 C3680 1.384 . S
C3682 C3683 1.372 . S
C3683 C3682 1.372 . S
C3683 C3684 1.400 . S
C3683 C3688 1.490 . S
C3684 H3674 0.930 . S
C3684 C3683 1.400 . S
C3684 C3687 1.386 . S
H3685 C3701 0.930 . S
H3686 C3702 0.931 . S
C3687 H3675 0.929 . S
C3687 C3681 1.390 . S
C3687 C3684 1.386 . S
C3688 C3683 1.490 . S
C3688 C3690 1.395 . S
C3688 C3691 1.403 . S
H3689 C3695 0.930 . S
C3690 H3676 0.930 . S
C3690 C3688 1.395 . S
C3690 C3693 1.403 . S
C3691 C3688 1.403 . S
C3691 C3692 1.524 . S
C3691 C3695 1.400 . S
C3692 H3677 0.960 . S
C3692 H3678 0.960 . S
C3692 H3679 0.960 . S
C3692 C3691 1.524 . S
C3693 C3690 1.403 . S
C3693 C3694 1.392 . S
C3693 C3697 1.495 . S
C3694 C3693 1.392 . S
C3694 C3695 1.385 . S
C3694 C3696 1.478 . S
C3695 H3689 0.930 . S
C3695 C3691 1.400 . S
C3695 C3694 1.385 . S
C3696 C3694 1.478 . S
C3696 C3698 1.381 . S
C3696 C3702 1.383 . S
C3697 C3693 1.495 . S
C3697 H3703 0.959 . S
C3697 H3704 0.961 . S
C3697 H3705 0.960 . S
C3698 C3696 1.381 . S
C3698 C3699 1.394 . S
C3698 H3706 0.930 . S
C3699 C3698 1.394 . S
C3699 C3700 1.383 . S
C3699 H3707 0.929 . S
C3700 C3699 1.383 . S
C3700 C3701 1.377 . S
C3701 H3685 0.930 . S
C3701 C3700 1.377 . S
C3701 C3702 1.379 . S
C3702 H3686 0.931 . S
C3702 C3696 1.383 . S
C3702 C3701 1.379 . S
H3703 C3697 0.959 . S
H3704 C3697 0.961 . S
H3705 C3697 0.960 . S
H3706 C3698 0.930 . S
H3707 C3699 0.929 . S
H3708 C3716 0.946 . S
H3709 C3718 0.930 . S
H3710 C3720 0.930 . S
H3711 C3723 0.929 . S
H3712 C3726 0.930 . S
H3713 C3728 0.960 . S
H3714 C3728 0.960 . S
H3715 C3728 0.960 . S
C3716 H3708 0.946 . S
C3716 C3717 1.377 . S
C3716 C3718 1.384 . S
C3717 C3716 1.377 . S
C3717 C3723 1.390 . S
C3718 H3709 0.930 . S
C3718 C3716 1.384 . S
C3718 C3719 1.372 . S
C3719 C3718 1.372 . S
C3719 C3720 1.400 . S
C3719 C3724 1.490 . S
C3720 H3710 0.930 . S
C3720 C3719 1.400 . S
C3720 C3723 1.386 . S
H3721 C3737 0.930 . S
H3722 C3738 0.931 . S
C3723 H3711 0.929 . S
C3723 C3717 1.390 . S
C3723 C3720 1.386 . S
C3724 C3719 1.490 . S
C3724 C3726 1.395 . S
C3724 C3727 1.403 . S
H3725 C3731 0.930 . S
C3726 H3712 0.930 . S
C3726 C3724 1.395 . S
C3726 C3729 1.403 . S
C3727 C3724 1.403 . S
C3727 C3728 1.524 . S
C3727 C3731 1.400 . S
C3728 H3713 0.960 . S
C3728 H3714 0.960 . S
C3728 H3715 0.960 . S
C3728 C3727 1.524 . S
C3729 C3726 1.403 . S
C3729 C3730 1.392 . S
C3729 C3733 1.495 . S
C3730 C3729 1.392 . S
C3730 C3731 1.385 . S
C3730 C3732 1.478 . S
C3731 H3725 0.930 . S
C3731 C3727 1.400 . S
C3731 C3730 1.385 . S
C3732 C3730 1.478 . S
C3732 C3734 1.381 . S
C3732 C3738 1.383 . S
C3733 C3729 1.495 . S
C3733 H3739 0.959 . S
C3733 H3740 0.961 . S
C3733 H3741 0.960 . S
C3734 C3732 1.381 . S
C3734 C3735 1.394 . S
C3734 H3742 0.930 . S
C3735 C3734 1.394 . S
C3735 C3736 1.383 . S
C3735 H3743 0.929 . S
C3736 C3735 1.383 . S
C3736 C3737 1.377 . S
C3737 H3721 0.930 . S
C3737 C3736 1.377 . S
C3737 C3738 1.379 . S
C3738 H3722 0.931 . S
C3738 C3732 1.383 . S
C3738 C3737 1.379 . S
H3739 C3733 0.959 . S
H3740 C3733 0.961 . S
H3741 C3733 0.960 . S
H3742 C3734 0.930 . S
H3743 C3735 0.929 . S
H3744 C3752 0.929 . S
H3745 C3754 0.930 . S
H3746 C3756 0.930 . S
H3747 C3759 0.929 . S
H3748 C3762 0.930 . S
H3749 C3764 0.960 . S
H3750 C3764 0.960 . S
H3751 C3764 0.960 . S
C3752 H3744 0.929 . S
C3752 C3753 1.377 . S
C3752 C3754 1.384 . S
C3753 C3752 1.377 . S
C3753 C3759 1.390 . S
C3754 H3745 0.930 . S
C3754 C3752 1.384 . S
C3754 C3755 1.372 . S
C3755 C3754 1.372 . S
C3755 C3756 1.400 . S
C3755 C3760 1.490 . S
C3756 H3746 0.930 . S
C3756 C3755 1.400 . S
C3756 C3759 1.386 . S
H3757 C3773 0.930 . S
H3758 C3774 0.931 . S
C3759 H3747 0.929 . S
C3759 C3753 1.390 . S
C3759 C3756 1.386 . S
C3760 C3755 1.490 . S
C3760 C3762 1.395 . S
C3760 C3763 1.403 . S
H3761 C3767 0.930 . S
C3762 H3748 0.930 . S
C3762 C3760 1.395 . S
C3762 C3765 1.403 . S
C3763 C3760 1.403 . S
C3763 C3764 1.524 . S
C3763 C3767 1.400 . S
C3764 H3749 0.960 . S
C3764 H3750 0.960 . S
C3764 H3751 0.960 . S
C3764 C3763 1.524 . S
C3765 C3762 1.403 . S
C3765 C3766 1.392 . S
C3765 C3769 1.495 . S
C3766 C3765 1.392 . S
C3766 C3767 1.385 . S
C3766 C3768 1.478 . S
C3767 H3761 0.930 . S
C3767 C3763 1.400 . S
C3767 C3766 1.385 . S
C3768 C3766 1.478 . S
C3768 C3770 1.381 . S
C3768 C3774 1.383 . S
C3769 C3765 1.495 . S
C3769 H3775 0.959 . S
C3769 H3776 0.961 . S
C3769 H3777 0.960 . S
C3770 C3768 1.381 . S
C3770 C3771 1.394 . S
C3770 H3778 0.930 . S
C3771 C3770 1.394 . S
C3771 C3772 1.383 . S
C3771 H3779 0.929 . S
C3772 C3771 1.383 . S
C3772 C3773 1.377 . S
C3773 H3757 0.930 . S
C3773 C3772 1.377 . S
C3773 C3774 1.379 . S
C3774 H3758 0.931 . S
C3774 C3768 1.383 . S
C3774 C3773 1.379 . S
H3775 C3769 0.959 . S
H3776 C3769 0.961 . S
H3777 C3769 0.960 . S
H3778 C3770 0.930 . S
H3779 C3771 0.929 . S
H3780 C3788 0.929 . S
H3781 C3790 0.930 . S
H3782 C3792 0.930 . S
H3783 C3795 0.929 . S
H3784 C3798 0.930 . S
H3785 C3800 0.960 . S
H3786 C3800 0.960 . S
H3787 C3800 0.960 . S
C3788 H3780 0.929 . S
C3788 C3789 1.377 . S
C3788 C3790 1.384 . S
C3789 C3788 1.377 . S
C3789 C3795 1.390 . S
C3790 H3781 0.930 . S
C3790 C3788 1.384 . S
C3790 C3791 1.372 . S
C3791 C3790 1.372 . S
C3791 C3792 1.400 . S
C3791 C3796 1.490 . S
C3792 H3782 0.930 . S
C3792 C3791 1.400 . S
C3792 C3795 1.386 . S
H3793 C3809 0.930 . S
H3794 C3810 0.931 . S
C3795 H3783 0.929 . S
C3795 C3789 1.390 . S
C3795 C3792 1.386 . S
C3796 C3791 1.490 . S
C3796 C3798 1.395 . S
C3796 C3799 1.403 . S
H3797 C3803 0.930 . S
C3798 H3784 0.930 . S
C3798 C3796 1.395 . S
C3798 C3801 1.403 . S
C3799 C3796 1.403 . S
C3799 C3800 1.524 . S
C3799 C3803 1.400 . S
C3800 H3785 0.960 . S
C3800 H3786 0.960 . S
C3800 H3787 0.960 . S
C3800 C3799 1.524 . S
C3801 C3798 1.403 . S
C3801 C3802 1.392 . S
C3801 C3805 1.495 . S
C3802 C3801 1.392 . S
C3802 C3803 1.385 . S
C3802 C3804 1.478 . S
C3803 H3797 0.930 . S
C3803 C3799 1.400 . S
C3803 C3802 1.385 . S
C3804 C3802 1.478 . S
C3804 C3806 1.381 . S
C3804 C3810 1.383 . S
C3805 C3801 1.495 . S
C3805 H3811 0.959 . S
C3805 H3812 0.961 . S
C3805 H3813 0.960 . S
C3806 C3804 1.381 . S
C3806 C3807 1.394 . S
C3806 H3814 0.930 . S
C3807 C3806 1.394 . S
C3807 C3808 1.383 . S
C3807 H3815 0.929 . S
C3808 C3807 1.383 . S
C3808 C3809 1.377 . S
C3809 H3793 0.930 . S
C3809 C3808 1.377 . S
C3809 C3810 1.379 . S
C3810 H3794 0.931 . S
C3810 C3804 1.383 . S
C3810 C3809 1.379 . S
H3811 C3805 0.959 . S
H3812 C3805 0.961 . S
H3813 C3805 0.960 . S
H3814 C3806 0.930 . S
H3815 C3807 0.929 . S
H3816 C3824 0.929 . S
H3817 C3826 0.930 . S
H3818 C3828 0.930 . S
H3819 C3831 0.929 . S
H3820 C3834 0.930 . S
H3821 C3836 0.960 . S
H3822 C3836 0.960 . S
H3823 C3836 0.960 . S
C3824 H3816 0.929 . S
C3824 C3825 1.377 . S
C3824 C3826 1.384 . S
C3825 C3824 1.377 . S
C3825 C3831 1.390 . S
C3826 H3817 0.930 . S
C3826 C3824 1.384 . S
C3826 C3827 1.372 . S
C3827 C3826 1.372 . S
C3827 C3828 1.400 . S
C3827 C3832 1.490 . S
C3828 H3818 0.930 . S
C3828 C3827 1.400 . S
C3828 C3831 1.386 . S
H3829 C3845 0.930 . S
H3830 C3846 0.931 . S
C3831 H3819 0.929 . S
C3831 C3825 1.390 . S
C3831 C3828 1.386 . S
C3832 C3827 1.490 . S
C3832 C3834 1.395 . S
C3832 C3835 1.403 . S
H3833 C3839 0.930 . S
C3834 H3820 0.930 . S
C3834 C3832 1.395 . S
C3834 C3837 1.403 . S
C3835 C3832 1.403 . S
C3835 C3836 1.524 . S
C3835 C3839 1.400 . S
C3836 H3821 0.960 . S
C3836 H3822 0.960 . S
C3836 H3823 0.960 . S
C3836 C3835 1.524 . S
C3837 C3834 1.403 . S
C3837 C3838 1.392 . S
C3837 C3841 1.495 . S
C3838 C3837 1.392 . S
C3838 C3839 1.385 . S
C3838 C3840 1.478 . S
C3839 H3833 0.930 . S
C3839 C3835 1.400 . S
C3839 C3838 1.385 . S
C3840 C3838 1.478 . S
C3840 C3842 1.381 . S
C3840 C3846 1.383 . S
C3841 C3837 1.495 . S
C3841 H3847 0.959 . S
C3841 H3848 0.961 . S
C3841 H3849 0.960 . S
C3842 C3840 1.381 . S
C3842 C3843 1.394 . S
C3842 H3850 0.930 . S
C3843 C3842 1.394 . S
C3843 C3844 1.383 . S
C3843 H3851 0.929 . S
C3844 C3843 1.383 . S
C3844 C3845 1.377 . S
C3845 H3829 0.930 . S
C3845 C3844 1.377 . S
C3845 C3846 1.379 . S
C3846 H3830 0.931 . S
C3846 C3840 1.383 . S
C3846 C3845 1.379 . S
H3847 C3841 0.959 . S
H3848 C3841 0.961 . S
H3849 C3841 0.960 . S
H3850 C3842 0.930 . S
H3851 C3843 0.929 . S
H3852 C3860 0.929 . S
H3853 C3862 0.930 . S
H3854 C3864 0.930 . S
H3855 C3867 0.929 . S
H3856 C3870 0.930 . S
H3857 C3872 0.960 . S
H3858 C3872 0.960 . S
H3859 C3872 0.960 . S
C3860 H3852 0.929 . S
C3860 C3861 1.377 . S
C3860 C3862 1.384 . S
C3861 C3860 1.377 . S
C3861 C3867 1.390 . S
C3862 H3853 0.930 . S
C3862 C3860 1.384 . S
C3862 C3863 1.372 . S
C3863 C3862 1.372 . S
C3863 C3864 1.400 . S
C3863 C3868 1.490 . S
C3864 H3854 0.930 . S
C3864 C3863 1.400 . S
C3864 C3867 1.386 . S
H3865 C3881 0.930 . S
H3866 C3882 0.931 . S
C3867 H3855 0.929 . S
C3867 C3861 1.390 . S
C3867 C3864 1.386 . S
C3868 C3863 1.490 . S
C3868 C3870 1.395 . S
C3868 C3871 1.403 . S
H3869 C3875 0.930 . S
C3870 H3856 0.930 . S
C3870 C3868 1.395 . S
C3870 C3873 1.403 . S
C3871 C3868 1.403 . S
C3871 C3872 1.524 . S
C3871 C3875 1.400 . S
C3872 H3857 0.960 . S
C3872 H3858 0.960 . S
C3872 H3859 0.960 . S
C3872 C3871 1.524 . S
C3873 C3870 1.403 . S
C3873 C3874 1.392 . S
C3873 C3877 1.495 . S
C3874 C3873 1.392 . S
C3874 C3875 1.385 . S
C3874 C3876 1.478 . S
C3875 H3869 0.930 . S
C3875 C3871 1.400 . S
C3875 C3874 1.385 . S
C3876 C3874 1.478 . S
C3876 C3878 1.381 . S
C3876 C3882 1.383 . S
C3877 C3873 1.495 . S
C3877 H3883 0.959 . S
C3877 H3884 0.961 . S
C3877 H3885 0.960 . S
C3878 C3876 1.381 . S
C3878 C3879 1.394 . S
C3878 H3886 0.930 . S
C3879 C3878 1.394 . S
C3879 C3880 1.383 . S
C3879 H3887 0.929 . S
C3880 C3879 1.383 . S
C3880 C3881 1.377 . S
C3881 H3865 0.930 . S
C3881 C3880 1.377 . S
C3881 C3882 1.379 . S
C3882 H3866 0.931 . S
C3882 C3876 1.383 . S
C3882 C3881 1.379 . S
H3883 C3877 0.959 . S
H3884 C3877 0.961 . S
H3885 C3877 0.960 . S
H3886 C3878 0.930 . S
H3887 C3879 0.929 . S
H3888 C3896 0.929 . S
H3889 C3898 0.930 . S
H3890 C3900 0.930 . S
H3891 C3903 0.929 . S
H3892 C3906 0.930 . S
H3893 C3908 0.960 . S
H3894 C3908 0.960 . S
H3895 C3908 0.960 . S
C3896 H3888 0.929 . S
C3896 C3897 1.377 . S
C3896 C3898 1.384 . S
C3897 C3896 1.377 . S
C3897 C3903 1.390 . S
C3898 H3889 0.930 . S
C3898 C3896 1.384 . S
C3898 C3899 1.372 . S
C3899 C3898 1.372 . S
C3899 C3900 1.400 . S
C3899 C3904 1.490 . S
C3900 H3890 0.930 . S
C3900 C3899 1.400 . S
C3900 C3903 1.386 . S
H3901 C3917 0.930 . S
H3902 C3918 0.931 . S
C3903 H3891 0.929 . S
C3903 C3897 1.390 . S
C3903 C3900 1.386 . S
C3904 C3899 1.490 . S
C3904 C3906 1.395 . S
C3904 C3907 1.403 . S
H3905 C3911 0.930 . S
C3906 H3892 0.930 . S
C3906 C3904 1.395 . S
C3906 C3909 1.403 . S
C3907 C3904 1.403 . S
C3907 C3908 1.524 . S
C3907 C3911 1.400 . S
C3908 H3893 0.960 . S
C3908 H3894 0.960 . S
C3908 H3895 0.960 . S
C3908 C3907 1.524 . S
C3909 C3906 1.403 . S
C3909 C3910 1.392 . S
C3909 C3913 1.495 . S
C3910 C3909 1.392 . S
C3910 C3911 1.385 . S
C3910 C3912 1.478 . S
C3911 H3905 0.930 . S
C3911 C3907 1.400 . S
C3911 C3910 1.385 . S
C3912 C3910 1.478 . S
C3912 C3914 1.381 . S
C3912 C3918 1.383 . S
C3913 C3909 1.495 . S
C3913 H3919 0.959 . S
C3913 H3920 0.961 . S
C3913 H3921 0.960 . S
C3914 C3912 1.381 . S
C3914 C3915 1.394 . S
C3914 H3922 0.930 . S
C3915 C3914 1.394 . S
C3915 C3916 1.383 . S
C3915 H3923 0.929 . S
C3916 C3915 1.383 . S
C3916 C3917 1.377 . S
C3917 H3901 0.930 . S
C3917 C3916 1.377 . S
C3917 C3918 1.379 . S
C3918 H3902 0.931 . S
C3918 C3912 1.383 . S
C3918 C3917 1.379 . S
H3919 C3913 0.959 . S
H3920 C3913 0.961 . S
H3921 C3913 0.960 . S
H3922 C3914 0.930 . S
H3923 C3915 0.929 . S
H3924 C3932 0.929 . S
H3925 C3934 0.930 . S
H3926 C3936 0.930 . S
H3927 C3939 0.929 . S
H3928 C3942 0.930 . S
H3929 C3944 0.960 . S
H3930 C3944 0.960 . S
H3931 C3944 0.960 . S
C3932 H3924 0.929 . S
C3932 C3933 1.377 . S
C3932 C3934 1.384 . S
C3933 C3932 1.377 . S
C3933 C3939 1.390 . S
C3934 H3925 0.930 . S
C3934 C3932 1.384 . S
C3934 C3935 1.372 . S
C3935 C3934 1.372 . S
C3935 C3936 1.400 . S
C3935 C3940 1.490 . S
C3936 H3926 0.930 . S
C3936 C3935 1.400 . S
C3936 C3939 1.386 . S
H3937 C3953 0.930 . S
H3938 C3954 0.931 . S
C3939 H3927 0.929 . S
C3939 C3933 1.390 . S
C3939 C3936 1.386 . S
C3940 C3935 1.490 . S
C3940 C3942 1.395 . S
C3940 C3943 1.403 . S
H3941 C3947 0.930 . S
C3942 H3928 0.930 . S
C3942 C3940 1.395 . S
C3942 C3945 1.403 . S
C3943 C3940 1.403 . S
C3943 C3944 1.524 . S
C3943 C3947 1.400 . S
C3944 H3929 0.960 . S
C3944 H3930 0.960 . S
C3944 H3931 0.960 . S
C3944 C3943 1.524 . S
C3945 C3942 1.403 . S
C3945 C3946 1.392 . S
C3945 C3949 1.495 . S
C3946 C3945 1.392 . S
C3946 C3947 1.385 . S
C3946 C3948 1.478 . S
C3947 H3941 0.930 . S
C3947 C3943 1.400 . S
C3947 C3946 1.385 . S
C3948 C3946 1.478 . S
C3948 C3950 1.381 . S
C3948 C3954 1.383 . S
C3949 C3945 1.495 . S
C3949 H3955 0.959 . S
C3949 H3956 0.961 . S
C3949 H3957 0.960 . S
C3950 C3948 1.381 . S
C3950 C3951 1.394 . S
C3950 H3958 0.930 . S
C3951 C3950 1.394 . S
C3951 C3952 1.383 . S
C3951 H3959 0.929 . S
C3952 C3951 1.383 . S
C3952 C3953 1.377 . S
C3953 H3937 0.930 . S
C3953 C3952 1.377 . S
C3953 C3954 1.379 . S
C3954 H3938 0.931 . S
C3954 C3948 1.383 . S
C3954 C3953 1.379 . S
H3955 C3949 0.959 . S
H3956 C3949 0.961 . S
H3957 C3949 0.960 . S
H3958 C3950 0.930 . S
H3959 C3951 0.929 . S
H3960 C3968 0.929 . S
H3961 C3970 0.930 . S
H3962 C3972 0.930 . S
H3963 C3975 0.929 . S
H3964 C3978 0.930 . S
H3965 C3980 0.960 . S
H3966 C3980 0.960 . S
H3967 C3980 0.960 . S
C3968 H3960 0.929 . S
C3968 C3969 1.377 . S
C3968 C3970 1.384 . S
C3969 C3968 1.377 . S
C3969 C3975 1.390 . S
C3970 H3961 0.930 . S
C3970 C3968 1.384 . S
C3970 C3971 1.372 . S
C3971 C3970 1.372 . S
C3971 C3972 1.400 . S
C3971 C3976 1.490 . S
C3972 H3962 0.930 . S
C3972 C3971 1.400 . S
C3972 C3975 1.386 . S
H3973 C3989 0.930 . S
H3974 C3990 0.931 . S
C3975 H3963 0.929 . S
C3975 C3969 1.390 . S
C3975 C3972 1.386 . S
C3976 C3971 1.490 . S
C3976 C3978 1.395 . S
C3976 C3979 1.403 . S
H3977 C3983 0.930 . S
C3978 H3964 0.930 . S
C3978 C3976 1.395 . S
C3978 C3981 1.403 . S
C3979 C3976 1.403 . S
C3979 C3980 1.524 . S
C3979 C3983 1.400 . S
C3980 H3965 0.960 . S
C3980 H3966 0.960 . S
C3980 H3967 0.960 . S
C3980 C3979 1.524 . S
C3981 C3978 1.403 . S
C3981 C3982 1.392 . S
C3981 C3985 1.495 . S
C3982 C3981 1.392 . S
C3982 C3983 1.385 . S
C3982 C3984 1.478 . S
C3983 H3977 0.930 . S
C3983 C3979 1.400 . S
C3983 C3982 1.385 . S
C3984 C3982 1.478 . S
C3984 C3986 1.381 . S
C3984 C3990 1.383 . S
C3985 C3981 1.495 . S
C3985 H3991 0.959 . S
C3985 H3992 0.961 . S
C3985 H3993 0.960 . S
C3986 C3984 1.381 . S
C3986 C3987 1.394 . S
C3986 H3994 0.930 . S
C3987 C3986 1.394 . S
C3987 C3988 1.383 . S
C3987 H3995 0.929 . S
C3988 C3987 1.383 . S
C3988 C3989 1.377 . S
C3989 H3973 0.930 . S
C3989 C3988 1.377 . S
C3989 C3990 1.379 . S
C3990 H3974 0.931 . S
C3990 C3984 1.383 . S
C3990 C3989 1.379 . S
H3991 C3985 0.959 . S
H3992 C3985 0.961 . S
H3993 C3985 0.960 . S
H3994 C3986 0.930 . S
H3995 C3987 0.929 . S
H3996 C4004 0.929 . S
H3997 C4006 0.930 . S
H3998 C4008 0.930 . S
H3999 C4011 0.929 . S
H4000 C4014 0.930 . S
H4001 C4016 0.960 . S
H4002 C4016 0.960 . S
H4003 C4016 0.960 . S
C4004 H3996 0.929 . S
C4004 C4005 1.377 . S
C4004 C4006 1.384 . S
C4005 C4004 1.377 . S
C4005 C4011 1.390 . S
C4006 H3997 0.930 . S
C4006 C4004 1.384 . S
C4006 C4007 1.372 . S
C4007 C4006 1.372 . S
C4007 C4008 1.400 . S
C4007 C4012 1.490 . S
C4008 H3998 0.930 . S
C4008 C4007 1.400 . S
C4008 C4011 1.386 . S
H4009 C4025 0.930 . S
H4010 C4026 0.931 . S
C4011 H3999 0.929 . S
C4011 C4005 1.390 . S
C4011 C4008 1.386 . S
C4012 C4007 1.490 . S
C4012 C4014 1.395 . S
C4012 C4015 1.403 . S
H4013 C4019 0.930 . S
C4014 H4000 0.930 . S
C4014 C4012 1.395 . S
C4014 C4017 1.403 . S
C4015 C4012 1.403 . S
C4015 C4016 1.524 . S
C4015 C4019 1.400 . S
C4016 H4001 0.960 . S
C4016 H4002 0.960 . S
C4016 H4003 0.960 . S
C4016 C4015 1.524 . S
C4017 C4014 1.403 . S
C4017 C4018 1.392 . S
C4017 C4021 1.495 . S
C4018 C4017 1.392 . S
C4018 C4019 1.385 . S
C4018 C4020 1.478 . S
C4019 H4013 0.930 . S
C4019 C4015 1.400 . S
C4019 C4018 1.385 . S
C4020 C4018 1.478 . S
C4020 C4022 1.381 . S
C4020 C4026 1.383 . S
C4021 C4017 1.495 . S
C4021 H4027 0.959 . S
C4021 H4028 0.961 . S
C4021 H4029 0.960 . S
C4022 C4020 1.381 . S
C4022 C4023 1.394 . S
C4022 H4030 0.930 . S
C4023 C4022 1.394 . S
C4023 C4024 1.383 . S
C4023 H4031 0.929 . S
C4024 C4023 1.383 . S
C4024 C4025 1.377 . S
C4025 H4009 0.930 . S
C4025 C4024 1.377 . S
C4025 C4026 1.379 . S
C4026 H4010 0.931 . S
C4026 C4020 1.383 . S
C4026 C4025 1.379 . S
H4027 C4021 0.959 . S
H4028 C4021 0.961 . S
H4029 C4021 0.960 . S
H4030 C4022 0.930 . S
H4031 C4023 0.929 . S
H4032 C4040 0.929 . S
H4033 C4042 0.930 . S
H4034 C4044 0.930 . S
H4035 C4047 0.929 . S
H4036 C4050 0.930 . S
H4037 C4052 0.960 . S
H4038 C4052 0.960 . S
H4039 C4052 0.960 . S
C4040 H4032 0.929 . S
C4040 C4041 1.377 . S
C4040 C4042 1.384 . S
C4041 C4040 1.377 . S
C4041 C4047 1.390 . S
C4042 H4033 0.930 . S
C4042 C4040 1.384 . S
C4042 C4043 1.372 . S
C4043 C4042 1.372 . S
C4043 C4044 1.400 . S
C4043 C4048 1.490 . S
C4044 H4034 0.930 . S
C4044 C4043 1.400 . S
C4044 C4047 1.386 . S
H4045 C4061 0.930 . S
H4046 C4062 0.931 . S
C4047 H4035 0.929 . S
C4047 C4041 1.390 . S
C4047 C4044 1.386 . S
C4048 C4043 1.490 . S
C4048 C4050 1.395 . S
C4048 C4051 1.403 . S
H4049 C4055 0.930 . S
C4050 H4036 0.930 . S
C4050 C4048 1.395 . S
C4050 C4053 1.403 . S
C4051 C4048 1.403 . S
C4051 C4052 1.524 . S
C4051 C4055 1.400 . S
C4052 H4037 0.960 . S
C4052 H4038 0.960 . S
C4052 H4039 0.960 . S
C4052 C4051 1.524 . S
C4053 C4050 1.403 . S
C4053 C4054 1.392 . S
C4053 C4057 1.495 . S
C4054 C4053 1.392 . S
C4054 C4055 1.385 . S
C4054 C4056 1.478 . S
C4055 H4049 0.930 . S
C4055 C4051 1.400 . S
C4055 C4054 1.385 . S
C4056 C4054 1.478 . S
C4056 C4058 1.381 . S
C4056 C4062 1.383 . S
C4057 C4053 1.495 . S
C4057 H4063 0.959 . S
C4057 H4064 0.961 . S
C4057 H4065 0.960 . S
C4058 C4056 1.381 . S
C4058 C4059 1.394 . S
C4058 H4066 0.930 . S
C4059 C4058 1.394 . S
C4059 C4060 1.383 . S
C4059 H4067 0.929 . S
C4060 C4059 1.383 . S
C4060 C4061 1.377 . S
C4061 H4045 0.930 . S
C4061 C4060 1.377 . S
C4061 C4062 1.379 . S
C4062 H4046 0.931 . S
C4062 C4056 1.383 . S
C4062 C4061 1.379 . S
H4063 C4057 0.959 . S
H4064 C4057 0.961 . S
H4065 C4057 0.960 . S
H4066 C4058 0.930 . S
H4067 C4059 0.929 . S
H4068 C4076 0.929 . S
H4069 C4078 0.948 . S
H4070 C4080 0.930 . S
H4071 C4083 0.929 . S
H4072 C4086 0.930 . S
H4073 C4088 0.960 . S
H4074 C4088 0.960 . S
H4075 C4088 0.960 . S
C4076 H4068 0.929 . S
C4076 C4077 1.377 . S
C4076 C4078 1.384 . S
C4077 C4076 1.377 . S
C4077 C4083 1.390 . S
C4078 H4069 0.948 . S
C4078 C4076 1.384 . S
C4078 C4079 1.372 . S
C4079 C4078 1.372 . S
C4079 C4080 1.400 . S
C4079 C4084 1.490 . S
C4080 H4070 0.930 . S
C4080 C4079 1.400 . S
C4080 C4083 1.386 . S
H4081 C4097 0.930 1_565 S
H4082 C4098 0.931 . S
C4083 H4071 0.929 . S
C4083 C4077 1.390 . S
C4083 C4080 1.386 . S
C4084 C4079 1.490 . S
C4084 C4086 1.395 . S
C4084 C4087 1.403 . S
H4085 C4091 0.930 1_556 S
C4086 H4072 0.930 . S
C4086 C4084 1.395 . S
C4086 C4089 1.410 . S
C4087 C4084 1.403 . S
C4087 C4088 1.524 1_554 S
C4087 C4091 1.400 . S
C4088 H4073 0.960 . S
C4088 H4074 0.960 . S
C4088 H4075 0.960 . S
C4088 C4087 1.524 1_556 S
C4089 C4086 1.410 . S
C4089 C4090 1.391 . S
C4089 C4093 1.493 1_565 S
C4090 C4089 1.391 . S
C4090 C4091 1.387 . S
C4090 C4092 1.475 1_565 S
C4091 H4085 0.930 1_554 S
C4091 C4087 1.400 . S
C4091 C4090 1.387 . S
C4092 C4090 1.475 1_545 S
C4092 C4094 1.381 . S
C4092 C4098 1.383 1_545 S
C4093 C4089 1.493 1_545 S
C4093 H4099 0.959 . S
C4093 H4100 0.952 1_545 S
C4093 H4101 0.960 . S
C4094 C4092 1.381 . S
C4094 C4095 1.394 . S
C4094 H4102 0.930 . S
C4095 C4094 1.394 . S
C4095 C4096 1.383 . S
C4095 H4103 0.929 . S
C4096 C4095 1.383 . S
C4096 C4097 1.377 . S
C4097 H4081 0.930 1_545 S
C4097 C4096 1.377 . S
C4097 C4098 1.379 1_545 S
C4098 H4082 0.931 . S
C4098 C4092 1.383 1_565 S
C4098 C4097 1.379 1_565 S
H4099 C4093 0.959 . S
H4100 C4093 0.952 1_565 S
H4101 C4093 0.960 . S
H4102 C4094 0.930 . S
H4103 C4095 0.929 . S
H4104 C4112 0.929 . S
H4105 C4114 0.930 . S
H4106 C4116 0.930 . S
H4107 C4119 0.929 . S
H4108 C4122 0.930 . S
H4109 C4124 0.960 . S
H4110 C4124 0.960 . S
H4111 C4124 0.960 . S
C4112 H4104 0.929 . S
C4112 C4113 1.377 . S
C4112 C4114 1.384 . S
C4113 C4112 1.377 . S
C4113 C4119 1.390 . S
C4114 H4105 0.930 . S
C4114 C4112 1.384 . S
C4114 C4115 1.372 . S
C4115 C4114 1.372 . S
C4115 C4116 1.400 . S
C4115 C4120 1.490 . S
C4116 H4106 0.930 . S
C4116 C4115 1.400 . S
C4116 C4119 1.386 . S
H4117 C4133 0.930 . S
H4118 C4134 0.931 . S
C4119 H4107 0.929 . S
C4119 C4113 1.390 . S
C4119 C4116 1.386 . S
C4120 C4115 1.490 . S
C4120 C4122 1.395 . S
C4120 C4123 1.403 . S
H4121 C4127 0.930 . S
C4122 H4108 0.930 . S
C4122 C4120 1.395 . S
C4122 C4125 1.403 . S
C4123 C4120 1.403 . S
C4123 C4124 1.524 . S
C4123 C4127 1.400 . S
C4124 H4109 0.960 . S
C4124 H4110 0.960 . S
C4124 H4111 0.960 . S
C4124 C4123 1.524 . S
C4125 C4122 1.403 . S
C4125 C4126 1.392 . S
C4125 C4129 1.495 . S
C4126 C4125 1.392 . S
C4126 C4127 1.385 . S
C4126 C4128 1.478 . S
C4127 H4121 0.930 . S
C4127 C4123 1.400 . S
C4127 C4126 1.385 . S
C4128 C4126 1.478 . S
C4128 C4130 1.381 . S
C4128 C4134 1.383 . S
C4129 C4125 1.495 . S
C4129 H4135 0.959 . S
C4129 H4136 0.961 . S
C4129 H4137 0.960 . S
C4130 C4128 1.381 . S
C4130 C4131 1.394 . S
C4130 H4138 0.930 . S
C4131 C4130 1.394 . S
C4131 C4132 1.383 . S
C4131 H4139 0.929 . S
C4132 C4131 1.383 . S
C4132 C4133 1.377 . S
C4133 H4117 0.930 . S
C4133 C4132 1.377 . S
C4133 C4134 1.379 . S
C4134 H4118 0.931 . S
C4134 C4128 1.383 . S
C4134 C4133 1.379 . S
H4135 C4129 0.959 . S
H4136 C4129 0.961 . S
H4137 C4129 0.960 . S
H4138 C4130 0.930 . S
H4139 C4131 0.929 . S
H4140 C4148 0.929 . S
H4141 C4150 0.930 . S
H4142 C4152 0.930 . S
H4143 C4155 0.929 . S
H4144 C4158 0.930 . S
H4145 C4160 0.960 . S
H4146 C4160 0.960 . S
H4147 C4160 0.960 . S
C4148 H4140 0.929 . S
C4148 C4149 1.377 . S
C4148 C4150 1.384 . S
C4149 C4148 1.377 . S
C4149 C4155 1.390 1_556 S
C4150 H4141 0.930 . S
C4150 C4148 1.384 . S
C4150 C4151 1.372 1_556 S
C4151 C4150 1.372 1_554 S
C4151 C4152 1.400 . S
C4151 C4156 1.490 . S
C4152 H4142 0.930 . S
C4152 C4151 1.400 . S
C4152 C4155 1.386 . S
H4153 C4169 0.930 . S
H4154 C4170 0.931 . S
C4155 H4143 0.929 . S
C4155 C4149 1.390 1_554 S
C4155 C4152 1.386 . S
C4156 C4151 1.490 . S
C4156 C4158 1.395 . S
C4156 C4159 1.403 . S
H4157 C4163 0.930 . S
C4158 H4144 0.930 . S
C4158 C4156 1.395 . S
C4158 C4161 1.403 . S
C4159 C4156 1.403 . S
C4159 C4160 1.524 1_554 S
C4159 C4163 1.400 . S
C4160 H4145 0.960 . S
C4160 H4146 0.960 . S
C4160 H4147 0.960 . S
C4160 C4159 1.524 1_556 S
C4161 C4158 1.403 . S
C4161 C4162 1.392 . S
C4161 C4165 1.495 . S
C4162 C4161 1.392 . S
C4162 C4163 1.385 . S
C4162 C4164 1.478 . S
C4163 H4157 0.930 . S
C4163 C4159 1.400 . S
C4163 C4162 1.385 . S
C4164 C4162 1.478 . S
C4164 C4166 1.381 . S
C4164 C4170 1.383 . S
C4165 C4161 1.495 . S
C4165 H4171 0.959 . S
C4165 H4172 0.961 . S
C4165 H4173 0.960 . S
C4166 C4164 1.381 . S
C4166 C4167 1.394 . S
C4166 H4174 0.930 . S
C4167 C4166 1.394 . S
C4167 C4168 1.383 . S
C4167 H4175 0.929 . S
C4168 C4167 1.383 . S
C4168 C4169 1.377 . S
C4169 H4153 0.930 . S
C4169 C4168 1.377 . S
C4169 C4170 1.379 . S
C4170 H4154 0.931 . S
C4170 C4164 1.383 . S
C4170 C4169 1.379 . S
H4171 C4165 0.959 . S
H4172 C4165 0.961 . S
H4173 C4165 0.960 . S
H4174 C4166 0.930 . S
H4175 C4167 0.929 . S
H4176 C4184 0.929 . S
H4177 C4186 0.930 . S
H4178 C4188 0.930 . S
H4179 C4191 0.929 . S
H4180 C4194 0.930 . S
H4181 C4196 0.960 . S
H4182 C4196 0.960 . S
H4183 C4196 0.960 . S
C4184 H4176 0.929 . S
C4184 C4185 1.377 . S
C4184 C4186 1.384 . S
C4185 C4184 1.377 . S
C4185 C4191 1.390 . S
C4186 H4177 0.930 . S
C4186 C4184 1.384 . S
C4186 C4187 1.372 . S
C4187 C4186 1.372 . S
C4187 C4188 1.400 . S
C4187 C4192 1.490 . S
C4188 H4178 0.930 . S
C4188 C4187 1.400 . S
C4188 C4191 1.386 . S
H4189 C4205 0.930 . S
H4190 C4206 0.931 . S
C4191 H4179 0.929 . S
C4191 C4185 1.390 . S
C4191 C4188 1.386 . S
C4192 C4187 1.490 . S
C4192 C4194 1.395 . S
C4192 C4195 1.403 . S
H4193 C4199 0.930 . S
C4194 H4180 0.930 . S
C4194 C4192 1.395 . S
C4194 C4197 1.403 . S
C4195 C4192 1.403 . S
C4195 C4196 1.524 . S
C4195 C4199 1.400 . S
C4196 H4181 0.960 . S
C4196 H4182 0.960 . S
C4196 H4183 0.960 . S
C4196 C4195 1.524 . S
C4197 C4194 1.403 . S
C4197 C4198 1.392 . S
C4197 C4201 1.495 . S
C4198 C4197 1.392 . S
C4198 C4199 1.385 . S
C4198 C4200 1.478 . S
C4199 H4193 0.930 . S
C4199 C4195 1.400 . S
C4199 C4198 1.385 . S
C4200 C4198 1.478 . S
C4200 C4202 1.381 . S
C4200 C4206 1.383 . S
C4201 C4197 1.495 . S
C4201 H4207 0.959 . S
C4201 H4208 0.961 . S
C4201 H4209 0.960 . S
C4202 C4200 1.381 . S
C4202 C4203 1.394 . S
C4202 H4210 0.930 . S
C4203 C4202 1.394 . S
C4203 C4204 1.383 . S
C4203 H4211 0.929 . S
C4204 C4203 1.383 . S
C4204 C4205 1.377 . S
C4205 H4189 0.930 . S
C4205 C4204 1.377 . S
C4205 C4206 1.379 . S
C4206 H4190 0.931 . S
C4206 C4200 1.383 . S
C4206 C4205 1.379 . S
H4207 C4201 0.959 . S
H4208 C4201 0.961 . S
H4209 C4201 0.960 . S
H4210 C4202 0.930 . S
H4211 C4203 0.929 . S
H4212 C4220 0.929 . S
H4213 C4222 0.930 . S
H4214 C4224 0.930 . S
H4215 C4227 0.929 . S
H4216 C4230 0.930 . S
H4217 C4232 0.960 . S
H4218 C4232 0.960 . S
H4219 C4232 0.960 . S
C4220 H4212 0.929 . S
C4220 C4221 1.377 . S
C4220 C4222 1.384 . S
C4221 C4220 1.377 . S
C4221 C4227 1.390 . S
C4222 H4213 0.930 . S
C4222 C4220 1.384 . S
C4222 C4223 1.372 . S
C4223 C4222 1.372 . S
C4223 C4224 1.400 . S
C4223 C4228 1.490 . S
C4224 H4214 0.930 . S
C4224 C4223 1.400 . S
C4224 C4227 1.386 . S
H4225 C4241 0.930 . S
H4226 C4242 0.931 . S
C4227 H4215 0.929 . S
C4227 C4221 1.390 . S
C4227 C4224 1.386 . S
C4228 C4223 1.490 . S
C4228 C4230 1.395 . S
C4228 C4231 1.403 . S
H4229 C4235 0.930 . S
C4230 H4216 0.930 . S
C4230 C4228 1.395 . S
C4230 C4233 1.403 . S
C4231 C4228 1.403 . S
C4231 C4232 1.524 . S
C4231 C4235 1.400 . S
C4232 H4217 0.960 . S
C4232 H4218 0.960 . S
C4232 H4219 0.960 . S
C4232 C4231 1.524 . S
C4233 C4230 1.403 . S
C4233 C4234 1.392 . S
C4233 C4237 1.495 . S
C4234 C4233 1.392 . S
C4234 C4235 1.385 . S
C4234 C4236 1.478 . S
C4235 H4229 0.930 . S
C4235 C4231 1.400 . S
C4235 C4234 1.385 . S
C4236 C4234 1.478 . S
C4236 C4238 1.381 . S
C4236 C4242 1.383 . S
C4237 C4233 1.495 . S
C4237 H4243 0.959 . S
C4237 H4244 0.961 . S
C4237 H4245 0.960 . S
C4238 C4236 1.381 . S
C4238 C4239 1.394 . S
C4238 H4246 0.930 . S
C4239 C4238 1.394 . S
C4239 C4240 1.383 . S
C4239 H4247 0.929 . S
C4240 C4239 1.383 . S
C4240 C4241 1.377 . S
C4241 H4225 0.930 . S
C4241 C4240 1.377 . S
C4241 C4242 1.379 . S
C4242 H4226 0.931 . S
C4242 C4236 1.383 . S
C4242 C4241 1.379 . S
H4243 C4237 0.959 . S
H4244 C4237 0.961 . S
H4245 C4237 0.960 . S
H4246 C4238 0.930 . S
H4247 C4239 0.929 . S
H4248 C4256 0.929 . S
H4249 C4258 0.930 . S
H4250 C4260 0.930 . S
H4251 C4263 0.929 . S
H4252 C4266 0.930 . S
H4253 C4268 0.960 . S
H4254 C4268 0.960 . S
H4255 C4268 0.960 . S
C4256 H4248 0.929 . S
C4256 C4257 1.377 . S
C4256 C4258 1.384 . S
C4257 C4256 1.377 . S
C4257 C4263 1.390 . S
C4258 H4249 0.930 . S
C4258 C4256 1.384 . S
C4258 C4259 1.372 . S
C4259 C4258 1.372 . S
C4259 C4260 1.400 . S
C4259 C4264 1.490 . S
C4260 H4250 0.930 . S
C4260 C4259 1.400 . S
C4260 C4263 1.386 . S
H4261 C4277 0.930 . S
H4262 C4278 0.931 . S
C4263 H4251 0.929 . S
C4263 C4257 1.390 . S
C4263 C4260 1.386 . S
C4264 C4259 1.490 . S
C4264 C4266 1.395 . S
C4264 C4267 1.403 . S
H4265 C4271 0.930 . S
C4266 H4252 0.930 . S
C4266 C4264 1.395 . S
C4266 C4269 1.403 . S
C4267 C4264 1.403 . S
C4267 C4268 1.524 . S
C4267 C4271 1.400 . S
C4268 H4253 0.960 . S
C4268 H4254 0.960 . S
C4268 H4255 0.960 . S
C4268 C4267 1.524 . S
C4269 C4266 1.403 . S
C4269 C4270 1.392 . S
C4269 C4273 1.495 . S
C4270 C4269 1.392 . S
C4270 C4271 1.385 . S
C4270 C4272 1.478 . S
C4271 H4265 0.930 . S
C4271 C4267 1.400 . S
C4271 C4270 1.385 . S
C4272 C4270 1.478 . S
C4272 C4274 1.381 . S
C4272 C4278 1.383 . S
C4273 C4269 1.495 . S
C4273 H4279 0.959 . S
C4273 H4280 0.961 . S
C4273 H4281 0.960 . S
C4274 C4272 1.381 . S
C4274 C4275 1.394 . S
C4274 H4282 0.930 . S
C4275 C4274 1.394 . S
C4275 C4276 1.383 . S
C4275 H4283 0.929 . S
C4276 C4275 1.383 . S
C4276 C4277 1.377 . S
C4277 H4261 0.930 . S
C4277 C4276 1.377 . S
C4277 C4278 1.379 . S
C4278 H4262 0.931 . S
C4278 C4272 1.383 . S
C4278 C4277 1.379 . S
H4279 C4273 0.959 . S
H4280 C4273 0.961 . S
H4281 C4273 0.960 . S
H4282 C4274 0.930 . S
H4283 C4275 0.929 . S
H4284 C4292 0.929 . S
H4285 C4294 0.930 . S
H4286 C4296 0.930 . S
H4287 C4299 0.929 . S
H4288 C4302 0.930 . S
H4289 C4304 0.960 . S
H4290 C4304 0.960 . S
H4291 C4304 0.960 . S
C4292 H4284 0.929 . S
C4292 C4293 1.377 . S
C4292 C4294 1.384 . S
C4293 C4292 1.377 . S
C4293 C4299 1.390 . S
C4294 H4285 0.930 . S
C4294 C4292 1.384 . S
C4294 C4295 1.372 . S
C4295 C4294 1.372 . S
C4295 C4296 1.400 . S
C4295 C4300 1.490 . S
C4296 H4286 0.930 . S
C4296 C4295 1.400 . S
C4296 C4299 1.386 . S
H4297 C4313 0.930 . S
H4298 C4314 0.931 . S
C4299 H4287 0.929 . S
C4299 C4293 1.390 . S
C4299 C4296 1.386 . S
C4300 C4295 1.490 . S
C4300 C4302 1.395 . S
C4300 C4303 1.403 . S
H4301 C4307 0.930 . S
C4302 H4288 0.930 . S
C4302 C4300 1.395 . S
C4302 C4305 1.403 . S
C4303 C4300 1.403 . S
C4303 C4304 1.524 . S
C4303 C4307 1.400 . S
C4304 H4289 0.960 . S
C4304 H4290 0.960 . S
C4304 H4291 0.960 . S
C4304 C4303 1.524 . S
C4305 C4302 1.403 . S
C4305 C4306 1.392 . S
C4305 C4309 1.495 . S
C4306 C4305 1.392 . S
C4306 C4307 1.385 . S
C4306 C4308 1.478 . S
C4307 H4301 0.930 . S
C4307 C4303 1.400 . S
C4307 C4306 1.385 . S
C4308 C4306 1.478 . S
C4308 C4310 1.381 . S
C4308 C4314 1.383 . S
C4309 C4305 1.495 . S
C4309 H4315 0.959 . S
C4309 H4316 0.961 . S
C4309 H4317 0.960 . S
C4310 C4308 1.381 . S
C4310 C4311 1.394 . S
C4310 H4318 0.930 . S
C4311 C4310 1.394 . S
C4311 C4312 1.383 . S
C4311 H4319 0.929 . S
C4312 C4311 1.383 . S
C4312 C4313 1.377 . S
C4313 H4297 0.930 . S
C4313 C4312 1.377 . S
C4313 C4314 1.379 . S
C4314 H4298 0.931 . S
C4314 C4308 1.383 . S
C4314 C4313 1.379 . S
H4315 C4309 0.959 . S
H4316 C4309 0.961 . S
H4317 C4309 0.960 . S
H4318 C4310 0.930 . S
H4319 C4311 0.929 . S
H4320 C4328 0.929 . S
H4321 C4330 0.930 . S
H4322 C4332 0.930 . S
H4323 C4335 0.929 . S
H4324 C4338 0.930 . S
H4325 C4340 0.960 . S
H4326 C4340 0.960 . S
H4327 C4340 0.960 . S
C4328 H4320 0.929 . S
C4328 C4329 1.377 . S
C4328 C4330 1.384 . S
C4329 C4328 1.377 . S
C4329 C4335 1.390 . S
C4330 H4321 0.930 . S
C4330 C4328 1.384 . S
C4330 C4331 1.372 . S
C4331 C4330 1.372 . S
C4331 C4332 1.400 . S
C4331 C4336 1.490 . S
C4332 H4322 0.930 . S
C4332 C4331 1.400 . S
C4332 C4335 1.386 . S
H4333 C4349 0.930 . S
H4334 C4350 0.931 . S
C4335 H4323 0.929 . S
C4335 C4329 1.390 . S
C4335 C4332 1.386 . S
C4336 C4331 1.490 . S
C4336 C4338 1.395 . S
C4336 C4339 1.403 . S
H4337 C4343 0.930 . S
C4338 H4324 0.930 . S
C4338 C4336 1.395 . S
C4338 C4341 1.403 . S
C4339 C4336 1.403 . S
C4339 C4340 1.524 . S
C4339 C4343 1.400 . S
C4340 H4325 0.960 . S
C4340 H4326 0.960 . S
C4340 H4327 0.960 . S
C4340 C4339 1.524 . S
C4341 C4338 1.403 . S
C4341 C4342 1.392 . S
C4341 C4345 1.495 . S
C4342 C4341 1.392 . S
C4342 C4343 1.385 . S
C4342 C4344 1.478 . S
C4343 H4337 0.930 . S
C4343 C4339 1.400 . S
C4343 C4342 1.385 . S
C4344 C4342 1.478 . S
C4344 C4346 1.381 . S
C4344 C4350 1.383 . S
C4345 C4341 1.495 . S
C4345 H4351 0.959 . S
C4345 H4352 0.961 . S
C4345 H4353 0.960 . S
C4346 C4344 1.381 . S
C4346 C4347 1.394 . S
C4346 H4354 0.930 . S
C4347 C4346 1.394 . S
C4347 C4348 1.383 . S
C4347 H4355 0.929 . S
C4348 C4347 1.383 . S
C4348 C4349 1.377 . S
C4349 H4333 0.930 . S
C4349 C4348 1.377 . S
C4349 C4350 1.379 . S
C4350 H4334 0.931 . S
C4350 C4344 1.383 . S
C4350 C4349 1.379 . S
H4351 C4345 0.959 . S
H4352 C4345 0.961 . S
H4353 C4345 0.960 . S
H4354 C4346 0.930 . S
H4355 C4347 0.929 . S
H4356 C4364 0.929 . S
H4357 C4366 0.930 . S
H4358 C4368 0.930 . S
H4359 C4371 0.929 . S
H4360 C4374 0.930 . S
H4361 C4376 0.960 . S
H4362 C4376 0.960 . S
H4363 C4376 0.960 . S
C4364 H4356 0.929 . S
C4364 C4365 1.377 . S
C4364 C4366 1.384 . S
C4365 C4364 1.377 . S
C4365 C4371 1.390 . S
C4366 H4357 0.930 . S
C4366 C4364 1.384 . S
C4366 C4367 1.372 . S
C4367 C4366 1.372 . S
C4367 C4368 1.400 . S
C4367 C4372 1.490 . S
C4368 H4358 0.930 . S
C4368 C4367 1.400 . S
C4368 C4371 1.386 . S
H4369 C4385 0.930 . S
H4370 C4386 0.931 . S
C4371 H4359 0.929 . S
C4371 C4365 1.390 . S
C4371 C4368 1.386 . S
C4372 C4367 1.490 . S
C4372 C4374 1.395 . S
C4372 C4375 1.403 . S
H4373 C4379 0.930 . S
C4374 H4360 0.930 . S
C4374 C4372 1.395 . S
C4374 C4377 1.403 . S
C4375 C4372 1.403 . S
C4375 C4376 1.524 . S
C4375 C4379 1.400 . S
C4376 H4361 0.960 . S
C4376 H4362 0.960 . S
C4376 H4363 0.960 . S
C4376 C4375 1.524 . S
C4377 C4374 1.403 . S
C4377 C4378 1.392 . S
C4377 C4381 1.495 . S
C4378 C4377 1.392 . S
C4378 C4379 1.385 . S
C4378 C4380 1.478 . S
C4379 H4373 0.930 . S
C4379 C4375 1.400 . S
C4379 C4378 1.385 . S
C4380 C4378 1.478 . S
C4380 C4382 1.381 . S
C4380 C4386 1.383 . S
C4381 C4377 1.495 . S
C4381 H4387 0.959 . S
C4381 H4388 0.961 . S
C4381 H4389 0.960 . S
C4382 C4380 1.381 . S
C4382 C4383 1.394 . S
C4382 H4390 0.930 . S
C4383 C4382 1.394 . S
C4383 C4384 1.383 . S
C4383 H4391 0.929 . S
C4384 C4383 1.383 . S
C4384 C4385 1.377 . S
C4385 H4369 0.930 . S
C4385 C4384 1.377 . S
C4385 C4386 1.379 . S
C4386 H4370 0.931 . S
C4386 C4380 1.383 . S
C4386 C4385 1.379 . S
H4387 C4381 0.959 . S
H4388 C4381 0.961 . S
H4389 C4381 0.960 . S
H4390 C4382 0.930 . S
H4391 C4383 0.929 . S
H4392 C4400 0.929 . S
H4393 C4402 0.930 . S
H4394 C4404 0.930 . S
H4395 C4407 0.929 . S
H4396 C4410 0.930 . S
H4397 C4412 0.960 . S
H4398 C4412 0.960 . S
H4399 C4412 0.960 . S
C4400 H4392 0.929 . S
C4400 C4401 1.377 . S
C4400 C4402 1.384 . S
C4401 C4400 1.377 . S
C4401 C4407 1.390 . S
C4402 H4393 0.930 . S
C4402 C4400 1.384 . S
C4402 C4403 1.372 . S
C4403 C4402 1.372 . S
C4403 C4404 1.400 . S
C4403 C4408 1.490 . S
C4404 H4394 0.930 . S
C4404 C4403 1.400 . S
C4404 C4407 1.386 . S
H4405 C4421 0.930 . S
H4406 C4422 0.931 . S
C4407 H4395 0.929 . S
C4407 C4401 1.390 . S
C4407 C4404 1.386 . S
C4408 C4403 1.490 . S
C4408 C4410 1.395 . S
C4408 C4411 1.403 . S
H4409 C4415 0.930 . S
C4410 H4396 0.930 . S
C4410 C4408 1.395 . S
C4410 C4413 1.403 . S
C4411 C4408 1.403 . S
C4411 C4412 1.524 . S
C4411 C4415 1.400 . S
C4412 H4397 0.960 . S
C4412 H4398 0.960 . S
C4412 H4399 0.960 . S
C4412 C4411 1.524 . S
C4413 C4410 1.403 . S
C4413 C4414 1.392 . S
C4413 C4417 1.495 . S
C4414 C4413 1.392 . S
C4414 C4415 1.385 . S
C4414 C4416 1.478 . S
C4415 H4409 0.930 . S
C4415 C4411 1.400 . S
C4415 C4414 1.385 . S
C4416 C4414 1.478 . S
C4416 C4418 1.381 . S
C4416 C4422 1.383 . S
C4417 C4413 1.495 . S
C4417 H4423 0.959 . S
C4417 H4424 0.961 . S
C4417 H4425 0.960 . S
C4418 C4416 1.381 . S
C4418 C4419 1.394 . S
C4418 H4426 0.930 . S
C4419 C4418 1.394 . S
C4419 C4420 1.383 . S
C4419 H4427 0.929 1_556 S
C4420 C4419 1.383 . S
C4420 C4421 1.377 . S
C4421 H4405 0.930 . S
C4421 C4420 1.377 . S
C4421 C4422 1.379 . S
C4422 H4406 0.931 . S
C4422 C4416 1.383 . S
C4422 C4421 1.379 . S
H4423 C4417 0.959 . S
H4424 C4417 0.961 . S
H4425 C4417 0.960 . S
H4426 C4418 0.930 . S
H4427 C4419 0.929 1_554 S
H4428 C4436 0.929 . S
H4429 C4438 0.930 . S
H4430 C4440 0.930 . S
H4431 C4443 0.929 . S
H4432 C4446 0.930 . S
H4433 C4448 0.960 . S
H4434 C4448 0.960 . S
H4435 C4448 0.960 . S
C4436 H4428 0.929 . S
C4436 C4437 1.377 . S
C4436 C4438 1.384 . S
C4437 C4436 1.377 . S
C4437 C4443 1.390 . S
C4438 H4429 0.930 . S
C4438 C4436 1.384 . S
C4438 C4439 1.372 . S
C4439 C4438 1.372 . S
C4439 C4440 1.400 . S
C4439 C4444 1.490 . S
C4440 H4430 0.930 . S
C4440 C4439 1.400 . S
C4440 C4443 1.386 . S
H4441 C4457 0.930 . S
H4442 C4458 0.931 . S
C4443 H4431 0.929 . S
C4443 C4437 1.390 . S
C4443 C4440 1.386 . S
C4444 C4439 1.490 . S
C4444 C4446 1.395 . S
C4444 C4447 1.403 . S
H4445 C4451 0.930 . S
C4446 H4432 0.930 . S
C4446 C4444 1.395 . S
C4446 C4449 1.403 . S
C4447 C4444 1.403 . S
C4447 C4448 1.524 . S
C4447 C4451 1.400 . S
C4448 H4433 0.960 . S
C4448 H4434 0.960 . S
C4448 H4435 0.960 . S
C4448 C4447 1.524 . S
C4449 C4446 1.403 . S
C4449 C4450 1.392 . S
C4449 C4453 1.495 . S
C4450 C4449 1.392 . S
C4450 C4451 1.385 . S
C4450 C4452 1.478 . S
C4451 H4445 0.930 . S
C4451 C4447 1.400 . S
C4451 C4450 1.385 . S
C4452 C4450 1.478 . S
C4452 C4454 1.381 . S
C4452 C4458 1.383 . S
C4453 C4449 1.495 . S
C4453 H4459 0.959 . S
C4453 H4460 0.961 . S
C4453 H4461 0.960 . S
C4454 C4452 1.381 . S
C4454 C4455 1.394 . S
C4454 H4462 0.930 . S
C4455 C4454 1.394 . S
C4455 C4456 1.383 . S
C4455 H4463 0.929 . S
C4456 C4455 1.383 . S
C4456 C4457 1.377 . S
C4457 H4441 0.930 . S
C4457 C4456 1.377 . S
C4457 C4458 1.379 . S
C4458 H4442 0.931 . S
C4458 C4452 1.383 . S
C4458 C4457 1.379 . S
H4459 C4453 0.959 . S
H4460 C4453 0.961 . S
H4461 C4453 0.960 . S
H4462 C4454 0.930 . S
H4463 C4455 0.929 . S
H4464 C4472 0.929 . S
H4465 C4474 0.930 . S
H4466 C4476 0.930 . S
H4467 C4479 0.929 . S
H4468 C4482 0.930 . S
H4469 C4484 0.960 . S
H4470 C4484 0.960 . S
H4471 C4484 0.960 . S
C4472 H4464 0.929 . S
C4472 C4473 1.377 . S
C4472 C4474 1.384 . S
C4473 C4472 1.377 . S
C4473 C4479 1.390 . S
C4474 H4465 0.930 . S
C4474 C4472 1.384 . S
C4474 C4475 1.372 . S
C4475 C4474 1.372 . S
C4475 C4476 1.400 . S
C4475 C4480 1.490 . S
C4476 H4466 0.930 . S
C4476 C4475 1.400 . S
C4476 C4479 1.386 . S
H4477 C4493 0.930 . S
H4478 C4494 0.931 . S
C4479 H4467 0.929 . S
C4479 C4473 1.390 . S
C4479 C4476 1.386 . S
C4480 C4475 1.490 . S
C4480 C4482 1.395 . S
C4480 C4483 1.403 . S
H4481 C4487 0.930 . S
C4482 H4468 0.930 . S
C4482 C4480 1.395 . S
C4482 C4485 1.403 . S
C4483 C4480 1.403 . S
C4483 C4484 1.524 . S
C4483 C4487 1.400 . S
C4484 H4469 0.960 . S
C4484 H4470 0.960 . S
C4484 H4471 0.960 . S
C4484 C4483 1.524 . S
C4485 C4482 1.403 . S
C4485 C4486 1.392 . S
C4485 C4489 1.495 . S
C4486 C4485 1.392 . S
C4486 C4487 1.385 . S
C4486 C4488 1.478 . S
C4487 H4481 0.930 . S
C4487 C4483 1.400 . S
C4487 C4486 1.385 . S
C4488 C4486 1.478 . S
C4488 C4490 1.381 . S
C4488 C4494 1.383 . S
C4489 C4485 1.495 . S
C4489 H4495 0.959 . S
C4489 H4496 0.961 . S
C4489 H4497 0.960 . S
C4490 C4488 1.381 . S
C4490 C4491 1.394 . S
C4490 H4498 0.930 . S
C4491 C4490 1.394 . S
C4491 C4492 1.383 . S
C4491 H4499 0.929 . S
C4492 C4491 1.383 . S
C4492 C4493 1.377 . S
C4493 H4477 0.930 . S
C4493 C4492 1.377 . S
C4493 C4494 1.379 . S
C4494 H4478 0.931 . S
C4494 C4488 1.383 . S
C4494 C4493 1.379 . S
H4495 C4489 0.959 . S
H4496 C4489 0.961 . S
H4497 C4489 0.960 . S
H4498 C4490 0.930 . S
H4499 C4491 0.929 . S
H4500 C4508 0.929 . S
H4501 C4510 0.930 . S
H4502 C4512 0.930 . S
H4503 C4515 0.929 . S
H4504 C4518 0.930 . S
H4505 C4520 0.960 . S
H4506 C4520 0.960 . S
H4507 C4520 0.960 . S
C4508 H4500 0.929 . S
C4508 C4509 1.377 . S
C4508 C4510 1.384 . S
C4509 C4508 1.377 . S
C4509 C4515 1.390 . S
C4510 H4501 0.930 . S
C4510 C4508 1.384 . S
C4510 C4511 1.372 . S
C4511 C4510 1.372 . S
C4511 C4512 1.400 . S
C4511 C4516 1.490 . S
C4512 H4502 0.930 . S
C4512 C4511 1.400 . S
C4512 C4515 1.386 . S
H4513 C4529 0.930 . S
H4514 C4530 0.931 . S
C4515 H4503 0.929 . S
C4515 C4509 1.390 . S
C4515 C4512 1.386 . S
C4516 C4511 1.490 . S
C4516 C4518 1.395 . S
C4516 C4519 1.403 . S
H4517 C4523 0.930 . S
C4518 H4504 0.930 . S
C4518 C4516 1.395 . S
C4518 C4521 1.403 . S
C4519 C4516 1.403 . S
C4519 C4520 1.524 . S
C4519 C4523 1.400 . S
C4520 H4505 0.960 . S
C4520 H4506 0.960 . S
C4520 H4507 0.960 . S
C4520 C4519 1.524 . S
C4521 C4518 1.403 . S
C4521 C4522 1.392 . S
C4521 C4525 1.495 . S
C4522 C4521 1.392 . S
C4522 C4523 1.385 . S
C4522 C4524 1.478 . S
C4523 H4517 0.930 . S
C4523 C4519 1.400 . S
C4523 C4522 1.385 . S
C4524 C4522 1.478 . S
C4524 C4526 1.381 . S
C4524 C4530 1.383 . S
C4525 C4521 1.495 . S
C4525 H4531 0.959 . S
C4525 H4532 0.961 . S
C4525 H4533 0.960 . S
C4526 C4524 1.381 . S
C4526 C4527 1.394 . S
C4526 H4534 0.930 . S
C4527 C4526 1.394 . S
C4527 C4528 1.383 . S
C4527 H4535 0.929 . S
C4528 C4527 1.383 . S
C4528 C4529 1.377 . S
C4529 H4513 0.930 . S
C4529 C4528 1.377 . S
C4529 C4530 1.379 . S
C4530 H4514 0.931 . S
C4530 C4524 1.383 . S
C4530 C4529 1.379 . S
H4531 C4525 0.959 . S
H4532 C4525 0.961 . S
H4533 C4525 0.960 . S
H4534 C4526 0.930 . S
H4535 C4527 0.929 . S
H4536 C4544 0.929 . S
H4537 C4546 0.930 . S
H4538 C4548 0.930 . S
H4539 C4551 0.929 . S
H4540 C4554 0.930 . S
H4541 C4556 0.960 . S
H4542 C4556 0.960 . S
H4543 C4556 0.960 . S
C4544 H4536 0.929 . S
C4544 C4545 1.377 . S
C4544 C4546 1.384 . S
C4545 C4544 1.377 . S
C4545 C4551 1.390 . S
C4546 H4537 0.930 . S
C4546 C4544 1.384 . S
C4546 C4547 1.372 . S
C4547 C4546 1.372 . S
C4547 C4548 1.400 . S
C4547 C4552 1.490 . S
C4548 H4538 0.930 . S
C4548 C4547 1.400 . S
C4548 C4551 1.386 . S
H4549 C4565 0.930 . S
H4550 C4566 0.931 . S
C4551 H4539 0.929 . S
C4551 C4545 1.390 . S
C4551 C4548 1.386 . S
C4552 C4547 1.490 . S
C4552 C4554 1.395 . S
C4552 C4555 1.403 . S
H4553 C4559 0.930 . S
C4554 H4540 0.930 . S
C4554 C4552 1.395 . S
C4554 C4557 1.403 . S
C4555 C4552 1.403 . S
C4555 C4556 1.524 . S
C4555 C4559 1.400 . S
C4556 H4541 0.960 . S
C4556 H4542 0.960 . S
C4556 H4543 0.960 . S
C4556 C4555 1.524 . S
C4557 C4554 1.403 . S
C4557 C4558 1.392 . S
C4557 C4561 1.495 . S
C4558 C4557 1.392 . S
C4558 C4559 1.385 . S
C4558 C4560 1.478 . S
C4559 H4553 0.930 . S
C4559 C4555 1.400 . S
C4559 C4558 1.385 . S
C4560 C4558 1.478 . S
C4560 C4562 1.381 . S
C4560 C4566 1.383 . S
C4561 C4557 1.495 . S
C4561 H4567 0.959 . S
C4561 H4568 0.961 . S
C4561 H4569 0.960 . S
C4562 C4560 1.381 . S
C4562 C4563 1.394 . S
C4562 H4570 0.930 . S
C4563 C4562 1.394 . S
C4563 C4564 1.383 . S
C4563 H4571 0.929 . S
C4564 C4563 1.383 . S
C4564 C4565 1.377 . S
C4565 H4549 0.930 . S
C4565 C4564 1.377 . S
C4565 C4566 1.379 . S
C4566 H4550 0.931 . S
C4566 C4560 1.383 . S
C4566 C4565 1.379 . S
H4567 C4561 0.959 . S
H4568 C4561 0.961 . S
H4569 C4561 0.960 . S
H4570 C4562 0.930 . S
H4571 C4563 0.929 . S
H4572 C4580 0.929 . S
H4573 C4582 0.930 . S
H4574 C4584 0.930 . S
H4575 C4587 0.929 . S
H4576 C4590 0.930 . S
H4577 C4592 0.960 . S
H4578 C4592 0.960 . S
H4579 C4592 0.960 . S
C4580 H4572 0.929 . S
C4580 C4581 1.377 . S
C4580 C4582 1.384 . S
C4581 C4580 1.377 . S
C4581 C4587 1.390 . S
C4582 H4573 0.930 . S
C4582 C4580 1.384 . S
C4582 C4583 1.372 . S
C4583 C4582 1.372 . S
C4583 C4584 1.400 . S
C4583 C4588 1.490 . S
C4584 H4574 0.930 . S
C4584 C4583 1.400 . S
C4584 C4587 1.386 . S
H4585 C4601 0.930 . S
H4586 C4602 0.931 . S
C4587 H4575 0.929 . S
C4587 C4581 1.390 . S
C4587 C4584 1.386 . S
C4588 C4583 1.490 . S
C4588 C4590 1.395 . S
C4588 C4591 1.403 . S
H4589 C4595 0.930 . S
C4590 H4576 0.930 . S
C4590 C4588 1.395 . S
C4590 C4593 1.403 . S
C4591 C4588 1.403 . S
C4591 C4592 1.524 . S
C4591 C4595 1.400 . S
C4592 H4577 0.960 . S
C4592 H4578 0.960 . S
C4592 H4579 0.960 . S
C4592 C4591 1.524 . S
C4593 C4590 1.403 . S
C4593 C4594 1.392 . S
C4593 C4597 1.495 . S
C4594 C4593 1.392 . S
C4594 C4595 1.385 . S
C4594 C4596 1.478 . S
C4595 H4589 0.930 . S
C4595 C4591 1.400 . S
C4595 C4594 1.385 . S
C4596 C4594 1.478 . S
C4596 C4598 1.381 . S
C4596 C4602 1.383 . S
C4597 C4593 1.495 . S
C4597 H4603 0.959 . S
C4597 H4604 0.961 . S
C4597 H4605 0.960 . S
C4598 C4596 1.381 . S
C4598 C4599 1.394 . S
C4598 H4606 0.930 . S
C4599 C4598 1.394 . S
C4599 C4600 1.383 . S
C4599 H4607 0.929 . S
C4600 C4599 1.383 . S
C4600 C4601 1.377 . S
C4601 H4585 0.930 . S
C4601 C4600 1.377 . S
C4601 C4602 1.379 . S
C4602 H4586 0.931 . S
C4602 C4596 1.383 . S
C4602 C4601 1.379 . S
H4603 C4597 0.959 . S
H4604 C4597 0.961 . S
H4605 C4597 0.960 . S
H4606 C4598 0.930 . S
H4607 C4599 0.929 . S
H4608 C4616 0.929 . S
H4609 C4618 0.930 . S
H4610 C4620 0.930 . S
H4611 C4623 0.929 . S
H4612 C4626 0.930 . S
H4613 C4628 0.960 . S
H4614 C4628 0.960 . S
H4615 C4628 0.960 . S
C4616 H4608 0.929 . S
C4616 C4617 1.377 . S
C4616 C4618 1.384 . S
C4617 C4616 1.377 . S
C4617 C4623 1.390 . S
C4618 H4609 0.930 . S
C4618 C4616 1.384 . S
C4618 C4619 1.372 . S
C4619 C4618 1.372 . S
C4619 C4620 1.400 . S
C4619 C4624 1.490 . S
C4620 H4610 0.930 . S
C4620 C4619 1.400 . S
C4620 C4623 1.386 . S
H4621 C4637 0.930 . S
H4622 C4638 0.931 1_655 S
C4623 H4611 0.929 . S
C4623 C4617 1.390 . S
C4623 C4620 1.386 . S
C4624 C4619 1.490 . S
C4624 C4626 1.395 . S
C4624 C4627 1.403 . S
H4625 C4631 0.930 . S
C4626 H4612 0.930 . S
C4626 C4624 1.395 . S
C4626 C4629 1.390 1_655 S
C4627 C4624 1.403 . S
C4627 C4628 1.524 . S
C4627 C4631 1.400 . S
C4628 H4613 0.960 . S
C4628 H4614 0.960 . S
C4628 H4615 0.960 . S
C4628 C4627 1.524 . S
C4629 C4626 1.390 1_455 S
C4629 C4630 1.390 1_455 S
C4629 C4633 1.511 . S
C4630 C4629 1.390 1_655 S
C4630 C4631 1.385 . S
C4630 C4632 1.478 1_655 S
C4631 H4625 0.930 . S
C4631 C4627 1.400 . S
C4631 C4630 1.385 . S
C4632 C4630 1.478 1_455 S
C4632 C4634 1.381 . S
C4632 C4638 1.383 . S
C4633 C4629 1.511 . S
C4633 H4639 0.959 . S
C4633 H4640 0.961 . S
C4633 H4641 0.960 . S
C4634 C4632 1.381 . S
C4634 C4635 1.394 . S
C4634 H4642 0.930 . S
C4635 C4634 1.394 . S
C4635 C4636 1.383 . S
C4635 H4643 0.929 . S
C4636 C4635 1.383 . S
C4636 C4637 1.377 . S
C4637 H4621 0.930 . S
C4637 C4636 1.377 . S
C4637 C4638 1.379 . S
C4638 H4622 0.931 1_455 S
C4638 C4632 1.383 . S
C4638 C4637 1.379 . S
H4639 C4633 0.959 . S
H4640 C4633 0.961 . S
H4641 C4633 0.960 . S
H4642 C4634 0.930 . S
H4643 C4635 0.929 . S
H4644 C4652 0.929 . S
H4645 C4654 0.930 . S
H4646 C4656 0.930 . S
H4647 C4659 0.929 . S
H4648 C4662 0.930 . S
H4649 C4664 0.960 . S
H4650 C4664 0.960 . S
H4651 C4664 0.960 . S
C4652 H4644 0.929 . S
C4652 C4653 1.377 . S
C4652 C4654 1.384 . S
C4653 C4652 1.377 . S
C4653 C4659 1.390 . S
C4654 H4645 0.930 . S
C4654 C4652 1.384 . S
C4654 C4655 1.372 . S
C4655 C4654 1.372 . S
C4655 C4656 1.400 . S
C4655 C4660 1.490 . S
C4656 H4646 0.930 . S
C4656 C4655 1.400 . S
C4656 C4659 1.386 . S
H4657 C4673 0.930 . S
H4658 C4674 0.931 . S
C4659 H4647 0.929 . S
C4659 C4653 1.390 . S
C4659 C4656 1.386 . S
C4660 C4655 1.490 . S
C4660 C4662 1.395 . S
C4660 C4663 1.403 . S
H4661 C4667 0.930 . S
C4662 H4648 0.930 . S
C4662 C4660 1.395 . S
C4662 C4665 1.403 . S
C4663 C4660 1.403 . S
C4663 C4664 1.524 . S
C4663 C4667 1.400 . S
C4664 H4649 0.960 . S
C4664 H4650 0.960 . S
C4664 H4651 0.960 . S
C4664 C4663 1.524 . S
C4665 C4662 1.403 . S
C4665 C4666 1.392 . S
C4665 C4669 1.495 . S
C4666 C4665 1.392 . S
C4666 C4667 1.385 . S
C4666 C4668 1.478 . S
C4667 H4661 0.930 . S
C4667 C4663 1.400 . S
C4667 C4666 1.385 . S
C4668 C4666 1.478 . S
C4668 C4670 1.381 . S
C4668 C4674 1.383 . S
C4669 C4665 1.495 . S
C4669 H4675 0.959 . S
C4669 H4676 0.961 . S
C4669 H4677 0.960 . S
C4670 C4668 1.381 . S
C4670 C4671 1.394 . S
C4670 H4678 0.930 . S
C4671 C4670 1.394 . S
C4671 C4672 1.383 . S
C4671 H4679 0.929 . S
C4672 C4671 1.383 . S
C4672 C4673 1.377 . S
C4673 H4657 0.930 . S
C4673 C4672 1.377 . S
C4673 C4674 1.379 . S
C4674 H4658 0.931 . S
C4674 C4668 1.383 . S
C4674 C4673 1.379 . S
H4675 C4669 0.959 . S
H4676 C4669 0.961 . S
H4677 C4669 0.960 . S
H4678 C4670 0.930 . S
H4679 C4671 0.929 . S
H4680 C4688 0.929 . S
H4681 C4690 0.930 . S
H4682 C4692 0.930 . S
H4683 C4695 0.929 . S
H4684 C4698 0.930 . S
H4685 C4700 0.960 . S
H4686 C4700 0.960 . S
H4687 C4700 0.960 . S
C4688 H4680 0.929 . S
C4688 C4689 1.377 . S
C4688 C4690 1.384 . S
C4689 C4688 1.377 . S
C4689 C4695 1.390 . S
C4690 H4681 0.930 . S
C4690 C4688 1.384 . S
C4690 C4691 1.372 . S
C4691 C4690 1.372 . S
C4691 C4692 1.400 . S
C4691 C4696 1.490 . S
C4692 H4682 0.930 . S
C4692 C4691 1.400 . S
C4692 C4695 1.386 . S
H4693 C4709 0.930 . S
H4694 C4710 0.931 . S
C4695 H4683 0.929 . S
C4695 C4689 1.390 . S
C4695 C4692 1.386 . S
C4696 C4691 1.490 . S
C4696 C4698 1.395 . S
C4696 C4699 1.403 . S
H4697 C4703 0.930 . S
C4698 H4684 0.930 . S
C4698 C4696 1.395 . S
C4698 C4701 1.403 . S
C4699 C4696 1.403 . S
C4699 C4700 1.524 . S
C4699 C4703 1.400 . S
C4700 H4685 0.960 . S
C4700 H4686 0.960 . S
C4700 H4687 0.960 . S
C4700 C4699 1.524 . S
C4701 C4698 1.403 . S
C4701 C4702 1.392 . S
C4701 C4705 1.495 . S
C4702 C4701 1.392 . S
C4702 C4703 1.385 . S
C4702 C4704 1.478 . S
C4703 H4697 0.930 . S
C4703 C4699 1.400 . S
C4703 C4702 1.385 . S
C4704 C4702 1.478 . S
C4704 C4706 1.381 . S
C4704 C4710 1.383 . S
C4705 C4701 1.495 . S
C4705 H4711 0.959 . S
C4705 H4712 0.961 . S
C4705 H4713 0.960 . S
C4706 C4704 1.381 . S
C4706 C4707 1.394 . S
C4706 H4714 0.930 . S
C4707 C4706 1.394 . S
C4707 C4708 1.383 . S
C4707 H4715 0.929 . S
C4708 C4707 1.383 . S
C4708 C4709 1.377 . S
C4709 H4693 0.930 . S
C4709 C4708 1.377 . S
C4709 C4710 1.379 . S
C4710 H4694 0.931 . S
C4710 C4704 1.383 . S
C4710 C4709 1.379 . S
H4711 C4705 0.959 . S
H4712 C4705 0.961 . S
H4713 C4705 0.960 . S
H4714 C4706 0.930 . S
H4715 C4707 0.929 . S
H4716 C4724 0.929 . S
H4717 C4726 0.930 . S
H4718 C4728 0.930 . S
H4719 C4731 0.929 . S
H4720 C4734 0.930 . S
H4721 C4736 0.960 . S
H4722 C4736 0.960 . S
H4723 C4736 0.960 . S
C4724 H4716 0.929 . S
C4724 C4725 1.377 . S
C4724 C4726 1.384 . S
C4725 C4724 1.377 . S
C4725 C4731 1.390 . S
C4726 H4717 0.930 . S
C4726 C4724 1.384 . S
C4726 C4727 1.372 . S
C4727 C4726 1.372 . S
C4727 C4728 1.400 . S
C4727 C4732 1.490 . S
C4728 H4718 0.930 . S
C4728 C4727 1.400 . S
C4728 C4731 1.386 . S
H4729 C4745 0.930 . S
H4730 C4746 0.931 . S
C4731 H4719 0.929 . S
C4731 C4725 1.390 . S
C4731 C4728 1.386 . S
C4732 C4727 1.490 . S
C4732 C4734 1.395 . S
C4732 C4735 1.403 . S
H4733 C4739 0.930 . S
C4734 H4720 0.930 . S
C4734 C4732 1.395 . S
C4734 C4737 1.403 . S
C4735 C4732 1.403 . S
C4735 C4736 1.524 . S
C4735 C4739 1.400 . S
C4736 H4721 0.960 . S
C4736 H4722 0.960 . S
C4736 H4723 0.960 . S
C4736 C4735 1.524 . S
C4737 C4734 1.403 . S
C4737 C4738 1.392 . S
C4737 C4741 1.495 . S
C4738 C4737 1.392 . S
C4738 C4739 1.385 . S
C4738 C4740 1.478 . S
C4739 H4733 0.930 . S
C4739 C4735 1.400 . S
C4739 C4738 1.385 . S
C4740 C4738 1.478 . S
C4740 C4742 1.381 . S
C4740 C4746 1.383 . S
C4741 C4737 1.495 . S
C4741 H4747 0.959 . S
C4741 H4748 0.961 . S
C4741 H4749 0.960 . S
C4742 C4740 1.381 . S
C4742 C4743 1.394 . S
C4742 H4750 0.930 . S
C4743 C4742 1.394 . S
C4743 C4744 1.383 . S
C4743 H4751 0.929 . S
C4744 C4743 1.383 . S
C4744 C4745 1.377 . S
C4745 H4729 0.930 . S
C4745 C4744 1.377 . S
C4745 C4746 1.379 . S
C4746 H4730 0.931 . S
C4746 C4740 1.383 . S
C4746 C4745 1.379 . S
H4747 C4741 0.959 . S
H4748 C4741 0.961 . S
H4749 C4741 0.960 . S
H4750 C4742 0.930 . S
H4751 C4743 0.929 . S
H4752 C4760 0.929 . S
H4753 C4762 0.930 . S
H4754 C4764 0.930 . S
H4755 C4767 0.929 . S
H4756 C4770 0.930 . S
H4757 C4772 0.960 . S
H4758 C4772 0.960 . S
H4759 C4772 0.960 . S
C4760 H4752 0.929 . S
C4760 C4761 1.377 . S
C4760 C4762 1.384 . S
C4761 C4760 1.377 . S
C4761 C4767 1.390 . S
C4762 H4753 0.930 . S
C4762 C4760 1.384 . S
C4762 C4763 1.372 . S
C4763 C4762 1.372 . S
C4763 C4764 1.400 . S
C4763 C4768 1.490 . S
C4764 H4754 0.930 . S
C4764 C4763 1.400 . S
C4764 C4767 1.386 . S
H4765 C4781 0.930 . S
H4766 C4782 0.931 1_455 S
C4767 H4755 0.929 . S
C4767 C4761 1.390 . S
C4767 C4764 1.386 . S
C4768 C4763 1.490 . S
C4768 C4770 1.395 . S
C4768 C4771 1.403 . S
H4769 C4775 0.930 . S
C4770 H4756 0.930 . S
C4770 C4768 1.395 . S
C4770 C4773 1.403 . S
C4771 C4768 1.403 . S
C4771 C4772 1.524 . S
C4771 C4775 1.400 . S
C4772 H4757 0.960 . S
C4772 H4758 0.960 . S
C4772 H4759 0.960 . S
C4772 C4771 1.524 . S
C4773 C4770 1.403 . S
C4773 C4774 1.392 . S
C4773 C4777 1.495 . S
C4774 C4773 1.392 . S
C4774 C4775 1.385 . S
C4774 C4776 1.478 . S
C4775 H4769 0.930 . S
C4775 C4771 1.400 . S
C4775 C4774 1.385 . S
C4776 C4774 1.478 . S
C4776 C4778 1.381 . S
C4776 C4782 1.423 . S
C4777 C4773 1.495 . S
C4777 H4783 0.959 . S
C4777 H4784 0.961 . S
C4777 H4785 0.960 . S
C4778 C4776 1.381 . S
C4778 C4779 1.394 . S
C4778 H4786 0.930 . S
C4779 C4778 1.394 . S
C4779 C4780 1.383 1_655 S
C4779 H4787 0.929 . S
C4780 C4779 1.383 1_455 S
C4780 C4781 1.377 . S
C4781 H4765 0.930 . S
C4781 C4780 1.377 . S
C4781 C4782 1.342 1_455 S
C4782 H4766 0.931 1_655 S
C4782 C4776 1.423 . S
C4782 C4781 1.342 1_655 S
H4783 C4777 0.959 . S
H4784 C4777 0.961 . S
H4785 C4777 0.960 . S
H4786 C4778 0.930 . S
H4787 C4779 0.929 . S
H4788 C4796 0.929 . S
H4789 C4798 0.930 . S
H4790 C4800 0.930 . S
H4791 C4803 0.929 . S
H4792 C4806 0.930 . S
H4793 C4808 0.960 . S
H4794 C4808 0.960 . S
H4795 C4808 0.960 . S
C4796 H4788 0.929 . S
C4796 C4797 1.377 . S
C4796 C4798 1.384 . S
C4797 C4796 1.377 . S
C4797 C4803 1.390 . S
C4798 H4789 0.930 . S
C4798 C4796 1.384 . S
C4798 C4799 1.372 . S
C4799 C4798 1.372 . S
C4799 C4800 1.400 . S
C4799 C4804 1.490 . S
C4800 H4790 0.930 . S
C4800 C4799 1.400 . S
C4800 C4803 1.386 . S
H4801 C4817 0.930 . S
H4802 C4818 0.931 . S
C4803 H4791 0.929 . S
C4803 C4797 1.390 . S
C4803 C4800 1.386 . S
C4804 C4799 1.490 . S
C4804 C4806 1.395 . S
C4804 C4807 1.403 . S
H4805 C4811 0.930 . S
C4806 H4792 0.930 . S
C4806 C4804 1.395 . S
C4806 C4809 1.403 . S
C4807 C4804 1.403 . S
C4807 C4808 1.524 . S
C4807 C4811 1.400 . S
C4808 H4793 0.960 . S
C4808 H4794 0.960 . S
C4808 H4795 0.960 . S
C4808 C4807 1.524 . S
C4809 C4806 1.403 . S
C4809 C4810 1.392 . S
C4809 C4813 1.495 . S
C4810 C4809 1.392 . S
C4810 C4811 1.385 . S
C4810 C4812 1.478 . S
C4811 H4805 0.930 . S
C4811 C4807 1.400 . S
C4811 C4810 1.385 . S
C4812 C4810 1.478 . S
C4812 C4814 1.381 . S
C4812 C4818 1.383 . S
C4813 C4809 1.495 . S
C4813 H4819 0.959 . S
C4813 H4820 0.961 . S
C4813 H4821 0.960 . S
C4814 C4812 1.381 . S
C4814 C4815 1.394 . S
C4814 H4822 0.930 . S
C4815 C4814 1.394 . S
C4815 C4816 1.383 . S
C4815 H4823 0.929 . S
C4816 C4815 1.383 . S
C4816 C4817 1.377 . S
C4817 H4801 0.930 . S
C4817 C4816 1.377 . S
C4817 C4818 1.379 . S
C4818 H4802 0.931 . S
C4818 C4812 1.383 . S
C4818 C4817 1.379 . S
H4819 C4813 0.959 . S
H4820 C4813 0.961 . S
H4821 C4813 0.960 . S
H4822 C4814 0.930 . S
H4823 C4815 0.929 . S
H4824 C4832 0.929 . S
H4825 C4834 0.930 . S
H4826 C4836 0.930 . S
H4827 C4839 0.929 . S
H4828 C4842 0.930 . S
H4829 C4844 0.960 . S
H4830 C4844 0.960 . S
H4831 C4844 0.960 . S
C4832 H4824 0.929 . S
C4832 C4833 1.377 . S
C4832 C4834 1.384 . S
C4833 C4832 1.377 . S
C4833 C4839 1.390 . S
C4834 H4825 0.930 . S
C4834 C4832 1.384 . S
C4834 C4835 1.372 . S
C4835 C4834 1.372 . S
C4835 C4836 1.400 . S
C4835 C4840 1.490 . S
C4836 H4826 0.930 . S
C4836 C4835 1.400 . S
C4836 C4839 1.386 . S
H4837 C4853 0.930 . S
H4838 C4854 0.931 . S
C4839 H4827 0.929 . S
C4839 C4833 1.390 . S
C4839 C4836 1.386 . S
C4840 C4835 1.490 . S
C4840 C4842 1.395 . S
C4840 C4843 1.403 . S
H4841 C4847 0.930 . S
C4842 H4828 0.930 . S
C4842 C4840 1.395 . S
C4842 C4845 1.403 . S
C4843 C4840 1.403 . S
C4843 C4844 1.524 . S
C4843 C4847 1.400 . S
C4844 H4829 0.960 . S
C4844 H4830 0.960 . S
C4844 H4831 0.960 . S
C4844 C4843 1.524 . S
C4845 C4842 1.403 . S
C4845 C4846 1.392 . S
C4845 C4849 1.495 . S
C4846 C4845 1.392 . S
C4846 C4847 1.385 . S
C4846 C4848 1.478 . S
C4847 H4841 0.930 . S
C4847 C4843 1.400 . S
C4847 C4846 1.385 . S
C4848 C4846 1.478 . S
C4848 C4850 1.381 . S
C4848 C4854 1.383 . S
C4849 C4845 1.495 . S
C4849 H4855 0.959 . S
C4849 H4856 0.961 . S
C4849 H4857 0.960 . S
C4850 C4848 1.381 . S
C4850 C4851 1.394 . S
C4850 H4858 0.930 . S
C4851 C4850 1.394 . S
C4851 C4852 1.383 . S
C4851 H4859 0.929 . S
C4852 C4851 1.383 . S
C4852 C4853 1.377 . S
C4853 H4837 0.930 . S
C4853 C4852 1.377 . S
C4853 C4854 1.379 . S
C4854 H4838 0.931 . S
C4854 C4848 1.383 . S
C4854 C4853 1.379 . S
H4855 C4849 0.959 . S
H4856 C4849 0.961 . S
H4857 C4849 0.960 . S
H4858 C4850 0.930 . S
H4859 C4851 0.929 . S
H4860 C4868 0.929 . S
H4861 C4870 0.930 . S
H4862 C4872 0.930 . S
H4863 C4875 0.929 . S
H4864 C4878 0.930 . S
H4865 C4880 0.960 . S
H4866 C4880 0.960 . S
H4867 C4880 0.960 . S
C4868 H4860 0.929 . S
C4868 C4869 1.377 . S
C4868 C4870 1.384 . S
C4869 C4868 1.377 . S
C4869 C4875 1.390 . S
C4870 H4861 0.930 . S
C4870 C4868 1.384 . S
C4870 C4871 1.372 . S
C4871 C4870 1.372 . S
C4871 C4872 1.400 . S
C4871 C4876 1.490 . S
C4872 H4862 0.930 . S
C4872 C4871 1.400 . S
C4872 C4875 1.386 . S
H4873 C4889 0.930 . S
H4874 C4890 0.918 1_545 S
C4875 H4863 0.929 . S
C4875 C4869 1.390 . S
C4875 C4872 1.386 . S
C4876 C4871 1.490 . S
C4876 C4878 1.395 . S
C4876 C4879 1.403 . S
H4877 C4883 0.930 . S
C4878 H4864 0.930 . S
C4878 C4876 1.395 . S
C4878 C4881 1.403 . S
C4879 C4876 1.403 . S
C4879 C4880 1.524 . S
C4879 C4883 1.400 . S
C4880 H4865 0.960 . S
C4880 H4866 0.960 . S
C4880 H4867 0.960 . S
C4880 C4879 1.524 . S
C4881 C4878 1.403 . S
C4881 C4882 1.392 . S
C4881 C4885 1.495 . S
C4882 C4881 1.392 . S
C4882 C4883 1.385 . S
C4882 C4884 1.478 . S
C4883 H4877 0.930 . S
C4883 C4879 1.400 . S
C4883 C4882 1.385 . S
C4884 C4882 1.478 . S
C4884 C4886 1.381 . S
C4884 C4890 1.383 . S
C4885 C4881 1.495 . S
C4885 H4891 0.959 . S
C4885 H4892 0.961 . S
C4885 H4893 0.960 . S
C4886 C4884 1.381 . S
C4886 C4887 1.394 . S
C4886 H4894 0.930 . S
C4887 C4886 1.394 . S
C4887 C4888 1.383 1_565 S
C4887 H4895 0.939 . S
C4888 C4887 1.383 1_545 S
C4888 C4889 1.377 . S
C4889 H4873 0.930 . S
C4889 C4888 1.377 . S
C4889 C4890 1.379 1_545 S
C4890 H4874 0.918 1_565 S
C4890 C4884 1.383 . S
C4890 C4889 1.379 1_565 S
H4891 C4885 0.959 . S
H4892 C4885 0.961 . S
H4893 C4885 0.960 . S
H4894 C4886 0.930 . S
H4895 C4887 0.939 . S
H4896 C4904 0.929 . S
H4897 C4906 0.930 . S
H4898 C4908 0.930 . S
H4899 C4911 0.929 . S
H4900 C4914 0.930 . S
H4901 C4916 0.960 . S
H4902 C4916 0.960 . S
H4903 C4916 0.960 . S
C4904 H4896 0.929 . S
C4904 C4905 1.377 . S
C4904 C4906 1.384 . S
C4905 C4904 1.377 . S
C4905 C4911 1.390 . S
C4906 H4897 0.930 . S
C4906 C4904 1.384 . S
C4906 C4907 1.372 . S
C4907 C4906 1.372 . S
C4907 C4908 1.400 . S
C4907 C4912 1.490 . S
C4908 H4898 0.930 . S
C4908 C4907 1.400 . S
C4908 C4911 1.386 . S
H4909 C4925 0.930 . S
H4910 C4926 0.931 . S
C4911 H4899 0.929 . S
C4911 C4905 1.390 . S
C4911 C4908 1.386 . S
C4912 C4907 1.490 . S
C4912 C4914 1.395 . S
C4912 C4915 1.403 . S
H4913 C4919 0.930 . S
C4914 H4900 0.930 . S
C4914 C4912 1.395 . S
C4914 C4917 1.403 . S
C4915 C4912 1.403 . S
C4915 C4916 1.524 . S
C4915 C4919 1.400 . S
C4916 H4901 0.960 . S
C4916 H4902 0.960 . S
C4916 H4903 0.960 . S
C4916 C4915 1.524 . S
C4917 C4914 1.403 . S
C4917 C4918 1.392 . S
C4917 C4921 1.495 . S
C4918 C4917 1.392 . S
C4918 C4919 1.385 . S
C4918 C4920 1.478 . S
C4919 H4913 0.930 . S
C4919 C4915 1.400 . S
C4919 C4918 1.385 . S
C4920 C4918 1.478 . S
C4920 C4922 1.381 . S
C4920 C4926 1.383 . S
C4921 C4917 1.495 . S
C4921 H4927 0.959 . S
C4921 H4928 0.961 . S
C4921 H4929 0.960 . S
C4922 C4920 1.381 . S
C4922 C4923 1.394 . S
C4922 H4930 0.930 . S
C4923 C4922 1.394 . S
C4923 C4924 1.383 . S
C4923 H4931 0.929 . S
C4924 C4923 1.383 . S
C4924 C4925 1.377 . S
C4925 H4909 0.930 . S
C4925 C4924 1.377 . S
C4925 C4926 1.379 . S
C4926 H4910 0.931 . S
C4926 C4920 1.383 . S
C4926 C4925 1.379 . S
H4927 C4921 0.959 . S
H4928 C4921 0.961 . S
H4929 C4921 0.960 . S
H4930 C4922 0.930 . S
H4931 C4923 0.929 . S
H4932 C4940 0.929 . S
H4933 C4942 0.930 . S
H4934 C4944 0.930 . S
H4935 C4947 0.929 . S
H4936 C4950 0.930 . S
H4937 C4952 0.960 . S
H4938 C4952 0.960 . S
H4939 C4952 0.960 . S
C4940 H4932 0.929 . S
C4940 C4941 1.377 . S
C4940 C4942 1.384 . S
C4941 C4940 1.377 . S
C4941 C4947 1.390 . S
C4942 H4933 0.930 . S
C4942 C4940 1.384 . S
C4942 C4943 1.372 . S
C4943 C4942 1.372 . S
C4943 C4944 1.400 . S
C4943 C4948 1.490 . S
C4944 H4934 0.930 . S
C4944 C4943 1.400 . S
C4944 C4947 1.386 . S
H4945 C4961 0.930 . S
H4946 C4962 0.931 . S
C4947 H4935 0.929 . S
C4947 C4941 1.390 . S
C4947 C4944 1.386 . S
C4948 C4943 1.490 . S
C4948 C4950 1.395 . S
C4948 C4951 1.403 . S
H4949 C4955 0.930 1_556 S
C4950 H4936 0.930 . S
C4950 C4948 1.395 . S
C4950 C4953 1.403 . S
C4951 C4948 1.403 . S
C4951 C4952 1.524 1_554 S
C4951 C4955 1.400 . S
C4952 H4937 0.960 . S
C4952 H4938 0.960 . S
C4952 H4939 0.960 . S
C4952 C4951 1.524 1_556 S
C4953 C4950 1.403 . S
C4953 C4954 1.392 . S
C4953 C4957 1.495 . S
C4954 C4953 1.392 . S
C4954 C4955 1.385 . S
C4954 C4956 1.478 . S
C4955 H4949 0.930 1_554 S
C4955 C4951 1.400 . S
C4955 C4954 1.385 . S
C4956 C4954 1.478 . S
C4956 C4958 1.381 . S
C4956 C4962 1.383 . S
C4957 C4953 1.495 . S
C4957 H4963 0.959 . S
C4957 H4964 0.961 . S
C4957 H4965 0.960 . S
C4958 C4956 1.381 . S
C4958 C4959 1.394 . S
C4958 H4966 0.930 . S
C4959 C4958 1.394 . S
C4959 C4960 1.383 . S
C4959 H4967 0.929 . S
C4960 C4959 1.383 . S
C4960 C4961 1.377 . S
C4961 H4945 0.930 . S
C4961 C4960 1.377 . S
C4961 C4962 1.379 . S
C4962 H4946 0.931 . S
C4962 C4956 1.383 . S
C4962 C4961 1.379 . S
H4963 C4957 0.959 . S
H4964 C4957 0.961 . S
H4965 C4957 0.960 . S
H4966 C4958 0.930 . S
H4967 C4959 0.929 . S
H4968 C4976 0.929 . S
H4969 C4978 0.930 . S
H4970 C4980 0.930 . S
H4971 C4983 0.929 . S
H4972 C4986 0.930 . S
H4973 C4988 0.960 . S
H4974 C4988 0.960 . S
H4975 C4988 0.960 . S
C4976 H4968 0.929 . S
C4976 C4977 1.377 . S
C4976 C4978 1.384 . S
C4977 C4976 1.377 . S
C4977 C4983 1.390 . S
C4978 H4969 0.930 . S
C4978 C4976 1.384 . S
C4978 C4979 1.372 . S
C4979 C4978 1.372 . S
C4979 C4980 1.400 . S
C4979 C4984 1.490 . S
C4980 H4970 0.930 . S
C4980 C4979 1.400 . S
C4980 C4983 1.386 . S
H4981 C4997 0.930 . S
H4982 C4998 0.931 . S
C4983 H4971 0.929 . S
C4983 C4977 1.390 . S
C4983 C4980 1.386 . S
C4984 C4979 1.490 . S
C4984 C4986 1.395 . S
C4984 C4987 1.403 . S
H4985 C4991 0.930 . S
C4986 H4972 0.930 . S
C4986 C4984 1.395 . S
C4986 C4989 1.403 . S
C4987 C4984 1.403 . S
C4987 C4988 1.524 . S
C4987 C4991 1.400 . S
C4988 H4973 0.960 . S
C4988 H4974 0.960 . S
C4988 H4975 0.960 . S
C4988 C4987 1.524 . S
C4989 C4986 1.403 . S
C4989 C4990 1.392 . S
C4989 C4993 1.495 . S
C4990 C4989 1.392 . S
C4990 C4991 1.385 . S
C4990 C4992 1.478 . S
C4991 H4985 0.930 . S
C4991 C4987 1.400 . S
C4991 C4990 1.385 . S
C4992 C4990 1.478 . S
C4992 C4994 1.381 . S
C4992 C4998 1.383 . S
C4993 C4989 1.495 . S
C4993 H4999 0.959 . S
C4993 H5000 0.961 . S
C4993 H5001 0.960 . S
C4994 C4992 1.381 . S
C4994 C4995 1.394 . S
C4994 H5002 0.930 . S
C4995 C4994 1.394 . S
C4995 C4996 1.383 . S
C4995 H5003 0.929 . S
C4996 C4995 1.383 . S
C4996 C4997 1.377 . S
C4997 H4981 0.930 . S
C4997 C4996 1.377 . S
C4997 C4998 1.379 . S
C4998 H4982 0.931 . S
C4998 C4992 1.383 . S
C4998 C4997 1.379 . S
H4999 C4993 0.959 . S
H5000 C4993 0.961 . S
H5001 C4993 0.960 . S
H5002 C4994 0.930 . S
H5003 C4995 0.929 . S
H5004 C5012 0.929 . S
H5005 C5014 0.930 . S
H5006 C5016 0.930 . S
H5007 C5019 0.929 . S
H5008 C5022 0.930 . S
H5009 C5024 0.960 . S
H5010 C5024 0.960 . S
H5011 C5024 0.960 . S
C5012 H5004 0.929 . S
C5012 C5013 1.377 . S
C5012 C5014 1.384 . S
C5013 C5012 1.377 . S
C5013 C5019 1.390 . S
C5014 H5005 0.930 . S
C5014 C5012 1.384 . S
C5014 C5015 1.372 . S
C5015 C5014 1.372 . S
C5015 C5016 1.400 . S
C5015 C5020 1.490 . S
C5016 H5006 0.930 . S
C5016 C5015 1.400 . S
C5016 C5019 1.386 . S
H5017 C5033 0.930 . S
H5018 C5034 0.931 . S
C5019 H5007 0.929 . S
C5019 C5013 1.390 . S
C5019 C5016 1.386 . S
C5020 C5015 1.490 . S
C5020 C5022 1.395 . S
C5020 C5023 1.403 . S
H5021 C5027 0.930 . S
C5022 H5008 0.930 . S
C5022 C5020 1.395 . S
C5022 C5025 1.403 . S
C5023 C5020 1.403 . S
C5023 C5024 1.524 . S
C5023 C5027 1.400 . S
C5024 H5009 0.960 . S
C5024 H5010 0.960 . S
C5024 H5011 0.960 . S
C5024 C5023 1.524 . S
C5025 C5022 1.403 . S
C5025 C5026 1.392 . S
C5025 C5029 1.495 . S
C5026 C5025 1.392 . S
C5026 C5027 1.385 . S
C5026 C5028 1.478 . S
C5027 H5021 0.930 . S
C5027 C5023 1.400 . S
C5027 C5026 1.385 . S
C5028 C5026 1.478 . S
C5028 C5030 1.381 . S
C5028 C5034 1.383 1_554 S
C5029 C5025 1.495 . S
C5029 H5035 0.959 . S
C5029 H5036 0.961 . S
C5029 H5037 0.960 . S
C5030 C5028 1.381 . S
C5030 C5031 1.394 . S
C5030 H5038 0.930 . S
C5031 C5030 1.394 . S
C5031 C5032 1.383 . S
C5031 H5039 0.929 . S
C5032 C5031 1.383 . S
C5032 C5033 1.377 1_554 S
C5033 H5017 0.930 . S
C5033 C5032 1.377 1_556 S
C5033 C5034 1.379 . S
C5034 H5018 0.931 . S
C5034 C5028 1.383 1_556 S
C5034 C5033 1.379 . S
H5035 C5029 0.959 . S
H5036 C5029 0.961 . S
H5037 C5029 0.960 . S
H5038 C5030 0.930 . S
H5039 C5031 0.929 . S
H5040 C5048 0.916 1_545 S
H5041 C5050 0.930 . S
H5042 C5052 0.930 . S
H5043 C5055 0.929 . S
H5044 C5058 0.930 . S
H5045 C5060 0.960 . S
H5046 C5060 0.960 . S
H5047 C5060 0.960 . S
C5048 H5040 0.916 1_565 S
C5048 C5049 1.377 1_565 S
C5048 C5050 1.398 . S
C5049 C5048 1.377 1_545 S
C5049 C5055 1.390 1_545 S
C5050 H5041 0.930 . S
C5050 C5048 1.398 . S
C5050 C5051 1.372 . S
C5051 C5050 1.372 . S
C5051 C5052 1.400 . S
C5051 C5056 1.490 . S
C5052 H5042 0.930 . S
C5052 C5051 1.400 . S
C5052 C5055 1.386 . S
H5053 C5069 0.930 . S
H5054 C5070 0.931 . S
C5055 H5043 0.929 . S
C5055 C5049 1.390 1_565 S
C5055 C5052 1.386 . S
C5056 C5051 1.490 . S
C5056 C5058 1.395 . S
C5056 C5059 1.403 . S
H5057 C5063 0.930 . S
C5058 H5044 0.930 . S
C5058 C5056 1.395 . S
C5058 C5061 1.403 . S
C5059 C5056 1.403 . S
C5059 C5060 1.524 . S
C5059 C5063 1.400 . S
C5060 H5045 0.960 . S
C5060 H5046 0.960 . S
C5060 H5047 0.960 . S
C5060 C5059 1.524 . S
C5061 C5058 1.403 . S
C5061 C5062 1.392 . S
C5061 C5065 1.495 . S
C5062 C5061 1.392 . S
C5062 C5063 1.385 . S
C5062 C5064 1.478 . S
C5063 H5057 0.930 . S
C5063 C5059 1.400 . S
C5063 C5062 1.385 . S
C5064 C5062 1.478 . S
C5064 C5066 1.381 . S
C5064 C5070 1.383 . S
C5065 C5061 1.495 . S
C5065 H5071 0.959 . S
C5065 H5072 0.961 . S
C5065 H5073 0.960 . S
C5066 C5064 1.381 . S
C5066 C5067 1.394 . S
C5066 H5074 0.930 . S
C5067 C5066 1.394 . S
C5067 C5068 1.383 . S
C5067 H5075 0.929 . S
C5068 C5067 1.383 . S
C5068 C5069 1.377 . S
C5069 H5053 0.930 . S
C5069 C5068 1.377 . S
C5069 C5070 1.379 . S
C5070 H5054 0.931 . S
C5070 C5064 1.383 . S
C5070 C5069 1.379 . S
H5071 C5065 0.959 . S
H5072 C5065 0.961 . S
H5073 C5065 0.960 . S
H5074 C5066 0.930 . S
H5075 C5067 0.929 . S
H5076 C5084 0.929 . S
H5077 C5086 0.930 . S
H5078 C5088 0.930 . S
H5079 C5091 0.929 . S
H5080 C5094 0.930 . S
H5081 C5096 0.960 . S
H5082 C5096 0.960 . S
H5083 C5096 0.960 . S
C5084 H5076 0.929 . S
C5084 C5085 1.377 . S
C5084 C5086 1.384 . S
C5085 C5084 1.377 . S
C5085 C5091 1.390 . S
C5086 H5077 0.930 . S
C5086 C5084 1.384 . S
C5086 C5087 1.372 . S
C5087 C5086 1.372 . S
C5087 C5088 1.400 . S
C5087 C5092 1.490 . S
C5088 H5078 0.930 . S
C5088 C5087 1.400 . S
C5088 C5091 1.386 . S
H5089 C5105 0.930 . S
H5090 C5106 0.931 . S
C5091 H5079 0.929 . S
C5091 C5085 1.390 . S
C5091 C5088 1.386 . S
C5092 C5087 1.490 . S
C5092 C5094 1.395 . S
C5092 C5095 1.403 . S
H5093 C5099 0.930 . S
C5094 H5080 0.930 . S
C5094 C5092 1.395 . S
C5094 C5097 1.403 . S
C5095 C5092 1.403 . S
C5095 C5096 1.524 . S
C5095 C5099 1.400 . S
C5096 H5081 0.960 . S
C5096 H5082 0.960 . S
C5096 H5083 0.960 . S
C5096 C5095 1.524 . S
C5097 C5094 1.403 . S
C5097 C5098 1.392 . S
C5097 C5101 1.495 . S
C5098 C5097 1.392 . S
C5098 C5099 1.385 . S
C5098 C5100 1.478 . S
C5099 H5093 0.930 . S
C5099 C5095 1.400 . S
C5099 C5098 1.385 . S
C5100 C5098 1.478 . S
C5100 C5102 1.381 . S
C5100 C5106 1.383 . S
C5101 C5097 1.495 . S
C5101 H5107 0.959 . S
C5101 H5108 0.961 . S
C5101 H5109 0.960 . S
C5102 C5100 1.381 . S
C5102 C5103 1.394 . S
C5102 H5110 0.930 . S
C5103 C5102 1.394 . S
C5103 C5104 1.383 . S
C5103 H5111 0.929 . S
C5104 C5103 1.383 . S
C5104 C5105 1.377 . S
C5105 H5089 0.930 . S
C5105 C5104 1.377 . S
C5105 C5106 1.379 . S
C5106 H5090 0.931 . S
C5106 C5100 1.383 . S
C5106 C5105 1.379 . S
H5107 C5101 0.959 . S
H5108 C5101 0.961 . S
H5109 C5101 0.960 . S
H5110 C5102 0.930 . S
H5111 C5103 0.929 . S
C1665 C101 1.653 . S
C1684 C368 1.524 . S
C1701 C57 2.162 . S
C1720 C459 2.138 . S
C1737 C73 1.492 . S
C1756 C536 1.479 1_565 S
C1792 C634 1.555 . S
C1773 C78 1.645 . S
C1809 C21 1.591 . S
C1828 C718 1.530 . S
C1864 C790 0.969 . S
C1845 C31 0.953 . S
C1900 C879 0.740 . S
C1881 C49 0.713 . S
C1917 C0 1.193 . S
C1936 C956 1.114 . S
C1972 C375 1.952 . S
C1953 C218 2.044 . S
C1989 C229 0.585 . S
C2008 C466 0.718 . S
C2044 C543 1.127 . S
C2025 C257 1.186 . S
C2080 C620 1.522 . S
C2061 C164 1.513 1_556 S
C2097 C216 1.891 . S
C2116 C704 1.871 . S
C2152 C806 1.029 . S
C2133 C231 1.141 . S
C2188 C886 0.700 . S
C2169 C255 0.730 . S
C2224 C963 1.361 . S
C2205 C166 1.421 . S
C2260 C382 1.403 . S
C2241 C143 1.447 . S
C2277 C265 2.013 . S
C2296 C1047 1.979 . S
C2332 C1135 2.054 . S
C2313 C299 2.224 . S
C2368 C1208 0.570 . S
C2349 C291 0.425 . S
C2385 C104 0.597 . S
C2404 C970 0.650 . S
C2421 C117 1.364 . S
C2440 C550 1.357 . S
C2457 C304 2.273 . S
C2476 C1299 2.237 . S
C2512 C1376 0.551 . S
C2493 C278 0.611 . S
C2548 C379 1.473 1_565 S
C2529 C60 1.580 . S
C2584 C1394 2.067 . S
C2565 C96 2.118 . S
C2601 C88 1.446 . S
C2620 C547 1.371 . S
C2637 C65 1.576 . S
C2656 C1294 1.478 . S
C2692 C706 1.509 . S
C2673 C10 1.565 . S
C2709 C44 0.880 . S
C2728 C1138 0.789 . S
C2764 C890 0.648 . S
C2745 C34 0.621 . S
C2800 C1471 1.112 . S
C2781 C13 1.184 . S
C2836 C386 1.828 . S
C2817 C138 1.896 . S
C2872 C1378 0.608 . S
C2853 C296 0.502 . S
C2889 C112 1.105 . S
C2908 C554 1.097 . S
C2925 C270 1.485 . S
C2944 C1303 1.352 . S
C2961 C140 1.909 . S
C2980 C715 1.792 . S
C3016 C1131 1.033 . S
C2997 C294 1.057 . S
C3033 C114 0.646 . S
C3052 C874 0.610 . S
C3069 C268 1.290 . S
C3088 C1478 1.221 . S
C3105 C169 1.417 . S
C3124 C370 1.377 1_554 S
C3141 C161 1.953 . S
C3160 C1058 1.905 . S
C3177 C234 2.150 . S
C3196 C788 2.022 . S
C3213 C226 0.413 . S
C3232 C1219 0.583 . S
C3268 C1462 0.562 . S
C3249 C247 0.536 . S
C3285 C195 1.368 . S
C3304 C538 1.334 . S
C3340 C638 2.157 . S
C3321 C239 2.192 . S
C3376 C463 0.630 . S
C3357 C187 0.507 . S
C3393 C75 1.656 . S
C3412 C1544 1.564 . S
C3448 C1383 2.148 . S
C3429 C83 2.160 . S
C3465 C99 1.487 . S
C3484 C1628 1.502 . S
C3501 C52 1.645 . S
C3520 C1306 1.546 . S
C3537 C47 1.592 . S
C3556 C1054 1.534 . S
C3592 C1126 0.850 . S
C3573 C5 0.943 . S
C3628 C1215 0.679 . S
C3609 C23 0.722 . S
C3664 C1460 1.186 . S
C3645 C26 1.180 . S
C3700 C1551 1.968 . S
C3681 C244 2.044 . S
C3717 C177 0.574 . S
C3736 C1390 0.635 . S
C3772 C1635 1.131 . S
C3753 C192 1.186 . S
C3808 C1292 1.468 . S
C3789 C203 1.520 . S
C3844 C1040 1.870 . S
C3825 C242 1.882 . S
C3861 C179 1.144 . S
C3880 C1142 1.040 . S
C3916 C1222 0.681 . S
C3897 C190 0.739 . S
C3933 C205 1.420 . S
C3952 C1467 1.290 . S
C3988 C1558 1.368 . S
C3969 C286 1.438 . S
C4005 C122 2.017 . S
C4024 C711 1.963 . S
C4060 C799 2.051 . S
C4041 C130 2.230 . S
C4096 C872 0.414 . S
C4077 C148 0.455 . S
C4132 C1474 0.631 . S
C4113 C273 0.617 . S
C4149 C260 1.360 1_556 S
C4168 C1642 1.331 . S
C4204 C627 2.222 . S
C4185 C135 2.271 . S
C4240 C452 0.560 . S
C4221 C109 0.615 . S
C4257 C86 1.582 . S
C4276 C1555 1.441 . S
C4312 C470 2.051 . S
C4293 C70 2.119 . S
C4329 C62 1.447 . S
C4348 C1639 1.322 . S
C4365 C91 1.574 . S
C4384 C622 1.431 . S
C4401 C36 1.565 . S
C4420 C1042 1.460 1_556 S
C4456 C802 0.916 . S
C4437 C18 0.870 . S
C4473 C8 0.642 . S
C4492 C1226 0.595 . S
C4509 C39 1.184 . S
C4528 C967 1.102 . S
C4564 C1562 1.832 . S
C4545 C307 1.899 . S
C4581 C153 0.503 . S
C4600 C454 0.650 . S
C4636 C1646 1.120 . S
C4617 C281 1.095 . S
C4653 C127 1.487 . S
C4672 C631 1.408 . S
C4689 C309 1.906 . S
C4708 C1051 1.746 . S
C4744 C795 1.055 . S
C4725 C151 1.053 . S
C4761 C283 0.646 . S
C4780 C1210 0.746 . S
C4816 C974 1.249 . S
C4797 C125 1.288 . S
C4852 C1546 1.366 . S
C4833 C221 1.418 . S
C4888 C722 1.882 1_655 S
C4869 C200 1.952 . S
C4905 C208 2.152 . S
C4924 C1124 1.996 . S
C4960 C883 0.577 . S
C4941 C174 0.414 . S
C4977 C182 0.537 . S
C4996 C958 0.528 . S
C5013 C156 1.366 . S
C5032 C1630 1.294 1_554 S
C5068 C1310 2.158 . S
C5049 C213 2.192 . S
C5104 C1387 0.531 . S
C5085 C252 0.517 . S
