# Generated by pormake.
# Topology bcu-b, (8,8)-cn, num edge types: 1
# Building blocks:
#     Node 0, Type 0, BuildingBlock: TAGTUT_clean_sbu_1, # of connection points: 8
#     Node 1, Type 1, BuildingBlock: TAGTUT_clean_sbu_3, # of connection points: 8
#     Edge 2, Type (0, 1), BuildingBlock: MIFKUJ_clean_linker_0, # of connection points: 2
#     Edge 3, Type (0, 1), BuildingBlock: MIFKUJ_clean_linker_0, # of connection points: 2
#     Edge 4, Type (0, 1), BuildingBlock: MIFKUJ_clean_linker_0, # of connection points: 2
#     Edge 5, Type (0, 1), BuildingBlock: MIFKUJ_clean_linker_0, # of connection points: 2
#     Edge 6, Type (0, 1), BuildingBlock: MIFKUJ_clean_linker_0, # of connection points: 2
#     Edge 7, Type (0, 1), BuildingBlock: MIFKUJ_clean_linker_0, # of connection points: 2
#     Edge 8, Type (0, 1), BuildingBlock: MIFKUJ_clean_linker_0, # of connection points: 2
#     Edge 9, Type (0, 1), BuildingBlock: MIFKUJ_clean_linker_0, # of connection points: 2
# Relax obj value: 0.021
# Max RMSD: 0.091
# Mean RMSD: 0.081
data_MOF--net-bcu-b--node1-TAGTUT_clean_sbu_1--node2-TAGTUT_clean_sbu_3--edge1-MIFKUJ_clean_linker_0
_symmetry_space_group_name_H-M    P1
_symmetry_Int_Tables_number       1
_symmetry_cell_setting            triclinic
loop_
_symmetry_equiv_pos_as_xyz
'x, y, z'
_cell_length_a     25.010994
_cell_length_b     23.950827
_cell_length_c     26.147051
_cell_angle_alpha  91.351427
_cell_angle_beta   91.847539
_cell_angle_gamma 107.37984
loop_
_atom_site_label
_atom_site_type_symbol
_atom_site_fract_x
_atom_site_fract_y
_atom_site_fract_z
_atom_type_partial_charge
C0 C 0.89507 0.13877 0.07363 0.0
C1 C 0.94008 0.13055 0.91806 0.0
C2 C 0.89688 0.89792 0.94675 0.0
Mg3 Mg 0.0044 0.13688 0.02221 0.0
O4 O 0.97243 0.05593 0.02679 0.0
Mg5 Mg 0.89333 0.02012 -0.00013 0.0
Mg6 Mg 0.00667 0.9987 0.99476 0.0
O7 O 0.04017 0.94079 0.96336 0.0
Mg8 Mg 0.00734 0.8608 0.97481 0.0
Mg9 Mg 0.12014 0.9771 0.98766 0.0
C10 C 0.11581 0.09953 0.04623 0.0
C11 C 0.08782 0.06142 0.90464 0.0
O12 O 0.87012 0.09012 0.04951 0.0
O13 O 0.94807 0.16367 0.0718 0.0
O14 O 0.905 0.08296 0.93194 0.0
O15 O 0.98377 0.15711 0.9457 0.0
O16 O 0.09083 0.13943 0.04433 0.0
O17 O 0.09021 0.04563 0.03411 0.0
C18 C 0.92478 0.93568 0.08443 0.0
O19 O 0.97194 0.94227 0.06341 0.0
O20 O 0.88902 0.9604 0.06753 0.0
O21 O 0.13956 0.90296 0.93689 0.0
O22 O 0.05861 0.82996 0.92417 0.0
O23 O 0.11182 0.9203 0.0574 0.0
C24 C 0.11086 0.85291 0.9165 0.0
O25 O 0.03402 0.84434 0.05119 0.0
O26 O 0.92024 0.85714 0.953 0.0
C27 C 0.07858 0.87471 0.07577 0.0
O28 O 0.92402 0.95223 0.95477 0.0
O29 O 0.04105 0.05529 0.92618 0.0
O30 O 0.12284 0.03534 0.92043 0.0
C31 C 0.59065 0.59892 0.57095 0.0
C32 C 0.65604 0.4047 0.57811 0.0
C33 C 0.59196 0.38237 0.42346 0.0
Mg34 Mg 0.48906 0.6206 0.50061 0.0
Mg35 Mg 0.38071 0.50855 0.46216 0.0
O36 O 0.45897 0.5437 0.46153 0.0
Mg37 Mg 0.50665 0.50069 0.49569 0.0
O38 O 0.5572 0.4616 0.53075 0.0
Mg39 Mg 0.62955 0.5054 0.4996 0.0
Mg40 Mg 0.53685 0.37949 0.52616 0.0
C41 C 0.41965 0.40251 0.41803 0.0
O42 O 0.43715 0.44996 0.54608 0.0
O43 O 0.43072 0.65461 0.44493 0.0
O44 O 0.45103 0.36141 0.55194 0.0
O45 O 0.41938 0.59993 0.55777 0.0
O46 O 0.3608 0.57441 0.41794 0.0
O47 O 0.35089 0.51778 0.53795 0.0
O48 O 0.57831 0.54957 0.44785 0.0
O49 O 0.56124 0.6361 0.44592 0.0
C50 C 0.59145 0.60299 0.4344 0.0
C51 C 0.38536 0.62971 0.41795 0.0
O52 O 0.46989 0.42616 0.43626 0.0
O53 O 0.67253 0.45367 0.55515 0.0
O54 O 0.37914 0.42373 0.4272 0.0
O55 O 0.62237 0.43407 0.43669 0.0
O56 O 0.60535 0.37103 0.57362 0.0
O57 O 0.5526 0.35308 0.45071 0.0
O58 O 0.54067 0.57657 0.55196 0.0
O59 O 0.63022 0.57713 0.55993 0.0
C60 C 0.37356 0.56183 0.56809 0.0
C61 C 0.42177 0.39658 0.55966 0.0
H62 H 0.18602 0.20952 0.06617 0.0
H63 H 0.27142 0.2367 0.11918 0.0
H64 H 0.26458 0.05489 0.12771 0.0
H65 H 0.17739 0.02715 0.07567 0.0
H66 H 0.27353 0.09579 0.21731 0.0
H67 H 0.38436 0.16013 0.08088 0.0
H68 H 0.41542 0.20361 -0.00161 0.0
H69 H 0.42127 0.37344 0.0593 0.0
H70 H 0.38934 0.33103 0.14189 0.0
H71 H 0.49521 0.36916 0.36129 0.0
H72 H 0.47647 0.28979 0.29663 0.0
H73 H 0.30011 0.24342 0.32666 0.0
H74 H 0.31923 0.32085 0.39295 0.0
H75 H 0.42345 0.2853 0.21249 0.0
H76 H 0.23001 0.10747 0.29682 0.0
H77 H 0.20823 0.05507 0.37705 0.0
H78 H 0.38383 0.09807 0.4178 0.0
H79 H 0.40689 0.14985 0.33735 0.0
C80 C 0.20329 0.17525 0.07812 0.0
C81 C 0.17418 0.11603 0.06743 0.0
C82 C 0.25287 0.19096 0.10804 0.0
C83 C 0.27507 0.14792 0.1274 0.0
C84 C 0.24853 0.08895 0.11324 0.0
C85 C 0.19856 0.07312 0.08336 0.0
C86 C 0.31885 0.16467 0.16942 0.0
C87 C 0.30696 0.13673 0.21615 0.0
C88 C 0.36507 0.21583 0.16744 0.0
C89 C 0.38455 0.24223 0.11784 0.0
C90 C 0.39201 0.20673 0.07669 0.0
C91 C 0.40979 0.23121 0.02986 0.0
C92 C 0.42038 0.29126 0.02363 0.0
C93 C 0.41322 0.32695 0.06424 0.0
C94 C 0.39543 0.30271 0.11116 0.0
C95 C 0.45283 0.34051 0.35558 0.0
C96 C 0.40882 0.35091 0.38262 0.0
C97 C 0.44207 0.29542 0.31822 0.0
C98 C 0.38697 0.25999 0.30702 0.0
C99 C 0.34322 0.26907 0.33533 0.0
C100 C 0.35404 0.31395 0.37281 0.0
C101 C 0.3732 0.22009 0.26093 0.0
C102 C 0.39131 0.2434 0.2135 0.0
C103 C 0.33416 0.16357 0.2621 0.0
C104 C 0.32022 0.13283 0.31091 0.0
C105 C 0.26409 0.10547 0.32263 0.0
C106 C 0.25149 0.0759 0.36824 0.0
C107 C 0.2946 0.07329 0.40253 0.0
C108 C 0.35045 0.10025 0.39127 0.0
C109 C 0.36331 0.12983 0.34569 0.0
H110 H 0.28474 0.05036 0.43782 0.0
H111 H 0.4341 0.31012 0.98733 0.0
H112 H 0.92926 0.21543 0.15596 0.0
H113 H 0.87077 0.25715 0.2089 0.0
H114 H 0.72599 0.16963 0.11129 0.0
H115 H 0.78364 0.12582 0.05987 0.0
H116 H 0.81171 0.32737 0.19583 0.0
H117 H 0.60891 0.1306 0.17785 0.0
H118 H 0.58073 0.02324 0.16439 0.0
H119 H 0.74029 0.0197 0.2275 0.0
H120 H 0.7691 0.12688 0.24197 0.0
H121 H 0.61346 0.42475 0.32801 0.0
H122 H 0.65392 0.38209 0.25855 0.0
H123 H 0.65334 0.23619 0.35298 0.0
H124 H 0.60806 0.27604 0.4198 0.0
H125 H 0.63786 0.19669 0.26488 0.0
H126 H 0.77298 0.37256 0.33979 0.0
H127 H 0.80734 0.47806 0.36328 0.0
H128 H 0.79694 0.51975 0.20515 0.0
H129 H 0.76198 0.41458 0.18084 0.0
C130 C 0.88496 0.20517 0.14586 0.0
C131 C 0.86087 0.16675 0.10425 0.0
C132 C 0.85159 0.22916 0.176 0.0
C133 C 0.79371 0.21576 0.16466 0.0
C134 C 0.77018 0.17941 0.1217 0.0
C135 C 0.80324 0.15451 0.09224 0.0
C136 C 0.75782 0.23862 0.19844 0.0
C137 C 0.77372 0.29879 0.21101 0.0
C138 C 0.70841 0.20138 0.21861 0.0
C139 C 0.69136 0.13683 0.21038 0.0
C140 C 0.6379 0.10686 0.18895 0.0
C141 C 0.62183 0.04606 0.18115 0.0
C142 C 0.65878 0.0147 0.1949 0.0
C143 C 0.7118 0.04406 0.21667 0.0
C144 C 0.72804 0.10484 0.22463 0.0
C145 C 0.62077 0.3828 0.33301 0.0
C146 C 0.60795 0.3535 0.37892 0.0
C147 C 0.64451 0.35879 0.29371 0.0
C148 C 0.65869 0.30683 0.301 0.0
C149 C 0.64314 0.27635 0.34616 0.0
C150 C 0.61728 0.29909 0.38444 0.0
C151 C 0.69233 0.28542 0.26353 0.0
C152 C 0.67577 0.22546 0.24976 0.0
C153 C 0.74233 0.32255 0.24396 0.0
C154 C 0.76438 0.38576 0.25858 0.0
C155 C 0.77789 0.40428 0.31009 0.0
C156 C 0.79745 0.46401 0.32354 0.0
C157 C 0.80422 0.50561 0.28575 0.0
C158 C 0.79165 0.48754 0.2344 0.0
C159 C 0.772 0.42789 0.22076 0.0
H160 H 0.8193 0.55182 0.29621 0.0
H161 H 0.64627 0.96764 0.18879 0.0
H162 H 0.96372 0.84479 0.11168 0.0
H163 H 0.93521 0.7795 0.18276 0.0
H164 H 0.82423 0.87684 0.22974 0.0
H165 H 0.85285 0.94222 0.15871 0.0
H166 H 0.88637 0.8433 0.31259 0.0
H167 H 0.77402 0.76102 0.15431 0.0
H168 H 0.76445 0.7221 0.06516 0.0
H169 H 0.84235 0.59236 0.1097 0.0
H170 H 0.85321 0.6313 0.19899 0.0
H171 H 0.63393 0.71619 0.4085 0.0
H172 H 0.71737 0.76025 0.36239 0.0
H173 H 0.75265 0.59464 0.35317 0.0
H174 H 0.66719 0.54905 0.39924 0.0
H175 H 0.76151 0.64489 0.26228 0.0
H176 H 0.84206 0.70691 0.42535 0.0
H177 H 0.84783 0.74293 0.51504 0.0
H178 H 0.83267 0.90726 0.46533 0.0
H179 H 0.82596 0.87207 0.37532 0.0
C180 C 0.93427 0.853 0.13761 0.0
C181 C 0.91062 0.89854 0.12937 0.0
C182 C 0.91784 0.81554 0.17817 0.0
C183 C 0.87769 0.82347 0.21139 0.0
C184 C 0.85558 0.87029 0.20457 0.0
C185 C 0.87158 0.90725 0.16372 0.0
C186 C 0.85428 0.78044 0.25049 0.0
C187 C 0.85942 0.79969 0.30196 0.0
C188 C 0.82156 0.72259 0.23666 0.0
C189 C 0.81513 0.69952 0.18304 0.0
C190 C 0.7896 0.72458 0.14494 0.0
C191 C 0.78387 0.70248 0.09443 0.0
C192 C 0.80299 0.65494 0.08173 0.0
C193 C 0.82775 0.62931 0.11955 0.0
C194 C 0.83373 0.65139 0.17008 0.0
C195 C 0.65935 0.68883 0.39718 0.0
C196 C 0.64372 0.62897 0.40757 0.0
C197 C 0.70765 0.71441 0.37125 0.0
C198 C 0.74209 0.68114 0.35546 0.0
C199 C 0.727 0.62125 0.36571 0.0
C200 C 0.6782 0.59533 0.39189 0.0
C201 C 0.79035 0.70924 0.32405 0.0
C202 C 0.7903 0.68734 0.27384 0.0
C203 C 0.82827 0.76442 0.33926 0.0
C204 C 0.83361 0.78675 0.39338 0.0
C205 C 0.83982 0.7507 0.43347 0.0
C206 C 0.84323 0.77098 0.48442 0.0
C207 C 0.84065 0.82736 0.49586 0.0
C208 C 0.83481 0.86365 0.45637 0.0
C209 C 0.83138 0.8436 0.40534 0.0
H210 H 0.84318 0.84291 0.53533 0.0
H211 H 0.79846 0.63783 0.04262 0.0
H212 H 0.12972 0.94273 0.15853 0.0
H213 H 0.17507 0.91263 0.23273 0.0
H214 H 0.11671 0.73337 0.1749 0.0
H215 H 0.06809 0.76301 0.10274 0.0
H216 H 0.11816 0.73285 0.27237 0.0
H217 H 0.25609 0.84428 0.15129 0.0
H218 H 0.3045 0.93394 0.10657 0.0
H219 H 0.34939 0.02883 0.25079 0.0
H220 H 0.30077 0.93994 0.29625 0.0
H221 H 0.31378 0.5932 0.33539 0.0
H222 H 0.25848 0.64667 0.29123 0.0
H223 H 0.33682 0.79981 0.38775 0.0
H224 H 0.39363 0.74633 0.432 0.0
H225 H 0.32351 0.82902 0.29017 0.0
H226 H 0.20588 0.71667 0.4116 0.0
H227 H 0.16036 0.62941 0.46019 0.0
H228 H 0.07659 0.54048 0.32216 0.0
H229 H 0.12232 0.62685 0.27253 0.0
C230 C 0.12544 0.89668 0.16256 0.0
C231 C 0.09586 0.85511 0.12487 0.0
C232 C 0.15192 0.8796 0.20463 0.0
C233 C 0.15125 0.82102 0.20856 0.0
C234 C 0.11838 0.77896 0.17264 0.0
C235 C 0.09045 0.7958 0.1314 0.0
C236 C 0.18724 0.80336 0.24758 0.0
C237 C 0.16308 0.75375 0.27599 0.0
C238 C 0.24561 0.83237 0.25465 0.0
C239 C 0.27448 0.88565 0.22707 0.0
C240 C 0.27609 0.88436 0.17338 0.0
C241 C 0.30359 0.93502 0.14793 0.0
C242 C 0.33006 0.98701 0.17584 0.0
C243 C 0.32892 0.98854 0.22923 0.0
C244 C 0.30143 0.93806 0.25484 0.0
C245 C 0.31969 0.63841 0.34711 0.0
C246 C 0.35774 0.66539 0.38753 0.0
C247 C 0.28775 0.66884 0.32198 0.0
C248 C 0.29232 0.72669 0.33714 0.0
C249 C 0.33221 0.75494 0.37583 0.0
C250 C 0.36478 0.72447 0.40089 0.0
C251 C 0.25473 0.75658 0.31225 0.0
C252 C 0.27847 0.80865 0.28705 0.0
C253 C 0.19589 0.7303 0.30857 0.0
C254 C 0.1678 0.67825 0.33828 0.0
C255 C 0.17803 0.67839 0.39152 0.0
C256 C 0.15215 0.62908 0.41927 0.0
C257 C 0.11565 0.57942 0.39427 0.0
C258 C 0.10487 0.579 0.34147 0.0
C259 C 0.1307 0.62817 0.31352 0.0
H260 H 0.09566 0.54128 0.41582 0.0
H261 H 0.35146 0.02613 0.1561 0.0
H262 H 0.06034 0.75474 0.85724 0.0
H263 H 0.10426 0.69768 0.80409 0.0
H264 H 0.26731 0.81626 0.84733 0.0
H265 H 0.2234 0.87481 0.90018 0.0
H266 H 0.25902 0.79138 0.74748 0.0
H267 H 0.21649 0.67773 0.89816 0.0
H268 H 0.15641 0.62399 0.96491 0.0
H269 H 0.05322 0.50546 0.85019 0.0
H270 H 0.11208 0.5591 0.78268 0.0
H271 H 0.42166 0.62838 0.6524 0.0
H272 H 0.3745 0.66716 0.71816 0.0
H273 H 0.21401 0.5619 0.65413 0.0
H274 H 0.26131 0.52223 0.58771 0.0
H275 H 0.21973 0.57697 0.76466 0.0
H276 H 0.25748 0.69177 0.61454 0.0
H277 H 0.31718 0.74299 0.54648 0.0
H278 H 0.42754 0.85775 0.65934 0.0
H279 H 0.36891 0.80654 0.72818 0.0
C280 C 0.10561 0.76888 0.85569 0.0
C281 C 0.13836 0.8194 0.88331 0.0
C282 C 0.13068 0.73582 0.82541 0.0
C283 C 0.18916 0.75189 0.82247 0.0
C284 C 0.22207 0.80277 0.8493 0.0
C285 C 0.19693 0.83624 0.87947 0.0
C286 C 0.21565 0.71652 0.7901 0.0
C287 C 0.25104 0.74471 0.75191 0.0
C288 C 0.20388 0.65511 0.79465 0.0
C289 C 0.16842 0.62283 0.8353 0.0
C290 C 0.1807 0.64053 0.88712 0.0
C291 C 0.14688 0.61003 0.92512 0.0
C292 C 0.1009 0.56145 0.91181 0.0
C293 C 0.08874 0.54318 0.86047 0.0
C294 C 0.12234 0.5736 0.82233 0.0
C295 C 0.37636 0.61236 0.65283 0.0
C296 C 0.3451 0.57323 0.61416 0.0
C297 C 0.3495 0.63458 0.69053 0.0
C298 C 0.29083 0.61845 0.6902 0.0
C299 C 0.2594 0.57516 0.65471 0.0
C300 C 0.28643 0.55255 0.61684 0.0
C301 C 0.2632 0.65214 0.72281 0.0
C302 C 0.22762 0.62369 0.76065 0.0
C303 C 0.27438 0.71326 0.71787 0.0
C304 C 0.30908 0.745 0.67653 0.0
C305 C 0.29467 0.72769 0.62487 0.0
C306 C 0.32829 0.75673 0.58615 0.0
C307 C 0.37619 0.80351 0.59859 0.0
C308 C 0.39045 0.82146 0.64977 0.0
C309 C 0.35701 0.79248 0.68866 0.0
H310 H 0.40219 0.82592 0.56857 0.0
H311 H 0.07479 0.53787 0.94127 0.0
H312 H 0.0294 0.12981 0.86048 0.0
H313 H 0.06435 0.20787 0.79984 0.0
H314 H 0.21819 0.162 0.79226 0.0
H315 H 0.18475 0.0865 0.85365 0.0
H316 H 0.23702 0.27926 0.8112 0.0
H317 H 0.10792 0.1204 0.69534 0.0
H318 H 0.01114 0.05981 0.67192 0.0
H319 H 0.95951 0.21484 0.65976 0.0
H320 H 0.05586 0.27614 0.68346 0.0
H321 H 0.35139 0.28499 0.56037 0.0
H322 H 0.26907 0.24899 0.61212 0.0
H323 H 0.29009 0.42478 0.66991 0.0
H324 H 0.37378 0.46043 0.62016 0.0
H325 H 0.16394 0.2728 0.63171 0.0
H326 H 0.28139 0.41411 0.79566 0.0
H327 H 0.37658 0.4765 0.82232 0.0
H328 H 0.44815 0.35905 0.74245 0.0
H329 H 0.35335 0.29589 0.71575 0.0
C330 C 0.07065 0.13679 0.84607 0.0
C331 C 0.10465 0.10298 0.86298 0.0
C332 C 0.09042 0.18107 0.81125 0.0
C333 C 0.14418 0.1912 0.79232 0.0
C334 C 0.17692 0.15553 0.8072 0.0
C335 C 0.15751 0.11203 0.84214 0.0
C336 C 0.16835 0.23894 0.75744 0.0
C337 C 0.22035 0.27889 0.77229 0.0
C338 C 0.14591 0.23968 0.70727 0.0
C339 C 0.08884 0.20269 0.69125 0.0
C340 C 0.07586 0.14143 0.68761 0.0
C341 C 0.0211 0.107 0.67438 0.0
C342 C 0.97916 0.13344 0.66448 0.0
C343 C 0.99196 0.19438 0.66752 0.0
C344 C 0.04663 0.22897 0.68072 0.0
C345 C 0.33793 0.31599 0.58356 0.0
C346 C 0.36887 0.37549 0.58632 0.0
C347 C 0.29039 0.29559 0.61235 0.0
C348 C 0.27344 0.33433 0.64455 0.0
C349 C 0.3022 0.39434 0.64487 0.0
C350 C 0.3499 0.41465 0.61634 0.0
C351 C 0.23407 0.30996 0.68488 0.0
C352 C 0.17935 0.275 0.67119 0.0
C353 C 0.25358 0.31416 0.73658 0.0
C354 C 0.31056 0.35073 0.75351 0.0
C355 C 0.31752 0.4016 0.78405 0.0
C356 C 0.37134 0.43708 0.79908 0.0
C357 C 0.41839 0.42181 0.78399 0.0
C358 C 0.4117 0.37088 0.75403 0.0
C359 C 0.35798 0.33524 0.73896 0.0
H360 H 0.46002 0.44939 0.79558 0.0
H361 H 0.93677 0.10672 0.65439 0.0
H362 H 1.0002 0.23524 0.87941 0.0
H363 H 0.97049 0.28828 0.81079 0.0
H364 H 0.81985 0.14393 0.78301 0.0
H365 H 0.84958 0.09006 0.85077 0.0
H366 H 0.85924 0.19361 0.69444 0.0
H367 H 0.8218 0.25926 0.86302 0.0
H368 H 0.84842 0.30049 0.95076 0.0
H369 H 0.95863 0.45677 0.89103 0.0
H370 H 0.93333 0.41599 0.80285 0.0
H371 H 0.6391 0.29665 0.61718 0.0
H372 H 0.70559 0.25909 0.66399 0.0
H373 H 0.83269 0.4257 0.65555 0.0
H374 H 0.76579 0.4643 0.60782 0.0
H375 H 0.82519 0.37805 0.75361 0.0
H376 H 0.84612 0.31836 0.58342 0.0
H377 H 0.81615 0.27638 0.49647 0.0
H378 H 0.73592 0.10905 0.55854 0.0
H379 H 0.76452 0.15023 0.64599 0.0
C380 C 0.96118 0.21425 0.85815 0.0
C381 C 0.92682 0.15868 0.87127 0.0
C382 C 0.94424 0.24478 0.81898 0.0
C383 C 0.89239 0.22062 0.79255 0.0
C384 C 0.8599 0.16359 0.80311 0.0
C385 C 0.8769 0.13291 0.84208 0.0
C386 C 0.86927 0.2561 0.7572 0.0
C387 C 0.85186 0.23398 0.70728 0.0
C388 C 0.86107 0.30971 0.77353 0.0
C389 C 0.87623 0.33429 0.82643 0.0
C390 C 0.85208 0.30221 0.86863 0.0
C391 C 0.86689 0.32551 0.91841 0.0
C392 C 0.90538 0.38112 0.92645 0.0
C393 C 0.92901 0.41361 0.88471 0.0
C394 C 0.91446 0.39043 0.83483 0.0
C395 C 0.68106 0.32574 0.62518 0.0
C396 C 0.69697 0.38369 0.60857 0.0
C397 C 0.71922 0.30387 0.65172 0.0
C398 C 0.77433 0.33924 0.66254 0.0
C399 C 0.79041 0.39754 0.64715 0.0
C400 C 0.75216 0.4195 0.61996 0.0
C401 C 0.81376 0.31468 0.6913 0.0
C402 C 0.83404 0.33867 0.74012 0.0
C403 C 0.82452 0.26275 0.67396 0.0
C404 C 0.80722 0.23757 0.62138 0.0
C405 C 0.82169 0.27273 0.57861 0.0
C406 C 0.805 0.24905 0.52919 0.0
C407 C 0.77408 0.19012 0.52199 0.0
C408 C 0.75986 0.15471 0.56419 0.0
C409 C 0.77637 0.1782 0.6137 0.0
H410 H 0.7612 0.17187 0.4837 0.0
H411 H 0.91676 0.39912 0.96502 0.0
H412 H 0.83805 0.97158 0.91465 0.0
H413 H 0.75187 0.94505 0.86129 0.0
H414 H 0.7393 0.76228 0.87427 0.0
H415 H 0.82422 0.78829 0.92853 0.0
H416 H 0.74981 0.89935 0.77181 0.0
H417 H 0.61613 0.67276 0.849 0.0
H418 H 0.58005 0.63351 0.93149 0.0
H419 H 0.59497 0.80709 0.98904 0.0
H420 H 0.63027 0.84746 0.9066 0.0
H421 H 0.69348 0.66631 0.60651 0.0
H422 H 0.71502 0.74265 0.67318 0.0
H423 H 0.53882 0.72411 0.68483 0.0
H424 H 0.51668 0.64613 0.61789 0.0
H425 H 0.5865 0.72096 0.77651 0.0
H426 H 0.62547 0.85368 0.64449 0.0
H427 H 0.66039 0.89353 0.56174 0.0
H428 H 0.82944 0.913 0.61472 0.0
H429 H 0.79564 0.87237 0.69744 0.0
C430 C 0.81591 0.92566 0.90771 0.0
C431 C 0.83868 0.88207 0.92511 0.0
C432 C 0.76652 0.91059 0.87712 0.0
C433 C 0.73897 0.85172 0.86363 0.0
C434 C 0.75905 0.80802 0.88474 0.0
C435 C 0.80822 0.82302 0.91539 0.0
C436 C 0.6971 0.83581 0.82014 0.0
C437 C 0.71331 0.86115 0.77299 0.0
C438 C 0.64802 0.7876 0.82187 0.0
C439 C 0.62587 0.76321 0.87138 0.0
C440 C 0.61119 0.7026 0.87897 0.0
C441 C 0.59102 0.68013 0.92584 0.0
C442 C 0.58523 0.71777 0.96548 0.0
C443 C 0.59955 0.77798 0.95832 0.0
C444 C 0.61972 0.80069 0.91153 0.0
C445 C 0.65918 0.67883 0.62261 0.0
C446 C 0.60329 0.64978 0.60722 0.0
C447 C 0.67163 0.72308 0.66043 0.0
C448 C 0.62858 0.73979 0.68348 0.0
C449 C 0.57267 0.71221 0.6672 0.0
C450 C 0.56012 0.66775 0.62901 0.0
C451 C 0.64304 0.78103 0.7284 0.0
C452 C 0.62148 0.76066 0.77566 0.0
C453 C 0.6868 0.83433 0.72687 0.0
C454 C 0.70787 0.86008 0.67743 0.0
C455 C 0.6701 0.86632 0.63851 0.0
C456 C 0.68972 0.88901 0.59154 0.0
C457 C 0.7471 0.90581 0.58299 0.0
C458 C 0.78501 0.9001 0.62144 0.0
C459 C 0.76562 0.87739 0.66847 0.0
H460 H 0.7622 0.9232 0.54655 0.0
H461 H 0.56966 0.70028 0.00175 0.0
loop_
_geom_bond_atom_site_label_1
_geom_bond_atom_site_label_2
_geom_bond_distance
_geom_bond_site_symmetry_2
_ccdc_geom_bond_type
C0 O12 1.241 . S
C0 O13 1.280 . S
C1 O14 1.277 . S
C1 O15 1.245 . S
C2 O26 1.247 . S
C2 O28 1.289 . S
Mg3 O4 1.926 . S
Mg3 O13 1.984 . S
Mg3 O15 1.988 1_554 S
Mg3 O16 2.061 1_655 S
O4 Mg3 1.926 . S
O4 Mg5 1.986 . S
O4 Mg6 1.917 1_655 S
Mg5 O4 1.986 . S
Mg5 O12 2.042 . S
Mg5 O14 2.041 1_554 S
Mg5 O20 2.038 1_545 S
Mg5 O28 2.238 1_544 S
Mg6 O4 1.917 1_455 S
Mg6 O7 1.917 1_544 S
Mg6 O17 2.106 . S
Mg6 O19 2.079 1_445 S
Mg6 O28 2.106 1_444 S
Mg6 O29 2.079 1_554 S
O7 Mg6 1.917 1_566 S
O7 Mg8 1.926 . S
O7 Mg9 1.985 1_556 S
Mg8 O7 1.926 . S
Mg8 O22 1.984 . S
Mg8 O25 1.988 1_556 S
Mg8 O26 2.061 1_455 S
Mg9 O7 1.985 1_554 S
Mg9 O17 2.242 1_565 S
Mg9 O21 2.038 1_554 S
Mg9 O23 2.047 . S
Mg9 O30 2.033 1_564 S
C10 O16 1.247 . S
C10 O17 1.289 . S
C11 O29 1.245 . S
C11 O30 1.274 . S
O12 C0 1.241 . S
O12 Mg5 2.042 . S
O13 C0 1.280 . S
O13 Mg3 1.984 . S
O14 C1 1.277 . S
O14 Mg5 2.041 1_556 S
O15 C1 1.245 . S
O15 Mg3 1.988 1_556 S
O16 Mg3 2.061 1_455 S
O16 C10 1.247 . S
O17 Mg6 2.106 . S
O17 Mg9 2.242 1_545 S
O17 C10 1.289 . S
C18 O19 1.245 . S
C18 O20 1.274 . S
O19 Mg6 2.079 1_665 S
O19 C18 1.245 . S
O20 Mg5 2.038 1_565 S
O20 C18 1.274 . S
O21 Mg9 2.038 1_556 S
O21 C24 1.241 . S
O22 Mg8 1.984 . S
O22 C24 1.280 . S
O23 Mg9 2.047 . S
O23 C27 1.277 . S
C24 O21 1.241 . S
C24 O22 1.280 . S
O25 Mg8 1.988 1_554 S
O25 C27 1.245 . S
O26 C2 1.247 . S
O26 Mg8 2.061 1_655 S
C27 O23 1.277 . S
C27 O25 1.245 . S
O28 C2 1.289 . S
O28 Mg5 2.238 1_566 S
O28 Mg6 2.106 1_666 S
O29 Mg6 2.079 1_556 S
O29 C11 1.245 . S
O30 Mg9 2.033 1_546 S
O30 C11 1.274 . S
C31 O58 1.312 . S
C31 O59 1.208 . S
C32 O53 1.331 . S
C32 O56 1.244 . S
C33 O55 1.264 . S
C33 O57 1.273 . S
Mg34 O36 1.936 . S
Mg34 O43 2.081 . S
Mg34 O45 2.023 . S
Mg34 O49 2.031 . S
Mg34 O58 2.291 . S
Mg35 O36 1.963 . S
Mg35 O46 1.942 . S
Mg35 O47 1.955 . S
Mg35 O54 1.986 . S
O36 Mg34 1.936 . S
O36 Mg35 1.963 . S
O36 Mg37 1.915 . S
Mg37 O36 1.915 . S
Mg37 O38 1.915 . S
Mg37 O42 2.013 . S
Mg37 O48 2.114 . S
Mg37 O52 2.013 . S
Mg37 O58 2.114 . S
O38 Mg37 1.915 . S
O38 Mg39 1.936 . S
O38 Mg40 1.963 . S
Mg39 O38 1.936 . S
Mg39 O48 2.291 . S
Mg39 O53 2.081 . S
Mg39 O55 2.023 . S
Mg39 O59 2.031 . S
Mg40 O38 1.963 . S
Mg40 O44 1.986 . S
Mg40 O56 1.942 . S
Mg40 O57 1.955 . S
C41 O52 1.191 . S
C41 O54 1.307 . S
O42 Mg37 2.013 . S
O42 C61 1.191 . S
O43 Mg34 2.081 . S
O43 C51 1.331 . S
O44 Mg40 1.986 . S
O44 C61 1.307 . S
O45 Mg34 2.023 . S
O45 C60 1.264 . S
O46 Mg35 1.942 . S
O46 C51 1.244 . S
O47 Mg35 1.955 . S
O47 C60 1.273 . S
O48 Mg37 2.114 . S
O48 Mg39 2.291 . S
O48 C50 1.312 . S
O49 Mg34 2.031 . S
O49 C50 1.208 . S
C50 O48 1.312 . S
C50 O49 1.208 . S
C51 O43 1.331 . S
C51 O46 1.244 . S
O52 Mg37 2.013 . S
O52 C41 1.191 . S
O53 C32 1.331 . S
O53 Mg39 2.081 . S
O54 Mg35 1.986 . S
O54 C41 1.307 . S
O55 C33 1.264 . S
O55 Mg39 2.023 . S
O56 C32 1.244 . S
O56 Mg40 1.942 . S
O57 C33 1.273 . S
O57 Mg40 1.955 . S
O58 C31 1.312 . S
O58 Mg34 2.291 . S
O58 Mg37 2.114 . S
O59 C31 1.208 . S
O59 Mg39 2.031 . S
C60 O45 1.264 . S
C60 O47 1.273 . S
C61 O42 1.191 . S
C61 O44 1.307 . S
H62 C80 0.951 . S
H63 C82 0.951 . S
H64 C84 0.950 . S
H65 C85 0.950 . S
H66 C87 0.950 . S
H67 C90 0.950 . S
H68 C91 0.950 . S
H69 C93 0.950 . S
H70 C94 0.950 . S
H71 C95 0.951 . S
H72 C97 0.951 . S
H73 C99 0.950 . S
H74 C100 0.950 . S
H75 C102 0.950 . S
H76 C105 0.950 . S
H77 C106 0.950 . S
H78 C108 0.950 . S
H79 C109 0.950 . S
C80 H62 0.951 . S
C80 C81 1.366 . S
C80 C82 1.388 . S
C81 C80 1.366 . S
C81 C85 1.385 . S
C82 H63 0.951 . S
C82 C80 1.388 . S
C82 C83 1.366 . S
C83 C82 1.366 . S
C83 C84 1.414 . S
C83 C86 1.499 . S
C84 H64 0.950 . S
C84 C83 1.414 . S
C84 C85 1.374 . S
C85 H65 0.950 . S
C85 C81 1.385 . S
C85 C84 1.374 . S
C86 C83 1.499 . S
C86 C87 1.373 . S
C86 C88 1.389 . S
C87 H66 0.950 . S
C87 C86 1.373 . S
C87 C103 1.377 . S
C88 C86 1.389 . S
C88 C89 1.524 . S
C88 C102 1.377 . S
C89 C88 1.524 . S
C89 C90 1.397 . S
C89 C94 1.363 . S
C90 H67 0.950 . S
C90 C89 1.397 . S
C90 C91 1.334 . S
C91 H68 0.950 . S
C91 C90 1.334 . S
C91 C92 1.287 . S
C92 C91 1.287 . S
C92 C93 1.524 . S
C92 H111 0.913 . S
C93 H69 0.950 . S
C93 C92 1.524 . S
C93 C94 1.415 . S
C94 H70 0.950 . S
C94 C89 1.363 . S
C94 C93 1.415 . S
C95 H71 0.951 . S
C95 C96 1.366 . S
C95 C97 1.388 . S
C96 C95 1.366 . S
C96 C100 1.385 . S
C97 H72 0.951 . S
C97 C95 1.388 . S
C97 C98 1.366 . S
C98 C97 1.366 . S
C98 C99 1.414 . S
C98 C101 1.499 . S
C99 H73 0.950 . S
C99 C98 1.414 . S
C99 C100 1.374 . S
C100 H74 0.950 . S
C100 C96 1.385 . S
C100 C99 1.374 . S
C101 C98 1.499 . S
C101 C102 1.373 . S
C101 C103 1.389 . S
C102 H75 0.950 . S
C102 C88 1.377 . S
C102 C101 1.373 . S
C103 C87 1.377 . S
C103 C101 1.389 . S
C103 C104 1.524 . S
C104 C103 1.524 . S
C104 C105 1.397 . S
C104 C109 1.363 . S
C105 H76 0.950 . S
C105 C104 1.397 . S
C105 C106 1.334 . S
C106 H77 0.950 . S
C106 C105 1.334 . S
C106 C107 1.287 . S
C107 C106 1.287 . S
C107 C108 1.524 . S
C107 H110 0.999 . S
C108 H78 0.950 . S
C108 C107 1.524 . S
C108 C109 1.415 . S
C109 H79 0.950 . S
C109 C104 1.363 . S
C109 C108 1.415 . S
H110 C107 0.999 . S
H111 C92 0.913 . S
H112 C130 0.951 . S
H113 C132 0.951 . S
H114 C134 0.950 . S
H115 C135 0.950 . S
H116 C137 0.950 . S
H117 C140 0.950 . S
H118 C141 0.950 1_565 S
H119 C143 0.950 . S
H120 C144 0.950 . S
H121 C145 0.951 . S
H122 C147 0.951 . S
H123 C149 0.950 . S
H124 C150 0.950 . S
H125 C152 0.950 . S
H126 C155 0.950 . S
H127 C156 0.950 . S
H128 C158 0.950 . S
H129 C159 0.950 . S
C130 H112 0.951 . S
C130 C131 1.366 . S
C130 C132 1.388 . S
C131 C130 1.366 . S
C131 C135 1.385 . S
C132 H113 0.951 . S
C132 C130 1.388 . S
C132 C133 1.366 . S
C133 C132 1.366 . S
C133 C134 1.414 . S
C133 C136 1.499 . S
C134 H114 0.950 . S
C134 C133 1.414 . S
C134 C135 1.374 . S
C135 H115 0.950 . S
C135 C131 1.385 . S
C135 C134 1.374 . S
C136 C133 1.499 . S
C136 C137 1.373 . S
C136 C138 1.389 . S
C137 H116 0.950 . S
C137 C136 1.373 . S
C137 C153 1.377 . S
C138 C136 1.389 . S
C138 C139 1.524 . S
C138 C152 1.377 . S
C139 C138 1.524 . S
C139 C140 1.397 . S
C139 C144 1.363 . S
C140 H117 0.950 . S
C140 C139 1.397 . S
C140 C141 1.334 . S
C141 H118 0.950 1_545 S
C141 C140 1.334 . S
C141 C142 1.284 1_545 S
C142 C141 1.284 1_565 S
C142 C143 1.522 1_565 S
C142 H161 0.919 . S
C143 H119 0.950 . S
C143 C142 1.522 1_545 S
C143 C144 1.415 . S
C144 H120 0.950 . S
C144 C139 1.363 . S
C144 C143 1.415 . S
C145 H121 0.951 . S
C145 C146 1.366 . S
C145 C147 1.388 . S
C146 C145 1.366 . S
C146 C150 1.385 . S
C147 H122 0.951 . S
C147 C145 1.388 . S
C147 C148 1.366 . S
C148 C147 1.366 . S
C148 C149 1.414 . S
C148 C151 1.499 . S
C149 H123 0.950 . S
C149 C148 1.414 . S
C149 C150 1.374 . S
C150 H124 0.950 . S
C150 C146 1.385 . S
C150 C149 1.374 . S
C151 C148 1.499 . S
C151 C152 1.373 . S
C151 C153 1.389 . S
C152 H125 0.950 . S
C152 C138 1.377 . S
C152 C151 1.373 . S
C153 C137 1.377 . S
C153 C151 1.389 . S
C153 C154 1.524 . S
C154 C153 1.524 . S
C154 C155 1.397 . S
C154 C159 1.363 . S
C155 H126 0.950 . S
C155 C154 1.397 . S
C155 C156 1.334 . S
C156 H127 0.950 . S
C156 C155 1.334 . S
C156 C157 1.287 . S
C157 C156 1.287 . S
C157 C158 1.524 . S
C157 H160 0.999 . S
C158 H128 0.950 . S
C158 C157 1.524 . S
C158 C159 1.415 . S
C159 H129 0.950 . S
C159 C154 1.363 . S
C159 C158 1.415 . S
H160 C157 0.999 . S
H161 C142 0.919 . S
H162 C180 0.951 . S
H163 C182 0.951 . S
H164 C184 0.950 . S
H165 C185 0.950 . S
H166 C187 0.950 . S
H167 C190 0.950 . S
H168 C191 0.950 . S
H169 C193 0.950 . S
H170 C194 0.950 . S
H171 C195 0.951 . S
H172 C197 0.951 . S
H173 C199 0.950 . S
H174 C200 0.950 . S
H175 C202 0.950 . S
H176 C205 0.950 . S
H177 C206 0.950 . S
H178 C208 0.950 . S
H179 C209 0.950 . S
C180 H162 0.951 . S
C180 C181 1.366 . S
C180 C182 1.388 . S
C181 C180 1.366 . S
C181 C185 1.385 . S
C182 H163 0.951 . S
C182 C180 1.388 . S
C182 C183 1.366 . S
C183 C182 1.366 . S
C183 C184 1.414 . S
C183 C186 1.499 . S
C184 H164 0.950 . S
C184 C183 1.414 . S
C184 C185 1.374 . S
C185 H165 0.950 . S
C185 C181 1.385 . S
C185 C184 1.374 . S
C186 C183 1.499 . S
C186 C187 1.373 . S
C186 C188 1.389 . S
C187 H166 0.950 . S
C187 C186 1.373 . S
C187 C203 1.377 . S
C188 C186 1.389 . S
C188 C189 1.524 . S
C188 C202 1.377 . S
C189 C188 1.524 . S
C189 C190 1.397 . S
C189 C194 1.363 . S
C190 H167 0.950 . S
C190 C189 1.397 . S
C190 C191 1.334 . S
C191 H168 0.950 . S
C191 C190 1.334 . S
C191 C192 1.287 . S
C192 C191 1.287 . S
C192 C193 1.524 . S
C192 H211 0.913 . S
C193 H169 0.950 . S
C193 C192 1.524 . S
C193 C194 1.415 . S
C194 H170 0.950 . S
C194 C189 1.363 . S
C194 C193 1.415 . S
C195 H171 0.951 . S
C195 C196 1.366 . S
C195 C197 1.388 . S
C196 C195 1.366 . S
C196 C200 1.385 . S
C197 H172 0.951 . S
C197 C195 1.388 . S
C197 C198 1.366 . S
C198 C197 1.366 . S
C198 C199 1.414 . S
C198 C201 1.499 . S
C199 H173 0.950 . S
C199 C198 1.414 . S
C199 C200 1.374 . S
C200 H174 0.950 . S
C200 C196 1.385 . S
C200 C199 1.374 . S
C201 C198 1.499 . S
C201 C202 1.373 . S
C201 C203 1.389 . S
C202 H175 0.950 . S
C202 C188 1.377 . S
C202 C201 1.373 . S
C203 C187 1.377 . S
C203 C201 1.389 . S
C203 C204 1.524 . S
C204 C203 1.524 . S
C204 C205 1.397 . S
C204 C209 1.363 . S
C205 H176 0.950 . S
C205 C204 1.397 . S
C205 C206 1.334 . S
C206 H177 0.950 . S
C206 C205 1.334 . S
C206 C207 1.287 . S
C207 C206 1.287 . S
C207 C208 1.524 . S
C207 H210 0.999 . S
C208 H178 0.950 . S
C208 C207 1.524 . S
C208 C209 1.415 . S
C209 H179 0.950 . S
C209 C204 1.363 . S
C209 C208 1.415 . S
H210 C207 0.999 . S
H211 C192 0.913 . S
H212 C230 0.951 . S
H213 C232 0.951 . S
H214 C234 0.950 . S
H215 C235 0.950 . S
H216 C237 0.950 . S
H217 C240 0.950 . S
H218 C241 0.950 . S
H219 C243 0.950 1_545 S
H220 C244 0.950 . S
H221 C245 0.951 . S
H222 C247 0.951 . S
H223 C249 0.950 . S
H224 C250 0.950 . S
H225 C252 0.950 . S
H226 C255 0.950 . S
H227 C256 0.950 . S
H228 C258 0.950 . S
H229 C259 0.950 . S
C230 H212 0.951 . S
C230 C231 1.366 . S
C230 C232 1.388 . S
C231 C230 1.366 . S
C231 C235 1.385 . S
C232 H213 0.951 . S
C232 C230 1.388 . S
C232 C233 1.366 . S
C233 C232 1.366 . S
C233 C234 1.414 . S
C233 C236 1.499 . S
C234 H214 0.950 . S
C234 C233 1.414 . S
C234 C235 1.374 . S
C235 H215 0.950 . S
C235 C231 1.385 . S
C235 C234 1.374 . S
C236 C233 1.499 . S
C236 C237 1.373 . S
C236 C238 1.389 . S
C237 H216 0.950 . S
C237 C236 1.373 . S
C237 C253 1.377 . S
C238 C236 1.389 . S
C238 C239 1.524 . S
C238 C252 1.377 . S
C239 C238 1.524 . S
C239 C240 1.397 . S
C239 C244 1.363 . S
C240 H217 0.950 . S
C240 C239 1.397 . S
C240 C241 1.334 . S
C241 H218 0.950 . S
C241 C240 1.334 . S
C241 C242 1.286 1_565 S
C242 C241 1.286 1_545 S
C242 C243 1.523 1_545 S
C242 H261 0.915 . S
C243 H219 0.950 1_565 S
C243 C242 1.523 1_565 S
C243 C244 1.415 . S
C244 H220 0.950 . S
C244 C239 1.363 . S
C244 C243 1.415 . S
C245 H221 0.951 . S
C245 C246 1.366 . S
C245 C247 1.388 . S
C246 C245 1.366 . S
C246 C250 1.385 . S
C247 H222 0.951 . S
C247 C245 1.388 . S
C247 C248 1.366 . S
C248 C247 1.366 . S
C248 C249 1.414 . S
C248 C251 1.499 . S
C249 H223 0.950 . S
C249 C248 1.414 . S
C249 C250 1.374 . S
C250 H224 0.950 . S
C250 C246 1.385 . S
C250 C249 1.374 . S
C251 C248 1.499 . S
C251 C252 1.373 . S
C251 C253 1.389 . S
C252 H225 0.950 . S
C252 C238 1.377 . S
C252 C251 1.373 . S
C253 C237 1.377 . S
C253 C251 1.389 . S
C253 C254 1.524 . S
C254 C253 1.524 . S
C254 C255 1.397 . S
C254 C259 1.363 . S
C255 H226 0.950 . S
C255 C254 1.397 . S
C255 C256 1.334 . S
C256 H227 0.950 . S
C256 C255 1.334 . S
C256 C257 1.287 . S
C257 C256 1.287 . S
C257 C258 1.524 . S
C257 H260 0.999 . S
C258 H228 0.950 . S
C258 C257 1.524 . S
C258 C259 1.415 . S
C259 H229 0.950 . S
C259 C254 1.363 . S
C259 C258 1.415 . S
H260 C257 0.999 . S
H261 C242 0.915 . S
H262 C280 0.951 . S
H263 C282 0.951 . S
H264 C284 0.950 . S
H265 C285 0.950 . S
H266 C287 0.950 . S
H267 C290 0.950 . S
H268 C291 0.950 . S
H269 C293 0.950 . S
H270 C294 0.950 . S
H271 C295 0.951 . S
H272 C297 0.951 . S
H273 C299 0.950 . S
H274 C300 0.950 . S
H275 C302 0.950 . S
H276 C305 0.950 . S
H277 C306 0.950 . S
H278 C308 0.950 . S
H279 C309 0.950 . S
C280 H262 0.951 . S
C280 C281 1.366 . S
C280 C282 1.388 . S
C281 C280 1.366 . S
C281 C285 1.385 . S
C282 H263 0.951 . S
C282 C280 1.388 . S
C282 C283 1.366 . S
C283 C282 1.366 . S
C283 C284 1.414 . S
C283 C286 1.499 . S
C284 H264 0.950 . S
C284 C283 1.414 . S
C284 C285 1.374 . S
C285 H265 0.950 . S
C285 C281 1.385 . S
C285 C284 1.374 . S
C286 C283 1.499 . S
C286 C287 1.373 . S
C286 C288 1.389 . S
C287 H266 0.950 . S
C287 C286 1.373 . S
C287 C303 1.377 . S
C288 C286 1.389 . S
C288 C289 1.524 . S
C288 C302 1.377 . S
C289 C288 1.524 . S
C289 C290 1.397 . S
C289 C294 1.363 . S
C290 H267 0.950 . S
C290 C289 1.397 . S
C290 C291 1.334 . S
C291 H268 0.950 . S
C291 C290 1.334 . S
C291 C292 1.287 . S
C292 C291 1.287 . S
C292 C293 1.524 . S
C292 H311 0.913 . S
C293 H269 0.950 . S
C293 C292 1.524 . S
C293 C294 1.415 . S
C294 H270 0.950 . S
C294 C289 1.363 . S
C294 C293 1.415 . S
C295 H271 0.951 . S
C295 C296 1.366 . S
C295 C297 1.388 . S
C296 C295 1.366 . S
C296 C300 1.385 . S
C297 H272 0.951 . S
C297 C295 1.388 . S
C297 C298 1.366 . S
C298 C297 1.366 . S
C298 C299 1.414 . S
C298 C301 1.499 . S
C299 H273 0.950 . S
C299 C298 1.414 . S
C299 C300 1.374 . S
C300 H274 0.950 . S
C300 C296 1.385 . S
C300 C299 1.374 . S
C301 C298 1.499 . S
C301 C302 1.373 . S
C301 C303 1.389 . S
C302 H275 0.950 . S
C302 C288 1.377 . S
C302 C301 1.373 . S
C303 C287 1.377 . S
C303 C301 1.389 . S
C303 C304 1.524 . S
C304 C303 1.524 . S
C304 C305 1.397 . S
C304 C309 1.363 . S
C305 H276 0.950 . S
C305 C304 1.397 . S
C305 C306 1.334 . S
C306 H277 0.950 . S
C306 C305 1.334 . S
C306 C307 1.287 . S
C307 C306 1.287 . S
C307 C308 1.524 . S
C307 H310 0.999 . S
C308 H278 0.950 . S
C308 C307 1.524 . S
C308 C309 1.415 . S
C309 H279 0.950 . S
C309 C304 1.363 . S
C309 C308 1.415 . S
H310 C307 0.999 . S
H311 C292 0.913 . S
H312 C330 0.951 . S
H313 C332 0.951 . S
H314 C334 0.950 . S
H315 C335 0.950 . S
H316 C337 0.950 . S
H317 C340 0.950 . S
H318 C341 0.950 . S
H319 C343 0.950 . S
H320 C344 0.950 . S
H321 C345 0.951 . S
H322 C347 0.951 . S
H323 C349 0.950 . S
H324 C350 0.950 . S
H325 C352 0.950 . S
H326 C355 0.950 . S
H327 C356 0.950 . S
H328 C358 0.950 . S
H329 C359 0.950 . S
C330 H312 0.951 . S
C330 C331 1.366 . S
C330 C332 1.388 . S
C331 C330 1.366 . S
C331 C335 1.385 . S
C332 H313 0.951 . S
C332 C330 1.388 . S
C332 C333 1.366 . S
C333 C332 1.366 . S
C333 C334 1.414 . S
C333 C336 1.499 . S
C334 H314 0.950 . S
C334 C333 1.414 . S
C334 C335 1.374 . S
C335 H315 0.950 . S
C335 C331 1.385 . S
C335 C334 1.374 . S
C336 C333 1.499 . S
C336 C337 1.373 . S
C336 C338 1.389 . S
C337 H316 0.950 . S
C337 C336 1.373 . S
C337 C353 1.377 . S
C338 C336 1.389 . S
C338 C339 1.524 . S
C338 C352 1.377 . S
C339 C338 1.524 . S
C339 C340 1.397 . S
C339 C344 1.363 . S
C340 H317 0.950 . S
C340 C339 1.397 . S
C340 C341 1.334 . S
C341 H318 0.950 . S
C341 C340 1.334 . S
C341 C342 1.287 . S
C342 C341 1.287 . S
C342 C343 1.524 . S
C342 H361 0.913 1_455 S
C343 H319 0.950 . S
C343 C342 1.524 . S
C343 C344 1.415 . S
C344 H320 0.950 . S
C344 C339 1.363 . S
C344 C343 1.415 . S
C345 H321 0.951 . S
C345 C346 1.366 . S
C345 C347 1.388 . S
C346 C345 1.366 . S
C346 C350 1.385 . S
C347 H322 0.951 . S
C347 C345 1.388 . S
C347 C348 1.366 . S
C348 C347 1.366 . S
C348 C349 1.414 . S
C348 C351 1.499 . S
C349 H323 0.950 . S
C349 C348 1.414 . S
C349 C350 1.374 . S
C350 H324 0.950 . S
C350 C346 1.385 . S
C350 C349 1.374 . S
C351 C348 1.499 . S
C351 C352 1.373 . S
C351 C353 1.389 . S
C352 H325 0.950 . S
C352 C338 1.377 . S
C352 C351 1.373 . S
C353 C337 1.377 . S
C353 C351 1.389 . S
C353 C354 1.524 . S
C354 C353 1.524 . S
C354 C355 1.397 . S
C354 C359 1.363 . S
C355 H326 0.950 . S
C355 C354 1.397 . S
C355 C356 1.334 . S
C356 H327 0.950 . S
C356 C355 1.334 . S
C356 C357 1.287 . S
C357 C356 1.287 . S
C357 C358 1.524 . S
C357 H360 0.999 . S
C358 H328 0.950 . S
C358 C357 1.524 . S
C358 C359 1.415 . S
C359 H329 0.950 . S
C359 C354 1.363 . S
C359 C358 1.415 . S
H360 C357 0.999 . S
H361 C342 0.913 1_655 S
H362 C380 0.951 . S
H363 C382 0.951 . S
H364 C384 0.950 . S
H365 C385 0.950 . S
H366 C387 0.950 . S
H367 C390 0.950 . S
H368 C391 0.950 . S
H369 C393 0.950 . S
H370 C394 0.950 . S
H371 C395 0.951 . S
H372 C397 0.951 . S
H373 C399 0.950 . S
H374 C400 0.950 . S
H375 C402 0.950 . S
H376 C405 0.950 . S
H377 C406 0.950 . S
H378 C408 0.950 . S
H379 C409 0.950 . S
C380 H362 0.951 . S
C380 C381 1.366 . S
C380 C382 1.388 . S
C381 C380 1.366 . S
C381 C385 1.385 . S
C382 H363 0.951 . S
C382 C380 1.388 . S
C382 C383 1.366 . S
C383 C382 1.366 . S
C383 C384 1.414 . S
C383 C386 1.499 . S
C384 H364 0.950 . S
C384 C383 1.414 . S
C384 C385 1.374 . S
C385 H365 0.950 . S
C385 C381 1.385 . S
C385 C384 1.374 . S
C386 C383 1.499 . S
C386 C387 1.373 . S
C386 C388 1.389 . S
C387 H366 0.950 . S
C387 C386 1.373 . S
C387 C403 1.377 . S
C388 C386 1.389 . S
C388 C389 1.524 . S
C388 C402 1.377 . S
C389 C388 1.524 . S
C389 C390 1.397 . S
C389 C394 1.363 . S
C390 H367 0.950 . S
C390 C389 1.397 . S
C390 C391 1.334 . S
C391 H368 0.950 . S
C391 C390 1.334 . S
C391 C392 1.287 . S
C392 C391 1.287 . S
C392 C393 1.524 . S
C392 H411 0.913 . S
C393 H369 0.950 . S
C393 C392 1.524 . S
C393 C394 1.415 . S
C394 H370 0.950 . S
C394 C389 1.363 . S
C394 C393 1.415 . S
C395 H371 0.951 . S
C395 C396 1.366 . S
C395 C397 1.388 . S
C396 C395 1.366 . S
C396 C400 1.385 . S
C397 H372 0.951 . S
C397 C395 1.388 . S
C397 C398 1.366 . S
C398 C397 1.366 . S
C398 C399 1.414 . S
C398 C401 1.499 . S
C399 H373 0.950 . S
C399 C398 1.414 . S
C399 C400 1.374 . S
C400 H374 0.950 . S
C400 C396 1.385 . S
C400 C399 1.374 . S
C401 C398 1.499 . S
C401 C402 1.373 . S
C401 C403 1.389 . S
C402 H375 0.950 . S
C402 C388 1.377 . S
C402 C401 1.373 . S
C403 C387 1.377 . S
C403 C401 1.389 . S
C403 C404 1.524 . S
C404 C403 1.524 . S
C404 C405 1.397 . S
C404 C409 1.363 . S
C405 H376 0.950 . S
C405 C404 1.397 . S
C405 C406 1.334 . S
C406 H377 0.950 . S
C406 C405 1.334 . S
C406 C407 1.287 . S
C407 C406 1.287 . S
C407 C408 1.524 . S
C407 H410 0.999 . S
C408 H378 0.950 . S
C408 C407 1.524 . S
C408 C409 1.415 . S
C409 H379 0.950 . S
C409 C404 1.363 . S
C409 C408 1.415 . S
H410 C407 0.999 . S
H411 C392 0.913 . S
H412 C430 0.951 . S
H413 C432 0.951 . S
H414 C434 0.950 . S
H415 C435 0.950 . S
H416 C437 0.950 . S
H417 C440 0.950 . S
H418 C441 0.950 . S
H419 C443 0.950 . S
H420 C444 0.950 . S
H421 C445 0.951 . S
H422 C447 0.951 . S
H423 C449 0.950 . S
H424 C450 0.950 . S
H425 C452 0.950 . S
H426 C455 0.950 . S
H427 C456 0.950 . S
H428 C458 0.950 . S
H429 C459 0.950 . S
C430 H412 0.951 . S
C430 C431 1.366 . S
C430 C432 1.388 . S
C431 C430 1.366 . S
C431 C435 1.385 . S
C432 H413 0.951 . S
C432 C430 1.388 . S
C432 C433 1.366 . S
C433 C432 1.366 . S
C433 C434 1.414 . S
C433 C436 1.499 . S
C434 H414 0.950 . S
C434 C433 1.414 . S
C434 C435 1.374 . S
C435 H415 0.950 . S
C435 C431 1.385 . S
C435 C434 1.374 . S
C436 C433 1.499 . S
C436 C437 1.373 . S
C436 C438 1.389 . S
C437 H416 0.950 . S
C437 C436 1.373 . S
C437 C453 1.377 . S
C438 C436 1.389 . S
C438 C439 1.524 . S
C438 C452 1.377 . S
C439 C438 1.524 . S
C439 C440 1.397 . S
C439 C444 1.363 . S
C440 H417 0.950 . S
C440 C439 1.397 . S
C440 C441 1.334 . S
C441 H418 0.950 . S
C441 C440 1.334 . S
C441 C442 1.287 . S
C442 C441 1.287 . S
C442 C443 1.524 . S
C442 H461 0.913 . S
C443 H419 0.950 . S
C443 C442 1.524 . S
C443 C444 1.415 . S
C444 H420 0.950 . S
C444 C439 1.363 . S
C444 C443 1.415 . S
C445 H421 0.951 . S
C445 C446 1.366 . S
C445 C447 1.388 . S
C446 C445 1.366 . S
C446 C450 1.385 . S
C447 H422 0.951 . S
C447 C445 1.388 . S
C447 C448 1.366 . S
C448 C447 1.366 . S
C448 C449 1.414 . S
C448 C451 1.499 . S
C449 H423 0.950 . S
C449 C448 1.414 . S
C449 C450 1.374 . S
C450 H424 0.950 . S
C450 C446 1.385 . S
C450 C449 1.374 . S
C451 C448 1.499 . S
C451 C452 1.373 . S
C451 C453 1.389 . S
C452 H425 0.950 . S
C452 C438 1.377 . S
C452 C451 1.373 . S
C453 C437 1.377 . S
C453 C451 1.389 . S
C453 C454 1.524 . S
C454 C453 1.524 . S
C454 C455 1.397 . S
C454 C459 1.363 . S
C455 H426 0.950 . S
C455 C454 1.397 . S
C455 C456 1.334 . S
C456 H427 0.950 . S
C456 C455 1.334 . S
C456 C457 1.287 . S
C457 C456 1.287 . S
C457 C458 1.524 . S
C457 H460 0.999 . S
C458 H428 0.950 . S
C458 C457 1.524 . S
C458 C459 1.415 . S
C459 H429 0.950 . S
C459 C454 1.363 . S
C459 C458 1.415 . S
H460 C457 0.999 . S
H461 C442 0.913 . S
C81 C10 0.894 . S
C96 C41 0.898 . S
C131 C0 1.722 . S
C146 C33 1.740 . S
C181 C18 1.339 . S
C196 C50 1.336 . S
C231 C27 1.742 . S
C246 C51 1.746 . S
C281 C24 1.722 . S
C296 C60 1.742 . S
C346 C61 1.307 . S
C331 C11 1.287 . S
C381 C1 1.733 . S
C396 C32 1.739 . S
C446 C31 0.940 . S
C431 C2 0.945 . S
