# Generated by pormake.
# Topology llj, (12,3)-cn, num edge types: 1
# Building blocks:
#     Node 0, Type 0, BuildingBlock: QEWDON_clean_sbu_0, # of connection points: 12
#     Node 1, Type 0, BuildingBlock: QEWDON_clean_sbu_0, # of connection points: 12
#     Node 2, Type 1, BuildingBlock: OLANEW_clean_sbu_2, # of connection points: 3
#     Node 3, Type 1, BuildingBlock: OLANEW_clean_sbu_2, # of connection points: 3
#     Node 4, Type 1, BuildingBlock: OLANEW_clean_sbu_2, # of connection points: 3
#     Node 5, Type 1, BuildingBlock: OLANEW_clean_sbu_2, # of connection points: 3
#     Node 6, Type 1, BuildingBlock: OLANEW_clean_sbu_2, # of connection points: 3
#     Node 7, Type 1, BuildingBlock: OLANEW_clean_sbu_2, # of connection points: 3
#     Node 8, Type 1, BuildingBlock: OLANEW_clean_sbu_2, # of connection points: 3
#     Node 9, Type 1, BuildingBlock: OLANEW_clean_sbu_2, # of connection points: 3
#     Edge 10, Type (0, 1), BuildingBlock: TEMPAE_clean_linker_10, # of connection points: 2
#     Edge 11, Type (0, 1), BuildingBlock: TEMPAE_clean_linker_10, # of connection points: 2
#     Edge 12, Type (0, 1), BuildingBlock: TEMPAE_clean_linker_10, # of connection points: 2
#     Edge 13, Type (0, 1), BuildingBlock: TEMPAE_clean_linker_10, # of connection points: 2
#     Edge 14, Type (0, 1), BuildingBlock: TEMPAE_clean_linker_10, # of connection points: 2
#     Edge 15, Type (0, 1), BuildingBlock: TEMPAE_clean_linker_10, # of connection points: 2
#     Edge 16, Type (0, 1), BuildingBlock: TEMPAE_clean_linker_10, # of connection points: 2
#     Edge 17, Type (0, 1), BuildingBlock: TEMPAE_clean_linker_10, # of connection points: 2
#     Edge 18, Type (0, 1), BuildingBlock: TEMPAE_clean_linker_10, # of connection points: 2
#     Edge 19, Type (0, 1), BuildingBlock: TEMPAE_clean_linker_10, # of connection points: 2
#     Edge 20, Type (0, 1), BuildingBlock: TEMPAE_clean_linker_10, # of connection points: 2
#     Edge 21, Type (0, 1), BuildingBlock: TEMPAE_clean_linker_10, # of connection points: 2
#     Edge 22, Type (0, 1), BuildingBlock: TEMPAE_clean_linker_10, # of connection points: 2
#     Edge 23, Type (0, 1), BuildingBlock: TEMPAE_clean_linker_10, # of connection points: 2
#     Edge 24, Type (0, 1), BuildingBlock: TEMPAE_clean_linker_10, # of connection points: 2
#     Edge 25, Type (0, 1), BuildingBlock: TEMPAE_clean_linker_10, # of connection points: 2
#     Edge 26, Type (0, 1), BuildingBlock: TEMPAE_clean_linker_10, # of connection points: 2
#     Edge 27, Type (0, 1), BuildingBlock: TEMPAE_clean_linker_10, # of connection points: 2
#     Edge 28, Type (0, 1), BuildingBlock: TEMPAE_clean_linker_10, # of connection points: 2
#     Edge 29, Type (0, 1), BuildingBlock: TEMPAE_clean_linker_10, # of connection points: 2
#     Edge 30, Type (0, 1), BuildingBlock: TEMPAE_clean_linker_10, # of connection points: 2
#     Edge 31, Type (0, 1), BuildingBlock: TEMPAE_clean_linker_10, # of connection points: 2
#     Edge 32, Type (0, 1), BuildingBlock: TEMPAE_clean_linker_10, # of connection points: 2
#     Edge 33, Type (0, 1), BuildingBlock: TEMPAE_clean_linker_10, # of connection points: 2
# Relax obj value: 0.012
# Max RMSD: 0.104
# Mean RMSD: 0.084
data_MOF--net-llj--node1-QEWDON_clean_sbu_0--node2-OLANEW_clean_sbu_2--edge1-TEMPAE_clean_linker_10
_symmetry_space_group_name_H-M    P1
_symmetry_Int_Tables_number       1
_symmetry_cell_setting            triclinic
loop_
_symmetry_equiv_pos_as_xyz
'x, y, z'
_cell_length_a     41.78041
_cell_length_b     41.777246
_cell_length_c     26.187113
_cell_angle_alpha  87.962864
_cell_angle_beta   92.259879
_cell_angle_gamma 90.025246
loop_
_atom_site_label
_atom_site_type_symbol
_atom_site_fract_x
_atom_site_fract_y
_atom_site_fract_z
_atom_type_partial_charge
Zn0 Zn 0.94987 0.09314 0.96442 0.0
Zn1 Zn 0.95291 0.09155 0.07882 0.0
O2 O 0.98194 0.10226 0.02236 0.0
H3 H 0.99804 0.11887 0.0218 0.0
C4 C 0.91338 0.02637 0.88151 0.0
O5 O 0.91374 0.03897 0.92679 0.0
Zn6 Zn 0.06811 0.95315 0.05654 0.0
Zn7 Zn 0.06661 0.95284 0.9343 0.0
O8 O 0.03917 0.95936 0.99462 0.0
H9 H 0.01952 0.97155 0.99253 0.0
Zn10 Zn 0.94164 0.97355 0.94228 0.0
O11 O 0.96087 -0.00027 -0.00017 0.0
Zn12 Zn 0.95776 0.97166 0.06269 0.0
H13 H 0.97034 0.02075 0.99635 0.0
Zn14 Zn 0.06364 0.06289 0.96591 0.0
O15 O 0.04211 0.04162 0.02584 0.0
H16 H 0.02535 0.02573 0.02413 0.0
Zn17 Zn 0.05628 0.06412 0.08855 0.0
C18 C 0.10028 0.01511 0.91688 0.0
O19 O 0.11606 0.01613 0.9612 0.0
O20 O 0.90543 0.11176 0.97891 0.0
O21 O 0.90972 0.11315 0.06376 0.0
O22 O 0.10599 0.92549 0.9554 0.0
O23 O 0.10758 0.92743 0.04027 0.0
O24 O 0.91299 0.93617 0.96673 0.0
O25 O 0.925 0.93653 0.05006 0.0
C26 C 0.00385 0.09672 0.14938 0.0
O27 O 0.09695 0.09645 0.9881 0.0
O28 O 0.09011 0.09745 0.07195 0.0
O29 O 0.04165 0.93924 0.86909 0.0
C30 C 0.89402 0.11895 0.02153 0.0
O31 O 0.96832 0.10187 0.89316 0.0
C32 C 0.01493 0.93561 0.1156 0.0
O33 O 0.92489 0.99852 0.87733 0.0
C34 C 0.11895 0.91773 -0.00108 0.0
O35 O 0.07612 0.03326 0.9084 0.0
C36 C 0.94258 0.02747 0.1213 0.0
O37 O 0.97444 0.10466 0.14561 0.0
O38 O 0.01547 0.08343 0.11136 0.0
C39 C 0.90949 0.92503 0.01208 0.0
O40 O 0.04465 0.92992 0.1127 0.0
O41 O 0.00156 0.95309 0.08008 0.0
C42 C 0.08106 0.004 0.12765 0.0
O43 O 0.94418 0.99717 0.1218 0.0
O44 O 0.94898 0.04366 0.08112 0.0
C45 C 0.10418 0.10732 0.03195 0.0
O46 O 0.07499 0.03215 0.14142 0.0
O47 O 0.07624 0.99736 0.08108 0.0
C48 C 0.01257 0.94758 0.8617 0.0
O49 O -0.00047 0.96643 0.89415 0.0
C50 C 0.98503 0.0816 0.87075 0.0
O51 O 0.98863 0.05259 0.89124 0.0
Zn52 Zn 0.44457 0.58968 0.44741 0.0
Zn53 Zn 0.44877 0.58471 0.56423 0.0
O54 O 0.47695 0.59393 0.506 0.0
H55 H 0.49464 0.60882 0.50531 0.0
C56 C 0.40673 0.51868 0.37146 0.0
O57 O 0.40945 0.532 0.41612 0.0
Zn58 Zn 0.5647 0.45122 0.5441 0.0
Zn59 Zn 0.56353 0.44738 0.42154 0.0
O60 O 0.53658 0.45832 0.48075 0.0
H61 H 0.51804 0.47215 0.47712 0.0
Zn62 Zn 0.43365 0.46579 0.43296 0.0
O63 O 0.45167 0.49457 0.48823 0.0
Zn64 Zn 0.45215 0.46641 0.5509 0.0
H65 H 0.46534 0.51288 0.48225 0.0
Zn66 Zn 0.57083 0.55891 0.44984 0.0
O67 O 0.54374 0.54026 0.50569 0.0
H68 H 0.52426 0.52818 0.50039 0.0
Zn69 Zn 0.5554 0.56368 0.56856 0.0
C70 C 0.60726 0.50627 0.41054 0.0
O71 O 0.61856 0.50465 0.45811 0.0
O72 O 0.40112 0.60902 0.46512 0.0
O73 O 0.40592 0.60741 0.55019 0.0
O74 O 0.59976 0.41684 0.44557 0.0
O75 O 0.60223 0.42193 0.52989 0.0
O76 O 0.40738 0.42703 0.46037 0.0
O77 O 0.42032 0.43059 0.54314 0.0
C78 C 0.50163 0.59143 0.63101 0.0
O79 O 0.60128 0.59478 0.47305 0.0
O80 O 0.58734 0.59911 0.55361 0.0
O81 O 0.53911 0.43284 0.35644 0.0
C82 C 0.39017 0.61496 0.50862 0.0
O83 O 0.464 0.60198 0.37817 0.0
C84 C 0.50981 0.43535 0.59964 0.0
O85 O 0.41578 0.48985 0.36771 0.0
C86 C 0.61226 0.40952 0.48954 0.0
O87 O 0.58661 0.52756 0.39721 0.0
C88 C 0.43898 0.5211 0.61103 0.0
O89 O 0.47188 0.59798 0.62944 0.0
O90 O 0.51321 0.58007 0.59134 0.0
C91 C 0.40475 0.41736 0.50675 0.0
O92 O 0.5398 0.43064 0.60073 0.0
O93 O 0.49683 0.45013 0.56116 0.0
C94 C 0.58052 0.50458 0.61301 0.0
O95 O 0.44085 0.49079 0.61216 0.0
O96 O 0.44398 0.53684 0.56972 0.0
C97 C 0.60408 0.60812 0.51602 0.0
O98 O 0.5754 0.53365 0.62265 0.0
O99 O 0.5747 0.49549 0.56775 0.0
C100 C 0.51155 0.4429 0.34123 0.0
O101 O 0.49771 0.46544 0.3663 0.0
C102 C 0.4898 0.58794 0.36773 0.0
O103 O 0.50067 0.56458 0.39859 0.0
O104 O 0.40003 0.26175 0.13281 0.0
Cd105 Cd 0.38628 0.21854 0.07627 0.0
O106 O 0.38789 0.29299 0.06631 0.0
Cd107 Cd 0.38295 0.3363 0.01744 0.0
O108 O 0.39376 0.36248 0.9468 0.0
C109 C 0.41586 0.3496 0.92262 0.0
O110 O 0.42943 0.32335 0.94232 0.0
C111 C 0.39828 0.28979 0.11254 0.0
C112 C 0.32176 0.20286 0.07714 0.0
O113 O 0.3425 0.1871 0.10528 0.0
O114 O 0.33154 0.22626 0.04889 0.0
O115 O 0.64472 0.34344 0.9324 0.0
Cd116 Cd 0.65706 0.31565 0.01505 0.0
O117 O 0.68333 0.37875 0.94254 0.0
Cd118 Cd 0.69593 0.36344 0.02096 0.0
O119 O 0.69487 0.37755 0.09996 0.0
C120 C 0.67391 0.36656 0.12971 0.0
O121 O 0.65448 0.34394 0.1138 0.0
C122 C 0.66028 0.36752 0.91555 0.0
C123 C 0.70592 0.26994 0.01473 0.0
O124 O 0.67655 0.26194 0.00692 0.0
O125 O 0.71213 0.29952 0.02186 0.0
O126 O 0.63096 0.74444 0.15012 0.0
Cd127 Cd 0.64607 0.78326 0.08356 0.0
O128 O 0.64076 0.70907 0.09337 0.0
Cd129 Cd 0.64076 0.66284 0.0571 0.0
O130 O 0.6273 0.63692 0.98898 0.0
C131 C 0.62079 0.65558 0.95063 0.0
O132 O 0.62386 0.6866 0.95608 0.0
C133 C 0.63 0.71556 0.13656 0.0
C134 C 0.70923 0.80421 0.08503 0.0
O135 O 0.68764 0.81948 0.10773 0.0
O136 O 0.70114 0.77827 0.06319 0.0
O137 O 0.2323 0.6108 0.09844 0.0
Cd138 Cd 0.19826 0.62834 0.02546 0.0
O139 O 0.27043 0.62471 0.04774 0.0
Cd140 Cd 0.31814 0.62662 0.01677 0.0
O141 O 0.35078 0.61781 0.95611 0.0
C142 C 0.3471 0.59086 0.93572 0.0
O143 O 0.32585 0.57084 0.95425 0.0
C144 C 0.26203 0.61315 0.09076 0.0
C145 C 0.19166 0.69449 0.02241 0.0
O146 O 0.17053 0.67628 0.04255 0.0
O147 O 0.21601 0.68138 0.00344 0.0
O148 O 0.89259 0.76415 0.66345 0.0
Cd149 Cd 0.88003 0.72201 0.60429 0.0
O150 O 0.89238 0.79431 0.59385 0.0
Cd151 Cd 0.90212 0.83483 0.54186 0.0
O152 O 0.91448 0.8622 0.47323 0.0
C153 C 0.91201 0.8473 0.43181 0.0
O154 O 0.90165 0.81758 0.43335 0.0
C155 C 0.89684 0.79151 0.64214 0.0
C156 C 0.81524 0.70767 0.59609 0.0
O157 O 0.83422 0.6915 0.62681 0.0
O158 O 0.82688 0.73103 0.56976 0.0
O159 O 0.13475 0.82554 0.42463 0.0
Cd160 Cd 0.13988 0.79455 0.50576 0.0
O161 O 0.16241 0.86548 0.45648 0.0
Cd162 Cd 0.16616 0.84616 0.53486 0.0
O163 O 0.15985 0.85937 0.61358 0.0
C164 C 0.16997 0.88728 0.62322 0.0
O165 O 0.18453 0.90372 0.58724 0.0
C166 C 0.14738 0.85309 0.41894 0.0
C167 C 0.19259 0.75341 0.51057 0.0
O168 O 0.16477 0.74348 0.49607 0.0
O169 O 0.19545 0.78276 0.52263 0.0
O170 O 0.16548 0.21031 0.72319 0.0
Cd171 Cd 0.19944 0.25764 0.72614 0.0
O172 O 0.16325 0.19773 0.64221 0.0
Cd173 Cd 0.14803 0.16945 0.57656 0.0
O174 O 0.1295 0.14775 0.50648 0.0
C175 C 0.12318 0.16619 0.46775 0.0
O176 O 0.12837 0.19706 0.47153 0.0
C177 C 0.155 0.19242 0.68801 0.0
C178 C 0.23857 0.274 0.64603 0.0
O179 O 0.24805 0.25407 0.68184 0.0
O180 O 0.2098 0.28465 0.64661 0.0
O181 O 0.72856 0.10509 0.61722 0.0
Cd182 Cd 0.69139 0.11843 0.54593 0.0
O183 O 0.76433 0.11705 0.56125 0.0
Cd184 Cd 0.81082 0.11884 0.52611 0.0
O185 O 0.84449 0.11265 0.46593 0.0
C186 C 0.84425 0.08541 0.44588 0.0
O187 O 0.82535 0.06302 0.46424 0.0
C188 C 0.75782 0.10765 0.60639 0.0
C189 C 0.68328 0.18433 0.53535 0.0
O190 O 0.66333 0.16679 0.55962 0.0
O191 O 0.70711 0.17065 0.51578 0.0
C192 C 0.13892 0.14371 0.08405 0.0
C193 C 0.13205 0.12892 0.03759 0.0
C194 C 0.16788 0.16009 0.09242 0.0
C195 C 0.19063 0.16116 0.05375 0.0
C196 C 0.18306 0.14781 0.00583 0.0
C197 C 0.15373 0.13212 0.99817 0.0
C198 C 0.17475 0.17476 0.14355 0.0
C199 C 0.2068 0.14815 0.96376 0.0
C200 C 0.26399 0.21471 0.05606 0.0
C201 C 0.28771 0.19335 0.07547 0.0
C202 C 0.23185 0.2051 0.05114 0.0
C203 C 0.22353 0.17318 0.06475 0.0
C204 C 0.24728 0.15178 0.08558 0.0
C205 C 0.27905 0.16225 0.09122 0.0
C206 C 0.20698 0.22879 0.03012 0.0
C207 C 0.23944 0.11738 0.09984 0.0
H208 H 0.12213 0.14163 0.11452 0.0
H209 H 0.14861 0.12084 0.96211 0.0
H210 H 0.19277 0.16 0.16591 0.0
H211 H 0.18494 0.19914 0.13836 0.0
H212 H 0.1529 0.17627 0.16621 0.0
H213 H 0.19631 0.13886 0.92756 0.0
H214 H 0.21566 0.17281 0.95607 0.0
H215 H 0.22782 0.13314 0.97603 0.0
H216 H 0.27058 0.2389 0.04433 0.0
H217 H 0.29733 0.14564 0.10615 0.0
H218 H 0.1861 0.22886 0.05503 0.0
H219 H 0.19811 0.22165 0.99171 0.0
H220 H 0.21667 0.25351 0.02674 0.0
H221 H 0.21999 0.11637 0.12745 0.0
H222 H 0.26049 0.10412 0.11701 0.0
H223 H 0.2307 0.10489 0.06527 0.0
C224 C 0.84988 0.14492 0.06754 0.0
C225 C 0.86316 0.13654 0.02146 0.0
C226 C 0.82251 0.16443 0.06771 0.0
C227 C 0.80825 0.17607 0.0207 0.0
C228 C 0.82076 0.16665 0.97408 0.0
C229 C 0.84794 0.14691 0.97502 0.0
C230 C 0.80962 0.17359 0.11823 0.0
C231 C 0.80628 0.17857 0.92315 0.0
C232 C 0.72485 0.21293 0.01578 0.0
C233 C 0.73193 0.24577 0.01618 0.0
C234 C 0.74941 0.18988 0.01796 0.0
C235 C 0.78179 0.19994 0.0201 0.0
C236 C 0.78905 0.23305 0.02044 0.0
C237 C 0.76406 0.25553 0.0187 0.0
C238 C 0.74076 0.15479 0.01795 0.0
C239 C 0.82328 0.24476 0.02221 0.0
H240 H 0.86132 0.13692 0.10362 0.0
H241 H 0.8579 0.14051 0.93919 0.0
H242 H 0.81364 0.19952 0.12369 0.0
H243 H 0.7834 0.16939 0.11856 0.0
H244 H 0.82131 0.15994 0.15106 0.0
H245 H 0.81765 0.16756 0.8904 0.0
H246 H 0.78024 0.17337 0.92084 0.0
H247 H 0.8091 0.20495 0.91929 0.0
H248 H 0.70008 0.20519 0.01411 0.0
H249 H 0.76976 0.28084 0.01897 0.0
H250 H 0.75171 0.1422 0.05234 0.0
H251 H 0.75052 0.14362 0.98405 0.0
H252 H 0.71444 0.15088 0.01744 0.0
H253 H 0.83623 0.23467 0.05691 0.0
H254 H 0.82487 0.2713 0.02246 0.0
H255 H 0.83582 0.23636 0.9886 0.0
C256 C 0.8838 0.88446 0.06983 0.0
C257 C 0.88466 0.90056 0.02192 0.0
C258 C 0.85787 0.86473 0.08235 0.0
C259 C 0.83197 0.86153 0.04643 0.0
C260 C 0.83351 0.87636 0.99709 0.0
C261 C 0.85998 0.89548 0.98528 0.0
C262 C 0.85752 0.84881 0.13498 0.0
C263 C 0.80626 0.87371 0.9578 0.0
C264 C 0.76639 0.79925 0.06081 0.0
C265 C 0.7419 0.81746 0.08077 0.0
C266 C 0.79647 0.81283 0.05158 0.0
C267 C 0.8019 0.84547 0.06173 0.0
C268 C 0.77766 0.8636 0.08361 0.0
C269 C 0.74805 0.84929 0.09322 0.0
C270 C 0.82208 0.79256 0.02957 0.0
C271 C 0.78249 0.89854 0.09479 0.0
H272 H 0.90298 0.88797 0.09819 0.0
H273 H 0.86048 0.9078 0.94818 0.0
H274 H 0.84177 0.86259 0.15932 0.0
H275 H 0.84788 0.8241 0.13324 0.0
H276 H 0.88183 0.8478 0.15372 0.0
H277 H 0.81219 0.8847 0.92009 0.0
H278 H 0.79986 0.84824 0.95258 0.0
H279 H 0.78476 0.88589 0.97143 0.0
H280 H 0.76187 0.77454 0.0515 0.0
H281 H 0.72926 0.86352 0.10864 0.0
H282 H 0.84489 0.79463 0.0524 0.0
H283 H 0.82667 0.8013 0.99004 0.0
H284 H 0.8152 0.76689 0.02855 0.0
H285 H 0.80411 0.90153 0.12011 0.0
H286 H 0.76163 0.90896 0.11336 0.0
H287 H 0.78644 0.91241 0.05865 0.0
C288 C 0.15526 0.87966 0.04922 0.0
C289 C 0.1434 0.892 0.0017 0.0
C290 C 0.17057 0.84976 0.05343 0.0
C291 C 0.17343 0.83165 0.00916 0.0
C292 C 0.16492 0.84564 0.9605 0.0
C293 C 0.15032 0.87585 0.95735 0.0
C294 C 0.18044 0.83635 0.10596 0.0
C295 C 0.16753 0.82729 0.91218 0.0
C296 C 0.21386 0.75 0.01298 0.0
C297 C 0.18761 0.72962 0.02035 0.0
C298 C 0.20994 0.78344 0.01059 0.0
C299 C 0.17895 0.79656 0.01439 0.0
C300 C 0.15244 0.77601 0.02197 0.0
C301 C 0.15717 0.74283 0.02539 0.0
C302 C 0.23883 0.80469 0.00426 0.0
C303 C 0.11889 0.78903 0.02575 0.0
H304 H 0.15047 0.89214 0.08362 0.0
H305 H 0.14175 0.88538 0.92031 0.0
H306 H 0.16008 0.82283 0.12207 0.0
H307 H 0.20112 0.81979 0.10469 0.0
H308 H 0.18683 0.85582 0.13227 0.0
H309 H 0.16564 0.84332 0.87741 0.0
H310 H 0.19047 0.81398 0.91218 0.0
H311 H 0.14783 0.80949 0.90995 0.0
H312 H 0.23752 0.73982 0.00962 0.0
H313 H 0.13682 0.72716 0.03094 0.0
H314 H 0.24079 0.82152 0.03609 0.0
H315 H 0.23609 0.81938 0.96824 0.0
H316 H 0.26143 0.79074 0.00355 0.0
H317 H 0.11788 0.80478 0.05886 0.0
H318 H 0.10082 0.76974 0.03036 0.0
H319 H 0.11218 0.80375 0.99085 0.0
C320 C 0.63291 0.64755 0.57092 0.0
C321 C 0.63018 0.63145 0.52479 0.0
C322 C 0.66058 0.66502 0.58376 0.0
C323 C 0.68621 0.66593 0.55 0.0
C324 C 0.68269 0.65159 0.50193 0.0
C325 C 0.65458 0.63476 0.48971 0.0
C326 C 0.6631 0.68066 0.63484 0.0
C327 C 0.70957 0.65182 0.46499 0.0
C328 C 0.75902 0.71962 0.56473 0.0
C329 C 0.78129 0.69843 0.58904 0.0
C330 C 0.72732 0.70998 0.55414 0.0
C331 C 0.71806 0.67823 0.56707 0.0
C332 C 0.7402 0.6571 0.59304 0.0
C333 C 0.77146 0.66759 0.60419 0.0
C334 C 0.70405 0.7334 0.5278 0.0
C335 C 0.73135 0.62291 0.60696 0.0
H336 H 0.614 0.64544 0.59802 0.0
H337 H 0.65263 0.62255 0.45388 0.0
H338 H 0.67853 0.66583 0.66177 0.0
H339 H 0.6743 0.70468 0.63112 0.0
H340 H 0.6393 0.68318 0.6518 0.0
H341 H 0.70201 0.64205 0.4275 0.0
H342 H 0.71865 0.67651 0.45842 0.0
H343 H 0.7298 0.63714 0.48159 0.0
H344 H 0.76646 0.74362 0.55345 0.0
H345 H 0.78859 0.65113 0.62293 0.0
H346 H 0.68124 0.73362 0.54811 0.0
H347 H 0.69835 0.72589 0.48828 0.0
H348 H 0.71383 0.75813 0.52586 0.0
H349 H 0.70983 0.62234 0.63046 0.0
H350 H 0.75105 0.6099 0.62854 0.0
H351 H 0.72531 0.60987 0.57166 0.0
C352 C 0.34601 0.63868 0.55749 0.0
C353 C 0.35936 0.63244 0.51052 0.0
C354 C 0.31779 0.65677 0.55962 0.0
C355 C 0.30285 0.66932 0.51373 0.0
C356 C 0.31589 0.66266 0.46617 0.0
C357 C 0.34385 0.64419 0.46516 0.0
C358 C 0.30436 0.663 0.61103 0.0
C359 C 0.30081 0.6758 0.41638 0.0
C360 C 0.21659 0.69851 0.50962 0.0
C361 C 0.22067 0.73171 0.51294 0.0
C362 C 0.2431 0.67778 0.51114 0.0
C363 C 0.27441 0.69064 0.51529 0.0
C364 C 0.27866 0.72411 0.51899 0.0
C365 C 0.25173 0.74422 0.51814 0.0
C366 C 0.23763 0.64217 0.50784 0.0
C367 C 0.31168 0.73878 0.5228 0.0
H368 H 0.35785 0.62984 0.59269 0.0
H369 H 0.354 0.63965 0.42865 0.0
H370 H 0.30565 0.68897 0.61833 0.0
H371 H 0.27874 0.65603 0.6113 0.0
H372 H 0.31754 0.6497 0.64278 0.0
H373 H 0.31353 0.66782 0.38259 0.0
H374 H 0.27544 0.66813 0.4126 0.0
H375 H 0.30098 0.70237 0.41601 0.0
H376 H 0.19263 0.68866 0.50596 0.0
H377 H 0.25507 0.76986 0.5206 0.0
H378 H 0.24994 0.62929 0.54079 0.0
H379 H 0.24805 0.63341 0.47261 0.0
H380 H 0.21179 0.63587 0.50736 0.0
H381 H 0.32538 0.72826 0.55645 0.0
H382 H 0.31087 0.76519 0.52623 0.0
H383 H 0.32505 0.73329 0.48838 0.0
C384 C 0.36972 0.38995 0.5691 0.0
C385 C 0.38147 0.39198 0.51969 0.0
C386 C 0.3463 0.36754 0.58214 0.0
C387 C 0.3346 0.34612 0.54508 0.0
C388 C 0.34685 0.34744 0.49539 0.0
C389 C 0.36995 0.37067 0.48305 0.0
C390 C 0.33371 0.36718 0.63551 0.0
C391 C 0.33535 0.32459 0.45527 0.0
C392 C 0.29322 0.27658 0.61052 0.0
C393 C 0.26151 0.2877 0.60956 0.0
C394 C 0.31704 0.29392 0.58529 0.0
C395 C 0.30894 0.32314 0.55895 0.0
C396 C 0.27648 0.33287 0.55387 0.0
C397 C 0.25309 0.31491 0.57906 0.0
C398 C 0.35128 0.28239 0.59064 0.0
C399 C 0.26683 0.36394 0.52627 0.0
H400 H 0.3783 0.40651 0.59751 0.0
H401 H 0.37905 0.3721 0.44483 0.0
H402 H 0.30728 0.36999 0.63369 0.0
H403 H 0.33929 0.34384 0.65537 0.0
H404 H 0.3442 0.38654 0.65887 0.0
H405 H 0.34905 0.3271 0.41984 0.0
H406 H 0.33746 0.29951 0.47044 0.0
H407 H 0.30965 0.32904 0.44527 0.0
H408 H 0.29986 0.25532 0.63343 0.0
H409 H 0.2286 0.32354 0.57775 0.0
H410 H 0.36466 0.29692 0.619 0.0
H411 H 0.36334 0.28538 0.55377 0.0
H412 H 0.35282 0.25683 0.60376 0.0
H413 H 0.27461 0.3843 0.54985 0.0
H414 H 0.24049 0.36564 0.51905 0.0
H415 H 0.2787 0.3666 0.48924 0.0
C416 C 0.64704 0.37129 0.54245 0.0
C417 C 0.63452 0.38188 0.4944 0.0
C418 C 0.66131 0.34098 0.5495 0.0
C419 C 0.66254 0.32066 0.50751 0.0
C420 C 0.65276 0.33241 0.45801 0.0
C421 C 0.63903 0.36295 0.45205 0.0
C422 C 0.67232 0.32976 0.60274 0.0
C423 C 0.65359 0.31162 0.41206 0.0
C424 C 0.70417 0.23964 0.51777 0.0
C425 C 0.67855 0.2193 0.52948 0.0
C426 C 0.69965 0.27291 0.51181 0.0
C427 C 0.66866 0.28586 0.51647 0.0
C428 C 0.64276 0.26536 0.52834 0.0
C429 C 0.64812 0.23238 0.53525 0.0
C430 C 0.7279 0.29418 0.50051 0.0
C431 C 0.60921 0.27818 0.53289 0.0
H432 H 0.64385 0.38579 0.57519 0.0
H433 H 0.6296 0.3709 0.41469 0.0
H434 H 0.65322 0.315 0.62006 0.0
H435 H 0.69416 0.31473 0.60195 0.0
H436 H 0.67738 0.35026 0.62771 0.0
H437 H 0.65088 0.32594 0.37558 0.0
H438 H 0.67627 0.29787 0.41199 0.0
H439 H 0.63364 0.2941 0.41359 0.0
H440 H 0.72782 0.22959 0.51375 0.0
H441 H 0.62824 0.21672 0.54409 0.0
H442 H 0.73047 0.31272 0.52971 0.0
H443 H 0.72388 0.3069 0.46291 0.0
H444 H 0.75066 0.28048 0.49999 0.0
H445 H 0.60887 0.29577 0.5636 0.0
H446 H 0.59168 0.25893 0.54159 0.0
H447 H 0.60125 0.29086 0.49664 0.0
C448 C 0.05686 0.10284 0.19636 0.0
C449 C 0.02332 0.10278 0.19651 0.0
C450 C 0.07535 0.11066 0.24011 0.0
C451 C 0.05985 0.1184 0.28518 0.0
C452 C 0.02602 0.11704 0.28618 0.0
C453 C 0.00818 0.10947 0.24175 0.0
C454 C 0.11137 0.11178 0.23742 0.0
C455 C 0.00857 0.12482 0.3336 0.0
C456 C 0.10415 0.12047 0.41469 0.0
C457 C 0.10892 0.15349 0.41981 0.0
C458 C 0.0892 0.10851 0.37027 0.0
C459 C 0.0786 0.13011 0.33026 0.0
C460 C 0.08407 0.16335 0.33469 0.0
C461 C 0.09923 0.17461 0.3793 0.0
C462 C 0.08393 0.07288 0.36671 0.0
C463 C 0.07306 0.18716 0.2929 0.0
H464 H 0.06871 0.09776 0.16167 0.0
H465 H 0.98228 0.1091 0.24232 0.0
H466 H 0.11961 0.13699 0.23906 0.0
H467 H 0.12283 0.09841 0.27064 0.0
H468 H 0.11982 0.10163 0.20168 0.0
H469 H 0.98295 0.11794 0.33066 0.0
H470 H 0.01973 0.11234 0.3679 0.0
H471 H 0.01007 0.15094 0.3396 0.0
H472 H 0.11172 0.10395 0.44567 0.0
H473 H 0.10288 0.20014 0.38277 0.0
H474 H 0.09358 0.06428 0.33078 0.0
H475 H 0.05787 0.06766 0.36556 0.0
H476 H 0.09544 0.05912 0.39955 0.0
H477 H 0.08287 0.18066 0.2559 0.0
H478 H 0.08052 0.21203 0.30116 0.0
H479 H 0.04656 0.18654 0.28825 0.0
C480 C 0.95086 0.03719 0.21359 0.0
C481 C 0.93339 0.04315 0.1676 0.0
C482 C 0.93983 0.04823 0.25965 0.0
C483 C 0.90986 0.06406 0.25966 0.0
C484 C 0.89292 0.07138 0.21275 0.0
C485 C 0.90519 0.06113 0.167 0.0
C486 C 0.95959 0.04169 0.30838 0.0
C487 C 0.86105 0.08845 0.21115 0.0
C488 C 0.86146 0.04975 0.37757 0.0
C489 C 0.86281 0.07969 0.40008 0.0
C490 C 0.87692 0.04444 0.33211 0.0
C491 C 0.89454 0.0696 0.30881 0.0
C492 C 0.89648 0.09976 0.3318 0.0
C493 C 0.88056 0.10442 0.37716 0.0
C494 C 0.87346 0.01217 0.30811 0.0
C495 C 0.91412 0.12779 0.30827 0.0
H496 H 0.97288 0.02343 0.21359 0.0
H497 H 0.89171 0.06539 0.13117 0.0
H498 H 0.95875 0.06237 0.33375 0.0
H499 H 0.94975 0.02057 0.32929 0.0
H500 H 0.985 0.03659 0.30054 0.0
H501 H 0.85046 0.09136 0.17167 0.0
H502 H 0.84393 0.07492 0.23503 0.0
H503 H 0.86404 0.11251 0.22726 0.0
H504 H 0.84773 0.03052 0.39492 0.0
H505 H 0.88158 0.12774 0.39406 0.0
H506 H 0.89728 0.00069 0.30604 0.0
H507 H 0.86336 0.01525 0.26838 0.0
H508 H 0.8577 0.99568 0.32986 0.0
H509 H 0.93127 0.12065 0.27957 0.0
H510 H 0.92722 0.14118 0.33845 0.0
H511 H 0.89643 0.14456 0.28928 0.0
C512 C 0.96437 0.92703 0.16349 0.0
C513 C 0.99753 0.92323 0.16062 0.0
C514 C 0.94801 0.91618 0.20646 0.0
C515 C 0.96533 0.90088 0.2478 0.0
C516 C 0.99883 0.89679 0.24546 0.0
C517 C 0.0145 0.90798 0.20193 0.0
C518 C 0.91221 0.921 0.20751 0.0
C519 C 0.01803 0.88035 0.28885 0.0
C520 C 0.93288 0.89419 0.38091 0.0
C521 C 0.92288 0.86212 0.38336 0.0
C522 C 0.94554 0.90761 0.33616 0.0
C523 C 0.9485 0.88838 0.29317 0.0
C524 C 0.93734 0.8564 0.29477 0.0
C525 C 0.9246 0.84368 0.33983 0.0
C526 C 0.95687 0.94197 0.33551 0.0
C527 C 0.94011 0.83515 0.24965 0.0
H528 H 0.95102 0.9384 0.1323 0.0
H529 H 0.04015 0.90497 0.20048 0.0
H530 H 0.90005 0.89751 0.21201 0.0
H531 H 0.90631 0.93525 0.24085 0.0
H532 H 0.9023 0.93348 0.17218 0.0
H533 H 0.0441 0.88125 0.28288 0.0
H534 H 0.0134 0.89171 0.3255 0.0
H535 H 0.01066 0.8549 0.29274 0.0
H536 H 0.93138 0.90866 0.41428 0.0
H537 H 0.91683 0.81891 0.3413 0.0
H538 H 0.94688 0.95529 0.30109 0.0
H539 H 0.98335 0.9426 0.33359 0.0
H540 H 0.94996 0.95461 0.37003 0.0
H541 H 0.93123 0.84774 0.21387 0.0
H542 H 0.92656 0.81244 0.25457 0.0
H543 H 0.96567 0.82921 0.2449 0.0
C544 C 0.11718 0.95933 0.15743 0.0
C545 C 0.09093 0.97897 0.16591 0.0
C546 C 0.12868 0.93719 0.19538 0.0
C547 C 0.11255 0.93364 0.24182 0.0
C548 C 0.08526 0.95286 0.24965 0.0
C549 C 0.07521 0.97573 0.21192 0.0
C550 C 0.15872 0.91847 0.18654 0.0
C551 C 0.06693 0.95058 0.29824 0.0
C552 C 0.12647 0.85913 0.32783 0.0
C553 C 0.14222 0.87223 0.37051 0.0
C554 C 0.11812 0.8783 0.28414 0.0
C555 C 0.12536 0.91151 0.28355 0.0
C556 C 0.1434 0.92424 0.32498 0.0
C557 C 0.15143 0.90453 0.36798 0.0
C558 C 0.10193 0.86232 0.23921 0.0
C559 C 0.15369 0.95891 0.32451 0.0
H560 H 0.12958 0.96232 0.12199 0.0
H561 H 0.05486 0.99101 0.21835 0.0
H562 H 0.17573 0.91973 0.22006 0.0
H563 H 0.1525 0.89294 0.18173 0.0
H564 H 0.17099 0.92742 0.15199 0.0
H565 H 0.04082 0.95325 0.28942 0.0
H566 H 0.0711 0.92775 0.32035 0.0
H567 H 0.07422 0.97062 0.32282 0.0
H568 H 0.12007 0.83397 0.32878 0.0
H569 H 0.16416 0.91483 0.40032 0.0
H570 H 0.12014 0.84851 0.21944 0.0
H571 H 0.09039 0.87941 0.21095 0.0
H572 H 0.08378 0.84481 0.2525 0.0
H573 H 0.16279 0.96636 0.28663 0.0
H574 H 0.17265 0.96338 0.35436 0.0
H575 H 0.13282 0.97428 0.3317 0.0
C576 C 0.09195 0.99001 0.83218 0.0
C577 C 0.11052 0.9932 0.87745 0.0
C578 C 0.10167 0.96992 0.79393 0.0
C579 C 0.13077 0.9527 0.80106 0.0
C580 C 0.14906 0.95489 0.84745 0.0
C581 C 0.13883 0.97531 0.88497 0.0
C582 C 0.08134 0.96826 0.74511 0.0
C583 C 0.17991 0.93642 0.85686 0.0
C584 C 0.14425 0.88655 0.70829 0.0
C585 C 0.16253 0.90257 0.67151 0.0
C586 C 0.13456 0.90219 0.75173 0.0
C587 C 0.14326 0.9346 0.75827 0.0
C588 C 0.16255 0.95051 0.72216 0.0
C589 C 0.17204 0.93428 0.67936 0.0
C590 C 0.11388 0.88453 0.7894 0.0
C591 C 0.17221 0.98511 0.72772 0.0
H592 H 0.06978 0.00334 0.82643 0.0
H593 H 0.15319 0.9774 0.92007 0.0
H594 H 0.09206 0.98381 0.71511 0.0
H595 H 0.08036 0.94355 0.73099 0.0
H596 H 0.05645 0.97654 0.75028 0.0
H597 H 0.18877 0.93709 0.89737 0.0
H598 H 0.17665 0.91105 0.84661 0.0
H599 H 0.19855 0.94682 0.83223 0.0
H600 H 0.1368 0.86204 0.70253 0.0
H601 H 0.18624 0.94683 0.65128 0.0
H602 H 0.08927 0.89456 0.78647 0.0
H603 H 0.12322 0.88777 0.8291 0.0
H604 H 0.11252 0.85849 0.78236 0.0
H605 H 0.15053 0.00051 0.72573 0.0
H606 H 0.18845 0.99357 0.69748 0.0
H607 H 0.18441 0.98834 0.76557 0.0
C608 C 0.00727 0.12551 0.81592 0.0
C609 C 0.00517 0.09266 0.82831 0.0
C610 C 0.03079 0.13745 0.78375 0.0
C611 C 0.05231 0.11594 0.76237 0.0
C612 C 0.04825 0.08254 0.77052 0.0
C613 C 0.02496 0.07125 0.80402 0.0
C614 C 0.03429 0.1733 0.77632 0.0
C615 C 0.06972 0.05873 0.74667 0.0
C616 C 0.10599 0.15928 0.66927 0.0
C617 C 0.13207 0.16691 0.70194 0.0
C618 C 0.08089 0.13995 0.687 0.0
C619 C 0.08161 0.12896 0.73883 0.0
C620 C 0.10898 0.1347 0.77074 0.0
C621 C 0.1339 0.15346 0.75178 0.0
C622 C 0.05269 0.13312 0.6513 0.0
C623 C 0.11093 0.12318 0.82617 0.0
H624 H 0.99187 0.14225 0.83398 0.0
H625 H 0.02317 0.04575 0.81268 0.0
H626 H 0.05693 0.18114 0.79568 0.0
H627 H 0.03564 0.18005 0.73514 0.0
H628 H 0.01411 0.18659 0.79213 0.0
H629 H 0.05693 0.03581 0.74066 0.0
H630 H 0.0784 0.06788 0.70941 0.0
H631 H 0.09087 0.05375 0.77269 0.0
H632 H 0.10396 0.17011 0.63114 0.0
H633 H 0.15419 0.15907 0.77702 0.0
H634 H 0.03242 0.14899 0.65966 0.0
H635 H 0.04453 0.10799 0.65688 0.0
H636 H 0.05859 0.13735 0.61061 0.0
H637 H 0.09223 0.13527 0.84751 0.0
H638 H 0.13464 0.1281 0.84495 0.0
H639 H 0.10634 0.09705 0.82929 0.0
C640 C 0.89379 0.02774 0.7901 0.0
C641 C 0.89624 0.04253 0.83735 0.0
C642 C 0.87395 0.04049 0.75 0.0
C643 C 0.8562 0.06868 0.75739 0.0
C644 C 0.86019 0.08484 0.80382 0.0
C645 C 0.88017 0.07154 0.84332 0.0
C646 C 0.87068 0.02281 0.70075 0.0
C647 C 0.84186 0.11505 0.81331 0.0
C648 C 0.81419 0.11095 0.6426 0.0
C649 C 0.78322 0.09815 0.64487 0.0
C650 C 0.83834 0.10155 0.67886 0.0
C651 C 0.83111 0.07929 0.71873 0.0
C652 C 0.7997 0.06686 0.72185 0.0
C653 C 0.77616 0.07643 0.68487 0.0
C654 C 0.8715 0.11556 0.67478 0.0
C655 C 0.79096 0.04334 0.76419 0.0
H656 H 0.90642 0.00549 0.78497 0.0
H657 H 0.88214 0.08327 0.87958 0.0
H658 H 0.84631 0.01238 0.69694 0.0
H659 H 0.87366 0.03956 0.66745 0.0
H660 H 0.88847 0.00315 0.69917 0.0
H661 H 0.85324 0.12854 0.84498 0.0
H662 H 0.84007 0.13102 0.77858 0.0
H663 H 0.81716 0.10862 0.8239 0.0
H664 H 0.81945 0.12881 0.61324 0.0
H665 H 0.7522 0.06662 0.68703 0.0
H666 H 0.88936 0.09608 0.67236 0.0
H667 H 0.87792 0.12888 0.70963 0.0
H668 H 0.87341 0.13206 0.64083 0.0
H669 H 0.80596 0.02149 0.76299 0.0
H670 H 0.76535 0.03618 0.7614 0.0
H671 H 0.79583 0.05403 0.8019 0.0
C672 C 0.95946 0.92883 0.82783 0.0
C673 C 0.99257 0.93188 0.82227 0.0
C674 C 0.94096 0.90937 0.79563 0.0
C675 C 0.95597 0.89294 0.75671 0.0
C676 C 0.98896 0.89782 0.74867 0.0
C677 C 0.00693 0.917 0.78192 0.0
C678 C 0.90595 0.90454 0.80593 0.0
C679 C 0.00574 0.88123 0.70695 0.0
C680 C 0.92566 0.81127 0.71983 0.0
C681 C 0.90959 0.81815 0.67271 0.0
C682 C 0.93995 0.8356 0.7482 0.0
C683 C 0.93842 0.86764 0.72877 0.0
C684 C 0.92131 0.87498 0.68215 0.0
C685 C 0.90668 0.85014 0.655 0.0
C686 C 0.95746 0.82686 0.79836 0.0
C687 C 0.91912 0.90891 0.66042 0.0
H688 H 0.94831 0.93999 0.85933 0.0
H689 H 0.03249 0.91942 0.77742 0.0
H690 H 0.89117 0.90568 0.7698 0.0
H691 H 0.90257 0.88041 0.82403 0.0
H692 H 0.89692 0.92265 0.83191 0.0
H693 H 0.0303 0.8907 0.70169 0.0
H694 H 0.00754 0.85521 0.7167 0.0
H695 H 0.9918 0.88401 0.67011 0.0
H696 H 0.92775 0.78665 0.73412 0.0
H697 H 0.89291 0.8559 0.62012 0.0
H698 H 0.94844 0.84151 0.82927 0.0
H699 H 0.98336 0.83212 0.79538 0.0
H700 H 0.95471 0.80114 0.80959 0.0
H701 H 0.90889 0.92483 0.68861 0.0
H702 H 0.90416 0.91074 0.62441 0.0
H703 H 0.94348 0.91796 0.65256 0.0
C704 C 0.55492 0.59873 0.67618 0.0
C705 C 0.52156 0.59631 0.67797 0.0
C706 C 0.57384 0.60496 0.7201 0.0
C707 C 0.55887 0.60908 0.76692 0.0
C708 C 0.52528 0.60534 0.76949 0.0
C709 C 0.50703 0.59915 0.7249 0.0
C710 C 0.60962 0.60849 0.71578 0.0
C711 C 0.50836 0.60948 0.81872 0.0
C712 C 0.60518 0.61017 0.89454 0.0
C713 C 0.60754 0.6432 0.90198 0.0
C714 C 0.5905 0.59855 0.84968 0.0
C715 C 0.57763 0.62053 0.81194 0.0
C716 C 0.58082 0.65385 0.81861 0.0
C717 C 0.59589 0.66476 0.86339 0.0
C718 C 0.5878 0.56284 0.84336 0.0
C719 C 0.56728 0.67804 0.77926 0.0
H720 H 0.56625 0.59682 0.6402 0.0
H721 H 0.48128 0.59689 0.72666 0.0
H722 H 0.61631 0.63408 0.71869 0.0
H723 H 0.62252 0.59499 0.74752 0.0
H724 H 0.61793 0.59993 0.67884 0.0
H725 H 0.48386 0.59929 0.81694 0.0
H726 H 0.52185 0.59783 0.85164 0.0
H727 H 0.50655 0.63539 0.82612 0.0
H728 H 0.61433 0.59337 0.92407 0.0
H729 H 0.59769 0.69032 0.86871 0.0
H730 H 0.59679 0.55627 0.80581 0.0
H731 H 0.56226 0.55558 0.84395 0.0
H732 H 0.60136 0.54899 0.87407 0.0
H733 H 0.57688 0.67368 0.74124 0.0
H734 H 0.57292 0.70309 0.78932 0.0
H735 H 0.54086 0.67542 0.77569 0.0
C736 C 0.44714 0.52929 0.70403 0.0
C737 C 0.43087 0.53729 0.65762 0.0
C738 C 0.43699 0.54133 0.75 0.0
C739 C 0.40905 0.56062 0.74953 0.0
C740 C 0.39314 0.56946 0.70234 0.0
C741 C 0.4046 0.55802 0.65676 0.0
C742 C 0.45545 0.53182 0.7989 0.0
C743 C 0.36319 0.58976 0.7001 0.0
C744 C 0.35974 0.5531 0.86769 0.0
C745 C 0.36447 0.58292 0.88964 0.0
C746 C 0.37424 0.54572 0.82226 0.0
C747 C 0.3944 0.56852 0.79837 0.0
C748 C 0.39939 0.59871 0.82042 0.0
C749 C 0.38441 0.60548 0.86589 0.0
C750 C 0.36704 0.51389 0.7988 0.0
C751 C 0.41928 0.6247 0.79583 0.0
H752 H 0.46751 0.51317 0.70448 0.0
H753 H 0.39178 0.56363 0.62078 0.0
H754 H 0.45262 0.54945 0.8291 0.0
H755 H 0.44669 0.50825 0.81333 0.0
H756 H 0.48138 0.5292 0.79196 0.0
H757 H 0.35102 0.59026 0.66162 0.0
H758 H 0.34596 0.58065 0.72835 0.0
H759 H 0.36956 0.61465 0.70986 0.0
H760 H 0.34417 0.5356 0.88552 0.0
H761 H 0.38791 0.62878 0.8822 0.0
H762 H 0.38956 0.50031 0.79556 0.0
H763 H 0.35638 0.51781 0.75957 0.0
H764 H 0.35032 0.49904 0.82158 0.0
H765 H 0.43426 0.61605 0.76523 0.0
H766 H 0.435 0.63607 0.82519 0.0
H767 H 0.40306 0.64366 0.77904 0.0
C768 C 0.46611 0.40455 0.64048 0.0
C769 C 0.49138 0.42636 0.6444 0.0
C770 C 0.45064 0.39343 0.68433 0.0
C771 C 0.46049 0.40498 0.7327 0.0
C772 C 0.48492 0.42841 0.73613 0.0
C773 C 0.50044 0.43843 0.69192 0.0
C774 C 0.42471 0.36844 0.67921 0.0
C775 C 0.49582 0.44178 0.78671 0.0
C776 C 0.41057 0.39007 0.84951 0.0
C777 C 0.42645 0.36363 0.8734 0.0
C778 C 0.42091 0.40346 0.80299 0.0
C779 C 0.44782 0.39022 0.78023 0.0
C780 C 0.46369 0.36337 0.80394 0.0
C781 C 0.45276 0.35036 0.85008 0.0
C782 C 0.40334 0.43193 0.77844 0.0
C783 C 0.49243 0.34852 0.78075 0.0
H784 H 0.45953 0.39504 0.60356 0.0
H785 H 0.51992 0.4555 0.69452 0.0
H786 H 0.43149 0.34657 0.70239 0.0
H787 H 0.40213 0.37756 0.6942 0.0
H788 H 0.42017 0.36165 0.63895 0.0
H789 H 0.51016 0.46396 0.78149 0.0
H790 H 0.47508 0.44728 0.81007 0.0
H791 H 0.51079 0.42368 0.80856 0.0
H792 H 0.3901 0.40034 0.86715 0.0
H793 H 0.46512 0.32988 0.86813 0.0
H794 H 0.39395 0.42601 0.73971 0.0
H795 H 0.4201 0.45233 0.77365 0.0
H796 H 0.38303 0.43959 0.80127 0.0
H797 H 0.48556 0.33949 0.74252 0.0
H798 H 0.50277 0.32839 0.80488 0.0
H799 H 0.51123 0.36688 0.77521 0.0
C800 C 0.5811 0.4871 0.70497 0.0
C801 C 0.59043 0.48188 0.65511 0.0
C802 C 0.59204 0.46712 0.74617 0.0
C803 C 0.61339 0.44177 0.7374 0.0
C804 C 0.62319 0.43667 0.68718 0.0
C805 C 0.61121 0.45656 0.6465 0.0
C806 C 0.58136 0.47364 0.79924 0.0
C807 C 0.64657 0.41054 0.676 0.0
C808 C 0.66612 0.41225 0.85057 0.0
C809 C 0.64986 0.38458 0.86707 0.0
C810 C 0.65474 0.43079 0.80802 0.0
C811 C 0.6264 0.42147 0.78118 0.0
C812 C 0.6105 0.39299 0.79632 0.0
C813 C 0.62237 0.37487 0.8392 0.0
C814 C 0.67295 0.46046 0.79186 0.0
C815 C 0.58073 0.38197 0.76758 0.0
H816 H 0.56518 0.50687 0.71179 0.0
H817 H 0.61927 0.45318 0.6083 0.0
H818 H 0.57079 0.45168 0.8167 0.0
H819 H 0.60234 0.48028 0.82392 0.0
H820 H 0.56348 0.49332 0.7992 0.0
H821 H 0.66088 0.41747 0.64252 0.0
H822 H 0.66347 0.40479 0.70874 0.0
H823 H 0.63296 0.38847 0.66712 0.0
H824 H 0.6875 0.41989 0.87155 0.0
H825 H 0.60969 0.35349 0.85148 0.0
H826 H 0.65739 0.48188 0.79357 0.0
H827 H 0.67999 0.45866 0.75164 0.0
H828 H 0.69487 0.46416 0.81634 0.0
H829 H 0.56198 0.40077 0.76761 0.0
H830 H 0.57106 0.35934 0.78434 0.0
H831 H 0.58615 0.37818 0.72709 0.0
C832 C 0.60352 0.48339 0.32378 0.0
C833 C 0.61809 0.48344 0.37292 0.0
C834 C 0.61354 0.46216 0.28741 0.0
C835 C 0.63859 0.44021 0.30062 0.0
C836 C 0.65297 0.43963 0.35048 0.0
C837 C 0.64279 0.46154 0.3859 0.0
C838 C 0.59753 0.46346 0.23463 0.0
C839 C 0.67948 0.41633 0.36615 0.0
C840 C 0.64443 0.3715 0.21046 0.0
C841 C 0.66803 0.38283 0.17775 0.0
C842 C 0.6355 0.38927 0.25212 0.0
C843 C 0.65053 0.41903 0.26115 0.0
C844 C 0.6754 0.42984 0.22972 0.0
C845 C 0.68398 0.41151 0.1886 0.0
C846 C 0.60946 0.3766 0.28568 0.0
C847 C 0.6917 0.46166 0.23769 0.0
H848 H 0.58426 0.50008 0.31354 0.0
H849 H 0.65415 0.4614 0.42384 0.0
H850 H 0.61561 0.46847 0.20548 0.0
H851 H 0.58654 0.43993 0.22632 0.0
H852 H 0.57859 0.48214 0.23044 0.0
H853 H 0.68457 0.41552 0.40814 0.0
H854 H 0.67326 0.39185 0.35396 0.0
H855 H 0.7017 0.42353 0.34699 0.0
H856 H 0.63225 0.34919 0.20267 0.0
H857 H 0.7023 0.42045 0.16361 0.0
H858 H 0.59053 0.39491 0.28895 0.0
H859 H 0.61972 0.37133 0.3247 0.0
H860 H 0.5983 0.35441 0.27106 0.0
H861 H 0.67405 0.48133 0.23069 0.0
H862 H 0.71185 0.46573 0.21178 0.0
H863 H 0.70103 0.4631 0.27777 0.0
C864 C 0.53987 0.58759 0.31836 0.0
C865 C 0.50991 0.6012 0.32678 0.0
C866 C 0.56117 0.60256 0.28493 0.0
C867 C 0.55223 0.63181 0.25939 0.0
C868 C 0.52137 0.64475 0.26567 0.0
C869 C 0.50056 0.62925 0.29919 0.0
C870 C 0.59371 0.58781 0.27873 0.0
C871 C 0.51083 0.67581 0.23883 0.0
C872 C 0.61383 0.69399 0.22163 0.0
C873 C 0.61381 0.69112 0.1685 0.0
C874 C 0.59507 0.67369 0.25205 0.0
C875 C 0.57563 0.65015 0.22861 0.0
C876 C 0.57648 0.64632 0.17522 0.0
C877 C 0.59539 0.66703 0.14573 0.0
C878 C 0.5949 0.67846 0.30894 0.0
C879 C 0.55608 0.62153 0.14882 0.0
H880 H 0.54714 0.56575 0.33912 0.0
H881 H 0.47738 0.63983 0.30519 0.0
H882 H 0.59895 0.58663 0.23764 0.0
H883 H 0.6124 0.60303 0.29685 0.0
H884 H 0.59559 0.56332 0.29655 0.0
H885 H 0.48538 0.68156 0.24526 0.0
H886 H 0.52597 0.69573 0.2529 0.0
H887 H 0.51401 0.67463 0.19709 0.0
H888 H 0.62792 0.71271 0.2393 0.0
H889 H 0.59419 0.66549 0.10455 0.0
H890 H 0.59943 0.65539 0.33029 0.0
H891 H 0.57096 0.68708 0.31927 0.0
H892 H 0.61317 0.6961 0.3217 0.0
H893 H 0.55855 0.59791 0.16932 0.0
H894 H 0.56252 0.61887 0.10843 0.0
H895 H 0.5305 0.6286 0.14932 0.0
C896 C 0.37414 0.56461 0.33449 0.0
C897 C 0.39048 0.53588 0.32747 0.0
C898 C 0.35554 0.57924 0.29446 0.0
C899 C 0.3534 0.56483 0.24633 0.0
C900 C 0.37128 0.53683 0.23824 0.0
C901 C 0.38963 0.52268 0.27897 0.0
C902 C 0.33683 0.60912 0.30461 0.0
C903 C 0.36993 0.52098 0.18726 0.0
C904 C 0.27664 0.57757 0.16636 0.0
C905 C 0.28577 0.60095 0.13007 0.0
C906 C 0.29848 0.56564 0.2043 0.0
C907 C 0.33027 0.57737 0.206 0.0
C908 C 0.33965 0.60111 0.16972 0.0
C909 C 0.31716 0.61283 0.13239 0.0
C910 C 0.2875 0.54048 0.24261 0.0
C911 C 0.37331 0.6143 0.17065 0.0
H912 H 0.37485 0.57508 0.3718 0.0
H913 H 0.40272 0.50083 0.27308 0.0
H914 H 0.33954 0.62744 0.27339 0.0
H915 H 0.31098 0.60317 0.306 0.0
H916 H 0.34452 0.61969 0.3414 0.0
H917 H 0.38743 0.50104 0.18594 0.0
H918 H 0.34554 0.51129 0.17966 0.0
H919 H 0.37473 0.53877 0.15603 0.0
H920 H 0.25235 0.56838 0.16492 0.0
H921 H 0.32402 0.63181 0.10588 0.0
H922 H 0.29081 0.54929 0.28194 0.0
H923 H 0.30227 0.51853 0.24057 0.0
H924 H 0.26193 0.53396 0.23605 0.0
H925 H 0.37854 0.62615 0.20729 0.0
H926 H 0.37708 0.63191 0.13865 0.0
H927 H 0.39084 0.59451 0.16834 0.0
C928 C 0.50806 0.40004 0.27743 0.0
C929 C 0.4938 0.42608 0.30014 0.0
C930 C 0.49062 0.38108 0.24326 0.0
C931 C 0.45804 0.38834 0.23127 0.0
C932 C 0.44382 0.41546 0.25215 0.0
C933 C 0.46196 0.43415 0.28623 0.0
C934 C 0.50668 0.35226 0.22212 0.0
C935 C 0.40933 0.42433 0.23937 0.0
C936 C 0.42363 0.34407 0.11771 0.0
C937 C 0.40978 0.31734 0.14203 0.0
C938 C 0.43774 0.36856 0.14626 0.0
C939 C 0.43855 0.36583 0.2003 0.0
C940 C 0.42355 0.33947 0.225 0.0
C941 C 0.40936 0.31556 0.19554 0.0
C942 C 0.45321 0.39648 0.11864 0.0
C943 C 0.42378 0.33577 0.28261 0.0
H944 H 0.53264 0.39367 0.28773 0.0
H945 H 0.4509 0.45448 0.30308 0.0
H946 H 0.49526 0.33003 0.23706 0.0
H947 H 0.50363 0.35261 0.17984 0.0
H948 H 0.53271 0.35117 0.23259 0.0
H949 H 0.40055 0.44307 0.2644 0.0
H950 H 0.40702 0.43344 0.19908 0.0
H951 H 0.39356 0.40307 0.24307 0.0
H952 H 0.42509 0.34514 0.07657 0.0
H953 H 0.39861 0.29496 0.21451 0.0
H954 H 0.47963 0.39481 0.12421 0.0
H955 H 0.44565 0.4194 0.13462 0.0
H956 H 0.44712 0.39712 0.07693 0.0
H957 H 0.44876 0.3323 0.29785 0.0
H958 H 0.40918 0.31507 0.29581 0.0
H959 H 0.41445 0.35781 0.29922 0.0
loop_
_geom_bond_atom_site_label_1
_geom_bond_atom_site_label_2
_geom_bond_distance
_geom_bond_site_symmetry_2
_ccdc_geom_bond_type
Zn0 O2 1.933 1_556 S
Zn0 O20 1.985 . S
Zn0 O31 1.955 . S
Zn1 O2 1.911 . S
Zn1 O21 1.970 . S
Zn1 O37 1.945 . S
Zn1 O44 1.981 . S
O2 Zn0 1.933 1_554 S
O2 Zn1 1.911 . S
O2 H3 0.841 1_655 S
H3 O2 0.841 1_455 S
C4 O5 1.246 . S
C4 O33 1.289 . S
O5 C4 1.246 . S
Zn6 O8 1.911 . S
Zn6 O23 1.970 . S
Zn6 O40 1.945 . S
Zn6 O47 1.981 . S
Zn7 O8 1.933 1_556 S
Zn7 O22 1.985 . S
Zn7 O29 1.955 . S
O8 Zn6 1.911 . S
O8 Zn7 1.933 1_554 S
O8 H9 0.841 1_455 S
H9 O8 0.841 1_655 S
Zn10 O11 1.933 1_556 S
Zn10 O24 1.985 . S
Zn10 O33 1.950 1_565 S
O11 Zn10 1.933 1_554 S
O11 Zn12 1.911 . S
O11 H13 0.841 1_565 S
Zn12 O11 1.911 . S
Zn12 O25 1.970 . S
Zn12 O41 1.981 . S
Zn12 O43 1.945 . S
H13 O11 0.841 1_545 S
Zn14 O15 1.933 1_556 S
Zn14 O27 1.985 . S
Zn14 O35 1.955 . S
O15 Zn14 1.933 1_554 S
O15 H16 0.841 1_545 S
O15 Zn17 1.911 . S
H16 O15 0.841 1_565 S
Zn17 O15 1.911 . S
Zn17 O28 1.970 . S
Zn17 O38 1.981 . S
Zn17 O46 1.945 . S
C18 O19 1.246 . S
C18 O35 1.276 1_565 S
O19 C18 1.246 . S
O20 Zn0 1.985 . S
O20 C30 1.245 1_556 S
O21 Zn1 1.970 . S
O21 C30 1.263 . S
O22 Zn7 1.985 . S
O22 C34 1.245 1_556 S
O23 Zn6 1.970 . S
O23 C34 1.263 . S
O24 Zn10 1.985 . S
O24 C39 1.245 1_556 S
O25 Zn12 1.970 . S
O25 C39 1.263 . S
C26 O37 1.262 1_455 S
C26 O38 1.245 . S
O27 Zn14 1.985 . S
O27 C45 1.245 1_556 S
O28 Zn17 1.970 . S
O28 C45 1.263 . S
O29 Zn7 1.955 . S
O29 C48 1.276 1_455 S
C30 O20 1.245 1_554 S
C30 O21 1.263 . S
O31 Zn0 1.955 . S
O31 C50 1.276 1_655 S
C32 O40 1.262 1_655 S
C32 O41 1.245 . S
O33 C4 1.289 . S
O33 Zn10 1.950 1_545 S
C34 O22 1.245 1_554 S
C34 O23 1.263 . S
O35 Zn14 1.955 . S
O35 C18 1.276 1_545 S
C36 O43 1.262 1_545 S
C36 O44 1.245 . S
O37 Zn1 1.945 . S
O37 C26 1.262 1_655 S
O38 Zn17 1.981 . S
O38 C26 1.245 . S
C39 O24 1.245 1_554 S
C39 O25 1.263 . S
O40 Zn6 1.945 . S
O40 C32 1.262 1_455 S
O41 Zn12 1.981 . S
O41 C32 1.245 . S
C42 O46 1.262 1_565 S
C42 O47 1.245 . S
O43 Zn12 1.945 . S
O43 C36 1.262 1_565 S
O44 Zn1 1.981 . S
O44 C36 1.245 . S
C45 O27 1.245 1_554 S
C45 O28 1.263 . S
O46 Zn17 1.945 . S
O46 C42 1.262 1_545 S
O47 Zn6 1.981 . S
O47 C42 1.245 . S
C48 O29 1.276 1_655 S
C48 O49 1.246 . S
O49 C48 1.246 . S
C50 O31 1.276 1_455 S
C50 O51 1.246 . S
O51 C50 1.246 . S
Zn52 O54 1.933 . S
Zn52 O72 1.985 . S
Zn52 O83 1.955 . S
Zn53 O54 1.911 . S
Zn53 O73 1.970 . S
Zn53 O89 1.945 . S
Zn53 O96 1.981 . S
O54 Zn52 1.933 . S
O54 Zn53 1.911 . S
O54 H55 0.841 . S
H55 O54 0.841 . S
C56 O57 1.246 . S
C56 O85 1.276 . S
O57 C56 1.246 . S
Zn58 O60 1.911 . S
Zn58 O75 1.970 . S
Zn58 O92 1.945 . S
Zn58 O99 1.981 . S
Zn59 O60 1.933 . S
Zn59 O74 1.985 . S
Zn59 O81 1.955 . S
O60 Zn58 1.911 . S
O60 Zn59 1.933 . S
O60 H61 0.841 . S
H61 O60 0.841 . S
Zn62 O63 1.933 . S
Zn62 O76 1.985 . S
Zn62 O85 1.955 . S
O63 Zn62 1.933 . S
O63 Zn64 1.911 . S
O63 H65 0.841 . S
Zn64 O63 1.911 . S
Zn64 O77 1.970 . S
Zn64 O93 1.981 . S
Zn64 O95 1.945 . S
H65 O63 0.841 . S
Zn66 O67 1.933 . S
Zn66 O79 1.985 . S
Zn66 O87 1.955 . S
O67 Zn66 1.933 . S
O67 H68 0.841 . S
O67 Zn69 1.911 . S
H68 O67 0.841 . S
Zn69 O67 1.911 . S
Zn69 O80 1.970 . S
Zn69 O90 1.981 . S
Zn69 O98 1.945 . S
C70 O71 1.246 . S
C70 O87 1.276 . S
O71 C70 1.246 . S
O72 Zn52 1.985 . S
O72 C82 1.245 . S
O73 Zn53 1.970 . S
O73 C82 1.263 . S
O74 Zn59 1.985 . S
O74 C86 1.245 . S
O75 Zn58 1.970 . S
O75 C86 1.263 . S
O76 Zn62 1.985 . S
O76 C91 1.245 . S
O77 Zn64 1.970 . S
O77 C91 1.263 . S
C78 O89 1.262 . S
C78 O90 1.245 . S
O79 Zn66 1.985 . S
O79 C97 1.245 . S
O80 Zn69 1.970 . S
O80 C97 1.263 . S
O81 Zn59 1.955 . S
O81 C100 1.276 . S
C82 O72 1.245 . S
C82 O73 1.263 . S
O83 Zn52 1.955 . S
O83 C102 1.276 . S
C84 O92 1.262 . S
C84 O93 1.245 . S
O85 C56 1.276 . S
O85 Zn62 1.955 . S
C86 O74 1.245 . S
C86 O75 1.263 . S
O87 Zn66 1.955 . S
O87 C70 1.276 . S
C88 O95 1.262 . S
C88 O96 1.245 . S
O89 Zn53 1.945 . S
O89 C78 1.262 . S
O90 Zn69 1.981 . S
O90 C78 1.245 . S
C91 O76 1.245 . S
C91 O77 1.263 . S
O92 Zn58 1.945 . S
O92 C84 1.262 . S
O93 Zn64 1.981 . S
O93 C84 1.245 . S
C94 O98 1.262 . S
C94 O99 1.245 . S
O95 Zn64 1.945 . S
O95 C88 1.262 . S
O96 Zn53 1.981 . S
O96 C88 1.245 . S
C97 O79 1.245 . S
C97 O80 1.263 . S
O98 Zn69 1.945 . S
O98 C94 1.262 . S
O99 Zn58 1.981 . S
O99 C94 1.245 . S
C100 O81 1.276 . S
C100 O101 1.246 . S
O101 C100 1.246 . S
C102 O83 1.276 . S
C102 O103 1.246 . S
O103 C102 1.246 . S
O104 Cd105 2.300 . S
O104 C111 1.275 . S
Cd105 O104 2.300 . S
Cd105 O113 2.381 . S
Cd105 O114 2.378 . S
O106 Cd107 2.395 . S
O106 C111 1.255 . S
Cd107 O106 2.395 . S
Cd107 O108 2.308 1_554 S
O108 Cd107 2.308 1_556 S
O108 C109 1.232 . S
C109 O108 1.232 . S
C109 O110 1.218 . S
O110 C109 1.218 . S
C111 O104 1.275 . S
C111 O106 1.255 . S
C112 O113 1.258 . S
C112 O114 1.256 . S
O113 Cd105 2.381 . S
O113 C112 1.258 . S
O114 Cd105 2.378 . S
O114 C112 1.256 . S
O115 Cd116 2.300 . S
O115 C122 1.275 . S
Cd116 O115 2.300 . S
Cd116 O124 2.381 . S
Cd116 O125 2.378 1_556 S
O117 Cd118 2.385 1_556 S
O117 C122 1.255 . S
Cd118 O117 2.385 1_554 S
Cd118 O119 2.317 . S
O119 Cd118 2.317 . S
O119 C120 1.232 . S
C120 O119 1.232 . S
C120 O121 1.218 . S
O121 C120 1.218 . S
C122 O115 1.275 . S
C122 O117 1.255 . S
C123 O124 1.258 . S
C123 O125 1.256 1_556 S
O124 Cd116 2.381 . S
O124 C123 1.258 . S
O125 Cd116 2.378 1_554 S
O125 C123 1.256 1_554 S
O126 Cd127 2.300 . S
O126 C133 1.275 . S
Cd127 O126 2.300 . S
Cd127 O135 2.381 . S
Cd127 O136 2.378 . S
O128 Cd129 2.377 1_554 S
O128 C133 1.255 . S
Cd129 O128 2.377 1_556 S
Cd129 O130 2.324 . S
O130 Cd129 2.324 . S
O130 C131 1.232 . S
C131 O130 1.232 . S
C131 O132 1.218 . S
O132 C131 1.218 . S
C133 O126 1.275 . S
C133 O128 1.255 . S
C134 O135 1.258 . S
C134 O136 1.256 . S
O135 Cd127 2.381 . S
O135 C134 1.258 . S
O136 Cd127 2.378 . S
O136 C134 1.256 . S
O137 Cd138 2.300 . S
O137 C144 1.275 . S
Cd138 O137 2.300 . S
Cd138 O146 2.381 . S
Cd138 O147 2.378 . S
O139 Cd140 2.385 1_554 S
O139 C144 1.255 . S
Cd140 O139 2.385 1_556 S
Cd140 O141 2.317 . S
O141 Cd140 2.317 . S
O141 C142 1.232 . S
C142 O141 1.232 . S
C142 O143 1.218 . S
O143 C142 1.218 . S
C144 O137 1.275 . S
C144 O139 1.255 . S
C145 O146 1.258 . S
C145 O147 1.256 . S
O146 Cd138 2.381 . S
O146 C145 1.258 . S
O147 Cd138 2.378 . S
O147 C145 1.256 . S
O148 Cd149 2.300 . S
O148 C155 1.275 . S
Cd149 O148 2.300 . S
Cd149 O157 2.381 . S
Cd149 O158 2.378 . S
O150 Cd151 2.385 . S
O150 C155 1.255 . S
Cd151 O150 2.385 . S
Cd151 O152 2.317 . S
O152 Cd151 2.317 . S
O152 C153 1.232 . S
C153 O152 1.232 . S
C153 O154 1.218 . S
O154 C153 1.218 . S
C155 O148 1.275 . S
C155 O150 1.255 . S
C156 O157 1.258 . S
C156 O158 1.256 . S
O157 Cd149 2.381 . S
O157 C156 1.258 . S
O158 Cd149 2.378 . S
O158 C156 1.256 . S
O159 Cd160 2.300 . S
O159 C166 1.275 . S
Cd160 O159 2.300 . S
Cd160 O168 2.381 . S
Cd160 O169 2.378 . S
O161 Cd162 2.385 . S
O161 C166 1.255 . S
Cd162 O161 2.385 . S
Cd162 O163 2.317 . S
O163 Cd162 2.317 . S
O163 C164 1.232 . S
C164 O163 1.232 . S
C164 O165 1.218 . S
O165 C164 1.218 . S
C166 O159 1.275 . S
C166 O161 1.255 . S
C167 O168 1.258 . S
C167 O169 1.256 . S
O168 Cd160 2.381 . S
O168 C167 1.258 . S
O169 Cd160 2.378 . S
O169 C167 1.256 . S
O170 Cd171 2.300 . S
O170 C177 1.275 . S
Cd171 O170 2.300 . S
Cd171 O179 2.381 . S
Cd171 O180 2.378 . S
O172 Cd173 2.385 . S
O172 C177 1.255 . S
Cd173 O172 2.385 . S
Cd173 O174 2.317 . S
O174 Cd173 2.317 . S
O174 C175 1.232 . S
C175 O174 1.232 . S
C175 O176 1.218 . S
O176 C175 1.218 . S
C177 O170 1.275 . S
C177 O172 1.255 . S
C178 O179 1.258 . S
C178 O180 1.256 . S
O179 Cd171 2.381 . S
O179 C178 1.258 . S
O180 Cd171 2.378 . S
O180 C178 1.256 . S
O181 Cd182 2.300 . S
O181 C188 1.275 . S
Cd182 O181 2.300 . S
Cd182 O190 2.381 . S
Cd182 O191 2.378 . S
O183 Cd184 2.385 . S
O183 C188 1.255 . S
Cd184 O183 2.385 . S
Cd184 O185 2.317 . S
O185 Cd184 2.317 . S
O185 C186 1.232 . S
C186 O185 1.232 . S
C186 O187 1.218 . S
O187 C186 1.218 . S
C188 O181 1.275 . S
C188 O183 1.255 . S
C189 O190 1.258 . S
C189 O191 1.256 . S
O190 Cd182 2.381 . S
O190 C189 1.258 . S
O191 Cd182 2.378 . S
O191 C189 1.256 . S
C192 C193 1.391 . S
C192 C194 1.394 . S
C192 H208 0.931 . S
C193 C192 1.391 . S
C193 C197 1.376 . S
C194 C192 1.394 . S
C194 C195 1.369 . S
C194 C198 1.531 . S
C195 C194 1.369 . S
C195 C196 1.410 . S
C195 C203 1.503 . S
C196 C195 1.410 . S
C196 C197 1.392 . S
C196 C199 1.511 . S
C197 C193 1.376 . S
C197 C196 1.392 . S
C197 H209 0.929 . S
C198 C194 1.531 . S
C198 H210 0.960 . S
C198 H211 0.962 . S
C198 H212 0.960 . S
C199 C196 1.511 . S
C199 H213 0.961 . S
C199 H214 0.961 . S
C199 H215 0.961 . S
C200 C201 1.370 . S
C200 C202 1.363 . S
C200 H216 0.931 1_554 S
C201 C200 1.370 . S
C201 C205 1.408 . S
C202 C200 1.363 . S
C202 C203 1.370 . S
C202 C206 1.524 1_554 S
C203 C195 1.503 . S
C203 C202 1.370 . S
C203 C204 1.403 . S
C204 C203 1.403 . S
C204 C205 1.404 . S
C204 C207 1.539 . S
C205 C201 1.408 . S
C205 C204 1.404 . S
C205 H217 0.930 . S
C206 C202 1.524 1_556 S
C206 H218 0.956 . S
C206 H219 0.961 . S
C206 H220 0.961 . S
C207 C204 1.539 . S
C207 H221 0.958 . S
C207 H222 0.961 . S
C207 H223 0.960 . S
H208 C192 0.931 . S
H209 C197 0.929 . S
H210 C198 0.960 . S
H211 C198 0.962 . S
H212 C198 0.960 . S
H213 C199 0.961 . S
H214 C199 0.961 . S
H215 C199 0.961 . S
H216 C200 0.931 1_556 S
H217 C205 0.930 . S
H218 C206 0.956 . S
H219 C206 0.961 . S
H220 C206 0.961 . S
H221 C207 0.958 . S
H222 C207 0.961 . S
H223 C207 0.960 . S
C224 C225 1.391 . S
C224 C226 1.394 . S
C224 H240 0.931 . S
C225 C224 1.391 . S
C225 C229 1.376 1_554 S
C226 C224 1.394 . S
C226 C227 1.369 . S
C226 C230 1.531 . S
C227 C226 1.369 . S
C227 C228 1.410 1_554 S
C227 C235 1.503 . S
C228 C227 1.410 1_556 S
C228 C229 1.392 . S
C228 C231 1.511 . S
C229 C225 1.376 1_556 S
C229 C228 1.392 . S
C229 H241 0.929 . S
C230 C226 1.531 . S
C230 H242 0.960 . S
C230 H243 0.962 . S
C230 H244 0.960 . S
C231 C228 1.511 . S
C231 H245 0.961 . S
C231 H246 0.961 . S
C231 H247 0.961 . S
C232 C233 1.370 1_556 S
C232 C234 1.363 . S
C232 H248 0.931 . S
C233 C232 1.370 1_554 S
C233 C237 1.408 . S
C234 C232 1.363 . S
C234 C235 1.370 1_556 S
C234 C238 1.524 . S
C235 C227 1.503 . S
C235 C234 1.370 1_554 S
C235 C236 1.403 . S
C236 C235 1.403 . S
C236 C237 1.404 . S
C236 C239 1.539 . S
C237 C233 1.408 . S
C237 C236 1.404 . S
C237 H249 0.930 . S
C238 C234 1.524 . S
C238 H250 0.956 . S
C238 H251 0.961 . S
C238 H252 0.961 . S
C239 C236 1.539 . S
C239 H253 0.958 . S
C239 H254 0.961 . S
C239 H255 0.960 . S
H240 C224 0.931 . S
H241 C229 0.929 . S
H242 C230 0.960 . S
H243 C230 0.962 . S
H244 C230 0.960 . S
H245 C231 0.961 . S
H246 C231 0.961 . S
H247 C231 0.961 . S
H248 C232 0.931 . S
H249 C237 0.930 . S
H250 C238 0.956 . S
H251 C238 0.961 . S
H252 C238 0.961 . S
H253 C239 0.958 . S
H254 C239 0.961 . S
H255 C239 0.960 . S
C256 C257 1.391 . S
C256 C258 1.394 . S
C256 H272 0.931 . S
C257 C256 1.391 . S
C257 C261 1.376 1_554 S
C258 C256 1.394 . S
C258 C259 1.369 . S
C258 C262 1.531 . S
C259 C258 1.369 . S
C259 C260 1.410 1_554 S
C259 C267 1.503 . S
C260 C259 1.410 1_556 S
C260 C261 1.392 . S
C260 C263 1.511 . S
C261 C257 1.376 1_556 S
C261 C260 1.392 . S
C261 H273 0.929 . S
C262 C258 1.531 . S
C262 H274 0.960 . S
C262 H275 0.962 . S
C262 H276 0.960 . S
C263 C260 1.511 . S
C263 H277 0.961 . S
C263 H278 0.961 . S
C263 H279 0.961 . S
C264 C265 1.370 . S
C264 C266 1.363 . S
C264 H280 0.931 1_554 S
C265 C264 1.370 . S
C265 C269 1.408 . S
C266 C264 1.363 . S
C266 C267 1.370 . S
C266 C270 1.524 1_554 S
C267 C259 1.503 . S
C267 C266 1.370 . S
C267 C268 1.403 . S
C268 C267 1.403 . S
C268 C269 1.404 . S
C268 C271 1.539 . S
C269 C265 1.408 . S
C269 C268 1.404 . S
C269 H281 0.930 . S
C270 C266 1.524 1_556 S
C270 H282 0.956 . S
C270 H283 0.961 . S
C270 H284 0.961 . S
C271 C268 1.539 . S
C271 H285 0.958 . S
C271 H286 0.961 . S
C271 H287 0.960 . S
H272 C256 0.931 . S
H273 C261 0.929 . S
H274 C262 0.960 . S
H275 C262 0.962 . S
H276 C262 0.960 . S
H277 C263 0.961 . S
H278 C263 0.961 . S
H279 C263 0.961 . S
H280 C264 0.931 1_556 S
H281 C269 0.930 . S
H282 C270 0.956 . S
H283 C270 0.961 . S
H284 C270 0.961 . S
H285 C271 0.958 . S
H286 C271 0.961 . S
H287 C271 0.960 . S
C288 C289 1.391 . S
C288 C290 1.394 . S
C288 H304 0.931 . S
C289 C288 1.391 . S
C289 C293 1.376 . S
C290 C288 1.394 . S
C290 C291 1.369 . S
C290 C294 1.531 . S
C291 C290 1.369 . S
C291 C292 1.410 . S
C291 C299 1.503 . S
C292 C291 1.410 . S
C292 C293 1.392 . S
C292 C295 1.511 . S
C293 C289 1.376 . S
C293 C292 1.392 . S
C293 H305 0.929 . S
C294 C290 1.531 . S
C294 H306 0.960 . S
C294 H307 0.962 . S
C294 H308 0.960 . S
C295 C292 1.511 . S
C295 H309 0.961 . S
C295 H310 0.961 . S
C295 H311 0.961 . S
C296 C297 1.370 1_556 S
C296 C298 1.363 . S
C296 H312 0.931 . S
C297 C296 1.370 1_554 S
C297 C301 1.408 . S
C298 C296 1.363 . S
C298 C299 1.370 1_556 S
C298 C302 1.524 . S
C299 C291 1.503 . S
C299 C298 1.370 1_554 S
C299 C300 1.403 . S
C300 C299 1.403 . S
C300 C301 1.404 . S
C300 C303 1.539 . S
C301 C297 1.408 . S
C301 C300 1.404 . S
C301 H313 0.930 . S
C302 C298 1.524 . S
C302 H314 0.956 . S
C302 H315 0.961 . S
C302 H316 0.961 . S
C303 C300 1.539 . S
C303 H317 0.958 . S
C303 H318 0.961 . S
C303 H319 0.960 . S
H304 C288 0.931 . S
H305 C293 0.929 . S
H306 C294 0.960 . S
H307 C294 0.962 . S
H308 C294 0.960 . S
H309 C295 0.961 . S
H310 C295 0.961 . S
H311 C295 0.961 . S
H312 C296 0.931 . S
H313 C301 0.930 . S
H314 C302 0.956 . S
H315 C302 0.961 . S
H316 C302 0.961 . S
H317 C303 0.958 . S
H318 C303 0.961 . S
H319 C303 0.960 . S
C320 C321 1.391 . S
C320 C322 1.394 . S
C320 H336 0.931 . S
C321 C320 1.391 . S
C321 C325 1.376 . S
C322 C320 1.394 . S
C322 C323 1.369 . S
C322 C326 1.531 . S
C323 C322 1.369 . S
C323 C324 1.410 . S
C323 C331 1.503 . S
C324 C323 1.410 . S
C324 C325 1.392 . S
C324 C327 1.511 . S
C325 C321 1.376 . S
C325 C324 1.392 . S
C325 H337 0.929 . S
C326 C322 1.531 . S
C326 H338 0.960 . S
C326 H339 0.962 . S
C326 H340 0.960 . S
C327 C324 1.511 . S
C327 H341 0.961 . S
C327 H342 0.961 . S
C327 H343 0.961 . S
C328 C329 1.370 . S
C328 C330 1.363 . S
C328 H344 0.931 . S
C329 C328 1.370 . S
C329 C333 1.408 . S
C330 C328 1.363 . S
C330 C331 1.370 . S
C330 C334 1.524 . S
C331 C323 1.503 . S
C331 C330 1.370 . S
C331 C332 1.403 . S
C332 C331 1.403 . S
C332 C333 1.404 . S
C332 C335 1.539 . S
C333 C329 1.408 . S
C333 C332 1.404 . S
C333 H345 0.930 . S
C334 C330 1.524 . S
C334 H346 0.956 . S
C334 H347 0.961 . S
C334 H348 0.961 . S
C335 C332 1.539 . S
C335 H349 0.958 . S
C335 H350 0.961 . S
C335 H351 0.960 . S
H336 C320 0.931 . S
H337 C325 0.929 . S
H338 C326 0.960 . S
H339 C326 0.962 . S
H340 C326 0.960 . S
H341 C327 0.961 . S
H342 C327 0.961 . S
H343 C327 0.961 . S
H344 C328 0.931 . S
H345 C333 0.930 . S
H346 C334 0.956 . S
H347 C334 0.961 . S
H348 C334 0.961 . S
H349 C335 0.958 . S
H350 C335 0.961 . S
H351 C335 0.960 . S
C352 C353 1.391 . S
C352 C354 1.394 . S
C352 H368 0.931 . S
C353 C352 1.391 . S
C353 C357 1.376 . S
C354 C352 1.394 . S
C354 C355 1.369 . S
C354 C358 1.531 . S
C355 C354 1.369 . S
C355 C356 1.410 . S
C355 C363 1.503 . S
C356 C355 1.410 . S
C356 C357 1.392 . S
C356 C359 1.511 . S
C357 C353 1.376 . S
C357 C356 1.392 . S
C357 H369 0.929 . S
C358 C354 1.531 . S
C358 H370 0.960 . S
C358 H371 0.962 . S
C358 H372 0.960 . S
C359 C356 1.511 . S
C359 H373 0.961 . S
C359 H374 0.961 . S
C359 H375 0.961 . S
C360 C361 1.370 . S
C360 C362 1.363 . S
C360 H376 0.931 . S
C361 C360 1.370 . S
C361 C365 1.408 . S
C362 C360 1.363 . S
C362 C363 1.370 . S
C362 C366 1.524 . S
C363 C355 1.503 . S
C363 C362 1.370 . S
C363 C364 1.403 . S
C364 C363 1.403 . S
C364 C365 1.404 . S
C364 C367 1.539 . S
C365 C361 1.408 . S
C365 C364 1.404 . S
C365 H377 0.930 . S
C366 C362 1.524 . S
C366 H378 0.956 . S
C366 H379 0.961 . S
C366 H380 0.961 . S
C367 C364 1.539 . S
C367 H381 0.958 . S
C367 H382 0.961 . S
C367 H383 0.960 . S
H368 C352 0.931 . S
H369 C357 0.929 . S
H370 C358 0.960 . S
H371 C358 0.962 . S
H372 C358 0.960 . S
H373 C359 0.961 . S
H374 C359 0.961 . S
H375 C359 0.961 . S
H376 C360 0.931 . S
H377 C365 0.930 . S
H378 C366 0.956 . S
H379 C366 0.961 . S
H380 C366 0.961 . S
H381 C367 0.958 . S
H382 C367 0.961 . S
H383 C367 0.960 . S
C384 C385 1.391 . S
C384 C386 1.394 . S
C384 H400 0.931 . S
C385 C384 1.391 . S
C385 C389 1.376 . S
C386 C384 1.394 . S
C386 C387 1.369 . S
C386 C390 1.531 . S
C387 C386 1.369 . S
C387 C388 1.410 . S
C387 C395 1.503 . S
C388 C387 1.410 . S
C388 C389 1.392 . S
C388 C391 1.511 . S
C389 C385 1.376 . S
C389 C388 1.392 . S
C389 H401 0.929 . S
C390 C386 1.531 . S
C390 H402 0.960 . S
C390 H403 0.962 . S
C390 H404 0.960 . S
C391 C388 1.511 . S
C391 H405 0.961 . S
C391 H406 0.961 . S
C391 H407 0.961 . S
C392 C393 1.370 . S
C392 C394 1.363 . S
C392 H408 0.931 . S
C393 C392 1.370 . S
C393 C397 1.408 . S
C394 C392 1.363 . S
C394 C395 1.370 . S
C394 C398 1.524 . S
C395 C387 1.503 . S
C395 C394 1.370 . S
C395 C396 1.403 . S
C396 C395 1.403 . S
C396 C397 1.404 . S
C396 C399 1.539 . S
C397 C393 1.408 . S
C397 C396 1.404 . S
C397 H409 0.930 . S
C398 C394 1.524 . S
C398 H410 0.956 . S
C398 H411 0.961 . S
C398 H412 0.961 . S
C399 C396 1.539 . S
C399 H413 0.958 . S
C399 H414 0.961 . S
C399 H415 0.960 . S
H400 C384 0.931 . S
H401 C389 0.929 . S
H402 C390 0.960 . S
H403 C390 0.962 . S
H404 C390 0.960 . S
H405 C391 0.961 . S
H406 C391 0.961 . S
H407 C391 0.961 . S
H408 C392 0.931 . S
H409 C397 0.930 . S
H410 C398 0.956 . S
H411 C398 0.961 . S
H412 C398 0.961 . S
H413 C399 0.958 . S
H414 C399 0.961 . S
H415 C399 0.960 . S
C416 C417 1.391 . S
C416 C418 1.394 . S
C416 H432 0.931 . S
C417 C416 1.391 . S
C417 C421 1.376 . S
C418 C416 1.394 . S
C418 C419 1.369 . S
C418 C422 1.531 . S
C419 C418 1.369 . S
C419 C420 1.410 . S
C419 C427 1.503 . S
C420 C419 1.410 . S
C420 C421 1.392 . S
C420 C423 1.511 . S
C421 C417 1.376 . S
C421 C420 1.392 . S
C421 H433 0.929 . S
C422 C418 1.531 . S
C422 H434 0.960 . S
C422 H435 0.962 . S
C422 H436 0.960 . S
C423 C420 1.511 . S
C423 H437 0.961 . S
C423 H438 0.961 . S
C423 H439 0.961 . S
C424 C425 1.370 . S
C424 C426 1.363 . S
C424 H440 0.931 . S
C425 C424 1.370 . S
C425 C429 1.408 . S
C426 C424 1.363 . S
C426 C427 1.370 . S
C426 C430 1.524 . S
C427 C419 1.503 . S
C427 C426 1.370 . S
C427 C428 1.403 . S
C428 C427 1.403 . S
C428 C429 1.404 . S
C428 C431 1.539 . S
C429 C425 1.408 . S
C429 C428 1.404 . S
C429 H441 0.930 . S
C430 C426 1.524 . S
C430 H442 0.956 . S
C430 H443 0.961 . S
C430 H444 0.961 . S
C431 C428 1.539 . S
C431 H445 0.958 . S
C431 H446 0.961 . S
C431 H447 0.960 . S
H432 C416 0.931 . S
H433 C421 0.929 . S
H434 C422 0.960 . S
H435 C422 0.962 . S
H436 C422 0.960 . S
H437 C423 0.961 . S
H438 C423 0.961 . S
H439 C423 0.961 . S
H440 C424 0.931 . S
H441 C429 0.930 . S
H442 C430 0.956 . S
H443 C430 0.961 . S
H444 C430 0.961 . S
H445 C431 0.958 . S
H446 C431 0.961 . S
H447 C431 0.960 . S
C448 C449 1.391 . S
C448 C450 1.394 . S
C448 H464 0.931 . S
C449 C448 1.391 . S
C449 C453 1.376 . S
C450 C448 1.394 . S
C450 C451 1.369 . S
C450 C454 1.531 . S
C451 C450 1.369 . S
C451 C452 1.410 . S
C451 C459 1.503 . S
C452 C451 1.410 . S
C452 C453 1.392 . S
C452 C455 1.511 . S
C453 C449 1.376 . S
C453 C452 1.392 . S
C453 H465 0.929 . S
C454 C450 1.531 . S
C454 H466 0.960 . S
C454 H467 0.962 . S
C454 H468 0.960 . S
C455 C452 1.511 . S
C455 H469 0.961 . S
C455 H470 0.961 . S
C455 H471 0.961 . S
C456 C457 1.370 . S
C456 C458 1.363 . S
C456 H472 0.931 . S
C457 C456 1.370 . S
C457 C461 1.408 . S
C458 C456 1.363 . S
C458 C459 1.370 . S
C458 C462 1.524 . S
C459 C451 1.503 . S
C459 C458 1.370 . S
C459 C460 1.403 . S
C460 C459 1.403 . S
C460 C461 1.404 . S
C460 C463 1.539 1_455 S
C461 C457 1.408 . S
C461 C460 1.404 . S
C461 H473 0.930 . S
C462 C458 1.524 . S
C462 H474 0.956 . S
C462 H475 0.961 . S
C462 H476 0.961 . S
C463 C460 1.539 1_655 S
C463 H477 0.958 . S
C463 H478 0.961 . S
C463 H479 0.960 . S
H464 C448 0.931 . S
H465 C453 0.929 . S
H466 C454 0.960 . S
H467 C454 0.962 . S
H468 C454 0.960 . S
H469 C455 0.961 . S
H470 C455 0.961 . S
H471 C455 0.961 . S
H472 C456 0.931 . S
H473 C461 0.930 . S
H474 C462 0.956 . S
H475 C462 0.961 . S
H476 C462 0.961 . S
H477 C463 0.958 . S
H478 C463 0.961 . S
H479 C463 0.960 . S
C480 C481 1.391 . S
C480 C482 1.394 . S
C480 H496 0.931 . S
C481 C480 1.391 . S
C481 C485 1.376 . S
C482 C480 1.394 . S
C482 C483 1.369 . S
C482 C486 1.531 . S
C483 C482 1.369 . S
C483 C484 1.410 . S
C483 C491 1.503 . S
C484 C483 1.410 . S
C484 C485 1.392 . S
C484 C487 1.511 . S
C485 C481 1.376 . S
C485 C484 1.392 . S
C485 H497 0.929 . S
C486 C482 1.531 . S
C486 H498 0.960 . S
C486 H499 0.962 . S
C486 H500 0.960 . S
C487 C484 1.511 . S
C487 H501 0.961 . S
C487 H502 0.961 . S
C487 H503 0.961 . S
C488 C489 1.370 . S
C488 C490 1.363 . S
C488 H504 0.931 . S
C489 C488 1.370 . S
C489 C493 1.408 . S
C490 C488 1.363 . S
C490 C491 1.370 . S
C490 C494 1.524 . S
C491 C483 1.503 . S
C491 C490 1.370 . S
C491 C492 1.403 . S
C492 C491 1.403 . S
C492 C493 1.404 . S
C492 C495 1.539 . S
C493 C489 1.408 . S
C493 C492 1.404 . S
C493 H505 0.930 . S
C494 C490 1.524 . S
C494 H506 0.956 1_545 S
C494 H507 0.961 . S
C494 H508 0.961 1_545 S
C495 C492 1.539 . S
C495 H509 0.958 . S
C495 H510 0.961 . S
C495 H511 0.960 . S
H496 C480 0.931 . S
H497 C485 0.929 . S
H498 C486 0.960 . S
H499 C486 0.962 . S
H500 C486 0.960 . S
H501 C487 0.961 . S
H502 C487 0.961 . S
H503 C487 0.961 . S
H504 C488 0.931 . S
H505 C493 0.930 . S
H506 C494 0.956 1_565 S
H507 C494 0.961 . S
H508 C494 0.961 1_565 S
H509 C495 0.958 . S
H510 C495 0.961 . S
H511 C495 0.960 . S
C512 C513 1.391 . S
C512 C514 1.394 . S
C512 H528 0.931 . S
C513 C512 1.391 . S
C513 C517 1.376 . S
C514 C512 1.394 . S
C514 C515 1.369 . S
C514 C518 1.531 . S
C515 C514 1.369 . S
C515 C516 1.410 . S
C515 C523 1.503 . S
C516 C515 1.410 . S
C516 C517 1.392 . S
C516 C519 1.511 1_655 S
C517 C513 1.376 . S
C517 C516 1.392 . S
C517 H529 0.929 1_655 S
C518 C514 1.531 . S
C518 H530 0.960 . S
C518 H531 0.962 . S
C518 H532 0.960 . S
C519 C516 1.511 1_455 S
C519 H533 0.961 . S
C519 H534 0.961 . S
C519 H535 0.961 . S
C520 C521 1.370 . S
C520 C522 1.363 . S
C520 H536 0.931 . S
C521 C520 1.370 . S
C521 C525 1.408 . S
C522 C520 1.363 . S
C522 C523 1.370 . S
C522 C526 1.524 . S
C523 C515 1.503 . S
C523 C522 1.370 . S
C523 C524 1.403 . S
C524 C523 1.403 . S
C524 C525 1.404 . S
C524 C527 1.539 . S
C525 C521 1.408 . S
C525 C524 1.404 . S
C525 H537 0.930 . S
C526 C522 1.524 . S
C526 H538 0.956 . S
C526 H539 0.961 . S
C526 H540 0.961 . S
C527 C524 1.539 . S
C527 H541 0.958 . S
C527 H542 0.961 . S
C527 H543 0.960 . S
H528 C512 0.931 . S
H529 C517 0.929 1_455 S
H530 C518 0.960 . S
H531 C518 0.962 . S
H532 C518 0.960 . S
H533 C519 0.961 . S
H534 C519 0.961 . S
H535 C519 0.961 . S
H536 C520 0.931 . S
H537 C525 0.930 . S
H538 C526 0.956 . S
H539 C526 0.961 . S
H540 C526 0.961 . S
H541 C527 0.958 . S
H542 C527 0.961 . S
H543 C527 0.960 . S
C544 C545 1.391 . S
C544 C546 1.394 . S
C544 H560 0.931 . S
C545 C544 1.391 . S
C545 C549 1.376 . S
C546 C544 1.394 . S
C546 C547 1.369 . S
C546 C550 1.531 . S
C547 C546 1.369 . S
C547 C548 1.410 . S
C547 C555 1.503 . S
C548 C547 1.410 . S
C548 C549 1.392 . S
C548 C551 1.511 . S
C549 C545 1.376 . S
C549 C548 1.392 . S
C549 H561 0.929 . S
C550 C546 1.531 . S
C550 H562 0.960 . S
C550 H563 0.962 . S
C550 H564 0.960 1_565 S
C551 C548 1.511 . S
C551 H565 0.961 . S
C551 H566 0.961 . S
C551 H567 0.961 . S
C552 C553 1.370 . S
C552 C554 1.363 . S
C552 H568 0.931 . S
C553 C552 1.370 . S
C553 C557 1.408 . S
C554 C552 1.363 . S
C554 C555 1.370 . S
C554 C558 1.524 . S
C555 C547 1.503 . S
C555 C554 1.370 . S
C555 C556 1.403 . S
C556 C555 1.403 . S
C556 C557 1.404 . S
C556 C559 1.539 . S
C557 C553 1.408 . S
C557 C556 1.404 . S
C557 H569 0.930 . S
C558 C554 1.524 . S
C558 H570 0.956 . S
C558 H571 0.961 . S
C558 H572 0.961 . S
C559 C556 1.539 . S
C559 H573 0.958 1_565 S
C559 H574 0.961 . S
C559 H575 0.960 . S
H560 C544 0.931 . S
H561 C549 0.929 . S
H562 C550 0.960 . S
H563 C550 0.962 . S
H564 C550 0.960 1_545 S
H565 C551 0.961 . S
H566 C551 0.961 . S
H567 C551 0.961 . S
H568 C552 0.931 . S
H569 C557 0.930 . S
H570 C558 0.956 . S
H571 C558 0.961 . S
H572 C558 0.961 . S
H573 C559 0.958 1_545 S
H574 C559 0.961 . S
H575 C559 0.960 . S
C576 C577 1.391 . S
C576 C578 1.394 . S
C576 H592 0.931 . S
C577 C576 1.391 . S
C577 C581 1.376 . S
C578 C576 1.394 . S
C578 C579 1.369 . S
C578 C582 1.531 . S
C579 C578 1.369 . S
C579 C580 1.410 . S
C579 C587 1.503 . S
C580 C579 1.410 . S
C580 C581 1.392 . S
C580 C583 1.511 . S
C581 C577 1.376 . S
C581 C580 1.392 . S
C581 H593 0.929 . S
C582 C578 1.531 . S
C582 H594 0.960 . S
C582 H595 0.962 . S
C582 H596 0.960 . S
C583 C580 1.511 . S
C583 H597 0.961 . S
C583 H598 0.961 . S
C583 H599 0.961 . S
C584 C585 1.370 . S
C584 C586 1.363 . S
C584 H600 0.931 . S
C585 C584 1.370 . S
C585 C589 1.408 . S
C586 C584 1.363 . S
C586 C587 1.370 . S
C586 C590 1.524 . S
C587 C579 1.503 . S
C587 C586 1.370 . S
C587 C588 1.403 . S
C588 C587 1.403 . S
C588 C589 1.404 . S
C588 C591 1.539 1_565 S
C589 C585 1.408 . S
C589 C588 1.404 . S
C589 H601 0.930 . S
C590 C586 1.524 . S
C590 H602 0.956 . S
C590 H603 0.961 . S
C590 H604 0.961 . S
C591 C588 1.539 1_545 S
C591 H605 0.958 . S
C591 H606 0.961 . S
C591 H607 0.960 . S
H592 C576 0.931 . S
H593 C581 0.929 . S
H594 C582 0.960 . S
H595 C582 0.962 . S
H596 C582 0.960 . S
H597 C583 0.961 . S
H598 C583 0.961 . S
H599 C583 0.961 . S
H600 C584 0.931 . S
H601 C589 0.930 . S
H602 C590 0.956 . S
H603 C590 0.961 . S
H604 C590 0.961 . S
H605 C591 0.958 . S
H606 C591 0.961 . S
H607 C591 0.960 . S
C608 C609 1.391 . S
C608 C610 1.394 . S
C608 H624 0.931 . S
C609 C608 1.391 . S
C609 C613 1.376 . S
C610 C608 1.394 . S
C610 C611 1.369 . S
C610 C614 1.531 . S
C611 C610 1.369 . S
C611 C612 1.410 . S
C611 C619 1.503 . S
C612 C611 1.410 . S
C612 C613 1.392 . S
C612 C615 1.511 . S
C613 C609 1.376 . S
C613 C612 1.392 . S
C613 H625 0.929 . S
C614 C610 1.531 . S
C614 H626 0.960 . S
C614 H627 0.962 1_455 S
C614 H628 0.960 1_455 S
C615 C612 1.511 . S
C615 H629 0.961 . S
C615 H630 0.961 . S
C615 H631 0.961 . S
C616 C617 1.370 . S
C616 C618 1.363 . S
C616 H632 0.931 . S
C617 C616 1.370 . S
C617 C621 1.408 . S
C618 C616 1.363 . S
C618 C619 1.370 . S
C618 C622 1.524 . S
C619 C611 1.503 . S
C619 C618 1.370 . S
C619 C620 1.403 . S
C620 C619 1.403 . S
C620 C621 1.404 . S
C620 C623 1.539 . S
C621 C617 1.408 . S
C621 C620 1.404 . S
C621 H633 0.930 . S
C622 C618 1.524 . S
C622 H634 0.956 . S
C622 H635 0.961 . S
C622 H636 0.961 . S
C623 C620 1.539 . S
C623 H637 0.958 . S
C623 H638 0.961 . S
C623 H639 0.960 . S
H624 C608 0.931 . S
H625 C613 0.929 . S
H626 C614 0.960 . S
H627 C614 0.962 1_655 S
H628 C614 0.960 1_655 S
H629 C615 0.961 . S
H630 C615 0.961 . S
H631 C615 0.961 . S
H632 C616 0.931 . S
H633 C621 0.930 . S
H634 C622 0.956 . S
H635 C622 0.961 . S
H636 C622 0.961 . S
H637 C623 0.958 . S
H638 C623 0.961 . S
H639 C623 0.960 . S
C640 C641 1.391 . S
C640 C642 1.394 . S
C640 H656 0.931 . S
C641 C640 1.391 . S
C641 C645 1.376 . S
C642 C640 1.394 . S
C642 C643 1.369 . S
C642 C646 1.531 . S
C643 C642 1.369 . S
C643 C644 1.410 . S
C643 C651 1.503 . S
C644 C643 1.410 . S
C644 C645 1.392 . S
C644 C647 1.511 . S
C645 C641 1.376 . S
C645 C644 1.392 . S
C645 H657 0.929 . S
C646 C642 1.531 . S
C646 H658 0.960 . S
C646 H659 0.962 . S
C646 H660 0.960 . S
C647 C644 1.511 . S
C647 H661 0.961 . S
C647 H662 0.961 . S
C647 H663 0.961 . S
C648 C649 1.370 . S
C648 C650 1.363 . S
C648 H664 0.931 . S
C649 C648 1.370 . S
C649 C653 1.408 . S
C650 C648 1.363 . S
C650 C651 1.370 . S
C650 C654 1.524 . S
C651 C643 1.503 . S
C651 C650 1.370 . S
C651 C652 1.403 . S
C652 C651 1.403 . S
C652 C653 1.404 . S
C652 C655 1.539 . S
C653 C649 1.408 . S
C653 C652 1.404 . S
C653 H665 0.930 . S
C654 C650 1.524 . S
C654 H666 0.956 . S
C654 H667 0.961 . S
C654 H668 0.961 . S
C655 C652 1.539 . S
C655 H669 0.958 1_545 S
C655 H670 0.961 1_545 S
C655 H671 0.960 . S
H656 C640 0.931 . S
H657 C645 0.929 . S
H658 C646 0.960 . S
H659 C646 0.962 . S
H660 C646 0.960 . S
H661 C647 0.961 . S
H662 C647 0.961 . S
H663 C647 0.961 . S
H664 C648 0.931 . S
H665 C653 0.930 . S
H666 C654 0.956 . S
H667 C654 0.961 . S
H668 C654 0.961 . S
H669 C655 0.958 1_565 S
H670 C655 0.961 1_565 S
H671 C655 0.960 . S
C672 C673 1.391 . S
C672 C674 1.394 . S
C672 H688 0.931 . S
C673 C672 1.391 . S
C673 C677 1.376 . S
C674 C672 1.394 . S
C674 C675 1.369 . S
C674 C678 1.531 . S
C675 C674 1.369 . S
C675 C676 1.410 . S
C675 C683 1.503 . S
C676 C675 1.410 . S
C676 C677 1.392 . S
C676 C679 1.511 . S
C677 C673 1.376 . S
C677 C676 1.392 . S
C677 H689 0.900 1_655 S
C678 C674 1.531 . S
C678 H690 0.960 . S
C678 H691 0.962 . S
C678 H692 0.960 . S
C679 C676 1.511 . S
C679 H693 0.961 1_655 S
C679 H694 0.961 . S
C679 H695 0.961 . S
C680 C681 1.370 . S
C680 C682 1.363 . S
C680 H696 0.931 . S
C681 C680 1.370 . S
C681 C685 1.408 . S
C682 C680 1.363 . S
C682 C683 1.370 . S
C682 C686 1.524 . S
C683 C675 1.503 . S
C683 C682 1.370 . S
C683 C684 1.403 . S
C684 C683 1.403 . S
C684 C685 1.404 . S
C684 C687 1.539 . S
C685 C681 1.408 . S
C685 C684 1.404 . S
C685 H697 0.930 . S
C686 C682 1.524 . S
C686 H698 0.956 . S
C686 H699 0.961 . S
C686 H700 0.961 . S
C687 C684 1.539 . S
C687 H701 0.958 . S
C687 H702 0.961 . S
C687 H703 0.960 . S
H688 C672 0.931 . S
H689 C677 0.900 1_455 S
H690 C678 0.960 . S
H691 C678 0.962 . S
H692 C678 0.960 . S
H693 C679 0.961 1_455 S
H694 C679 0.961 . S
H695 C679 0.961 . S
H696 C680 0.931 . S
H697 C685 0.930 . S
H698 C686 0.956 . S
H699 C686 0.961 . S
H700 C686 0.961 . S
H701 C687 0.958 . S
H702 C687 0.961 . S
H703 C687 0.960 . S
C704 C705 1.391 . S
C704 C706 1.394 . S
C704 H720 0.931 . S
C705 C704 1.391 . S
C705 C709 1.376 . S
C706 C704 1.394 . S
C706 C707 1.369 . S
C706 C710 1.531 . S
C707 C706 1.369 . S
C707 C708 1.410 . S
C707 C715 1.503 . S
C708 C707 1.410 . S
C708 C709 1.392 . S
C708 C711 1.511 . S
C709 C705 1.376 . S
C709 C708 1.392 . S
C709 H721 0.929 . S
C710 C706 1.531 . S
C710 H722 0.960 . S
C710 H723 0.962 . S
C710 H724 0.960 . S
C711 C708 1.511 . S
C711 H725 0.961 . S
C711 H726 0.961 . S
C711 H727 0.961 . S
C712 C713 1.370 . S
C712 C714 1.363 . S
C712 H728 0.931 . S
C713 C712 1.370 . S
C713 C717 1.408 . S
C714 C712 1.363 . S
C714 C715 1.370 . S
C714 C718 1.524 . S
C715 C707 1.503 . S
C715 C714 1.370 . S
C715 C716 1.403 . S
C716 C715 1.403 . S
C716 C717 1.404 . S
C716 C719 1.539 . S
C717 C713 1.408 . S
C717 C716 1.404 . S
C717 H729 0.930 . S
C718 C714 1.524 . S
C718 H730 0.956 . S
C718 H731 0.961 . S
C718 H732 0.961 . S
C719 C716 1.539 . S
C719 H733 0.958 . S
C719 H734 0.961 . S
C719 H735 0.960 . S
H720 C704 0.931 . S
H721 C709 0.929 . S
H722 C710 0.960 . S
H723 C710 0.962 . S
H724 C710 0.960 . S
H725 C711 0.961 . S
H726 C711 0.961 . S
H727 C711 0.961 . S
H728 C712 0.931 . S
H729 C717 0.930 . S
H730 C718 0.956 . S
H731 C718 0.961 . S
H732 C718 0.961 . S
H733 C719 0.958 . S
H734 C719 0.961 . S
H735 C719 0.960 . S
C736 C737 1.391 . S
C736 C738 1.394 . S
C736 H752 0.931 . S
C737 C736 1.391 . S
C737 C741 1.376 . S
C738 C736 1.394 . S
C738 C739 1.369 . S
C738 C742 1.531 . S
C739 C738 1.369 . S
C739 C740 1.410 . S
C739 C747 1.503 . S
C740 C739 1.410 . S
C740 C741 1.392 . S
C740 C743 1.511 . S
C741 C737 1.376 . S
C741 C740 1.392 . S
C741 H753 0.929 . S
C742 C738 1.531 . S
C742 H754 0.960 . S
C742 H755 0.962 . S
C742 H756 0.960 . S
C743 C740 1.511 . S
C743 H757 0.961 . S
C743 H758 0.961 . S
C743 H759 0.961 . S
C744 C745 1.370 . S
C744 C746 1.363 . S
C744 H760 0.931 . S
C745 C744 1.370 . S
C745 C749 1.408 . S
C746 C744 1.363 . S
C746 C747 1.370 . S
C746 C750 1.524 . S
C747 C739 1.503 . S
C747 C746 1.370 . S
C747 C748 1.403 . S
C748 C747 1.403 . S
C748 C749 1.404 . S
C748 C751 1.539 . S
C749 C745 1.408 . S
C749 C748 1.404 . S
C749 H761 0.930 . S
C750 C746 1.524 . S
C750 H762 0.956 . S
C750 H763 0.961 . S
C750 H764 0.961 . S
C751 C748 1.539 . S
C751 H765 0.958 . S
C751 H766 0.961 . S
C751 H767 0.960 . S
H752 C736 0.931 . S
H753 C741 0.929 . S
H754 C742 0.960 . S
H755 C742 0.962 . S
H756 C742 0.960 . S
H757 C743 0.961 . S
H758 C743 0.961 . S
H759 C743 0.961 . S
H760 C744 0.931 . S
H761 C749 0.930 . S
H762 C750 0.956 . S
H763 C750 0.961 . S
H764 C750 0.961 . S
H765 C751 0.958 . S
H766 C751 0.961 . S
H767 C751 0.960 . S
C768 C769 1.391 . S
C768 C770 1.394 . S
C768 H784 0.931 . S
C769 C768 1.391 . S
C769 C773 1.376 . S
C770 C768 1.394 . S
C770 C771 1.369 . S
C770 C774 1.531 . S
C771 C770 1.369 . S
C771 C772 1.410 . S
C771 C779 1.503 . S
C772 C771 1.410 . S
C772 C773 1.392 . S
C772 C775 1.511 . S
C773 C769 1.376 . S
C773 C772 1.392 . S
C773 H785 0.929 . S
C774 C770 1.531 . S
C774 H786 0.960 . S
C774 H787 0.962 . S
C774 H788 0.960 . S
C775 C772 1.511 . S
C775 H789 0.961 . S
C775 H790 0.961 . S
C775 H791 0.961 . S
C776 C777 1.370 . S
C776 C778 1.363 . S
C776 H792 0.931 . S
C777 C776 1.370 . S
C777 C781 1.408 . S
C778 C776 1.363 . S
C778 C779 1.370 . S
C778 C782 1.524 . S
C779 C771 1.503 . S
C779 C778 1.370 . S
C779 C780 1.403 . S
C780 C779 1.403 . S
C780 C781 1.404 . S
C780 C783 1.539 . S
C781 C777 1.408 . S
C781 C780 1.404 . S
C781 H793 0.930 . S
C782 C778 1.524 . S
C782 H794 0.956 . S
C782 H795 0.961 . S
C782 H796 0.961 . S
C783 C780 1.539 . S
C783 H797 0.958 . S
C783 H798 0.961 . S
C783 H799 0.960 . S
H784 C768 0.931 . S
H785 C773 0.929 . S
H786 C774 0.960 . S
H787 C774 0.962 . S
H788 C774 0.960 . S
H789 C775 0.961 . S
H790 C775 0.961 . S
H791 C775 0.961 . S
H792 C776 0.931 . S
H793 C781 0.930 . S
H794 C782 0.956 . S
H795 C782 0.961 . S
H796 C782 0.961 . S
H797 C783 0.958 . S
H798 C783 0.961 . S
H799 C783 0.960 . S
C800 C801 1.391 . S
C800 C802 1.394 . S
C800 H816 0.931 . S
C801 C800 1.391 . S
C801 C805 1.376 . S
C802 C800 1.394 . S
C802 C803 1.369 . S
C802 C806 1.531 . S
C803 C802 1.369 . S
C803 C804 1.410 . S
C803 C811 1.503 . S
C804 C803 1.410 . S
C804 C805 1.392 . S
C804 C807 1.511 . S
C805 C801 1.376 . S
C805 C804 1.392 . S
C805 H817 0.929 . S
C806 C802 1.531 . S
C806 H818 0.960 . S
C806 H819 0.962 . S
C806 H820 0.960 . S
C807 C804 1.511 . S
C807 H821 0.961 . S
C807 H822 0.961 . S
C807 H823 0.961 . S
C808 C809 1.370 . S
C808 C810 1.363 . S
C808 H824 0.931 . S
C809 C808 1.370 . S
C809 C813 1.408 . S
C810 C808 1.363 . S
C810 C811 1.370 . S
C810 C814 1.524 . S
C811 C803 1.503 . S
C811 C810 1.370 . S
C811 C812 1.403 . S
C812 C811 1.403 . S
C812 C813 1.404 . S
C812 C815 1.539 . S
C813 C809 1.408 . S
C813 C812 1.404 . S
C813 H825 0.930 . S
C814 C810 1.524 . S
C814 H826 0.956 . S
C814 H827 0.961 . S
C814 H828 0.961 . S
C815 C812 1.539 . S
C815 H829 0.958 . S
C815 H830 0.961 . S
C815 H831 0.960 . S
H816 C800 0.931 . S
H817 C805 0.929 . S
H818 C806 0.960 . S
H819 C806 0.962 . S
H820 C806 0.960 . S
H821 C807 0.961 . S
H822 C807 0.961 . S
H823 C807 0.961 . S
H824 C808 0.931 . S
H825 C813 0.930 . S
H826 C814 0.956 . S
H827 C814 0.961 . S
H828 C814 0.961 . S
H829 C815 0.958 . S
H830 C815 0.961 . S
H831 C815 0.960 . S
C832 C833 1.391 . S
C832 C834 1.394 . S
C832 H848 0.931 . S
C833 C832 1.391 . S
C833 C837 1.376 . S
C834 C832 1.394 . S
C834 C835 1.369 . S
C834 C838 1.531 . S
C835 C834 1.369 . S
C835 C836 1.410 . S
C835 C843 1.503 . S
C836 C835 1.410 . S
C836 C837 1.392 . S
C836 C839 1.511 . S
C837 C833 1.376 . S
C837 C836 1.392 . S
C837 H849 0.929 . S
C838 C834 1.531 . S
C838 H850 0.960 . S
C838 H851 0.962 . S
C838 H852 0.960 . S
C839 C836 1.511 . S
C839 H853 0.961 . S
C839 H854 0.961 . S
C839 H855 0.961 . S
C840 C841 1.370 . S
C840 C842 1.363 . S
C840 H856 0.931 . S
C841 C840 1.370 . S
C841 C845 1.408 . S
C842 C840 1.363 . S
C842 C843 1.370 . S
C842 C846 1.524 . S
C843 C835 1.503 . S
C843 C842 1.370 . S
C843 C844 1.403 . S
C844 C843 1.403 . S
C844 C845 1.404 . S
C844 C847 1.539 . S
C845 C841 1.408 . S
C845 C844 1.404 . S
C845 H857 0.930 . S
C846 C842 1.524 . S
C846 H858 0.956 . S
C846 H859 0.961 . S
C846 H860 0.961 . S
C847 C844 1.539 . S
C847 H861 0.958 . S
C847 H862 0.961 . S
C847 H863 0.960 . S
H848 C832 0.931 . S
H849 C837 0.929 . S
H850 C838 0.960 . S
H851 C838 0.962 . S
H852 C838 0.960 . S
H853 C839 0.961 . S
H854 C839 0.961 . S
H855 C839 0.961 . S
H856 C840 0.931 . S
H857 C845 0.930 . S
H858 C846 0.956 . S
H859 C846 0.961 . S
H860 C846 0.961 . S
H861 C847 0.958 . S
H862 C847 0.961 . S
H863 C847 0.960 . S
C864 C865 1.391 . S
C864 C866 1.394 . S
C864 H880 0.931 . S
C865 C864 1.391 . S
C865 C869 1.376 . S
C866 C864 1.394 . S
C866 C867 1.369 . S
C866 C870 1.531 . S
C867 C866 1.369 . S
C867 C868 1.410 . S
C867 C875 1.503 . S
C868 C867 1.410 . S
C868 C869 1.392 . S
C868 C871 1.511 . S
C869 C865 1.376 . S
C869 C868 1.392 . S
C869 H881 0.929 . S
C870 C866 1.531 . S
C870 H882 0.960 . S
C870 H883 0.962 . S
C870 H884 0.960 . S
C871 C868 1.511 . S
C871 H885 0.961 . S
C871 H886 0.961 . S
C871 H887 0.961 . S
C872 C873 1.370 . S
C872 C874 1.363 . S
C872 H888 0.931 . S
C873 C872 1.370 . S
C873 C877 1.408 . S
C874 C872 1.363 . S
C874 C875 1.370 . S
C874 C878 1.524 . S
C875 C867 1.503 . S
C875 C874 1.370 . S
C875 C876 1.403 . S
C876 C875 1.403 . S
C876 C877 1.404 . S
C876 C879 1.539 . S
C877 C873 1.408 . S
C877 C876 1.404 . S
C877 H889 0.930 . S
C878 C874 1.524 . S
C878 H890 0.956 . S
C878 H891 0.961 . S
C878 H892 0.961 . S
C879 C876 1.539 . S
C879 H893 0.958 . S
C879 H894 0.961 . S
C879 H895 0.960 . S
H880 C864 0.931 . S
H881 C869 0.929 . S
H882 C870 0.960 . S
H883 C870 0.962 . S
H884 C870 0.960 . S
H885 C871 0.961 . S
H886 C871 0.961 . S
H887 C871 0.961 . S
H888 C872 0.931 . S
H889 C877 0.930 . S
H890 C878 0.956 . S
H891 C878 0.961 . S
H892 C878 0.961 . S
H893 C879 0.958 . S
H894 C879 0.961 . S
H895 C879 0.960 . S
C896 C897 1.391 . S
C896 C898 1.394 . S
C896 H912 0.931 . S
C897 C896 1.391 . S
C897 C901 1.376 . S
C898 C896 1.394 . S
C898 C899 1.369 . S
C898 C902 1.531 . S
C899 C898 1.369 . S
C899 C900 1.410 . S
C899 C907 1.503 . S
C900 C899 1.410 . S
C900 C901 1.392 . S
C900 C903 1.511 . S
C901 C897 1.376 . S
C901 C900 1.392 . S
C901 H913 0.929 . S
C902 C898 1.531 . S
C902 H914 0.960 . S
C902 H915 0.962 . S
C902 H916 0.960 . S
C903 C900 1.511 . S
C903 H917 0.961 . S
C903 H918 0.961 . S
C903 H919 0.961 . S
C904 C905 1.370 . S
C904 C906 1.363 . S
C904 H920 0.931 . S
C905 C904 1.370 . S
C905 C909 1.408 . S
C906 C904 1.363 . S
C906 C907 1.370 . S
C906 C910 1.524 . S
C907 C899 1.503 . S
C907 C906 1.370 . S
C907 C908 1.403 . S
C908 C907 1.403 . S
C908 C909 1.404 . S
C908 C911 1.539 . S
C909 C905 1.408 . S
C909 C908 1.404 . S
C909 H921 0.930 . S
C910 C906 1.524 . S
C910 H922 0.956 . S
C910 H923 0.961 . S
C910 H924 0.961 . S
C911 C908 1.539 . S
C911 H925 0.958 . S
C911 H926 0.961 . S
C911 H927 0.960 . S
H912 C896 0.931 . S
H913 C901 0.929 . S
H914 C902 0.960 . S
H915 C902 0.962 . S
H916 C902 0.960 . S
H917 C903 0.961 . S
H918 C903 0.961 . S
H919 C903 0.961 . S
H920 C904 0.931 . S
H921 C909 0.930 . S
H922 C910 0.956 . S
H923 C910 0.961 . S
H924 C910 0.961 . S
H925 C911 0.958 . S
H926 C911 0.961 . S
H927 C911 0.960 . S
C928 C929 1.391 . S
C928 C930 1.394 . S
C928 H944 0.931 . S
C929 C928 1.391 . S
C929 C933 1.376 . S
C930 C928 1.394 . S
C930 C931 1.369 . S
C930 C934 1.531 . S
C931 C930 1.369 . S
C931 C932 1.410 . S
C931 C939 1.503 . S
C932 C931 1.410 . S
C932 C933 1.392 . S
C932 C935 1.511 . S
C933 C929 1.376 . S
C933 C932 1.392 . S
C933 H945 0.929 . S
C934 C930 1.531 . S
C934 H946 0.960 . S
C934 H947 0.962 . S
C934 H948 0.960 . S
C935 C932 1.511 . S
C935 H949 0.961 . S
C935 H950 0.961 . S
C935 H951 0.961 . S
C936 C937 1.370 . S
C936 C938 1.363 . S
C936 H952 0.931 . S
C937 C936 1.370 . S
C937 C941 1.408 . S
C938 C936 1.363 . S
C938 C939 1.370 . S
C938 C942 1.524 . S
C939 C931 1.503 . S
C939 C938 1.370 . S
C939 C940 1.403 . S
C940 C939 1.403 . S
C940 C941 1.404 . S
C940 C943 1.539 . S
C941 C937 1.408 . S
C941 C940 1.404 . S
C941 H953 0.930 . S
C942 C938 1.524 . S
C942 H954 0.956 . S
C942 H955 0.961 . S
C942 H956 0.961 . S
C943 C940 1.539 . S
C943 H957 0.958 . S
C943 H958 0.961 . S
C943 H959 0.960 . S
H944 C928 0.931 . S
H945 C933 0.929 . S
H946 C934 0.960 . S
H947 C934 0.962 . S
H948 C934 0.960 . S
H949 C935 0.961 . S
H950 C935 0.961 . S
H951 C935 0.961 . S
H952 C936 0.931 . S
H953 C941 0.930 . S
H954 C942 0.956 . S
H955 C942 0.961 . S
H956 C942 0.961 . S
H957 C943 0.958 . S
H958 C943 0.961 . S
H959 C943 0.960 . S
C193 C45 1.595 . S
C201 C112 1.580 . S
C225 C30 1.573 . S
C233 C123 1.613 1_554 S
C257 C39 1.582 . S
C265 C134 1.589 . S
C297 C145 1.568 . S
C289 C34 1.583 . S
C321 C97 1.591 . S
C329 C156 1.582 . S
C361 C167 1.614 . S
C353 C82 1.567 . S
C393 C178 1.581 . S
C385 C91 1.592 . S
C425 C189 1.574 . S
C417 C86 1.570 . S
C457 C175 1.138 . S
C449 C26 1.300 . S
C489 C186 1.216 . S
C481 C36 1.502 . S
C521 C153 1.137 . S
C513 C32 1.316 . S
C553 C166 1.569 . S
C545 C42 1.512 . S
C577 C18 1.522 . S
C585 C164 1.506 . S
C617 C177 1.722 . S
C609 C50 1.725 . S
C641 C4 1.556 . S
C649 C188 1.583 . S
C673 C48 1.768 . S
C681 C155 1.728 . S
C713 C131 1.145 . S
C705 C78 1.294 . S
C737 C88 1.496 . S
C745 C142 1.222 . S
C777 C109 1.148 . S
C769 C84 1.302 . S
C809 C122 1.557 . S
C801 C94 1.517 . S
C841 C120 1.507 . S
C833 C70 1.510 . S
C873 C133 1.740 . S
C865 C102 1.741 . S
C897 C56 1.600 . S
C905 C144 1.553 . S
C929 C100 1.716 . S
C937 C111 1.729 . S
