# Generated by pormake.
# Topology wbl, (4,4)-cn, num edge types: 1
# Building blocks:
#     Node 0, Type 0, BuildingBlock: MUDLON_clean_sbu_0, # of connection points: 4
#     Node 1, Type 0, BuildingBlock: MUDLON_clean_sbu_0, # of connection points: 4
#     Node 2, Type 0, BuildingBlock: MUDLON_clean_sbu_0, # of connection points: 4
#     Node 3, Type 0, BuildingBlock: MUDLON_clean_sbu_0, # of connection points: 4
#     Node 4, Type 0, BuildingBlock: MUDLON_clean_sbu_0, # of connection points: 4
#     Node 5, Type 0, BuildingBlock: MUDLON_clean_sbu_0, # of connection points: 4
#     Node 6, Type 0, BuildingBlock: MUDLON_clean_sbu_0, # of connection points: 4
#     Node 7, Type 0, BuildingBlock: MUDLON_clean_sbu_0, # of connection points: 4
#     Node 8, Type 1, BuildingBlock: NAHDIM_clean_sbu_0, # of connection points: 4
#     Node 9, Type 1, BuildingBlock: NAHDIM_clean_sbu_0, # of connection points: 4
#     Node 10, Type 1, BuildingBlock: NAHDIM_clean_sbu_0, # of connection points: 4
#     Node 11, Type 1, BuildingBlock: NAHDIM_clean_sbu_0, # of connection points: 4
#     Node 12, Type 1, BuildingBlock: NAHDIM_clean_sbu_0, # of connection points: 4
#     Node 13, Type 1, BuildingBlock: NAHDIM_clean_sbu_0, # of connection points: 4
#     Node 14, Type 1, BuildingBlock: NAHDIM_clean_sbu_0, # of connection points: 4
#     Node 15, Type 1, BuildingBlock: NAHDIM_clean_sbu_0, # of connection points: 4
#     Edge 16, Type (0, 1), BuildingBlock: XUDNAN_clean_linker_2, # of connection points: 2
#     Edge 17, Type (0, 1), BuildingBlock: XUDNAN_clean_linker_2, # of connection points: 2
#     Edge 18, Type (0, 1), BuildingBlock: XUDNAN_clean_linker_2, # of connection points: 2
#     Edge 19, Type (0, 1), BuildingBlock: XUDNAN_clean_linker_2, # of connection points: 2
#     Edge 20, Type (0, 1), BuildingBlock: XUDNAN_clean_linker_2, # of connection points: 2
#     Edge 21, Type (0, 1), BuildingBlock: XUDNAN_clean_linker_2, # of connection points: 2
#     Edge 22, Type (0, 1), BuildingBlock: XUDNAN_clean_linker_2, # of connection points: 2
#     Edge 23, Type (0, 1), BuildingBlock: XUDNAN_clean_linker_2, # of connection points: 2
#     Edge 24, Type (0, 1), BuildingBlock: XUDNAN_clean_linker_2, # of connection points: 2
#     Edge 25, Type (0, 1), BuildingBlock: XUDNAN_clean_linker_2, # of connection points: 2
#     Edge 26, Type (0, 1), BuildingBlock: XUDNAN_clean_linker_2, # of connection points: 2
#     Edge 27, Type (0, 1), BuildingBlock: XUDNAN_clean_linker_2, # of connection points: 2
#     Edge 28, Type (0, 1), BuildingBlock: XUDNAN_clean_linker_2, # of connection points: 2
#     Edge 29, Type (0, 1), BuildingBlock: XUDNAN_clean_linker_2, # of connection points: 2
#     Edge 30, Type (0, 1), BuildingBlock: XUDNAN_clean_linker_2, # of connection points: 2
#     Edge 31, Type (0, 1), BuildingBlock: XUDNAN_clean_linker_2, # of connection points: 2
#     Edge 32, Type (0, 1), BuildingBlock: XUDNAN_clean_linker_2, # of connection points: 2
#     Edge 33, Type (0, 1), BuildingBlock: XUDNAN_clean_linker_2, # of connection points: 2
#     Edge 34, Type (0, 1), BuildingBlock: XUDNAN_clean_linker_2, # of connection points: 2
#     Edge 35, Type (0, 1), BuildingBlock: XUDNAN_clean_linker_2, # of connection points: 2
#     Edge 36, Type (0, 1), BuildingBlock: XUDNAN_clean_linker_2, # of connection points: 2
#     Edge 37, Type (0, 1), BuildingBlock: XUDNAN_clean_linker_2, # of connection points: 2
#     Edge 38, Type (0, 1), BuildingBlock: XUDNAN_clean_linker_2, # of connection points: 2
#     Edge 39, Type (0, 1), BuildingBlock: XUDNAN_clean_linker_2, # of connection points: 2
#     Edge 40, Type (0, 1), BuildingBlock: XUDNAN_clean_linker_2, # of connection points: 2
#     Edge 41, Type (0, 1), BuildingBlock: XUDNAN_clean_linker_2, # of connection points: 2
#     Edge 42, Type (0, 1), BuildingBlock: XUDNAN_clean_linker_2, # of connection points: 2
#     Edge 43, Type (0, 1), BuildingBlock: XUDNAN_clean_linker_2, # of connection points: 2
#     Edge 44, Type (0, 1), BuildingBlock: XUDNAN_clean_linker_2, # of connection points: 2
#     Edge 45, Type (0, 1), BuildingBlock: XUDNAN_clean_linker_2, # of connection points: 2
#     Edge 46, Type (0, 1), BuildingBlock: XUDNAN_clean_linker_2, # of connection points: 2
#     Edge 47, Type (0, 1), BuildingBlock: XUDNAN_clean_linker_2, # of connection points: 2
# Relax obj value: 0.234
# Max RMSD: 0.229
# Mean RMSD: 0.181
data_MOF--net-wbl--node1-MUDLON_clean_sbu_0--node2-NAHDIM_clean_sbu_0--edge1-XUDNAN_clean_linker_2
_symmetry_space_group_name_H-M    P1
_symmetry_Int_Tables_number       1
_symmetry_cell_setting            triclinic
loop_
_symmetry_equiv_pos_as_xyz
'x, y, z'
_cell_length_a     36.265115
_cell_length_b     34.96958
_cell_length_c     75.025032
_cell_angle_alpha  90.014971
_cell_angle_beta   90.010779
_cell_angle_gamma 89.964582
loop_
_atom_site_label
_atom_site_type_symbol
_atom_site_fract_x
_atom_site_fract_y
_atom_site_fract_z
_atom_type_partial_charge
Mg0 Mg 0.00334 0.01408 0.31411 0.0
C1 C 0.03843 0.9736 0.34256 0.0
O2 O 0.05731 0.00513 0.33982 0.0
C3 C 0.93757 0.04588 0.29599 0.0
O4 O 0.95512 0.07654 0.30149 0.0
C5 C 0.0664 0.98179 0.2942 0.0
O6 O 0.04734 0.95147 0.29888 0.0
O7 O 0.05353 0.01472 0.29798 0.0
O8 O 0.01121 0.96647 0.33239 0.0
O9 O 0.99787 0.06149 0.33282 0.0
C10 C 0.97656 0.05319 0.34573 0.0
O11 O 0.96045 0.01955 0.34585 0.0
O12 O 0.95212 0.01326 0.29878 0.0
Mg13 Mg 0.99313 0.49841 0.59974 0.0
C14 C 0.0295 0.48053 0.63507 0.0
O15 O 0.99557 0.47092 0.63921 0.0
C16 C 0.00467 0.4478 0.56755 0.0
O17 O 0.03324 0.4705 0.56559 0.0
C18 C 0.00251 0.55894 0.56997 0.0
O19 O 0.97399 0.54249 0.56238 0.0
O20 O 0.01324 0.54766 0.58521 0.0
O21 O 0.03701 0.48872 0.61896 0.0
O22 O 0.94413 0.50773 0.61582 0.0
C23 C 0.92334 0.47896 0.61833 0.0
O24 O 0.92916 0.44798 0.60882 0.0
O25 O 0.98397 0.45199 0.58107 0.0
Mg26 Mg 0.49232 0.47868 0.85202 0.0
C27 C 0.48398 0.55215 0.87223 0.0
O28 O 0.45642 0.55578 0.86099 0.0
C29 C 0.55899 0.43513 0.84232 0.0
O30 O 0.55408 0.42636 0.85918 0.0
C31 C 0.44216 0.51287 0.82358 0.0
O32 O 0.47368 0.52248 0.81621 0.0
O33 O 0.44227 0.49322 0.83783 0.0
O34 O 0.50712 0.52537 0.86971 0.0
O35 O 0.48237 0.43314 0.87105 0.0
C36 C 0.471 0.44186 0.88656 0.0
O37 O 0.45816 0.47645 0.88938 0.0
O38 O 0.53728 0.45914 0.83509 0.0
Mg39 Mg 0.51387 0.99421 0.08173 0.0
C40 C 0.5086 0.06109 0.10522 0.0
O41 O 0.53983 0.06685 0.09679 0.0
C42 C 0.48649 0.93747 0.05507 0.0
O43 O 0.52216 0.93631 0.05202 0.0
C44 C 0.53744 0.0519 0.05558 0.0
O45 O 0.50127 0.05396 0.05493 0.0
O46 O 0.55206 0.02617 0.06523 0.0
O47 O 0.48785 0.03407 0.09994 0.0
O48 O 0.54 0.95807 0.10155 0.0
C49 C 0.5273 0.92477 0.1044 0.0
O50 O 0.5054 0.9094 0.09245 0.0
O51 O 0.47427 0.96113 0.06649 0.0
Mg52 Mg 0.00135 0.50664 0.91159 0.0
C53 C 0.01187 0.58799 0.8955 0.0
O54 O 0.01076 0.60061 0.91199 0.0
C55 C 0.9384 0.48105 0.93406 0.0
O56 O 0.95778 0.44941 0.93273 0.0
C57 C 0.04367 0.52834 0.94389 0.0
O58 O 0.01147 0.5444 0.94681 0.0
O59 O 0.04794 0.50847 0.92983 0.0
O60 O 0.00813 0.55248 0.89247 0.0
O61 O 0.99739 0.45612 0.89482 0.0
C62 C 0.97633 0.46211 0.88154 0.0
O63 O 0.96005 0.49556 0.88018 0.0
O64 O 0.95007 0.51107 0.92635 0.0
Mg65 Mg 0.49382 0.49479 0.19659 0.0
C66 C 0.44651 0.5222 0.16849 0.0
O67 O 0.47205 0.5484 0.17079 0.0
C68 C 0.4942 0.43963 0.22866 0.0
O69 O 0.4793 0.46886 0.23697 0.0
C70 C 0.45795 0.55273 0.2199 0.0
O71 O 0.4319 0.52698 0.21791 0.0
O72 O 0.48917 0.54672 0.21265 0.0
O73 O 0.44569 0.49405 0.17923 0.0
O74 O 0.53713 0.49609 0.17646 0.0
C75 C 0.53042 0.47167 0.1643 0.0
O76 O 0.50244 0.44825 0.16643 0.0
O77 O 0.50183 0.44258 0.21217 0.0
Mg78 Mg 0.49715 0.01334 0.43579 0.0
C79 C 0.56268 0.98818 0.41529 0.0
O80 O 0.5786 0.01448 0.42513 0.0
C81 C 0.46313 0.95195 0.45994 0.0
O82 O 0.49666 0.93773 0.45945 0.0
C83 C 0.5557 0.04897 0.45979 0.0
O84 O 0.56001 0.013 0.46442 0.0
O85 O 0.53015 0.05755 0.44886 0.0
O86 O 0.5319 0.97493 0.42049 0.0
O87 O 0.46768 0.03548 0.41293 0.0
C88 C 0.48578 0.05054 0.40021 0.0
O89 O 0.51957 0.0624 0.40323 0.0
O90 O 0.45658 0.98341 0.45206 0.0
Mg91 Mg 0.0125 0.99291 0.65276 0.0
C92 C 0.01052 0.92113 0.63123 0.0
O93 O 0.03466 0.91102 0.64341 0.0
C94 C 0.94873 0.03905 0.66583 0.0
O95 O 0.9485 0.04771 0.64878 0.0
C96 C 0.06554 0.97365 0.6831 0.0
O97 O 0.04598 0.99936 0.69169 0.0
O98 O 0.05893 0.96757 0.66671 0.0
O99 O 0.99198 0.95153 0.63367 0.0
O100 O 0.02555 0.04018 0.63522 0.0
C101 C 0.03543 0.03264 0.61933 0.0
O102 O 0.04635 0.99777 0.61553 0.0
O103 O 0.97169 0.01431 0.67141 0.0
C104 C 0.28106 0.58268 0.00153 0.0
O105 O 0.30769 0.56318 0.99389 0.0
O106 O 0.35564 0.59518 0.04314 0.0
Zn107 Zn 0.34181 0.62052 0.01986 0.0
O108 O 0.37683 0.60498 1.00021 0.0
C109 C 0.37994 0.69108 0.0228 0.0
O110 O 0.40768 0.66767 0.01996 0.0
O111 O 0.28912 0.6081 0.01303 0.0
C112 C 0.37344 0.62146 0.98519 0.0
O113 O 0.34673 0.64643 0.98298 0.0
C114 C 0.33909 0.5668 0.05011 0.0
O115 O 0.31134 0.551 0.0416 0.0
O116 O 0.34743 0.67752 0.02338 0.0
C117 C 0.31574 0.89738 0.26153 0.0
O118 O 0.32024 0.86252 0.26768 0.0
O119 O 0.41847 0.89736 0.23119 0.0
Zn120 Zn 0.39573 0.89404 0.25566 0.0
O121 O 0.4238 0.92492 0.27398 0.0
C122 C 0.42635 0.81931 0.25718 0.0
O123 O 0.45506 0.83906 0.25179 0.0
O124 O 0.34347 0.91521 0.2553 0.0
C125 C 0.41101 0.92421 0.28975 0.0
O126 O 0.38274 0.90191 0.2932 0.0
C127 C 0.4479 0.91432 0.22648 0.0
O128 O 0.46544 0.9362 0.2379 0.0
O129 O 0.39682 0.83716 0.26115 0.0
C130 C 0.23026 0.82525 0.49214 0.0
O131 O 0.22379 0.79379 0.50118 0.0
O132 O 0.12139 0.85266 0.50416 0.0
Zn133 Zn 0.15043 0.82372 0.48561 0.0
O134 O 0.12636 0.83129 0.4617 0.0
C135 C 0.11404 0.75476 0.49364 0.0
O136 O 0.08672 0.77482 0.48692 0.0
O137 O 0.20347 0.84241 0.48465 0.0
C138 C 0.12902 0.8642 0.45467 0.0
O139 O 0.1474 0.89095 0.46318 0.0
C140 C 0.12587 0.84224 0.52026 0.0
O141 O 0.15113 0.81644 0.52389 0.0
O142 O 0.14642 0.76869 0.49321 0.0
C143 C 0.23754 0.64791 0.76496 0.0
O144 O 0.2439 0.65279 0.74787 0.0
O145 O 0.15301 0.64143 0.73726 0.0
Zn146 Zn 0.16183 0.67626 0.75833 0.0
O147 O 0.12078 0.67208 0.77636 0.0
C148 C 0.16565 0.74143 0.73422 0.0
O149 O 0.16524 0.71484 0.72185 0.0
O150 O 0.20654 0.65753 0.77144 0.0
C151 C 0.1177 0.69804 0.78815 0.0
O152 O 0.13927 0.72815 0.78724 0.0
C153 C 0.12971 0.61427 0.73738 0.0
O154 O 0.1097 0.60843 0.75172 0.0
O155 O 0.16594 0.73152 0.75052 0.0
C156 C 0.78607 0.18754 0.48226 0.0
O157 O 0.79704 0.22086 0.47616 0.0
O158 O 0.8871 0.15035 0.51149 0.0
Zn159 Zn 0.86463 0.17628 0.49011 0.0
O160 O 0.88814 0.15913 0.46691 0.0
C161 C 0.9111 0.23943 0.4932 0.0
O162 O 0.93347 0.21274 0.48728 0.0
O163 O 0.80972 0.16501 0.48909 0.0
C164 C 0.89049 0.18231 0.45388 0.0
O165 O 0.87741 0.21713 0.45567 0.0
C166 C 0.91654 0.13063 0.51205 0.0
O167 O 0.93339 0.12139 0.49716 0.0
O168 O 0.87695 0.23176 0.49485 0.0
C169 C 0.75488 0.34537 0.76238 0.0
O170 O 0.76057 0.37103 0.7499 0.0
O171 O 0.83123 0.35124 0.73135 0.0
Zn172 Zn 0.82834 0.3165 0.75282 0.0
O173 O 0.86534 0.33391 0.77114 0.0
C174 C 0.83414 0.251 0.72946 0.0
O175 O 0.81904 0.27469 0.718 0.0
O176 O 0.77879 0.31933 0.76497 0.0
C177 C 0.88064 0.3112 0.78213 0.0
O178 O 0.87381 0.27439 0.78103 0.0
C179 C 0.83722 0.38697 0.73256 0.0
O180 O 0.84063 0.40255 0.74841 0.0
O181 O 0.84001 0.26231 0.74532 0.0
C182 C 0.71149 0.42876 0.00145 0.0
O183 O 0.68285 0.45079 0.00462 0.0
O184 O 0.65196 0.40605 0.03941 0.0
Zn185 Zn 0.66189 0.3763 0.01675 0.0
O186 O 0.62217 0.38452 0.99817 0.0
C187 C 0.63054 0.30485 0.02475 0.0
O188 O 0.60135 0.32694 0.02351 0.0
O189 O 0.70992 0.39373 0.00594 0.0
C190 C 0.62171 0.36048 0.98544 0.0
O191 O 0.6469 0.33346 0.98505 0.0
C192 C 0.61949 0.4148 0.04432 0.0
O193 O 0.59152 0.40584 0.034 0.0
O194 O 0.66228 0.31969 0.02269 0.0
C195 C 0.68568 0.12013 0.26305 0.0
O196 O 0.67949 0.15451 0.26946 0.0
O197 O 0.57561 0.09985 0.23938 0.0
Zn198 Zn 0.60487 0.11539 0.26095 0.0
O199 O 0.58631 0.08663 0.28253 0.0
C200 C 0.5723 0.18722 0.27258 0.0
O201 O 0.55329 0.16472 0.28316 0.0
O202 O 0.6585 0.09997 0.25791 0.0
C203 C 0.60519 0.08871 0.29677 0.0
O204 O 0.63394 0.11153 0.29719 0.0
C205 C 0.5819 0.1189 0.22528 0.0
O206 O 0.60785 0.14511 0.22553 0.0
O207 O 0.59749 0.17283 0.26287 0.0
H208 H 0.10564 0.91547 0.29123 0.0
H209 H 0.11198 0.03699 0.27993 0.0
H210 H 0.17557 0.02815 0.26853 0.0
H211 H 0.19639 0.90599 0.30742 0.0
H212 H 0.2034 0.85893 0.29821 0.0
H213 H 0.15766 0.87454 0.30401 0.0
H214 H 0.13545 0.86037 0.27183 0.0
H215 H 0.18116 0.84466 0.26593 0.0
H216 H 0.15908 0.88199 0.25325 0.0
H217 H 0.23978 0.00573 0.25944 0.0
H218 H 0.29917 0.97261 0.25451 0.0
H219 H 0.25028 0.86629 0.27271 0.0
C220 C 0.12009 0.94024 0.28612 0.0
C221 C 0.10366 0.97692 0.28633 0.0
C222 C 0.12391 0.00859 0.27981 0.0
C223 C 0.16002 0.00381 0.27329 0.0
C224 C 0.17547 0.96723 0.27346 0.0
C225 C 0.15608 0.93604 0.27975 0.0
C226 C 0.1794 0.9001 0.27947 0.0
C227 C 0.18451 0.88396 0.2984 0.0
C228 C 0.16278 0.87001 0.26687 0.0
C229 C 0.21516 0.91588 0.27217 0.0
C230 C 0.21233 0.95457 0.26862 0.0
C231 C 0.24219 0.97542 0.2621 0.0
C232 C 0.27582 0.95631 0.25933 0.0
C233 C 0.27947 0.91679 0.2632 0.0
C234 C 0.24849 0.89645 0.26956 0.0
H235 H 0.98309 0.60161 0.54055 0.0
H236 H 0.07367 0.57908 0.57694 0.0
H237 H 0.11335 0.62279 0.5598 0.0
H238 H 0.03734 0.60983 0.50022 0.0
H239 H 0.01047 0.64878 0.49132 0.0
H240 H 0.98923 0.61431 0.50592 0.0
H241 H 0.96832 0.66876 0.52709 0.0
H242 H 0.98911 0.70336 0.51245 0.0
H243 H 0.0021 0.70185 0.53563 0.0
H244 H 0.14353 0.66841 0.53878 0.0
H245 H 0.16 0.71898 0.51729 0.0
H246 H 0.04939 0.71428 0.49521 0.0
C247 C 0.01128 0.60585 0.54487 0.0
C248 C 0.02529 0.58683 0.56005 0.0
C249 C 0.06224 0.59343 0.5654 0.0
C250 C 0.08513 0.618 0.55568 0.0
C251 C 0.07063 0.63605 0.54071 0.0
C252 C 0.03444 0.63077 0.53546 0.0
C253 C 0.02523 0.6554 0.51945 0.0
C254 C 0.01497 0.63059 0.50327 0.0
C255 C 0.99437 0.68404 0.52393 0.0
C256 C 0.06182 0.67543 0.51663 0.0
C257 C 0.08777 0.66339 0.52887 0.0
C258 C 0.12347 0.67809 0.5291 0.0
C259 C 0.13263 0.70666 0.51677 0.0
C260 C 0.10601 0.72056 0.50455 0.0
C261 C 0.07038 0.70416 0.50433 0.0
H262 H 0.42989 0.55112 0.79202 0.0
H263 H 0.37504 0.51116 0.84 0.0
H264 H 0.31747 0.54196 0.8302 0.0
H265 H 0.38576 0.64205 0.78963 0.0
H266 H 0.38136 0.64218 0.7657 0.0
H267 H 0.41847 0.61622 0.77611 0.0
H268 H 0.39793 0.55414 0.76009 0.0
H269 H 0.36095 0.57999 0.74949 0.0
H270 H 0.35103 0.53782 0.76244 0.0
H271 H 0.26718 0.57978 0.81637 0.0
H272 H 0.22472 0.61751 0.79781 0.0
H273 H 0.31056 0.63134 0.75794 0.0
C274 C 0.40568 0.54858 0.80038 0.0
C275 C 0.40702 0.52873 0.8168 0.0
C276 C 0.37472 0.52605 0.82735 0.0
C277 C 0.34188 0.54359 0.82194 0.0
C278 C 0.34164 0.56342 0.80586 0.0
C279 C 0.37246 0.56563 0.79509 0.0
C280 C 0.36446 0.58856 0.77836 0.0
C281 C 0.38897 0.62437 0.77741 0.0
C282 C 0.36884 0.56363 0.76161 0.0
C283 C 0.32442 0.5991 0.78153 0.0
C284 C 0.31203 0.58451 0.79755 0.0
C285 C 0.27642 0.59112 0.80371 0.0
C286 C 0.25257 0.61278 0.79309 0.0
C287 C 0.26425 0.62733 0.77638 0.0
C288 C 0.30077 0.62046 0.7706 0.0
H289 H 0.50704 0.87315 0.03692 0.0
H290 H 0.41106 0.93269 0.05753 0.0
H291 H 0.37178 0.87797 0.04889 0.0
H292 H 0.46039 0.82395 0.99938 0.0
H293 H 0.4874 0.78118 0.00247 0.0
H294 H 0.50674 0.82718 0.00794 0.0
H295 H 0.52083 0.80319 0.03991 0.0
H296 H 0.5013 0.75733 0.03462 0.0
H297 H 0.48391 0.78417 0.05334 0.0
H298 H 0.3441 0.81393 0.0406 0.0
H299 H 0.33065 0.74622 0.03359 0.0
H300 H 0.44539 0.72888 0.01923 0.0
C301 C 0.47763 0.8752 0.03921 0.0
C302 C 0.46209 0.90734 0.04779 0.0
C303 C 0.42355 0.90845 0.05088 0.0
C304 C 0.40101 0.87752 0.04599 0.0
C305 C 0.41743 0.84578 0.03801 0.0
C306 C 0.45486 0.84455 0.03456 0.0
C307 C 0.46634 0.80601 0.02725 0.0
C308 C 0.48108 0.80982 0.00812 0.0
C309 C 0.49476 0.78654 0.03952 0.0
C310 C 0.42974 0.78534 0.02759 0.0
C311 C 0.40171 0.80884 0.03359 0.0
C312 C 0.36577 0.79541 0.03571 0.0
C313 C 0.3584 0.75691 0.03172 0.0
C314 C 0.38696 0.73224 0.02588 0.0
C315 C 0.42292 0.74697 0.02363 0.0
H316 H 0.1166 0.50774 0.93986 0.0
H317 H 0.04153 0.56741 0.97538 0.0
H318 H 0.09374 0.58516 0.99469 0.0
H319 H 0.17891 0.47173 0.97464 0.0
H320 H 0.21952 0.47852 0.96115 0.0
H321 H 0.17589 0.46821 0.95071 0.0
H322 H 0.18207 0.52945 0.93151 0.0
H323 H 0.22558 0.54004 0.94194 0.0
H324 H 0.18898 0.57493 0.94233 0.0
H325 H 0.15426 0.60032 0.00906 0.0
H326 H 0.21908 0.61014 0.018 0.0
H327 H 0.25502 0.5401 0.97346 0.0
C328 C 0.11107 0.52404 0.95183 0.0
C329 C 0.0749 0.53611 0.9561 0.0
C330 C 0.06894 0.55778 0.97181 0.0
C331 C 0.09843 0.568 0.98289 0.0
C332 C 0.13377 0.55623 0.97816 0.0
C333 C 0.14024 0.53452 0.96308 0.0
C334 C 0.18108 0.52682 0.9607 0.0
C335 C 0.18933 0.48376 0.96188 0.0
C336 C 0.19525 0.54384 0.94308 0.0
C337 C 0.19654 0.54809 0.97664 0.0
C338 C 0.16875 0.56475 0.98656 0.0
C339 C 0.17626 0.5871 0.00151 0.0
C340 C 0.21318 0.59261 0.00645 0.0
C341 C 0.24214 0.57578 0.99649 0.0
C342 C 0.23353 0.55305 0.98146 0.0
H343 H 0.49934 0.61887 0.22083 0.0
H344 H 0.39738 0.56888 0.24015 0.0
H345 H 0.38055 0.63034 0.25405 0.0
H346 H 0.51619 0.68186 0.25948 0.0
H347 H 0.53356 0.72018 0.24579 0.0
H348 H 0.53932 0.67124 0.23879 0.0
H349 H 0.50695 0.68677 0.20885 0.0
H350 H 0.50107 0.73567 0.21576 0.0
H351 H 0.46158 0.70786 0.20909 0.0
H352 H 0.37218 0.69867 0.26375 0.0
H353 H 0.37322 0.76869 0.26838 0.0
H354 H 0.48066 0.77412 0.24299 0.0
C355 C 0.47382 0.62065 0.22827 0.0
C356 C 0.44978 0.58893 0.22945 0.0
C357 C 0.41632 0.5927 0.23907 0.0
C358 C 0.40652 0.62751 0.24707 0.0
C359 C 0.43049 0.65839 0.24541 0.0
C360 C 0.46352 0.65529 0.2363 0.0
C361 C 0.48324 0.69346 0.23557 0.0
C362 C 0.52027 0.69156 0.24551 0.0
C363 C 0.4885 0.70671 0.21617 0.0
C364 C 0.45582 0.71857 0.24536 0.0
C365 C 0.42569 0.69777 0.25105 0.0
C366 C 0.39587 0.71519 0.25956 0.0
C367 C 0.39668 0.75498 0.26213 0.0
C368 C 0.42709 0.77694 0.25619 0.0
C369 C 0.4572 0.75819 0.24794 0.0
H370 H 0.38866 0.96502 0.45686 0.0
H371 H 0.46832 0.8884 0.48119 0.0
H372 H 0.41736 0.84916 0.49315 0.0
H373 H 0.3192 0.95999 0.49204 0.0
H374 H 0.28123 0.96084 0.47654 0.0
H375 H 0.32393 0.98427 0.47097 0.0
H376 H 0.32796 0.94457 0.44187 0.0
H377 H 0.2854 0.92092 0.44738 0.0
H378 H 0.3263 0.89311 0.44306 0.0
H379 H 0.35761 0.81676 0.50142 0.0
H380 H 0.29387 0.79336 0.50515 0.0
H381 H 0.25327 0.89049 0.47489 0.0
C382 C 0.39545 0.94032 0.46493 0.0
C383 C 0.43257 0.92994 0.46818 0.0
C384 C 0.44015 0.89701 0.47856 0.0
C385 C 0.41137 0.87456 0.48543 0.0
C386 C 0.37512 0.88531 0.48176 0.0
C387 C 0.36708 0.91744 0.47177 0.0
C388 C 0.32585 0.92179 0.46907 0.0
C389 C 0.31173 0.95893 0.47767 0.0
C390 C 0.3158 0.91998 0.44916 0.0
C391 C 0.31195 0.8869 0.47898 0.0
C392 C 0.34079 0.86637 0.4863 0.0
C393 C 0.33482 0.83271 0.49581 0.0
C394 C 0.29846 0.81963 0.49784 0.0
C395 C 0.26846 0.84003 0.49033 0.0
C396 C 0.27551 0.87422 0.48084 0.0
H397 H 0.09736 0.90771 0.67083 0.0
H398 H 0.08815 0.97923 0.71791 0.0
H399 H 0.1212 0.93025 0.73546 0.0
H400 H 0.07673 0.82354 0.69149 0.0
H401 H 0.1079 0.79398 0.67882 0.0
H402 H 0.09007 0.8373 0.66924 0.0
H403 H 0.15653 0.86145 0.66354 0.0
H404 H 0.17469 0.81797 0.67301 0.0
H405 H 0.18887 0.86366 0.68177 0.0
H406 H 0.14722 0.87 0.7487 0.0
H407 H 0.16366 0.80358 0.75654 0.0
H408 H 0.15505 0.77125 0.70083 0.0
C409 C 0.10328 0.91368 0.6847 0.0
C410 C 0.09035 0.94746 0.69297 0.0
C411 C 0.09796 0.95369 0.71126 0.0
C412 C 0.11681 0.92605 0.72133 0.0
C413 C 0.12804 0.89246 0.7129 0.0
C414 C 0.12179 0.88632 0.69495 0.0
C415 C 0.13298 0.84628 0.68946 0.0
C416 C 0.09995 0.82398 0.68181 0.0
C417 C 0.16519 0.84742 0.67616 0.0
C418 C 0.14512 0.83029 0.70727 0.0
C419 C 0.14269 0.85754 0.72057 0.0
C420 C 0.14985 0.84862 0.73834 0.0
C421 C 0.15909 0.81076 0.74267 0.0
C422 C 0.16079 0.78218 0.7293 0.0
C423 C 0.15446 0.79246 0.71134 0.0
H424 H 0.58651 0.45376 0.80912 0.0
H425 H 0.59686 0.37135 0.85214 0.0
H426 H 0.64461 0.33696 0.83522 0.0
H427 H 0.60148 0.38688 0.77246 0.0
H428 H 0.62831 0.42026 0.75956 0.0
H429 H 0.59313 0.43753 0.7745 0.0
H430 H 0.64126 0.48019 0.79051 0.0
H431 H 0.67648 0.46324 0.77556 0.0
H432 H 0.68265 0.45871 0.7993 0.0
H433 H 0.69184 0.31204 0.81426 0.0
H434 H 0.73934 0.30089 0.79138 0.0
H435 H 0.70028 0.40011 0.76207 0.0
C436 C 0.59867 0.42833 0.8149 0.0
C437 C 0.58784 0.41518 0.83193 0.0
C438 C 0.60471 0.38205 0.83914 0.0
C439 C 0.63174 0.36214 0.82959 0.0
C440 C 0.64179 0.37577 0.81287 0.0
C441 C 0.62607 0.40824 0.80561 0.0
C442 C 0.64347 0.41781 0.78778 0.0
C443 C 0.61489 0.41547 0.77268 0.0
C444 C 0.66207 0.45733 0.78833 0.0
C445 C 0.67168 0.38593 0.78633 0.0
C446 C 0.66983 0.36175 0.80085 0.0
C447 C 0.69352 0.33068 0.80277 0.0
C448 C 0.72039 0.32456 0.78968 0.0
C449 C 0.7236 0.3496 0.77491 0.0
C450 C 0.69846 0.38033 0.77313 0.0
H451 H 0.51266 0.11698 0.03958 0.0
H452 H 0.61307 0.05886 0.05563 0.0
H453 H 0.64933 0.11599 0.04717 0.0
H454 H 0.55205 0.17188 0.00204 0.0
H455 H 0.52404 0.21308 0.00709 0.0
H456 H 0.5072 0.16577 0.01201 0.0
H457 H 0.49694 0.18569 0.04493 0.0
H458 H 0.51411 0.23282 0.04019 0.0
H459 H 0.53505 0.20465 0.05758 0.0
H460 H 0.67372 0.18242 0.03947 0.0
H461 H 0.68359 0.2513 0.03321 0.0
H462 H 0.56638 0.26474 0.02337 0.0
C463 C 0.54237 0.11576 0.04091 0.0
C464 C 0.56003 0.08334 0.04816 0.0
C465 C 0.59894 0.08331 0.04997 0.0
C466 C 0.61976 0.11563 0.04521 0.0
C467 C 0.60124 0.14763 0.03863 0.0
C468 C 0.5634 0.14773 0.03638 0.0
C469 C 0.54954 0.18646 0.03046 0.0
C470 C 0.53219 0.18415 0.01179 0.0
C471 C 0.52232 0.20338 0.04411 0.0
C472 C 0.58533 0.2085 0.03014 0.0
C473 C 0.615 0.18567 0.03465 0.0
C474 C 0.65069 0.20044 0.03577 0.0
C475 C 0.65604 0.23956 0.03223 0.0
C476 C 0.62576 0.2634 0.02787 0.0
C477 C 0.59012 0.24737 0.02671 0.0
H478 H 0.89542 0.1105 0.29404 0.0
H479 H 0.89526 0.99009 0.28003 0.0
H480 H 0.83205 0.99703 0.2679 0.0
H481 H 0.80349 0.11412 0.30903 0.0
H482 H 0.79486 0.16164 0.30072 0.0
H483 H 0.84092 0.14768 0.30682 0.0
H484 H 0.86415 0.16606 0.2753 0.0
H485 H 0.81808 0.18006 0.26908 0.0
H486 H 0.8426 0.14512 0.25597 0.0
H487 H 0.76749 0.01699 0.25857 0.0
H488 H 0.70662 0.04717 0.25401 0.0
H489 H 0.74942 0.15416 0.27481 0.0
C490 C 0.8824 0.08562 0.2882 0.0
C491 C 0.90045 0.04976 0.28787 0.0
C492 C 0.88206 0.01786 0.28036 0.0
C493 C 0.8462 0.02158 0.27341 0.0
C494 C 0.82913 0.05735 0.2741 0.0
C495 C 0.84667 0.08876 0.28136 0.0
C496 C 0.82172 0.12352 0.28149 0.0
C497 C 0.81484 0.13754 0.30065 0.0
C498 C 0.83759 0.15558 0.26976 0.0
C499 C 0.78714 0.10673 0.27337 0.0
C500 C 0.79202 0.06863 0.26903 0.0
C501 C 0.76349 0.04686 0.26183 0.0
C502 C 0.72898 0.0643 0.25926 0.0
C503 C 0.72315 0.10311 0.26401 0.0
C504 C 0.75292 0.12455 0.27092 0.0
H505 H 0.94279 0.40271 0.56537 0.0
H506 H 0.04572 0.42836 0.53832 0.0
H507 H 0.03018 0.3814 0.51494 0.0
H508 H 0.94306 0.30265 0.55705 0.0
H509 H 0.89394 0.29944 0.5537 0.0
H510 H 0.91261 0.33612 0.5679 0.0
H511 H 0.87937 0.38779 0.54904 0.0
H512 H 0.86087 0.35122 0.53466 0.0
H513 H 0.88741 0.38992 0.52534 0.0
H514 H 0.00545 0.32923 0.49557 0.0
H515 H 0.9735 0.27446 0.48168 0.0
H516 H 0.8854 0.28429 0.52051 0.0
C517 C 0.96206 0.39853 0.55452 0.0
C518 C 0.99554 0.41919 0.5537 0.0
C519 C 0.01992 0.41289 0.53924 0.0
C520 C 0.01128 0.38637 0.52586 0.0
C521 C 0.97801 0.36664 0.52704 0.0
C522 C 0.95375 0.37238 0.54097 0.0
C523 C 0.92029 0.34666 0.53933 0.0
C524 C 0.91733 0.31962 0.55545 0.0
C525 C 0.88489 0.37032 0.53695 0.0
C526 C 0.92986 0.32503 0.52245 0.0
C527 C 0.96323 0.33714 0.51556 0.0
C528 C 0.97907 0.31984 0.50069 0.0
C529 C 0.96073 0.28881 0.49289 0.0
C530 C 0.92681 0.27558 0.49988 0.0
C531 C 0.91084 0.29447 0.51463 0.0
H532 H 0.62133 0.03684 0.47715 0.0
H533 H 0.55469 0.12614 0.45308 0.0
H534 H 0.60482 0.17262 0.45832 0.0
H535 H 0.66667 0.09721 0.51108 0.0
H536 H 0.71005 0.07253 0.50876 0.0
H537 H 0.66743 0.04741 0.50487 0.0
H538 H 0.69037 0.02801 0.47344 0.0
H539 H 0.7329 0.05321 0.47717 0.0
H540 H 0.70487 0.06463 0.45806 0.0
H541 H 0.66435 0.20808 0.46384 0.0
H542 H 0.72812 0.22977 0.46942 0.0
H543 H 0.75595 0.11714 0.48972 0.0
C544 C 0.61687 0.06634 0.47332 0.0
C545 C 0.58388 0.07785 0.4648 0.0
C546 C 0.57958 0.11663 0.45972 0.0
C547 C 0.60792 0.14327 0.46265 0.0
C548 C 0.6404 0.13076 0.47072 0.0
C549 C 0.64493 0.09324 0.47608 0.0
C550 C 0.68334 0.08652 0.48342 0.0
C551 C 0.68176 0.07526 0.50321 0.0
C552 C 0.70408 0.05631 0.47236 0.0
C553 C 0.7 0.12591 0.48102 0.0
C554 C 0.67471 0.15111 0.47381 0.0
C555 C 0.68424 0.18869 0.46967 0.0
C556 C 0.7206 0.20073 0.47286 0.0
C557 C 0.74711 0.17527 0.48008 0.0
C558 C 0.73634 0.13748 0.48436 0.0
H559 H 0.9027 0.09893 0.65826 0.0
H560 H 0.94593 0.03189 0.70226 0.0
H561 H 0.91574 0.07571 0.72358 0.0
H562 H 0.91818 0.1875 0.67701 0.0
H563 H 0.87698 0.20982 0.66848 0.0
H564 H 0.89734 0.17031 0.65671 0.0
H565 H 0.83554 0.13328 0.65831 0.0
H566 H 0.81483 0.17289 0.67 0.0
H567 H 0.81381 0.12569 0.67963 0.0
H568 H 0.88729 0.13123 0.74001 0.0
H569 H 0.86144 0.19287 0.7502 0.0
H570 H 0.83664 0.2231 0.69538 0.0
C571 C 0.9051 0.09283 0.67237 0.0
C572 C 0.92659 0.06186 0.67858 0.0
C573 C 0.92945 0.0553 0.69717 0.0
C574 C 0.91237 0.08004 0.70939 0.0
C575 C 0.8923 0.11098 0.7028 0.0
C576 C 0.88829 0.11721 0.68471 0.0
C577 C 0.86767 0.15405 0.68105 0.0
C578 C 0.89147 0.18206 0.67018 0.0
C579 C 0.83077 0.14598 0.6717 0.0
C580 C 0.86174 0.16823 0.69989 0.0
C581 C 0.8758 0.14285 0.71227 0.0
C582 C 0.87565 0.15102 0.73045 0.0
C583 C 0.86101 0.18616 0.73611 0.0
C584 C 0.84682 0.21274 0.7236 0.0
C585 C 0.8468 0.20324 0.7053 0.0
H586 H 0.90503 0.42065 0.95083 0.0
H587 H 0.89266 0.54211 0.94037 0.0
H588 H 0.83409 0.54222 0.95719 0.0
H589 H 0.80991 0.39632 0.94612 0.0
H590 H 0.81049 0.36119 0.9637 0.0
H591 H 0.85188 0.37096 0.95126 0.0
H592 H 0.88653 0.38605 0.98065 0.0
H593 H 0.84522 0.37637 0.99318 0.0
H594 H 0.86828 0.42173 0.99559 0.0
H595 H 0.77635 0.52878 0.97466 0.0
H596 H 0.72326 0.50281 0.99124 0.0
H597 H 0.77343 0.39003 0.9903 0.0
C598 C 0.89013 0.44735 0.95212 0.0
C599 C 0.90348 0.48141 0.94429 0.0
C600 C 0.883 0.51567 0.94625 0.0
C601 C 0.84973 0.51602 0.9558 0.0
C602 C 0.83735 0.48191 0.96331 0.0
C603 C 0.85691 0.44821 0.96158 0.0
C604 C 0.83726 0.41533 0.97066 0.0
C605 C 0.82676 0.38412 0.95712 0.0
C606 C 0.86072 0.39891 0.98593 0.0
C607 C 0.80345 0.43576 0.97771 0.0
C608 C 0.80409 0.47416 0.97336 0.0
C609 C 0.7756 0.49878 0.97818 0.0
C610 C 0.74555 0.48372 0.98761 0.0
C611 C 0.74416 0.44438 0.99211 0.0
C612 C 0.7737 0.42024 0.98714 0.0
H613 H 0.53726 0.3793 0.21756 0.0
H614 H 0.47161 0.41947 0.26218 0.0
H615 H 0.48681 0.36062 0.27884 0.0
H616 H 0.51329 0.28036 0.22092 0.0
H617 H 0.55869 0.26333 0.21518 0.0
H618 H 0.54288 0.30878 0.20689 0.0
H619 H 0.60021 0.34174 0.22063 0.0
H620 H 0.61608 0.29638 0.22906 0.0
H621 H 0.60967 0.33609 0.24407 0.0
H622 H 0.50705 0.2961 0.29016 0.0
H623 H 0.53138 0.23102 0.29539 0.0
H624 H 0.58605 0.23408 0.24397 0.0
C625 C 0.52602 0.37573 0.23083 0.0
C626 C 0.50311 0.40402 0.23854 0.0
C627 C 0.48922 0.39828 0.25599 0.0
C628 C 0.49773 0.36493 0.26557 0.0
C629 C 0.52049 0.33772 0.2576 0.0
C630 C 0.53456 0.3428 0.24065 0.0
C631 C 0.55831 0.3091 0.23514 0.0
C632 C 0.54232 0.28922 0.21855 0.0
C633 C 0.59845 0.32159 0.23205 0.0
C634 C 0.55499 0.28404 0.25154 0.0
C635 C 0.53303 0.30106 0.26434 0.0
C636 C 0.52459 0.28266 0.28031 0.0
C637 C 0.53854 0.24571 0.28317 0.0
C638 C 0.56094 0.22762 0.2702 0.0
C639 C 0.5696 0.2474 0.25429 0.0
H640 H 0.08294 0.99236 0.37027 0.0
H641 H 0.01399 0.90062 0.35016 0.0
H642 H 0.02987 0.86154 0.37671 0.0
H643 H 0.15475 0.93481 0.3886 0.0
H644 H 0.16135 0.96542 0.40767 0.0
H645 H 0.14476 0.98521 0.38702 0.0
H646 H 0.08759 0.01273 0.40336 0.0
H647 H 0.10394 0.99301 0.42407 0.0
H648 H 0.05849 0.98113 0.41609 0.0
H649 H 0.05464 0.83268 0.40573 0.0
H650 H 0.08396 0.81756 0.4347 0.0
H651 H 0.13469 0.92994 0.43528 0.0
C652 C 0.07128 0.96395 0.37132 0.0
C653 C 0.04747 0.94935 0.35808 0.0
C654 C 0.03239 0.91227 0.36014 0.0
C655 C 0.04128 0.88993 0.37515 0.0
C656 C 0.06495 0.90534 0.38796 0.0
C657 C 0.0795 0.94164 0.38618 0.0
C658 C 0.10351 0.9523 0.40186 0.0
C659 C 0.14345 0.95986 0.39593 0.0
C660 C 0.08741 0.98683 0.41194 0.0
C661 C 0.10067 0.91616 0.41276 0.0
C662 C 0.07839 0.8893 0.40458 0.0
C663 C 0.07204 0.85357 0.41224 0.0
C664 C 0.08885 0.84524 0.42868 0.0
C665 C 0.11158 0.87259 0.43727 0.0
C666 C 0.11742 0.90842 0.42912 0.0
H667 H 0.01643 0.48251 0.67099 0.0
H668 H 0.10098 0.50498 0.63141 0.0
H669 H 0.13933 0.53576 0.65448 0.0
H670 H 0.02102 0.56882 0.69161 0.0
H671 H 0.01377 0.55193 0.71403 0.0
H672 H 0.99601 0.52506 0.6955 0.0
H673 H 0.03142 0.46485 0.70606 0.0
H674 H 0.04891 0.49136 0.72486 0.0
H675 H 0.08042 0.46762 0.70992 0.0
H676 H 0.16356 0.57327 0.6804 0.0
H677 H 0.1738 0.61093 0.7078 0.0
H678 H 0.0736 0.56382 0.73054 0.0
C679 C 0.04357 0.49264 0.66727 0.0
C680 C 0.05573 0.49118 0.64938 0.0
C681 C 0.09113 0.50555 0.64503 0.0
C682 C 0.11313 0.52312 0.65806 0.0
C683 C 0.09951 0.52575 0.67539 0.0
C684 C 0.06579 0.51035 0.68009 0.0
C685 C 0.05589 0.52012 0.69917 0.0
C686 C 0.01954 0.54283 0.70011 0.0
C687 C 0.05407 0.48382 0.71069 0.0
C688 C 0.08858 0.54473 0.70425 0.0
C689 C 0.11362 0.5473 0.69041 0.0
C690 C 0.14455 0.57084 0.69146 0.0
C691 C 0.15 0.5923 0.70703 0.0
C692 C 0.12462 0.59015 0.72136 0.0
C693 C 0.09379 0.56566 0.71995 0.0
H694 H 0.43198 0.60311 0.88377 0.0
H695 H 0.52781 0.53906 0.90149 0.0
H696 H 0.51322 0.55569 0.93265 0.0
H697 H 0.43533 0.6787 0.91958 0.0
H698 H 0.38572 0.67987 0.92097 0.0
H699 H 0.40786 0.6693 0.90003 0.0
H700 H 0.3705 0.60634 0.89793 0.0
H701 H 0.34884 0.61619 0.91898 0.0
H702 H 0.37351 0.57196 0.91579 0.0
H703 H 0.48159 0.56829 0.96189 0.0
H704 H 0.43952 0.58337 0.98687 0.0
H705 H 0.36494 0.63966 0.95001 0.0
C706 C 0.4507 0.59367 0.89412 0.0
C707 C 0.48107 0.56983 0.89013 0.0
C708 C 0.50452 0.5576 0.90415 0.0
C709 C 0.49634 0.56669 0.92193 0.0
C710 C 0.4649 0.58832 0.92546 0.0
C711 C 0.4429 0.6024 0.91192 0.0
C712 C 0.40903 0.62223 0.91926 0.0
C713 C 0.40953 0.66508 0.91469 0.0
C714 C 0.37339 0.60302 0.91259 0.0
C715 C 0.41462 0.61575 0.93901 0.0
C716 C 0.4471 0.59634 0.94235 0.0
C717 C 0.45655 0.58433 0.95948 0.0
C718 C 0.43235 0.59275 0.97356 0.0
C719 C 0.39911 0.61295 0.9704 0.0
C720 C 0.39042 0.62473 0.95289 0.0
H721 H 0.54779 0.96163 0.13517 0.0
H722 H 0.50318 0.85467 0.11528 0.0
H723 H 0.48549 0.83664 0.14581 0.0
H724 H 0.57827 0.92253 0.18091 0.0
H725 H 0.56538 0.96689 0.19146 0.0
H726 H 0.58291 0.967 0.16897 0.0
H727 H 0.52485 0.0033 0.15883 0.0
H728 H 0.50614 0.00227 0.18098 0.0
H729 H 0.4799 0.9828 0.1627 0.0
H730 H 0.46022 0.83673 0.17636 0.0
H731 H 0.43514 0.85139 0.20608 0.0
H732 H 0.49663 0.95782 0.20695 0.0
C733 C 0.53594 0.9336 0.13734 0.0
C734 C 0.5269 0.90952 0.12281 0.0
C735 C 0.51049 0.87352 0.12617 0.0
C736 C 0.50033 0.86301 0.1435 0.0
C737 C 0.50735 0.88851 0.15737 0.0
C738 C 0.52566 0.92266 0.1546 0.0
C739 C 0.52604 0.94678 0.17143 0.0
C740 C 0.5655 0.95103 0.17862 0.0
C741 C 0.50813 0.98608 0.16828 0.0
C742 C 0.50282 0.9221 0.18365 0.0
C743 C 0.4929 0.88834 0.17534 0.0
C744 C 0.46858 0.86257 0.18319 0.0
C745 C 0.45414 0.87139 0.2 0.0
C746 C 0.464 0.90572 0.20882 0.0
C747 C 0.48906 0.93112 0.20061 0.0
H748 H 0.01934 0.56887 0.86038 0.0
H749 H 0.02532 0.6654 0.89667 0.0
H750 H 0.04591 0.70663 0.8718 0.0
H751 H 0.09961 0.58848 0.83753 0.0
H752 H 0.08299 0.57322 0.81603 0.0
H753 H 0.06371 0.55298 0.83597 0.0
H754 H 0.99828 0.57343 0.82586 0.0
H755 H 0.01738 0.59377 0.80582 0.0
H756 H 0.98944 0.62279 0.82038 0.0
H757 H 0.0725 0.73522 0.84377 0.0
H758 H 0.10377 0.74858 0.81522 0.0
H759 H 0.08025 0.63298 0.79749 0.0
C760 C 0.0242 0.59887 0.86308 0.0
C761 C 0.0206 0.61394 0.88049 0.0
C762 C 0.02773 0.65324 0.88344 0.0
C763 C 0.03933 0.6769 0.86938 0.0
C764 C 0.04337 0.66084 0.85246 0.0
C765 C 0.03583 0.62273 0.84927 0.0
C766 C 0.04529 0.61154 0.83032 0.0
C767 C 0.07464 0.57969 0.82996 0.0
C768 C 0.01052 0.59969 0.81999 0.0
C769 C 0.06056 0.649 0.82348 0.0
C770 C 0.05874 0.67725 0.83635 0.0
C771 C 0.07355 0.71349 0.83351 0.0
C772 C 0.09132 0.72078 0.81724 0.0
C773 C 0.09435 0.69188 0.80408 0.0
C774 C 0.07796 0.65586 0.80716 0.0
H775 H 0.45175 0.57265 0.14099 0.0
H776 H 0.39016 0.47337 0.15877 0.0
H777 H 0.35542 0.47354 0.13028 0.0
H778 H 0.37804 0.62013 0.11787 0.0
H779 H 0.4076 0.63684 0.10021 0.0
H780 H 0.42615 0.62925 0.12219 0.0
H781 H 0.47559 0.58345 0.10906 0.0
H782 H 0.4571 0.591 0.08707 0.0
H783 H 0.46108 0.54319 0.09581 0.0
H784 H 0.32817 0.48477 0.09924 0.0
H785 H 0.31073 0.50602 0.06892 0.0
H786 H 0.39213 0.59675 0.07199 0.0
C787 C 0.43068 0.55111 0.13906 0.0
C788 C 0.42345 0.52316 0.15219 0.0
C789 C 0.39598 0.49523 0.14895 0.0
C790 C 0.37621 0.49506 0.1328 0.0
C791 C 0.38445 0.52287 0.12005 0.0
C792 C 0.41107 0.55035 0.12307 0.0
C793 C 0.41561 0.57657 0.1072 0.0
C794 C 0.40628 0.61815 0.11217 0.0
C795 C 0.45466 0.57335 0.09932 0.0
C796 C 0.38715 0.55984 0.09474 0.0
C797 C 0.36941 0.52888 0.10232 0.0
C798 C 0.34193 0.50898 0.09321 0.0
C799 C 0.33224 0.52124 0.07598 0.0
C800 C 0.35006 0.55304 0.06804 0.0
C801 C 0.37798 0.57231 0.07761 0.0
H802 H 0.43295 0.00062 0.38889 0.0
H803 H 0.51342 0.08239 0.36951 0.0
H804 H 0.50068 0.06176 0.33856 0.0
H805 H 0.4596 0.92719 0.36078 0.0
H806 H 0.41394 0.90805 0.35753 0.0
H807 H 0.42486 0.93336 0.37773 0.0
H808 H 0.3709 0.98055 0.37222 0.0
H809 H 0.3592 0.95496 0.35216 0.0
H810 H 0.36803 0.00565 0.35128 0.0
H811 H 0.48313 0.02681 0.30981 0.0
H812 H 0.46099 0.98301 0.28619 0.0
H813 H 0.39413 0.92323 0.32521 0.0
C814 C 0.44714 0.01511 0.37814 0.0
C815 C 0.47373 0.04363 0.38162 0.0
C816 C 0.49251 0.06088 0.36714 0.0
C817 C 0.48562 0.04915 0.34953 0.0
C818 C 0.46028 0.01977 0.34666 0.0
C819 C 0.44118 0.00323 0.36061 0.0
C820 C 0.41759 0.97024 0.35433 0.0
C821 C 0.42974 0.93249 0.36311 0.0
C822 C 0.37649 0.97835 0.35769 0.0
C823 C 0.42646 0.97051 0.33465 0.0
C824 C 0.451 0.99931 0.3304 0.0
C825 C 0.46386 0.00424 0.31303 0.0
C826 C 0.45124 0.97914 0.29971 0.0
C827 C 0.42581 0.94967 0.30383 0.0
C828 C 0.41344 0.9455 0.32157 0.0
H829 H 0.0563 0.86391 0.62004 0.0
H830 H 0.97478 0.94508 0.60089 0.0
H831 H 0.99241 0.93021 0.5699 0.0
H832 H 0.12442 0.88903 0.5912 0.0
H833 H 0.14267 0.84168 0.58765 0.0
H834 H 0.1192 0.85279 0.60811 0.0
H835 H 0.07336 0.79708 0.60292 0.0
H836 H 0.09722 0.78513 0.58259 0.0
H837 H 0.04832 0.79431 0.5822 0.0
H838 H 0.02582 0.91405 0.54129 0.0
H839 H 0.0679 0.89266 0.5173 0.0
H840 H 0.12776 0.82313 0.55554 0.0
C841 C 0.0412 0.87763 0.60935 0.0
C842 C 0.01408 0.90559 0.61294 0.0
C843 C 0.99545 0.92331 0.59851 0.0
C844 C 0.00544 0.91523 0.58083 0.0
C845 C 0.03382 0.88913 0.57781 0.0
C846 C 0.05093 0.87004 0.59167 0.0
C847 C 0.08257 0.84565 0.58505 0.0
C848 C 0.11937 0.85806 0.59351 0.0
C849 C 0.07489 0.80301 0.58838 0.0
C850 C 0.08142 0.85499 0.56539 0.0
C851 C 0.05297 0.87986 0.5614 0.0
C852 C 0.04778 0.89403 0.54421 0.0
C853 C 0.07197 0.88195 0.5307 0.0
C854 C 0.10111 0.85619 0.53453 0.0
C855 C 0.10571 0.84271 0.55213 0.0
H856 H 0.48093 0.46489 0.92097 0.0
H857 H 0.49001 0.36613 0.88623 0.0
H858 H 0.52277 0.33106 0.91001 0.0
H859 H 0.56812 0.46087 0.93653 0.0
H860 H 0.55854 0.47592 0.95905 0.0
H861 H 0.5284 0.49016 0.94125 0.0
H862 H 0.47257 0.46069 0.95767 0.0
H863 H 0.50241 0.4466 0.97574 0.0
H864 H 0.47426 0.41139 0.96466 0.0
H865 H 0.56342 0.31118 0.93504 0.0
H866 H 0.60725 0.3067 0.96004 0.0
H867 H 0.57306 0.41895 0.97845 0.0
C868 C 0.48831 0.4353 0.91863 0.0
C869 C 0.48249 0.418 0.90183 0.0
C870 C 0.49384 0.37972 0.89907 0.0
C871 C 0.51245 0.3596 0.9125 0.0
C872 C 0.51939 0.37815 0.92861 0.0
C873 C 0.50731 0.41502 0.93182 0.0
C874 C 0.52238 0.43021 0.94929 0.0
C875 C 0.54576 0.46641 0.94634 0.0
C876 C 0.49103 0.43765 0.96263 0.0
C877 C 0.54602 0.39674 0.95506 0.0
C878 C 0.54346 0.36681 0.94307 0.0
C879 C 0.56509 0.33409 0.94471 0.0
C880 C 0.59011 0.33195 0.9589 0.0
C881 C 0.59351 0.36244 0.97123 0.0
C882 C 0.57072 0.39497 0.96939 0.0
H883 H 0.5521 0.11433 0.12122 0.0
H884 H 0.45581 0.04338 0.13029 0.0
H885 H 0.45904 0.05804 0.16246 0.0
H886 H 0.60136 0.08186 0.15551 0.0
H887 H 0.62303 0.12629 0.1617 0.0
H888 H 0.60792 0.11905 0.13916 0.0
H889 H 0.56749 0.18008 0.14066 0.0
H890 H 0.58322 0.18824 0.16314 0.0
H891 H 0.53453 0.18555 0.15846 0.0
H892 H 0.48188 0.06751 0.19396 0.0
H893 H 0.51708 0.07891 0.22171 0.0
H894 H 0.59815 0.14356 0.19176 0.0
C895 C 0.53081 0.10298 0.12984 0.0
C896 C 0.50378 0.07763 0.12323 0.0
C897 C 0.47668 0.06308 0.13501 0.0
C898 C 0.47837 0.07116 0.15333 0.0
C899 C 0.50723 0.09384 0.15959 0.0
C900 C 0.53241 0.11037 0.1481 0.0
C901 C 0.56308 0.13022 0.15816 0.0
C902 C 0.60105 0.11332 0.15334 0.0
C903 C 0.56199 0.1736 0.15491 0.0
C904 C 0.55238 0.12058 0.17708 0.0
C905 C 0.51994 0.09988 0.17771 0.0
C906 C 0.50675 0.08459 0.19365 0.0
C907 C 0.52709 0.0909 0.20932 0.0
C908 C 0.56019 0.11237 0.2089 0.0
C909 C 0.57264 0.12759 0.19256 0.0
H910 H 0.95353 0.03488 0.37908 0.0
H911 H 0.98404 0.13151 0.346 0.0
H912 H 0.96774 0.1756 0.3707 0.0
H913 H 0.87635 0.07605 0.39964 0.0
H914 H 0.88462 0.05475 0.42115 0.0
H915 H 0.90065 0.03119 0.40129 0.0
H916 H 0.96724 0.03024 0.41386 0.0
H917 H 0.95138 0.05363 0.43384 0.0
H918 H 0.9883 0.07434 0.42099 0.0
H919 H 0.94271 0.20882 0.39828 0.0
H920 H 0.91535 0.22851 0.42703 0.0
H921 H 0.90413 0.10936 0.44222 0.0
C922 C 0.95705 0.06532 0.37705 0.0
C923 C 0.96981 0.07991 0.36062 0.0
C924 C 0.97439 0.11983 0.35852 0.0
C925 C 0.96513 0.14501 0.37245 0.0
C926 C 0.952 0.12962 0.38841 0.0
C927 C 0.9485 0.09063 0.39083 0.0
C928 C 0.9334 0.08116 0.4091 0.0
C929 C 0.89657 0.05952 0.4077 0.0
C930 C 0.96178 0.05851 0.4201 0.0
C931 C 0.92798 0.12098 0.41651 0.0
C932 C 0.93884 0.14857 0.40439 0.0
C933 C 0.9346 0.18744 0.40794 0.0
C934 C 0.91888 0.19833 0.42427 0.0
C935 C 0.90781 0.17046 0.4369 0.0
C936 C 0.91275 0.13133 0.43295 0.0
H937 H 0.88579 0.41672 0.6307 0.0
H938 H 0.911 0.53496 0.64336 0.0
H939 H 0.88399 0.52622 0.67329 0.0
H940 H 0.79894 0.40898 0.65779 0.0
H941 H 0.81009 0.36073 0.66432 0.0
H942 H 0.82457 0.37851 0.64288 0.0
H943 H 0.89211 0.36058 0.65048 0.0
H944 H 0.87801 0.34329 0.67197 0.0
H945 H 0.91302 0.3797 0.67038 0.0
H946 H 0.86342 0.50176 0.70324 0.0
H947 H 0.84918 0.46429 0.73028 0.0
H948 H 0.83828 0.36194 0.69797 0.0
C949 C 0.88448 0.44122 0.6395 0.0
C950 C 0.90034 0.4766 0.63461 0.0
C951 C 0.89874 0.50767 0.64672 0.0
C952 C 0.88346 0.50296 0.66378 0.0
C953 C 0.86961 0.46714 0.66845 0.0
C954 C 0.86956 0.43693 0.65656 0.0
C955 C 0.85677 0.40032 0.66538 0.0
C956 C 0.82042 0.38632 0.6571 0.0
C957 C 0.88677 0.36917 0.6645 0.0
C958 C 0.85099 0.41427 0.68426 0.0
C959 C 0.85802 0.45298 0.68574 0.0
C960 C 0.85716 0.4716 0.70217 0.0
C961 C 0.8492 0.45002 0.71747 0.0
C962 C 0.84247 0.4102 0.71625 0.0
C963 C 0.84286 0.3924 0.69935 0.0
H964 H 0.61717 0.02722 0.39818 0.0
H965 H 0.52575 0.94983 0.38858 0.0
H966 H 0.53041 0.96266 0.3563 0.0
H967 H 0.58696 0.09618 0.36993 0.0
H968 H 0.63171 0.11133 0.36224 0.0
H969 H 0.62697 0.09 0.3839 0.0
H970 H 0.67519 0.03809 0.3758 0.0
H971 H 0.68083 0.05976 0.35418 0.0
H972 H 0.66898 0.00985 0.35591 0.0
H973 H 0.54011 0.99069 0.32548 0.0
H974 H 0.55382 0.03099 0.29916 0.0
H975 H 0.63679 0.09172 0.32976 0.0
C976 C 0.59904 0.01169 0.38929 0.0
C977 C 0.57136 0.9872 0.39598 0.0
C978 C 0.54761 0.96826 0.38381 0.0
C979 C 0.54996 0.97548 0.36542 0.0
C980 C 0.57631 0.00151 0.35942 0.0
C981 C 0.60065 0.01901 0.37102 0.0
C982 C 0.62341 0.04922 0.36171 0.0
C983 C 0.61685 0.08901 0.36993 0.0
C984 C 0.66454 0.03858 0.36191 0.0
C985 C 0.60755 0.04672 0.34313 0.0
C986 C 0.58078 0.01874 0.34195 0.0
C987 C 0.56119 0.0125 0.32623 0.0
C988 C 0.56902 0.03567 0.31139 0.0
C989 C 0.59632 0.06459 0.31241 0.0
C990 C 0.61585 0.06982 0.3285 0.0
H991 H 0.04046 0.02001 0.58329 0.0
H992 H 0.00291 0.10305 0.62236 0.0
H993 H 0.97152 0.13908 0.59858 0.0
H994 H 0.05283 0.09019 0.54571 0.0
H995 H 0.03697 0.05586 0.52951 0.0
H996 H 0.06111 0.03989 0.54915 0.0
H997 H 0.00666 0.99523 0.55654 0.0
H998 H 0.98149 0.01165 0.53735 0.0
H999 H 0.96103 0.01496 0.5592 0.0
H1000 H 0.93627 0.16007 0.57188 0.0
H1001 H 0.90567 0.16993 0.54293 0.0
H1002 H 0.96736 0.0749 0.52058 0.0
C1003 C 0.02674 0.04649 0.58678 0.0
C1004 C 0.02424 0.05869 0.60473 0.0
C1005 C 0.00542 0.09318 0.60873 0.0
C1006 C 0.98737 0.11381 0.5953 0.0
C1007 C 0.98884 0.09994 0.57791 0.0
C1008 C 0.00873 0.06759 0.57351 0.0
C1009 C 0.00405 0.05762 0.55395 0.0
C1010 C 0.04094 0.06112 0.54399 0.0
C1011 C 0.98729 0.0175 0.55164 0.0
C1012 C 0.97728 0.08859 0.54823 0.0
C1013 C 0.96898 0.11269 0.56228 0.0
C1014 C 0.94308 0.14187 0.56068 0.0
C1015 C 0.92558 0.14699 0.54422 0.0
C1016 C 0.93419 0.12322 0.52949 0.0
C1017 C 0.96051 0.09372 0.53155 0.0
H1018 H 0.94493 0.4732 0.84909 0.0
H1019 H 0.99244 0.38501 0.88268 0.0
H1020 H 0.97723 0.33643 0.85971 0.0
H1021 H 0.86964 0.4206 0.83364 0.0
H1022 H 0.87063 0.44032 0.81145 0.0
H1023 H 0.88791 0.46786 0.82989 0.0
H1024 H 0.95076 0.47548 0.8138 0.0
H1025 H 0.93363 0.44795 0.79527 0.0
H1026 H 0.97533 0.4335 0.80648 0.0
H1027 H 0.95173 0.29716 0.83381 0.0
H1028 H 0.91962 0.27105 0.80738 0.0
H1029 H 0.8907 0.38628 0.79103 0.0
C1030 C 0.95248 0.44373 0.85161 0.0
C1031 C 0.96975 0.43281 0.86769 0.0
C1032 C 0.97928 0.39397 0.87041 0.0
C1033 C 0.97075 0.36625 0.85745 0.0
C1034 C 0.95319 0.37804 0.84182 0.0
C1035 C 0.9445 0.41597 0.83884 0.0
C1036 C 0.92455 0.42141 0.82133 0.0
C1037 C 0.8859 0.43854 0.82427 0.0
C1038 C 0.94744 0.44604 0.80846 0.0
C1039 C 0.92241 0.38044 0.81505 0.0
C1040 C 0.93924 0.35577 0.82694 0.0
C1041 C 0.9389 0.31629 0.82432 0.0
C1042 C 0.92055 0.30173 0.80928 0.0
C1043 C 0.90278 0.32661 0.79708 0.0
C1044 C 0.90433 0.36647 0.79996 0.0
H1045 H 0.50336 0.45003 0.13227 0.0
H1046 H 0.60249 0.49261 0.15775 0.0
H1047 H 0.63599 0.48702 0.12895 0.0
H1048 H 0.5443 0.38123 0.10519 0.0
H1049 H 0.5143 0.38918 0.08639 0.0
H1050 H 0.49821 0.39921 0.10857 0.0
H1051 H 0.48267 0.46887 0.09932 0.0
H1052 H 0.4985 0.4589 0.07703 0.0
H1053 H 0.51797 0.49822 0.08939 0.0
H1054 H 0.65952 0.47006 0.09779 0.0
H1055 H 0.67021 0.44705 0.06702 0.0
H1056 H 0.55411 0.41896 0.06227 0.0
C1057 C 0.5321 0.45841 0.1318 0.0
C1058 C 0.55058 0.47135 0.14721 0.0
C1059 C 0.58795 0.4826 0.14603 0.0
C1060 C 0.6071 0.4795 0.12976 0.0
C1061 C 0.58811 0.46592 0.11484 0.0
C1062 C 0.55125 0.45613 0.11572 0.0
C1063 C 0.53705 0.44163 0.09802 0.0
C1064 C 0.52264 0.40037 0.09965 0.0
C1065 C 0.50729 0.46851 0.0905 0.0
C1066 C 0.57199 0.44341 0.08709 0.0
C1067 C 0.60118 0.45761 0.09694 0.0
C1068 C 0.63672 0.4595 0.0899 0.0
C1069 C 0.64254 0.44627 0.07243 0.0
C1070 C 0.61294 0.43149 0.06219 0.0
C1071 C 0.57721 0.43065 0.06962 0.0
loop_
_geom_bond_atom_site_label_1
_geom_bond_atom_site_label_2
_geom_bond_distance
_geom_bond_site_symmetry_2
_ccdc_geom_bond_type
Mg0 O7 2.141 1_545 S
Mg0 O8 2.048 1_545 S
Mg0 O9 2.048 1_455 S
Mg0 O12 2.141 1_455 S
C1 O2 1.313 . S
C1 O8 1.195 . S
O2 C1 1.313 . S
C3 O4 1.245 . S
C3 O12 1.289 . S
O4 C3 1.245 . S
C5 O6 1.245 . S
C5 O7 1.289 . S
O6 C5 1.245 . S
O7 Mg0 2.141 1_565 S
O7 C5 1.289 . S
O8 Mg0 2.048 1_565 S
O8 C1 1.195 . S
O9 Mg0 2.048 1_655 S
O9 C10 1.195 . S
C10 O9 1.195 . S
C10 O11 1.313 1_545 S
O11 C10 1.313 1_565 S
O12 Mg0 2.141 1_655 S
O12 C3 1.289 . S
Mg13 O20 2.141 1_655 S
Mg13 O21 2.048 1_655 S
Mg13 O22 2.048 . S
Mg13 O25 2.141 . S
C14 O15 1.313 . S
C14 O21 1.195 . S
O15 C14 1.313 . S
C16 O17 1.245 . S
C16 O25 1.289 . S
O17 C16 1.245 . S
C18 O19 1.245 . S
C18 O20 1.289 . S
O19 C18 1.245 . S
O20 Mg13 2.141 1_455 S
O20 C18 1.289 . S
O21 Mg13 2.048 1_455 S
O21 C14 1.195 . S
O22 Mg13 2.048 . S
O22 C23 1.195 . S
C23 O22 1.195 . S
C23 O24 1.313 1_655 S
O24 C23 1.313 1_455 S
O25 Mg13 2.141 . S
O25 C16 1.289 . S
Mg26 O33 2.141 . S
Mg26 O34 2.048 . S
Mg26 O35 2.048 . S
Mg26 O38 2.141 . S
C27 O28 1.313 . S
C27 O34 1.195 . S
O28 C27 1.313 . S
C29 O30 1.245 . S
C29 O38 1.289 . S
O30 C29 1.245 . S
C31 O32 1.245 . S
C31 O33 1.289 . S
O32 C31 1.245 . S
O33 Mg26 2.141 . S
O33 C31 1.289 . S
O34 Mg26 2.048 . S
O34 C27 1.195 . S
O35 Mg26 2.048 . S
O35 C36 1.195 . S
C36 O35 1.195 . S
C36 O37 1.313 . S
O37 C36 1.313 . S
O38 Mg26 2.141 . S
O38 C29 1.289 . S
Mg39 O46 2.141 . S
Mg39 O47 2.048 . S
Mg39 O48 2.048 1_545 S
Mg39 O51 2.141 1_545 S
C40 O41 1.313 . S
C40 O47 1.195 . S
O41 C40 1.313 . S
C42 O43 1.245 . S
C42 O51 1.289 . S
O43 C42 1.245 . S
C44 O45 1.245 . S
C44 O46 1.289 . S
O45 C44 1.245 . S
O46 Mg39 2.141 . S
O46 C44 1.289 . S
O47 Mg39 2.048 . S
O47 C40 1.195 . S
O48 Mg39 2.048 1_565 S
O48 C49 1.195 . S
C49 O48 1.195 . S
C49 O50 1.313 . S
O50 C49 1.313 . S
O51 Mg39 2.141 1_565 S
O51 C42 1.289 . S
Mg52 O59 2.141 . S
Mg52 O60 2.048 . S
Mg52 O61 2.048 1_455 S
Mg52 O64 2.141 1_455 S
C53 O54 1.313 . S
C53 O60 1.195 . S
O54 C53 1.313 . S
C55 O56 1.245 . S
C55 O64 1.289 . S
O56 C55 1.245 . S
C57 O58 1.245 . S
C57 O59 1.289 . S
O58 C57 1.245 . S
O59 Mg52 2.141 . S
O59 C57 1.289 . S
O60 Mg52 2.048 . S
O60 C53 1.195 . S
O61 Mg52 2.048 1_655 S
O61 C62 1.195 . S
C62 O61 1.195 . S
C62 O63 1.313 . S
O63 C62 1.313 . S
O64 Mg52 2.141 1_655 S
O64 C55 1.289 . S
Mg65 O72 2.141 . S
Mg65 O73 2.048 . S
Mg65 O74 2.048 . S
Mg65 O77 2.141 . S
C66 O67 1.313 . S
C66 O73 1.195 . S
O67 C66 1.313 . S
C68 O69 1.245 . S
C68 O77 1.289 . S
O69 C68 1.245 . S
C70 O71 1.245 . S
C70 O72 1.289 . S
O71 C70 1.245 . S
O72 Mg65 2.141 . S
O72 C70 1.289 . S
O73 Mg65 2.048 . S
O73 C66 1.195 . S
O74 Mg65 2.048 . S
O74 C75 1.195 . S
C75 O74 1.195 . S
C75 O76 1.313 . S
O76 C75 1.313 . S
O77 Mg65 2.141 . S
O77 C68 1.289 . S
Mg78 O85 2.141 1_565 S
Mg78 O86 2.048 1_565 S
Mg78 O87 2.048 . S
Mg78 O90 2.141 . S
C79 O80 1.313 . S
C79 O86 1.195 . S
O80 C79 1.313 . S
C81 O82 1.245 . S
C81 O90 1.289 . S
O82 C81 1.245 . S
C83 O84 1.245 . S
C83 O85 1.289 . S
O84 C83 1.245 . S
O85 Mg78 2.141 1_545 S
O85 C83 1.289 . S
O86 Mg78 2.048 1_545 S
O86 C79 1.195 . S
O87 Mg78 2.048 . S
O87 C88 1.195 . S
C88 O87 1.195 . S
C88 O89 1.313 1_565 S
O89 C88 1.313 1_545 S
O90 Mg78 2.141 . S
O90 C81 1.289 . S
Mg91 O98 2.141 1_655 S
Mg91 O99 2.048 1_655 S
Mg91 O100 2.048 1_565 S
Mg91 O103 2.141 1_565 S
C92 O93 1.313 . S
C92 O99 1.195 . S
O93 C92 1.313 . S
C94 O95 1.245 . S
C94 O103 1.289 . S
O95 C94 1.245 . S
C96 O97 1.245 . S
C96 O98 1.289 . S
O97 C96 1.245 . S
O98 Mg91 2.141 1_455 S
O98 C96 1.289 . S
O99 Mg91 2.048 1_455 S
O99 C92 1.195 . S
O100 Mg91 2.048 1_545 S
O100 C101 1.195 . S
C101 O100 1.195 . S
C101 O102 1.313 1_655 S
O102 C101 1.313 1_455 S
O103 Mg91 2.141 1_545 S
O103 C94 1.289 . S
C104 O105 1.160 1_556 S
C104 O111 1.185 . S
O105 C104 1.160 1_554 S
O106 Zn107 1.899 . S
O106 C114 1.284 . S
Zn107 O106 1.899 . S
Zn107 O108 2.032 1_554 S
Zn107 O111 2.086 1_554 S
Zn107 O116 1.977 . S
O108 Zn107 2.032 1_556 S
O108 C112 1.278 . S
C109 O110 1.203 . S
C109 O116 1.267 . S
O110 C109 1.203 . S
O111 C104 1.185 . S
O111 Zn107 2.086 1_556 S
C112 O108 1.278 . S
C112 O113 1.211 . S
O113 C112 1.211 . S
C114 O106 1.284 . S
C114 O115 1.273 . S
O115 C114 1.273 . S
O116 Zn107 1.977 . S
O116 C109 1.267 . S
C117 O118 1.160 . S
C117 O124 1.185 . S
O118 C117 1.160 . S
O119 Zn120 1.899 . S
O119 C127 1.284 . S
Zn120 O119 1.899 . S
Zn120 O121 2.032 . S
Zn120 O124 2.086 . S
Zn120 O129 1.977 . S
O121 Zn120 2.032 . S
O121 C125 1.278 . S
C122 O123 1.203 . S
C122 O129 1.267 . S
O123 C122 1.203 . S
O124 C117 1.185 . S
O124 Zn120 2.086 . S
C125 O121 1.278 . S
C125 O126 1.211 . S
O126 C125 1.211 . S
C127 O119 1.284 . S
C127 O128 1.273 . S
O128 C127 1.273 . S
O129 Zn120 1.977 . S
O129 C122 1.267 . S
C130 O131 1.160 . S
C130 O137 1.185 . S
O131 C130 1.160 . S
O132 Zn133 1.899 . S
O132 C140 1.284 . S
Zn133 O132 1.899 . S
Zn133 O134 2.032 . S
Zn133 O137 2.086 . S
Zn133 O142 1.977 . S
O134 Zn133 2.032 . S
O134 C138 1.278 . S
C135 O136 1.203 . S
C135 O142 1.267 . S
O136 C135 1.203 . S
O137 C130 1.185 . S
O137 Zn133 2.086 . S
C138 O134 1.278 . S
C138 O139 1.211 . S
O139 C138 1.211 . S
C140 O132 1.284 . S
C140 O141 1.273 . S
O141 C140 1.273 . S
O142 Zn133 1.977 . S
O142 C135 1.267 . S
C143 O144 1.160 . S
C143 O150 1.185 . S
O144 C143 1.160 . S
O145 Zn146 1.899 . S
O145 C153 1.284 . S
Zn146 O145 1.899 . S
Zn146 O147 2.032 . S
Zn146 O150 2.086 . S
Zn146 O155 1.977 . S
O147 Zn146 2.032 . S
O147 C151 1.278 . S
C148 O149 1.203 . S
C148 O155 1.267 . S
O149 C148 1.203 . S
O150 C143 1.185 . S
O150 Zn146 2.086 . S
C151 O147 1.278 . S
C151 O152 1.211 . S
O152 C151 1.211 . S
C153 O145 1.284 . S
C153 O154 1.273 . S
O154 C153 1.273 . S
O155 Zn146 1.977 . S
O155 C148 1.267 . S
C156 O157 1.160 . S
C156 O163 1.185 . S
O157 C156 1.160 . S
O158 Zn159 1.899 . S
O158 C166 1.284 . S
Zn159 O158 1.899 . S
Zn159 O160 2.032 . S
Zn159 O163 2.086 . S
Zn159 O168 1.977 . S
O160 Zn159 2.032 . S
O160 C164 1.278 . S
C161 O162 1.203 . S
C161 O168 1.267 . S
O162 C161 1.203 . S
O163 C156 1.185 . S
O163 Zn159 2.086 . S
C164 O160 1.278 . S
C164 O165 1.211 . S
O165 C164 1.211 . S
C166 O158 1.284 . S
C166 O167 1.273 . S
O167 C166 1.273 . S
O168 Zn159 1.977 . S
O168 C161 1.267 . S
C169 O170 1.160 . S
C169 O176 1.185 . S
O170 C169 1.160 . S
O171 Zn172 1.899 . S
O171 C179 1.284 . S
Zn172 O171 1.899 . S
Zn172 O173 2.032 . S
Zn172 O176 2.086 . S
Zn172 O181 1.977 . S
O173 Zn172 2.032 . S
O173 C177 1.278 . S
C174 O175 1.203 . S
C174 O181 1.267 . S
O175 C174 1.203 . S
O176 C169 1.185 . S
O176 Zn172 2.086 . S
C177 O173 1.278 . S
C177 O178 1.211 . S
O178 C177 1.211 . S
C179 O171 1.284 . S
C179 O180 1.273 . S
O180 C179 1.273 . S
O181 Zn172 1.977 . S
O181 C174 1.267 . S
C182 O183 1.160 1_556 S
C182 O189 1.185 . S
O183 C182 1.160 1_554 S
O184 Zn185 1.899 . S
O184 C192 1.284 . S
Zn185 O184 1.899 . S
Zn185 O186 2.032 1_554 S
Zn185 O189 2.086 1_554 S
Zn185 O194 1.977 . S
O186 Zn185 2.032 1_556 S
O186 C190 1.278 . S
C187 O188 1.203 . S
C187 O194 1.267 . S
O188 C187 1.203 . S
O189 C182 1.185 . S
O189 Zn185 2.086 1_556 S
C190 O186 1.278 . S
C190 O191 1.211 . S
O191 C190 1.211 . S
C192 O184 1.284 . S
C192 O193 1.273 . S
O193 C192 1.273 . S
O194 Zn185 1.977 . S
O194 C187 1.267 . S
C195 O196 1.160 . S
C195 O202 1.185 . S
O196 C195 1.160 . S
O197 Zn198 1.899 . S
O197 C205 1.284 . S
Zn198 O197 1.899 . S
Zn198 O199 2.032 . S
Zn198 O202 2.086 . S
Zn198 O207 1.977 . S
O199 Zn198 2.032 . S
O199 C203 1.278 . S
C200 O201 1.203 . S
C200 O207 1.267 . S
O201 C200 1.203 . S
O202 C195 1.185 . S
O202 Zn198 2.086 . S
C203 O199 1.278 . S
C203 O204 1.211 . S
O204 C203 1.211 . S
C205 O197 1.284 . S
C205 O206 1.273 . S
O206 C205 1.273 . S
O207 Zn198 1.977 . S
O207 C200 1.267 . S
H208 C220 0.930 . S
H209 C222 0.930 . S
H210 C223 0.930 . S
H211 C227 0.959 . S
H212 C227 0.959 . S
H213 C227 0.961 . S
H214 C228 0.960 . S
H215 C228 0.961 . S
H216 C228 0.959 . S
H217 C231 0.929 . S
H218 C232 0.931 . S
H219 C234 0.930 . S
C220 H208 0.930 . S
C220 C221 1.399 . S
C220 C225 1.399 . S
C221 C220 1.399 . S
C221 C222 1.376 . S
C222 H209 0.930 . S
C222 C221 1.376 . S
C222 C223 1.388 . S
C223 H210 0.930 . S
C223 C222 1.388 . S
C223 C224 1.390 . S
C224 C223 1.390 . S
C224 C225 1.394 . S
C224 C230 1.465 . S
C225 C220 1.399 . S
C225 C224 1.394 . S
C225 C226 1.516 . S
C226 C225 1.516 . S
C226 C227 1.502 . S
C226 C228 1.561 . S
C226 C229 1.526 . S
C227 H211 0.959 . S
C227 H212 0.959 . S
C227 H213 0.961 . S
C227 C226 1.502 . S
C228 H214 0.960 . S
C228 H215 0.961 . S
C228 H216 0.959 . S
C228 C226 1.561 . S
C229 C226 1.526 . S
C229 C230 1.396 . S
C229 C234 1.390 . S
C230 C224 1.465 . S
C230 C229 1.396 . S
C230 C231 1.399 . S
C231 H217 0.929 . S
C231 C230 1.399 . S
C231 C232 1.385 . S
C232 H218 0.931 . S
C232 C231 1.385 . S
C232 C233 1.389 . S
C233 C232 1.389 . S
C233 C234 1.387 . S
C234 H219 0.930 . S
C234 C229 1.390 . S
C234 C233 1.387 . S
H235 C247 0.930 . S
H236 C249 0.930 . S
H237 C250 0.930 . S
H238 C254 0.959 . S
H239 C254 0.959 . S
H240 C254 0.961 . S
H241 C255 0.960 . S
H242 C255 0.961 . S
H243 C255 0.959 . S
H244 C258 0.929 . S
H245 C259 0.931 . S
H246 C261 0.930 . S
C247 H235 0.930 . S
C247 C248 1.399 . S
C247 C252 1.399 . S
C248 C247 1.399 . S
C248 C249 1.376 . S
C249 H236 0.930 . S
C249 C248 1.376 . S
C249 C250 1.388 . S
C250 H237 0.930 . S
C250 C249 1.388 . S
C250 C251 1.390 . S
C251 C250 1.390 . S
C251 C252 1.394 . S
C251 C257 1.465 . S
C252 C247 1.399 . S
C252 C251 1.394 . S
C252 C253 1.516 . S
C253 C252 1.516 . S
C253 C254 1.502 . S
C253 C255 1.561 . S
C253 C256 1.526 . S
C254 H238 0.959 . S
C254 H239 0.959 . S
C254 H240 0.961 . S
C254 C253 1.502 . S
C255 H241 0.960 . S
C255 H242 0.961 . S
C255 H243 0.959 . S
C255 C253 1.561 . S
C256 C253 1.526 . S
C256 C257 1.396 . S
C256 C261 1.390 . S
C257 C251 1.465 . S
C257 C256 1.396 . S
C257 C258 1.399 . S
C258 H244 0.929 . S
C258 C257 1.399 . S
C258 C259 1.385 . S
C259 H245 0.931 . S
C259 C258 1.385 . S
C259 C260 1.389 . S
C260 C259 1.389 . S
C260 C261 1.387 . S
C261 H246 0.930 . S
C261 C256 1.390 . S
C261 C260 1.387 . S
H262 C274 0.930 . S
H263 C276 0.930 . S
H264 C277 0.930 . S
H265 C281 0.959 . S
H266 C281 0.959 . S
H267 C281 0.961 . S
H268 C282 0.960 . S
H269 C282 0.961 . S
H270 C282 0.959 . S
H271 C285 0.929 . S
H272 C286 0.931 . S
H273 C288 0.930 . S
C274 H262 0.930 . S
C274 C275 1.399 . S
C274 C279 1.399 . S
C275 C274 1.399 . S
C275 C276 1.376 . S
C276 H263 0.930 . S
C276 C275 1.376 . S
C276 C277 1.388 . S
C277 H264 0.930 . S
C277 C276 1.388 . S
C277 C278 1.390 . S
C278 C277 1.390 . S
C278 C279 1.394 . S
C278 C284 1.465 . S
C279 C274 1.399 . S
C279 C278 1.394 . S
C279 C280 1.516 . S
C280 C279 1.516 . S
C280 C281 1.502 . S
C280 C282 1.561 . S
C280 C283 1.526 . S
C281 H265 0.959 . S
C281 H266 0.959 . S
C281 H267 0.961 . S
C281 C280 1.502 . S
C282 H268 0.960 . S
C282 H269 0.961 . S
C282 H270 0.959 . S
C282 C280 1.561 . S
C283 C280 1.526 . S
C283 C284 1.396 . S
C283 C288 1.390 . S
C284 C278 1.465 . S
C284 C283 1.396 . S
C284 C285 1.399 . S
C285 H271 0.929 . S
C285 C284 1.399 . S
C285 C286 1.385 . S
C286 H272 0.931 . S
C286 C285 1.385 . S
C286 C287 1.389 . S
C287 C286 1.389 . S
C287 C288 1.387 . S
C288 H273 0.930 . S
C288 C283 1.390 . S
C288 C287 1.387 . S
H289 C301 0.930 . S
H290 C303 0.930 . S
H291 C304 0.930 . S
H292 C308 0.959 . S
H293 C308 0.959 1_556 S
H294 C308 0.961 . S
H295 C309 0.960 . S
H296 C309 0.961 . S
H297 C309 0.959 . S
H298 C312 0.929 . S
H299 C313 0.931 . S
H300 C315 0.930 . S
C301 H289 0.930 . S
C301 C302 1.399 . S
C301 C306 1.399 . S
C302 C301 1.399 . S
C302 C303 1.376 . S
C303 H290 0.930 . S
C303 C302 1.376 . S
C303 C304 1.388 . S
C304 H291 0.930 . S
C304 C303 1.388 . S
C304 C305 1.390 . S
C305 C304 1.390 . S
C305 C306 1.394 . S
C305 C311 1.465 . S
C306 C301 1.399 . S
C306 C305 1.394 . S
C306 C307 1.516 . S
C307 C306 1.516 . S
C307 C308 1.502 . S
C307 C309 1.561 . S
C307 C310 1.526 . S
C308 H292 0.959 . S
C308 H293 0.959 1_554 S
C308 H294 0.961 . S
C308 C307 1.502 . S
C309 H295 0.960 . S
C309 H296 0.961 . S
C309 H297 0.959 . S
C309 C307 1.561 . S
C310 C307 1.526 . S
C310 C311 1.396 . S
C310 C315 1.390 . S
C311 C305 1.465 . S
C311 C310 1.396 . S
C311 C312 1.399 . S
C312 H298 0.929 . S
C312 C311 1.399 . S
C312 C313 1.385 . S
C313 H299 0.931 . S
C313 C312 1.385 . S
C313 C314 1.389 . S
C314 C313 1.389 . S
C314 C315 1.387 . S
C315 H300 0.930 . S
C315 C310 1.390 . S
C315 C314 1.387 . S
H316 C328 0.930 . S
H317 C330 0.930 . S
H318 C331 0.930 . S
H319 C335 0.959 . S
H320 C335 0.955 1_554 S
H321 C335 0.961 . S
H322 C336 0.960 . S
H323 C336 0.961 . S
H324 C336 0.959 . S
H325 C339 0.929 . S
H326 C340 0.931 . S
H327 C342 0.930 1_554 S
C328 H316 0.930 . S
C328 C329 1.399 . S
C328 C333 1.399 . S
C329 C328 1.399 . S
C329 C330 1.376 . S
C330 H317 0.930 . S
C330 C329 1.376 . S
C330 C331 1.388 . S
C331 H318 0.930 . S
C331 C330 1.388 . S
C331 C332 1.390 . S
C332 C331 1.390 . S
C332 C333 1.394 . S
C332 C338 1.465 . S
C333 C328 1.399 . S
C333 C332 1.394 . S
C333 C334 1.516 . S
C334 C333 1.516 . S
C334 C335 1.506 . S
C334 C336 1.561 . S
C334 C337 1.526 . S
C335 H319 0.959 . S
C335 H320 0.955 1_556 S
C335 H321 0.961 . S
C335 C334 1.506 . S
C336 H322 0.960 . S
C336 H323 0.961 . S
C336 H324 0.959 . S
C336 C334 1.561 . S
C337 C334 1.526 . S
C337 C338 1.396 . S
C337 C342 1.390 . S
C338 C332 1.465 . S
C338 C337 1.396 . S
C338 C339 1.399 . S
C339 H325 0.929 . S
C339 C338 1.399 . S
C339 C340 1.385 . S
C340 H326 0.931 . S
C340 C339 1.385 . S
C340 C341 1.389 . S
C341 C340 1.389 . S
C341 C342 1.387 . S
C342 H327 0.930 1_556 S
C342 C337 1.390 . S
C342 C341 1.387 . S
H343 C355 0.930 . S
H344 C357 0.930 . S
H345 C358 0.930 . S
H346 C362 0.959 . S
H347 C362 0.959 . S
H348 C362 0.961 . S
H349 C363 0.960 . S
H350 C363 0.961 . S
H351 C363 0.959 . S
H352 C366 0.929 . S
H353 C367 0.931 . S
H354 C369 0.930 . S
C355 H343 0.930 . S
C355 C356 1.399 . S
C355 C360 1.399 . S
C356 C355 1.399 . S
C356 C357 1.376 . S
C357 H344 0.930 . S
C357 C356 1.376 . S
C357 C358 1.388 . S
C358 H345 0.930 . S
C358 C357 1.388 . S
C358 C359 1.390 . S
C359 C358 1.390 . S
C359 C360 1.394 . S
C359 C365 1.465 . S
C360 C355 1.399 . S
C360 C359 1.394 . S
C360 C361 1.516 . S
C361 C360 1.516 . S
C361 C362 1.502 . S
C361 C363 1.561 . S
C361 C364 1.526 . S
C362 H346 0.959 . S
C362 H347 0.959 . S
C362 H348 0.961 . S
C362 C361 1.502 . S
C363 H349 0.960 . S
C363 H350 0.961 . S
C363 H351 0.959 . S
C363 C361 1.561 . S
C364 C361 1.526 . S
C364 C365 1.396 . S
C364 C369 1.390 . S
C365 C359 1.465 . S
C365 C364 1.396 . S
C365 C366 1.399 . S
C366 H352 0.929 . S
C366 C365 1.399 . S
C366 C367 1.385 . S
C367 H353 0.931 . S
C367 C366 1.385 . S
C367 C368 1.389 . S
C368 C367 1.389 . S
C368 C369 1.387 . S
C369 H354 0.930 . S
C369 C364 1.390 . S
C369 C368 1.387 . S
H370 C382 0.930 . S
H371 C384 0.910 1_545 S
H372 C385 0.930 . S
H373 C389 0.959 . S
H374 C389 0.959 . S
H375 C389 0.961 . S
H376 C390 0.960 . S
H377 C390 0.961 . S
H378 C390 0.959 . S
H379 C393 0.929 . S
H380 C394 0.931 . S
H381 C396 0.930 . S
C382 H370 0.930 . S
C382 C383 1.399 . S
C382 C387 1.399 . S
C383 C382 1.399 . S
C383 C384 1.376 . S
C384 H371 0.910 1_565 S
C384 C383 1.376 . S
C384 C385 1.388 . S
C385 H372 0.930 . S
C385 C384 1.388 . S
C385 C386 1.390 . S
C386 C385 1.390 . S
C386 C387 1.394 . S
C386 C392 1.465 . S
C387 C382 1.399 . S
C387 C386 1.394 . S
C387 C388 1.516 . S
C388 C387 1.516 . S
C388 C389 1.502 . S
C388 C390 1.561 . S
C388 C391 1.526 . S
C389 H373 0.959 . S
C389 H374 0.959 . S
C389 H375 0.961 . S
C389 C388 1.502 . S
C390 H376 0.960 . S
C390 H377 0.961 . S
C390 H378 0.959 . S
C390 C388 1.561 . S
C391 C388 1.526 . S
C391 C392 1.396 . S
C391 C396 1.390 . S
C392 C386 1.465 . S
C392 C391 1.396 . S
C392 C393 1.399 . S
C393 H379 0.929 . S
C393 C392 1.399 . S
C393 C394 1.385 . S
C394 H380 0.931 . S
C394 C393 1.385 . S
C394 C395 1.389 . S
C395 C394 1.389 . S
C395 C396 1.387 . S
C396 H381 0.930 . S
C396 C391 1.390 . S
C396 C395 1.387 . S
H397 C409 0.930 . S
H398 C411 0.930 . S
H399 C412 0.930 . S
H400 C416 0.959 . S
H401 C416 0.959 . S
H402 C416 0.961 . S
H403 C417 0.960 . S
H404 C417 0.961 . S
H405 C417 0.959 . S
H406 C420 0.929 . S
H407 C421 0.931 . S
H408 C423 0.930 . S
C409 H397 0.930 . S
C409 C410 1.399 . S
C409 C414 1.399 . S
C410 C409 1.399 . S
C410 C411 1.376 . S
C411 H398 0.930 . S
C411 C410 1.376 . S
C411 C412 1.388 . S
C412 H399 0.930 . S
C412 C411 1.388 . S
C412 C413 1.390 . S
C413 C412 1.390 . S
C413 C414 1.394 . S
C413 C419 1.465 . S
C414 C409 1.399 . S
C414 C413 1.394 . S
C414 C415 1.516 . S
C415 C414 1.516 . S
C415 C416 1.502 . S
C415 C417 1.561 . S
C415 C418 1.526 . S
C416 H400 0.959 . S
C416 H401 0.959 . S
C416 H402 0.961 . S
C416 C415 1.502 . S
C417 H403 0.960 . S
C417 H404 0.961 . S
C417 H405 0.959 . S
C417 C415 1.561 . S
C418 C415 1.526 . S
C418 C419 1.396 . S
C418 C423 1.390 . S
C419 C413 1.465 . S
C419 C418 1.396 . S
C419 C420 1.399 . S
C420 H406 0.929 . S
C420 C419 1.399 . S
C420 C421 1.385 . S
C421 H407 0.931 . S
C421 C420 1.385 . S
C421 C422 1.389 . S
C422 C421 1.389 . S
C422 C423 1.387 . S
C423 H408 0.930 . S
C423 C418 1.390 . S
C423 C422 1.387 . S
H424 C436 0.930 . S
H425 C438 0.930 . S
H426 C439 0.930 . S
H427 C443 0.959 . S
H428 C443 0.959 . S
H429 C443 0.961 . S
H430 C444 0.960 . S
H431 C444 0.961 . S
H432 C444 0.959 . S
H433 C447 0.929 . S
H434 C448 0.931 . S
H435 C450 0.930 . S
C436 H424 0.930 . S
C436 C437 1.399 . S
C436 C441 1.399 . S
C437 C436 1.399 . S
C437 C438 1.376 . S
C438 H425 0.930 . S
C438 C437 1.376 . S
C438 C439 1.388 . S
C439 H426 0.930 . S
C439 C438 1.388 . S
C439 C440 1.390 . S
C440 C439 1.390 . S
C440 C441 1.394 . S
C440 C446 1.465 . S
C441 C436 1.399 . S
C441 C440 1.394 . S
C441 C442 1.516 . S
C442 C441 1.516 . S
C442 C443 1.502 . S
C442 C444 1.561 . S
C442 C445 1.526 . S
C443 H427 0.959 . S
C443 H428 0.959 . S
C443 H429 0.961 . S
C443 C442 1.502 . S
C444 H430 0.960 . S
C444 H431 0.961 . S
C444 H432 0.959 . S
C444 C442 1.561 . S
C445 C442 1.526 . S
C445 C446 1.396 . S
C445 C450 1.390 . S
C446 C440 1.465 . S
C446 C445 1.396 . S
C446 C447 1.399 . S
C447 H433 0.929 . S
C447 C446 1.399 . S
C447 C448 1.385 . S
C448 H434 0.931 . S
C448 C447 1.385 . S
C448 C449 1.389 . S
C449 C448 1.389 . S
C449 C450 1.387 . S
C450 H435 0.930 . S
C450 C445 1.390 . S
C450 C449 1.387 . S
H451 C463 0.930 . S
H452 C465 0.930 . S
H453 C466 0.930 . S
H454 C470 0.959 . S
H455 C470 0.959 1_556 S
H456 C470 0.961 . S
H457 C471 0.960 . S
H458 C471 0.961 . S
H459 C471 0.959 . S
H460 C474 0.929 . S
H461 C475 0.931 . S
H462 C477 0.930 . S
C463 H451 0.930 . S
C463 C464 1.399 . S
C463 C468 1.399 . S
C464 C463 1.399 . S
C464 C465 1.376 . S
C465 H452 0.930 . S
C465 C464 1.376 . S
C465 C466 1.388 . S
C466 H453 0.930 . S
C466 C465 1.388 . S
C466 C467 1.390 . S
C467 C466 1.390 . S
C467 C468 1.394 . S
C467 C473 1.465 . S
C468 C463 1.399 . S
C468 C467 1.394 . S
C468 C469 1.516 . S
C469 C468 1.516 . S
C469 C470 1.502 . S
C469 C471 1.561 . S
C469 C472 1.526 . S
C470 H454 0.959 . S
C470 H455 0.959 1_554 S
C470 H456 0.961 . S
C470 C469 1.502 . S
C471 H457 0.960 . S
C471 H458 0.961 . S
C471 H459 0.959 . S
C471 C469 1.561 . S
C472 C469 1.526 . S
C472 C473 1.396 . S
C472 C477 1.390 . S
C473 C467 1.465 . S
C473 C472 1.396 . S
C473 C474 1.399 . S
C474 H460 0.929 . S
C474 C473 1.399 . S
C474 C475 1.385 . S
C475 H461 0.931 . S
C475 C474 1.385 . S
C475 C476 1.389 . S
C476 C475 1.389 . S
C476 C477 1.387 . S
C477 H462 0.930 . S
C477 C472 1.390 . S
C477 C476 1.387 . S
H478 C490 0.930 . S
H479 C492 0.930 . S
H480 C493 0.930 . S
H481 C497 0.959 . S
H482 C497 0.959 . S
H483 C497 0.961 . S
H484 C498 0.960 . S
H485 C498 0.961 . S
H486 C498 0.959 . S
H487 C501 0.929 . S
H488 C502 0.931 . S
H489 C504 0.930 . S
C490 H478 0.930 . S
C490 C491 1.399 . S
C490 C495 1.399 . S
C491 C490 1.399 . S
C491 C492 1.376 . S
C492 H479 0.930 . S
C492 C491 1.376 . S
C492 C493 1.388 . S
C493 H480 0.930 . S
C493 C492 1.388 . S
C493 C494 1.390 . S
C494 C493 1.390 . S
C494 C495 1.394 . S
C494 C500 1.465 . S
C495 C490 1.399 . S
C495 C494 1.394 . S
C495 C496 1.516 . S
C496 C495 1.516 . S
C496 C497 1.502 . S
C496 C498 1.561 . S
C496 C499 1.526 . S
C497 H481 0.959 . S
C497 H482 0.959 . S
C497 H483 0.961 . S
C497 C496 1.502 . S
C498 H484 0.960 . S
C498 H485 0.961 . S
C498 H486 0.959 . S
C498 C496 1.561 . S
C499 C496 1.526 . S
C499 C500 1.396 . S
C499 C504 1.390 . S
C500 C494 1.465 . S
C500 C499 1.396 . S
C500 C501 1.399 . S
C501 H487 0.929 . S
C501 C500 1.399 . S
C501 C502 1.385 . S
C502 H488 0.931 . S
C502 C501 1.385 . S
C502 C503 1.389 . S
C503 C502 1.389 . S
C503 C504 1.387 . S
C504 H489 0.930 . S
C504 C499 1.390 . S
C504 C503 1.387 . S
H505 C517 0.930 . S
H506 C519 0.930 . S
H507 C520 0.930 . S
H508 C524 0.959 . S
H509 C524 0.959 . S
H510 C524 0.961 . S
H511 C525 0.960 . S
H512 C525 0.961 . S
H513 C525 0.959 . S
H514 C528 0.929 . S
H515 C529 0.931 . S
H516 C531 0.930 . S
C517 H505 0.930 . S
C517 C518 1.399 . S
C517 C522 1.399 . S
C518 C517 1.399 . S
C518 C519 1.376 . S
C519 H506 0.930 . S
C519 C518 1.376 . S
C519 C520 1.388 . S
C520 H507 0.930 . S
C520 C519 1.388 . S
C520 C521 1.390 . S
C521 C520 1.390 . S
C521 C522 1.394 . S
C521 C527 1.465 . S
C522 C517 1.399 . S
C522 C521 1.394 . S
C522 C523 1.516 . S
C523 C522 1.516 . S
C523 C524 1.502 . S
C523 C525 1.561 . S
C523 C526 1.526 . S
C524 H508 0.959 . S
C524 H509 0.959 . S
C524 H510 0.961 . S
C524 C523 1.502 . S
C525 H511 0.960 . S
C525 H512 0.961 . S
C525 H513 0.959 . S
C525 C523 1.561 . S
C526 C523 1.526 . S
C526 C527 1.396 . S
C526 C531 1.390 . S
C527 C521 1.465 . S
C527 C526 1.396 . S
C527 C528 1.399 . S
C528 H514 0.929 . S
C528 C527 1.399 . S
C528 C529 1.385 . S
C529 H515 0.931 . S
C529 C528 1.385 . S
C529 C530 1.389 . S
C530 C529 1.389 . S
C530 C531 1.387 . S
C531 H516 0.930 . S
C531 C526 1.390 . S
C531 C530 1.387 . S
H532 C544 0.930 . S
H533 C546 0.930 . S
H534 C547 0.930 . S
H535 C551 0.959 . S
H536 C551 0.959 . S
H537 C551 0.961 . S
H538 C552 0.960 . S
H539 C552 0.961 . S
H540 C552 0.959 . S
H541 C555 0.929 . S
H542 C556 0.931 . S
H543 C558 0.930 . S
C544 H532 0.930 . S
C544 C545 1.399 . S
C544 C549 1.399 . S
C545 C544 1.399 . S
C545 C546 1.376 . S
C546 H533 0.930 . S
C546 C545 1.376 . S
C546 C547 1.388 . S
C547 H534 0.930 . S
C547 C546 1.388 . S
C547 C548 1.390 . S
C548 C547 1.390 . S
C548 C549 1.394 . S
C548 C554 1.465 . S
C549 C544 1.399 . S
C549 C548 1.394 . S
C549 C550 1.516 . S
C550 C549 1.516 . S
C550 C551 1.502 . S
C550 C552 1.561 . S
C550 C553 1.526 . S
C551 H535 0.959 . S
C551 H536 0.959 . S
C551 H537 0.961 . S
C551 C550 1.502 . S
C552 H538 0.960 . S
C552 H539 0.961 . S
C552 H540 0.959 . S
C552 C550 1.561 . S
C553 C550 1.526 . S
C553 C554 1.396 . S
C553 C558 1.390 . S
C554 C548 1.465 . S
C554 C553 1.396 . S
C554 C555 1.399 . S
C555 H541 0.929 . S
C555 C554 1.399 . S
C555 C556 1.385 . S
C556 H542 0.931 . S
C556 C555 1.385 . S
C556 C557 1.389 . S
C557 C556 1.389 . S
C557 C558 1.387 . S
C558 H543 0.930 . S
C558 C553 1.390 . S
C558 C557 1.387 . S
H559 C571 0.930 . S
H560 C573 0.930 . S
H561 C574 0.930 . S
H562 C578 0.959 . S
H563 C578 0.959 . S
H564 C578 0.961 . S
H565 C579 0.960 . S
H566 C579 0.961 . S
H567 C579 0.959 . S
H568 C582 0.929 . S
H569 C583 0.931 . S
H570 C585 0.930 . S
C571 H559 0.930 . S
C571 C572 1.399 . S
C571 C576 1.399 . S
C572 C571 1.399 . S
C572 C573 1.376 . S
C573 H560 0.930 . S
C573 C572 1.376 . S
C573 C574 1.388 . S
C574 H561 0.930 . S
C574 C573 1.388 . S
C574 C575 1.390 . S
C575 C574 1.390 . S
C575 C576 1.394 . S
C575 C581 1.465 . S
C576 C571 1.399 . S
C576 C575 1.394 . S
C576 C577 1.516 . S
C577 C576 1.516 . S
C577 C578 1.502 . S
C577 C579 1.561 . S
C577 C580 1.526 . S
C578 H562 0.959 . S
C578 H563 0.959 . S
C578 H564 0.961 . S
C578 C577 1.502 . S
C579 H565 0.960 . S
C579 H566 0.961 . S
C579 H567 0.959 . S
C579 C577 1.561 . S
C580 C577 1.526 . S
C580 C581 1.396 . S
C580 C585 1.390 . S
C581 C575 1.465 . S
C581 C580 1.396 . S
C581 C582 1.399 . S
C582 H568 0.929 . S
C582 C581 1.399 . S
C582 C583 1.385 . S
C583 H569 0.931 . S
C583 C582 1.385 . S
C583 C584 1.389 . S
C584 C583 1.389 . S
C584 C585 1.387 . S
C585 H570 0.930 . S
C585 C580 1.390 . S
C585 C584 1.387 . S
H586 C598 0.930 . S
H587 C600 0.930 . S
H588 C601 0.930 . S
H589 C605 0.959 . S
H590 C605 0.959 . S
H591 C605 0.961 . S
H592 C606 0.960 . S
H593 C606 0.961 . S
H594 C606 0.959 . S
H595 C609 0.929 1_554 S
H596 C610 0.931 . S
H597 C612 0.930 . S
C598 H586 0.930 . S
C598 C599 1.399 . S
C598 C603 1.399 . S
C599 C598 1.399 . S
C599 C600 1.376 . S
C600 H587 0.930 . S
C600 C599 1.376 . S
C600 C601 1.388 . S
C601 H588 0.930 . S
C601 C600 1.388 . S
C601 C602 1.390 . S
C602 C601 1.390 . S
C602 C603 1.394 . S
C602 C608 1.465 . S
C603 C598 1.399 . S
C603 C602 1.394 . S
C603 C604 1.516 . S
C604 C603 1.516 . S
C604 C605 1.502 . S
C604 C606 1.561 . S
C604 C607 1.526 . S
C605 H589 0.959 . S
C605 H590 0.959 . S
C605 H591 0.961 . S
C605 C604 1.502 . S
C606 H592 0.960 . S
C606 H593 0.961 . S
C606 H594 0.959 . S
C606 C604 1.561 . S
C607 C604 1.526 . S
C607 C608 1.396 . S
C607 C612 1.390 . S
C608 C602 1.465 . S
C608 C607 1.396 . S
C608 C609 1.399 . S
C609 H595 0.929 1_556 S
C609 C608 1.399 . S
C609 C610 1.385 1_556 S
C610 H596 0.931 . S
C610 C609 1.385 1_554 S
C610 C611 1.389 1_554 S
C611 C610 1.389 1_556 S
C611 C612 1.387 . S
C612 H597 0.930 . S
C612 C607 1.390 . S
C612 C611 1.387 . S
H613 C625 0.930 . S
H614 C627 0.930 . S
H615 C628 0.930 . S
H616 C632 0.959 . S
H617 C632 0.959 . S
H618 C632 0.961 . S
H619 C633 0.960 . S
H620 C633 0.961 . S
H621 C633 0.959 . S
H622 C636 0.929 . S
H623 C637 0.931 . S
H624 C639 0.930 . S
C625 H613 0.930 . S
C625 C626 1.399 . S
C625 C630 1.399 . S
C626 C625 1.399 . S
C626 C627 1.376 . S
C627 H614 0.930 . S
C627 C626 1.376 . S
C627 C628 1.388 . S
C628 H615 0.930 . S
C628 C627 1.388 . S
C628 C629 1.390 . S
C629 C628 1.390 . S
C629 C630 1.394 . S
C629 C635 1.465 . S
C630 C625 1.399 . S
C630 C629 1.394 . S
C630 C631 1.516 . S
C631 C630 1.516 . S
C631 C632 1.502 . S
C631 C633 1.561 . S
C631 C634 1.526 . S
C632 H616 0.959 . S
C632 H617 0.959 . S
C632 H618 0.961 . S
C632 C631 1.502 . S
C633 H619 0.960 . S
C633 H620 0.961 . S
C633 H621 0.959 . S
C633 C631 1.561 . S
C634 C631 1.526 . S
C634 C635 1.396 . S
C634 C639 1.390 . S
C635 C629 1.465 . S
C635 C634 1.396 . S
C635 C636 1.399 . S
C636 H622 0.929 . S
C636 C635 1.399 . S
C636 C637 1.385 . S
C637 H623 0.931 . S
C637 C636 1.385 . S
C637 C638 1.389 . S
C638 C637 1.389 . S
C638 C639 1.387 . S
C639 H624 0.930 . S
C639 C634 1.390 . S
C639 C638 1.387 . S
H640 C652 0.930 . S
H641 C654 0.930 . S
H642 C655 0.930 . S
H643 C659 0.959 . S
H644 C659 0.959 . S
H645 C659 0.961 . S
H646 C660 0.960 . S
H647 C660 0.961 . S
H648 C660 0.959 . S
H649 C663 0.929 . S
H650 C664 0.931 . S
H651 C666 0.930 . S
C652 H640 0.930 . S
C652 C653 1.399 . S
C652 C657 1.399 . S
C653 C652 1.399 . S
C653 C654 1.376 . S
C654 H641 0.930 . S
C654 C653 1.376 . S
C654 C655 1.388 . S
C655 H642 0.930 . S
C655 C654 1.388 . S
C655 C656 1.390 . S
C656 C655 1.390 . S
C656 C657 1.394 . S
C656 C662 1.465 . S
C657 C652 1.399 . S
C657 C656 1.394 . S
C657 C658 1.516 . S
C658 C657 1.516 . S
C658 C659 1.502 . S
C658 C660 1.561 . S
C658 C661 1.526 . S
C659 H643 0.959 . S
C659 H644 0.959 . S
C659 H645 0.961 . S
C659 C658 1.502 . S
C660 H646 0.960 . S
C660 H647 0.961 . S
C660 H648 0.959 . S
C660 C658 1.561 . S
C661 C658 1.526 . S
C661 C662 1.396 . S
C661 C666 1.390 . S
C662 C656 1.465 . S
C662 C661 1.396 . S
C662 C663 1.399 . S
C663 H649 0.929 . S
C663 C662 1.399 . S
C663 C664 1.385 . S
C664 H650 0.931 . S
C664 C663 1.385 . S
C664 C665 1.389 . S
C665 C664 1.389 . S
C665 C666 1.387 . S
C666 H651 0.930 . S
C666 C661 1.390 . S
C666 C665 1.387 . S
H667 C679 0.930 . S
H668 C681 0.930 . S
H669 C682 0.930 . S
H670 C686 0.959 . S
H671 C686 0.959 . S
H672 C686 0.961 . S
H673 C687 0.960 . S
H674 C687 0.961 . S
H675 C687 0.959 . S
H676 C690 0.929 . S
H677 C691 0.931 . S
H678 C693 0.930 . S
C679 H667 0.930 . S
C679 C680 1.399 . S
C679 C684 1.399 . S
C680 C679 1.399 . S
C680 C681 1.376 . S
C681 H668 0.930 . S
C681 C680 1.376 . S
C681 C682 1.388 . S
C682 H669 0.930 . S
C682 C681 1.388 . S
C682 C683 1.390 . S
C683 C682 1.390 . S
C683 C684 1.394 . S
C683 C689 1.465 . S
C684 C679 1.399 . S
C684 C683 1.394 . S
C684 C685 1.516 . S
C685 C684 1.516 . S
C685 C686 1.502 . S
C685 C687 1.561 . S
C685 C688 1.526 . S
C686 H670 0.959 . S
C686 H671 0.959 . S
C686 H672 0.961 . S
C686 C685 1.502 . S
C687 H673 0.960 . S
C687 H674 0.961 . S
C687 H675 0.959 . S
C687 C685 1.561 . S
C688 C685 1.526 . S
C688 C689 1.396 . S
C688 C693 1.390 . S
C689 C683 1.465 . S
C689 C688 1.396 . S
C689 C690 1.399 . S
C690 H676 0.929 . S
C690 C689 1.399 . S
C690 C691 1.385 . S
C691 H677 0.931 . S
C691 C690 1.385 . S
C691 C692 1.389 . S
C692 C691 1.389 . S
C692 C693 1.387 . S
C693 H678 0.930 . S
C693 C688 1.390 . S
C693 C692 1.387 . S
H694 C706 0.930 . S
H695 C708 0.930 . S
H696 C709 0.930 . S
H697 C713 0.959 . S
H698 C713 0.959 . S
H699 C713 0.961 . S
H700 C714 0.960 . S
H701 C714 0.961 . S
H702 C714 0.959 . S
H703 C717 0.929 . S
H704 C718 0.931 . S
H705 C720 0.930 . S
C706 H694 0.930 . S
C706 C707 1.399 . S
C706 C711 1.399 . S
C707 C706 1.399 . S
C707 C708 1.376 . S
C708 H695 0.930 . S
C708 C707 1.376 . S
C708 C709 1.388 . S
C709 H696 0.930 . S
C709 C708 1.388 . S
C709 C710 1.390 . S
C710 C709 1.390 . S
C710 C711 1.394 . S
C710 C716 1.465 . S
C711 C706 1.399 . S
C711 C710 1.394 . S
C711 C712 1.516 . S
C712 C711 1.516 . S
C712 C713 1.502 . S
C712 C714 1.561 . S
C712 C715 1.526 . S
C713 H697 0.959 . S
C713 H698 0.959 . S
C713 H699 0.961 . S
C713 C712 1.502 . S
C714 H700 0.960 . S
C714 H701 0.961 . S
C714 H702 0.959 . S
C714 C712 1.561 . S
C715 C712 1.526 . S
C715 C716 1.396 . S
C715 C720 1.390 . S
C716 C710 1.465 . S
C716 C715 1.396 . S
C716 C717 1.399 . S
C717 H703 0.929 . S
C717 C716 1.399 . S
C717 C718 1.385 . S
C718 H704 0.931 . S
C718 C717 1.385 . S
C718 C719 1.389 . S
C719 C718 1.389 . S
C719 C720 1.387 . S
C720 H705 0.930 . S
C720 C715 1.390 . S
C720 C719 1.387 . S
H721 C733 0.930 . S
H722 C735 0.930 . S
H723 C736 0.930 . S
H724 C740 0.959 . S
H725 C740 0.959 . S
H726 C740 0.961 . S
H727 C741 0.960 . S
H728 C741 0.961 . S
H729 C741 0.959 . S
H730 C744 0.929 . S
H731 C745 0.931 . S
H732 C747 0.930 . S
C733 H721 0.930 . S
C733 C734 1.399 . S
C733 C738 1.399 . S
C734 C733 1.399 . S
C734 C735 1.376 . S
C735 H722 0.930 . S
C735 C734 1.376 . S
C735 C736 1.388 . S
C736 H723 0.930 . S
C736 C735 1.388 . S
C736 C737 1.390 . S
C737 C736 1.390 . S
C737 C738 1.394 . S
C737 C743 1.465 . S
C738 C733 1.399 . S
C738 C737 1.394 . S
C738 C739 1.516 . S
C739 C738 1.516 . S
C739 C740 1.502 . S
C739 C741 1.561 . S
C739 C742 1.526 . S
C740 H724 0.959 . S
C740 H725 0.959 . S
C740 H726 0.961 . S
C740 C739 1.502 . S
C741 H727 0.960 . S
C741 H728 0.961 . S
C741 H729 0.959 . S
C741 C739 1.561 . S
C742 C739 1.526 . S
C742 C743 1.396 . S
C742 C747 1.390 . S
C743 C737 1.465 . S
C743 C742 1.396 . S
C743 C744 1.399 . S
C744 H730 0.929 . S
C744 C743 1.399 . S
C744 C745 1.385 . S
C745 H731 0.931 . S
C745 C744 1.385 . S
C745 C746 1.389 . S
C746 C745 1.389 . S
C746 C747 1.387 . S
C747 H732 0.930 . S
C747 C742 1.390 . S
C747 C746 1.387 . S
H748 C760 0.930 . S
H749 C762 0.930 . S
H750 C763 0.930 . S
H751 C767 0.959 . S
H752 C767 0.959 . S
H753 C767 0.961 . S
H754 C768 0.960 . S
H755 C768 0.961 . S
H756 C768 0.959 . S
H757 C771 0.929 . S
H758 C772 0.931 . S
H759 C774 0.930 . S
C760 H748 0.930 . S
C760 C761 1.399 . S
C760 C765 1.399 . S
C761 C760 1.399 . S
C761 C762 1.376 . S
C762 H749 0.930 . S
C762 C761 1.376 . S
C762 C763 1.388 . S
C763 H750 0.930 . S
C763 C762 1.388 . S
C763 C764 1.390 . S
C764 C763 1.390 . S
C764 C765 1.394 . S
C764 C770 1.465 . S
C765 C760 1.399 . S
C765 C764 1.394 . S
C765 C766 1.516 . S
C766 C765 1.516 . S
C766 C767 1.502 . S
C766 C768 1.561 . S
C766 C769 1.526 . S
C767 H751 0.959 . S
C767 H752 0.959 . S
C767 H753 0.961 . S
C767 C766 1.502 . S
C768 H754 0.960 . S
C768 H755 0.961 . S
C768 H756 0.959 . S
C768 C766 1.561 . S
C769 C766 1.526 . S
C769 C770 1.396 . S
C769 C774 1.390 . S
C770 C764 1.465 . S
C770 C769 1.396 . S
C770 C771 1.399 . S
C771 H757 0.929 . S
C771 C770 1.399 . S
C771 C772 1.385 . S
C772 H758 0.931 . S
C772 C771 1.385 . S
C772 C773 1.389 . S
C773 C772 1.389 . S
C773 C774 1.387 . S
C774 H759 0.930 . S
C774 C769 1.390 . S
C774 C773 1.387 . S
H775 C787 0.930 . S
H776 C789 0.930 . S
H777 C790 0.930 . S
H778 C794 0.959 . S
H779 C794 0.959 . S
H780 C794 0.961 . S
H781 C795 0.960 . S
H782 C795 0.961 . S
H783 C795 0.959 . S
H784 C798 0.929 . S
H785 C799 0.931 . S
H786 C801 0.930 . S
C787 H775 0.930 . S
C787 C788 1.399 . S
C787 C792 1.399 . S
C788 C787 1.399 . S
C788 C789 1.376 . S
C789 H776 0.930 . S
C789 C788 1.376 . S
C789 C790 1.388 . S
C790 H777 0.930 . S
C790 C789 1.388 . S
C790 C791 1.390 . S
C791 C790 1.390 . S
C791 C792 1.394 . S
C791 C797 1.465 . S
C792 C787 1.399 . S
C792 C791 1.394 . S
C792 C793 1.516 . S
C793 C792 1.516 . S
C793 C794 1.502 . S
C793 C795 1.561 . S
C793 C796 1.526 . S
C794 H778 0.959 . S
C794 H779 0.959 . S
C794 H780 0.961 . S
C794 C793 1.502 . S
C795 H781 0.960 . S
C795 H782 0.961 . S
C795 H783 0.959 . S
C795 C793 1.561 . S
C796 C793 1.526 . S
C796 C797 1.396 . S
C796 C801 1.390 . S
C797 C791 1.465 . S
C797 C796 1.396 . S
C797 C798 1.399 . S
C798 H784 0.929 . S
C798 C797 1.399 . S
C798 C799 1.385 . S
C799 H785 0.931 . S
C799 C798 1.385 . S
C799 C800 1.389 . S
C800 C799 1.389 . S
C800 C801 1.387 . S
C801 H786 0.930 . S
C801 C796 1.390 . S
C801 C800 1.387 . S
H802 C814 0.930 . S
H803 C816 0.930 1_545 S
H804 C817 0.930 . S
H805 C821 0.959 . S
H806 C821 0.959 . S
H807 C821 0.961 . S
H808 C822 0.960 . S
H809 C822 0.961 . S
H810 C822 0.959 . S
H811 C825 0.929 . S
H812 C826 0.931 . S
H813 C828 0.930 . S
C814 H802 0.930 . S
C814 C815 1.399 . S
C814 C819 1.399 . S
C815 C814 1.399 . S
C815 C816 1.376 . S
C816 H803 0.930 1_565 S
C816 C815 1.376 . S
C816 C817 1.388 . S
C817 H804 0.930 . S
C817 C816 1.388 . S
C817 C818 1.390 . S
C818 C817 1.390 . S
C818 C819 1.394 . S
C818 C824 1.465 . S
C819 C814 1.399 . S
C819 C818 1.394 . S
C819 C820 1.516 . S
C820 C819 1.516 . S
C820 C821 1.502 . S
C820 C822 1.561 . S
C820 C823 1.526 . S
C821 H805 0.959 . S
C821 H806 0.959 . S
C821 H807 0.961 . S
C821 C820 1.502 . S
C822 H808 0.960 . S
C822 H809 0.961 . S
C822 H810 0.959 . S
C822 C820 1.561 . S
C823 C820 1.526 . S
C823 C824 1.396 . S
C823 C828 1.390 . S
C824 C818 1.465 . S
C824 C823 1.396 . S
C824 C825 1.399 . S
C825 H811 0.929 . S
C825 C824 1.399 . S
C825 C826 1.385 . S
C826 H812 0.931 . S
C826 C825 1.385 . S
C826 C827 1.389 . S
C827 C826 1.389 . S
C827 C828 1.387 . S
C828 H813 0.930 . S
C828 C823 1.390 . S
C828 C827 1.387 . S
H829 C841 0.930 . S
H830 C843 0.930 . S
H831 C844 0.930 . S
H832 C848 0.959 . S
H833 C848 0.959 . S
H834 C848 0.961 . S
H835 C849 0.957 1_545 S
H836 C849 0.961 . S
H837 C849 0.959 . S
H838 C852 0.929 . S
H839 C853 0.931 . S
H840 C855 0.930 . S
C841 H829 0.930 . S
C841 C842 1.399 . S
C841 C846 1.399 . S
C842 C841 1.399 . S
C842 C843 1.376 . S
C843 H830 0.930 . S
C843 C842 1.376 . S
C843 C844 1.388 . S
C844 H831 0.930 . S
C844 C843 1.388 . S
C844 C845 1.390 . S
C845 C844 1.390 . S
C845 C846 1.394 . S
C845 C851 1.465 . S
C846 C841 1.399 . S
C846 C845 1.394 . S
C846 C847 1.516 . S
C847 C846 1.516 . S
C847 C848 1.502 . S
C847 C849 1.561 . S
C847 C850 1.526 . S
C848 H832 0.959 . S
C848 H833 0.959 . S
C848 H834 0.961 . S
C848 C847 1.502 . S
C849 H835 0.957 1_565 S
C849 H836 0.961 . S
C849 H837 0.959 . S
C849 C847 1.561 . S
C850 C847 1.526 . S
C850 C851 1.396 . S
C850 C855 1.390 . S
C851 C845 1.465 . S
C851 C850 1.396 . S
C851 C852 1.399 . S
C852 H838 0.929 . S
C852 C851 1.399 . S
C852 C853 1.385 . S
C853 H839 0.931 . S
C853 C852 1.385 . S
C853 C854 1.389 . S
C854 C853 1.389 . S
C854 C855 1.387 . S
C855 H840 0.930 . S
C855 C850 1.390 . S
C855 C854 1.387 . S
H856 C868 0.930 . S
H857 C870 0.930 . S
H858 C871 0.930 . S
H859 C875 0.959 . S
H860 C875 0.959 . S
H861 C875 0.961 . S
H862 C876 0.960 . S
H863 C876 0.961 . S
H864 C876 0.959 . S
H865 C879 0.929 . S
H866 C880 0.931 . S
H867 C882 0.930 . S
C868 H856 0.930 . S
C868 C869 1.399 . S
C868 C873 1.399 . S
C869 C868 1.399 . S
C869 C870 1.376 . S
C870 H857 0.930 . S
C870 C869 1.376 . S
C870 C871 1.388 . S
C871 H858 0.930 . S
C871 C870 1.388 . S
C871 C872 1.390 . S
C872 C871 1.390 . S
C872 C873 1.394 . S
C872 C878 1.465 . S
C873 C868 1.399 . S
C873 C872 1.394 . S
C873 C874 1.516 . S
C874 C873 1.516 . S
C874 C875 1.502 . S
C874 C876 1.561 . S
C874 C877 1.526 . S
C875 H859 0.959 . S
C875 H860 0.959 . S
C875 H861 0.961 . S
C875 C874 1.502 . S
C876 H862 0.960 . S
C876 H863 0.961 . S
C876 H864 0.959 . S
C876 C874 1.561 . S
C877 C874 1.526 . S
C877 C878 1.396 . S
C877 C882 1.390 . S
C878 C872 1.465 . S
C878 C877 1.396 . S
C878 C879 1.399 . S
C879 H865 0.929 . S
C879 C878 1.399 . S
C879 C880 1.385 . S
C880 H866 0.931 . S
C880 C879 1.385 . S
C880 C881 1.389 . S
C881 C880 1.389 . S
C881 C882 1.387 . S
C882 H867 0.930 . S
C882 C877 1.390 . S
C882 C881 1.387 . S
H883 C895 0.930 . S
H884 C897 0.930 . S
H885 C898 0.930 . S
H886 C902 0.959 . S
H887 C902 0.959 . S
H888 C902 0.961 . S
H889 C903 0.960 . S
H890 C903 0.961 . S
H891 C903 0.959 . S
H892 C906 0.929 . S
H893 C907 0.931 . S
H894 C909 0.930 . S
C895 H883 0.930 . S
C895 C896 1.399 . S
C895 C900 1.399 . S
C896 C895 1.399 . S
C896 C897 1.376 . S
C897 H884 0.930 . S
C897 C896 1.376 . S
C897 C898 1.388 . S
C898 H885 0.930 . S
C898 C897 1.388 . S
C898 C899 1.390 . S
C899 C898 1.390 . S
C899 C900 1.394 . S
C899 C905 1.465 . S
C900 C895 1.399 . S
C900 C899 1.394 . S
C900 C901 1.516 . S
C901 C900 1.516 . S
C901 C902 1.502 . S
C901 C903 1.561 . S
C901 C904 1.526 . S
C902 H886 0.959 . S
C902 H887 0.959 . S
C902 H888 0.961 . S
C902 C901 1.502 . S
C903 H889 0.960 . S
C903 H890 0.961 . S
C903 H891 0.959 . S
C903 C901 1.561 . S
C904 C901 1.526 . S
C904 C905 1.396 . S
C904 C909 1.390 . S
C905 C899 1.465 . S
C905 C904 1.396 . S
C905 C906 1.399 . S
C906 H892 0.929 . S
C906 C905 1.399 . S
C906 C907 1.385 . S
C907 H893 0.931 . S
C907 C906 1.385 . S
C907 C908 1.389 . S
C908 C907 1.389 . S
C908 C909 1.387 . S
C909 H894 0.930 . S
C909 C904 1.390 . S
C909 C908 1.387 . S
H910 C922 0.930 . S
H911 C924 0.930 . S
H912 C925 0.930 . S
H913 C929 0.959 . S
H914 C929 0.959 . S
H915 C929 0.961 . S
H916 C930 0.960 . S
H917 C930 0.961 . S
H918 C930 0.959 . S
H919 C933 0.929 . S
H920 C934 0.931 . S
H921 C936 0.930 . S
C922 H910 0.930 . S
C922 C923 1.399 . S
C922 C927 1.399 . S
C923 C922 1.399 . S
C923 C924 1.376 . S
C924 H911 0.930 . S
C924 C923 1.376 . S
C924 C925 1.388 . S
C925 H912 0.930 . S
C925 C924 1.388 . S
C925 C926 1.390 . S
C926 C925 1.390 . S
C926 C927 1.394 . S
C926 C932 1.465 . S
C927 C922 1.399 . S
C927 C926 1.394 . S
C927 C928 1.516 . S
C928 C927 1.516 . S
C928 C929 1.502 . S
C928 C930 1.561 . S
C928 C931 1.526 . S
C929 H913 0.959 . S
C929 H914 0.959 . S
C929 H915 0.961 . S
C929 C928 1.502 . S
C930 H916 0.960 . S
C930 H917 0.961 . S
C930 H918 0.959 . S
C930 C928 1.561 . S
C931 C928 1.526 . S
C931 C932 1.396 . S
C931 C936 1.390 . S
C932 C926 1.465 . S
C932 C931 1.396 . S
C932 C933 1.399 . S
C933 H919 0.929 . S
C933 C932 1.399 . S
C933 C934 1.385 . S
C934 H920 0.931 . S
C934 C933 1.385 . S
C934 C935 1.389 . S
C935 C934 1.389 . S
C935 C936 1.387 . S
C936 H921 0.930 . S
C936 C931 1.390 . S
C936 C935 1.387 . S
H937 C949 0.930 . S
H938 C951 0.930 . S
H939 C952 0.930 . S
H940 C956 0.959 . S
H941 C956 0.959 . S
H942 C956 0.961 . S
H943 C957 0.960 . S
H944 C957 0.961 . S
H945 C957 0.959 . S
H946 C960 0.929 . S
H947 C961 0.931 . S
H948 C963 0.930 . S
C949 H937 0.930 . S
C949 C950 1.399 . S
C949 C954 1.399 . S
C950 C949 1.399 . S
C950 C951 1.376 . S
C951 H938 0.930 . S
C951 C950 1.376 . S
C951 C952 1.388 . S
C952 H939 0.930 . S
C952 C951 1.388 . S
C952 C953 1.390 . S
C953 C952 1.390 . S
C953 C954 1.394 . S
C953 C959 1.465 . S
C954 C949 1.399 . S
C954 C953 1.394 . S
C954 C955 1.516 . S
C955 C954 1.516 . S
C955 C956 1.502 . S
C955 C957 1.561 . S
C955 C958 1.526 . S
C956 H940 0.959 . S
C956 H941 0.959 . S
C956 H942 0.961 . S
C956 C955 1.502 . S
C957 H943 0.960 . S
C957 H944 0.961 . S
C957 H945 0.959 . S
C957 C955 1.561 . S
C958 C955 1.526 . S
C958 C959 1.396 . S
C958 C963 1.390 . S
C959 C953 1.465 . S
C959 C958 1.396 . S
C959 C960 1.399 . S
C960 H946 0.929 . S
C960 C959 1.399 . S
C960 C961 1.385 . S
C961 H947 0.931 . S
C961 C960 1.385 . S
C961 C962 1.389 . S
C962 C961 1.389 . S
C962 C963 1.387 . S
C963 H948 0.930 . S
C963 C958 1.390 . S
C963 C962 1.387 . S
H964 C976 0.930 . S
H965 C978 0.931 1_565 S
H966 C979 0.930 . S
H967 C983 0.959 . S
H968 C983 0.959 . S
H969 C983 0.961 . S
H970 C984 0.960 . S
H971 C984 0.961 . S
H972 C984 0.959 . S
H973 C987 0.929 . S
H974 C988 0.931 . S
H975 C990 0.930 . S
C976 H964 0.930 . S
C976 C977 1.399 . S
C976 C981 1.399 . S
C977 C976 1.399 . S
C977 C978 1.376 . S
C978 H965 0.931 1_545 S
C978 C977 1.376 . S
C978 C979 1.388 . S
C979 H966 0.930 . S
C979 C978 1.388 . S
C979 C980 1.390 . S
C980 C979 1.390 . S
C980 C981 1.394 . S
C980 C986 1.465 . S
C981 C976 1.399 . S
C981 C980 1.394 . S
C981 C982 1.516 . S
C982 C981 1.516 . S
C982 C983 1.502 . S
C982 C984 1.561 . S
C982 C985 1.526 . S
C983 H967 0.959 . S
C983 H968 0.959 . S
C983 H969 0.961 . S
C983 C982 1.502 . S
C984 H970 0.960 . S
C984 H971 0.961 . S
C984 H972 0.959 . S
C984 C982 1.561 . S
C985 C982 1.526 . S
C985 C986 1.396 . S
C985 C990 1.390 . S
C986 C980 1.465 . S
C986 C985 1.396 . S
C986 C987 1.399 . S
C987 H973 0.929 . S
C987 C986 1.399 . S
C987 C988 1.385 . S
C988 H974 0.931 . S
C988 C987 1.385 . S
C988 C989 1.389 . S
C989 C988 1.389 . S
C989 C990 1.387 . S
C990 H975 0.930 . S
C990 C985 1.390 . S
C990 C989 1.387 . S
H991 C1003 0.930 . S
H992 C1005 0.930 . S
H993 C1006 0.930 . S
H994 C1010 0.959 . S
H995 C1010 0.959 . S
H996 C1010 0.961 . S
H997 C1011 0.960 . S
H998 C1011 0.961 . S
H999 C1011 0.959 . S
H1000 C1014 0.929 . S
H1001 C1015 0.931 . S
H1002 C1017 0.930 . S
C1003 H991 0.930 . S
C1003 C1004 1.399 . S
C1003 C1008 1.399 . S
C1004 C1003 1.399 . S
C1004 C1005 1.376 . S
C1005 H992 0.930 . S
C1005 C1004 1.376 . S
C1005 C1006 1.388 . S
C1006 H993 0.930 . S
C1006 C1005 1.388 . S
C1006 C1007 1.390 . S
C1007 C1006 1.390 . S
C1007 C1008 1.394 . S
C1007 C1013 1.465 . S
C1008 C1003 1.399 . S
C1008 C1007 1.394 . S
C1008 C1009 1.516 . S
C1009 C1008 1.516 . S
C1009 C1010 1.502 . S
C1009 C1011 1.561 . S
C1009 C1012 1.526 . S
C1010 H994 0.959 . S
C1010 H995 0.959 . S
C1010 H996 0.961 . S
C1010 C1009 1.502 . S
C1011 H997 0.960 . S
C1011 H998 0.961 . S
C1011 H999 0.959 . S
C1011 C1009 1.561 . S
C1012 C1009 1.526 . S
C1012 C1013 1.396 . S
C1012 C1017 1.390 . S
C1013 C1007 1.465 . S
C1013 C1012 1.396 . S
C1013 C1014 1.399 . S
C1014 H1000 0.929 . S
C1014 C1013 1.399 . S
C1014 C1015 1.385 . S
C1015 H1001 0.931 . S
C1015 C1014 1.385 . S
C1015 C1016 1.389 . S
C1016 C1015 1.389 . S
C1016 C1017 1.387 . S
C1017 H1002 0.930 . S
C1017 C1012 1.390 . S
C1017 C1016 1.387 . S
H1018 C1030 0.930 . S
H1019 C1032 0.930 . S
H1020 C1033 0.930 . S
H1021 C1037 0.959 . S
H1022 C1037 0.959 . S
H1023 C1037 0.961 . S
H1024 C1038 0.960 . S
H1025 C1038 0.961 . S
H1026 C1038 0.959 . S
H1027 C1041 0.929 . S
H1028 C1042 0.931 . S
H1029 C1044 0.930 . S
C1030 H1018 0.930 . S
C1030 C1031 1.399 . S
C1030 C1035 1.399 . S
C1031 C1030 1.399 . S
C1031 C1032 1.376 . S
C1032 H1019 0.930 . S
C1032 C1031 1.376 . S
C1032 C1033 1.388 . S
C1033 H1020 0.930 . S
C1033 C1032 1.388 . S
C1033 C1034 1.390 . S
C1034 C1033 1.390 . S
C1034 C1035 1.394 . S
C1034 C1040 1.465 . S
C1035 C1030 1.399 . S
C1035 C1034 1.394 . S
C1035 C1036 1.516 . S
C1036 C1035 1.516 . S
C1036 C1037 1.502 . S
C1036 C1038 1.561 . S
C1036 C1039 1.526 . S
C1037 H1021 0.959 . S
C1037 H1022 0.959 . S
C1037 H1023 0.961 . S
C1037 C1036 1.502 . S
C1038 H1024 0.960 . S
C1038 H1025 0.961 . S
C1038 H1026 0.959 . S
C1038 C1036 1.561 . S
C1039 C1036 1.526 . S
C1039 C1040 1.396 . S
C1039 C1044 1.390 . S
C1040 C1034 1.465 . S
C1040 C1039 1.396 . S
C1040 C1041 1.399 . S
C1041 H1027 0.929 . S
C1041 C1040 1.399 . S
C1041 C1042 1.385 . S
C1042 H1028 0.931 . S
C1042 C1041 1.385 . S
C1042 C1043 1.389 . S
C1043 C1042 1.389 . S
C1043 C1044 1.387 . S
C1044 H1029 0.930 . S
C1044 C1039 1.390 . S
C1044 C1043 1.387 . S
H1045 C1057 0.930 . S
H1046 C1059 0.930 . S
H1047 C1060 0.930 . S
H1048 C1064 0.959 . S
H1049 C1064 0.959 . S
H1050 C1064 0.961 . S
H1051 C1065 0.960 . S
H1052 C1065 0.961 . S
H1053 C1065 0.959 . S
H1054 C1068 0.929 . S
H1055 C1069 0.931 . S
H1056 C1071 0.930 . S
C1057 H1045 0.930 . S
C1057 C1058 1.399 . S
C1057 C1062 1.399 . S
C1058 C1057 1.399 . S
C1058 C1059 1.376 . S
C1059 H1046 0.930 . S
C1059 C1058 1.376 . S
C1059 C1060 1.388 . S
C1060 H1047 0.930 . S
C1060 C1059 1.388 . S
C1060 C1061 1.390 . S
C1061 C1060 1.390 . S
C1061 C1062 1.394 . S
C1061 C1067 1.465 . S
C1062 C1057 1.399 . S
C1062 C1061 1.394 . S
C1062 C1063 1.516 . S
C1063 C1062 1.516 . S
C1063 C1064 1.502 . S
C1063 C1065 1.561 . S
C1063 C1066 1.526 . S
C1064 H1048 0.959 . S
C1064 H1049 0.959 . S
C1064 H1050 0.961 . S
C1064 C1063 1.502 . S
C1065 H1051 0.960 . S
C1065 H1052 0.961 . S
C1065 H1053 0.959 . S
C1065 C1063 1.561 . S
C1066 C1063 1.526 . S
C1066 C1067 1.396 . S
C1066 C1071 1.390 . S
C1067 C1061 1.465 . S
C1067 C1066 1.396 . S
C1067 C1068 1.399 . S
C1068 H1054 0.929 . S
C1068 C1067 1.399 . S
C1068 C1069 1.385 . S
C1069 H1055 0.931 . S
C1069 C1068 1.385 . S
C1069 C1070 1.389 . S
C1070 C1069 1.389 . S
C1070 C1071 1.387 . S
C1071 H1056 0.930 . S
C1071 C1066 1.390 . S
C1071 C1070 1.387 . S
C233 C117 1.247 . S
C221 C5 1.274 . S
C260 C135 1.142 . S
C248 C18 1.260 . S
C287 C143 1.207 . S
C275 C31 1.300 . S
C302 C42 1.237 . S
C314 C109 1.158 . S
C329 C57 1.263 . S
C341 C104 1.268 . S
C356 C70 1.242 . S
C368 C122 1.239 . S
C395 C130 1.198 . S
C383 C81 1.271 . S
C422 C148 1.231 . S
C410 C96 1.275 . S
C437 C29 1.253 . S
C449 C169 1.221 . S
C476 C187 1.153 . S
C464 C44 1.252 . S
C491 C3 1.256 . S
C503 C195 1.259 . S
C530 C161 1.127 . S
C518 C16 1.236 . S
C545 C83 1.298 . S
C557 C156 1.221 . S
C572 C94 1.294 . S
C584 C174 1.244 . S
C611 C182 1.257 . S
C599 C55 1.309 . S
C626 C68 1.241 . S
C638 C200 1.120 . S
C665 C138 1.342 . S
C653 C1 1.307 . S
C692 C153 1.321 . S
C680 C14 1.334 . S
C707 C27 1.346 . S
C719 C112 1.348 . S
C734 C49 1.359 . S
C746 C127 1.311 . S
C761 C53 1.277 . S
C773 C151 1.337 . S
C800 C114 1.298 . S
C788 C66 1.302 . S
C827 C125 1.347 . S
C815 C88 1.339 . S
C854 C140 1.332 . S
C842 C92 1.325 . S
C881 C190 1.338 . S
C869 C36 1.326 . S
C908 C205 1.287 . S
C896 C40 1.350 . S
C923 C10 1.333 . S
C935 C164 1.338 . S
C962 C179 1.290 . S
C950 C23 1.329 . S
C989 C203 1.348 . S
C977 C79 1.345 . S
C1004 C101 1.353 . S
C1016 C166 1.344 . S
C1043 C177 1.339 . S
C1031 C62 1.321 . S
C1070 C192 1.345 . S
C1058 C75 1.353 . S
