# Generated by pormake.
# Topology nia, (6,6)-cn, num edge types: 1
# Building blocks:
#     Node 0, Type 0, BuildingBlock: MIFKUJ_clean_sbu_0, # of connection points: 6
#     Node 1, Type 0, BuildingBlock: MIFKUJ_clean_sbu_0, # of connection points: 6
#     Node 2, Type 1, BuildingBlock: MIDCAF_clean_sbu_0, # of connection points: 6
#     Node 3, Type 1, BuildingBlock: MIDCAF_clean_sbu_0, # of connection points: 6
#     Edge 4, Type (0, 1), BuildingBlock: XIVTED_clean_linker_0, # of connection points: 2
#     Edge 5, Type (0, 1), BuildingBlock: XIVTED_clean_linker_0, # of connection points: 2
#     Edge 6, Type (0, 1), BuildingBlock: XIVTED_clean_linker_0, # of connection points: 2
#     Edge 7, Type (0, 1), BuildingBlock: XIVTED_clean_linker_0, # of connection points: 2
#     Edge 8, Type (0, 1), BuildingBlock: XIVTED_clean_linker_0, # of connection points: 2
#     Edge 9, Type (0, 1), BuildingBlock: XIVTED_clean_linker_0, # of connection points: 2
#     Edge 10, Type (0, 1), BuildingBlock: XIVTED_clean_linker_0, # of connection points: 2
#     Edge 11, Type (0, 1), BuildingBlock: XIVTED_clean_linker_0, # of connection points: 2
#     Edge 12, Type (0, 1), BuildingBlock: XIVTED_clean_linker_0, # of connection points: 2
#     Edge 13, Type (0, 1), BuildingBlock: XIVTED_clean_linker_0, # of connection points: 2
#     Edge 14, Type (0, 1), BuildingBlock: XIVTED_clean_linker_0, # of connection points: 2
#     Edge 15, Type (0, 1), BuildingBlock: XIVTED_clean_linker_0, # of connection points: 2
# Relax obj value: 0.172
# Max RMSD: 0.250
# Mean RMSD: 0.184
data_MOF--net-nia--node1-MIFKUJ_clean_sbu_0--node2-MIDCAF_clean_sbu_0--edge1-XIVTED_clean_linker_0
_symmetry_space_group_name_H-M    P1
_symmetry_Int_Tables_number       1
_symmetry_cell_setting            triclinic
loop_
_symmetry_equiv_pos_as_xyz
'x, y, z'
_cell_length_a     26.51929
_cell_length_b     26.35431
_cell_length_c     26.700286
_cell_angle_alpha  88.489066
_cell_angle_beta   88.474463
_cell_angle_gamma 126.69349
loop_
_atom_site_label
_atom_site_type_symbol
_atom_site_fract_x
_atom_site_fract_y
_atom_site_fract_z
_atom_type_partial_charge
Zn0 Zn -0.00035 0.93721 0.14837 0.0
Zn1 Zn -0.03876 0.00104 1.08178 0.0
C2 C 0.93589 0.81575 0.10962 0.0
O3 O 0.92962 0.80236 0.15814 0.0
C4 C -0.02933 0.08097 0.15973 0.0
O5 O 0.9129 0.05707 0.1479 0.0
O6 O 0.03461 0.90552 0.19612 0.0
O7 O 0.07418 0.02147 0.11776 0.0
O8 O 0.03229 0.00726 1.04478 0.0
C9 C 0.09003 0.93668 0.2118 0.0
O10 O 0.1295 -0.00211 0.20075 0.0
O11 O -0.03629 0.87303 1.09396 0.0
C12 C 0.86908 0.00135 1.02492 0.0
O13 O 0.83183 0.94153 1.04091 0.0
O14 O 0.92667 0.03502 1.03573 0.0
O15 O 0.88749 0.91527 0.1101 0.0
O16 O 0.92667 0.92973 0.18411 0.0
O17 O -0.00033 0.06248 0.13762 0.0
C18 C 0.08067 0.03038 1.07027 0.0
C19 C 0.87915 0.9058 0.15743 0.0
Zn20 Zn 0.02321 0.95638 0.57664 0.0
Zn21 Zn 0.93815 -0.02332 0.64083 0.0
C22 C 0.1332 0.04729 0.63211 0.0
O23 O 0.15055 0.0832 0.59074 0.0
C24 C 0.82931 0.88551 0.5848 0.0
O25 O 0.81289 0.84972 0.62611 0.0
O26 O 0.06674 0.93448 0.52859 0.0
O27 O -0.05702 0.87347 0.60276 0.0
O28 O 0.93979 0.90876 0.6757 0.0
C29 C 0.03852 0.88635 0.50192 0.0
O30 O -0.02329 0.84974 0.50235 0.0
O31 O 0.0807 -0.00756 0.63492 0.0
C32 C 0.90107 0.05072 0.6688 0.0
O33 O 0.92463 0.07168 0.62263 0.0
O34 O 0.89921 0.00488 0.68791 0.0
O35 O 0.02119 0.05763 0.61724 0.0
O36 O 0.01986 0.02421 0.54267 0.0
O37 O 0.88108 0.941 0.58205 0.0
C38 C 0.92906 0.86384 0.64972 0.0
C39 C 0.03316 0.06885 0.57022 0.0
Zn40 Zn 0.30468 0.62779 0.25615 0.0
Zn41 Zn 0.31883 0.64903 0.45433 0.0
Zn42 Zn 0.31237 0.63294 0.3565 0.0
C43 C 0.44136 0.70849 0.41717 0.0
C44 C 0.24888 0.517 0.43836 0.0
O45 O 0.27476 0.68384 0.32792 0.0
O46 O 0.27215 0.67814 0.24527 0.0
C47 C 0.43155 0.68663 0.27872 0.0
O48 O 0.41248 0.6841 0.3766 0.0
O49 O 0.41131 0.70322 0.4568 0.0
O50 O 0.27203 0.55694 0.472 0.0
O51 O 0.25661 0.53572 0.39181 0.0
O52 O 0.3955 0.66693 0.24258 0.0
O53 O 0.40935 0.67975 0.32399 0.0
O54 O 0.25072 0.53097 0.33901 0.0
O55 O 0.24384 0.53451 0.2565 0.0
C56 C 0.22907 0.50295 0.29763 0.0
O57 O 0.27052 0.68183 0.38025 0.0
O58 O 0.27669 0.68987 0.46256 0.0
C59 C 0.26309 0.69724 0.28493 0.0
C60 C 0.25994 0.69903 0.42164 0.0
Zn61 Zn 0.64541 0.29339 0.9624 0.0
Zn62 Zn 0.64013 0.29198 0.77306 0.0
Zn63 Zn 0.64425 0.29989 0.86723 0.0
C64 C 0.69855 0.41928 0.79208 0.0
C65 C 0.51713 0.21944 0.80569 0.0
O66 O 0.68275 0.24794 0.89221 0.0
O67 O 0.65884 0.22784 0.97381 0.0
C68 C 0.7315 0.4212 0.93128 0.0
O69 O 0.69861 0.39945 0.83673 0.0
O70 O 0.67103 0.38028 0.75823 0.0
O71 O 0.54921 0.22467 0.7675 0.0
O72 O 0.54455 0.24743 0.84586 0.0
O73 O 0.71812 0.38318 0.96796 0.0
O74 O 0.70525 0.39995 0.88933 0.0
O75 O 0.54605 0.25283 0.8981 0.0
O76 O 0.5609 0.2706 0.97868 0.0
C77 C 0.52468 0.25039 0.94275 0.0
O78 O 0.68861 0.25438 0.84029 0.0
O79 O 0.69898 0.27171 0.75791 0.0
C80 C 0.68119 0.22152 0.93425 0.0
C81 C 0.70898 0.25152 0.7968 0.0
H82 H 0.20525 -0.01447 0.2503 0.0
H83 H 0.15507 0.65792 0.24207 0.0
H84 H 0.02633 0.80846 0.22452 0.0
H85 H 0.30771 0.81346 0.31976 0.0
H86 H 0.10911 0.71489 0.2336 0.0
H87 H 0.24546 0.92626 0.27606 0.0
C88 C 0.17416 0.93426 0.25068 0.0
C89 C 0.11251 0.90204 0.23462 0.0
C90 C 0.1524 0.73656 0.25287 0.0
C91 C 0.15853 0.83425 0.26326 0.0
C92 C 0.17872 0.7042 0.25741 0.0
C93 C 0.23496 0.73122 0.28165 0.0
C94 C 0.1834 0.7972 0.2716 0.0
C95 C 0.26406 0.79122 0.30093 0.0
C96 C 0.19716 0.90051 0.2654 0.0
C97 C 0.0743 0.83552 0.23616 0.0
N98 N 0.23825 0.82268 0.29506 0.0
N99 N 0.0982 0.804 0.24947 0.0
H100 H 0.14346 -0.02637 0.69865 0.0
H101 H 0.45064 0.26663 0.81902 0.0
H102 H 0.22381 0.16838 0.65722 0.0
H103 H 0.43163 0.09904 0.7784 0.0
H104 H 0.34487 0.22029 0.78919 0.0
H105 H 0.22774 0.01034 0.75697 0.0
C106 C 0.17799 0.02404 0.70267 0.0
C107 C 0.17738 0.06818 0.67268 0.0
C108 C 0.36336 0.19312 0.78818 0.0
C109 C 0.27249 0.11001 0.73965 0.0
C110 C 0.4232 0.21921 0.80544 0.0
C111 C 0.44931 0.18634 0.80094 0.0
C112 C 0.32956 0.13355 0.76723 0.0
C113 C 0.41271 0.12557 0.78239 0.0
C114 C 0.22595 0.04481 0.73577 0.0
C115 C 0.22325 0.13292 0.67921 0.0
N116 N 0.35464 0.10112 0.76595 0.0
N117 N 0.26921 0.15198 0.71191 0.0
H118 H 0.08969 0.14069 0.19359 0.0
H119 H 0.10395 0.4325 0.28598 0.0
H120 H 0.92839 0.1431 0.20304 0.0
H121 H 0.25604 0.418 0.30235 0.0
H122 H 0.03545 0.3215 0.26435 0.0
H123 H 0.14834 0.23665 0.24096 0.0
C124 C 0.06632 0.16093 0.20611 0.0
C125 C 0.0042 0.13418 0.1937 0.0
C126 C 0.08336 0.34191 0.27365 0.0
C127 C 0.07132 0.24437 0.24772 0.0
C128 C 0.12223 0.40511 0.28624 0.0
C129 C 0.18517 0.43369 0.29631 0.0
C130 C 0.10822 0.30761 0.26974 0.0
C131 C 0.20738 0.39703 0.29529 0.0
C132 C 0.09985 0.21571 0.23326 0.0
C133 C -0.02371 0.16227 0.2113 0.0
N134 N 0.16914 0.33597 0.28146 0.0
N135 N 0.01027 0.21619 0.23679 0.0
H136 H 0.82027 0.00494 0.75326 0.0
H137 H 0.82195 0.30995 0.74791 0.0
H138 H 0.93121 0.16735 0.64889 0.0
H139 H 0.67762 0.13605 0.83039 0.0
H140 H 0.87596 0.26398 0.72565 0.0
H141 H 0.77944 0.05706 0.79474 0.0
C142 C 0.8364 0.05165 0.7394 0.0
C143 C 0.87855 0.08159 0.69721 0.0
C144 C 0.83288 0.23585 0.74912 0.0
C145 C 0.83286 0.14126 0.74443 0.0
C146 C 0.80229 0.26224 0.76196 0.0
C147 C 0.74566 0.22667 0.79104 0.0
C148 C 0.80604 0.17281 0.76466 0.0
C149 C 0.72168 0.16498 0.8082 0.0
C150 C 0.81306 0.08121 0.76297 0.0
C151 C 0.89811 0.14207 0.68081 0.0
N152 N 0.75175 0.13955 0.79432 0.0
N153 N 0.87503 0.16968 0.70433 0.0
H154 H 0.77191 0.8163 0.11341 0.0
H155 H 0.536 0.78604 0.32301 0.0
H156 H 0.8388 0.90963 0.25253 0.0
H157 H 0.47956 0.65364 0.20716 0.0
H158 H 0.64693 0.83423 0.29951 0.0
H159 H 0.66409 0.7592 0.14744 0.0
C160 C 0.76382 0.82453 0.15134 0.0
C161 C 0.81432 0.86787 0.18016 0.0
C162 C 0.61014 0.794 0.27983 0.0
C163 C 0.69046 0.8029 0.2194 0.0
C164 C 0.54696 0.76605 0.29369 0.0
C165 C 0.49867 0.71504 0.26773 0.0
C166 C 0.6247 0.77139 0.23903 0.0
C167 C 0.51534 0.69299 0.22814 0.0
C168 C 0.70217 0.79172 0.17086 0.0
C169 C 0.80106 0.87636 0.2292 0.0
N170 N 0.57678 0.72145 0.21488 0.0
N171 N 0.7402 0.84465 0.24719 0.0
H172 H 0.8588 0.75228 0.60356 0.0
H173 H 0.80144 0.525 0.83311 0.0
H174 H 0.9225 0.82858 0.74877 0.0
H175 H 0.66952 0.46724 0.71716 0.0
H176 H 0.85708 0.63612 0.80214 0.0
H177 H 0.80156 0.64545 0.64229 0.0
C178 C 0.86096 0.74652 0.64359 0.0
C179 C 0.89524 0.79926 0.67305 0.0
C180 C 0.81538 0.59891 0.78414 0.0
C181 C 0.83022 0.67715 0.71753 0.0
C182 C 0.78327 0.5358 0.80216 0.0
C183 C 0.73028 0.487 0.77824 0.0
C184 C 0.79505 0.61251 0.7412 0.0
C185 C 0.7103 0.50327 0.73671 0.0
C186 C 0.82801 0.68558 0.66571 0.0
C187 C 0.89618 0.78899 0.72485 0.0
N188 N 0.74299 0.56439 0.71927 0.0
N189 N 0.86443 0.72894 0.74554 0.0
H190 H 0.16596 0.94829 0.49806 0.0
H191 H 0.15142 0.66442 0.37867 0.0
H192 H -0.00621 0.78005 0.44909 0.0
H193 H 0.30135 0.80727 0.46658 0.0
H194 H 0.09984 0.71674 0.387 0.0
H195 H 0.22321 0.90842 0.46806 0.0
C196 C 0.14021 0.90327 0.48045 0.0
C197 C 0.07469 0.86696 0.47692 0.0
C198 C 0.14429 0.73684 0.40404 0.0
C199 C 0.14019 0.82081 0.4427 0.0
C200 C 0.1737 0.70723 0.39913 0.0
C201 C 0.23052 0.73187 0.42199 0.0
C202 C 0.17231 0.79139 0.43182 0.0
C203 C 0.25744 0.7869 0.44854 0.0
C204 C 0.17298 0.88045 0.46343 0.0
C205 C 0.04415 0.80928 0.45315 0.0
N206 N 0.22811 0.81478 0.45275 0.0
N207 N 0.07706 0.7876 0.43741 0.0
H208 H 0.11509 0.02791 0.97274 0.0
H209 H 0.48103 0.29091 1.01125 0.0
H210 H 0.19139 0.11731 0.11195 0.0
H211 H 0.41788 0.15051 0.90109 0.0
H212 H 0.37171 0.24244 1.03728 0.0
H213 H 0.22311 0.08656 0.9353 0.0
C214 C 0.15446 0.06027 0.9952 0.0
C215 C 0.14444 0.0676 1.04558 0.0
C216 C 0.38163 0.22265 1.00692 0.0
C217 C 0.26707 0.13482 1.00305 0.0
C218 C 0.44397 0.25031 0.99199 0.0
C219 C 0.4584 0.22498 0.95357 0.0
C220 C 0.33304 0.16897 0.98344 0.0
C221 C 0.40861 0.17248 0.92981 0.0
C222 C 0.21584 0.09337 0.97392 0.0
C223 C 0.19696 0.10984 1.07313 0.0
N224 N 0.34784 0.1458 0.94532 0.0
N225 N 0.25588 0.1419 1.05148 0.0
H226 H 0.09722 0.17751 0.62034 0.0
H227 H 0.15354 0.40968 0.39326 0.0
H228 H 0.04224 0.10916 0.47186 0.0
H229 H 0.26844 0.47075 0.52132 0.0
H230 H 0.10258 0.2988 0.42179 0.0
H231 H 0.14916 0.28533 0.58616 0.0
C232 C 0.09605 0.18518 0.58046 0.0
C233 C 0.0655 0.13425 0.54887 0.0
C234 C 0.13948 0.33668 0.44319 0.0
C235 C 0.12471 0.25799 0.50945 0.0
C236 C 0.16913 0.39981 0.42647 0.0
C237 C 0.21646 0.44949 0.45401 0.0
C238 C 0.15642 0.32358 0.48847 0.0
C239 C 0.23222 0.43407 0.49875 0.0
C240 C 0.12594 0.24685 0.56093 0.0
C241 C 0.06565 0.1472 0.49744 0.0
N242 N 0.20217 0.37268 0.5146 0.0
N243 N 0.09453 0.20794 0.47926 0.0
H244 H 0.93168 0.12155 0.9812 0.0
H245 H 0.62289 0.10406 0.97783 0.0
H246 H 0.74498 0.94859 1.01375 0.0
H247 H 0.79612 0.25583 0.89956 0.0
H248 H 0.66767 0.04653 0.99107 0.0
H249 H 0.88464 0.17218 0.95006 0.0
C250 C 0.88088 0.09403 0.98132 0.0
C251 C 0.84224 0.03086 1.00055 0.0
C252 C 0.69575 0.09199 0.97036 0.0
C253 C 0.78828 0.08869 0.9656 0.0
C254 C 0.6702 0.12477 0.96293 0.0
C255 C 0.70583 0.18425 0.93728 0.0
C256 C 0.75805 0.11969 0.95315 0.0
C257 C 0.76709 0.20961 0.91908 0.0
C258 C 0.85409 0.12293 0.96346 0.0
C259 C 0.7767 -0.00257 0.99954 0.0
N260 N 0.79166 0.17745 0.92782 0.0
N261 N 0.75187 0.02696 0.98302 0.0
H262 H 0.81745 0.95715 0.51706 0.0
H263 H 0.50501 0.65768 0.40657 0.0
H264 H 0.73924 0.76364 0.56115 0.0
H265 H 0.53007 0.83085 0.43738 0.0
H266 H 0.61187 0.70476 0.43427 0.0
H267 H 0.73214 0.91831 0.45941 0.0
C268 C 0.78317 0.90656 0.51378 0.0
C269 C 0.7847 0.86343 0.54437 0.0
C270 C 0.59445 0.73291 0.43356 0.0
C271 C 0.68819 0.81908 0.47822 0.0
C272 C 0.53397 0.70634 0.41748 0.0
C273 C 0.50931 0.74072 0.41988 0.0
C274 C 0.63025 0.79433 0.45135 0.0
C275 C 0.54786 0.80313 0.43504 0.0
C276 C 0.73458 0.88455 0.48104 0.0
C277 C 0.73911 0.79839 0.53872 0.0
N278 N 0.60642 0.82794 0.4505 0.0
N279 N 0.69245 0.77812 0.50648 0.0
H280 H 0.93496 0.7136 0.1249 0.0
H281 H 0.71923 0.51543 0.90703 0.0
H282 H 0.89004 0.80236 1.01536 0.0
H283 H 0.84048 0.48035 0.97801 0.0
H284 H 0.77921 0.62101 0.94231 0.0
H285 H 0.89664 0.62617 1.07049 0.0
C286 C 0.91702 0.71464 1.08918 0.0
C287 C 0.91527 0.76497 1.07468 0.0
C288 C 0.79357 0.59074 0.94895 0.0
C289 C 0.87058 0.66437 1.01204 0.0
C290 C 0.75972 0.53084 0.9286 0.0
C291 C 0.77517 0.48945 0.93972 0.0
C292 C 0.84199 0.60812 0.98125 0.0
C293 C 0.82704 0.51089 0.96871 0.0
C294 C 0.89556 0.6649 1.0579 0.0
C295 C 0.89214 0.76425 1.02775 0.0
N296 N 0.85793 0.56822 0.98902 0.0
N297 N 0.86962 0.71402 0.99826 0.0
loop_
_geom_bond_atom_site_label_1
_geom_bond_atom_site_label_2
_geom_bond_distance
_geom_bond_site_symmetry_2
_ccdc_geom_bond_type
Zn0 O6 1.969 . S
Zn0 O7 1.965 1_565 S
Zn0 O11 2.025 1_554 S
Zn0 O16 1.969 1_455 S
Zn1 O8 1.969 . S
Zn1 O14 1.969 . S
Zn1 O15 1.965 1_446 S
Zn1 O17 2.024 1_556 S
C2 O3 1.229 . S
C2 O11 1.058 1_655 S
O3 C2 1.229 . S
C4 O5 1.229 . S
C4 O17 1.058 . S
O5 C4 1.229 . S
O6 Zn0 1.969 . S
O6 C9 1.267 . S
O7 Zn0 1.965 1_545 S
O7 C18 1.260 1_554 S
O8 Zn1 1.969 . S
O8 C18 1.258 . S
C9 O6 1.267 . S
C9 O10 1.228 . S
O10 C9 1.228 . S
O11 Zn0 2.025 1_556 S
O11 C2 1.058 1_455 S
C12 O13 1.228 . S
C12 O14 1.267 1_655 S
O13 C12 1.228 . S
O14 Zn1 1.969 . S
O14 C12 1.267 1_455 S
O15 Zn1 1.965 1_664 S
O15 C19 1.260 . S
O16 Zn0 1.969 1_655 S
O16 C19 1.258 . S
O17 Zn1 2.024 1_554 S
O17 C4 1.058 . S
C18 O7 1.260 1_556 S
C18 O8 1.258 . S
C19 O15 1.260 . S
C19 O16 1.258 . S
Zn20 O26 1.969 1_545 S
Zn20 O27 1.965 1_545 S
Zn20 O31 2.024 . S
Zn20 O36 1.969 . S
Zn21 O28 1.969 1_545 S
Zn21 O34 1.969 . S
Zn21 O35 1.965 1_655 S
Zn21 O37 2.024 1_545 S
C22 O23 1.229 . S
C22 O31 1.058 . S
O23 C22 1.229 . S
C24 O25 1.229 . S
C24 O37 1.058 . S
O25 C24 1.229 . S
O26 Zn20 1.969 1_565 S
O26 C29 1.267 . S
O27 Zn20 1.965 1_565 S
O27 C38 1.260 1_455 S
O28 Zn21 1.969 1_565 S
O28 C38 1.258 . S
C29 O26 1.267 . S
C29 O30 1.228 . S
O30 C29 1.228 . S
O31 Zn20 2.024 . S
O31 C22 1.058 . S
C32 O33 1.228 . S
C32 O34 1.267 . S
O33 C32 1.228 . S
O34 Zn21 1.969 . S
O34 C32 1.267 . S
O35 Zn21 1.965 1_455 S
O35 C39 1.260 . S
O36 Zn20 1.969 . S
O36 C39 1.258 . S
O37 Zn21 2.024 1_565 S
O37 C24 1.058 . S
C38 O27 1.260 1_655 S
C38 O28 1.258 . S
C39 O35 1.260 . S
C39 O36 1.258 . S
Zn40 O46 1.920 . S
Zn40 O52 1.898 . S
Zn40 O55 1.905 . S
Zn41 O49 1.905 . S
Zn41 O50 1.898 . S
Zn41 O58 1.920 . S
Zn42 O45 2.080 . S
Zn42 O48 2.114 . S
Zn42 O51 2.120 . S
Zn42 O53 2.120 . S
Zn42 O54 2.114 . S
Zn42 O57 2.080 . S
C43 O48 1.166 . S
C43 O49 1.182 . S
C44 O50 1.167 . S
C44 O51 1.299 . S
O45 Zn42 2.080 . S
O45 C59 1.305 . S
O46 Zn40 1.920 . S
O46 C59 1.234 . S
C47 O52 1.167 . S
C47 O53 1.299 . S
O48 Zn42 2.114 . S
O48 C43 1.166 . S
O49 Zn41 1.905 . S
O49 C43 1.182 . S
O50 Zn41 1.898 . S
O50 C44 1.167 . S
O51 Zn42 2.120 . S
O51 C44 1.299 . S
O52 Zn40 1.898 . S
O52 C47 1.167 . S
O53 Zn42 2.120 . S
O53 C47 1.299 . S
O54 Zn42 2.114 . S
O54 C56 1.166 . S
O55 Zn40 1.905 . S
O55 C56 1.182 . S
C56 O54 1.166 . S
C56 O55 1.182 . S
O57 Zn42 2.080 . S
O57 C60 1.305 . S
O58 Zn41 1.920 . S
O58 C60 1.234 . S
C59 O45 1.305 . S
C59 O46 1.234 . S
C60 O57 1.305 . S
C60 O58 1.234 . S
Zn61 O67 1.920 . S
Zn61 O73 1.898 . S
Zn61 O76 1.905 . S
Zn62 O70 1.905 . S
Zn62 O71 1.898 . S
Zn62 O79 1.920 . S
Zn63 O66 2.080 . S
Zn63 O69 2.114 . S
Zn63 O72 2.120 . S
Zn63 O74 2.120 . S
Zn63 O75 2.114 . S
Zn63 O78 2.080 . S
C64 O69 1.166 . S
C64 O70 1.182 . S
C65 O71 1.167 . S
C65 O72 1.299 . S
O66 Zn63 2.080 . S
O66 C80 1.305 . S
O67 Zn61 1.920 . S
O67 C80 1.234 . S
C68 O73 1.167 . S
C68 O74 1.299 . S
O69 Zn63 2.114 . S
O69 C64 1.166 . S
O70 Zn62 1.905 . S
O70 C64 1.182 . S
O71 Zn62 1.898 . S
O71 C65 1.167 . S
O72 Zn63 2.120 . S
O72 C65 1.299 . S
O73 Zn61 1.898 . S
O73 C68 1.167 . S
O74 Zn63 2.120 . S
O74 C68 1.299 . S
O75 Zn63 2.114 . S
O75 C77 1.166 . S
O76 Zn61 1.905 . S
O76 C77 1.182 . S
C77 O75 1.166 . S
C77 O76 1.182 . S
O78 Zn63 2.080 . S
O78 C81 1.305 . S
O79 Zn62 1.920 . S
O79 C81 1.234 . S
C80 O66 1.305 . S
C80 O67 1.234 . S
C81 O78 1.305 . S
C81 O79 1.234 . S
H82 C88 0.930 . S
H83 C92 0.930 . S
H84 C97 0.929 . S
H85 C95 0.929 . S
H86 C90 0.929 . S
H87 C96 0.929 . S
C88 H82 0.930 . S
C88 C89 1.367 . S
C88 C96 1.378 . S
C89 C88 1.367 . S
C89 C97 1.433 . S
C90 H86 0.929 . S
C90 C92 1.378 . S
C90 C94 1.350 . S
C91 C94 1.463 . S
C91 C96 1.350 . S
C91 N99 1.427 . S
C92 H83 0.930 . S
C92 C90 1.378 . S
C92 C93 1.367 . S
C93 C92 1.367 . S
C93 C95 1.433 . S
C94 C90 1.350 . S
C94 C91 1.463 . S
C94 N98 1.427 . S
C95 H85 0.929 . S
C95 C93 1.433 . S
C95 N98 1.384 . S
C96 H87 0.929 . S
C96 C88 1.378 . S
C96 C91 1.350 . S
C97 H84 0.929 . S
C97 C89 1.433 . S
C97 N99 1.384 . S
N98 C94 1.427 . S
N98 C95 1.384 . S
N99 C91 1.427 . S
N99 C97 1.384 . S
H100 C106 0.930 . S
H101 C110 0.930 . S
H102 C115 0.929 . S
H103 C113 0.929 . S
H104 C108 0.929 . S
H105 C114 0.929 . S
C106 H100 0.930 . S
C106 C107 1.367 . S
C106 C114 1.378 . S
C107 C106 1.367 . S
C107 C115 1.433 . S
C108 H104 0.929 . S
C108 C110 1.378 . S
C108 C112 1.350 . S
C109 C112 1.463 . S
C109 C114 1.350 . S
C109 N117 1.427 . S
C110 H101 0.930 . S
C110 C108 1.378 . S
C110 C111 1.367 . S
C111 C110 1.367 . S
C111 C113 1.433 . S
C112 C108 1.350 . S
C112 C109 1.463 . S
C112 N116 1.427 . S
C113 H103 0.929 . S
C113 C111 1.433 . S
C113 N116 1.384 . S
C114 H105 0.929 . S
C114 C106 1.378 . S
C114 C109 1.350 . S
C115 H102 0.929 . S
C115 C107 1.433 . S
C115 N117 1.384 . S
N116 C112 1.427 . S
N116 C113 1.384 . S
N117 C109 1.427 . S
N117 C115 1.384 . S
H118 C124 0.930 . S
H119 C128 0.930 . S
H120 C133 0.929 . S
H121 C131 0.929 . S
H122 C126 0.929 . S
H123 C132 0.929 . S
C124 H118 0.930 . S
C124 C125 1.367 . S
C124 C132 1.378 . S
C125 C124 1.367 . S
C125 C133 1.433 . S
C126 H122 0.929 . S
C126 C128 1.378 . S
C126 C130 1.350 . S
C127 C130 1.463 . S
C127 C132 1.350 . S
C127 N135 1.427 . S
C128 H119 0.930 . S
C128 C126 1.378 . S
C128 C129 1.367 . S
C129 C128 1.367 . S
C129 C131 1.433 . S
C130 C126 1.350 . S
C130 C127 1.463 . S
C130 N134 1.427 . S
C131 H121 0.929 . S
C131 C129 1.433 . S
C131 N134 1.384 . S
C132 H123 0.929 . S
C132 C124 1.378 . S
C132 C127 1.350 . S
C133 H120 0.929 . S
C133 C125 1.433 . S
C133 N135 1.384 . S
N134 C130 1.427 . S
N134 C131 1.384 . S
N135 C127 1.427 . S
N135 C133 1.384 . S
H136 C142 0.930 . S
H137 C146 0.930 . S
H138 C151 0.929 . S
H139 C149 0.929 . S
H140 C144 0.929 . S
H141 C150 0.929 . S
C142 H136 0.930 . S
C142 C143 1.367 . S
C142 C150 1.378 . S
C143 C142 1.367 . S
C143 C151 1.433 . S
C144 H140 0.929 . S
C144 C146 1.378 . S
C144 C148 1.350 . S
C145 C148 1.463 . S
C145 C150 1.350 . S
C145 N153 1.427 . S
C146 H137 0.930 . S
C146 C144 1.378 . S
C146 C147 1.367 . S
C147 C146 1.367 . S
C147 C149 1.433 . S
C148 C144 1.350 . S
C148 C145 1.463 . S
C148 N152 1.427 . S
C149 H139 0.929 . S
C149 C147 1.433 . S
C149 N152 1.384 . S
C150 H141 0.929 . S
C150 C142 1.378 . S
C150 C145 1.350 . S
C151 H138 0.929 . S
C151 C143 1.433 . S
C151 N153 1.384 . S
N152 C148 1.427 . S
N152 C149 1.384 . S
N153 C145 1.427 . S
N153 C151 1.384 . S
H154 C160 0.930 . S
H155 C164 0.930 . S
H156 C169 0.929 1_545 S
H157 C167 0.929 . S
H158 C162 0.929 . S
H159 C168 0.929 . S
C160 H154 0.930 . S
C160 C161 1.367 . S
C160 C168 1.378 . S
C161 C160 1.367 . S
C161 C169 1.433 . S
C162 H158 0.929 . S
C162 C164 1.378 . S
C162 C166 1.350 . S
C163 C166 1.463 . S
C163 C168 1.350 . S
C163 N171 1.427 . S
C164 H155 0.930 . S
C164 C162 1.378 . S
C164 C165 1.367 . S
C165 C164 1.367 . S
C165 C167 1.433 . S
C166 C162 1.350 . S
C166 C163 1.463 . S
C166 N170 1.427 . S
C167 H157 0.929 . S
C167 C165 1.433 . S
C167 N170 1.384 . S
C168 H159 0.929 . S
C168 C160 1.378 . S
C168 C163 1.350 . S
C169 H156 0.929 1_565 S
C169 C161 1.433 . S
C169 N171 1.384 . S
N170 C166 1.427 . S
N170 C167 1.384 . S
N171 C163 1.427 . S
N171 C169 1.384 . S
H172 C178 0.930 . S
H173 C182 0.930 . S
H174 C187 0.929 1_455 S
H175 C185 0.929 . S
H176 C180 0.929 . S
H177 C186 0.929 . S
C178 H172 0.930 . S
C178 C179 1.367 . S
C178 C186 1.378 . S
C179 C178 1.367 . S
C179 C187 1.433 . S
C180 H176 0.929 . S
C180 C182 1.378 . S
C180 C184 1.350 . S
C181 C184 1.463 . S
C181 C186 1.350 . S
C181 N189 1.427 . S
C182 H173 0.930 . S
C182 C180 1.378 . S
C182 C183 1.367 . S
C183 C182 1.367 . S
C183 C185 1.433 . S
C184 C180 1.350 . S
C184 C181 1.463 . S
C184 N188 1.427 . S
C185 H175 0.929 . S
C185 C183 1.433 . S
C185 N188 1.384 . S
C186 H177 0.929 . S
C186 C178 1.378 . S
C186 C181 1.350 . S
C187 H174 0.929 1_655 S
C187 C179 1.433 . S
C187 N189 1.384 . S
N188 C184 1.427 . S
N188 C185 1.384 . S
N189 C181 1.427 . S
N189 C187 1.384 . S
H190 C196 0.930 1_545 S
H191 C200 0.930 . S
H192 C205 0.929 . S
H193 C203 0.929 . S
H194 C198 0.929 . S
H195 C204 0.929 . S
C196 H190 0.930 1_565 S
C196 C197 1.367 . S
C196 C204 1.378 . S
C197 C196 1.367 . S
C197 C205 1.433 . S
C198 H194 0.929 . S
C198 C200 1.378 . S
C198 C202 1.350 . S
C199 C202 1.463 . S
C199 C204 1.350 . S
C199 N207 1.427 . S
C200 H191 0.930 . S
C200 C198 1.378 . S
C200 C201 1.367 . S
C201 C200 1.367 . S
C201 C203 1.433 . S
C202 C198 1.350 . S
C202 C199 1.463 . S
C202 N206 1.427 . S
C203 H193 0.929 . S
C203 C201 1.433 . S
C203 N206 1.384 . S
C204 H195 0.929 . S
C204 C196 1.378 . S
C204 C199 1.350 . S
C205 H192 0.929 . S
C205 C197 1.433 . S
C205 N207 1.384 . S
N206 C202 1.427 . S
N206 C203 1.384 . S
N207 C199 1.427 . S
N207 C205 1.384 . S
H208 C214 0.930 . S
H209 C218 0.930 . S
H210 C223 0.929 . S
H211 C221 0.929 . S
H212 C216 0.929 . S
H213 C222 0.929 . S
C214 H208 0.930 . S
C214 C215 1.367 . S
C214 C222 1.378 . S
C215 C214 1.367 . S
C215 C223 1.433 . S
C216 H212 0.929 . S
C216 C218 1.378 . S
C216 C220 1.350 . S
C217 C220 1.463 . S
C217 C222 1.350 . S
C217 N225 1.427 . S
C218 H209 0.930 . S
C218 C216 1.378 . S
C218 C219 1.367 . S
C219 C218 1.367 . S
C219 C221 1.433 . S
C220 C216 1.350 . S
C220 C217 1.463 . S
C220 N224 1.427 . S
C221 H211 0.929 . S
C221 C219 1.433 . S
C221 N224 1.384 . S
C222 H213 0.929 . S
C222 C214 1.378 . S
C222 C217 1.350 . S
C223 H210 0.929 . S
C223 C215 1.433 . S
C223 N225 1.384 . S
N224 C220 1.427 . S
N224 C221 1.384 . S
N225 C217 1.427 . S
N225 C223 1.384 . S
H226 C232 0.930 . S
H227 C236 0.930 . S
H228 C241 0.929 . S
H229 C239 0.929 . S
H230 C234 0.929 . S
H231 C240 0.929 . S
C232 H226 0.930 . S
C232 C233 1.367 . S
C232 C240 1.378 . S
C233 C232 1.367 . S
C233 C241 1.433 . S
C234 H230 0.929 . S
C234 C236 1.378 . S
C234 C238 1.350 . S
C235 C238 1.463 . S
C235 C240 1.350 . S
C235 N243 1.427 . S
C236 H227 0.930 . S
C236 C234 1.378 . S
C236 C237 1.367 . S
C237 C236 1.367 . S
C237 C239 1.433 . S
C238 C234 1.350 . S
C238 C235 1.463 . S
C238 N242 1.427 . S
C239 H229 0.929 . S
C239 C237 1.433 . S
C239 N242 1.384 . S
C240 H231 0.929 . S
C240 C232 1.378 . S
C240 C235 1.350 . S
C241 H228 0.929 . S
C241 C233 1.433 . S
C241 N243 1.384 . S
N242 C238 1.427 . S
N242 C239 1.384 . S
N243 C235 1.427 . S
N243 C241 1.384 . S
H244 C250 0.930 . S
H245 C254 0.930 . S
H246 C259 0.929 . S
H247 C257 0.929 . S
H248 C252 0.929 . S
H249 C258 0.929 . S
C250 H244 0.930 . S
C250 C251 1.367 . S
C250 C258 1.378 . S
C251 C250 1.367 . S
C251 C259 1.433 . S
C252 H248 0.929 . S
C252 C254 1.378 . S
C252 C256 1.350 . S
C253 C256 1.463 . S
C253 C258 1.350 . S
C253 N261 1.427 . S
C254 H245 0.930 . S
C254 C252 1.378 . S
C254 C255 1.367 . S
C255 C254 1.367 . S
C255 C257 1.433 . S
C256 C252 1.350 . S
C256 C253 1.463 . S
C256 N260 1.427 . S
C257 H247 0.929 . S
C257 C255 1.433 . S
C257 N260 1.384 . S
C258 H249 0.929 . S
C258 C250 1.378 . S
C258 C253 1.350 . S
C259 H246 0.929 . S
C259 C251 1.433 . S
C259 N261 1.384 . S
N260 C256 1.427 . S
N260 C257 1.384 . S
N261 C253 1.427 . S
N261 C259 1.384 . S
H262 C268 0.930 . S
H263 C272 0.930 . S
H264 C277 0.929 . S
H265 C275 0.929 . S
H266 C270 0.929 . S
H267 C276 0.929 . S
C268 H262 0.930 . S
C268 C269 1.367 . S
C268 C276 1.378 . S
C269 C268 1.367 . S
C269 C277 1.433 . S
C270 H266 0.929 . S
C270 C272 1.378 . S
C270 C274 1.350 . S
C271 C274 1.463 . S
C271 C276 1.350 . S
C271 N279 1.427 . S
C272 H263 0.930 . S
C272 C270 1.378 . S
C272 C273 1.367 . S
C273 C272 1.367 . S
C273 C275 1.433 . S
C274 C270 1.350 . S
C274 C271 1.463 . S
C274 N278 1.427 . S
C275 H265 0.929 . S
C275 C273 1.433 . S
C275 N278 1.384 . S
C276 H267 0.929 . S
C276 C268 1.378 . S
C276 C271 1.350 . S
C277 H264 0.929 . S
C277 C269 1.433 . S
C277 N279 1.384 . S
N278 C274 1.427 . S
N278 C275 1.384 . S
N279 C271 1.427 . S
N279 C277 1.384 . S
H280 C286 0.930 . S
H281 C290 0.930 . S
H282 C295 0.929 . S
H283 C293 0.929 . S
H284 C288 0.929 . S
H285 C294 0.929 . S
C286 H280 0.930 . S
C286 C287 1.367 . S
C286 C294 1.378 . S
C287 C286 1.367 . S
C287 C295 1.433 . S
C288 H284 0.929 . S
C288 C290 1.378 . S
C288 C292 1.350 . S
C289 C292 1.463 . S
C289 C294 1.350 . S
C289 N297 1.427 . S
C290 H281 0.930 . S
C290 C288 1.378 . S
C290 C291 1.367 . S
C291 C290 1.367 . S
C291 C293 1.433 . S
C292 C288 1.350 . S
C292 C289 1.463 . S
C292 N296 1.427 . S
C293 H283 0.929 . S
C293 C291 1.433 . S
C293 N296 1.384 . S
C294 H285 0.929 . S
C294 C286 1.378 . S
C294 C289 1.350 . S
C295 H282 0.929 . S
C295 C287 1.433 . S
C295 N297 1.384 . S
N296 C292 1.427 . S
N296 C293 1.384 . S
N297 C289 1.427 . S
N297 C295 1.384 . S
C89 C9 1.426 . S
C93 C59 1.331 . S
C107 C22 1.210 . S
C111 C65 1.131 . S
C125 C4 1.296 . S
C129 C56 1.181 . S
C143 C32 1.537 . S
C147 C81 1.396 . S
C161 C19 1.824 . S
C165 C47 1.678 . S
C183 C64 1.657 . S
C179 C38 1.750 . S
C197 C29 1.423 . S
C201 C60 1.321 . S
C219 C77 1.650 . S
C215 C18 1.758 . S
C237 C44 1.681 . S
C233 C39 1.824 . S
C255 C80 1.416 . S
C251 C12 1.532 . S
C273 C43 1.182 . S
C269 C24 1.295 . S
C291 C68 1.138 . S
C287 C2 1.208 . S
