# Generated by pormake.
# Topology scu, (8,4)-cn, num edge types: 1
# Building blocks:
#     Node 0, Type 0, BuildingBlock: GIZVER_clean_sbu_0, # of connection points: 8
#     Node 1, Type 1, BuildingBlock: KOZSID_clean_sbu_0, # of connection points: 4
#     Node 2, Type 1, BuildingBlock: KOZSID_clean_sbu_0, # of connection points: 4
#     Edge 3, Type (0, 1), BuildingBlock: XUDNAN_clean_linker_2, # of connection points: 2
#     Edge 4, Type (0, 1), BuildingBlock: XUDNAN_clean_linker_2, # of connection points: 2
#     Edge 5, Type (0, 1), BuildingBlock: XUDNAN_clean_linker_2, # of connection points: 2
#     Edge 6, Type (0, 1), BuildingBlock: XUDNAN_clean_linker_2, # of connection points: 2
#     Edge 7, Type (0, 1), BuildingBlock: XUDNAN_clean_linker_2, # of connection points: 2
#     Edge 8, Type (0, 1), BuildingBlock: XUDNAN_clean_linker_2, # of connection points: 2
#     Edge 9, Type (0, 1), BuildingBlock: XUDNAN_clean_linker_2, # of connection points: 2
#     Edge 10, Type (0, 1), BuildingBlock: XUDNAN_clean_linker_2, # of connection points: 2
# Relax obj value: 0.045
# Max RMSD: 0.113
# Mean RMSD: 0.103
data_MOF--net-scu--node1-GIZVER_clean_sbu_0--node2-KOZSID_clean_sbu_0--edge1-XUDNAN_clean_linker_2
_symmetry_space_group_name_H-M    P1
_symmetry_Int_Tables_number       1
_symmetry_cell_setting            triclinic
loop_
_symmetry_equiv_pos_as_xyz
'x, y, z'
_cell_length_a     26.553216
_cell_length_b     27.270302
_cell_length_c     23.869028
_cell_angle_alpha  94.823951
_cell_angle_beta   78.946579
_cell_angle_gamma 111.93303
loop_
_atom_site_label
_atom_site_type_symbol
_atom_site_fract_x
_atom_site_fract_y
_atom_site_fract_z
_atom_type_partial_charge
Co0 Co 1.00306 0.9439 0.14278 0.0
Co1 Co 0.0926 0.02203 0.10514 0.0
Co2 Co 1.00777 1.01 0.02098 0.0
O3 O 0.03903 0.97376 0.06785 0.0
H4 H 0.05465 0.9505 0.04448 0.0
O5 O 0.97692 0.04634 0.97373 0.0
Co6 Co 0.01257 0.07275 0.89713 0.0
Co7 Co 0.92209 0.99713 0.93856 0.0
H8 H 0.96248 0.0708 0.99632 0.0
O9 O 0.14801 1.0041 0.12245 0.0
O10 O 0.06572 0.99447 0.17755 0.0
O11 O 0.09612 0.09363 0.11218 0.0
O12 O 0.02537 0.07863 0.06748 0.0
O13 O 0.08083 0.03641 0.96914 0.0
O14 O 0.04282 0.10014 0.82844 0.0
O15 O 0.98641 0.1268 0.8955 0.0
O16 O 0.04812 0.02233 0.88774 0.0
O17 O 0.99004 0.94127 0.97482 0.0
O18 O 0.9171 0.92524 0.93338 0.0
O19 O 0.94676 0.02328 0.86552 0.0
O20 O 0.86619 0.01515 0.92447 0.0
C21 C 1.00259 0.88409 0.19264 0.0
C22 C 0.92776 0.9905 0.12675 0.0
C23 C 0.06001 0.10801 0.09839 0.0
C24 C 0.11478 0.99213 0.17107 0.0
C25 C 0.01582 0.13154 0.844 0.0
C26 C 0.08698 0.02815 0.9151 0.0
C27 C 0.95397 0.91123 0.94584 0.0
C28 C 0.89818 0.02725 0.8752 0.0
O29 O 0.97297 0.91294 0.20996 0.0
O30 O 0.0328 0.89208 0.14153 0.0
O31 O 0.93444 0.98361 0.07254 0.0
O32 O 0.96458 0.99191 0.15499 0.0
C33 C 0.05842 0.599 0.43582 0.0
C34 C 0.10894 0.63841 0.41703 0.0
C35 C 0.14555 0.63392 0.44763 0.0
C36 C 0.11563 0.59218 0.4833 0.0
N37 N 0.06249 0.56928 0.47667 0.0
Co38 Co 1.00536 0.50906 0.52261 0.0
N39 N 0.0618 0.49283 0.55395 0.0
C40 C 0.11465 0.52519 0.55273 0.0
C41 C 0.14388 0.50461 0.57901 0.0
C42 C 0.10711 0.45627 0.59842 0.0
C43 C 0.05735 0.44996 0.58261 0.0
N44 N 0.94834 0.44898 0.56877 0.0
C45 C 0.95347 0.40959 0.59595 0.0
C46 C 0.90241 0.37561 0.62239 0.0
C47 C 0.86424 0.39493 0.61248 0.0
C48 C 0.89385 0.43923 0.5803 0.0
N49 N 0.94881 0.52544 0.49147 0.0
C50 C 0.89411 0.50617 0.51119 0.0
C51 C 0.86469 0.5237 0.48173 0.0
C52 C 0.9032 0.55694 0.44144 0.0
C53 C 0.95431 0.55824 0.44886 0.0
N54 N 0.01021 0.46037 0.4581 0.0
C55 C 0.01662 0.39015 0.36607 0.0
C56 C 0.96556 0.39008 0.3955 0.0
C57 C 0.96327 0.42515 0.44129 0.0
C58 C 0.06447 0.42606 0.38405 0.0
C59 C 0.06038 0.46092 0.42981 0.0
N60 N 1.00045 0.55765 0.58739 0.0
C61 C 0.99534 0.64105 0.62444 0.0
C62 C 0.99388 0.62716 0.68011 0.0
C63 C 0.99561 0.57755 0.68827 0.0
C64 C 0.99875 0.54351 0.64161 0.0
C65 C 0.9987 0.60596 0.57894 0.0
H66 H 0.99979 0.50569 0.64967 0.0
H67 H 1.00012 0.61829 0.53692 0.0
H68 H 0.9233 0.42351 0.46312 0.0
H69 H 0.09793 0.48833 0.44218 0.0
C70 C 0.13687 0.57101 0.52027 0.0
C71 C 1.00671 0.59638 0.41959 0.0
C72 C 1.006 0.40486 0.60004 0.0
C73 C 0.87142 0.46766 0.55332 0.0
H74 H 0.11803 0.66846 0.38582 0.0
H75 H 0.18886 0.65819 0.4442 0.0
H76 H 0.18708 0.52209 0.58251 0.0
H77 H 0.11573 0.42915 0.62229 0.0
H78 H 0.89348 0.34051 0.64635 0.0
H79 H 0.81995 0.37761 0.62546 0.0
H80 H 0.82044 0.51311 0.48828 0.0
H81 H 0.89482 0.57902 0.4111 0.0
H82 H 0.92741 0.36255 0.38379 0.0
H83 H 0.10487 0.42787 0.36238 0.0
H84 H 0.99486 0.67921 0.61577 0.0
H85 H 0.99391 0.56471 0.73054 0.0
C86 C 0.42062 0.97051 0.62363 0.0
C87 C 0.38814 0.92261 0.64969 0.0
C88 C 0.40407 0.88484 0.61884 0.0
C89 C 0.44507 0.91167 0.57581 0.0
N90 N 0.45702 0.96446 0.57773 0.0
Co91 Co 0.51055 0.01744 0.5204 0.0
N92 N 0.53321 0.96165 0.47434 0.0
C93 C 0.51486 0.90971 0.48666 0.0
C94 C 0.53984 0.88144 0.44906 0.0
C95 C 0.57708 0.9176 0.4108 0.0
C96 C 0.5726 0.96605 0.42739 0.0
N97 N 0.5621 0.07003 0.46165 0.0
C98 C 0.59697 0.06381 0.41437 0.0
C99 C 0.62544 0.11095 0.38534 0.0
C100 C 0.6082 0.14829 0.41543 0.0
C101 C 0.57032 0.12203 0.46094 0.0
N102 N 0.48997 0.07369 0.56798 0.0
C103 C 0.51147 0.12624 0.55801 0.0
C104 C 0.48935 0.15513 0.59794 0.0
C105 C 0.45117 0.11888 0.63556 0.0
C106 C 0.45209 0.06974 0.61616 0.0
N107 N 0.5712 0.03002 0.56396 0.0
C108 C 0.65802 0.04831 0.62507 0.0
C109 C 0.65387 0.08933 0.59713 0.0
C110 C 0.61055 0.07948 0.56736 0.0
C111 C 0.61806 0.99775 0.62134 0.0
C112 C 0.57545 0.98955 0.5908 0.0
N113 N 0.44969 1.00489 0.47705 0.0
C114 C 0.3876 0.03706 0.44307 0.0
C115 C 0.35747 0.98645 0.42493 0.0
C116 C 0.37505 0.94537 0.43136 0.0
C117 C 0.42071 0.95527 0.45787 0.0
C118 C 0.43369 0.0455 0.46794 0.0
H119 H 0.43123 0.92204 0.46299 0.0
H120 H 0.45529 0.08524 0.47994 0.0
H121 H 0.6099 0.11265 0.54741 0.0
H122 H 0.54629 0.95015 0.5897 0.0
C123 C 0.47347 0.8886 0.53335 0.0
C124 C 0.41451 0.02039 0.6435 0.0
C125 C 0.60669 0.01497 0.39708 0.0
C126 C 0.5471 0.1462 0.50714 0.0
H127 H 0.35584 0.91567 0.68681 0.0
H128 H 0.38737 0.84275 0.62652 0.0
H129 H 0.53207 0.83957 0.44955 0.0
H130 H 0.60458 0.90928 0.37486 0.0
H131 H 0.65666 0.118 0.34728 0.0
H132 H 0.62318 0.19007 0.40648 0.0
H133 H 0.49831 0.19726 0.59839 0.0
H134 H 0.42457 0.12743 0.67224 0.0
H135 H 0.68413 0.1291 0.59784 0.0
H136 H 0.61883 0.96467 0.64281 0.0
H137 H 0.3758 0.07015 0.43774 0.0
H138 H 0.35288 0.90558 0.41729 0.0
H139 H 0.1106 0.16939 0.18399 0.0
H140 H 0.99143 0.15591 0.07621 0.0
H141 H 0.97108 0.22983 0.1297 0.0
H142 H 0.03221 0.19263 0.31206 0.0
H143 H 0.09001 0.23869 0.34143 0.0
H144 H 0.09947 0.1885 0.2912 0.0
H145 H 0.17575 0.26031 0.22583 0.0
H146 H 0.16685 0.31079 0.2761 0.0
H147 H 0.16095 0.31395 0.20261 0.0
H148 H 0.95846 0.30078 0.19992 0.0
H149 H 0.95646 0.36464 0.27933 0.0
H150 H 0.08301 0.33109 0.34204 0.0
C151 C 0.08115 0.18268 0.17058 0.0
C152 C 0.05304 0.15692 0.12529 0.0
C153 C 0.0139 0.17508 0.1103 0.0
C154 C 1.00197 0.21706 0.14055 0.0
C155 C 0.0295 0.24065 0.18575 0.0
C156 C 0.06854 0.22431 0.20049 0.0
C157 C 0.09002 0.25418 0.25281 0.0
C158 C 0.07714 0.21623 0.30228 0.0
C159 C 0.15208 0.28675 0.23845 0.0
C160 C 0.05666 0.28963 0.26555 0.0
C161 C 0.02206 0.28127 0.22631 0.0
C162 C 0.98569 0.30788 0.23059 0.0
C163 C 0.98459 0.34385 0.27611 0.0
C164 C 0.01961 0.35305 0.31697 0.0
C165 C 0.05634 0.32565 0.3111 0.0
H166 H 0.89392 0.99535 0.2429 0.0
H167 H 0.84482 1.00038 0.08072 0.0
H168 H 0.75855 1.00936 0.13208 0.0
H169 H 0.76027 0.91824 0.31624 0.0
H170 H 0.76966 0.95279 0.38347 0.0
H171 H 0.82837 0.94859 0.33398 0.0
H172 H 0.87487 0.05075 0.33505 0.0
H173 H 0.81629 0.05525 0.38459 0.0
H174 H 0.83856 0.09023 0.31813 0.0
H175 H 0.67627 0.01602 0.20147 0.0
H176 H 0.60448 0.01914 0.28384 0.0
H177 H 0.70678 1.00913 0.40021 0.0
C178 C 0.86526 0.99866 0.21804 0.0
C179 C 0.87638 0.99717 0.1576 0.0
C180 C 0.83739 1.00131 0.12696 0.0
C181 C 0.78824 1.00652 0.15578 0.0
C182 C 0.77849 1.00751 0.21531 0.0
C183 C 0.81593 1.00369 0.2461 0.0
C184 C 0.7951 1.00468 0.30981 0.0
C185 C 0.78792 0.953 0.33748 0.0
C186 C 0.83349 0.05312 0.33858 0.0
C187 C 0.73992 1.00931 0.31012 0.0
C188 C 0.73117 0.01111 0.25516 0.0
C189 C 0.68281 0.01483 0.24463 0.0
C190 C 0.64236 0.01661 0.29144 0.0
C191 C 0.65056 0.01463 0.34788 0.0
C192 C 0.69991 1.01096 0.35728 0.0
H193 H 0.03983 0.79901 0.17231 0.0
H194 H 0.96766 0.88265 0.30698 0.0
H195 H 0.9646 0.82081 0.37739 0.0
H196 H 0.95968 0.66848 0.22613 0.0
H197 H 0.01475 0.64337 0.20817 0.0
H198 H 0.01475 0.69587 0.16712 0.0
H199 H 0.11195 0.75418 0.18728 0.0
H200 H 0.11228 0.70182 0.2284 0.0
H201 H 0.12343 0.7666 0.26002 0.0
H202 H 0.96612 0.74998 0.43421 0.0
H203 H 0.97127 0.67178 0.47417 0.0
H204 H 0.04031 0.62919 0.30607 0.0
C205 C 0.02374 0.80439 0.21665 0.0
C206 C 1.0036 0.84587 0.23362 0.0
C207 C 0.98281 0.85121 0.29227 0.0
C208 C 0.98108 0.81628 0.33297 0.0
C209 C 1.00023 0.77558 0.31502 0.0
C210 C 0.02125 0.76919 0.25842 0.0
C211 C 0.03762 0.72068 0.25134 0.0
C212 C 1.00473 0.67968 0.21078 0.0
C213 C 0.10003 0.73679 0.23052 0.0
C214 C 0.02134 0.70055 0.31246 0.0
C215 C 1.00045 0.73349 0.34833 0.0
C216 C 0.98237 0.72384 0.40656 0.0
C217 C 0.98529 0.67925 0.4289 0.0
C218 C 1.00559 0.64414 0.39329 0.0
C219 C 0.02432 0.65524 0.33422 0.0
H220 H 0.20109 0.95972 0.16666 0.0
H221 H 0.07481 0.99776 0.2854 0.0
H222 H 0.1178 0.99014 0.36592 0.0
H223 H 0.21472 0.86469 0.26281 0.0
H224 H 0.2879 0.8854 0.2373 0.0
H225 H 0.24266 0.88663 0.19037 0.0
H226 H 0.30041 0.98577 0.17098 0.0
H227 H 0.34548 0.98511 0.21805 0.0
H228 H 0.31109 0.03186 0.23028 0.0
H229 H 0.18403 0.99417 0.43076 0.0
H230 H 0.26302 1.00074 0.47585 0.0
H231 H 0.34278 0.95456 0.31579 0.0
C232 C 0.18178 0.96537 0.20971 0.0
C233 C 0.13495 0.97986 0.21983 0.0
C234 C 0.11073 0.98667 0.27671 0.0
C235 C 0.13486 0.98239 0.32267 0.0
C236 C 0.18235 0.97002 0.31102 0.0
C237 C 0.2048 0.96042 0.25596 0.0
C238 C 0.25754 0.95053 0.25438 0.0
C239 C 0.25026 0.89341 0.23508 0.0
C240 C 0.30649 0.99072 0.21618 0.0
C241 C 0.26314 0.95912 0.31672 0.0
C242 C 0.2191 0.96988 0.34884 0.0
C243 C 0.21789 0.98436 0.40639 0.0
C244 C 0.26289 0.98823 0.43156 0.0
C245 C 0.30817 0.97726 0.39934 0.0
C246 C 0.30784 0.96175 0.34153 0.0
H247 H 0.9066 0.85331 0.85724 0.0
H248 H 0.0175 0.85939 0.97196 0.0
H249 H 0.03612 0.78409 0.91953 0.0
H250 H 0.85135 0.70935 0.83589 0.0
H251 H 0.84978 0.71471 0.76153 0.0
H252 H 0.84109 0.76529 0.81176 0.0
H253 H 0.92234 0.83617 0.74994 0.0
H254 H 0.93172 0.78586 0.69985 0.0
H255 H 0.98851 0.82922 0.73264 0.0
H256 H 0.04699 0.71144 0.85037 0.0
H257 H 0.04958 0.64816 0.77047 0.0
H258 H 0.93267 0.69108 0.7004 0.0
C259 C 0.93379 0.83809 0.87236 0.0
C260 C 0.96006 0.862 0.91931 0.0
C261 C 0.9965 0.84155 0.9365 0.0
C262 C 1.00737 0.79878 0.90692 0.0
C263 C 0.98168 0.77698 0.86008 0.0
C264 C 0.94553 0.7959 0.84302 0.0
C265 C 0.926 0.76794 0.78917 0.0
C266 C 0.86333 0.73751 0.80028 0.0
C267 C 0.94319 0.80714 0.74001 0.0
C268 C 0.95716 0.73057 0.77821 0.0
C269 C 0.98874 0.73607 0.81978 0.0
C270 C 0.022 0.7065 0.81792 0.0
C271 C 0.02302 0.67046 0.77244 0.0
C272 C 0.99124 0.66441 0.72909 0.0
C273 C 0.9578 0.69494 0.73248 0.0
H274 H 0.11778 0.01627 0.79912 0.0
H275 H 0.17696 0.03452 0.95998 0.0
H276 H 0.26626 0.03315 0.9082 0.0
H277 H 0.18574 0.92768 0.73137 0.0
H278 H 0.20139 0.95646 0.66191 0.0
H279 H 0.14151 0.95751 0.71174 0.0
H280 H 0.17626 0.05936 0.70318 0.0
H281 H 0.23626 0.0586 0.65345 0.0
H282 H 0.24418 0.09916 0.71721 0.0
H283 H 0.35031 0.03186 0.83877 0.0
H284 H 0.42237 0.0299 0.75619 0.0
H285 H 0.30921 0.0127 0.64078 0.0
C286 C 0.14934 0.01967 0.82359 0.0
C287 C 0.1401 0.02551 0.88381 0.0
C288 C 0.18281 0.03004 0.91394 0.0
C289 C 0.23378 0.02928 0.88488 0.0
C290 C 0.24161 0.02389 0.8256 0.0
C291 C 0.20054 0.01902 0.79526 0.0
C292 C 0.21984 0.01439 0.73162 0.0
C293 C 0.18505 0.96082 0.70777 0.0
C294 C 0.21909 0.06064 0.69949 0.0
C295 C 0.27832 0.01786 0.73088 0.0
C296 C 0.29 0.02317 0.78559 0.0
C297 C 0.34155 0.02756 0.7958 0.0
C298 C 0.38215 0.02646 0.74889 0.0
C299 C 0.37093 0.02112 0.69272 0.0
C300 C 0.31844 0.01674 0.68358 0.0
H301 H 0.97217 0.21226 0.85671 0.0
H302 H 0.06193 0.13555 0.73188 0.0
H303 H 0.06535 0.19395 0.65767 0.0
H304 H 0.89143 0.23362 0.75857 0.0
H305 H 0.89499 0.29755 0.78833 0.0
H306 H 0.89729 0.24832 0.83266 0.0
H307 H 0.98948 0.3143 0.85872 0.0
H308 H 0.98733 0.36347 0.81429 0.0
H309 H 0.04659 0.34428 0.80242 0.0
H310 H 0.06131 0.2606 0.59565 0.0
H311 H 0.05155 0.33437 0.55073 0.0
H312 H 0.96691 0.37197 0.71275 0.0
C313 C 0.99245 0.20778 0.81378 0.0
C314 C 0.0169 0.16896 0.80076 0.0
C315 C 0.04301 0.16475 0.74372 0.0
C316 C 0.04509 0.19776 0.70079 0.0
C317 C 0.02095 0.23544 0.71481 0.0
C318 C 0.99519 0.24096 0.76981 0.0
C319 C 0.97379 0.28596 0.77278 0.0
C320 C 0.91062 0.26511 0.78907 0.0
C321 C 1.00093 0.32959 0.81454 0.0
C322 C 0.99238 0.30503 0.71128 0.0
C323 C 0.019 0.27476 0.67861 0.0
C324 C 0.04031 0.28447 0.62073 0.0
C325 C 0.03457 0.32636 0.59549 0.0
C326 C 1.00785 0.35831 0.62786 0.0
C327 C 0.98662 0.3475 0.68668 0.0
H328 H 0.86252 0.97499 0.77914 0.0
H329 H 0.88353 0.12006 0.87719 0.0
H330 H 0.83334 0.14619 0.81545 0.0
H331 H 0.86573 0.02739 0.63628 0.0
H332 H 0.81209 0.96727 0.61914 0.0
H333 H 0.85939 0.9651 0.66307 0.0
H334 H 0.77684 0.91762 0.74158 0.0
H335 H 0.72934 0.92032 0.69846 0.0
H336 H 0.72744 0.9482 0.76969 0.0
H337 H 0.77105 0.15118 0.75253 0.0
H338 H 0.70011 0.13479 0.69298 0.0
H339 H 0.71606 0.98492 0.63608 0.0
C340 C 0.85855 0.01326 0.78566 0.0
C341 C 0.87849 0.04662 0.8313 0.0
C342 C 0.87005 0.09502 0.8411 0.0
C343 C 0.84151 0.11007 0.80635 0.0
C344 C 0.82092 0.0758 0.7625 0.0
C345 C 0.82913 0.02842 0.75183 0.0
C346 C 0.79677 0.99593 0.7068 0.0
C347 C 0.83583 0.9885 0.65313 0.0
C348 C 0.75514 0.94237 0.73058 0.0
C349 C 0.76778 0.03162 0.6953 0.0
C350 C 0.78303 0.07782 0.72723 0.0
C351 C 0.75954 0.11561 0.72646 0.0
C352 C 0.71932 0.10597 0.69226 0.0
C353 C 0.70259 0.05874 0.65927 0.0
C354 C 0.72768 0.02135 0.66076 0.0
loop_
_geom_bond_atom_site_label_1
_geom_bond_atom_site_label_2
_geom_bond_distance
_geom_bond_site_symmetry_2
_ccdc_geom_bond_type
Co0 O3 2.042 1_655 S
Co0 O10 2.264 1_655 S
Co0 O29 2.286 . S
Co0 O30 2.069 1_655 S
Co0 O32 2.015 . S
Co1 O3 2.122 1_545 S
Co1 O9 2.073 . S
Co1 O10 2.327 1_545 S
Co1 O11 1.976 . S
Co2 O3 2.099 1_545 S
Co2 O5 2.075 1_454 S
Co2 O12 2.126 . S
Co2 O13 2.147 1_554 S
Co2 O17 2.097 1_444 S
Co2 O31 2.140 1_445 S
O3 Co0 2.042 1_455 S
O3 Co1 2.122 1_565 S
O3 Co2 2.099 1_565 S
O3 H4 0.980 . S
H4 O3 0.980 . S
O5 Co2 2.075 1_656 S
O5 Co6 2.042 1_655 S
O5 Co7 2.122 1_545 S
O5 H8 0.980 . S
Co6 O5 2.042 1_455 S
Co6 O14 2.286 . S
Co6 O15 2.069 1_455 S
Co6 O16 2.015 . S
Co6 O19 2.264 1_455 S
Co7 O5 2.122 1_565 S
Co7 O18 1.976 . S
Co7 O19 2.327 1_565 S
Co7 O20 2.073 . S
H8 O5 0.980 . S
O9 Co1 2.073 . S
O9 C24 1.245 1_545 S
O10 Co0 2.264 1_455 S
O10 Co1 2.327 1_565 S
O10 C24 1.257 . S
O11 Co1 1.976 . S
O11 C23 1.251 . S
O12 Co2 2.126 . S
O12 C23 1.274 . S
O13 Co2 2.147 1_556 S
O13 C26 1.246 . S
O14 Co6 2.286 . S
O14 C25 1.259 1_455 S
O15 Co6 2.069 1_655 S
O15 C25 1.289 . S
O16 Co6 2.015 . S
O16 C26 1.257 . S
O17 Co2 2.097 1_666 S
O17 C27 1.274 . S
O18 Co7 1.976 . S
O18 C27 1.251 . S
O19 Co6 2.264 1_655 S
O19 Co7 2.327 1_545 S
O19 C28 1.257 . S
O20 Co7 2.073 . S
O20 C28 1.245 1_565 S
C21 O29 1.259 1_455 S
C21 O30 1.289 . S
C22 O31 1.246 . S
C22 O32 1.257 . S
C23 O11 1.251 . S
C23 O12 1.274 . S
C24 O9 1.245 1_565 S
C24 O10 1.257 . S
C25 O14 1.259 1_655 S
C25 O15 1.289 . S
C26 O13 1.246 . S
C26 O16 1.257 . S
C27 O17 1.274 . S
C27 O18 1.251 . S
C28 O19 1.257 . S
C28 O20 1.245 1_545 S
O29 Co0 2.286 . S
O29 C21 1.259 1_655 S
O30 Co0 2.069 1_455 S
O30 C21 1.289 . S
O31 Co2 2.140 1_665 S
O31 C22 1.246 . S
O32 Co0 2.015 . S
O32 C22 1.257 . S
C33 C34 1.443 . S
C33 N37 1.376 . S
C33 C71 1.389 . S
C34 C33 1.443 . S
C34 C35 1.340 . S
C34 H74 0.951 . S
C35 C34 1.340 . S
C35 C36 1.439 . S
C35 H75 0.950 . S
C36 C35 1.439 . S
C36 N37 1.374 . S
C36 C70 1.395 . S
N37 C33 1.376 . S
N37 C36 1.374 . S
N37 Co38 2.014 . S
Co38 N37 2.014 . S
Co38 N39 2.008 . S
Co38 N44 2.003 1_455 S
Co38 N49 1.981 1_455 S
Co38 N54 2.286 . S
Co38 N60 2.279 1_455 S
N39 Co38 2.008 . S
N39 C40 1.376 . S
N39 C43 1.383 . S
C40 N39 1.376 . S
C40 C41 1.446 . S
C40 C70 1.391 . S
C41 C40 1.446 . S
C41 C42 1.339 . S
C41 H76 0.949 . S
C42 C41 1.339 . S
C42 C43 1.439 . S
C42 H77 0.950 . S
C43 N39 1.383 . S
C43 C42 1.439 . S
C43 C72 1.393 1_455 S
N44 Co38 2.003 1_655 S
N44 C45 1.376 . S
N44 C48 1.374 . S
C45 N44 1.376 . S
C45 C46 1.443 . S
C45 C72 1.387 . S
C46 C45 1.443 . S
C46 C47 1.340 . S
C46 H78 0.951 . S
C47 C46 1.340 . S
C47 C48 1.439 . S
C47 H79 0.950 . S
C48 N44 1.374 . S
C48 C47 1.439 . S
C48 C73 1.395 . S
N49 Co38 1.981 1_655 S
N49 C50 1.376 . S
N49 C53 1.383 . S
C50 N49 1.376 . S
C50 C51 1.446 . S
C50 C73 1.391 . S
C51 C50 1.446 . S
C51 C52 1.339 . S
C51 H80 0.949 . S
C52 C51 1.339 . S
C52 C53 1.439 . S
C52 H81 0.950 . S
C53 N49 1.383 . S
C53 C52 1.439 . S
C53 C71 1.392 1_655 S
N54 Co38 2.286 . S
N54 C57 1.332 1_455 S
N54 C59 1.332 . S
C55 C56 1.386 1_455 S
C55 C58 1.388 . S
C56 C55 1.386 1_655 S
C56 C57 1.382 . S
C56 H82 0.950 . S
C57 N54 1.332 1_655 S
C57 C56 1.382 . S
C57 H68 0.952 . S
C58 C55 1.388 . S
C58 C59 1.382 . S
C58 H83 0.950 . S
C59 N54 1.332 . S
C59 C58 1.382 . S
C59 H69 0.948 . S
N60 Co38 2.279 1_655 S
N60 C64 1.332 1_655 S
N60 C65 1.332 . S
C61 C62 1.388 1_655 S
C61 C65 1.382 . S
C61 H84 0.950 . S
C62 C61 1.388 1_455 S
C62 C63 1.385 . S
C63 C62 1.385 . S
C63 C64 1.382 . S
C63 H85 0.950 . S
C64 N60 1.332 1_455 S
C64 C63 1.382 . S
C64 H66 0.952 . S
C65 N60 1.332 . S
C65 C61 1.382 . S
C65 H67 0.948 . S
H66 C64 0.952 . S
H67 C65 0.948 . S
H68 C57 0.952 . S
H69 C59 0.948 . S
C70 C36 1.395 . S
C70 C40 1.391 . S
C71 C33 1.389 . S
C71 C53 1.392 1_455 S
C72 C43 1.393 1_655 S
C72 C45 1.387 . S
C73 C48 1.395 . S
C73 C50 1.391 . S
H74 C34 0.951 . S
H75 C35 0.950 . S
H76 C41 0.949 . S
H77 C42 0.950 . S
H78 C46 0.951 . S
H79 C47 0.950 . S
H80 C51 0.949 . S
H81 C52 0.950 . S
H82 C56 0.950 . S
H83 C58 0.950 . S
H84 C61 0.950 . S
H85 C63 0.950 . S
C86 C87 1.443 . S
C86 N90 1.376 . S
C86 C124 1.387 . S
C87 C86 1.443 . S
C87 C88 1.340 . S
C87 H127 0.951 . S
C88 C87 1.340 . S
C88 C89 1.439 . S
C88 H128 0.950 . S
C89 C88 1.439 . S
C89 N90 1.374 . S
C89 C123 1.395 . S
N90 C86 1.376 . S
N90 C89 1.374 . S
N90 Co91 2.002 1_565 S
Co91 N90 2.002 1_545 S
Co91 N92 1.984 1_545 S
Co91 N97 2.015 . S
Co91 N102 2.006 . S
Co91 N107 2.277 1_545 S
Co91 N113 2.288 . S
N92 Co91 1.984 1_565 S
N92 C93 1.376 . S
N92 C96 1.383 . S
C93 N92 1.376 . S
C93 C94 1.446 . S
C93 C123 1.391 . S
C94 C93 1.446 . S
C94 C95 1.339 . S
C94 H129 0.949 . S
C95 C94 1.339 . S
C95 C96 1.439 . S
C95 H130 0.950 . S
C96 N92 1.383 . S
C96 C95 1.439 . S
C96 C125 1.392 1_565 S
N97 Co91 2.015 . S
N97 C98 1.376 . S
N97 C101 1.374 . S
C98 N97 1.376 . S
C98 C99 1.443 . S
C98 C125 1.389 . S
C99 C98 1.443 . S
C99 C100 1.340 . S
C99 H131 0.951 . S
C100 C99 1.340 . S
C100 C101 1.439 . S
C100 H132 0.950 . S
C101 N97 1.374 . S
C101 C100 1.439 . S
C101 C126 1.395 . S
N102 Co91 2.006 . S
N102 C103 1.376 . S
N102 C106 1.383 . S
C103 N102 1.376 . S
C103 C104 1.446 . S
C103 C126 1.391 . S
C104 C103 1.446 . S
C104 C105 1.339 . S
C104 H133 0.949 . S
C105 C104 1.339 . S
C105 C106 1.439 . S
C105 H134 0.950 . S
C106 N102 1.383 . S
C106 C105 1.439 . S
C106 C124 1.393 1_545 S
N107 Co91 2.277 1_565 S
N107 C110 1.332 1_565 S
N107 C112 1.332 . S
C108 C109 1.385 . S
C108 C111 1.389 1_545 S
C109 C108 1.385 . S
C109 C110 1.382 . S
C109 H135 0.950 . S
C110 N107 1.332 1_545 S
C110 C109 1.382 . S
C110 H121 0.952 . S
C111 C108 1.389 1_565 S
C111 C112 1.382 . S
C111 H136 0.950 . S
C112 N107 1.332 . S
C112 C111 1.382 . S
C112 H122 0.948 . S
N113 Co91 2.288 . S
N113 C117 1.332 1_545 S
N113 C118 1.332 . S
C114 C115 1.388 . S
C114 C118 1.382 . S
C114 H137 0.950 . S
C115 C114 1.388 . S
C115 C116 1.386 1_545 S
C116 C115 1.386 1_565 S
C116 C117 1.382 . S
C116 H138 0.950 . S
C117 N113 1.332 1_565 S
C117 C116 1.382 . S
C117 H119 0.952 . S
C118 N113 1.332 . S
C118 C114 1.382 . S
C118 H120 0.948 . S
H119 C117 0.952 . S
H120 C118 0.948 . S
H121 C110 0.952 . S
H122 C112 0.948 . S
C123 C89 1.395 . S
C123 C93 1.391 . S
C124 C86 1.387 . S
C124 C106 1.393 1_565 S
C125 C96 1.392 1_545 S
C125 C98 1.389 . S
C126 C101 1.395 . S
C126 C103 1.391 . S
H127 C87 0.951 . S
H128 C88 0.950 . S
H129 C94 0.949 . S
H130 C95 0.950 . S
H131 C99 0.951 . S
H132 C100 0.950 . S
H133 C104 0.949 . S
H134 C105 0.950 . S
H135 C109 0.950 . S
H136 C111 0.950 . S
H137 C114 0.950 . S
H138 C116 0.950 . S
H139 C151 0.930 . S
H140 C153 0.930 . S
H141 C154 0.930 . S
H142 C158 0.959 . S
H143 C158 0.959 . S
H144 C158 0.961 . S
H145 C159 0.960 . S
H146 C159 0.961 . S
H147 C159 0.959 1_455 S
H148 C162 0.929 . S
H149 C163 0.931 . S
H150 C165 0.930 . S
C151 H139 0.930 . S
C151 C152 1.399 1_655 S
C151 C156 1.399 . S
C152 C151 1.399 1_455 S
C152 C153 1.376 . S
C153 H140 0.930 . S
C153 C152 1.376 . S
C153 C154 1.388 . S
C154 H141 0.930 . S
C154 C153 1.388 . S
C154 C155 1.390 . S
C155 C154 1.390 . S
C155 C156 1.394 1_455 S
C155 C161 1.465 . S
C156 C151 1.399 . S
C156 C155 1.394 1_655 S
C156 C157 1.516 . S
C157 C156 1.516 . S
C157 C158 1.502 . S
C157 C159 1.561 . S
C157 C160 1.526 . S
C158 H142 0.959 . S
C158 H143 0.959 . S
C158 H144 0.961 . S
C158 C157 1.502 . S
C159 H145 0.960 . S
C159 H146 0.961 . S
C159 H147 0.959 1_655 S
C159 C157 1.561 . S
C160 C157 1.526 . S
C160 C161 1.396 1_655 S
C160 C165 1.390 . S
C161 C155 1.465 . S
C161 C160 1.396 1_455 S
C161 C162 1.399 . S
C162 H148 0.929 . S
C162 C161 1.399 . S
C162 C163 1.385 . S
C163 H149 0.931 . S
C163 C162 1.385 . S
C163 C164 1.389 . S
C164 C163 1.389 . S
C164 C165 1.387 1_455 S
C165 H150 0.930 . S
C165 C160 1.390 . S
C165 C164 1.387 1_655 S
H166 C178 0.930 . S
H167 C180 0.930 . S
H168 C181 0.930 . S
H169 C185 0.959 . S
H170 C185 0.959 . S
H171 C185 0.961 . S
H172 C186 0.960 . S
H173 C186 0.961 . S
H174 C186 0.959 . S
H175 C189 0.929 . S
H176 C190 0.931 . S
H177 C192 0.930 . S
C178 H166 0.930 . S
C178 C179 1.399 1_545 S
C178 C183 1.399 . S
C179 C178 1.399 1_565 S
C179 C180 1.376 . S
C180 H167 0.930 . S
C180 C179 1.376 . S
C180 C181 1.388 . S
C181 H168 0.930 . S
C181 C180 1.388 . S
C181 C182 1.390 . S
C182 C181 1.390 . S
C182 C183 1.394 1_565 S
C182 C188 1.465 . S
C183 C178 1.399 . S
C183 C182 1.394 1_545 S
C183 C184 1.516 . S
C184 C183 1.516 . S
C184 C185 1.502 . S
C184 C186 1.561 . S
C184 C187 1.526 . S
C185 H169 0.959 . S
C185 H170 0.959 . S
C185 H171 0.961 . S
C185 C184 1.502 . S
C186 H172 0.960 . S
C186 H173 0.961 . S
C186 H174 0.959 . S
C186 C184 1.561 . S
C187 C184 1.526 . S
C187 C188 1.396 1_545 S
C187 C192 1.390 . S
C188 C182 1.465 . S
C188 C187 1.396 1_565 S
C188 C189 1.399 . S
C189 H175 0.929 . S
C189 C188 1.399 . S
C189 C190 1.385 . S
C190 H176 0.931 . S
C190 C189 1.385 . S
C190 C191 1.389 . S
C191 C190 1.389 . S
C191 C192 1.387 1_565 S
C192 H177 0.930 . S
C192 C187 1.390 . S
C192 C191 1.387 1_545 S
H193 C205 0.930 . S
H194 C207 0.930 . S
H195 C208 0.930 . S
H196 C212 0.959 . S
H197 C212 0.959 . S
H198 C212 0.961 . S
H199 C213 0.960 . S
H200 C213 0.961 . S
H201 C213 0.959 . S
H202 C216 0.929 . S
H203 C217 0.931 . S
H204 C219 0.930 . S
C205 H193 0.930 . S
C205 C206 1.399 . S
C205 C210 1.399 . S
C206 C205 1.399 . S
C206 C207 1.376 1_455 S
C207 H194 0.930 . S
C207 C206 1.376 1_655 S
C207 C208 1.388 . S
C208 H195 0.930 . S
C208 C207 1.388 . S
C208 C209 1.390 . S
C209 C208 1.390 . S
C209 C210 1.394 1_655 S
C209 C215 1.465 . S
C210 C205 1.399 . S
C210 C209 1.394 1_455 S
C210 C211 1.516 . S
C211 C210 1.516 . S
C211 C212 1.502 . S
C211 C213 1.561 . S
C211 C214 1.526 . S
C212 H196 0.959 . S
C212 H197 0.959 . S
C212 H198 0.961 . S
C212 C211 1.502 . S
C213 H199 0.960 . S
C213 H200 0.961 . S
C213 H201 0.959 . S
C213 C211 1.561 . S
C214 C211 1.526 . S
C214 C215 1.396 1_455 S
C214 C219 1.390 . S
C215 C209 1.465 . S
C215 C214 1.396 1_655 S
C215 C216 1.399 . S
C216 H202 0.929 . S
C216 C215 1.399 . S
C216 C217 1.385 . S
C217 H203 0.931 . S
C217 C216 1.385 . S
C217 C218 1.389 . S
C218 C217 1.389 . S
C218 C219 1.387 1_655 S
C219 H204 0.930 . S
C219 C214 1.390 . S
C219 C218 1.387 1_455 S
H220 C232 0.930 . S
H221 C234 0.930 . S
H222 C235 0.930 . S
H223 C239 0.959 . S
H224 C239 0.959 . S
H225 C239 0.961 . S
H226 C240 0.960 . S
H227 C240 0.961 . S
H228 C240 0.959 . S
H229 C243 0.929 . S
H230 C244 0.931 . S
H231 C246 0.930 . S
C232 H220 0.930 . S
C232 C233 1.399 . S
C232 C237 1.399 . S
C233 C232 1.399 . S
C233 C234 1.376 1_565 S
C234 H221 0.930 . S
C234 C233 1.376 1_545 S
C234 C235 1.388 . S
C235 H222 0.930 . S
C235 C234 1.388 . S
C235 C236 1.390 . S
C236 C235 1.390 . S
C236 C237 1.394 1_545 S
C236 C242 1.465 . S
C237 C232 1.399 . S
C237 C236 1.394 1_565 S
C237 C238 1.516 . S
C238 C237 1.516 . S
C238 C239 1.502 . S
C238 C240 1.561 . S
C238 C241 1.526 . S
C239 H223 0.959 . S
C239 H224 0.959 . S
C239 H225 0.961 . S
C239 C238 1.502 . S
C240 H226 0.960 . S
C240 H227 0.961 . S
C240 H228 0.959 . S
C240 C238 1.561 . S
C241 C238 1.526 . S
C241 C242 1.396 1_565 S
C241 C246 1.390 . S
C242 C236 1.465 . S
C242 C241 1.396 1_545 S
C242 C243 1.399 . S
C243 H229 0.929 . S
C243 C242 1.399 . S
C243 C244 1.385 . S
C244 H230 0.931 . S
C244 C243 1.385 . S
C244 C245 1.389 . S
C245 C244 1.389 . S
C245 C246 1.387 1_545 S
C246 H231 0.930 . S
C246 C241 1.390 . S
C246 C245 1.387 1_565 S
H247 C259 0.930 . S
H248 C261 0.930 . S
H249 C262 0.930 . S
H250 C266 0.959 . S
H251 C266 0.959 . S
H252 C266 0.961 . S
H253 C267 0.960 . S
H254 C267 0.961 . S
H255 C267 0.959 . S
H256 C270 0.929 . S
H257 C271 0.931 . S
H258 C273 0.930 . S
C259 H247 0.930 . S
C259 C260 1.399 1_655 S
C259 C264 1.399 . S
C260 C259 1.399 1_455 S
C260 C261 1.376 . S
C261 H248 0.930 . S
C261 C260 1.376 . S
C261 C262 1.388 . S
C262 H249 0.930 . S
C262 C261 1.388 . S
C262 C263 1.390 . S
C263 C262 1.390 . S
C263 C264 1.394 1_455 S
C263 C269 1.465 . S
C264 C259 1.399 . S
C264 C263 1.394 1_655 S
C264 C265 1.516 . S
C265 C264 1.516 . S
C265 C266 1.502 . S
C265 C267 1.561 . S
C265 C268 1.526 . S
C266 H250 0.959 . S
C266 H251 0.959 . S
C266 H252 0.961 . S
C266 C265 1.502 . S
C267 H253 0.960 . S
C267 H254 0.961 . S
C267 H255 0.959 . S
C267 C265 1.561 . S
C268 C265 1.526 . S
C268 C269 1.396 1_655 S
C268 C273 1.390 . S
C269 C263 1.465 . S
C269 C268 1.396 1_455 S
C269 C270 1.399 . S
C270 H256 0.929 . S
C270 C269 1.399 . S
C270 C271 1.385 . S
C271 H257 0.931 . S
C271 C270 1.385 . S
C271 C272 1.389 . S
C272 C271 1.389 . S
C272 C273 1.387 1_455 S
C273 H258 0.930 . S
C273 C268 1.390 . S
C273 C272 1.387 1_655 S
H274 C286 0.930 . S
H275 C288 0.930 . S
H276 C289 0.930 . S
H277 C293 0.959 . S
H278 C293 0.959 . S
H279 C293 0.961 . S
H280 C294 0.960 . S
H281 C294 0.961 . S
H282 C294 0.959 . S
H283 C297 0.929 . S
H284 C298 0.931 . S
H285 C300 0.930 . S
C286 H274 0.930 . S
C286 C287 1.399 1_565 S
C286 C291 1.399 . S
C287 C286 1.399 1_545 S
C287 C288 1.376 . S
C288 H275 0.930 . S
C288 C287 1.376 . S
C288 C289 1.388 . S
C289 H276 0.930 . S
C289 C288 1.388 . S
C289 C290 1.390 . S
C290 C289 1.390 . S
C290 C291 1.394 1_545 S
C290 C296 1.465 . S
C291 C286 1.399 . S
C291 C290 1.394 1_565 S
C291 C292 1.516 . S
C292 C291 1.516 . S
C292 C293 1.502 . S
C292 C294 1.561 . S
C292 C295 1.526 . S
C293 H277 0.959 . S
C293 H278 0.959 . S
C293 H279 0.961 . S
C293 C292 1.502 . S
C294 H280 0.960 . S
C294 H281 0.961 . S
C294 H282 0.959 . S
C294 C292 1.561 . S
C295 C292 1.526 . S
C295 C296 1.396 1_565 S
C295 C300 1.390 . S
C296 C290 1.465 . S
C296 C295 1.396 1_545 S
C296 C297 1.399 . S
C297 H283 0.929 . S
C297 C296 1.399 . S
C297 C298 1.385 . S
C298 H284 0.931 . S
C298 C297 1.385 . S
C298 C299 1.389 . S
C299 C298 1.389 . S
C299 C300 1.387 1_545 S
C300 H285 0.930 . S
C300 C295 1.390 . S
C300 C299 1.387 1_565 S
H301 C313 0.930 . S
H302 C315 0.930 . S
H303 C316 0.930 . S
H304 C320 0.959 . S
H305 C320 0.959 . S
H306 C320 0.961 . S
H307 C321 0.960 . S
H308 C321 0.961 . S
H309 C321 0.959 . S
H310 C324 0.929 . S
H311 C325 0.931 . S
H312 C327 0.930 . S
C313 H301 0.930 . S
C313 C314 1.393 . S
C313 C318 1.405 1_655 S
C314 C313 1.393 . S
C314 C315 1.376 . S
C315 H302 0.930 . S
C315 C314 1.376 . S
C315 C316 1.388 . S
C316 H303 0.930 . S
C316 C315 1.388 . S
C316 C317 1.397 1_655 S
C317 C316 1.397 1_455 S
C317 C318 1.395 . S
C317 C323 1.457 . S
C318 C313 1.405 1_455 S
C318 C317 1.395 . S
C318 C319 1.516 . S
C319 C318 1.516 . S
C319 C320 1.502 1_455 S
C319 C321 1.561 . S
C319 C322 1.526 . S
C320 H304 0.959 . S
C320 H305 0.959 . S
C320 H306 0.961 . S
C320 C319 1.502 1_655 S
C321 H307 0.960 . S
C321 H308 0.961 . S
C321 H309 0.959 . S
C321 C319 1.561 . S
C322 C319 1.526 . S
C322 C323 1.396 . S
C322 C327 1.390 . S
C323 C317 1.457 . S
C323 C322 1.396 . S
C323 C324 1.399 1_455 S
C324 H310 0.929 . S
C324 C323 1.399 1_655 S
C324 C325 1.385 . S
C325 H311 0.931 . S
C325 C324 1.385 . S
C325 C326 1.390 1_655 S
C326 C325 1.390 1_455 S
C326 C327 1.387 . S
C327 H312 0.930 . S
C327 C322 1.390 . S
C327 C326 1.387 . S
H328 C340 0.930 . S
H329 C342 0.930 . S
H330 C343 0.930 . S
H331 C347 0.959 . S
H332 C347 0.959 . S
H333 C347 0.961 . S
H334 C348 0.960 . S
H335 C348 0.961 . S
H336 C348 0.959 . S
H337 C351 0.929 . S
H338 C352 0.931 . S
H339 C354 0.930 . S
C340 H328 0.930 . S
C340 C341 1.399 1_565 S
C340 C345 1.399 . S
C341 C340 1.399 1_545 S
C341 C342 1.376 . S
C342 H329 0.930 . S
C342 C341 1.376 . S
C342 C343 1.388 . S
C343 H330 0.930 . S
C343 C342 1.388 . S
C343 C344 1.390 . S
C344 C343 1.390 . S
C344 C345 1.394 1_545 S
C344 C350 1.465 . S
C345 C340 1.399 . S
C345 C344 1.394 1_565 S
C345 C346 1.516 . S
C346 C345 1.516 . S
C346 C347 1.502 . S
C346 C348 1.561 . S
C346 C349 1.526 . S
C347 H331 0.959 . S
C347 H332 0.959 . S
C347 H333 0.961 . S
C347 C346 1.502 . S
C348 H334 0.960 . S
C348 H335 0.961 . S
C348 H336 0.959 . S
C348 C346 1.561 . S
C349 C346 1.526 . S
C349 C350 1.396 1_565 S
C349 C354 1.390 . S
C350 C344 1.465 . S
C350 C349 1.396 1_545 S
C350 C351 1.399 . S
C351 H337 0.929 . S
C351 C350 1.399 . S
C351 C352 1.385 . S
C352 H338 0.931 . S
C352 C351 1.385 . S
C352 C353 1.389 . S
C353 C352 1.389 . S
C353 C354 1.387 1_545 S
C354 H339 0.930 . S
C354 C349 1.390 . S
C354 C353 1.387 1_565 S
C152 C23 1.249 . S
C164 C55 1.357 . S
C179 C22 1.553 . S
C191 C125 1.574 1_565 S
C206 C21 1.880 . S
C218 C71 1.905 1_655 S
C233 C24 1.402 . S
C245 C115 1.524 . S
C260 C27 1.277 1_455 S
C272 C62 1.382 . S
C287 C26 1.524 . S
C299 C124 1.577 1_545 S
C326 C72 1.905 1_455 S
C314 C25 1.880 . S
C341 C28 1.466 . S
C353 C108 1.509 . S
