# Generated by pormake.
# Topology pyr, (3,6)-cn, num edge types: 1
# Building blocks:
#     Node 0, Type 0, BuildingBlock: OLANEW_clean_sbu_2, # of connection points: 3
#     Node 1, Type 0, BuildingBlock: OLANEW_clean_sbu_2, # of connection points: 3
#     Node 2, Type 0, BuildingBlock: OLANEW_clean_sbu_2, # of connection points: 3
#     Node 3, Type 0, BuildingBlock: OLANEW_clean_sbu_2, # of connection points: 3
#     Node 4, Type 0, BuildingBlock: OLANEW_clean_sbu_2, # of connection points: 3
#     Node 5, Type 0, BuildingBlock: OLANEW_clean_sbu_2, # of connection points: 3
#     Node 6, Type 0, BuildingBlock: OLANEW_clean_sbu_2, # of connection points: 3
#     Node 7, Type 0, BuildingBlock: OLANEW_clean_sbu_2, # of connection points: 3
#     Node 8, Type 1, BuildingBlock: BETDEL_clean_sbu_0, # of connection points: 6
#     Node 9, Type 1, BuildingBlock: BETDEL_clean_sbu_0, # of connection points: 6
#     Node 10, Type 1, BuildingBlock: BETDEL_clean_sbu_0, # of connection points: 6
#     Node 11, Type 1, BuildingBlock: BETDEL_clean_sbu_0, # of connection points: 6
#     Edge 12, Type (0, 1), BuildingBlock: CIFDUS_clean_linker_0, # of connection points: 2
#     Edge 13, Type (0, 1), BuildingBlock: CIFDUS_clean_linker_0, # of connection points: 2
#     Edge 14, Type (0, 1), BuildingBlock: CIFDUS_clean_linker_0, # of connection points: 2
#     Edge 15, Type (0, 1), BuildingBlock: CIFDUS_clean_linker_0, # of connection points: 2
#     Edge 16, Type (0, 1), BuildingBlock: CIFDUS_clean_linker_0, # of connection points: 2
#     Edge 17, Type (0, 1), BuildingBlock: CIFDUS_clean_linker_0, # of connection points: 2
#     Edge 18, Type (0, 1), BuildingBlock: CIFDUS_clean_linker_0, # of connection points: 2
#     Edge 19, Type (0, 1), BuildingBlock: CIFDUS_clean_linker_0, # of connection points: 2
#     Edge 20, Type (0, 1), BuildingBlock: CIFDUS_clean_linker_0, # of connection points: 2
#     Edge 21, Type (0, 1), BuildingBlock: CIFDUS_clean_linker_0, # of connection points: 2
#     Edge 22, Type (0, 1), BuildingBlock: CIFDUS_clean_linker_0, # of connection points: 2
#     Edge 23, Type (0, 1), BuildingBlock: CIFDUS_clean_linker_0, # of connection points: 2
#     Edge 24, Type (0, 1), BuildingBlock: CIFDUS_clean_linker_0, # of connection points: 2
#     Edge 25, Type (0, 1), BuildingBlock: CIFDUS_clean_linker_0, # of connection points: 2
#     Edge 26, Type (0, 1), BuildingBlock: CIFDUS_clean_linker_0, # of connection points: 2
#     Edge 27, Type (0, 1), BuildingBlock: CIFDUS_clean_linker_0, # of connection points: 2
#     Edge 28, Type (0, 1), BuildingBlock: CIFDUS_clean_linker_0, # of connection points: 2
#     Edge 29, Type (0, 1), BuildingBlock: CIFDUS_clean_linker_0, # of connection points: 2
#     Edge 30, Type (0, 1), BuildingBlock: CIFDUS_clean_linker_0, # of connection points: 2
#     Edge 31, Type (0, 1), BuildingBlock: CIFDUS_clean_linker_0, # of connection points: 2
#     Edge 32, Type (0, 1), BuildingBlock: CIFDUS_clean_linker_0, # of connection points: 2
#     Edge 33, Type (0, 1), BuildingBlock: CIFDUS_clean_linker_0, # of connection points: 2
#     Edge 34, Type (0, 1), BuildingBlock: CIFDUS_clean_linker_0, # of connection points: 2
#     Edge 35, Type (0, 1), BuildingBlock: CIFDUS_clean_linker_0, # of connection points: 2
# Relax obj value: 0.058
# Max RMSD: 0.142
# Mean RMSD: 0.110
data_MOF--net-pyr--node1-OLANEW_clean_sbu_2--node2-BETDEL_clean_sbu_0--edge1-CIFDUS_clean_linker_0
_symmetry_space_group_name_H-M    P1
_symmetry_Int_Tables_number       1
_symmetry_cell_setting            triclinic
loop_
_symmetry_equiv_pos_as_xyz
'x, y, z'
_cell_length_a     34.472692
_cell_length_b     36.65233
_cell_length_c     32.680919
_cell_angle_alpha  96.89425
_cell_angle_beta   87.719551
_cell_angle_gamma 100.42815
loop_
_atom_site_label
_atom_site_type_symbol
_atom_site_fract_x
_atom_site_fract_y
_atom_site_fract_z
_atom_type_partial_charge
O0 O 0.32644 0.26237 0.15106 0.0
Cd1 Cd 0.28799 0.31212 0.17252 0.0
O2 O 0.28604 0.22398 0.18601 0.0
Cd3 Cd 0.26295 0.17559 0.21854 0.0
O4 O 0.22354 0.14042 0.25778 0.0
C5 C 0.22951 0.14383 0.29629 0.0
O6 O 0.26048 0.16727 0.31129 0.0
C7 C 0.31773 0.23081 0.16482 0.0
C8 C 0.22789 0.32625 0.12475 0.0
O9 O 0.26415 0.33987 0.11763 0.0
O10 O 0.22026 0.30422 0.15283 0.0
O11 O 0.36974 0.88115 0.77412 0.0
Cd12 Cd 0.36464 0.86447 0.70021 0.0
O13 O 0.30957 0.89179 0.77425 0.0
Cd14 Cd 0.2532 0.90677 0.79494 0.0
O15 O 0.20372 0.91226 0.75824 0.0
C16 C 0.17281 0.92488 0.77058 0.0
O17 O 0.16806 0.9358 0.80995 0.0
C18 C 0.34038 0.8912 0.79398 0.0
C19 C 0.38888 0.79637 0.68188 0.0
O20 O 0.41377 0.82706 0.68475 0.0
O21 O 0.35209 0.79791 0.68658 0.0
O22 O 0.72124 0.40089 0.88068 0.0
Cd23 Cd 0.66072 0.37075 0.8452 0.0
O24 O 0.71426 0.35174 0.91368 0.0
Cd25 Cd 0.71883 0.314 0.95925 0.0
O26 O 0.68032 0.26745 0.98474 0.0
C27 C 0.64414 0.26248 0.9752 0.0
O28 O 0.63283 0.28548 0.9521 0.0
C29 C 0.73369 0.38356 0.90743 0.0
C30 C 0.63628 0.41441 0.79043 0.0
O31 O 0.62476 0.41696 0.82828 0.0
O32 O 0.65958 0.39144 0.77869 0.0
O33 O 0.90032 0.76935 0.30565 0.0
Cd34 Cd 0.86295 0.72616 0.25212 0.0
O35 O 0.88232 0.72533 0.34525 0.0
Cd36 Cd 0.87231 0.69629 0.39985 0.0
O37 O 0.82664 0.66101 0.43173 0.0
C38 C 0.80084 0.63944 0.40919 0.0
O39 O 0.80499 0.63811 0.36892 0.0
C40 C 0.89917 0.75856 0.34124 0.0
C41 C 0.90055 0.66997 0.21273 0.0
O42 O 0.90509 0.70232 0.20016 0.0
O43 O 0.8788 0.66427 0.2449 0.0
O44 O 0.79919 0.78546 0.79235 0.0
Cd45 Cd 0.75498 0.7467 0.83615 0.0
O46 O 0.78434 0.83606 0.82695 0.0
Cd47 Cd 0.78426 0.89462 0.85033 0.0
O48 O 0.75606 0.93138 0.89545 0.0
C49 C 0.72814 0.91403 0.91614 0.0
O50 O 0.71969 0.87744 0.90881 0.0
C51 C 0.80428 0.82086 0.79837 0.0
C52 C 0.7984 0.69705 0.8619 0.0
O53 O 0.77763 0.68843 0.82934 0.0
O54 O 0.79739 0.72865 0.8831 0.0
O55 O 0.68136 0.13727 0.43577 0.0
Cd56 Cd 0.71836 0.15206 0.49893 0.0
O57 O 0.71065 0.1884 0.41088 0.0
Cd58 Cd 0.712 0.23132 0.36987 0.0
O59 O 0.69073 0.28253 0.36322 0.0
C60 C 0.65423 0.28039 0.35685 0.0
O61 O 0.63193 0.24721 0.3503 0.0
C62 C 0.68519 0.1585 0.40738 0.0
C63 C 0.79337 0.13435 0.49028 0.0
O64 O 0.76283 0.10905 0.49356 0.0
O65 O 0.78852 0.16822 0.49046 0.0
O66 O 0.39443 0.78296 0.25442 0.0
Cd67 Cd 0.36421 0.72556 0.28407 0.0
O68 O 0.35213 0.76395 0.20502 0.0
Cd69 Cd 0.32358 0.76077 0.14593 0.0
O70 O 0.28447 0.72637 0.09986 0.0
C71 C 0.28829 0.69233 0.09258 0.0
O72 O 0.31649 0.68106 0.11095 0.0
C73 C 0.37994 0.7885 0.22094 0.0
C74 C 0.407 0.69856 0.34144 0.0
O75 O 0.4098 0.68793 0.30276 0.0
O76 O 0.38513 0.72291 0.3528 0.0
O77 O 0.24209 0.40588 0.81768 0.0
Cd78 Cd 0.29697 0.37922 0.7844 0.0
O79 O 0.20655 0.34984 0.80965 0.0
Cd80 Cd 0.15268 0.30803 0.80571 0.0
O81 O 0.11623 0.26001 0.77188 0.0
C82 C 0.11322 0.26168 0.73355 0.0
O83 O 0.12995 0.29232 0.71809 0.0
C84 C 0.20931 0.38435 0.82229 0.0
C85 C 0.33973 0.42324 0.72806 0.0
O86 O 0.31112 0.3971 0.71605 0.0
O87 O 0.34761 0.42868 0.76656 0.0
Dy88 Dy 0.04387 0.01329 0.5268 0.0
C89 C 0.93129 0.94796 0.64225 0.0
C90 C 0.0958 0.05193 0.47515 0.0
Dy91 Dy 0.98015 0.98349 0.58583 0.0
O92 O 0.1033 0.04652 0.51229 0.0
O93 O 0.05973 0.03651 0.46623 0.0
O94 O 0.07749 0.96857 0.53891 0.0
O95 O 0.04376 0.99167 0.58621 0.0
C96 C 0.06459 0.96707 0.57664 0.0
C97 C 0.95989 0.03221 0.53939 0.0
O98 O 0.0138 0.03143 0.6261 0.0
O99 O 0.03917 0.06373 0.57178 0.0
O100 O 0.92459 0.97595 0.62458 0.0
O101 O 0.96459 0.93881 0.62867 0.0
O102 O 0.94831 0.02952 0.57727 0.0
O103 O 0.97941 0.00687 0.527 0.0
O104 O 0.01661 0.96344 0.486 0.0
O105 O 0.97522 0.93485 0.53512 0.0
C106 C 0.03071 0.06281 0.61158 0.0
C107 C 0.99145 0.9346 0.49746 0.0
Dy108 Dy 0.53327 0.04711 0.13408 0.0
C109 C 0.42802 0.96372 0.01276 0.0
C110 C 0.57589 0.09126 0.19574 0.0
Dy111 Dy 0.47658 0.01031 0.06822 0.0
O112 O 0.54224 0.06964 0.20031 0.0
O113 O 0.58658 0.08906 0.15704 0.0
O114 O 0.53531 0.99287 0.15578 0.0
O115 O 0.48143 0.00102 0.13295 0.0
C116 C 0.49946 0.97759 0.14627 0.0
C117 C 0.51944 0.07691 0.05277 0.0
O118 O 0.43569 0.03517 0.11299 0.0
O119 O 0.48544 0.08214 0.13791 0.0
O120 O 0.42813 0.99913 0.02187 0.0
O121 O 0.45428 0.95362 0.03424 0.0
O122 O 0.4841 0.0648 0.0392 0.0
O123 O 0.53046 0.05174 0.06943 0.0
O124 O 0.57606 0.0207 0.09182 0.0
O125 O 0.5276 0.98015 0.05338 0.0
C126 C 0.44743 0.06891 0.13219 0.0
C127 C 0.56494 0.99136 0.06418 0.0
Dy128 Dy 0.54903 0.51388 0.50819 0.0
C129 C 0.50139 0.62653 0.62659 0.0
C130 C 0.5845 0.46575 0.45567 0.0
Dy131 Dy 0.53412 0.5758 0.57539 0.0
O132 O 0.54663 0.46353 0.46093 0.0
O133 O 0.60288 0.49428 0.47898 0.0
O134 O 0.48402 0.48848 0.50923 0.0
O135 O 0.51084 0.51708 0.56246 0.0
C136 C 0.47832 0.50171 0.54728 0.0
C137 C 0.60629 0.58552 0.54211 0.0
O138 O 0.55128 0.53626 0.61564 0.0
O139 O 0.5798 0.50084 0.563 0.0
O140 O 0.53895 0.62689 0.6213 0.0
O141 O 0.48157 0.59783 0.60458 0.0
O142 O 0.59859 0.59758 0.58 0.0
O143 O 0.57482 0.57255 0.52282 0.0
O144 O 0.53103 0.55248 0.4676 0.0
O145 O 0.50539 0.59031 0.51997 0.0
C146 C 0.57371 0.51107 0.60283 0.0
C147 C 0.51069 0.57929 0.48024 0.0
Dy148 Dy 0.04125 0.48601 0.00337 0.0
C149 C 0.95891 0.59272 0.94264 0.0
C150 C 0.08892 0.4372 0.01858 0.0
Dy151 Dy 0.00574 0.54549 0.96284 0.0
O152 O 0.0563 0.44118 0.03861 0.0
O153 O 0.09516 0.45963 0.99023 0.0
O154 O 0.00808 0.49941 0.0635 0.0
O155 O 0.02511 0.53948 0.02323 0.0
C156 C 0.00542 0.53272 0.05525 0.0
C157 C 0.04766 0.50437 0.91224 0.0
O158 O 0.06342 0.58092 0.98071 0.0
O159 O 0.0934 0.53332 0.99969 0.0
O160 O 0.96398 0.56204 0.92043 0.0
O161 O 0.98003 0.59801 0.97557 0.0
O162 O 0.04409 0.53823 0.90699 0.0
O163 O 0.02521 0.49289 0.94134 0.0
O164 O 0.98346 0.45207 0.98092 0.0
O165 O 0.9537 0.50376 0.97998 0.0
C166 C 0.09477 0.56852 0.99213 0.0
C167 C 0.95145 0.46724 0.97925 0.0
H168 H 0.23642 0.14109 0.37839 0.0
H169 H 0.1577 0.1009 0.27686 0.0
H170 H 0.10901 0.06962 0.32338 0.0
H171 H 0.08841 0.05412 0.39319 0.0
H172 H 0.16792 0.09291 0.49412 0.0
H173 H 0.21656 0.12448 0.44762 0.0
C174 C 0.20866 0.12543 0.36637 0.0
C175 C 0.20074 0.12346 0.32419 0.0
C176 C 0.18082 0.10741 0.39325 0.0
C177 C 0.16464 0.10287 0.30917 0.0
C178 C 0.13669 0.08504 0.33577 0.0
C179 C 0.11635 0.06961 0.40493 0.0
C180 C 0.12459 0.07141 0.44695 0.0
C181 C 0.14438 0.08726 0.3779 0.0
C182 C 0.16097 0.09123 0.46183 0.0
C183 C 0.18878 0.10924 0.43528 0.0
H184 H 0.37986 0.863 0.84829 0.0
H185 H 0.30961 0.94755 0.83866 0.0
H186 H 0.32707 0.97545 0.90891 0.0
H187 H 0.3698 0.98044 0.96892 0.0
H188 H 0.43977 0.89545 0.97798 0.0
H189 H 0.41457 0.86266 0.91222 0.0
C190 C 0.36779 0.88712 0.86196 0.0
C191 C 0.34383 0.90348 0.83845 0.0
C192 C 0.37821 0.90303 0.90201 0.0
C193 C 0.32793 0.9344 0.85639 0.0
C194 C 0.33821 0.95052 0.89636 0.0
C195 C 0.37886 0.95434 0.9568 0.0
C196 C 0.40698 0.94057 0.97776 0.0
C197 C 0.36441 0.93579 0.91887 0.0
C198 C 0.41829 0.90661 0.96218 0.0
C199 C 0.40405 0.88797 0.92453 0.0
H200 H 0.65386 0.41315 0.70859 0.0
H201 H 0.58751 0.46581 0.806 0.0
H202 H 0.56315 0.50117 0.75684 0.0
H203 H 0.55941 0.51598 0.68585 0.0
H204 H 0.62539 0.46249 0.58859 0.0
H205 H 0.65114 0.42874 0.63813 0.0
C206 C 0.63418 0.43245 0.71915 0.0
C207 C 0.6225 0.43674 0.76091 0.0
C208 C 0.62012 0.45254 0.69073 0.0
C209 C 0.59696 0.4619 0.77401 0.0
C210 C 0.58299 0.48214 0.74591 0.0
C211 C 0.57958 0.4971 0.67549 0.0
C212 C 0.59031 0.49177 0.63348 0.0
C213 C 0.59419 0.47753 0.70414 0.0
C214 C 0.61643 0.46708 0.62066 0.0
C215 C 0.63124 0.44773 0.64899 0.0
H216 H 0.9499 0.6757 0.14661 0.0
H217 H 0.89185 0.59645 0.22676 0.0
H218 H 0.9194 0.54647 0.18562 0.0
H219 H 0.95895 0.52502 0.12503 0.0
H220 H 0.0169 0.60611 0.04682 0.0
H221 H 0.9902 0.65533 0.08871 0.0
C222 C 0.94332 0.64755 0.15528 0.0
C223 C 0.91877 0.63986 0.18963 0.0
C224 C 0.95904 0.61909 0.13152 0.0
C225 C 0.91072 0.60318 0.20043 0.0
C226 C 0.92639 0.57454 0.17685 0.0
C227 C 0.96567 0.55349 0.11738 0.0
C228 C 0.98929 0.56175 0.08246 0.0
C229 C 0.95039 0.5821 0.14206 0.0
C230 C 0.99808 0.5988 0.07298 0.0
C231 C 0.98305 0.62712 0.0971 0.0
H232 H 0.30281 0.15422 0.16083 0.0
H233 H 0.397 0.24879 0.15551 0.0
H234 H 0.44543 0.20745 0.14789 0.0
H235 H 0.46132 0.14458 0.14169 0.0
H236 H 0.36762 0.04925 0.14372 0.0
H237 H 0.31891 0.09067 0.15465 0.0
C238 C 0.33393 0.16578 0.15863 0.0
C239 C 0.34621 0.20463 0.15924 0.0
C240 C 0.36181 0.1417 0.15387 0.0
C241 C 0.38666 0.21901 0.155 0.0
C242 C 0.41447 0.19541 0.15085 0.0
C243 C 0.4303 0.13284 0.14509 0.0
C244 C 0.41818 0.09389 0.1423 0.0
C245 C 0.40242 0.15673 0.15023 0.0
C246 C 0.37775 0.07916 0.14592 0.0
C247 C 0.34987 0.10283 0.15204 0.0
H248 H 0.17454 0.90378 0.68814 0.0
H249 H 0.1075 0.95793 0.78381 0.0
H250 H 0.06521 0.9723 0.73184 0.0
H251 H 0.05124 0.97434 0.6591 0.0
H252 H 0.12002 0.92231 0.56361 0.0
H253 H 0.15746 0.90174 0.61584 0.0
C254 C 0.15049 0.91847 0.69777 0.0
C255 C 0.14452 0.93017 0.73983 0.0
C256 C 0.12671 0.92708 0.66776 0.0
C257 C 0.11293 0.94881 0.75167 0.0
C258 C 0.08877 0.95709 0.72196 0.0
C259 C 0.07412 0.9581 0.64974 0.0
C260 C 0.08326 0.95017 0.60765 0.0
C261 C 0.09598 0.94709 0.6799 0.0
C262 C 0.1127 0.92892 0.59587 0.0
C263 C 0.13416 0.91729 0.6257 0.0
H264 H 0.79667 0.35255 0.92509 0.0
H265 H 0.75038 0.45515 0.94077 0.0
H266 H 0.81263 0.48899 0.96951 0.0
H267 H 0.88157 0.49099 0.9828 0.0
H268 H 0.93175 0.39051 0.96217 0.0
H269 H 0.86662 0.35414 0.94332 0.0
C270 C 0.80015 0.38213 0.93571 0.0
C271 C 0.76911 0.40145 0.93096 0.0
C272 C 0.83679 0.40182 0.95079 0.0
C273 C 0.77395 0.43983 0.94413 0.0
C274 C 0.80954 0.45919 0.96043 0.0
C275 C 0.87847 0.46106 0.97454 0.0
C276 C 0.91175 0.44364 0.9734 0.0
C277 C 0.84145 0.44071 0.96269 0.0
C278 C 0.90672 0.40472 0.96316 0.0
C279 C 0.86948 0.38394 0.9522 0.0
H280 H 0.7826 0.63864 0.49053 0.0
H281 H 0.73605 0.59825 0.36956 0.0
H282 H 0.67186 0.57515 0.40024 0.0
H283 H 0.62727 0.57205 0.4612 0.0
H284 H 0.67439 0.61379 0.58159 0.0
H285 H 0.73998 0.63067 0.55134 0.0
C286 C 0.75858 0.62441 0.47084 0.0
C287 C 0.76396 0.62066 0.42784 0.0
C288 C 0.72168 0.61177 0.48857 0.0
C289 C 0.73262 0.60177 0.40281 0.0
C290 C 0.69584 0.58867 0.42029 0.0
C291 C 0.65205 0.58448 0.48072 0.0
C292 C 0.64605 0.59218 0.52339 0.0
C293 C 0.68974 0.59442 0.46308 0.0
C294 C 0.67829 0.60803 0.54853 0.0
C295 C 0.71581 0.61766 0.53131 0.0
H296 H 0.2339 0.36558 0.05838 0.0
H297 H 0.14943 0.31515 0.14533 0.0
H298 H 0.09808 0.3432 0.11848 0.0
H299 H 0.07858 0.38674 0.07446 0.0
H300 H 0.16265 0.43598 0.98655 0.0
H301 H 0.21253 0.40363 0.00938 0.0
C302 C 0.20414 0.36031 0.0711 0.0
C303 C 0.1957 0.33858 0.10413 0.0
C304 C 0.17469 0.37662 0.05556 0.0
C305 C 0.15684 0.33179 0.11996 0.0
C306 C 0.12744 0.34799 0.10476 0.0
C307 C 0.1077 0.39 0.06004 0.0
C308 C 0.11713 0.41406 0.0293 0.0
C309 C 0.13625 0.37119 0.07324 0.0
C310 C 0.1548 0.4178 0.01052 0.0
C311 C 0.18337 0.39936 0.0236 0.0
H312 H 0.65754 0.20939 0.02184 0.0
H313 H 0.56564 0.24395 0.95785 0.0
H314 H 0.51843 0.19034 0.97698 0.0
H315 H 0.50349 0.13223 0.01042 0.0
H316 H 0.59605 0.098 0.07356 0.0
H317 H 0.6424 0.15274 0.0565 0.0
C318 C 0.62717 0.20531 0.01218 0.0
C319 C 0.6153 0.23064 0.98831 0.0
C320 C 0.60014 0.17433 0.02314 0.0
C321 C 0.57572 0.22488 0.97618 0.0
C322 C 0.54862 0.19417 0.98708 0.0
C323 C 0.53377 0.13693 0.0205 0.0
C324 C 0.54631 0.11112 0.04315 0.0
C325 C 0.56054 0.16852 0.0103 0.0
C326 C 0.58561 0.11751 0.05614 0.0
C327 C 0.61223 0.14879 0.04631 0.0
H328 H 0.95879 0.8171 0.33976 0.0
H329 H 0.87389 0.76111 0.42225 0.0
H330 H 0.89636 0.80927 0.47889 0.0
H331 H 0.93742 0.8701 0.50381 0.0
H332 H 0.02114 0.92565 0.4193 0.0
H333 H 0.00166 0.87524 0.36506 0.0
C334 C 0.94547 0.81522 0.37026 0.0
C335 C 0.91513 0.78524 0.37684 0.0
C336 C 0.95803 0.84333 0.40241 0.0
C337 C 0.8981 0.78323 0.41651 0.0
C338 C 0.91059 0.81112 0.44885 0.0
C339 C 0.95157 0.87103 0.47363 0.0
C340 C 0.98046 0.90201 0.46584 0.0
C341 C 0.94018 0.84167 0.44203 0.0
C342 C 0.99857 0.90251 0.42644 0.0
C343 C 0.98752 0.87358 0.39517 0.0
H344 H 0.46203 0.78315 0.69308 0.0
H345 H 0.34591 0.72866 0.65309 0.0
H346 H 0.3697 0.66955 0.63642 0.0
H347 H 0.42483 0.63478 0.62847 0.0
H348 H 0.54072 0.6898 0.66862 0.0
H349 H 0.51549 0.74722 0.69085 0.0
C350 C 0.44191 0.75831 0.6808 0.0
C351 C 0.40248 0.76029 0.67371 0.0
C352 C 0.45568 0.72455 0.6716 0.0
C353 C 0.3765 0.7278 0.65854 0.0
C354 C 0.39006 0.69404 0.64904 0.0
C355 C 0.44432 0.65917 0.6428 0.0
C356 C 0.48454 0.65831 0.64672 0.0
C357 C 0.42974 0.69225 0.65487 0.0
C358 C 0.50961 0.68995 0.66527 0.0
C359 C 0.49529 0.72282 0.67773 0.0
H360 H 0.80183 0.8884 0.77216 0.0
H361 H 0.87192 0.80154 0.76575 0.0
H362 H 0.91841 0.83384 0.71814 0.0
H363 H 0.9377 0.88526 0.67573 0.0
H364 H 0.86615 0.97064 0.67891 0.0
H365 H 0.82186 0.94067 0.73024 0.0
C366 C 0.82762 0.87696 0.76081 0.0
C367 C 0.83357 0.8428 0.77256 0.0
C368 C 0.8538 0.89524 0.73252 0.0
C369 C 0.86669 0.82782 0.75701 0.0
C370 C 0.89328 0.84622 0.72976 0.0
C371 C 0.91247 0.8973 0.6878 0.0
C372 C 0.90507 0.92994 0.67358 0.0
C373 C 0.88686 0.87965 0.71683 0.0
C374 C 0.87229 0.94534 0.68934 0.0
C375 C 0.847 0.92828 0.71873 0.0
H376 H 0.70239 0.16933 0.32718 0.0
H377 H 0.60869 0.125 0.40863 0.0
H378 H 0.56536 0.10341 0.35012 0.0
H379 H 0.55572 0.09309 0.27594 0.0
H380 H 0.64954 0.13434 0.19312 0.0
H381 H 0.69113 0.16202 0.25211 0.0
C382 C 0.6722 0.15573 0.33208 0.0
C383 C 0.65857 0.14894 0.37206 0.0
C384 C 0.64766 0.14273 0.29813 0.0
C385 C 0.61978 0.13039 0.37804 0.0
C386 C 0.59501 0.11809 0.34466 0.0
C387 C 0.58513 0.10849 0.27078 0.0
C388 C 0.59975 0.11157 0.23043 0.0
C389 C 0.6089 0.12347 0.30458 0.0
C390 C 0.6378 0.13161 0.22406 0.0
C391 C 0.66155 0.14729 0.25772 0.0
H392 H 0.44978 0.6424 0.32745 0.0
H393 H 0.40813 0.71684 0.42499 0.0
H394 H 0.43674 0.68686 0.4763 0.0
H395 H 0.4719 0.63842 0.49374 0.0
H396 H 0.51323 0.56363 0.39622 0.0
H397 H 0.48637 0.59482 0.34485 0.0
C398 C 0.44718 0.65227 0.3599 0.0
C399 C 0.42676 0.68186 0.37225 0.0
C400 C 0.46345 0.63468 0.38937 0.0
C401 C 0.42364 0.69415 0.41452 0.0
C402 C 0.43993 0.67695 0.44395 0.0
C403 C 0.4751 0.62887 0.46127 0.0
C404 C 0.4945 0.59854 0.44904 0.0
C405 C 0.45958 0.64696 0.43177 0.0
C406 C 0.49842 0.58681 0.4067 0.0
C407 C 0.48306 0.60467 0.37721 0.0
H408 H 0.19412 0.45305 0.81695 0.0
H409 H 0.14835 0.35098 0.86915 0.0
H410 H 0.09308 0.37844 0.90082 0.0
H411 H 0.05853 0.43254 0.91483 0.0
H412 H 0.10585 0.53424 0.86222 0.0
H413 H 0.15943 0.50584 0.82937 0.0
C414 C 0.17195 0.43677 0.83514 0.0
C415 C 0.17499 0.39995 0.8403 0.0
C416 C 0.14048 0.45271 0.85319 0.0
C417 C 0.14609 0.37911 0.8639 0.0
C418 C 0.11469 0.39491 0.88231 0.0
C419 C 0.0806 0.44832 0.89611 0.0
C420 C 0.07843 0.48546 0.89117 0.0
C421 C 0.11162 0.43178 0.87725 0.0
C422 C 0.10691 0.50559 0.86654 0.0
C423 C 0.13765 0.48944 0.8478 0.0
H424 H 0.66106 0.88477 0.95508 0.0
H425 H 0.74129 0.98858 0.94583 0.0
H426 H 0.69979 0.02141 0.99447 0.0
H427 H 0.63831 0.02098 0.03673 0.0
H428 H 0.55687 0.91725 0.04124 0.0
H429 H 0.60146 0.88393 0.99784 0.0
C430 C 0.66973 0.91455 0.96383 0.0
C431 C 0.70421 0.93417 0.94671 0.0
C432 C 0.64546 0.93325 0.99112 0.0
C433 C 0.7148 0.9728 0.95839 0.0
C434 C 0.6911 0.99158 0.98625 0.0
C435 C 0.63081 0.991 0.02871 0.0
C436 C 0.59455 0.97146 0.04224 0.0
C437 C 0.65609 0.97216 0.0025 0.0
C438 C 0.58467 0.93277 0.03111 0.0
C439 C 0.61007 0.91375 0.00623 0.0
H440 H 0.8167 0.07032 0.45706 0.0
H441 H 0.85854 0.1774 0.52556 0.0
H442 H 0.91934 0.15676 0.54107 0.0
H443 H 0.95403 0.10437 0.5458 0.0
H444 H 0.91353 0.9979 0.47587 0.0
H445 H 0.8591 0.0223 0.44919 0.0
C446 C 0.83964 0.08935 0.47449 0.0
C447 C 0.83305 0.12497 0.49092 0.0
C448 C 0.87454 0.07734 0.48307 0.0
C449 C 0.86303 0.14975 0.51284 0.0
C450 C 0.89766 0.13791 0.52189 0.0
C451 C 0.93413 0.08712 0.52339 0.0
C452 C 0.93732 0.04959 0.51273 0.0
C453 C 0.90288 0.10125 0.50867 0.0
C454 C 0.91157 0.02707 0.484 0.0
C455 C 0.88023 0.04087 0.46924 0.0
H456 H 0.22564 0.70574 0.05206 0.0
H457 H 0.28417 0.61682 0.07859 0.0
H458 H 0.23106 0.57057 0.04624 0.0
H459 H 0.1652 0.55519 0.01632 0.0
H460 H 0.10625 0.64416 0.99059 0.0
H461 H 0.16253 0.69035 0.0162 0.0
C462 C 0.22702 0.67627 0.05036 0.0
C463 C 0.25861 0.66482 0.06824 0.0
C464 C 0.19618 0.64971 0.03202 0.0
C465 C 0.26008 0.62649 0.06538 0.0
C466 C 0.22966 0.59995 0.04694 0.0
C467 C 0.16478 0.58465 0.01584 0.0
C468 C 0.13121 0.59606 0.00203 0.0
C469 C 0.1971 0.61121 0.03107 0.0
C470 C 0.1315 0.63442 0.00126 0.0
C471 C 0.16367 0.66097 0.01606 0.0
H472 H 0.33815 0.412 0.64387 0.0
H473 H 0.39666 0.48445 0.74564 0.0
H474 H 0.44168 0.51779 0.69773 0.0
H475 H 0.46812 0.52293 0.62798 0.0
H476 H 0.41252 0.44943 0.52566 0.0
H477 H 0.36211 0.42038 0.57265 0.0
C478 C 0.36046 0.43535 0.65551 0.0
C479 C 0.36424 0.44545 0.69836 0.0
C480 C 0.38677 0.45417 0.62773 0.0
C481 C 0.39328 0.47584 0.7129 0.0
C482 C 0.41906 0.49498 0.68552 0.0
C483 C 0.44467 0.50087 0.61583 0.0
C484 C 0.44418 0.48806 0.57352 0.0
C485 C 0.41661 0.48385 0.64303 0.0
C486 C 0.41351 0.45968 0.55816 0.0
C487 C 0.38487 0.44296 0.58506 0.0
H488 H 0.84878 0.70961 0.92607 0.0
H489 H 0.80701 0.62876 0.82299 0.0
H490 H 0.85338 0.58961 0.83874 0.0
H491 H 0.90685 0.579 0.8807 0.0
H492 H 0.9484 0.65932 0.98406 0.0
H493 H 0.90118 0.69823 0.96912 0.0
C494 C 0.84962 0.68331 0.9072 0.0
C495 C 0.82449 0.67218 0.87337 0.0
C496 C 0.87653 0.66103 0.91625 0.0
C497 C 0.82601 0.63802 0.84922 0.0
C498 C 0.8526 0.61564 0.85811 0.0
C499 C 0.90561 0.60509 0.89983 0.0
C500 C 0.93114 0.61653 0.93318 0.0
C501 C 0.87823 0.62704 0.89129 0.0
C502 C 0.92909 0.65014 0.95805 0.0
C503 C 0.90208 0.6723 0.94959 0.0
H504 H 0.45465 0.82593 0.22328 0.0
H505 H 0.34072 0.82769 0.17479 0.0
H506 H 0.36714 0.8861 0.14589 0.0
H507 H 0.423 0.93861 0.13699 0.0
H508 H 0.53667 0.93361 0.18496 0.0
H509 H 0.51008 0.87501 0.21123 0.0
C510 C 0.43563 0.83902 0.20623 0.0
C511 C 0.39591 0.82247 0.20106 0.0
C512 C 0.45099 0.87234 0.18971 0.0
C513 C 0.37164 0.83958 0.17863 0.0
C514 C 0.38667 0.87317 0.16239 0.0
C515 C 0.4418 0.92452 0.15306 0.0
C516 C 0.48163 0.94085 0.15942 0.0
C517 C 0.42634 0.89009 0.16804 0.0
C518 C 0.5058 0.92202 0.17991 0.0
C519 C 0.49068 0.88836 0.19503 0.0
H520 H 0.08054 0.19282 0.75454 0.0
H521 H 0.10495 0.25611 0.65032 0.0
H522 H 0.08029 0.20045 0.60367 0.0
H523 H 0.05505 0.13331 0.592 0.0
H524 H 0.0307 0.06959 0.69584 0.0
H525 H 0.05196 0.12599 0.74303 0.0
C526 C 0.08017 0.19452 0.72166 0.0
C527 C 0.09485 0.22857 0.70598 0.0
C528 C 0.06618 0.16229 0.69487 0.0
C529 C 0.094 0.23027 0.66328 0.0
C530 C 0.07997 0.19841 0.6365 0.0
C531 C 0.05429 0.13172 0.62496 0.0
C532 C 0.04162 0.09722 0.64031 0.0
C533 C 0.06658 0.16419 0.6519 0.0
C534 C 0.0404 0.09577 0.68315 0.0
C535 C 0.05261 0.12801 0.71019 0.0
H536 H 0.69074 0.35142 0.38118 0.0
H537 H 0.57656 0.28527 0.3506 0.0
H538 H 0.545 0.33857 0.37483 0.0
H539 H 0.54922 0.40159 0.41205 0.0
H540 H 0.66318 0.46669 0.44487 0.0
H541 H 0.69546 0.41626 0.41218 0.0
C542 C 0.659 0.34878 0.37917 0.0
C543 C 0.63603 0.31423 0.3646 0.0
C544 C 0.64096 0.37926 0.39397 0.0
C545 C 0.59496 0.31144 0.36198 0.0
C546 C 0.57683 0.34188 0.37598 0.0
C547 C 0.58114 0.40487 0.41146 0.0
C548 C 0.60383 0.4375 0.43113 0.0
C549 C 0.59943 0.37554 0.39321 0.0
C550 C 0.64513 0.44163 0.43011 0.0
C551 C 0.66359 0.4128 0.4115 0.0
loop_
_geom_bond_atom_site_label_1
_geom_bond_atom_site_label_2
_geom_bond_distance
_geom_bond_site_symmetry_2
_ccdc_geom_bond_type
O0 Cd1 2.300 . S
O0 C7 1.275 . S
Cd1 O0 2.300 . S
Cd1 O9 2.381 . S
Cd1 O10 2.378 . S
O2 Cd3 2.385 . S
O2 C7 1.255 . S
Cd3 O2 2.385 . S
Cd3 O4 2.317 . S
O4 Cd3 2.317 . S
O4 C5 1.232 . S
C5 O4 1.232 . S
C5 O6 1.218 . S
O6 C5 1.218 . S
C7 O0 1.275 . S
C7 O2 1.255 . S
C8 O9 1.258 . S
C8 O10 1.256 . S
O9 Cd1 2.381 . S
O9 C8 1.258 . S
O10 Cd1 2.378 . S
O10 C8 1.256 . S
O11 Cd12 2.300 . S
O11 C18 1.275 . S
Cd12 O11 2.300 . S
Cd12 O20 2.381 . S
Cd12 O21 2.378 . S
O13 Cd14 2.385 . S
O13 C18 1.255 . S
Cd14 O13 2.385 . S
Cd14 O15 2.317 . S
O15 Cd14 2.317 . S
O15 C16 1.232 . S
C16 O15 1.232 . S
C16 O17 1.218 . S
O17 C16 1.218 . S
C18 O11 1.275 . S
C18 O13 1.255 . S
C19 O20 1.258 . S
C19 O21 1.256 . S
O20 Cd12 2.381 . S
O20 C19 1.258 . S
O21 Cd12 2.378 . S
O21 C19 1.256 . S
O22 Cd23 2.300 . S
O22 C29 1.275 . S
Cd23 O22 2.300 . S
Cd23 O31 2.381 . S
Cd23 O32 2.378 . S
O24 Cd25 2.385 . S
O24 C29 1.255 . S
Cd25 O24 2.385 . S
Cd25 O26 2.317 . S
O26 Cd25 2.317 . S
O26 C27 1.232 . S
C27 O26 1.232 . S
C27 O28 1.218 . S
O28 C27 1.218 . S
C29 O22 1.275 . S
C29 O24 1.255 . S
C30 O31 1.258 . S
C30 O32 1.256 . S
O31 Cd23 2.381 . S
O31 C30 1.258 . S
O32 Cd23 2.378 . S
O32 C30 1.256 . S
O33 Cd34 2.300 . S
O33 C40 1.275 . S
Cd34 O33 2.300 . S
Cd34 O42 2.381 . S
Cd34 O43 2.378 . S
O35 Cd36 2.385 . S
O35 C40 1.255 . S
Cd36 O35 2.385 . S
Cd36 O37 2.317 . S
O37 Cd36 2.317 . S
O37 C38 1.232 . S
C38 O37 1.232 . S
C38 O39 1.218 . S
O39 C38 1.218 . S
C40 O33 1.275 . S
C40 O35 1.255 . S
C41 O42 1.258 . S
C41 O43 1.256 . S
O42 Cd34 2.381 . S
O42 C41 1.258 . S
O43 Cd34 2.378 . S
O43 C41 1.256 . S
O44 Cd45 2.300 . S
O44 C51 1.275 . S
Cd45 O44 2.300 . S
Cd45 O53 2.381 . S
Cd45 O54 2.378 . S
O46 Cd47 2.385 . S
O46 C51 1.255 . S
Cd47 O46 2.385 . S
Cd47 O48 2.317 . S
O48 Cd47 2.317 . S
O48 C49 1.232 . S
C49 O48 1.232 . S
C49 O50 1.218 . S
O50 C49 1.218 . S
C51 O44 1.275 . S
C51 O46 1.255 . S
C52 O53 1.258 . S
C52 O54 1.256 . S
O53 Cd45 2.381 . S
O53 C52 1.258 . S
O54 Cd45 2.378 . S
O54 C52 1.256 . S
O55 Cd56 2.300 . S
O55 C62 1.275 . S
Cd56 O55 2.300 . S
Cd56 O64 2.381 . S
Cd56 O65 2.378 . S
O57 Cd58 2.385 . S
O57 C62 1.255 . S
Cd58 O57 2.385 . S
Cd58 O59 2.317 . S
O59 Cd58 2.317 . S
O59 C60 1.232 . S
C60 O59 1.232 . S
C60 O61 1.218 . S
O61 C60 1.218 . S
C62 O55 1.275 . S
C62 O57 1.255 . S
C63 O64 1.258 . S
C63 O65 1.256 . S
O64 Cd56 2.381 . S
O64 C63 1.258 . S
O65 Cd56 2.378 . S
O65 C63 1.256 . S
O66 Cd67 2.300 . S
O66 C73 1.275 . S
Cd67 O66 2.300 . S
Cd67 O75 2.381 . S
Cd67 O76 2.378 . S
O68 Cd69 2.385 . S
O68 C73 1.255 . S
Cd69 O68 2.385 . S
Cd69 O70 2.317 . S
O70 Cd69 2.317 . S
O70 C71 1.232 . S
C71 O70 1.232 . S
C71 O72 1.218 . S
O72 C71 1.218 . S
C73 O66 1.275 . S
C73 O68 1.255 . S
C74 O75 1.258 . S
C74 O76 1.256 . S
O75 Cd67 2.381 . S
O75 C74 1.258 . S
O76 Cd67 2.378 . S
O76 C74 1.256 . S
O77 Cd78 2.300 . S
O77 C84 1.275 . S
Cd78 O77 2.300 . S
Cd78 O86 2.381 . S
Cd78 O87 2.378 . S
O79 Cd80 2.385 . S
O79 C84 1.255 . S
Cd80 O79 2.385 . S
Cd80 O81 2.317 . S
O81 Cd80 2.317 . S
O81 C82 1.232 . S
C82 O81 1.232 . S
C82 O83 1.218 . S
O83 C82 1.218 . S
C84 O77 1.275 . S
C84 O79 1.255 . S
C85 O86 1.258 . S
C85 O87 1.256 . S
O86 Cd78 2.381 . S
O86 C85 1.258 . S
O87 Cd78 2.378 . S
O87 C85 1.256 . S
Dy88 O92 2.398 . S
Dy88 O93 2.491 . S
Dy88 O94 2.403 1_545 S
Dy88 O95 2.664 1_545 S
Dy88 O99 2.326 . S
Dy88 O103 2.310 1_455 S
Dy88 O104 2.362 1_545 S
C89 O100 1.185 . S
C89 O101 1.355 . S
C90 O92 1.185 . S
C90 O93 1.355 . S
Dy91 O95 2.310 1_645 S
Dy91 O98 2.351 1_655 S
Dy91 O100 2.398 1_545 S
Dy91 O101 2.491 1_545 S
Dy91 O102 2.403 . S
Dy91 O103 2.664 . S
Dy91 O105 2.326 1_545 S
O92 Dy88 2.398 . S
O92 C90 1.185 . S
O93 Dy88 2.491 . S
O93 C90 1.355 . S
O94 Dy88 2.403 1_565 S
O94 C96 1.254 . S
O95 Dy88 2.664 1_565 S
O95 Dy91 2.310 1_465 S
O95 C96 1.268 . S
C96 O94 1.254 . S
C96 O95 1.268 . S
C97 O102 1.254 . S
C97 O103 1.268 . S
O98 Dy91 2.351 1_455 S
O98 C106 1.249 . S
O99 Dy88 2.326 . S
O99 C106 1.267 . S
O100 C89 1.185 . S
O100 Dy91 2.398 1_565 S
O101 C89 1.355 . S
O101 Dy91 2.491 1_565 S
O102 Dy91 2.403 . S
O102 C97 1.254 . S
O103 Dy88 2.310 1_655 S
O103 Dy91 2.664 . S
O103 C97 1.268 . S
O104 Dy88 2.362 1_565 S
O104 C107 1.234 1_455 S
O105 Dy91 2.326 1_565 S
O105 C107 1.267 . S
C106 O98 1.249 . S
C106 O99 1.267 . S
C107 O104 1.234 1_655 S
C107 O105 1.267 . S
Dy108 O112 2.398 . S
Dy108 O113 2.491 . S
Dy108 O114 2.403 1_545 S
Dy108 O115 2.664 1_545 S
Dy108 O119 2.326 . S
Dy108 O123 2.310 . S
Dy108 O124 2.351 . S
C109 O120 1.185 1_565 S
C109 O121 1.355 . S
C110 O112 1.185 . S
C110 O113 1.355 . S
Dy111 O115 2.310 1_545 S
Dy111 O118 2.351 . S
Dy111 O120 2.398 1_554 S
Dy111 O121 2.491 1_544 S
Dy111 O122 2.403 1_554 S
Dy111 O123 2.664 . S
Dy111 O125 2.326 1_554 S
O112 Dy108 2.398 . S
O112 C110 1.185 . S
O113 Dy108 2.491 . S
O113 C110 1.355 . S
O114 Dy108 2.403 1_565 S
O114 C116 1.254 . S
O115 Dy108 2.664 1_565 S
O115 Dy111 2.310 1_565 S
O115 C116 1.268 . S
C116 O114 1.254 . S
C116 O115 1.268 . S
C117 O122 1.254 1_554 S
C117 O123 1.268 . S
O118 Dy111 2.351 . S
O118 C126 1.249 . S
O119 Dy108 2.326 . S
O119 C126 1.267 . S
O120 C109 1.185 1_545 S
O120 Dy111 2.398 1_556 S
O121 C109 1.355 . S
O121 Dy111 2.491 1_566 S
O122 Dy111 2.403 1_556 S
O122 C117 1.254 1_556 S
O123 Dy108 2.310 . S
O123 Dy111 2.664 . S
O123 C117 1.268 . S
O124 Dy108 2.351 . S
O124 C127 1.249 1_545 S
O125 Dy111 2.326 1_556 S
O125 C127 1.267 1_546 S
C126 O118 1.249 . S
C126 O119 1.267 . S
C127 O124 1.249 1_565 S
C127 O125 1.267 1_564 S
Dy128 O132 2.398 . S
Dy128 O133 2.491 . S
Dy128 O134 2.403 . S
Dy128 O135 2.664 . S
Dy128 O139 2.326 . S
Dy128 O143 2.310 . S
Dy128 O144 2.351 . S
C129 O140 1.185 . S
C129 O141 1.355 . S
C130 O132 1.185 . S
C130 O133 1.355 . S
Dy131 O135 2.310 . S
Dy131 O138 2.351 . S
Dy131 O140 2.398 . S
Dy131 O141 2.491 . S
Dy131 O142 2.403 . S
Dy131 O143 2.664 . S
Dy131 O145 2.326 . S
O132 Dy128 2.398 . S
O132 C130 1.185 . S
O133 Dy128 2.491 . S
O133 C130 1.355 . S
O134 Dy128 2.403 . S
O134 C136 1.254 . S
O135 Dy128 2.664 . S
O135 Dy131 2.310 . S
O135 C136 1.268 . S
C136 O134 1.254 . S
C136 O135 1.268 . S
C137 O142 1.254 . S
C137 O143 1.268 . S
O138 Dy131 2.351 . S
O138 C146 1.249 . S
O139 Dy128 2.326 . S
O139 C146 1.267 . S
O140 C129 1.185 . S
O140 Dy131 2.398 . S
O141 C129 1.355 . S
O141 Dy131 2.491 . S
O142 Dy131 2.403 . S
O142 C137 1.254 . S
O143 Dy128 2.310 . S
O143 Dy131 2.664 . S
O143 C137 1.268 . S
O144 Dy128 2.351 . S
O144 C147 1.249 . S
O145 Dy131 2.326 . S
O145 C147 1.267 . S
C146 O138 1.249 . S
C146 O139 1.267 . S
C147 O144 1.249 . S
C147 O145 1.267 . S
Dy148 O152 2.398 . S
Dy148 O153 2.491 . S
Dy148 O154 2.403 . S
Dy148 O155 2.664 . S
Dy148 O159 2.326 . S
Dy148 O163 2.310 1_554 S
Dy148 O164 2.351 1_455 S
C149 O160 1.185 . S
C149 O161 1.355 . S
C150 O152 1.185 . S
C150 O153 1.355 . S
Dy151 O155 2.310 1_556 S
Dy151 O158 2.351 1_556 S
Dy151 O160 2.398 1_455 S
Dy151 O161 2.491 1_455 S
Dy151 O162 2.403 . S
Dy151 O163 2.664 . S
Dy151 O165 2.326 1_455 S
O152 Dy148 2.398 . S
O152 C150 1.185 . S
O153 Dy148 2.491 . S
O153 C150 1.355 . S
O154 Dy148 2.403 . S
O154 C156 1.254 1_455 S
O155 Dy148 2.664 . S
O155 Dy151 2.310 1_554 S
O155 C156 1.268 1_455 S
C156 O154 1.254 1_655 S
C156 O155 1.268 1_655 S
C157 O162 1.254 . S
C157 O163 1.268 . S
O158 Dy151 2.351 1_554 S
O158 C166 1.249 . S
O159 Dy148 2.326 . S
O159 C166 1.267 . S
O160 C149 1.185 . S
O160 Dy151 2.398 1_655 S
O161 C149 1.355 . S
O161 Dy151 2.491 1_655 S
O162 Dy151 2.403 . S
O162 C157 1.254 . S
O163 Dy148 2.310 1_556 S
O163 Dy151 2.664 . S
O163 C157 1.268 . S
O164 Dy148 2.351 1_655 S
O164 C167 1.249 1_554 S
O165 Dy151 2.326 1_655 S
O165 C167 1.267 . S
C166 O158 1.249 . S
C166 O159 1.267 . S
C167 O164 1.249 1_556 S
C167 O165 1.267 . S
H168 C174 0.930 . S
H169 C177 0.930 . S
H170 C178 0.930 . S
H171 C179 0.930 . S
H172 C182 0.930 . S
H173 C183 0.930 . S
C174 H168 0.930 . S
C174 C175 1.355 . S
C174 C176 1.415 . S
C175 C174 1.355 . S
C175 C177 1.419 . S
C176 C174 1.415 . S
C176 C181 1.425 . S
C176 C183 1.409 . S
C177 H169 0.930 . S
C177 C175 1.419 . S
C177 C178 1.362 . S
C178 H170 0.930 . S
C178 C177 1.362 . S
C178 C181 1.409 . S
C179 H171 0.930 . S
C179 C180 1.355 . S
C179 C181 1.415 . S
C180 C179 1.355 . S
C180 C182 1.419 . S
C181 C176 1.425 . S
C181 C178 1.409 . S
C181 C179 1.415 . S
C182 H172 0.930 . S
C182 C180 1.419 . S
C182 C183 1.362 . S
C183 H173 0.930 . S
C183 C176 1.409 . S
C183 C182 1.362 . S
H184 C190 0.930 . S
H185 C193 0.930 . S
H186 C194 0.930 . S
H187 C195 0.930 . S
H188 C198 0.930 . S
H189 C199 0.930 . S
C190 H184 0.930 . S
C190 C191 1.355 . S
C190 C192 1.415 . S
C191 C190 1.355 . S
C191 C193 1.419 . S
C192 C190 1.415 . S
C192 C197 1.425 . S
C192 C199 1.409 . S
C193 H185 0.930 . S
C193 C191 1.419 . S
C193 C194 1.362 . S
C194 H186 0.930 . S
C194 C193 1.362 . S
C194 C197 1.409 . S
C195 H187 0.930 . S
C195 C196 1.355 . S
C195 C197 1.415 . S
C196 C195 1.355 . S
C196 C198 1.419 . S
C197 C192 1.425 . S
C197 C194 1.409 . S
C197 C195 1.415 . S
C198 H188 0.930 . S
C198 C196 1.419 . S
C198 C199 1.362 . S
C199 H189 0.930 . S
C199 C192 1.409 . S
C199 C198 1.362 . S
H200 C206 0.930 . S
H201 C209 0.930 . S
H202 C210 0.930 . S
H203 C211 0.930 . S
H204 C214 0.930 . S
H205 C215 0.930 . S
C206 H200 0.930 . S
C206 C207 1.355 . S
C206 C208 1.415 . S
C207 C206 1.355 . S
C207 C209 1.419 . S
C208 C206 1.415 . S
C208 C213 1.425 . S
C208 C215 1.409 . S
C209 H201 0.930 . S
C209 C207 1.419 . S
C209 C210 1.362 . S
C210 H202 0.930 . S
C210 C209 1.362 . S
C210 C213 1.409 . S
C211 H203 0.930 . S
C211 C212 1.355 . S
C211 C213 1.415 . S
C212 C211 1.355 . S
C212 C214 1.419 . S
C213 C208 1.425 . S
C213 C210 1.409 . S
C213 C211 1.415 . S
C214 H204 0.930 . S
C214 C212 1.419 . S
C214 C215 1.362 . S
C215 H205 0.930 . S
C215 C208 1.409 . S
C215 C214 1.362 . S
H216 C222 0.930 . S
H217 C225 0.930 . S
H218 C226 0.930 . S
H219 C227 0.930 . S
H220 C230 0.930 . S
H221 C231 0.930 . S
C222 H216 0.930 . S
C222 C223 1.355 . S
C222 C224 1.415 . S
C223 C222 1.355 . S
C223 C225 1.419 . S
C224 C222 1.415 . S
C224 C229 1.425 . S
C224 C231 1.409 . S
C225 H217 0.930 . S
C225 C223 1.419 . S
C225 C226 1.362 . S
C226 H218 0.930 . S
C226 C225 1.362 . S
C226 C229 1.409 . S
C227 H219 0.930 . S
C227 C228 1.355 . S
C227 C229 1.415 . S
C228 C227 1.355 . S
C228 C230 1.419 . S
C229 C224 1.425 . S
C229 C226 1.409 . S
C229 C227 1.415 . S
C230 H220 0.930 . S
C230 C228 1.419 . S
C230 C231 1.362 . S
C231 H221 0.930 . S
C231 C224 1.409 . S
C231 C230 1.362 . S
H232 C238 0.930 . S
H233 C241 0.930 . S
H234 C242 0.930 . S
H235 C243 0.930 . S
H236 C246 0.930 . S
H237 C247 0.930 . S
C238 H232 0.930 . S
C238 C239 1.355 . S
C238 C240 1.415 . S
C239 C238 1.355 . S
C239 C241 1.419 . S
C240 C238 1.415 . S
C240 C245 1.425 . S
C240 C247 1.409 . S
C241 H233 0.930 . S
C241 C239 1.419 . S
C241 C242 1.362 . S
C242 H234 0.930 . S
C242 C241 1.362 . S
C242 C245 1.409 . S
C243 H235 0.930 . S
C243 C244 1.355 . S
C243 C245 1.415 . S
C244 C243 1.355 . S
C244 C246 1.419 . S
C245 C240 1.425 . S
C245 C242 1.409 . S
C245 C243 1.415 . S
C246 H236 0.930 . S
C246 C244 1.419 . S
C246 C247 1.362 . S
C247 H237 0.930 . S
C247 C240 1.409 . S
C247 C246 1.362 . S
H248 C254 0.930 . S
H249 C257 0.930 . S
H250 C258 0.930 1_545 S
H251 C259 0.930 1_545 S
H252 C262 0.930 . S
H253 C263 0.930 . S
C254 H248 0.930 . S
C254 C255 1.355 . S
C254 C256 1.415 . S
C255 C254 1.355 . S
C255 C257 1.419 . S
C256 C254 1.415 . S
C256 C261 1.425 . S
C256 C263 1.409 . S
C257 H249 0.930 . S
C257 C255 1.419 . S
C257 C258 1.362 . S
C258 H250 0.930 1_565 S
C258 C257 1.362 . S
C258 C261 1.409 . S
C259 H251 0.930 1_565 S
C259 C260 1.355 . S
C259 C261 1.415 . S
C260 C259 1.355 . S
C260 C262 1.419 . S
C261 C256 1.425 . S
C261 C258 1.409 . S
C261 C259 1.415 . S
C262 H252 0.930 . S
C262 C260 1.419 . S
C262 C263 1.362 . S
C263 H253 0.930 . S
C263 C256 1.409 . S
C263 C262 1.362 . S
H264 C270 0.930 . S
H265 C273 0.930 . S
H266 C274 0.930 1_554 S
H267 C275 0.930 1_554 S
H268 C278 0.930 . S
H269 C279 0.930 . S
C270 H264 0.930 . S
C270 C271 1.355 . S
C270 C272 1.415 . S
C271 C270 1.355 . S
C271 C273 1.419 . S
C272 C270 1.415 . S
C272 C277 1.425 . S
C272 C279 1.409 . S
C273 H265 0.930 . S
C273 C271 1.419 . S
C273 C274 1.362 . S
C274 H266 0.930 1_556 S
C274 C273 1.362 . S
C274 C277 1.409 . S
C275 H267 0.930 1_556 S
C275 C276 1.355 . S
C275 C277 1.415 . S
C276 C275 1.355 . S
C276 C278 1.419 . S
C277 C272 1.425 . S
C277 C274 1.409 . S
C277 C275 1.415 . S
C278 H268 0.930 . S
C278 C276 1.419 . S
C278 C279 1.362 . S
C279 H269 0.930 . S
C279 C272 1.409 . S
C279 C278 1.362 . S
H280 C286 0.930 . S
H281 C289 0.930 . S
H282 C290 0.930 . S
H283 C291 0.930 . S
H284 C294 0.930 . S
H285 C295 0.930 . S
C286 H280 0.930 . S
C286 C287 1.355 . S
C286 C288 1.415 . S
C287 C286 1.355 . S
C287 C289 1.419 . S
C288 C286 1.415 . S
C288 C293 1.425 . S
C288 C295 1.409 . S
C289 H281 0.930 . S
C289 C287 1.419 . S
C289 C290 1.362 . S
C290 H282 0.930 . S
C290 C289 1.362 . S
C290 C293 1.409 . S
C291 H283 0.930 . S
C291 C292 1.355 . S
C291 C293 1.415 . S
C292 C291 1.355 . S
C292 C294 1.419 . S
C293 C288 1.425 . S
C293 C290 1.409 . S
C293 C291 1.415 . S
C294 H284 0.930 . S
C294 C292 1.419 . S
C294 C295 1.362 . S
C295 H285 0.930 . S
C295 C288 1.409 . S
C295 C294 1.362 . S
H296 C302 0.930 . S
H297 C305 0.930 . S
H298 C306 0.930 . S
H299 C307 0.930 . S
H300 C310 0.930 . S
H301 C311 0.930 . S
C302 H296 0.930 . S
C302 C303 1.355 . S
C302 C304 1.415 . S
C303 C302 1.355 . S
C303 C305 1.419 . S
C304 C302 1.415 . S
C304 C309 1.425 . S
C304 C311 1.409 . S
C305 H297 0.930 . S
C305 C303 1.419 . S
C305 C306 1.362 . S
C306 H298 0.930 . S
C306 C305 1.362 . S
C306 C309 1.409 . S
C307 H299 0.930 . S
C307 C308 1.355 . S
C307 C309 1.415 . S
C308 C307 1.355 . S
C308 C310 1.419 . S
C309 C304 1.425 . S
C309 C306 1.409 . S
C309 C307 1.415 . S
C310 H300 0.930 . S
C310 C308 1.419 . S
C310 C311 1.362 . S
C311 H301 0.930 . S
C311 C304 1.409 . S
C311 C310 1.362 . S
H312 C318 0.930 . S
H313 C321 0.930 . S
H314 C322 0.930 . S
H315 C323 0.930 . S
H316 C326 0.930 . S
H317 C327 0.930 . S
C318 H312 0.930 . S
C318 C319 1.355 . S
C318 C320 1.415 . S
C319 C318 1.355 . S
C319 C321 1.419 . S
C320 C318 1.415 . S
C320 C325 1.425 . S
C320 C327 1.409 . S
C321 H313 0.930 . S
C321 C319 1.419 . S
C321 C322 1.362 . S
C322 H314 0.930 . S
C322 C321 1.362 . S
C322 C325 1.409 . S
C323 H315 0.930 . S
C323 C324 1.355 . S
C323 C325 1.415 1_554 S
C324 C323 1.355 . S
C324 C326 1.419 . S
C325 C320 1.425 . S
C325 C322 1.409 . S
C325 C323 1.415 1_556 S
C326 H316 0.930 . S
C326 C324 1.419 . S
C326 C327 1.362 1_554 S
C327 H317 0.930 . S
C327 C320 1.409 . S
C327 C326 1.362 1_556 S
H328 C334 0.930 . S
H329 C337 0.930 . S
H330 C338 0.930 1_455 S
H331 C339 0.930 1_455 S
H332 C342 0.930 . S
H333 C343 0.930 . S
C334 H328 0.930 . S
C334 C335 1.355 . S
C334 C336 1.415 . S
C335 C334 1.355 . S
C335 C337 1.419 . S
C336 C334 1.415 . S
C336 C341 1.425 . S
C336 C343 1.409 . S
C337 H329 0.930 . S
C337 C335 1.419 . S
C337 C338 1.362 . S
C338 H330 0.930 1_655 S
C338 C337 1.362 . S
C338 C341 1.409 . S
C339 H331 0.930 1_655 S
C339 C340 1.355 . S
C339 C341 1.415 . S
C340 C339 1.355 . S
C340 C342 1.419 . S
C341 C336 1.425 . S
C341 C338 1.409 . S
C341 C339 1.415 . S
C342 H332 0.930 . S
C342 C340 1.419 . S
C342 C343 1.362 . S
C343 H333 0.930 . S
C343 C336 1.409 . S
C343 C342 1.362 . S
H344 C350 0.930 . S
H345 C353 0.930 . S
H346 C354 0.930 . S
H347 C355 0.930 . S
H348 C358 0.930 . S
H349 C359 0.930 . S
C350 H344 0.930 . S
C350 C351 1.355 . S
C350 C352 1.415 . S
C351 C350 1.355 . S
C351 C353 1.419 . S
C352 C350 1.415 . S
C352 C357 1.425 . S
C352 C359 1.409 . S
C353 H345 0.930 . S
C353 C351 1.419 . S
C353 C354 1.362 . S
C354 H346 0.930 . S
C354 C353 1.362 . S
C354 C357 1.409 . S
C355 H347 0.930 . S
C355 C356 1.355 . S
C355 C357 1.415 . S
C356 C355 1.355 . S
C356 C358 1.419 . S
C357 C352 1.425 . S
C357 C354 1.409 . S
C357 C355 1.415 . S
C358 H348 0.930 . S
C358 C356 1.419 . S
C358 C359 1.362 . S
C359 H349 0.930 . S
C359 C352 1.409 . S
C359 C358 1.362 . S
H360 C366 0.930 . S
H361 C369 0.930 . S
H362 C370 0.930 . S
H363 C371 0.930 . S
H364 C374 0.930 . S
H365 C375 0.930 . S
C366 H360 0.930 . S
C366 C367 1.355 . S
C366 C368 1.415 . S
C367 C366 1.355 . S
C367 C369 1.419 . S
C368 C366 1.415 . S
C368 C373 1.425 . S
C368 C375 1.409 . S
C369 H361 0.930 . S
C369 C367 1.419 . S
C369 C370 1.362 . S
C370 H362 0.930 . S
C370 C369 1.362 . S
C370 C373 1.409 . S
C371 H363 0.930 . S
C371 C372 1.355 . S
C371 C373 1.415 . S
C372 C371 1.355 . S
C372 C374 1.419 . S
C373 C368 1.425 . S
C373 C370 1.409 . S
C373 C371 1.415 . S
C374 H364 0.930 . S
C374 C372 1.419 . S
C374 C375 1.362 . S
C375 H365 0.930 . S
C375 C368 1.409 . S
C375 C374 1.362 . S
H376 C382 0.930 . S
H377 C385 0.930 . S
H378 C386 0.930 . S
H379 C387 0.930 . S
H380 C390 0.930 . S
H381 C391 0.930 . S
C382 H376 0.930 . S
C382 C383 1.355 . S
C382 C384 1.415 . S
C383 C382 1.355 . S
C383 C385 1.419 . S
C384 C382 1.415 . S
C384 C389 1.425 . S
C384 C391 1.409 . S
C385 H377 0.930 . S
C385 C383 1.419 . S
C385 C386 1.362 . S
C386 H378 0.930 . S
C386 C385 1.362 . S
C386 C389 1.409 . S
C387 H379 0.930 . S
C387 C388 1.355 . S
C387 C389 1.415 . S
C388 C387 1.355 . S
C388 C390 1.419 . S
C389 C384 1.425 . S
C389 C386 1.409 . S
C389 C387 1.415 . S
C390 H380 0.930 . S
C390 C388 1.419 . S
C390 C391 1.362 . S
C391 H381 0.930 . S
C391 C384 1.409 . S
C391 C390 1.362 . S
H392 C398 0.930 . S
H393 C401 0.930 . S
H394 C402 0.930 . S
H395 C403 0.930 . S
H396 C406 0.930 . S
H397 C407 0.930 . S
C398 H392 0.930 . S
C398 C399 1.355 . S
C398 C400 1.415 . S
C399 C398 1.355 . S
C399 C401 1.419 . S
C400 C398 1.415 . S
C400 C405 1.425 . S
C400 C407 1.409 . S
C401 H393 0.930 . S
C401 C399 1.419 . S
C401 C402 1.362 . S
C402 H394 0.930 . S
C402 C401 1.362 . S
C402 C405 1.409 . S
C403 H395 0.930 . S
C403 C404 1.355 . S
C403 C405 1.415 . S
C404 C403 1.355 . S
C404 C406 1.419 . S
C405 C400 1.425 . S
C405 C402 1.409 . S
C405 C403 1.415 . S
C406 H396 0.930 . S
C406 C404 1.419 . S
C406 C407 1.362 . S
C407 H397 0.930 . S
C407 C400 1.409 . S
C407 C406 1.362 . S
H408 C414 0.930 . S
H409 C417 0.930 . S
H410 C418 0.930 . S
H411 C419 0.930 . S
H412 C422 0.930 . S
H413 C423 0.930 . S
C414 H408 0.930 . S
C414 C415 1.355 . S
C414 C416 1.415 . S
C415 C414 1.355 . S
C415 C417 1.419 . S
C416 C414 1.415 . S
C416 C421 1.425 . S
C416 C423 1.409 . S
C417 H409 0.930 . S
C417 C415 1.419 . S
C417 C418 1.362 . S
C418 H410 0.930 . S
C418 C417 1.362 . S
C418 C421 1.409 . S
C419 H411 0.930 . S
C419 C420 1.355 . S
C419 C421 1.415 . S
C420 C419 1.355 . S
C420 C422 1.419 . S
C421 C416 1.425 . S
C421 C418 1.409 . S
C421 C419 1.415 . S
C422 H412 0.930 . S
C422 C420 1.419 . S
C422 C423 1.362 . S
C423 H413 0.930 . S
C423 C416 1.409 . S
C423 C422 1.362 . S
H424 C430 0.930 . S
H425 C433 0.930 . S
H426 C434 0.930 . S
H427 C435 0.930 1_554 S
H428 C438 0.930 . S
H429 C439 0.930 . S
C430 H424 0.930 . S
C430 C431 1.355 . S
C430 C432 1.415 . S
C431 C430 1.355 . S
C431 C433 1.419 . S
C432 C430 1.415 . S
C432 C437 1.425 . S
C432 C439 1.409 . S
C433 H425 0.930 . S
C433 C431 1.419 . S
C433 C434 1.362 . S
C434 H426 0.930 . S
C434 C433 1.362 . S
C434 C437 1.409 . S
C435 H427 0.930 1_556 S
C435 C436 1.355 . S
C435 C437 1.415 . S
C436 C435 1.355 . S
C436 C438 1.419 . S
C437 C432 1.425 . S
C437 C434 1.409 . S
C437 C435 1.415 . S
C438 H428 0.930 . S
C438 C436 1.419 . S
C438 C439 1.362 . S
C439 H429 0.930 . S
C439 C432 1.409 . S
C439 C438 1.362 . S
H440 C446 0.930 . S
H441 C449 0.930 . S
H442 C450 0.930 . S
H443 C451 0.930 . S
H444 C454 0.930 . S
H445 C455 0.930 . S
C446 H440 0.930 . S
C446 C447 1.355 . S
C446 C448 1.415 . S
C447 C446 1.355 . S
C447 C449 1.419 . S
C448 C446 1.415 . S
C448 C453 1.425 . S
C448 C455 1.409 . S
C449 H441 0.930 . S
C449 C447 1.419 . S
C449 C450 1.362 . S
C450 H442 0.930 . S
C450 C449 1.362 . S
C450 C453 1.409 . S
C451 H443 0.930 . S
C451 C452 1.355 . S
C451 C453 1.415 . S
C452 C451 1.355 . S
C452 C454 1.419 . S
C453 C448 1.425 . S
C453 C450 1.409 . S
C453 C451 1.415 . S
C454 H444 0.930 . S
C454 C452 1.419 . S
C454 C455 1.362 . S
C455 H445 0.930 . S
C455 C448 1.409 . S
C455 C454 1.362 . S
H456 C462 0.930 . S
H457 C465 0.930 . S
H458 C466 0.930 . S
H459 C467 0.930 . S
H460 C470 0.930 . S
H461 C471 0.930 . S
C462 H456 0.930 . S
C462 C463 1.355 . S
C462 C464 1.415 . S
C463 C462 1.355 . S
C463 C465 1.419 . S
C464 C462 1.415 . S
C464 C469 1.425 . S
C464 C471 1.409 . S
C465 H457 0.930 . S
C465 C463 1.419 . S
C465 C466 1.362 . S
C466 H458 0.930 . S
C466 C465 1.362 . S
C466 C469 1.409 . S
C467 H459 0.930 . S
C467 C468 1.355 . S
C467 C469 1.415 . S
C468 C467 1.355 . S
C468 C470 1.419 . S
C469 C464 1.425 . S
C469 C466 1.409 . S
C469 C467 1.415 . S
C470 H460 0.930 . S
C470 C468 1.419 . S
C470 C471 1.362 . S
C471 H461 0.930 . S
C471 C464 1.409 . S
C471 C470 1.362 . S
H472 C478 0.930 . S
H473 C481 0.930 . S
H474 C482 0.930 . S
H475 C483 0.930 . S
H476 C486 0.930 . S
H477 C487 0.930 . S
C478 H472 0.930 . S
C478 C479 1.355 . S
C478 C480 1.415 . S
C479 C478 1.355 . S
C479 C481 1.419 . S
C480 C478 1.415 . S
C480 C485 1.425 . S
C480 C487 1.409 . S
C481 H473 0.930 . S
C481 C479 1.419 . S
C481 C482 1.362 . S
C482 H474 0.930 . S
C482 C481 1.362 . S
C482 C485 1.409 . S
C483 H475 0.930 . S
C483 C484 1.355 . S
C483 C485 1.415 . S
C484 C483 1.355 . S
C484 C486 1.419 . S
C485 C480 1.425 . S
C485 C482 1.409 . S
C485 C483 1.415 . S
C486 H476 0.930 . S
C486 C484 1.419 . S
C486 C487 1.362 . S
C487 H477 0.930 . S
C487 C480 1.409 . S
C487 C486 1.362 . S
H488 C494 0.930 . S
H489 C497 0.930 . S
H490 C498 0.930 . S
H491 C499 0.930 . S
H492 C502 0.930 . S
H493 C503 0.930 . S
C494 H488 0.930 . S
C494 C495 1.355 . S
C494 C496 1.415 . S
C495 C494 1.355 . S
C495 C497 1.419 . S
C496 C494 1.415 . S
C496 C501 1.425 . S
C496 C503 1.409 . S
C497 H489 0.930 . S
C497 C495 1.419 . S
C497 C498 1.362 . S
C498 H490 0.930 . S
C498 C497 1.362 . S
C498 C501 1.409 . S
C499 H491 0.930 . S
C499 C500 1.355 . S
C499 C501 1.415 . S
C500 C499 1.355 . S
C500 C502 1.419 . S
C501 C496 1.425 . S
C501 C498 1.409 . S
C501 C499 1.415 . S
C502 H492 0.930 . S
C502 C500 1.419 . S
C502 C503 1.362 . S
C503 H493 0.930 . S
C503 C496 1.409 . S
C503 C502 1.362 . S
H504 C510 0.930 . S
H505 C513 0.930 . S
H506 C514 0.930 . S
H507 C515 0.930 . S
H508 C518 0.930 . S
H509 C519 0.930 . S
C510 H504 0.930 . S
C510 C511 1.355 . S
C510 C512 1.415 . S
C511 C510 1.355 . S
C511 C513 1.419 . S
C512 C510 1.415 . S
C512 C517 1.425 . S
C512 C519 1.409 . S
C513 H505 0.930 . S
C513 C511 1.419 . S
C513 C514 1.362 . S
C514 H506 0.930 . S
C514 C513 1.362 . S
C514 C517 1.409 . S
C515 H507 0.930 . S
C515 C516 1.355 . S
C515 C517 1.415 . S
C516 C515 1.355 . S
C516 C518 1.419 . S
C517 C512 1.425 . S
C517 C514 1.409 . S
C517 C515 1.415 . S
C518 H508 0.930 . S
C518 C516 1.419 . S
C518 C519 1.362 . S
C519 H509 0.930 . S
C519 C512 1.409 . S
C519 C518 1.362 . S
H520 C526 0.930 . S
H521 C529 0.930 . S
H522 C530 0.930 . S
H523 C531 0.930 . S
H524 C534 0.930 . S
H525 C535 0.930 . S
C526 H520 0.930 . S
C526 C527 1.355 . S
C526 C528 1.415 . S
C527 C526 1.355 . S
C527 C529 1.419 . S
C528 C526 1.415 . S
C528 C533 1.425 . S
C528 C535 1.409 . S
C529 H521 0.930 . S
C529 C527 1.419 . S
C529 C530 1.362 . S
C530 H522 0.930 . S
C530 C529 1.362 . S
C530 C533 1.409 . S
C531 H523 0.930 . S
C531 C532 1.355 . S
C531 C533 1.415 . S
C532 C531 1.355 . S
C532 C534 1.419 . S
C533 C528 1.425 . S
C533 C530 1.409 . S
C533 C531 1.415 . S
C534 H524 0.930 . S
C534 C532 1.419 . S
C534 C535 1.362 . S
C535 H525 0.930 . S
C535 C528 1.409 . S
C535 C534 1.362 . S
H536 C542 0.930 . S
H537 C545 0.930 . S
H538 C546 0.930 . S
H539 C547 0.930 . S
H540 C550 0.930 . S
H541 C551 0.930 . S
C542 H536 0.930 . S
C542 C543 1.355 . S
C542 C544 1.415 . S
C543 C542 1.355 . S
C543 C545 1.419 . S
C544 C542 1.415 . S
C544 C549 1.425 . S
C544 C551 1.409 . S
C545 H537 0.930 . S
C545 C543 1.419 . S
C545 C546 1.362 . S
C546 H538 0.930 . S
C546 C545 1.362 . S
C546 C549 1.409 . S
C547 H539 0.930 . S
C547 C548 1.355 . S
C547 C549 1.415 . S
C548 C547 1.355 . S
C548 C550 1.419 . S
C549 C544 1.425 . S
C549 C546 1.409 . S
C549 C547 1.415 . S
C550 H540 0.930 . S
C550 C548 1.419 . S
C550 C551 1.362 . S
C551 H541 0.930 . S
C551 C544 1.409 . S
C551 C550 1.362 . S
C175 C5 1.254 . S
C180 C90 1.587 . S
C191 C18 1.327 . S
C196 C109 1.429 . S
C212 C146 1.617 . S
C207 C30 1.622 . S
C223 C41 1.473 . S
C228 C156 1.466 . S
C244 C126 2.005 . S
C239 C7 1.923 . S
C260 C96 1.566 . S
C255 C16 1.375 . S
C276 C167 1.574 . S
C271 C29 1.554 . S
C292 C137 1.083 . S
C287 C38 1.102 . S
C303 C8 1.614 . S
C308 C150 1.711 . S
C324 C117 1.898 . S
C319 C27 1.739 . S
C335 C40 1.749 . S
C340 C107 1.790 . S
C351 C19 1.022 . S
C356 C129 1.020 . S
C372 C89 1.468 . S
C367 C51 1.380 . S
C383 C62 1.565 . S
C388 C110 1.500 . S
C399 C74 1.710 . S
C404 C147 1.707 . S
C415 C84 1.503 . S
C420 C157 1.570 . S
C431 C49 1.620 . S
C436 C127 2.109 1_556 S
C452 C97 1.476 . S
C447 C63 1.483 . S
C468 C166 1.475 . S
C463 C71 1.437 . S
C484 C136 1.187 . S
C479 C85 1.154 . S
C495 C52 1.597 . S
C500 C149 1.637 . S
C516 C116 1.918 . S
C511 C73 1.943 . S
C532 C106 1.495 . S
C527 C82 1.299 . S
C543 C60 1.134 . S
C548 C130 1.275 . S
