# Generated by pormake.
# Topology dag, (6,3)-cn, num edge types: 1
# Building blocks:
#     Node 0, Type 0, BuildingBlock: MIDCAF_clean_sbu_0, # of connection points: 6
#     Node 1, Type 0, BuildingBlock: MIDCAF_clean_sbu_0, # of connection points: 6
#     Node 2, Type 0, BuildingBlock: MIDCAF_clean_sbu_0, # of connection points: 6
#     Node 3, Type 0, BuildingBlock: MIDCAF_clean_sbu_0, # of connection points: 6
#     Node 4, Type 1, BuildingBlock: OLANEW_clean_sbu_2, # of connection points: 3
#     Node 5, Type 1, BuildingBlock: OLANEW_clean_sbu_2, # of connection points: 3
#     Node 6, Type 1, BuildingBlock: OLANEW_clean_sbu_2, # of connection points: 3
#     Node 7, Type 1, BuildingBlock: OLANEW_clean_sbu_2, # of connection points: 3
#     Node 8, Type 1, BuildingBlock: OLANEW_clean_sbu_2, # of connection points: 3
#     Node 9, Type 1, BuildingBlock: OLANEW_clean_sbu_2, # of connection points: 3
#     Node 10, Type 1, BuildingBlock: OLANEW_clean_sbu_2, # of connection points: 3
#     Node 11, Type 1, BuildingBlock: OLANEW_clean_sbu_2, # of connection points: 3
#     Edge 12, Type (0, 1), BuildingBlock: UVAHIK_clean_linker_0, # of connection points: 2
#     Edge 13, Type (0, 1), BuildingBlock: UVAHIK_clean_linker_0, # of connection points: 2
#     Edge 14, Type (0, 1), BuildingBlock: UVAHIK_clean_linker_0, # of connection points: 2
#     Edge 15, Type (0, 1), BuildingBlock: UVAHIK_clean_linker_0, # of connection points: 2
#     Edge 16, Type (0, 1), BuildingBlock: UVAHIK_clean_linker_0, # of connection points: 2
#     Edge 17, Type (0, 1), BuildingBlock: UVAHIK_clean_linker_0, # of connection points: 2
#     Edge 18, Type (0, 1), BuildingBlock: UVAHIK_clean_linker_0, # of connection points: 2
#     Edge 19, Type (0, 1), BuildingBlock: UVAHIK_clean_linker_0, # of connection points: 2
#     Edge 20, Type (0, 1), BuildingBlock: UVAHIK_clean_linker_0, # of connection points: 2
#     Edge 21, Type (0, 1), BuildingBlock: UVAHIK_clean_linker_0, # of connection points: 2
#     Edge 22, Type (0, 1), BuildingBlock: UVAHIK_clean_linker_0, # of connection points: 2
#     Edge 23, Type (0, 1), BuildingBlock: UVAHIK_clean_linker_0, # of connection points: 2
#     Edge 24, Type (0, 1), BuildingBlock: UVAHIK_clean_linker_0, # of connection points: 2
#     Edge 25, Type (0, 1), BuildingBlock: UVAHIK_clean_linker_0, # of connection points: 2
#     Edge 26, Type (0, 1), BuildingBlock: UVAHIK_clean_linker_0, # of connection points: 2
#     Edge 27, Type (0, 1), BuildingBlock: UVAHIK_clean_linker_0, # of connection points: 2
#     Edge 28, Type (0, 1), BuildingBlock: UVAHIK_clean_linker_0, # of connection points: 2
#     Edge 29, Type (0, 1), BuildingBlock: UVAHIK_clean_linker_0, # of connection points: 2
#     Edge 30, Type (0, 1), BuildingBlock: UVAHIK_clean_linker_0, # of connection points: 2
#     Edge 31, Type (0, 1), BuildingBlock: UVAHIK_clean_linker_0, # of connection points: 2
#     Edge 32, Type (0, 1), BuildingBlock: UVAHIK_clean_linker_0, # of connection points: 2
#     Edge 33, Type (0, 1), BuildingBlock: UVAHIK_clean_linker_0, # of connection points: 2
#     Edge 34, Type (0, 1), BuildingBlock: UVAHIK_clean_linker_0, # of connection points: 2
#     Edge 35, Type (0, 1), BuildingBlock: UVAHIK_clean_linker_0, # of connection points: 2
# Relax obj value: 0.173
# Max RMSD: 0.156
# Mean RMSD: 0.135
data_MOF--net-dag--node1-MIDCAF_clean_sbu_0--node2-OLANEW_clean_sbu_2--edge1-UVAHIK_clean_linker_0
_symmetry_space_group_name_H-M    P1
_symmetry_Int_Tables_number       1
_symmetry_cell_setting            triclinic
loop_
_symmetry_equiv_pos_as_xyz
'x, y, z'
_cell_length_a     56.296635
_cell_length_b     53.386237
_cell_length_c     42.611774
_cell_angle_alpha  91.614262
_cell_angle_beta   92.997304
_cell_angle_gamma 91.264458
loop_
_atom_site_label
_atom_site_type_symbol
_atom_site_fract_x
_atom_site_fract_y
_atom_site_fract_z
_atom_type_partial_charge
Zn0 Zn 0.08636 0.8796 0.07564 0.0
Zn1 Zn 0.10883 0.90266 0.95969 0.0
Zn2 Zn 0.09974 0.8886 0.01839 0.0
C3 C 0.11711 0.94491 0.99685 0.0
C4 C 0.06225 0.88341 0.95774 0.0
O5 O 0.12469 0.86019 0.03615 0.0
O6 O 0.11183 0.85505 0.08375 0.0
C7 C 0.10089 0.92946 0.07653 0.0
O8 O 0.11085 0.92921 0.01757 0.0
O9 O 0.11792 0.93813 0.96837 0.0
O10 O 0.07653 0.89433 0.94046 0.0
O11 O 0.06815 0.87964 0.98684 0.0
O12 O 0.09094 0.914 0.09378 0.0
O13 O 0.10577 0.92305 0.04824 0.0
O14 O 0.06181 0.87437 0.01738 0.0
O15 O 0.05362 0.86688 0.06658 0.0
C16 C 0.04726 0.86688 0.0378 0.0
O17 O 0.12822 0.86401 0.00384 0.0
O18 O 0.13446 0.87764 0.95617 0.0
C19 C 0.12635 0.84975 0.06304 0.0
C20 C 0.1393 0.86291 0.97818 0.0
Zn21 Zn 0.60986 0.58707 0.45724 0.0
Zn22 Zn 0.62931 0.62449 0.55688 0.0
Zn23 Zn 0.6211 0.61247 0.50037 0.0
C24 C 0.61581 0.57286 0.55238 0.0
C25 C 0.59265 0.65531 0.53023 0.0
O26 O 0.64939 0.61966 0.46685 0.0
O27 O 0.62423 0.61131 0.42645 0.0
C28 C 0.65312 0.57232 0.48427 0.0
O29 O 0.61188 0.57868 0.52379 0.0
O30 O 0.62407 0.58939 0.57214 0.0
O31 O 0.6027 0.64929 0.55615 0.0
O32 O 0.59819 0.64419 0.50467 0.0
O33 O 0.63317 0.56209 0.47557 0.0
O34 O 0.65466 0.59638 0.48747 0.0
O35 O 0.59036 0.62726 0.47427 0.0
O36 O 0.57458 0.58983 0.46301 0.0
C37 C 0.57254 0.61342 0.46386 0.0
O38 O 0.65836 0.62567 0.49997 0.0
O39 O 0.66271 0.63693 0.55042 0.0
C40 C 0.64369 0.62131 0.43722 0.0
C41 C 0.67105 0.63549 0.52342 0.0
Zn42 Zn 0.8809 0.14034 0.94333 0.0
Zn43 Zn 0.84344 0.12738 0.05483 0.0
Zn44 Zn 0.86286 0.13469 1.00002 0.0
C45 C 0.88647 0.10115 0.05379 0.0
C46 C 0.81106 0.10909 0.00765 0.0
O47 O 0.83299 0.13259 0.96405 0.0
O48 O 0.84965 0.14113 0.91957 0.0
C49 C 0.89497 0.18223 0.98267 0.0
O50 O 0.88471 0.10721 0.02473 0.0
O51 O 0.87122 0.10852 0.07254 0.0
O52 O 0.81481 0.10879 0.03711 0.0
O53 O 0.82615 0.12 0.9905 0.0
O54 O 0.89797 0.17222 0.95599 0.0
O55 O 0.88089 0.17177 0.0016 0.0
O56 O 0.88833 0.1046 0.99271 0.0
O57 O 0.89924 0.1089 0.9439 0.0
C58 C 0.89985 0.09693 0.96907 0.0
O59 O 0.8654 0.17104 0.02648 0.0
O60 O 0.84129 0.16367 0.06483 0.0
C61 C 0.8312 0.1368 0.93438 0.0
C62 C 0.8539 0.17872 0.05013 0.0
Zn63 Zn 0.36683 0.40052 0.59014 0.0
Zn64 Zn 0.35868 0.37191 0.48531 0.0
Zn65 Zn 0.35556 0.38586 0.54017 0.0
C66 C 0.40421 0.39021 0.50946 0.0
C67 C 0.32316 0.40928 0.48801 0.0
O68 O 0.3385 0.35963 0.57219 0.0
O69 O 0.33547 0.38909 0.60876 0.0
C70 C 0.38421 0.35334 0.58273 0.0
O71 O 0.39258 0.39336 0.53409 0.0
O72 O 0.39364 0.38151 0.48439 0.0
O73 O 0.33351 0.39509 0.46905 0.0
O74 O 0.32899 0.4092 0.51748 0.0
O75 O 0.39265 0.37441 0.59299 0.0
O76 O 0.36449 0.35239 0.566 0.0
O77 O 0.33807 0.42117 0.54981 0.0
O78 O 0.36986 0.4363 0.57672 0.0
C79 C 0.34995 0.43996 0.5626 0.0
O80 O 0.34156 0.34685 0.54063 0.0
O81 O 0.34798 0.33633 0.49124 0.0
C82 C 0.3292 0.36757 0.59761 0.0
C83 C 0.34017 0.33064 0.51749 0.0
O84 O 0.17647 0.06195 0.36028 0.0
Cd85 Cd 0.17379 0.07058 0.41673 0.0
O86 O 0.14146 0.07909 0.35531 0.0
Cd87 Cd 0.1102 0.08942 0.3261 0.0
O88 O 0.0823 0.08652 0.28847 0.0
C89 C 0.08712 0.09021 0.26012 0.0
O90 O 0.1089 0.09702 0.25388 0.0
C91 C 0.15843 0.06765 0.34302 0.0
C92 C 0.20213 0.11046 0.44164 0.0
O93 O 0.20955 0.08794 0.44238 0.0
O94 O 0.18151 0.11411 0.4286 0.0
O95 O 0.24959 0.68622 0.65674 0.0
Cd96 Cd 0.23693 0.72732 0.67518 0.0
O97 O 0.28104 0.70444 0.63854 0.0
Cd98 Cd 0.31573 0.70708 0.61754 0.0
O99 O 0.34986 0.7056 0.59543 0.0
C100 C 0.36161 0.72539 0.58959 0.0
O101 O 0.35297 0.74733 0.59697 0.0
C102 C 0.26862 0.68457 0.6421 0.0
C103 C 0.23394 0.7334 0.74019 0.0
O104 O 0.21641 0.72416 0.72287 0.0
O105 O 0.25314 0.73915 0.72686 0.0
O106 O 0.81658 0.74978 0.10926 0.0
Cd107 Cd 0.77684 0.73507 0.12304 0.0
O108 O 0.79848 0.78207 0.08949 0.0
Cd109 Cd 0.79442 0.81702 0.06408 0.0
O110 O 0.78944 0.85539 0.04872 0.0
C111 C 0.7748 0.8611 0.02645 0.0
O112 O 0.7622 0.84323 0.01113 0.0
C113 C 0.81765 0.77035 0.09494 0.0
C114 C 0.77037 0.71788 0.18365 0.0
O115 O 0.7754 0.70269 0.16123 0.0
O116 O 0.76942 0.74126 0.17774 0.0
O117 O 0.72135 0.34435 0.65843 0.0
Cd118 Cd 0.7467 0.31017 0.67538 0.0
O119 O 0.68994 0.32043 0.6637 0.0
Cd120 Cd 0.65281 0.30791 0.65965 0.0
O121 O 0.61623 0.29384 0.65849 0.0
C122 C 0.60645 0.28432 0.63325 0.0
O123 O 0.61876 0.28297 0.60792 0.0
C124 C 0.6989 0.34128 0.65583 0.0
C125 C 0.73358 0.28397 0.72785 0.0
O126 O 0.74742 0.30339 0.73072 0.0
O127 O 0.72516 0.27748 0.70021 0.0
O128 O 0.7436 0.36113 0.36008 0.0
Cd129 Cd 0.7296 0.32682 0.32447 0.0
O130 O 0.71681 0.35098 0.39348 0.0
Cd131 Cd 0.69444 0.36047 0.43267 0.0
O132 O 0.66319 0.37069 0.45864 0.0
C133 C 0.64778 0.38371 0.44405 0.0
O134 O 0.65192 0.39063 0.41545 0.0
C135 C 0.73371 0.36534 0.38575 0.0
C136 C 0.76115 0.31763 0.27747 0.0
O137 O 0.74537 0.33444 0.27425 0.0
O138 O 0.76202 0.30534 0.30291 0.0
O139 O 0.24039 0.18092 0.93757 0.0
Cd140 Cd 0.26462 0.21783 0.92563 0.0
O141 O 0.21217 0.20528 0.95279 0.0
Cd142 Cd 0.17906 0.21542 0.97412 0.0
O143 O 0.14416 0.22608 0.98935 0.0
C144 C 0.13034 0.20903 0.99864 0.0
O145 O 0.13781 0.1859 0.99941 0.0
C146 C 0.22015 0.18333 0.94907 0.0
C147 C 0.26398 0.23243 0.8631 0.0
O148 O 0.27801 0.21546 0.8731 0.0
O149 O 0.24968 0.2419 0.88239 0.0
O150 O 0.35202 0.65762 0.26693 0.0
Cd151 Cd 0.31337 0.6466 0.24045 0.0
O152 O 0.36904 0.62569 0.24422 0.0
Cd153 Cd 0.33464 0.60856 0.22935 0.0
O154 O 0.30823 0.58697 0.25368 0.0
C155 C 0.30661 0.59358 0.28238 0.0
O156 O 0.3191 0.61326 0.29349 0.0
C157 C 0.37063 0.64531 0.26193 0.0
C158 C 0.29139 0.68506 0.2079 0.0
O159 O 0.28748 0.68129 0.23679 0.0
O160 O 0.30618 0.67092 0.19448 0.0
O161 O 0.92352 0.80031 0.68152 0.0
Cd162 Cd 0.91289 0.81123 0.62719 0.0
O163 O 0.90244 0.83182 0.69759 0.0
Cd164 Cd 0.89478 0.85873 0.73519 0.0
O165 O 0.89865 0.88095 0.77904 0.0
C166 C 0.91955 0.88548 0.79089 0.0
O167 O 0.93777 0.87677 0.77628 0.0
C168 C 0.91606 0.81374 0.70388 0.0
C169 C 0.87703 0.78104 0.59735 0.0
O170 O 0.87211 0.80087 0.61317 0.0
O171 O 0.89896 0.77532 0.59597 0.0
C172 C 0.13122 0.96393 0.08717 0.0
C173 C 0.10811 0.95422 0.09028 0.0
C174 C 0.13978 0.98434 0.1062 0.0
C175 C 0.12156 0.03248 0.16499 0.0
H176 H 0.17883 0.01369 0.21237 0.0
C177 C 0.13462 0.05022 0.29641 0.0
C178 C 0.15643 0.05984 0.30948 0.0
C179 C 0.13203 0.04336 0.26464 0.0
C180 C 0.16315 0.01959 0.19898 0.0
H181 H 0.07528 0.95899 0.11373 0.0
H182 H 0.08996 0.99444 0.1467 0.0
H183 H 0.16773 0.9923 0.16217 0.0
H184 H 0.19314 0.06834 0.30017 0.0
H185 H 0.18872 0.05571 0.24406 0.0
H186 H 0.11611 0.05839 0.20302 0.0
C187 C 0.10156 0.98669 0.1296 0.0
C188 C 0.15681 0.00742 0.17014 0.0
C189 C 0.09315 0.96625 0.11088 0.0
C190 C 0.17603 0.06136 0.29044 0.0
C191 C 0.17349 0.05422 0.25847 0.0
C192 C 0.12782 0.04448 0.19384 0.0
C193 C 0.12527 0.99534 0.12843 0.0
C194 C 0.13532 0.01289 0.15363 0.0
C195 C 0.15131 0.04554 0.24523 0.0
C196 C 0.14805 0.03731 0.21177 0.0
H197 H 0.1432 0.9546 0.07185 0.0
H198 H 0.15809 0.99067 0.10467 0.0
H199 H 0.10514 0.03745 0.15255 0.0
H200 H 0.11958 0.04757 0.31088 0.0
H201 H 0.11495 0.0359 0.25534 0.0
C202 C 0.56047 0.67959 0.50248 0.0
C203 C 0.57235 0.67251 0.53053 0.0
C204 C 0.53868 0.6917 0.5031 0.0
C205 C 0.48556 0.69491 0.51445 0.0
H206 H 0.47097 0.74341 0.57975 0.0
C207 C 0.39384 0.70019 0.5667 0.0
C208 C 0.38515 0.72363 0.57581 0.0
C209 C 0.41655 0.69828 0.55529 0.0
C210 C 0.47473 0.73019 0.561 0.0
H211 H 0.57188 0.67499 0.58146 0.0
H212 H 0.5344 0.69638 0.58259 0.0
H213 H 0.51235 0.73452 0.57039 0.0
H214 H 0.39328 0.76357 0.57912 0.0
H215 H 0.43305 0.76017 0.55926 0.0
H216 H 0.4479 0.69001 0.50573 0.0
C217 C 0.54162 0.69229 0.55998 0.0
C218 C 0.49843 0.72497 0.55581 0.0
C219 C 0.56313 0.67989 0.55931 0.0
C220 C 0.39947 0.74521 0.57245 0.0
C221 C 0.42228 0.74327 0.56115 0.0
C222 C 0.46183 0.70006 0.51973 0.0
C223 C 0.52873 0.69756 0.53191 0.0
C224 C 0.50408 0.70669 0.53318 0.0
C225 C 0.43117 0.71975 0.55279 0.0
C226 C 0.45615 0.71718 0.54374 0.0
H227 H 0.56767 0.6751 0.4801 0.0
H228 H 0.52935 0.69593 0.48107 0.0
H229 H 0.48931 0.68063 0.49694 0.0
H230 H 0.38326 0.68319 0.5689 0.0
H231 H 0.42298 0.67983 0.54949 0.0
C232 C 0.77233 0.08626 0.00991 0.0
C233 C 0.79264 0.09166 0.99337 0.0
C234 C 0.76032 0.06318 0.0052 0.0
C235 C 0.76267 0.00039 0.96294 0.0
H236 H 0.75908 0.97682 0.04786 0.0
C237 C 0.7559 0.89453 0.99367 0.0
C238 C 0.77154 0.88774 0.01869 0.0
C239 C 0.75264 0.91982 0.98698 0.0
C240 C 0.75993 0.98307 0.02396 0.0
H241 H 0.81426 0.07892 0.95579 0.0
H242 H 0.79403 0.0384 0.94833 0.0
H243 H 0.76095 0.02135 0.0392 0.0
H244 H 0.79619 0.90222 0.05605 0.0
H245 H 0.79062 0.94602 0.04435 0.0
H246 H 0.76326 0.96162 0.9483 0.0
C247 C 0.78699 0.05185 0.96469 0.0
C248 C 0.76058 0.00873 0.01884 0.0
C249 C 0.79864 0.07522 0.96889 0.0
C250 C 0.78393 0.90674 0.03671 0.0
C251 C 0.78059 0.9319 0.03014 0.0
C252 C 0.76205 0.97457 0.96814 0.0
C253 C 0.76887 0.04486 0.98452 0.0
C254 C 0.76277 0.01782 0.98839 0.0
C255 C 0.76481 0.93877 0.00536 0.0
C256 C 0.76158 0.96571 0.99887 0.0
H257 H 0.76717 0.09881 0.02866 0.0
H258 H 0.7458 0.05883 0.01998 0.0
H259 H 0.76406 0.00668 0.93916 0.0
H260 H 0.7461 0.88034 0.97931 0.0
H261 H 0.74035 0.92456 0.96776 0.0
C262 C 0.40134 0.32473 0.62194 0.0
C263 C 0.39707 0.33067 0.59041 0.0
C264 C 0.41897 0.30783 0.63031 0.0
C265 C 0.46632 0.26735 0.59828 0.0
H266 H 0.50487 0.302 0.66468 0.0
C267 C 0.56825 0.27378 0.60258 0.0
C268 C 0.58087 0.27733 0.63173 0.0
C269 C 0.54349 0.27089 0.60108 0.0
C270 C 0.49426 0.29152 0.64664 0.0
H271 H 0.40606 0.32265 0.54254 0.0
H272 H 0.43769 0.29398 0.55701 0.0
H273 H 0.46385 0.31289 0.65578 0.0
H274 H 0.57776 0.27822 0.68228 0.0
H275 H 0.53462 0.27271 0.67968 0.0
H276 H 0.49761 0.24708 0.58812 0.0
C277 C 0.42712 0.30155 0.57539 0.0
C278 C 0.47054 0.29777 0.64152 0.0
C279 C 0.40907 0.31803 0.56701 0.0
C280 C 0.56847 0.27598 0.65942 0.0
C281 C 0.54375 0.27284 0.65794 0.0
C282 C 0.49021 0.26112 0.60338 0.0
C283 C 0.43314 0.29735 0.6073 0.0
C284 C 0.45645 0.28642 0.61659 0.0
C285 C 0.53089 0.27127 0.62873 0.0
C286 C 0.50464 0.27379 0.62696 0.0
H287 H 0.39208 0.33433 0.64025 0.0
H288 H 0.42268 0.30447 0.65501 0.0
H289 H 0.45587 0.25798 0.57918 0.0
H290 H 0.57733 0.27461 0.58082 0.0
H291 H 0.53416 0.26996 0.57818 0.0
C292 C 0.69707 0.56424 0.48574 0.0
C293 C 0.67361 0.55618 0.49022 0.0
C294 C 0.71549 0.54691 0.4867 0.0
C295 C 0.72693 0.47899 0.50254 0.0
H296 H 0.75988 0.48174 0.42527 0.0
C297 C 0.74088 0.41132 0.38965 0.0
C298 C 0.73995 0.38828 0.40443 0.0
C299 C 0.74398 0.43356 0.40749 0.0
C300 C 0.7506 0.48047 0.44679 0.0
H301 H 0.65132 0.52467 0.50237 0.0
H302 H 0.6826 0.4949 0.50364 0.0
H303 H 0.74327 0.51955 0.4468 0.0
H304 H 0.74377 0.36981 0.44883 0.0
H305 H 0.75111 0.4084 0.48008 0.0
H306 H 0.73106 0.43963 0.50054 0.0
C307 C 0.68737 0.51424 0.49953 0.0
C308 C 0.74156 0.50245 0.45964 0.0
C309 C 0.66918 0.53132 0.49832 0.0
C310 C 0.74398 0.38754 0.43709 0.0
C311 C 0.74801 0.40976 0.45494 0.0
C312 C 0.7351 0.45691 0.48909 0.0
C313 C 0.71064 0.52148 0.49257 0.0
C314 C 0.72798 0.50153 0.48635 0.0
C315 C 0.74702 0.43325 0.44058 0.0
C316 C 0.7455 0.45705 0.45973 0.0
H317 H 0.70091 0.58345 0.47978 0.0
H318 H 0.73325 0.55318 0.48156 0.0
H319 H 0.71752 0.47784 0.52401 0.0
H320 H 0.7378 0.41224 0.36439 0.0
H321 H 0.74255 0.45092 0.39514 0.0
C322 C 0.92474 0.21569 0.97209 0.0
C323 C 0.91188 0.2025 0.99395 0.0
C324 C 0.94655 0.22737 0.98115 0.0
C325 C 0.9942 0.21516 0.04065 0.0
H326 H 0.02954 0.25881 0.98787 0.0
C327 C 0.08973 0.1952 0.01285 0.0
C328 C 0.10574 0.21475 0.00667 0.0
C329 C 0.0661 0.20019 0.01855 0.0
C330 C 0.02002 0.24692 0.00337 0.0
H331 H 0.91048 0.19373 0.04299 0.0
H332 H 0.94721 0.2161 0.05956 0.0
H333 H 0.98637 0.26062 0.9867 0.0
H334 H 0.10968 0.25503 0.00264 0.0
H335 H 0.06838 0.26381 0.01319 0.0
H336 H 0.02776 0.20161 0.05748 0.0
C337 C 0.94113 0.21648 0.03505 0.0
C338 C -0.00485 0.24773 0.00241 0.0
C339 C 0.91959 0.20423 0.02578 0.0
C340 C 0.09773 0.23953 0.00717 0.0
C341 C 0.07404 0.24455 0.01309 0.0
C342 C 0.01898 0.21468 0.042 0.0
C343 C 0.9558 0.22644 0.01245 0.0
C344 C 0.98183 0.23089 0.01978 0.0
C345 C 0.05786 0.22489 0.01855 0.0
C346 C 0.03214 0.22955 0.02214 0.0
H347 H 0.91917 0.21482 0.94734 0.0
H348 H 0.95707 0.23481 0.96287 0.0
H349 H 0.98487 0.20174 0.05439 0.0
H350 H 0.09525 0.17589 0.0125 0.0
H351 H 0.05411 0.18446 0.02191 0.0
C352 C 0.30886 0.45297 0.48341 0.0
C353 C 0.30641 0.42749 0.47475 0.0
C354 C 0.29773 0.47103 0.46497 0.0
C355 C 0.28209 0.47743 0.38185 0.0
H356 H 0.26428 0.54427 0.40781 0.0
C357 C 0.28189 0.55534 0.2931 0.0
C358 C 0.29437 0.57717 0.30419 0.0
C359 C 0.27395 0.5378 0.31421 0.0
C360 C 0.26917 0.52566 0.40015 0.0
H361 H 0.28885 0.40056 0.44188 0.0
H362 H 0.26893 0.43195 0.41005 0.0
H363 H 0.26692 0.51131 0.44647 0.0
H364 H 0.3066 0.59866 0.34618 0.0
H365 H 0.29357 0.5679 0.38271 0.0
H366 H 0.2859 0.49179 0.33622 0.0
C367 C 0.27975 0.43813 0.4307 0.0
C368 C 0.27061 0.50679 0.42229 0.0
C369 C 0.29102 0.42016 0.44899 0.0
C370 C 0.29719 0.58195 0.3368 0.0
C371 C 0.28949 0.56433 0.35785 0.0
C372 C 0.2808 0.49624 0.35985 0.0
C373 C 0.284 0.46381 0.43751 0.0
C374 C 0.27781 0.48264 0.41356 0.0
C375 C 0.27855 0.54159 0.34682 0.0
C376 C 0.27511 0.52082 0.36889 0.0
H377 H 0.32116 0.45911 0.5025 0.0
H378 H 0.30162 0.49063 0.47074 0.0
H379 H 0.28809 0.45919 0.37432 0.0
H380 H 0.27914 0.55128 0.26811 0.0
H381 H 0.26509 0.52076 0.30489 0.0
C382 C 0.02684 0.88742 0.92101 0.0
C383 C 0.03952 0.87345 0.94338 0.0
C384 C 0.00762 0.87652 0.9032 0.0
C385 C 0.963 0.85044 0.87366 0.0
H386 H 0.98278 0.7906 0.82935 0.0
C387 C 0.91095 0.81422 0.76186 0.0
C388 C 0.92552 0.81059 0.73644 0.0
C389 C 0.92084 0.81576 0.79265 0.0
C390 C 0.97686 0.80715 0.84168 0.0
H391 H 0.04197 0.83747 0.96527 0.0
H392 H 0.00828 0.8182 0.93392 0.0
H393 H 0.00642 0.8069 0.87537 0.0
H394 H 0.96141 0.80348 0.72326 0.0
H395 H 0.97882 0.80638 0.77684 0.0
H396 H 0.93401 0.85129 0.83942 0.0
C397 C 0.01301 0.83767 0.9305 0.0
C398 C 0.99026 0.81635 0.86824 0.0
C399 C 0.03207 0.84874 0.94865 0.0
C400 C 0.94981 0.80639 0.74246 0.0
C401 C 0.95973 0.80797 0.77323 0.0
C402 C 0.94944 0.84106 0.84737 0.0
C403 C 0.00103 0.85128 0.90701 0.0
C404 C 0.98399 0.83865 0.88369 0.0
C405 C 0.94549 0.81355 0.7986 0.0
C406 C 0.95682 0.81999 0.83021 0.0
H407 H 0.03239 0.90648 0.91646 0.0
H408 H -0.00109 0.88739 0.88504 0.0
H409 H 0.95764 0.86756 0.88531 0.0
H410 H 0.89201 0.81675 0.75782 0.0
H411 H 0.9093 0.81957 0.81169 0.0
C412 C 0.89756 0.05099 0.9758 0.0
C413 C 0.91107 0.07235 0.96909 0.0
C414 C 0.90491 0.0272 0.9664 0.0
C415 C 0.94204 0.00092 0.90461 0.0
H416 H 0.91499 0.93821 0.9316 0.0
C417 C 0.94634 0.91072 0.82913 0.0
C418 C 0.92343 0.90138 0.8198 0.0
C419 C 0.94967 0.92775 0.85459 0.0
C420 C 0.92287 0.95558 0.92404 0.0
H421 H 0.9441 0.08581 0.95127 0.0
H422 H 0.95808 0.04427 0.93741 0.0
H423 H 0.91419 0.97562 0.96593 0.0
H424 H 0.88635 0.901 0.83136 0.0
H425 H 0.89225 0.93066 0.87595 0.0
H426 H 0.95061 0.98082 0.86276 0.0
C427 C 0.94108 0.04568 0.94797 0.0
C428 C 0.92227 0.9771 0.94354 0.0
C429 C 0.93331 0.0695 0.95634 0.0
C430 C 0.90417 0.90813 0.83771 0.0
C431 C 0.90757 0.92489 0.86343 0.0
C432 C 0.9431 0.97935 0.88556 0.0
C433 C 0.92623 0.02434 0.95083 0.0
C434 C 0.93106 0.00034 0.93358 0.0
C435 C 0.93022 0.93542 0.87151 0.0
C436 C 0.93282 0.9567 0.89457 0.0
H437 H 0.88024 0.05283 0.98547 0.0
H438 H 0.89281 0.01147 0.96908 0.0
H439 H 0.94858 0.01831 0.89544 0.0
H440 H 0.9616 0.90563 0.81607 0.0
H441 H 0.96733 0.93553 0.86048 0.0
C442 C 0.44062 0.40184 0.48186 0.0
C443 C 0.43009 0.39566 0.50986 0.0
C444 C 0.46526 0.40492 0.48107 0.0
C445 C 0.52025 0.38269 0.51662 0.0
H446 H 0.54891 0.43665 0.47146 0.0
C447 C 0.62002 0.38293 0.48861 0.0
C448 C 0.62479 0.38956 0.4578 0.0
C449 C 0.59763 0.38715 0.50044 0.0
C450 C 0.54122 0.42136 0.48402 0.0
H451 H 0.43705 0.38806 0.55914 0.0
H452 H 0.4805 0.39286 0.55754 0.0
H453 H 0.50682 0.43782 0.48218 0.0
H454 H 0.60991 0.40641 0.41563 0.0
H455 H 0.57105 0.41317 0.43578 0.0
H456 H 0.55426 0.36549 0.51698 0.0
C457 C 0.46951 0.39562 0.53635 0.0
C458 C 0.51713 0.42214 0.49029 0.0
C459 C 0.4447 0.39304 0.5373 0.0
C460 C 0.60691 0.40108 0.43947 0.0
C461 C 0.58459 0.40517 0.45118 0.0
C462 C 0.54434 0.38176 0.51002 0.0
C463 C 0.48001 0.40145 0.50813 0.0
C464 C 0.50625 0.4025 0.50593 0.0
C465 C 0.57951 0.39805 0.4817 0.0
C466 C 0.55497 0.40075 0.49283 0.0
H467 H 0.4298 0.40399 0.46036 0.0
H468 H 0.47284 0.40913 0.45891 0.0
H469 H 0.51227 0.3672 0.52853 0.0
H470 H 0.63347 0.37418 0.50344 0.0
H471 H 0.59447 0.38172 0.52419 0.0
C472 C 0.14869 0.97681 0.01117 0.0
C473 C 0.12445 0.97081 0.00573 0.0
C474 C 0.15667 0.00182 0.01219 0.0
C475 C 0.13999 0.06145 0.97792 0.0
H476 H 0.1946 0.08754 0.02874 0.0
C477 C 0.18211 0.15964 0.95859 0.0
C478 C 0.20709 0.16087 0.95938 0.0
C479 C 0.17016 0.13815 0.96839 0.0
C480 C 0.17939 0.0805 0.01426 0.0
H481 H 0.08935 0.98578 0.99792 0.0
H482 H 0.10317 0.02973 0.99998 0.0
H483 H 0.17665 0.04713 0.04076 0.0
H484 H 0.23911 0.14041 0.97061 0.0
H485 H 0.21839 0.10295 0.98726 0.0
H486 H 0.14313 0.0944 0.95082 0.0
C487 C 0.11607 0.01518 0.00349 0.0
C488 C 0.16907 0.05736 0.02122 0.0
C489 C 0.10811 0.99012 0.00265 0.0
C490 C 0.21984 0.1401 0.96987 0.0
C491 C 0.20795 0.11871 0.97975 0.0
C492 C 0.15032 0.08457 0.97095 0.0
C493 C 0.14054 0.02128 0.00727 0.0
C494 C 0.14954 0.04731 0.00274 0.0
C495 C 0.18296 0.11744 0.97918 0.0
C496 C 0.17047 0.09413 0.9886 0.0
H497 H 0.1616 0.96209 0.01297 0.0
H498 H 0.17563 0.00576 0.01478 0.0
H499 H 0.1252 0.05413 0.96288 0.0
H500 H 0.17176 0.17497 0.94968 0.0
H501 H 0.1509 0.13779 0.96755 0.0
C502 C 0.52895 0.61263 0.44947 0.0
C503 C 0.55136 0.62454 0.44856 0.0
C504 C 0.50954 0.62123 0.43135 0.0
C505 C 0.49691 0.65252 0.35755 0.0
H506 H 0.43223 0.65268 0.38465 0.0
C507 C 0.39375 0.66813 0.30624 0.0
C508 C 0.39331 0.65159 0.27992 0.0
C509 C 0.41399 0.67044 0.3267 0.0
C510 C 0.45022 0.65312 0.3768 0.0
H511 H 0.57117 0.65465 0.42808 0.0
H512 H 0.53721 0.66987 0.39663 0.0
H513 H 0.46519 0.64655 0.42306 0.0
H514 H 0.41437 0.62587 0.25326 0.0
H515 H 0.44964 0.63003 0.28874 0.0
H516 H 0.48192 0.65842 0.31117 0.0
C517 C 0.53458 0.65401 0.41148 0.0
C518 C 0.46905 0.64936 0.39875 0.0
C519 C 0.55393 0.64549 0.42973 0.0
C520 C 0.41408 0.63872 0.27336 0.0
C521 C 0.43435 0.64118 0.29365 0.0
C522 C 0.47807 0.65611 0.33557 0.0
C523 C 0.51229 0.64166 0.4116 0.0
C524 C 0.49255 0.64854 0.38924 0.0
C525 C 0.43428 0.65646 0.32106 0.0
C526 C 0.45449 0.65596 0.34485 0.0
H527 H 0.52661 0.59625 0.46354 0.0
H528 H 0.49267 0.61112 0.43165 0.0
H529 H 0.5148 0.65178 0.34942 0.0
H530 H 0.37807 0.67835 0.31198 0.0
H531 H 0.41353 0.6826 0.34743 0.0
C532 C 0.31602 0.46885 0.56799 0.0
C533 C 0.34018 0.46531 0.56314 0.0
C534 C 0.30749 0.49302 0.57264 0.0
C535 C 0.32996 0.5575 0.59607 0.0
H536 H 0.26448 0.57496 0.57629 0.0
C537 C 0.29062 0.6576 0.60446 0.0
C538 C 0.27607 0.65975 0.63019 0.0
C539 C 0.29787 0.6341 0.59388 0.0
C540 C 0.28281 0.57022 0.58182 0.0
H541 H 0.3741 0.48398 0.55733 0.0
H542 H 0.3591 0.52615 0.56349 0.0
H543 H 0.27844 0.53378 0.55985 0.0
H544 H 0.25647 0.63872 0.66366 0.0
H545 H 0.2686 0.59754 0.64431 0.0
H546 H 0.33429 0.5944 0.61715 0.0
C547 C 0.34681 0.51044 0.56525 0.0
C548 C 0.29082 0.54661 0.57266 0.0
C549 C 0.35542 0.48629 0.56138 0.0
C550 C 0.26794 0.63775 0.64405 0.0
C551 C 0.27481 0.61422 0.63303 0.0
C552 C 0.32207 0.58122 0.60457 0.0
C553 C 0.32289 0.51417 0.57196 0.0
C554 C 0.31448 0.5398 0.57995 0.0
C555 C 0.29005 0.6123 0.60815 0.0
C556 C 0.29842 0.58762 0.5978 0.0
H557 H 0.30398 0.45288 0.56961 0.0
H558 H 0.28904 0.49495 0.57807 0.0
H559 H 0.3481 0.55292 0.60291 0.0
H560 H 0.29596 0.6739 0.59192 0.0
H561 H 0.30939 0.63289 0.57432 0.0
C562 C 0.0191 0.83156 0.02381 0.0
C563 C 0.02316 0.85741 0.02849 0.0
C564 C -0.00401 0.82138 0.02363 0.0
C565 C 0.93165 0.837 0.0243 0.0
H566 H 0.92869 0.77934 0.07744 0.0
C567 C 0.84549 0.80563 0.08212 0.0
C568 C 0.84065 0.7798 0.084 0.0
C569 C 0.86716 0.81435 0.07139 0.0
C570 C 0.92911 0.79517 0.06212 0.0
H571 H 0.00662 0.8931 0.03575 0.0
H572 H 0.96615 0.87545 0.03568 0.0
H573 H 0.96708 0.79565 0.06299 0.0
H574 H 0.85488 0.74286 0.07654 0.0
H575 H 0.89264 0.758 0.05768 0.0
H576 H 0.89356 0.83676 0.02413 0.0
C577 C 0.98061 0.86298 0.03139 0.0
C578 C 0.95119 0.80452 0.05373 0.0
C579 C 0.00375 0.87314 0.03139 0.0
C580 C 0.8581 0.76288 0.07537 0.0
C581 C 0.87975 0.77158 0.06459 0.0
C582 C 0.9095 0.82762 0.03272 0.0
C583 C 0.97656 0.83685 0.02876 0.0
C584 C 0.9528 0.8257 0.03496 0.0
C585 C 0.88458 0.79744 0.06246 0.0
C586 C 0.90797 0.80674 0.05203 0.0
H587 H 0.03393 0.81908 0.02206 0.0
H588 H 0.99349 0.80124 0.02097 0.0
H589 H 0.93221 0.85319 0.00958 0.0
H590 H 0.83285 0.81917 0.08977 0.0
H591 H 0.87049 0.83439 0.07082 0.0
C592 C 0.60888 0.52686 0.53956 0.0
C593 C 0.61387 0.5464 0.56193 0.0
C594 C 0.61136 0.5018 0.54787 0.0
C595 C 0.62097 0.46037 0.61674 0.0
H596 H 0.65716 0.42124 0.55886 0.0
C597 C 0.6604 0.36455 0.65016 0.0
C598 C 0.68412 0.3614 0.64236 0.0
C599 C 0.64717 0.38432 0.63786 0.0
C600 C 0.64703 0.4319 0.57531 0.0
H601 H 0.62371 0.55475 0.6111 0.0
H602 H 0.62823 0.51146 0.62539 0.0
H603 H 0.64137 0.46122 0.5428 0.0
H604 H 0.71253 0.37653 0.61556 0.0
H605 H 0.68979 0.41099 0.59465 0.0
H606 H 0.62796 0.43174 0.64994 0.0
C607 C 0.62226 0.51528 0.60147 0.0
C608 C 0.63766 0.45471 0.56592 0.0
C609 C 0.6198 0.54023 0.59319 0.0
C610 C 0.69427 0.37836 0.62197 0.0
C611 C 0.68111 0.39799 0.60966 0.0
C612 C 0.63045 0.4376 0.62618 0.0
C613 C 0.61876 0.49574 0.57876 0.0
C614 C 0.62512 0.46963 0.58686 0.0
C615 C 0.65742 0.40134 0.61752 0.0
C616 C 0.64425 0.42347 0.60592 0.0
H617 H 0.60414 0.53092 0.51531 0.0
H618 H 0.60815 0.48721 0.52988 0.0
H619 H 0.61104 0.47114 0.63329 0.0
H620 H 0.65225 0.3523 0.6665 0.0
H621 H 0.62898 0.38637 0.64445 0.0
C622 C 0.9295 0.09053 0.05139 0.0
C623 C 0.908 0.08878 0.06662 0.0
C624 C 0.95093 0.08414 0.06691 0.0
C625 C 0.97727 0.0549 0.13872 0.0
H626 H 0.02382 0.10941 0.13684 0.0
C627 C 0.04572 0.07728 0.24094 0.0
C628 C 0.0686 0.08606 0.2344 0.0
C629 C 0.0282 0.07336 0.21676 0.0
C630 C 0.0113 0.09374 0.13725 0.0
H631 H 0.89188 0.07693 0.109 0.0
H632 H 0.92909 0.06589 0.13609 0.0
H633 H 0.98949 0.10819 0.09972 0.0
H634 H 0.09109 0.09731 0.19718 0.0
H635 H 0.06053 0.09023 0.15492 0.0
H636 H -0.00125 0.04093 0.17702 0.0
C637 C 0.92951 0.07212 0.11214 0.0
C638 C 0.9916 0.093 0.11587 0.0
C639 C 0.90813 0.07859 0.09669 0.0
C640 C 0.07363 0.09059 0.20305 0.0
C641 C 0.05609 0.08661 0.17883 0.0
C642 C -0.00299 0.05561 0.16008 0.0
C643 C 0.95125 0.07579 0.09794 0.0
C644 C 0.97402 0.07396 0.11692 0.0
C645 C 0.03312 0.07809 0.18543 0.0
C646 C 0.0139 0.07543 0.16017 0.0
H647 H 0.93012 0.09854 0.02834 0.0
H648 H 0.96735 0.08685 0.0552 0.0
H649 H 0.96421 0.03978 0.13983 0.0
H650 H 0.04124 0.07358 0.26481 0.0
H651 H 0.0106 0.06721 0.22278 0.0
C652 C 0.1432 0.81696 0.09748 0.0
C653 C 0.14547 0.83206 0.07123 0.0
C654 C 0.16195 0.80243 0.10832 0.0
C655 C 0.21303 0.76809 0.0909 0.0
H656 H 0.2341 0.78427 0.17741 0.0
C657 C 0.28348 0.70963 0.15914 0.0
C658 C 0.27844 0.70452 0.19033 0.0
C659 C 0.27031 0.72721 0.14224 0.0
C660 C 0.22837 0.77937 0.15332 0.0
H661 H 0.16923 0.84325 0.03552 0.0
H662 H 0.20195 0.81667 0.05385 0.0
H663 H 0.20484 0.81028 0.15066 0.0
H664 H 0.2557 0.71393 0.22826 0.0
H665 H 0.2325 0.74395 0.19883 0.0
H666 H 0.23549 0.73628 0.09408 0.0
C667 C 0.18548 0.81642 0.0659 0.0
C668 C 0.21179 0.7944 0.13797 0.0
C669 C 0.16669 0.83139 0.05524 0.0
C670 C 0.26017 0.71754 0.20436 0.0
C671 C 0.24695 0.73493 0.18748 0.0
C672 C 0.22947 0.75276 0.10644 0.0
C673 C 0.18336 0.80235 0.09301 0.0
C674 C 0.20357 0.78856 0.10694 0.0
C675 C 0.25177 0.73997 0.15618 0.0
C676 C 0.23683 0.75785 0.13815 0.0
H677 H 0.12707 0.81685 0.11029 0.0
H678 H 0.15988 0.79151 0.12911 0.0
H679 H 0.20679 0.76321 0.06699 0.0
H680 H 0.2975 0.69993 0.14768 0.0
H681 H 0.27466 0.7308 0.1183 0.0
C682 C 0.70087 0.65998 0.49454 0.0
C683 C 0.69547 0.64488 0.51975 0.0
C684 C 0.72313 0.67221 0.49418 0.0
C685 C 0.78385 0.67544 0.53363 0.0
H686 H 0.77923 0.74692 0.52159 0.0
C687 C 0.83397 0.77151 0.58344 0.0
C688 C 0.85794 0.76522 0.58122 0.0
C689 C 0.81587 0.75629 0.56893 0.0
C690 C 0.78084 0.72698 0.52494 0.0
H691 H 0.70909 0.62971 0.56351 0.0
H692 H 0.74774 0.65094 0.56306 0.0
H693 H 0.74494 0.71938 0.50782 0.0
H694 H 0.88173 0.73834 0.56134 0.0
H695 H 0.85008 0.71178 0.5359 0.0
H696 H 0.81928 0.6832 0.55249 0.0
C697 C 0.73513 0.65323 0.54333 0.0
C698 C 0.76129 0.71115 0.51664 0.0
C699 C 0.71293 0.64121 0.54376 0.0
C700 C 0.86343 0.74362 0.56367 0.0
C701 C 0.8453 0.72837 0.54914 0.0
C702 C 0.8034 0.69127 0.54193 0.0
C703 C 0.74028 0.66942 0.51901 0.0
C704 C 0.76233 0.68531 0.52186 0.0
C705 C 0.8213 0.73442 0.55183 0.0
C706 C 0.80186 0.71732 0.53863 0.0
H707 H 0.68745 0.66353 0.47618 0.0
H708 H 0.72661 0.6845 0.47508 0.0
H709 H 0.78529 0.65557 0.53758 0.0
H710 H 0.82913 0.78803 0.59677 0.0
H711 H 0.79757 0.76129 0.57194 0.0
C712 C 0.87242 0.21549 0.07997 0.0
C713 C 0.85385 0.20522 0.06016 0.0
C714 C 0.86903 0.23737 0.09788 0.0
C715 C 0.82194 0.28378 0.11836 0.0
H716 H 0.84789 0.27285 0.20272 0.0
C717 C 0.77957 0.32801 0.22687 0.0
C718 C 0.77741 0.31194 0.25219 0.0
C719 C 0.79413 0.3218 0.20229 0.0
C720 C 0.84034 0.27613 0.17934 0.0
H721 H 0.81768 0.20999 0.04227 0.0
H722 H 0.81115 0.24712 0.07428 0.0
H723 H 0.86416 0.25087 0.15886 0.0
H724 H 0.78898 0.27695 0.2718 0.0
H725 H 0.81336 0.2656 0.22873 0.0
H726 H 0.79644 0.30705 0.13947 0.0
C727 C 0.82876 0.23939 0.07538 0.0
C728 C 0.85008 0.26387 0.15386 0.0
C729 C 0.83241 0.21794 0.05696 0.0
C730 C 0.79038 0.28981 0.25274 0.0
C731 C 0.80461 0.28344 0.22805 0.0
C732 C 0.81181 0.2956 0.14398 0.0
C733 C 0.84661 0.24867 0.09737 0.0
C734 C 0.84032 0.26659 0.12307 0.0
C735 C 0.8066 0.29923 0.20234 0.0
C736 C 0.82021 0.291 0.17492 0.0
H737 H 0.88875 0.2055 0.0839 0.0
H738 H 0.88344 0.24423 0.11386 0.0
H739 H 0.8144 0.28708 0.09499 0.0
H740 H 0.76991 0.34532 0.22594 0.0
H741 H 0.79543 0.3346 0.18316 0.0
C742 C 0.30055 0.35937 0.63924 0.0
C743 C 0.31637 0.35016 0.6175 0.0
C744 C 0.29119 0.34358 0.66139 0.0
C745 C 0.3073 0.28792 0.7048 0.0
H746 H 0.24297 0.29055 0.73283 0.0
C747 C 0.27935 0.22982 0.80895 0.0
C748 C 0.26542 0.24195 0.8309 0.0
C749 C 0.28269 0.24021 0.77969 0.0
C750 C 0.26105 0.28972 0.72545 0.0
H751 H 0.33471 0.3172 0.60178 0.0
H752 H 0.3181 0.28953 0.64011 0.0
H753 H 0.25373 0.31399 0.68703 0.0
H754 H 0.24341 0.2741 0.8389 0.0
H755 H 0.24972 0.29256 0.78834 0.0
H756 H 0.31505 0.26458 0.74371 0.0
C757 C 0.31286 0.30893 0.63998 0.0
C758 C 0.26717 0.30309 0.69913 0.0
C759 C 0.32211 0.3247 0.61774 0.0
C760 C 0.2542 0.26423 0.8225 0.0
C761 C 0.25773 0.27476 0.79335 0.0
C762 C 0.30126 0.27474 0.7312 0.0
C763 C 0.29771 0.31833 0.6625 0.0
C764 C 0.29044 0.30254 0.68871 0.0
C765 C 0.27239 0.26313 0.77178 0.0
C766 C 0.27813 0.27566 0.74214 0.0
H767 H 0.29602 0.37899 0.63974 0.0
H768 H 0.27977 0.35146 0.67862 0.0
H769 H 0.32549 0.28745 0.69773 0.0
H770 H 0.28807 0.2125 0.81458 0.0
H771 H 0.29366 0.23041 0.76345 0.0
C772 C 0.68484 0.63219 0.42075 0.0
C773 C 0.66003 0.63277 0.41534 0.0
C774 C 0.69999 0.64232 0.39899 0.0
C775 C 0.72584 0.65074 0.33769 0.0
H776 H 0.70864 0.71319 0.29914 0.0
C777 C 0.76062 0.68273 0.21915 0.0
C778 C 0.76397 0.70855 0.21467 0.0
C779 C 0.75155 0.67414 0.24699 0.0
C780 C 0.71398 0.69592 0.30991 0.0
H781 H 0.63158 0.64413 0.38298 0.0
H782 H 0.65781 0.66178 0.34522 0.0
H783 H 0.68586 0.69761 0.34173 0.0
H784 H 0.76181 0.74546 0.23676 0.0
H785 H 0.74641 0.73048 0.28542 0.0
H786 H 0.75386 0.64898 0.3055 0.0
C787 C 0.66568 0.65383 0.36633 0.0
C788 C 0.70072 0.68685 0.33413 0.0
C789 C 0.65064 0.64357 0.38786 0.0
C790 C 0.75924 0.72547 0.2393 0.0
C791 C 0.75027 0.71688 0.26716 0.0
C792 C 0.73909 0.65979 0.31327 0.0
C793 C 0.69053 0.65333 0.37156 0.0
C794 C 0.70621 0.66395 0.34796 0.0
C795 C 0.74569 0.69116 0.27103 0.0
C796 C 0.73312 0.68236 0.29879 0.0
H797 H 0.69253 0.6235 0.44145 0.0
H798 H 0.71905 0.64167 0.40368 0.0
H799 H 0.73045 0.63298 0.34777 0.0
H800 H 0.76407 0.66918 0.20065 0.0
H801 H 0.74809 0.65423 0.24901 0.0
C802 C 0.78844 0.14904 0.93405 0.0
C803 C 0.80775 0.13993 0.91788 0.0
C804 C 0.76885 0.15897 0.91738 0.0
C805 C 0.74354 0.16967 0.83555 0.0
H806 H 0.73535 0.2372 0.86832 0.0
C807 C 0.71472 0.2465 0.75185 0.0
C808 C 0.72946 0.26812 0.75514 0.0
C809 C 0.71415 0.22928 0.77601 0.0
C810 C 0.73732 0.21837 0.85881 0.0
H811 H 0.82044 0.13114 0.87182 0.0
H812 H 0.78675 0.1483 0.84297 0.0
H813 H 0.75275 0.20599 0.90236 0.0
H814 H 0.75375 0.28955 0.78728 0.0
H815 H 0.75337 0.25946 0.82874 0.0
H816 H 0.73035 0.18264 0.79122 0.0
C817 C 0.78641 0.14802 0.86834 0.0
C818 C 0.74698 0.20029 0.87854 0.0
C819 C 0.80593 0.1383 0.88492 0.0
C820 C 0.74227 0.27303 0.7839 0.0
C821 C 0.74187 0.25577 0.80789 0.0
C822 C 0.73416 0.18782 0.81573 0.0
C823 C 0.76822 0.15971 0.88433 0.0
C824 C 0.75146 0.17609 0.86665 0.0
C825 C 0.72846 0.23322 0.80388 0.0
C826 C 0.73216 0.21277 0.82668 0.0
H827 H 0.78932 0.15045 0.95949 0.0
H828 H 0.75494 0.16743 0.93041 0.0
H829 H 0.74618 0.15104 0.82583 0.0
H830 H 0.70439 0.24231 0.7301 0.0
H831 H 0.70323 0.2124 0.77231 0.0
C832 C 0.3105 0.30167 0.54043 0.0
C833 C 0.32936 0.30548 0.52071 0.0
C834 C 0.29807 0.27863 0.53968 0.0
C835 C 0.26404 0.2373 0.51372 0.0
H836 H 0.29334 0.17473 0.49121 0.0
C837 C 0.21058 0.15644 0.44994 0.0
C838 C 0.2168 0.13161 0.45576 0.0
C839 C 0.22441 0.17645 0.46319 0.0
C840 C 0.2848 0.19188 0.49798 0.0
H841 H 0.35059 0.28806 0.48554 0.0
H842 H 0.32871 0.24836 0.4835 0.0
H843 H 0.31828 0.21087 0.50791 0.0
H844 H 0.24212 0.10826 0.48062 0.0
H845 H 0.26595 0.14317 0.50441 0.0
H846 H 0.23055 0.21821 0.50424 0.0
C847 C 0.3237 0.26273 0.50018 0.0
C848 C 0.29915 0.21275 0.50721 0.0
C849 C 0.33614 0.28562 0.5011 0.0
C850 C 0.23699 0.1272 0.47545 0.0
C851 C 0.2507 0.14724 0.48901 0.0
C852 C 0.24968 0.21635 0.50483 0.0
C853 C 0.30414 0.25909 0.5189 0.0
C854 C 0.28898 0.23593 0.51426 0.0
C855 C 0.24467 0.17214 0.48292 0.0
C856 C 0.25987 0.19356 0.49594 0.0
H857 H 0.3045 0.31688 0.55511 0.0
H858 H 0.28325 0.27642 0.55465 0.0
H859 H 0.25552 0.25484 0.51876 0.0
H860 H 0.19517 0.16045 0.43477 0.0
H861 H 0.21947 0.19531 0.45738 0.0
C862 C 0.18021 0.85018 0.96761 0.0
C863 C 0.15653 0.84334 0.97229 0.0
C864 C 0.19504 0.83344 0.95278 0.0
C865 C 0.19675 0.76889 0.9147 0.0
H866 H 0.23009 0.80535 0.85231 0.0
C867 C 0.21047 0.73212 0.78855 0.0
C868 C 0.23141 0.73907 0.77408 0.0
C869 C 0.20663 0.74047 0.81923 0.0
C870 C 0.22134 0.79477 0.8699 0.0
H871 H 0.12996 0.81349 0.96723 0.0
H872 H 0.15529 0.78454 0.94001 0.0
H873 H 0.21426 0.82802 0.89608 0.0
H874 H 0.26543 0.75885 0.78124 0.0
H875 H 0.25859 0.77358 0.83471 0.0
H876 H 0.2026 0.73577 0.88665 0.0
C877 C 0.16295 0.80237 0.94857 0.0
C878 C 0.21228 0.8078 0.89528 0.0
C879 C 0.14833 0.81895 0.96416 0.0
C880 C 0.24903 0.75331 0.79161 0.0
C881 C 0.24511 0.7618 0.82221 0.0
C882 C 0.2056 0.75586 0.88896 0.0
C883 C 0.18613 0.80989 0.94122 0.0
C884 C 0.19929 0.79518 0.91765 0.0
C885 C 0.22358 0.75607 0.83601 0.0
C886 C 0.21748 0.76879 0.86589 0.0
H887 H 0.18681 0.86901 0.97371 0.0
H888 H 0.213 0.83963 0.94855 0.0
H889 H 0.18727 0.75843 0.9317 0.0
H890 H 0.1966 0.72106 0.77575 0.0
H891 H 0.18978 0.73591 0.82909 0.0
loop_
_geom_bond_atom_site_label_1
_geom_bond_atom_site_label_2
_geom_bond_distance
_geom_bond_site_symmetry_2
_ccdc_geom_bond_type
Zn0 O6 1.920 . S
Zn0 O12 1.898 . S
Zn0 O15 1.905 . S
Zn1 O9 1.905 . S
Zn1 O10 1.898 . S
Zn1 O18 1.920 . S
Zn2 O5 2.088 . S
Zn2 O8 2.106 1_554 S
Zn2 O11 2.106 1_554 S
Zn2 O13 2.133 . S
Zn2 O14 2.123 . S
Zn2 O17 2.072 1_554 S
C3 O8 1.166 . S
C3 O9 1.182 . S
C4 O10 1.167 . S
C4 O11 1.299 . S
O5 Zn2 2.088 . S
O5 C19 1.305 . S
O6 Zn0 1.920 . S
O6 C19 1.234 . S
C7 O12 1.167 . S
C7 O13 1.299 . S
O8 Zn2 2.106 1_556 S
O8 C3 1.166 . S
O9 Zn1 1.905 . S
O9 C3 1.182 . S
O10 Zn1 1.898 . S
O10 C4 1.167 . S
O11 Zn2 2.106 1_556 S
O11 C4 1.299 . S
O12 Zn0 1.898 . S
O12 C7 1.167 . S
O13 Zn2 2.133 . S
O13 C7 1.299 . S
O14 Zn2 2.123 . S
O14 C16 1.166 . S
O15 Zn0 1.905 . S
O15 C16 1.182 . S
C16 O14 1.166 . S
C16 O15 1.182 . S
O17 Zn2 2.072 1_556 S
O17 C20 1.305 . S
O18 Zn1 1.920 . S
O18 C20 1.234 . S
C19 O5 1.305 . S
C19 O6 1.234 . S
C20 O17 1.305 . S
C20 O18 1.234 . S
Zn21 O27 1.920 . S
Zn21 O33 1.898 . S
Zn21 O36 1.905 . S
Zn22 O30 1.905 . S
Zn22 O31 1.898 . S
Zn22 O39 1.920 . S
Zn23 O26 2.080 . S
Zn23 O29 2.114 . S
Zn23 O32 2.120 . S
Zn23 O34 2.120 . S
Zn23 O35 2.114 . S
Zn23 O38 2.080 . S
C24 O29 1.166 . S
C24 O30 1.182 . S
C25 O31 1.167 . S
C25 O32 1.299 . S
O26 Zn23 2.080 . S
O26 C40 1.305 . S
O27 Zn21 1.920 . S
O27 C40 1.234 . S
C28 O33 1.167 . S
C28 O34 1.299 . S
O29 Zn23 2.114 . S
O29 C24 1.166 . S
O30 Zn22 1.905 . S
O30 C24 1.182 . S
O31 Zn22 1.898 . S
O31 C25 1.167 . S
O32 Zn23 2.120 . S
O32 C25 1.299 . S
O33 Zn21 1.898 . S
O33 C28 1.167 . S
O34 Zn23 2.120 . S
O34 C28 1.299 . S
O35 Zn23 2.114 . S
O35 C37 1.166 . S
O36 Zn21 1.905 . S
O36 C37 1.182 . S
C37 O35 1.166 . S
C37 O36 1.182 . S
O38 Zn23 2.080 . S
O38 C41 1.305 . S
O39 Zn22 1.920 . S
O39 C41 1.234 . S
C40 O26 1.305 . S
C40 O27 1.234 . S
C41 O38 1.305 . S
C41 O39 1.234 . S
Zn42 O48 1.920 . S
Zn42 O54 1.898 . S
Zn42 O57 1.905 . S
Zn43 O51 1.905 . S
Zn43 O52 1.898 . S
Zn43 O60 1.920 . S
Zn44 O47 2.080 1_554 S
Zn44 O50 2.114 . S
Zn44 O53 2.120 . S
Zn44 O55 2.128 . S
Zn44 O56 2.114 1_554 S
Zn44 O59 2.080 . S
C45 O50 1.166 . S
C45 O51 1.182 . S
C46 O52 1.167 . S
C46 O53 1.299 . S
O47 Zn44 2.080 1_556 S
O47 C61 1.305 . S
O48 Zn42 1.920 . S
O48 C61 1.234 . S
C49 O54 1.167 . S
C49 O55 1.284 1_556 S
O50 Zn44 2.114 . S
O50 C45 1.166 . S
O51 Zn43 1.905 . S
O51 C45 1.182 . S
O52 Zn43 1.898 . S
O52 C46 1.167 . S
O53 Zn44 2.120 . S
O53 C46 1.299 . S
O54 Zn42 1.898 . S
O54 C49 1.167 . S
O55 Zn44 2.128 . S
O55 C49 1.284 1_554 S
O56 Zn44 2.114 1_556 S
O56 C58 1.166 . S
O57 Zn42 1.905 . S
O57 C58 1.182 . S
C58 O56 1.166 . S
C58 O57 1.182 . S
O59 Zn44 2.080 . S
O59 C62 1.305 . S
O60 Zn43 1.920 . S
O60 C62 1.234 . S
C61 O47 1.305 . S
C61 O48 1.234 . S
C62 O59 1.305 . S
C62 O60 1.234 . S
Zn63 O69 1.920 . S
Zn63 O75 1.898 . S
Zn63 O78 1.905 . S
Zn64 O72 1.905 . S
Zn64 O73 1.898 . S
Zn64 O81 1.920 . S
Zn65 O68 2.080 . S
Zn65 O71 2.114 . S
Zn65 O74 2.120 . S
Zn65 O76 2.120 . S
Zn65 O77 2.114 . S
Zn65 O80 2.080 . S
C66 O71 1.166 . S
C66 O72 1.182 . S
C67 O73 1.167 . S
C67 O74 1.299 . S
O68 Zn65 2.080 . S
O68 C82 1.305 . S
O69 Zn63 1.920 . S
O69 C82 1.234 . S
C70 O75 1.167 . S
C70 O76 1.299 . S
O71 Zn65 2.114 . S
O71 C66 1.166 . S
O72 Zn64 1.905 . S
O72 C66 1.182 . S
O73 Zn64 1.898 . S
O73 C67 1.167 . S
O74 Zn65 2.120 . S
O74 C67 1.299 . S
O75 Zn63 1.898 . S
O75 C70 1.167 . S
O76 Zn65 2.120 . S
O76 C70 1.299 . S
O77 Zn65 2.114 . S
O77 C79 1.166 . S
O78 Zn63 1.905 . S
O78 C79 1.182 . S
C79 O77 1.166 . S
C79 O78 1.182 . S
O80 Zn65 2.080 . S
O80 C83 1.305 . S
O81 Zn64 1.920 . S
O81 C83 1.234 . S
C82 O68 1.305 . S
C82 O69 1.234 . S
C83 O80 1.305 . S
C83 O81 1.234 . S
O84 Cd85 2.300 . S
O84 C91 1.275 . S
Cd85 O84 2.300 . S
Cd85 O93 2.381 . S
Cd85 O94 2.378 . S
O86 Cd87 2.385 . S
O86 C91 1.255 . S
Cd87 O86 2.385 . S
Cd87 O88 2.317 . S
O88 Cd87 2.317 . S
O88 C89 1.232 . S
C89 O88 1.232 . S
C89 O90 1.218 . S
O90 C89 1.218 . S
C91 O84 1.275 . S
C91 O86 1.255 . S
C92 O93 1.258 . S
C92 O94 1.256 . S
O93 Cd85 2.381 . S
O93 C92 1.258 . S
O94 Cd85 2.378 . S
O94 C92 1.256 . S
O95 Cd96 2.300 . S
O95 C102 1.275 . S
Cd96 O95 2.300 . S
Cd96 O104 2.381 . S
Cd96 O105 2.378 . S
O97 Cd98 2.385 . S
O97 C102 1.255 . S
Cd98 O97 2.385 . S
Cd98 O99 2.317 . S
O99 Cd98 2.317 . S
O99 C100 1.232 . S
C100 O99 1.232 . S
C100 O101 1.218 . S
O101 C100 1.218 . S
C102 O95 1.275 . S
C102 O97 1.255 . S
C103 O104 1.258 . S
C103 O105 1.256 . S
O104 Cd96 2.381 . S
O104 C103 1.258 . S
O105 Cd96 2.378 . S
O105 C103 1.256 . S
O106 Cd107 2.300 . S
O106 C113 1.275 . S
Cd107 O106 2.300 . S
Cd107 O115 2.381 . S
Cd107 O116 2.378 . S
O108 Cd109 2.385 . S
O108 C113 1.255 . S
Cd109 O108 2.385 . S
Cd109 O110 2.317 . S
O110 Cd109 2.317 . S
O110 C111 1.232 . S
C111 O110 1.232 . S
C111 O112 1.218 . S
O112 C111 1.218 . S
C113 O106 1.275 . S
C113 O108 1.255 . S
C114 O115 1.258 . S
C114 O116 1.256 . S
O115 Cd107 2.381 . S
O115 C114 1.258 . S
O116 Cd107 2.378 . S
O116 C114 1.256 . S
O117 Cd118 2.300 . S
O117 C124 1.275 . S
Cd118 O117 2.300 . S
Cd118 O126 2.381 . S
Cd118 O127 2.378 . S
O119 Cd120 2.385 . S
O119 C124 1.255 . S
Cd120 O119 2.385 . S
Cd120 O121 2.317 . S
O121 Cd120 2.317 . S
O121 C122 1.232 . S
C122 O121 1.232 . S
C122 O123 1.218 . S
O123 C122 1.218 . S
C124 O117 1.275 . S
C124 O119 1.255 . S
C125 O126 1.258 . S
C125 O127 1.256 . S
O126 Cd118 2.381 . S
O126 C125 1.258 . S
O127 Cd118 2.378 . S
O127 C125 1.256 . S
O128 Cd129 2.300 . S
O128 C135 1.275 . S
Cd129 O128 2.300 . S
Cd129 O137 2.381 . S
Cd129 O138 2.378 . S
O130 Cd131 2.385 . S
O130 C135 1.255 . S
Cd131 O130 2.385 . S
Cd131 O132 2.317 . S
O132 Cd131 2.317 . S
O132 C133 1.232 . S
C133 O132 1.232 . S
C133 O134 1.218 . S
O134 C133 1.218 . S
C135 O128 1.275 . S
C135 O130 1.255 . S
C136 O137 1.258 . S
C136 O138 1.256 . S
O137 Cd129 2.381 . S
O137 C136 1.258 . S
O138 Cd129 2.378 . S
O138 C136 1.256 . S
O139 Cd140 2.300 . S
O139 C146 1.275 . S
Cd140 O139 2.300 . S
Cd140 O148 2.381 . S
Cd140 O149 2.378 . S
O141 Cd142 2.385 . S
O141 C146 1.255 . S
Cd142 O141 2.385 . S
Cd142 O143 2.317 . S
O143 Cd142 2.317 . S
O143 C144 1.232 . S
C144 O143 1.232 . S
C144 O145 1.218 . S
O145 C144 1.218 . S
C146 O139 1.275 . S
C146 O141 1.255 . S
C147 O148 1.258 . S
C147 O149 1.256 . S
O148 Cd140 2.381 . S
O148 C147 1.258 . S
O149 Cd140 2.378 . S
O149 C147 1.256 . S
O150 Cd151 2.300 . S
O150 C157 1.275 . S
Cd151 O150 2.300 . S
Cd151 O159 2.381 . S
Cd151 O160 2.378 . S
O152 Cd153 2.385 . S
O152 C157 1.255 . S
Cd153 O152 2.385 . S
Cd153 O154 2.317 . S
O154 Cd153 2.317 . S
O154 C155 1.232 . S
C155 O154 1.232 . S
C155 O156 1.218 . S
O156 C155 1.218 . S
C157 O150 1.275 . S
C157 O152 1.255 . S
C158 O159 1.258 . S
C158 O160 1.256 . S
O159 Cd151 2.381 . S
O159 C158 1.258 . S
O160 Cd151 2.378 . S
O160 C158 1.256 . S
O161 Cd162 2.300 . S
O161 C168 1.275 . S
Cd162 O161 2.300 . S
Cd162 O170 2.381 . S
Cd162 O171 2.378 . S
O163 Cd164 2.385 . S
O163 C168 1.255 . S
Cd164 O163 2.385 . S
Cd164 O165 2.317 . S
O165 Cd164 2.317 . S
O165 C166 1.232 . S
C166 O165 1.232 . S
C166 O167 1.218 . S
O167 C166 1.218 . S
C168 O161 1.275 . S
C168 O163 1.255 . S
C169 O170 1.258 . S
C169 O171 1.256 . S
O170 Cd162 2.381 . S
O170 C169 1.258 . S
O171 Cd162 2.378 . S
O171 C169 1.256 . S
C172 C173 1.349 . S
C172 C174 1.327 . S
C172 H197 0.950 . S
C173 C172 1.349 . S
C173 C189 1.349 . S
C174 C172 1.327 . S
C174 C193 1.429 . S
C174 H198 0.950 . S
C175 C192 1.574 1_565 S
C175 C194 1.368 . S
C175 H199 0.949 . S
H176 C180 0.949 . S
C177 C178 1.349 . S
C177 C179 1.327 . S
C177 H200 0.950 . S
C178 C177 1.349 . S
C178 C190 1.349 . S
C179 C177 1.327 . S
C179 C195 1.429 . S
C179 H201 0.950 . S
C180 H176 0.949 . S
C180 C188 1.574 . S
C180 C196 1.368 . S
H181 C189 0.950 . S
H182 C187 0.950 . S
H183 C188 0.949 . S
H184 C190 0.950 . S
H185 C191 0.950 1_565 S
H186 C192 0.949 . S
C187 H182 0.950 . S
C187 C189 1.327 . S
C187 C193 1.429 . S
C188 C180 1.574 . S
C188 H183 0.949 . S
C188 C194 1.368 . S
C189 C173 1.349 . S
C189 H181 0.950 . S
C189 C187 1.327 . S
C190 C178 1.349 . S
C190 H184 0.950 . S
C190 C191 1.327 . S
C191 H185 0.950 1_545 S
C191 C190 1.327 . S
C191 C195 1.429 . S
C192 C175 1.574 1_545 S
C192 H186 0.949 . S
C192 C196 1.368 1_545 S
C193 C174 1.429 . S
C193 C187 1.429 . S
C193 C194 1.523 . S
C194 C175 1.368 . S
C194 C188 1.368 . S
C194 C193 1.523 . S
C195 C179 1.429 . S
C195 C191 1.429 . S
C195 C196 1.523 1_545 S
C196 C180 1.368 . S
C196 C192 1.368 1_565 S
C196 C195 1.523 1_565 S
H197 C172 0.950 . S
H198 C174 0.950 . S
H199 C175 0.949 . S
H200 C177 0.950 . S
H201 C179 0.950 . S
C202 C203 1.349 . S
C202 C204 1.327 . S
C202 H227 0.950 . S
C203 C202 1.349 . S
C203 C219 1.349 . S
C204 C202 1.327 . S
C204 C223 1.429 . S
C204 H228 0.950 . S
C205 C222 1.574 . S
C205 C224 1.368 . S
C205 H229 0.949 . S
H206 C210 0.949 . S
C207 C208 1.349 . S
C207 C209 1.327 . S
C207 H230 0.950 . S
C208 C207 1.349 . S
C208 C220 1.349 . S
C209 C207 1.327 . S
C209 C225 1.429 . S
C209 H231 0.950 . S
C210 H206 0.949 . S
C210 C218 1.574 . S
C210 C226 1.368 . S
H211 C219 0.950 . S
H212 C217 0.950 . S
H213 C218 0.949 . S
H214 C220 0.950 . S
H215 C221 0.950 . S
H216 C222 0.949 . S
C217 H212 0.950 . S
C217 C219 1.327 . S
C217 C223 1.429 . S
C218 C210 1.574 . S
C218 H213 0.949 . S
C218 C224 1.368 . S
C219 C203 1.349 . S
C219 H211 0.950 . S
C219 C217 1.327 . S
C220 C208 1.349 . S
C220 H214 0.950 . S
C220 C221 1.327 . S
C221 H215 0.950 . S
C221 C220 1.327 . S
C221 C225 1.429 . S
C222 C205 1.574 . S
C222 H216 0.949 . S
C222 C226 1.368 . S
C223 C204 1.429 . S
C223 C217 1.429 . S
C223 C224 1.523 . S
C224 C205 1.368 . S
C224 C218 1.368 . S
C224 C223 1.523 . S
C225 C209 1.429 . S
C225 C221 1.429 . S
C225 C226 1.523 . S
C226 C210 1.368 . S
C226 C222 1.368 . S
C226 C225 1.523 . S
H227 C202 0.950 . S
H228 C204 0.950 . S
H229 C205 0.949 . S
H230 C207 0.950 . S
H231 C209 0.950 . S
C232 C233 1.349 . S
C232 C234 1.327 . S
C232 H257 0.950 . S
C233 C232 1.349 . S
C233 C249 1.349 . S
C234 C232 1.327 . S
C234 C253 1.429 . S
C234 H258 0.950 . S
C235 C252 1.574 . S
C235 C254 1.368 1_565 S
C235 H259 0.949 . S
H236 C240 0.949 . S
C237 C238 1.349 . S
C237 C239 1.327 . S
C237 H260 0.950 . S
C238 C237 1.349 . S
C238 C250 1.349 . S
C239 C237 1.327 . S
C239 C255 1.429 . S
C239 H261 0.950 . S
C240 H236 0.949 . S
C240 C248 1.574 1_565 S
C240 C256 1.368 . S
H241 C249 0.950 . S
H242 C247 0.950 . S
H243 C248 0.949 . S
H244 C250 0.950 . S
H245 C251 0.950 . S
H246 C252 0.949 . S
C247 H242 0.950 . S
C247 C249 1.327 . S
C247 C253 1.429 . S
C248 C240 1.574 1_545 S
C248 H243 0.949 . S
C248 C254 1.368 . S
C249 C233 1.349 . S
C249 H241 0.950 . S
C249 C247 1.327 . S
C250 C238 1.349 . S
C250 H244 0.950 . S
C250 C251 1.327 . S
C251 H245 0.950 . S
C251 C250 1.327 . S
C251 C255 1.429 . S
C252 C235 1.574 . S
C252 H246 0.949 . S
C252 C256 1.368 . S
C253 C234 1.429 . S
C253 C247 1.429 . S
C253 C254 1.523 . S
C254 C235 1.368 1_545 S
C254 C248 1.368 . S
C254 C253 1.523 . S
C255 C239 1.429 . S
C255 C251 1.429 . S
C255 C256 1.523 . S
C256 C240 1.368 . S
C256 C252 1.368 . S
C256 C255 1.523 . S
H257 C232 0.950 . S
H258 C234 0.950 . S
H259 C235 0.949 . S
H260 C237 0.950 . S
H261 C239 0.950 . S
C262 C263 1.349 . S
C262 C264 1.327 . S
C262 H287 0.950 . S
C263 C262 1.349 . S
C263 C279 1.349 . S
C264 C262 1.327 . S
C264 C283 1.429 . S
C264 H288 0.950 . S
C265 C282 1.574 . S
C265 C284 1.368 . S
C265 H289 0.949 . S
H266 C270 0.949 . S
C267 C268 1.349 . S
C267 C269 1.327 . S
C267 H290 0.950 . S
C268 C267 1.349 . S
C268 C280 1.349 . S
C269 C267 1.327 . S
C269 C285 1.429 . S
C269 H291 0.950 . S
C270 H266 0.949 . S
C270 C278 1.574 . S
C270 C286 1.368 . S
H271 C279 0.950 . S
H272 C277 0.950 . S
H273 C278 0.949 . S
H274 C280 0.950 . S
H275 C281 0.950 . S
H276 C282 0.949 . S
C277 H272 0.950 . S
C277 C279 1.327 . S
C277 C283 1.429 . S
C278 C270 1.574 . S
C278 H273 0.949 . S
C278 C284 1.368 . S
C279 C263 1.349 . S
C279 H271 0.950 . S
C279 C277 1.327 . S
C280 C268 1.349 . S
C280 H274 0.950 . S
C280 C281 1.327 . S
C281 H275 0.950 . S
C281 C280 1.327 . S
C281 C285 1.429 . S
C282 C265 1.574 . S
C282 H276 0.949 . S
C282 C286 1.368 . S
C283 C264 1.429 . S
C283 C277 1.429 . S
C283 C284 1.523 . S
C284 C265 1.368 . S
C284 C278 1.368 . S
C284 C283 1.523 . S
C285 C269 1.429 . S
C285 C281 1.429 . S
C285 C286 1.523 . S
C286 C270 1.368 . S
C286 C282 1.368 . S
C286 C285 1.523 . S
H287 C262 0.950 . S
H288 C264 0.950 . S
H289 C265 0.949 . S
H290 C267 0.950 . S
H291 C269 0.950 . S
C292 C293 1.349 . S
C292 C294 1.327 . S
C292 H317 0.950 . S
C293 C292 1.349 . S
C293 C309 1.349 . S
C294 C292 1.327 . S
C294 C313 1.429 . S
C294 H318 0.950 . S
C295 C312 1.574 . S
C295 C314 1.368 . S
C295 H319 0.949 . S
H296 C300 0.949 . S
C297 C298 1.349 . S
C297 C299 1.327 . S
C297 H320 0.950 . S
C298 C297 1.349 . S
C298 C310 1.349 . S
C299 C297 1.327 . S
C299 C315 1.429 . S
C299 H321 0.950 . S
C300 H296 0.949 . S
C300 C308 1.574 . S
C300 C316 1.368 . S
H301 C309 0.950 . S
H302 C307 0.950 . S
H303 C308 0.949 . S
H304 C310 0.950 . S
H305 C311 0.950 . S
H306 C312 0.949 . S
C307 H302 0.950 . S
C307 C309 1.327 . S
C307 C313 1.429 . S
C308 C300 1.574 . S
C308 H303 0.949 . S
C308 C314 1.368 . S
C309 C293 1.349 . S
C309 H301 0.950 . S
C309 C307 1.327 . S
C310 C298 1.349 . S
C310 H304 0.950 . S
C310 C311 1.327 . S
C311 H305 0.950 . S
C311 C310 1.327 . S
C311 C315 1.429 . S
C312 C295 1.574 . S
C312 H306 0.949 . S
C312 C316 1.368 . S
C313 C294 1.429 . S
C313 C307 1.429 . S
C313 C314 1.523 . S
C314 C295 1.368 . S
C314 C308 1.368 . S
C314 C313 1.523 . S
C315 C299 1.429 . S
C315 C311 1.429 . S
C315 C316 1.523 . S
C316 C300 1.368 . S
C316 C312 1.368 . S
C316 C315 1.523 . S
H317 C292 0.950 . S
H318 C294 0.950 . S
H319 C295 0.949 . S
H320 C297 0.950 . S
H321 C299 0.950 . S
C322 C323 1.349 . S
C322 C324 1.327 . S
C322 H347 0.950 . S
C323 C322 1.349 . S
C323 C339 1.349 1_556 S
C324 C322 1.327 . S
C324 C343 1.429 . S
C324 H348 0.950 . S
C325 C342 1.574 1_655 S
C325 C344 1.368 . S
C325 H349 0.949 1_556 S
H326 C330 0.949 . S
C327 C328 1.349 . S
C327 C329 1.327 . S
C327 H350 0.950 . S
C328 C327 1.349 . S
C328 C340 1.349 . S
C329 C327 1.327 . S
C329 C345 1.429 . S
C329 H351 0.950 . S
C330 H326 0.949 . S
C330 C338 1.574 1_455 S
C330 C346 1.368 . S
H331 C339 0.950 . S
H332 C337 0.950 . S
H333 C338 0.949 . S
H334 C340 0.950 . S
H335 C341 0.950 . S
H336 C342 0.949 . S
C337 H332 0.950 . S
C337 C339 1.327 . S
C337 C343 1.429 1_554 S
C338 C330 1.574 1_655 S
C338 H333 0.949 . S
C338 C344 1.368 . S
C339 C323 1.349 1_554 S
C339 H331 0.950 . S
C339 C337 1.327 . S
C340 C328 1.349 . S
C340 H334 0.950 . S
C340 C341 1.327 . S
C341 H335 0.950 . S
C341 C340 1.327 . S
C341 C345 1.429 . S
C342 C325 1.574 1_455 S
C342 H336 0.949 . S
C342 C346 1.368 . S
C343 C324 1.429 . S
C343 C337 1.429 1_556 S
C343 C344 1.523 . S
C344 C325 1.368 . S
C344 C338 1.368 . S
C344 C343 1.523 . S
C345 C329 1.429 . S
C345 C341 1.429 . S
C345 C346 1.523 . S
C346 C330 1.368 . S
C346 C342 1.368 . S
C346 C345 1.523 . S
H347 C322 0.950 . S
H348 C324 0.950 . S
H349 C325 0.949 1_554 S
H350 C327 0.950 . S
H351 C329 0.950 . S
C352 C353 1.349 . S
C352 C354 1.327 . S
C352 H377 0.950 . S
C353 C352 1.349 . S
C353 C369 1.349 . S
C354 C352 1.327 . S
C354 C373 1.429 . S
C354 H378 0.950 . S
C355 C372 1.574 . S
C355 C374 1.368 . S
C355 H379 0.949 . S
H356 C360 0.949 . S
C357 C358 1.349 . S
C357 C359 1.327 . S
C357 H380 0.950 . S
C358 C357 1.349 . S
C358 C370 1.349 . S
C359 C357 1.327 . S
C359 C375 1.429 . S
C359 H381 0.950 . S
C360 H356 0.949 . S
C360 C368 1.574 . S
C360 C376 1.368 . S
H361 C369 0.950 . S
H362 C367 0.950 . S
H363 C368 0.949 . S
H364 C370 0.950 . S
H365 C371 0.950 . S
H366 C372 0.949 . S
C367 H362 0.950 . S
C367 C369 1.327 . S
C367 C373 1.429 . S
C368 C360 1.574 . S
C368 H363 0.949 . S
C368 C374 1.368 . S
C369 C353 1.349 . S
C369 H361 0.950 . S
C369 C367 1.327 . S
C370 C358 1.349 . S
C370 H364 0.950 . S
C370 C371 1.327 . S
C371 H365 0.950 . S
C371 C370 1.327 . S
C371 C375 1.429 . S
C372 C355 1.574 . S
C372 H366 0.949 . S
C372 C376 1.368 . S
C373 C354 1.429 . S
C373 C367 1.429 . S
C373 C374 1.523 . S
C374 C355 1.368 . S
C374 C368 1.368 . S
C374 C373 1.523 . S
C375 C359 1.429 . S
C375 C371 1.429 . S
C375 C376 1.523 . S
C376 C360 1.368 . S
C376 C372 1.368 . S
C376 C375 1.523 . S
H377 C352 0.950 . S
H378 C354 0.950 . S
H379 C355 0.949 . S
H380 C357 0.950 . S
H381 C359 0.950 . S
C382 C383 1.349 . S
C382 C384 1.327 . S
C382 H407 0.950 . S
C383 C382 1.349 . S
C383 C399 1.349 . S
C384 C382 1.327 . S
C384 C403 1.429 . S
C384 H408 0.950 . S
C385 C402 1.577 1_455 S
C385 C404 1.368 . S
C385 H409 0.949 . S
H386 C390 0.949 . S
C387 C388 1.349 . S
C387 C389 1.327 . S
C387 H410 0.950 . S
C388 C387 1.349 . S
C388 C400 1.349 . S
C389 C387 1.327 . S
C389 C405 1.429 . S
C389 H411 0.950 . S
C390 H386 0.949 . S
C390 C398 1.574 . S
C390 C406 1.368 . S
H391 C399 0.950 . S
H392 C397 0.950 . S
H393 C398 0.949 . S
H394 C400 0.950 . S
H395 C401 0.950 . S
H396 C402 0.946 . S
C397 H392 0.950 . S
C397 C399 1.327 . S
C397 C403 1.429 . S
C398 C390 1.574 . S
C398 H393 0.949 . S
C398 C404 1.368 . S
C399 C383 1.349 . S
C399 H391 0.950 . S
C399 C397 1.327 . S
C400 C388 1.349 . S
C400 H394 0.950 . S
C400 C401 1.327 . S
C401 H395 0.950 . S
C401 C400 1.327 . S
C401 C405 1.429 . S
C402 C385 1.577 1_655 S
C402 H396 0.946 . S
C402 C406 1.369 1_655 S
C403 C384 1.429 . S
C403 C397 1.429 . S
C403 C404 1.523 . S
C404 C385 1.368 . S
C404 C398 1.368 . S
C404 C403 1.523 . S
C405 C389 1.429 . S
C405 C401 1.429 . S
C405 C406 1.523 1_655 S
C406 C390 1.368 . S
C406 C402 1.369 1_455 S
C406 C405 1.523 1_455 S
H407 C382 0.950 . S
H408 C384 0.950 . S
H409 C385 0.949 . S
H410 C387 0.950 . S
H411 C389 0.950 . S
C412 C413 1.349 . S
C412 C414 1.327 . S
C412 H437 0.950 . S
C413 C412 1.349 . S
C413 C429 1.349 . S
C414 C412 1.327 . S
C414 C433 1.429 . S
C414 H438 0.950 . S
C415 C432 1.609 . S
C415 C434 1.368 . S
C415 H439 0.949 . S
H416 C420 0.949 . S
C417 C418 1.349 . S
C417 C419 1.327 . S
C417 H440 0.950 . S
C418 C417 1.349 . S
C418 C430 1.349 . S
C419 C417 1.327 . S
C419 C435 1.429 . S
C419 H441 0.950 . S
C420 H416 0.949 . S
C420 C428 1.574 . S
C420 C436 1.368 . S
H421 C429 0.950 . S
H422 C427 0.950 . S
H423 C428 0.949 . S
H424 C430 0.950 . S
H425 C431 0.950 . S
H426 C432 0.956 . S
C427 H422 0.950 . S
C427 C429 1.327 . S
C427 C433 1.429 . S
C428 C420 1.574 . S
C428 H423 0.949 . S
C428 C434 1.368 1_565 S
C429 C413 1.349 . S
C429 H421 0.950 . S
C429 C427 1.327 . S
C430 C418 1.349 . S
C430 H424 0.950 . S
C430 C431 1.327 . S
C431 H425 0.950 . S
C431 C430 1.327 . S
C431 C435 1.429 . S
C432 C415 1.609 . S
C432 H426 0.956 . S
C432 C436 1.327 1_545 S
C433 C414 1.429 . S
C433 C427 1.429 . S
C433 C434 1.523 . S
C434 C415 1.368 . S
C434 C428 1.368 1_545 S
C434 C433 1.523 . S
C435 C419 1.429 . S
C435 C431 1.429 . S
C435 C436 1.523 . S
C436 C420 1.368 . S
C436 C432 1.327 1_565 S
C436 C435 1.523 . S
H437 C412 0.950 . S
H438 C414 0.950 . S
H439 C415 0.949 . S
H440 C417 0.950 . S
H441 C419 0.950 . S
C442 C443 1.349 . S
C442 C444 1.327 . S
C442 H467 0.950 . S
C443 C442 1.349 . S
C443 C459 1.349 . S
C444 C442 1.327 . S
C444 C463 1.429 . S
C444 H468 0.950 . S
C445 C462 1.574 . S
C445 C464 1.368 . S
C445 H469 0.949 . S
H446 C450 0.949 . S
C447 C448 1.349 . S
C447 C449 1.327 . S
C447 H470 0.950 . S
C448 C447 1.349 . S
C448 C460 1.349 . S
C449 C447 1.327 . S
C449 C465 1.429 . S
C449 H471 0.950 . S
C450 H446 0.949 . S
C450 C458 1.574 . S
C450 C466 1.368 . S
H451 C459 0.950 . S
H452 C457 0.950 . S
H453 C458 0.949 . S
H454 C460 0.950 . S
H455 C461 0.950 . S
H456 C462 0.949 . S
C457 H452 0.950 . S
C457 C459 1.327 . S
C457 C463 1.429 . S
C458 C450 1.574 . S
C458 H453 0.949 . S
C458 C464 1.368 . S
C459 C443 1.349 . S
C459 H451 0.950 . S
C459 C457 1.327 . S
C460 C448 1.349 . S
C460 H454 0.950 . S
C460 C461 1.327 . S
C461 H455 0.950 . S
C461 C460 1.327 . S
C461 C465 1.429 . S
C462 C445 1.574 . S
C462 H456 0.949 . S
C462 C466 1.368 . S
C463 C444 1.429 . S
C463 C457 1.429 . S
C463 C464 1.523 . S
C464 C445 1.368 . S
C464 C458 1.368 . S
C464 C463 1.523 . S
C465 C449 1.429 . S
C465 C461 1.429 . S
C465 C466 1.523 . S
C466 C450 1.368 . S
C466 C462 1.368 . S
C466 C465 1.523 . S
H467 C442 0.950 . S
H468 C444 0.950 . S
H469 C445 0.949 . S
H470 C447 0.950 . S
H471 C449 0.950 . S
C472 C473 1.349 . S
C472 C474 1.327 1_565 S
C472 H497 0.950 1_556 S
C473 C472 1.349 . S
C473 C489 1.349 . S
C474 C472 1.327 1_545 S
C474 C493 1.429 . S
C474 H498 0.950 . S
C475 C492 1.574 . S
C475 C494 1.368 . S
C475 H499 0.949 . S
H476 C480 0.949 . S
C477 C478 1.349 . S
C477 C479 1.327 . S
C477 H500 0.950 . S
C478 C477 1.349 . S
C478 C490 1.349 . S
C479 C477 1.327 . S
C479 C495 1.429 . S
C479 H501 0.950 . S
C480 H476 0.949 . S
C480 C488 1.574 . S
C480 C496 1.368 . S
H481 C489 0.950 . S
H482 C487 0.950 . S
H483 C488 0.949 . S
H484 C490 0.950 . S
H485 C491 0.950 . S
H486 C492 0.949 . S
C487 H482 0.950 . S
C487 C489 1.327 . S
C487 C493 1.429 1_565 S
C488 C480 1.574 . S
C488 H483 0.949 . S
C488 C494 1.368 . S
C489 C473 1.349 . S
C489 H481 0.950 . S
C489 C487 1.327 . S
C490 C478 1.349 . S
C490 H484 0.950 . S
C490 C491 1.327 . S
C491 H485 0.950 . S
C491 C490 1.327 . S
C491 C495 1.429 . S
C492 C475 1.574 . S
C492 H486 0.949 . S
C492 C496 1.368 . S
C493 C474 1.429 . S
C493 C487 1.429 1_545 S
C493 C494 1.523 . S
C494 C475 1.368 . S
C494 C488 1.368 . S
C494 C493 1.523 . S
C495 C479 1.429 . S
C495 C491 1.429 . S
C495 C496 1.523 . S
C496 C480 1.368 . S
C496 C492 1.368 . S
C496 C495 1.523 . S
H497 C472 0.950 1_554 S
H498 C474 0.950 . S
H499 C475 0.949 . S
H500 C477 0.950 . S
H501 C479 0.950 . S
C502 C503 1.349 . S
C502 C504 1.327 . S
C502 H527 0.950 . S
C503 C502 1.349 . S
C503 C519 1.349 . S
C504 C502 1.327 . S
C504 C523 1.429 . S
C504 H528 0.950 . S
C505 C522 1.574 . S
C505 C524 1.368 . S
C505 H529 0.949 . S
H506 C510 0.949 . S
C507 C508 1.349 . S
C507 C509 1.327 . S
C507 H530 0.950 . S
C508 C507 1.349 . S
C508 C520 1.349 . S
C509 C507 1.327 . S
C509 C525 1.429 . S
C509 H531 0.950 . S
C510 H506 0.949 . S
C510 C518 1.574 . S
C510 C526 1.368 . S
H511 C519 0.950 . S
H512 C517 0.950 . S
H513 C518 0.949 . S
H514 C520 0.950 . S
H515 C521 0.950 . S
H516 C522 0.949 . S
C517 H512 0.950 . S
C517 C519 1.327 . S
C517 C523 1.429 . S
C518 C510 1.574 . S
C518 H513 0.949 . S
C518 C524 1.368 . S
C519 C503 1.349 . S
C519 H511 0.950 . S
C519 C517 1.327 . S
C520 C508 1.349 . S
C520 H514 0.950 . S
C520 C521 1.327 . S
C521 H515 0.950 . S
C521 C520 1.327 . S
C521 C525 1.429 . S
C522 C505 1.574 . S
C522 H516 0.949 . S
C522 C526 1.368 . S
C523 C504 1.429 . S
C523 C517 1.429 . S
C523 C524 1.523 . S
C524 C505 1.368 . S
C524 C518 1.368 . S
C524 C523 1.523 . S
C525 C509 1.429 . S
C525 C521 1.429 . S
C525 C526 1.523 . S
C526 C510 1.368 . S
C526 C522 1.368 . S
C526 C525 1.523 . S
H527 C502 0.950 . S
H528 C504 0.950 . S
H529 C505 0.949 . S
H530 C507 0.950 . S
H531 C509 0.950 . S
C532 C533 1.349 . S
C532 C534 1.327 . S
C532 H557 0.950 . S
C533 C532 1.349 . S
C533 C549 1.349 . S
C534 C532 1.327 . S
C534 C553 1.429 . S
C534 H558 0.950 . S
C535 C552 1.574 . S
C535 C554 1.368 . S
C535 H559 0.949 . S
H536 C540 0.949 . S
C537 C538 1.349 . S
C537 C539 1.327 . S
C537 H560 0.950 . S
C538 C537 1.349 . S
C538 C550 1.349 . S
C539 C537 1.327 . S
C539 C555 1.429 . S
C539 H561 0.950 . S
C540 H536 0.949 . S
C540 C548 1.574 . S
C540 C556 1.368 . S
H541 C549 0.950 . S
H542 C547 0.950 . S
H543 C548 0.949 . S
H544 C550 0.950 . S
H545 C551 0.950 . S
H546 C552 0.949 . S
C547 H542 0.950 . S
C547 C549 1.327 . S
C547 C553 1.429 . S
C548 C540 1.574 . S
C548 H543 0.949 . S
C548 C554 1.368 . S
C549 C533 1.349 . S
C549 H541 0.950 . S
C549 C547 1.327 . S
C550 C538 1.349 . S
C550 H544 0.950 . S
C550 C551 1.327 . S
C551 H545 0.950 . S
C551 C550 1.327 . S
C551 C555 1.429 . S
C552 C535 1.574 . S
C552 H546 0.949 . S
C552 C556 1.368 . S
C553 C534 1.429 . S
C553 C547 1.429 . S
C553 C554 1.523 . S
C554 C535 1.368 . S
C554 C548 1.368 . S
C554 C553 1.523 . S
C555 C539 1.429 . S
C555 C551 1.429 . S
C555 C556 1.523 . S
C556 C540 1.368 . S
C556 C552 1.368 . S
C556 C555 1.523 . S
H557 C532 0.950 . S
H558 C534 0.950 . S
H559 C535 0.949 . S
H560 C537 0.950 . S
H561 C539 0.950 . S
C562 C563 1.349 . S
C562 C564 1.327 . S
C562 H587 0.950 . S
C563 C562 1.349 . S
C563 C579 1.349 . S
C564 C562 1.327 . S
C564 C583 1.429 . S
C564 H588 0.950 . S
C565 C582 1.574 . S
C565 C584 1.368 . S
C565 H589 0.949 . S
H566 C570 0.949 . S
C567 C568 1.349 . S
C567 C569 1.327 . S
C567 H590 0.950 . S
C568 C567 1.349 . S
C568 C580 1.349 . S
C569 C567 1.327 . S
C569 C585 1.429 . S
C569 H591 0.950 . S
C570 H566 0.949 . S
C570 C578 1.574 . S
C570 C586 1.368 . S
H571 C579 0.950 . S
H572 C577 0.950 1_655 S
H573 C578 0.949 . S
H574 C580 0.950 . S
H575 C581 0.950 . S
H576 C582 0.949 . S
C577 H572 0.950 1_455 S
C577 C579 1.327 . S
C577 C583 1.429 . S
C578 C570 1.574 . S
C578 H573 0.949 . S
C578 C584 1.368 . S
C579 C563 1.349 . S
C579 H571 0.950 . S
C579 C577 1.327 . S
C580 C568 1.349 . S
C580 H574 0.950 . S
C580 C581 1.327 . S
C581 H575 0.950 . S
C581 C580 1.327 . S
C581 C585 1.429 . S
C582 C565 1.574 . S
C582 H576 0.949 . S
C582 C586 1.368 . S
C583 C564 1.429 . S
C583 C577 1.429 . S
C583 C584 1.523 1_455 S
C584 C565 1.368 . S
C584 C578 1.368 . S
C584 C583 1.523 1_655 S
C585 C569 1.429 . S
C585 C581 1.429 . S
C585 C586 1.523 . S
C586 C570 1.368 . S
C586 C582 1.368 . S
C586 C585 1.523 . S
H587 C562 0.950 . S
H588 C564 0.950 . S
H589 C565 0.949 . S
H590 C567 0.950 . S
H591 C569 0.950 . S
C592 C593 1.349 . S
C592 C594 1.327 . S
C592 H617 0.950 . S
C593 C592 1.349 . S
C593 C609 1.349 . S
C594 C592 1.327 . S
C594 C613 1.429 . S
C594 H618 0.950 . S
C595 C612 1.574 . S
C595 C614 1.368 . S
C595 H619 0.949 . S
H596 C600 0.949 . S
C597 C598 1.349 . S
C597 C599 1.327 . S
C597 H620 0.950 . S
C598 C597 1.349 . S
C598 C610 1.349 . S
C599 C597 1.327 . S
C599 C615 1.429 . S
C599 H621 0.950 . S
C600 H596 0.949 . S
C600 C608 1.574 . S
C600 C616 1.368 . S
H601 C609 0.950 . S
H602 C607 0.950 . S
H603 C608 0.949 . S
H604 C610 0.950 . S
H605 C611 0.950 . S
H606 C612 0.949 . S
C607 H602 0.950 . S
C607 C609 1.327 . S
C607 C613 1.429 . S
C608 C600 1.574 . S
C608 H603 0.949 . S
C608 C614 1.368 . S
C609 C593 1.349 . S
C609 H601 0.950 . S
C609 C607 1.327 . S
C610 C598 1.349 . S
C610 H604 0.950 . S
C610 C611 1.327 . S
C611 H605 0.950 . S
C611 C610 1.327 . S
C611 C615 1.429 . S
C612 C595 1.574 . S
C612 H606 0.949 . S
C612 C616 1.368 . S
C613 C594 1.429 . S
C613 C607 1.429 . S
C613 C614 1.523 . S
C614 C595 1.368 . S
C614 C608 1.368 . S
C614 C613 1.523 . S
C615 C599 1.429 . S
C615 C611 1.429 . S
C615 C616 1.523 . S
C616 C600 1.368 . S
C616 C612 1.368 . S
C616 C615 1.523 . S
H617 C592 0.950 . S
H618 C594 0.950 . S
H619 C595 0.949 . S
H620 C597 0.950 . S
H621 C599 0.950 . S
C622 C623 1.349 . S
C622 C624 1.327 . S
C622 H647 0.950 . S
C623 C622 1.349 . S
C623 C639 1.349 . S
C624 C622 1.327 . S
C624 C643 1.429 . S
C624 H648 0.950 . S
C625 C642 1.574 1_655 S
C625 C644 1.368 . S
C625 H649 0.949 . S
H626 C630 0.949 . S
C627 C628 1.349 . S
C627 C629 1.327 . S
C627 H650 0.950 . S
C628 C627 1.349 . S
C628 C640 1.349 . S
C629 C627 1.327 . S
C629 C645 1.429 . S
C629 H651 0.950 . S
C630 H626 0.949 . S
C630 C638 1.574 . S
C630 C646 1.368 . S
H631 C639 0.950 . S
H632 C637 0.950 . S
H633 C638 0.949 . S
H634 C640 0.950 . S
H635 C641 0.950 . S
H636 C642 0.949 . S
C637 H632 0.950 . S
C637 C639 1.327 . S
C637 C643 1.429 . S
C638 C630 1.574 . S
C638 H633 0.949 . S
C638 C644 1.368 1_455 S
C639 C623 1.349 . S
C639 H631 0.950 . S
C639 C637 1.327 . S
C640 C628 1.349 . S
C640 H634 0.950 . S
C640 C641 1.327 . S
C641 H635 0.950 . S
C641 C640 1.327 . S
C641 C645 1.429 . S
C642 C625 1.574 1_455 S
C642 H636 0.949 . S
C642 C646 1.368 . S
C643 C624 1.429 . S
C643 C637 1.429 . S
C643 C644 1.523 . S
C644 C625 1.368 . S
C644 C638 1.368 1_655 S
C644 C643 1.523 . S
C645 C629 1.429 . S
C645 C641 1.429 . S
C645 C646 1.523 . S
C646 C630 1.368 . S
C646 C642 1.368 . S
C646 C645 1.523 . S
H647 C622 0.950 . S
H648 C624 0.950 . S
H649 C625 0.949 . S
H650 C627 0.950 . S
H651 C629 0.950 . S
C652 C653 1.349 . S
C652 C654 1.327 . S
C652 H677 0.950 . S
C653 C652 1.349 . S
C653 C669 1.349 . S
C654 C652 1.327 . S
C654 C673 1.429 . S
C654 H678 0.950 . S
C655 C672 1.574 . S
C655 C674 1.368 . S
C655 H679 0.949 . S
H656 C660 0.949 . S
C657 C658 1.349 . S
C657 C659 1.327 . S
C657 H680 0.950 . S
C658 C657 1.349 . S
C658 C670 1.349 . S
C659 C657 1.327 . S
C659 C675 1.429 . S
C659 H681 0.950 . S
C660 H656 0.949 . S
C660 C668 1.574 . S
C660 C676 1.368 . S
H661 C669 0.950 . S
H662 C667 0.950 . S
H663 C668 0.949 . S
H664 C670 0.950 . S
H665 C671 0.950 . S
H666 C672 0.949 . S
C667 H662 0.950 . S
C667 C669 1.327 . S
C667 C673 1.429 . S
C668 C660 1.574 . S
C668 H663 0.949 . S
C668 C674 1.368 . S
C669 C653 1.349 . S
C669 H661 0.950 . S
C669 C667 1.327 . S
C670 C658 1.349 . S
C670 H664 0.950 . S
C670 C671 1.327 . S
C671 H665 0.950 . S
C671 C670 1.327 . S
C671 C675 1.429 . S
C672 C655 1.574 . S
C672 H666 0.949 . S
C672 C676 1.368 . S
C673 C654 1.429 . S
C673 C667 1.429 . S
C673 C674 1.523 . S
C674 C655 1.368 . S
C674 C668 1.368 . S
C674 C673 1.523 . S
C675 C659 1.429 . S
C675 C671 1.429 . S
C675 C676 1.523 . S
C676 C660 1.368 . S
C676 C672 1.368 . S
C676 C675 1.523 . S
H677 C652 0.950 . S
H678 C654 0.950 . S
H679 C655 0.949 . S
H680 C657 0.950 . S
H681 C659 0.950 . S
C682 C683 1.349 . S
C682 C684 1.327 . S
C682 H707 0.950 . S
C683 C682 1.349 . S
C683 C699 1.349 . S
C684 C682 1.327 . S
C684 C703 1.429 . S
C684 H708 0.950 . S
C685 C702 1.574 . S
C685 C704 1.368 . S
C685 H709 0.949 . S
H686 C690 0.949 . S
C687 C688 1.349 . S
C687 C689 1.327 . S
C687 H710 0.950 . S
C688 C687 1.349 . S
C688 C700 1.349 . S
C689 C687 1.327 . S
C689 C705 1.429 . S
C689 H711 0.950 . S
C690 H686 0.949 . S
C690 C698 1.574 . S
C690 C706 1.368 . S
H691 C699 0.950 . S
H692 C697 0.950 . S
H693 C698 0.949 . S
H694 C700 0.950 . S
H695 C701 0.950 . S
H696 C702 0.949 . S
C697 H692 0.950 . S
C697 C699 1.327 . S
C697 C703 1.429 . S
C698 C690 1.574 . S
C698 H693 0.949 . S
C698 C704 1.368 . S
C699 C683 1.349 . S
C699 H691 0.950 . S
C699 C697 1.327 . S
C700 C688 1.349 . S
C700 H694 0.950 . S
C700 C701 1.327 . S
C701 H695 0.950 . S
C701 C700 1.327 . S
C701 C705 1.429 . S
C702 C685 1.574 . S
C702 H696 0.949 . S
C702 C706 1.368 . S
C703 C684 1.429 . S
C703 C697 1.429 . S
C703 C704 1.523 . S
C704 C685 1.368 . S
C704 C698 1.368 . S
C704 C703 1.523 . S
C705 C689 1.429 . S
C705 C701 1.429 . S
C705 C706 1.523 . S
C706 C690 1.368 . S
C706 C702 1.368 . S
C706 C705 1.523 . S
H707 C682 0.950 . S
H708 C684 0.950 . S
H709 C685 0.949 . S
H710 C687 0.950 . S
H711 C689 0.950 . S
C712 C713 1.349 . S
C712 C714 1.327 . S
C712 H737 0.950 . S
C713 C712 1.349 . S
C713 C729 1.349 . S
C714 C712 1.327 . S
C714 C733 1.429 . S
C714 H738 0.950 . S
C715 C732 1.574 . S
C715 C734 1.368 . S
C715 H739 0.949 . S
H716 C720 0.949 . S
C717 C718 1.349 . S
C717 C719 1.327 . S
C717 H740 0.950 . S
C718 C717 1.349 . S
C718 C730 1.349 . S
C719 C717 1.327 . S
C719 C735 1.429 . S
C719 H741 0.950 . S
C720 H716 0.949 . S
C720 C728 1.574 . S
C720 C736 1.368 . S
H721 C729 0.950 . S
H722 C727 0.950 . S
H723 C728 0.949 . S
H724 C730 0.950 . S
H725 C731 0.950 . S
H726 C732 0.949 . S
C727 H722 0.950 . S
C727 C729 1.327 . S
C727 C733 1.429 . S
C728 C720 1.574 . S
C728 H723 0.949 . S
C728 C734 1.368 . S
C729 C713 1.349 . S
C729 H721 0.950 . S
C729 C727 1.327 . S
C730 C718 1.349 . S
C730 H724 0.950 . S
C730 C731 1.327 . S
C731 H725 0.950 . S
C731 C730 1.327 . S
C731 C735 1.429 . S
C732 C715 1.574 . S
C732 H726 0.949 . S
C732 C736 1.368 . S
C733 C714 1.429 . S
C733 C727 1.429 . S
C733 C734 1.523 . S
C734 C715 1.368 . S
C734 C728 1.368 . S
C734 C733 1.523 . S
C735 C719 1.429 . S
C735 C731 1.429 . S
C735 C736 1.523 . S
C736 C720 1.368 . S
C736 C732 1.368 . S
C736 C735 1.523 . S
H737 C712 0.950 . S
H738 C714 0.950 . S
H739 C715 0.949 . S
H740 C717 0.950 . S
H741 C719 0.950 . S
C742 C743 1.349 . S
C742 C744 1.327 . S
C742 H767 0.950 . S
C743 C742 1.349 . S
C743 C759 1.349 . S
C744 C742 1.327 . S
C744 C763 1.429 . S
C744 H768 0.950 . S
C745 C762 1.574 . S
C745 C764 1.368 . S
C745 H769 0.949 . S
H746 C750 0.949 . S
C747 C748 1.349 . S
C747 C749 1.327 . S
C747 H770 0.950 . S
C748 C747 1.349 . S
C748 C760 1.349 . S
C749 C747 1.327 . S
C749 C765 1.429 . S
C749 H771 0.950 . S
C750 H746 0.949 . S
C750 C758 1.574 . S
C750 C766 1.368 . S
H751 C759 0.950 . S
H752 C757 0.950 . S
H753 C758 0.949 . S
H754 C760 0.950 . S
H755 C761 0.950 . S
H756 C762 0.949 . S
C757 H752 0.950 . S
C757 C759 1.327 . S
C757 C763 1.429 . S
C758 C750 1.574 . S
C758 H753 0.949 . S
C758 C764 1.368 . S
C759 C743 1.349 . S
C759 H751 0.950 . S
C759 C757 1.327 . S
C760 C748 1.349 . S
C760 H754 0.950 . S
C760 C761 1.327 . S
C761 H755 0.950 . S
C761 C760 1.327 . S
C761 C765 1.429 . S
C762 C745 1.574 . S
C762 H756 0.949 . S
C762 C766 1.368 . S
C763 C744 1.429 . S
C763 C757 1.429 . S
C763 C764 1.523 . S
C764 C745 1.368 . S
C764 C758 1.368 . S
C764 C763 1.523 . S
C765 C749 1.429 . S
C765 C761 1.429 . S
C765 C766 1.523 . S
C766 C750 1.368 . S
C766 C762 1.368 . S
C766 C765 1.523 . S
H767 C742 0.950 . S
H768 C744 0.950 . S
H769 C745 0.949 . S
H770 C747 0.950 . S
H771 C749 0.950 . S
C772 C773 1.349 . S
C772 C774 1.327 . S
C772 H797 0.950 . S
C773 C772 1.349 . S
C773 C789 1.349 . S
C774 C772 1.327 . S
C774 C793 1.429 . S
C774 H798 0.950 . S
C775 C792 1.574 . S
C775 C794 1.368 . S
C775 H799 0.949 . S
H776 C780 0.949 . S
C777 C778 1.349 . S
C777 C779 1.327 . S
C777 H800 0.950 . S
C778 C777 1.349 . S
C778 C790 1.349 . S
C779 C777 1.327 . S
C779 C795 1.429 . S
C779 H801 0.950 . S
C780 H776 0.949 . S
C780 C788 1.574 . S
C780 C796 1.368 . S
H781 C789 0.950 . S
H782 C787 0.950 . S
H783 C788 0.949 . S
H784 C790 0.950 . S
H785 C791 0.950 . S
H786 C792 0.949 . S
C787 H782 0.950 . S
C787 C789 1.327 . S
C787 C793 1.429 . S
C788 C780 1.574 . S
C788 H783 0.949 . S
C788 C794 1.368 . S
C789 C773 1.349 . S
C789 H781 0.950 . S
C789 C787 1.327 . S
C790 C778 1.349 . S
C790 H784 0.950 . S
C790 C791 1.327 . S
C791 H785 0.950 . S
C791 C790 1.327 . S
C791 C795 1.429 . S
C792 C775 1.574 . S
C792 H786 0.949 . S
C792 C796 1.368 . S
C793 C774 1.429 . S
C793 C787 1.429 . S
C793 C794 1.523 . S
C794 C775 1.368 . S
C794 C788 1.368 . S
C794 C793 1.523 . S
C795 C779 1.429 . S
C795 C791 1.429 . S
C795 C796 1.523 . S
C796 C780 1.368 . S
C796 C792 1.368 . S
C796 C795 1.523 . S
H797 C772 0.950 . S
H798 C774 0.950 . S
H799 C775 0.949 . S
H800 C777 0.950 . S
H801 C779 0.950 . S
C802 C803 1.349 . S
C802 C804 1.327 . S
C802 H827 0.950 . S
C803 C802 1.349 . S
C803 C819 1.349 . S
C804 C802 1.327 . S
C804 C823 1.429 . S
C804 H828 0.950 . S
C805 C822 1.574 . S
C805 C824 1.368 . S
C805 H829 0.949 . S
H806 C810 0.949 . S
C807 C808 1.349 . S
C807 C809 1.327 . S
C807 H830 0.950 . S
C808 C807 1.349 . S
C808 C820 1.349 . S
C809 C807 1.327 . S
C809 C825 1.429 . S
C809 H831 0.950 . S
C810 H806 0.949 . S
C810 C818 1.574 . S
C810 C826 1.368 . S
H811 C819 0.950 . S
H812 C817 0.950 . S
H813 C818 0.949 . S
H814 C820 0.950 . S
H815 C821 0.950 . S
H816 C822 0.949 . S
C817 H812 0.950 . S
C817 C819 1.327 . S
C817 C823 1.429 . S
C818 C810 1.574 . S
C818 H813 0.949 . S
C818 C824 1.368 . S
C819 C803 1.349 . S
C819 H811 0.950 . S
C819 C817 1.327 . S
C820 C808 1.349 . S
C820 H814 0.950 . S
C820 C821 1.327 . S
C821 H815 0.950 . S
C821 C820 1.327 . S
C821 C825 1.429 . S
C822 C805 1.574 . S
C822 H816 0.949 . S
C822 C826 1.368 . S
C823 C804 1.429 . S
C823 C817 1.429 . S
C823 C824 1.523 . S
C824 C805 1.368 . S
C824 C818 1.368 . S
C824 C823 1.523 . S
C825 C809 1.429 . S
C825 C821 1.429 . S
C825 C826 1.523 . S
C826 C810 1.368 . S
C826 C822 1.368 . S
C826 C825 1.523 . S
H827 C802 0.950 . S
H828 C804 0.950 . S
H829 C805 0.949 . S
H830 C807 0.950 . S
H831 C809 0.950 . S
C832 C833 1.349 . S
C832 C834 1.327 . S
C832 H857 0.950 . S
C833 C832 1.349 . S
C833 C849 1.349 . S
C834 C832 1.327 . S
C834 C853 1.429 . S
C834 H858 0.950 . S
C835 C852 1.574 . S
C835 C854 1.368 . S
C835 H859 0.949 . S
H836 C840 0.949 . S
C837 C838 1.349 . S
C837 C839 1.327 . S
C837 H860 0.950 . S
C838 C837 1.349 . S
C838 C850 1.349 . S
C839 C837 1.327 . S
C839 C855 1.429 . S
C839 H861 0.950 . S
C840 H836 0.949 . S
C840 C848 1.574 . S
C840 C856 1.368 . S
H841 C849 0.950 . S
H842 C847 0.950 . S
H843 C848 0.949 . S
H844 C850 0.950 . S
H845 C851 0.950 . S
H846 C852 0.949 . S
C847 H842 0.950 . S
C847 C849 1.327 . S
C847 C853 1.429 . S
C848 C840 1.574 . S
C848 H843 0.949 . S
C848 C854 1.368 . S
C849 C833 1.349 . S
C849 H841 0.950 . S
C849 C847 1.327 . S
C850 C838 1.349 . S
C850 H844 0.950 . S
C850 C851 1.327 . S
C851 H845 0.950 . S
C851 C850 1.327 . S
C851 C855 1.429 . S
C852 C835 1.574 . S
C852 H846 0.949 . S
C852 C856 1.368 . S
C853 C834 1.429 . S
C853 C847 1.429 . S
C853 C854 1.523 . S
C854 C835 1.368 . S
C854 C848 1.368 . S
C854 C853 1.523 . S
C855 C839 1.429 . S
C855 C851 1.429 . S
C855 C856 1.523 . S
C856 C840 1.368 . S
C856 C852 1.368 . S
C856 C855 1.523 . S
H857 C832 0.950 . S
H858 C834 0.950 . S
H859 C835 0.949 . S
H860 C837 0.950 . S
H861 C839 0.950 . S
C862 C863 1.349 . S
C862 C864 1.327 . S
C862 H887 0.950 . S
C863 C862 1.349 . S
C863 C879 1.349 . S
C864 C862 1.327 . S
C864 C883 1.429 . S
C864 H888 0.950 . S
C865 C882 1.574 . S
C865 C884 1.368 . S
C865 H889 0.949 . S
H866 C870 0.949 . S
C867 C868 1.349 . S
C867 C869 1.327 . S
C867 H890 0.950 . S
C868 C867 1.349 . S
C868 C880 1.349 . S
C869 C867 1.327 . S
C869 C885 1.429 . S
C869 H891 0.950 . S
C870 H866 0.949 . S
C870 C878 1.574 . S
C870 C886 1.368 . S
H871 C879 0.950 . S
H872 C877 0.950 . S
H873 C878 0.949 . S
H874 C880 0.950 . S
H875 C881 0.950 . S
H876 C882 0.949 . S
C877 H872 0.950 . S
C877 C879 1.327 . S
C877 C883 1.429 . S
C878 C870 1.574 . S
C878 H873 0.949 . S
C878 C884 1.368 . S
C879 C863 1.349 . S
C879 H871 0.950 . S
C879 C877 1.327 . S
C880 C868 1.349 . S
C880 H874 0.950 . S
C880 C881 1.327 . S
C881 H875 0.950 . S
C881 C880 1.327 . S
C881 C885 1.429 . S
C882 C865 1.574 . S
C882 H876 0.949 . S
C882 C886 1.368 . S
C883 C864 1.429 . S
C883 C877 1.429 . S
C883 C884 1.523 . S
C884 C865 1.368 . S
C884 C878 1.368 . S
C884 C883 1.523 . S
C885 C869 1.429 . S
C885 C881 1.429 . S
C885 C886 1.523 . S
C886 C870 1.368 . S
C886 C882 1.368 . S
C886 C885 1.523 . S
H887 C862 0.950 . S
H888 C864 0.950 . S
H889 C865 0.949 . S
H890 C867 0.950 . S
H891 C869 0.950 . S
C173 C7 0.755 . S
C178 C91 0.756 . S
C203 C25 0.802 . S
C208 C100 0.773 . S
C233 C46 0.586 . S
C238 C111 0.758 . S
C268 C122 0.711 . S
C263 C70 0.553 . S
C298 C135 0.335 . S
C293 C28 0.535 . S
C323 C49 0.561 . S
C328 C144 0.791 . S
C353 C67 0.629 . S
C358 C155 0.656 . S
C383 C4 0.770 . S
C388 C168 0.777 . S
C413 C58 1.452 . S
C418 C166 1.253 . S
C448 C133 1.435 . S
C443 C66 1.548 . S
C478 C146 2.058 . S
C473 C3 2.008 . S
C503 C37 2.028 . S
C508 C157 2.161 . S
C538 C102 1.917 . S
C533 C79 1.831 . S
C563 C16 1.964 . S
C568 C113 2.000 . S
C598 C124 1.797 . S
C593 C24 1.689 . S
C628 C89 1.260 . S
C623 C45 1.449 . S
C658 C158 1.444 . S
C653 C19 1.306 . S
C688 C169 1.406 . S
C683 C41 1.325 . S
C713 C62 1.010 . S
C718 C136 1.123 . S
C748 C147 1.329 . S
C743 C82 1.201 . S
C778 C114 1.367 . S
C773 C40 1.244 . S
C803 C61 0.971 . S
C808 C125 1.048 . S
C838 C92 1.344 . S
C833 C83 1.255 . S
C868 C103 1.500 . S
C863 C20 1.356 . S
